drugbank_target|Q14994 Nuclear receptor subfamily 1 group I member 3 (DB00366; DB00737; DB00836; DB01026; DB01076; DB01620; DB01708; DB01889; DB02709; DB04540; DB04824; DB07557; DB07931; DB08604)
 OpenBabel12092120423D

  0  0  0     0  0            999 V3000
M  V30 BEGIN CTAB
M  V30 COUNTS 5641 5698 0 0 0
M  V30 BEGIN ATOM
M  V30 1 H -0.908 1.98254 -0.117106 0
M  V30 2 N 0 1.576 0 0
M  V30 3 C 0.933 2.03868 1.02534 0
M  V30 4 C 1.911 0.928543 1.3348 0
M  V30 5 O 3.095 1.19667 1.45644 0
M  V30 6 C 0.222 2.43627 2.35294 0
M  V30 7 C -0.732 3.65373 2.2001 0
M  V30 8 S 0.101 5.13292 1.52614 0
M  V30 9 C 1.257 5.56322 2.86805 0
M  V30 10 H 1.49 2.90518 0.631377 0
M  V30 11 H -0.977 1.52953 0.210867 0
M  V30 12 H 0.981 2.67203 3.11629 0
M  V30 13 H -0.358 1.57376 2.7183 0
M  V30 14 H -1.165 3.90944 3.18086 0
M  V30 15 H -1.563 3.418 1.51819 0
M  V30 16 H 0.729 5.58782 3.83104 0
M  V30 17 H 1.672 6.56266 2.65933 0
M  V30 18 H 2.08 4.83886 2.90714 0
M  V30 19 N 1.4781 -0.272755 1.55222 0
M  V30 20 C 2.4411 -1.32041 1.87344 0
M  V30 21 C 3.4411 -1.42342 0.74803 0
M  V30 22 O 4.6311 -1.41488 1.0162 0
M  V30 23 C 1.7631 -2.70173 2.07893 0
M  V30 24 H 2.9561 -1.04789 2.80997 0
M  V30 25 H 0.5091 -0.51083 1.47717 0
M  V30 26 H 1.2441 -3.02605 1.16622 0
M  V30 27 H 1.0291 -2.64082 2.89833 0
M  V30 28 H 2.5191 -3.45869 2.34017 0
M  V30 29 N 2.9562 -1.48159 -0.537278 0
M  V30 30 C 4.1812 -1.59707 -1.32319 0
M  V30 31 C 4.6062 -0.254859 -1.86365 0
M  V30 32 O 3.9642 0.772378 -1.64024 0
M  V30 33 C 4.0122 -2.6412 -2.45505 0
M  V30 34 O 3.1162 -2.20774 -3.48328 0
M  V30 35 H 2.4572 -0.535791 -0.392204 0
M  V30 36 H 4.9872 -1.94092 -0.647268 0
M  V30 37 H 4.9972 -2.85166 -2.91795 0
M  V30 38 H 3.6722 -3.61567 -2.05528 0
M  V30 39 H 2.2492 -2.09911 -3.08207 0
M  V30 40 N 4.4343 0.785586 -1.36625 0
M  V30 41 C 5.8503 1.08419 -1.17122 0
M  V30 42 C 6.0503 2.015 0.00208491 0
M  V30 43 O 5.1063 2.43551 0.666278 0
M  V30 44 C 6.4193 1.69498 -2.48377 0
M  V30 45 C 7.9673 1.81821 -2.54775 0
M  V30 46 C 8.4423 2.46315 -3.86126 0
M  V30 47 N 9.9333 2.53779 -3.87492 0
M  V30 48 C 10.6683 3.045 -4.85868 0
M  V30 49 N 10.1643 3.55499 -5.94637 0
M  V30 50 N 11.9573 3.03247 -4.73284 0
M  V30 51 H 4.1083 0.167264 -2.1174 0
M  V30 52 H 6.3713 0.13682 -0.938075 0
M  V30 53 H 6.0773 1.08571 -3.34522 0
M  V30 54 H 5.9513 2.6896 -2.64462 0
M  V30 55 H 8.3383 2.41884 -1.69045 0
M  V30 56 H 8.4193 0.811532 -2.42586 0
M  V30 57 H 8.0633 1.86895 -4.72263 0
M  V30 58 H 7.9933 3.47561 -3.95612 0
M  V30 59 H 10.4843 2.17672 -3.08913 0
M  V30 60 H 10.7973 3.92562 -6.65669 0
M  V30 61 H 9.1423 3.5364 -5.98301 0
M  V30 62 H 12.3333 2.62696 -3.87438 0
M  V30 63 H 12.5063 3.42467 -5.50109 0
M  V30 64 N 5.9124 1.20967 1.01018 0
M  V30 65 C 6.8224 0.980157 2.13143 0
M  V30 66 C 7.8384 -0.0660665 1.73875 0
M  V30 67 O 9.0144 0.122821 2.01025 0
M  V30 68 C 6.0794 0.54216 3.42435 0
M  V30 69 C 5.1404 1.65999 3.95908 0
M  V30 70 C 4.3734 1.2428 5.19028 0
M  V30 71 O 4.5964 0.114196 5.70286 0
M  V30 72 O 3.5304 2.05271 5.65816 0
M  V30 73 H 7.3564 1.91913 2.35379 0
M  V30 74 H 4.9414 0.994099 1.11526 0
M  V30 75 H 6.8234 0.30744 4.20277 0
M  V30 76 H 5.4984 -0.36815 3.216 0
M  V30 77 H 4.4054 1.94906 3.19316 0
M  V30 78 H 5.7384 2.54753 4.21143 0
M  V30 79 N 7.3905 -1.2043 1.01659 0
M  V30 80 C 8.6675 -1.8548 0.621004 0
M  V30 81 C 9.0475 -1.9091 -0.900919 0
M  V30 82 O 8.3955 -1.41694 -1.79263 0
M  V30 83 C 8.6055 -3.25119 1.2688 0
M  V30 84 C 9.9535 -4.01403 1.38423 0
M  V30 85 O 10.9775 -3.34473 1.22501 0
M  V30 86 O 9.8365 -5.21265 1.64151 0
M  V30 87 H 6.9305 -0.798761 0.214266 0
M  V30 88 H 9.4765 -1.28019 1.11396 0
M  V30 89 H 8.2485 -3.15932 2.30873 0
M  V30 90 H 7.8715 -3.90212 0.762917 0
M  V30 91 N 8.8686 -0.792821 -1.36206 0
M  V30 92 C 9.7786 -0.194808 -2.3379 0
M  V30 93 C 10.7946 0.654869 -1.61206 0
M  V30 94 O 11.9706 0.569856 -1.9317 0
M  V30 95 C 9.0356 0.657721 -3.40404 0
M  V30 96 C 8.0966 -0.210849 -4.28782 0
M  V30 97 C 7.3296 0.601086 -5.30304 0
M  V30 98 O 7.5526 1.83682 -5.40016 0
M  V30 99 O 6.4866 -0.000808277 -6.019 0
M  V30 100 H 10.3126 -1.00172 -2.86704 0
M  V30 101 H 7.8976 -0.554341 -1.38735 0
M  V30 102 H 9.7796 1.14375 -4.05581 0
M  V30 103 H 8.4546 1.44247 -2.89784 0
M  V30 104 H 7.3616 -0.743714 -3.66633 0
M  V30 105 H 8.6946 -0.959195 -4.82763 0
M  V30 106 N 10.3467 1.47872 -0.545128 0
M  V30 107 C 11.2767 2.32661 0.197793 0
M  V30 108 C 12.2577 1.43041 0.920504 0
M  V30 109 O 13.4427 1.71912 0.90333 0
M  V30 110 C 10.5727 3.24569 1.23582 0
M  V30 111 C 9.5267 4.23333 0.630323 0
M  V30 112 C 8.8527 5.0448 1.77211 0
M  V30 113 C 10.1527 5.20704 -0.407974 0
M  V30 114 H 11.8467 2.95024 -0.510045 0
M  V30 115 H 9.3927 1.4187 -0.246731 0
M  V30 116 H 11.3457 3.8272 1.76362 0
M  V30 117 H 10.0697 2.60236 1.97344 0
M  V30 118 H 8.7287 3.6639 0.123922 0
M  V30 119 H 8.3767 4.36561 2.49847 0
M  V30 120 H 8.0767 5.71339 1.37281 0
M  V30 121 H 9.6007 5.65487 2.3034 0
M  V30 122 H 11.0147 5.7329 0.033305 0
M  V30 123 H 9.4117 5.95699 -0.725486 0
M  V30 124 H 10.4817 4.66917 -1.30828 0
M  V30 125 N 11.8248 0.280983 1.55075 0
M  V30 126 C 13.2408 -0.0729964 1.59433 0
M  V30 127 C 13.4408 -1.5411 1.29817 0
M  V30 128 O 12.4968 -2.29086 1.06187 0
M  V30 129 C 13.8098 0.306921 2.9913 0
M  V30 130 C 15.3578 0.254023 3.11968 0
M  V30 131 C 15.8328 0.608467 4.5394 0
M  V30 132 N 17.3238 0.560241 4.59799 0
M  V30 133 C 18.0588 0.80722 5.6769 0
M  V30 134 N 17.5548 1.11912 6.83701 0
M  V30 135 N 19.3478 0.735623 5.57266 0
M  V30 136 H 11.4988 1.238 1.7259 0
M  V30 137 H 13.7618 0.500547 0.805082 0
M  V30 138 H 13.4678 1.32816 3.25657 0
M  V30 139 H 13.3418 -0.349363 3.75579 0
M  V30 140 H 15.7288 -0.75794 2.852 0
M  V30 141 H 15.8098 0.944649 2.37718 0
M  V30 142 H 15.4538 1.61814 4.81434 0
M  V30 143 H 15.3838 -0.104013 5.26497 0
M  V30 144 H 17.8748 0.329288 3.76463 0
M  V30 145 H 18.1878 1.29409 7.61888 0
M  V30 146 H 16.5328 1.15695 6.85303 0
M  V30 147 H 19.7238 0.491752 4.6551 0
M  V30 148 H 19.8968 0.931482 6.4127 0
M  V30 149 N 13.3029 -1.57598 0.00835791 0
M  V30 150 C 14.2509 -2.10078 -0.998508 0
M  V30 151 C 15.2449 -1.02262 -1.35051 0
M  V30 152 O 16.4509 -1.20719 -1.33518 0
M  V30 153 H 12.8259 -0.670903 -0.339696 0
M  V30 154 H 14.7969 -2.93648 -0.530398 0
M  V30 155 C 13.5459 -2.62615 -2.27879 0
M  V30 156 H 12.8689 -3.45213 -2.01662 0
M  V30 157 H 14.3089 -3.03004 -2.96588 0
M  V30 158 C 12.7679 -1.54407 -2.99433 0
M  V30 159 O 13.2979 -0.931812 -3.90743 0
M  V30 160 N 11.5039 -1.2695 -2.61404 0
M  V30 161 H 11.0509 -1.76924 -1.87232 0
M  V30 162 H 11.0089 -0.547704 -3.09593 0
M  V30 163 N 14.781 0.264519 -1.55364 0
M  V30 164 C 16.021 1.00254 -1.78125 0
M  V30 165 C 16.385 1.83187 -0.575017 0
M  V30 166 O 17.586 2.60029 -0.681042 0
M  V30 167 C 15.857 1.85478 -3.05504 0
M  V30 168 S 17.416 2.6543 -3.49417 0
M  V30 169 H 14.234 0.337522 -0.625779 0
M  V30 170 H 16.836 0.272111 -1.93597 0
M  V30 171 H 15.54 1.23491 -3.9138 0
M  V30 172 H 15.071 2.62827 -2.92721 0
M  V30 173 H 17.086 3.87958 -3.09359 0
M  V30 174 N 16.2591 1.48442 0.529413 0
M  V30 175 C 17.5051 1.5672 1.28711 0
M  V30 176 C 17.8381 0.2406 1.92704 0
M  V30 177 O 17.1131 -0.753454 1.79313 0
M  V30 178 C 17.3961 2.70587 2.37603 0
M  V30 179 C 17.2491 4.12953 1.78297 0
M  V30 180 C 18.5681 2.80212 3.39366 0
M  V30 181 H 15.6871 0.570474 0.466613 0
M  V30 182 H 18.3291 1.80617 0.589706 0
M  V30 183 H 16.4791 2.50342 2.97088 0
M  V30 184 H 18.1511 4.44639 1.22858 0
M  V30 185 H 16.3941 4.19927 1.0883 0
M  V30 186 H 17.0651 4.88448 2.57144 0
M  V30 187 H 19.5411 2.98553 2.89836 0
M  V30 188 H 18.4171 3.61611 4.12951 0
M  V30 189 H 18.6781 1.88393 3.99951 0
M  V30 190 N 17.7372 -0.778329 1.37039 0
M  V30 191 C 18.9832 -1.53892 1.32079 0
M  V30 192 C 19.3162 -1.9396 -0.0965386 0
M  V30 193 O 18.5912 -1.63568 -1.05242 0
M  V30 194 C 18.8742 -2.80847 2.25382 0
M  V30 195 C 18.7272 -2.47076 3.75864 0
M  V30 196 C 20.0462 -3.82741 2.1725 0
M  V30 197 H 17.1652 -0.558303 0.48111 0
M  V30 198 H 19.8072 -0.893397 1.67685 0
M  V30 199 H 17.9572 -3.35931 1.95148 0
M  V30 200 H 19.6292 -1.97957 4.16666 0
M  V30 201 H 17.8722 -1.79863 3.94755 0
M  V30 202 H 18.5432 -3.37798 4.36574 0
M  V30 203 H 21.0192 -3.37133 2.43887 0
M  V30 204 H 19.8952 -4.69303 2.84686 0
M  V30 205 H 20.1562 -4.2652 1.16331 0
M  V30 206 N 19.2153 -1.21501 -1.00376 0
M  V30 207 C 20.4553 -1.04444 -1.75701 0
M  V30 208 C 20.8193 0.414644 -1.87469 0
M  V30 209 O 22.0203 0.705763 -2.59369 0
M  V30 210 C 20.2913 -1.72389 -3.13077 0
M  V30 211 S 21.8503 -1.70604 -4.04277 0
M  V30 212 H 18.6683 -0.374249 -0.604532 0
M  V30 213 H 21.2703 -1.54267 -1.20091 0
M  V30 214 H 19.9743 -2.77734 -3.02146 0
M  V30 215 H 19.5053 -1.22751 -3.73759 0
M  V30 216 H 21.5203 -0.748012 -4.9053 0
M  V30 217 N 20.6934 1.19889 -1.02296 0
M  V30 218 C 21.9414 1.89046 -0.714558 0
M  V30 219 C 22.2624 1.79636 0.758681 0
M  V30 220 O 21.5324 1.20292 1.54618 0
M  V30 221 H 20.1124 0.699802 -0.261317 0
M  V30 222 H 22.7744 1.45574 -1.29592 0
M  V30 223 H 21.8704 2.95524 -1.0036 0
M  V30 224 N 22.1715 0.800033 1.35784 0
M  V30 225 C 23.4485 0.30088 1.93272 0
M  V30 226 C 23.8285 -1.20857 1.73081 0
M  V30 227 O 23.1765 -2.00502 1.09596 0
M  V30 228 C 23.3865 0.70511 3.41803 0
M  V30 229 C 24.7345 0.690871 4.18942 0
M  V30 230 O 25.7585 0.646244 3.50289 0
M  V30 231 O 24.6175 0.74332 5.41421 0
M  V30 232 H 21.7115 0.0771605 0.823393 0
M  V30 233 H 24.2575 0.88329 1.449 0
M  V30 234 H 23.0295 1.74571 3.50201 0
M  V30 235 H 22.6525 0.0971541 3.97481 0
M  V30 236 N 23.6496 -1.47581 0.552962 0
M  V30 237 C 24.5816 -2.27997 -0.234533 0
M  V30 238 C 25.5946 -1.36753 -0.883321 0
M  V30 239 O 26.7836 -1.61612 -0.757889 0
M  V30 240 C 23.8836 -3.10879 -1.34935 0
M  V30 241 C 23.0566 -4.30056 -0.798158 0
M  V30 242 C 22.1156 -4.94567 -1.79694 0
M  V30 243 O 21.1416 -5.53087 -1.34474 0
M  V30 244 N 22.3436 -4.88878 -3.13015 0
M  V30 245 H 25.1086 -2.96222 0.455255 0
M  V30 246 H 22.6696 -1.57163 0.388761 0
M  V30 247 H 24.6616 -3.50903 -2.01616 0
M  V30 248 H 23.2316 -2.44924 -1.94244 0
M  V30 249 H 22.4516 -3.94174 0.0453079 0
M  V30 250 H 23.7396 -5.07152 -0.409173 0
M  V30 251 H 23.1376 -4.42526 -3.52402 0
M  V30 252 H 21.6946 -5.32934 -3.75266 0
M  V30 253 N 25.1277 -0.289203 -1.54924 0
M  V30 254 C 26.0907 0.579144 -2.21762 0
M  V30 255 C 27.0907 1.07047 -1.1999 0
M  V30 256 O 28.2807 0.968384 -1.44803 0
M  V30 257 C 25.4127 1.80055 -2.8947 0
M  V30 258 H 26.6057 -0.00464908 -2.999 0
M  V30 259 H 24.1587 -0.0399306 -1.56249 0
M  V30 260 H 24.8937 2.42449 -2.15381 0
M  V30 261 H 24.6787 1.45602 -3.64064 0
M  V30 262 H 26.1687 2.41773 -3.40493 0
M  V30 263 N 26.6058 1.57591 -0.0167156 0
M  V30 264 C 27.8338 1.95575 0.675128 0
M  V30 265 C 28.2488 0.892542 1.6637 0
M  V30 266 O 27.6058 -0.126912 1.82058 0
M  V30 267 C 27.6568 3.33608 1.39239 0
M  V30 268 O 27.3778 4.3585 0.443444 0
M  V30 269 C 28.8788 3.86151 2.17721 0
M  V30 270 H 26.0988 0.644423 0.186978 0
M  V30 271 H 28.6428 2.0437 -0.0728 0
M  V30 272 H 26.7978 3.2607 2.09182 0
M  V30 273 H 27.2118 5.158 0.951358 0
M  V30 274 H 28.6858 4.85114 2.63379 0
M  V30 275 H 29.1628 3.19738 3.01105 0
M  V30 276 H 29.7688 3.96918 1.52761 0
M  V30 277 N 28.0839 -0.256276 1.55502 0
M  V30 278 C 29.3319 -0.983672 1.76545 0
M  V30 279 C 29.6529 -1.86206 0.578982 0
M  V30 280 O 28.9229 -1.91656 -0.405577 0
M  V30 281 H 27.5029 -0.366191 0.651086 0
M  V30 282 H 30.1649 -0.276479 1.92929 0
M  V30 283 H 29.2609 -1.61087 2.67315 0
M  V30 284 N 29.562 -1.4872 -0.521534 0
M  V30 285 C 30.792 -1.6061 -1.29954 0
M  V30 286 C 31.2 -0.268728 -1.87282 0
M  V30 287 O 30.543 0.753221 -1.67548 0
M  V30 288 C 30.605 -2.60013 -2.48261 0
M  V30 289 C 30.269 -4.04874 -2.11957 0
M  V30 290 C 31.266 -4.92304 -1.67132 0
M  V30 291 C 28.951 -4.5047 -2.22221 0
M  V30 292 C 30.945 -6.2336 -1.33047 0
M  V30 293 C 28.632 -5.81544 -1.87748 0
M  V30 294 C 29.63 -6.67812 -1.43234 0
M  V30 295 O 29.318 -7.96446 -1.09217 0
M  V30 296 H 29.05 -0.544116 -0.401141 0
M  V30 297 H 31.604 -1.95339 -0.634958 0
M  V30 298 H 29.834 -2.20422 -3.17728 0
M  V30 299 H 31.523 -2.61648 -3.10315 0
M  V30 300 H 32.289 -4.58312 -1.58665 0
M  V30 301 H 28.168 -3.83504 -2.55823 0
M  V30 302 H 31.712 -6.90649 -0.982299 0
M  V30 303 H 27.609 -6.15069 -1.95858 0
M  V30 304 H 28.377 -8.09275 -1.22542 0
M  V30 305 N 31.0401 0.771051 -1.3745 0
M  V30 306 C 31.9901 1.87456 -1.29785 0
M  V30 307 C 32.9741 1.59827 -0.185541 0
M  V30 308 O 34.1661 1.71945 -0.419997 0
M  V30 309 C 31.2951 3.24935 -1.1078 0
M  V30 310 C 30.3811 3.58514 -2.26558 0
M  V30 311 N 30.7721 3.6327 -3.5195 0
M  V30 312 C 29.0701 3.88683 -2.18727 0
M  V30 313 C 29.7711 3.93616 -4.283 0
M  V30 314 N 28.7471 4.09551 -3.57448 0
M  V30 315 H 32.5491 1.89386 -2.24745 0
M  V30 316 H 30.0631 0.967531 -1.30432 0
M  V30 317 H 32.0601 4.03881 -1.03374 0
M  V30 318 H 30.7201 3.24268 -0.16738 0
M  V30 319 H 31.7311 3.45458 -3.85848 0
M  V30 320 H 28.4081 3.95834 -1.32746 0
M  V30 321 H 29.7981 4.04066 -5.36824 0
M  V30 322 N 32.5182 1.22032 0.997298 0
M  V30 323 C 33.7652 1.04222 1.73621 0
M  V30 324 C 34.0932 -0.423264 1.89839 0
M  V30 325 O 33.3482 -1.3302 1.43542 0
M  V30 326 C 33.6472 1.69345 3.14733 0
M  V30 327 C 33.3132 3.19226 3.18442 0
M  V30 328 C 31.9752 3.60124 3.19161 0
M  V30 329 C 34.3272 4.15181 3.15078 0
M  V30 330 C 31.6552 4.95467 3.14212 0
M  V30 331 C 34.0072 5.50495 3.1167 0
M  V30 332 C 32.6712 5.90779 3.10703 0
M  V30 333 H 31.9412 0.381374 0.635323 0
M  V30 334 H 34.5882 1.51732 1.16831 0
M  V30 335 H 32.8932 1.14147 3.74803 0
M  V30 336 H 34.5902 1.53059 3.7064 0
M  V30 337 H 31.1802 2.86659 3.18629 0
M  V30 338 H 35.3642 3.84605 3.13676 0
M  V30 339 H 30.6202 5.25916 3.11805 0
M  V30 340 H 34.7942 6.24576 3.08022 0
M  V30 341 H 32.4212 6.9562 3.06622 0
M  V30 342 N 33.9963 -1.19345 1.0293 0
M  V30 343 C 34.9443 -2.24621 0.604001 0
M  V30 344 C 35.9383 -1.65452 -0.363587 0
M  V30 345 O 37.1443 -1.78497 -0.23212 0
M  V30 346 H 33.5193 -0.730858 0.177061 0
M  V30 347 H 35.4903 -2.5781 1.50255 0
M  V30 348 C 34.2393 -3.47688 -0.0289127 0
M  V30 349 H 33.5623 -3.93505 0.706651 0
M  V30 350 H 35.0023 -4.23011 -0.289432 0
M  V30 351 C 33.4613 -3.11817 -1.2756 0
M  V30 352 O 33.9913 -3.2451 -2.36762 0
M  V30 353 N 32.1973 -2.66246 -1.16453 0
M  V30 354 H 31.7443 -2.56118 -0.275914 0
M  V30 355 H 31.7023 -2.42617 -1.99961 0
M  V30 356 N 35.4744 -0.807222 -1.35358 0
M  V30 357 C 36.4374 -0.223665 -2.28106 0
M  V30 358 C 37.4374 0.589354 -1.4961 0
M  V30 359 O 38.6274 0.407745 -1.69361 0
M  V30 360 C 35.7594 0.688149 -3.33882 0
M  V30 361 H 36.9524 -1.04169 -2.81227 0
M  V30 362 H 34.5054 -0.577921 -1.45223 0
M  V30 363 H 35.2404 1.52984 -2.85948 0
M  V30 364 H 35.0254 0.10687 -3.91954 0
M  V30 365 H 36.5154 1.09075 -4.03104 0
M  V30 366 N 36.9525 1.47285 -0.560781 0
M  V30 367 C 37.8825 2.32857 0.173105 0
M  V30 368 C 38.8635 1.44009 0.905281 0
M  V30 369 O 40.0485 1.7286 0.885046 0
M  V30 370 C 37.1785 3.25861 1.20133 0
M  V30 371 C 36.1325 4.23978 0.585388 0
M  V30 372 C 35.4585 5.06332 1.7185 0
M  V30 373 C 36.7585 5.20242 -0.463178 0
M  V30 374 H 38.4525 2.94466 -0.541307 0
M  V30 375 H 35.9985 1.41601 -0.261764 0
M  V30 376 H 37.9515 3.84569 1.72293 0
M  V30 377 H 36.6755 2.62315 1.94573 0
M  V30 378 H 35.3345 3.66501 0.085054 0
M  V30 379 H 34.9825 4.39186 2.45203 0
M  V30 380 H 34.6825 5.72762 1.31213 0
M  V30 381 H 36.2065 5.67899 2.24329 0
M  V30 382 H 37.6205 5.73293 -0.027502 0
M  V30 383 H 36.0175 5.94896 -0.788627 0
M  V30 384 H 37.0875 4.65504 -1.35773 0
M  V30 385 N 38.4306 0.297415 1.54768 0
M  V30 386 C 39.6586 -0.315623 2.04478 0
M  V30 387 C 40.0736 -1.47792 1.17486 0
M  V30 388 O 39.4306 -1.81404 0.19971 0
M  V30 389 C 39.4816 -0.7753 3.53088 0
M  V30 390 O 39.2026 0.340732 4.36773 0
M  V30 391 C 40.7036 -1.45386 4.18781 0
M  V30 392 H 37.9236 -0.0690887 0.667434 0
M  V30 393 H 40.4676 0.436003 1.99798 0
M  V30 394 H 38.6226 -1.47696 3.58141 0
M  V30 395 H 39.0366 -0.0165035 5.24497 0
M  V30 396 H 40.5106 -1.72669 5.24299 0
M  V30 397 H 40.9876 -2.39275 3.68299 0
M  V30 398 H 41.5936 -0.795475 4.17795 0
M  V30 399 N 39.9087 -1.5758 0.0250728 0
M  V30 400 C 41.1487 -1.93497 -0.65865 0
M  V30 401 C 41.5127 -0.901409 -1.69525 0
M  V30 402 O 42.7137 -1.14664 -2.43116 0
M  V30 403 C 40.9847 -3.34352 -1.26267 0
M  V30 404 S 42.5437 -3.92191 -1.96803 0
M  V30 405 H 39.3617 -0.67709 -0.216958 0
M  V30 406 H 41.9637 -1.95303 0.0877692 0
M  V30 407 H 40.6677 -4.07395 -0.495741 0
M  V30 408 H 40.1987 -3.3598 -2.04648 0
M  V30 409 H 42.2137 -3.75298 -3.24601 0
M  V30 410 N 41.3868 0.248026 -1.55636 0
M  V30 411 C 42.2968 1.32859 -1.93354 0
M  V30 412 C 43.3128 1.52719 -0.833838 0
M  V30 413 O 44.4888 1.66363 -1.13513 0
M  V30 414 C 41.5538 2.66337 -2.21958 0
M  V30 415 C 40.6148 2.55008 -3.45354 0
M  V30 416 C 39.8478 3.82121 -3.72584 0
M  V30 417 O 40.0708 4.83951 -3.01907 0
M  V30 418 O 39.0048 3.80822 -4.6611 0
M  V30 419 H 42.8308 1.03862 -2.85388 0
M  V30 420 H 40.4158 0.448686 -1.42503 0
M  V30 421 H 42.2978 3.45216 -2.4167 0
M  V30 422 H 40.9728 2.95068 -1.33103 0
M  V30 423 H 39.8798 1.7442 -3.30951 0
M  V30 424 H 41.2128 2.31222 -4.34508 0
M  V30 425 N 42.8649 1.48995 0.513639 0
M  V30 426 C 44.1129 1.57531 1.26604 0
M  V30 427 C 44.4339 0.258236 1.93283 0
M  V30 428 O 43.7039 -0.721502 1.8213 0
M  V30 429 H 42.2839 0.580387 0.470276 0
M  V30 430 H 44.9459 1.85552 0.596373 0
M  V30 431 H 44.0419 2.36486 2.03669 0
M  V30 432 N 44.343 -0.763751 1.37857 0
M  V30 433 C 45.583 -1.53551 1.34913 0
M  V30 434 C 45.947 -1.91895 -0.0635882 0
M  V30 435 O 47.148 -2.67916 -0.217825 0
M  V30 436 C 45.419 -2.76126 2.26912 0
M  V30 437 S 46.978 -3.66105 2.41893 0
M  V30 438 H 43.796 -0.52559 0.478828 0
M  V30 439 H 46.398 -0.897435 1.73685 0
M  V30 440 H 45.102 -2.4605 3.28463 0
M  V30 441 H 44.633 -3.44887 1.89253 0
M  V30 442 H 46.648 -4.68473 1.63545 0
M  V30 443 N 45.8211 -1.22559 -0.990812 0
M  V30 444 C 46.7681 -0.997519 -2.0813 0
M  V30 445 C 47.7381 0.0814702 -1.659 0
M  V30 446 O 48.9231 -0.0685424 -1.90677 0
M  V30 447 C 46.0631 -0.583615 -3.40129 0
M  V30 448 C 45.1761 -1.7336 -3.9569 0
M  V30 449 C 44.3111 -1.26748 -5.15857 0
M  V30 450 C 43.3501 -2.38888 -5.63559 0
M  V30 451 N 42.4871 -1.93308 -6.74964 0
M  V30 452 H 47.3271 -1.93099 -2.26973 0
M  V30 453 H 44.8641 -0.962114 -1.11273 0
M  V30 454 H 46.8221 -0.324801 -4.15934 0
M  V30 455 H 45.4521 0.312845 -3.2128 0
M  V30 456 H 44.5041 -2.10669 -3.16738 0
M  V30 457 H 45.8161 -2.57704 -4.27071 0
M  V30 458 H 44.9701 -0.966173 -5.98957 0
M  V30 459 H 43.7091 -0.394272 -4.86104 0
M  V30 460 H 42.7141 -2.69805 -4.79046 0
M  V30 461 H 43.9391 -3.26728 -5.95336 0
M  V30 462 H 41.8851 -1.08352 -6.4699 0
M  V30 463 H 41.8021 -2.71217 -7.05675 0
M  V30 464 H 43.0701 -1.66252 -7.61564 0
M  V30 465 N 47.2992 1.18797 -1.03562 0
M  V30 466 C 48.5472 1.88278 -0.734569 0
M  V30 467 C 48.8682 1.8043 0.739586 0
M  V30 468 O 48.1382 1.21925 1.53333 0
M  V30 469 H 46.7182 0.696991 -0.268725 0
M  V30 470 H 49.3802 1.44192 -1.31129 0
M  V30 471 H 48.4762 2.94443 -1.03489 0
M  V30 472 N 48.7773 0.814389 1.34928 0
M  V30 473 C 50.0243 0.398423 1.98542 0
M  V30 474 C 50.3523 -1.03638 1.64589 0
M  V30 475 O 49.6073 -1.73509 0.90516 0
M  V30 476 C 49.9063 0.537781 3.53331 0
M  V30 477 C 49.5723 1.93704 4.07172 0
M  V30 478 C 48.2343 2.31984 4.21589 0
M  V30 479 C 50.5863 2.85213 4.36237 0
M  V30 480 C 47.9143 3.61125 4.62391 0
M  V30 481 C 50.2663 4.13809 4.78482 0
M  V30 482 C 48.9303 4.52077 4.91104 0
M  V30 483 H 48.2003 0.145793 0.726516 0
M  V30 484 H 50.8473 1.03669 1.61012 0
M  V30 485 H 49.1523 -0.183906 3.91368 0
M  V30 486 H 50.8493 0.196588 4.00518 0
M  V30 487 H 47.4393 1.62966 3.96409 0
M  V30 488 H 51.6233 2.56885 4.24645 0
M  V30 489 H 46.8793 3.90612 4.70353 0
M  V30 490 H 51.0533 4.84811 4.99932 0
M  V30 491 H 48.6803 5.52196 5.22478 0
M  V30 492 N 50.2554 -1.46986 0.568584 0
M  V30 493 C 51.5024 -2.02441 0.0487986 0
M  V30 494 C 51.8304 -1.44169 -1.30559 0
M  V30 495 O 51.0854 -0.591213 -1.86556 0
M  V30 496 C 51.3844 -3.57306 -0.081836 0
M  V30 497 C 51.0504 -4.34552 1.20313 0
M  V30 498 C 49.7124 -4.55376 1.5552 0
M  V30 499 C 52.0644 -4.79016 2.05411 0
M  V30 500 C 49.3924 -5.17913 2.7565 0
M  V30 501 C 51.7444 -5.42879 3.24754 0
M  V30 502 C 50.4084 -5.61933 3.60261 0
M  V30 503 H 49.6784 -0.740785 0.0178567 0
M  V30 504 H 52.3254 -1.76525 0.742384 0
M  V30 505 H 50.6304 -3.8228 -0.858463 0
M  V30 506 H 52.3274 -3.97876 -0.499546 0
M  V30 507 H 48.9174 -4.18631 0.919014 0
M  V30 508 H 53.1014 -4.62696 1.79516 0
M  V30 509 H 48.3574 -5.30858 3.03315 0
M  V30 510 H 52.5314 -5.76293 3.90973 0
M  V30 511 H 50.1584 -6.10161 4.53439 0
M  V30 512 N 51.7335 -0.305618 -1.54608 0
M  V30 513 C 53.1495 0.0476228 -1.59529 0
M  V30 514 C 53.3495 1.52025 -1.32252 0
M  V30 515 O 52.4055 2.27368 -1.09818 0
M  V30 516 C 53.7185 -0.354471 -2.98603 0
M  V30 517 C 55.2665 -0.303622 -3.11524 0
M  V30 518 C 55.7415 -0.680608 -4.52915 0
M  V30 519 N 57.2325 -0.63332 -4.5885 0
M  V30 520 C 57.9675 -0.897432 -5.66334 0
M  V30 521 N 57.4635 -1.22775 -6.81834 0
M  V30 522 N 59.2565 -0.824186 -5.56025 0
M  V30 523 H 51.4075 -1.2653 -1.70599 0
M  V30 524 H 53.6705 -0.513291 -0.797017 0
M  V30 525 H 53.3765 -1.3798 -3.23503 0
M  V30 526 H 53.2505 0.289568 -3.76087 0
M  V30 527 H 55.6375 0.712472 -2.8637 0
M  V30 528 H 55.7185 -0.982348 -2.36185 0
M  V30 529 H 55.3625 -1.69453 -4.78799 0
M  V30 530 H 55.2925 0.0202385 -5.26596 0
M  V30 531 H 57.7835 -0.389138 -3.75891 0
M  V30 532 H 58.0965 -1.41513 -7.59733 0
M  V30 533 H 56.4415 -1.26583 -6.83375 0
M  V30 534 H 59.6325 -0.565748 -4.64669 0
M  V30 535 H 59.8055 -1.03338 -6.39707 0
M  V30 536 N 53.2116 1.57565 -0.0334293 0
M  V30 537 C 54.6276 1.56297 0.322997 0
M  V30 538 C 54.8276 1.03945 1.7262 0
M  V30 539 O 53.8836 0.688109 2.42943 0
M  V30 540 C 55.1966 3.00232 0.167664 0
M  V30 541 C 56.7446 3.12078 0.240107 0
M  V30 542 C 57.2196 4.57859 0.113513 0
M  V30 543 N 58.7106 4.62887 0.170359 0
M  V30 544 C 59.4456 5.73319 0.0962517 0
M  V30 545 N 58.9416 6.92794 -0.0291881 0
M  V30 546 N 60.7346 5.61898 0.150551 0
M  V30 547 H 52.8856 1.89923 -0.950956 0
M  V30 548 H 55.1486 0.873824 -0.367608 0
M  V30 549 H 54.8546 3.42501 -0.799102 0
M  V30 550 H 54.7286 3.654 0.936083 0
M  V30 551 H 57.1156 2.69718 1.19733 0
M  V30 552 H 57.1966 2.49623 -0.558763 0
M  V30 553 H 56.8406 5.009 -0.840314 0
M  V30 554 H 56.7706 5.18299 0.931302 0
M  V30 555 H 59.2616 3.76954 0.26728 0
M  V30 556 H 59.5746 7.7276 -0.0789252 0
M  V30 557 H 57.9196 6.94971 -0.0640299 0
M  V30 558 H 61.1106 4.67448 0.246981 0
M  V30 559 H 61.2836 6.47938 0.0893365 0
M  V30 560 N 54.6897 -0.239769 1.55765 0
M  V30 561 C 55.9177 -0.98417 1.81994 0
M  V30 562 C 56.3327 -1.7867 0.610124 0
M  V30 563 O 55.6897 -1.77571 -0.421271 0
M  V30 564 C 55.7407 -1.91635 3.06526 0
M  V30 565 O 55.4617 -1.14629 4.22838 0
M  V30 566 C 56.9627 -2.77616 3.45607 0
M  V30 567 H 54.1827 -0.28928 0.605441 0
M  V30 568 H 56.7267 -0.260499 2.02834 0
M  V30 569 H 54.8817 -2.5942 2.87715 0
M  V30 570 H 55.2957 -1.77745 4.93464 0
M  V30 571 H 56.7697 -3.38759 4.35828 0
M  V30 572 H 57.2467 -3.4909 2.6652 0
M  V30 573 H 57.8527 -2.15271 3.66795 0
M  V30 574 N 56.1678 -1.49265 -0.50573 0
M  V30 575 C 57.4138 -1.58748 -1.26202 0
M  V30 576 C 57.7468 -0.271227 -1.92297 0
M  V30 577 O 57.0218 0.724831 -1.80489 0
M  V30 578 C 57.3048 -2.74332 -2.33268 0
M  V30 579 C 57.1578 -4.15737 -1.71705 0
M  V30 580 C 58.4768 -2.85576 -3.34865 0
M  V30 581 H 55.5958 -0.577826 -0.457478 0
M  V30 582 H 58.2378 -1.81532 -0.560897 0
M  V30 583 H 56.3878 -2.55036 -2.93068 0
M  V30 584 H 58.0598 -4.46537 -1.15769 0
M  V30 585 H 56.3028 -4.21605 -1.02135 0
M  V30 586 H 56.9738 -4.92477 -2.49341 0
M  V30 587 H 59.4498 -3.03127 -2.8505 0
M  V30 588 H 58.3258 -3.68135 -4.07146 0
M  V30 589 H 58.5868 -1.94732 -3.96903 0
M  V30 590 N 57.6459 0.756429 -1.3826 0
M  V30 591 C 58.8709 1.55077 -1.37717 0
M  V30 592 C 59.2959 1.88073 0.03164 0
M  V30 593 O 58.6539 1.50364 1.01293 0
M  V30 594 C 58.7019 2.8283 -2.23695 0
M  V30 595 O 57.8059 3.77862 -1.6521 0
M  V30 596 H 57.1469 0.469152 -0.469885 0
M  V30 597 H 59.6769 0.935019 -1.81985 0
M  V30 598 H 59.6869 3.31783 -2.37453 0
M  V30 599 H 58.3619 2.58144 -3.2609 0
M  V30 600 H 56.9389 3.36555 -1.60578 0
M  V30 601 N 59.124 1.23083 0.984299 0
M  V30 602 C 60.071 1.00854 2.07598 0
M  V30 603 C 61.041 -0.0726709 1.65941 0
M  V30 604 O 62.226 0.0786535 1.90638 0
M  V30 605 C 59.366 0.601645 3.39815 0
M  V30 606 C 58.479 1.75456 3.94765 0
M  V30 607 C 57.614 1.29482 5.15177 0
M  V30 608 C 56.653 2.41873 5.62284 0
M  V30 609 N 55.79 1.96885 6.73929 0
M  V30 610 H 60.63 1.943 2.25946 0
M  V30 611 H 58.167 0.968001 1.10762 0
M  V30 612 H 60.125 0.346854 4.15756 0
M  V30 613 H 58.755 -0.295803 3.21442 0
M  V30 614 H 57.807 2.12346 3.15616 0
M  V30 615 H 59.119 2.59965 4.25699 0
M  V30 616 H 58.273 0.997923 5.98437 0
M  V30 617 H 57.012 0.420046 4.85888 0
M  V30 618 H 56.017 2.72342 4.77608 0
M  V30 619 H 57.242 3.29881 5.93595 0
M  V30 620 H 55.188 1.11782 6.46406 0
M  V30 621 H 55.105 2.74956 7.04227 0
M  V30 622 H 56.373 1.70289 7.60672 0
M  V30 623 N 60.6021 -1.18246 1.0419 0
M  V30 624 C 61.8271 -1.92736 0.765996 0
M  V30 625 C 62.2521 -1.75728 -0.67091 0
M  V30 626 O 61.6101 -1.06825 -1.46486 0
M  V30 627 C 61.6581 -3.42148 1.13875 0
M  V30 628 O 60.7621 -4.11548 0.264954 0
M  V30 629 H 60.1031 -0.601238 0.281797 0
M  V30 630 H 62.6331 -1.49942 1.39207 0
M  V30 631 H 62.6431 -3.92858 1.1012 0
M  V30 632 H 61.3181 -3.53848 2.18551 0
M  V30 633 H 59.8951 -3.71137 0.362226 0
M  V30 634 N 62.0802 -0.821533 -1.34494 0
M  V30 635 C 63.3292 -0.405355 -1.97585 0
M  V30 636 C 63.6422 1.03677 -1.65863 0
M  V30 637 O 64.8482 1.55679 -2.22433 0
M  V30 638 C 63.3042 -0.673861 -3.53535 0
M  V30 639 C 62.9122 -2.12951 -3.94152 0
M  V30 640 C 64.6562 -0.32378 -4.23263 0
M  V30 641 C 62.5632 -2.34298 -5.43009 0
M  V30 642 H 61.4932 -0.147836 -0.739365 0
M  V30 643 H 64.1442 -1.00769 -1.53355 0
M  V30 644 H 62.5262 -0.00137554 -3.96 0
M  V30 645 H 63.7002 -2.84104 -3.62797 0
M  V30 646 H 62.0152 -2.44089 -3.37356 0
M  V30 647 H 64.6122 -0.461126 -5.32708 0
M  V30 648 H 64.9552 0.731586 -4.09821 0
M  V30 649 H 65.4882 -0.950786 -3.8627 0
M  V30 650 H 62.2272 -3.38335 -5.61435 0
M  V30 651 H 61.7472 -1.67687 -5.75883 0
M  V30 652 H 63.4262 -2.16588 -6.09671 0
M  V30 653 N 63.5583 1.46682 -0.576371 0
M  V30 654 C 64.8063 2.02013 -0.0594163 0
M  V30 655 C 65.1273 1.45101 1.30271 0
M  V30 656 O 64.3973 0.633317 1.8538 0
M  V30 657 H 62.9773 0.746759 -0.0189745 0
M  V30 658 H 65.6393 1.79862 -0.750717 0
M  V30 659 H 64.7353 3.12097 0.014345 0
M  V30 660 N 65.0364 0.313813 1.54444 0
M  V30 661 C 66.4474 -0.176243 1.85866 0
M  V30 662 C 66.7984 -1.52405 1.23561 0
M  V30 663 O 65.9234 -2.09605 0.538016 0
M  V30 664 C 66.5184 -0.32657 3.37222 0
M  V30 665 C 65.0774 -0.760846 3.6863 0
M  V30 666 C 64.2244 0.123247 2.77026 0
M  V30 667 H 67.1754 0.534418 1.49431 0
M  V30 668 H 67.1964 -1.15908 3.62416 0
M  V30 669 H 66.7084 0.654531 3.82541 0
M  V30 670 H 64.8094 -1.75204 3.28838 0
M  V30 671 H 64.9224 -0.571353 4.75681 0
M  V30 672 H 63.2864 -0.399597 2.51546 0
M  V30 673 H 64.0694 1.10094 3.25168 0
M  V30 674 N 66.5145 -1.57545 0.0417849 0
M  V30 675 C 67.7425 -1.96624 -0.643928 0
M  V30 676 C 68.1575 -0.918897 -1.64929 0
M  V30 677 O 67.5145 0.0979323 -1.82237 0
M  V30 678 C 67.5655 -3.35781 -1.33914 0
M  V30 679 O 67.2865 -4.365 -0.374048 0
M  V30 680 C 68.7875 -3.89566 -2.1155 0
M  V30 681 H 66.0075 -0.647316 -0.176702 0
M  V30 682 H 68.5515 -2.04229 0.105304 0
M  V30 683 H 66.7065 -3.29357 -2.03968 0
M  V30 684 H 67.1205 -5.17248 -0.869179 0
M  V30 685 H 68.5945 -4.89242 -2.55628 0
M  V30 686 H 69.0715 -3.24488 -2.9598 0
M  V30 687 H 69.6775 -3.99298 -1.46427 0
M  V30 688 N 67.9926 0.231505 -1.5589 0
M  V30 689 C 69.2326 0.964533 -1.80211 0
M  V30 690 C 69.5966 1.81926 -0.613744 0
M  V30 691 O 70.7976 2.58526 -0.736045 0
M  V30 692 C 69.0686 1.78956 -3.09369 0
M  V30 693 S 70.6276 2.57959 -3.54969 0
M  V30 694 H 67.4456 0.324173 -0.632798 0
M  V30 695 H 70.0476 0.230985 -1.94131 0
M  V30 696 H 68.7516 1.15161 -3.93911 0
M  V30 697 H 68.2826 2.56559 -2.9823 0
M  V30 698 H 70.2976 3.81309 -3.17519 0
M  V30 699 N 69.4707 1.49531 0.497807 0
M  V30 700 C 70.8817 1.52344 1.07927 0
M  V30 701 C 71.2327 0.311469 1.93712 0
M  V30 702 O 70.3577 -0.578405 2.08527 0
M  V30 703 C 70.9527 2.76062 1.96405 0
M  V30 704 C 69.5117 2.81643 2.49709 0
M  V30 705 C 68.6587 2.46299 1.27404 0
M  V30 706 H 71.6097 1.56182 0.281576 0
M  V30 707 H 71.6307 2.56405 2.81135 0
M  V30 708 H 71.1427 3.64254 1.33943 0
M  V30 709 H 69.2437 1.97739 3.15801 0
M  V30 710 H 69.3567 3.83891 2.86643 0
M  V30 711 H 67.7207 1.98148 1.60029 0
M  V30 712 H 68.5037 3.36769 0.66645 0
M  V30 713 N 70.9488 -0.749086 1.3866 0
M  V30 714 C 72.1958 -1.50833 1.35114 0
M  V30 715 C 72.5238 -1.94415 -0.0574049 0
M  V30 716 O 71.7788 -1.66065 -1.03541 0
M  V30 717 C 72.0778 -2.7712 2.25697 0
M  V30 718 C 71.7438 -2.52477 3.73585 0
M  V30 719 C 70.4058 -2.45466 4.13884 0
M  V30 720 C 72.7578 -2.31066 4.67181 0
M  V30 721 C 70.0858 -2.15064 5.45861 0
M  V30 722 C 72.4378 -2.02183 5.9942 0
M  V30 723 C 71.1018 -1.93631 6.38798 0
M  V30 724 H 70.3718 -0.551936 0.494416 0
M  V30 725 H 73.0188 -0.860979 1.71054 0
M  V30 726 H 71.3238 -3.46528 1.82827 0
M  V30 727 H 73.0208 -3.35096 2.20254 0
M  V30 728 H 69.6108 -2.58807 3.41638 0
M  V30 729 H 73.7948 -2.35459 4.3689 0
M  V30 730 H 69.0508 -2.06954 5.75308 0
M  V30 731 H 73.2248 -1.8462 6.71482 0
M  V30 732 H 70.8518 -1.69839 7.40985 0
M  V30 733 N 72.4269 -1.23603 -0.977757 0
M  V30 734 C 73.3899 -1.02069 -2.05218 0
M  V30 735 C 74.3899 0.0184305 -1.60789 0
M  V30 736 O 75.5799 -0.221569 -1.72785 0
M  V30 737 C 72.7119 -0.544926 -3.36517 0
M  V30 738 H 73.9049 -1.9742 -2.25755 0
M  V30 739 H 71.4579 -1.05684 -1.15155 0
M  V30 740 H 72.1929 0.412241 -3.21669 0
M  V30 741 H 71.9779 -1.2948 -3.70105 0
M  V30 742 H 73.4679 -0.414985 -4.15533 0
M  V30 743 N 73.905 1.17692 -1.04816 0
M  V30 744 C 75.153 1.87488 -0.754497 0
M  V30 745 C 75.474 1.81205 0.720407 0
M  V30 746 O 74.744 1.23544 1.52032 0
M  V30 747 H 73.324 0.694101 -0.276102 0
M  V30 748 H 75.986 1.42793 -1.32651 0
M  V30 749 H 75.082 2.93328 -1.06606 0
M  V30 750 N 75.3831 0.828654 1.34056 0
M  V30 751 C 76.6081 0.431637 2.02859 0
M  V30 752 C 77.0331 -0.956339 1.61975 0
M  V30 753 O 76.3911 -1.62338 0.807228 0
M  V30 754 C 76.4391 0.548323 3.56407 0
M  V30 755 O 75.5431 -0.429556 4.10157 0
M  V30 756 H 74.8841 0.176886 0.640006 0
M  V30 757 H 77.4141 1.12066 1.71179 0
M  V30 758 H 77.4241 0.426196 4.05768 0
M  V30 759 H 76.0991 1.5606 3.8551 0
M  V30 760 H 74.6761 -0.265836 3.71951 0
M  V30 761 N 76.8612 -1.46375 0.584142 0
M  V30 762 C 78.1012 -2.0427 0.0729695 0
M  V30 763 C 78.4652 -1.44563 -1.26355 0
M  V30 764 O 79.6662 -1.93667 -1.86405 0
M  V30 765 C 77.9372 -3.57399 0.00967464 0
M  V30 766 S 79.4962 -4.36551 -0.443714 0
M  V30 767 H 76.3142 -0.709975 0.0381673 0
M  V30 768 H 78.9162 -1.79398 0.776962 0
M  V30 769 H 77.6202 -3.98372 0.986319 0
M  V30 770 H 77.1512 -3.8681 -0.717044 0
M  V30 771 H 79.1662 -4.66237 -1.69816 0
M  V30 772 N 78.3393 -0.321999 -1.54275 0
M  V30 773 C 79.2493 0.553631 -2.27974 0
M  V30 774 C 80.2653 1.13054 -1.32268 0
M  V30 775 O 81.4413 1.15084 -1.6528 0
M  V30 776 C 78.5063 1.69927 -3.02201 0
M  V30 777 C 77.5673 1.15433 -4.1349 0
M  V30 778 C 76.8003 2.24537 -4.84168 0
M  V30 779 O 77.0233 3.44852 -4.5435 0
M  V30 780 O 75.9573 1.90044 -5.7111 0
M  V30 781 H 79.7833 -0.0448345 -3.03667 0
M  V30 782 H 77.3683 -0.0877418 -1.49142 0
M  V30 783 H 79.2503 2.3663 -3.48689 0
M  V30 784 H 77.9253 2.28395 -2.29385 0
M  V30 785 H 76.8323 0.452436 -3.71354 0
M  V30 786 H 78.1653 0.614805 -4.88345 0
M  V30 787 N 79.8174 1.5752 -0.0501392 0
M  V30 788 C 81.0634 1.92936 0.624798 0
M  V30 789 C 81.3964 0.928685 1.70555 0
M  V30 790 O 80.6714 -0.0454779 1.94447 0
M  V30 791 C 80.9544 3.38737 1.22185 0
M  V30 792 C 80.8074 4.49552 0.149218 0
M  V30 793 C 82.1264 3.84913 2.13378 0
M  V30 794 H 79.2454 0.701604 0.225657 0
M  V30 795 H 81.8874 1.89671 -0.111693 0
M  V30 796 H 80.0374 3.4165 1.84953 0
M  V30 797 H 81.7094 4.58768 -0.482648 0
M  V30 798 H 79.9524 4.30638 -0.522841 0
M  V30 799 H 80.6234 5.48653 0.606966 0
M  V30 800 H 83.0994 3.8387 1.60572 0
M  V30 801 H 81.9754 4.87584 2.52097 0
M  V30 802 H 82.2364 3.21611 3.03346 0
M  V30 803 N 81.2955 -0.223234 1.56011 0
M  V30 804 C 82.5205 -0.968978 1.83373 0
M  V30 805 C 82.9455 -1.77227 0.630254 0
M  V30 806 O 82.3035 -1.76345 -0.420959 0
M  V30 807 C 82.3515 -1.86363 3.08709 0
M  V30 808 O 81.4555 -2.95873 2.87285 0
M  V30 809 H 80.7965 -0.274461 0.604622 0
M  V30 810 H 83.3265 -0.237056 2.03222 0
M  V30 811 H 83.3365 -2.27376 3.38768 0
M  V30 812 H 82.0115 -1.27319 3.95933 0
M  V30 813 H 80.5885 -2.58818 2.68454 0
M  V30 814 N 82.7736 -1.49793 -0.48987 0
M  V30 815 C 83.7206 -1.67281 -1.59014 0
M  V30 816 C 84.6906 -0.514177 -1.57941 0
M  V30 817 O 85.8756 -0.742533 -1.75759 0
M  V30 818 C 83.0156 -1.75569 -2.97102 0
M  V30 819 C 82.1286 -3.0281 -3.08107 0
M  V30 820 C 81.2636 -3.02008 -4.36995 0
M  V30 821 C 80.3026 -4.23782 -4.41673 0
M  V30 822 N 79.4396 -4.20826 -5.62005 0
M  V30 823 H 84.2796 -2.61224 -1.43409 0
M  V30 824 H 81.8166 -1.29508 -0.697565 0
M  V30 825 H 83.7746 -1.78354 -3.77155 0
M  V30 826 H 82.4046 -0.850827 -3.11385 0
M  V30 827 H 81.4566 -3.09584 -2.21047 0
M  V30 828 H 82.7686 -3.92801 -3.07423 0
M  V30 829 H 81.9226 -3.03418 -5.25378 0
M  V30 830 H 80.6616 -2.09815 -4.4026 0
M  V30 831 H 79.6666 -4.22604 -3.5169 0
M  V30 832 H 80.8916 -5.17181 -4.40115 0
M  V30 833 H 78.8376 -3.31476 -5.66091 0
M  V30 834 H 78.7546 -5.04564 -5.62984 0
M  V30 835 H 80.0226 -4.26355 -6.52565 0
M  V30 836 N 84.2517 0.741722 -1.39055 0
M  V30 837 C 85.4797 1.53098 -1.39171 0
M  V30 838 C 85.8947 1.88794 0.0155099 0
M  V30 839 O 85.2517 1.53626 0.985159 0
M  V30 840 C 85.3027 2.82274 -2.2584 0
M  V30 841 O 85.0237 2.48097 -3.61081 0
M  V30 842 C 86.5247 3.76343 -2.34266 0
M  V30 843 H 83.7447 0.473335 -0.4756 0
M  V30 844 H 86.2887 0.917045 -1.82785 0
M  V30 845 H 84.4437 3.40015 -1.85656 0
M  V30 846 H 84.8577 3.31029 -4.06842 0
M  V30 847 H 86.3317 4.63898 -2.9917 0
M  V30 848 H 86.8087 4.17619 -1.35982 0
M  V30 849 H 87.4147 3.24523 -2.74891 0
M  V30 850 N 85.7298 1.2412 0.971189 0
M  V30 851 C 86.6618 0.988349 2.06795 0
M  V30 852 C 87.6748 -0.0409541 1.62748 0
M  V30 853 O 88.8638 0.195673 1.77424 0
M  V30 854 C 85.9638 0.469023 3.35639 0
M  V30 855 C 85.1368 1.56065 4.08611 0
M  V30 856 C 84.1958 1.04458 5.15728 0
M  V30 857 O 83.2218 1.73553 5.42096 0
M  V30 858 N 84.4238 -0.122817 5.8037 0
M  V30 859 H 87.1888 1.93265 2.29061 0
M  V30 860 H 84.7498 1.15102 1.13856 0
M  V30 861 H 86.7418 0.108613 4.04554 0
M  V30 862 H 85.3118 -0.380919 3.1027 0
M  V30 863 H 84.5318 2.09341 3.34021 0
M  V30 864 H 85.8198 2.29449 4.54126 0
M  V30 865 H 85.2178 -0.700563 5.61345 0
M  V30 866 H 83.7748 -0.424404 6.50417 0
M  V30 867 N 87.2079 -1.17134 1.05439 0
M  V30 868 C 88.6239 -1.39454 0.776201 0
M  V30 869 C 88.8239 -1.91454 -0.628307 0
M  V30 870 O 87.8799 -2.10777 -1.39031 0
M  V30 871 C 89.1929 -2.38305 1.83388 0
M  V30 872 C 90.7409 -2.52006 1.85639 0
M  V30 873 C 91.2159 -3.54133 2.90437 0
M  V30 874 N 92.7069 -3.61653 2.89415 0
M  V30 875 C 93.4419 -4.4044 3.67152 0
M  V30 876 N 92.9379 -5.22721 4.54681 0
M  V30 877 N 94.7309 -4.35337 3.55581 0
M  V30 878 H 86.8819 -0.817134 1.96053 0
M  V30 879 H 89.1449 -0.421626 0.849079 0
M  V30 880 H 88.8509 -2.07173 2.84204 0
M  V30 881 H 88.7249 -3.37841 1.67761 0
M  V30 882 H 91.1119 -2.82447 0.85486 0
M  V30 883 H 91.1929 -1.52537 2.05344 0
M  V30 884 H 90.8369 -3.24431 3.90777 0
M  V30 885 H 90.7669 -4.53313 2.67983 0
M  V30 886 H 93.2579 -3.02909 2.25952 0
M  V30 887 H 93.5709 -5.80027 5.10674 0
M  V30 888 H 91.9159 -5.22093 4.58741 0
M  V30 889 H 95.1069 -3.70112 2.86592 0
M  V30 890 H 95.2799 -4.96494 4.1641 0
M  V30 891 N 88.686 -0.835752 -1.33615 0
M  V30 892 C 90.102 -0.523139 -1.50783 0
M  V30 893 C 90.302 0.950171 -1.77691 0
M  V30 894 O 89.358 1.73411 -1.83534 0
M  V30 895 C 90.671 -1.39378 -2.66448 0
M  V30 896 C 92.219 -1.39223 -2.80332 0
M  V30 897 C 92.694 -2.24765 -3.99055 0
M  V30 898 N 94.185 -2.22458 -4.06284 0
M  V30 899 C 94.92 -2.85386 -4.97336 0
M  V30 900 N 94.416 -3.57354 -5.93523 0
M  V30 901 N 96.209 -2.74872 -4.90308 0
M  V30 902 H 88.36 -1.78952 -1.14411 0
M  V30 903 H 90.623 -0.763297 -0.562212 0
M  V30 904 H 90.329 -2.44061 -2.53234 0
M  V30 905 H 90.203 -1.0676 -3.61776 0
M  V30 906 H 92.59 -0.353136 -2.92979 0
M  V30 907 H 92.671 -1.75846 -1.85773 0
M  V30 908 H 92.315 -3.28732 -3.87167 0
M  V30 909 H 92.245 -1.85485 -4.92852 0
M  V30 910 H 94.736 -1.70119 -3.37443 0
M  V30 911 H 95.049 -4.02584 -6.59656 0
M  V30 912 H 93.394 -3.61461 -5.93608 0
M  V30 913 H 96.585 -2.18213 -4.14126 0
M  V30 914 H 96.758 -3.24199 -5.61069 0
M  V30 915 N 90.1641 1.46063 -0.591896 0
M  V30 916 C 91.1141 2.27458 0.157172 0
M  V30 917 C 92.0981 1.3641 0.853301 0
M  V30 918 O 93.2901 1.60517 0.74588 0
M  V30 919 C 90.4191 3.22956 1.16423 0
M  V30 920 C 89.5051 4.2149 0.469742 0
M  V30 921 N 89.8961 5.03519 -0.479839 0
M  V30 922 C 88.1941 4.40161 0.719319 0
M  V30 923 C 88.8951 5.74904 -0.886591 0
M  V30 924 N 87.8711 5.43097 -0.233731 0
M  V30 925 H 91.6731 2.88272 -0.572392 0
M  V30 926 H 89.1871 1.57024 -0.414375 0
M  V30 927 H 91.1841 3.79986 1.71513 0
M  V30 928 H 89.8441 2.63701 1.89451 0
M  V30 929 H 90.8551 5.1078 -0.855823 0
M  V30 930 H 87.5321 3.92046 1.43548 0
M  V30 931 H 88.9221 6.50844 -1.66888 0
M  V30 932 N 91.6422 0.330177 1.54103 0
M  V30 933 C 92.8822 -0.270916 2.02597 0
M  V30 934 C 93.2462 -1.48826 1.21304 0
M  V30 935 O 94.4472 -2.16266 1.59633 0
M  V30 936 C 92.7182 -0.590328 3.52491 0
M  V30 937 S 94.2772 -1.17014 4.2291 0
M  V30 938 H 91.0952 -0.0815379 0.706309 0
M  V30 939 H 93.6972 0.464835 1.89893 0
M  V30 940 H 92.4012 0.303691 4.09275 0
M  V30 941 H 91.9322 -1.3561 3.69288 0
M  V30 942 H 93.9472 -2.45662 4.3112 0
M  V30 943 N 93.1203 -1.57491 0.0584922 0
M  V30 944 C 94.5313 -1.80526 -0.476138 0
M  V30 945 C 94.8823 -0.971334 -1.70469 0
M  V30 946 O 94.0073 -0.190012 -2.15564 0
M  V30 947 C 94.6023 -3.27424 -0.870587 0
M  V30 948 C 93.1613 -3.51351 -1.35015 0
M  V30 949 C 92.3083 -2.75343 -0.32887 0
M  V30 950 H 95.2593 -1.56133 0.284312 0
M  V30 951 H 95.2803 -3.38745 -1.73299 0
M  V30 952 H 94.7923 -3.88093 0.0237627 0
M  V30 953 H 92.8933 -2.95971 -2.26345 0
M  V30 954 H 93.0063 -4.60059 -1.33726 0
M  V30 955 H 91.3703 -2.417 -0.803321 0
M  V30 956 H 92.1533 -3.38743 0.557521 0
M  V30 957 N 94.5984 0.214957 -1.56127 0
M  V30 958 C 95.5614 1.24997 -1.92116 0
M  V30 959 C 96.5614 1.39467 -0.800344 0
M  V30 960 O 97.7514 1.37619 -1.06802 0
M  V30 961 C 94.8834 2.62271 -2.17777 0
M  V30 962 H 96.0764 0.942875 -2.84693 0
M  V30 963 H 93.6294 0.455654 -1.49511 0
M  V30 964 H 94.3644 2.98068 -1.27773 0
M  V30 965 H 94.1494 2.53143 -2.99434 0
M  V30 966 H 95.6394 3.36946 -2.46693 0
M  V30 967 N 96.0765 1.50051 0.48192 0
M  V30 968 C 97.3165 1.62128 1.24474 0
M  V30 969 C 97.6805 0.309742 1.89485 0
M  V30 970 O 98.8815 0.305854 2.67054 0
M  V30 971 C 97.1525 2.76151 2.26882 0
M  V30 972 S 98.7115 3.08297 3.12247 0
M  V30 973 H 95.5295 0.571661 0.422759 0
M  V30 974 H 98.1315 1.87791 0.54359 0
M  V30 975 H 96.8355 3.69942 1.77683 0
M  V30 976 H 96.3665 2.52541 3.0164 0
M  V30 977 H 98.3815 2.51287 4.27866 0
M  V30 978 N 97.5546 -0.734337 1.39446 0
M  V30 979 C 98.9706 -1.03997 1.21065 0
M  V30 980 C 99.1706 -2.01369 0.0727019 0
M  V30 981 O 98.2266 -2.45856 -0.575426 0
M  V30 982 C 99.5396 -1.60163 2.54496 0
M  V30 983 C 101.088 -1.7224 2.61347 0
M  V30 984 C 101.563 -2.31814 3.95002 0
M  V30 985 N 103.054 -2.39223 3.96644 0
M  V30 986 C 103.789 -2.86258 4.96834 0
M  V30 987 N 103.285 -3.33184 6.07421 0
M  V30 988 N 105.078 -2.85473 4.84213 0
M  V30 989 H 97.2286 -0.0885624 2.12215 0
M  V30 990 H 99.4916 -0.10191 0.942506 0
M  V30 991 H 99.1976 -0.960811 3.38321 0
M  V30 992 H 99.0716 -2.5896 2.74262 0
M  V30 993 H 101.459 -2.35443 1.77906 0
M  V30 994 H 101.54 -0.720939 2.4543 0
M  V30 995 H 101.184 -1.69238 4.78875 0
M  V30 996 H 101.114 -3.32638 4.08239 0
M  V30 997 H 103.605 -2.06057 3.16779 0
M  V30 998 H 103.918 -3.67586 6.7978 0
M  V30 999 H 102.263 -3.31191 6.11013 0
M  V30 1000 H 105.454 -2.48136 3.96921 0
M  V30 1001 H 105.627 -3.21814 5.62441 0
M  V30 1002 N 99.0327 -1.24633 -0.964593 0
M  V30 1003 C 99.9627 -1.06611 -2.07741 0
M  V30 1004 C 100.944 0.0218666 -1.70086 0
M  V30 1005 O 102.129 -0.145793 -1.93652 0
M  V30 1006 C 99.2587 -0.673444 -3.40708 0
M  V30 1007 C 98.2127 -1.71054 -3.92332 0
M  V30 1008 C 97.5387 -1.17285 -5.21678 0
M  V30 1009 C 98.8387 -3.10718 -4.19824 0
M  V30 1010 H 100.533 -1.99693 -2.23076 0
M  V30 1011 H 98.0787 -0.96152 -1.07195 0
M  V30 1012 H 100.032 -0.534345 -4.17998 0
M  V30 1013 H 98.7557 0.293073 -3.25282 0
M  V30 1014 H 97.4147 -1.83791 -3.17201 0
M  V30 1015 H 97.0627 -0.196847 -5.02615 0
M  V30 1016 H 96.7627 -1.86592 -5.57187 0
M  V30 1017 H 98.2867 -1.04593 -6.01575 0
M  V30 1018 H 99.7007 -3.01192 -4.87808 0
M  V30 1019 H 98.0977 -3.77406 -4.66567 0
M  V30 1020 H 99.1677 -3.58524 -3.26479 0
M  V30 1021 N 100.511 1.16574 -1.06058 0
M  V30 1022 C 101.443 2.2045 -0.627239 0
M  V30 1023 C 102.456 1.59752 0.313534 0
M  V30 1024 O 103.645 1.78192 0.104896 0
M  V30 1025 C 100.745 3.3875 0.100974 0
M  V30 1026 C 99.9178 4.29008 -0.852687 0
M  V30 1027 C 98.9768 5.25944 -0.164152 0
M  V30 1028 O 98.0028 5.63535 -0.801047 0
M  V30 1029 N 99.2048 5.70075 1.09518 0
M  V30 1030 H 101.97 2.58249 -1.52077 0
M  V30 1031 H 99.5308 1.3156 -0.943594 0
M  V30 1032 H 101.523 4.00638 0.57194 0
M  V30 1033 H 100.093 2.99476 0.89628 0
M  V30 1034 H 99.3128 3.64419 -1.50308 0
M  V30 1035 H 100.601 4.86195 -1.49972 0
M  V30 1036 H 99.9988 5.41624 1.6328 0
M  V30 1037 H 98.5558 6.34067 1.51006 0
M  V30 1038 N 101.989 0.842826 1.3317 0
M  V30 1039 C 102.936 0.276885 2.29133 0
M  V30 1040 C 103.906 -0.609527 1.54512 0
M  V30 1041 O 105.091 -0.546955 1.82792 0
M  V30 1042 C 102.231 -0.538707 3.40869 0
M  V30 1043 C 101.344 0.372169 4.30394 0
M  V30 1044 C 100.479 -0.454908 5.29249 0
M  V30 1045 C 99.5179 0.45411 6.10413 0
M  V30 1046 N 98.6549 -0.335075 7.013 0
M  V30 1047 H 103.495 1.10052 2.76934 0
M  V30 1048 H 101.032 0.554161 1.36262 0
M  V30 1049 H 102.99 -1.02709 4.0436 0
M  V30 1050 H 101.62 -1.32727 2.9425 0
M  V30 1051 H 100.672 0.97888 3.6759 0
M  V30 1052 H 101.984 1.0703 4.87182 0
M  V30 1053 H 101.138 -1.00695 5.98285 0
M  V30 1054 H 99.8769 -1.18646 4.73048 0
M  V30 1055 H 98.8819 1.01813 5.40291 0
M  V30 1056 H 100.107 1.18409 6.68697 0
M  V30 1057 H 98.0529 -1.04994 6.47543 0
M  V30 1058 H 97.9699 0.304262 7.55387 0
M  V30 1059 H 99.2379 -0.869224 7.74638 0
M  V30 1060 N 103.467 -1.45747 0.599634 0
M  V30 1061 C 104.707 -2.04181 0.0946309 0
M  V30 1062 C 105.071 -1.45895 -1.24815 0
M  V30 1063 O 106.272 -1.95633 -1.8434 0
M  V30 1064 C 104.543 -3.57368 0.047581 0
M  V30 1065 S 106.102 -4.36997 -0.397387 0
M  V30 1066 H 102.92 -0.70953 0.0456954 0
M  V30 1067 H 105.522 -1.78564 0.795946 0
M  V30 1068 H 104.226 -3.97303 1.02852 0
M  V30 1069 H 103.757 -3.87549 -0.675977 0
M  V30 1070 H 105.772 -4.68012 -1.64862 0
M  V30 1071 N 104.945 -0.338344 -1.53925 0
M  V30 1072 C 105.875 0.51328 -2.27789 0
M  V30 1073 C 106.856 1.107 -1.29149 0
M  V30 1074 O 108.041 1.12937 -1.57984 0
M  V30 1075 C 105.171 1.66697 -3.04679 0
M  V30 1076 C 104.125 1.20183 -4.1078 0
M  V30 1077 C 103.451 2.44363 -4.75595 0
M  V30 1078 C 104.751 0.30605 -5.21403 0
M  V30 1079 H 106.445 -0.102883 -2.99223 0
M  V30 1080 H 103.991 -0.0509219 -1.4391 0
M  V30 1081 H 105.944 2.26915 -3.55088 0
M  V30 1082 H 104.668 2.30995 -2.30887 0
M  V30 1083 H 103.327 0.622499 -3.61276 0
M  V30 1084 H 102.975 3.07057 -3.98403 0
M  V30 1085 H 102.675 2.13925 -5.47275 0
M  V30 1086 H 104.199 3.05317 -5.28786 0
M  V30 1087 H 105.613 0.814929 -5.67478 0
M  V30 1088 H 104.01 0.0937929 -6.00027 0
M  V30 1089 H 105.08 -0.65921 -4.80398 0
M  V30 1090 N 106.423 1.57458 -0.0668435 0
M  V30 1091 C 107.7 1.8469 0.644132 0
M  V30 1092 C 108.08 0.958343 1.88093 0
M  V30 1093 O 107.428 0.0233579 2.28488 0
M  V30 1094 C 107.638 3.34767 0.986509 0
M  V30 1095 C 108.986 4.02159 1.36212 0
M  V30 1096 O 110.01 3.39484 1.07839 0
M  V30 1097 O 108.869 5.12694 1.89227 0
M  V30 1098 H 105.963 0.762816 0.319437 0
M  V30 1099 H 108.509 1.6942 -0.0973986 0
M  V30 1100 H 107.281 3.91151 0.107883 0
M  V30 1101 H 106.904 3.55281 1.78497 0
M  V30 1102 N 107.901 -0.206675 1.56239 0
M  V30 1103 C 108.864 -1.23976 1.92776 0
M  V30 1104 C 109.864 -1.39041 0.807729 0
M  V30 1105 O 111.054 -1.37051 1.0753 0
M  V30 1106 C 108.186 -2.61112 2.19165 0
M  V30 1107 H 109.379 -0.927764 2.85189 0
M  V30 1108 H 106.932 -0.447718 1.4975 0
M  V30 1109 H 107.667 -2.97386 1.29352 0
M  V30 1110 H 107.452 -2.51552 3.00772 0
M  V30 1111 H 108.942 -3.35633 2.48476 0
M  V30 1112 N 109.379 -1.50304 -0.473955 0
M  V30 1113 C 110.627 -1.60832 -1.22382 0
M  V30 1114 C 110.948 -0.30939 -1.9253 0
M  V30 1115 O 110.218 0.67296 -1.83978 0
M  V30 1116 H 108.798 -0.592652 -0.454723 0
M  V30 1117 H 111.46 -1.87068 -0.546968 0
M  V30 1118 H 110.556 -2.41803 -1.97327 0
M  V30 1119 N 110.857 0.726932 -1.39834 0
M  V30 1120 C 111.79 1.8501 -1.33592 0
M  V30 1121 C 112.768 1.61262 -0.208191 0
M  V30 1122 O 113.952 1.84422 -0.389981 0
M  V30 1123 C 111.079 3.21143 -1.07633 0
M  V30 1124 C 110.125 3.63737 -2.22705 0
M  V30 1125 S 110.958 3.72167 -3.85035 0
M  V30 1126 C 112.114 5.11077 -3.61318 0
M  V30 1127 H 112.347 1.90022 -2.28646 0
M  V30 1128 H 109.88 0.892595 -1.25985 0
M  V30 1129 H 111.838 3.99747 -0.933415 0
M  V30 1130 H 110.499 3.13776 -0.142526 0
M  V30 1131 H 109.692 4.62551 -2.00155 0
M  V30 1132 H 109.294 2.9236 -2.33242 0
M  V30 1133 H 111.586 5.97656 -3.19083 0
M  V30 1134 H 112.529 5.38658 -4.59623 0
M  V30 1135 H 112.937 4.81135 -2.95245 0
M  V30 1136 N 112.336 1.25143 0.95797 0
M  V30 1137 C 113.752 1.01892 1.22842 0
M  V30 1138 C 113.952 -0.266311 1.99732 0
M  V30 1139 O 113.008 -0.979913 2.3271 0
M  V30 1140 C 114.321 2.24004 2.00606 0
M  V30 1141 C 115.869 2.28731 2.13662 0
M  V30 1142 C 116.344 3.5049 2.94823 0
M  V30 1143 N 117.835 3.50866 3.02403 0
M  V30 1144 C 118.57 4.4174 3.65586 0
M  V30 1145 N 118.066 5.42882 4.30408 0
M  V30 1146 N 119.859 4.29429 3.62694 0
M  V30 1147 H 112.01 2.07718 0.443493 0
M  V30 1148 H 114.273 0.912031 0.258657 0
M  V30 1149 H 113.979 3.17395 1.51503 0
M  V30 1150 H 113.853 2.26907 3.01319 0
M  V30 1151 H 116.24 1.35865 2.61963 0
M  V30 1152 H 116.321 2.29848 1.12265 0
M  V30 1153 H 115.965 4.43676 2.47213 0
M  V30 1154 H 115.895 3.46617 3.96439 0
M  V30 1155 H 118.386 2.777 2.56302 0
M  V30 1156 H 118.699 6.0844 4.76467 0
M  V30 1157 H 117.044 5.46758 4.29047 0
M  V30 1158 H 120.235 3.49643 3.11236 0
M  V30 1159 H 120.408 5.00448 4.1165 0
M  V30 1160 N 113.814 -1.1601 1.06675 0
M  V30 1161 C 114.761 -2.20525 0.680967 0
M  V30 1162 C 115.731 -1.62904 -0.324283 0
M  V30 1163 O 116.916 -1.89615 -0.212294 0
M  V30 1164 C 114.056 -3.45013 0.0776551 0
M  V30 1165 C 113.169 -4.16863 1.13355 0
M  V30 1166 C 112.304 -5.2888 0.49597 0
M  V30 1167 C 111.343 -5.92537 1.53513 0
M  V30 1168 N 110.48 -6.96038 0.920631 0
M  V30 1169 H 115.32 -2.52876 1.57663 0
M  V30 1170 H 112.857 -1.24199 0.788223 0
M  V30 1171 H 114.815 -4.16193 -0.289704 0
M  V30 1172 H 113.445 -3.132 -0.781393 0
M  V30 1173 H 112.497 -3.44248 1.61857 0
M  V30 1174 H 113.809 -4.60294 1.92174 0
M  V30 1175 H 112.963 -6.06653 0.0758604 0
M  V30 1176 H 111.702 -4.86622 -0.324062 0
M  V30 1177 H 110.707 -5.13482 1.9651 0
M  V30 1178 H 111.932 -6.36873 2.35733 0
M  V30 1179 H 109.878 -6.55888 0.12138 0
M  V30 1180 H 109.795 -7.3786 1.64616 0
M  V30 1181 H 111.063 -7.77725 0.525795 0
M  V30 1182 N 115.292 -0.849877 -1.32721 0
M  V30 1183 C 116.569 -0.372405 -1.92022 0
M  V30 1184 C 116.949 1.1435 -1.77447 0
M  V30 1185 O 116.297 1.96296 -1.16962 0
M  V30 1186 C 116.507 -0.831482 -3.3895 0
M  V30 1187 C 117.855 -0.845882 -4.16089 0
M  V30 1188 O 118.879 -0.775806 -3.47649 0
M  V30 1189 O 117.738 -0.943753 -5.38289 0
M  V30 1190 H 114.832 -0.107667 -0.819961 0
M  V30 1191 H 117.378 -0.93646 -1.41522 0
M  V30 1192 H 116.15 -1.87448 -3.4348 0
M  V30 1193 H 115.773 -0.24461 -3.96847 0
M  V30 1194 N 116.77 1.45427 -0.607355 0
M  V30 1195 C 117.703 2.27635 0.160482 0
M  V30 1196 C 118.681 1.37122 0.873857 0
M  V30 1197 O 119.865 1.66551 0.882775 0
M  V30 1198 C 116.992 3.15486 1.23231 0
M  V30 1199 C 116.038 4.21939 0.622097 0
M  V30 1200 S 116.871 5.32459 -0.569852 0
M  V30 1201 C 118.027 6.23879 0.502577 0
M  V30 1202 H 118.26 2.9241 -0.536983 0
M  V30 1203 H 115.793 1.49265 -0.394868 0
M  V30 1204 H 117.751 3.66659 1.84585 0
M  V30 1205 H 116.412 2.49977 1.90185 0
M  V30 1206 H 115.605 4.8333 1.42856 0
M  V30 1207 H 115.207 3.73906 0.0837063 0
M  V30 1208 H 117.499 6.63261 1.38171 0
M  V30 1209 H 118.442 7.0806 -0.0751759 0
M  V30 1210 H 118.85 5.58545 0.8178 0
M  V30 1211 N 118.248 0.346503 1.53744 0
M  V30 1212 C 119.497 -0.250122 2.00143 0
M  V30 1213 C 119.81 -1.51418 1.23822 0
M  V30 1214 O 121.016 -2.18823 1.60713 0
M  V30 1215 C 119.472 -0.496252 3.56462 0
M  V30 1216 C 119.08 0.752077 4.41642 0
M  V30 1217 C 120.824 -1.05157 4.11269 0
M  V30 1218 C 118.731 0.476583 5.89477 0
M  V30 1219 H 117.661 -0.0972409 0.747703 0
M  V30 1220 H 120.312 0.46229 1.77581 0
M  V30 1221 H 118.694 -1.26944 3.75102 0
M  V30 1222 H 119.868 1.5266 4.34778 0
M  V30 1223 H 118.183 1.22925 3.97842 0
M  V30 1224 H 120.78 -1.27269 5.19333 0
M  V30 1225 H 121.123 -2.00799 3.64672 0
M  V30 1226 H 121.656 -0.339019 3.96353 0
M  V30 1227 H 118.395 1.4028 6.40314 0
M  V30 1228 H 117.915 -0.259794 5.99237 0
M  V30 1229 H 119.594 0.0949315 6.4693 0
M  V30 1230 N 119.726 -1.57421 0.075193 0
M  V30 1231 C 120.656 -2.15942 -0.888324 0
M  V30 1232 C 121.637 -1.08737 -1.30806 0
M  V30 1233 O 122.822 -1.36787 -1.37851 0
M  V30 1234 C 119.952 -2.72379 -2.1547 0
M  V30 1235 C 118.906 -3.8478 -1.87425 0
M  V30 1236 C 118.232 -4.27834 -3.20721 0
M  V30 1237 C 119.532 -5.08869 -1.17684 0
M  V30 1238 H 121.226 -2.96705 -0.400799 0
M  V30 1239 H 118.772 -1.42723 -0.191342 0
M  V30 1240 H 120.725 -3.11965 -2.83295 0
M  V30 1241 H 119.449 -1.88841 -2.6647 0
M  V30 1242 H 118.108 -3.45703 -1.22004 0
M  V30 1243 H 117.756 -3.41214 -3.6957 0
M  V30 1244 H 117.456 -5.03605 -3.02746 0
M  V30 1245 H 118.98 -4.70039 -3.89738 0
M  V30 1246 H 120.394 -5.4575 -1.75584 0
M  V30 1247 H 118.791 -5.8994 -1.09956 0
M  V30 1248 H 119.861 -4.84648 -0.156453 0
M  V30 1249 N 121.204 0.198386 -1.56346 0
M  V30 1250 C 122.429 0.939682 -1.84891 0
M  V30 1251 C 122.854 1.76202 -0.658369 0
M  V30 1252 O 122.212 1.76993 0.392851 0
M  V30 1253 C 122.26 1.81428 -3.11635 0
M  V30 1254 O 121.364 2.91265 -2.91956 0
M  V30 1255 H 120.705 0.264807 -0.608912 0
M  V30 1256 H 123.235 0.204695 -2.03573 0
M  V30 1257 H 123.245 2.21958 -3.42343 0
M  V30 1258 H 121.92 1.21004 -3.97908 0
M  V30 1259 H 120.497 2.54514 -2.72538 0
M  V30 1260 N 122.682 1.50554 0.465978 0
M  V30 1261 C 123.645 1.69233 1.54574 0
M  V30 1262 C 124.645 0.562901 1.50626 0
M  V30 1263 O 125.835 0.830016 1.53155 0
M  V30 1264 C 122.967 1.7223 2.94193 0
M  V30 1265 H 124.16 2.65571 1.39327 0
M  V30 1266 H 121.713 1.40111 0.692711 0
M  V30 1267 H 122.448 0.77603 3.14878 0
M  V30 1268 H 122.233 2.54285 2.98466 0
M  V30 1269 H 123.723 1.88618 3.72576 0
M  V30 1270 N 124.16 -0.719506 1.40217 0
M  V30 1271 C 125.07 -1.86378 1.42479 0
M  V30 1272 C 126.086 -1.71073 0.317834 0
M  V30 1273 O 127.262 -1.93406 0.561794 0
M  V30 1274 C 124.327 -3.22136 1.28178 0
M  V30 1275 C 123.388 -3.49723 2.48982 0
M  V30 1276 C 122.621 -4.79004 2.35353 0
M  V30 1277 O 122.844 -5.53821 1.36524 0
M  V30 1278 O 121.778 -5.06839 3.2465 0
M  V30 1279 H 125.604 -1.87425 2.38968 0
M  V30 1280 H 123.189 -0.869405 1.21498 0
M  V30 1281 H 125.071 -4.03234 1.22395 0
M  V30 1282 H 123.746 -3.21825 0.347934 0
M  V30 1283 H 122.653 -2.6865 2.60342 0
M  V30 1284 H 123.986 -3.54828 3.41113 0
M  V30 1285 N 125.638 -1.25649 -0.95132 0
M  V30 1286 C 126.601 -1.06399 -2.03007 0
M  V30 1287 C 127.601 -0.0156794 -1.60792 0
M  V30 1288 O 128.791 -0.25817 -1.72276 0
M  V30 1289 C 125.923 -0.616184 -3.35285 0
M  V30 1290 H 127.116 -2.02164 -2.21517 0
M  V30 1291 H 124.669 -1.08103 -1.12887 0
M  V30 1292 H 125.404 0.343917 -3.22471 0
M  V30 1293 H 125.189 -1.37301 -3.67275 0
M  V30 1294 H 126.679 -0.503032 -4.14559 0
M  V30 1295 N 127.117 1.15442 -1.07289 0
M  V30 1296 C 128.047 2.22312 -0.714107 0
M  V30 1297 C 129.028 1.67467 0.298155 0
M  V30 1298 O 130.213 1.93445 0.171048 0
M  V30 1299 C 127.343 3.47124 -0.110448 0
M  V30 1300 C 126.297 4.14926 -1.04979 0
M  V30 1301 C 125.623 5.33807 -0.308924 0
M  V30 1302 C 126.923 4.64762 -2.38314 0
M  V30 1303 H 128.617 2.5258 -1.6076 0
M  V30 1304 H 126.163 1.21404 -0.77441 0
M  V30 1305 H 128.116 4.21124 0.152482 0
M  V30 1306 H 126.84 3.16187 0.81812 0
M  V30 1307 H 125.499 3.42866 -1.29764 0
M  V30 1308 H 125.147 4.99126 0.623084 0
M  V30 1309 H 124.847 5.80113 -0.935036 0
M  V30 1310 H 126.371 6.10576 -0.0537771 0
M  V30 1311 H 127.785 5.30292 -2.1786 0
M  V30 1312 H 126.182 5.21728 -2.96514 0
M  V30 1313 H 127.252 3.80434 -3.00663 0
M  V30 1314 N 128.595 0.856903 1.32268 0
M  V30 1315 C 129.558 0.308171 2.27119 0
M  V30 1316 C 130.558 -0.533421 1.51695 0
M  V30 1317 O 131.748 -0.344607 1.70757 0
M  V30 1318 C 128.88 -0.563757 3.36206 0
M  V30 1319 H 130.073 1.14535 2.77167 0
M  V30 1320 H 127.626 0.631421 1.42978 0
M  V30 1321 H 128.361 -1.42266 2.91429 0
M  V30 1322 H 128.146 0.0386749 3.92081 0
M  V30 1323 H 129.636 -0.940386 4.06874 0
M  V30 1324 N 130.073 -1.45103 0.615059 0
M  V30 1325 C 131.003 -2.33339 -0.0865619 0
M  V30 1326 C 131.984 -1.4727 -0.851209 0
M  V30 1327 O 133.169 -1.76026 -0.820281 0
M  V30 1328 C 130.299 -3.30095 -1.07956 0
M  V30 1329 C 129.253 -4.25858 -0.427628 0
M  V30 1330 C 128.579 -5.12361 -1.5294 0
M  V30 1331 C 129.879 -5.18165 0.655944 0
M  V30 1332 H 131.573 -2.92254 0.650224 0
M  V30 1333 H 129.119 -1.40532 0.314138 0
M  V30 1334 H 131.072 -3.90698 -1.57901 0
M  V30 1335 H 129.796 -2.69355 -1.84703 0
M  V30 1336 H 128.455 -3.66564 0.0510292 0
M  V30 1337 H 128.103 -4.47984 -2.28734 0
M  V30 1338 H 127.803 -5.77238 -1.09865 0
M  V30 1339 H 129.327 -5.75833 -2.03098 0
M  V30 1340 H 130.741 -5.72796 0.240257 0
M  V30 1341 H 129.138 -5.91559 1.00888 0
M  V30 1342 H 130.208 -4.60144 1.52957 0
M  V30 1343 N 131.551 -0.354651 -1.53558 0
M  V30 1344 C 132.967 -0.00315426 -1.596 0
M  V30 1345 C 133.167 1.47741 -1.37021 0
M  V30 1346 O 132.223 2.23759 -1.16996 0
M  V30 1347 C 133.536 -0.44929 -2.97325 0
M  V30 1348 C 135.084 -0.402578 -3.104 0
M  V30 1349 C 135.559 -0.824355 -4.5052 0
M  V30 1350 N 137.05 -0.778979 -4.56603 0
M  V30 1351 C 137.785 -1.07715 -5.63192 0
M  V30 1352 N 137.281 -1.44405 -6.77583 0
M  V30 1353 N 139.074 -1.00066 -5.53121 0
M  V30 1354 H 131.225 -1.31893 -1.66487 0
M  V30 1355 H 133.488 -0.538388 -0.780284 0
M  V30 1356 H 133.194 -1.48202 -3.1895 0
M  V30 1357 H 133.068 0.169772 -3.76818 0
M  V30 1358 H 135.455 0.621004 -2.88492 0
M  V30 1359 H 135.536 -1.05699 -2.32941 0
M  V30 1360 H 135.18 -1.846 -4.73165 0
M  V30 1361 H 135.11 -0.147304 -5.26394 0
M  V30 1362 H 137.601 -0.508528 -3.74463 0
M  V30 1363 H 137.914 -1.65612 -7.54846 0
M  V30 1364 H 136.259 -1.4826 -6.79002 0
M  V30 1365 H 139.45 -0.713293 -4.62633 0
M  V30 1366 H 139.623 -1.23638 -6.36096 0
M  V30 1367 N 133.029 1.57378 -0.0835403 0
M  V30 1368 C 134.445 1.57246 0.273109 0
M  V30 1369 C 134.645 1.09385 1.69225 0
M  V30 1370 O 133.701 0.765051 2.40631 0
M  V30 1371 C 135.014 3.00614 0.0720628 0
M  V30 1372 C 136.562 3.12684 0.1407 0
M  V30 1373 C 137.037 4.57989 -0.0322094 0
M  V30 1374 N 138.528 4.63194 0.0230085 0
M  V30 1375 C 139.263 5.73335 -0.0861941 0
M  V30 1376 N 138.759 6.9235 -0.24958 0
M  V30 1377 N 140.552 5.62093 -0.0282886 0
M  V30 1378 H 132.703 1.86801 -1.0109 0
M  V30 1379 H 134.966 0.861687 -0.395222 0
M  V30 1380 H 134.672 3.39786 -0.907662 0
M  V30 1381 H 134.546 3.68193 0.81936 0
M  V30 1382 H 136.933 2.73391 1.11092 0
M  V30 1383 H 137.014 2.47719 -0.637896 0
M  V30 1384 H 136.658 4.97973 -0.999247 0
M  V30 1385 H 136.588 5.21 0.765937 0
M  V30 1386 H 139.079 3.77613 0.14722 0
M  V30 1387 H 139.392 7.72117 -0.324733 0
M  V30 1388 H 137.737 6.94415 -0.285097 0
M  V30 1389 H 140.928 4.67997 0.0981408 0
M  V30 1390 H 141.101 6.47895 -0.116845 0
M  V30 1391 N 134.507 -0.190092 1.56449 0
M  V30 1392 C 135.47 -1.21925 1.9408 0
M  V30 1393 C 136.47 -1.38176 0.822431 0
M  V30 1394 O 137.66 -1.35903 1.08977 0
M  V30 1395 C 134.792 -2.58773 2.21922 0
M  V30 1396 H 135.985 -0.897464 2.86157 0
M  V30 1397 H 133.538 -0.43181 1.50217 0
M  V30 1398 H 134.273 -2.95998 1.32499 0
M  V30 1399 H 134.058 -2.48348 3.03424 0
M  V30 1400 H 135.548 -3.32978 2.52022 0
M  V30 1401 N 135.985 -1.50799 -0.457987 0
M  V30 1402 C 136.932 -1.70617 -1.5543 0
M  V30 1403 C 137.902 -0.547562 -1.56815 0
M  V30 1404 O 139.087 -0.779647 -1.74144 0
M  V30 1405 C 136.227 -1.81831 -2.93311 0
M  V30 1406 C 135.34 -3.09278 -3.01615 0
M  V30 1407 C 134.475 -3.11209 -4.30491 0
M  V30 1408 C 133.514 -4.33055 -4.32585 0
M  V30 1409 N 132.651 -4.32652 -5.52952 0
M  V30 1410 H 137.491 -2.64207 -1.37836 0
M  V30 1411 H 135.028 -1.30959 -0.669937 0
M  V30 1412 H 136.986 -1.86314 -3.73287 0
M  V30 1413 H 135.616 -0.916685 -3.0951 0
M  V30 1414 H 134.668 -3.14203 -2.1443 0
M  V30 1415 H 135.98 -3.99233 -2.99022 0
M  V30 1416 H 135.134 -3.14494 -5.18824 0
M  V30 1417 H 133.873 -2.19106 -4.35711 0
M  V30 1418 H 132.878 -4.29969 -3.42647 0
M  V30 1419 H 134.103 -5.264 -4.29046 0
M  V30 1420 H 132.049 -3.43409 -5.58933 0
M  V30 1421 H 131.966 -5.16392 -5.52155 0
M  V30 1422 H 133.234 -4.40101 -6.43375 0
M  V30 1423 N 137.463 0.71206 -1.40597 0
M  V30 1424 C 138.395 1.83704 -1.37061 0
M  V30 1425 C 139.408 1.60453 -0.275426 0
M  V30 1426 O 140.597 1.70262 -0.53602 0
M  V30 1427 C 137.697 3.20172 -1.11099 0
M  V30 1428 C 136.87 3.7059 -2.3234 0
M  V30 1429 C 135.929 4.85681 -2.02485 0
M  V30 1430 O 134.955 4.9815 -2.75382 0
M  V30 1431 N 136.157 5.71735 -1.00497 0
M  V30 1432 H 138.922 1.87235 -2.34016 0
M  V30 1433 H 136.483 0.893739 -1.34996 0
M  V30 1434 H 138.475 3.94768 -0.891064 0
M  V30 1435 H 137.045 3.11767 -0.227989 0
M  V30 1436 H 136.265 2.87085 -2.7014 0
M  V30 1437 H 137.553 4.01011 -3.13157 0
M  V30 1438 H 136.951 5.64275 -0.401298 0
M  V30 1439 H 135.508 6.463 -0.844942 0
M  V30 1440 N 138.941 1.26152 0.944643 0
M  V30 1441 C 139.904 1.07474 2.0244 0
M  V30 1442 C 140.904 0.0242064 1.60782 0
M  V30 1443 O 142.094 0.267302 1.72137 0
M  V30 1444 C 139.226 0.633956 3.34953 0
M  V30 1445 H 140.419 2.03336 2.20442 0
M  V30 1446 H 137.972 1.087 1.12312 0
M  V30 1447 H 138.707 -0.326811 3.22649 0
M  V30 1448 H 138.492 1.39247 3.66542 0
M  V30 1449 H 139.982 0.52501 4.14287 0
M  V30 1450 N 140.419 -1.14872 1.07899 0
M  V30 1451 C 141.351 -2.19425 0.662231 0
M  V30 1452 C 142.364 -1.60231 -0.288079 0
M  V30 1453 O 143.553 -1.78336 -0.076534 0
M  V30 1454 C 140.653 -3.38867 -0.0470695 0
M  V30 1455 C 139.826 -4.27597 0.920831 0
M  V30 1456 C 138.885 -5.25616 0.247805 0
M  V30 1457 O 137.911 -5.62189 0.890599 0
M  V30 1458 N 139.113 -5.71746 -1.00435 0
M  V30 1459 H 141.878 -2.55797 1.56166 0
M  V30 1460 H 139.439 -1.30042 0.964404 0
M  V30 1461 H 141.431 -4.01497 -0.50813 0
M  V30 1462 H 140.001 -3.00864 -0.848523 0
M  V30 1463 H 139.221 -3.61982 1.56087 0
M  V30 1464 H 140.509 -4.83748 1.57688 0
M  V30 1465 H 139.907 -5.44153 -1.54642 0
M  V30 1466 H 138.464 -6.36389 -1.40899 0
M  V30 1467 N 141.898 -0.863906 -1.31812 0
M  V30 1468 C 143.314 -0.555004 -1.49639 0
M  V30 1469 C 143.514 0.912266 -1.79666 0
M  V30 1470 O 142.57 1.69479 -1.87171 0
M  V30 1471 C 143.883 -1.44998 -2.63431 0
M  V30 1472 C 145.431 -1.45138 -2.77316 0
M  V30 1473 C 145.906 -2.33179 -3.94197 0
M  V30 1474 N 147.397 -2.31025 -4.01474 0
M  V30 1475 C 148.132 -2.95871 -4.9117 0
M  V30 1476 N 147.628 -3.69863 -5.8581 0
M  V30 1477 N 149.421 -2.85211 -4.84367 0
M  V30 1478 H 141.572 -1.81339 -1.10589 0
M  V30 1479 H 143.835 -0.77505 -0.545895 0
M  V30 1480 H 143.541 -2.49377 -2.48 0
M  V30 1481 H 143.415 -1.14409 -3.59431 0
M  V30 1482 H 145.802 -0.415201 -2.92164 0
M  V30 1483 H 145.883 -1.79747 -1.82001 0
M  V30 1484 H 145.527 -3.3687 -3.80107 0
M  V30 1485 H 145.457 -1.95897 -4.88807 0
M  V30 1486 H 147.948 -1.77238 -3.33759 0
M  V30 1487 H 148.261 -4.16486 -6.50968 0
M  V30 1488 H 146.606 -3.73971 -5.85808 0
M  V30 1489 H 149.797 -2.26948 -4.09405 0
M  V30 1490 H 149.97 -3.36027 -5.54066 0
M  V30 1491 N 143.376 1.44774 -0.622745 0
M  V30 1492 C 144.792 1.56986 -0.287652 0
M  V30 1493 C 144.992 1.61167 1.20944 0
M  V30 1494 O 144.048 1.55015 1.99315 0
M  V30 1495 C 145.361 2.84551 -0.972188 0
M  V30 1496 C 146.909 2.9825 -0.949536 0
M  V30 1497 C 147.384 4.28605 -1.61437 0
M  V30 1498 N 148.875 4.35399 -1.58057 0
M  V30 1499 C 149.61 5.34964 -2.064 0
M  V30 1500 N 149.106 6.40981 -2.62897 0
M  V30 1501 N 150.899 5.26419 -1.97078 0
M  V30 1502 H 143.05 1.40304 -1.59463 0
M  V30 1503 H 145.313 0.671794 -0.668878 0
M  V30 1504 H 145.019 2.87417 -2.02693 0
M  V30 1505 H 144.893 3.73807 -0.504771 0
M  V30 1506 H 147.28 2.94941 0.0967067 0
M  V30 1507 H 147.361 2.10364 -1.45536 0
M  V30 1508 H 147.005 4.32672 -2.66002 0
M  V30 1509 H 146.935 5.15334 -1.08344 0
M  V30 1510 H 149.426 3.59397 -1.16801 0
M  V30 1511 H 149.739 7.13225 -2.97539 0
M  V30 1512 H 148.084 6.4169 -2.66943 0
M  V30 1513 H 151.275 4.42504 -1.52669 0
M  V30 1514 H 151.448 6.03861 -2.35066 0
M  V30 1515 N 144.854 0.36279 1.53368 0
M  V30 1516 C 145.817 -0.472679 2.24273 0
M  V30 1517 C 146.817 -1.012 1.24961 0
M  V30 1518 O 148.007 -0.898194 1.49259 0
M  V30 1519 C 145.139 -1.66039 2.97731 0
M  V30 1520 H 146.332 0.14773 2.99536 0
M  V30 1521 H 143.885 0.114434 1.55881 0
M  V30 1522 H 144.62 -2.31896 2.26704 0
M  V30 1523 H 144.405 -1.28066 3.70596 0
M  V30 1524 H 145.895 -2.25252 3.51641 0
M  V30 1525 N 146.332 -1.57332 0.0918853 0
M  V30 1526 C 147.264 -2.10869 -0.898168 0
M  V30 1527 C 148.277 -1.04521 -1.24817 0
M  V30 1528 O 149.466 -1.31977 -1.20184 0
M  V30 1529 C 146.566 -2.57083 -2.2082 0
M  V30 1530 C 145.739 -3.87229 -2.03402 0
M  V30 1531 C 144.798 -4.19324 -3.17889 0
M  V30 1532 O 143.824 -4.88598 -2.91994 0
M  V30 1533 N 145.026 -3.74471 -4.43567 0
M  V30 1534 H 147.791 -2.96439 -0.440943 0
M  V30 1535 H 145.352 -1.61631 -0.0933064 0
M  V30 1536 H 147.344 -2.75602 -2.96354 0
M  V30 1537 H 145.914 -1.76541 -2.57977 0
M  V30 1538 H 145.134 -3.7789 -1.12218 0
M  V30 1539 H 146.422 -4.72379 -1.89038 0
M  V30 1540 H 145.82 -3.18546 -4.67488 0
M  V30 1541 H 144.377 -3.98151 -5.16061 0
M  V30 1542 N 147.81 0.181792 -1.56548 0
M  V30 1543 C 148.742 1.24956 -1.92142 0
M  V30 1544 C 149.755 1.41022 -0.813422 0
M  V30 1545 O 150.944 1.41212 -1.09186 0
M  V30 1546 C 148.044 2.61981 -2.14987 0
M  V30 1547 C 147.217 2.6735 -3.46183 0
M  V30 1548 C 146.276 3.85664 -3.5798 0
M  V30 1549 O 145.302 3.72148 -4.30691 0
M  V30 1550 N 146.504 5.01683 -2.92053 0
M  V30 1551 H 149.269 0.947329 -2.84334 0
M  V30 1552 H 146.83 0.371629 -1.57577 0
M  V30 1553 H 148.822 3.3958 -2.20154 0
M  V30 1554 H 147.392 2.84637 -1.2923 0
M  V30 1555 H 146.612 1.75925 -3.52766 0
M  V30 1556 H 147.9 2.67939 -4.32534 0
M  V30 1557 H 147.298 5.15564 -2.32832 0
M  V30 1558 H 145.855 5.77181 -3.0283 0
M  V30 1559 N 149.288 1.51039 0.449983 0
M  V30 1560 C 150.516 1.66869 1.2232 0
M  V30 1561 C 150.931 0.360727 1.85322 0
M  V30 1562 O 150.288 -0.659531 1.70166 0
M  V30 1563 C 150.339 2.77524 2.31652 0
M  V30 1564 O 150.06 4.03252 1.7123 0
M  V30 1565 C 151.561 3.04512 3.2216 0
M  V30 1566 H 148.781 0.560326 0.369155 0
M  V30 1567 H 151.325 1.97385 0.534719 0
M  V30 1568 H 149.48 2.49642 2.96239 0
M  V30 1569 H 149.894 4.64609 2.43389 0
M  V30 1570 H 151.368 3.85551 3.95038 0
M  V30 1571 H 151.845 2.16415 3.8218 0
M  V30 1572 H 152.451 3.34005 2.63288 0
M  V30 1573 N 150.766 -0.704594 1.40972 0
M  V30 1574 C 152.177 -1.28418 1.3552 0
M  V30 1575 C 152.528 -1.96171 0.0339434 0
M  V30 1576 O 151.653 -1.98231 -0.867944 0
M  V30 1577 C 152.248 -2.33528 2.45459 0
M  V30 1578 C 150.807 -2.87085 2.43433 0
M  V30 1579 C 149.954 -1.61007 2.2577 0
M  V30 1580 H 152.905 -0.499963 1.50619 0
M  V30 1581 H 152.926 -3.14619 2.13998 0
M  V30 1582 H 152.438 -1.84187 3.41609 0
M  V30 1583 H 150.539 -3.40626 1.51013 0
M  V30 1584 H 150.652 -3.3813 3.39419 0
M  V30 1585 H 149.016 -1.86482 1.73483 0
M  V30 1586 H 149.799 -1.13675 3.23933 0
M  V30 1587 N 152.244 -1.26651 -0.937939 0
M  V30 1588 C 153.49 -1.12553 -1.687 0
M  V30 1589 C 153.823 0.329782 -1.91379 0
M  V30 1590 O 153.098 1.24202 -1.4968 0
M  V30 1591 C 153.381 -1.89862 -3.05981 0
M  V30 1592 C 153.234 -3.43318 -2.90607 0
M  V30 1593 C 154.553 -1.69499 -4.0615 0
M  V30 1594 H 151.672 -0.410257 -0.612257 0
M  V30 1595 H 154.314 -1.55685 -1.08913 0
M  V30 1596 H 152.464 -1.53204 -3.57017 0
M  V30 1597 H 154.136 -3.89747 -2.46769 0
M  V30 1598 H 152.379 -3.70179 -2.26164 0
M  V30 1599 H 153.05 -3.92642 -3.8799 0
M  V30 1600 H 155.526 -2.01442 -3.64088 0
M  V30 1601 H 154.402 -2.26002 -5.00214 0
M  V30 1602 H 154.663 -0.640365 -4.37438 0
M  V30 1603 N 153.722 1.14298 -1.08507 0
M  V30 1604 C 154.654 2.1907 -0.673859 0
M  V30 1605 C 155.667 1.60381 0.279577 0
M  V30 1606 O 156.856 1.78374 0.0670754 0
M  V30 1607 C 153.956 3.38888 0.0290979 0
M  V30 1608 C 153.129 4.27103 -0.943494 0
M  V30 1609 C 152.188 5.25477 -0.275676 0
M  V30 1610 O 151.214 5.61709 -0.920401 0
M  V30 1611 N 152.416 5.7227 0.974013 0
M  V30 1612 H 155.181 2.54965 -1.57521 0
M  V30 1613 H 152.742 1.29528 -0.971287 0
M  V30 1614 H 154.734 4.01761 0.48683 0
M  V30 1615 H 153.304 3.01309 0.832555 0
M  V30 1616 H 152.524 3.61149 -1.58004 0
M  V30 1617 H 153.812 4.82905 -1.60251 0
M  V30 1618 H 153.21 5.44965 1.51755 0
M  V30 1619 H 151.767 6.37127 1.37522 0
M  V30 1620 N 155.201 0.870884 1.31352 0
M  V30 1621 C 156.131 0.343096 2.30966 0
M  V30 1622 C 157.112 -0.566507 1.60389 0
M  V30 1623 O 158.297 -0.483336 1.88089 0
M  V30 1624 C 155.427 -0.455487 3.443 0
M  V30 1625 C 154.381 0.361103 4.26474 0
M  V30 1626 C 153.707 -0.563221 5.31725 0
M  V30 1627 C 155.007 1.59566 4.97329 0
M  V30 1628 H 156.701 1.17548 2.75359 0
M  V30 1629 H 154.247 0.566686 1.32381 0
M  V30 1630 H 156.2 -0.83525 4.13039 0
M  V30 1631 H 154.924 -1.32139 2.98675 0
M  V30 1632 H 153.583 0.722825 3.59403 0
M  V30 1633 H 153.231 -1.42643 4.82351 0
M  V30 1634 H 152.931 -0.0207409 5.87596 0
M  V30 1635 H 154.455 -0.939808 6.03324 0
M  V30 1636 H 155.869 1.28728 5.58661 0
M  V30 1637 H 154.266 2.07728 5.63 0
M  V30 1638 H 155.336 2.34798 4.24262 0
M  V30 1639 N 156.679 -1.44442 0.630414 0
M  V30 1640 C 157.904 -2.06927 0.139944 0
M  V30 1641 C 158.329 -1.46795 -1.17613 0
M  V30 1642 O 157.687 -0.569144 -1.72135 0
M  V30 1643 C 157.735 -3.6058 0.0379581 0
M  V30 1644 O 156.839 -3.99937 -1.0062 0
M  V30 1645 H 156.18 -0.658608 0.0844483 0
M  V30 1646 H 158.71 -1.85327 0.866891 0
M  V30 1647 H 158.72 -4.07714 -0.152856 0
M  V30 1648 H 157.395 -4.03728 0.998809 0
M  V30 1649 H 155.972 -3.64436 -0.79001 0
M  V30 1650 N 158.157 -0.370918 -1.53173 0
M  V30 1651 C 159.104 0.473035 -2.259 0
M  V30 1652 C 160.074 1.07311 -1.26781 0
M  V30 1653 O 161.259 1.1046 -1.55574 0
M  V30 1654 C 158.399 1.60405 -3.05556 0
M  V30 1655 C 157.512 1.02863 -4.19575 0
M  V30 1656 C 156.647 2.12918 -4.86661 0
M  V30 1657 C 155.686 1.52869 -5.92704 0
M  V30 1658 N 154.823 2.56779 -6.53459 0
M  V30 1659 H 159.663 -0.153649 -2.97604 0
M  V30 1660 H 157.2 -0.0875946 -1.46839 0
M  V30 1661 H 159.158 2.27034 -3.50016 0
M  V30 1662 H 157.788 2.20131 -2.36097 0
M  V30 1663 H 156.84 0.252465 -3.79561 0
M  V30 1664 H 158.152 0.549642 -4.95762 0
M  V30 1665 H 157.306 2.87356 -5.34333 0
M  V30 1666 H 156.045 2.6417 -4.09958 0
M  V30 1667 H 155.05 0.769479 -5.44389 0
M  V30 1668 H 156.275 1.02435 -6.7133 0
M  V30 1669 H 154.221 3.07235 -5.79606 0
M  V30 1670 H 154.138 2.13583 -7.25202 0
M  V30 1671 H 155.406 3.30903 -7.05779 0
M  V30 1672 N 159.635 1.57281 -0.100228 0
M  V30 1673 C 160.545 2.17833 0.870965 0
M  V30 1674 C 161.561 1.14921 1.30649 0
M  V30 1675 O 162.737 1.47313 1.37335 0
M  V30 1676 C 159.802 2.75085 2.1102 0
M  V30 1677 C 158.863 3.9297 1.72838 0
M  V30 1678 C 158.096 4.47482 2.90854 0
M  V30 1679 O 158.319 4.00922 4.05731 0
M  V30 1680 O 157.253 5.38433 2.69023 0
M  V30 1681 H 161.079 3.0124 0.38575 0
M  V30 1682 H 158.664 1.48881 0.124397 0
M  V30 1683 H 160.546 3.11656 2.83634 0
M  V30 1684 H 159.221 1.94721 2.58584 0
M  V30 1685 H 158.128 3.61201 0.973883 0
M  V30 1686 H 159.461 4.74713 1.30033 0
M  V30 1687 N 161.113 -0.173488 1.56642 0
M  V30 1688 C 162.045 -1.23935 1.92802 0
M  V30 1689 C 163.058 -1.40589 0.820889 0
M  V30 1690 O 164.247 -1.40631 1.09933 0
M  V30 1691 C 161.347 -2.60837 2.16373 0
M  V30 1692 C 160.52 -2.6551 3.47596 0
M  V30 1693 C 159.579 -3.8376 3.60021 0
M  V30 1694 O 158.605 -3.69859 4.32658 0
M  V30 1695 N 159.807 -5.00127 2.94709 0
M  V30 1696 H 162.572 -0.932236 2.84832 0
M  V30 1697 H 160.133 -0.363268 1.57772 0
M  V30 1698 H 162.125 -3.38407 2.21952 0
M  V30 1699 H 160.695 -2.83948 1.30738 0
M  V30 1700 H 159.915 -1.74052 3.53694 0
M  V30 1701 H 161.203 -2.65641 4.33949 0
M  V30 1702 H 160.601 -5.14322 2.35563 0
M  V30 1703 H 159.158 -5.75567 3.05886 0
M  V30 1704 N 162.591 -1.51276 -0.441967 0
M  V30 1705 C 163.501 -1.75092 -1.56141 0
M  V30 1706 C 164.517 -0.634963 -1.62001 0
M  V30 1707 O 165.693 -0.916686 -1.79329 0
M  V30 1708 C 162.758 -1.86666 -2.92158 0
M  V30 1709 C 161.819 -3.10506 -2.96453 0
M  V30 1710 C 161.052 -3.21519 -4.25982 0
M  V30 1711 O 161.275 -2.38586 -5.18105 0
M  V30 1712 O 160.209 -4.14465 -4.36466 0
M  V30 1713 H 164.035 -2.70044 -1.38961 0
M  V30 1714 H 161.62 -1.35722 -0.624499 0
M  V30 1715 H 163.502 -1.96292 -3.72891 0
M  V30 1716 H 162.177 -0.949014 -3.09476 0
M  V30 1717 H 161.084 -3.06363 -2.14692 0
M  V30 1718 H 162.417 -4.01945 -2.84079 0
M  V30 1719 N 164.069 0.697108 -1.41344 0
M  V30 1720 C 164.979 1.84088 -1.45427 0
M  V30 1721 C 165.995 1.70545 -0.34501 0
M  V30 1722 O 167.171 1.92488 -0.592492 0
M  V30 1723 C 164.236 3.20056 -1.33286 0
M  V30 1724 C 163.297 3.45718 -2.54514 0
M  V30 1725 C 162.53 4.75199 -2.42944 0
M  V30 1726 O 162.753 5.51579 -1.45318 0
M  V30 1727 O 161.687 5.0161 -3.32672 0
M  V30 1728 H 165.513 1.836 -2.41919 0
M  V30 1729 H 163.098 0.849966 -1.22866 0
M  V30 1730 H 164.98 4.01236 -1.28794 0
M  V30 1731 H 163.655 3.2123 -0.39909 0
M  V30 1732 H 162.562 2.64474 -2.64583 0
M  V30 1733 H 163.895 3.49356 -3.46715 0
M  V30 1734 N 165.547 1.27147 0.931209 0
M  V30 1735 C 166.477 1.12081 2.04842 0
M  V30 1736 C 167.458 0.0232364 1.70084 0
M  V30 1737 O 168.643 0.197085 1.93197 0
M  V30 1738 C 165.773 0.76354 3.38803 0
M  V30 1739 C 164.727 1.81396 3.87659 0
M  V30 1740 C 164.053 1.31075 5.18385 0
M  V30 1741 C 165.353 3.21739 4.11438 0
M  V30 1742 H 167.047 2.05537 2.17703 0
M  V30 1743 H 164.593 0.989603 1.04608 0
M  V30 1744 H 166.546 0.644982 4.16435 0
M  V30 1745 H 165.27 -0.206727 3.25945 0
M  V30 1746 H 163.929 1.92136 3.12217 0
M  V30 1747 H 163.577 0.330037 5.01916 0
M  V30 1748 H 163.277 2.013 5.52044 0
M  V30 1749 H 164.801 1.20506 5.98591 0
M  V30 1750 H 166.215 3.14019 4.79651 0
M  V30 1751 H 164.612 3.89644 4.56397 0
M  V30 1752 H 165.682 3.67054 3.16859 0
M  V30 1753 N 167.025 -1.13721 1.09112 0
M  V30 1754 C 168.274 -1.84275 0.82009 0
M  V30 1755 C 168.587 -1.84253 -0.656509 0
M  V30 1756 O 169.793 -2.50668 -1.04296 0
M  V30 1757 C 168.249 -3.30825 1.41714 0
M  V30 1758 C 167.857 -3.39244 2.92605 0
M  V30 1759 C 169.601 -4.06443 1.22492 0
M  V30 1760 C 167.508 -4.80047 3.45411 0
M  V30 1761 H 166.438 -0.690387 0.30312 0
M  V30 1762 H 169.089 -1.28146 1.31343 0
M  V30 1763 H 167.471 -3.86737 0.851498 0
M  V30 1764 H 168.645 -2.93344 3.55367 0
M  V30 1765 H 166.96 -2.77088 3.10823 0
M  V30 1766 H 169.557 -5.10387 1.59402 0
M  V30 1767 H 169.9 -4.15972 0.165299 0
M  V30 1768 H 170.433 -3.56852 1.75788 0
M  V30 1769 H 167.172 -4.75709 4.50978 0
M  V30 1770 H 166.692 -5.26455 2.87411 0
M  V30 1771 H 168.371 -5.48957 3.42425 0
M  V30 1772 N 168.503 -0.877838 -1.30888 0
M  V30 1773 C 169.919 -0.570844 -1.49042 0
M  V30 1774 C 170.119 0.893159 -1.80624 0
M  V30 1775 O 169.175 1.67485 -1.88958 0
M  V30 1776 C 170.488 -1.47784 -2.61878 0
M  V30 1777 C 172.036 -1.48071 -2.75761 0
M  V30 1778 C 172.511 -2.37347 -3.91702 0
M  V30 1779 N 174.002 -2.35271 -3.99001 0
M  V30 1780 C 174.737 -3.01063 -4.88004 0
M  V30 1781 N 174.233 -3.76055 -5.81854 0
M  V30 1782 N 176.026 -2.90332 -4.81315 0
M  V30 1783 H 168.177 -1.82502 -1.0866 0
M  V30 1784 H 170.44 -0.780797 -0.537644 0
M  V30 1785 H 170.146 -2.51993 -2.45341 0
M  V30 1786 H 170.02 -1.18215 -3.58197 0
M  V30 1787 H 172.407 -0.446166 -2.91708 0
M  V30 1788 H 172.488 -1.81668 -1.80085 0
M  V30 1789 H 172.132 -3.40883 -3.76512 0
M  V30 1790 H 172.062 -2.01071 -4.86701 0
M  V30 1791 H 174.553 -1.80768 -3.3186 0
M  V30 1792 H 174.866 -4.23366 -6.46514 0
M  V30 1793 H 173.211 -3.80163 -5.81808 0
M  V30 1794 H 176.402 -2.31278 -4.06974 0
M  V30 1795 H 176.575 -3.41885 -5.50471 0
M  V30 1796 N 169.982 1.44106 -0.638065 0
M  V30 1797 C 171.21 2.06336 -0.152615 0
M  V30 1798 C 171.625 1.47731 1.17563 0
M  V30 1799 O 170.982 0.602806 1.72257 0
M  V30 1800 C 171.033 3.61479 -0.0391491 0
M  V30 1801 O 170.754 4.17903 -1.31487 0
M  V30 1802 C 172.255 4.40757 0.474176 0
M  V30 1803 H 169.475 0.665862 -0.0828776 0
M  V30 1804 H 172.019 1.84862 -0.87443 0
M  V30 1805 H 170.174 3.82191 0.633142 0
M  V30 1806 H 170.588 5.11416 -1.16421 0
M  V30 1807 H 172.062 5.49707 0.502562 0
M  V30 1808 H 172.539 4.12697 1.50258 0
M  V30 1809 H 173.145 4.24979 -0.165102 0
M  V30 1810 N 171.46 0.379036 1.52974 0
M  V30 1811 C 172.39 -0.452706 2.29069 0
M  V30 1812 C 173.371 -1.07237 1.32039 0
M  V30 1813 O 174.556 -1.08708 1.60923 0
M  V30 1814 C 171.686 -1.5856 3.08992 0
M  V30 1815 C 170.64 -1.0925 4.13822 0
M  V30 1816 C 169.966 -2.31668 4.81907 0
M  V30 1817 C 171.266 -0.167702 5.22031 0
M  V30 1818 H 172.96 0.182181 2.98845 0
M  V30 1819 H 170.506 0.0890592 1.43724 0
M  V30 1820 H 172.459 -2.1742 3.6098 0
M  V30 1821 H 171.183 -2.24792 2.36931 0
M  V30 1822 H 169.842 -0.526494 3.628 0
M  V30 1823 H 169.49 -2.96386 4.06404 0
M  V30 1824 H 169.19 -1.9934 5.52754 0
M  V30 1825 H 170.714 -2.91189 5.36695 0
M  V30 1826 H 172.128 -0.664186 5.6944 0
M  V30 1827 H 170.525 0.0653265 6.00064 0
M  V30 1828 H 171.595 0.786347 4.78482 0
M  V30 1829 N 172.938 -1.57226 0.108567 0
M  V30 1830 C 173.868 -2.17778 -0.84232 0
M  V30 1831 C 174.849 -1.11487 -1.2847 0
M  V30 1832 O 176.034 -1.39681 -1.34918 0
M  V30 1833 C 173.164 -2.76888 -2.09644 0
M  V30 1834 C 172.118 -3.88669 -1.79221 0
M  V30 1835 C 171.444 -4.34541 -3.11574 0
M  V30 1836 C 172.744 -5.11251 -1.06864 0
M  V30 1837 H 174.438 -2.97489 -0.337774 0
M  V30 1838 H 171.984 -1.43097 -0.161025 0
M  V30 1839 H 173.937 -3.17904 -2.76614 0
M  V30 1840 H 172.661 -1.94451 -2.62405 0
M  V30 1841 H 171.32 -3.48213 -1.14644 0
M  V30 1842 H 170.968 -3.48977 -3.62249 0
M  V30 1843 H 170.668 -5.09914 -2.91996 0
M  V30 1844 H 172.192 -4.782 -3.7968 0
M  V30 1845 H 173.606 -5.49352 -1.63968 0
M  V30 1846 H 172.003 -5.9214 -0.974178 0
M  V30 1847 H 173.073 -4.8487 -0.0536168 0
M  V30 1848 N 174.416 0.165178 -1.56732 0
M  V30 1849 C 175.664 0.879068 -1.8198 0
M  V30 1850 C 175.985 1.82514 -0.686561 0
M  V30 1851 O 175.255 1.93694 0.293146 0
M  V30 1852 H 173.835 0.327608 -0.671329 0
M  V30 1853 H 176.497 0.163526 -1.94213 0
M  V30 1854 H 175.593 1.45228 -2.76252 0
M  V30 1855 N 175.894 1.51508 0.433938 0
M  V30 1856 C 176.857 1.72473 1.50949 0
M  V30 1857 C 177.857 0.594725 1.49398 0
M  V30 1858 O 179.047 0.862315 1.5136 0
M  V30 1859 C 176.179 1.78431 2.90474 0
M  V30 1860 H 177.372 2.68467 1.33662 0
M  V30 1861 H 174.925 1.41549 0.662836 0
M  V30 1862 H 175.66 0.842645 3.13161 0
M  V30 1863 H 175.445 2.60558 2.93005 0
M  V30 1864 H 176.935 1.96479 3.68491 0
M  V30 1865 N 177.372 -0.689602 1.41712 0
M  V30 1866 C 178.322 -1.79571 1.40493 0
M  V30 1867 C 179.306 -1.58473 0.278409 0
M  V30 1868 O 180.498 -1.69204 0.519532 0
M  V30 1869 C 177.627 -3.17923 1.29536 0
M  V30 1870 C 176.713 -3.44695 2.47075 0
M  V30 1871 N 177.104 -3.42132 3.72531 0
M  V30 1872 C 175.402 -3.75269 2.41017 0
M  V30 1873 C 176.103 -3.67976 4.50521 0
M  V30 1874 N 175.079 -3.88014 3.80718 0
M  V30 1875 H 178.881 -1.75961 2.35404 0
M  V30 1876 H 176.395 -0.889839 1.35851 0
M  V30 1877 H 178.392 -3.97167 1.26745 0
M  V30 1878 H 177.052 -3.22741 0.356153 0
M  V30 1879 H 178.063 -3.22375 4.05333 0
M  V30 1880 H 174.74 -3.87421 1.55599 0
M  V30 1881 H 176.13 -3.7208 5.59469 0
M  V30 1882 N 178.85 -1.27639 -0.924453 0
M  V30 1883 C 180.078 -1.16989 -1.70649 0
M  V30 1884 C 180.493 0.272869 -1.86818 0
M  V30 1885 O 179.85 1.18549 -1.38753 0
M  V30 1886 C 179.901 -1.85229 -3.10439 0
M  V30 1887 O 179.622 -3.23868 -2.95028 0
M  V30 1888 C 181.123 -1.80746 -4.04779 0
M  V30 1889 H 178.343 -0.406595 -0.53378 0
M  V30 1890 H 180.887 -1.68569 -1.15778 0
M  V30 1891 H 179.042 -1.37545 -3.6216 0
M  V30 1892 H 179.456 -3.57889 -3.83426 0
M  V30 1893 H 180.93 -2.33101 -5.00368 0
M  V30 1894 H 181.407 -0.777499 -4.32263 0
M  V30 1895 H 182.013 -2.28059 -3.58984 0
M  V30 1896 N 180.328 1.1314 -1.09713 0
M  V30 1897 C 181.744 1.36477 -0.827423 0
M  V30 1898 C 181.944 1.93654 0.556817 0
M  V30 1899 O 181 2.15791 1.31112 0
M  V30 1900 C 182.313 2.31334 -1.92106 0
M  V30 1901 C 183.861 2.44943 -1.94864 0
M  V30 1902 C 184.336 3.4311 -3.0338 0
M  V30 1903 N 185.827 3.50662 -3.02639 0
M  V30 1904 C 186.562 4.2651 -3.83246 0
M  V30 1905 N 186.058 5.05485 -4.73768 0
M  V30 1906 N 187.851 4.2184 -3.71493 0
M  V30 1907 H 180.002 0.743807 -1.9895 0
M  V30 1908 H 182.265 0.389823 -0.864143 0
M  V30 1909 H 181.971 1.96483 -2.91698 0
M  V30 1910 H 181.845 3.31381 -1.80184 0
M  V30 1911 H 184.232 2.79079 -0.959099 0
M  V30 1912 H 184.313 1.4481 -2.10864 0
M  V30 1913 H 183.957 3.09704 -4.02549 0
M  V30 1914 H 183.887 4.43055 -2.84622 0
M  V30 1915 H 186.378 2.94315 -2.37039 0
M  V30 1916 H 186.691 5.60675 -5.3185 0
M  V30 1917 H 185.036 5.04708 -4.77802 0
M  V30 1918 H 188.227 3.5922 -3.00131 0
M  V30 1919 H 188.4 4.80697 -4.3455 0
M  V30 1920 N 181.806 0.884767 1.30421 0
M  V30 1921 C 182.756 0.322846 2.25703 0
M  V30 1922 C 183.74 -0.548582 1.51259 0
M  V30 1923 O 184.932 -0.39304 1.72581 0
M  V30 1924 C 182.061 -0.461787 3.4018 0
M  V30 1925 C 181.147 0.423717 4.21978 0
M  V30 1926 N 181.538 1.52408 4.82292 0
M  V30 1927 C 179.836 0.218795 4.45463 0
M  V30 1928 C 180.537 2.07136 5.43571 0
M  V30 1929 N 179.513 1.36635 5.26148 0
M  V30 1930 H 183.315 1.16363 2.69883 0
M  V30 1931 H 180.829 0.73415 1.44859 0
M  V30 1932 H 182.826 -0.880985 4.07485 0
M  V30 1933 H 181.486 -1.30001 2.9754 0
M  V30 1934 H 182.497 1.90693 4.81515 0
M  V30 1935 H 179.174 -0.582275 4.1342 0
M  V30 1936 H 180.564 2.99538 6.01437 0
M  V30 1937 N 183.284 -1.43765 0.645699 0
M  V30 1938 C 184.217 -2.2798 -0.100072 0
M  V30 1939 C 185.195 -1.39391 -0.837194 0
M  V30 1940 O 186.379 -1.68833 -0.838306 0
M  V30 1941 C 183.506 -3.18643 -1.14823 0
M  V30 1942 C 182.552 -4.2344 -0.510009 0
M  V30 1943 S 183.385 -5.30761 0.710824 0
M  V30 1944 C 184.541 -6.24992 -0.33699 0
M  V30 1945 H 184.774 -2.90884 0.614322 0
M  V30 1946 H 182.307 -1.48166 0.434304 0
M  V30 1947 H 184.265 -3.71424 -1.74799 0
M  V30 1948 H 182.926 -2.54932 -1.8349 0
M  V30 1949 H 182.119 -4.86948 -1.29991 0
M  V30 1950 H 181.721 -3.73997 0.0154577 0
M  V30 1951 H 184.013 -6.66691 -1.20537 0
M  V30 1952 H 184.956 -7.07612 0.262879 0
M  V30 1953 H 185.364 -5.60517 -0.669425 0
M  V30 1954 N 184.763 -0.387143 -1.52771 0
M  V30 1955 C 186.011 0.195349 -2.01154 0
M  V30 1956 C 186.332 1.475 -1.27549 0
M  V30 1957 O 185.602 1.91878 -0.394924 0
M  V30 1958 H 184.182 0.075178 -0.743207 0
M  V30 1959 H 186.844 -0.518337 -1.87881 0
M  V30 1960 H 185.94 0.407096 -3.09434 0
M  V30 1961 N 186.241 1.57166 -0.116904 0
M  V30 1962 C 187.469 1.99473 0.549383 0
M  V30 1963 C 187.884 0.996541 1.60357 0
M  V30 1964 O 187.241 -0.0108731 1.82497 0
M  V30 1965 C 187.292 3.41788 1.17741 0
M  V30 1966 O 187.013 4.37788 0.165362 0
M  V30 1967 C 188.514 3.99216 1.92722 0
M  V30 1968 H 185.734 0.655009 0.145616 0
M  V30 1969 H 188.278 2.03494 -0.202625 0
M  V30 1970 H 186.433 3.38713 1.88021 0
M  V30 1971 H 186.847 5.20806 0.621403 0
M  V30 1972 H 188.321 5.00882 2.31995 0
M  V30 1973 H 188.798 3.3824 2.80161 0
M  V30 1974 H 189.404 4.0583 1.27209 0
M  V30 1975 N 187.719 -0.156864 1.56817 0
M  V30 1976 C 188.652 -1.22316 1.9265 0
M  V30 1977 C 189.63 -1.42059 0.791076 0
M  V30 1978 O 190.814 -1.56831 1.04576 0
M  V30 1979 C 187.941 -2.58375 2.18998 0
M  V30 1980 C 186.987 -2.55284 3.41661 0
M  V30 1981 S 187.82 -2.02946 4.95553 0
M  V30 1982 C 188.976 -3.40753 5.25013 0
M  V30 1983 H 189.209 -0.917403 2.82791 0
M  V30 1984 H 186.742 -0.362059 1.50095 0
M  V30 1985 H 188.7 -3.36677 2.34859 0
M  V30 1986 H 187.361 -2.86145 1.29538 0
M  V30 1987 H 186.554 -3.55418 3.57343 0
M  V30 1988 H 186.156 -1.85086 3.24991 0
M  V30 1989 H 188.448 -4.36819 5.17876 0
M  V30 1990 H 189.391 -3.29933 6.26538 0
M  V30 1991 H 189.799 -3.37433 4.52548 0
M  V30 1992 N 189.197 -1.51736 -0.425897 0
M  V30 1993 C 190.444 -1.6497 -1.17436 0
M  V30 1994 C 190.772 -0.371445 -1.9092 0
M  V30 1995 O 190.027 0.644963 -1.84767 0
M  V30 1996 C 190.326 -2.81103 -2.20717 0
M  V30 1997 C 189.992 -4.19954 -1.64162 0
M  V30 1998 C 188.654 -4.57725 -1.48462 0
M  V30 1999 C 191.006 -5.06552 -1.22696 0
M  V30 2000 C 188.334 -5.79789 -0.897873 0
M  V30 2001 C 190.686 -6.29205 -0.654464 0
M  V30 2002 C 189.35 -6.6574 -0.484456 0
M  V30 2003 H 188.62 -0.603668 -0.429727 0
M  V30 2004 H 191.267 -1.85798 -0.463829 0
M  V30 2005 H 189.572 -2.54542 -2.97852 0
M  V30 2006 H 191.269 -2.8854 -2.78471 0
M  V30 2007 H 187.859 -3.90181 -1.77361 0
M  V30 2008 H 192.043 -4.77968 -1.33642 0
M  V30 2009 H 187.299 -6.06733 -0.75402 0
M  V30 2010 H 191.473 -6.95643 -0.324694 0
M  V30 2011 H 189.1 -7.60195 -0.0276833 0
M  V30 2012 N 190.675 0.682077 -1.42076 0
M  V30 2013 C 191.585 1.82535 -1.47371 0
M  V30 2014 C 192.601 1.7017 -0.363079 0
M  V30 2015 O 193.777 1.91848 -0.612875 0
M  V30 2016 C 190.842 3.18624 -1.36674 0
M  V30 2017 C 189.903 3.42999 -2.58167 0
M  V30 2018 C 189.136 4.72595 -2.4797 0
M  V30 2019 O 189.359 5.50006 -1.5116 0
M  V30 2020 O 188.293 4.98054 -3.37974 0
M  V30 2021 H 192.119 1.81023 -2.43853 0
M  V30 2022 H 189.704 0.836887 -1.2376 0
M  V30 2023 H 191.586 3.99847 -1.33043 0
M  V30 2024 H 190.261 3.20789 -0.433138 0
M  V30 2025 H 189.168 2.61653 -2.67373 0
M  V30 2026 H 190.501 3.45659 -3.50401 0
M  V30 2027 N 192.153 1.28127 0.917671 0
M  V30 2028 C 193.085 1.07517 2.02417 0
M  V30 2029 C 194.098 0.0281099 1.62776 0
M  V30 2030 O 195.287 0.270748 1.76435 0
M  V30 2031 C 192.387 0.610957 3.33347 0
M  V30 2032 C 191.56 1.73255 4.01624 0
M  V30 2033 C 190.619 1.26238 5.10833 0
M  V30 2034 O 189.645 1.96389 5.34247 0
M  V30 2035 N 190.847 0.123448 5.80369 0
M  V30 2036 H 193.612 2.02806 2.20658 0
M  V30 2037 H 191.173 1.19827 1.08871 0
M  V30 2038 H 193.165 0.280101 4.0373 0
M  V30 2039 H 191.735 -0.24898 3.11607 0
M  V30 2040 H 190.955 2.23319 3.24842 0
M  V30 2041 H 192.243 2.48503 4.43986 0
M  V30 2042 H 191.641 -0.461847 5.63812 0
M  V30 2043 H 190.198 -0.148158 6.51632 0
M  V30 2044 N 193.631 -1.12557 1.10312 0
M  V30 2045 C 194.878 -1.84038 0.844759 0
M  V30 2046 C 195.206 -1.84026 -0.629668 0
M  V30 2047 O 194.461 -1.28026 -1.48013 0
M  V30 2048 C 194.76 -3.31462 1.33669 0
M  V30 2049 C 194.426 -3.51647 2.82232 0
M  V30 2050 C 193.088 -3.56864 3.22802 0
M  V30 2051 C 195.44 -3.58867 3.77974 0
M  V30 2052 C 192.768 -3.66844 4.57867 0
M  V30 2053 C 195.12 -3.70375 5.1284 0
M  V30 2054 C 193.784 -3.73848 5.52986 0
M  V30 2055 H 193.054 -0.673444 0.309119 0
M  V30 2056 H 195.701 -1.32824 1.37949 0
M  V30 2057 H 194.006 -3.85091 0.721949 0
M  V30 2058 H 195.703 -3.85236 1.11329 0
M  V30 2059 H 192.293 -3.48249 2.49842 0
M  V30 2060 H 196.477 -3.54107 3.47738 0
M  V30 2061 H 191.733 -3.67804 4.88396 0
M  V30 2062 H 195.907 -3.74904 5.86873 0
M  V30 2063 H 193.534 -3.81333 6.57639 0
M  V30 2064 N 195.109 -0.891671 -1.2995 0
M  V30 2065 C 196.355 -0.514261 -1.96171 0
M  V30 2066 C 196.688 0.935506 -1.70182 0
M  V30 2067 O 195.963 1.66204 -1.01028 0
M  V30 2068 C 196.246 -0.797719 -3.51153 0
M  V30 2069 C 196.099 -2.2986 -3.86632 0
M  V30 2070 C 197.418 -0.278749 -4.39216 0
M  V30 2071 H 194.537 -0.188314 -0.712535 0
M  V30 2072 H 197.179 -1.11689 -1.53706 0
M  V30 2073 H 195.329 -0.284826 -3.87455 0
M  V30 2074 H 197.001 -2.88042 -3.60319 0
M  V30 2075 H 195.244 -2.76257 -3.34462 0
M  V30 2076 H 195.915 -2.44753 -4.94773 0
M  V30 2077 H 198.391 -0.717825 -4.09862 0
M  V30 2078 H 197.267 -0.506353 -5.46559 0
M  V30 2079 H 197.528 0.820266 -4.34424 0
M  V30 2080 N 196.587 1.43421 -0.653314 0
M  V30 2081 C 197.519 2.29071 0.0769134 0
M  V30 2082 C 198.532 1.42513 0.787017 0
M  V30 2083 O 199.721 1.66449 0.644757 0
M  V30 2084 C 196.821 3.19436 1.13199 0
M  V30 2085 C 195.994 4.34533 0.500006 0
M  V30 2086 C 195.053 5.05771 1.45198 0
M  V30 2087 O 194.079 5.61037 0.960538 0
M  V30 2088 N 195.281 5.0928 2.78594 0
M  V30 2089 H 198.046 2.92382 -0.658235 0
M  V30 2090 H 195.607 1.54112 -0.496104 0
M  V30 2091 H 197.599 3.63958 1.76964 0
M  V30 2092 H 196.169 2.57724 1.7691 0
M  V30 2093 H 195.389 3.92925 -0.316738 0
M  V30 2094 H 196.677 5.08766 0.0588345 0
M  V30 2095 H 196.075 4.65751 3.2108 0
M  V30 2096 H 194.632 5.57519 3.37662 0
M  V30 2097 N 198.065 0.39524 1.52563 0
M  V30 2098 C 199.312 -0.185044 2.01653 0
M  V30 2099 C 199.64 -1.46317 1.28146 0
M  V30 2100 O 198.895 -1.9213 0.372074 0
M  V30 2101 C 199.194 -0.493444 3.53977 0
M  V30 2102 C 198.86 0.69384 4.4553 0
M  V30 2103 C 197.522 1.01954 4.70275 0
M  V30 2104 C 199.874 1.48785 4.99512 0
M  V30 2105 C 197.202 2.14069 5.46252 0
M  V30 2106 C 199.554 2.59965 5.76716 0
M  V30 2107 C 198.218 2.93037 5.99738 0
M  V30 2108 H 197.488 -0.0677123 0.7379 0
M  V30 2109 H 200.135 0.533807 1.8391 0
M  V30 2110 H 198.44 -1.29369 3.69825 0
M  V30 2111 H 200.137 -0.955163 3.89458 0
M  V30 2112 H 196.727 0.429987 4.26438 0
M  V30 2113 H 200.911 1.24946 4.80315 0
M  V30 2114 H 196.167 2.40056 5.62302 0
M  V30 2115 H 200.341 3.21887 6.17545 0
M  V30 2116 H 197.968 3.8003 6.58393 0
M  V30 2117 N 199.544 -1.57102 0.125237 0
M  V30 2118 C 200.96 -1.57915 -0.231322 0
M  V30 2119 C 201.16 -1.13833 -1.66266 0
M  V30 2120 O 200.216 -0.828581 -2.38518 0
M  V30 2121 C 201.529 -3.00699 0.00766489 0
M  V30 2122 C 203.077 -3.12947 -0.0577483 0
M  V30 2123 C 203.552 -4.57742 0.153626 0
M  V30 2124 N 205.043 -4.63092 0.0998073 0
M  V30 2125 C 205.778 -5.72905 0.238174 0
M  V30 2126 N 205.274 -6.91445 0.433057 0
M  V30 2127 N 207.067 -5.6182 0.177308 0
M  V30 2128 H 199.218 -1.84055 1.06007 0
M  V30 2129 H 201.481 -0.850905 0.417929 0
M  V30 2130 H 201.187 -3.3726 0.997431 0
M  V30 2131 H 201.061 -3.70236 -0.721452 0
M  V30 2132 H 203.448 -2.7624 -1.03804 0
M  V30 2133 H 203.529 -2.4594 0.70335 0
M  V30 2134 H 203.173 -4.95149 1.13092 0
M  V30 2135 H 203.103 -5.22848 -0.627534 0
M  V30 2136 H 205.594 -3.77871 -0.047051 0
M  V30 2137 H 205.907 -7.70985 0.529332 0
M  V30 2138 H 204.252 -6.93415 0.469109 0
M  V30 2139 H 207.443 -4.68093 0.0259748 0
M  V30 2140 H 207.616 -6.47357 0.288582 0
M  V30 2141 N 201.022 0.148545 -1.56898 0
M  V30 2142 C 202.433 0.708766 -1.72723 0
M  V30 2143 C 202.784 1.81734 -0.739395 0
M  V30 2144 O 201.909 2.16194 0.0943169 0
M  V30 2145 C 202.504 1.29245 -3.13179 0
M  V30 2146 C 201.063 1.79925 -3.30611 0
M  V30 2147 C 200.21 0.687111 -2.68652 0
M  V30 2148 H 203.161 -0.0771063 -1.58513 0
M  V30 2149 H 203.182 2.16224 -3.13093 0
M  V30 2150 H 202.694 0.485382 -3.85053 0
M  V30 2151 H 200.795 2.63203 -2.63732 0
M  V30 2152 H 200.908 1.92903 -4.38549 0
M  V30 2153 H 199.272 1.11335 -2.29078 0
M  V30 2154 H 200.055 -0.108483 -3.43129 0
M  V30 2155 N 202.5 1.5196 0.417844 0
M  V30 2156 C 203.911 1.57851 0.997 0
M  V30 2157 C 204.262 0.413714 1.91789 0
M  V30 2158 O 203.387 -0.467057 2.113 0
M  V30 2159 C 203.982 2.86085 1.81496 0
M  V30 2160 C 202.541 2.94483 2.34428 0
M  V30 2161 C 201.688 2.52707 1.14169 0
M  V30 2162 H 204.639 1.57455 0.198392 0
M  V30 2163 H 204.66 2.70947 2.67148 0
M  V30 2164 H 204.172 3.70842 1.14446 0
M  V30 2165 H 202.273 2.142 3.04875 0
M  V30 2166 H 202.386 3.98546 2.65891 0
M  V30 2167 H 200.75 2.06353 1.49301 0
M  V30 2168 H 201.533 3.39828 0.486999 0
M  V30 2169 N 203.978 -0.674533 1.42435 0
M  V30 2170 C 204.941 -1.76986 1.45632 0
M  V30 2171 C 205.941 -1.5708 0.343871 0
M  V30 2172 O 207.131 -1.63367 0.604709 0
M  V30 2173 C 204.263 -3.15623 1.28822 0
M  V30 2174 H 205.456 -1.75539 2.43158 0
M  V30 2175 H 203.009 -0.884189 1.28887 0
M  V30 2176 H 203.744 -3.22696 0.322193 0
M  V30 2177 H 203.529 -3.31475 2.09444 0
M  V30 2178 H 205.019 -3.95537 1.33942 0
M  V30 2179 N 205.456 -1.28612 -0.910864 0
M  V30 2180 C 206.406 -1.09423 -2.00026 0
M  V30 2181 C 207.39 -0.0170079 -1.60891 0
M  V30 2182 O 208.582 -0.237472 -1.754 0
M  V30 2183 C 205.711 -0.76114 -3.34756 0
M  V30 2184 C 204.797 -1.87735 -3.80285 0
M  V30 2185 N 205.188 -3.11938 -3.98156 0
M  V30 2186 C 203.486 -1.76786 -4.09467 0
M  V30 2187 C 204.187 -3.84687 -4.36338 0
M  V30 2188 N 203.163 -3.12555 -4.44759 0
M  V30 2189 H 206.965 -2.03658 -2.11898 0
M  V30 2190 H 204.479 -1.19573 -1.09891 0
M  V30 2191 H 206.476 -0.604743 -4.12491 0
M  V30 2192 H 205.136 0.173403 -3.24237 0
M  V30 2193 H 206.147 -3.47516 -3.83996 0
M  V30 2194 H 202.824 -0.905284 -4.07567 0
M  V30 2195 H 204.214 -4.91518 -4.58104 0
M  V30 2196 N 206.934 1.1197 -1.10907 0
M  V30 2197 C 207.864 2.19928 -0.784473 0
M  V30 2198 C 208.845 1.6833 0.244726 0
M  V30 2199 O 210.03 1.93892 0.109418 0
M  V30 2200 C 207.16 3.46597 -0.220827 0
M  V30 2201 C 206.114 4.11376 -1.18127 0
M  V30 2202 C 205.44 5.32554 -0.478594 0
M  V30 2203 C 206.74 4.56945 -2.52979 0
M  V30 2204 H 208.434 2.47337 -1.68715 0
M  V30 2205 H 205.98 1.18879 -0.812642 0
M  V30 2206 H 207.933 4.21396 0.0184278 0
M  V30 2207 H 206.657 3.1863 0.717113 0
M  V30 2208 H 205.316 3.38564 -1.40606 0
M  V30 2209 H 204.964 5.00856 0.463976 0
M  V30 2210 H 204.664 5.76844 -1.11912 0
M  V30 2211 H 206.188 6.10096 -0.248 0
M  V30 2212 H 207.602 5.23093 -2.3462 0
M  V30 2213 H 205.999 5.1203 -3.12962 0
M  V30 2214 H 207.069 3.70676 -3.12614 0
M  V30 2215 N 208.412 0.89855 1.29475 0
M  V30 2216 C 209.659 0.523882 1.95606 0
M  V30 2217 C 209.987 -0.929608 1.70847 0
M  V30 2218 O 209.242 -1.67401 1.01367 0
M  V30 2219 C 209.541 0.761398 3.49195 0
M  V30 2220 C 209.207 2.19207 3.94029 0
M  V30 2221 C 207.869 2.58326 4.05982 0
M  V30 2222 C 210.221 3.12379 4.17216 0
M  V30 2223 C 207.549 3.898 4.38489 0
M  V30 2224 C 209.901 4.43401 4.51197 0
M  V30 2225 C 208.565 4.82394 4.61359 0
M  V30 2226 H 207.835 0.191702 0.715773 0
M  V30 2227 H 210.482 1.13699 1.54094 0
M  V30 2228 H 208.787 0.0653622 3.91745 0
M  V30 2229 H 210.484 0.450904 3.98457 0
M  V30 2230 H 207.074 1.87846 3.85242 0
M  V30 2231 H 211.258 2.83371 4.07449 0
M  V30 2232 H 206.514 4.19734 4.44559 0
M  V30 2233 H 210.688 5.15623 4.68087 0
M  V30 2234 H 208.315 5.84306 4.86303 0
M  V30 2235 N 209.89 -1.43072 0.660911 0
M  V30 2236 C 211.139 -2.00942 0.174735 0
M  V30 2237 C 211.452 -1.52797 -1.22117 0
M  V30 2238 O 212.658 -2.02991 -1.80297 0
M  V30 2239 C 211.114 -3.58948 0.261559 0
M  V30 2240 C 210.722 -4.16085 1.66064 0
M  V30 2241 C 212.466 -4.24173 -0.166617 0
M  V30 2242 C 210.373 -5.6641 1.70098 0
M  V30 2243 H 209.303 -0.751483 0.0615631 0
M  V30 2244 H 211.954 -1.63955 0.824069 0
M  V30 2245 H 210.336 -3.93372 -0.455421 0
M  V30 2246 H 211.51 -3.93147 2.40359 0
M  V30 2247 H 209.825 -3.6326 2.03546 0
M  V30 2248 H 212.422 -5.34471 -0.156433 0
M  V30 2249 H 212.765 -3.98647 -1.19943 0
M  V30 2250 H 213.298 -3.94659 0.498875 0
M  V30 2251 H 210.037 -5.96715 2.71315 0
M  V30 2252 H 209.557 -5.91382 1.00139 0
M  V30 2253 H 211.236 -6.30585 1.44816 0
M  V30 2254 N 211.368 -0.403325 -1.52352 0
M  V30 2255 C 212.318 0.442244 -2.2367 0
M  V30 2256 C 213.302 1.01823 -1.24583 0
M  V30 2257 O 214.494 0.942005 -1.49851 0
M  V30 2258 C 211.623 1.5615 -3.05732 0
M  V30 2259 C 210.709 0.996575 -4.12225 0
M  V30 2260 N 211.1 0.157804 -5.05554 0
M  V30 2261 C 209.398 1.26767 -4.27605 0
M  V30 2262 C 210.099 -0.155853 -5.81491 0
M  V30 2263 N 209.075 0.451775 -5.41719 0
M  V30 2264 H 212.877 -0.204964 -2.93184 0
M  V30 2265 H 210.391 -0.213418 -1.60992 0
M  V30 2266 H 212.388 2.17981 -3.55373 0
M  V30 2267 H 211.048 2.21139 -2.37755 0
M  V30 2268 H 212.059 -0.206049 -5.1749 0
M  V30 2269 H 208.736 1.91757 -3.70858 0
M  V30 2270 H 210.126 -0.836329 -6.66675 0
M  V30 2271 N 212.846 1.57033 -0.133567 0
M  V30 2272 C 213.796 2.12641 0.822671 0
M  V30 2273 C 214.78 1.05081 1.21847 0
M  V30 2274 O 215.972 1.31287 1.18713 0
M  V30 2275 C 213.101 2.74094 2.06706 0
M  V30 2276 C 212.187 3.88757 1.69497 0
M  V30 2277 N 212.578 4.95194 1.03037 0
M  V30 2278 C 210.876 3.99213 1.98859 0
M  V30 2279 C 211.577 5.75414 0.852873 0
M  V30 2280 N 210.553 5.25726 1.3825 0
M  V30 2281 H 214.355 2.92308 0.305537 0
M  V30 2282 H 211.869 1.62256 0.0684276 0
M  V30 2283 H 213.866 3.12285 2.76195 0
M  V30 2284 H 212.526 1.95896 2.5895 0
M  V30 2285 H 213.537 5.13247 0.692669 0
M  V30 2286 H 210.214 3.32075 2.53047 0
M  V30 2287 H 211.604 6.71089 0.330091 0
M  V30 2288 N 214.325 -0.140222 1.56975 0
M  V30 2289 C 215.257 -1.19818 1.95388 0
M  V30 2290 C 216.27 -1.38816 0.850525 0
M  V30 2291 O 217.459 -1.38267 1.12891 0
M  V30 2292 C 214.559 -2.56189 2.21857 0
M  V30 2293 C 213.732 -2.58077 3.5315 0
M  V30 2294 C 212.791 -3.76037 3.6808 0
M  V30 2295 O 211.817 -3.60598 4.40406 0
M  V30 2296 N 213.019 -4.93763 3.05251 0
M  V30 2297 H 215.784 -0.871609 2.86746 0
M  V30 2298 H 213.345 -0.32972 1.58507 0
M  V30 2299 H 215.337 -3.33623 2.2908 0
M  V30 2300 H 213.907 -2.81111 1.36731 0
M  V30 2301 H 213.127 -1.6651 3.57307 0
M  V30 2302 H 214.415 -2.56377 4.39486 0
M  V30 2303 H 213.813 -5.09209 2.46419 0
M  V30 2304 H 212.37 -5.68949 3.18026 0
M  V30 2305 N 215.803 -1.52179 -0.40978 0
M  V30 2306 C 217.214 -1.58377 -0.988615 0
M  V30 2307 C 217.565 -0.423879 -1.91566 0
M  V30 2308 O 216.69 0.455844 -2.11544 0
M  V30 2309 C 217.285 -2.87044 -1.79976 0
M  V30 2310 C 215.844 -2.95722 -2.32863 0
M  V30 2311 C 214.991 -2.53309 -1.12828 0
M  V30 2312 H 217.942 -1.57558 -0.190039 0
M  V30 2313 H 217.963 -2.7236 -2.65707 0
M  V30 2314 H 217.475 -3.71444 -1.12478 0
M  V30 2315 H 215.576 -2.15814 -3.03735 0
M  V30 2316 H 215.689 -3.99951 -2.63773 0
M  V30 2317 H 214.053 -2.07142 -1.48204 0
M  V30 2318 H 214.836 -3.40082 -0.46897 0
M  V30 2319 N 217.281 0.66697 -1.42791 0
M  V30 2320 C 218.211 1.79218 -1.49677 0
M  V30 2321 C 219.192 1.66405 -0.352623 0
M  V30 2322 O 220.377 1.85708 -0.567993 0
M  V30 2323 C 217.507 3.17565 -1.40605 0
M  V30 2324 C 216.461 3.45124 -2.53127 0
M  V30 2325 C 215.787 4.83127 -2.29112 0
M  V30 2326 C 217.087 3.41236 -3.95418 0
M  V30 2327 H 218.781 1.73713 -2.43853 0
M  V30 2328 H 216.327 0.83432 -1.17367 0
M  V30 2329 H 218.28 3.96022 -1.44029 0
M  V30 2330 H 217.004 3.23767 -0.429271 0
M  V30 2331 H 215.663 2.69031 -2.49034 0
M  V30 2332 H 215.311 4.85988 -1.29709 0
M  V30 2333 H 215.011 5.02528 -3.04531 0
M  V30 2334 H 216.535 5.63859 -2.34297 0
M  V30 2335 H 217.949 4.09651 -4.01073 0
M  V30 2336 H 216.346 3.72173 -4.70752 0
M  V30 2337 H 217.416 2.39665 -4.21532 0
M  V30 2338 N 218.759 1.29093 0.90403 0
M  V30 2339 C 220.17 1.15186 1.46932 0
M  V30 2340 C 220.521 -0.254587 1.94541 0
M  V30 2341 O 219.646 -1.14972 1.83332 0
M  V30 2342 C 220.241 2.08492 2.67051 0
M  V30 2343 C 218.8 1.98621 3.19729 0
M  V30 2344 C 217.947 1.9967 1.92425 0
M  V30 2345 H 220.898 1.41641 0.715789 0
M  V30 2346 H 220.919 1.65461 3.42641 0
M  V30 2347 H 220.431 3.10847 2.3237 0
M  V30 2348 H 218.532 0.993389 3.59114 0
M  V30 2349 H 218.645 2.86068 3.8432 0
M  V30 2350 H 217.009 1.44208 2.09943 0
M  V30 2351 H 217.792 3.03721 1.60026 0
M  V30 2352 N 220.237 -1.11381 1.11499 0
M  V30 2353 C 221.465 -1.86934 0.88675 0
M  V30 2354 C 221.88 -1.80195 -0.563476 0
M  V30 2355 O 221.237 -1.18367 -1.38908 0
M  V30 2356 C 221.288 -3.35722 1.34064 0
M  V30 2357 O 221.009 -3.4232 2.73401 0
M  V30 2358 C 222.51 -4.2818 1.14791 0
M  V30 2359 H 219.73 -0.591117 0.317523 0
M  V30 2360 H 222.274 -1.40865 1.48248 0
M  V30 2361 H 220.429 -3.79294 0.788355 0
M  V30 2362 H 220.843 -4.34971 2.93087 0
M  V30 2363 H 222.317 -5.30817 1.5145 0
M  V30 2364 H 222.794 -4.39113 0.0875279 0
M  V30 2365 H 223.4 -3.90402 1.68721 0
M  V30 2366 N 221.715 -0.905404 -1.28997 0
M  V30 2367 C 222.645 -0.404212 -2.29975 0
M  V30 2368 C 223.626 0.523784 -1.61835 0
M  V30 2369 O 224.811 0.433298 -1.89304 0
M  V30 2370 C 221.941 0.364042 -3.45387 0
M  V30 2371 C 220.895 -0.474048 -4.25367 0
M  V30 2372 C 220.221 0.422045 -5.33032 0
M  V30 2373 C 221.521 -1.72696 -4.92923 0
M  V30 2374 H 223.215 -1.24807 -2.72146 0
M  V30 2375 H 220.761 -0.601585 -1.30832 0
M  V30 2376 H 222.714 0.725447 -4.15109 0
M  V30 2377 H 221.438 1.24174 -3.02074 0
M  V30 2378 H 220.097 -0.81786 -3.57361 0
M  V30 2379 H 219.745 1.29804 -4.85963 0
M  V30 2380 H 219.445 -0.135057 -5.87445 0
M  V30 2381 H 220.969 0.779517 -6.05604 0
M  V30 2382 H 222.383 -1.43495 -5.55051 0
M  V30 2383 H 220.78 -2.22582 -5.57295 0
M  V30 2384 H 221.85 -2.45964 -4.17887 0
M  V30 2385 N 223.193 1.4272 -0.668489 0
M  V30 2386 C 224.156 2.292 0.00448567 0
M  V30 2387 C 225.156 1.43001 0.735339 0
M  V30 2388 O 226.346 1.64461 0.57429 0
M  V30 2389 C 223.478 3.25375 1.01705 0
M  V30 2390 H 224.671 2.90199 -0.756608 0
M  V30 2391 H 222.224 1.50254 -0.430506 0
M  V30 2392 H 222.959 2.69301 1.80686 0
M  V30 2393 H 222.744 3.88944 0.496463 0
M  V30 2394 H 224.234 3.90245 1.48655 0
M  V30 2395 N 224.671 0.411399 1.52136 0
M  V30 2396 C 226.082 -0.0576826 1.86611 0
M  V30 2397 C 226.433 -1.44238 1.33003 0
M  V30 2398 O 225.558 -2.05759 0.670228 0
M  V30 2399 C 226.153 -0.111448 3.38617 0
M  V30 2400 C 224.712 -0.52487 3.72723 0
M  V30 2401 C 223.859 0.299176 2.75681 0
M  V30 2402 H 226.81 0.628368 1.4573 0
M  V30 2403 H 226.831 -0.926252 3.69054 0
M  V30 2404 H 226.343 0.896488 3.77604 0
M  V30 2405 H 224.444 -1.53936 3.39315 0
M  V30 2406 H 224.557 -0.267681 4.78352 0
M  V30 2407 H 222.921 -0.238814 2.53578 0
M  V30 2408 H 223.704 1.3055 3.17508 0
M  V30 2409 N 226.149 -1.5696 0.141893 0
M  V30 2410 C 227.395 -1.9625 -0.511248 0
M  V30 2411 C 227.728 -1.02654 -1.64851 0
M  V30 2412 O 227.003 -0.0679676 -1.94381 0
M  V30 2413 C 227.286 -3.45285 -1.02227 0
M  V30 2414 C 227.139 -4.49658 0.113138 0
M  V30 2415 C 228.458 -3.96698 -1.90574 0
M  V30 2416 H 225.577 -0.713567 -0.184367 0
M  V30 2417 H 228.219 -1.88698 0.222087 0
M  V30 2418 H 226.369 -3.51852 -1.64719 0
M  V30 2419 H 228.041 -4.55174 0.749302 0
M  V30 2420 H 226.284 -4.26857 0.773026 0
M  V30 2421 H 226.955 -5.51258 -0.286053 0
M  V30 2422 H 229.431 -3.92578 -1.37918 0
M  V30 2423 H 228.307 -5.01453 -2.2324 0
M  V30 2424 H 228.568 -3.3875 -2.84079 0
M  V30 2425 N 227.627 0.131896 -1.57047 0
M  V30 2426 C 228.557 1.16384 -2.02428 0
M  V30 2427 C 229.538 1.43936 -0.90644 0
M  V30 2428 O 230.723 1.54599 -1.17528 0
M  V30 2429 C 227.853 2.49328 -2.4177 0
M  V30 2430 C 226.807 2.36266 -3.56879 0
M  V30 2431 C 226.133 3.74057 -3.8208 0
M  V30 2432 C 227.433 1.834 -4.89042 0
M  V30 2433 H 229.127 0.786433 -2.88887 0
M  V30 2434 H 226.673 0.376855 -1.38981 0
M  V30 2435 H 228.626 3.21759 -2.7212 0
M  V30 2436 H 227.35 2.88934 -1.52266 0
M  V30 2437 H 226.009 1.66286 -3.26718 0
M  V30 2438 H 225.657 4.11125 -2.89803 0
M  V30 2439 H 225.357 3.66174 -4.59554 0
M  V30 2440 H 226.881 4.48012 -4.1487 0
M  V30 2441 H 228.295 2.45636 -5.18011 0
M  V30 2442 H 226.692 1.8637 -5.70426 0
M  V30 2443 H 227.762 0.790662 -4.7841 0
M  V30 2444 N 229.106 1.52395 0.401703 0
M  V30 2445 C 230.517 1.58899 0.980202 0
M  V30 2446 C 230.868 0.434032 1.91339 0
M  V30 2447 O 229.993 -0.444619 2.11783 0
M  V30 2448 C 230.588 2.87994 1.78451 0
M  V30 2449 C 229.147 2.96953 2.31292 0
M  V30 2450 C 228.294 2.53903 1.11483 0
M  V30 2451 H 231.245 1.57657 0.18168 0
M  V30 2452 H 231.266 2.73765 2.64259 0
M  V30 2453 H 230.778 3.72035 1.10506 0
M  V30 2454 H 228.879 2.17422 3.02586 0
M  V30 2455 H 228.992 4.01344 2.61649 0
M  V30 2456 H 227.356 2.07925 1.47104 0
M  V30 2457 H 228.139 3.40326 0.450928 0
M  V30 2458 N 230.584 -0.659388 1.43143 0
M  V30 2459 C 231.514 -1.78422 1.50625 0
M  V30 2460 C 232.495 -1.66216 0.361443 0
M  V30 2461 O 233.68 -1.85404 0.577834 0
M  V30 2462 C 230.81 -3.16815 1.42287 0
M  V30 2463 C 229.764 -3.43777 2.54954 0
M  V30 2464 C 229.09 -4.81905 2.31671 0
M  V30 2465 C 230.39 -3.39134 3.97222 0
M  V30 2466 H 232.084 -1.72417 2.44771 0
M  V30 2467 H 229.63 -0.828084 1.17808 0
M  V30 2468 H 231.583 -3.95253 1.46127 0
M  V30 2469 H 230.307 -3.23534 0.446435 0
M  V30 2470 H 228.966 -2.67707 2.50457 0
M  V30 2471 H 228.614 -4.85294 1.32284 0
M  V30 2472 H 228.314 -5.00906 3.07192 0
M  V30 2473 H 229.838 -5.62609 2.37284 0
M  V30 2474 H 231.252 -4.07518 4.03239 0
M  V30 2475 H 229.649 -3.69671 4.72719 0
M  V30 2476 H 230.719 -2.37426 4.22797 0
M  V30 2477 N 232.062 -1.29571 -0.897171 0
M  V30 2478 C 233.308 -1.17863 -1.65034 0
M  V30 2479 C 233.641 0.268729 -1.92332 0
M  V30 2480 O 232.916 1.19378 -1.53555 0
M  V30 2481 C 233.199 -1.995 -2.99786 0
M  V30 2482 C 233.052 -3.5239 -2.79538 0
M  V30 2483 C 234.371 -1.82335 -4.00552 0
M  V30 2484 H 231.49 -0.429528 -0.598895 0
M  V30 2485 H 234.132 -1.59072 -1.03905 0
M  V30 2486 H 232.282 -1.64485 -3.51962 0
M  V30 2487 H 233.954 -3.97401 -2.34244 0
M  V30 2488 H 232.197 -3.77187 -2.14273 0
M  V30 2489 H 232.868 -4.04787 -3.75302 0
M  V30 2490 H 235.344 -2.12924 -3.57495 0
M  V30 2491 H 234.22 -2.41801 -4.92771 0
M  V30 2492 H 234.481 -0.779209 -4.35179 0
M  V30 2493 N 233.54 1.10788 -1.12088 0
M  V30 2494 C 234.768 1.86461 -0.896651 0
M  V30 2495 C 235.183 1.80492 0.553912 0
M  V30 2496 O 234.54 1.19102 1.38278 0
M  V30 2497 C 234.591 3.35006 -1.35843 0
M  V30 2498 O 234.312 3.40866 -2.75213 0
M  V30 2499 C 235.813 4.27565 -1.1706 0
M  V30 2500 H 233.033 0.589425 -0.320654 0
M  V30 2501 H 235.577 1.40076 -1.48993 0
M  V30 2502 H 233.732 3.7887 -0.808458 0
M  V30 2503 H 234.146 4.33411 -2.9539 0
M  V30 2504 H 235.62 5.30007 -1.54263 0
M  V30 2505 H 236.097 4.3906 -0.110814 0
M  V30 2506 H 236.703 3.89501 -1.70789 0
M  V30 2507 N 235.018 0.912232 1.28515 0
M  V30 2508 C 235.968 0.370649 2.24967 0
M  V30 2509 C 236.952 -0.516375 1.52389 0
M  V30 2510 O 238.144 -0.356345 1.73376 0
M  V30 2511 C 235.273 -0.389526 3.41083 0
M  V30 2512 C 234.359 0.51313 4.20984 0
M  V30 2513 N 234.75 1.62604 4.78951 0
M  V30 2514 C 233.048 0.313235 4.44899 0
M  V30 2515 C 233.749 2.18619 5.39055 0
M  V30 2516 N 232.725 1.47765 5.23132 0
M  V30 2517 H 236.527 1.22061 2.67354 0
M  V30 2518 H 234.041 0.764712 1.43269 0
M  V30 2519 H 236.038 -0.794353 4.09262 0
M  V30 2520 H 234.698 -1.2366 3.0023 0
M  V30 2521 H 235.709 2.00864 4.77362 0
M  V30 2522 H 232.386 -0.494452 4.14562 0
M  V30 2523 H 233.776 3.12228 5.94948 0
M  V30 2524 N 236.496 -1.42363 0.676048 0
M  V30 2525 C 237.743 -2.01522 0.19883 0
M  V30 2526 C 238.071 -1.53456 -1.19505 0
M  V30 2527 O 237.326 -0.727967 -1.81657 0
M  V30 2528 C 237.625 -3.56929 0.183431 0
M  V30 2529 C 237.291 -4.24431 1.52215 0
M  V30 2530 C 235.953 -4.42585 1.8887 0
M  V30 2531 C 238.305 -4.62459 2.40377 0
M  V30 2532 C 235.633 -4.96039 3.13309 0
M  V30 2533 C 237.985 -5.17294 3.64129 0
M  V30 2534 C 236.649 -5.33661 4.00951 0
M  V30 2535 H 235.919 -0.737419 0.0727571 0
M  V30 2536 H 238.566 -1.70531 0.871281 0
M  V30 2537 H 236.871 -3.87594 -0.572532 0
M  V30 2538 H 238.568 -4.00486 -0.203035 0
M  V30 2539 H 235.158 -4.10661 1.22701 0
M  V30 2540 H 239.342 -4.48105 2.13343 0
M  V30 2541 H 234.598 -5.06896 3.41857 0
M  V30 2542 H 238.772 -5.45704 4.32644 0
M  V30 2543 H 236.399 -5.74845 4.9745 0
M  V30 2544 N 237.974 -0.419461 -1.51915 0
M  V30 2545 C 238.937 0.389116 -2.25873 0
M  V30 2546 C 239.937 0.964924 -1.28631 0
M  V30 2547 O 241.127 0.842179 -1.52489 0
M  V30 2548 C 238.259 1.54874 -3.03689 0
M  V30 2549 H 239.452 -0.258799 -2.98781 0
M  V30 2550 H 237.005 -0.172209 -1.55348 0
M  V30 2551 H 237.74 2.23323 -2.35154 0
M  V30 2552 H 237.525 1.14223 -3.75094 0
M  V30 2553 H 239.015 2.12046 -3.59759 0
M  V30 2554 N 239.452 1.56882 -0.150215 0
M  V30 2555 C 240.729 1.87844 0.545327 0
M  V30 2556 C 241.109 1.0567 1.82749 0
M  V30 2557 O 240.457 0.144442 2.28043 0
M  V30 2558 C 240.667 3.39526 0.80767 0
M  V30 2559 C 242.015 4.08814 1.14703 0
M  V30 2560 O 243.039 3.44723 0.896917 0
M  V30 2561 O 241.898 5.22004 1.61784 0
M  V30 2562 H 238.992 0.778677 0.278553 0
M  V30 2563 H 241.538 1.68666 -0.187068 0
M  V30 2564 H 240.31 3.91173 -0.0996096 0
M  V30 2565 H 239.933 3.64243 1.59413 0
M  V30 2566 N 240.93 -0.123565 1.57115 0
M  V30 2567 C 242.179 -0.830704 1.83799 0
M  V30 2568 C 242.492 -1.81259 0.735158 0
M  V30 2569 O 243.698 -2.56558 0.888278 0
M  V30 2570 C 242.154 -1.52802 3.25852 0
M  V30 2571 C 241.762 -0.587356 4.44133 0
M  V30 2572 C 243.506 -2.22056 3.61789 0
M  V30 2573 C 241.413 -1.28764 5.77212 0
M  V30 2574 H 240.343 -0.313967 0.685522 0
M  V30 2575 H 242.994 -0.0834359 1.8331 0
M  V30 2576 H 241.376 -2.32175 3.20797 0
M  V30 2577 H 242.55 0.172829 4.60476 0
M  V30 2578 H 240.865 -0.00201892 4.164 0
M  V30 2579 H 243.462 -2.75131 4.58483 0
M  V30 2580 H 243.805 -2.99644 2.88997 0
M  V30 2581 H 244.338 -1.49576 3.68608 0
M  V30 2582 H 241.077 -0.55314 6.53162 0
M  V30 2583 H 240.597 -2.01995 5.64764 0
M  V30 2584 H 242.276 -1.8221 6.20813 0
M  V30 2585 N 242.408 -1.52605 -0.393616 0
M  V30 2586 C 243.356 -1.77688 -1.50099 0
M  V30 2587 C 244.35 -0.644615 -1.56656 0
M  V30 2588 O 245.556 -0.826997 -1.59877 0
M  V30 2589 H 241.931 -0.562159 -0.499481 0
M  V30 2590 H 243.902 -2.7043 -1.26135 0
M  V30 2591 C 242.651 -1.95858 -2.87289 0
M  V30 2592 H 241.974 -2.8241 -2.82992 0
M  V30 2593 H 243.414 -2.174 -3.64024 0
M  V30 2594 C 241.873 -0.729848 -3.28899 0
M  V30 2595 O 242.403 0.0949217 -4.01588 0
M  V30 2596 N 240.609 -0.561283 -2.85128 0
M  V30 2597 H 240.156 -1.23357 -2.26143 0
M  V30 2598 H 240.114 0.2595 -3.13327 0
M  V30 2599 N 243.887 0.651787 -1.4349 0
M  V30 2600 C 245.115 1.43937 -1.48626 0
M  V30 2601 C 245.53 1.8851 -0.104587 0
M  V30 2602 O 244.887 1.5958 0.885464 0
M  V30 2603 C 244.938 2.6734 -2.43334 0
M  V30 2604 O 244.659 2.24631 -3.76128 0
M  V30 2605 C 246.16 3.60683 -2.57726 0
M  V30 2606 H 243.38 0.44213 -0.504739 0
M  V30 2607 H 245.924 0.798944 -1.88248 0
M  V30 2608 H 244.079 3.2752 -2.06904 0
M  V30 2609 H 244.493 3.04485 -4.2707 0
M  V30 2610 H 245.967 4.43933 -3.28067 0
M  V30 2611 H 246.444 4.08126 -1.62265 0
M  V30 2612 H 247.05 3.06384 -2.94973 0
M  V30 2613 N 245.365 1.30045 0.890287 0
M  V30 2614 C 246.612 1.18561 1.64163 0
M  V30 2615 C 246.94 -0.260852 1.92743 0
M  V30 2616 O 246.195 -1.20376 1.54299 0
M  V30 2617 C 246.494 1.95409 2.99249 0
M  V30 2618 C 246.16 3.45066 2.90242 0
M  V30 2619 C 244.822 3.85878 2.87492 0
M  V30 2620 C 247.174 4.4039 2.78758 0
M  V30 2621 C 244.502 5.20314 2.7109 0
M  V30 2622 C 246.854 5.74928 2.63894 0
M  V30 2623 C 245.518 6.14986 2.59516 0
M  V30 2624 H 244.788 0.433846 0.600715 0
M  V30 2625 H 247.435 1.61088 1.03552 0
M  V30 2626 H 245.74 1.45501 3.63781 0
M  V30 2627 H 247.437 1.8392 3.56334 0
M  V30 2628 H 244.027 3.12631 2.93189 0
M  V30 2629 H 248.211 4.09806 2.79952 0
M  V30 2630 H 243.467 5.50449 2.66112 0
M  V30 2631 H 247.641 6.48434 2.53981 0
M  V30 2632 H 245.268 7.19104 2.46565 0
M  V30 2633 N 246.843 -1.10192 1.12674 0
M  V30 2634 C 247.776 -2.15847 0.740625 0
M  V30 2635 C 248.754 -1.60352 -0.269421 0
M  V30 2636 O 249.938 -1.87796 -0.16278 0
M  V30 2637 C 247.065 -3.38562 0.096641 0
M  V30 2638 C 246.111 -4.12758 1.07391 0
M  V30 2639 S 246.944 -4.67997 2.60267 0
M  V30 2640 C 248.1 -5.94021 1.97206 0
M  V30 2641 H 248.333 -2.48266 1.63558 0
M  V30 2642 H 245.866 -1.22019 0.946087 0
M  V30 2643 H 247.824 -4.09621 -0.268535 0
M  V30 2644 H 246.485 -3.04377 -0.775462 0
M  V30 2645 H 245.678 -5.00755 0.570997 0
M  V30 2646 H 245.28 -3.47523 1.38216 0
M  V30 2647 H 247.572 -6.64589 1.31634 0
M  V30 2648 H 248.515 -6.48979 2.83253 0
M  V30 2649 H 248.923 -5.46169 1.42686 0
M  V30 2650 N 248.321 -0.919034 -1.28029 0
M  V30 2651 C 249.567 -0.555757 -1.95036 0
M  V30 2652 C 249.9 0.899198 -1.72128 0
M  V30 2653 O 249.175 1.64023 -1.04531 0
M  V30 2654 C 249.458 -0.872024 -3.49382 0
M  V30 2655 C 249.311 -2.3801 -3.81669 0
M  V30 2656 C 250.63 -0.37185 -4.38526 0
M  V30 2657 H 247.749 -0.203386 -0.708381 0
M  V30 2658 H 250.391 -1.14924 -1.51303 0
M  V30 2659 H 248.541 -0.366946 -3.86763 0
M  V30 2660 H 250.213 -2.9562 -3.54128 0
M  V30 2661 H 248.456 -2.83289 -3.28526 0
M  V30 2662 H 249.127 -2.55192 -4.8947 0
M  V30 2663 H 251.603 -0.804602 -4.08247 0
M  V30 2664 H 250.479 -0.622173 -5.45362 0
M  V30 2665 H 250.74 0.727934 -4.36066 0
M  V30 2666 N 249.799 1.42003 -0.683588 0
M  V30 2667 C 250.729 2.33487 -0.024866 0
M  V30 2668 C 251.71 1.51163 0.779975 0
M  V30 2669 O 252.895 1.79739 0.735362 0
M  V30 2670 C 250.025 3.3487 0.920836 0
M  V30 2671 C 248.979 4.27414 0.223958 0
M  V30 2672 C 248.305 5.19074 1.2832 0
M  V30 2673 C 249.605 5.14445 -0.90242 0
M  V30 2674 H 251.299 2.88819 -0.788921 0
M  V30 2675 H 248.845 1.38873 -0.38083 0
M  V30 2676 H 250.798 3.97787 1.39081 0
M  V30 2677 H 249.522 2.77861 1.71642 0
M  V30 2678 H 248.181 3.65904 -0.225864 0
M  V30 2679 H 247.829 4.58387 2.071 0
M  V30 2680 H 247.529 5.81822 0.821995 0
M  V30 2681 H 249.053 5.84867 1.75392 0
M  V30 2682 H 250.467 5.70998 -0.513272 0
M  V30 2683 H 248.864 5.86072 -1.28997 0
M  V30 2684 H 249.934 4.52322 -1.74737 0
M  V30 2685 N 251.277 0.427512 1.51691 0
M  V30 2686 C 252.209 -0.424521 2.25234 0
M  V30 2687 C 253.222 -0.994671 1.2888 0
M  V30 2688 O 254.411 -0.890483 1.54702 0
M  V30 2689 C 251.511 -1.60479 2.98496 0
M  V30 2690 C 250.684 -1.15527 4.21868 0
M  V30 2691 C 249.743 -2.20454 4.77793 0
M  V30 2692 O 248.769 -1.8029 5.39893 0
M  V30 2693 N 249.971 -3.52831 4.60967 0
M  V30 2694 H 252.736 0.205749 2.98993 0
M  V30 2695 H 250.297 0.255867 1.59865 0
M  V30 2696 H 252.289 -2.30276 3.32799 0
M  V30 2697 H 250.859 -2.14061 2.27809 0
M  V30 2698 H 250.079 -0.284736 3.9317 0
M  V30 2699 H 251.367 -0.832173 5.01949 0
M  V30 2700 H 250.765 -3.88201 4.11481 0
M  V30 2701 H 249.322 -4.18551 4.99658 0
M  V30 2702 N 252.755 -1.56801 0.158532 0
M  V30 2703 C 254.001 -1.96781 -0.490405 0
M  V30 2704 C 254.334 -1.04397 -1.63753 0
M  V30 2705 O 253.609 -0.0885805 -1.94298 0
M  V30 2706 C 253.892 -3.4635 -0.985594 0
M  V30 2707 C 253.745 -4.49512 0.160824 0
M  V30 2708 C 255.064 -3.98697 -1.86355 0
M  V30 2709 H 252.183 -0.715482 -0.176788 0
M  V30 2710 H 254.825 -1.88451 0.242088 0
M  V30 2711 H 252.975 -3.53579 -1.60978 0
M  V30 2712 H 254.647 -4.54353 0.797537 0
M  V30 2713 H 252.89 -4.26013 0.818256 0
M  V30 2714 H 253.561 -5.51531 -0.227569 0
M  V30 2715 H 256.037 -3.94019 -1.33746 0
M  V30 2716 H 254.913 -5.03792 -2.17909 0
M  V30 2717 H 255.174 -3.41744 -2.8047 0
M  V30 2718 N 254.233 0.115231 -1.57178 0
M  V30 2719 C 255.482 0.820945 -1.84237 0
M  V30 2720 C 255.795 1.80866 -0.744761 0
M  V30 2721 O 257.001 2.56083 -0.901871 0
M  V30 2722 C 255.457 1.51072 -3.26658 0
M  V30 2723 C 255.065 0.563795 -4.44438 0
M  V30 2724 C 256.809 2.20134 -3.62962 0
M  V30 2725 C 254.716 1.25701 -5.77887 0
M  V30 2726 H 253.646 0.310328 -0.687177 0
M  V30 2727 H 256.297 0.0737134 -1.83352 0
M  V30 2728 H 254.679 2.30471 -3.22024 0
M  V30 2729 H 255.853 -0.197247 -4.60378 0
M  V30 2730 H 254.168 -0.0200638 -4.16395 0
M  V30 2731 H 256.765 2.72696 -4.59936 0
M  V30 2732 H 257.108 2.98107 -2.90582 0
M  V30 2733 H 257.641 1.47619 -3.69396 0
M  V30 2734 H 254.38 0.518493 -6.53446 0
M  V30 2735 H 253.9 1.98997 -5.65827 0
M  V30 2736 H 255.579 1.78915 -6.2177 0
M  V30 2737 N 255.711 1.52812 0.385517 0
M  V30 2738 C 256.658 1.77838 1.47113 0
M  V30 2739 C 257.628 0.621757 1.54024 0
M  V30 2740 O 258.813 0.861846 1.70226 0
M  V30 2741 C 255.953 1.95618 2.84302 0
M  V30 2742 C 255.066 3.23316 2.86515 0
M  V30 2743 C 254.201 3.31394 4.15152 0
M  V30 2744 C 253.24 4.53201 4.1143 0
M  V30 2745 N 252.377 4.58542 5.3168 0
M  V30 2746 H 257.217 2.70482 1.25073 0
M  V30 2747 H 254.754 1.34006 0.606692 0
M  V30 2748 H 256.712 2.03912 3.63972 0
M  V30 2749 H 255.342 1.06331 3.04784 0
M  V30 2750 H 254.394 3.24076 1.99195 0
M  V30 2751 H 255.706 4.13045 2.79634 0
M  V30 2752 H 254.86 3.3889 5.03228 0
M  V30 2753 H 253.599 2.39645 4.24761 0
M  V30 2754 H 252.604 4.45827 3.21742 0
M  V30 2755 H 253.829 5.46271 4.03442 0
M  V30 2756 H 251.775 3.69686 5.41912 0
M  V30 2757 H 251.692 5.42148 5.26889 0
M  V30 2758 H 252.96 4.70296 6.21644 0
M  V30 2759 N 257.189 -0.644168 1.43834 0
M  V30 2760 C 258.436 -1.40395 1.4593 0
M  V30 2761 C 258.764 -1.94305 0.0869658 0
M  V30 2762 O 258.019 -1.73288 -0.909378 0
M  V30 2763 C 258.318 -2.59615 2.45631 0
M  V30 2764 C 257.984 -2.2407 3.91284 0
M  V30 2765 C 256.646 -2.14089 4.30952 0
M  V30 2766 C 258.998 -1.95775 4.83034 0
M  V30 2767 C 256.326 -1.73981 5.6031 0
M  V30 2768 C 258.678 -1.57163 6.12766 0
M  V30 2769 C 257.342 -1.45713 6.51402 0
M  V30 2770 H 256.612 -0.513741 0.533995 0
M  V30 2771 H 259.259 -0.731724 1.76969 0
M  V30 2772 H 257.564 -3.32011 2.08028 0
M  V30 2773 H 259.261 -3.17834 2.44504 0
M  V30 2774 H 255.851 -2.32753 3.59895 0
M  V30 2775 H 260.035 -2.02403 4.53152 0
M  V30 2776 H 255.291 -1.63709 5.89075 0
M  V30 2777 H 259.465 -1.34303 6.83327 0
M  V30 2778 H 257.092 -1.14406 7.51542 0
M  V30 2779 N 258.668 -1.30515 -0.883378 0
M  V30 2780 C 259.896 -1.22359 -1.66841 0
M  V30 2781 C 260.311 0.213296 -1.87591 0
M  V30 2782 O 259.668 1.14075 -1.42454 0
M  V30 2783 C 259.719 -1.95011 -3.04389 0
M  V30 2784 O 259.44 -3.3309 -2.84575 0
M  V30 2785 C 260.941 -1.93532 -3.98824 0
M  V30 2786 H 258.161 -0.423371 -0.520575 0
M  V30 2787 H 260.705 -1.72167 -1.10357 0
M  V30 2788 H 258.86 -1.48997 -3.57601 0
M  V30 2789 H 259.274 -3.69907 -3.71846 0
M  V30 2790 H 260.748 -2.48902 -4.92699 0
M  V30 2791 H 261.225 -0.914627 -4.29571 0
M  V30 2792 H 261.831 -2.39364 -3.51547 0
M  V30 2793 N 260.146 1.09593 -1.13257 0
M  V30 2794 C 261.093 2.1618 -0.808381 0
M  V30 2795 C 262.063 1.64517 0.228754 0
M  V30 2796 O 263.248 1.9053 0.101381 0
M  V30 2797 C 260.388 3.43973 -0.278675 0
M  V30 2798 C 259.501 4.09545 -1.37466 0
M  V30 2799 C 258.636 5.25088 -0.803479 0
M  V30 2800 C 257.675 5.82579 -1.87799 0
M  V30 2801 N 256.812 6.89486 -1.32488 0
M  V30 2802 H 261.652 2.43254 -1.72138 0
M  V30 2803 H 259.189 1.19392 -0.859294 0
M  V30 2804 H 261.147 4.17174 0.0465583 0
M  V30 2805 H 259.777 3.17223 0.597459 0
M  V30 2806 H 258.829 3.34226 -1.81652 0
M  V30 2807 H 260.141 4.48307 -2.18684 0
M  V30 2808 H 259.295 6.05178 -0.429427 0
M  V30 2809 H 258.034 4.87684 0.0397956 0
M  V30 2810 H 257.039 5.01152 -2.26113 0
M  V30 2811 H 258.264 6.22045 -2.72463 0
M  V30 2812 H 256.21 6.54064 -0.503575 0
M  V30 2813 H 256.127 7.27007 -2.07355 0
M  V30 2814 H 257.395 7.73336 -0.978336 0
M  V30 2815 N 261.624 0.925811 1.2754 0
M  V30 2816 C 262.901 0.483726 1.89524 0
M  V30 2817 C 263.281 -1.03809 1.83812 0
M  V30 2818 O 262.629 -1.89143 1.28207 0
M  V30 2819 C 262.839 1.02769 3.33526 0
M  V30 2820 C 264.187 1.08703 4.10449 0
M  V30 2821 O 265.211 0.977175 3.42534 0
M  V30 2822 O 264.07 1.25599 5.31871 0
M  V30 2823 H 261.164 0.15529 0.812289 0
M  V30 2824 H 263.71 1.01738 1.35822 0
M  V30 2825 H 262.482 2.07155 3.31967 0
M  V30 2826 H 262.105 0.475567 3.94746 0
M  V30 2827 N 263.102 -1.41638 0.69111 0
M  V30 2828 C 264.032 -2.3347 0.037248 0
M  V30 2829 C 265.013 -1.51575 -0.771947 0
M  V30 2830 O 266.198 -1.80126 -0.72582 0
M  V30 2831 C 263.328 -3.35354 -0.903064 0
M  V30 2832 C 262.282 -4.27526 -0.201288 0
M  V30 2833 C 261.608 -5.19747 -1.25565 0
M  V30 2834 C 262.908 -5.13959 0.929689 0
M  V30 2835 H 264.602 -2.88397 0.804227 0
M  V30 2836 H 262.148 -1.38669 0.388189 0
M  V30 2837 H 264.101 -3.98519 -1.36969 0
M  V30 2838 H 262.825 -2.78767 -1.70166 0
M  V30 2839 H 261.484 -3.65779 0.245265 0
M  V30 2840 H 261.132 -4.59479 -2.04666 0
M  V30 2841 H 260.832 -5.8225 -0.791128 0
M  V30 2842 H 262.356 -5.85789 -1.72288 0
M  V30 2843 H 263.77 -5.70718 0.543546 0
M  V30 2844 H 262.167 -5.85379 1.32103 0
M  V30 2845 H 263.237 -4.51389 1.77133 0
M  V30 2846 N 264.58 -0.43555 -1.51462 0
M  V30 2847 C 265.991 0.0279871 -1.86679 0
M  V30 2848 C 266.342 1.42104 -1.35281 0
M  V30 2849 O 265.467 2.04667 -0.702878 0
M  V30 2850 C 266.062 0.0575626 -3.38751 0
M  V30 2851 C 264.621 0.465507 -3.7351 0
M  V30 2852 C 263.768 -0.342996 -2.75171 0
M  V30 2853 H 266.719 -0.651473 -1.44712 0
M  V30 2854 H 266.74 0.867421 -3.70481 0
M  V30 2855 H 266.252 -0.956448 -3.7613 0
M  V30 2856 H 264.353 1.48519 -3.41721 0
M  V30 2857 H 264.466 0.191546 -4.78717 0
M  V30 2858 H 262.83 0.198442 -2.53926 0
M  V30 2859 H 263.613 -1.35585 -3.15391 0
M  V30 2860 N 266.058 1.56714 -0.166846 0
M  V30 2861 C 267.304 1.97039 0.479962 0
M  V30 2862 C 267.637 1.05264 1.63197 0
M  V30 2863 O 266.912 0.0988833 1.94248 0
M  V30 2864 C 267.195 3.46867 0.967212 0
M  V30 2865 C 267.048 4.49421 -0.18466 0
M  V30 2866 C 268.367 3.9968 1.84238 0
M  V30 2867 H 265.486 0.71641 0.172992 0
M  V30 2868 H 268.128 1.8832 -0.252079 0
M  V30 2869 H 266.278 3.54428 1.59101 0
M  V30 2870 H 267.95 4.53924 -0.821621 0
M  V30 2871 H 266.193 4.25573 -0.840837 0
M  V30 2872 H 266.864 5.51644 0.198317 0
M  V30 2873 H 269.34 3.94723 1.31655 0
M  V30 2874 H 268.216 5.04941 2.15234 0
M  V30 2875 H 268.477 3.43226 2.78654 0
M  V30 2876 N 267.536 -0.106894 1.57237 0
M  V30 2877 C 268.783 -0.812526 1.85484 0
M  V30 2878 C 269.111 -1.79304 0.753687 0
M  V30 2879 O 268.366 -1.94047 -0.253853 0
M  V30 2880 C 268.665 -1.58628 3.20268 0
M  V30 2881 C 268.331 -0.748967 4.44636 0
M  V30 2882 C 266.993 -0.518104 4.78403 0
M  V30 2883 C 269.345 -0.166122 5.20935 0
M  V30 2884 C 266.673 0.305659 5.85903 0
M  V30 2885 C 269.025 0.644899 6.29304 0
M  V30 2886 C 267.689 0.885965 6.61594 0
M  V30 2887 H 266.959 -0.297324 0.678734 0
M  V30 2888 H 269.606 -0.0744332 1.91355 0
M  V30 2889 H 267.911 -2.39562 3.10028 0
M  V30 2890 H 269.608 -2.13643 3.39349 0
M  V30 2891 H 266.198 -0.939006 4.18187 0
M  V30 2892 H 270.382 -0.33167 4.95191 0
M  V30 2893 H 265.638 0.501528 6.0934 0
M  V30 2894 H 269.812 1.10345 6.87602 0
M  V30 2895 H 267.439 1.52609 7.44725 0
M  V30 2896 N 269.014 -1.53014 -0.377408 0
M  V30 2897 C 270.43 -1.42523 -0.718281 0
M  V30 2898 C 270.63 -0.55487 -1.9371 0
M  V30 2899 O 269.686 -0.0327593 -2.52479 0
M  V30 2900 C 270.999 -2.85546 -0.942539 0
M  V30 2901 C 272.547 -2.95101 -1.04329 0
M  V30 2902 C 273.022 -4.3916 -1.3001 0
M  V30 2903 N 274.513 -4.42536 -1.36806 0
M  V30 2904 C 275.248 -5.51097 -1.58364 0
M  V30 2905 N 274.744 -6.69724 -1.77317 0
M  V30 2906 N 276.537 -5.38657 -1.60638 0
M  V30 2907 H 268.688 -2.08116 0.424426 0
M  V30 2908 H 270.951 -0.939352 0.127759 0
M  V30 2909 H 270.657 -3.51499 -0.118929 0
M  V30 2910 H 270.531 -3.28493 -1.85397 0
M  V30 2911 H 272.918 -2.29309 -1.85745 0
M  V30 2912 H 272.999 -2.55566 -0.109505 0
M  V30 2913 H 272.643 -5.05521 -0.490991 0
M  V30 2914 H 272.573 -4.76258 -2.24691 0
M  V30 2915 H 275.064 -3.57039 -1.23821 0
M  V30 2916 H 275.377 -7.48233 -1.93306 0
M  V30 2917 H 273.722 -6.72732 -1.74518 0
M  V30 2918 H 276.913 -4.44948 -1.45391 0
M  V30 2919 H 277.086 -6.2333 -1.77098 0
M  V30 2920 N 270.492 0.636531 -1.44174 0
M  V30 2921 C 271.717 1.42847 -1.50364 0
M  V30 2922 C 272.142 1.87665 -0.127867 0
M  V30 2923 O 271.5 1.58408 0.88185 0
M  V30 2924 C 271.548 2.62854 -2.4686 0
M  V30 2925 O 270.652 3.62501 -1.9664 0
M  V30 2926 H 269.993 0.427642 -0.507955 0
M  V30 2927 H 272.523 0.777422 -1.89255 0
M  V30 2928 H 272.533 3.10465 -2.64718 0
M  V30 2929 H 271.208 2.29578 -3.46795 0
M  V30 2930 H 269.785 3.21735 -1.88523 0
M  V30 2931 N 271.97 1.30982 0.876444 0
M  V30 2932 C 272.9 1.20668 1.99903 0
M  V30 2933 C 273.881 0.095354 1.69833 0
M  V30 2934 O 275.066 0.27885 1.92188 0
M  V30 2935 C 272.196 0.90655 3.3526 0
M  V30 2936 C 271.15 1.97675 3.79617 0
M  V30 2937 C 270.476 1.52943 5.1236 0
M  V30 2938 C 271.776 3.389 3.97422 0
M  V30 2939 H 273.47 2.14586 2.0879 0
M  V30 2940 H 271.016 1.03308 1.00317 0
M  V30 2941 H 272.969 0.821025 4.13324 0
M  V30 2942 H 271.693 -0.0682969 3.26529 0
M  V30 2943 H 270.352 2.05205 3.03787 0
M  V30 2944 H 270 0.54262 5.00065 0
M  V30 2945 H 269.7 2.24532 5.43009 0
M  V30 2946 H 271.224 1.45786 5.92941 0
M  V30 2947 H 272.638 3.34081 4.659 0
M  V30 2948 H 271.035 4.0865 4.3946 0
M  V30 2949 H 272.105 3.80163 3.01006 0
M  V30 2950 N 273.449 -1.08991 1.13837 0
M  V30 2951 C 274.86 -1.62746 0.914917 0
M  V30 2952 C 275.211 -1.88403 -0.547594 0
M  V30 2953 O 274.336 -1.63706 -1.41525 0
M  V30 2954 C 274.931 -2.95662 1.65437 0
M  V30 2955 C 273.49 -3.46225 1.47666 0
M  V30 2956 C 272.637 -2.20562 1.6807 0
M  V30 2957 H 275.588 -0.922946 1.29102 0
M  V30 2958 H 275.609 -3.63825 1.11407 0
M  V30 2959 H 275.121 -2.76956 2.71877 0
M  V30 2960 H 273.222 -3.70046 0.435478 0
M  V30 2961 H 273.335 -4.23368 2.24268 0
M  V30 2962 H 271.699 -2.29439 1.10589 0
M  V30 2963 H 272.482 -2.0437 2.7584 0
M  V30 2964 N 274.927 -0.932562 -1.27047 0
M  V30 2965 C 276.176 -0.571351 -1.93439 0
M  V30 2966 C 276.489 0.892467 -1.74053 0
M  V30 2967 O 277.695 1.36267 -2.34826 0
M  V30 2968 C 276.151 -0.97106 -3.46552 0
M  V30 2969 C 275.759 -2.4559 -3.74686 0
M  V30 2970 C 277.503 -0.681333 -4.18997 0
M  V30 2971 C 275.41 -2.79475 -5.21198 0
M  V30 2972 H 274.34 -0.209966 -0.724176 0
M  V30 2973 H 276.991 -1.13403 -1.44263 0
M  V30 2974 H 275.373 -0.336983 -3.94564 0
M  V30 2975 H 276.547 -3.13829 -3.37414 0
M  V30 2976 H 274.862 -2.71802 -3.15456 0
M  V30 2977 H 277.459 -0.910939 -5.26883 0
M  V30 2978 H 277.802 0.381628 -4.14547 0
M  V30 2979 H 278.335 -1.27473 -3.76823 0
M  V30 2980 H 275.074 -3.847 -5.30741 0
M  V30 2981 H 274.594 -2.1589 -5.596 0
M  V30 2982 H 276.273 -2.67478 -5.89122 0
M  V30 2983 N 276.405 1.4127 -0.698611 0
M  V30 2984 C 277.315 2.34573 -0.0357891 0
M  V30 2985 C 278.331 1.56393 0.762701 0
M  V30 2986 O 279.507 1.8886 0.699564 0
M  V30 2987 C 276.572 3.35159 0.887089 0
M  V30 2988 C 275.633 4.29225 0.0804634 0
M  V30 2989 C 274.866 5.25006 0.959387 0
M  V30 2990 O 275.089 5.26314 2.19886 0
M  V30 2991 O 274.023 6.00519 0.407439 0
M  V30 2992 H 277.849 2.92838 -0.804957 0
M  V30 2993 H 275.434 1.42175 -0.458966 0
M  V30 2994 H 277.316 3.9689 1.41621 0
M  V30 2995 H 275.991 2.79333 1.6357 0
M  V30 2996 H 274.898 3.70833 -0.493328 0
M  V30 2997 H 276.231 4.88157 -0.629547 0
M  V30 2998 N 277.883 0.443576 1.51229 0
M  V30 2999 C 279.16 -0.181038 1.9476 0
M  V30 3000 C 279.54 -1.59523 1.38259 0
M  V30 3001 O 278.888 -2.2122 0.572198 0
M  V30 3002 C 279.098 -0.152422 3.48667 0
M  V30 3003 C 280.446 -0.354923 4.23114 0
M  V30 3004 O 281.47 -0.230257 3.55455 0
M  V30 3005 O 280.329 -0.603674 5.43156 0
M  V30 3006 H 277.423 -0.1266 0.817252 0
M  V30 3007 H 279.969 0.502004 1.62105 0
M  V30 3008 H 278.741 0.836022 3.82265 0
M  V30 3009 H 278.364 -0.878107 3.87782 0
M  V30 3010 N 279.361 -1.56624 0.175154 0
M  V30 3011 C 280.293 -2.15333 -0.785128 0
M  V30 3012 C 281.306 -1.1099 -1.19101 0
M  V30 3013 O 282.495 -1.38162 -1.13019 0
M  V30 3014 C 279.595 -2.68427 -2.06882 0
M  V30 3015 C 278.768 -3.97466 -1.8259 0
M  V30 3016 C 277.827 -4.35585 -2.95215 0
M  V30 3017 O 276.853 -5.03389 -2.65684 0
M  V30 3018 N 278.055 -3.97457 -4.23094 0
M  V30 3019 H 280.82 -2.98359 -0.283187 0
M  V30 3020 H 278.381 -1.61898 -0.00749817 0
M  V30 3021 H 280.373 -2.90924 -2.81328 0
M  V30 3022 H 278.943 -1.89968 -2.48256 0
M  V30 3023 H 278.163 -3.83307 -0.920287 0
M  V30 3024 H 279.451 -4.81736 -1.63733 0
M  V30 3025 H 278.849 -3.42878 -4.49945 0
M  V30 3026 H 277.406 -4.24947 -4.9423 0
M  V30 3027 N 280.839 0.0985539 -1.57292 0
M  V30 3028 C 282.088 0.801358 -1.85098 0
M  V30 3029 C 282.401 1.80066 -0.763902 0
M  V30 3030 O 283.607 2.55112 -0.928981 0
M  V30 3031 C 282.063 1.47599 -3.28242 0
M  V30 3032 C 281.671 0.516624 -4.45011 0
M  V30 3033 C 283.415 2.16272 -3.65276 0
M  V30 3034 C 281.322 1.19564 -5.79188 0
M  V30 3035 H 280.252 0.303022 -0.69043 0
M  V30 3036 H 282.903 0.0542623 -1.8342 0
M  V30 3037 H 281.285 2.27042 -3.2445 0
M  V30 3038 H 282.459 -0.246065 -4.60143 0
M  V30 3039 H 280.774 -0.064227 -4.1635 0
M  V30 3040 H 283.371 2.67802 -4.62803 0
M  V30 3041 H 283.714 2.95009 -2.93727 0
M  V30 3042 H 284.247 1.43693 -3.70941 0
M  V30 3043 H 280.986 0.449157 -6.53959 0
M  V30 3044 H 280.506 1.92984 -5.67906 0
M  V30 3045 H 282.185 1.7231 -6.23633 0
M  V30 3046 N 282.317 1.53212 0.369288 0
M  V30 3047 C 283.542 1.73423 1.1375 0
M  V30 3048 C 283.967 0.460404 1.82378 0
M  V30 3049 O 283.325 -0.585298 1.71592 0
M  V30 3050 C 283.373 2.89769 2.1463 0
M  V30 3051 O 282.477 2.58119 3.21634 0
M  V30 3052 H 281.818 0.576061 0.330227 0
M  V30 3053 H 284.348 2.00083 0.427547 0
M  V30 3054 H 284.358 3.15829 2.58294 0
M  V30 3055 H 283.033 3.8217 1.64071 0
M  V30 3056 H 281.61 2.42864 2.82969 0
M  V30 3057 N 283.795 -0.628877 1.44509 0
M  V30 3058 C 284.725 -1.75187 1.54376 0
M  V30 3059 C 285.706 -1.65411 0.396618 0
M  V30 3060 O 286.891 -1.84137 0.617031 0
M  V30 3061 C 284.021 -3.13725 1.48976 0
M  V30 3062 C 282.975 -3.38291 2.62189 0
M  V30 3063 C 282.301 -4.76883 2.41841 0
M  V30 3064 C 283.601 -3.30632 4.04326 0
M  V30 3065 H 285.295 -1.67187 2.48373 0
M  V30 3066 H 282.841 -0.802909 1.19538 0
M  V30 3067 H 284.794 -3.92064 1.54478 0
M  V30 3068 H 283.518 -3.22515 0.514961 0
M  V30 3069 H 282.177 -2.62334 2.56079 0
M  V30 3070 H 281.825 -4.82378 1.42548 0
M  V30 3071 H 281.525 -4.94278 3.17747 0
M  V30 3072 H 283.049 -5.57449 2.49165 0
M  V30 3073 H 284.463 -3.98873 4.11793 0
M  V30 3074 H 282.86 -3.59561 4.80454 0
M  V30 3075 H 283.93 -2.28404 4.27738 0
M  V30 3076 N 285.273 -1.31445 -0.869486 0
M  V30 3077 C 286.203 -1.21727 -1.99261 0
M  V30 3078 C 287.184 -0.104359 -1.6978 0
M  V30 3079 O 288.369 -0.289038 -1.92037 0
M  V30 3080 C 285.499 -0.924317 -3.34774 0
M  V30 3081 C 284.453 -1.99685 -3.78563 0
M  V30 3082 C 283.779 -1.55658 -5.11541 0
M  V30 3083 C 285.079 -3.41003 -3.95619 0
M  V30 3084 H 286.773 -2.1569 -2.07649 0
M  V30 3085 H 284.319 -1.03839 -0.997675 0
M  V30 3086 H 286.272 -0.842934 -4.12883 0
M  V30 3087 H 284.996 0.0509793 -3.2656 0
M  V30 3088 H 283.655 -2.06813 -3.02694 0
M  V30 3089 H 283.303 -0.569132 -4.9977 0
M  V30 3090 H 283.003 -2.27409 -5.41811 0
M  V30 3091 H 284.527 -1.48928 -5.92159 0
M  V30 3092 H 285.941 -3.36547 -4.64122 0
M  V30 3093 H 284.338 -4.10975 -4.37286 0
M  V30 3094 H 285.408 -3.81754 -2.98985 0
M  V30 3095 N 286.751 1.08385 -1.14413 0
M  V30 3096 C 287.698 2.15311 -0.831265 0
M  V30 3097 C 288.668 1.64751 0.211292 0
M  V30 3098 O 289.853 1.90627 0.0811674 0
M  V30 3099 C 286.993 3.43658 -0.315143 0
M  V30 3100 C 286.106 4.08064 -1.41802 0
M  V30 3101 C 285.241 5.24207 -0.859126 0
M  V30 3102 C 284.28 5.80554 -1.93967 0
M  V30 3103 N 283.417 6.88042 -1.39793 0
M  V30 3104 H 288.257 2.41415 -1.74708 0
M  V30 3105 H 285.794 1.18474 -0.871909 0
M  V30 3106 H 287.752 4.172 0.00230884 0
M  V30 3107 H 286.382 3.17839 0.56378 0
M  V30 3108 H 285.434 3.3228 -1.85187 0
M  V30 3109 H 286.746 4.45962 -2.23427 0
M  V30 3110 H 285.9 6.04689 -0.49359 0
M  V30 3111 H 284.639 4.87699 -0.011932 0
M  V30 3112 H 283.644 4.98725 -2.31415 0
M  V30 3113 H 284.869 6.19121 -2.79046 0
M  V30 3114 H 282.815 6.53493 -0.572919 0
M  V30 3115 H 282.732 7.24767 -2.15054 0
M  V30 3116 H 284 7.72255 -1.0603 0
M  V30 3117 N 288.23 0.939286 1.26551 0
M  V30 3118 C 289.478 0.58469 1.93457 0
M  V30 3119 C 289.799 -0.878774 1.74076 0
M  V30 3120 O 289.069 -1.62421 1.09528 0
M  V30 3121 H 287.649 0.21325 0.715914 0
M  V30 3122 H 290.311 1.1942 1.54029 0
M  V30 3123 H 289.407 0.800849 3.0165 0
M  V30 3124 N 289.708 -1.40897 0.706093 0
M  V30 3125 C 290.671 -2.29131 0.0562841 0
M  V30 3126 C 291.671 -1.44901 -0.697166 0
M  V30 3127 O 292.861 -1.65926 -0.530484 0
M  V30 3128 C 289.993 -3.27957 -0.93043 0
M  V30 3129 H 291.186 -2.88091 0.833284 0
M  V30 3130 H 288.739 -1.4906 0.470192 0
M  V30 3131 H 289.474 -2.73997 -1.73482 0
M  V30 3132 H 289.259 -3.90124 -0.393166 0
M  V30 3133 H 290.749 -3.94049 -1.38256 0
M  V30 3134 N 291.186 -0.45159 -1.50991 0
M  V30 3135 C 292.149 0.341117 -2.26647 0
M  V30 3136 C 293.149 0.937422 -1.30649 0
M  V30 3137 O 294.339 0.809644 -1.54241 0
M  V30 3138 C 291.471 1.48398 -3.06905 0
M  V30 3139 H 292.664 -0.322117 -2.98165 0
M  V30 3140 H 290.217 -0.205122 -1.54948 0
M  V30 3141 H 290.952 2.18284 -2.39838 0
M  V30 3142 H 290.737 1.06241 -3.77432 0
M  V30 3143 H 292.227 2.04367 -3.64176 0
M  V30 3144 N 292.664 1.56529 -0.183458 0
M  V30 3145 C 293.91 1.97537 0.459036 0
M  V30 3146 C 294.243 1.06989 1.62071 0
M  V30 3147 O 293.518 0.11948 1.94133 0
M  V30 3148 C 293.801 3.47874 0.930368 0
M  V30 3149 C 293.654 4.492 -0.232317 0
M  V30 3150 C 294.973 4.01612 1.79989 0
M  V30 3151 H 292.092 0.718204 0.165383 0
M  V30 3152 H 294.734 1.88042 -0.272038 0
M  V30 3153 H 292.884 3.56095 1.55333 0
M  V30 3154 H 294.556 4.53027 -0.86972 0
M  V30 3155 H 292.799 4.24657 -0.885928 0
M  V30 3156 H 293.47 5.51823 0.139796 0
M  V30 3157 H 295.946 3.96097 1.27461 0
M  V30 3158 H 294.822 5.07195 2.09867 0
M  V30 3159 H 295.083 3.46163 2.74998 0
M  V30 3160 N 294.142 -0.090211 1.57342 0
M  V30 3161 C 295.052 -1.12735 2.05738 0
M  V30 3162 C 296.068 -1.43557 0.983231 0
M  V30 3163 O 297.244 -1.54101 1.29672 0
M  V30 3164 C 294.309 -2.42659 2.47624 0
M  V30 3165 C 293.37 -2.18975 3.69254 0
M  V30 3166 C 292.603 -3.42704 4.09133 0
M  V30 3167 O 292.826 -4.51127 3.49057 0
M  V30 3168 O 291.76 -3.32003 5.02053 0
M  V30 3169 H 295.586 -0.746279 2.94388 0
M  V30 3170 H 293.171 -0.303064 1.46294 0
M  V30 3171 H 295.053 -3.19155 2.7517 0
M  V30 3172 H 293.728 -2.80182 1.62109 0
M  V30 3173 H 292.635 -1.40244 3.46818 0
M  V30 3174 H 293.968 -1.86342 4.55563 0
M  V30 3175 N 295.62 -1.53406 -0.361157 0
M  V30 3176 C 296.869 -1.69022 -1.10066 0
M  V30 3177 C 297.182 -0.450838 -1.90333 0
M  V30 3178 O 298.388 -0.487617 -2.67085 0
M  V30 3179 C 296.844 -2.98812 -2.00598 0
M  V30 3180 C 296.452 -4.30027 -1.25621 0
M  V30 3181 C 298.196 -3.23795 -2.74513 0
M  V30 3182 C 296.103 -5.50903 -2.1508 0
M  V30 3183 H 295.033 -0.629776 -0.414606 0
M  V30 3184 H 297.684 -1.79907 -0.361348 0
M  V30 3185 H 296.066 -2.8174 -2.78278 0
M  V30 3186 H 297.24 -4.57745 -0.529739 0
M  V30 3187 H 295.555 -4.11522 -0.635496 0
M  V30 3188 H 298.152 -4.11289 -3.41681 0
M  V30 3189 H 298.495 -2.40045 -3.40123 0
M  V30 3190 H 299.028 -3.41561 -2.03914 0
M  V30 3191 H 295.767 -6.37143 -1.54041 0
M  V30 3192 H 295.287 -5.27459 -2.85565 0
M  V30 3193 H 296.966 -5.85865 -2.74538 0
M  V30 3194 N 297.098 0.621204 -1.44841 0
M  V30 3195 C 298.338 1.39201 -1.49674 0
M  V30 3196 C 298.702 1.91561 -0.129764 0
M  V30 3197 O 299.903 2.68748 -0.0527814 0
M  V30 3198 C 298.174 2.519 -2.53537 0
M  V30 3199 S 299.733 3.39916 -2.77494 0
M  V30 3200 H 296.551 0.474758 -0.529269 0
M  V30 3201 H 299.153 0.718171 -1.81831 0
M  V30 3202 H 297.857 2.11761 -3.51547 0
M  V30 3203 H 297.388 3.241 -2.22986 0
M  V30 3204 H 299.403 4.49646 -2.0984 0
M  V30 3205 N 298.576 1.31904 0.862503 0
M  V30 3206 C 299.526 1.16772 1.95827 0
M  V30 3207 C 300.51 0.0767098 1.60717 0
M  V30 3208 O 301.702 0.302407 1.74398 0
M  V30 3209 C 298.831 0.884858 3.317 0
M  V30 3210 C 297.917 2.0172 3.73055 0
M  V30 3211 N 298.308 3.265 3.86305 0
M  V30 3212 C 296.606 1.91861 4.02623 0
M  V30 3213 C 297.307 4.00616 4.2176 0
M  V30 3214 N 296.283 3.28847 4.32852 0
M  V30 3215 H 300.085 2.11382 2.04193 0
M  V30 3216 H 297.599 1.2357 1.05377 0
M  V30 3217 H 299.596 0.757419 4.09962 0
M  V30 3218 H 298.256 -0.0529448 3.24657 0
M  V30 3219 H 299.267 3.61529 3.70833 0
M  V30 3220 H 295.944 1.05593 4.03926 0
M  V30 3221 H 297.334 5.08182 4.39546 0
M  V30 3222 N 300.054 -1.07777 1.14986 0
M  V30 3223 C 301.303 -1.79669 0.916617 0
M  V30 3224 C 301.616 -1.87474 -0.557917 0
M  V30 3225 O 302.822 -2.55845 -0.908617 0
M  V30 3226 C 301.278 -3.22848 1.59051 0
M  V30 3227 C 300.886 -3.23257 3.10176 0
M  V30 3228 C 302.63 -3.99379 1.43864 0
M  V30 3229 C 300.537 -4.61063 3.70372 0
M  V30 3230 H 299.467 -0.673349 0.33929 0
M  V30 3231 H 302.118 -1.21003 1.37951 0
M  V30 3232 H 300.5 -3.8168 1.0553 0
M  V30 3233 H 301.674 -2.74095 3.70417 0
M  V30 3234 H 299.989 -2.60222 3.25074 0
M  V30 3235 H 302.586 -5.0122 1.86232 0
M  V30 3236 H 302.929 -4.14511 0.385564 0
M  V30 3237 H 303.462 -3.47032 1.94457 0
M  V30 3238 H 300.201 -4.51135 4.7556 0
M  V30 3239 H 299.721 -5.1048 3.14913 0
M  V30 3240 H 301.4 -5.30034 3.71043 0
M  V30 3241 N 301.532 -0.945985 -1.26051 0
M  V30 3242 C 302.778 -0.597002 -1.93814 0
M  V30 3243 C 303.111 0.862484 -1.73997 0
M  V30 3244 O 302.386 1.61769 -1.07986 0
M  V30 3245 C 302.669 -0.945937 -3.47454 0
M  V30 3246 C 302.522 -2.46052 -3.76535 0
M  V30 3247 C 303.841 -0.464785 -4.37639 0
M  V30 3248 H 300.96 -0.218366 -0.703907 0
M  V30 3249 H 303.602 -1.18107 -1.48831 0
M  V30 3250 H 301.752 -0.448902 -3.85898 0
M  V30 3251 H 303.424 -3.03065 -3.47778 0
M  V30 3252 H 301.667 -2.90194 -3.22444 0
M  V30 3253 H 302.338 -2.65517 -4.83947 0
M  V30 3254 H 304.814 -0.891016 -4.06448 0
M  V30 3255 H 303.69 -0.737712 -5.4392 0
M  V30 3256 H 303.951 0.635274 -4.37512 0
M  V30 3257 N 303.011 1.40521 -0.713556 0
M  V30 3258 C 303.941 2.33381 -0.0743864 0
M  V30 3259 C 304.922 1.52784 0.747735 0
M  V30 3260 O 306.107 1.81258 0.697071 0
M  V30 3261 C 303.237 3.36748 0.849598 0
M  V30 3262 C 302.191 4.27793 0.133247 0
M  V30 3263 C 301.517 5.21679 1.17281 0
M  V30 3264 C 302.817 5.12415 -1.01134 0
M  V30 3265 H 304.511 2.87081 -0.850007 0
M  V30 3266 H 302.057 1.38034 -0.410201 0
M  V30 3267 H 304.01 4.00648 1.30612 0
M  V30 3268 H 302.734 2.81439 1.65709 0
M  V30 3269 H 301.393 3.65342 -0.303426 0
M  V30 3270 H 301.041 4.62677 1.9733 0
M  V30 3271 H 300.741 5.83435 0.698397 0
M  V30 3272 H 302.265 5.88456 1.62947 0
M  V30 3273 H 303.679 5.69781 -0.634274 0
M  V30 3274 H 302.076 5.83203 -1.41399 0
M  V30 3275 H 303.146 4.48514 -1.84292 0
M  V30 3276 N 304.489 0.459591 1.5075 0
M  V30 3277 C 305.437 -0.354678 2.2988 0
M  V30 3278 C 306.431 -1.00086 1.36672 0
M  V30 3279 O 307.637 -0.933277 1.53915 0
M  V30 3280 H 304.012 -0.13321 0.740107 0
M  V30 3281 H 305.983 0.333269 2.96533 0
M  V30 3282 C 304.732 -1.43073 3.169 0
M  V30 3283 H 304.055 -0.942882 3.88523 0
M  V30 3284 H 305.495 -1.97328 3.75284 0
M  V30 3285 C 303.954 -2.42633 2.33732 0
M  V30 3286 O 304.484 -3.47658 2.01238 0
M  V30 3287 N 302.69 -2.14066 1.9653 0
M  V30 3288 H 302.237 -1.28685 2.23155 0
M  V30 3289 H 302.195 -2.80917 1.41185 0
M  V30 3290 N 305.967 -1.56429 0.191757 0
M  V30 3291 C 307.195 -2.01867 -0.453586 0
M  V30 3292 C 307.61 -1.07191 -1.5542 0
M  V30 3293 O 306.967 -0.0762108 -1.82341 0
M  V30 3294 C 307.018 -3.47017 -1.013 0
M  V30 3295 O 306.739 -4.38078 0.0437005 0
M  V30 3296 C 308.24 -4.07956 -1.73456 0
M  V30 3297 H 305.46 -0.661211 -0.114199 0
M  V30 3298 H 308.004 -2.02295 0.299483 0
M  V30 3299 H 306.159 -3.47298 -1.71647 0
M  V30 3300 H 306.573 -5.23178 -0.372212 0
M  V30 3301 H 308.047 -5.1138 -2.07833 0
M  V30 3302 H 308.524 -3.51222 -2.63704 0
M  V30 3303 H 309.13 -4.11437 -1.07702 0
M  V30 3304 N 307.445 0.0818655 -1.57387 0
M  V30 3305 C 308.673 0.796108 -1.9097 0
M  V30 3306 C 309.088 1.71626 -0.786757 0
M  V30 3307 O 308.445 1.80908 0.240513 0
M  V30 3308 C 308.496 1.59829 -3.24248 0
M  V30 3309 O 308.217 0.715131 -4.32224 0
M  V30 3310 C 309.718 2.41442 -3.7178 0
M  V30 3311 H 306.938 0.22691 -0.631469 0
M  V30 3312 H 309.482 0.0551439 -2.04426 0
M  V30 3313 H 307.637 2.29163 -3.12351 0
M  V30 3314 H 308.051 1.27205 -5.08841 0
M  V30 3315 H 309.525 2.932 -4.67694 0
M  V30 3316 H 310.002 3.2051 -3.00283 0
M  V30 3317 H 310.608 1.77283 -3.86589 0
M  V30 3318 N 308.923 1.53595 0.353017 0
M  V30 3319 C 310.17 1.70385 1.09431 0
M  V30 3320 C 310.498 0.462113 1.88931 0
M  V30 3321 O 309.753 -0.556074 1.87633 0
M  V30 3322 C 310.052 2.91313 2.07054 0
M  V30 3323 C 309.718 4.27308 1.43939 0
M  V30 3324 C 308.38 4.64287 1.26454 0
M  V30 3325 C 310.732 5.11829 0.983883 0
M  V30 3326 C 308.06 5.83412 0.620226 0
M  V30 3327 C 310.412 6.31611 0.353516 0
M  V30 3328 C 309.076 6.67293 0.166272 0
M  V30 3329 H 308.346 0.623484 0.400436 0
M  V30 3330 H 310.993 1.87799 0.374655 0
M  V30 3331 H 309.298 2.68463 2.85368 0
M  V30 3332 H 310.995 3.01497 2.64387 0
M  V30 3333 H 307.585 3.98198 1.58543 0
M  V30 3334 H 311.769 4.838 1.10685 0
M  V30 3335 H 307.025 6.09639 0.463681 0
M  V30 3336 H 311.199 6.964 -0.00757555 0
M  V30 3337 H 308.826 7.59461 -0.335047 0
M  V30 3338 N 310.401 -0.613514 1.45168 0
M  V30 3339 C 311.641 -1.38405 1.5041 0
M  V30 3340 C 312.005 -1.91489 0.139922 0
M  V30 3341 O 313.206 -2.68716 0.067033 0
M  V30 3342 C 311.477 -2.50552 2.5487 0
M  V30 3343 S 313.036 -3.38439 2.79292 0
M  V30 3344 H 309.854 -0.471945 0.531779 0
M  V30 3345 H 312.456 -0.708518 1.82209 0
M  V30 3346 H 311.16 -2.09894 3.52665 0
M  V30 3347 H 310.691 -3.22913 2.24701 0
M  V30 3348 H 312.706 -4.48527 2.12222 0
M  V30 3349 N 311.879 -1.3236 -0.855495 0
M  V30 3350 C 312.809 -1.23833 -1.97958 0
M  V30 3351 C 313.79 -0.122361 -1.69659 0
M  V30 3352 O 314.975 -0.30939 -1.9172 0
M  V30 3353 C 312.105 -0.959772 -3.33775 0
M  V30 3354 C 311.059 -2.03689 -3.76424 0
M  V30 3355 C 310.385 -1.61075 -5.09862 0
M  V30 3356 C 311.685 -3.4518 -3.9198 0
M  V30 3357 H 313.379 -2.1788 -2.0535 0
M  V30 3358 H 310.925 -1.04891 -0.986605 0
M  V30 3359 H 312.878 -0.886678 -4.11966 0
M  V30 3360 H 311.602 0.0163404 -3.26596 0
M  V30 3361 H 310.261 -2.10012 -3.00484 0
M  V30 3362 H 309.909 -0.622107 -4.99138 0
M  V30 3363 H 309.609 -2.33143 -5.39368 0
M  V30 3364 H 311.133 -1.55201 -5.90546 0
M  V30 3365 H 312.547 -3.4145 -4.60526 0
M  V30 3366 H 310.944 -4.1559 -4.32903 0
M  V30 3367 H 312.014 -3.84903 -2.94919 0
M  V30 3368 N 313.357 1.07166 -1.15556 0
M  V30 3369 C 314.289 2.14341 -0.811815 0
M  V30 3370 C 315.302 1.61835 0.177015 0
M  V30 3371 O 316.491 1.78439 -0.0464996 0
M  V30 3372 C 313.591 3.38387 -0.186481 0
M  V30 3373 C 312.764 4.20238 -1.21321 0
M  V30 3374 C 311.823 5.2266 -0.609302 0
M  V30 3375 O 310.849 5.54719 -1.27576 0
M  V30 3376 N 312.051 5.77306 0.608099 0
M  V30 3377 H 314.816 2.44431 -1.73417 0
M  V30 3378 H 312.377 1.23089 -1.0517 0
M  V30 3379 H 314.369 4.04044 0.230339 0
M  V30 3380 H 312.939 3.05994 0.639249 0
M  V30 3381 H 312.159 3.50369 -1.80652 0
M  V30 3382 H 313.447 4.71736 -1.90638 0
M  V30 3383 H 312.845 5.53513 1.1679 0
M  V30 3384 H 311.402 6.44583 0.96725 0
M  V30 3385 N 314.835 0.952656 1.25548 0
M  V30 3386 C 316.063 0.623496 1.97282 0
M  V30 3387 C 316.478 -0.803987 1.70826 0
M  V30 3388 O 315.835 -1.53755 0.983147 0
M  V30 3389 C 315.886 0.870209 3.5087 0
M  V30 3390 O 315.607 2.24156 3.76412 0
M  V30 3391 C 317.108 0.553164 4.39835 0
M  V30 3392 H 314.328 0.233931 0.628902 0
M  V30 3393 H 316.872 1.27649 1.59768 0
M  V30 3394 H 315.027 0.263652 3.86502 0
M  V30 3395 H 315.441 2.31021 4.70882 0
M  V30 3396 H 316.915 0.776342 5.46513 0
M  V30 3397 H 317.392 -0.512215 4.36203 0
M  V30 3398 H 317.998 1.13896 4.09766 0
M  V30 3399 N 316.313 -1.40141 0.720998 0
M  V30 3400 C 317.245 -2.29177 0.0324669 0
M  V30 3401 C 318.258 -1.46105 -0.718126 0
M  V30 3402 O 319.447 -1.69335 -0.564608 0
M  V30 3403 C 316.547 -3.24473 -0.978292 0
M  V30 3404 C 315.72 -4.36423 -0.292115 0
M  V30 3405 C 314.779 -5.12122 -1.20901 0
M  V30 3406 O 313.805 -5.64981 -0.691766 0
M  V30 3407 N 315.007 -5.21992 -2.53978 0
M  V30 3408 H 317.772 -2.88909 0.796984 0
M  V30 3409 H 315.333 -1.51569 0.569068 0
M  V30 3410 H 317.325 -3.71987 -1.59398 0
M  V30 3411 H 315.895 -2.65871 -1.64413 0
M  V30 3412 H 315.115 -3.90967 0.503847 0
M  V30 3413 H 316.403 -5.08467 0.183971 0
M  V30 3414 H 315.801 -4.8054 -2.98493 0
M  V30 3415 H 314.358 -5.72995 -3.10677 0
M  V30 3416 N 317.792 -0.46758 -1.50504 0
M  V30 3417 C 318.74 0.342482 -2.30065 0
M  V30 3418 C 319.734 0.993596 -1.37201 0
M  V30 3419 O 320.94 0.925102 -1.54408 0
M  V30 3420 H 317.315 0.129283 -0.740803 0
M  V30 3421 H 319.286 -0.34899 -2.96352 0
M  V30 3422 C 318.035 1.4139 -3.17654 0
M  V30 3423 H 317.358 0.922264 -3.89017 0
M  V30 3424 H 318.798 1.95335 -3.76325 0
M  V30 3425 C 317.257 2.4139 -2.35016 0
M  V30 3426 O 317.787 3.46586 -2.03079 0
M  V30 3427 N 315.993 2.13021 -1.97662 0
M  V30 3428 H 315.54 1.27499 -2.23834 0
M  V30 3429 H 315.498 2.80164 -1.42673 0
M  V30 3430 N 319.27 1.56325 -0.20005 0
M  V30 3431 C 320.517 1.97719 0.437411 0
M  V30 3432 C 320.845 1.08709 1.61284 0
M  V30 3433 O 320.1 0.127261 1.95286 0
M  V30 3434 C 320.399 3.4495 0.935103 0
M  V30 3435 C 320.065 4.5072 -0.12749 0
M  V30 3436 C 318.727 4.79368 -0.419451 0
M  V30 3437 C 321.079 5.14268 -0.847231 0
M  V30 3438 C 318.407 5.68854 -1.43604 0
M  V30 3439 C 320.759 6.04852 -1.85301 0
M  V30 3440 C 319.423 6.31855 -2.15211 0
M  V30 3441 H 318.693 0.723507 0.16006 0
M  V30 3442 H 321.34 1.89166 -0.298056 0
M  V30 3443 H 319.645 3.50599 1.74894 0
M  V30 3444 H 321.342 3.74337 1.43781 0
M  V30 3445 H 317.932 4.28458 0.11023 0
M  V30 3446 H 322.116 4.92222 -0.634901 0
M  V30 3447 H 317.372 5.88047 -1.67364 0
M  V30 3448 H 321.546 6.53152 -2.41591 0
M  V30 3449 H 319.173 7.00994 -2.94129 0
M  V30 3450 N 320.748 -0.0735177 1.57428 0
M  V30 3451 C 321.678 -1.0879 2.06608 0
M  V30 3452 C 322.659 -1.40473 0.959237 0
M  V30 3453 O 323.844 -1.5013 1.23185 0
M  V30 3454 C 320.974 -2.40183 2.50857 0
M  V30 3455 C 319.928 -2.22858 3.65402 0
M  V30 3456 C 319.254 -3.59619 3.957 0
M  V30 3457 C 320.554 -1.65123 4.95511 0
M  V30 3458 H 322.248 -0.678673 2.91607 0
M  V30 3459 H 319.794 -0.325013 1.40284 0
M  V30 3460 H 321.747 -3.11437 2.83874 0
M  V30 3461 H 320.471 -2.83083 1.62885 0
M  V30 3462 H 319.13 -1.54045 3.32664 0
M  V30 3463 H 318.778 -4.00086 3.04861 0
M  V30 3464 H 318.478 -3.48866 4.72828 0
M  V30 3465 H 320.002 -4.32306 4.31212 0
M  V30 3466 H 321.416 -2.26241 5.26771 0
M  V30 3467 H 319.813 -1.65071 5.7695 0
M  V30 3468 H 320.883 -0.612559 4.81015 0
M  V30 3469 N 322.226 -1.5378 -0.344866 0
M  V30 3470 C 323.466 -1.72677 -1.09371 0
M  V30 3471 C 323.83 -0.479084 -1.85927 0
M  V30 3472 O 325.031 -0.54505 -2.63216 0
M  V30 3473 C 323.302 -2.95457 -2.01097 0
M  V30 3474 S 324.861 -3.35158 -2.83222 0
M  V30 3475 H 321.679 -0.607402 -0.369573 0
M  V30 3476 H 324.281 -1.91922 -0.372307 0
M  V30 3477 H 322.985 -3.84437 -1.43655 0
M  V30 3478 H 322.516 -2.78673 -2.77678 0
M  V30 3479 H 324.531 -2.88789 -4.03504 0
M  V30 3480 N 323.704 0.605807 -1.45491 0
M  V30 3481 C 324.952 1.36207 -1.49305 0
M  V30 3482 C 325.273 1.94519 -0.136863 0
M  V30 3483 O 324.543 1.77261 0.833983 0
M  V30 3484 H 323.123 0.50565 -0.549843 0
M  V30 3485 H 325.785 0.711239 -1.81459 0
M  V30 3486 H 324.881 2.18058 -2.23287 0
M  V30 3487 N 325.182 1.32811 0.848464 0
M  V30 3488 C 326.593 1.21315 1.41914 0
M  V30 3489 C 326.944 -0.171847 1.95446 0
M  V30 3490 O 326.069 -1.07093 1.88043 0
M  V30 3491 C 326.664 2.19631 2.57968 0
M  V30 3492 C 325.223 2.12003 3.11017 0
M  V30 3493 C 324.37 2.07651 1.83783 0
M  V30 3494 H 327.321 1.44549 0.655071 0
M  V30 3495 H 327.342 1.79845 3.35315 0
M  V30 3496 H 326.854 3.20423 2.18976 0
M  V30 3497 H 324.955 1.14481 3.54577 0
M  V30 3498 H 325.068 3.02111 3.71841 0
M  V30 3499 H 323.432 1.52983 2.03638 0
M  V30 3500 H 324.215 3.10235 1.47 0
M  V30 3501 N 326.66 -1.06551 1.16123 0
M  V30 3502 C 327.59 -2.15935 0.88851 0
M  V30 3503 C 328.571 -1.69306 -0.164135 0
M  V30 3504 O 329.756 -1.94193 -0.0167857 0
M  V30 3505 C 326.886 -3.45149 0.385942 0
M  V30 3506 C 325.84 -4.05271 1.3762 0
M  V30 3507 C 325.166 -5.29664 0.732137 0
M  V30 3508 C 326.466 -4.44355 2.74493 0
M  V30 3509 H 328.16 -2.39006 1.80323 0
M  V30 3510 H 325.706 -1.14866 0.868435 0
M  V30 3511 H 327.659 -4.21004 0.182647 0
M  V30 3512 H 326.383 -3.21689 -0.564274 0
M  V30 3513 H 325.042 -3.3147 1.56599 0
M  V30 3514 H 324.69 -5.02499 -0.224483 0
M  V30 3515 H 324.39 -5.70848 1.39307 0
M  V30 3516 H 325.914 -6.08218 0.538802 0
M  V30 3517 H 327.328 -5.11303 2.59311 0
M  V30 3518 H 325.725 -4.96515 3.37035 0
M  V30 3519 H 326.795 -3.55339 3.29943 0
M  V30 3520 N 328.138 -0.959301 -1.25041 0
M  V30 3521 C 329.554 -0.664474 -1.4511 0
M  V30 3522 C 329.754 0.776481 -1.85938 0
M  V30 3523 O 328.81 1.55128 -1.99227 0
M  V30 3524 C 330.123 -1.64139 -2.5195 0
M  V30 3525 C 331.671 -1.65309 -2.65786 0
M  V30 3526 C 332.146 -2.61777 -3.75815 0
M  V30 3527 N 333.637 -2.60169 -3.83231 0
M  V30 3528 C 334.372 -3.31489 -4.6787 0
M  V30 3529 N 333.868 -4.12298 -5.56761 0
M  V30 3530 N 335.661 -3.20354 -4.61876 0
M  V30 3531 H 327.812 -1.89043 -0.968332 0
M  V30 3532 H 330.075 -0.813408 -0.4869 0
M  V30 3533 H 329.781 -2.67086 -2.28819 0
M  V30 3534 H 329.655 -1.40756 -3.49954 0
M  V30 3535 H 332.042 -0.630778 -2.8828 0
M  V30 3536 H 332.123 -1.92753 -1.68167 0
M  V30 3537 H 331.767 -3.64137 -3.54071 0
M  V30 3538 H 331.697 -2.31616 -4.72929 0
M  V30 3539 H 334.188 -2.01507 -3.19692 0
M  V30 3540 H 334.501 -4.63625 -6.18281 0
M  V30 3541 H 332.846 -4.16395 -5.56454 0
M  V30 3542 H 336.037 -2.56692 -3.91442 0
M  V30 3543 H 336.21 -3.76201 -5.27614 0
M  V30 3544 N 329.616 1.39756 -0.72842 0
M  V30 3545 C 330.846 2.04651 -0.283117 0
M  V30 3546 C 331.254 1.5502 1.08469 0
M  V30 3547 O 330.597 0.707343 1.69536 0
M  V30 3548 C 330.659 3.58947 -0.199309 0
M  V30 3549 C 330.323 4.31525 -1.5045 0
M  V30 3550 C 331.32 4.5861 -2.44894 0
M  V30 3551 C 329.005 4.70195 -1.76698 0
M  V30 3552 C 330.999 5.23366 -3.63822 0
M  V30 3553 C 328.686 5.3468 -2.95906 0
M  V30 3554 C 329.684 5.61198 -3.89289 0
M  V30 3555 O 329.372 6.24347 -5.06404 0
M  V30 3556 H 329.104 0.664777 -0.122666 0
M  V30 3557 H 331.658 1.79913 -0.990987 0
M  V30 3558 H 329.888 3.82556 0.56461 0
M  V30 3559 H 331.577 4.0534 0.213125 0
M  V30 3560 H 332.343 4.29187 -2.25883 0
M  V30 3561 H 328.222 4.48916 -1.04859 0
M  V30 3562 H 331.766 5.4398 -4.36728 0
M  V30 3563 H 327.663 5.63524 -3.14819 0
M  V30 3564 H 328.431 6.42842 -5.06652 0
M  V30 3565 N 331.094 0.475555 1.50254 0
M  V30 3566 C 332.322 -0.0754493 2.06762 0
M  V30 3567 C 332.737 -1.33111 1.33891 0
M  V30 3568 O 332.094 -1.77846 0.40952 0
M  V30 3569 C 332.145 -0.359008 3.59713 0
M  V30 3570 O 331.866 0.846851 4.29837 0
M  V30 3571 C 333.367 -0.956484 4.32858 0
M  V30 3572 H 330.587 0.00907525 0.670939 0
M  V30 3573 H 333.131 0.665618 1.93364 0
M  V30 3574 H 331.286 -1.05001 3.72899 0
M  V30 3575 H 331.7 0.594162 5.21124 0
M  V30 3576 H 333.174 -1.10463 5.40834 0
M  V30 3577 H 333.651 -1.94775 3.93649 0
M  V30 3578 H 334.257 -0.303723 4.24214 0
M  V30 3579 N 332.573 -1.56217 0.208337 0
M  V30 3580 C 333.822 -1.97124 -0.427204 0
M  V30 3581 C 334.135 -1.09859 -1.61835 0
M  V30 3582 O 335.341 -1.40606 -2.32255 0
M  V30 3583 C 333.797 -3.50633 -0.811442 0
M  V30 3584 C 333.405 -4.46582 0.35615 0
M  V30 3585 C 335.149 -4.00282 -1.41332 0
M  V30 3586 C 333.056 -5.91379 -0.0497852 0
M  V30 3587 H 331.986 -0.736086 -0.163381 0
M  V30 3588 H 334.637 -1.8099 0.302456 0
M  V30 3589 H 333.019 -3.62319 -1.59815 0
M  V30 3590 H 334.193 -4.46636 1.1337 0
M  V30 3591 H 332.508 -4.07202 0.870396 0
M  V30 3592 H 335.105 -5.0595 -1.72972 0
M  V30 3593 H 335.448 -3.45359 -2.32449 0
M  V30 3594 H 335.981 -3.91764 -0.690323 0
M  V30 3595 H 332.72 -6.50255 0.827529 0
M  V30 3596 H 332.24 -5.94549 -0.791926 0
M  V30 3597 H 333.919 -6.45209 -0.481042 0
M  V30 3598 N 334.051 0.0651679 -1.57465 0
M  V30 3599 C 334.961 1.09448 -2.07505 0
M  V30 3600 C 335.977 1.41974 -1.00595 0
M  V30 3601 O 337.153 1.52018 -1.32107 0
M  V30 3602 C 334.218 2.38689 -2.51453 0
M  V30 3603 C 333.279 2.13073 -3.72691 0
M  V30 3604 C 332.512 3.36152 -4.14533 0
M  V30 3605 O 332.735 4.45517 -3.56189 0
M  V30 3606 O 331.669 3.23974 -5.07272 0
M  V30 3607 H 335.495 0.69935 -2.95538 0
M  V30 3608 H 333.08 0.279752 -1.46757 0
M  V30 3609 H 334.962 3.14736 -2.80212 0
M  V30 3610 H 333.637 2.77568 -1.66546 0
M  V30 3611 H 332.544 1.34709 -3.49005 0
M  V30 3612 H 333.877 1.79071 -4.5847 0
M  V30 3613 N 335.529 1.53961 0.336706 0
M  V30 3614 C 336.806 1.62171 1.09361 0
M  V30 3615 C 337.186 0.447263 2.06307 0
M  V30 3616 O 336.534 -0.559802 2.21537 0
M  V30 3617 C 336.744 2.98565 1.80721 0
M  V30 3618 C 338.092 3.54157 2.34218 0
M  V30 3619 O 339.116 3.00784 1.90807 0
M  V30 3620 O 337.975 4.47528 3.13657 0
M  V30 3621 H 335.069 0.6562 0.503319 0
M  V30 3622 H 337.615 1.66307 0.33765 0
M  V30 3623 H 336.387 3.75482 1.10132 0
M  V30 3624 H 336.01 2.9805 2.63158 0
M  V30 3625 N 337.007 -0.598083 1.45811 0
M  V30 3626 C 338.255 -1.35413 1.50026 0
M  V30 3627 C 338.576 -1.94444 0.147177 0
M  V30 3628 O 337.846 -1.77701 -0.824571 0
M  V30 3629 H 336.426 -0.502727 0.552517 0
M  V30 3630 H 339.088 -0.701606 1.81834 0
M  V30 3631 H 338.184 -2.16871 2.2444 0
M  V30 3632 N 338.485 -1.33259 -0.841409 0
M  V30 3633 C 339.448 -1.23221 -1.9326 0
M  V30 3634 C 340.448 -0.151895 -1.60081 0
M  V30 3635 O 341.638 -0.403246 -1.69468 0
M  V30 3636 C 338.77 -0.898123 -3.28856 0
M  V30 3637 H 339.963 -2.2021 -2.03587 0
M  V30 3638 H 337.516 -1.17281 -1.03319 0
M  V30 3639 H 338.251 0.0693841 -3.24226 0
M  V30 3640 H 338.036 -1.67934 -3.54317 0
M  V30 3641 H 339.526 -0.852563 -4.08805 0
M  V30 3642 N 339.963 1.05934 -1.16686 0
M  V30 3643 C 341.379 1.30938 -0.912542 0
M  V30 3644 C 341.579 1.96803 0.432533 0
M  V30 3645 O 340.635 2.23693 1.17123 0
M  V30 3646 C 341.948 2.18649 -2.06429 0
M  V30 3647 C 343.496 2.32055 -2.10047 0
M  V30 3648 C 343.971 3.23122 -3.24586 0
M  V30 3649 N 345.462 3.30706 -3.24327 0
M  V30 3650 C 346.197 4.01273 -4.09594 0
M  V30 3651 N 345.693 4.74332 -5.04956 0
M  V30 3652 N 347.486 3.97361 -3.97569 0
M  V30 3653 H 339.637 0.615777 -2.03278 0
M  V30 3654 H 341.9 0.334077 -0.887185 0
M  V30 3655 H 341.606 1.77534 -3.03603 0
M  V30 3656 H 341.48 3.19252 -2.00894 0
M  V30 3657 H 343.867 2.72415 -1.13464 0
M  V30 3658 H 343.948 1.31107 -2.19647 0
M  V30 3659 H 343.592 2.83477 -4.2143 0
M  V30 3660 H 343.522 4.24057 -3.12223 0
M  V30 3661 H 346.013 2.78644 -2.55276 0
M  V30 3662 H 346.326 5.25716 -5.6643 0
M  V30 3663 H 344.671 4.733 -5.08933 0
M  V30 3664 H 347.862 3.39405 -3.22369 0
M  V30 3665 H 348.035 4.52089 -4.64241 0
M  V30 3666 N 341.441 0.965919 1.2453 0
M  V30 3667 C 342.687 0.62776 1.92839 0
M  V30 3668 C 343.02 -0.834694 1.75347 0
M  V30 3669 O 342.295 -1.60031 1.10546 0
M  V30 3670 C 342.578 1.00109 3.45905 0
M  V30 3671 C 342.431 2.52011 3.72573 0
M  V30 3672 C 343.75 0.53435 4.36844 0
M  V30 3673 H 340.869 0.229537 0.700344 0
M  V30 3674 H 343.511 1.2046 1.46933 0
M  V30 3675 H 341.661 0.510238 3.85135 0
M  V30 3676 H 343.333 3.08559 3.42912 0
M  V30 3677 H 341.576 2.95287 3.17786 0
M  V30 3678 H 342.247 2.73183 4.79661 0
M  V30 3679 H 344.723 0.955565 4.04979 0
M  V30 3680 H 343.599 0.824152 5.42678 0
M  V30 3681 H 343.86 -0.565589 4.38467 0
M  V30 3682 N 342.919 -1.39368 0.735821 0
M  V30 3683 C 344.144 -2.05319 0.293052 0
M  V30 3684 C 344.569 -1.55115 -1.064 0
M  V30 3685 O 343.927 -0.695261 -1.67439 0
M  V30 3686 C 343.975 -3.59305 0.305323 0
M  V30 3687 O 343.079 -4.06299 -0.706761 0
M  V30 3688 H 342.42 -0.650529 0.13307 0
M  V30 3689 H 344.95 -1.78386 1.00197 0
M  V30 3690 H 344.96 -4.07724 0.149997 0
M  V30 3691 H 343.635 -3.95207 1.29553 0
M  V30 3692 H 342.212 -3.69292 -0.517504 0
M  V30 3693 N 344.397 -0.483516 -1.5 0
M  V30 3694 C 345.808 -0.0314176 -1.86674 0
M  V30 3695 C 346.159 1.37728 -1.39733 0
M  V30 3696 O 345.284 2.02327 -0.767635 0
M  V30 3697 C 345.879 -0.0502376 -3.38763 0
M  V30 3698 C 344.438 0.346442 -3.74802 0
M  V30 3699 C 343.585 -0.430366 -2.7394 0
M  V30 3700 H 346.536 -0.697182 -1.42566 0
M  V30 3701 H 346.557 0.749116 -3.73053 0
M  V30 3702 H 346.069 -1.07563 -3.72897 0
M  V30 3703 H 344.17 1.37572 -3.46273 0
M  V30 3704 H 344.283 0.0391486 -4.79084 0
M  V30 3705 H 342.647 0.117557 -2.54429 0
M  V30 3706 H 343.43 -1.4555 -3.10918 0
M  V30 3707 N 345.875 1.56104 -0.216619 0
M  V30 3708 C 347.103 2.02563 0.421413 0
M  V30 3709 C 347.518 1.0965 1.53695 0
M  V30 3710 O 346.875 0.10521 1.82196 0
M  V30 3711 C 346.926 3.48584 0.957665 0
M  V30 3712 O 346.647 4.37953 -0.113389 0
M  V30 3713 C 348.148 4.10664 1.66943 0
M  V30 3714 H 345.368 0.662944 0.103665 0
M  V30 3715 H 347.912 2.01793 -0.331629 0
M  V30 3716 H 346.067 3.49985 1.661 0
M  V30 3717 H 346.481 5.23704 0.288932 0
M  V30 3718 H 347.955 5.14622 1.99671 0
M  V30 3719 H 348.432 3.55373 2.58083 0
M  V30 3720 H 349.038 4.13098 1.01142 0
M  V30 3721 N 347.353 -0.0568162 1.57498 0
M  V30 3722 C 348.599 -0.75422 1.88253 0
M  V30 3723 C 348.932 -1.76461 0.810865 0
M  V30 3724 O 348.207 -1.93691 -0.177259 0
M  V30 3725 C 348.49 -1.44878 3.2967 0
M  V30 3726 C 348.343 -0.453789 4.47505 0
M  V30 3727 C 349.662 -2.38994 3.69554 0
M  V30 3728 H 346.781 -0.272724 0.684683 0
M  V30 3729 H 349.423 -0.0172113 1.89992 0
M  V30 3730 H 347.573 -2.077 3.28318 0
M  V30 3731 H 349.245 0.170371 4.60985 0
M  V30 3732 H 347.488 0.229552 4.33192 0
M  V30 3733 H 348.159 -0.977699 5.43273 0
M  V30 3734 H 350.635 -1.86239 3.72095 0
M  V30 3735 H 349.511 -2.84587 4.69363 0
M  V30 3736 H 349.772 -3.24461 3.00296 0
M  V30 3737 N 348.832 -1.54138 -0.328536 0
M  V30 3738 C 350.08 -1.71765 -1.06496 0
M  V30 3739 C 350.401 -0.49149 -1.88704 0
M  V30 3740 O 349.671 0.494539 -1.89555 0
M  V30 3741 H 348.251 -0.633295 -0.396164 0
M  V30 3742 H 350.913 -1.91429 -0.366176 0
M  V30 3743 H 350.009 -2.5951 -1.73381 0
M  V30 3744 N 350.31 0.590341 -1.46126 0
M  V30 3745 C 351.557 1.34882 -1.5104 0
M  V30 3746 C 351.885 1.93849 -0.159021 0
M  V30 3747 O 351.14 1.76544 0.844436 0
M  V30 3748 C 351.439 2.5032 -2.55097 0
M  V30 3749 C 351.105 2.09394 -3.99331 0
M  V30 3750 C 349.767 1.97947 -4.38601 0
M  V30 3751 C 352.119 1.77712 -4.89967 0
M  V30 3752 C 349.447 1.53065 -5.66381 0
M  V30 3753 C 351.799 1.34312 -6.18177 0
M  V30 3754 C 350.463 1.21436 -6.56361 0
M  V30 3755 H 349.733 0.493568 -0.552695 0
M  V30 3756 H 352.38 0.665539 -1.79563 0
M  V30 3757 H 350.685 3.24062 -2.20207 0
M  V30 3758 H 352.382 3.08541 -2.56132 0
M  V30 3759 H 348.972 2.19235 -3.68285 0
M  V30 3760 H 353.156 1.85445 -4.60352 0
M  V30 3761 H 348.412 1.41733 -5.94745 0
M  V30 3762 H 352.586 1.08849 -6.87841 0
M  V30 3763 H 350.213 0.864345 -7.5527 0
M  V30 3764 N 351.788 1.33704 0.83433 0
M  V30 3765 C 352.72 1.20172 1.9517 0
M  V30 3766 C 353.733 0.131572 1.62267 0
M  V30 3767 O 354.922 0.382406 1.74356 0
M  V30 3768 C 352.022 0.821716 3.28787 0
M  V30 3769 C 351.195 1.98446 3.89792 0
M  V30 3770 C 350.254 1.58469 5.01771 0
M  V30 3771 O 349.28 2.29968 5.20676 0
M  V30 3772 N 350.482 0.492291 5.78409 0
M  V30 3773 H 353.247 2.16429 2.07313 0
M  V30 3774 H 350.808 1.26509 1.0103 0
M  V30 3775 H 352.8 0.536291 4.01131 0
M  V30 3776 H 351.37 -0.0503058 3.1256 0
M  V30 3777 H 350.59 2.43526 3.09982 0
M  V30 3778 H 351.878 2.76236 4.27283 0
M  V30 3779 H 351.276 -0.102349 5.65607 0
M  V30 3780 H 349.833 0.266555 6.51255 0
M  V30 3781 N 353.266 -1.05314 1.17247 0
M  V30 3782 C 354.512 -1.78557 0.961513 0
M  V30 3783 C 354.845 -1.87419 -0.508697 0
M  V30 3784 O 354.12 -1.37307 -1.37757 0
M  V30 3785 C 354.403 -3.22514 1.60176 0
M  V30 3786 C 354.256 -3.21673 3.14399 0
M  V30 3787 C 355.575 -4.20318 1.30463 0
M  V30 3788 H 352.694 -0.6482 0.350723 0
M  V30 3789 H 355.336 -1.23102 1.44727 0
M  V30 3790 H 353.486 -3.69867 1.18871 0
M  V30 3791 H 355.158 -2.82405 3.64753 0
M  V30 3792 H 353.401 -2.60048 3.47214 0
M  V30 3793 H 354.072 -4.23271 3.54324 0
M  V30 3794 H 356.548 -3.81454 1.66229 0
M  V30 3795 H 355.424 -5.19289 1.77848 0
M  V30 3796 H 355.685 -4.41526 0.22521 0
M  V30 3797 N 354.744 -0.972509 -1.24016 0
M  V30 3798 C 355.654 -0.5143 -2.28893 0
M  V30 3799 C 356.67 0.427078 -1.68677 0
M  V30 3800 O 357.846 0.298939 -1.99169 0
M  V30 3801 C 354.911 0.183598 -3.46214 0
M  V30 3802 C 353.972 -0.798202 -4.21814 0
M  V30 3803 C 353.205 -0.133514 -5.33533 0
M  V30 3804 O 353.428 1.07714 -5.60137 0
M  V30 3805 O 352.362 -0.828103 -5.96176 0
M  V30 3806 H 356.188 -1.38629 -2.70214 0
M  V30 3807 H 353.773 -0.739769 -1.29799 0
M  V30 3808 H 355.655 0.575433 -4.17453 0
M  V30 3809 H 354.33 1.03048 -3.0686 0
M  V30 3810 H 353.237 -1.24059 -3.52931 0
M  V30 3811 H 354.57 -1.61364 -4.64997 0
M  V30 3812 N 356.222 1.38976 -0.743202 0
M  V30 3813 C 357.469 2.00343 -0.294752 0
M  V30 3814 C 357.797 1.58983 1.12047 0
M  V30 3815 O 357.052 0.813809 1.77977 0
M  V30 3816 C 357.351 3.55647 -0.353517 0
M  V30 3817 C 357.017 4.16685 -1.72292 0
M  V30 3818 C 355.679 4.3307 -2.09771 0
M  V30 3819 C 358.031 4.50464 -2.62168 0
M  V30 3820 C 355.359 4.80526 -3.36618 0
M  V30 3821 C 357.711 4.99332 -3.88395 0
M  V30 3822 C 356.375 5.13924 -4.25956 0
M  V30 3823 H 355.645 0.733108 -0.107857 0
M  V30 3824 H 358.292 1.6618 -0.951651 0
M  V30 3825 H 356.597 3.89884 0.386954 0
M  V30 3826 H 358.294 4.00998 0.0117269 0
M  V30 3827 H 354.884 4.04339 -1.42155 0
M  V30 3828 H 359.068 4.37416 -2.3448 0
M  V30 3829 H 354.324 4.90008 -3.65653 0
M  V30 3830 H 358.498 5.2444 -4.58187 0
M  V30 3831 H 356.125 5.50457 -5.2431 0
M  V30 3832 N 357.7 0.491464 1.49741 0
M  V30 3833 C 358.63 -0.28154 2.31796 0
M  V30 3834 C 359.611 -0.971473 1.3963 0
M  V30 3835 O 360.796 -0.964719 1.68543 0
M  V30 3836 C 357.926 -1.35203 3.19902 0
M  V30 3837 C 356.88 -0.782529 4.20786 0
M  V30 3838 C 356.206 -1.95283 4.97764 0
M  V30 3839 C 357.506 0.21999 5.21837 0
M  V30 3840 H 359.2 0.403355 2.96671 0
M  V30 3841 H 356.746 0.195425 1.42668 0
M  V30 3842 H 358.699 -1.90045 3.76113 0
M  V30 3843 H 357.423 -2.06598 2.52953 0
M  V30 3844 H 356.082 -0.255928 3.65706 0
M  V30 3845 H 355.73 -2.65423 4.2727 0
M  V30 3846 H 355.43 -1.57789 5.66018 0
M  V30 3847 H 356.954 -2.50577 5.56816 0
M  V30 3848 H 358.368 -0.23996 5.72798 0
M  V30 3849 H 356.765 0.51026 5.97927 0
M  V30 3850 H 357.835 1.13911 4.7133 0
M  V30 3851 N 359.178 -1.55987 0.224894 0
M  V30 3852 C 360.088 -2.24066 -0.69511 0
M  V30 3853 C 361.104 -1.24939 -1.21104 0
M  V30 3854 O 362.28 -1.5776 -1.25195 0
M  V30 3855 C 359.345 -2.90983 -1.88493 0
M  V30 3856 C 358.406 -4.05462 -1.41064 0
M  V30 3857 C 357.639 -4.69179 -2.54375 0
M  V30 3858 O 357.862 -4.31895 -3.72589 0
M  V30 3859 O 356.796 -5.58108 -2.25386 0
M  V30 3860 H 360.622 -3.03353 -0.145149 0
M  V30 3861 H 358.207 -1.49399 -0.00569476 0
M  V30 3862 H 360.089 -3.33209 -2.57972 0
M  V30 3863 H 358.764 -2.14653 -2.42293 0
M  V30 3864 H 357.671 -3.67798 -0.683774 0
M  V30 3865 H 359.004 -4.83545 -0.918985 0
M  V30 3866 N 360.656 0.0484629 -1.57525 0
M  V30 3867 C 361.586 1.0549 -2.08313 0
M  V30 3868 C 362.567 1.38929 -0.981463 0
M  V30 3869 O 363.752 1.48151 -1.25558 0
M  V30 3870 C 360.882 2.36162 -2.54646 0
M  V30 3871 C 359.836 2.17016 -3.68901 0
M  V30 3872 C 359.162 3.53278 -4.01371 0
M  V30 3873 C 360.462 1.57219 -4.98076 0
M  V30 3874 H 362.156 0.632195 -2.92649 0
M  V30 3875 H 359.702 0.302654 -1.40784 0
M  V30 3876 H 361.655 3.06882 -2.88793 0
M  V30 3877 H 360.379 2.80456 -1.67368 0
M  V30 3878 H 359.038 1.48733 -3.35073 0
M  V30 3879 H 358.686 3.95185 -3.11188 0
M  V30 3880 H 358.386 3.41299 -4.78318 0
M  V30 3881 H 359.91 4.25391 -4.38035 0
M  V30 3882 H 361.324 2.17832 -5.30304 0
M  V30 3883 H 359.721 1.55871 -5.79503 0
M  V30 3884 H 360.791 0.535956 -4.81929 0
M  V30 3885 N 362.134 1.5431 0.320358 0
M  V30 3886 C 363.064 1.86912 1.3995 0
M  V30 3887 C 364.045 0.726211 1.53819 0
M  V30 3888 O 365.23 0.980233 1.67646 0
M  V30 3889 C 362.36 2.09932 2.7667 0
M  V30 3890 C 361.314 3.25776 2.77586 0
M  V30 3891 C 360.64 3.34173 4.17412 0
M  V30 3892 C 361.94 4.6335 2.41048 0
M  V30 3893 H 363.634 2.77292 1.12914 0
M  V30 3894 H 361.18 1.33421 0.541738 0
M  V30 3895 H 363.133 2.31324 3.52232 0
M  V30 3896 H 361.857 1.16304 3.0519 0
M  V30 3897 H 360.516 3.04276 2.04479 0
M  V30 3898 H 360.164 2.38098 4.43078 0
M  V30 3899 H 359.864 4.12033 4.18931 0
M  V30 3900 H 361.388 3.57803 4.94782 0
M  V30 3901 H 362.802 4.84602 3.06324 0
M  V30 3902 H 361.199 5.43782 2.53813 0
M  V30 3903 H 362.269 4.65381 1.36193 0
M  V30 3904 N 363.613 -0.582584 1.46437 0
M  V30 3905 C 364.86 -1.34079 1.51753 0
M  V30 3906 C 365.188 -1.93762 0.169299 0
M  V30 3907 O 364.443 -1.76989 -0.835062 0
M  V30 3908 C 364.742 -2.48964 2.56421 0
M  V30 3909 C 364.408 -2.07273 4.00436 0
M  V30 3910 C 363.07 -1.95618 4.39644 0
M  V30 3911 C 365.422 -1.75111 4.90903 0
M  V30 3912 C 362.75 -1.5006 5.67185 0
M  V30 3913 C 365.102 -1.31032 6.18881 0
M  V30 3914 C 363.766 -1.17954 6.56996 0
M  V30 3915 H 363.036 -0.49063 0.555304 0
M  V30 3916 H 365.683 -0.656007 1.79913 0
M  V30 3917 H 363.988 -3.22889 2.21923 0
M  V30 3918 H 365.685 -3.07178 2.57765 0
M  V30 3919 H 362.275 -2.17279 3.69443 0
M  V30 3920 H 366.459 -1.83001 4.61329 0
M  V30 3921 H 361.715 -1.38577 5.95488 0
M  V30 3922 H 365.889 -1.052 6.88408 0
M  V30 3923 H 363.516 -0.824279 7.55718 0
M  V30 3924 N 365.091 -1.34144 -0.827227 0
M  V30 3925 C 366.041 -1.21923 -1.92663 0
M  V30 3926 C 367.025 -0.119294 -1.60457 0
M  V30 3927 O 368.217 -0.348539 -1.73534 0
M  V30 3928 C 365.346 -0.972492 -3.29238 0
M  V30 3929 C 364.432 -2.1154 -3.67576 0
M  V30 3930 N 364.823 -3.36627 -3.77512 0
M  V30 3931 C 363.121 -2.02468 -3.97395 0
M  V30 3932 C 363.822 -4.11658 -4.1099 0
M  V30 3933 N 362.798 -3.40207 -4.23981 0
M  V30 3934 H 366.6 -2.16721 -1.98517 0
M  V30 3935 H 364.114 -1.2632 -1.02064 0
M  V30 3936 H 366.111 -0.865847 -4.0781 0
M  V30 3937 H 364.771 -0.0331509 -3.24683 0
M  V30 3938 H 365.782 -3.71234 -3.61118 0
M  V30 3939 H 362.459 -1.16265 -4.00985 0
M  V30 3940 H 363.849 -5.19657 -4.25918 0
M  V30 3941 N 366.569 1.04691 -1.17803 0
M  V30 3942 C 367.816 1.77782 -0.969532 0
M  V30 3943 C 368.144 1.87926 0.501401 0
M  V30 3944 O 367.399 1.37918 1.38842 0
M  V30 3945 C 367.698 3.21467 -1.56186 0
M  V30 3946 C 367.364 3.3137 -3.05786 0
M  V30 3947 C 366.026 3.3378 -3.46619 0
M  V30 3948 C 368.378 3.31976 -4.01797 0
M  V30 3949 C 365.706 3.34431 -4.82051 0
M  V30 3950 C 368.058 3.34167 -5.37136 0
M  V30 3951 C 366.722 3.34866 -5.77426 0
M  V30 3952 H 365.992 0.650549 -0.354777 0
M  V30 3953 H 368.639 1.23006 -1.46772 0
M  V30 3954 H 366.944 3.79203 -0.985515 0
M  V30 3955 H 368.641 3.76652 -1.37602 0
M  V30 3956 H 365.231 3.3021 -2.73238 0
M  V30 3957 H 369.415 3.29311 -3.71306 0
M  V30 3958 H 364.671 3.33285 -5.12573 0
M  V30 3959 H 368.845 3.33585 -6.11305 0
M  V30 3960 H 366.472 3.35124 -6.82346 0
M  V30 3961 N 368.047 0.979072 1.23499 0
M  V30 3962 C 368.997 0.489378 2.22686 0
M  V30 3963 C 369.981 -0.434871 1.54912 0
M  V30 3964 O 371.173 -0.263941 1.75021 0
M  V30 3965 C 368.302 -0.208178 3.42668 0
M  V30 3966 C 367.388 0.735563 4.17672 0
M  V30 3967 N 367.779 1.87763 4.69658 0
M  V30 3968 C 366.077 0.548625 4.42613 0
M  V30 3969 C 366.778 2.46886 5.26709 0
M  V30 3970 N 365.754 1.75287 5.14563 0
M  V30 3971 H 369.556 1.36062 2.60508 0
M  V30 3972 H 367.07 0.83958 1.39014 0
M  V30 3973 H 369.067 -0.576295 4.12898 0
M  V30 3974 H 367.727 -1.07572 3.06363 0
M  V30 3975 H 368.738 2.25885 4.66043 0
M  V30 3976 H 365.415 -0.274006 4.166 0
M  V30 3977 H 366.805 3.43326 5.77561 0
M  V30 3978 N 369.525 -1.3858 0.750561 0
M  V30 3979 C 370.773 -1.99789 0.30477 0
M  V30 3980 C 371.094 -1.59874 -1.11649 0
M  V30 3981 O 370.364 -0.85417 -1.76297 0
M  V30 3982 H 368.944 -0.738902 0.109694 0
M  V30 3983 H 371.606 -1.69391 0.963983 0
M  V30 3984 H 370.702 -3.09952 0.365499 0
M  V30 3985 N 371.003 -0.499398 -1.49478 0
M  V30 3986 C 372.231 0.0425456 -2.06856 0
M  V30 3987 C 372.646 1.30964 -1.35992 0
M  V30 3988 O 372.003 1.77172 -0.437762 0
M  V30 3989 C 372.054 0.301735 -3.60239 0
M  V30 3990 O 371.775 -0.915127 -4.28436 0
M  V30 3991 C 373.276 0.887499 -4.34325 0
M  V30 3992 H 370.496 -0.0197482 -0.670709 0
M  V30 3993 H 373.04 -0.696297 -1.92281 0
M  V30 3994 H 371.195 0.990556 -3.74522 0
M  V30 3995 H 371.609 -0.676993 -5.20113 0
M  V30 3996 H 373.083 1.01845 -5.42523 0
M  V30 3997 H 373.56 1.88488 -3.96698 0
M  V30 3998 H 374.166 0.236196 -4.24644 0
M  V30 3999 N 372.481 1.55866 -0.233164 0
M  V30 4000 C 373.411 2.23783 0.666599 0
M  V30 4001 C 374.392 1.21343 1.19205 0
M  V30 4002 O 375.577 1.4996 1.23392 0
M  V30 4003 C 372.707 2.92671 1.86978 0
M  V30 4004 C 371.661 4.01682 1.47768 0
M  V30 4005 C 370.987 4.57926 2.76058 0
M  V30 4006 C 372.287 5.18126 0.658993 0
M  V30 4007 H 373.981 2.99232 0.100306 0
M  V30 4008 H 371.527 1.43924 0.046804 0
M  V30 4009 H 373.48 3.3888 2.50476 0
M  V30 4010 H 372.204 2.14688 2.46123 0
M  V30 4011 H 370.863 3.56222 0.866106 0
M  V30 4012 H 370.511 3.76659 3.33372 0
M  V30 4013 H 370.211 5.31505 2.50552 0
M  V30 4014 H 371.735 5.06859 3.40479 0
M  V30 4015 H 373.149 5.60644 1.19795 0
M  V30 4016 H 371.546 5.98009 0.500552 0
M  V30 4017 H 372.616 4.83763 -0.331856 0
M  V30 4018 N 373.959 -0.0401083 1.57549 0
M  V30 4019 C 375.375 -0.395556 1.54621 0
M  V30 4020 C 375.575 -1.77281 0.957799 0
M  V30 4021 O 374.631 -2.45888 0.574031 0
M  V30 4022 C 375.944 -0.307535 2.99123 0
M  V30 4023 C 377.492 -0.385425 3.10618 0
M  V30 4024 C 377.967 -0.326973 4.56831 0
M  V30 4025 N 379.458 -0.386102 4.61588 0
M  V30 4026 C 380.193 -0.363591 5.72246 0
M  V30 4027 N 379.689 -0.29402 6.92176 0
M  V30 4028 N 381.482 -0.412503 5.60584 0
M  V30 4029 H 373.633 0.861325 1.94152 0
M  V30 4030 H 375.896 0.326445 0.890021 0
M  V30 4031 H 375.602 0.638461 3.45856 0
M  V30 4032 H 375.476 -1.10552 3.60636 0
M  V30 4033 H 377.863 -1.32185 2.63839 0
M  V30 4034 H 377.944 0.44171 2.51957 0
M  V30 4035 H 377.588 0.605738 5.04275 0
M  V30 4036 H 377.518 -1.17207 5.13391 0
M  V30 4037 H 380.009 -0.442832 3.75296 0
M  V30 4038 H 380.322 -0.28164 7.72287 0
M  V30 4039 H 378.667 -0.260232 6.94513 0
M  V30 4040 H 381.858 -0.464769 4.65787 0
M  V30 4041 H 382.031 -0.391492 6.46816 0
M  V30 4042 N 375.437 -1.54477 -0.31217 0
M  V30 4043 C 376.384 -1.84655 -1.38461 0
M  V30 4044 C 377.354 -0.694536 -1.50882 0
M  V30 4045 O 378.539 -0.942081 -1.6592 0
M  V30 4046 C 375.679 -2.0896 -2.74645 0
M  V30 4047 C 374.792 -3.36618 -2.70763 0
M  V30 4048 C 373.927 -3.50824 -3.98868 0
M  V30 4049 C 372.966 -4.72315 -3.89339 0
M  V30 4050 N 372.103 -4.83387 -5.09197 0
M  V30 4051 H 376.943 -2.76142 -1.12026 0
M  V30 4052 H 374.48 -1.36748 -0.542065 0
M  V30 4053 H 376.438 -2.21045 -3.53829 0
M  V30 4054 H 375.068 -1.20752 -2.99364 0
M  V30 4055 H 374.12 -3.33211 -1.83506 0
M  V30 4056 H 375.432 -4.25917 -2.59608 0
M  V30 4057 H 374.586 -3.62513 -4.86486 0
M  V30 4058 H 373.325 -2.59638 -4.12843 0
M  V30 4059 H 372.33 -4.6067 -3.00105 0
M  V30 4060 H 373.555 -5.64897 -3.76919 0
M  V30 4061 H 371.501 -3.9512 -5.23657 0
M  V30 4062 H 371.418 -5.66669 -5.00422 0
M  V30 4063 H 372.686 -4.9942 -5.98498 0
M  V30 4064 N 376.915 0.57481 -1.46744 0
M  V30 4065 C 377.845 1.69337 -1.60771 0
M  V30 4066 C 378.826 1.63825 -0.457736 0
M  V30 4067 O 380.011 1.8172 -0.684947 0
M  V30 4068 C 377.141 3.0798 -1.60517 0
M  V30 4069 C 376.095 3.28327 -2.74564 0
M  V30 4070 C 375.421 4.67578 -2.59373 0
M  V30 4071 C 376.721 3.15398 -4.16319 0
M  V30 4072 H 378.415 1.57853 -2.54407 0
M  V30 4073 H 375.961 0.75799 -1.22436 0
M  V30 4074 H 377.914 3.86061 -1.68923 0
M  V30 4075 H 376.638 3.20381 -0.634305 0
M  V30 4076 H 375.297 2.52649 -2.65639 0
M  V30 4077 H 374.945 4.76755 -1.60353 0
M  V30 4078 H 374.645 4.82144 -3.35873 0
M  V30 4079 H 376.169 5.47817 -2.69682 0
M  V30 4080 H 377.583 3.83315 -4.26313 0
M  V30 4081 H 375.98 3.41482 -4.93468 0
M  V30 4082 H 377.05 2.12372 -4.3592 0
M  V30 4083 N 378.394 1.34581 0.820102 0
M  V30 4084 C 379.326 1.22236 1.93884 0
M  V30 4085 C 380.339 0.148776 1.62119 0
M  V30 4086 O 381.528 0.400877 1.7394 0
M  V30 4087 C 378.628 0.856542 3.27897 0
M  V30 4088 C 377.801 2.02569 3.87666 0
M  V30 4089 C 376.86 1.63782 5.00062 0
M  V30 4090 O 375.886 2.35477 5.18208 0
M  V30 4091 N 377.088 0.553611 5.77854 0
M  V30 4092 H 379.853 2.18615 2.05006 0
M  V30 4093 H 377.414 1.27573 0.99683 0
M  V30 4094 H 379.406 0.578806 4.0054 0
M  V30 4095 H 377.976 -0.0171518 3.12595 0
M  V30 4096 H 377.196 2.468 3.07382 0
M  V30 4097 H 378.484 2.80752 4.24329 0
M  V30 4098 H 377.882 -0.0423528 5.65684 0
M  V30 4099 H 376.439 0.335614 6.50935 0
M  V30 4100 N 379.872 -1.04064 1.18357 0
M  V30 4101 C 380.802 -2.14001 0.934113 0
M  V30 4102 C 381.783 -1.69616 -0.128186 0
M  V30 4103 O 382.968 -1.94185 0.0244093 0
M  V30 4104 C 380.098 -3.44253 0.459066 0
M  V30 4105 C 379.052 -4.02261 1.46185 0
M  V30 4106 C 378.378 -5.27992 0.844322 0
M  V30 4107 C 379.678 -4.38432 2.83856 0
M  V30 4108 H 381.372 -2.35127 1.85352 0
M  V30 4109 H 378.918 -1.12998 0.892604 0
M  V30 4110 H 380.871 -4.20522 0.271907 0
M  V30 4111 H 379.595 -3.22813 -0.495912 0
M  V30 4112 H 378.254 -3.28074 1.63595 0
M  V30 4113 H 377.902 -5.02862 -0.117845 0
M  V30 4114 H 377.602 -5.67765 1.51384 0
M  V30 4115 H 379.126 -6.06938 0.667693 0
M  V30 4116 H 380.54 -5.05688 2.70098 0
M  V30 4117 H 378.937 -4.89254 3.47491 0
M  V30 4118 H 380.007 -3.4826 3.37406 0
M  V30 4119 N 381.35 -0.985608 -1.22978 0
M  V30 4120 C 382.282 -0.488154 -2.23941 0
M  V30 4121 C 383.295 0.41282 -1.57479 0
M  V30 4122 O 384.484 0.216121 -1.77187 0
M  V30 4123 C 381.584 0.312611 -3.37455 0
M  V30 4124 C 380.757 -0.582741 -4.33501 0
M  V30 4125 C 379.816 0.165064 -5.25941 0
M  V30 4126 O 378.842 -0.447077 -5.67442 0
M  V30 4127 N 380.044 1.44953 -5.62111 0
M  V30 4128 H 382.809 -1.3563 -2.67254 0
M  V30 4129 H 380.37 -0.859477 -1.37203 0
M  V30 4130 H 382.362 0.821357 -3.96277 0
M  V30 4131 H 380.932 1.0818 -2.93285 0
M  V30 4132 H 380.152 -1.27225 -3.73105 0
M  V30 4133 H 381.44 -1.19275 -4.94622 0
M  V30 4134 H 380.838 1.9683 -5.30353 0
M  V30 4135 H 379.395 1.90361 -6.23383 0
M  V30 4136 N 382.828 1.3818 -0.7579 0
M  V30 4137 C 383.738 2.3421 -0.135247 0
M  V30 4138 C 384.754 1.59487 0.695683 0
M  V30 4139 O 385.93 1.91657 0.618832 0
M  V30 4140 C 382.995 3.3862 0.744139 0
M  V30 4141 C 382.056 4.2918 -0.101658 0
M  V30 4142 C 381.289 5.28603 0.735851 0
M  V30 4143 O 381.512 5.35166 1.97366 0
M  V30 4144 O 380.446 6.01707 0.152372 0
M  V30 4145 H 384.272 2.8916 -0.928436 0
M  V30 4146 H 381.857 1.40101 -0.518855 0
M  V30 4147 H 383.739 4.02539 1.2466 0
M  V30 4148 H 382.414 2.86019 1.51575 0
M  V30 4149 H 381.321 3.68407 -0.650167 0
M  V30 4150 H 382.654 4.85048 -0.836024 0
M  V30 4151 N 384.306 0.507319 1.49211 0
M  V30 4152 C 385.717 0.0611118 1.866 0
M  V30 4153 C 386.068 -1.35488 1.41907 0
M  V30 4154 O 385.193 -2.0108 0.799726 0
M  V30 4155 C 385.788 0.104125 3.3864 0
M  V30 4156 C 384.347 -0.28677 3.75306 0
M  V30 4157 C 383.494 0.473893 2.73221 0
M  V30 4158 H 386.445 0.719775 1.41439 0
M  V30 4159 H 386.466 -0.689672 3.74198 0
M  V30 4160 H 385.978 1.13482 3.71138 0
M  V30 4161 H 384.079 -1.32046 3.48417 0
M  V30 4162 H 384.192 0.0370745 4.79086 0
M  V30 4163 H 382.556 -0.0770644 2.54583 0
M  V30 4164 H 383.339 1.50478 3.08563 0
M  V30 4165 N 385.784 -1.5574 0.241426 0
M  V30 4166 C 386.694 -2.2479 -0.671305 0
M  V30 4167 C 387.71 -1.26217 -1.19772 0
M  V30 4168 O 388.886 -1.59079 -1.23514 0
M  V30 4169 C 385.951 -2.92966 -1.85396 0
M  V30 4170 C 385.012 -4.06935 -1.36756 0
M  V30 4171 C 384.245 -4.71851 -2.49384 0
M  V30 4172 O 384.468 -4.35823 -3.67987 0
M  V30 4173 O 383.402 -5.60467 -2.19454 0
M  V30 4174 H 387.228 -3.0349 -0.112966 0
M  V30 4175 H 384.813 -1.49397 0.0101513 0
M  V30 4176 H 386.695 -3.35927 -2.54423 0
M  V30 4177 H 385.37 -2.17211 -2.40002 0
M  V30 4178 H 384.277 -3.68503 -0.644726 0
M  V30 4179 H 385.61 -4.84492 -0.867647 0
M  V30 4180 N 387.262 0.0317525 -1.57568 0
M  V30 4181 C 388.492 0.733884 -1.93126 0
M  V30 4182 C 388.9 1.69563 -0.839352 0
M  V30 4183 O 388.243 1.82681 0.193175 0
M  V30 4184 C 388.305 1.54798 -3.24465 0
M  V30 4185 C 387.969 0.751304 -4.50782 0
M  V30 4186 C 388.966 0.0527632 -5.19873 0
M  V30 4187 C 386.651 0.706639 -4.97305 0
M  V30 4188 C 388.645 -0.679774 -6.33765 0
M  V30 4189 C 386.332 -0.0296449 -6.11093 0
M  V30 4190 C 387.33 -0.721614 -6.79177 0
M  V30 4191 O 387.018 -1.44595 -7.90789 0
M  V30 4192 H 386.75 0.211459 -0.642076 0
M  V30 4193 H 389.304 -0.00585615 -2.05399 0
M  V30 4194 H 387.534 2.33147 -3.08512 0
M  V30 4195 H 389.223 2.13247 -3.4537 0
M  V30 4196 H 389.989 0.0783188 -4.84937 0
M  V30 4197 H 385.868 1.23474 -4.44157 0
M  V30 4198 H 389.412 -1.22042 -6.86842 0
M  V30 4199 H 385.309 -0.0571331 -6.45475 0
M  V30 4200 H 386.077 -1.35935 -8.07133 0
M  V30 4201 N 388.74 1.54641 0.303973 0
M  V30 4202 C 389.986 1.74038 1.04109 0
M  V30 4203 C 390.319 0.523051 1.87024 0
M  V30 4204 O 389.594 -0.479874 1.88487 0
M  V30 4205 C 389.877 3.02761 1.94955 0
M  V30 4206 C 389.73 4.34787 1.1524 0
M  V30 4207 C 391.049 3.27336 2.94175 0
M  V30 4208 H 388.168 0.63323 0.377079 0
M  V30 4209 H 390.81 1.87354 0.316001 0
M  V30 4210 H 388.96 2.9154 2.56782 0
M  V30 4211 H 390.632 4.57922 0.557236 0
M  V30 4212 H 388.875 4.31407 0.455053 0
M  V30 4213 H 389.546 5.21116 1.8205 0
M  V30 4214 H 392.022 3.38148 2.42477 0
M  V30 4215 H 390.898 4.18726 3.54908 0
M  V30 4216 H 391.159 2.45491 3.67677 0
M  V30 4217 N 390.218 -0.567019 1.47046 0
M  V30 4218 C 391.148 -1.68482 1.61667 0
M  V30 4219 C 392.129 -1.6358 0.466418 0
M  V30 4220 O 393.314 -1.81354 0.694574 0
M  V30 4221 C 390.444 -3.07124 1.62148 0
M  V30 4222 C 389.398 -3.26867 2.76301 0
M  V30 4223 C 388.724 -4.66196 2.61849 0
M  V30 4224 C 390.024 -3.13186 4.17986 0
M  V30 4225 H 391.718 -1.56502 2.5524 0
M  V30 4226 H 389.264 -0.751486 1.22836 0
M  V30 4227 H 391.217 -3.8516 1.70968 0
M  V30 4228 H 389.941 -3.2004 0.651287 0
M  V30 4229 H 388.6 -2.51237 2.66975 0
M  V30 4230 H 388.248 -4.75898 1.62879 0
M  V30 4231 H 387.948 -4.80356 3.38425 0
M  V30 4232 H 389.472 -5.46379 2.72584 0
M  V30 4233 H 390.886 -3.81049 4.2834 0
M  V30 4234 H 389.283 -3.3886 4.95272 0
M  V30 4235 H 390.353 -2.10057 4.3704 0
M  V30 4236 N 391.696 -1.35014 -0.812953 0
M  V30 4237 C 392.626 -1.30069 -1.93919 0
M  V30 4238 C 393.607 -0.176275 -1.69184 0
M  V30 4239 O 394.792 -0.370227 -1.90638 0
M  V30 4240 C 391.922 -1.06547 -3.30552 0
M  V30 4241 C 390.876 -2.15561 -3.69753 0
M  V30 4242 C 390.202 -1.77214 -5.04479 0
M  V30 4243 C 391.502 -3.57476 -3.808 0
M  V30 4244 H 393.196 -2.24303 -1.98314 0
M  V30 4245 H 390.742 -1.07977 -0.952736 0
M  V30 4246 H 392.695 -1.01729 -4.08937 0
M  V30 4247 H 391.419 -0.0875719 -3.26483 0
M  V30 4248 H 390.078 -2.19466 -2.9365 0
M  V30 4249 H 389.726 -0.780589 -4.96906 0
M  V30 4250 H 389.426 -2.50184 -5.31678 0
M  V30 4251 H 390.95 -1.7391 -5.8531 0
M  V30 4252 H 392.364 -3.55929 -4.4943 0
M  V30 4253 H 390.761 -4.29152 -4.19462 0
M  V30 4254 H 391.831 -3.94091 -2.82525 0
M  V30 4255 N 393.175 1.03435 -1.18907 0
M  V30 4256 C 394.138 2.09756 -0.923844 0
M  V30 4257 C 395.138 1.60528 0.093416 0
M  V30 4258 O 396.328 1.73631 -0.140727 0
M  V30 4259 C 393.46 3.38692 -0.387354 0
M  V30 4260 H 394.653 2.34719 -1.86674 0
M  V30 4261 H 392.206 1.19959 -1.00197 0
M  V30 4262 H 392.941 3.19396 0.561845 0
M  V30 4263 H 392.726 3.75742 -1.12074 0
M  V30 4264 H 394.216 4.17016 -0.220694 0
M  V30 4265 N 394.653 0.992116 1.22453 0
M  V30 4266 C 395.616 0.546883 2.2258 0
M  V30 4267 C 396.616 -0.369829 1.56489 0
M  V30 4268 O 397.806 -0.161896 1.73446 0
M  V30 4269 C 394.938 -0.204659 3.40285 0
M  V30 4270 H 396.131 1.43234 2.63484 0
M  V30 4271 H 393.684 0.779239 1.3549 0
M  V30 4272 H 394.419 -1.10614 3.04853 0
M  V30 4273 H 394.204 0.45354 3.89468 0
M  V30 4274 H 395.694 -0.504358 4.14543 0
M  V30 4275 N 396.131 -1.37776 0.765217 0
M  V30 4276 C 397.064 -2.28008 0.0935025 0
M  V30 4277 C 398.042 -1.45985 -0.716047 0
M  V30 4278 O 399.226 -1.75331 -0.692203 0
M  V30 4279 C 396.353 -3.27228 -0.874052 0
M  V30 4280 C 395.399 -4.26239 -0.149307 0
M  V30 4281 S 396.232 -5.22827 1.15809 0
M  V30 4282 C 397.388 -6.256 0.193906 0
M  V30 4283 H 397.621 -2.84631 0.858637 0
M  V30 4284 H 395.154 -1.43952 0.558313 0
M  V30 4285 H 397.112 -3.84902 -1.42691 0
M  V30 4286 H 395.773 -2.69565 -1.61225 0
M  V30 4287 H 394.966 -4.96213 -0.88254 0
M  V30 4288 H 394.568 -3.7252 0.332366 0
M  V30 4289 H 396.86 -6.74508 -0.636011 0
M  V30 4290 H 397.803 -7.02838 0.861638 0
M  V30 4291 H 398.211 -5.64173 -0.191975 0
M  V30 4292 N 397.609 -0.515225 -1.4894 0
M  V30 4293 C 398.572 0.244681 -2.2789 0
M  V30 4294 C 399.572 0.881166 -1.34507 0
M  V30 4295 O 400.762 0.743497 -1.57537 0
M  V30 4296 C 397.894 1.35247 -3.12923 0
M  V30 4297 H 399.087 -0.448289 -2.96531 0
M  V30 4298 H 396.64 -0.270656 -1.53939 0
M  V30 4299 H 397.375 2.07916 -2.48881 0
M  V30 4300 H 397.16 0.901374 -3.81599 0
M  V30 4301 H 398.65 1.88737 -3.72516 0
M  V30 4302 N 399.087 1.5561 -0.249682 0
M  V30 4303 C 400.017 2.24477 0.642826 0
M  V30 4304 C 400.998 1.22601 1.17911 0
M  V30 4305 O 402.183 1.5126 1.21795 0
M  V30 4306 C 399.313 2.94638 1.83863 0
M  V30 4307 C 398.267 4.03227 1.435 0
M  V30 4308 C 397.593 4.60828 2.71186 0
M  V30 4309 C 398.893 5.18796 0.604002 0
M  V30 4310 H 400.587 2.99321 0.0685625 0
M  V30 4311 H 398.133 1.43965 0.0315363 0
M  V30 4312 H 400.086 3.41517 2.46868 0
M  V30 4313 H 398.81 2.17287 2.43832 0
M  V30 4314 H 397.469 3.57121 0.828275 0
M  V30 4315 H 397.117 3.80174 3.29358 0
M  V30 4316 H 396.817 5.34132 2.44901 0
M  V30 4317 H 398.341 5.10442 3.35084 0
M  V30 4318 H 399.755 5.61883 1.13842 0
M  V30 4319 H 398.152 5.98506 0.437097 0
M  V30 4320 H 399.222 4.83384 -0.383147 0
M  V30 4321 N 400.565 -0.0233959 1.57583 0
M  V30 4322 C 401.812 -0.713063 1.8953 0
M  V30 4323 C 402.14 -1.75056 0.847673 0
M  V30 4324 O 401.395 -1.95119 -0.150636 0
M  V30 4325 C 401.694 -1.41428 3.28227 0
M  V30 4326 C 401.36 -0.512222 4.47981 0
M  V30 4327 C 400.022 -0.263785 4.80476 0
M  V30 4328 C 402.374 0.110248 5.21083 0
M  V30 4329 C 399.702 0.615804 5.83459 0
M  V30 4330 C 402.054 0.977573 6.25001 0
M  V30 4331 C 400.718 1.23542 6.55968 0
M  V30 4332 H 399.988 -0.260928 0.69354 0
M  V30 4333 H 402.635 0.0271047 1.91481 0
M  V30 4334 H 400.94 -2.22791 3.22291 0
M  V30 4335 H 402.637 -1.95355 3.50196 0
M  V30 4336 H 399.227 -0.716013 4.22577 0
M  V30 4337 H 403.411 -0.0687137 4.96252 0
M  V30 4338 H 398.667 0.82382 6.05824 0
M  V30 4339 H 402.841 1.46638 6.80786 0
M  V30 4340 H 400.468 1.91871 7.35588 0
M  V30 4341 N 402.043 -1.548 -0.295768 0
M  V30 4342 C 403.268 -1.78653 -1.05346 0
M  V30 4343 C 403.693 -0.546894 -1.79974 0
M  V30 4344 O 403.051 0.502763 -1.7419 0
M  V30 4345 C 403.099 -2.99679 -2.00561 0
M  V30 4346 O 402.203 -2.7317 -3.08953 0
M  V30 4347 H 401.544 -0.59116 -0.302367 0
M  V30 4348 H 404.074 -2.01895 -0.331598 0
M  V30 4349 H 404.084 -3.27793 -2.42932 0
M  V30 4350 H 402.759 -3.89562 -1.4565 0
M  V30 4351 H 401.336 -2.56089 -2.71059 0
M  V30 4352 N 403.521 0.559213 -1.47345 0
M  V30 4353 C 404.932 1.14134 -1.47751 0
M  V30 4354 C 405.283 1.94834 -0.231103 0
M  V30 4355 O 404.408 2.05957 0.664137 0
M  V30 4356 C 405.003 2.07653 -2.67705 0
M  V30 4357 C 403.562 2.61141 -2.71076 0
M  V30 4358 C 402.709 1.3748 -2.40821 0
M  V30 4359 H 405.66 0.345917 -1.54884 0
M  V30 4360 H 405.681 2.91497 -2.44561 0
M  V30 4361 H 405.193 1.4889 -3.58404 0
M  V30 4362 H 403.294 3.23707 -1.84511 0
M  V30 4363 H 403.407 3.02272 -3.7171 0
M  V30 4364 H 401.771 1.68086 -1.91362 0
M  V30 4365 H 402.554 0.805135 -3.33725 0
M  V30 4366 N 404.999 1.35443 0.805782 0
M  V30 4367 C 406.276 1.19325 1.54987 0
M  V30 4368 C 406.656 -0.227294 2.09873 0
M  V30 4369 O 406.004 -1.2309 1.92512 0
M  V30 4370 C 406.214 2.26196 2.65775 0
M  V30 4371 C 407.562 2.62043 3.34094 0
M  V30 4372 O 408.586 2.25115 2.76046 0
M  V30 4373 O 407.445 3.25542 4.38958 0
M  V30 4374 H 404.539 0.463623 0.684823 0
M  V30 4375 H 407.085 1.47127 0.845674 0
M  V30 4376 H 405.857 3.21471 2.23096 0
M  V30 4377 H 405.48 1.99667 3.43829 0
M  V30 4378 N 406.477 -1.02803 1.19454 0
M  V30 4379 C 407.893 -1.28473 0.946937 0
M  V30 4380 C 408.093 -1.97881 -0.380202 0
M  V30 4381 O 407.149 -2.26719 -1.11151 0
M  V30 4382 C 408.462 -2.13099 2.12154 0
M  V30 4383 C 410.01 -2.26404 2.16126 0
M  V30 4384 C 410.485 -3.14402 3.33039 0
M  V30 4385 N 411.976 -3.21991 3.32981 0
M  V30 4386 C 412.711 -3.90272 4.20089 0
M  V30 4387 N 412.207 -4.60777 5.17355 0
M  V30 4388 N 414 -3.8668 4.07964 0
M  V30 4389 H 406.151 -0.561665 2.04839 0
M  V30 4390 H 408.414 -0.310438 0.89573 0
M  V30 4391 H 408.12 -1.69422 3.08203 0
M  V30 4392 H 407.994 -3.13813 2.09287 0
M  V30 4393 H 410.381 -2.69311 1.20647 0
M  V30 4394 H 410.462 -1.25237 2.23045 0
M  V30 4395 H 410.106 -2.72204 4.28798 0
M  V30 4396 H 410.036 -4.1563 3.23356 0
M  V30 4397 H 412.527 -2.71778 2.62574 0
M  V30 4398 H 412.84 -5.10513 5.80169 0
M  V30 4399 H 411.185 -4.5964 5.21302 0
M  V30 4400 H 414.376 -3.30739 3.31254 0
M  V30 4401 H 414.549 -4.39621 4.76064 0
M  V30 4402 N 407.956 -0.998596 -1.21925 0
M  V30 4403 C 409.367 -0.711939 -1.72593 0
M  V30 4404 C 409.718 0.770842 -1.80423 0
M  V30 4405 O 408.843 1.60237 -1.4544 0
M  V30 4406 C 409.438 -1.28567 -3.13458 0
M  V30 4407 C 407.997 -1.04828 -3.61508 0
M  V30 4408 C 407.144 -1.4024 -2.39224 0
M  V30 4409 H 410.095 -1.17027 -1.07193 0
M  V30 4410 H 410.116 -0.667098 -3.74607 0
M  V30 4411 H 409.628 -2.36486 -3.07727 0
M  V30 4412 H 407.729 0.0140383 -3.72597 0
M  V30 4413 H 407.842 -1.71566 -4.47328 0
M  V30 4414 H 406.206 -0.821077 -2.41103 0
M  V30 4415 H 406.989 -2.49176 -2.36149 0
M  V30 4416 N 409.434 1.37368 -0.772513 0
M  V30 4417 C 410.682 1.99279 -0.336516 0
M  V30 4418 C 411.003 1.6163 1.09091 0
M  V30 4419 O 410.273 0.882109 1.74916 0
M  V30 4420 H 408.853 0.737063 -0.121435 0
M  V30 4421 H 411.515 1.67836 -0.990809 0
M  V30 4422 H 410.611 3.09332 -0.414763 0
M  V30 4423 N 410.912 0.523116 1.48665 0
M  V30 4424 C 412.158 -0.0134963 2.02796 0
M  V30 4425 C 412.491 -1.34582 1.40004 0
M  V30 4426 O 411.766 -1.86756 0.543381 0
M  V30 4427 C 412.049 -0.14276 3.59817 0
M  V30 4428 C 411.902 1.21425 4.331 0
M  V30 4429 C 413.221 -0.872856 4.31357 0
M  V30 4430 H 410.34 -0.00343074 0.736992 0
M  V30 4431 H 412.982 0.678816 1.7746 0
M  V30 4432 H 411.132 -0.732401 3.81534 0
M  V30 4433 H 412.804 1.84447 4.2282 0
M  V30 4434 H 411.047 1.79791 3.94788 0
M  V30 4435 H 411.718 1.07687 5.41394 0
M  V30 4436 H 414.194 -0.372555 4.14429 0
M  V30 4437 H 413.07 -0.932185 5.40927 0
M  V30 4438 H 413.331 -1.92161 3.98154 0
M  V30 4439 N 412.39 -1.55475 0.257931 0
M  V30 4440 C 413.618 -2.03609 -0.367559 0
M  V30 4441 C 414.033 -1.13687 -1.50734 0
M  V30 4442 O 413.39 -0.153479 -1.81853 0
M  V30 4443 C 413.441 -3.51001 -0.864908 0
M  V30 4444 O 413.162 -4.37499 0.229465 0
M  V30 4445 C 414.663 -4.14946 -1.55997 0
M  V30 4446 H 411.883 -0.665459 -0.0860521 0
M  V30 4447 H 414.427 -2.00843 0.385014 0
M  V30 4448 H 412.582 -3.54266 -1.56762 0
M  V30 4449 H 412.996 -5.24286 -0.14998 0
M  V30 4450 H 414.47 -5.19735 -1.85956 0
M  V30 4451 H 414.947 -3.6209 -2.4857 0
M  V30 4452 H 415.553 -4.15635 -0.901543 0
M  V30 4453 N 413.868 0.0150385 -1.57593 0
M  V30 4454 C 414.8 1.03912 -2.04291 0
M  V30 4455 C 415.813 1.31618 -0.958146 0
M  V30 4456 O 417.002 1.28859 -1.23522 0
M  V30 4457 C 414.102 2.37749 -2.41514 0
M  V30 4458 C 413.275 2.29198 -3.72541 0
M  V30 4459 C 412.334 3.45598 -3.96797 0
M  V30 4460 O 411.36 3.24461 -4.67668 0
M  V30 4461 N 412.562 4.67945 -3.43523 0
M  V30 4462 H 415.327 0.64099 -2.92765 0
M  V30 4463 H 412.888 0.20272 -1.60626 0
M  V30 4464 H 414.88 3.14364 -2.54867 0
M  V30 4465 H 413.45 2.69357 -1.58637 0
M  V30 4466 H 412.67 1.3759 -3.69408 0
M  V30 4467 H 413.958 2.20642 -4.5847 0
M  V30 4468 H 413.356 4.88017 -2.86104 0
M  V30 4469 H 411.913 5.41878 -3.62232 0
M  V30 4470 N 415.346 1.54954 0.287554 0
M  V30 4471 C 416.762 1.46469 0.633964 0
M  V30 4472 C 416.962 0.666865 1.90145 0
M  V30 4473 O 416.018 0.179906 2.51858 0
M  V30 4474 C 417.331 2.90556 0.774454 0
M  V30 4475 C 418.879 3.00681 0.869462 0
M  V30 4476 C 419.354 4.45993 1.04184 0
M  V30 4477 N 420.845 4.4976 1.10772 0
M  V30 4478 C 421.58 5.59393 1.25964 0
M  V30 4479 N 421.076 6.78923 1.37968 0
M  V30 4480 N 422.869 5.47107 1.28959 0
M  V30 4481 H 415.02 2.05288 -0.545041 0
M  V30 4482 H 417.283 0.930305 -0.182308 0
M  V30 4483 H 416.989 3.51594 -0.086207 0
M  V30 4484 H 416.863 3.38743 1.6593 0
M  V30 4485 H 419.25 2.39749 1.7206 0
M  V30 4486 H 419.331 2.55769 -0.0396831 0
M  V30 4487 H 418.975 5.07524 0.195422 0
M  V30 4488 H 418.905 4.88548 1.96542 0
M  V30 4489 H 421.396 3.63651 1.02794 0
M  V30 4490 H 421.709 7.58231 1.49353 0
M  V30 4491 H 420.054 6.81763 1.34999 0
M  V30 4492 H 423.245 4.52668 1.19202 0
M  V30 4493 H 423.418 6.32595 1.40455 0
M  V30 4494 N 416.824 -0.551391 1.4764 0
M  V30 4495 C 418.101 -1.31229 1.45046 0
M  V30 4496 C 418.481 -2.10563 0.150527 0
M  V30 4497 O 417.829 -2.11374 -0.867956 0
M  V30 4498 C 418.039 -2.21189 2.69956 0
M  V30 4499 C 419.387 -2.82021 3.1741 0
M  V30 4500 O 420.411 -2.31488 2.70724 0
M  V30 4501 O 419.27 -3.73885 3.98588 0
M  V30 4502 H 416.364 -0.591193 0.578291 0
M  V30 4503 H 418.91 -0.569813 1.59847 0
M  V30 4504 H 417.682 -1.62207 3.56096 0
M  V30 4505 H 417.305 -3.02722 2.57769 0
M  V30 4506 N 418.302 -1.35869 -0.798587 0
M  V30 4507 C 419.212 -1.31578 -1.94228 0
M  V30 4508 C 420.228 -0.21939 -1.72611 0
M  V30 4509 O 421.404 -0.450167 -1.96305 0
M  V30 4510 C 418.469 -1.09528 -3.28944 0
M  V30 4511 C 417.53 -2.28556 -3.63402 0
M  V30 4512 C 416.763 -2.07549 -4.9169 0
M  V30 4513 O 416.986 -1.046 -5.60727 0
M  V30 4514 O 415.92 -2.95106 -5.24591 0
M  V30 4515 H 419.746 -2.27847 -2.00796 0
M  V30 4516 H 417.331 -1.16322 -0.937526 0
M  V30 4517 H 419.213 -0.991127 -4.09579 0
M  V30 4518 H 417.888 -0.16315 -3.23289 0
M  V30 4519 H 416.795 -2.44538 -2.83112 0
M  V30 4520 H 418.128 -3.20244 -3.73771 0
M  V30 4521 N 419.78 1.02168 -1.19998 0
M  V30 4522 C 421.029 1.75091 -1.0013 0
M  V30 4523 C 421.342 1.89923 0.467835 0
M  V30 4524 O 422.548 2.59888 0.785515 0
M  V30 4525 C 421.004 3.14892 -1.74273 0
M  V30 4526 C 420.612 3.0809 -3.25245 0
M  V30 4527 C 422.356 3.9206 -1.62755 0
M  V30 4528 C 420.263 4.42867 -3.91948 0
M  V30 4529 H 419.193 0.656394 -0.37103 0
M  V30 4530 H 421.844 1.14284 -1.43567 0
M  V30 4531 H 420.226 3.7621 -1.2362 0
M  V30 4532 H 421.4 2.5611 -3.83072 0
M  V30 4533 H 419.715 2.44416 -3.3712 0
M  V30 4534 H 422.312 4.91764 -2.09934 0
M  V30 4535 H 422.655 4.12199 -0.582894 0
M  V30 4536 H 423.188 3.37359 -2.10793 0
M  V30 4537 H 419.927 4.27931 -4.96543 0
M  V30 4538 H 419.447 4.94874 -3.3891 0
M  V30 4539 H 421.126 5.11728 -3.95909 0
M  V30 4540 N 421.258 1.00505 1.21394 0
M  V30 4541 C 422.535 0.603277 1.86064 0
M  V30 4542 C 422.915 -0.919095 1.90042 0
M  V30 4543 O 422.263 -1.80607 1.39977 0
M  V30 4544 C 422.473 1.23772 3.26315 0
M  V30 4545 C 423.821 1.34586 4.02705 0
M  V30 4546 O 424.845 1.19304 3.35626 0
M  V30 4547 O 423.704 1.59169 5.22807 0
M  V30 4548 H 420.798 0.206634 0.800769 0
M  V30 4549 H 423.344 1.1017 1.29076 0
M  V30 4550 H 422.116 2.27848 3.18121 0
M  V30 4551 H 421.739 0.725648 3.90922 0
M  V30 4552 N 422.737 -1.36956 0.779787 0
M  V30 4553 C 423.669 -2.28833 0.129639 0
M  V30 4554 C 424.682 -1.4902 -0.655511 0
M  V30 4555 O 425.871 -1.71578 -0.492279 0
M  V30 4556 C 422.971 -3.2833 -0.839792 0
M  V30 4557 C 422.144 -4.3727 -0.10675 0
M  V30 4558 C 421.203 -5.16789 -0.990717 0
M  V30 4559 O 420.229 -5.67406 -0.451516 0
M  V30 4560 N 421.431 -5.32294 -2.3161 0
M  V30 4561 H 424.196 -2.85268 0.918803 0
M  V30 4562 H 421.757 -1.49019 0.632841 0
M  V30 4563 H 423.749 -3.78413 -1.43477 0
M  V30 4564 H 422.319 -2.72605 -1.52988 0
M  V30 4565 H 421.539 -3.88478 0.669216 0
M  V30 4566 H 422.827 -5.07229 0.399464 0
M  V30 4567 H 422.225 -4.92768 -2.77843 0
M  V30 4568 H 420.782 -5.85656 -2.86095 0
M  V30 4569 N 424.215 -0.530993 -1.48385 0
M  V30 4570 C 425.145 0.219985 -2.32461 0
M  V30 4571 C 426.126 0.934111 -1.42156 0
M  V30 4572 O 427.311 0.919694 -1.71042 0
M  V30 4573 C 424.441 1.26674 -3.23375 0
M  V30 4574 C 423.395 0.67069 -4.22712 0
M  V30 4575 C 422.721 1.82017 -5.02766 0
M  V30 4576 C 424.021 -0.358268 -5.2107 0
M  V30 4577 H 425.715 -0.48187 -2.95497 0
M  V30 4578 H 423.261 -0.233182 -1.42099 0
M  V30 4579 H 425.214 1.80006 -3.81019 0
M  V30 4580 H 423.938 1.99818 -2.58341 0
M  V30 4581 H 422.597 0.158878 -3.66256 0
M  V30 4582 H 422.245 2.54002 -4.34157 0
M  V30 4583 H 421.945 1.42727 -5.70003 0
M  V30 4584 H 423.469 2.35725 -5.63264 0
M  V30 4585 H 424.883 0.0880081 -5.73232 0
M  V30 4586 H 423.28 -0.66861 -5.96364 0
M  V30 4587 H 424.35 -1.26367 -4.68145 0
M  V30 4588 N 425.693 1.55336 -0.266172 0
M  V30 4589 C 426.625 2.19544 0.658247 0
M  V30 4590 C 427.638 1.17746 1.12427 0
M  V30 4591 O 428.827 1.44517 1.04772 0
M  V30 4592 C 425.927 2.80032 1.9088 0
M  V30 4593 C 425.1 4.07436 1.59106 0
M  V30 4594 C 424.159 4.52056 2.69317 0
M  V30 4595 O 423.185 5.18023 2.35883 0
M  V30 4596 N 424.387 4.21448 3.99201 0
M  V30 4597 H 427.152 2.99503 0.108754 0
M  V30 4598 H 424.713 1.61667 -0.0869059 0
M  V30 4599 H 426.705 3.06831 2.63888 0
M  V30 4600 H 425.275 2.04119 2.36758 0
M  V30 4601 H 424.495 3.88021 0.695243 0
M  V30 4602 H 425.783 4.90462 1.35367 0
M  V30 4603 H 425.181 3.68528 4.29189 0
M  V30 4604 H 423.738 4.53039 4.68614 0
M  V30 4605 N 427.171 -0.0066808 1.57599 0
M  V30 4606 C 428.081 -1.01671 2.11424 0
M  V30 4607 C 429.097 -1.38143 1.05795 0
M  V30 4608 O 430.273 -1.47011 1.37658 0
M  V30 4609 C 427.338 -2.29192 2.60139 0
M  V30 4610 C 426.399 -1.99094 3.80342 0
M  V30 4611 C 425.632 -3.20535 4.26724 0
M  V30 4612 O 425.855 -4.3199 3.72479 0
M  V30 4613 O 424.789 -3.04924 5.18946 0
M  V30 4614 H 428.615 -0.589181 2.9793 0
M  V30 4615 H 426.2 -0.225091 1.47695 0
M  V30 4616 H 428.082 -3.0412 2.917 0
M  V30 4617 H 426.757 -2.71195 1.76733 0
M  V30 4618 H 425.664 -1.21663 3.53764 0
M  V30 4619 H 426.997 -1.61931 4.648 0
M  V30 4620 N 428.649 -1.55105 -0.279332 0
M  V30 4621 C 429.559 -1.90638 -1.36727 0
M  V30 4622 C 430.575 -0.802899 -1.54368 0
M  V30 4623 O 431.751 -1.10138 -1.68616 0
M  V30 4624 C 428.816 -2.16547 -2.70755 0
M  V30 4625 C 427.877 -3.40146 -2.61915 0
M  V30 4626 C 427.11 -3.6481 -3.8955 0
M  V30 4627 O 427.333 -2.92095 -4.89935 0
M  V30 4628 O 426.267 -4.58343 -3.90135 0
M  V30 4629 H 430.093 -2.83237 -1.09591 0
M  V30 4630 H 427.678 -1.4157 -0.477306 0
M  V30 4631 H 429.56 -2.34665 -3.50014 0
M  V30 4632 H 428.235 -1.27131 -2.9769 0
M  V30 4633 H 427.142 -3.2737 -1.81052 0
M  V30 4634 H 428.475 -4.29761 -2.3993 0
M  V30 4635 N 430.127 0.543554 -1.4793 0
M  V30 4636 C 431.06 1.66556 -1.55995 0
M  V30 4637 C 432.038 1.57315 -0.411205 0
M  V30 4638 O 433.222 1.7798 -0.620922 0
M  V30 4639 C 430.349 3.04883 -1.47527 0
M  V30 4640 C 429.395 3.32526 -2.67074 0
M  V30 4641 S 430.228 3.20282 -4.29162 0
M  V30 4642 C 431.384 4.61079 -4.23269 0
M  V30 4643 H 431.617 1.59462 -2.50917 0
M  V30 4644 H 429.15 0.725456 -1.36296 0
M  V30 4645 H 431.108 3.84665 -1.43328 0
M  V30 4646 H 429.769 3.09429 -0.539665 0
M  V30 4647 H 428.962 4.33403 -2.5725 0
M  V30 4648 H 428.564 2.60389 -2.68466 0
M  V30 4649 H 430.856 5.52318 -3.92365 0
M  V30 4650 H 431.799 4.75959 -5.24279 0
M  V30 4651 H 432.207 4.39766 -3.5393 0
M  V30 4652 N 431.605 1.3629 0.791371 0
M  V30 4653 C 432.568 1.30309 1.88553 0
M  V30 4654 C 433.568 0.211204 1.59407 0
M  V30 4655 O 434.758 0.465865 1.67855 0
M  V30 4656 C 431.89 1.01956 3.25297 0
M  V30 4657 H 433.083 2.27614 1.95273 0
M  V30 4658 H 430.636 1.21035 0.988953 0
M  V30 4659 H 431.371 0.050998 3.2426 0
M  V30 4660 H 431.156 1.80968 3.4784 0
M  V30 4661 H 432.646 1.0037 4.05359 0
M  V30 4662 N 433.083 -1.0153 1.20538 0
M  V30 4663 C 434.013 -2.11972 0.979295 0
M  V30 4664 C 434.994 -1.6985 -0.0921787 0
M  V30 4665 O 436.179 -1.94089 0.0655932 0
M  V30 4666 C 433.309 -3.43201 0.531984 0
M  V30 4667 C 432.263 -3.9907 1.54685 0
M  V30 4668 C 431.589 -5.26082 0.956127 0
M  V30 4669 C 432.889 -4.32313 2.93092 0
M  V30 4670 H 434.583 -2.31143 1.90298 0
M  V30 4671 H 432.129 -1.11079 0.916372 0
M  V30 4672 H 434.082 -4.1985 0.361044 0
M  V30 4673 H 432.806 -3.23792 -0.427327 0
M  V30 4674 H 431.465 -3.2453 1.70517 0
M  V30 4675 H 431.113 -5.02999 -0.0111538 0
M  V30 4676 H 430.813 -5.64426 1.63393 0
M  V30 4677 H 432.337 -6.05386 0.796284 0
M  V30 4678 H 433.751 -4.99845 2.80763 0
M  V30 4679 H 432.148 -4.81774 3.57791 0
M  V30 4680 H 433.218 -3.41025 3.44717 0
M  V30 4681 N 434.561 -1.01147 -1.20859 0
M  V30 4682 C 435.789 -0.716911 -1.94082 0
M  V30 4683 C 436.204 0.721568 -1.74467 0
M  V30 4684 O 435.561 1.48889 -1.05539 0
M  V30 4685 C 435.612 -1.03662 -3.46318 0
M  V30 4686 O 435.333 -2.4186 -3.65288 0
M  V30 4687 C 436.834 -0.762386 -4.36695 0
M  V30 4688 H 434.054 -0.26367 -0.617024 0
M  V30 4689 H 436.598 -1.35127 -1.53496 0
M  V30 4690 H 434.753 -0.447757 -3.84804 0
M  V30 4691 H 435.167 -2.53224 -4.59323 0
M  V30 4692 H 436.641 -1.03621 -5.42187 0
M  V30 4693 H 437.118 0.303514 -4.3815 0
M  V30 4694 H 437.724 -1.33316 -4.03865 0
M  V30 4695 N 436.039 1.36541 -0.78704 0
M  V30 4696 C 436.969 2.32659 -0.197992 0
M  V30 4697 C 437.95 1.56533 0.665697 0
M  V30 4698 O 439.135 1.84698 0.60001 0
M  V30 4699 C 436.265 3.40778 0.669901 0
M  V30 4700 C 435.219 4.27897 -0.0937039 0
M  V30 4701 C 434.545 5.27163 0.894629 0
M  V30 4702 C 435.845 5.06334 -1.28154 0
M  V30 4703 H 437.539 2.82171 -1.00099 0
M  V30 4704 H 435.085 1.35665 -0.482793 0
M  V30 4705 H 437.038 4.07008 1.09191 0
M  V30 4706 H 435.762 2.89827 1.50558 0
M  V30 4707 H 434.421 3.6322 -0.49666 0
M  V30 4708 H 434.069 4.72486 1.72527 0
M  V30 4709 H 433.769 5.86317 0.388149 0
M  V30 4710 H 435.293 5.96266 1.31525 0
M  V30 4711 H 436.707 5.65617 -0.93541 0
M  V30 4712 H 435.104 5.74888 -1.72115 0
M  V30 4713 H 436.174 4.38114 -2.07807 0
M  V30 4714 N 437.518 0.538854 1.48102 0
M  V30 4715 C 438.45 -0.256278 2.27763 0
M  V30 4716 C 439.463 -0.89633 1.35904 0
M  V30 4717 O 440.652 -0.773275 1.60881 0
M  V30 4718 C 437.752 -1.37896 3.09577 0
M  V30 4719 C 436.925 -0.839159 4.29275 0
M  V30 4720 C 435.984 -1.84405 4.9283 0
M  V30 4721 O 435.01 -1.39746 5.51779 0
M  V30 4722 N 436.212 -3.17666 4.85869 0
M  V30 4723 H 438.977 0.426968 2.96643 0
M  V30 4724 H 436.538 0.373747 1.57527 0
M  V30 4725 H 438.53 -2.04955 3.48963 0
M  V30 4726 H 437.1 -1.96572 2.4306 0
M  V30 4727 H 436.32 0.00769287 3.94199 0
M  V30 4728 H 437.608 -0.457548 5.06739 0
M  V30 4729 H 437.006 -3.56609 4.39143 0
M  V30 4730 H 435.563 -3.80334 5.29329 0
M  V30 4731 N 438.996 -1.55193 0.274407 0
M  V30 4732 C 440.221 -2.04446 -0.348824 0
M  V30 4733 C 440.646 -1.15149 -1.48735 0
M  V30 4734 O 440.004 -0.149952 -1.80679 0
M  V30 4735 C 440.052 -3.51431 -0.808009 0
M  V30 4736 O 439.156 -3.65225 -1.91531 0
M  V30 4737 H 438.497 -0.66006 -0.0722276 0
M  V30 4738 H 441.027 -2.00481 0.408498 0
M  V30 4739 H 441.037 -3.92781 -1.10395 0
M  V30 4740 H 439.712 -4.15892 0.0249865 0
M  V30 4741 H 438.289 -3.35778 -1.62196 0
M  V30 4742 N 440.474 -0.00167713 -1.576 0
M  V30 4743 C 441.704 0.692754 -1.94639 0
M  V30 4744 C 442.112 1.67744 -0.87513 0
M  V30 4745 O 441.455 1.8305 0.154382 0
M  V30 4746 C 441.517 1.47881 -3.27676 0
M  V30 4747 C 441.181 0.655518 -4.52274 0
M  V30 4748 C 442.178 -0.0575214 -5.19868 0
M  V30 4749 C 439.863 0.600994 -4.98692 0
M  V30 4750 C 441.857 -0.814052 -6.3218 0
M  V30 4751 C 439.544 -0.15926 -6.10892 0
M  V30 4752 C 440.542 -0.865515 -6.77494 0
M  V30 4753 O 440.23 -1.61336 -7.87544 0
M  V30 4754 H 439.962 0.197792 -0.646417 0
M  V30 4755 H 442.516 -0.049423 -2.05341 0
M  V30 4756 H 440.746 2.2655 -3.13388 0
M  V30 4757 H 442.435 2.05874 -3.49816 0
M  V30 4758 H 443.201 -0.0245611 -4.84994 0
M  V30 4759 H 439.08 1.14025 -4.46676 0
M  V30 4760 H 442.624 -1.36584 -6.84098 0
M  V30 4761 H 438.521 -0.194035 -6.45208 0
M  V30 4762 H 439.289 -1.53025 -8.04068 0
M  V30 4763 N 441.952 1.55251 0.271103 0
M  V30 4764 C 443.201 1.75151 1.00025 0
M  V30 4765 C 443.514 0.561041 1.87381 0
M  V30 4766 O 444.72 0.642506 2.63788 0
M  V30 4767 C 443.176 3.09999 1.82835 0
M  V30 4768 C 442.784 4.3662 1.00336 0
M  V30 4769 C 444.528 3.39249 2.55168 0
M  V30 4770 C 442.435 5.62506 1.82595 0
M  V30 4771 H 441.365 0.652877 0.377183 0
M  V30 4772 H 444.016 1.81708 0.255843 0
M  V30 4773 H 442.398 2.97485 2.61378 0
M  V30 4774 H 443.572 4.60055 0.261959 0
M  V30 4775 H 441.887 4.14527 0.394486 0
M  V30 4776 H 444.484 4.3051 3.1712 0
M  V30 4777 H 444.827 2.59467 3.2555 0
M  V30 4778 H 445.36 3.52869 1.83653 0
M  V30 4779 H 442.099 6.45041 1.16631 0
M  V30 4780 H 441.619 5.43211 2.54327 0
M  V30 4781 H 443.298 6.00875 2.39913 0
M  V30 4782 N 443.43 -0.535701 1.48216 0
M  V30 4783 C 444.377 -1.64083 1.62312 0
M  V30 4784 C 445.347 -1.59448 0.465365 0
M  V30 4785 O 446.532 -1.77959 0.688135 0
M  V30 4786 C 443.672 -3.0236 1.66349 0
M  V30 4787 C 442.785 -3.17273 2.93193 0
M  V30 4788 C 441.92 -4.46075 2.88427 0
M  V30 4789 C 440.959 -4.54496 4.1 0
M  V30 4790 N 440.096 -5.7468 4.03345 0
M  V30 4791 H 444.936 -1.51374 2.5669 0
M  V30 4792 H 442.473 -0.737059 1.27302 0
M  V30 4793 H 444.431 -3.82461 1.66672 0
M  V30 4794 H 443.061 -3.13854 0.754672 0
M  V30 4795 H 442.113 -2.30462 3.02641 0
M  V30 4796 H 443.425 -3.19357 3.83162 0
M  V30 4797 H 442.579 -5.3446 2.87119 0
M  V30 4798 H 441.318 -4.46504 1.96177 0
M  V30 4799 H 440.323 -3.64519 4.11589 0
M  V30 4800 H 441.548 -4.5581 5.03402 0
M  V30 4801 H 439.494 -5.76017 3.13912 0
M  V30 4802 H 439.411 -5.78234 4.87013 0
M  V30 4803 H 440.679 -6.65367 4.06087 0
M  V30 4804 N 444.908 -1.36708 -0.784132 0
M  V30 4805 C 446.156 -1.30972 -1.53918 0
M  V30 4806 C 446.477 0.109086 -1.94695 0
M  V30 4807 O 445.747 1.05048 -1.65353 0
M  V30 4808 H 444.327 -0.481819 -0.570841 0
M  V30 4809 H 446.989 -1.71063 -0.934002 0
M  V30 4810 H 446.085 -1.94061 -2.44431 0
M  V30 4811 N 446.386 1.0089 -1.21074 0
M  V30 4812 C 447.318 2.09737 -0.924291 0
M  V30 4813 C 448.331 1.62546 0.0909809 0
M  V30 4814 O 449.52 1.77942 -0.141021 0
M  V30 4815 C 446.62 3.36922 -0.36559 0
M  V30 4816 C 445.793 4.13216 -1.43426 0
M  V30 4817 C 444.852 5.18696 -0.885496 0
M  V30 4818 O 443.878 5.47176 -1.56801 0
M  V30 4819 N 445.08 5.79718 0.301227 0
M  V30 4820 H 447.845 2.34895 -1.8613 0
M  V30 4821 H 445.406 1.17341 -1.11546 0
M  V30 4822 H 447.398 4.04697 0.0158407 0
M  V30 4823 H 445.968 3.08952 0.476149 0
M  V30 4824 H 445.188 3.40301 -1.9897 0
M  V30 4825 H 446.476 4.60967 -2.15376 0
M  V30 4826 H 445.874 5.58926 0.872849 0
M  V30 4827 H 444.431 6.48804 0.624211 0
M  V30 4828 N 447.864 1.01787 1.20321 0
M  V30 4829 C 448.796 0.547357 2.22568 0
M  V30 4830 C 449.809 -0.370922 1.58518 0
M  V30 4831 O 450.998 -0.169067 1.77698 0
M  V30 4832 C 448.098 -0.223031 3.38165 0
M  V30 4833 C 447.271 0.697472 4.31803 0
M  V30 4834 C 446.33 -0.025562 5.26194 0
M  V30 4835 O 445.356 0.597367 5.66057 0
M  V30 4836 N 446.558 -1.29999 5.65757 0
M  V30 4837 H 449.323 1.42668 2.63564 0
M  V30 4838 H 446.884 0.895552 1.34876 0
M  V30 4839 H 448.876 -0.716002 3.98316 0
M  V30 4840 H 447.446 -1.00366 2.9605 0
M  V30 4841 H 446.666 1.37073 3.69601 0
M  V30 4842 H 447.954 1.32347 4.91286 0
M  V30 4843 H 447.352 -1.827 5.35385 0
M  V30 4844 H 445.909 -1.73766 6.28211 0
M  V30 4845 N 449.342 -1.36122 0.79427 0
M  V30 4846 C 450.758 -1.5232 0.476525 0
M  V30 4847 C 450.958 -1.74685 -1.00436 0
M  V30 4848 O 450.014 -1.78115 -1.78973 0
M  V30 4849 C 451.327 -2.70607 1.31119 0
M  V30 4850 C 452.875 -2.8448 1.30537 0
M  V30 4851 C 453.35 -4.05778 2.12387 0
M  V30 4852 N 454.841 -4.12933 2.09859 0
M  V30 4853 C 455.576 -5.05876 2.69957 0
M  V30 4854 N 455.072 -6.04232 3.38934 0
M  V30 4855 N 456.865 -4.98528 2.59665 0
M  V30 4856 H 449.016 -1.1986 1.75349 0
M  V30 4857 H 451.279 -0.585418 0.745647 0
M  V30 4858 H 450.985 -2.60619 2.36158 0
M  V30 4859 H 450.859 -3.64888 0.955843 0
M  V30 4860 H 453.246 -2.93927 0.262876 0
M  V30 4861 H 453.327 -1.91093 1.70051 0
M  V30 4862 H 452.971 -3.97092 3.1667 0
M  V30 4863 H 452.901 -4.98323 1.70242 0
M  V30 4864 H 455.392 -3.42515 1.59662 0
M  V30 4865 H 455.705 -6.71724 3.82109 0
M  V30 4866 H 454.05 -6.04443 3.43036 0
M  V30 4867 H 457.241 -4.20641 2.05375 0
M  V30 4868 H 457.414 -5.70773 3.06793 0
M  V30 4869 N 450.82 -0.546701 -1.47814 0
M  V30 4870 C 452.236 -0.205717 -1.58269 0
M  V30 4871 C 452.436 1.29153 -1.54667 0
M  V30 4872 O 451.492 2.07098 -1.44453 0
M  V30 4873 C 452.805 -0.823065 -2.89216 0
M  V30 4874 C 454.353 -0.793328 -3.02779 0
M  V30 4875 C 454.828 -1.38955 -4.36412 0
M  V30 4876 N 456.319 -1.35227 -4.43021 0
M  V30 4877 C 457.054 -1.78333 -5.44963 0
M  V30 4878 N 456.55 -2.29246 -6.53772 0
M  V30 4879 N 458.343 -1.69467 -5.35945 0
M  V30 4880 H 450.494 -1.5196 -1.48398 0
M  V30 4881 H 452.757 -0.633078 -0.705632 0
M  V30 4882 H 452.463 -1.8749 -2.97558 0
M  V30 4883 H 452.337 -0.309915 -3.75925 0
M  V30 4884 H 454.724 0.249784 -2.94041 0
M  V30 4885 H 454.805 -1.34412 -2.17639 0
M  V30 4886 H 454.449 -2.43168 -4.45906 0
M  V30 4887 H 454.379 -0.814291 -5.20266 0
M  V30 4888 H 456.87 -0.979739 -3.64979 0
M  V30 4889 H 457.183 -2.60089 -7.27718 0
M  V30 4890 H 455.528 -2.3325 -6.5469 0
M  V30 4891 H 458.719 -1.29477 -4.49837 0
M  V30 4892 H 458.892 -2.03381 -6.15256 0
M  V30 4893 N 452.299 1.55045 -0.282633 0
M  V30 4894 C 453.71 1.85473 0.213655 0
M  V30 4895 C 454.061 1.20465 1.54863 0
M  V30 4896 O 453.186 0.495676 2.10647 0
M  V30 4897 C 453.781 3.36496 0.394445 0
M  V30 4898 C 452.34 3.67022 0.834961 0
M  V30 4899 C 451.487 2.77218 -0.0674081 0
M  V30 4900 H 454.438 1.50478 -0.504202 0
M  V30 4901 H 454.459 3.60007 1.23186 0
M  V30 4902 H 453.971 3.83782 -0.577326 0
M  V30 4903 H 452.072 3.25241 1.81794 0
M  V30 4904 H 452.185 4.74433 0.667075 0
M  V30 4905 H 450.549 2.5069 0.450196 0
M  V30 4906 H 451.332 3.2732 -1.0352 0
M  V30 4907 N 453.777 0.010035 1.57597 0
M  V30 4908 C 455.193 -0.346164 1.55801 0
M  V30 4909 C 455.393 -1.74144 1.01371 0
M  V30 4910 O 454.449 -2.43938 0.651968 0
M  V30 4911 C 455.762 -0.212216 2.9995 0
M  V30 4912 C 457.31 -0.286409 3.11687 0
M  V30 4913 C 457.785 -0.18147 4.5764 0
M  V30 4914 N 459.276 -0.239056 4.62583 0
M  V30 4915 C 460.011 -0.181351 5.73113 0
M  V30 4916 N 459.507 -0.073661 6.92761 0
M  V30 4917 N 461.3 -0.233949 5.61613 0
M  V30 4918 H 453.451 0.922657 1.91313 0
M  V30 4919 H 455.714 0.354595 0.879185 0
M  V30 4920 H 455.42 0.748169 3.4365 0
M  V30 4921 H 455.294 -0.990224 3.6397 0
M  V30 4922 H 457.681 -1.23724 2.67911 0
M  V30 4923 H 457.762 0.521645 2.50425 0
M  V30 4924 H 457.406 0.765863 5.02093 0
M  V30 4925 H 457.336 -1.00814 5.1686 0
M  V30 4926 H 459.827 -0.32321 3.76515 0
M  V30 4927 H 460.14 -0.0358003 7.72792 0
M  V30 4928 H 458.485 -0.0391461 6.94989 0
M  V30 4929 H 461.676 -0.316347 4.6703 0
M  V30 4930 H 461.849 -0.185514 6.47734 0
M  V30 4931 N 455.255 -1.55392 -0.262866 0
M  V30 4932 C 456.532 -1.67204 -1.01499 0
M  V30 4933 C 456.912 -0.545186 -2.03939 0
M  V30 4934 O 456.26 0.453467 -2.23955 0
M  V30 4935 C 456.47 -3.06847 -1.6627 0
M  V30 4936 C 457.818 -3.64928 -2.17054 0
M  V30 4937 O 458.842 -3.09545 -1.76239 0
M  V30 4938 O 457.701 -4.61984 -2.91947 0
M  V30 4939 H 454.795 -0.679467 -0.471438 0
M  V30 4940 H 457.341 -1.67729 -0.257918 0
M  V30 4941 H 456.113 -3.80309 -0.920915 0
M  V30 4942 H 455.736 -3.10266 -2.48638 0
M  V30 4943 N 456.733 0.527833 -1.48498 0
M  V30 4944 C 458.149 0.856571 -1.34666 0
M  V30 4945 C 458.349 1.98271 -0.35931 0
M  V30 4946 O 457.405 2.51551 0.218703 0
M  V30 4947 C 458.718 1.22207 -2.74747 0
M  V30 4948 C 460.266 1.33183 -2.83251 0
M  V30 4949 C 460.741 1.73075 -4.24039 0
M  V30 4950 N 462.232 1.80174 -4.26722 0
M  V30 4951 C 462.967 2.1243 -5.32598 0
M  V30 4952 N 462.463 2.43096 -6.4875 0
M  V30 4953 N 464.256 2.13454 -5.19994 0
M  V30 4954 H 456.407 -0.215174 -2.11307 0
M  V30 4955 H 458.67 -0.0336281 -0.947403 0
M  V30 4956 H 458.376 0.468195 -3.4857 0
M  V30 4957 H 458.25 2.17173 -3.08409 0
M  V30 4958 H 460.637 2.07647 -2.09683 0
M  V30 4959 H 460.718 0.363333 -2.53206 0
M  V30 4960 H 460.362 0.991712 -4.98124 0
M  V30 4961 H 460.292 2.70979 -4.51529 0
M  V30 4962 H 462.783 1.58744 -3.42942 0
M  V30 4963 H 463.096 2.6682 -7.25277 0
M  V30 4964 H 461.441 2.40611 -6.52021 0
M  V30 4965 H 464.632 1.88956 -4.28268 0
M  V30 4966 H 464.805 2.38261 -6.02608 0
M  V30 4967 N 458.211 1.37122 0.776871 0
M  V30 4968 C 459.458 1.32047 1.53524 0
M  V30 4969 C 459.786 -0.0965631 1.9426 0
M  V30 4970 O 459.041 -1.06866 1.63945 0
M  V30 4971 C 459.34 2.20068 2.81611 0
M  V30 4972 C 459.006 3.68423 2.59953 0
M  V30 4973 C 457.668 4.08854 2.53755 0
M  V30 4974 C 460.02 4.62431 2.40431 0
M  V30 4975 C 457.348 5.41417 2.26018 0
M  V30 4976 C 459.7 5.95225 2.14219 0
M  V30 4977 C 458.364 6.34767 2.06462 0
M  V30 4978 H 457.634 0.483196 0.561785 0
M  V30 4979 H 460.281 1.69284 0.895268 0
M  V30 4980 H 458.586 1.75809 3.50141 0
M  V30 4981 H 460.283 2.13458 3.39465 0
M  V30 4982 H 456.873 3.36354 2.65638 0
M  V30 4983 H 461.057 4.32057 2.44213 0
M  V30 4984 H 456.313 5.71022 2.18504 0
M  V30 4985 H 460.487 6.67626 1.98112 0
M  V30 4986 H 458.114 7.37413 1.84733 0
M  V30 4987 N 459.689 -1.00246 1.21608 0
M  V30 4988 C 460.619 -2.10921 1.00172 0
M  V30 4989 C 461.6 -1.69938 -0.0741587 0
M  V30 4990 O 462.785 -1.94009 0.0861753 0
M  V30 4991 C 459.915 -3.42618 0.568355 0
M  V30 4992 C 458.869 -3.97407 1.58909 0
M  V30 4993 C 458.195 -5.25038 1.01187 0
M  V30 4994 C 459.495 -4.2918 2.97661 0
M  V30 4995 H 461.189 -2.29112 1.92739 0
M  V30 4996 H 458.735 -1.10101 0.928102 0
M  V30 4997 H 460.688 -4.19444 0.405555 0
M  V30 4998 H 459.412 -3.24227 -0.392961 0
M  V30 4999 H 458.071 -3.22703 1.73949 0
M  V30 5000 H 457.719 -5.02982 0.0421965 0
M  V30 5001 H 457.419 -5.62661 1.6937 0
M  V30 5002 H 458.943 -6.04507 0.860448 0
M  V30 5003 H 460.357 -4.96839 2.86049 0
M  V30 5004 H 458.754 -4.77952 3.6288 0
M  V30 5005 H 459.824 -3.3735 3.48315 0
M  V30 5006 N 461.167 -1.02423 -1.1978 0
M  V30 5007 C 462.397 -0.736387 -1.93031 0
M  V30 5008 C 462.805 0.708023 -1.75453 0
M  V30 5009 O 462.148 1.4927 -1.07071 0
M  V30 5010 C 462.21 -1.00194 -3.45255 0
M  V30 5011 C 461.874 -2.43698 -3.86601 0
M  V30 5012 C 462.871 -3.41814 -3.91738 0
M  V30 5013 C 460.556 -2.77975 -4.18372 0
M  V30 5014 C 462.55 -4.72265 -4.28071 0
M  V30 5015 C 460.237 -4.08636 -4.54378 0
M  V30 5016 C 461.235 -5.05592 -4.59201 0
M  V30 5017 O 460.923 -6.33914 -4.94376 0
M  V30 5018 H 460.655 -0.269116 -0.620123 0
M  V30 5019 H 463.209 -1.37043 -1.52998 0
M  V30 5020 H 461.439 -0.310747 -3.85449 0
M  V30 5021 H 463.128 -0.704488 -3.9974 0
M  V30 5022 H 463.894 -3.16671 -3.67348 0
M  V30 5023 H 459.773 -2.0319 -4.13805 0
M  V30 5024 H 463.317 -5.4794 -4.3175 0
M  V30 5025 H 459.214 -4.33556 -4.78226 0
M  V30 5026 H 459.982 -6.38317 -5.12341 0
M  V30 5027 N 462.645 1.35699 -0.801477 0
M  V30 5028 C 463.608 2.28199 -0.213994 0
M  V30 5029 C 464.608 1.49359 0.595691 0
M  V30 5030 O 465.798 1.69186 0.414921 0
M  V30 5031 C 462.93 3.33587 0.702297 0
M  V30 5032 H 464.123 2.81666 -1.02976 0
M  V30 5033 H 461.676 1.45467 -0.571759 0
M  V30 5034 H 462.411 2.85297 1.54195 0
M  V30 5035 H 462.196 3.91906 0.123484 0
M  V30 5036 H 463.686 4.02638 1.10783 0
M  V30 5037 N 464.123 0.554532 1.47522 0
M  V30 5038 C 465.07 -0.19466 2.29978 0
M  V30 5039 C 466.04 -0.910882 1.38896 0
M  V30 5040 O 467.225 -0.907102 1.67858 0
M  V30 5041 C 464.365 -1.22035 3.22802 0
M  V30 5042 C 463.478 -0.510474 4.28973 0
M  V30 5043 C 462.613 -1.52123 5.08952 0
M  V30 5044 C 461.652 -0.796173 6.069 0
M  V30 5045 N 460.789 -1.75363 6.79847 0
M  V30 5046 H 465.629 0.51461 2.93523 0
M  V30 5047 H 463.166 0.265607 1.44682 0
M  V30 5048 H 465.124 -1.8276 3.7504 0
M  V30 5049 H 463.754 -1.89769 2.61127 0
M  V30 5050 H 462.806 0.211234 3.79813 0
M  V30 5051 H 464.118 0.0576503 4.98767 0
M  V30 5052 H 463.272 -2.20207 5.65326 0
M  V30 5053 H 462.011 -2.12327 4.39054 0
M  V30 5054 H 461.016 -0.101388 5.49707 0
M  V30 5055 H 462.241 -0.199911 6.78806 0
M  V30 5056 H 460.187 -2.3443 6.12682 0
M  V30 5057 H 460.104 -1.23759 7.45801 0
M  V30 5058 H 461.372 -2.4257 7.40797 0
M  V30 5059 N 465.601 -1.54893 0.290851 0
M  V30 5060 C 466.531 -2.26103 -0.583084 0
M  V30 5061 C 467.512 -1.25684 -1.14619 0
M  V30 5062 O 468.697 -1.54436 -1.17741 0
M  V30 5063 C 465.827 -2.99409 -1.75987 0
M  V30 5064 C 464.781 -4.0689 -1.32758 0
M  V30 5065 C 464.107 -4.67856 -2.58872 0
M  V30 5066 C 465.407 -5.20215 -0.46624 0
M  V30 5067 H 467.101 -2.99398 0.0108214 0
M  V30 5068 H 464.647 -1.43998 0.00664468 0
M  V30 5069 H 466.6 -3.47943 -2.37727 0
M  V30 5070 H 465.324 -2.23675 -2.37985 0
M  V30 5071 H 463.983 -3.59191 -0.733299 0
M  V30 5072 H 463.631 -3.88772 -3.19163 0
M  V30 5073 H 463.331 -5.40438 -2.30653 0
M  V30 5074 H 464.855 -5.19147 -3.21433 0
M  V30 5075 H 466.269 -5.64704 -0.989047 0
M  V30 5076 H 464.666 -5.99455 -0.27826 0
M  V30 5077 H 465.736 -4.82198 0.511173 0
M  V30 5078 N 467.08 -0.0183926 -1.57589 0
M  V30 5079 C 468.01 0.965596 -2.12599 0
M  V30 5080 C 468.991 1.34641 -1.0395 0
M  V30 5081 O 470.176 1.42693 -1.31729 0
M  V30 5082 C 467.306 2.25149 -2.64434 0
M  V30 5083 C 466.26 2.01175 -3.77773 0
M  V30 5084 C 465.586 3.35937 -4.15994 0
M  V30 5085 C 466.886 1.35953 -5.04296 0
M  V30 5086 H 468.58 0.507504 -2.95067 0
M  V30 5087 H 466.126 0.242671 -1.41941 0
M  V30 5088 H 468.079 2.94357 -3.01549 0
M  V30 5089 H 466.803 2.73105 -1.79112 0
M  V30 5090 H 465.462 1.34388 -3.4108 0
M  V30 5091 H 465.11 3.81631 -3.27669 0
M  V30 5092 H 464.81 3.20705 -4.92364 0
M  V30 5093 H 466.334 4.0643 -4.55683 0
M  V30 5094 H 467.748 1.95144 -5.39065 0
M  V30 5095 H 466.145 1.31152 -5.85593 0
M  V30 5096 H 467.215 0.331071 -4.83768 0
M  V30 5097 N 468.558 1.5553 0.254621 0
M  V30 5098 C 469.806 1.7665 0.981793 0
M  V30 5099 C 470.127 0.580963 1.86145 0
M  V30 5100 O 469.397 -0.403537 1.91699 0
M  V30 5101 H 467.977 0.651475 0.365498 0
M  V30 5102 H 470.639 1.92958 0.274426 0
M  V30 5103 H 469.735 2.67486 1.60802 0
M  V30 5104 N 470.036 -0.519951 1.48776 0
M  V30 5105 C 470.966 -1.63253 1.66945 0
M  V30 5106 C 471.947 -1.62014 0.518224 0
M  V30 5107 O 473.132 -1.79053 0.751919 0
M  V30 5108 C 470.262 -3.0181 1.71836 0
M  V30 5109 C 469.216 -3.17911 2.8656 0
M  V30 5110 C 468.542 -4.5763 2.76548 0
M  V30 5111 C 469.842 -2.99729 4.27738 0
M  V30 5112 H 471.536 -1.48302 2.6009 0
M  V30 5113 H 469.082 -0.712026 1.25165 0
M  V30 5114 H 471.035 -3.79525 1.83135 0
M  V30 5115 H 469.759 -3.17806 0.752775 0
M  V30 5116 H 468.418 -2.42616 2.74833 0
M  V30 5117 H 468.066 -4.70476 1.77937 0
M  V30 5118 H 467.766 -4.69346 3.53536 0
M  V30 5119 H 469.29 -5.37431 2.89828 0
M  V30 5120 H 470.704 -3.67228 4.40246 0
M  V30 5121 H 469.101 -3.22932 5.05801 0
M  V30 5122 H 470.171 -1.96047 4.43502 0
M  V30 5123 N 471.514 -1.37532 -0.769588 0
M  V30 5124 C 472.444 -1.36172 -1.89682 0
M  V30 5125 C 473.425 -0.23001 -1.68538 0
M  V30 5126 O 474.61 -0.43069 -1.89364 0
M  V30 5127 C 471.74 -1.1701 -3.26995 0
M  V30 5128 C 470.694 -2.27216 -3.62708 0
M  V30 5129 C 470.02 -1.93174 -4.98586 0
M  V30 5130 C 471.32 -3.6941 -3.69234 0
M  V30 5131 H 473.014 -2.30499 -1.91078 0
M  V30 5132 H 470.56 -1.10953 -0.917902 0
M  V30 5133 H 472.513 -1.14688 -4.05493 0
M  V30 5134 H 471.237 -0.191395 -3.26039 0
M  V30 5135 H 469.896 -2.28697 -2.86519 0
M  V30 5136 H 469.544 -0.938281 -4.94171 0
M  V30 5137 H 469.244 -2.66973 -5.23449 0
M  V30 5138 H 470.768 -1.92443 -5.79481 0
M  V30 5139 H 472.182 -3.70047 -4.37879 0
M  V30 5140 H 470.579 -4.4228 -4.05597 0
M  V30 5141 H 471.649 -4.0288 -2.69844 0
M  V30 5142 N 472.992 0.995999 -1.22138 0
M  V30 5143 C 473.955 2.06711 -0.990109 0
M  V30 5144 C 474.955 1.60744 0.0422978 0
M  V30 5145 O 476.145 1.73095 -0.195895 0
M  V30 5146 C 473.277 3.37288 -0.49491 0
M  V30 5147 H 474.47 2.28661 -1.94047 0
M  V30 5148 H 472.023 1.16711 -1.03963 0
M  V30 5149 H 472.758 3.21022 0.459948 0
M  V30 5150 H 472.543 3.71986 -1.23971 0
M  V30 5151 H 474.033 4.16103 -0.353253 0
M  V30 5152 N 474.47 1.03057 1.19235 0
M  V30 5153 C 475.38 0.622922 2.26179 0
M  V30 5154 C 476.396 -0.346113 1.70523 0
M  V30 5155 O 477.572 -0.203572 2.00369 0
M  V30 5156 C 474.637 -0.0182063 3.46695 0
M  V30 5157 C 473.698 0.998546 4.17526 0
M  V30 5158 C 472.931 0.387917 5.32288 0
M  V30 5159 O 473.154 -0.808668 5.64639 0
M  V30 5160 O 472.088 1.1116 5.91546 0
M  V30 5161 H 475.914 1.51363 2.63292 0
M  V30 5162 H 473.499 0.800856 1.26122 0
M  V30 5163 H 475.381 -0.375606 4.19723 0
M  V30 5164 H 474.056 -0.882895 3.11427 0
M  V30 5165 H 472.963 1.40756 3.4661 0
M  V30 5166 H 474.296 1.83366 4.56769 0
M  V30 5167 N 475.948 -1.35272 0.808662 0
M  V30 5168 C 476.878 -2.32315 0.234981 0
M  V30 5169 C 477.859 -1.57572 -0.64071 0
M  V30 5170 O 479.044 -1.8563 -0.570551 0
M  V30 5171 C 476.174 -3.41801 -0.615601 0
M  V30 5172 C 475.128 -4.27694 0.161767 0
M  V30 5173 C 474.454 -5.28519 -0.810649 0
M  V30 5174 C 475.754 -5.04231 1.36193 0
M  V30 5175 H 477.448 -2.80543 1.04575 0
M  V30 5176 H 474.994 -1.3488 0.504315 0
M  V30 5177 H 476.947 -4.08693 -1.02702 0
M  V30 5178 H 475.671 -2.92186 -1.45928 0
M  V30 5179 H 474.33 -3.62384 0.554382 0
M  V30 5180 H 473.978 -4.75171 -1.64988 0
M  V30 5181 H 473.678 -5.8686 -0.294822 0
M  V30 5182 H 475.202 -5.98283 -1.22023 0
M  V30 5183 H 476.616 -5.64058 1.02528 0
M  V30 5184 H 475.013 -5.72077 1.81239 0
M  V30 5185 H 476.083 -4.34753 2.14751 0
M  V30 5186 N 477.426 -0.562348 -1.47226 0
M  V30 5187 C 478.842 -0.222492 -1.58042 0
M  V30 5188 C 479.042 1.27505 -1.56028 0
M  V30 5189 O 478.098 2.05555 -1.46641 0
M  V30 5190 C 479.411 -0.853694 -2.88327 0
M  V30 5191 C 480.959 -0.825397 -3.01921 0
M  V30 5192 C 481.434 -1.43576 -4.34914 0
M  V30 5193 N 482.925 -1.39918 -4.41562 0
M  V30 5194 C 483.66 -1.84103 -5.43041 0
M  V30 5195 N 483.156 -2.36167 -6.51304 0
M  V30 5196 N 484.949 -1.75142 -5.34118 0
M  V30 5197 H 477.1 -1.53525 -1.46778 0
M  V30 5198 H 479.363 -0.640527 -0.698877 0
M  V30 5199 H 479.069 -1.90635 -2.95552 0
M  V30 5200 H 478.943 -0.34977 -3.75575 0
M  V30 5201 H 481.33 0.218583 -2.94289 0
M  V30 5202 H 481.411 -1.36713 -2.16202 0
M  V30 5203 H 481.055 -2.47884 -4.43301 0
M  V30 5204 H 480.985 -0.869427 -5.19373 0
M  V30 5205 H 483.476 -1.0184 -3.63919 0
M  V30 5206 H 483.789 -2.67793 -7.24919 0
M  V30 5207 H 482.134 -2.40181 -6.52179 0
M  V30 5208 H 485.325 -1.34241 -4.48439 0
M  V30 5209 H 485.498 -2.09895 -6.13065 0
M  V30 5210 N 478.904 1.54736 -0.299062 0
M  V30 5211 C 480.129 2.04975 0.316254 0
M  V30 5212 C 480.554 1.17501 1.46885 0
M  V30 5213 O 479.912 0.178678 1.80417 0
M  V30 5214 C 479.96 3.52672 0.751997 0
M  V30 5215 O 479.064 3.68226 1.85697 0
M  V30 5216 H 478.405 0.661126 0.0617175 0
M  V30 5217 H 480.935 1.99805 -0.440341 0
M  V30 5218 H 480.945 3.94488 1.04133 0
M  V30 5219 H 479.62 4.158 -0.0911482 0
M  V30 5220 H 478.197 3.38316 1.56834 0
M  V30 5221 N 480.382 0.0267497 1.57577 0
M  V30 5222 C 481.631 -0.651736 1.9088 0
M  V30 5223 C 481.944 -1.73427 0.904576 0
M  V30 5224 O 483.15 -2.46923 1.12877 0
M  V30 5225 C 481.606 -1.21048 3.38933 0
M  V30 5226 C 481.214 -0.161362 4.47709 0
M  V30 5227 C 482.958 -1.86562 3.81307 0
M  V30 5228 C 480.865 -0.731611 5.86857 0
M  V30 5229 H 479.795 -0.247198 0.712326 0
M  V30 5230 H 482.446 0.0916641 1.83271 0
M  V30 5231 H 480.828 -2.00542 3.41466 0
M  V30 5232 H 482.002 0.61094 4.56732 0
M  V30 5233 H 480.317 0.394877 4.14523 0
M  V30 5234 H 482.914 -2.30178 4.8262 0
M  V30 5235 H 483.257 -2.70735 3.16241 0
M  V30 5236 H 483.79 -1.13762 3.81186 0
M  V30 5237 H 480.529 0.0719329 6.55461 0
M  V30 5238 H 480.049 -1.47245 5.81445 0
M  V30 5239 H 481.728 -1.22208 6.35354 0
M  V30 5240 N 481.861 -1.55662 -0.24637 0
M  V30 5241 C 482.809 -1.91186 -1.3248 0
M  V30 5242 C 483.803 -0.790996 -1.49799 0
M  V30 5243 O 485.009 -0.975617 -1.51267 0
M  V30 5244 H 481.384 -0.607207 -0.443626 0
M  V30 5245 H 483.355 -2.81221 -0.997853 0
M  V30 5246 C 482.104 -2.22349 -2.67313 0
M  V30 5247 H 481.427 -3.08097 -2.54786 0
M  V30 5248 H 482.867 -2.51107 -3.41645 0
M  V30 5249 C 481.326 -1.04001 -3.20446 0
M  V30 5250 O 481.856 -0.28828 -4.00664 0
M  V30 5251 N 480.062 -0.830494 -2.7848 0
M  V30 5252 H 479.609 -1.4435 -2.13356 0
M  V30 5253 H 479.567 -0.0403258 -3.14374 0
M  V30 5254 N 483.339 0.512053 -1.4905 0
M  V30 5255 C 484.249 1.64139 -1.67617 0
M  V30 5256 C 485.265 1.64786 -0.558701 0
M  V30 5257 O 486.441 1.8341 -0.832034 0
M  V30 5258 C 483.506 3.00548 -1.72835 0
M  V30 5259 C 482.567 3.10615 -2.96339 0
M  V30 5260 C 481.8 4.40517 -3.01298 0
M  V30 5261 O 482.023 5.28671 -2.14157 0
M  V30 5262 O 480.957 4.55325 -3.93653 0
M  V30 5263 H 484.783 1.51407 -2.63267 0
M  V30 5264 H 482.368 0.687131 -1.32661 0
M  V30 5265 H 484.25 3.81641 -1.78683 0
M  V30 5266 H 482.925 3.13566 -0.803616 0
M  V30 5267 H 481.832 2.2875 -2.96014 0
M  V30 5268 H 483.165 3.0252 -3.88256 0
M  V30 5269 N 484.817 1.37938 0.762283 0
M  V30 5270 C 485.78 1.34279 1.85747 0
M  V30 5271 C 486.78 0.244969 1.58923 0
M  V30 5272 O 487.97 0.501365 1.66829 0
M  V30 5273 C 485.102 1.08833 3.23061 0
M  V30 5274 H 486.295 2.31705 1.90401 0
M  V30 5275 H 483.848 1.23105 0.963057 0
M  V30 5276 H 484.583 0.119767 3.24079 0
M  V30 5277 H 484.368 1.88306 3.43923 0
M  V30 5278 H 485.858 1.08946 4.03138 0
M  V30 5279 N 486.295 -0.989507 1.22664 0
M  V30 5280 C 487.525 -1.7624 1.0781 0
M  V30 5281 C 487.933 -1.85466 -0.374036 0
M  V30 5282 O 487.276 -1.32645 -1.27087 0
M  V30 5283 C 487.338 -3.21007 1.61849 0
M  V30 5284 C 487.002 -3.35316 3.10503 0
M  V30 5285 C 487.999 -3.22362 4.07896 0
M  V30 5286 C 485.684 -3.60258 3.50028 0
M  V30 5287 C 487.678 -3.34139 5.42798 0
M  V30 5288 C 485.365 -3.71676 4.85078 0
M  V30 5289 C 486.363 -3.58625 5.81272 0
M  V30 5290 O 486.051 -3.69655 7.1387 0
M  V30 5291 H 485.783 -0.560209 0.378341 0
M  V30 5292 H 488.337 -1.25252 1.62792 0
M  V30 5293 H 486.567 -3.73202 1.01279 0
M  V30 5294 H 488.256 -3.80024 1.42606 0
M  V30 5295 H 489.022 -3.03 3.78703 0
M  V30 5296 H 484.901 -3.69492 2.75675 0
M  V30 5297 H 488.445 -3.23869 6.17863 0
M  V30 5298 H 484.342 -3.90545 5.1395 0
M  V30 5299 H 485.11 -3.86507 7.21495 0
M  V30 5300 N 487.773 -1.03688 -1.18687 0
M  V30 5301 C 489.021 -0.736572 -1.88199 0
M  V30 5302 C 489.342 0.737665 -1.80509 0
M  V30 5303 O 488.612 1.53204 -1.22088 0
M  V30 5304 H 487.192 -0.269466 -0.696704 0
M  V30 5305 H 489.854 -1.31282 -1.44052 0
M  V30 5306 H 488.95 -1.03802 -2.94332 0
M  V30 5307 N 489.251 1.34841 -0.815825 0
M  V30 5308 C 490.481 2.02436 -0.412695 0
M  V30 5309 C 490.889 1.61604 0.983906 0
M  V30 5310 O 490.232 0.813729 1.64694 0
M  V30 5311 C 490.294 3.56953 -0.427182 0
M  V30 5312 C 489.958 4.21083 -1.77589 0
M  V30 5313 C 490.955 4.42107 -2.73564 0
M  V30 5314 C 488.64 4.58006 -2.06243 0
M  V30 5315 C 490.634 4.99169 -3.9637 0
M  V30 5316 C 488.321 5.1478 -3.2931 0
M  V30 5317 C 489.319 5.35304 -4.24191 0
M  V30 5318 O 489.007 5.90878 -5.45086 0
M  V30 5319 H 488.739 0.655631 -0.164695 0
M  V30 5320 H 491.293 1.73246 -1.1034 0
M  V30 5321 H 489.523 3.85372 0.320175 0
M  V30 5322 H 491.212 4.05875 -0.0450875 0
M  V30 5323 H 491.978 4.13953 -2.52721 0
M  V30 5324 H 487.857 4.41339 -1.33196 0
M  V30 5325 H 491.401 5.15105 -4.70439 0
M  V30 5326 H 487.298 5.42362 -3.5002 0
M  V30 5327 H 488.066 6.0932 -5.46508 0
M  V30 5328 N 490.729 0.570148 1.46925 0
M  V30 5329 C 491.661 -0.207909 2.28255 0
M  V30 5330 C 492.674 -0.867301 1.37774 0
M  V30 5331 O 493.863 -0.738976 1.62485 0
M  V30 5332 C 490.963 -1.31298 3.12433 0
M  V30 5333 C 490.136 -0.747915 4.30958 0
M  V30 5334 C 489.195 -1.7391 4.9663 0
M  V30 5335 O 488.221 -1.2801 5.54619 0
M  V30 5336 N 489.423 -3.07288 4.92498 0
M  V30 5337 H 492.188 0.489794 2.95671 0
M  V30 5338 H 489.749 0.407076 1.56699 0
M  V30 5339 H 491.741 -1.97507 3.53232 0
M  V30 5340 H 490.311 -1.91373 2.47175 0
M  V30 5341 H 489.531 0.0913066 3.94094 0
M  V30 5342 H 490.819 -0.349958 5.07595 0
M  V30 5343 H 490.217 -3.47213 4.46609 0
M  V30 5344 H 488.774 -3.69021 5.37277 0
M  V30 5345 N 492.207 -1.54576 0.307264 0
M  V30 5346 C 493.456 -1.99442 -0.300976 0
M  V30 5347 C 493.769 -1.19928 -1.5452 0
M  V30 5348 O 494.975 -1.55092 -2.22842 0
M  V30 5349 C 493.431 -3.55084 -0.586809 0
M  V30 5350 C 493.039 -4.43413 0.639438 0
M  V30 5351 C 494.783 -4.0846 -1.1559 0
M  V30 5352 C 492.69 -5.90499 0.326411 0
M  V30 5353 H 491.62 -0.744986 -0.116238 0
M  V30 5354 H 494.271 -1.787 0.416947 0
M  V30 5355 H 492.653 -3.71749 -1.36449 0
M  V30 5356 H 493.827 -4.38522 1.41545 0
M  V30 5357 H 492.142 -4.00842 1.1276 0
M  V30 5358 H 494.739 -5.15926 -1.40445 0
M  V30 5359 H 495.082 -3.59443 -2.10015 0
M  V30 5360 H 495.615 -3.95362 -0.439778 0
M  V30 5361 H 492.354 -6.43676 1.23939 0
M  V30 5362 H 491.874 -5.98382 -0.412212 0
M  V30 5363 H 493.553 -6.46962 -0.0697393 0
M  V30 5364 N 493.685 -0.035106 -1.57561 0
M  V30 5365 C 494.617 0.973604 -2.07494 0
M  V30 5366 C 495.63 1.28504 -0.999534 0
M  V30 5367 O 496.819 1.24864 -1.27559 0
M  V30 5368 C 493.919 2.29945 -2.48955 0
M  V30 5369 C 493.092 2.1723 -3.79644 0
M  V30 5370 C 492.151 3.328 -4.07592 0
M  V30 5371 O 491.177 3.09418 -4.77754 0
M  V30 5372 N 492.379 4.56779 -3.58236 0
M  V30 5373 H 495.144 0.547525 -2.94656 0
M  V30 5374 H 492.705 0.151515 -1.61189 0
M  V30 5375 H 494.697 3.06097 -2.64739 0
M  V30 5376 H 493.267 2.64173 -1.67126 0
M  V30 5377 H 492.487 1.25768 -3.73599 0
M  V30 5378 H 493.775 2.05945 -4.65257 0
M  V30 5379 H 493.173 4.78668 -3.01485 0
M  V30 5380 H 491.73 5.30079 -3.79288 0
M  V30 5381 N 495.163 1.55791 0.238111 0
M  V30 5382 C 496.113 1.87444 1.29803 0
M  V30 5383 C 497.097 0.736043 1.43078 0
M  V30 5384 O 498.289 0.998146 1.46171 0
M  V30 5385 C 495.418 2.18028 2.65177 0
M  V30 5386 C 494.504 3.38217 2.55871 0
M  V30 5387 N 494.895 4.57264 2.16202 0
M  V30 5388 C 493.193 3.41502 2.86866 0
M  V30 5389 C 493.894 5.3941 2.17744 0
M  V30 5390 N 492.87 4.78695 2.57589 0
M  V30 5391 H 496.672 2.7701 0.981965 0
M  V30 5392 H 494.186 1.56135 0.44672 0
M  V30 5393 H 496.183 2.38873 3.4168 0
M  V30 5394 H 494.843 1.29765 2.97643 0
M  V30 5395 H 495.854 4.82727 1.87602 0
M  V30 5396 H 492.531 2.63536 3.23813 0
M  V30 5397 H 493.921 6.44671 1.89339 0
M  V30 5398 N 496.642 -0.504142 1.49319 0
M  V30 5399 C 497.891 -1.25507 1.57895 0
M  V30 5400 C 498.204 -1.93735 0.269433 0
M  V30 5401 O 499.41 -2.70492 0.233706 0
M  V30 5402 C 497.866 -2.27869 2.78574 0
M  V30 5403 C 497.474 -1.65594 4.16272 0
M  V30 5404 C 499.218 -3.0381 2.96479 0
M  V30 5405 C 497.125 -2.66048 5.28178 0
M  V30 5406 H 496.055 -0.47212 0.587894 0
M  V30 5407 H 498.706 -0.52931 1.757 0
M  V30 5408 H 497.088 -3.03594 2.54257 0
M  V30 5409 H 498.262 -0.958826 4.50714 0
M  V30 5410 H 496.577 -1.02055 4.037 0
M  V30 5411 H 499.174 -3.78925 3.77253 0
M  V30 5412 H 499.517 -3.61235 2.06918 0
M  V30 5413 H 500.05 -2.352 3.20821 0
M  V30 5414 H 496.789 -2.13408 6.19788 0
M  V30 5415 H 496.309 -3.34009 4.98195 0
M  V30 5416 H 497.988 -3.28536 5.57381 0
M  V30 5417 N 498.12 -1.38341 -0.754957 0
M  V30 5418 C 499.052 -1.31347 -1.87831 0
M  V30 5419 C 500.065 -0.225955 -1.61224 0
M  V30 5420 O 501.254 -0.48341 -1.7183 0
M  V30 5421 C 498.354 -1.01201 -3.23437 0
M  V30 5422 C 497.527 -2.20834 -3.77559 0
M  V30 5423 C 496.586 -1.87454 -4.91678 0
M  V30 5424 O 495.612 -2.59934 -5.06382 0
M  V30 5425 N 496.814 -0.828682 -5.74555 0
M  V30 5426 H 499.579 -2.28147 -1.94342 0
M  V30 5427 H 497.14 -1.32184 -0.934828 0
M  V30 5428 H 499.132 -0.769249 -3.97322 0
M  V30 5429 H 497.702 -0.132011 -3.12321 0
M  V30 5430 H 496.922 -2.61184 -2.95256 0
M  V30 5431 H 498.21 -3.00678 -4.10451 0
M  V30 5432 H 497.608 -0.227591 -5.65242 0
M  V30 5433 H 496.165 -0.645802 -6.48593 0
M  V30 5434 N 499.598 0.982988 -1.23187 0
M  V30 5435 C 500.846 1.72052 -1.06031 0
M  V30 5436 C 501.167 1.90769 0.404019 0
M  V30 5437 O 500.437 1.47446 1.28982 0
M  V30 5438 H 499.017 0.637499 -0.389363 0
M  V30 5439 H 501.679 1.18338 -1.54862 0
M  V30 5440 H 500.775 2.7111 -1.54615 0
M  V30 5441 N 501.076 1.04316 1.18135 0
M  V30 5442 C 502.006 0.657299 2.24058 0
M  V30 5443 C 502.987 -0.340678 1.66654 0
M  V30 5444 O 504.172 -0.220223 1.92947 0
M  V30 5445 C 501.302 0.0220715 3.47293 0
M  V30 5446 C 500.256 0.943857 4.17463 0
M  V30 5447 C 499.582 0.172973 5.3442 0
M  V30 5448 C 500.882 2.26409 4.70677 0
M  V30 5449 H 502.576 1.5428 2.56589 0
M  V30 5450 H 500.122 0.743263 1.23335 0
M  V30 5451 H 502.075 -0.259607 4.206 0
M  V30 5452 H 500.799 -0.898323 3.14003 0
M  V30 5453 H 499.458 1.20996 3.46057 0
M  V30 5454 H 499.106 -0.749907 4.97379 0
M  V30 5455 H 498.806 0.787098 5.82304 0
M  V30 5456 H 500.33 -0.101628 6.10515 0
M  V30 5457 H 501.744 2.04294 5.35665 0
M  V30 5458 H 500.141 2.8314 5.29105 0
M  V30 5459 H 501.211 2.90883 3.87962 0
M  V30 5460 N 502.554 -1.34406 0.822964 0
M  V30 5461 C 503.779 -2.0304 0.423034 0
M  V30 5462 C 504.204 -1.61568 -0.963196 0
M  V30 5463 O 503.562 -0.800339 -1.62678 0
M  V30 5464 C 503.61 -3.56636 0.53321 0
M  V30 5465 O 502.714 -4.09971 -0.446939 0
M  V30 5466 H 502.055 -0.64075 0.174171 0
M  V30 5467 H 504.585 -1.71653 1.11339 0
M  V30 5468 H 504.595 -4.05945 0.408991 0
M  V30 5469 H 503.27 -3.86168 1.54425 0
M  V30 5470 H 501.847 -3.71835 -0.281601 0
M  V30 5471 N 504.032 -0.577932 -1.46621 0
M  V30 5472 C 504.995 0.147805 -2.28723 0
M  V30 5473 C 505.995 0.823325 -1.38123 0
M  V30 5474 O 507.185 0.676011 -1.60548 0
M  V30 5475 C 504.317 1.21853 -3.18378 0
M  V30 5476 H 505.51 -0.573654 -2.94362 0
M  V30 5477 H 503.063 -0.335703 -1.52652 0
M  V30 5478 H 503.798 1.97173 -2.57475 0
M  V30 5479 H 503.583 0.738714 -3.85078 0
M  V30 5480 H 505.073 1.72768 -3.80186 0
M  V30 5481 N 505.51 1.54411 -0.315457 0
M  V30 5482 C 506.443 2.20265 0.596522 0
M  V30 5483 C 507.421 1.17693 1.12192 0
M  V30 5484 O 508.605 1.46397 1.18744 0
M  V30 5485 C 505.732 2.85794 1.81767 0
M  V30 5486 C 504.778 4.02017 1.42424 0
M  V30 5487 S 505.611 5.33452 0.467836 0
M  V30 5488 C 506.767 6.02471 1.69645 0
M  V30 5489 H 507 2.97277 0.0370896 0
M  V30 5490 H 504.533 1.54079 -0.0995562 0
M  V30 5491 H 506.491 3.24172 2.51839 0
M  V30 5492 H 505.152 2.08601 2.34828 0
M  V30 5493 H 504.345 4.46701 2.33396 0
M  V30 5494 H 503.947 3.65271 0.803311 0
M  V30 5495 H 506.239 6.24157 2.63504 0
M  V30 5496 H 507.182 6.96215 1.29192 0
M  V30 5497 H 507.59 5.32284 1.87974 0
M  V30 5498 N 506.988 0.0434614 1.5754 0
M  V30 5499 C 507.921 -0.968729 2.06618 0
M  V30 5500 C 508.899 -1.30868 0.965 0
M  V30 5501 O 510.083 -1.42288 1.23638 0
M  V30 5502 C 507.21 -2.28486 2.50023 0
M  V30 5503 C 506.256 -2.09851 3.71302 0
M  V30 5504 S 507.089 -1.38401 5.17306 0
M  V30 5505 C 508.245 -2.71354 5.64019 0
M  V30 5506 H 508.478 -0.551021 2.92149 0
M  V30 5507 H 506.011 -0.168607 1.53477 0
M  V30 5508 H 507.969 -3.04142 2.75695 0
M  V30 5509 H 506.63 -2.67387 1.64812 0
M  V30 5510 H 505.823 -3.07184 3.99567 0
M  V30 5511 H 505.425 -1.42336 3.45856 0
M  V30 5512 H 507.717 -3.67549 5.69134 0
M  V30 5513 H 508.66 -2.47734 6.6335 0
M  V30 5514 H 509.068 -2.77259 4.91719 0
M  V30 5515 N 508.466 -1.55915 -0.229846 0
M  V30 5516 C 509.877 -1.68809 -0.797531 0
M  V30 5517 C 510.228 -0.643995 -1.8533 0
M  V30 5518 O 509.353 0.206492 -2.15413 0
M  V30 5519 C 509.948 -3.06043 -1.45338 0
M  V30 5520 C 508.507 -3.20819 -1.96856 0
M  V30 5521 C 507.654 -2.6472 -0.825736 0
M  V30 5522 H 510.605 -1.58699 -0.00533733 0
M  V30 5523 H 510.626 -3.01438 -2.32196 0
M  V30 5524 H 510.138 -3.82012 -0.684743 0
M  V30 5525 H 508.239 -2.49704 -2.76548 0
M  V30 5526 H 508.352 -4.27937 -2.15423 0
M  V30 5527 H 506.716 -2.22985 -1.23084 0
M  V30 5528 H 507.499 -3.43229 -0.0699019 0
M  V30 5529 N 509.944 0.496216 -1.49584 0
M  V30 5530 C 510.874 1.60576 -1.69521 0
M  V30 5531 C 511.855 1.61169 -0.543933 0
M  V30 5532 O 513.04 1.77834 -0.78031 0
M  V30 5533 C 510.17 2.99038 -1.76616 0
M  V30 5534 C 509.124 3.13312 -2.91581 0
M  V30 5535 C 508.45 4.53172 -2.83794 0
M  V30 5536 C 509.75 2.92886 -4.32452 0
M  V30 5537 H 511.444 1.44146 -2.62416 0
M  V30 5538 H 508.99 0.692024 -1.26282 0
M  V30 5539 H 510.943 3.76564 -1.8915 0
M  V30 5540 H 509.667 3.16568 -0.80324 0
M  V30 5541 H 508.326 2.38213 -2.78658 0
M  V30 5542 H 507.974 4.67585 -1.854 0
M  V30 5543 H 507.674 4.63662 -3.60958 0
M  V30 5544 H 509.198 5.32752 -2.98342 0
M  V30 5545 H 510.612 3.60178 -4.46032 0
M  V30 5546 H 509.009 3.14844 -5.10875 0
M  V30 5547 H 510.079 1.88966 -4.46565 0
M  V30 5548 N 511.423 1.38739 0.74761 0
M  V30 5549 C 512.353 1.39173 1.87492 0
M  V30 5550 C 513.334 0.256794 1.6815 0
M  V30 5551 O 514.519 0.460762 1.88655 0
M  V30 5552 C 511.649 1.22197 3.25093 0
M  V30 5553 C 510.603 2.32957 3.59047 0
M  V30 5554 C 509.929 2.01082 4.95449 0
M  V30 5555 C 511.229 3.75237 3.6331 0
M  V30 5556 H 512.923 2.3351 1.87386 0
M  V30 5557 H 510.469 1.12399 0.900134 0
M  V30 5558 H 512.422 1.21124 4.03617 0
M  V30 5559 H 511.146 0.243241 3.25693 0
M  V30 5560 H 509.805 2.33226 2.82845 0
M  V30 5561 H 509.453 1.01678 4.92616 0
M  V30 5562 H 509.153 2.75267 5.19136 0
M  V30 5563 H 510.677 2.01638 5.76346 0
M  V30 5564 H 512.091 3.76966 4.31937 0
M  V30 5565 H 510.488 4.48677 3.98509 0
M  V30 5566 H 511.558 4.07122 2.634 0
M  V30 5567 N 512.901 -0.976442 1.23707 0
M  V30 5568 C 513.833 -2.07212 0.979574 0
M  V30 5569 C 514.846 -1.6273 -0.0478528 0
M  V30 5570 O 516.035 -1.77506 0.18815 0
M  V30 5571 C 513.135 -3.35835 0.45479 0
M  V30 5572 C 512.308 -4.09268 1.54331 0
M  V30 5573 C 511.367 -5.16166 1.02271 0
M  V30 5574 O 510.393 -5.42827 1.71254 0
M  V30 5575 N 511.595 -5.80313 -0.147419 0
M  V30 5576 H 514.36 -2.29878 1.92292 0
M  V30 5577 H 511.921 -1.14343 1.14618 0
M  V30 5578 H 513.913 -4.04597 0.0914631 0
M  V30 5579 H 512.483 -3.10106 -0.394068 0
M  V30 5580 H 511.703 -3.34906 2.07923 0
M  V30 5581 H 512.991 -4.55095 2.27522 0
M  V30 5582 H 512.389 -5.61043 -0.724353 0
M  V30 5583 H 510.946 -6.50231 -0.451972 0
M  V30 5584 N 514.379 -1.04941 -1.1758 0
M  V30 5585 C 515.289 -0.658826 -2.25159 0
M  V30 5586 C 516.305 0.318941 -1.71052 0
M  V30 5587 O 517.481 0.171669 -2.00667 0
M  V30 5588 C 514.546 -0.0369522 -3.4668 0
M  V30 5589 C 513.607 -1.06484 -4.15884 0
M  V30 5590 C 512.84 -0.472551 -5.31604 0
M  V30 5591 O 513.063 0.718736 -5.65854 0
M  V30 5592 O 511.997 -1.20557 -5.89703 0
M  V30 5593 H 515.823 -1.55533 -2.60851 0
M  V30 5594 H 513.408 -0.820819 -1.24832 0
M  V30 5595 H 515.29 0.308784 -4.20267 0
M  V30 5596 H 513.965 0.833238 -3.12792 0
M  V30 5597 H 512.872 -1.46253 -3.44327 0
M  V30 5598 H 514.205 -1.9061 -4.53794 0
M  V30 5599 N 515.857 1.33968 -0.830081 0
M  V30 5600 C 517.106 1.97323 -0.417928 0
M  V30 5601 C 517.419 1.6652 1.02618 0
M  V30 5602 O 518.625 2.2342 1.54259 0
M  V30 5603 C 517.081 3.53099 -0.696359 0
M  V30 5604 C 516.689 3.92788 -2.15457 0
M  V30 5605 C 518.433 4.23049 -0.350724 0
M  V30 5606 C 516.34 5.41506 -2.37751 0
M  V30 5607 H 515.27 0.738409 -0.152541 0
M  V30 5608 H 517.921 1.52711 -1.01744 0
M  V30 5609 H 516.303 3.95991 -0.0265904 0
M  V30 5610 H 517.477 3.6098 -2.86408 0
M  V30 5611 H 515.792 3.35795 -2.46232 0
M  V30 5612 H 518.389 5.32403 -0.495036 0
M  V30 5613 H 518.732 4.10279 0.705476 0
M  V30 5614 H 519.265 3.85657 -0.975362 0
M  V30 5615 H 516.004 5.5927 -3.41903 0
M  V30 5616 H 515.524 5.74804 -1.7135 0
M  V30 5617 H 517.203 6.0828 -2.20465 0
M  V30 5618 N 517.335 0.585699 1.46312 0
M  V30 5619 C 518.575 0.0751432 2.04262 0
M  V30 5620 C 518.939 -1.26201 1.44697 0
M  V30 5621 O 520.14 -1.86198 1.93865 0
M  V30 5622 C 518.411 0.013478 3.57397 0
M  V30 5623 S 519.97 -0.439068 4.36598 0
M  V30 5624 H 516.788 0.0389228 0.709934 0
M  V30 5625 H 519.39 0.778871 1.79315 0
M  V30 5626 H 518.094 0.990558 3.98266 0
M  V30 5627 H 517.625 -0.712927 3.86886 0
M  V30 5628 H 519.64 -1.6932 4.66417 0
M  V30 5629 N 518.813 -1.54241 0.323641 0
M  V30 5630 C 520.038 -2.05452 -0.283605 0
M  V30 5631 C 520.463 -1.19823 -1.44997 0
M  V30 5632 O 519.821 -0.207358 -1.8011 0
M  V30 5633 C 519.869 -3.53823 -0.695795 0
M  V30 5634 O 518.973 -3.71134 -1.79815 0
M  V30 5635 H 518.314 -0.662024 -0.0511917 0
M  V30 5636 H 520.844 -1.99079 0.472073 0
M  V30 5637 H 520.854 -3.96094 -0.978434 0
M  V30 5638 H 519.529 -4.15602 0.157287 0
M  V30 5639 H 518.106 -3.40768 -1.51431 0
M  V30 5640 O 520.33 -0.191128 -1.60365 0
M  V30 5641 H 521.021 0.395023 -1.89629 0
M  V30 END ATOM
M  V30 BEGIN BOND
M  V30 END BOND
M  V30 END CTAB
M  END
$$$$
