drugbank_target|P19801 Amiloride-sensitive amine oxidase [copper-containing] (DB00594; DB01373; DB03608)
 OpenBabel12092119303D

  0  0  0     0  0            999 V3000
M  V30 BEGIN CTAB
M  V30 COUNTS 11863 12072 0 0 0
M  V30 BEGIN ATOM
M  V30 1 H -0.908 1.98254 -0.117106 0
M  V30 2 N 0 1.576 0 0
M  V30 3 C 0.933 2.03868 1.02534 0
M  V30 4 C 1.911 0.928543 1.3348 0
M  V30 5 O 3.095 1.19667 1.45644 0
M  V30 6 C 0.222 2.43627 2.35294 0
M  V30 7 C -0.732 3.65373 2.2001 0
M  V30 8 S 0.101 5.13292 1.52614 0
M  V30 9 C 1.257 5.56322 2.86805 0
M  V30 10 H 1.49 2.90518 0.631377 0
M  V30 11 H -0.977 1.52953 0.210867 0
M  V30 12 H 0.981 2.67203 3.11629 0
M  V30 13 H -0.358 1.57376 2.7183 0
M  V30 14 H -1.165 3.90944 3.18086 0
M  V30 15 H -1.563 3.418 1.51819 0
M  V30 16 H 0.729 5.58782 3.83104 0
M  V30 17 H 1.672 6.56266 2.65933 0
M  V30 18 H 2.08 4.83886 2.90714 0
M  V30 19 N 1.4781 -0.272755 1.55222 0
M  V30 20 C 2.8891 -0.84378 1.66545 0
M  V30 21 C 3.2401 -1.87035 0.592641 0
M  V30 22 O 2.3651 -2.14761 -0.265818 0
M  V30 23 C 2.9601 -1.53723 3.01918 0
M  V30 24 C 1.5191 -2.05628 3.15268 0
M  V30 25 C 0.6661 -0.898424 2.62343 0
M  V30 26 H 3.6171 -0.0490998 1.58624 0
M  V30 27 H 3.6381 -2.40421 2.94921 0
M  V30 28 H 3.1501 -0.78983 3.79978 0
M  V30 29 H 1.2511 -2.83329 2.41983 0
M  V30 30 H 1.3641 -2.27142 4.21833 0
M  V30 31 H -0.2719 -1.29186 2.19506 0
M  V30 32 H 0.5111 -0.164528 3.42906 0
M  V30 33 N 2.9562 -1.48159 -0.537278 0
M  V30 34 C 3.9192 -1.61665 -1.62472 0
M  V30 35 C 4.9192 -0.490395 -1.5314 0
M  V30 36 O 6.1092 -0.755998 -1.5694 0
M  V30 37 C 3.2412 -1.57997 -3.02076 0
M  V30 38 H 4.4342 -2.58621 -1.51839 0
M  V30 39 H 1.9872 -1.36647 -0.758771 0
M  V30 40 H 2.7222 -0.624913 -3.18222 0
M  V30 41 H 2.5072 -2.39755 -3.10258 0
M  V30 42 H 3.9972 -1.70627 -3.81151 0
M  V30 43 N 4.4343 0.785586 -1.36625 0
M  V30 44 C 5.3643 1.91259 -1.33949 0
M  V30 45 C 6.3453 1.68795 -0.210325 0
M  V30 46 O 7.5303 1.89854 -0.408561 0
M  V30 47 C 4.6603 3.28339 -1.13186 0
M  V30 48 C 3.6143 3.65335 -2.22967 0
M  V30 49 C 2.9403 5.00806 -1.87342 0
M  V30 50 C 4.2403 3.7352 -3.65075 0
M  V30 51 H 5.9343 1.93755 -2.28253 0
M  V30 52 H 3.4803 0.930788 -1.09874 0
M  V30 53 H 5.4333 4.06804 -1.09948 0
M  V30 54 H 4.1573 3.2624 -0.153332 0
M  V30 55 H 2.8163 2.89169 -2.25337 0
M  V30 56 H 2.4643 4.95233 -0.880545 0
M  V30 57 H 2.1643 5.26529 -2.60846 0
M  V30 58 H 3.6883 5.81687 -1.85667 0
M  V30 59 H 5.1023 4.42168 -3.64911 0
M  V30 60 H 3.4993 4.10731 -4.37516 0
M  V30 61 H 4.5693 2.74527 -3.99703 0
M  V30 62 N 5.9124 1.20967 1.01018 0
M  V30 63 C 7.1604 1.02172 1.74371 0
M  V30 64 C 7.4814 -0.446414 1.89821 0
M  V30 65 O 6.7514 -1.32234 1.44537 0
M  V30 66 H 5.3314 0.375066 0.646014 0
M  V30 67 H 7.9934 1.52187 1.21758 0
M  V30 68 H 7.0894 1.48538 2.74487 0
M  V30 69 N 7.3905 -1.2043 1.01659 0
M  V30 70 C 8.6365 -1.90356 0.716674 0
M  V30 71 C 8.9915 -1.77367 -0.745557 0
M  V30 72 O 8.2845 -1.1471 -1.53467 0
M  V30 73 C 8.4785 -3.40464 1.08714 0
M  V30 74 C 8.3075 -3.6806 2.58384 0
M  V30 75 C 7.0775 -3.86775 3.25167 0
M  V30 76 C 9.2755 -3.70623 3.56572 0
M  V30 77 N 7.2575 -4.01889 4.64067 0
M  V30 78 C 8.6285 -3.91161 4.81034 0
M  V30 79 C 10.6835 -3.53586 3.50544 0
M  V30 80 C 9.3865 -3.96428 6.00198 0
M  V30 81 C 11.4125 -3.60125 4.6911 0
M  V30 82 C 10.7745 -3.81135 5.92381 0
M  V30 83 H 6.8735 -0.716226 0.313918 0
M  V30 84 H 9.4575 -1.44815 1.30141 0
M  V30 85 H 7.6285 -3.84757 0.530745 0
M  V30 86 H 9.3605 -3.97863 0.740763 0
M  V30 87 H 6.1155 -3.85156 2.75594 0
M  V30 88 H 6.5395 -4.13323 5.36184 0
M  V30 89 H 11.1815 -3.36308 2.56235 0
M  V30 90 H 8.8995 -4.12502 6.94887 0
M  V30 91 H 12.4855 -3.4825 4.66062 0
M  V30 92 H 11.3655 -3.86054 6.82592 0
M  V30 93 N 8.8686 -0.792821 -1.36206 0
M  V30 94 C 9.8316 -0.199459 -2.2833 0
M  V30 95 C 10.8316 0.605189 -1.48977 0
M  V30 96 O 12.0216 0.425685 -1.68919 0
M  V30 97 C 9.1536 0.723523 -3.33134 0
M  V30 98 H 10.3466 -1.01181 -2.82316 0
M  V30 99 H 7.8996 -0.562485 -1.45828 0
M  V30 100 H 8.6346 1.56008 -2.84309 0
M  V30 101 H 8.4196 0.148436 -3.91819 0
M  V30 102 H 9.9096 1.13344 -4.01924 0
M  V30 103 N 10.3467 1.47872 -0.545128 0
M  V30 104 C 11.5927 2.02793 -0.0166104 0
M  V30 105 C 11.9257 1.41987 1.32489 0
M  V30 106 O 11.2007 0.571045 1.85928 0
M  V30 107 C 11.4837 3.59989 0.0893294 0
M  V30 108 C 11.3367 4.3125 -1.27841 0
M  V30 109 C 12.6557 4.32606 0.808724 0
M  V30 110 H 9.7747 0.736962 -0.00751035 0
M  V30 111 H 12.4167 1.76433 -0.705085 0
M  V30 112 H 10.5667 3.82579 0.675681 0
M  V30 113 H 12.2387 4.20035 -1.90704 0
M  V30 114 H 10.4817 3.92076 -1.85632 0
M  V30 115 H 11.1527 5.39736 -1.15713 0
M  V30 116 H 13.6287 4.14936 0.310992 0
M  V30 117 H 12.5047 5.42251 0.851782 0
M  V30 118 H 12.7657 4.00963 1.86229 0
M  V30 119 N 11.8248 0.280983 1.55075 0
M  V30 120 C 12.7878 -0.590896 2.21452 0
M  V30 121 C 13.7878 -1.07682 1.19421 0
M  V30 122 O 14.9778 -0.97605 1.44288 0
M  V30 123 C 12.1098 -1.81587 2.88511 0
M  V30 124 H 13.3028 -0.0112554 2.99898 0
M  V30 125 H 10.8558 0.0316438 1.56268 0
M  V30 126 H 11.5908 -2.43587 2.14093 0
M  V30 127 H 11.3758 -1.4753 3.63287 0
M  V30 128 H 12.8658 -2.43575 3.39206 0
M  V30 129 N 13.3029 -1.57598 0.00835791 0
M  V30 130 C 14.2659 -2.07884 -0.965242 0
M  V30 131 C 15.2659 -0.989825 -1.26725 0
M  V30 132 O 16.4559 -1.25218 -1.21104 0
M  V30 133 C 13.5879 -2.52731 -2.28779 0
M  V30 134 H 14.7809 -2.95178 -0.530112 0
M  V30 135 H 12.3339 -1.54458 -0.239283 0
M  V30 136 H 13.0689 -1.68705 -2.76964 0
M  V30 137 H 12.8539 -3.32272 -2.08177 0
M  V30 138 H 14.3439 -2.91933 -2.98605 0
M  V30 139 N 14.781 0.264519 -1.55364 0
M  V30 140 C 16.03 0.992812 -1.75574 0
M  V30 141 C 16.343 1.87142 -0.568979 0
M  V30 142 O 17.549 2.63513 -0.653682 0
M  V30 143 C 16.005 1.81519 -3.10771 0
M  V30 144 C 15.613 0.984839 -4.37041 0
M  V30 145 C 17.357 2.53727 -3.40327 0
M  V30 146 C 15.264 1.80209 -5.63275 0
M  V30 147 H 14.194 0.374412 -0.65447 0
M  V30 148 H 16.845 0.248138 -1.81815 0
M  V30 149 H 15.227 2.60115 -2.98591 0
M  V30 150 H 16.401 0.242455 -4.60162 0
M  V30 151 H 14.716 0.37691 -4.14691 0
M  V30 152 H 17.313 3.15292 -4.3185 0
M  V30 153 H 17.656 3.24447 -2.60845 0
M  V30 154 H 18.189 1.82156 -3.53644 0
M  V30 155 H 14.928 1.13896 -6.45529 0
M  V30 156 H 14.448 2.52022 -5.44284 0
M  V30 157 H 16.127 2.37364 -6.01887 0
M  V30 158 N 16.2591 1.48442 0.529413 0
M  V30 159 C 17.1891 1.65902 1.64313 0
M  V30 160 C 18.1701 0.507897 1.6234 0
M  V30 161 O 19.3551 0.740503 1.79528 0
M  V30 162 C 16.4851 1.69911 3.02898 0
M  V30 163 C 15.4391 2.8453 3.19729 0
M  V30 164 C 14.7651 2.73629 4.59381 0
M  V30 165 C 16.0651 4.25821 3.02447 0
M  V30 166 H 17.7591 2.5914 1.49955 0
M  V30 167 H 15.3051 1.24709 0.719982 0
M  V30 168 H 17.2581 1.80715 3.80684 0
M  V30 169 H 15.9821 0.732524 3.18279 0
M  V30 170 H 14.6411 2.73283 2.44361 0
M  V30 171 H 14.2891 1.74938 4.71599 0
M  V30 172 H 13.9891 3.50541 4.71588 0
M  V30 173 H 15.5131 2.86401 5.39265 0
M  V30 174 H 16.9271 4.37898 3.70024 0
M  V30 175 H 15.3241 5.03735 3.26146 0
M  V30 176 H 16.3941 4.42244 1.98867 0
M  V30 177 N 17.7372 -0.778329 1.37039 0
M  V30 178 C 18.6702 -1.8984 1.26633 0
M  V30 179 C 19.6482 -1.61923 0.148197 0
M  V30 180 O 20.8322 -1.85742 0.321265 0
M  V30 181 C 17.9592 -3.24916 0.956403 0
M  V30 182 C 17.0052 -3.71752 2.09051 0
M  V30 183 S 17.8382 -3.86201 3.70957 0
M  V30 184 C 18.9942 -5.24135 3.42101 0
M  V30 185 H 19.2272 -1.98377 2.21436 0
M  V30 186 H 16.7602 -0.938738 1.22585 0
M  V30 187 H 18.7182 -4.02936 0.784409 0
M  V30 188 H 17.3792 -3.14089 0.0259713 0
M  V30 189 H 16.5722 -4.69661 1.8285 0
M  V30 190 H 16.1742 -3.00815 2.2223 0
M  V30 191 H 18.4662 -6.09086 2.96682 0
M  V30 192 H 19.4092 -5.55346 4.39314 0
M  V30 193 H 19.8172 -4.91761 2.77185 0
M  V30 194 N 19.2153 -1.21501 -1.00376 0
M  V30 195 C 20.1453 -0.999478 -2.11028 0
M  V30 196 C 21.1263 0.0759671 -1.6993 0
M  V30 197 O 22.3113 -0.0841106 -1.94018 0
M  V30 198 C 19.4413 -0.564709 -3.42678 0
M  V30 199 C 18.3953 -1.58486 -3.97576 0
M  V30 200 C 17.7213 -1.00628 -5.25146 0
M  V30 201 C 19.0213 -2.97204 -4.29496 0
M  V30 202 H 20.7153 -1.92495 -2.29317 0
M  V30 203 H 18.2613 -0.92693 -1.102 0
M  V30 204 H 20.2143 -0.401091 -4.19487 0
M  V30 205 H 18.9383 0.396411 -3.24185 0
M  V30 206 H 17.5973 -1.73606 -3.22888 0
M  V30 207 H 17.2453 -0.0368439 -5.02987 0
M  V30 208 H 16.9453 -1.68771 -5.62841 0
M  V30 209 H 18.4693 -0.854015 -6.04598 0
M  V30 210 H 19.8833 -2.8552 -4.97143 0
M  V30 211 H 18.2803 -3.62372 -4.78338 0
M  V30 212 H 19.3503 -3.47956 -3.3772 0
M  V30 213 N 20.6934 1.19889 -1.02296 0
M  V30 214 C 21.6254 2.22334 -0.556787 0
M  V30 215 C 22.6384 1.58674 0.364199 0
M  V30 216 O 23.8274 1.77768 0.161533 0
M  V30 217 C 20.9274 3.38257 0.208694 0
M  V30 218 C 20.1004 4.31504 -0.71577 0
M  V30 219 C 19.1594 5.262 0.00325597 0
M  V30 220 O 18.1854 5.65798 -0.621357 0
M  V30 221 N 19.3874 5.66303 1.27599 0
M  V30 222 H 22.1524 2.62957 -1.43784 0
M  V30 223 H 19.7134 1.34495 -0.901261 0
M  V30 224 H 21.7054 3.98616 0.699111 0
M  V30 225 H 20.2754 2.96472 0.991102 0
M  V30 226 H 19.4954 3.69016 -1.38638 0
M  V30 227 H 20.7834 4.9072 -1.34428 0
M  V30 228 H 20.1814 5.36155 1.80429 0
M  V30 229 H 18.7384 6.28942 1.71102 0
M  V30 230 N 22.1715 0.800033 1.35784 0
M  V30 231 C 23.3995 0.389606 2.03199 0
M  V30 232 C 23.8145 -0.997375 1.60306 0
M  V30 233 O 23.1715 -1.64154 0.797481 0
M  V30 234 C 23.2225 0.455855 3.58614 0
M  V30 235 O 22.9435 1.78815 3.99946 0
M  V30 236 C 24.4445 0.0374032 4.43284 0
M  V30 237 H 21.6645 0.159132 0.651857 0
M  V30 238 H 24.2085 1.08183 1.73541 0
M  V30 239 H 22.3635 -0.188057 3.86943 0
M  V30 240 H 22.7775 1.74636 4.94573 0
M  V30 241 H 24.2515 0.134882 5.51835 0
M  V30 242 H 24.7285 -1.01651 4.27275 0
M  V30 243 H 25.3345 0.654215 4.20238 0
M  V30 244 N 23.6496 -1.47581 0.552962 0
M  V30 245 C 24.6126 -2.28439 -0.186605 0
M  V30 246 C 25.6126 -1.36706 -0.84665 0
M  V30 247 O 26.8026 -1.59378 -0.703164 0
M  V30 248 C 23.9346 -3.16264 -1.2724 0
M  V30 249 H 25.1276 -2.95294 0.523609 0
M  V30 250 H 22.6806 -1.532 0.309745 0
M  V30 251 H 23.4156 -2.54091 -2.01514 0
M  V30 252 H 23.2006 -3.83769 -0.803968 0
M  V30 253 H 24.6906 -3.77198 -1.79196 0
M  V30 254 N 25.1277 -0.289203 -1.54924 0
M  V30 255 C 26.0607 0.633823 -2.19221 0
M  V30 256 C 27.0387 1.14174 -1.15772 0
M  V30 257 O 28.2227 1.21211 -1.44361 0
M  V30 258 C 25.3497 1.86592 -2.82668 0
M  V30 259 C 24.3957 1.49227 -3.99542 0
M  V30 260 S 25.2287 0.558312 -5.32582 0
M  V30 261 C 26.3847 1.79847 -5.99505 0
M  V30 262 H 26.6177 0.0875416 -2.97171 0
M  V30 263 H 24.1507 -0.0733899 -1.54225 0
M  V30 264 H 26.1087 2.57305 -3.19851 0
M  V30 265 H 24.7697 2.38335 -2.04585 0
M  V30 266 H 23.9627 2.40945 -4.42676 0
M  V30 267 H 23.5647 0.865193 -3.63855 0
M  V30 268 H 25.8567 2.7406 -6.19595 0
M  V30 269 H 26.7997 1.4099 -6.93922 0
M  V30 270 H 27.2077 1.96982 -5.29016 0
M  V30 271 N 26.6058 1.57591 -0.0167156 0
M  V30 272 C 27.5688 2.08393 0.954204 0
M  V30 273 C 28.5688 0.996531 1.26198 0
M  V30 274 O 29.7588 1.25858 1.20438 0
M  V30 275 C 26.8908 2.5394 2.27436 0
M  V30 276 H 28.0838 2.95455 0.514451 0
M  V30 277 H 25.6368 1.54582 0.231089 0
M  V30 278 H 26.3718 1.70171 2.76066 0
M  V30 279 H 26.1568 3.33371 2.06412 0
M  V30 280 H 27.6468 2.93512 2.97053 0
M  V30 281 N 28.0839 -0.256276 1.55502 0
M  V30 282 C 28.9939 -1.33882 1.92647 0
M  V30 283 C 30.0099 -1.53159 0.825727 0
M  V30 284 O 31.1859 -1.66963 1.12629 0
M  V30 285 C 28.2509 -2.6751 2.20543 0
M  V30 286 C 27.3119 -2.56836 3.43997 0
M  V30 287 C 26.5449 -3.84092 3.70553 0
M  V30 288 O 26.7679 -4.85545 2.99336 0
M  V30 289 O 25.7019 -3.83288 4.64084 0
M  V30 290 H 29.5279 -1.05374 2.84833 0
M  V30 291 H 27.1129 -0.456237 1.42263 0
M  V30 292 H 28.9949 -3.46492 2.39835 0
M  V30 293 H 27.6699 -2.9577 1.31536 0
M  V30 294 H 26.5769 -1.76172 3.30021 0
M  V30 295 H 27.9099 -2.33523 4.33275 0
M  V30 296 N 29.562 -1.4872 -0.521534 0
M  V30 297 C 30.973 -1.50607 -1.10337 0
M  V30 298 C 31.324 -0.280612 -1.94183 0
M  V30 299 O 30.449 0.611507 -2.0758 0
M  V30 300 C 31.044 -2.72903 -2.00772 0
M  V30 301 C 29.603 -2.77634 -2.54158 0
M  V30 302 C 28.75 -2.44241 -1.31307 0
M  V30 303 H 31.701 -1.55714 -0.306388 0
M  V30 304 H 31.722 -2.519 -2.85178 0
M  V30 305 H 31.234 -3.62077 -1.39721 0
M  V30 306 H 29.335 -1.92689 -3.18907 0
M  V30 307 H 29.448 -3.79283 -2.92714 0
M  V30 308 H 27.812 -1.95577 -1.63161 0
M  V30 309 H 28.595 -3.35666 -0.719943 0
M  V30 310 N 31.0401 0.771051 -1.3745 0
M  V30 311 C 32.2651 1.56529 -1.36065 0
M  V30 312 C 32.6901 1.88029 0.0515859 0
M  V30 313 O 32.0481 1.49282 1.02882 0
M  V30 314 C 32.0961 2.85187 -2.20683 0
M  V30 315 O 31.2001 3.79593 -1.61193 0
M  V30 316 H 30.5411 0.47411 -0.464883 0
M  V30 317 H 33.0711 0.954269 -1.80983 0
M  V30 318 H 33.0811 3.34283 -2.33921 0
M  V30 319 H 31.7561 2.61588 -3.23334 0
M  V30 320 H 30.3331 3.38239 -1.56999 0
M  V30 321 N 32.5182 1.22032 0.997298 0
M  V30 322 C 33.9292 1.0397 1.55071 0
M  V30 323 C 34.2802 -0.398192 1.92117 0
M  V30 324 O 33.4052 -1.28254 1.74298 0
M  V30 325 C 34.0002 1.88109 2.81781 0
M  V30 326 C 32.5592 1.74357 3.33581 0
M  V30 327 C 31.7062 1.84846 2.06706 0
M  V30 328 H 34.6572 1.35941 0.818883 0
M  V30 329 H 34.6782 1.39589 3.53971 0
M  V30 330 H 34.1902 2.92754 2.54787 0
M  V30 331 H 32.2912 0.72427 3.65493 0
M  V30 332 H 32.4042 2.56772 4.04481 0
M  V30 333 H 30.7682 1.28238 2.20062 0
M  V30 334 H 31.5512 2.91014 1.82114 0
M  V30 335 N 33.9963 -1.19345 1.0293 0
M  V30 336 C 35.2443 -1.88665 0.724574 0
M  V30 337 C 35.5653 -1.80036 -0.749144 0
M  V30 338 O 34.8353 -1.2111 -1.53978 0
M  V30 339 H 33.4153 -0.698406 0.265025 0
M  V30 340 H 36.0773 -1.44885 1.30362 0
M  V30 341 H 35.1733 -2.94987 1.01926 0
M  V30 342 N 35.4744 -0.807222 -1.35358 0
M  V30 343 C 36.7024 -0.400377 -2.02989 0
M  V30 344 C 37.1174 0.988859 -1.60832 0
M  V30 345 O 36.4744 1.63729 -0.806175 0
M  V30 346 C 36.5254 -0.474867 -3.58368 0
M  V30 347 O 36.2464 -1.80933 -3.98992 0
M  V30 348 C 37.7474 -0.0609112 -4.43258 0
M  V30 349 H 34.9674 -0.162587 -0.651004 0
M  V30 350 H 37.5114 -1.09102 -1.72965 0
M  V30 351 H 35.6664 0.167534 -3.87038 0
M  V30 352 H 36.0804 -1.77256 -4.9364 0
M  V30 353 H 37.5544 -0.164145 -5.51756 0
M  V30 354 H 38.0314 0.993831 -4.27808 0
M  V30 355 H 38.6374 -0.676492 -4.19885 0
M  V30 356 N 36.9525 1.47285 -0.560781 0
M  V30 357 C 37.8825 2.32857 0.173105 0
M  V30 358 C 38.8635 1.44009 0.905281 0
M  V30 359 O 40.0485 1.7286 0.885046 0
M  V30 360 C 37.1785 3.25861 1.20133 0
M  V30 361 C 36.1325 4.23978 0.585388 0
M  V30 362 C 35.4585 5.06332 1.7185 0
M  V30 363 C 36.7585 5.20242 -0.463178 0
M  V30 364 H 38.4525 2.94466 -0.541307 0
M  V30 365 H 35.9985 1.41601 -0.261764 0
M  V30 366 H 37.9515 3.84569 1.72293 0
M  V30 367 H 36.6755 2.62315 1.94573 0
M  V30 368 H 35.3345 3.66501 0.085054 0
M  V30 369 H 34.9825 4.39186 2.45203 0
M  V30 370 H 34.6825 5.72762 1.31213 0
M  V30 371 H 36.2065 5.67899 2.24329 0
M  V30 372 H 37.6205 5.73293 -0.027502 0
M  V30 373 H 36.0175 5.94896 -0.788627 0
M  V30 374 H 37.0875 4.65504 -1.35773 0
M  V30 375 N 38.4306 0.297415 1.54768 0
M  V30 376 C 39.8416 -0.195947 1.85669 0
M  V30 377 C 40.1926 -1.53707 1.21937 0
M  V30 378 O 39.3176 -2.10164 0.515754 0
M  V30 379 C 39.9126 -0.362318 3.36857 0
M  V30 380 C 38.4716 -0.799901 3.67802 0
M  V30 381 C 37.6186 0.0938578 2.77141 0
M  V30 382 H 40.5696 0.518538 1.4999 0
M  V30 383 H 40.5906 -1.19745 3.61167 0
M  V30 384 H 40.1026 0.613921 3.83214 0
M  V30 385 H 38.2036 -1.78682 3.26961 0
M  V30 386 H 38.3166 -0.621773 4.75048 0
M  V30 387 H 36.6806 -0.426254 2.51108 0
M  V30 388 H 37.4636 1.06639 3.26318 0
M  V30 389 N 39.9087 -1.5758 0.0250728 0
M  V30 390 C 41.3247 -1.56124 -0.331282 0
M  V30 391 C 41.5247 -1.03029 -1.73169 0
M  V30 392 O 40.5807 -0.675215 -2.43305 0
M  V30 393 C 41.8937 -3.00139 -0.183584 0
M  V30 394 C 43.4417 -3.11946 -0.256654 0
M  V30 395 C 43.9167 -4.57793 -0.137792 0
M  V30 396 N 45.4077 -4.6279 -0.194904 0
M  V30 397 C 46.1427 -5.7326 -0.126655 0
M  V30 398 N 45.6387 -6.928 -0.00755288 0
M  V30 399 N 47.4317 -5.61811 -0.180348 0
M  V30 400 H 39.5827 -1.90424 0.94087 0
M  V30 401 H 41.8457 -0.875761 0.362968 0
M  V30 402 H 41.5517 -3.4292 0.780927 0
M  V30 403 H 41.4257 -3.64899 -0.955448 0
M  V30 404 H 43.8127 -2.69079 -1.21162 0
M  V30 405 H 43.8937 -2.49915 0.545517 0
M  V30 406 H 43.5377 -5.01339 0.813739 0
M  V30 407 H 43.4677 -5.17798 -0.958775 0
M  V30 408 H 45.9587 -3.76807 -0.287267 0
M  V30 409 H 46.2717 -7.72791 0.0379428 0
M  V30 410 H 44.6167 -6.94995 0.0271731 0
M  V30 411 H 47.8077 -4.6731 -0.271767 0
M  V30 412 H 47.9807 -6.47882 -0.123697 0
M  V30 413 N 41.3868 0.248026 -1.55636 0
M  V30 414 C 42.3338 1.30707 -1.90222 0
M  V30 415 C 43.3038 1.47881 -0.756332 0
M  V30 416 O 44.4888 1.61883 -1.00988 0
M  V30 417 C 41.6288 2.65769 -2.20138 0
M  V30 418 C 40.7418 2.56612 -3.47526 0
M  V30 419 C 39.8768 3.8402 -3.67017 0
M  V30 420 C 38.9158 3.69476 -4.8801 0
M  V30 421 N 38.0528 4.88774 -5.04029 0
M  V30 422 H 42.8928 1.00512 -2.80538 0
M  V30 423 H 40.4298 0.485055 -1.38873 0
M  V30 424 H 42.3878 3.44386 -2.35487 0
M  V30 425 H 41.0178 2.94115 -1.33027 0
M  V30 426 H 40.0698 1.69571 -3.40514 0
M  V30 427 H 41.3818 2.41774 -4.36287 0
M  V30 428 H 40.5358 4.7108 -3.8232 0
M  V30 429 H 39.2748 4.01754 -2.76487 0
M  V30 430 H 38.2798 2.80799 -4.72686 0
M  V30 431 H 39.5048 3.53238 -5.8 0
M  V30 432 H 37.4508 5.0687 -4.16435 0
M  V30 433 H 37.3678 4.76562 -5.86877 0
M  V30 434 H 38.6358 5.77335 -5.23741 0
M  V30 435 N 42.8649 1.48995 0.513639 0
M  V30 436 C 43.8279 1.64229 1.59879 0
M  V30 437 C 44.8279 0.514696 1.5234 0
M  V30 438 O 46.0179 0.78087 1.55718 0
M  V30 439 C 43.1499 1.62783 2.99524 0
M  V30 440 H 44.3429 2.61004 1.47705 0
M  V30 441 H 41.8959 1.37837 0.736936 0
M  V30 442 H 42.6309 0.675461 3.17188 0
M  V30 443 H 42.4159 2.4466 3.06404 0
M  V30 444 H 43.9059 1.76669 3.78388 0
M  V30 445 N 44.343 -0.763751 1.37857 0
M  V30 446 C 45.591 -1.51957 1.33243 0
M  V30 447 C 45.912 -1.94835 -0.0801709 0
M  V30 448 O 45.182 -1.66894 -1.02582 0
M  V30 449 H 43.762 -0.563626 0.49024 0
M  V30 450 H 46.424 -0.908504 1.7243 0
M  V30 451 H 45.52 -2.41523 1.97669 0
M  V30 452 N 45.8211 -1.22559 -0.990812 0
M  V30 453 C 47.0671 -1.05297 -1.73322 0
M  V30 454 C 47.4001 0.410655 -1.89808 0
M  V30 455 O 46.6751 1.30439 -1.44277 0
M  V30 456 C 46.9581 -1.76713 -3.13759 0
M  V30 457 C 46.8111 -3.30684 -3.04907 0
M  V30 458 C 48.1301 -1.52121 -4.12974 0
M  V30 459 H 45.2491 -0.38392 -0.629106 0
M  V30 460 H 47.8911 -1.50926 -1.15418 0
M  V30 461 H 46.0411 -1.37924 -3.63193 0
M  V30 462 H 47.7131 -3.7893 -2.63077 0
M  V30 463 H 45.9561 -3.60253 -2.41661 0
M  V30 464 H 46.6271 -3.75833 -4.04294 0
M  V30 465 H 49.1031 -1.85819 -3.72304 0
M  V30 466 H 47.9791 -2.04582 -5.0935 0
M  V30 467 H 48.2401 -0.454257 -4.3976 0
M  V30 468 N 47.2992 1.18797 -1.03562 0
M  V30 469 C 48.5462 1.8865 -0.736023 0
M  V30 470 C 48.8742 1.80041 0.735889 0
M  V30 471 O 48.1292 1.19179 1.55225 0
M  V30 472 C 48.4282 3.38692 -1.14117 0
M  V30 473 C 48.0942 3.67504 -2.6125 0
M  V30 474 C 46.7562 3.75078 -3.01447 0
M  V30 475 C 49.1082 3.80293 -3.56408 0
M  V30 476 C 46.4362 3.92915 -4.35701 0
M  V30 477 C 48.7882 3.99645 -4.90374 0
M  V30 478 C 47.4522 4.05453 -5.30249 0
M  V30 479 H 46.7222 0.690321 -0.26933 0
M  V30 480 H 49.3692 1.40641 -1.29971 0
M  V30 481 H 47.6742 3.88645 -0.496202 0
M  V30 482 H 49.3712 3.91072 -0.886789 0
M  V30 483 H 45.9612 3.62223 -2.29113 0
M  V30 484 H 50.1452 3.73779 -3.26501 0
M  V30 485 H 45.4012 3.95653 -4.66121 0
M  V30 486 H 49.5752 4.08482 -5.64017 0
M  V30 487 H 47.2022 4.19027 -6.34288 0
M  V30 488 N 48.7773 0.814389 1.34928 0
M  V30 489 C 50.0023 0.410097 2.03305 0
M  V30 490 C 50.4273 -0.973464 1.60951 0
M  V30 491 O 49.7853 -1.63185 0.789964 0
M  V30 492 C 49.8333 0.51049 3.56968 0
M  V30 493 O 48.9373 -0.473035 4.09678 0
M  V30 494 H 48.2783 0.170088 0.641846 0
M  V30 495 H 50.8083 1.10244 1.72358 0
M  V30 496 H 50.8183 0.383135 4.06197 0
M  V30 497 H 49.4933 1.51963 3.87144 0
M  V30 498 H 48.0703 -0.305272 3.71648 0
M  V30 499 N 50.2554 -1.46986 0.568584 0
M  V30 500 C 51.5324 -1.95592 -0.0174074 0
M  V30 501 C 51.9124 -1.51124 -1.47393 0
M  V30 502 O 51.2604 -0.755329 -2.15655 0
M  V30 503 C 51.4704 -3.48719 0.139913 0
M  V30 504 C 52.8184 -4.246 0.000426376 0
M  V30 505 O 53.8424 -3.56135 0.0680316 0
M  V30 506 O 52.7014 -5.46302 -0.146988 0
M  V30 507 H 49.7954 -0.82498 -0.0577599 0
M  V30 508 H 52.3414 -1.57335 0.635909 0
M  V30 509 H 51.1134 -3.73927 1.15301 0
M  V30 510 H 50.7364 -3.93771 -0.550491 0
M  V30 511 N 51.7335 -0.305618 -1.54608 0
M  V30 512 C 52.6635 0.561482 -2.26649 0
M  V30 513 C 53.6445 1.13415 -1.26772 0
M  V30 514 O 54.8295 1.16262 -1.55553 0
M  V30 515 C 51.9595 1.73122 -3.01075 0
M  V30 516 C 50.9135 1.2887 -4.08138 0
M  V30 517 C 50.2395 2.54396 -4.70305 0
M  V30 518 C 51.5395 0.416578 -5.20636 0
M  V30 519 H 53.2335 -0.0393902 -2.99374 0
M  V30 520 H 50.7795 -0.020385 -1.43986 0
M  V30 521 H 52.7325 2.34396 -3.50195 0
M  V30 522 H 51.4565 2.3584 -2.25936 0
M  V30 523 H 50.1155 0.698991 -3.59875 0
M  V30 524 H 49.7635 3.15439 -3.918 0
M  V30 525 H 49.4635 2.25486 -5.42614 0
M  V30 526 H 50.9875 3.16464 -5.2219 0
M  V30 527 H 52.4015 0.935116 -5.65622 0
M  V30 528 H 50.7985 0.221046 -5.99693 0
M  V30 529 H 51.8685 -0.557162 -4.81688 0
M  V30 530 N 53.2116 1.57565 -0.0334293 0
M  V30 531 C 54.4366 1.96689 0.657895 0
M  V30 532 C 54.8616 0.910057 1.64619 0
M  V30 533 O 54.2196 -0.128598 1.80843 0
M  V30 534 C 54.2676 3.34905 1.33683 0
M  V30 535 O 53.3716 3.31574 2.45219 0
M  V30 536 H 52.7126 0.641205 0.172489 0
M  V30 537 H 55.2426 2.04372 -0.0965621 0
M  V30 538 H 55.2526 3.71234 1.69262 0
M  V30 539 H 53.9276 4.11366 0.612411 0
M  V30 540 H 52.5046 3.06968 2.11719 0
M  V30 541 N 54.6897 -0.239769 1.55765 0
M  V30 542 C 55.6377 -1.31668 1.91745 0
M  V30 543 C 56.6317 -1.49462 0.797338 0
M  V30 544 O 57.8377 -1.50852 0.982021 0
M  V30 545 H 54.2127 -0.441048 0.609082 0
M  V30 546 H 56.1837 -0.985923 2.81642 0
M  V30 547 C 54.9327 -2.66368 2.2348 0
M  V30 548 H 54.2557 -2.53478 3.09175 0
M  V30 549 H 55.6957 -3.40578 2.52553 0
M  V30 550 C 54.1547 -3.20002 1.05359 0
M  V30 551 O 54.6847 -4.00538 0.305261 0
M  V30 552 N 52.8907 -2.78126 0.842292 0
M  V30 553 H 52.4377 -2.12742 1.45253 0
M  V30 554 H 52.3957 -3.14354 0.053652 0
M  V30 555 N 56.1678 -1.49265 -0.50573 0
M  V30 556 C 57.0998 -1.617 -1.62437 0
M  V30 557 C 58.1128 -0.499924 -1.54934 0
M  V30 558 O 59.3018 -0.771785 -1.60953 0
M  V30 559 C 56.4018 -1.5533 -3.01207 0
M  V30 560 C 55.5748 -2.8249 -3.33943 0
M  V30 561 C 54.6338 -2.69238 -4.52103 0
M  V30 562 O 53.6598 -3.43167 -4.5412 0
M  V30 563 N 54.8618 -1.80468 -5.51735 0
M  V30 564 H 57.6268 -2.58177 -1.52199 0
M  V30 565 H 55.1878 -1.46294 -0.693511 0
M  V30 566 H 57.1798 -1.44125 -3.78167 0
M  V30 567 H 55.7498 -0.667297 -3.05395 0
M  V30 568 H 54.9698 -3.08081 -2.45926 0
M  V30 569 H 56.2578 -3.66802 -3.5261 0
M  V30 570 H 55.6558 -1.19653 -5.52901 0
M  V30 571 H 54.2128 -1.75188 -6.27816 0
M  V30 572 N 57.6459 0.756429 -1.3826 0
M  V30 573 C 58.5559 1.9009 -1.37488 0
M  V30 574 C 59.5719 1.71855 -0.272366 0
M  V30 575 O 60.7479 1.94827 -0.510318 0
M  V30 576 C 57.8129 3.25421 -1.19592 0
M  V30 577 C 56.8739 3.56202 -2.39622 0
M  V30 578 C 56.1069 4.85075 -2.2257 0
M  V30 579 O 56.3299 5.57246 -1.21793 0
M  V30 580 O 55.2639 5.15269 -3.11098 0
M  V30 581 H 59.0899 1.93695 -2.33914 0
M  V30 582 H 56.6749 0.901313 -1.1915 0
M  V30 583 H 58.5569 4.06337 -1.11661 0
M  V30 584 H 57.2319 3.22634 -0.262486 0
M  V30 585 H 56.1389 2.75458 -2.53128 0
M  V30 586 H 57.4719 3.63747 -3.31586 0
M  V30 587 N 59.124 1.23083 0.984299 0
M  V30 588 C 60.054 1.03292 2.09411 0
M  V30 589 C 61.035 -0.048923 1.7003 0
M  V30 590 O 62.22 0.114967 1.93859 0
M  V30 591 C 59.35 0.619155 3.41736 0
M  V30 592 C 58.304 1.64791 3.95004 0
M  V30 593 C 57.63 1.0897 5.23478 0
M  V30 594 C 58.93 3.03999 4.24714 0
M  V30 595 H 60.624 1.96119 2.26225 0
M  V30 596 H 58.17 0.944344 1.08711 0
M  V30 597 H 60.123 0.467777 4.18796 0
M  V30 598 H 58.847 -0.344786 3.24775 0
M  V30 599 H 57.506 1.78721 3.20085 0
M  V30 600 H 57.154 0.11686 5.02864 0
M  V30 601 H 56.854 1.77704 5.60085 0
M  V30 602 H 58.378 0.950093 6.03163 0
M  V30 603 H 59.792 2.93393 4.92538 0
M  V30 604 H 58.189 3.69936 4.72512 0
M  V30 605 H 59.259 3.53285 3.32142 0
M  V30 606 N 60.6021 -1.18246 1.0419 0
M  V30 607 C 61.5491 -2.2192 0.634037 0
M  V30 608 C 62.5191 -1.62179 -0.358765 0
M  V30 609 O 63.7041 -1.89122 -0.252466 0
M  V30 610 C 60.8441 -3.451 0.00445535 0
M  V30 611 C 59.9571 -4.19174 1.04487 0
M  V30 612 C 59.0921 -5.29813 0.383676 0
M  V30 613 C 58.1311 -5.9566 1.4091 0
M  V30 614 N 57.2681 -6.97834 0.772784 0
M  V30 615 H 62.1081 -2.56164 1.52263 0
M  V30 616 H 59.6451 -1.25843 0.761701 0
M  V30 617 H 61.6031 -4.15485 -0.377919 0
M  V30 618 H 60.2331 -3.11472 -0.847652 0
M  V30 619 H 59.2851 -3.47604 1.54518 0
M  V30 620 H 60.5971 -4.64267 1.82368 0
M  V30 621 H 59.7511 -6.06677 -0.0528366 0
M  V30 622 H 58.4901 -4.85825 -0.427208 0
M  V30 623 H 57.4951 -5.17535 1.85574 0
M  V30 624 H 58.7201 -6.4173 2.22171 0
M  V30 625 H 56.6661 -6.55998 -0.0177708 0
M  V30 626 H 56.5831 -7.41186 1.48928 0
M  V30 627 H 57.8511 -7.78665 0.36071 0
M  V30 628 N 62.0802 -0.821533 -1.34494 0
M  V30 629 C 63.0432 -0.247847 -2.27856 0
M  V30 630 C 64.0432 0.573453 -1.50227 0
M  V30 631 O 65.2332 0.389759 -1.69784 0
M  V30 632 C 62.3652 0.652698 -3.34593 0
M  V30 633 H 63.5582 -1.07146 -2.80107 0
M  V30 634 H 61.1112 -0.593291 -1.44602 0
M  V30 635 H 61.8462 1.49943 -2.87555 0
M  V30 636 H 61.6312 0.065292 -3.92046 0
M  V30 637 H 63.1212 1.04793 -4.04238 0
M  V30 638 N 63.5583 1.46682 -0.576371 0
M  V30 639 C 64.8043 2.02712 -0.0596221 0
M  V30 640 C 65.1373 1.44765 1.29448 0
M  V30 641 O 64.4123 0.610355 1.84675 0
M  V30 642 C 64.6953 3.60098 0.0129503 0
M  V30 643 C 64.5483 4.28441 -1.3696 0
M  V30 644 C 65.8673 4.34224 0.71678 0
M  V30 645 H 62.9863 0.736637 -0.0231407 0
M  V30 646 H 65.6283 1.74898 -0.742351 0
M  V30 647 H 63.7783 3.83926 0.594378 0
M  V30 648 H 65.4503 4.15896 -1.9957 0
M  V30 649 H 63.6933 3.8805 -1.93907 0
M  V30 650 H 64.3643 5.3716 -1.27135 0
M  V30 651 H 66.8403 4.15503 0.222908 0
M  V30 652 H 65.7163 5.43936 0.73657 0
M  V30 653 H 65.9773 4.04823 1.77682 0
M  V30 654 N 65.0364 0.313813 1.54444 0
M  V30 655 C 65.9864 -0.571898 2.20711 0
M  V30 656 C 66.9704 -1.08913 1.18435 0
M  V30 657 O 68.1624 -1.02777 1.44104 0
M  V30 658 C 65.2914 -1.7371 2.96108 0
M  V30 659 C 64.3774 -1.23522 4.05713 0
M  V30 660 N 64.7684 -0.452288 5.03774 0
M  V30 661 C 63.0664 -1.51482 4.19487 0
M  V30 662 C 63.7674 -0.183438 5.81411 0
M  V30 663 N 62.7434 -0.766845 5.38164 0
M  V30 664 H 66.5454 0.0336802 2.93881 0
M  V30 665 H 64.0594 0.119192 1.61962 0
M  V30 666 H 66.0564 -2.38329 3.4206 0
M  V30 667 H 64.7164 -2.34625 2.24458 0
M  V30 668 H 65.7274 -0.0960131 5.17811 0
M  V30 669 H 62.4044 -2.13053 3.59047 0
M  V30 670 H 63.7944 0.446216 6.70417 0
M  V30 671 N 66.5145 -1.57545 0.0417849 0
M  V30 672 C 67.7395 -1.97035 -0.647455 0
M  V30 673 C 68.1645 -0.918775 -1.64135 0
M  V30 674 O 67.5225 0.119006 -1.80909 0
M  V30 675 C 67.5705 -3.35609 -1.31905 0
M  V30 676 O 66.6745 -3.3287 -2.43457 0
M  V30 677 H 66.0155 -0.64211 -0.169086 0
M  V30 678 H 68.5455 -2.04318 0.107399 0
M  V30 679 H 68.5555 -3.72126 -1.67291 0
M  V30 680 H 67.2305 -4.11685 -0.590586 0
M  V30 681 H 65.8075 -3.08087 -2.10088 0
M  V30 682 N 67.9926 0.231505 -1.5589 0
M  V30 683 C 69.2396 0.957352 -1.78441 0
M  V30 684 C 69.5676 1.84726 -0.60882 0
M  V30 685 O 68.8226 1.91416 0.40725 0
M  V30 686 C 69.1216 1.83577 -3.0665 0
M  V30 687 C 68.7876 1.09993 -4.37278 0
M  V30 688 C 67.4496 0.896629 -4.72773 0
M  V30 689 C 69.8016 0.579558 -5.17968 0
M  V30 690 C 67.1296 0.160896 -5.86479 0
M  V30 691 C 69.4816 -0.142783 -6.32439 0
M  V30 692 C 68.1456 -0.357427 -6.66542 0
M  V30 693 H 67.4156 0.35032 -0.65296 0
M  V30 694 H 70.0626 0.226259 -1.90159 0
M  V30 695 H 68.3676 2.63441 -2.90011 0
M  V30 696 H 70.0646 2.39934 -3.21298 0
M  V30 697 H 66.6546 1.26835 -4.09403 0
M  V30 698 H 70.8386 0.724125 -4.90989 0
M  V30 699 H 66.0946 -0.0157293 -6.11398 0
M  V30 700 H 70.2686 -0.553559 -6.94196 0
M  V30 701 H 67.8956 -0.929466 -7.54497 0
M  V30 702 N 69.4707 1.49531 0.497807 0
M  V30 703 C 70.4007 1.6935 1.60757 0
M  V30 704 C 71.3817 0.542218 1.61227 0
M  V30 705 O 72.5667 0.778417 1.77917 0
M  V30 706 C 69.6967 1.76298 2.99226 0
M  V30 707 C 68.6507 2.91248 3.13622 0
M  V30 708 C 67.9767 2.83312 4.53474 0
M  V30 709 C 69.2767 4.3214 2.93346 0
M  V30 710 H 70.9707 2.62263 1.44425 0
M  V30 711 H 68.5167 1.26208 0.693367 0
M  V30 712 H 70.4697 1.88749 3.76765 0
M  V30 713 H 69.1937 0.799871 3.16654 0
M  V30 714 H 67.8527 2.78404 2.38509 0
M  V30 715 H 67.5007 1.84902 4.67782 0
M  V30 716 H 67.2007 3.60465 4.64046 0
M  V30 717 H 68.7247 2.97775 5.33069 0
M  V30 718 H 70.1387 4.45649 3.60652 0
M  V30 719 H 68.5357 5.1054 3.15387 0
M  V30 720 H 69.6057 4.46363 1.89441 0
M  V30 721 N 70.9488 -0.749086 1.3866 0
M  V30 722 C 72.1948 -1.50959 1.36319 0
M  V30 723 C 72.5498 -1.92347 -0.0452451 0
M  V30 724 O 71.8428 -1.6289 -1.00884 0
M  V30 725 C 72.0368 -2.7712 2.25697 0
M  V30 726 C 71.8658 -2.48067 3.7509 0
M  V30 727 C 70.6358 -2.41062 4.44091 0
M  V30 728 C 72.8338 -2.14544 4.67414 0
M  V30 729 N 70.8158 -2.04331 5.78897 0
M  V30 730 C 72.1868 -1.88141 5.90765 0
M  V30 731 C 74.2418 -2.00892 4.55573 0
M  V30 732 C 72.9448 -1.49463 7.036 0
M  V30 733 C 74.9708 -1.63616 5.68317 0
M  V30 734 C 74.3328 -1.38088 6.90732 0
M  V30 735 H 70.4318 -0.551804 0.554108 0
M  V30 736 H 73.0158 -0.871886 1.74087 0
M  V30 737 H 71.1868 -3.38693 1.9011 0
M  V30 738 H 72.9188 -3.4321 2.1445 0
M  V30 739 H 69.6738 -2.57685 3.9736 0
M  V30 740 H 70.0978 -1.88598 6.502 0
M  V30 741 H 74.7398 -2.19301 3.61479 0
M  V30 742 H 72.4578 -1.29794 7.97608 0
M  V30 743 H 76.0438 -1.53678 5.61137 0
M  V30 744 H 74.9238 -1.09674 7.76493 0
M  V30 745 N 72.4269 -1.23603 -0.977757 0
M  V30 746 C 73.6519 -1.09735 -1.75991 0
M  V30 747 C 74.0769 0.346858 -1.84874 0
M  V30 748 O 73.4349 1.25093 -1.3123 0
M  V30 749 C 73.4829 -1.73051 -3.16363 0
M  V30 750 O 72.5869 -0.994452 -4.0023 0
M  V30 751 H 71.9279 -0.384476 -0.541364 0
M  V30 752 H 74.4579 -1.6371 -1.2272 0
M  V30 753 H 74.4679 -1.78398 -3.66931 0
M  V30 754 H 73.1429 -2.78137 -3.09213 0
M  V30 755 H 71.7199 -1.01812 -3.58732 0
M  V30 756 N 73.905 1.17692 -1.04816 0
M  V30 757 C 74.852 2.21581 -0.645797 0
M  V30 758 C 75.822 1.62367 0.350159 0
M  V30 759 O 77.007 1.89254 0.242433 0
M  V30 760 C 74.147 3.45092 -0.0227568 0
M  V30 761 C 73.26 4.18613 -1.06709 0
M  V30 762 C 72.395 5.29602 -0.411767 0
M  V30 763 C 71.434 5.94904 -1.44067 0
M  V30 764 N 70.571 6.97414 -0.809781 0
M  V30 765 H 75.411 2.55353 -1.5362 0
M  V30 766 H 72.948 1.25438 -0.768364 0
M  V30 767 H 74.906 4.15679 0.35588 0
M  V30 768 H 73.536 3.11917 0.831122 0
M  V30 769 H 72.588 3.46779 -1.5636 0
M  V30 770 H 73.9 4.63293 -1.84827 0
M  V30 771 H 73.054 6.06696 0.0206623 0
M  V30 772 H 71.793 4.86045 0.401438 0
M  V30 773 H 70.798 5.16544 -1.88316 0
M  V30 774 H 72.023 6.40542 -2.25571 0
M  V30 775 H 69.969 6.55998 -0.0170186 0
M  V30 776 H 69.886 7.40386 -1.52856 0
M  V30 777 H 71.154 7.78463 -0.401999 0
M  V30 778 N 75.3831 0.828654 1.34056 0
M  V30 779 C 76.3301 0.252567 2.29414 0
M  V30 780 C 77.3001 -0.62588 1.53857 0
M  V30 781 O 78.4851 -0.566312 1.82202 0
M  V30 782 C 75.6251 -0.574831 3.40279 0
M  V30 783 C 74.7381 0.326499 4.30764 0
M  V30 784 C 73.8731 -0.511016 5.28736 0
M  V30 785 C 72.9121 0.389342 6.1086 0
M  V30 786 N 72.0491 -0.409439 7.00905 0
M  V30 787 H 76.8891 1.07108 2.78086 0
M  V30 788 H 74.4261 0.539677 1.36843 0
M  V30 789 H 76.3841 -1.06992 4.03248 0
M  V30 790 H 75.0141 -1.35841 2.92826 0
M  V30 791 H 74.0661 0.939837 3.68607 0
M  V30 792 H 75.3781 1.01857 4.88289 0
M  V30 793 H 74.5321 -1.07035 5.97184 0
M  V30 794 H 73.2711 -1.23657 4.71763 0
M  V30 795 H 72.2761 0.960769 5.4134 0
M  V30 796 H 73.5011 1.1131 6.69916 0
M  V30 797 H 71.4471 -1.11856 6.46393 0
M  V30 798 H 71.3641 0.224126 7.55668 0
M  V30 799 H 72.6321 -0.951336 7.73673 0
M  V30 800 N 76.8612 -1.46375 0.584142 0
M  V30 801 C 77.7712 -2.34115 -0.150728 0
M  V30 802 C 78.7872 -1.49838 -0.884567 0
M  V30 803 O 79.9632 -1.82704 -0.847429 0
M  V30 804 C 77.0282 -3.2705 -1.15062 0
M  V30 805 C 76.0892 -4.27228 -0.421293 0
M  V30 806 C 75.3222 -5.15722 -1.37355 0
M  V30 807 O 75.5452 -5.07176 -2.61014 0
M  V30 808 O 74.4792 -5.95383 -0.883355 0
M  V30 809 H 78.3052 -2.98309 0.569708 0
M  V30 810 H 75.8902 -1.45373 0.344535 0
M  V30 811 H 77.7722 -3.84381 -1.72712 0
M  V30 812 H 76.4472 -2.65451 -1.8525 0
M  V30 813 H 75.3542 -3.7358 0.197085 0
M  V30 814 H 76.6872 -4.91616 0.239641 0
M  V30 815 N 78.3393 -0.321999 -1.54275 0
M  V30 816 C 79.2693 0.537411 -2.27231 0
M  V30 817 C 80.2503 1.12064 -1.27968 0
M  V30 818 O 81.4353 1.14606 -1.56777 0
M  V30 819 C 78.5653 1.69919 -3.02894 0
M  V30 820 C 77.5193 1.24534 -4.09482 0
M  V30 821 C 76.8453 2.49394 -4.72977 0
M  V30 822 C 78.1453 0.361335 -5.21049 0
M  V30 823 H 79.8393 -0.0711406 -2.99315 0
M  V30 824 H 77.3853 -0.0356555 -1.43956 0
M  V30 825 H 79.3383 2.30668 -3.52662 0
M  V30 826 H 78.0623 2.33431 -2.28424 0
M  V30 827 H 76.7213 0.660782 -3.60596 0
M  V30 828 H 76.3693 3.11265 -3.95124 0
M  V30 829 H 76.0693 2.19718 -5.44975 0
M  V30 830 H 77.5933 3.10908 -5.25517 0
M  V30 831 H 79.0073 0.875072 -5.66582 0
M  V30 832 H 77.4043 0.157428 -5.99893 0
M  V30 833 H 78.4743 -0.60822 -4.8107 0
M  V30 834 N 79.8174 1.5752 -0.0501392 0
M  V30 835 C 81.2334 1.56631 0.306402 0
M  V30 836 C 81.4334 1.0577 1.71508 0
M  V30 837 O 80.4894 0.713837 2.422 0
M  V30 838 C 81.8024 3.00393 0.135811 0
M  V30 839 C 83.3504 3.12315 0.206993 0
M  V30 840 C 83.8254 4.57954 0.064944 0
M  V30 841 N 85.3164 4.63041 0.121254 0
M  V30 842 C 86.0514 5.73389 0.0354381 0
M  V30 843 N 85.5474 6.92724 -0.102666 0
M  V30 844 N 87.3404 5.62026 0.090946 0
M  V30 845 H 79.4914 1.88903 -0.971046 0
M  V30 846 H 81.7544 0.869876 -0.376855 0
M  V30 847 H 81.4604 3.41635 -0.835384 0
M  V30 848 H 81.3344 3.66373 0.897275 0
M  V30 849 H 83.7214 2.70973 1.16866 0
M  V30 850 H 83.8024 2.49016 -0.585208 0
M  V30 851 H 83.4464 4.99981 -0.893394 0
M  V30 852 H 83.3764 5.19258 0.876277 0
M  V30 853 H 85.8674 3.77216 0.227284 0
M  V30 854 H 86.1804 7.72633 -0.160882 0
M  V30 855 H 84.5254 6.94864 -0.137737 0
M  V30 856 H 87.7164 4.67684 0.197388 0
M  V30 857 H 87.8894 6.47997 0.0206089 0
M  V30 858 N 81.2955 -0.223234 1.56011 0
M  V30 859 C 82.2255 -1.27988 1.95298 0
M  V30 860 C 83.2065 -1.48976 0.820979 0
M  V30 861 O 84.3915 -1.61188 1.08315 0
M  V30 862 C 81.5215 -2.63 2.26822 0
M  V30 863 C 80.4755 -2.56671 3.42497 0
M  V30 864 C 79.8015 -3.95697 3.59622 0
M  V30 865 C 81.1015 -2.11601 4.77517 0
M  V30 866 H 82.7955 -0.953525 2.8381 0
M  V30 867 H 80.3415 -0.457244 1.36548 0
M  V30 868 H 82.2945 -3.37077 2.52898 0
M  V30 869 H 81.0185 -2.9732 1.35161 0
M  V30 870 H 79.6775 -1.85051 3.16467 0
M  V30 871 H 79.3255 -4.27322 2.6534 0
M  V30 872 H 79.0255 -3.92345 4.37424 0
M  V30 873 H 80.5495 -4.71438 3.88044 0
M  V30 874 H 81.9635 -2.7542 5.02809 0
M  V30 875 H 80.3605 -2.19311 5.5859 0
M  V30 876 H 81.4305 -1.06824 4.72987 0
M  V30 877 N 82.7736 -1.49793 -0.48987 0
M  V30 878 C 83.7056 -1.63413 -1.60713 0
M  V30 879 C 84.7186 -0.516329 -1.54395 0
M  V30 880 O 85.9076 -0.788812 -1.60125 0
M  V30 881 C 83.0076 -1.58516 -2.99543 0
M  V30 882 C 82.1806 -2.86016 -3.30928 0
M  V30 883 C 81.2396 -2.74018 -4.49222 0
M  V30 884 O 80.2656 -3.47964 -4.50455 0
M  V30 885 N 81.4676 -1.86309 -5.4979 0
M  V30 886 H 84.2326 -2.59777 -1.49452 0
M  V30 887 H 81.7936 -1.47022 -0.677955 0
M  V30 888 H 83.7856 -1.48128 -3.76617 0
M  V30 889 H 82.3556 -0.69965 -3.0467 0
M  V30 890 H 81.5756 -3.10672 -2.42645 0
M  V30 891 H 82.8636 -3.70521 -3.487 0
M  V30 892 H 82.2616 -1.2551 -5.51601 0
M  V30 893 H 80.8186 -1.81837 -6.25922 0
M  V30 894 N 84.2517 0.741722 -1.39055 0
M  V30 895 C 85.6627 1.31966 -1.32068 0
M  V30 896 C 86.0137 1.96192 0.0180797 0
M  V30 897 O 85.1387 1.95861 0.920196 0
M  V30 898 C 85.7337 2.39954 -2.39181 0
M  V30 899 C 84.2927 2.93438 -2.35735 0
M  V30 900 C 83.4397 1.66936 -2.21422 0
M  V30 901 H 86.3907 0.539721 -1.4924 0
M  V30 902 H 86.4117 3.20182 -2.05581 0
M  V30 903 H 85.9237 1.9318 -3.36605 0
M  V30 904 H 84.0247 3.4451 -1.41929 0
M  V30 905 H 84.1377 3.4701 -3.30335 0
M  V30 906 H 82.5017 1.91016 -1.68478 0
M  V30 907 H 83.2847 1.22224 -3.20806 0
M  V30 908 N 85.7298 1.2412 0.971189 0
M  V30 909 C 86.9548 1.10667 1.75407 0
M  V30 910 C 87.3798 -0.337048 1.85056 0
M  V30 911 O 86.7378 -1.24396 1.31892 0
M  V30 912 C 86.7858 1.74726 3.15441 0
M  V30 913 O 85.8898 1.01566 3.99697 0
M  V30 914 H 85.2308 0.387341 0.539317 0
M  V30 915 H 87.7608 1.64358 1.2185 0
M  V30 916 H 87.7708 1.80341 3.6598 0
M  V30 917 H 86.4458 2.79773 3.07734 0
M  V30 918 H 85.0228 1.03713 3.58187 0
M  V30 919 N 87.2079 -1.17134 1.05439 0
M  V30 920 C 88.4329 -1.91913 0.786396 0
M  V30 921 C 88.8579 -1.7643 -0.652234 0
M  V30 922 O 88.2159 -1.08372 -1.45345 0
M  V30 923 C 88.2639 -3.40921 1.17497 0
M  V30 924 O 87.3679 -4.11244 0.308589 0
M  V30 925 H 86.7089 -0.598215 0.288158 0
M  V30 926 H 89.2389 -1.48457 1.4079 0
M  V30 927 H 89.2489 -3.91668 1.14281 0
M  V30 928 H 87.9239 -3.5151 2.22292 0
M  V30 929 H 86.5009 -3.70731 0.40157 0
M  V30 930 N 88.686 -0.835752 -1.33615 0
M  V30 931 C 89.914 -0.443344 -2.02094 0
M  V30 932 C 90.329 0.954522 -1.62894 0
M  V30 933 O 89.686 1.61982 -0.840723 0
M  V30 934 C 89.737 -0.550775 -3.5728 0
M  V30 935 O 89.458 -1.89356 -3.95065 0
M  V30 936 C 90.959 -0.154919 -4.43029 0
M  V30 937 H 88.179 -0.176359 -0.647409 0
M  V30 938 H 90.723 -1.12746 -1.70612 0
M  V30 939 H 88.878 0.0853997 -3.87306 0
M  V30 940 H 89.292 -1.87687 -4.89769 0
M  V30 941 H 90.766 -0.281144 -5.51284 0
M  V30 942 H 91.243 0.902863 -4.2982 0
M  V30 943 H 91.849 -0.765404 -4.18356 0
M  V30 944 N 90.1641 1.46063 -0.591896 0
M  V30 945 C 91.3921 2.06717 -0.0868936 0
M  V30 946 C 91.8071 1.43916 1.22203 0
M  V30 947 O 91.1641 0.547698 1.74088 0
M  V30 948 C 91.2151 3.6142 0.0758725 0
M  V30 949 O 90.9361 4.21874 -1.18126 0
M  V30 950 C 92.4371 4.39025 0.61416 0
M  V30 951 H 89.6571 0.668162 -0.0616518 0
M  V30 952 H 92.2011 1.8755 -0.815175 0
M  V30 953 H 90.3561 3.79983 0.754413 0
M  V30 954 H 90.7701 5.14861 -1.00092 0
M  V30 955 H 92.2441 5.4783 0.677193 0
M  V30 956 H 92.7211 4.07708 1.63312 0
M  V30 957 H 93.3271 4.2529 -0.0298142 0
M  V30 958 N 91.6422 0.330177 1.54103 0
M  V30 959 C 92.8702 -0.272179 2.05102 0
M  V30 960 C 93.2852 -1.45267 1.20595 0
M  V30 961 O 92.6422 -1.8094 0.238144 0
M  V30 962 C 92.6932 -0.70023 3.54653 0
M  V30 963 O 92.4142 0.433301 4.35952 0
M  V30 964 C 93.9152 -1.3647 4.21771 0
M  V30 965 H 91.1352 -0.0549159 0.668749 0
M  V30 966 H 93.6792 0.478285 1.98828 0
M  V30 967 H 91.8342 -1.40066 3.61193 0
M  V30 968 H 92.2482 0.0947539 5.24414 0
M  V30 969 H 93.7222 -1.61509 5.27843 0
M  V30 970 H 94.1992 -2.31409 3.73292 0
M  V30 971 H 94.8052 -0.706675 4.19388 0
M  V30 972 N 93.1203 -1.57491 0.0584922 0
M  V30 973 C 94.0533 -2.07533 -0.948969 0
M  V30 974 C 95.0313 -0.977444 -1.29942 0
M  V30 975 O 96.2153 -1.2499 -1.41102 0
M  V30 976 C 93.3423 -2.52192 -2.2609 0
M  V30 977 C 92.3883 -3.73287 -2.06298 0
M  V30 978 S 93.2213 -5.18603 -1.33459 0
M  V30 979 C 94.3773 -5.66583 -2.65959 0
M  V30 980 H 94.6103 -2.92662 -0.523118 0
M  V30 981 H 92.1433 -1.53631 -0.153954 0
M  V30 982 H 94.1013 -2.78585 -3.01498 0
M  V30 983 H 92.7623 -1.67356 -2.65802 0
M  V30 984 H 91.9553 -4.0248 -3.03357 0
M  V30 985 H 91.5573 -3.47199 -1.39029 0
M  V30 986 H 93.8493 -5.72616 -3.62101 0
M  V30 987 H 94.7923 -6.65684 -2.41393 0
M  V30 988 H 95.2003 -4.94342 -2.72554 0
M  V30 989 N 94.5984 0.214957 -1.56127 0
M  V30 990 C 95.5614 1.24997 -1.92116 0
M  V30 991 C 96.5614 1.39467 -0.800344 0
M  V30 992 O 97.7514 1.37619 -1.06802 0
M  V30 993 C 94.8834 2.62271 -2.17777 0
M  V30 994 H 96.0764 0.942875 -2.84693 0
M  V30 995 H 93.6294 0.455654 -1.49511 0
M  V30 996 H 94.3644 2.98068 -1.27773 0
M  V30 997 H 94.1494 2.53143 -2.99434 0
M  V30 998 H 95.6394 3.36946 -2.46693 0
M  V30 999 N 96.0765 1.50051 0.48192 0
M  V30 1000 C 97.0235 1.68122 1.58125 0
M  V30 1001 C 97.9935 0.522545 1.57666 0
M  V30 1002 O 99.1785 0.751844 1.75362 0
M  V30 1003 C 96.3185 1.77142 2.96167 0
M  V30 1004 C 95.4315 3.0444 3.06497 0
M  V30 1005 C 94.5665 3.04321 4.35387 0
M  V30 1006 C 93.6055 4.26118 4.3942 0
M  V30 1007 N 92.7425 4.238 5.59766 0
M  V30 1008 H 97.5825 2.6198 1.42022 0
M  V30 1009 H 95.1195 1.29877 0.690687 0
M  V30 1010 H 97.0775 1.80352 3.76203 0
M  V30 1011 H 95.7075 0.867329 3.1093 0
M  V30 1012 H 94.7595 3.10752 2.19402 0
M  V30 1013 H 96.0715 3.94426 3.05336 0
M  V30 1014 H 95.2255 3.062 5.23762 0
M  V30 1015 H 93.9645 2.12147 4.39141 0
M  V30 1016 H 92.9695 4.24463 3.49444 0
M  V30 1017 H 94.1945 5.19507 4.37366 0
M  V30 1018 H 92.1405 3.34474 5.64326 0
M  V30 1019 H 92.0575 5.07542 5.60301 0
M  V30 1020 H 93.3255 4.2981 6.50295 0
M  V30 1021 N 97.5546 -0.734337 1.39446 0
M  V30 1022 C 98.5026 -1.86971 1.38364 0
M  V30 1023 C 99.4966 -1.67288 0.266687 0
M  V30 1024 O 100.703 -1.74621 0.436755 0
M  V30 1025 H 97.0776 -0.615474 0.432082 0
M  V30 1026 H 99.0486 -1.85 2.34132 0
M  V30 1027 C 97.7976 -3.2466 1.24465 0
M  V30 1028 H 97.1206 -3.40402 2.09682 0
M  V30 1029 H 98.5606 -4.04292 1.27764 0
M  V30 1030 C 97.0196 -3.36867 -0.0468674 0
M  V30 1031 O 97.5496 -3.88618 -1.01681 0
M  V30 1032 N 95.7556 -2.90391 -0.110145 0
M  V30 1033 H 95.3026 -2.48466 0.679868 0
M  V30 1034 H 95.2606 -2.98939 -0.973799 0
M  V30 1035 N 99.0327 -1.24633 -0.964593 0
M  V30 1036 C 100.261 -1.11501 -1.74285 0
M  V30 1037 C 100.676 0.332165 -1.85855 0
M  V30 1038 O 100.033 1.22903 -1.34911 0
M  V30 1039 C 100.084 -1.75258 -3.16175 0
M  V30 1040 O 99.8047 -3.14318 -3.05182 0
M  V30 1041 C 101.306 -1.67776 -4.10324 0
M  V30 1042 H 98.5257 -0.389407 -0.546446 0
M  V30 1043 H 101.07 -1.64801 -1.21083 0
M  V30 1044 H 99.2247 -1.25954 -3.66353 0
M  V30 1045 H 99.6387 -3.4551 -3.94618 0
M  V30 1046 H 101.113 -2.17064 -5.0753 0
M  V30 1047 H 101.59 -0.639584 -4.34518 0
M  V30 1048 H 102.196 -2.16522 -3.66058 0
M  V30 1049 N 100.511 1.16574 -1.06058 0
M  V30 1050 C 101.757 1.87324 -0.777022 0
M  V30 1051 C 102.09 1.81351 0.694645 0
M  V30 1052 O 101.365 1.22753 1.50871 0
M  V30 1053 C 101.648 3.36991 -1.26922 0
M  V30 1054 C 101.501 3.51667 -2.80447 0
M  V30 1055 C 102.82 4.3131 -0.87521 0
M  V30 1056 H 99.9388 0.680191 -0.28374 0
M  V30 1057 H 102.581 1.37036 -1.3161 0
M  V30 1058 H 100.731 3.79949 -0.81063 0
M  V30 1059 H 102.403 3.17664 -3.34495 0
M  V30 1060 H 100.646 2.93656 -3.19294 0
M  V30 1061 H 101.317 4.56766 -3.0995 0
M  V30 1062 H 103.793 3.9624 -1.27014 0
M  V30 1063 H 102.669 5.34545 -1.2471 0
M  V30 1064 H 102.93 4.41552 0.220071 0
M  V30 1065 N 101.989 0.842826 1.3317 0
M  V30 1066 C 103.236 0.440447 1.97652 0
M  V30 1067 C 103.564 -1.00123 1.6675 0
M  V30 1068 O 102.819 -1.7155 0.941761 0
M  V30 1069 C 103.118 0.612607 3.52111 0
M  V30 1070 C 102.784 2.02297 4.02972 0
M  V30 1071 C 101.446 2.40874 4.16573 0
M  V30 1072 C 103.798 2.94402 4.30089 0
M  V30 1073 C 101.126 3.70852 4.54627 0
M  V30 1074 C 103.478 4.23865 4.69597 0
M  V30 1075 C 102.142 4.62392 4.81404 0
M  V30 1076 H 101.412 0.161171 0.72326 0
M  V30 1077 H 104.059 1.07061 1.58777 0
M  V30 1078 H 102.364 -0.100849 3.9167 0
M  V30 1079 H 104.061 0.2815 4.00011 0
M  V30 1080 H 100.651 1.71338 3.92863 0
M  V30 1081 H 104.835 2.65835 4.19101 0
M  V30 1082 H 100.091 4.00501 4.61962 0
M  V30 1083 H 104.265 4.95306 4.89536 0
M  V30 1084 H 101.892 5.63154 5.10648 0
M  V30 1085 N 103.467 -1.45747 0.599634 0
M  V30 1086 C 104.397 -2.33235 -0.111306 0
M  V30 1087 C 105.378 -1.46359 -0.866781 0
M  V30 1088 O 106.563 -1.75146 -0.838904 0
M  V30 1089 C 103.693 -3.28932 -1.11451 0
M  V30 1090 C 102.647 -4.25381 -0.472772 0
M  V30 1091 C 101.973 -5.1071 -1.58365 0
M  V30 1092 C 103.273 -5.18831 0.600948 0
M  V30 1093 H 104.967 -2.92927 0.61919 0
M  V30 1094 H 102.513 -1.40857 0.299215 0
M  V30 1095 H 104.466 -3.89002 -1.62036 0
M  V30 1096 H 103.19 -2.67381 -1.8755 0
M  V30 1097 H 101.849 -3.66598 0.0121472 0
M  V30 1098 H 101.497 -4.45533 -2.33473 0
M  V30 1099 H 101.197 -5.7604 -1.15982 0
M  V30 1100 H 102.721 -5.73647 -2.09194 0
M  V30 1101 H 104.135 -5.73019 0.179491 0
M  V30 1102 H 102.532 -5.92595 0.946076 0
M  V30 1103 H 103.602 -4.6174 1.48068 0
M  V30 1104 N 104.945 -0.338344 -1.53925 0
M  V30 1105 C 106.194 0.260732 -2.00008 0
M  V30 1106 C 106.507 1.52073 -1.23017 0
M  V30 1107 O 107.713 2.19672 -1.5955 0
M  V30 1108 C 106.169 0.51515 -3.56194 0
M  V30 1109 C 105.777 -0.728645 -4.42035 0
M  V30 1110 C 107.521 1.07337 -4.10706 0
M  V30 1111 C 105.428 -0.445315 -5.89721 0
M  V30 1112 H 104.358 0.101205 -0.747177 0
M  V30 1113 H 107.009 -0.452866 -1.77824 0
M  V30 1114 H 105.391 1.28932 -3.74423 0
M  V30 1115 H 106.565 -1.50352 -4.35581 0
M  V30 1116 H 104.88 -1.20813 -3.98489 0
M  V30 1117 H 107.477 1.30022 -5.18651 0
M  V30 1118 H 107.82 2.0273 -3.63602 0
M  V30 1119 H 108.353 0.360034 -3.96167 0
M  V30 1120 H 105.092 -1.36883 -6.41049 0
M  V30 1121 H 104.612 0.291569 -5.99091 0
M  V30 1122 H 106.291 -0.0606218 -6.46972 0
M  V30 1123 N 106.423 1.57458 -0.0668435 0
M  V30 1124 C 107.333 2.15937 0.916975 0
M  V30 1125 C 108.349 1.12123 1.33058 0
M  V30 1126 O 109.525 1.44366 1.40429 0
M  V30 1127 C 106.59 2.70547 2.16807 0
M  V30 1128 C 105.651 3.89215 1.81135 0
M  V30 1129 C 104.884 4.41211 3.0028 0
M  V30 1130 O 105.107 3.92225 4.14144 0
M  V30 1131 O 104.041 5.32605 2.80384 0
M  V30 1132 H 107.867 3.00354 0.449561 0
M  V30 1133 H 105.452 1.48584 0.155949 0
M  V30 1134 H 107.334 3.0557 2.90181 0
M  V30 1135 H 106.009 1.89192 2.62656 0
M  V30 1136 H 104.916 3.59054 1.05028 0
M  V30 1137 H 106.249 4.71848 1.40073 0
M  V30 1138 N 107.901 -0.206675 1.56239 0
M  V30 1139 C 108.834 -1.28383 1.88661 0
M  V30 1140 C 109.812 -1.44504 0.745481 0
M  V30 1141 O 110.996 -1.60079 0.995336 0
M  V30 1142 C 108.123 -2.65211 2.10667 0
M  V30 1143 C 107.169 -2.66025 3.33366 0
M  V30 1144 S 108.002 -2.18609 4.88846 0
M  V30 1145 C 109.158 -3.57283 5.13906 0
M  V30 1146 H 109.391 -1.00691 2.7973 0
M  V30 1147 H 106.924 -0.409627 1.48867 0
M  V30 1148 H 108.882 -3.43979 2.24029 0
M  V30 1149 H 107.543 -2.90121 1.20369 0
M  V30 1150 H 106.736 -3.66607 3.45855 0
M  V30 1151 H 106.338 -1.95331 3.18938 0
M  V30 1152 H 108.63 -4.53074 5.03717 0
M  V30 1153 H 109.573 -3.49699 6.15724 0
M  V30 1154 H 109.981 -3.51659 4.41583 0
M  V30 1155 N 109.379 -1.50304 -0.473955 0
M  V30 1156 C 110.309 -1.71886 -1.58042 0
M  V30 1157 C 111.29 -0.567799 -1.60344 0
M  V30 1158 O 112.475 -0.806623 -1.76656 0
M  V30 1159 C 109.605 -1.81036 -2.96384 0
M  V30 1160 C 108.559 -2.962 -3.08949 0
M  V30 1161 C 107.885 -2.9049 -4.48909 0
M  V30 1162 C 109.185 -4.36752 -2.86434 0
M  V30 1163 H 110.879 -2.64527 -1.40234 0
M  V30 1164 H 108.425 -1.27295 -0.673201 0
M  V30 1165 H 110.378 -1.94719 -3.73714 0
M  V30 1166 H 109.102 -0.850147 -3.15341 0
M  V30 1167 H 107.761 -2.82164 -2.3405 0
M  V30 1168 H 107.409 -1.92321 -4.64781 0
M  V30 1169 H 107.109 -3.67802 -4.58253 0
M  V30 1170 H 108.633 -3.06218 -5.28264 0
M  V30 1171 H 110.047 -4.5133 -3.53517 0
M  V30 1172 H 108.444 -5.15493 -3.07225 0
M  V30 1173 H 109.514 -4.49321 -1.82316 0
M  V30 1174 N 110.857 0.726932 -1.39834 0
M  V30 1175 C 111.787 1.85405 -1.41941 0
M  V30 1176 C 112.768 1.67751 -0.281728 0
M  V30 1177 O 113.953 1.8795 -0.488717 0
M  V30 1178 C 111.083 3.23243 -1.2701 0
M  V30 1179 C 110.037 3.55549 -2.38262 0
M  V30 1180 C 109.363 4.9241 -2.08415 0
M  V30 1181 C 110.663 3.577 -3.80589 0
M  V30 1182 H 112.357 1.83899 -2.36266 0
M  V30 1183 H 109.903 0.883349 -1.13723 0
M  V30 1184 H 111.856 4.01775 -1.27103 0
M  V30 1185 H 110.58 3.25296 -0.291564 0
M  V30 1186 H 109.239 2.79351 -2.37399 0
M  V30 1187 H 108.887 4.91052 -1.0898 0
M  V30 1188 H 108.587 5.14992 -2.82943 0
M  V30 1189 H 110.111 5.73289 -2.10171 0
M  V30 1190 H 111.525 4.26293 -3.83337 0
M  V30 1191 H 109.922 3.91804 -4.54543 0
M  V30 1192 H 110.992 2.57328 -4.10987 0
M  V30 1193 N 112.336 1.25143 0.95797 0
M  V30 1194 C 113.747 1.08851 1.51685 0
M  V30 1195 C 114.098 -0.33687 1.93286 0
M  V30 1196 O 113.223 -1.22644 1.7829 0
M  V30 1197 C 113.818 1.96978 2.75654 0
M  V30 1198 C 112.377 1.84881 3.27866 0
M  V30 1199 C 111.524 1.91329 2.0072 0
M  V30 1200 H 114.475 1.38478 0.77522 0
M  V30 1201 H 114.496 1.5078 3.4935 0
M  V30 1202 H 114.008 3.00712 2.45345 0
M  V30 1203 H 112.109 0.840182 3.63004 0
M  V30 1204 H 112.222 2.6951 3.96107 0
M  V30 1205 H 110.586 1.35174 2.15871 0
M  V30 1206 H 111.369 2.96661 1.72764 0
M  V30 1207 N 113.814 -1.1601 1.06675 0
M  V30 1208 C 114.761 -2.20525 0.680967 0
M  V30 1209 C 115.731 -1.62904 -0.324283 0
M  V30 1210 O 116.916 -1.89615 -0.212294 0
M  V30 1211 C 114.056 -3.45013 0.0776551 0
M  V30 1212 C 113.169 -4.16863 1.13355 0
M  V30 1213 C 112.304 -5.2888 0.49597 0
M  V30 1214 C 111.343 -5.92537 1.53513 0
M  V30 1215 N 110.48 -6.96038 0.920631 0
M  V30 1216 H 115.32 -2.52876 1.57663 0
M  V30 1217 H 112.857 -1.24199 0.788223 0
M  V30 1218 H 114.815 -4.16193 -0.289704 0
M  V30 1219 H 113.445 -3.132 -0.781393 0
M  V30 1220 H 112.497 -3.44248 1.61857 0
M  V30 1221 H 113.809 -4.60294 1.92174 0
M  V30 1222 H 112.963 -6.06653 0.0758604 0
M  V30 1223 H 111.702 -4.86622 -0.324062 0
M  V30 1224 H 110.707 -5.13482 1.9651 0
M  V30 1225 H 111.932 -6.36873 2.35733 0
M  V30 1226 H 109.878 -6.55888 0.12138 0
M  V30 1227 H 109.795 -7.3786 1.64616 0
M  V30 1228 H 111.063 -7.77725 0.525795 0
M  V30 1229 N 115.292 -0.849877 -1.32721 0
M  V30 1230 C 116.239 -0.289033 -2.28983 0
M  V30 1231 C 117.209 0.601324 -1.54833 0
M  V30 1232 O 118.394 0.537253 -1.8308 0
M  V30 1233 C 115.534 0.520623 -3.4115 0
M  V30 1234 C 114.647 -0.394989 -4.3019 0
M  V30 1235 C 113.782 0.426834 -5.29482 0
M  V30 1236 C 112.821 -0.486476 -6.10164 0
M  V30 1237 N 111.958 0.297879 -7.01468 0
M  V30 1238 H 116.798 -1.11519 -2.76347 0
M  V30 1239 H 114.335 -0.56138 -1.35967 0
M  V30 1240 H 116.293 1.00563 -4.04899 0
M  V30 1241 H 114.923 1.31165 -2.9495 0
M  V30 1242 H 113.975 -0.99836 -3.67065 0
M  V30 1243 H 115.287 -1.09612 -4.86607 0
M  V30 1244 H 114.441 0.975205 -5.98811 0
M  V30 1245 H 113.18 1.16136 -4.73671 0
M  V30 1246 H 112.185 -1.04677 -5.39743 0
M  V30 1247 H 113.41 -1.21953 -6.6806 0
M  V30 1248 H 111.356 1.01558 -6.48091 0
M  V30 1249 H 111.273 -0.344318 -7.55216 0
M  V30 1250 H 112.541 0.828131 -7.75089 0
M  V30 1251 N 116.77 1.45427 -0.607355 0
M  V30 1252 C 118 2.06314 -0.108656 0
M  V30 1253 C 118.408 1.45269 1.21217 0
M  V30 1254 O 117.751 0.561115 1.74921 0
M  V30 1255 C 117.813 3.59345 0.105618 0
M  V30 1256 C 117.477 4.42723 -1.13337 0
M  V30 1257 C 118.474 4.77715 -2.05145 0
M  V30 1258 C 116.159 4.83478 -1.36213 0
M  V30 1259 C 118.153 5.52317 -3.18158 0
M  V30 1260 C 115.84 5.57835 -2.49527 0
M  V30 1261 C 116.838 5.92171 -3.40327 0
M  V30 1262 O 116.526 6.65019 -4.51669 0
M  V30 1263 H 116.258 0.672782 -0.0658842 0
M  V30 1264 H 118.812 1.87664 -0.834945 0
M  V30 1265 H 117.042 3.76394 0.886796 0
M  V30 1266 H 118.731 4.02076 0.555886 0
M  V30 1267 H 119.497 4.46787 -1.88697 0
M  V30 1268 H 115.376 4.56188 -0.664362 0
M  V30 1269 H 118.92 5.79036 -3.89054 0
M  V30 1270 H 114.817 5.88177 -2.65928 0
M  V30 1271 H 115.585 6.83469 -4.50348 0
M  V30 1272 N 118.248 0.346503 1.53744 0
M  V30 1273 C 119.198 -0.524953 2.21874 0
M  V30 1274 C 120.182 -1.06376 1.20718 0
M  V30 1275 O 121.374 -0.996972 1.46251 0
M  V30 1276 C 118.503 -1.6739 2.99726 0
M  V30 1277 C 117.589 -1.14888 4.08242 0
M  V30 1278 N 117.98 -0.345329 5.0462 0
M  V30 1279 C 116.278 -1.4255 4.22606 0
M  V30 1280 C 116.979 -0.0600706 5.81669 0
M  V30 1281 N 115.955 -0.65252 5.39669 0
M  V30 1282 H 119.757 0.0960091 2.93743 0
M  V30 1283 H 117.271 0.15352 1.61673 0
M  V30 1284 H 119.268 -2.3102 3.47038 0
M  V30 1285 H 117.928 -2.29811 2.29384 0
M  V30 1286 H 118.939 0.0138439 5.17898 0
M  V30 1287 H 115.616 -2.05389 3.63486 0
M  V30 1288 H 117.006 0.588321 6.69319 0
M  V30 1289 N 119.726 -1.57421 0.075193 0
M  V30 1290 C 120.972 -1.93905 -0.594025 0
M  V30 1291 C 121.305 -0.955701 -1.69056 0
M  V30 1292 O 120.58 0.0145373 -1.94495 0
M  V30 1293 C 120.863 -3.40638 -1.1678 0
M  V30 1294 C 120.716 -4.49733 -0.0776792 0
M  V30 1295 C 122.035 -3.88259 -2.07228 0
M  V30 1296 H 119.154 -0.705105 -0.214466 0
M  V30 1297 H 121.796 -1.8947 0.141854 0
M  V30 1298 H 119.946 -3.44549 -1.79494 0
M  V30 1299 H 121.618 -4.57942 0.555573 0
M  V30 1300 H 119.861 -4.29751 0.591286 0
M  V30 1301 H 120.532 -5.49549 -0.519603 0
M  V30 1302 H 123.008 -3.86376 -1.54445 0
M  V30 1303 H 121.884 -4.91533 -2.44308 0
M  V30 1304 H 122.145 -3.26396 -2.98191 0
M  V30 1305 N 121.204 0.198386 -1.56346 0
M  V30 1306 C 122.134 1.24865 -1.9731 0
M  V30 1307 C 123.115 1.47651 -0.844576 0
M  V30 1308 O 124.3 1.59444 -1.10866 0
M  V30 1309 C 121.43 2.59358 -2.30977 0
M  V30 1310 C 120.384 2.5119 -3.46537 0
M  V30 1311 C 119.71 3.89926 -3.65871 0
M  V30 1312 C 121.01 2.03977 -4.80823 0
M  V30 1313 H 122.704 0.908252 -2.85291 0
M  V30 1314 H 120.25 0.435462 -1.37258 0
M  V30 1315 H 122.203 3.33011 -2.58228 0
M  V30 1316 H 120.927 2.95132 -1.39874 0
M  V30 1317 H 119.586 1.79993 -3.19371 0
M  V30 1318 H 119.234 4.23046 -2.72105 0
M  V30 1319 H 118.934 3.85336 -4.4361 0
M  V30 1320 H 120.458 4.65205 -3.95495 0
M  V30 1321 H 121.872 2.67386 -5.07127 0
M  V30 1322 H 120.269 2.10397 -5.62008 0
M  V30 1323 H 121.339 0.992861 -4.74626 0
M  V30 1324 N 122.682 1.50554 0.465978 0
M  V30 1325 C 124.098 1.38093 0.800154 0
M  V30 1326 C 124.298 0.440988 1.96615 0
M  V30 1327 O 123.354 -0.114499 2.5224 0
M  V30 1328 C 124.667 2.79565 1.10742 0
M  V30 1329 C 126.215 2.88516 1.21357 0
M  V30 1330 C 126.69 4.30833 1.55393 0
M  V30 1331 N 128.181 4.33807 1.62375 0
M  V30 1332 C 128.916 5.40927 1.90225 0
M  V30 1333 N 128.412 6.58247 2.16062 0
M  V30 1334 N 130.205 5.28376 1.9177 0
M  V30 1335 H 122.356 2.10237 -0.302366 0
M  V30 1336 H 124.619 0.945203 -0.0727746 0
M  V30 1337 H 124.325 3.50208 0.323661 0
M  V30 1338 H 124.199 3.17125 2.04234 0
M  V30 1339 H 126.586 2.1809 1.98799 0
M  V30 1340 H 126.667 2.54492 0.258321 0
M  V30 1341 H 126.311 5.01799 0.784889 0
M  V30 1342 H 126.241 4.62347 2.52076 0
M  V30 1343 H 128.732 3.49212 1.44427 0
M  V30 1344 H 129.045 7.3569 2.36601 0
M  V30 1345 H 127.39 6.61413 2.13444 0
M  V30 1346 H 130.581 4.35715 1.71085 0
M  V30 1347 H 130.754 6.11944 2.13139 0
M  V30 1348 N 124.16 -0.719506 1.40217 0
M  V30 1349 C 125.407 -1.47933 1.38283 0
M  V30 1350 C 125.735 -1.94493 -0.0161536 0
M  V30 1351 O 124.99 -1.68224 -0.999956 0
M  V30 1352 C 125.289 -2.72271 2.31524 0
M  V30 1353 C 124.955 -2.44496 3.78857 0
M  V30 1354 C 123.617 -2.36631 4.18998 0
M  V30 1355 C 125.969 -2.21104 4.71977 0
M  V30 1356 C 123.297 -2.03437 5.503 0
M  V30 1357 C 125.649 -1.89423 6.03574 0
M  V30 1358 C 124.313 -1.80038 6.42762 0
M  V30 1359 H 123.583 -0.541325 0.506012 0
M  V30 1360 H 126.23 -0.824502 1.72842 0
M  V30 1361 H 124.535 -3.42572 1.90137 0
M  V30 1362 H 126.232 -3.30348 2.27313 0
M  V30 1363 H 122.822 -2.51503 3.47051 0
M  V30 1364 H 127.006 -2.26139 4.41786 0
M  V30 1365 H 122.262 -1.94705 5.79569 0
M  V30 1366 H 126.436 -1.70336 6.75247 0
M  V30 1367 H 124.063 -1.54083 7.44421 0
M  V30 1368 N 125.638 -1.25649 -0.95132 0
M  V30 1369 C 126.568 -1.08808 -2.06599 0
M  V30 1370 C 127.549 0.00382547 -1.701 0
M  V30 1371 O 128.734 -0.166325 -1.93486 0
M  V30 1372 C 125.864 -0.709542 -3.39975 0
M  V30 1373 C 124.818 -1.75206 -3.90496 0
M  V30 1374 C 124.144 -1.22811 -5.20405 0
M  V30 1375 C 125.444 -3.15153 -4.16504 0
M  V30 1376 H 127.138 -2.02048 -2.20946 0
M  V30 1377 H 124.684 -0.972835 -1.06169 0
M  V30 1378 H 126.637 -0.578649 -4.17408 0
M  V30 1379 H 125.361 0.258556 -3.25575 0
M  V30 1380 H 124.02 -1.87145 -3.15234 0
M  V30 1381 H 123.668 -0.250145 -5.02378 0
M  V30 1382 H 123.368 -1.92492 -5.55176 0
M  V30 1383 H 124.892 -1.10968 -6.00432 0
M  V30 1384 H 126.306 -3.06349 -4.84586 0
M  V30 1385 H 124.703 -3.82333 -4.62538 0
M  V30 1386 H 125.773 -3.61966 -3.22658 0
M  V30 1387 N 127.117 1.15442 -1.07289 0
M  V30 1388 C 128.394 1.82306 -0.708792 0
M  V30 1389 C 128.774 1.94991 0.808807 0
M  V30 1390 O 128.122 1.50085 1.72298 0
M  V30 1391 C 128.332 3.18695 -1.42247 0
M  V30 1392 C 129.68 3.94341 -1.57417 0
M  V30 1393 O 130.704 3.28247 -1.38319 0
M  V30 1394 O 129.563 5.12839 -1.88834 0
M  V30 1395 H 126.657 0.787628 -0.252132 0
M  V30 1396 H 129.203 1.22559 -1.17377 0
M  V30 1397 H 127.975 3.04557 -2.45684 0
M  V30 1398 H 127.598 3.86128 -0.948223 0
M  V30 1399 N 128.595 0.856903 1.32268 0
M  V30 1400 C 129.542 0.301172 2.28827 0
M  V30 1401 C 130.512 -0.593104 1.5515 0
M  V30 1402 O 131.697 -0.527537 1.83362 0
M  V30 1403 C 128.837 -0.502523 3.41422 0
M  V30 1404 C 127.95 0.417797 4.29975 0
M  V30 1405 C 127.085 -0.398749 5.29701 0
M  V30 1406 C 126.124 0.518827 6.09897 0
M  V30 1407 N 125.261 -0.260674 7.01616 0
M  V30 1408 H 130.101 1.12983 2.75751 0
M  V30 1409 H 127.638 0.568582 1.35667 0
M  V30 1410 H 129.596 -0.984141 4.05426 0
M  V30 1411 H 128.226 -1.29599 2.95642 0
M  V30 1412 H 127.278 1.01781 3.66531 0
M  V30 1413 H 128.59 1.12191 4.86019 0
M  V30 1414 H 127.744 -0.943435 5.9932 0
M  V30 1415 H 126.483 -1.13622 4.7428 0
M  V30 1416 H 125.488 1.07538 5.39181 0
M  V30 1417 H 126.713 1.25495 6.67404 0
M  V30 1418 H 124.659 -0.981198 6.4862 0
M  V30 1419 H 124.576 0.384364 7.55022 0
M  V30 1420 H 125.844 -0.787014 7.75517 0
M  V30 1421 N 130.073 -1.45103 0.615059 0
M  V30 1422 C 131.321 -2.01784 0.112955 0
M  V30 1423 C 131.642 -1.48504 -1.26378 0
M  V30 1424 O 130.912 -0.682245 -1.83636 0
M  V30 1425 H 129.492 -0.745993 0.0387668 0
M  V30 1426 H 132.154 -1.77808 0.798141 0
M  V30 1427 H 131.25 -3.12025 0.0684069 0
M  V30 1428 N 131.551 -0.354651 -1.53558 0
M  V30 1429 C 132.461 0.50515 -2.29097 0
M  V30 1430 C 133.477 1.10223 -1.34636 0
M  V30 1431 O 134.653 1.11553 -1.67684 0
M  V30 1432 C 131.718 1.63479 -3.05738 0
M  V30 1433 C 130.779 1.06636 -4.15845 0
M  V30 1434 C 130.012 2.14217 -4.88822 0
M  V30 1435 O 130.235 3.35137 -4.61562 0
M  V30 1436 O 129.169 1.77887 -5.75013 0
M  V30 1437 H 132.995 -0.109237 -3.03503 0
M  V30 1438 H 130.58 -0.119357 -1.48922 0
M  V30 1439 H 132.462 2.2918 -3.5363 0
M  V30 1440 H 131.137 2.23478 -2.34178 0
M  V30 1441 H 130.044 0.373565 -3.7223 0
M  V30 1442 H 131.377 0.511081 -4.89539 0
M  V30 1443 N 133.029 1.57378 -0.0835403 0
M  V30 1444 C 134.445 1.57246 0.273109 0
M  V30 1445 C 134.645 1.09385 1.69225 0
M  V30 1446 O 133.701 0.765051 2.40631 0
M  V30 1447 C 135.014 3.00614 0.0720628 0
M  V30 1448 C 136.562 3.12684 0.1407 0
M  V30 1449 C 137.037 4.57989 -0.0322094 0
M  V30 1450 N 138.528 4.63194 0.0230085 0
M  V30 1451 C 139.263 5.73335 -0.0861941 0
M  V30 1452 N 138.759 6.9235 -0.24958 0
M  V30 1453 N 140.552 5.62093 -0.0282886 0
M  V30 1454 H 132.703 1.86801 -1.0109 0
M  V30 1455 H 134.966 0.861687 -0.395222 0
M  V30 1456 H 134.672 3.39786 -0.907662 0
M  V30 1457 H 134.546 3.68193 0.81936 0
M  V30 1458 H 136.933 2.73391 1.11092 0
M  V30 1459 H 137.014 2.47719 -0.637896 0
M  V30 1460 H 136.658 4.97973 -0.999247 0
M  V30 1461 H 136.588 5.21 0.765937 0
M  V30 1462 H 139.079 3.77613 0.14722 0
M  V30 1463 H 139.392 7.72117 -0.324733 0
M  V30 1464 H 137.737 6.94415 -0.285097 0
M  V30 1465 H 140.928 4.67997 0.0981408 0
M  V30 1466 H 141.101 6.47895 -0.116845 0
M  V30 1467 N 134.507 -0.190092 1.56449 0
M  V30 1468 C 135.457 -1.23977 1.91347 0
M  V30 1469 C 136.441 -1.40747 0.779693 0
M  V30 1470 O 137.633 -1.43033 1.04262 0
M  V30 1471 C 134.762 -2.58347 2.26079 0
M  V30 1472 C 133.848 -2.4535 3.45925 0
M  V30 1473 N 134.239 -2.02039 4.63696 0
M  V30 1474 C 132.537 -2.76229 3.50162 0
M  V30 1475 C 133.238 -2.01053 5.4585 0
M  V30 1476 N 132.214 -2.42747 4.8639 0
M  V30 1477 H 136.016 -0.896318 2.79899 0
M  V30 1478 H 133.53 -0.398496 1.57435 0
M  V30 1479 H 135.527 -3.34173 2.49267 0
M  V30 1480 H 134.187 -2.93512 1.38856 0
M  V30 1481 H 135.198 -1.7267 4.88268 0
M  V30 1482 H 131.875 -3.15556 2.73369 0
M  V30 1483 H 133.265 -1.69426 6.50188 0
M  V30 1484 N 135.985 -1.50799 -0.457987 0
M  V30 1485 C 137.396 -1.55152 -1.0385 0
M  V30 1486 C 137.747 -0.362719 -1.92818 0
M  V30 1487 O 136.872 0.522915 -2.09987 0
M  V30 1488 C 137.467 -2.81173 -1.89017 0
M  V30 1489 C 136.026 -2.88164 -2.42154 0
M  V30 1490 C 135.173 -2.49591 -1.20829 0
M  V30 1491 H 138.124 -1.56874 -0.240068 0
M  V30 1492 H 138.145 -2.63769 -2.74238 0
M  V30 1493 H 137.657 -3.67677 -1.24238 0
M  V30 1494 H 135.758 -2.06042 -3.10447 0
M  V30 1495 H 135.871 -3.91356 -2.76364 0
M  V30 1496 H 134.235 -2.02322 -1.54719 0
M  V30 1497 H 135.018 -3.38418 -0.576927 0
M  V30 1498 N 137.463 0.71206 -1.40597 0
M  V30 1499 C 138.709 1.47416 -1.39271 0
M  V30 1500 C 139.042 1.942 0.00388791 0
M  V30 1501 O 138.317 1.68403 0.973179 0
M  V30 1502 C 138.6 2.69774 -2.38525 0
M  V30 1503 C 138.453 2.28861 -3.87224 0
M  V30 1504 C 139.772 3.71939 -2.35264 0
M  V30 1505 H 136.891 0.534713 -0.5072 0
M  V30 1506 H 139.533 0.812375 -1.71757 0
M  V30 1507 H 137.683 3.26238 -2.10953 0
M  V30 1508 H 139.355 1.77852 -4.25636 0
M  V30 1509 H 137.598 1.60824 -4.02887 0
M  V30 1510 H 138.269 3.16584 -4.52193 0
M  V30 1511 H 140.745 3.25113 -2.59694 0
M  V30 1512 H 139.621 4.55186 -3.06753 0
M  V30 1513 H 139.882 4.20484 -1.36549 0
M  V30 1514 N 138.941 1.26152 0.944643 0
M  V30 1515 C 140.357 1.03189 1.21754 0
M  V30 1516 C 140.557 -0.245112 2.00004 0
M  V30 1517 O 139.613 -0.955176 2.33736 0
M  V30 1518 C 140.926 2.26119 1.98219 0
M  V30 1519 C 142.474 2.30984 2.11224 0
M  V30 1520 C 142.949 3.53597 2.91089 0
M  V30 1521 N 144.44 3.54053 2.98664 0
M  V30 1522 C 145.175 4.45593 3.60881 0
M  V30 1523 N 144.671 5.47416 4.24626 0
M  V30 1524 N 146.464 4.33252 3.58119 0
M  V30 1525 H 138.615 2.08177 0.421437 0
M  V30 1526 H 140.878 0.914723 0.248969 0
M  V30 1527 H 140.584 3.18984 1.48128 0
M  V30 1528 H 140.458 2.3009 2.98895 0
M  V30 1529 H 142.845 1.38635 2.60508 0
M  V30 1530 H 142.926 2.31026 1.09821 0
M  V30 1531 H 142.57 4.46273 2.42493 0
M  V30 1532 H 142.5 3.50802 3.92741 0
M  V30 1533 H 144.991 2.80403 2.53343 0
M  V30 1534 H 145.304 6.13459 4.69987 0
M  V30 1535 H 143.649 5.51278 4.23223 0
M  V30 1536 H 146.84 3.52924 3.0751 0
M  V30 1537 H 147.013 5.04786 4.06319 0
M  V30 1538 N 140.419 -1.14872 1.07899 0
M  V30 1539 C 141.329 -2.2341 0.715915 0
M  V30 1540 C 142.345 -1.71808 -0.275306 0
M  V30 1541 O 143.521 -2.01039 -0.120545 0
M  V30 1542 C 140.586 -3.46474 0.125168 0
M  V30 1543 C 139.647 -4.13039 1.17034 0
M  V30 1544 C 138.88 -5.30229 0.607688 0
M  V30 1545 O 139.103 -5.675 -0.574497 0
M  V30 1546 O 138.037 -5.86444 1.35526 0
M  V30 1547 H 141.863 -2.56808 1.62121 0
M  V30 1548 H 139.448 -1.22702 0.852322 0
M  V30 1549 H 141.33 -4.20917 -0.201729 0
M  V30 1550 H 140.005 -3.14811 -0.753364 0
M  V30 1551 H 138.912 -3.40493 1.54968 0
M  V30 1552 H 140.245 -4.48796 2.02097 0
M  V30 1553 N 141.898 -0.863906 -1.31812 0
M  V30 1554 C 142.861 -0.320212 -2.26952 0
M  V30 1555 C 143.861 0.525369 -1.51975 0
M  V30 1556 O 145.051 0.335547 -1.70938 0
M  V30 1557 C 142.183 0.545919 -3.365 0
M  V30 1558 H 143.376 -1.16004 -2.76556 0
M  V30 1559 H 140.929 -0.638995 -1.42641 0
M  V30 1560 H 141.664 1.40718 -2.92179 0
M  V30 1561 H 141.449 -0.0594674 -3.92055 0
M  V30 1562 H 142.939 0.918796 -4.07367 0
M  V30 1563 N 143.376 1.44774 -0.622745 0
M  V30 1564 C 144.792 1.56986 -0.287652 0
M  V30 1565 C 144.992 1.61167 1.20944 0
M  V30 1566 O 144.048 1.55015 1.99315 0
M  V30 1567 C 145.361 2.84551 -0.972188 0
M  V30 1568 C 146.909 2.9825 -0.949536 0
M  V30 1569 C 147.384 4.28605 -1.61437 0
M  V30 1570 N 148.875 4.35399 -1.58057 0
M  V30 1571 C 149.61 5.34964 -2.064 0
M  V30 1572 N 149.106 6.40981 -2.62897 0
M  V30 1573 N 150.899 5.26419 -1.97078 0
M  V30 1574 H 143.05 1.40304 -1.59463 0
M  V30 1575 H 145.313 0.671794 -0.668878 0
M  V30 1576 H 145.019 2.87417 -2.02693 0
M  V30 1577 H 144.893 3.73807 -0.504771 0
M  V30 1578 H 147.28 2.94941 0.0967067 0
M  V30 1579 H 147.361 2.10364 -1.45536 0
M  V30 1580 H 147.005 4.32672 -2.66002 0
M  V30 1581 H 146.935 5.15334 -1.08344 0
M  V30 1582 H 149.426 3.59397 -1.16801 0
M  V30 1583 H 149.739 7.13225 -2.97539 0
M  V30 1584 H 148.084 6.4169 -2.66943 0
M  V30 1585 H 151.275 4.42504 -1.52669 0
M  V30 1586 H 151.448 6.03861 -2.35066 0
M  V30 1587 N 144.854 0.36279 1.53368 0
M  V30 1588 C 145.817 -0.472679 2.24273 0
M  V30 1589 C 146.817 -1.012 1.24961 0
M  V30 1590 O 148.007 -0.898194 1.49259 0
M  V30 1591 C 145.139 -1.66039 2.97731 0
M  V30 1592 H 146.332 0.14773 2.99536 0
M  V30 1593 H 143.885 0.114434 1.55881 0
M  V30 1594 H 144.62 -2.31896 2.26704 0
M  V30 1595 H 144.405 -1.28066 3.70596 0
M  V30 1596 H 145.895 -2.25252 3.51641 0
M  V30 1597 N 146.332 -1.57332 0.0918853 0
M  V30 1598 C 147.578 -1.94524 -0.573425 0
M  V30 1599 C 147.911 -0.973578 -1.68033 0
M  V30 1600 O 147.186 -0.00609226 -1.94499 0
M  V30 1601 C 147.469 -3.41858 -1.13161 0
M  V30 1602 C 147.322 -4.4979 -0.0299747 0
M  V30 1603 C 148.641 -3.90435 -2.03098 0
M  V30 1604 H 145.76 -0.70734 -0.206975 0
M  V30 1605 H 148.402 -1.89309 0.161942 0
M  V30 1606 H 146.552 -3.46433 -1.7583 0
M  V30 1607 H 148.224 -4.57327 0.604112 0
M  V30 1608 H 146.467 -4.291 0.636833 0
M  V30 1609 H 147.138 -5.50069 -0.461287 0
M  V30 1610 H 149.614 -3.87992 -1.50338 0
M  V30 1611 H 148.49 -4.94097 -2.39081 0
M  V30 1612 H 148.751 -3.29541 -2.94712 0
M  V30 1613 N 147.81 0.181792 -1.56548 0
M  V30 1614 C 149.059 0.898348 -1.8059 0
M  V30 1615 C 149.372 1.83862 -0.667379 0
M  V30 1616 O 150.578 2.59678 -0.792446 0
M  V30 1617 C 149.034 1.64791 -3.19956 0
M  V30 1618 C 148.642 0.751789 -4.41647 0
M  V30 1619 C 150.386 2.35331 -3.53298 0
M  V30 1620 C 148.293 1.50098 -5.72035 0
M  V30 1621 H 147.223 0.339194 -0.673397 0
M  V30 1622 H 149.874 0.151413 -1.82874 0
M  V30 1623 H 148.256 2.43921 -3.11959 0
M  V30 1624 H 149.43 -0.0018076 -4.608 0
M  V30 1625 H 147.745 0.156562 -4.16106 0
M  V30 1626 H 150.342 2.91958 -4.47956 0
M  V30 1627 H 150.685 3.10164 -2.77676 0
M  V30 1628 H 151.218 1.63154 -3.62803 0
M  V30 1629 H 147.957 0.795175 -6.50659 0
M  V30 1630 H 147.477 2.22817 -5.56878 0
M  V30 1631 H 149.156 2.05125 -6.13622 0
M  V30 1632 N 149.288 1.51039 0.449983 0
M  V30 1633 C 150.535 1.63081 1.20045 0
M  V30 1634 C 150.863 0.341024 1.91487 0
M  V30 1635 O 150.118 -0.674276 1.83717 0
M  V30 1636 C 150.417 2.77556 2.25161 0
M  V30 1637 C 150.083 4.17289 1.70823 0
M  V30 1638 C 148.745 4.55305 1.55725 0
M  V30 1639 C 151.097 5.04536 1.3074 0
M  V30 1640 C 148.425 5.78287 0.989999 0
M  V30 1641 C 150.777 6.28085 0.754482 0
M  V30 1642 C 149.441 6.64885 0.590308 0
M  V30 1643 H 148.711 0.596755 0.439277 0
M  V30 1644 H 151.358 1.85037 0.49333 0
M  V30 1645 H 149.663 2.49771 3.01863 0
M  V30 1646 H 151.36 2.84073 2.83026 0
M  V30 1647 H 147.95 3.8731 1.83546 0
M  V30 1648 H 152.134 4.75782 1.41229 0
M  V30 1649 H 147.39 6.05456 0.850451 0
M  V30 1650 H 151.564 6.95038 0.435324 0
M  V30 1651 H 149.191 7.60055 0.14862 0
M  V30 1652 N 150.766 -0.704594 1.40972 0
M  V30 1653 C 152.013 -1.46458 1.39844 0
M  V30 1654 C 152.341 -1.94499 0.00447594 0
M  V30 1655 O 151.596 -1.69275 -0.982057 0
M  V30 1656 C 151.895 -2.698 2.34399 0
M  V30 1657 C 151.561 -2.40464 3.81429 0
M  V30 1658 C 150.223 -2.32174 4.21484 0
M  V30 1659 C 152.575 -2.16086 4.74296 0
M  V30 1660 C 149.903 -1.97589 5.52427 0
M  V30 1661 C 152.255 -1.83011 6.05549 0
M  V30 1662 C 150.919 -1.7321 6.44635 0
M  V30 1663 H 150.189 -0.535927 0.511725 0
M  V30 1664 H 152.836 -0.806124 1.73706 0
M  V30 1665 H 151.141 -3.40536 1.93759 0
M  V30 1666 H 152.838 -3.27919 2.30804 0
M  V30 1667 H 149.428 -2.47808 3.49699 0
M  V30 1668 H 153.612 -2.2144 4.4416 0
M  V30 1669 H 148.868 -1.88547 5.81601 0
M  V30 1670 H 153.042 -1.63164 6.77016 0
M  V30 1671 H 150.669 -1.46179 7.46013 0
M  V30 1672 N 152.244 -1.26651 -0.937939 0
M  V30 1673 C 153.492 -1.12165 -1.68118 0
M  V30 1674 C 153.813 0.334983 -1.92101 0
M  V30 1675 O 153.083 1.23583 -1.52 0
M  V30 1676 H 151.663 -0.412093 -0.623048 0
M  V30 1677 H 154.325 -1.59027 -1.12678 0
M  V30 1678 H 153.421 -1.64289 -2.6536 0
M  V30 1679 N 153.722 1.14298 -1.08507 0
M  V30 1680 C 154.999 1.81544 -0.728088 0
M  V30 1681 C 155.379 1.95838 0.78808 0
M  V30 1682 O 154.727 1.51904 1.70697 0
M  V30 1683 C 154.937 3.17169 -1.45619 0
M  V30 1684 C 156.285 3.9265 -1.61591 0
M  V30 1685 O 157.309 3.26762 -1.41793 0
M  V30 1686 O 156.168 5.10807 -1.94263 0
M  V30 1687 H 153.262 0.78491 -0.260471 0
M  V30 1688 H 155.808 1.21307 -1.18671 0
M  V30 1689 H 154.58 3.01934 -2.489 0
M  V30 1690 H 154.203 3.851 -0.989124 0
M  V30 1691 N 155.201 0.870884 1.31352 0
M  V30 1692 C 156.133 0.28455 2.27427 0
M  V30 1693 C 157.146 -0.552927 1.53123 0
M  V30 1694 O 158.335 -0.374771 1.74521 0
M  V30 1695 C 155.435 -0.615164 3.3327 0
M  V30 1696 C 154.608 0.190079 4.36987 0
M  V30 1697 C 153.667 -0.637917 5.22319 0
M  V30 1698 O 152.693 -0.065626 5.69162 0
M  V30 1699 N 153.895 -1.94973 5.46778 0
M  V30 1700 H 156.66 1.11017 2.7838 0
M  V30 1701 H 154.221 0.732458 1.44384 0
M  V30 1702 H 156.213 -1.1748 3.87273 0
M  V30 1703 H 154.783 -1.34146 2.82354 0
M  V30 1704 H 154.003 0.931165 3.83044 0
M  V30 1705 H 155.291 0.742579 5.03352 0
M  V30 1706 H 154.689 -2.4378 5.10478 0
M  V30 1707 H 153.246 -2.45713 6.03712 0
M  V30 1708 N 156.679 -1.44442 0.630414 0
M  V30 1709 C 157.589 -2.34476 -0.0761693 0
M  V30 1710 C 158.605 -1.52576 -0.836449 0
M  V30 1711 O 159.781 -1.85307 -0.788874 0
M  V30 1712 C 156.846 -3.30545 -1.04599 0
M  V30 1713 C 155.907 -4.28352 -0.28516 0
M  V30 1714 C 155.14 -5.19831 -1.20878 0
M  V30 1715 O 155.363 -5.15223 -2.44747 0
M  V30 1716 O 154.297 -5.97892 -0.693491 0
M  V30 1717 H 158.123 -2.96345 0.664324 0
M  V30 1718 H 155.708 -1.44203 0.39061 0
M  V30 1719 H 157.59 -3.89681 -1.60396 0
M  V30 1720 H 156.265 -2.7121 -1.76711 0
M  V30 1721 H 155.172 -3.72764 0.315837 0
M  V30 1722 H 156.505 -4.90605 0.395924 0
M  V30 1723 N 158.157 -0.370918 -1.53173 0
M  V30 1724 C 159.107 0.489588 -2.22681 0
M  V30 1725 C 160.091 1.04442 -1.22395 0
M  V30 1726 O 161.283 0.973578 -1.47819 0
M  V30 1727 C 158.412 1.626 -3.02351 0
M  V30 1728 C 157.498 1.08379 -4.10018 0
M  V30 1729 N 157.889 0.265004 -5.05105 0
M  V30 1730 C 156.187 1.35809 -4.2482 0
M  V30 1731 C 156.888 -0.0324755 -5.81691 0
M  V30 1732 N 155.864 0.566581 -5.40639 0
M  V30 1733 H 159.666 -0.142729 -2.93553 0
M  V30 1734 H 157.18 -0.179221 -1.61408 0
M  V30 1735 H 159.177 2.2547 -3.50669 0
M  V30 1736 H 157.837 2.26132 -2.33011 0
M  V30 1737 H 158.848 -0.0962352 -5.17811 0
M  V30 1738 H 155.525 1.9958 -3.66707 0
M  V30 1739 H 156.915 -0.69473 -6.68299 0
M  V30 1740 N 159.635 1.57281 -0.100228 0
M  V30 1741 C 161.046 1.81725 0.428107 0
M  V30 1742 C 161.397 1.01619 1.67833 0
M  V30 1743 O 160.522 0.247098 2.14985 0
M  V30 1744 C 161.117 3.29617 0.78347 0
M  V30 1745 C 159.676 3.54808 1.25653 0
M  V30 1746 C 158.823 2.76118 0.255752 0
M  V30 1747 H 161.774 1.55324 -0.325608 0
M  V30 1748 H 161.795 3.4322 1.64256 0
M  V30 1749 H 161.307 3.87893 -0.12665 0
M  V30 1750 H 159.408 3.01868 2.18418 0
M  V30 1751 H 159.521 4.63443 1.21482 0
M  V30 1752 H 157.885 2.43745 0.738956 0
M  V30 1753 H 158.668 3.37145 -0.647136 0
M  V30 1754 N 161.113 -0.173488 1.56642 0
M  V30 1755 C 162.061 -1.23417 1.97157 0
M  V30 1756 C 163.055 -1.45946 0.860013 0
M  V30 1757 O 164.261 -1.46551 1.04512 0
M  V30 1758 H 160.636 -0.414818 0.62724 0
M  V30 1759 H 162.607 -0.865582 2.8557 0
M  V30 1760 C 161.356 -2.5665 2.34576 0
M  V30 1761 H 160.679 -2.40137 3.19647 0
M  V30 1762 H 162.119 -3.2956 2.6677 0
M  V30 1763 C 160.578 -3.15245 1.18836 0
M  V30 1764 O 161.108 -3.98883 0.474869 0
M  V30 1765 N 159.314 -2.74303 0.959497 0
M  V30 1766 H 158.861 -2.0639 1.54146 0
M  V30 1767 H 158.819 -3.13844 0.186932 0
M  V30 1768 N 162.591 -1.51276 -0.441967 0
M  V30 1769 C 163.837 -1.63958 -1.19355 0
M  V30 1770 C 164.17 -0.352543 -1.90973 0
M  V30 1771 O 163.445 0.647627 -1.83401 0
M  V30 1772 C 163.728 -2.83979 -2.21422 0
M  V30 1773 C 163.581 -4.22646 -1.53918 0
M  V30 1774 C 164.9 -2.99521 -3.22451 0
M  V30 1775 H 162.019 -0.596709 -0.432559 0
M  V30 1776 H 164.661 -1.83748 -0.483398 0
M  V30 1777 H 162.811 -2.67237 -2.81987 0
M  V30 1778 H 164.483 -4.51045 -0.967256 0
M  V30 1779 H 162.726 -4.25558 -0.841615 0
M  V30 1780 H 163.397 -5.02609 -2.28229 0
M  V30 1781 H 165.873 -3.14944 -2.71937 0
M  V30 1782 H 164.749 -3.85072 -3.91166 0
M  V30 1783 H 165.01 -2.11391 -3.88287 0
M  V30 1784 N 164.069 0.697108 -1.41344 0
M  V30 1785 C 165.297 1.48593 -1.43972 0
M  V30 1786 C 165.712 1.88747 -0.0445612 0
M  V30 1787 O 165.069 1.56682 0.935785 0
M  V30 1788 C 165.12 2.74946 -2.34706 0
M  V30 1789 O 164.841 2.36484 -3.68791 0
M  V30 1790 C 166.342 3.687 -2.46121 0
M  V30 1791 H 163.562 0.457964 -0.490418 0
M  V30 1792 H 166.106 0.858429 -1.8561 0
M  V30 1793 H 164.261 3.33937 -1.9638 0
M  V30 1794 H 164.675 3.17918 -4.17167 0
M  V30 1795 H 166.149 4.54145 -3.13777 0
M  V30 1796 H 166.626 4.13081 -1.49199 0
M  V30 1797 H 167.232 3.15613 -2.85076 0
M  V30 1798 N 165.547 1.27147 0.931209 0
M  V30 1799 C 166.457 1.11372 2.06478 0
M  V30 1800 C 167.473 0.044645 1.73943 0
M  V30 1801 O 168.649 0.250417 1.99837 0
M  V30 1802 C 165.714 0.758838 3.38294 0
M  V30 1803 C 164.775 1.90841 3.84549 0
M  V30 1804 C 164.008 1.57036 5.10074 0
M  V30 1805 O 164.231 0.476645 5.68405 0
M  V30 1806 O 163.165 2.40839 5.51616 0
M  V30 1807 H 166.991 2.06493 2.22698 0
M  V30 1808 H 164.576 1.06301 1.04978 0
M  V30 1809 H 166.458 0.574098 4.17471 0
M  V30 1810 H 165.133 -0.162879 3.2329 0
M  V30 1811 H 164.04 2.14819 3.06274 0
M  V30 1812 H 165.373 2.81021 4.04089 0
M  V30 1813 N 167.025 -1.13721 1.09112 0
M  V30 1814 C 168.272 -1.84924 0.825192 0
M  V30 1815 C 168.6 -1.83347 -0.649151 0
M  V30 1816 O 167.855 -1.26449 -1.49362 0
M  V30 1817 C 168.154 -3.32861 1.30146 0
M  V30 1818 C 167.82 -3.54621 2.78486 0
M  V30 1819 C 166.482 -3.60268 3.18999 0
M  V30 1820 C 168.834 -3.62855 3.74146 0
M  V30 1821 C 166.162 -3.71679 4.53951 0
M  V30 1822 C 168.514 -3.75793 5.08883 0
M  V30 1823 C 167.178 -3.79692 5.4899 0
M  V30 1824 H 166.448 -0.676684 0.301959 0
M  V30 1825 H 169.095 -1.3428 1.36533 0
M  V30 1826 H 167.4 -3.85835 0.681064 0
M  V30 1827 H 169.097 -3.86395 1.07236 0
M  V30 1828 H 165.687 -3.50879 2.46134 0
M  V30 1829 H 169.871 -3.57775 3.43963 0
M  V30 1830 H 165.127 -3.72963 4.84467 0
M  V30 1831 H 169.301 -3.81107 5.82864 0
M  V30 1832 H 166.928 -3.88287 6.53558 0
M  V30 1833 N 168.503 -0.877838 -1.30888 0
M  V30 1834 C 169.466 -0.344265 -2.266 0
M  V30 1835 C 170.466 0.50922 -1.52524 0
M  V30 1836 O 171.656 0.317398 -1.71284 0
M  V30 1837 C 168.788 0.510198 -3.37061 0
M  V30 1838 H 169.981 -1.1893 -2.7531 0
M  V30 1839 H 167.534 -0.654088 -1.41956 0
M  V30 1840 H 168.269 1.37612 -2.93655 0
M  V30 1841 H 168.054 -0.101047 -3.9197 0
M  V30 1842 H 169.544 0.875537 -4.08319 0
M  V30 1843 N 169.982 1.44106 -0.638065 0
M  V30 1844 C 171.228 2.02277 -0.145546 0
M  V30 1845 C 171.561 1.50125 1.23191 0
M  V30 1846 O 170.836 0.688133 1.8192 0
M  V30 1847 C 171.119 3.59829 -0.139791 0
M  V30 1848 C 170.972 4.22247 -1.55008 0
M  V30 1849 C 172.291 4.36873 0.531966 0
M  V30 1850 H 169.41 0.734992 -0.0543632 0
M  V30 1851 H 172.052 1.71592 -0.815863 0
M  V30 1852 H 170.202 3.86102 0.431007 0
M  V30 1853 H 171.874 4.07057 -2.1703 0
M  V30 1854 H 170.117 3.79476 -2.10191 0
M  V30 1855 H 170.788 5.31284 -1.49804 0
M  V30 1856 H 173.264 4.16074 0.0464781 0
M  V30 1857 H 172.14 5.4657 0.505206 0
M  V30 1858 H 172.401 4.11995 1.60352 0
M  V30 1859 N 171.46 0.379036 1.52974 0
M  V30 1860 C 172.708 -0.206014 2.01047 0
M  V30 1861 C 173.029 -1.48175 1.26765 0
M  V30 1862 O 172.299 -1.92085 0.384743 0
M  V30 1863 H 170.879 -0.0791184 0.742798 0
M  V30 1864 H 173.541 0.508366 1.88153 0
M  V30 1865 H 172.637 -0.423501 3.09213 0
M  V30 1866 N 172.938 -1.57226 0.108567 0
M  V30 1867 C 174.349 -1.8195 -0.418464 0
M  V30 1868 C 174.7 -1.02508 -1.67292 0
M  V30 1869 O 173.825 -0.258496 -2.14851 0
M  V30 1870 C 174.42 -3.30028 -0.765979 0
M  V30 1871 C 172.979 -3.55469 -1.23769 0
M  V30 1872 C 172.126 -2.7625 -0.241106 0
M  V30 1873 H 175.077 -1.55149 0.33384 0
M  V30 1874 H 175.098 -3.44086 -1.62434 0
M  V30 1875 H 174.61 -3.87821 0.147219 0
M  V30 1876 H 172.711 -3.03022 -2.16814 0
M  V30 1877 H 172.824 -4.6408 -1.19022 0
M  V30 1878 H 171.188 -2.44133 -0.72602 0
M  V30 1879 H 171.971 -3.36797 0.665007 0
M  V30 1880 N 174.416 0.165178 -1.56732 0
M  V30 1881 C 175.346 1.20651 -1.99914 0
M  V30 1882 C 176.327 1.45827 -0.875705 0
M  V30 1883 O 177.512 1.57057 -1.14223 0
M  V30 1884 C 174.642 2.54401 -2.36427 0
M  V30 1885 C 173.596 2.43782 -3.51787 0
M  V30 1886 C 172.922 3.82078 -3.7406 0
M  V30 1887 C 174.222 1.93732 -4.85041 0
M  V30 1888 H 175.916 0.847534 -2.87154 0
M  V30 1889 H 173.462 0.40625 -1.38151 0
M  V30 1890 H 175.415 3.27458 -2.65234 0
M  V30 1891 H 174.139 2.92098 -1.46103 0
M  V30 1892 H 172.798 1.73178 -3.23117 0
M  V30 1893 H 172.446 4.17179 -2.81017 0
M  V30 1894 H 172.146 3.7584 -4.51684 0
M  V30 1895 H 173.67 4.56712 -4.05274 0
M  V30 1896 H 175.084 2.56569 -5.12684 0
M  V30 1897 H 173.481 1.98428 -5.66345 0
M  V30 1898 H 174.551 0.891962 -4.76626 0
M  V30 1899 N 175.894 1.51508 0.433938 0
M  V30 1900 C 177.305 1.56784 1.01369 0
M  V30 1901 C 177.656 0.393349 1.92217 0
M  V30 1902 O 176.781 -0.489441 2.10792 0
M  V30 1903 C 177.376 2.84144 1.8452 0
M  V30 1904 C 175.935 2.9198 2.37539 0
M  V30 1905 C 175.082 2.51482 1.16843 0
M  V30 1906 H 178.033 1.57236 0.215081 0
M  V30 1907 H 178.054 2.68098 2.70007 0
M  V30 1908 H 177.566 3.69607 1.18373 0
M  V30 1909 H 175.667 2.10955 3.0713 0
M  V30 1910 H 175.78 3.95704 2.70103 0
M  V30 1911 H 174.144 2.04758 1.51481 0
M  V30 1912 H 174.927 3.39293 0.523015 0
M  V30 1913 N 177.372 -0.689602 1.41712 0
M  V30 1914 C 178.62 -1.4468 1.4111 0
M  V30 1915 C 178.941 -1.94986 0.0232196 0
M  V30 1916 O 178.211 -1.72097 -0.935913 0
M  V30 1917 H 176.791 -0.536847 0.519427 0
M  V30 1918 H 179.453 -0.815825 1.77004 0
M  V30 1919 H 178.549 -2.30706 2.10193 0
M  V30 1920 N 178.85 -1.27639 -0.924453 0
M  V30 1921 C 180.261 -1.12834 -1.48746 0
M  V30 1922 C 180.612 0.285505 -1.94112 0
M  V30 1923 O 179.737 1.17874 -1.81479 0
M  V30 1924 C 180.332 -2.04217 -2.70334 0
M  V30 1925 C 178.891 -1.93509 -3.22848 0
M  V30 1926 C 178.038 -1.96583 -1.95577 0
M  V30 1927 H 180.989 -1.40484 -0.738233 0
M  V30 1928 H 181.01 -1.59989 -3.4523 0
M  V30 1929 H 180.522 -3.07111 -2.37285 0
M  V30 1930 H 178.623 -0.936131 -3.60649 0
M  V30 1931 H 178.736 -2.79917 -3.88823 0
M  V30 1932 H 177.1 -1.4085 -2.12211 0
M  V30 1933 H 177.883 -3.01137 -1.64837 0
M  V30 1934 N 180.328 1.1314 -1.09713 0
M  V30 1935 C 181.568 1.8613 -0.844683 0
M  V30 1936 C 181.932 1.81765 0.618491 0
M  V30 1937 O 183.133 2.50024 0.98699 0
M  V30 1938 C 181.404 3.30151 -1.36877 0
M  V30 1939 S 182.963 4.206 -1.25064 0
M  V30 1940 H 179.781 0.642056 -0.305427 0
M  V30 1941 H 182.383 1.36343 -1.4011 0
M  V30 1942 H 181.087 3.30883 -2.42786 0
M  V30 1943 H 180.618 3.85 -0.808614 0
M  V30 1944 H 182.633 4.95783 -0.203486 0
M  V30 1945 N 181.806 0.884767 1.30421 0
M  V30 1946 C 183.036 0.517293 2.00019 0
M  V30 1947 C 183.444 -0.898632 1.66497 0
M  V30 1948 O 182.787 -1.60245 0.898181 0
M  V30 1949 C 182.849 0.612025 3.54252 0
M  V30 1950 C 182.513 1.99222 4.1129 0
M  V30 1951 C 183.51 2.9616 4.273 0
M  V30 1952 C 181.195 2.29755 4.46674 0
M  V30 1953 C 183.189 4.21764 4.77906 0
M  V30 1954 C 180.876 3.55606 4.96979 0
M  V30 1955 C 181.874 4.51425 5.12547 0
M  V30 1956 O 181.562 5.75043 5.61766 0
M  V30 1957 H 181.294 0.198529 0.64619 0
M  V30 1958 H 183.848 1.1919 1.67281 0
M  V30 1959 H 182.078 -0.119561 3.86515 0
M  V30 1960 H 183.767 0.255859 4.05093 0
M  V30 1961 H 184.533 2.73882 4.00267 0
M  V30 1962 H 180.412 1.55942 4.33824 0
M  V30 1963 H 183.956 4.96561 4.89972 0
M  V30 1964 H 179.853 3.7772 5.23448 0
M  V30 1965 H 180.621 5.77422 5.80109 0
M  V30 1966 N 183.284 -1.43765 0.645699 0
M  V30 1967 C 184.217 -2.2798 -0.100072 0
M  V30 1968 C 185.195 -1.39391 -0.837194 0
M  V30 1969 O 186.379 -1.68833 -0.838306 0
M  V30 1970 C 183.506 -3.18643 -1.14823 0
M  V30 1971 C 182.552 -4.2344 -0.510009 0
M  V30 1972 S 183.385 -5.30761 0.710824 0
M  V30 1973 C 184.541 -6.24992 -0.33699 0
M  V30 1974 H 184.774 -2.90884 0.614322 0
M  V30 1975 H 182.307 -1.48166 0.434304 0
M  V30 1976 H 184.265 -3.71424 -1.74799 0
M  V30 1977 H 182.926 -2.54932 -1.8349 0
M  V30 1978 H 182.119 -4.86948 -1.29991 0
M  V30 1979 H 181.721 -3.73997 0.0154577 0
M  V30 1980 H 184.013 -6.66691 -1.20537 0
M  V30 1981 H 184.956 -7.07612 0.262879 0
M  V30 1982 H 185.364 -5.60517 -0.669425 0
M  V30 1983 N 184.763 -0.387143 -1.52771 0
M  V30 1984 C 186.179 -0.037007 -1.59557 0
M  V30 1985 C 186.379 1.44801 -1.40124 0
M  V30 1986 O 185.435 2.21227 -1.21716 0
M  V30 1987 C 186.748 -0.512256 -2.96305 0
M  V30 1988 C 188.296 -0.468328 -3.09476 0
M  V30 1989 C 188.771 -0.919731 -4.4867 0
M  V30 1990 N 190.262 -0.875656 -4.54848 0
M  V30 1991 C 190.997 -1.19637 -5.6078 0
M  V30 1992 N 190.493 -1.58745 -6.74368 0
M  V30 1993 N 192.286 -1.11776 -5.50874 0
M  V30 1994 H 184.437 -1.35395 -1.63652 0
M  V30 1995 H 186.7 -0.554818 -0.768688 0
M  V30 1996 H 186.406 -1.54935 -3.15734 0
M  V30 1997 H 186.28 0.089805 -3.77093 0
M  V30 1998 H 188.667 0.559671 -2.89744 0
M  V30 1999 H 188.748 -1.10616 -2.30646 0
M  V30 2000 H 188.392 -1.94595 -4.69143 0
M  V30 2001 H 188.322 -0.258927 -5.25963 0
M  V30 2002 H 190.813 -0.587843 -3.733 0
M  V30 2003 H 191.126 -1.81586 -7.51163 0
M  V30 2004 H 189.471 -1.6263 -6.75705 0
M  V30 2005 H 192.662 -0.811264 -4.61016 0
M  V30 2006 H 192.835 -1.37103 -6.3333 0
M  V30 2007 N 186.241 1.57166 -0.116904 0
M  V30 2008 C 187.204 2.14039 0.819742 0
M  V30 2009 C 188.204 1.07477 1.19605 0
M  V30 2010 O 189.394 1.33263 1.1219 0
M  V30 2011 C 186.526 2.67891 2.10826 0
M  V30 2012 H 187.719 2.98128 0.325511 0
M  V30 2013 H 185.272 1.55739 0.132312 0
M  V30 2014 H 186.007 1.87384 2.64685 0
M  V30 2015 H 185.792 3.45823 1.84793 0
M  V30 2016 H 187.282 3.11809 2.77785 0
M  V30 2017 N 187.719 -0.156864 1.56817 0
M  V30 2018 C 188.649 -1.19589 2.00551 0
M  V30 2019 C 189.63 -1.4536 0.883426 0
M  V30 2020 O 190.815 -1.56449 1.15054 0
M  V30 2021 C 187.945 -2.53143 2.37773 0
M  V30 2022 C 186.899 -2.41913 3.53075 0
M  V30 2023 C 186.225 -3.80088 3.76081 0
M  V30 2024 C 187.525 -1.91157 4.86062 0
M  V30 2025 H 189.219 -0.832293 2.87599 0
M  V30 2026 H 186.765 -0.398918 1.38364 0
M  V30 2027 H 188.718 -3.26047 2.66967 0
M  V30 2028 H 187.442 -2.91319 1.4765 0
M  V30 2029 H 186.101 -1.71462 3.24031 0
M  V30 2030 H 185.749 -4.15683 2.83225 0
M  V30 2031 H 185.449 -3.73439 4.53671 0
M  V30 2032 H 186.973 -4.54556 4.0769 0
M  V30 2033 H 188.387 -2.53846 5.14038 0
M  V30 2034 H 186.784 -1.95422 5.67389 0
M  V30 2035 H 187.854 -0.866673 4.77092 0
M  V30 2036 N 189.197 -1.51736 -0.425897 0
M  V30 2037 C 190.422 -1.69082 -1.20108 0
M  V30 2038 C 190.847 -0.392398 -1.83962 0
M  V30 2039 O 190.205 0.64858 -1.69302 0
M  V30 2040 C 190.253 -2.81604 -2.25237 0
M  V30 2041 O 189.357 -2.46004 -3.30992 0
M  V30 2042 H 188.698 -0.563408 -0.35138 0
M  V30 2043 H 191.228 -1.98358 -0.501512 0
M  V30 2044 H 191.238 -3.06025 -2.69838 0
M  V30 2045 H 189.913 -3.75817 -1.78142 0
M  V30 2046 H 188.49 -2.32195 -2.91787 0
M  V30 2047 N 190.675 0.682077 -1.42076 0
M  V30 2048 C 192.086 1.26246 -1.37546 0
M  V30 2049 C 192.437 1.96092 -0.0651481 0
M  V30 2050 O 191.562 1.99587 0.836297 0
M  V30 2051 C 192.157 2.29594 -2.49143 0
M  V30 2052 C 190.716 2.83175 -2.47969 0
M  V30 2053 C 189.863 1.57395 -2.28303 0
M  V30 2054 H 192.814 0.475937 -1.51395 0
M  V30 2055 H 192.835 3.11175 -2.18976 0
M  V30 2056 H 192.347 1.78729 -3.44496 0
M  V30 2057 H 190.448 3.3818 -1.56413 0
M  V30 2058 H 190.561 3.32687 -3.44755 0
M  V30 2059 H 188.925 1.83699 -1.76428 0
M  V30 2060 H 189.708 1.08507 -3.25701 0
M  V30 2061 N 192.153 1.28127 0.917671 0
M  V30 2062 C 193.569 1.05749 1.19538 0
M  V30 2063 C 193.769 -0.202633 2.00479 0
M  V30 2064 O 192.825 -0.905382 2.3571 0
M  V30 2065 C 194.138 2.30273 1.93378 0
M  V30 2066 C 195.686 2.35412 2.06277 0
M  V30 2067 C 196.161 3.59692 2.83524 0
M  V30 2068 N 197.652 3.60309 2.91087 0
M  V30 2069 C 198.387 4.53147 3.51348 0
M  V30 2070 N 197.883 5.563 4.12919 0
M  V30 2071 N 199.676 4.40751 3.48849 0
M  V30 2072 H 191.827 2.09024 0.377184 0
M  V30 2073 H 194.09 0.919798 0.22951 0
M  V30 2074 H 193.796 3.22055 1.41328 0
M  V30 2075 H 193.67 2.36378 2.93947 0
M  V30 2076 H 196.057 1.4413 2.57508 0
M  V30 2077 H 196.138 2.33304 1.04895 0
M  V30 2078 H 195.782 4.51316 2.32973 0
M  V30 2079 H 195.712 3.59054 3.85211 0
M  V30 2080 H 198.203 2.85714 2.47338 0
M  V30 2081 H 198.516 6.2329 4.56869 0
M  V30 2082 H 196.861 5.60131 4.11435 0
M  V30 2083 H 200.052 3.59367 2.99955 0
M  V30 2084 H 200.225 5.13291 3.9552 0
M  V30 2085 N 193.631 -1.12557 1.10312 0
M  V30 2086 C 195.042 -1.65574 0.862678 0
M  V30 2087 C 195.393 -1.86566 -0.607256 0
M  V30 2088 O 194.518 -1.59121 -1.46662 0
M  V30 2089 C 195.113 -3.00776 1.55947 0
M  V30 2090 C 193.672 -3.50748 1.36576 0
M  V30 2091 C 192.819 -2.25797 1.60968 0
M  V30 2092 H 195.77 -0.963552 1.26101 0
M  V30 2093 H 195.791 -3.67185 0.997753 0
M  V30 2094 H 195.303 -2.85465 2.62928 0
M  V30 2095 H 193.404 -3.71245 0.317531 0
M  V30 2096 H 193.517 -4.30289 2.10686 0
M  V30 2097 H 191.881 -2.32841 1.03234 0
M  V30 2098 H 192.664 -2.13043 2.69198 0
M  V30 2099 N 195.109 -0.891671 -1.2995 0
M  V30 2100 C 196.357 -0.512486 -1.95494 0
M  V30 2101 C 196.678 0.942776 -1.70695 0
M  V30 2102 O 195.948 1.66374 -1.03424 0
M  V30 2103 H 194.528 -0.186533 -0.723336 0
M  V30 2104 H 197.19 -1.13621 -1.58355 0
M  V30 2105 H 196.286 -0.688342 -3.04415 0
M  V30 2106 N 196.587 1.43421 -0.653314 0
M  V30 2107 C 197.817 2.05864 -0.174238 0
M  V30 2108 C 198.225 1.49052 1.16534 0
M  V30 2109 O 197.568 0.616481 1.73047 0
M  V30 2110 C 197.63 3.59499 -0.00875873 0
M  V30 2111 C 197.294 4.38893 -1.27364 0
M  V30 2112 C 198.291 4.70947 -2.20239 0
M  V30 2113 C 195.976 4.789 -1.51525 0
M  V30 2114 C 197.97 5.41916 -3.35568 0
M  V30 2115 C 195.657 5.49614 -2.67147 0
M  V30 2116 C 196.655 5.81044 -3.58994 0
M  V30 2117 O 196.343 6.50313 -4.72597 0
M  V30 2118 H 196.075 0.670345 -0.0872549 0
M  V30 2119 H 198.629 1.84913 -0.894226 0
M  V30 2120 H 196.859 3.79025 0.7666 0
M  V30 2121 H 198.548 4.0364 0.427687 0
M  V30 2122 H 199.314 4.40558 -2.02815 0
M  V30 2123 H 195.193 4.53843 -0.809158 0
M  V30 2124 H 198.737 5.66365 -4.07279 0
M  V30 2125 H 194.634 5.79419 -2.84505 0
M  V30 2126 H 195.402 6.68795 -4.71864 0
M  V30 2127 N 198.065 0.39524 1.52563 0
M  V30 2128 C 198.997 -0.472201 2.24283 0
M  V30 2129 C 200.01 -1.02178 1.26742 0
M  V30 2130 O 201.199 -0.923097 1.52778 0
M  V30 2131 C 198.299 -1.66775 2.95024 0
M  V30 2132 C 197.472 -1.2445 4.19322 0
M  V30 2133 C 196.531 -2.30539 4.7301 0
M  V30 2134 O 195.557 -1.91702 5.35947 0
M  V30 2135 N 196.759 -3.6253 4.53379 0
M  V30 2136 H 199.524 0.142282 2.99362 0
M  V30 2137 H 197.085 0.2219 1.60372 0
M  V30 2138 H 199.077 -2.37283 3.27839 0
M  V30 2139 H 197.647 -2.18845 2.23217 0
M  V30 2140 H 196.867 -0.368069 3.92478 0
M  V30 2141 H 198.155 -0.938457 5.0007 0
M  V30 2142 H 197.553 -3.96841 4.03154 0
M  V30 2143 H 196.11 -4.29055 4.90668 0
M  V30 2144 N 199.544 -1.57102 0.125237 0
M  V30 2145 C 200.769 -2.0019 -0.542101 0
M  V30 2146 C 201.194 -1.00449 -1.59034 0
M  V30 2147 O 200.552 0.0229423 -1.81285 0
M  V30 2148 C 200.6 -3.42129 -1.13929 0
M  V30 2149 O 199.704 -3.45307 -2.2547 0
M  V30 2150 H 199.045 -0.650171 -0.134812 0
M  V30 2151 H 201.575 -2.03461 0.215553 0
M  V30 2152 H 201.585 -3.80471 -1.4733 0
M  V30 2153 H 200.26 -4.14237 -0.371531 0
M  V30 2154 H 198.837 -3.1879 -1.93462 0
M  V30 2155 N 201.022 0.148545 -1.56898 0
M  V30 2156 C 202.247 0.880385 -1.87787 0
M  V30 2157 C 202.672 1.74018 -0.714093 0
M  V30 2158 O 202.03 1.78153 0.336343 0
M  V30 2159 C 202.078 1.71422 -3.17249 0
M  V30 2160 O 201.182 2.8183 -3.01074 0
M  V30 2161 H 200.523 0.245301 -0.617028 0
M  V30 2162 H 203.053 0.139826 -2.04122 0
M  V30 2163 H 203.063 2.10954 -3.49231 0
M  V30 2164 H 201.738 1.08284 -4.01556 0
M  V30 2165 H 200.315 2.45715 -2.80497 0
M  V30 2166 N 202.5 1.5196 0.417844 0
M  V30 2167 C 203.746 1.66793 1.16411 0
M  V30 2168 C 204.101 0.388758 1.88432 0
M  V30 2169 O 203.394 -0.616409 1.81414 0
M  V30 2170 C 203.588 2.82269 2.19223 0
M  V30 2171 C 203.417 4.21293 1.57297 0
M  V30 2172 C 202.187 4.86948 1.34944 0
M  V30 2173 C 204.385 5.03704 1.03858 0
M  V30 2174 N 202.367 6.1003 0.688195 0
M  V30 2175 C 203.738 6.1795 0.503742 0
M  V30 2176 C 205.793 4.89095 0.932203 0
M  V30 2177 C 204.496 7.19188 -0.127034 0
M  V30 2178 C 206.522 5.90559 0.315293 0
M  V30 2179 C 205.884 7.0409 -0.208906 0
M  V30 2180 H 201.983 0.66407 0.412959 0
M  V30 2181 H 204.567 1.89242 0.457772 0
M  V30 2182 H 202.738 2.61451 2.87225 0
M  V30 2183 H 204.47 2.86183 2.86149 0
M  V30 2184 H 201.225 4.45156 1.61657 0
M  V30 2185 H 201.649 6.75964 0.374449 0
M  V30 2186 H 206.291 4.01557 1.32332 0
M  V30 2187 H 204.009 8.06359 -0.530231 0
M  V30 2188 H 207.595 5.81327 0.234625 0
M  V30 2189 H 206.475 7.81257 -0.67875 0
M  V30 2190 N 203.978 -0.674533 1.42435 0
M  V30 2191 C 204.941 -1.76986 1.45632 0
M  V30 2192 C 205.941 -1.5708 0.343871 0
M  V30 2193 O 207.131 -1.63367 0.604709 0
M  V30 2194 C 204.263 -3.15623 1.28822 0
M  V30 2195 H 205.456 -1.75539 2.43158 0
M  V30 2196 H 203.009 -0.884189 1.28887 0
M  V30 2197 H 203.744 -3.22696 0.322193 0
M  V30 2198 H 203.529 -3.31475 2.09444 0
M  V30 2199 H 205.019 -3.95537 1.33942 0
M  V30 2200 N 205.456 -1.28612 -0.910864 0
M  V30 2201 C 206.681 -1.1891 -1.69927 0
M  V30 2202 C 207.106 0.248372 -1.86453 0
M  V30 2203 O 206.464 1.17961 -1.37676 0
M  V30 2204 C 206.512 -1.89578 -3.06745 0
M  V30 2205 O 205.616 -1.20521 -3.94396 0
M  V30 2206 H 204.957 -0.412632 -0.520222 0
M  V30 2207 H 207.487 -1.69985 -1.1387 0
M  V30 2208 H 207.497 -1.97597 -3.56958 0
M  V30 2209 H 206.172 -2.94136 -2.94035 0
M  V30 2210 H 204.749 -1.20684 -3.52831 0
M  V30 2211 N 206.934 1.1197 -1.10907 0
M  V30 2212 C 208.35 1.35591 -0.841852 0
M  V30 2213 C 208.55 1.94233 0.536246 0
M  V30 2214 O 207.606 2.1717 1.28816 0
M  V30 2215 C 208.919 2.29284 -1.94549 0
M  V30 2216 C 210.467 2.42862 -1.97451 0
M  V30 2217 C 210.942 3.39873 -3.07002 0
M  V30 2218 N 212.433 3.47433 -3.06341 0
M  V30 2219 C 213.168 4.22421 -3.87748 0
M  V30 2220 N 212.664 5.00432 -4.79103 0
M  V30 2221 N 214.457 4.17876 -3.75946 0
M  V30 2222 H 206.608 0.722664 -1.99728 0
M  V30 2223 H 208.871 0.380635 -0.868229 0
M  V30 2224 H 208.577 1.93378 -2.93765 0
M  V30 2225 H 208.451 3.29452 -1.83688 0
M  V30 2226 H 210.838 2.78046 -0.988645 0
M  V30 2227 H 210.919 1.42566 -2.12388 0
M  V30 2228 H 210.563 3.05417 -4.05811 0
M  V30 2229 H 210.493 4.40011 -2.89306 0
M  V30 2230 H 212.984 2.91784 -2.40147 0
M  V30 2231 H 213.297 5.55002 -5.37766 0
M  V30 2232 H 211.642 4.99612 -4.83128 0
M  V30 2233 H 214.833 3.56016 -3.03924 0
M  V30 2234 H 215.006 4.76061 -4.39624 0
M  V30 2235 N 208.412 0.89855 1.29475 0
M  V30 2236 C 209.823 0.572537 1.77705 0
M  V30 2237 C 210.174 -0.911778 1.73727 0
M  V30 2238 O 209.299 -1.71288 1.32247 0
M  V30 2239 C 209.894 1.03252 3.22683 0
M  V30 2240 C 208.453 0.757687 3.68695 0
M  V30 2241 C 207.6 1.20787 2.49612 0
M  V30 2242 H 210.551 1.08139 1.16153 0
M  V30 2243 H 210.572 0.367307 3.78723 0
M  V30 2244 H 210.084 2.11285 3.25546 0
M  V30 2245 H 208.185 -0.310079 3.71308 0
M  V30 2246 H 208.298 1.35476 4.59547 0
M  V30 2247 H 206.662 0.626888 2.46865 0
M  V30 2248 H 207.445 2.29622 2.55203 0
M  V30 2249 N 209.89 -1.43072 0.660911 0
M  V30 2250 C 211.139 -2.00942 0.174735 0
M  V30 2251 C 211.452 -1.52797 -1.22117 0
M  V30 2252 O 212.658 -2.02991 -1.80297 0
M  V30 2253 C 211.114 -3.58948 0.261559 0
M  V30 2254 C 210.722 -4.16085 1.66064 0
M  V30 2255 C 212.466 -4.24173 -0.166617 0
M  V30 2256 C 210.373 -5.6641 1.70098 0
M  V30 2257 H 209.303 -0.751483 0.0615631 0
M  V30 2258 H 211.954 -1.63955 0.824069 0
M  V30 2259 H 210.336 -3.93372 -0.455421 0
M  V30 2260 H 211.51 -3.93147 2.40359 0
M  V30 2261 H 209.825 -3.6326 2.03546 0
M  V30 2262 H 212.422 -5.34471 -0.156433 0
M  V30 2263 H 212.765 -3.98647 -1.19943 0
M  V30 2264 H 213.298 -3.94659 0.498875 0
M  V30 2265 H 210.037 -5.96715 2.71315 0
M  V30 2266 H 209.557 -5.91382 1.00139 0
M  V30 2267 H 211.236 -6.30585 1.44816 0
M  V30 2268 N 211.368 -0.403325 -1.52352 0
M  V30 2269 C 212.593 0.176499 -2.06648 0
M  V30 2270 C 213.018 1.38577 -1.27193 0
M  V30 2271 O 212.376 1.7879 -0.300637 0
M  V30 2272 C 212.424 0.511061 -3.5696 0
M  V30 2273 O 211.528 1.60294 -3.79973 0
M  V30 2274 H 210.869 0.0167337 -0.663789 0
M  V30 2275 H 213.399 -0.574848 -1.96359 0
M  V30 2276 H 213.409 0.771362 -4.00642 0
M  V30 2277 H 212.084 -0.37296 -4.14224 0
M  V30 2278 H 210.661 1.33526 -3.48174 0
M  V30 2279 N 212.846 1.57033 -0.133567 0
M  V30 2280 C 214.074 2.00044 0.528195 0
M  V30 2281 C 214.489 1.01349 1.59291 0
M  V30 2282 O 213.846 0.00848369 1.82498 0
M  V30 2283 C 213.897 3.43018 1.1411 0
M  V30 2284 O 213.618 4.37939 0.11892 0
M  V30 2285 C 215.119 4.01237 1.88477 0
M  V30 2286 H 212.339 0.656517 0.138661 0
M  V30 2287 H 214.883 2.03267 -0.224196 0
M  V30 2288 H 213.038 3.40688 1.84418 0
M  V30 2289 H 213.452 5.21436 0.56613 0
M  V30 2290 H 214.926 5.03314 2.26669 0
M  V30 2291 H 215.403 3.41193 2.76558 0
M  V30 2292 H 216.009 4.07156 1.22898 0
M  V30 2293 N 214.325 -0.140222 1.56975 0
M  V30 2294 C 215.288 -1.15689 1.97861 0
M  V30 2295 C 216.288 -1.3549 0.865974 0
M  V30 2296 O 217.478 -1.32367 1.13246 0
M  V30 2297 C 214.61 -2.51582 2.30042 0
M  V30 2298 H 215.803 -0.805971 2.88867 0
M  V30 2299 H 213.356 -0.383801 1.51515 0
M  V30 2300 H 214.091 -2.91632 1.41849 0
M  V30 2301 H 213.876 -2.38569 3.11171 0
M  V30 2302 H 215.366 -3.24792 2.62488 0
M  V30 2303 N 215.803 -1.52179 -0.40978 0
M  V30 2304 C 216.713 -1.78364 -1.52392 0
M  V30 2305 C 217.729 -0.669183 -1.60617 0
M  V30 2306 O 218.905 -0.954518 -1.77344 0
M  V30 2307 C 215.97 -1.92822 -2.88133 0
M  V30 2308 C 215.031 -3.16725 -2.898 0
M  V30 2309 C 214.264 -3.30483 -4.19067 0
M  V30 2310 O 214.487 -2.49522 -5.12928 0
M  V30 2311 O 213.421 -4.2363 -4.27576 0
M  V30 2312 H 217.247 -2.72931 -1.33201 0
M  V30 2313 H 214.832 -1.37016 -0.59557 0
M  V30 2314 H 216.714 -2.04157 -3.68643 0
M  V30 2315 H 215.389 -1.01444 -3.07393 0
M  V30 2316 H 214.296 -3.10848 -2.08146 0
M  V30 2317 H 215.629 -4.07881 -2.75489 0
M  V30 2318 N 217.281 0.66697 -1.42791 0
M  V30 2319 C 218.511 1.45294 -1.46878 0
M  V30 2320 C 218.919 1.89027 -0.0809861 0
M  V30 2321 O 218.262 1.59219 0.916246 0
M  V30 2322 C 218.324 2.72908 -2.34012 0
M  V30 2323 C 217.988 2.51203 -3.81767 0
M  V30 2324 C 218.985 2.15302 -4.73224 0
M  V30 2325 C 216.67 2.65954 -4.26115 0
M  V30 2326 C 218.664 1.94431 -6.07022 0
M  V30 2327 C 216.351 2.44699 -5.59969 0
M  V30 2328 C 217.349 2.08992 -6.5024 0
M  V30 2329 O 217.037 1.87948 -7.81621 0
M  V30 2330 H 216.769 0.453306 -0.501487 0
M  V30 2331 H 219.323 0.826232 -1.88049 0
M  V30 2332 H 217.553 3.38089 -1.87703 0
M  V30 2333 H 219.242 3.34816 -2.29462 0
M  V30 2334 H 220.008 2.03495 -4.40244 0
M  V30 2335 H 215.887 2.92724 -3.56137 0
M  V30 2336 H 219.431 1.66484 -6.77443 0
M  V30 2337 H 215.328 2.56105 -5.9252 0
M  V30 2338 H 216.096 2.02483 -7.93059 0
M  V30 2339 N 218.759 1.29093 0.90403 0
M  V30 2340 C 219.722 1.1386 1.98919 0
M  V30 2341 C 220.722 0.0753457 1.60623 0
M  V30 2342 O 221.912 0.321931 1.71199 0
M  V30 2343 C 219.044 0.740198 3.32767 0
M  V30 2344 H 220.237 2.10246 2.13861 0
M  V30 2345 H 217.79 1.12218 1.08797 0
M  V30 2346 H 218.525 -0.223997 3.23525 0
M  V30 2347 H 218.31 1.50838 3.61926 0
M  V30 2348 H 219.8 0.656546 4.12407 0
M  V30 2349 N 220.237 -1.11381 1.11499 0
M  V30 2350 C 221.167 -2.19509 0.796125 0
M  V30 2351 C 222.148 -1.68458 -0.235796 0
M  V30 2352 O 223.333 -1.93947 -0.0991344 0
M  V30 2353 C 220.463 -3.46475 0.239205 0
M  V30 2354 C 219.417 -4.10744 1.20307 0
M  V30 2355 C 218.743 -5.32293 0.50683 0
M  V30 2356 C 220.043 -4.55597 2.55399 0
M  V30 2357 H 221.737 -2.46439 1.70024 0
M  V30 2358 H 219.283 -1.18446 0.818935 0
M  V30 2359 H 221.236 -4.214 0.00392006 0
M  V30 2360 H 219.96 -3.19006 -0.700206 0
M  V30 2361 H 218.619 -3.37813 1.42399 0
M  V30 2362 H 218.267 -5.01095 -0.437408 0
M  V30 2363 H 217.967 -5.76243 1.1497 0
M  V30 2364 H 219.491 -6.09956 0.280351 0
M  V30 2365 H 220.905 -5.21841 2.37391 0
M  V30 2366 H 219.302 -5.10363 3.15673 0
M  V30 2367 H 220.372 -3.69013 3.14575 0
M  V30 2368 N 221.715 -0.905404 -1.28997 0
M  V30 2369 C 222.645 -0.404212 -2.29975 0
M  V30 2370 C 223.626 0.523784 -1.61835 0
M  V30 2371 O 224.811 0.433298 -1.89304 0
M  V30 2372 C 221.941 0.364042 -3.45387 0
M  V30 2373 C 220.895 -0.474048 -4.25367 0
M  V30 2374 C 220.221 0.422045 -5.33032 0
M  V30 2375 C 221.521 -1.72696 -4.92923 0
M  V30 2376 H 223.215 -1.24807 -2.72146 0
M  V30 2377 H 220.761 -0.601585 -1.30832 0
M  V30 2378 H 222.714 0.725447 -4.15109 0
M  V30 2379 H 221.438 1.24174 -3.02074 0
M  V30 2380 H 220.097 -0.81786 -3.57361 0
M  V30 2381 H 219.745 1.29804 -4.85963 0
M  V30 2382 H 219.445 -0.135057 -5.87445 0
M  V30 2383 H 220.969 0.779517 -6.05604 0
M  V30 2384 H 222.383 -1.43495 -5.55051 0
M  V30 2385 H 220.78 -2.22582 -5.57295 0
M  V30 2386 H 221.85 -2.45964 -4.17887 0
M  V30 2387 N 223.193 1.4272 -0.668489 0
M  V30 2388 C 224.423 2.05668 -0.196063 0
M  V30 2389 C 224.831 1.5028 1.14946 0
M  V30 2390 O 224.174 0.6348 1.72383 0
M  V30 2391 C 224.236 3.59469 -0.0468879 0
M  V30 2392 C 223.9 4.37518 -1.32012 0
M  V30 2393 C 224.897 4.68584 -2.25222 0
M  V30 2394 C 222.582 4.77266 -1.56596 0
M  V30 2395 C 224.576 5.38326 -3.41297 0
M  V30 2396 C 222.263 5.4675 -2.72962 0
M  V30 2397 C 223.261 5.77204 -3.65137 0
M  V30 2398 O 222.949 6.45264 -4.79468 0
M  V30 2399 H 222.681 0.669382 -0.0943599 0
M  V30 2400 H 225.235 1.83954 -0.913788 0
M  V30 2401 H 223.465 3.79817 0.726357 0
M  V30 2402 H 225.154 4.04071 0.384852 0
M  V30 2403 H 225.92 4.38382 -2.07477 0
M  V30 2404 H 221.799 4.52959 -0.857249 0
M  V30 2405 H 225.343 5.62014 -4.13263 0
M  V30 2406 H 221.24 5.76369 -2.90635 0
M  V30 2407 H 222.008 6.63753 -4.78931 0
M  V30 2408 N 224.671 0.411399 1.52136 0
M  V30 2409 C 225.621 -0.430376 2.23901 0
M  V30 2410 C 226.605 -1.0116 1.25121 0
M  V30 2411 O 227.797 -0.934044 1.50348 0
M  V30 2412 C 224.926 -1.54527 3.06556 0
M  V30 2413 C 224.012 -0.9747 4.12747 0
M  V30 2414 N 224.403 -0.130991 5.0563 0
M  V30 2415 C 222.701 -1.24497 4.28271 0
M  V30 2416 C 223.402 0.186689 5.814 0
M  V30 2417 N 222.378 -0.42304 5.41951 0
M  V30 2418 H 226.18 0.220509 2.93072 0
M  V30 2419 H 223.694 0.221952 1.60876 0
M  V30 2420 H 225.691 -2.16093 3.56524 0
M  V30 2421 H 224.351 -2.19875 2.38925 0
M  V30 2422 H 225.362 0.23349 5.17373 0
M  V30 2423 H 222.039 -1.89787 3.7187 0
M  V30 2424 H 223.429 0.871673 6.66222 0
M  V30 2425 N 226.149 -1.5696 0.141893 0
M  V30 2426 C 227.377 -2.00322 -0.517579 0
M  V30 2427 C 227.792 -1.02193 -1.58752 0
M  V30 2428 O 227.149 -0.0181619 -1.82491 0
M  V30 2429 C 227.2 -3.43618 -1.12289 0
M  V30 2430 O 226.921 -4.37995 -0.0956929 0
M  V30 2431 C 228.422 -4.02231 -1.86347 0
M  V30 2432 H 225.642 -0.657243 -0.135177 0
M  V30 2433 H 228.186 -2.03146 0.234973 0
M  V30 2434 H 226.341 -3.41662 -1.82609 0
M  V30 2435 H 226.755 -5.21729 -0.538469 0
M  V30 2436 H 228.229 -5.04509 -2.23997 0
M  V30 2437 H 228.706 -3.42655 -2.74744 0
M  V30 2438 H 229.312 -4.07802 -1.20737 0
M  V30 2439 N 227.627 0.131896 -1.57047 0
M  V30 2440 C 228.557 1.16384 -2.02428 0
M  V30 2441 C 229.538 1.43936 -0.90644 0
M  V30 2442 O 230.723 1.54599 -1.17528 0
M  V30 2443 C 227.853 2.49328 -2.4177 0
M  V30 2444 C 226.807 2.36266 -3.56879 0
M  V30 2445 C 226.133 3.74057 -3.8208 0
M  V30 2446 C 227.433 1.834 -4.89042 0
M  V30 2447 H 229.127 0.786433 -2.88887 0
M  V30 2448 H 226.673 0.376855 -1.38981 0
M  V30 2449 H 228.626 3.21759 -2.7212 0
M  V30 2450 H 227.35 2.88934 -1.52266 0
M  V30 2451 H 226.009 1.66286 -3.26718 0
M  V30 2452 H 225.657 4.11125 -2.89803 0
M  V30 2453 H 225.357 3.66174 -4.59554 0
M  V30 2454 H 226.881 4.48012 -4.1487 0
M  V30 2455 H 228.295 2.45636 -5.18011 0
M  V30 2456 H 226.692 1.8637 -5.70426 0
M  V30 2457 H 227.762 0.790662 -4.7841 0
M  V30 2458 N 229.106 1.52395 0.401703 0
M  V30 2459 C 230.038 1.72505 1.50912 0
M  V30 2460 C 231.051 0.605468 1.51122 0
M  V30 2461 O 232.24 0.880828 1.55254 0
M  V30 2462 C 229.34 1.75711 2.89791 0
M  V30 2463 C 228.513 3.04824 3.1369 0
M  V30 2464 C 227.572 2.99743 4.32482 0
M  V30 2465 O 226.598 3.73635 4.29402 0
M  V30 2466 N 227.8 2.18047 5.37992 0
M  V30 2467 H 230.565 2.68049 1.34052 0
M  V30 2468 H 228.126 1.50724 0.591084 0
M  V30 2469 H 230.118 1.69834 3.6734 0
M  V30 2470 H 228.688 0.876092 3.00072 0
M  V30 2471 H 227.908 3.2429 2.24119 0
M  V30 2472 H 229.196 3.90221 3.26504 0
M  V30 2473 H 228.594 1.57456 5.43345 0
M  V30 2474 H 227.151 2.18021 6.14256 0
M  V30 2475 N 230.584 -0.659388 1.43143 0
M  V30 2476 C 231.494 -1.80167 1.50256 0
M  V30 2477 C 232.51 -1.69571 0.390106 0
M  V30 2478 O 233.686 -1.90849 0.643319 0
M  V30 2479 C 230.751 -3.16409 1.41725 0
M  V30 2480 C 229.812 -3.38848 2.63591 0
M  V30 2481 C 229.045 -4.68591 2.55458 0
M  V30 2482 O 229.268 -5.47532 1.59891 0
M  V30 2483 O 228.202 -4.92614 3.45854 0
M  V30 2484 H 232.028 -1.77121 2.46702 0
M  V30 2485 H 229.613 -0.817092 1.25076 0
M  V30 2486 H 231.495 -3.9768 1.39387 0
M  V30 2487 H 230.17 -3.20059 0.484118 0
M  V30 2488 H 229.077 -2.57366 2.71502 0
M  V30 2489 H 230.41 -3.4004 3.55856 0
M  V30 2490 N 232.062 -1.29571 -0.897171 0
M  V30 2491 C 233.025 -1.14913 -1.98312 0
M  V30 2492 C 234.025 -0.0838629 -1.60581 0
M  V30 2493 O 235.215 -0.331006 -1.71026 0
M  V30 2494 C 232.347 -0.757835 -3.3237 0
M  V30 2495 H 233.54 -2.11377 -2.12743 0
M  V30 2496 H 231.093 -1.12793 -1.08201 0
M  V30 2497 H 231.828 0.206837 -3.2364 0
M  V30 2498 H 231.613 -1.52755 -3.61121 0
M  V30 2499 H 233.103 -0.678408 -4.12053 0
M  V30 2500 N 233.54 1.10788 -1.12088 0
M  V30 2501 C 234.768 1.86461 -0.896651 0
M  V30 2502 C 235.183 1.80492 0.553912 0
M  V30 2503 O 234.54 1.19102 1.38278 0
M  V30 2504 C 234.591 3.35006 -1.35843 0
M  V30 2505 O 234.312 3.40866 -2.75213 0
M  V30 2506 C 235.813 4.27565 -1.1706 0
M  V30 2507 H 233.033 0.589425 -0.320654 0
M  V30 2508 H 235.577 1.40076 -1.48993 0
M  V30 2509 H 233.732 3.7887 -0.808458 0
M  V30 2510 H 234.146 4.33411 -2.9539 0
M  V30 2511 H 235.62 5.30007 -1.54263 0
M  V30 2512 H 236.097 4.3906 -0.110814 0
M  V30 2513 H 236.703 3.89501 -1.70789 0
M  V30 2514 N 235.018 0.912232 1.28515 0
M  V30 2515 C 235.965 0.397954 2.27343 0
M  V30 2516 C 236.935 -0.526766 1.57526 0
M  V30 2517 O 238.12 -0.449292 1.85435 0
M  V30 2518 C 235.26 -0.357263 3.43246 0
M  V30 2519 C 234.373 0.599788 4.27816 0
M  V30 2520 C 233.508 -0.173725 5.30916 0
M  V30 2521 C 232.547 0.777039 6.07148 0
M  V30 2522 N 231.684 0.0371398 7.0209 0
M  V30 2523 H 236.524 1.24577 2.70711 0
M  V30 2524 H 234.061 0.625612 1.33133 0
M  V30 2525 H 236.019 -0.8113 4.09236 0
M  V30 2526 H 234.649 -1.16943 3.00872 0
M  V30 2527 H 233.701 1.17235 3.61884 0
M  V30 2528 H 235.013 1.32704 4.80823 0
M  V30 2529 H 234.167 -0.688394 6.02782 0
M  V30 2530 H 232.906 -0.934041 4.78672 0
M  V30 2531 H 231.911 1.3031 5.34134 0
M  V30 2532 H 233.136 1.53689 6.61481 0
M  V30 2533 H 231.082 -0.705213 6.52198 0
M  V30 2534 H 230.999 0.704249 7.52713 0
M  V30 2535 H 232.267 -0.457383 7.78157 0
M  V30 2536 N 236.496 -1.42363 0.676048 0
M  V30 2537 C 237.907 -1.84649 0.275948 0
M  V30 2538 C 238.258 -1.56588 -1.18214 0
M  V30 2539 O 237.383 -1.02634 -1.90513 0
M  V30 2540 C 237.978 -3.35178 0.494053 0
M  V30 2541 C 236.537 -3.76109 0.148061 0
M  V30 2542 C 235.684 -2.65931 0.785891 0
M  V30 2543 H 238.635 -1.32192 0.878121 0
M  V30 2544 H 238.656 -3.79655 -0.25343 0
M  V30 2545 H 238.168 -3.55571 1.55535 0
M  V30 2546 H 236.269 -3.61323 -0.909742 0
M  V30 2547 H 236.382 -4.7546 0.589454 0
M  V30 2548 H 234.746 -2.53773 0.217113 0
M  V30 2549 H 235.529 -2.89146 1.85067 0
M  V30 2550 N 237.974 -0.419461 -1.51915 0
M  V30 2551 C 238.904 0.391813 -2.30189 0
M  V30 2552 C 239.885 1.03699 -1.34836 0
M  V30 2553 O 241.07 1.04403 -1.63748 0
M  V30 2554 C 238.2 1.50312 -3.13087 0
M  V30 2555 C 237.154 0.9824 -4.16573 0
M  V30 2556 C 236.48 2.18809 -4.8788 0
M  V30 2557 C 237.78 0.0292356 -5.22292 0
M  V30 2558 H 239.474 -0.26135 -2.98257 0
M  V30 2559 H 237.02 -0.127134 -1.43438 0
M  V30 2560 H 238.973 2.07773 -3.66617 0
M  V30 2561 H 237.697 2.18431 -2.42807 0
M  V30 2562 H 236.356 0.430119 -3.64068 0
M  V30 2563 H 236.004 2.85507 -4.14119 0
M  V30 2564 H 235.704 1.84615 -5.57845 0
M  V30 2565 H 237.228 2.76858 -5.44226 0
M  V30 2566 H 238.642 0.512976 -5.71 0
M  V30 2567 H 237.039 -0.2244 -5.9968 0
M  V30 2568 H 238.109 -0.912931 -4.76228 0
M  V30 2569 N 239.452 1.56882 -0.150215 0
M  V30 2570 C 240.402 2.13501 0.800071 0
M  V30 2571 C 241.386 1.06368 1.20726 0
M  V30 2572 O 242.578 1.32538 1.17314 0
M  V30 2573 C 239.707 2.76271 2.03787 0
M  V30 2574 C 238.793 3.90533 1.65364 0
M  V30 2575 N 239.184 4.96259 0.977794 0
M  V30 2576 C 237.482 4.013 1.94613 0
M  V30 2577 C 238.183 5.76286 0.791794 0
M  V30 2578 N 237.159 5.27163 1.32666 0
M  V30 2579 H 240.961 2.92615 0.274517 0
M  V30 2580 H 238.475 1.62319 0.0512144 0
M  V30 2581 H 240.472 3.15197 2.72867 0
M  V30 2582 H 239.132 1.98631 2.56857 0
M  V30 2583 H 240.143 5.13953 0.638193 0
M  V30 2584 H 236.82 3.3474 2.4951 0
M  V30 2585 H 238.21 6.71401 0.258894 0
M  V30 2586 N 240.93 -0.123565 1.57115 0
M  V30 2587 C 241.862 -1.17739 1.96648 0
M  V30 2588 C 242.875 -1.37906 0.865201 0
M  V30 2589 O 244.064 -1.37062 1.14351 0
M  V30 2590 C 241.164 -2.53821 2.24562 0
M  V30 2591 C 240.337 -2.54317 3.55867 0
M  V30 2592 C 239.396 -3.72112 3.72047 0
M  V30 2593 O 238.422 -3.55907 4.44206 0
M  V30 2594 N 239.624 -4.90498 3.10471 0
M  V30 2595 H 242.389 -0.841147 2.87654 0
M  V30 2596 H 239.95 -0.31289 1.58848 0
M  V30 2597 H 241.942 -3.31175 2.32606 0
M  V30 2598 H 240.512 -2.79645 1.39705 0
M  V30 2599 H 239.732 -1.62711 3.59053 0
M  V30 2600 H 241.02 -2.51701 4.42181 0
M  V30 2601 H 240.418 -5.06567 2.51806 0
M  V30 2602 H 238.975 -5.65544 3.24043 0
M  V30 2603 N 242.408 -1.52605 -0.393616 0
M  V30 2604 C 243.655 -1.67424 -1.1391 0
M  V30 2605 C 243.983 -0.411859 -1.90089 0
M  V30 2606 O 243.238 0.605626 -1.86093 0
M  V30 2607 C 243.537 -2.85721 -2.14705 0
M  V30 2608 C 243.203 -4.23342 -1.55218 0
M  V30 2609 C 241.865 -4.60771 -1.3872 0
M  V30 2610 C 244.217 -5.09041 -1.11924 0
M  V30 2611 C 241.545 -5.81563 -0.774689 0
M  V30 2612 C 243.897 -6.30452 -0.520853 0
M  V30 2613 C 242.561 -6.66617 -0.343134 0
M  V30 2614 H 241.831 -0.612648 -0.416826 0
M  V30 2615 H 244.478 -1.8674 -0.424315 0
M  V30 2616 H 242.783 -2.60803 -2.92385 0
M  V30 2617 H 244.48 -2.94382 -2.72288 0
M  V30 2618 H 241.07 -3.93855 -1.69045 0
M  V30 2619 H 245.254 -4.80695 -1.23473 0
M  V30 2620 H 240.51 -6.08196 -0.625154 0
M  V30 2621 H 244.684 -6.96175 -0.177065 0
M  V30 2622 H 242.311 -7.60083 0.133571 0
M  V30 2623 N 243.887 0.651787 -1.4349 0
M  V30 2624 C 245.134 1.41167 -1.45183 0
M  V30 2625 C 245.462 1.94349 -0.0766601 0
M  V30 2626 O 244.717 1.72804 0.918555 0
M  V30 2627 C 245.016 2.60914 -2.44251 0
M  V30 2628 C 244.682 2.26142 -3.9009 0
M  V30 2629 C 243.344 2.16371 -4.2981 0
M  V30 2630 C 245.696 1.98334 -4.81989 0
M  V30 2631 C 243.024 1.7695 -5.5938 0
M  V30 2632 C 245.376 1.6041 -6.11924 0
M  V30 2633 C 244.04 1.49166 -6.5062 0
M  V30 2634 H 243.31 0.516566 -0.531263 0
M  V30 2635 H 245.957 0.741099 -1.76579 0
M  V30 2636 H 244.262 3.3311 -2.06265 0
M  V30 2637 H 245.959 3.19127 -2.42815 0
M  V30 2638 H 242.549 2.34658 -3.58655 0
M  V30 2639 H 246.733 2.04803 -4.52072 0
M  V30 2640 H 241.989 1.66831 -5.88198 0
M  V30 2641 H 246.163 1.37925 -6.82605 0
M  V30 2642 H 243.79 1.1839 -7.50925 0
M  V30 2643 N 245.365 1.30045 0.890287 0
M  V30 2644 C 246.295 1.18541 2.01172 0
M  V30 2645 C 247.276 0.0773356 1.69924 0
M  V30 2646 O 248.461 0.25845 1.92473 0
M  V30 2647 C 245.591 0.870941 3.36202 0
M  V30 2648 C 244.545 1.93637 3.81692 0
M  V30 2649 C 243.871 1.475 5.13953 0
M  V30 2650 C 245.171 3.34666 4.00994 0
M  V30 2651 H 246.865 2.12359 2.11054 0
M  V30 2652 H 244.411 1.02238 1.01407 0
M  V30 2653 H 246.364 0.777141 4.14172 0
M  V30 2654 H 245.088 -0.102926 3.26438 0
M  V30 2655 H 243.747 2.01972 3.05946 0
M  V30 2656 H 243.395 0.489551 5.00612 0
M  V30 2657 H 243.095 2.1876 5.4536 0
M  V30 2658 H 244.619 1.39489 5.94454 0
M  V30 2659 H 246.033 3.2912 4.69417 0
M  V30 2660 H 244.43 4.03966 4.43769 0
M  V30 2661 H 245.5 3.76949 3.05021 0
M  V30 2662 N 246.843 -1.10192 1.12674 0
M  V30 2663 C 247.791 -2.18694 0.792196 0
M  V30 2664 C 248.785 -1.67938 -0.222058 0
M  V30 2665 O 249.991 -1.79822 -0.0800074 0
M  V30 2666 H 246.366 -0.713223 0.238364 0
M  V30 2667 H 248.337 -2.44149 1.71564 0
M  V30 2668 C 247.086 -3.46682 0.265859 0
M  V30 2669 H 246.409 -3.86101 1.03761 0
M  V30 2670 H 247.849 -4.23942 0.0701128 0
M  V30 2671 C 246.308 -3.21506 -1.00675 0
M  V30 2672 O 246.838 -3.43408 -2.08408 0
M  V30 2673 N 245.044 -2.75158 -0.934692 0
M  V30 2674 H 244.591 -2.57535 -0.0578604 0
M  V30 2675 H 244.549 -2.58691 -1.7868 0
M  V30 2676 N 248.321 -0.919034 -1.28029 0
M  V30 2677 C 249.549 -0.570971 -1.98866 0
M  V30 2678 C 249.964 0.848996 -1.68634 0
M  V30 2679 O 249.321 1.56307 -0.942036 0
M  V30 2680 C 249.372 -0.776876 -3.53054 0
M  V30 2681 O 249.093 -2.14097 -3.82222 0
M  V30 2682 C 250.594 -0.436356 -4.41147 0
M  V30 2683 H 247.814 -0.217175 -0.634883 0
M  V30 2684 H 250.358 -1.23368 -1.63097 0
M  V30 2685 H 248.513 -0.161085 -3.87065 0
M  V30 2686 H 248.927 -2.18455 -4.76841 0
M  V30 2687 H 250.401 -0.63117 -5.4838 0
M  V30 2688 H 250.878 0.627686 -4.34692 0
M  V30 2689 H 251.484 -1.02991 -4.12641 0
M  V30 2690 N 249.799 1.42003 -0.683588 0
M  V30 2691 C 251.027 2.05746 -0.218182 0
M  V30 2692 C 251.442 1.51396 1.12804 0
M  V30 2693 O 250.799 0.657303 1.70252 0
M  V30 2694 C 250.85 3.61171 -0.154131 0
M  V30 2695 O 250.571 4.13508 -1.44716 0
M  V30 2696 C 252.072 4.42042 0.333713 0
M  V30 2697 H 249.292 0.662888 -0.10402 0
M  V30 2698 H 251.836 1.81987 -0.9328 0
M  V30 2699 H 249.991 3.84012 0.511231 0
M  V30 2700 H 250.405 5.07453 -1.32632 0
M  V30 2701 H 251.879 5.51028 0.327423 0
M  V30 2702 H 252.356 4.17269 1.37053 0
M  V30 2703 H 252.962 4.24239 -0.300222 0
M  V30 2704 N 251.277 0.427512 1.51691 0
M  V30 2705 C 252.525 -0.141948 2.01601 0
M  V30 2706 C 252.846 -1.44067 1.31414 0
M  V30 2707 O 252.116 -1.90763 0.445658 0
M  V30 2708 H 250.696 -0.0554468 0.744939 0
M  V30 2709 H 253.358 0.567968 1.86441 0
M  V30 2710 H 252.454 -0.324913 3.10404 0
M  V30 2711 N 252.755 -1.56801 0.158532 0
M  V30 2712 C 254.002 -1.9649 -0.489679 0
M  V30 2713 C 254.33 -1.04394 -1.6411 0
M  V30 2714 O 253.585 -0.0754401 -1.95555 0
M  V30 2715 C 253.884 -3.4235 -1.02623 0
M  V30 2716 C 253.55 -4.50899 0.00794526 0
M  V30 2717 C 252.212 -4.80312 0.292207 0
M  V30 2718 C 254.564 -5.16333 0.710584 0
M  V30 2719 C 251.892 -5.72461 1.28472 0
M  V30 2720 C 254.244 -6.09553 1.69199 0
M  V30 2721 C 252.908 -6.37339 1.98383 0
M  V30 2722 H 252.178 -0.719009 -0.179186 0
M  V30 2723 H 254.825 -1.8989 0.247798 0
M  V30 2724 H 253.13 -3.45838 -1.84128 0
M  V30 2725 H 254.827 -3.70393 -1.53656 0
M  V30 2726 H 251.417 -4.28015 -0.22379 0
M  V30 2727 H 255.601 -4.93732 0.504174 0
M  V30 2728 H 250.857 -5.92278 1.51714 0
M  V30 2729 H 255.031 -6.59327 2.24189 0
M  V30 2730 H 252.658 -7.08546 2.7544 0
M  V30 2731 N 254.233 0.115231 -1.57178 0
M  V30 2732 C 255.458 0.840354 -1.89612 0
M  V30 2733 C 255.883 1.72464 -0.750845 0
M  V30 2734 O 255.241 1.78826 0.298478 0
M  V30 2735 C 255.289 1.64654 -3.20814 0
M  V30 2736 O 254.393 2.7538 -3.06985 0
M  V30 2737 H 253.734 0.232158 -0.622092 0
M  V30 2738 H 256.264 0.0964977 -2.04372 0
M  V30 2739 H 256.274 2.03499 -3.53627 0
M  V30 2740 H 254.949 0.997416 -4.03763 0
M  V30 2741 H 253.526 2.3971 -2.85646 0
M  V30 2742 N 255.711 1.52812 0.385517 0
M  V30 2743 C 256.958 1.68026 1.1302 0
M  V30 2744 C 257.286 0.421934 1.89868 0
M  V30 2745 O 256.541 -0.595749 1.86412 0
M  V30 2746 C 256.84 2.86856 2.13187 0
M  V30 2747 C 256.506 4.24159 1.5297 0
M  V30 2748 C 255.168 4.61501 1.36274 0
M  V30 2749 C 257.52 5.09627 1.09223 0
M  V30 2750 C 254.848 5.81966 0.743837 0
M  V30 2751 C 257.2 6.30719 0.487411 0
M  V30 2752 C 255.864 6.6679 0.307777 0
M  V30 2753 H 255.134 0.614849 0.413571 0
M  V30 2754 H 257.781 1.86962 0.414405 0
M  V30 2755 H 256.086 2.6235 2.90998 0
M  V30 2756 H 257.783 2.95821 2.70722 0
M  V30 2757 H 254.373 3.94746 1.66954 0
M  V30 2758 H 258.557 4.81343 1.20922 0
M  V30 2759 H 253.813 6.08519 0.592891 0
M  V30 2760 H 257.987 6.96259 0.140143 0
M  V30 2761 H 255.614 7.60001 -0.173879 0
M  V30 2762 N 257.189 -0.644168 1.43834 0
M  V30 2763 C 258.121 -1.76955 1.45669 0
M  V30 2764 C 259.134 -1.58956 0.351666 0
M  V30 2765 O 260.323 -1.6751 0.616644 0
M  V30 2766 C 257.423 -3.14507 1.26248 0
M  V30 2767 C 256.596 -3.59083 2.49757 0
M  V30 2768 C 255.655 -4.75467 2.25427 0
M  V30 2769 O 254.681 -4.84444 2.98836 0
M  V30 2770 N 255.883 -5.66289 1.27661 0
M  V30 2771 H 258.648 -1.75856 2.42682 0
M  V30 2772 H 256.209 -0.828312 1.39106 0
M  V30 2773 H 258.201 -3.90067 1.0784 0
M  V30 2774 H 256.771 -3.10325 0.376478 0
M  V30 2775 H 255.991 -2.7387 2.8353 0
M  V30 2776 H 257.279 -3.85613 3.31934 0
M  V30 2777 H 256.677 -5.61718 0.670064 0
M  V30 2778 H 255.234 -6.41533 1.15234 0
M  V30 2779 N 258.668 -1.30515 -0.883378 0
M  V30 2780 C 259.945 -1.10086 -1.6168 0
M  V30 2781 C 260.325 0.349269 -2.08191 0
M  V30 2782 O 259.673 1.34105 -1.85008 0
M  V30 2783 C 259.883 -2.10315 -2.78511 0
M  V30 2784 C 261.231 -2.42119 -3.48803 0
M  V30 2785 O 262.255 -2.08638 -2.88702 0
M  V30 2786 O 261.114 -2.99396 -4.57192 0
M  V30 2787 H 258.208 -0.422907 -0.710689 0
M  V30 2788 H 260.754 -1.41947 -0.930015 0
M  V30 2789 H 259.526 -3.07917 -2.41459 0
M  V30 2790 H 259.149 -1.79282 -3.54886 0
M  V30 2791 N 260.146 1.09593 -1.13257 0
M  V30 2792 C 261.386 1.83349 -0.903472 0
M  V30 2793 C 261.75 1.83641 0.560351 0
M  V30 2794 O 262.951 2.53037 0.906947 0
M  V30 2795 C 261.222 3.25629 -1.47311 0
M  V30 2796 S 262.781 4.16408 -1.38382 0
M  V30 2797 H 259.599 0.632014 -0.325699 0
M  V30 2798 H 262.201 1.31817 -1.44376 0
M  V30 2799 H 260.905 3.22991 -2.53189 0
M  V30 2800 H 260.436 3.82233 -0.930689 0
M  V30 2801 H 262.451 4.94884 -0.361113 0
M  V30 2802 N 261.624 0.925811 1.2754 0
M  V30 2803 C 262.574 0.394488 2.24561 0
M  V30 2804 C 263.558 -0.500183 1.52928 0
M  V30 2805 O 264.75 -0.337936 1.73744 0
M  V30 2806 C 261.879 -0.353328 3.41477 0
M  V30 2807 C 260.965 0.557752 4.20416 0
M  V30 2808 N 261.356 1.67674 4.77199 0
M  V30 2809 C 259.654 0.360404 4.44541 0
M  V30 2810 C 260.355 2.24324 5.36706 0
M  V30 2811 N 259.331 1.53305 5.21535 0
M  V30 2812 H 263.133 1.2489 2.66045 0
M  V30 2813 H 260.647 0.779864 1.4245 0
M  V30 2814 H 262.644 -0.7509 4.10082 0
M  V30 2815 H 261.304 -1.20469 3.01525 0
M  V30 2816 H 262.315 2.05915 4.75204 0
M  V30 2817 H 258.992 -0.450454 4.15063 0
M  V30 2818 H 260.382 3.18521 5.91603 0
M  V30 2819 N 263.102 -1.41638 0.69111 0
M  V30 2820 C 264.379 -1.95036 0.148421 0
M  V30 2821 C 264.759 -1.63072 -1.34055 0
M  V30 2822 O 264.107 -0.93538 -2.08478 0
M  V30 2823 C 264.317 -3.46279 0.434951 0
M  V30 2824 C 265.665 -4.23069 0.360275 0
M  V30 2825 O 266.689 -3.54277 0.369613 0
M  V30 2826 O 265.548 -5.45583 0.316534 0
M  V30 2827 H 262.642 -0.826908 0.0123654 0
M  V30 2828 H 265.188 -1.5138 0.766963 0
M  V30 2829 H 263.96 -3.6281 1.46576 0
M  V30 2830 H 263.583 -3.97019 -0.214787 0
M  V30 2831 N 264.58 -0.43555 -1.51462 0
M  V30 2832 C 265.996 -0.0877501 -1.59359 0
M  V30 2833 C 266.196 1.4027 -1.4466 0
M  V30 2834 O 265.252 2.17243 -1.28693 0
M  V30 2835 C 266.565 -0.606264 -2.94525 0
M  V30 2836 C 268.113 -0.566548 -3.0783 0
M  V30 2837 C 268.588 -1.06201 -4.45517 0
M  V30 2838 N 270.079 -1.01992 -4.51832 0
M  V30 2839 C 270.814 -1.37417 -5.5669 0
M  V30 2840 N 270.31 -1.80119 -6.68976 0
M  V30 2841 N 272.103 -1.29245 -5.47039 0
M  V30 2842 H 264.254 -1.40533 -1.59261 0
M  V30 2843 H 266.517 -0.578992 -0.750648 0
M  V30 2844 H 266.223 -1.64901 -3.10645 0
M  V30 2845 H 266.097 -0.0302097 -3.77188 0
M  V30 2846 H 268.484 0.467208 -2.91378 0
M  V30 2847 H 268.565 -1.17898 -2.2701 0
M  V30 2848 H 268.209 -2.09422 -4.62715 0
M  V30 2849 H 268.139 -0.426127 -5.24873 0
M  V30 2850 H 270.63 -0.706308 -3.71241 0
M  V30 2851 H 270.943 -2.05392 -7.45006 0
M  V30 2852 H 269.288 -1.84044 -6.70189 0
M  V30 2853 H 272.479 -0.957522 -4.58202 0
M  V30 2854 H 272.652 -1.57182 -6.28648 0
M  V30 2855 N 266.058 1.56714 -0.166846 0
M  V30 2856 C 267.298 1.98641 0.481763 0
M  V30 2857 C 267.662 1.05038 1.6072 0
M  V30 2858 O 268.863 1.36087 2.31805 0
M  V30 2859 C 267.134 3.44362 0.956517 0
M  V30 2860 S 268.693 4.08317 1.60694 0
M  V30 2861 H 265.511 0.693873 0.155116 0
M  V30 2862 H 268.113 1.93719 -0.263251 0
M  V30 2863 H 266.817 4.10204 0.126936 0
M  V30 2864 H 266.348 3.53041 1.73568 0
M  V30 2865 H 268.363 4.02999 2.89494 0
M  V30 2866 N 267.536 -0.106894 1.57237 0
M  V30 2867 C 268.466 -1.13148 2.04254 0
M  V30 2868 C 269.447 -1.42476 0.929224 0
M  V30 2869 O 270.632 -1.52709 1.19973 0
M  V30 2870 C 267.762 -2.4545 2.45706 0
M  V30 2871 C 266.716 -2.30558 3.60592 0
M  V30 2872 C 266.042 -3.67931 3.87983 0
M  V30 2873 C 267.342 -1.75597 4.91897 0
M  V30 2874 H 269.036 -0.740374 2.90101 0
M  V30 2875 H 266.582 -0.354696 1.39563 0
M  V30 2876 H 268.535 -3.17389 2.77205 0
M  V30 2877 H 267.259 -2.86475 1.56843 0
M  V30 2878 H 265.918 -1.61067 3.29322 0
M  V30 2879 H 265.566 -4.06462 2.96306 0
M  V30 2880 H 265.266 -3.58817 4.65322 0
M  V30 2881 H 266.79 -4.41356 4.21945 0
M  V30 2882 H 268.204 -2.37364 5.21854 0
M  V30 2883 H 266.601 -1.77272 5.73319 0
M  V30 2884 H 267.671 -0.714451 4.79608 0
M  V30 2885 N 269.014 -1.53014 -0.377408 0
M  V30 2886 C 269.977 -1.77957 -1.44444 0
M  V30 2887 C 270.977 -0.649763 -1.47087 0
M  V30 2888 O 272.167 -0.917897 -1.48055 0
M  V30 2889 C 269.299 -1.89089 -2.83651 0
M  V30 2890 H 270.492 -2.73243 -1.23606 0
M  V30 2891 H 268.045 -1.43912 -0.609844 0
M  V30 2892 H 268.78 -0.958293 -3.09818 0
M  V30 2893 H 268.565 -2.71254 -2.83132 0
M  V30 2894 H 270.055 -2.1002 -3.60945 0
M  V30 2895 N 270.492 0.636531 -1.44174 0
M  V30 2896 C 271.739 1.39619 -1.46672 0
M  V30 2897 C 272.067 1.94257 -0.0972691 0
M  V30 2898 O 271.322 1.73768 0.900175 0
M  V30 2899 C 271.621 2.58309 -2.47005 0
M  V30 2900 C 271.287 2.21992 -3.92467 0
M  V30 2901 C 269.949 2.118 -4.32081 0
M  V30 2902 C 272.301 1.9321 -4.84065 0
M  V30 2903 C 269.629 1.71007 -5.61225 0
M  V30 2904 C 271.981 1.53911 -6.13591 0
M  V30 2905 C 270.645 1.42257 -6.52165 0
M  V30 2906 H 269.915 0.510902 -0.536712 0
M  V30 2907 H 272.562 0.722328 -1.77355 0
M  V30 2908 H 270.867 3.30903 -2.09786 0
M  V30 2909 H 272.564 3.16533 -2.46186 0
M  V30 2910 H 269.154 2.30841 -3.61124 0
M  V30 2911 H 273.338 1.99997 -4.54219 0
M  V30 2912 H 268.594 1.60583 -5.89935 0
M  V30 2913 H 272.768 1.30677 -6.8403 0
M  V30 2914 H 270.395 1.10419 -7.52138 0
M  V30 2915 N 271.97 1.30982 0.876444 0
M  V30 2916 C 273.198 1.23242 1.6619 0
M  V30 2917 C 273.613 -0.203345 1.87702 0
M  V30 2918 O 272.97 -1.13317 1.43057 0
M  V30 2919 C 273.021 1.96623 3.03351 0
M  V30 2920 O 272.742 3.34594 2.82804 0
M  V30 2921 C 274.243 1.95644 3.97792 0
M  V30 2922 H 271.463 0.426126 0.518322 0
M  V30 2923 H 274.007 1.7275 1.09442 0
M  V30 2924 H 272.162 1.50892 3.56806 0
M  V30 2925 H 272.576 3.71873 3.69879 0
M  V30 2926 H 274.05 2.51511 4.91372 0
M  V30 2927 H 274.527 0.937395 4.2908 0
M  V30 2928 H 275.133 2.41225 3.50272 0
M  V30 2929 N 273.449 -1.08991 1.13837 0
M  V30 2930 C 274.726 -1.77863 0.813876 0
M  V30 2931 C 275.106 -1.99375 -0.693746 0
M  V30 2932 O 274.454 -1.59875 -1.63255 0
M  V30 2933 C 274.664 -3.0986 1.60586 0
M  V30 2934 C 276.012 -3.84493 1.8014 0
M  V30 2935 O 277.036 -3.19624 1.57222 0
M  V30 2936 O 275.895 -5.00957 2.18413 0
M  V30 2937 H 272.989 -0.771589 0.297624 0
M  V30 2938 H 275.535 -1.15507 1.24323 0
M  V30 2939 H 274.307 -2.89715 2.63022 0
M  V30 2940 H 273.93 -3.79942 1.17173 0
M  V30 2941 N 274.927 -0.932562 -1.27047 0
M  V30 2942 C 276.173 -0.576412 -1.94436 0
M  V30 2943 C 276.506 0.880891 -1.73072 0
M  V30 2944 O 275.781 1.62905 -1.06264 0
M  V30 2945 C 276.064 -0.909031 -3.48437 0
M  V30 2946 C 275.917 -2.42044 -3.79123 0
M  V30 2947 C 277.236 -0.418341 -4.38107 0
M  V30 2948 H 274.355 -0.210888 -0.706184 0
M  V30 2949 H 276.997 -1.16522 -1.50075 0
M  V30 2950 H 275.147 -0.407947 -3.86352 0
M  V30 2951 H 276.819 -2.99359 -3.50973 0
M  V30 2952 H 275.062 -2.86758 -3.25503 0
M  V30 2953 H 275.733 -2.6037 -4.86736 0
M  V30 2954 H 278.209 -0.847856 -4.0737 0
M  V30 2955 H 277.085 -0.679981 -5.44672 0
M  V30 2956 H 277.346 0.681642 -4.36814 0
M  V30 2957 N 276.405 1.4127 -0.698611 0
M  V30 2958 C 277.368 2.29158 -0.044132 0
M  V30 2959 C 278.368 1.44529 0.704841 0
M  V30 2960 O 279.558 1.65643 0.539276 0
M  V30 2961 C 276.69 3.27459 0.947809 0
M  V30 2962 H 277.883 2.88529 -0.817994 0
M  V30 2963 H 275.436 1.49307 -0.46228 0
M  V30 2964 H 276.171 2.73073 1.74933 0
M  V30 2965 H 275.956 3.8991 0.41385 0
M  V30 2966 H 277.446 3.93311 1.40344 0
M  V30 2967 N 277.883 0.443576 1.51229 0
M  V30 2968 C 279.294 -0.0180867 1.86691 0
M  V30 2969 C 279.645 -1.41384 1.36033 0
M  V30 2970 O 278.77 -2.04291 0.713722 0
M  V30 2971 C 279.365 -0.039597 3.38777 0
M  V30 2972 C 277.924 -0.445692 3.73752 0
M  V30 2973 C 277.071 0.357584 2.74985 0
M  V30 2974 H 280.022 0.659138 1.44364 0
M  V30 2975 H 280.043 -0.847761 3.70936 0
M  V30 2976 H 279.555 0.976382 3.75617 0
M  V30 2977 H 277.656 -1.46704 3.42503 0
M  V30 2978 H 277.769 -0.166155 4.78812 0
M  V30 2979 H 276.133 -0.184973 2.54027 0
M  V30 2980 H 276.916 1.37256 3.14668 0
M  V30 2981 N 279.361 -1.56624 0.175154 0
M  V30 2982 C 280.777 -1.58571 -0.180966 0
M  V30 2983 C 280.977 -1.19065 -1.6256 0
M  V30 2984 O 280.033 -0.904044 -2.35761 0
M  V30 2985 C 281.346 -3.00522 0.103326 0
M  V30 2986 C 282.894 -3.12972 0.0418426 0
M  V30 2987 C 283.369 -4.57022 0.299175 0
M  V30 2988 N 284.86 -4.62541 0.247086 0
M  V30 2989 C 285.595 -5.71857 0.420318 0
M  V30 2990 N 285.091 -6.89717 0.652816 0
M  V30 2991 N 286.884 -5.60972 0.355957 0
M  V30 2992 H 279.035 -1.80589 1.11809 0
M  V30 2993 H 281.298 -0.837178 0.444788 0
M  V30 2994 H 281.004 -3.33916 1.10422 0
M  V30 2995 H 280.878 -3.72344 -0.603299 0
M  V30 2996 H 283.265 -2.79403 -0.949636 0
M  V30 2997 H 283.346 -2.43578 0.781238 0
M  V30 2998 H 282.99 -4.913 1.28788 0
M  V30 2999 H 282.92 -5.24579 -0.460876 0
M  V30 3000 H 285.411 -3.77829 0.0731895 0
M  V30 3001 H 285.724 -7.68911 0.774347 0
M  V30 3002 H 284.069 -6.91572 0.689476 0
M  V30 3003 H 287.26 -4.67773 0.174882 0
M  V30 3004 H 287.433 -6.46111 0.494388 0
M  V30 3005 N 280.839 0.0985539 -1.57292 0
M  V30 3006 C 282.087 0.801092 -1.85545 0
M  V30 3007 C 282.408 1.79438 -0.763353 0
M  V30 3008 O 281.678 1.94763 0.21073 0
M  V30 3009 H 280.258 0.29884 -0.684619 0
M  V30 3010 H 282.92 0.0810064 -1.94732 0
M  V30 3011 H 282.016 1.3338 -2.82163 0
M  V30 3012 N 282.317 1.53212 0.369288 0
M  V30 3013 C 283.563 1.69466 1.11397 0
M  V30 3014 C 283.896 0.443257 1.89074 0
M  V30 3015 O 283.171 -0.559386 1.86282 0
M  V30 3016 C 283.454 2.9422 2.07621 0
M  V30 3017 C 283.307 4.29508 1.33577 0
M  V30 3018 C 284.626 3.14565 3.07794 0
M  V30 3019 H 281.745 0.616667 0.403597 0
M  V30 3020 H 284.387 1.85845 0.395179 0
M  V30 3021 H 282.537 2.80387 2.68916 0
M  V30 3022 H 284.209 4.55147 0.750955 0
M  V30 3023 H 282.452 4.29088 0.637618 0
M  V30 3024 H 283.123 5.12926 2.03989 0
M  V30 3025 H 285.599 3.2756 2.56601 0
M  V30 3026 H 284.475 4.03297 3.72348 0
M  V30 3027 H 284.736 2.29675 3.77759 0
M  V30 3028 N 283.795 -0.628877 1.44509 0
M  V30 3029 C 284.758 -1.72263 1.51188 0
M  V30 3030 C 285.758 -1.55907 0.39367 0
M  V30 3031 O 286.948 -1.61361 0.656377 0
M  V30 3032 C 284.08 -3.11365 1.38798 0
M  V30 3033 H 285.273 -1.67714 2.4862 0
M  V30 3034 H 282.826 -0.842737 1.31634 0
M  V30 3035 H 283.561 -3.21507 0.424693 0
M  V30 3036 H 283.346 -3.24644 2.19884 0
M  V30 3037 H 284.836 -3.91075 1.46458 0
M  V30 3038 N 285.273 -1.31445 -0.869486 0
M  V30 3039 C 286.498 -1.24256 -1.66058 0
M  V30 3040 C 286.923 0.188928 -1.87149 0
M  V30 3041 O 286.281 1.13522 -1.4136 0
M  V30 3042 C 286.329 -1.9924 -3.00559 0
M  V30 3043 O 285.433 -1.33007 -3.90362 0
M  V30 3044 H 284.774 -0.428973 -0.506831 0
M  V30 3045 H 287.304 -1.73521 -1.08404 0
M  V30 3046 H 287.314 -2.08854 -3.50491 0
M  V30 3047 H 285.989 -3.03342 -2.84528 0
M  V30 3048 H 284.566 -1.31848 -3.48813 0
M  V30 3049 N 286.751 1.08385 -1.14413 0
M  V30 3050 C 287.999 1.80419 -0.910679 0
M  V30 3051 C 288.32 1.86658 0.564243 0
M  V30 3052 O 287.59 1.35985 1.41014 0
M  V30 3053 H 286.17 0.668204 -0.333934 0
M  V30 3054 H 288.832 1.31037 -1.44275 0
M  V30 3055 H 287.928 2.83238 -1.31082 0
M  V30 3056 N 288.23 0.939286 1.26551 0
M  V30 3057 C 289.162 0.404704 2.25599 0
M  V30 3058 C 290.175 -0.470983 1.55838 0
M  V30 3059 O 291.364 -0.281734 1.76263 0
M  V30 3060 C 288.464 -0.43764 3.36062 0
M  V30 3061 C 287.637 0.421449 4.35365 0
M  V30 3062 C 286.696 -0.36015 5.24966 0
M  V30 3063 O 285.722 0.236167 5.6871 0
M  V30 3064 N 286.924 -1.65715 5.56344 0
M  V30 3065 H 289.689 1.25618 2.72103 0
M  V30 3066 H 287.25 0.807963 1.40298 0
M  V30 3067 H 289.242 -0.967866 3.92956 0
M  V30 3068 H 287.812 -1.18991 2.89067 0
M  V30 3069 H 287.032 1.1329 3.7757 0
M  V30 3070 H 288.32 1.00835 4.98708 0
M  V30 3071 H 287.718 -2.16378 5.22682 0
M  V30 3072 H 286.275 -2.13366 6.15888 0
M  V30 3073 N 289.708 -1.40897 0.706093 0
M  V30 3074 C 291.124 -1.55042 0.37869 0
M  V30 3075 C 291.324 -1.67944 -1.11342 0
M  V30 3076 O 290.38 -1.66372 -1.89938 0
M  V30 3077 C 291.693 -2.78398 1.13643 0
M  V30 3078 C 293.241 -2.92206 1.12181 0
M  V30 3079 C 293.716 -4.18463 1.86152 0
M  V30 3080 N 295.207 -4.25443 1.83173 0
M  V30 3081 C 295.942 -5.2202 2.37239 0
M  V30 3082 N 295.438 -6.24563 2.99821 0
M  V30 3083 N 297.231 -5.14033 2.27435 0
M  V30 3084 H 289.382 -1.30769 1.67372 0
M  V30 3085 H 291.645 -0.631653 0.706907 0
M  V30 3086 H 291.351 -2.7511 2.19106 0
M  V30 3087 H 291.225 -3.70228 0.721853 0
M  V30 3088 H 293.612 -2.95004 0.0754171 0
M  V30 3089 H 293.693 -2.01521 1.57554 0
M  V30 3090 H 293.337 -4.16427 2.90776 0
M  V30 3091 H 293.267 -5.08141 1.38206 0
M  V30 3092 H 295.758 -3.51976 1.37556 0
M  V30 3093 H 296.071 -6.94665 3.38616 0
M  V30 3094 H 294.416 -6.25035 3.03902 0
M  V30 3095 H 297.607 -4.3285 1.78208 0
M  V30 3096 H 297.78 -5.89129 2.69873 0
M  V30 3097 N 291.186 -0.45159 -1.50991 0
M  V30 3098 C 292.602 -0.104647 -1.59257 0
M  V30 3099 C 292.802 1.38728 -1.4614 0
M  V30 3100 O 291.858 2.15866 -1.30989 0
M  V30 3101 C 293.171 -0.637468 -2.93865 0
M  V30 3102 C 294.719 -0.599166 -3.07212 0
M  V30 3103 C 295.194 -1.1092 -4.44366 0
M  V30 3104 N 296.685 -1.06778 -4.50725 0
M  V30 3105 C 297.42 -1.43314 -5.55201 0
M  V30 3106 N 296.916 -1.87204 -6.67028 0
M  V30 3107 N 298.709 -1.3504 -5.45638 0
M  V30 3108 H 290.86 -1.42214 -1.57762 0
M  V30 3109 H 293.123 -0.586921 -0.744465 0
M  V30 3110 H 292.829 -1.68187 -3.08879 0
M  V30 3111 H 292.703 -0.0702139 -3.77135 0
M  V30 3112 H 295.09 0.436277 -2.91857 0
M  V30 3113 H 295.171 -1.20299 -2.25747 0
M  V30 3114 H 294.815 -2.14318 -4.60467 0
M  V30 3115 H 294.745 -0.481773 -5.24392 0
M  V30 3116 H 297.236 -0.745643 -3.70471 0
M  V30 3117 H 297.549 -2.13282 -7.42786 0
M  V30 3118 H 295.894 -1.91142 -6.68199 0
M  V30 3119 H 299.085 -1.00607 -4.57161 0
M  V30 3120 H 299.258 -1.63841 -6.26945 0
M  V30 3121 N 292.664 1.56529 -0.183458 0
M  V30 3122 C 293.889 2.02064 0.467428 0
M  V30 3123 C 294.314 1.06282 1.55196 0
M  V30 3124 O 293.672 0.0443565 1.81246 0
M  V30 3125 C 293.72 3.46122 1.01153 0
M  V30 3126 O 292.824 3.53437 2.12499 0
M  V30 3127 H 292.165 0.654726 0.110588 0
M  V30 3128 H 294.695 2.02521 -0.290917 0
M  V30 3129 H 294.705 3.85676 1.33108 0
M  V30 3130 H 293.38 4.15331 0.217533 0
M  V30 3131 H 291.957 3.2575 1.81497 0
M  V30 3132 N 294.142 -0.090211 1.57342 0
M  V30 3133 C 295.388 -0.788838 1.8748 0
M  V30 3134 C 295.743 -1.76105 0.7749 0
M  V30 3135 O 295.036 -1.90302 -0.222663 0
M  V30 3136 C 295.23 -1.55222 3.21933 0
M  V30 3137 C 295.059 -0.655441 4.44898 0
M  V30 3138 C 293.829 -0.299325 5.04413 0
M  V30 3139 C 296.027 0.0397458 5.14285 0
M  V30 3140 N 294.009 0.605108 6.10911 0
M  V30 3141 C 295.38 0.802061 6.1479 0
M  V30 3142 C 297.435 0.113154 4.97771 0
M  V30 3143 C 296.138 1.63093 7.00566 0
M  V30 3144 C 298.164 0.928942 5.84059 0
M  V30 3145 C 297.526 1.67936 6.84088 0
M  V30 3146 H 293.625 -0.26467 0.735849 0
M  V30 3147 H 296.209 -0.0511453 1.94633 0
M  V30 3148 H 294.38 -2.26076 3.15823 0
M  V30 3149 H 296.112 -2.19843 3.39781 0
M  V30 3150 H 292.867 -0.648079 4.69145 0
M  V30 3151 H 293.291 1.05002 6.68808 0
M  V30 3152 H 297.933 -0.452676 4.2037 0
M  V30 3153 H 295.651 2.20781 7.77355 0
M  V30 3154 H 299.237 0.988478 5.73341 0
M  V30 3155 H 298.117 2.30044 7.49699 0
M  V30 3156 N 295.62 -1.53406 -0.361157 0
M  V30 3157 C 296.55 -1.83136 -1.44857 0
M  V30 3158 C 297.531 -0.685174 -1.5569 0
M  V30 3159 O 298.716 -0.93544 -1.70186 0
M  V30 3160 C 295.846 -2.02522 -2.82138 0
M  V30 3161 C 294.8 -3.18302 -2.86126 0
M  V30 3162 C 294.126 -3.22989 -4.26125 0
M  V30 3163 C 295.426 -4.56796 -2.53248 0
M  V30 3164 H 297.12 -2.74201 -1.20226 0
M  V30 3165 H 294.666 -1.31938 -0.576922 0
M  V30 3166 H 296.619 -2.21904 -3.58241 0
M  V30 3167 H 295.343 -1.08172 -3.08166 0
M  V30 3168 H 294.002 -2.98747 -2.12475 0
M  V30 3169 H 293.65 -2.26267 -4.49235 0
M  V30 3170 H 293.35 -4.00781 -4.29708 0
M  V30 3171 H 294.874 -3.44559 -5.04094 0
M  V30 3172 H 296.288 -4.7631 -3.19064 0
M  V30 3173 H 294.685 -5.36862 -2.68141 0
M  V30 3174 H 295.755 -4.61606 -1.48484 0
M  V30 3175 N 297.098 0.621204 -1.44841 0
M  V30 3176 C 298.347 1.37658 -1.47422 0
M  V30 3177 C 298.66 1.95264 -0.114629 0
M  V30 3178 O 299.866 2.71494 -0.0180199 0
M  V30 3179 C 298.322 2.49285 -2.59586 0
M  V30 3180 C 297.93 1.98149 -4.01797 0
M  V30 3181 C 299.674 3.26409 -2.71399 0
M  V30 3182 C 297.581 3.07178 -5.05367 0
M  V30 3183 H 296.511 0.517344 -0.548517 0
M  V30 3184 H 299.162 0.667257 -1.70938 0
M  V30 3185 H 297.544 3.22839 -2.29328 0
M  V30 3186 H 298.718 1.31395 -4.41669 0
M  V30 3187 H 297.033 1.33812 -3.94314 0
M  V30 3188 H 299.63 4.07706 -3.45948 0
M  V30 3189 H 299.973 3.76535 -1.77559 0
M  V30 3190 H 300.506 2.5995 -3.01116 0
M  V30 3191 H 297.245 2.61985 -6.00869 0
M  V30 3192 H 296.765 3.72542 -4.70077 0
M  V30 3193 H 298.444 3.71789 -5.29511 0
M  V30 3194 N 298.576 1.31904 0.862503 0
M  V30 3195 C 299.825 1.21373 1.61094 0
M  V30 3196 C 300.138 -0.22504 1.94301 0
M  V30 3197 O 301.344 -0.452121 2.67709 0
M  V30 3198 C 299.8 2.12525 2.9045 0
M  V30 3199 C 299.408 3.61441 2.64697 0
M  V30 3200 C 301.152 2.10813 3.68454 0
M  V30 3201 C 299.059 4.44578 3.90006 0
M  V30 3202 H 297.989 0.450705 0.604468 0
M  V30 3203 H 300.64 1.56811 0.953027 0
M  V30 3204 H 299.022 1.69994 3.57656 0
M  V30 3205 H 300.196 4.12264 2.05851 0
M  V30 3206 H 298.511 3.65205 2.00036 0
M  V30 3207 H 301.108 2.70167 4.61426 0
M  V30 3208 H 301.451 1.09713 4.01583 0
M  V30 3209 H 301.984 2.51583 3.08141 0
M  V30 3210 H 298.723 5.46461 3.62023 0
M  V30 3211 H 298.243 3.98508 4.48276 0
M  V30 3212 H 299.922 4.57176 4.5782 0
M  V30 3213 N 300.054 -1.07777 1.14986 0
M  V30 3214 C 300.986 -2.14769 0.800436 0
M  V30 3215 C 301.999 -1.61739 -0.185595 0
M  V30 3216 O 303.188 -1.78462 0.0370358 0
M  V30 3217 C 300.288 -3.38481 0.168533 0
M  V30 3218 C 299.461 -4.20876 1.1909 0
M  V30 3219 C 298.52 -5.22976 0.581575 0
M  V30 3220 O 297.546 -5.55388 1.24633 0
M  V30 3221 N 298.748 -5.76976 -0.638706 0
M  V30 3222 H 301.513 -2.45348 1.72118 0
M  V30 3223 H 299.074 -1.23645 1.04515 0
M  V30 3224 H 301.066 -4.03916 -0.251764 0
M  V30 3225 H 299.636 -3.05651 -0.655467 0
M  V30 3226 H 298.856 -3.51322 1.78791 0
M  V30 3227 H 300.144 -4.7274 1.88133 0
M  V30 3228 H 299.542 -5.52886 -1.19723 0
M  V30 3229 H 298.099 -6.44061 -1.00142 0
M  V30 3230 N 301.532 -0.945985 -1.26051 0
M  V30 3231 C 302.948 -0.649045 -1.45807 0
M  V30 3232 C 303.148 0.796158 -1.85104 0
M  V30 3233 O 302.204 1.57233 -1.97571 0
M  V30 3234 C 303.517 -1.61458 -2.53677 0
M  V30 3235 C 305.065 -1.62481 -2.67524 0
M  V30 3236 C 305.54 -2.57776 -3.7857 0
M  V30 3237 N 307.031 -2.5609 -3.85969 0
M  V30 3238 C 307.766 -3.26508 -4.7136 0
M  V30 3239 N 307.262 -4.0637 -5.61102 0
M  V30 3240 N 309.055 -3.15437 -4.65248 0
M  V30 3241 H 301.206 -1.88005 -0.988328 0
M  V30 3242 H 303.469 -0.808198 -0.4955 0
M  V30 3243 H 303.175 -2.64644 -2.31638 0
M  V30 3244 H 303.049 -1.37036 -3.51427 0
M  V30 3245 H 305.436 -0.600167 -2.88933 0
M  V30 3246 H 305.517 -1.90958 -1.70202 0
M  V30 3247 H 305.161 -3.60361 -3.57913 0
M  V30 3248 H 305.091 -2.26587 -4.75359 0
M  V30 3249 H 307.582 -1.98105 -3.21812 0
M  V30 3250 H 307.895 -4.57042 -6.23164 0
M  V30 3251 H 306.24 -4.10469 -5.60839 0
M  V30 3252 H 309.431 -2.52525 -3.94143 0
M  V30 3253 H 309.604 -3.70584 -5.31575 0
M  V30 3254 N 303.011 1.40521 -0.713556 0
M  V30 3255 C 304.241 2.0494 -0.261395 0
M  V30 3256 C 304.649 1.53861 1.10107 0
M  V30 3257 O 303.992 0.689321 1.70276 0
M  V30 3258 C 304.054 3.59138 -0.161227 0
M  V30 3259 C 303.718 4.33096 -1.45865 0
M  V30 3260 C 304.715 4.61182 -2.40016 0
M  V30 3261 C 302.4 4.72043 -1.71701 0
M  V30 3262 C 304.394 5.27196 -3.58251 0
M  V30 3263 C 302.081 5.37789 -2.90218 0
M  V30 3264 C 303.079 5.65295 -3.83315 0
M  V30 3265 O 302.767 6.29683 -4.99754 0
M  V30 3266 H 302.499 0.666041 -0.115608 0
M  V30 3267 H 305.053 1.80954 -0.971849 0
M  V30 3268 H 303.283 3.81936 0.605153 0
M  V30 3269 H 304.972 4.05091 0.256105 0
M  V30 3270 H 305.738 4.31559 -2.21318 0
M  V30 3271 H 301.617 4.50003 -1.00092 0
M  V30 3272 H 305.161 5.48582 -4.30934 0
M  V30 3273 H 301.058 5.66831 -3.08825 0
M  V30 3274 H 301.826 6.4818 -4.99805 0
M  V30 3275 N 304.489 0.459591 1.5075 0
M  V30 3276 C 305.735 -0.0994966 2.02556 0
M  V30 3277 C 306.068 -1.40399 1.3417 0
M  V30 3278 O 305.343 -1.88892 0.463683 0
M  V30 3279 C 305.626 -0.295242 3.58888 0
M  V30 3280 C 305.479 1.02947 4.37861 0
M  V30 3281 C 306.798 -1.05502 4.27267 0
M  V30 3282 H 303.917 -0.034686 0.736183 0
M  V30 3283 H 306.559 0.602938 1.8018 0
M  V30 3284 H 304.709 -0.893563 3.78084 0
M  V30 3285 H 306.381 1.66348 4.30263 0
M  V30 3286 H 304.624 1.62885 4.02058 0
M  V30 3287 H 305.295 0.846281 5.45474 0
M  V30 3288 H 307.771 -0.547993 4.12476 0
M  V30 3289 H 306.647 -1.16077 5.36486 0
M  V30 3290 H 306.908 -2.08875 3.89645 0
M  V30 3291 N 305.967 -1.56429 0.191757 0
M  V30 3292 C 306.877 -2.22541 -0.742481 0
M  V30 3293 C 307.893 -1.22342 -1.23727 0
M  V30 3294 O 309.069 -1.55069 -1.28513 0
M  V30 3295 C 306.134 -2.8692 -1.94623 0
M  V30 3296 C 305.195 -4.02378 -1.49633 0
M  V30 3297 C 304.428 -4.63678 -2.6427 0
M  V30 3298 O 304.651 -4.23895 -3.81666 0
M  V30 3299 O 303.585 -5.53202 -2.37174 0
M  V30 3300 H 307.411 -3.02977 -0.209462 0
M  V30 3301 H 304.996 -1.49353 -0.0373832 0
M  V30 3302 H 306.878 -3.27663 -2.64982 0
M  V30 3303 H 305.553 -2.09466 -2.46791 0
M  V30 3304 H 304.46 -3.66265 -0.761636 0
M  V30 3305 H 305.793 -4.81487 -1.02134 0
M  V30 3306 N 307.445 0.0818655 -1.57387 0
M  V30 3307 C 308.693 0.781368 -1.86384 0
M  V30 3308 C 309.014 1.78618 -0.782342 0
M  V30 3309 O 308.284 1.94976 0.190061 0
M  V30 3310 H 306.864 0.291562 -0.687751 0
M  V30 3311 H 309.526 0.060348 -1.94807 0
M  V30 3312 H 308.622 1.3038 -2.83562 0
M  V30 3313 N 308.923 1.53595 0.353017 0
M  V30 3314 C 310.153 1.74058 1.11299 0
M  V30 3315 C 310.561 0.475205 1.83135 0
M  V30 3316 O 309.904 -0.562344 1.74881 0
M  V30 3317 C 309.966 2.85994 2.17825 0
M  V30 3318 C 309.63 4.25923 1.65647 0
M  V30 3319 C 310.627 5.07829 1.11383 0
M  V30 3320 C 308.312 4.72377 1.7078 0
M  V30 3321 C 310.306 6.34285 0.629439 0
M  V30 3322 C 307.993 5.98808 1.21953 0
M  V30 3323 C 308.991 6.79594 0.681265 0
M  V30 3324 O 308.679 8.03651 0.200248 0
M  V30 3325 H 308.411 0.585327 0.338183 0
M  V30 3326 H 310.965 2.01186 0.413927 0
M  V30 3327 H 309.195 2.54368 2.91262 0
M  V30 3328 H 310.884 2.94515 2.79313 0
M  V30 3329 H 311.65 4.73107 1.06746 0
M  V30 3330 H 307.529 4.0956 2.11617 0
M  V30 3331 H 311.073 6.97288 0.208636 0
M  V30 3332 H 306.97 6.33026 1.26287 0
M  V30 3333 H 307.738 8.1788 0.318416 0
M  V30 3334 N 310.401 -0.613514 1.45168 0
M  V30 3335 C 311.648 -1.37268 1.48875 0
M  V30 3336 C 311.976 -1.94077 0.128161 0
M  V30 3337 O 311.231 -1.75178 -0.872416 0
M  V30 3338 C 311.53 -2.54347 2.51083 0
M  V30 3339 C 311.196 -2.1572 3.95949 0
M  V30 3340 C 309.858 -2.04899 4.35396 0
M  V30 3341 C 312.21 -1.85485 4.87078 0
M  V30 3342 C 309.538 -1.62057 5.63875 0
M  V30 3343 C 311.89 -1.4413 6.15962 0
M  V30 3344 C 310.554 -1.31863 6.54346 0
M  V30 3345 H 309.824 -0.502299 0.544773 0
M  V30 3346 H 312.471 -0.694021 1.78481 0
M  V30 3347 H 310.776 -3.27524 2.15024 0
M  V30 3348 H 312.473 -3.12577 2.51191 0
M  V30 3349 H 309.063 -2.25066 3.64751 0
M  V30 3350 H 313.247 -1.92745 4.57343 0
M  V30 3351 H 308.503 -1.51177 5.92415 0
M  V30 3352 H 312.677 -1.19778 6.86022 0
M  V30 3353 H 310.304 -0.984392 7.538 0
M  V30 3354 N 311.879 -1.3236 -0.855495 0
M  V30 3355 C 312.809 -1.23833 -1.97958 0
M  V30 3356 C 313.79 -0.122361 -1.69659 0
M  V30 3357 O 314.975 -0.30939 -1.9172 0
M  V30 3358 C 312.105 -0.959772 -3.33775 0
M  V30 3359 C 311.059 -2.03689 -3.76424 0
M  V30 3360 C 310.385 -1.61075 -5.09862 0
M  V30 3361 C 311.685 -3.4518 -3.9198 0
M  V30 3362 H 313.379 -2.1788 -2.0535 0
M  V30 3363 H 310.925 -1.04891 -0.986605 0
M  V30 3364 H 312.878 -0.886678 -4.11966 0
M  V30 3365 H 311.602 0.0163404 -3.26596 0
M  V30 3366 H 310.261 -2.10012 -3.00484 0
M  V30 3367 H 309.909 -0.622107 -4.99138 0
M  V30 3368 H 309.609 -2.33143 -5.39368 0
M  V30 3369 H 311.133 -1.55201 -5.90546 0
M  V30 3370 H 312.547 -3.4145 -4.60526 0
M  V30 3371 H 310.944 -4.1559 -4.32903 0
M  V30 3372 H 312.014 -3.84903 -2.94919 0
M  V30 3373 N 313.357 1.07166 -1.15556 0
M  V30 3374 C 314.307 2.12649 -0.82247 0
M  V30 3375 C 315.291 1.59725 0.194129 0
M  V30 3376 O 316.483 1.76999 -0.00540402 0
M  V30 3377 C 313.612 3.41847 -0.315572 0
M  V30 3378 C 312.698 4.0162 -1.36244 0
M  V30 3379 N 313.089 4.35625 -2.5703 0
M  V30 3380 C 311.387 4.29114 -1.21562 0
M  V30 3381 C 312.088 4.83017 -3.24144 0
M  V30 3382 N 311.064 4.81906 -2.51531 0
M  V30 3383 H 314.866 2.36776 -1.74111 0
M  V30 3384 H 312.38 1.24622 -1.0413 0
M  V30 3385 H 314.377 4.16859 -0.0585855 0
M  V30 3386 H 313.037 3.19163 0.597105 0
M  V30 3387 H 314.048 4.26253 -2.94158 0
M  V30 3388 H 310.725 4.15919 -0.362988 0
M  V30 3389 H 312.115 5.18605 -4.27198 0
M  V30 3390 N 314.835 0.952656 1.25548 0
M  V30 3391 C 316.246 0.647392 1.75116 0
M  V30 3392 C 316.597 -0.837274 1.77438 0
M  V30 3393 O 315.722 -1.65525 1.39393 0
M  V30 3394 C 316.317 1.16845 3.18014 0
M  V30 3395 C 314.876 0.913382 3.6515 0
M  V30 3396 C 314.023 1.31265 2.44264 0
M  V30 3397 H 316.974 1.12968 1.11462 0
M  V30 3398 H 316.995 0.527606 3.76824 0
M  V30 3399 H 316.507 2.24902 3.16292 0
M  V30 3400 H 314.608 -0.152316 3.72289 0
M  V30 3401 H 314.721 1.54845 4.53387 0
M  V30 3402 H 313.085 0.731028 2.43984 0
M  V30 3403 H 313.868 2.40239 2.45234 0
M  V30 3404 N 316.313 -1.40141 0.720998 0
M  V30 3405 C 317.541 -2.05096 0.272656 0
M  V30 3406 C 317.956 -1.54334 -1.0875 0
M  V30 3407 O 317.313 -0.702211 -1.6845 0
M  V30 3408 C 317.364 -3.60636 0.249835 0
M  V30 3409 O 317.085 -4.09526 1.55629 0
M  V30 3410 C 318.586 -4.42772 -0.216396 0
M  V30 3411 H 315.806 -0.659897 0.121558 0
M  V30 3412 H 318.35 -1.79449 0.980723 0
M  V30 3413 H 316.505 -3.85232 -0.409237 0
M  V30 3414 H 316.919 -5.03758 1.4604 0
M  V30 3415 H 318.393 -5.51702 -0.181212 0
M  V30 3416 H 318.87 -4.20756 -1.25941 0
M  V30 3417 H 319.476 -4.23294 0.412596 0
M  V30 3418 N 317.792 -0.46758 -1.50504 0
M  V30 3419 C 319.04 0.0884469 -2.01906 0
M  V30 3420 C 319.361 1.40532 -1.35188 0
M  V30 3421 O 318.631 1.89515 -0.496079 0
M  V30 3422 H 317.211 0.0356765 -0.746148 0
M  V30 3423 H 319.873 -0.6172 -1.84869 0
M  V30 3424 H 318.969 0.2425 -3.11156 0
M  V30 3425 N 319.27 1.56325 -0.20005 0
M  V30 3426 C 320.2 2.22318 0.713916 0
M  V30 3427 C 321.181 1.18788 1.21752 0
M  V30 3428 O 322.366 1.47309 1.26545 0
M  V30 3429 C 319.496 2.88639 1.93144 0
M  V30 3430 C 318.45 3.98457 1.56255 0
M  V30 3431 C 317.776 4.51967 2.85709 0
M  V30 3432 C 319.076 5.16612 0.768747 0
M  V30 3433 H 320.77 2.98952 0.163755 0
M  V30 3434 H 318.316 1.43792 0.0773219 0
M  V30 3435 H 320.269 3.33491 2.57608 0
M  V30 3436 H 318.993 2.09419 2.50621 0
M  V30 3437 H 317.652 3.54305 0.941471 0
M  V30 3438 H 317.3 3.69503 3.41287 0
M  V30 3439 H 317 5.26071 2.6177 0
M  V30 3440 H 318.524 4.99523 3.51154 0
M  V30 3441 H 319.938 5.57977 1.3166 0
M  V30 3442 H 318.335 5.96812 0.627286 0
M  V30 3443 H 319.405 4.84358 -0.229168 0
M  V30 3444 N 320.748 -0.0735177 1.57428 0
M  V30 3445 C 321.658 -1.10547 2.06922 0
M  V30 3446 C 322.674 -1.42506 0.998402 0
M  V30 3447 O 323.85 -1.52717 1.31299 0
M  V30 3448 C 320.915 -2.40019 2.50184 0
M  V30 3449 C 319.976 -2.15046 3.71556 0
M  V30 3450 C 319.209 -3.38345 4.12745 0
M  V30 3451 O 319.432 -4.47399 3.53822 0
M  V30 3452 O 318.366 -3.2666 5.05546 0
M  V30 3453 H 322.192 -0.715013 2.95163 0
M  V30 3454 H 319.777 -0.287531 1.46607 0
M  V30 3455 H 321.659 -3.16218 2.78539 0
M  V30 3456 H 320.334 -2.78447 1.65072 0
M  V30 3457 H 319.241 -1.36558 3.48285 0
M  V30 3458 H 320.574 -1.81499 4.57514 0
M  V30 3459 N 322.226 -1.5378 -0.344866 0
M  V30 3460 C 323.156 -1.84662 -1.42906 0
M  V30 3461 C 324.137 -0.701648 -1.54955 0
M  V30 3462 O 325.322 -0.953438 -1.69184 0
M  V30 3463 C 322.452 -2.05503 -2.79974 0
M  V30 3464 C 321.406 -3.21318 -2.82734 0
M  V30 3465 C 320.732 -3.2749 -4.22675 0
M  V30 3466 C 322.032 -4.59456 -2.48389 0
M  V30 3467 H 323.726 -2.75461 -1.17311 0
M  V30 3468 H 321.272 -1.32542 -0.562896 0
M  V30 3469 H 323.225 -2.25691 -3.55867 0
M  V30 3470 H 321.949 -1.11434 -3.07002 0
M  V30 3471 H 320.608 -3.00984 -2.09294 0
M  V30 3472 H 320.256 -2.31019 -4.4681 0
M  V30 3473 H 319.956 -4.05316 -4.25433 0
M  V30 3474 H 321.48 -3.49887 -5.00412 0
M  V30 3475 H 322.894 -4.79667 -3.13995 0
M  V30 3476 H 321.291 -5.39675 -2.62432 0
M  V30 3477 H 322.361 -4.63155 -1.4358 0
M  V30 3478 N 323.704 0.605807 -1.45491 0
M  V30 3479 C 324.634 1.72709 -1.57143 0
M  V30 3480 C 325.615 1.6476 -0.422884 0
M  V30 3481 O 326.8 1.83132 -0.646247 0
M  V30 3482 C 323.93 3.11316 -1.53948 0
M  V30 3483 C 322.884 3.34077 -2.67537 0
M  V30 3484 C 322.21 4.72975 -2.49397 0
M  V30 3485 C 323.51 3.24158 -4.09535 0
M  V30 3486 H 325.204 1.63214 -2.51001 0
M  V30 3487 H 322.75 0.78379 -1.208 0
M  V30 3488 H 324.703 3.89557 -1.60696 0
M  V30 3489 H 323.427 3.21655 -0.566205 0
M  V30 3490 H 322.086 2.58227 -2.6022 0
M  V30 3491 H 321.734 4.8005 -1.50205 0
M  V30 3492 H 321.434 4.8916 -3.25571 0
M  V30 3493 H 322.958 5.53414 -2.58002 0
M  V30 3494 H 324.372 3.92271 -4.18086 0
M  V30 3495 H 322.769 3.51872 -4.86113 0
M  V30 3496 H 323.839 2.2157 -4.31317 0
M  V30 3497 N 325.182 1.32811 0.848464 0
M  V30 3498 C 326.428 1.23907 1.60546 0
M  V30 3499 C 326.761 -0.197161 1.93197 0
M  V30 3500 O 326.036 -1.13596 1.5788 0
M  V30 3501 C 326.319 2.10489 2.92175 0
M  V30 3502 C 326.172 3.62522 2.66266 0
M  V30 3503 C 327.491 1.97075 3.93509 0
M  V30 3504 H 324.61 0.451459 0.58254 0
M  V30 3505 H 327.252 1.62818 0.979296 0
M  V30 3506 H 325.402 1.77434 3.45614 0
M  V30 3507 H 327.074 4.05821 2.19334 0
M  V30 3508 H 325.317 3.84879 2.00126 0
M  V30 3509 H 325.988 4.18437 3.6002 0
M  V30 3510 H 328.464 2.26045 3.49346 0
M  V30 3511 H 327.34 2.59923 4.83457 0
M  V30 3512 H 327.601 0.940186 4.31987 0
M  V30 3513 N 326.66 -1.06551 1.16123 0
M  V30 3514 C 327.937 -1.76097 0.85142 0
M  V30 3515 C 328.317 -2.00802 -0.6513 0
M  V30 3516 O 327.665 -1.63302 -1.59827 0
M  V30 3517 C 327.875 -3.06384 1.67122 0
M  V30 3518 C 329.223 -3.80585 1.88255 0
M  V30 3519 O 330.247 -3.16218 1.63966 0
M  V30 3520 O 329.106 -4.96212 2.2899 0
M  V30 3521 H 326.2 -0.765102 0.313923 0
M  V30 3522 H 328.746 -1.12844 1.26745 0
M  V30 3523 H 327.518 -2.84071 2.69108 0
M  V30 3524 H 327.141 -3.77371 1.25206 0
M  V30 3525 N 328.138 -0.959301 -1.25041 0
M  V30 3526 C 329.088 -0.453888 -2.23436 0
M  V30 3527 C 330.072 0.459461 -1.542 0
M  V30 3528 O 331.264 0.291752 -1.74579 0
M  V30 3529 C 328.393 0.262667 -3.42294 0
M  V30 3530 C 327.479 -0.669022 -4.1879 0
M  V30 3531 N 327.87 -1.80267 -4.72586 0
M  V30 3532 C 326.168 -0.47814 -4.4343 0
M  V30 3533 C 326.869 -2.38475 -5.3057 0
M  V30 3534 N 325.845 -1.67078 -5.17287 0
M  V30 3535 H 329.647 -1.319 -2.6264 0
M  V30 3536 H 327.161 -0.817358 -1.40332 0
M  V30 3537 H 329.158 0.641911 -4.11929 0
M  V30 3538 H 327.818 1.12432 -3.04613 0
M  V30 3539 H 328.829 -2.18442 -4.69578 0
M  V30 3540 H 325.506 0.340249 -4.16111 0
M  V30 3541 H 326.896 -3.34094 -5.8295 0
M  V30 3542 N 329.616 1.39756 -0.72842 0
M  V30 3543 C 330.864 2.00248 -0.272946 0
M  V30 3544 C 331.185 1.58077 1.14178 0
M  V30 3545 O 330.455 0.826014 1.77634 0
M  V30 3546 H 329.035 0.740554 -0.0979247 0
M  V30 3547 H 331.697 1.70903 -0.936912 0
M  V30 3548 H 330.793 3.10495 -0.316142 0
M  V30 3549 N 331.094 0.475555 1.50254 0
M  V30 3550 C 332.319 -0.0777042 2.07254 0
M  V30 3551 C 332.744 -1.3235 1.3366 0
M  V30 3552 O 332.102 -1.77152 0.385597 0
M  V30 3553 C 332.15 -0.340169 3.58992 0
M  V30 3554 O 331.254 -1.41982 3.87188 0
M  V30 3555 H 330.595 0.0149556 0.663832 0
M  V30 3556 H 333.125 0.667878 1.93392 0
M  V30 3557 H 333.135 -0.579332 4.03866 0
M  V30 3558 H 331.81 0.570167 4.11973 0
M  V30 3559 H 330.387 -1.16762 3.54148 0
M  V30 3560 N 332.573 -1.56217 0.208337 0
M  V30 3561 C 333.801 -2.02337 -0.43215 0
M  V30 3562 C 334.216 -1.08834 -1.54275 0
M  V30 3563 O 333.573 -0.0955462 -1.8225 0
M  V30 3564 C 333.624 -3.48072 -0.976138 0
M  V30 3565 O 333.345 -4.38007 0.0901621 0
M  V30 3566 C 334.846 -4.09773 -1.69119 0
M  V30 3567 H 332.066 -0.662385 -0.10718 0
M  V30 3568 H 334.61 -2.01966 0.320923 0
M  V30 3569 H 332.765 -3.49099 -1.67954 0
M  V30 3570 H 333.179 -5.23543 -0.316701 0
M  V30 3571 H 334.653 -5.13556 -2.02397 0
M  V30 3572 H 335.13 -3.53999 -2.59964 0
M  V30 3573 H 335.736 -4.12556 -1.03332 0
M  V30 3574 N 334.051 0.0651679 -1.57465 0
M  V30 3575 C 335.328 0.79644 -1.78651 0
M  V30 3576 C 335.708 1.95454 -0.797566 0
M  V30 3577 O 335.056 2.27882 0.167946 0
M  V30 3578 C 335.266 1.26322 -3.25337 0
M  V30 3579 C 336.614 1.6939 -3.89348 0
M  V30 3580 O 337.638 1.35872 -3.29268 0
M  V30 3581 O 336.497 2.31471 -4.95059 0
M  V30 3582 H 333.591 0.382157 -0.733407 0
M  V30 3583 H 336.137 0.0447311 -1.69641 0
M  V30 3584 H 334.909 0.434859 -3.88876 0
M  V30 3585 H 334.532 2.07604 -3.39096 0
M  V30 3586 N 335.529 1.53961 0.336706 0
M  V30 3587 C 336.492 1.81724 1.39675 0
M  V30 3588 C 337.492 0.688532 1.45313 0
M  V30 3589 O 338.682 0.956829 1.45569 0
M  V30 3590 C 335.814 1.96543 2.78538 0
M  V30 3591 H 337.007 2.76424 1.16318 0
M  V30 3592 H 334.56 1.45478 0.571474 0
M  V30 3593 H 335.295 1.0401 3.07168 0
M  V30 3594 H 335.08 2.78665 2.75841 0
M  V30 3595 H 336.57 2.19516 3.5525 0
M  V30 3596 N 337.007 -0.598083 1.45811 0
M  V30 3597 C 338.255 -1.35413 1.50026 0
M  V30 3598 C 338.576 -1.94444 0.147177 0
M  V30 3599 O 337.846 -1.77701 -0.824571 0
M  V30 3600 H 336.426 -0.502727 0.552517 0
M  V30 3601 H 339.088 -0.701606 1.81834 0
M  V30 3602 H 338.184 -2.16871 2.2444 0
M  V30 3603 N 338.485 -1.33259 -0.841409 0
M  V30 3604 C 339.435 -1.19872 -1.93945 0
M  V30 3605 C 340.419 -0.102269 -1.60575 0
M  V30 3606 O 341.611 -0.330114 -1.73894 0
M  V30 3607 C 338.74 -0.937517 -3.30251 0
M  V30 3608 C 337.826 -2.07629 -3.69799 0
M  V30 3609 N 338.217 -3.32604 -3.81062 0
M  V30 3610 C 336.515 -1.98242 -3.9952 0
M  V30 3611 C 337.216 -4.07275 -4.15333 0
M  V30 3612 N 336.192 -3.35691 -4.27566 0
M  V30 3613 H 339.994 -2.14604 -2.00805 0
M  V30 3614 H 337.508 -1.2523 -1.03398 0
M  V30 3615 H 339.505 -0.822545 -4.08705 0
M  V30 3616 H 338.165 0.00128798 -3.247 0
M  V30 3617 H 339.176 -3.67382 -3.65035 0
M  V30 3618 H 335.853 -1.12005 -4.02195 0
M  V30 3619 H 337.243 -5.1511 -4.31406 0
M  V30 3620 N 339.963 1.05934 -1.16686 0
M  V30 3621 C 341.209 1.79211 -0.962023 0
M  V30 3622 C 341.564 1.85667 0.504545 0
M  V30 3623 O 340.857 1.33991 1.36956 0
M  V30 3624 C 341.051 3.23105 -1.52767 0
M  V30 3625 C 340.88 3.30673 -3.04771 0
M  V30 3626 C 339.65 3.40395 -3.73442 0
M  V30 3627 C 341.848 3.20234 -4.02436 0
M  V30 3628 N 339.83 3.37015 -5.13122 0
M  V30 3629 C 341.201 3.24138 -5.28521 0
M  V30 3630 C 343.256 3.04143 -3.9421 0
M  V30 3631 C 341.959 3.13607 -6.47336 0
M  V30 3632 C 343.985 2.94951 -5.12599 0
M  V30 3633 C 343.347 2.99481 -6.37566 0
M  V30 3634 H 339.446 0.668442 -0.405844 0
M  V30 3635 H 342.03 1.26341 -1.48142 0
M  V30 3636 H 340.201 3.74364 -1.03471 0
M  V30 3637 H 341.933 3.84579 -1.26021 0
M  V30 3638 H 338.688 3.45344 -3.2409 0
M  V30 3639 H 339.112 3.38815 -5.86117 0
M  V30 3640 H 343.754 2.99484 -2.98445 0
M  V30 3641 H 341.472 3.17022 -7.43319 0
M  V30 3642 H 345.058 2.83583 -5.08008 0
M  V30 3643 H 343.938 2.92431 -7.27636 0
M  V30 3644 N 341.441 0.965919 1.2453 0
M  V30 3645 C 342.404 0.499547 2.2369 0
M  V30 3646 C 343.404 -0.40294 1.5567 0
M  V30 3647 O 344.594 -0.19865 1.73064 0
M  V30 3648 C 341.726 -0.276792 3.39774 0
M  V30 3649 H 342.919 1.37613 2.66463 0
M  V30 3650 H 340.472 0.750324 1.37112 0
M  V30 3651 H 341.207 -1.17055 3.02438 0
M  V30 3652 H 340.992 0.370826 3.90343 0
M  V30 3653 H 342.482 -0.592175 4.1338 0
M  V30 3654 N 342.919 -1.39368 0.735821 0
M  V30 3655 C 344.165 -2.00794 0.284544 0
M  V30 3656 C 344.498 -1.58255 -1.12557 0
M  V30 3657 O 343.773 -0.811819 -1.76748 0
M  V30 3658 C 344.056 -3.58011 0.387337 0
M  V30 3659 C 343.909 -4.10566 1.83728 0
M  V30 3660 C 345.228 -4.395 -0.22975 0
M  V30 3661 H 342.347 -0.729501 0.104866 0
M  V30 3662 H 344.989 -1.65564 0.93213 0
M  V30 3663 H 343.139 -3.88154 -0.164006 0
M  V30 3664 H 344.811 -3.91139 2.44556 0
M  V30 3665 H 343.054 -3.64095 2.35833 0
M  V30 3666 H 343.725 -5.19702 1.86047 0
M  V30 3667 H 346.201 -4.15406 0.240257 0
M  V30 3668 H 345.077 -5.48752 -0.127485 0
M  V30 3669 H 345.338 -4.22062 -1.3159 0
M  V30 3670 N 344.397 -0.483516 -1.5 0
M  V30 3671 C 345.307 0.309172 -2.32554 0
M  V30 3672 C 346.323 0.984159 -1.43493 0
M  V30 3673 O 347.499 0.969399 -1.76535 0
M  V30 3674 C 344.564 1.36979 -3.18493 0
M  V30 3675 C 343.625 0.710095 -4.23387 0
M  V30 3676 C 342.858 1.72018 -5.05218 0
M  V30 3677 O 343.081 2.94813 -4.88305 0
M  V30 3678 O 342.015 1.28515 -5.8802 0
M  V30 3679 H 345.841 -0.366064 -3.01486 0
M  V30 3680 H 343.426 -0.24514 -1.47375 0
M  V30 3681 H 345.308 1.98385 -3.71781 0
M  V30 3682 H 343.983 2.02828 -2.52275 0
M  V30 3683 H 342.89 0.0567539 -3.74057 0
M  V30 3684 H 344.223 0.0943557 -4.9211 0
M  V30 3685 N 345.875 1.56104 -0.216619 0
M  V30 3686 C 346.807 2.17339 0.72776 0
M  V30 3687 C 347.82 1.14109 1.16116 0
M  V30 3688 O 349.009 1.4111 1.09317 0
M  V30 3689 C 346.109 2.73818 1.99693 0
M  V30 3690 C 345.282 4.02168 1.71988 0
M  V30 3691 C 344.341 4.43259 2.83562 0
M  V30 3692 O 343.367 5.10257 2.52244 0
M  V30 3693 N 344.569 4.08535 4.12407 0
M  V30 3694 H 347.334 2.99005 0.203983 0
M  V30 3695 H 344.895 1.61861 -0.0354289 0
M  V30 3696 H 346.887 2.9828 2.73516 0
M  V30 3697 H 345.457 1.96483 2.43132 0
M  V30 3698 H 344.677 3.85612 0.818337 0
M  V30 3699 H 345.965 4.85907 1.50903 0
M  V30 3700 H 345.363 3.54687 4.40696 0
M  V30 3701 H 343.92 4.37901 4.8279 0
M  V30 3702 N 347.353 -0.0568162 1.57498 0
M  V30 3703 C 348.599 -0.75422 1.88253 0
M  V30 3704 C 348.932 -1.76461 0.810865 0
M  V30 3705 O 348.207 -1.93691 -0.177259 0
M  V30 3706 C 348.49 -1.44878 3.2967 0
M  V30 3707 C 348.343 -0.453789 4.47505 0
M  V30 3708 C 349.662 -2.38994 3.69554 0
M  V30 3709 H 346.781 -0.272724 0.684683 0
M  V30 3710 H 349.423 -0.0172113 1.89992 0
M  V30 3711 H 347.573 -2.077 3.28318 0
M  V30 3712 H 349.245 0.170371 4.60985 0
M  V30 3713 H 347.488 0.229552 4.33192 0
M  V30 3714 H 348.159 -0.977699 5.43273 0
M  V30 3715 H 350.635 -1.86239 3.72095 0
M  V30 3716 H 349.511 -2.84587 4.69363 0
M  V30 3717 H 349.772 -3.24461 3.00296 0
M  V30 3718 N 348.832 -1.54138 -0.328536 0
M  V30 3719 C 350.078 -1.73297 -1.06488 0
M  V30 3720 C 350.433 -0.497958 -1.85844 0
M  V30 3721 O 349.726 0.509591 -1.84699 0
M  V30 3722 C 349.92 -2.9457 -2.02393 0
M  V30 3723 C 349.749 -4.29747 -1.32467 0
M  V30 3724 C 348.519 -4.93987 -1.06324 0
M  V30 3725 C 350.717 -5.08903 -0.743137 0
M  V30 3726 N 348.699 -6.13005 -0.331359 0
M  V30 3727 C 350.07 -6.19836 -0.142602 0
M  V30 3728 C 352.125 -4.93699 -0.64546 0
M  V30 3729 C 350.828 -7.17224 0.546125 0
M  V30 3730 C 352.854 -5.91393 0.0295558 0
M  V30 3731 C 352.216 -7.01674 0.619056 0
M  V30 3732 H 348.315 -0.687017 -0.373539 0
M  V30 3733 H 350.899 -1.91589 -0.346659 0
M  V30 3734 H 349.07 -2.77752 -2.71493 0
M  V30 3735 H 350.802 -3.0238 -2.68977 0
M  V30 3736 H 347.557 -4.53824 -1.35428 0
M  V30 3737 H 347.981 -6.76997 0.0202939 0
M  V30 3738 H 352.623 -4.08589 -1.08695 0
M  V30 3739 H 350.341 -8.01896 0.999459 0
M  V30 3740 H 353.927 -5.81706 0.104705 0
M  V30 3741 H 352.807 -7.75971 1.13309 0
M  V30 3742 N 350.31 0.590341 -1.46126 0
M  V30 3743 C 351.54 1.37304 -1.54373 0
M  V30 3744 C 351.948 1.88332 -0.181071 0
M  V30 3745 O 351.291 1.63852 0.830559 0
M  V30 3746 C 351.353 2.6012 -2.48149 0
M  V30 3747 C 351.017 2.30613 -3.94546 0
M  V30 3748 C 352.014 1.89915 -4.83971 0
M  V30 3749 C 349.699 2.42993 -4.39613 0
M  V30 3750 C 351.693 1.61981 -6.16475 0
M  V30 3751 C 349.38 2.14672 -5.72153 0
M  V30 3752 C 350.378 1.7423 -6.60404 0
M  V30 3753 O 350.066 1.46251 -7.90485 0
M  V30 3754 H 349.798 0.426086 -0.524811 0
M  V30 3755 H 352.352 0.72539 -1.92165 0
M  V30 3756 H 350.582 3.27664 -2.05361 0
M  V30 3757 H 352.271 3.22182 -2.46887 0
M  V30 3758 H 353.037 1.79872 -4.50412 0
M  V30 3759 H 348.916 2.73435 -3.71153 0
M  V30 3760 H 352.46 1.30341 -6.85315 0
M  V30 3761 H 348.357 2.24337 -6.05263 0
M  V30 3762 H 349.125 1.6016 -8.02677 0
M  V30 3763 N 351.788 1.33704 0.83433 0
M  V30 3764 C 352.736 1.24323 1.96587 0
M  V30 3765 C 353.73 0.143659 1.6879 0
M  V30 3766 O 354.936 0.30791 1.77347 0
M  V30 3767 H 351.311 0.385925 0.645419 0
M  V30 3768 H 353.282 2.19978 2.01624 0
M  V30 3769 C 352.031 1.00394 3.32891 0
M  V30 3770 H 351.354 1.84231 3.54822 0
M  V30 3771 H 352.794 0.97862 4.12552 0
M  V30 3772 C 351.253 -0.293047 3.35623 0
M  V30 3773 O 351.783 -1.29823 3.80143 0
M  V30 3774 N 349.989 -0.322174 2.88809 0
M  V30 3775 H 349.536 0.496379 2.52772 0
M  V30 3776 H 349.494 -1.18977 2.91019 0
M  V30 3777 N 353.266 -1.05314 1.17247 0
M  V30 3778 C 354.514 -1.77941 0.958194 0
M  V30 3779 C 354.835 -1.88089 -0.514556 0
M  V30 3780 O 354.105 -1.39676 -1.37359 0
M  V30 3781 H 352.685 -0.659116 0.351533 0
M  V30 3782 H 355.347 -1.27166 1.47699 0
M  V30 3783 H 354.443 -2.79663 1.38546 0
M  V30 3784 N 354.744 -0.972509 -1.24016 0
M  V30 3785 C 355.691 -0.505969 -2.25186 0
M  V30 3786 C 356.661 0.451009 -1.5986 0
M  V30 3787 O 357.846 0.360307 -1.87367 0
M  V30 3788 C 354.986 0.193089 -3.44559 0
M  V30 3789 C 354.099 -0.803222 -4.24467 0
M  V30 3790 C 353.234 -0.0797793 -5.3114 0
M  V30 3791 C 352.273 -1.06583 -6.02749 0
M  V30 3792 N 351.41 -0.372074 -7.01113 0
M  V30 3793 H 356.25 -1.37351 -2.64459 0
M  V30 3794 H 353.787 -0.688419 -1.29997 0
M  V30 3795 H 355.745 0.615125 -4.1264 0
M  V30 3796 H 354.375 1.02455 -3.06109 0
M  V30 3797 H 353.427 -1.34368 -3.55878 0
M  V30 3798 H 354.739 -1.55494 -4.73944 0
M  V30 3799 H 353.893 0.400015 -6.0538 0
M  V30 3800 H 352.632 0.704597 -4.82583 0
M  V30 3801 H 351.637 -1.55645 -5.27309 0
M  V30 3802 H 352.862 -1.85074 -6.53395 0
M  V30 3803 H 350.808 0.393238 -6.5482 0
M  V30 3804 H 350.725 -1.06258 -7.48495 0
M  V30 3805 H 351.993 0.0855932 -7.79453 0
M  V30 3806 N 356.222 1.38976 -0.743202 0
M  V30 3807 C 357.469 2.00343 -0.294752 0
M  V30 3808 C 357.797 1.58983 1.12047 0
M  V30 3809 O 357.052 0.813809 1.77977 0
M  V30 3810 C 357.351 3.55647 -0.353517 0
M  V30 3811 C 357.017 4.16685 -1.72292 0
M  V30 3812 C 355.679 4.3307 -2.09771 0
M  V30 3813 C 358.031 4.50464 -2.62168 0
M  V30 3814 C 355.359 4.80526 -3.36618 0
M  V30 3815 C 357.711 4.99332 -3.88395 0
M  V30 3816 C 356.375 5.13924 -4.25956 0
M  V30 3817 H 355.645 0.733108 -0.107857 0
M  V30 3818 H 358.292 1.6618 -0.951651 0
M  V30 3819 H 356.597 3.89884 0.386954 0
M  V30 3820 H 358.294 4.00998 0.0117269 0
M  V30 3821 H 354.884 4.04339 -1.42155 0
M  V30 3822 H 359.068 4.37416 -2.3448 0
M  V30 3823 H 354.324 4.90008 -3.65653 0
M  V30 3824 H 358.498 5.2444 -4.58187 0
M  V30 3825 H 356.125 5.50457 -5.2431 0
M  V30 3826 N 357.7 0.491464 1.49741 0
M  V30 3827 C 358.93 -0.0534375 2.06531 0
M  V30 3828 C 359.338 -1.32233 1.35318 0
M  V30 3829 O 358.681 -1.78781 0.422243 0
M  V30 3830 C 358.743 -0.387034 3.57411 0
M  V30 3831 C 358.407 0.782764 4.50246 0
M  V30 3832 C 359.404 1.67059 4.92329 0
M  V30 3833 C 357.089 0.978866 4.9267 0
M  V30 3834 C 359.083 2.73874 5.75562 0
M  V30 3835 C 356.77 2.05022 5.75682 0
M  V30 3836 C 357.768 2.92851 6.17031 0
M  V30 3837 O 357.456 3.98138 6.98385 0
M  V30 3838 H 357.188 0.0129324 0.675876 0
M  V30 3839 H 359.742 0.685238 1.93633 0
M  V30 3840 H 357.972 -1.17918 3.68283 0
M  V30 3841 H 359.661 -0.869419 3.96479 0
M  V30 3842 H 360.427 1.53086 4.60206 0
M  V30 3843 H 356.306 0.304646 4.59992 0
M  V30 3844 H 359.85 3.42458 6.07757 0
M  V30 3845 H 355.747 2.18993 6.07217 0
M  V30 3846 H 356.515 3.95374 7.16674 0
M  V30 3847 N 359.178 -1.55987 0.224894 0
M  V30 3848 C 360.426 -1.97998 -0.405099 0
M  V30 3849 C 360.747 -1.11387 -1.60056 0
M  V30 3850 O 360.017 -0.191645 -1.9496 0
M  V30 3851 H 358.597 -0.731235 -0.152658 0
M  V30 3852 H 361.259 -1.92279 0.318567 0
M  V30 3853 H 360.355 -3.03463 -0.729167 0
M  V30 3854 N 360.656 0.0484629 -1.57525 0
M  V30 3855 C 361.881 0.759177 -1.93006 0
M  V30 3856 C 362.306 1.69125 -0.823317 0
M  V30 3857 O 361.664 1.79931 0.222364 0
M  V30 3858 C 361.712 1.50899 -3.27509 0
M  V30 3859 O 360.816 2.62112 -3.18388 0
M  V30 3860 H 360.157 0.205564 -0.631379 0
M  V30 3861 H 362.687 0.00972959 -2.04598 0
M  V30 3862 H 362.697 1.88317 -3.6194 0
M  V30 3863 H 361.372 0.825269 -4.0763 0
M  V30 3864 H 359.949 2.27379 -2.95556 0
M  V30 3865 N 362.134 1.5431 0.320358 0
M  V30 3866 C 363.545 1.63872 0.894594 0
M  V30 3867 C 363.896 0.534847 1.88769 0
M  V30 3868 O 363.021 -0.331732 2.13842 0
M  V30 3869 C 363.616 2.97049 1.62934 0
M  V30 3870 C 362.175 3.08796 2.15226 0
M  V30 3871 C 361.322 2.59456 0.978671 0
M  V30 3872 H 364.273 1.58398 0.0978544 0
M  V30 3873 H 364.294 2.87388 2.49376 0
M  V30 3874 H 363.806 3.7737 0.906302 0
M  V30 3875 H 361.907 2.33156 2.90636 0
M  V30 3876 H 362.02 4.14649 2.40006 0
M  V30 3877 H 360.384 2.1543 1.35875 0
M  V30 3878 H 361.167 3.42237 0.269895 0
M  V30 3879 N 363.613 -0.582584 1.46437 0
M  V30 3880 C 364.523 -1.71949 1.59595 0
M  V30 3881 C 365.539 -1.67264 0.479443 0
M  V30 3882 O 366.715 -1.87171 0.743579 0
M  V30 3883 C 363.78 -3.08452 1.58298 0
M  V30 3884 C 362.841 -3.244 2.81182 0
M  V30 3885 C 362.074 -4.54391 2.79937 0
M  V30 3886 O 362.297 -5.38287 1.8869 0
M  V30 3887 O 361.231 -4.73588 3.71481 0
M  V30 3888 H 365.057 -1.63795 2.55744 0
M  V30 3889 H 362.642 -0.749643 1.29231 0
M  V30 3890 H 364.524 -3.89732 1.60271 0
M  V30 3891 H 363.199 -3.17043 0.653094 0
M  V30 3892 H 362.106 -2.42613 2.84763 0
M  V30 3893 H 363.439 -3.20699 3.7338 0
M  V30 3894 N 365.091 -1.34144 -0.827227 0
M  V30 3895 C 366.001 -1.27428 -1.96975 0
M  V30 3896 C 367.017 -0.182728 -1.73038 0
M  V30 3897 O 368.193 -0.408426 -1.97215 0
M  V30 3898 C 365.258 -1.02526 -3.31194 0
M  V30 3899 C 364.319 -2.20796 -3.68168 0
M  V30 3900 C 363.552 -1.97073 -4.95982 0
M  V30 3901 O 363.775 -0.926822 -5.6282 0
M  V30 3902 O 362.709 -2.83912 -5.30733 0
M  V30 3903 H 366.535 -2.23537 -2.05584 0
M  V30 3904 H 364.12 -1.14307 -0.961989 0
M  V30 3905 H 366.002 -0.904026 -4.11589 0
M  V30 3906 H 364.677 -0.0945389 -3.23562 0
M  V30 3907 H 363.584 -2.38477 -2.88235 0
M  V30 3908 H 364.917 -3.12243 -3.8048 0
M  V30 3909 N 366.569 1.04691 -1.17803 0
M  V30 3910 C 367.499 2.14494 -0.92275 0
M  V30 3911 C 368.48 1.69546 0.137179 0
M  V30 3912 O 369.665 1.94195 -0.0141108 0
M  V30 3913 C 366.795 3.44491 -0.440803 0
M  V30 3914 C 365.749 4.03031 -1.4405 0
M  V30 3915 C 365.075 5.28432 -0.81631 0
M  V30 3916 C 366.375 4.39932 -2.81527 0
M  V30 3917 H 368.069 2.36107 -1.84103 0
M  V30 3918 H 365.615 1.1347 -0.886599 0
M  V30 3919 H 367.568 4.2066 -0.249602 0
M  V30 3920 H 366.292 3.22546 0.513025 0
M  V30 3921 H 364.951 3.28937 -1.61853 0
M  V30 3922 H 364.599 5.02792 0.144511 0
M  V30 3923 H 364.299 5.68559 -1.48371 0
M  V30 3924 H 365.823 6.07284 -0.635496 0
M  V30 3925 H 367.237 5.07113 -2.67412 0
M  V30 3926 H 365.634 4.9109 -3.44892 0
M  V30 3927 H 366.704 3.50045 -3.35554 0
M  V30 3928 N 368.047 0.979072 1.23499 0
M  V30 3929 C 369.01 0.523244 2.23147 0
M  V30 3930 C 370.01 -0.386406 1.56088 0
M  V30 3931 O 371.2 -0.180283 1.73265 0
M  V30 3932 C 368.332 -0.240739 3.40049 0
M  V30 3933 H 369.525 1.40432 2.64989 0
M  V30 3934 H 367.078 0.764824 1.36309 0
M  V30 3935 H 367.813 -1.13841 3.03662 0
M  V30 3936 H 367.598 0.412207 3.89927 0
M  V30 3937 H 369.088 -0.548297 4.13985 0
M  V30 3938 N 369.525 -1.3858 0.750561 0
M  V30 3939 C 370.941 -1.53759 0.427824 0
M  V30 3940 C 371.141 -1.71401 -1.05943 0
M  V30 3941 O 370.197 -1.72331 -1.84549 0
M  V30 3942 C 371.51 -2.74642 1.22443 0
M  V30 3943 C 373.058 -2.88489 1.2142 0
M  V30 3944 C 373.533 -4.12329 1.9937 0
M  V30 3945 N 375.024 -4.194 1.96616 0
M  V30 3946 C 375.759 -5.14209 2.53727 0
M  V30 3947 N 375.255 -6.14709 3.19539 0
M  V30 3948 N 377.048 -5.06537 2.43673 0
M  V30 3949 H 369.199 -1.25377 1.71447 0
M  V30 3950 H 371.462 -0.608844 0.726645 0
M  V30 3951 H 371.168 -2.68 2.27747 0
M  V30 3952 H 371.042 -3.67745 0.839273 0
M  V30 3953 H 373.429 -2.94614 0.169232 0
M  V30 3954 H 373.51 -1.96406 1.63885 0
M  V30 3955 H 373.154 -4.06966 3.03877 0
M  V30 3956 H 373.084 -5.03486 1.54302 0
M  V30 3957 H 375.575 -3.47421 1.48684 0
M  V30 3958 H 375.888 -6.8354 3.60545 0
M  V30 3959 H 374.233 -6.1505 3.23633 0
M  V30 3960 H 377.424 -4.26962 1.91889 0
M  V30 3961 H 377.597 -5.80245 2.88479 0
M  V30 3962 N 371.003 -0.499398 -1.49478 0
M  V30 3963 C 371.95 0.279881 -2.29097 0
M  V30 3964 C 372.92 0.961805 -1.3542 0
M  V30 3965 O 374.105 0.968777 -1.64376 0
M  V30 3966 C 371.245 1.33932 -3.18051 0
M  V30 3967 C 370.358 0.669333 -4.26783 0
M  V30 3968 C 369.493 1.70907 -5.02955 0
M  V30 3969 C 368.532 1.02087 -6.03527 0
M  V30 3970 N 367.669 2.00474 -6.7287 0
M  V30 3971 H 372.509 -0.405317 -2.95231 0
M  V30 3972 H 370.046 -0.211726 -1.45568 0
M  V30 3973 H 372.004 1.96553 -3.67998 0
M  V30 3974 H 370.634 1.9933 -2.53904 0
M  V30 3975 H 369.686 -0.0701234 -3.80335 0
M  V30 3976 H 370.998 0.127503 -4.98637 0
M  V30 3977 H 370.152 2.41037 -5.56764 0
M  V30 3978 H 368.891 2.28476 -4.30871 0
M  V30 3979 H 367.896 0.305338 -5.48951 0
M  V30 3980 H 369.121 0.451708 -6.77596 0
M  V30 3981 H 367.067 2.57007 -6.03559 0
M  V30 3982 H 366.984 1.51353 -7.40694 0
M  V30 3983 H 368.252 2.69897 -7.31284 0
M  V30 3984 N 372.481 1.55866 -0.233164 0
M  V30 3985 C 373.711 2.02704 0.399325 0
M  V30 3986 C 374.119 1.11204 1.53069 0
M  V30 3987 O 373.462 0.116182 1.83332 0
M  V30 3988 C 373.524 3.45844 0.981429 0
M  V30 3989 C 373.188 4.56997 -0.0159561 0
M  V30 3990 C 374.185 5.13384 -0.820552 0
M  V30 3991 C 371.87 5.0211 -0.138072 0
M  V30 3992 C 373.864 6.13365 -1.73386 0
M  V30 3993 C 371.551 6.01926 -1.0549 0
M  V30 3994 C 372.549 6.57431 -1.85132 0
M  V30 3995 O 372.237 7.55302 -2.75272 0
M  V30 3996 H 371.969 0.668459 0.100692 0
M  V30 3997 H 374.523 2.02387 -0.35052 0
M  V30 3998 H 372.753 3.43267 1.78058 0
M  V30 3999 H 374.442 3.76262 1.52255 0
M  V30 4000 H 375.208 4.79372 -0.736721 0
M  V30 4001 H 371.087 4.5858 0.471737 0
M  V30 4002 H 374.631 6.56614 -2.35592 0
M  V30 4003 H 370.528 6.35359 -1.1397 0
M  V30 4004 H 371.296 7.72867 -2.69477 0
M  V30 4005 N 373.959 -0.0401083 1.57549 0
M  V30 4006 C 374.922 -1.02871 2.04817 0
M  V30 4007 C 375.922 -1.29708 0.950388 0
M  V30 4008 O 377.112 -1.24897 1.21435 0
M  V30 4009 C 374.244 -2.36443 2.45576 0
M  V30 4010 H 375.437 -0.620631 2.93408 0
M  V30 4011 H 372.99 -0.286667 1.53649 0
M  V30 4012 H 373.725 -2.82021 1.60108 0
M  V30 4013 H 373.51 -2.18296 3.25713 0
M  V30 4014 H 375 -3.07441 2.82612 0
M  V30 4015 N 375.437 -1.54477 -0.31217 0
M  V30 4016 C 376.714 -1.63891 -1.06767 0
M  V30 4017 C 377.094 -0.480028 -2.0557 0
M  V30 4018 O 376.442 0.524487 -2.22399 0
M  V30 4019 C 376.652 -3.01402 -1.75948 0
M  V30 4020 C 378 -3.57838 -2.28554 0
M  V30 4021 O 379.024 -3.03782 -1.85998 0
M  V30 4022 O 377.883 -4.52462 -3.06497 0
M  V30 4023 H 374.977 -0.664125 -0.492816 0
M  V30 4024 H 377.523 -1.66823 -0.311149 0
M  V30 4025 H 376.295 -3.77187 -1.04144 0
M  V30 4026 H 375.918 -3.02199 -2.58383 0
M  V30 4027 N 376.915 0.57481 -1.46744 0
M  V30 4028 C 378.163 1.33009 -1.52161 0
M  V30 4029 C 378.484 1.94185 -0.178092 0
M  V30 4030 O 377.754 1.7899 0.796196 0
M  V30 4031 H 376.334 0.493873 -0.560445 0
M  V30 4032 H 378.996 0.672589 -1.82927 0
M  V30 4033 H 378.092 2.13273 -2.27862 0
M  V30 4034 N 378.394 1.34581 0.820102 0
M  V30 4035 C 379.304 1.28471 1.96297 0
M  V30 4036 C 380.32 0.191902 1.72939 0
M  V30 4037 O 381.496 0.418879 1.96996 0
M  V30 4038 C 378.561 1.04281 3.30645 0
M  V30 4039 C 377.622 2.22745 3.66992 0
M  V30 4040 C 376.855 1.997 4.9493 0
M  V30 4041 O 377.078 0.956656 5.6232 0
M  V30 4042 O 376.012 2.86723 5.2922 0
M  V30 4043 H 379.838 2.24624 2.04396 0
M  V30 4044 H 377.423 1.14816 0.955913 0
M  V30 4045 H 379.305 0.925841 4.11104 0
M  V30 4046 H 377.98 0.111697 3.23507 0
M  V30 4047 H 376.887 2.40003 2.86966 0
M  V30 4048 H 378.22 3.14257 3.78819 0
M  V30 4049 N 379.872 -1.04064 1.18357 0
M  V30 4050 C 381.118 -1.77528 0.980397 0
M  V30 4051 C 381.451 -1.87948 -0.48879 0
M  V30 4052 O 380.726 -1.3876 -1.36293 0
M  V30 4053 C 381.009 -3.20797 1.63588 0
M  V30 4054 C 380.862 -3.1832 3.17793 0
M  V30 4055 C 382.181 -4.18911 1.34914 0
M  V30 4056 H 379.3 -0.644443 0.357578 0
M  V30 4057 H 381.942 -1.2156 1.46024 0
M  V30 4058 H 380.092 -3.68586 1.22788 0
M  V30 4059 H 381.764 -2.78521 3.67728 0
M  V30 4060 H 380.007 -2.56351 3.49952 0
M  V30 4061 H 380.678 -4.19489 3.58794 0
M  V30 4062 H 383.154 -3.7967 1.70265 0
M  V30 4063 H 382.03 -5.17374 1.83346 0
M  V30 4064 H 382.291 -4.41262 0.272027 0
M  V30 4065 N 381.35 -0.985608 -1.22978 0
M  V30 4066 C 382.627 -0.573599 -1.87001 0
M  V30 4067 C 383.007 0.949213 -1.88555 0
M  V30 4068 O 382.355 1.82811 -1.37086 0
M  V30 4069 C 382.565 -1.18564 -3.28243 0
M  V30 4070 C 383.913 -1.28163 -4.04796 0
M  V30 4071 O 384.937 -1.13949 -3.37482 0
M  V30 4072 O 383.796 -1.50832 -5.25273 0
M  V30 4073 H 380.89 -0.193868 -0.803955 0
M  V30 4074 H 383.436 -1.08102 -1.30813 0
M  V30 4075 H 382.208 -2.22758 -3.21706 0
M  V30 4076 H 381.831 -0.663363 -3.92027 0
M  V30 4077 N 382.828 1.3818 -0.7579 0
M  V30 4078 C 384.074 2.00316 -0.316453 0
M  V30 4079 C 384.407 1.60026 1.10025 0
M  V30 4080 O 383.682 0.839835 1.75434 0
M  V30 4081 C 383.965 3.57349 -0.444245 0
M  V30 4082 C 383.818 4.07591 -1.90236 0
M  V30 4083 C 385.137 4.3981 0.1598 0
M  V30 4084 H 382.256 0.727741 -0.116459 0
M  V30 4085 H 384.898 1.6406 -0.958352 0
M  V30 4086 H 383.048 3.88365 0.102233 0
M  V30 4087 H 384.72 3.87199 -2.50748 0
M  V30 4088 H 382.963 3.60297 -2.41595 0
M  V30 4089 H 383.634 5.16677 -1.94291 0
M  V30 4090 H 386.11 4.14971 -0.306314 0
M  V30 4091 H 384.986 5.48885 0.0401675 0
M  V30 4092 H 385.247 4.24102 1.24859 0
M  V30 4093 N 384.306 0.507319 1.49211 0
M  V30 4094 C 385.552 -0.0350047 2.0277 0
M  V30 4095 C 385.885 -1.3606 1.38569 0
M  V30 4096 O 385.16 -1.87321 0.523542 0
M  V30 4097 C 385.443 -0.180916 3.59645 0
M  V30 4098 C 385.296 1.16825 4.34364 0
M  V30 4099 C 386.615 -0.918558 4.30407 0
M  V30 4100 H 383.734 -0.0112473 0.736914 0
M  V30 4101 H 386.376 0.659956 1.7817 0
M  V30 4102 H 384.526 -0.772826 3.80736 0
M  V30 4103 H 386.198 1.79952 4.24753 0
M  V30 4104 H 384.441 1.75594 3.96673 0
M  V30 4105 H 385.112 1.01939 5.42506 0
M  V30 4106 H 387.588 -0.41649 4.1401 0
M  V30 4107 H 386.464 -0.989505 5.39907 0
M  V30 4108 H 386.725 -1.96373 3.96093 0
M  V30 4109 N 385.784 -1.5574 0.241426 0
M  V30 4110 C 387.03 -1.99104 -0.385406 0
M  V30 4111 C 387.363 -1.1293 -1.57988 0
M  V30 4112 O 386.638 -0.191449 -1.93555 0
M  V30 4113 C 386.921 -3.51087 -0.800616 0
M  V30 4114 C 386.774 -4.48028 0.398874 0
M  V30 4115 C 388.093 -4.08015 -1.64959 0
M  V30 4116 H 385.212 -0.723848 -0.138614 0
M  V30 4117 H 387.854 -1.86903 0.341642 0
M  V30 4118 H 386.004 -3.61615 -1.4201 0
M  V30 4119 H 387.676 -4.49487 1.03726 0
M  V30 4120 H 385.919 -4.21077 1.04293 0
M  V30 4121 H 386.59 -5.51962 0.0651056 0
M  V30 4122 H 389.066 -4.00555 -1.12672 0
M  V30 4123 H 387.942 -5.14635 -1.90898 0
M  V30 4124 H 388.203 -3.56131 -2.61961 0
M  V30 4125 N 387.262 0.0317525 -1.57568 0
M  V30 4126 C 388.192 1.03274 -2.0942 0
M  V30 4127 C 389.173 1.3788 -0.996143 0
M  V30 4128 O 390.358 1.46811 -1.27122 0
M  V30 4129 C 387.488 2.33448 -2.57137 0
M  V30 4130 C 386.442 2.13091 -3.71182 0
M  V30 4131 C 385.768 3.49001 -4.05095 0
M  V30 4132 C 387.068 1.51928 -4.99715 0
M  V30 4133 H 388.762 0.60112 -2.93303 0
M  V30 4134 H 386.308 0.287705 -1.41097 0
M  V30 4135 H 388.261 3.03802 -2.92032 0
M  V30 4136 H 386.985 2.78665 -1.70333 0
M  V30 4137 H 385.644 1.45171 -3.36632 0
M  V30 4138 H 385.292 3.91862 -3.15362 0
M  V30 4139 H 384.992 3.36207 -4.81911 0
M  V30 4140 H 386.516 4.20721 -4.42522 0
M  V30 4141 H 387.93 2.12196 -5.32584 0
M  V30 4142 H 386.327 1.49716 -5.81124 0
M  V30 4143 H 387.397 0.484811 -4.8247 0
M  V30 4144 N 388.74 1.54641 0.303973 0
M  V30 4145 C 389.65 1.88439 1.39743 0
M  V30 4146 C 390.666 0.778239 1.55626 0
M  V30 4147 O 391.842 1.07442 1.70347 0
M  V30 4148 C 388.907 2.12212 2.74166 0
M  V30 4149 C 387.968 3.35936 2.67293 0
M  V30 4150 C 387.201 3.58566 3.95305 0
M  V30 4151 O 387.424 2.84263 4.9452 0
M  V30 4152 O 386.358 4.52078 3.97378 0
M  V30 4153 H 390.184 2.81458 1.14083 0
M  V30 4154 H 387.769 1.40793 0.499768 0
M  V30 4155 H 389.651 2.29067 3.53704 0
M  V30 4156 H 388.326 1.22379 2.99675 0
M  V30 4157 H 387.233 3.24448 1.86237 0
M  V30 4158 H 388.566 4.2589 2.46736 0
M  V30 4159 N 390.218 -0.567019 1.47046 0
M  V30 4160 C 391.495 -1.3276 1.43646 0
M  V30 4161 C 391.875 -2.1071 0.128186 0
M  V30 4162 O 391.223 -2.10441 -0.890326 0
M  V30 4163 C 391.433 -2.2404 2.67595 0
M  V30 4164 C 392.781 -2.85372 3.14401 0
M  V30 4165 O 393.805 -2.34346 2.68254 0
M  V30 4166 O 392.664 -3.78091 3.946 0
M  V30 4167 H 389.758 -0.597293 0.571988 0
M  V30 4168 H 392.304 -0.586735 1.59234 0
M  V30 4169 H 391.076 -1.65975 3.54356 0
M  V30 4170 H 390.699 -3.05439 2.54544 0
M  V30 4171 N 391.696 -1.35014 -0.812953 0
M  V30 4172 C 393.107 -1.25035 -1.38648 0
M  V30 4173 C 393.458 0.119967 -1.95833 0
M  V30 4174 O 392.583 1.02069 -1.90816 0
M  V30 4175 C 393.178 -2.26394 -2.52054 0
M  V30 4176 C 391.737 -2.20175 -3.05287 0
M  V30 4177 C 390.884 -2.12451 -1.78213 0
M  V30 4178 H 393.835 -1.46235 -0.616516 0
M  V30 4179 H 393.856 -1.88672 -3.30429 0
M  V30 4180 H 393.368 -3.26116 -2.10404 0
M  V30 4181 H 391.469 -1.23841 -3.51417 0
M  V30 4182 H 391.582 -3.11863 -3.63701 0
M  V30 4183 H 389.946 -1.58328 -1.9951 0
M  V30 4184 H 390.729 -3.14024 -1.38723 0
M  V30 4185 N 393.175 1.03435 -1.18907 0
M  V30 4186 C 394.105 2.13503 -0.945448 0
M  V30 4187 C 395.086 1.69682 0.119189 0
M  V30 4188 O 396.271 1.94169 -0.034707 0
M  V30 4189 C 393.401 3.44004 -0.477316 0
M  V30 4190 C 392.355 4.0148 -1.48316 0
M  V30 4191 C 391.681 5.27537 -0.872311 0
M  V30 4192 C 392.981 4.36921 -2.86177 0
M  V30 4193 H 394.675 2.34141 -1.86597 0
M  V30 4194 H 392.221 1.12523 -0.898584 0
M  V30 4195 H 394.174 4.20372 -0.294204 0
M  V30 4196 H 392.898 3.23072 0.478786 0
M  V30 4197 H 391.557 3.27201 -1.65332 0
M  V30 4198 H 391.205 5.02917 0.0911752 0
M  V30 4199 H 390.905 5.66954 -1.54393 0
M  V30 4200 H 392.429 6.06576 -0.699871 0
M  V30 4201 H 393.843 5.04248 -2.72776 0
M  V30 4202 H 392.24 4.87405 -3.50081 0
M  V30 4203 H 393.31 3.46466 -3.39248 0
M  V30 4204 N 394.653 0.992116 1.22453 0
M  V30 4205 C 396.064 0.702776 1.72968 0
M  V30 4206 C 396.415 -0.780399 1.80012 0
M  V30 4207 O 395.54 -1.61007 1.44589 0
M  V30 4208 C 396.135 1.26903 3.14135 0
M  V30 4209 C 394.694 1.02909 3.62059 0
M  V30 4210 C 393.841 1.38969 2.39964 0
M  V30 4211 H 396.792 1.16457 1.07812 0
M  V30 4212 H 396.813 0.647223 3.74955 0
M  V30 4213 H 396.325 2.34851 3.08977 0
M  V30 4214 H 394.426 -0.0337979 3.72585 0
M  V30 4215 H 394.539 1.69191 4.48231 0
M  V30 4216 H 392.903 0.808279 2.41535 0
M  V30 4217 H 393.686 2.4792 2.37467 0
M  V30 4218 N 396.131 -1.37776 0.765217 0
M  V30 4219 C 397.379 -1.99454 0.325943 0
M  V30 4220 C 397.7 -1.61049 -1.09947 0
M  V30 4221 O 396.97 -0.872821 -1.75381 0
M  V30 4222 H 395.55 -0.737697 0.117525 0
M  V30 4223 H 398.212 -1.68359 0.981895 0
M  V30 4224 H 397.308 -3.09547 0.398353 0
M  V30 4225 N 397.609 -0.515225 -1.4894 0
M  V30 4226 C 398.857 0.0241671 -2.02086 0
M  V30 4227 C 399.178 1.3616 -1.3959 0
M  V30 4228 O 398.448 1.87841 -0.556121 0
M  V30 4229 H 397.028 0.0119203 -0.746905 0
M  V30 4230 H 399.69 -0.675702 -1.82812 0
M  V30 4231 H 398.786 0.143385 -3.1177 0
M  V30 4232 N 399.087 1.5561 -0.249682 0
M  V30 4233 C 400.034 2.21496 0.648694 0
M  V30 4234 C 401.004 1.17977 1.16921 0
M  V30 4235 O 402.189 1.46434 1.22318 0
M  V30 4236 C 399.329 2.92039 1.83868 0
M  V30 4237 C 398.442 4.10219 1.35442 0
M  V30 4238 C 397.577 4.6847 2.50419 0
M  V30 4239 C 396.616 5.78893 1.98869 0
M  V30 4240 N 395.753 6.31315 3.07223 0
M  V30 4241 H 400.593 2.97892 0.0801582 0
M  V30 4242 H 398.13 1.47074 0.0278031 0
M  V30 4243 H 400.088 3.31138 2.53778 0
M  V30 4244 H 398.718 2.18111 2.37965 0
M  V30 4245 H 397.77 3.76413 0.54928 0
M  V30 4246 H 399.082 4.89927 0.936649 0
M  V30 4247 H 398.236 5.10158 3.28366 0
M  V30 4248 H 396.975 3.87984 2.95499 0
M  V30 4249 H 395.98 5.3668 1.19393 0
M  V30 4250 H 397.205 6.61232 1.54755 0
M  V30 4251 H 395.151 5.53733 3.51732 0
M  V30 4252 H 395.068 7.06224 2.69784 0
M  V30 4253 H 396.336 6.77662 3.8522 0
M  V30 4254 N 400.565 -0.0233959 1.57583 0
M  V30 4255 C 401.813 -0.711654 1.89156 0
M  V30 4256 C 402.134 -1.75591 0.848096 0
M  V30 4257 O 401.404 -1.95547 -0.117566 0
M  V30 4258 H 399.984 -0.265835 0.698098 0
M  V30 4259 H 402.646 0.0119948 1.94896 0
M  V30 4260 H 401.742 -1.19766 2.88206 0
M  V30 4261 N 402.043 -1.548 -0.295768 0
M  V30 4262 C 402.993 -1.82497 -1.3667 0
M  V30 4263 C 403.977 -0.682434 -1.45711 0
M  V30 4264 O 405.169 -0.943207 -1.49775 0
M  V30 4265 C 402.298 -2.08036 -2.73086 0
M  V30 4266 C 401.384 -3.28488 -2.68247 0
M  V30 4267 N 401.775 -4.48924 -2.33025 0
M  V30 4268 C 400.073 -3.3062 -2.99343 0
M  V30 4269 C 400.774 -5.30956 -2.37613 0
M  V30 4270 N 399.75 -4.68805 -2.75178 0
M  V30 4271 H 403.552 -2.73175 -1.0841 0
M  V30 4272 H 401.066 -1.5437 -0.504361 0
M  V30 4273 H 403.063 -2.26027 -3.5031 0
M  V30 4274 H 401.723 -1.18629 -3.02254 0
M  V30 4275 H 402.734 -4.75432 -2.05389 0
M  V30 4276 H 399.411 -2.51336 -3.33371 0
M  V30 4277 H 400.801 -6.37199 -2.13135 0
M  V30 4278 N 403.521 0.559213 -1.47345 0
M  V30 4279 C 404.798 1.31997 -1.44348 0
M  V30 4280 C 405.178 2.1064 -0.139358 0
M  V30 4281 O 404.526 2.1091 0.879153 0
M  V30 4282 C 404.736 2.22618 -2.68779 0
M  V30 4283 C 406.084 2.83701 -3.1591 0
M  V30 4284 O 407.108 2.32921 -2.69493 0
M  V30 4285 O 405.967 3.75993 -3.966 0
M  V30 4286 H 403.061 0.594251 -0.575147 0
M  V30 4287 H 405.607 0.578282 -1.59543 0
M  V30 4288 H 404.379 1.64093 -3.55231 0
M  V30 4289 H 404.002 3.04085 -2.5616 0
M  V30 4290 N 404.999 1.35443 0.805782 0
M  V30 4291 C 406.224 1.32037 1.59941 0
M  V30 4292 C 406.649 -0.0994215 1.87837 0
M  V30 4293 O 406.007 -1.06648 1.46615 0
M  V30 4294 C 406.055 2.13354 2.90711 0
M  V30 4295 O 405.159 1.5148 3.83572 0
M  V30 4296 H 404.5 0.452666 0.485787 0
M  V30 4297 H 407.03 1.78496 1.00002 0
M  V30 4298 H 407.04 2.25338 3.40128 0
M  V30 4299 H 405.715 3.16572 2.69732 0
M  V30 4300 H 404.292 1.4834 3.42125 0
M  V30 4301 N 406.477 -1.02803 1.19454 0
M  V30 4302 C 407.705 -1.79841 1.02297 0
M  V30 4303 C 408.12 -1.83879 -0.428259 0
M  V30 4304 O 407.477 -1.28345 -1.29745 0
M  V30 4305 C 407.528 -3.24852 1.58598 0
M  V30 4306 O 407.249 -3.21097 2.98041 0
M  V30 4307 C 408.75 -4.18485 1.46236 0
M  V30 4308 H 405.97 -0.565936 0.360496 0
M  V30 4309 H 408.514 -1.2948 1.58288 0
M  V30 4310 H 406.669 -3.72401 1.06753 0
M  V30 4311 H 407.083 -4.12033 3.24545 0
M  V30 4312 H 408.557 -5.18121 1.90407 0
M  V30 4313 H 409.034 -4.37254 0.41301 0
M  V30 4314 H 409.64 -3.76811 1.97215 0
M  V30 4315 N 407.956 -0.998596 -1.21925 0
M  V30 4316 C 408.866 -0.562736 -2.27751 0
M  V30 4317 C 409.882 0.391203 -1.69545 0
M  V30 4318 O 411.058 0.256625 -1.99758 0
M  V30 4319 C 408.123 0.11012 -3.46525 0
M  V30 4320 C 407.184 -0.887495 -4.20026 0
M  V30 4321 C 406.417 -0.246654 -5.3313 0
M  V30 4322 O 406.64 0.958088 -5.62296 0
M  V30 4323 O 405.574 -0.954374 -5.94286 0
M  V30 4324 H 409.4 -1.44329 -2.67213 0
M  V30 4325 H 406.985 -0.767135 -1.28201 0
M  V30 4326 H 408.867 0.486756 -4.18579 0
M  V30 4327 H 407.542 0.965154 -3.08976 0
M  V30 4328 H 406.449 -1.31517 -3.5022 0
M  V30 4329 H 407.782 -1.71191 -4.6147 0
M  V30 4330 N 409.434 1.37368 -0.772513 0
M  V30 4331 C 410.344 2.34053 -0.160081 0
M  V30 4332 C 411.36 1.60216 0.678728 0
M  V30 4333 O 412.536 1.92303 0.59847 0
M  V30 4334 C 409.601 3.3939 0.708182 0
M  V30 4335 C 408.662 4.29048 -0.147172 0
M  V30 4336 C 407.895 5.29354 0.679744 0
M  V30 4337 O 408.118 5.3723 1.91678 0
M  V30 4338 O 407.052 6.01835 0.0885444 0
M  V30 4339 H 410.878 2.88159 -0.959053 0
M  V30 4340 H 408.463 1.39543 -0.533685 0
M  V30 4341 H 410.345 4.03839 1.20384 0
M  V30 4342 H 409.02 2.8761 1.48533 0
M  V30 4343 H 407.927 3.67697 -0.689205 0
M  V30 4344 H 409.26 4.84134 -0.887423 0
M  V30 4345 N 410.912 0.523116 1.48665 0
M  V30 4346 C 412.323 0.0808997 1.86525 0
M  V30 4347 C 412.674 -1.33975 1.43336 0
M  V30 4348 O 411.799 -2.00221 0.821009 0
M  V30 4349 C 412.394 0.140037 3.3851 0
M  V30 4350 C 410.953 -0.246948 3.75589 0
M  V30 4351 C 410.1 0.502845 2.72703 0
M  V30 4352 H 413.051 0.734736 1.40667 0
M  V30 4353 H 413.072 -0.649945 3.74908 0
M  V30 4354 H 412.584 1.17412 3.69914 0
M  V30 4355 H 410.685 -1.28343 3.49798 0
M  V30 4356 H 410.798 0.0878859 4.79019 0
M  V30 4357 H 409.162 -0.0500581 2.54651 0
M  V30 4358 H 409.945 1.53743 3.0695 0
M  V30 4359 N 412.39 -1.55475 0.257931 0
M  V30 4360 C 413.801 -1.8511 -0.243135 0
M  V30 4361 C 414.152 -1.17986 -1.5676 0
M  V30 4362 O 413.277 -0.462102 -2.11409 0
M  V30 4363 C 413.872 -3.35826 -0.447929 0
M  V30 4364 C 412.431 -3.65647 -0.893245 0
M  V30 4365 C 411.578 -2.7729 0.0232965 0
M  V30 4366 H 414.529 -1.51261 0.480199 0
M  V30 4367 H 414.55 -3.58002 -1.28898 0
M  V30 4368 H 414.062 -3.84652 0.516196 0
M  V30 4369 H 412.163 -3.22308 -1.86945 0
M  V30 4370 H 412.276 -4.73312 -0.742469 0
M  V30 4371 H 410.64 -2.49942 -0.490021 0
M  V30 4372 H 411.423 -3.28926 0.982994 0
M  V30 4373 N 413.868 0.0150385 -1.57593 0
M  V30 4374 C 414.798 1.01047 -2.10503 0
M  V30 4375 C 415.779 1.36816 -1.01071 0
M  V30 4376 O 416.964 1.45455 -1.28672 0
M  V30 4377 C 414.094 2.30708 -2.59598 0
M  V30 4378 C 413.048 2.09142 -3.73421 0
M  V30 4379 C 412.374 3.44685 -4.08774 0
M  V30 4380 C 413.674 1.46619 -5.01298 0
M  V30 4381 H 415.368 0.569978 -2.93925 0
M  V30 4382 H 412.914 0.272724 -1.41394 0
M  V30 4383 H 414.867 3.00687 -2.95238 0
M  V30 4384 H 413.591 2.76843 -1.73279 0
M  V30 4385 H 412.25 1.41592 -3.38153 0
M  V30 4386 H 411.898 3.88495 -3.195 0
M  V30 4387 H 411.598 3.31077 -4.8545 0
M  V30 4388 H 413.122 4.16004 -4.4696 0
M  V30 4389 H 414.536 2.06535 -5.34805 0
M  V30 4390 H 412.933 1.43544 -5.82679 0
M  V30 4391 H 414.003 0.433611 -4.82957 0
M  V30 4392 N 415.346 1.54954 0.287554 0
M  V30 4393 C 416.593 1.74873 1.02106 0
M  V30 4394 C 416.921 0.541829 1.86801 0
M  V30 4395 O 416.176 -0.475992 1.89823 0
M  V30 4396 C 416.475 2.99833 1.94512 0
M  V30 4397 C 416.141 4.33029 1.25686 0
M  V30 4398 C 414.803 4.69233 1.06649 0
M  V30 4399 C 417.155 5.15542 0.765913 0
M  V30 4400 C 414.483 5.85518 0.372222 0
M  V30 4401 C 416.835 6.32542 0.0853101 0
M  V30 4402 C 415.499 6.67398 -0.1169 0
M  V30 4403 H 414.769 0.639906 0.373632 0
M  V30 4404 H 417.416 1.89219 0.294665 0
M  V30 4405 H 415.721 2.80325 2.73725 0
M  V30 4406 H 417.418 3.1244 2.51361 0
M  V30 4407 H 414.008 4.04564 1.41512 0
M  V30 4408 H 418.192 4.88059 0.90066 0
M  V30 4409 H 413.448 6.11057 0.204695 0
M  V30 4410 H 417.622 6.95741 -0.302936 0
M  V30 4411 H 415.249 7.57357 -0.656859 0
M  V30 4412 N 416.824 -0.551391 1.4764 0
M  V30 4413 C 418.049 -1.33837 1.58437 0
M  V30 4414 C 418.474 -1.866 0.237063 0
M  V30 4415 O 417.832 -1.6328 -0.787994 0
M  V30 4416 C 417.88 -2.48014 2.61766 0
M  V30 4417 O 416.984 -3.50419 2.1744 0
M  V30 4418 H 416.325 -0.397299 0.532024 0
M  V30 4419 H 418.855 -0.665759 1.93465 0
M  V30 4420 H 418.865 -2.94503 2.82369 0
M  V30 4421 H 417.54 -2.08969 3.5959 0
M  V30 4422 H 416.117 -3.10196 2.06961 0
M  V30 4423 N 418.302 -1.35869 -0.798587 0
M  V30 4424 C 419.527 -1.32883 -1.59238 0
M  V30 4425 C 419.952 0.0894587 -1.87887 0
M  V30 4426 O 419.31 1.05869 -1.47178 0
M  V30 4427 C 419.358 -2.14892 -2.89575 0
M  V30 4428 O 418.462 -1.53512 -3.82763 0
M  V30 4429 H 417.803 -0.455236 -0.48338 0
M  V30 4430 H 420.333 -1.79024 -0.990539 0
M  V30 4431 H 420.343 -2.27139 -3.38928 0
M  V30 4432 H 419.018 -3.17998 -2.68049 0
M  V30 4433 H 417.595 -1.50153 -3.41334 0
M  V30 4434 N 419.78 1.02168 -1.19998 0
M  V30 4435 C 420.73 2.08969 -0.911921 0
M  V30 4436 C 421.714 1.60404 0.12621 0
M  V30 4437 O 422.906 1.76817 -0.0804706 0
M  V30 4438 C 420.035 3.402 -0.460277 0
M  V30 4439 C 419.121 3.9548 -1.53155 0
M  V30 4440 N 419.512 4.24332 -2.75275 0
M  V30 4441 C 417.81 4.23572 -1.39653 0
M  V30 4442 C 418.511 4.68834 -3.44339 0
M  V30 4443 N 417.487 4.70804 -2.71744 0
M  V30 4444 H 421.289 2.29178 -1.83997 0
M  V30 4445 H 418.803 1.20094 -1.09322 0
M  V30 4446 H 420.8 4.16235 -0.235337 0
M  V30 4447 H 419.46 3.21408 0.4612 0
M  V30 4448 H 420.471 4.13393 -3.11973 0
M  V30 4449 H 417.148 4.14005 -0.539067 0
M  V30 4450 H 418.538 5.00019 -4.4881 0
M  V30 4451 N 421.258 1.00505 1.21394 0
M  V30 4452 C 422.205 0.565496 2.23765 0
M  V30 4453 C 423.175 -0.408466 1.60999 0
M  V30 4454 O 424.36 -0.310503 1.88257 0
M  V30 4455 C 421.5 -0.101667 3.4495 0
M  V30 4456 C 420.613 0.915479 4.22188 0
M  V30 4457 C 419.748 0.220574 5.30742 0
M  V30 4458 C 418.787 1.22527 5.99711 0
M  V30 4459 N 417.924 0.557831 6.9988 0
M  V30 4460 H 422.764 1.44314 2.60725 0
M  V30 4461 H 420.301 0.722643 1.28126 0
M  V30 4462 H 422.259 -0.505504 4.14126 0
M  V30 4463 H 420.889 -0.94303 3.08718 0
M  V30 4464 H 419.941 1.43756 3.52191 0
M  V30 4465 H 421.253 1.68005 4.69655 0
M  V30 4466 H 420.407 -0.239368 6.06228 0
M  V30 4467 H 419.146 -0.576401 4.84282 0
M  V30 4468 H 418.151 1.69571 5.22997 0
M  V30 4469 H 419.376 2.02332 6.48258 0
M  V30 4470 H 417.322 -0.219486 6.55633 0
M  V30 4471 H 417.239 1.26065 7.45415 0
M  V30 4472 H 418.507 0.121095 7.79406 0
M  V30 4473 N 422.737 -1.36956 0.779787 0
M  V30 4474 C 424.148 -1.82094 0.412156 0
M  V30 4475 C 424.499 -1.64926 -1.06273 0
M  V30 4476 O 423.624 -1.16483 -1.82375 0
M  V30 4477 C 424.219 -3.3059 0.741319 0
M  V30 4478 C 422.778 -3.73974 0.426641 0
M  V30 4479 C 421.925 -2.59368 0.980987 0
M  V30 4480 H 424.876 -1.25314 0.973758 0
M  V30 4481 H 424.897 -3.80489 0.028887 0
M  V30 4482 H 424.409 -3.43054 1.81482 0
M  V30 4483 H 422.51 -3.67076 -0.639215 0
M  V30 4484 H 422.623 -4.69778 0.940515 0
M  V30 4485 H 420.987 -2.51463 0.404757 0
M  V30 4486 H 421.77 -2.74621 2.06005 0
M  V30 4487 N 424.215 -0.530993 -1.48385 0
M  V30 4488 C 425.631 -0.188919 -1.58478 0
M  V30 4489 C 425.831 1.30786 -1.53288 0
M  V30 4490 O 424.887 2.08619 -1.42248 0
M  V30 4491 C 426.2 -0.792343 -2.90073 0
M  V30 4492 C 427.748 -0.76117 -3.03604 0
M  V30 4493 C 428.223 -1.34319 -4.37861 0
M  V30 4494 N 429.714 -1.3052 -4.44431 0
M  V30 4495 C 430.449 -1.72543 -5.46824 0
M  V30 4496 N 429.945 -2.22299 -6.56167 0
M  V30 4497 N 431.738 -1.63773 -5.37712 0
M  V30 4498 H 423.889 -1.50377 -1.50002 0
M  V30 4499 H 426.152 -0.625559 -0.712306 0
M  V30 4500 H 425.858 -1.84323 -2.99529 0
M  V30 4501 H 425.732 -0.270026 -3.76232 0
M  V30 4502 H 428.119 0.280957 -2.93759 0
M  V30 4503 H 428.2 -1.32097 -2.19053 0
M  V30 4504 H 427.844 -2.38425 -4.4846 0
M  V30 4505 H 427.774 -0.759064 -5.21101 0
M  V30 4506 H 430.265 -0.940973 -3.65997 0
M  V30 4507 H 430.578 -2.52356 -7.30436 0
M  V30 4508 H 428.923 -2.26293 -6.57127 0
M  V30 4509 H 432.114 -1.24698 -4.51185 0
M  V30 4510 H 432.287 -1.96844 -6.17379 0
M  V30 4511 N 425.693 1.55336 -0.266172 0
M  V30 4512 C 426.941 1.99003 0.35246 0
M  V30 4513 C 427.262 1.15591 1.57047 0
M  V30 4514 O 426.532 0.243268 1.94384 0
M  V30 4515 H 425.112 0.735025 0.133217 0
M  V30 4516 H 427.774 1.91367 -0.369434 0
M  V30 4517 H 426.87 3.05289 0.648453 0
M  V30 4518 N 427.171 -0.0066808 1.57599 0
M  V30 4519 C 428.448 -0.729586 1.81484 0
M  V30 4520 C 428.828 -1.92359 0.869558 0
M  V30 4521 O 428.176 -2.28348 -0.0832533 0
M  V30 4522 C 428.386 -1.1416 3.29801 0
M  V30 4523 C 429.734 -1.54823 3.95367 0
M  V30 4524 O 430.758 -1.23558 3.34084 0
M  V30 4525 O 429.617 -2.12937 5.03309 0
M  V30 4526 H 426.711 -0.354674 0.747085 0
M  V30 4527 H 429.257 0.0182609 1.6969 0
M  V30 4528 H 428.029 -0.290231 3.90222 0
M  V30 4529 H 427.652 -1.94876 3.46568 0
M  V30 4530 N 428.649 -1.55105 -0.279332 0
M  V30 4531 C 429.896 -1.75412 -1.01177 0
M  V30 4532 C 430.224 -0.551728 -1.86511 0
M  V30 4533 O 429.479 0.465919 -1.90073 0
M  V30 4534 C 429.778 -3.0086 -1.92919 0
M  V30 4535 C 429.444 -4.33689 -1.23387 0
M  V30 4536 C 428.106 -4.69792 -1.04159 0
M  V30 4537 C 430.458 -5.15941 -0.738562 0
M  V30 4538 C 427.786 -5.85707 -0.341166 0
M  V30 4539 C 430.138 -6.32579 -0.0517636 0
M  V30 4540 C 428.802 -6.67326 0.152292 0
M  V30 4541 H 428.072 -0.641879 -0.370233 0
M  V30 4542 H 430.719 -1.89373 -0.284627 0
M  V30 4543 H 429.024 -2.81773 -2.72234 0
M  V30 4544 H 430.721 -3.13768 -2.49701 0
M  V30 4545 H 427.311 -4.05309 -1.39364 0
M  V30 4546 H 431.495 -4.8853 -0.874764 0
M  V30 4547 H 426.751 -6.11157 -0.172287 0
M  V30 4548 H 430.925 -6.9557 0.339828 0
M  V30 4549 H 428.552 -7.56998 0.697014 0
M  V30 4550 N 430.127 0.543554 -1.4793 0
M  V30 4551 C 431.538 1.12561 -1.48953 0
M  V30 4552 C 431.889 1.94578 -0.251754 0
M  V30 4553 O 431.014 2.0665 0.642255 0
M  V30 4554 C 431.609 2.04801 -2.69892 0
M  V30 4555 C 430.168 2.58251 -2.73831 0
M  V30 4556 C 429.315 1.34918 -2.42265 0
M  V30 4557 H 432.266 0.32947 -1.55242 0
M  V30 4558 H 432.287 2.88886 -2.47639 0
M  V30 4559 H 431.799 1.4508 -3.59963 0
M  V30 4560 H 429.9 3.21732 -1.87934 0
M  V30 4561 H 430.013 2.98312 -3.74895 0
M  V30 4562 H 428.377 1.66046 -1.93134 0
M  V30 4563 H 429.16 0.769693 -3.3456 0
M  V30 4564 N 431.605 1.3629 0.791371 0
M  V30 4565 C 432.83 1.33726 1.58531 0
M  V30 4566 C 433.255 -0.0794933 1.87932 0
M  V30 4567 O 432.613 -1.05087 1.47738 0
M  V30 4568 C 432.661 2.16425 2.88431 0
M  V30 4569 O 431.765 1.5554 3.81944 0
M  V30 4570 H 431.106 0.457793 0.480959 0
M  V30 4571 H 433.636 1.79547 0.981031 0
M  V30 4572 H 433.646 2.28933 3.37718 0
M  V30 4573 H 432.321 3.19415 2.66359 0
M  V30 4574 H 430.898 1.51961 3.40532 0
M  V30 4575 N 433.083 -1.0153 1.20538 0
M  V30 4576 C 434.494 -1.56598 1.01657 0
M  V30 4577 C 434.845 -1.91505 -0.426668 0
M  V30 4578 O 433.97 -1.72375 -1.30827 0
M  V30 4579 C 434.565 -2.84542 1.83905 0
M  V30 4580 C 433.124 -3.36133 1.69386 0
M  V30 4581 C 432.271 -2.09427 1.81757 0
M  V30 4582 H 435.222 -0.838974 1.34711 0
M  V30 4583 H 435.243 -3.56004 1.34319 0
M  V30 4584 H 434.755 -2.59105 2.8894 0
M  V30 4585 H 432.856 -3.66528 0.669933 0
M  V30 4586 H 432.969 -4.08248 2.50739 0
M  V30 4587 H 431.333 -2.21941 1.24957 0
M  V30 4588 H 432.116 -1.86414 2.88279 0
M  V30 4589 N 434.561 -1.01147 -1.20859 0
M  V30 4590 C 435.81 -0.693214 -1.89413 0
M  V30 4591 C 436.123 0.779969 -1.79376 0
M  V30 4592 O 437.329 1.21057 -2.43017 0
M  V30 4593 C 435.785 -1.18949 -3.39675 0
M  V30 4594 C 435.393 -2.68921 -3.58309 0
M  V30 4595 C 437.137 -0.94642 -4.13815 0
M  V30 4596 C 435.044 -3.12056 -5.0237 0
M  V30 4597 H 433.974 -0.255595 -0.709357 0
M  V30 4598 H 436.625 -1.22349 -1.36759 0
M  V30 4599 H 435.007 -0.587228 -3.91622 0
M  V30 4600 H 436.181 -3.34652 -3.16772 0
M  V30 4601 H 434.496 -2.91314 -2.97532 0
M  V30 4602 H 437.093 -1.24417 -5.20023 0
M  V30 4603 H 437.436 0.117219 -4.16135 0
M  V30 4604 H 437.969 -1.5118 -3.67953 0
M  V30 4605 H 434.708 -4.17674 -5.05202 0
M  V30 4606 H 434.228 -2.51041 -5.44737 0
M  V30 4607 H 435.907 -3.04403 -5.70918 0
M  V30 4608 N 436.039 1.36541 -0.78704 0
M  V30 4609 C 436.989 2.27459 -0.156957 0
M  V30 4610 C 437.973 1.46843 0.657709 0
M  V30 4611 O 439.165 1.69245 0.518173 0
M  V30 4612 C 436.294 3.35893 0.709278 0
M  V30 4613 C 435.38 4.23947 -0.114049 0
M  V30 4614 N 435.771 4.92145 -1.16736 0
M  V30 4615 C 434.069 4.4587 0.107497 0
M  V30 4616 C 434.77 5.57261 -1.66837 0
M  V30 4617 N 433.746 5.3473 -0.977992 0
M  V30 4618 H 437.548 2.77669 -0.963185 0
M  V30 4619 H 435.062 1.49839 -0.62627 0
M  V30 4620 H 437.059 3.99953 1.17656 0
M  V30 4621 H 435.719 2.87238 1.51408 0
M  V30 4622 H 436.73 4.94169 -1.54976 0
M  V30 4623 H 433.407 4.08056 0.882994 0
M  V30 4624 H 434.797 6.21728 -2.54762 0
M  V30 4625 N 437.518 0.538854 1.48102 0
M  V30 4626 C 438.764 0.00801365 2.02798 0
M  V30 4627 C 439.097 -1.3309 1.41424 0
M  V30 4628 O 438.372 -1.86169 0.563158 0
M  V30 4629 C 438.655 -0.104589 3.59948 0
M  V30 4630 C 438.508 1.26012 4.31788 0
M  V30 4631 C 439.827 -0.827055 4.32259 0
M  V30 4632 H 436.946 0.00438624 0.736987 0
M  V30 4633 H 439.588 0.6976 1.7673 0
M  V30 4634 H 437.738 -0.691893 3.82289 0
M  V30 4635 H 439.41 1.88922 4.2084 0
M  V30 4636 H 437.653 1.83968 3.92859 0
M  V30 4637 H 438.324 1.13424 5.40221 0
M  V30 4638 H 440.8 -0.328578 4.14801 0
M  V30 4639 H 439.676 -0.87476 5.41885 0
M  V30 4640 H 439.937 -1.87927 4.0017 0
M  V30 4641 N 438.996 -1.55193 0.274407 0
M  V30 4642 C 440.221 -2.04446 -0.348824 0
M  V30 4643 C 440.646 -1.15149 -1.48735 0
M  V30 4644 O 440.004 -0.149952 -1.80679 0
M  V30 4645 C 440.052 -3.51431 -0.808009 0
M  V30 4646 O 439.156 -3.65225 -1.91531 0
M  V30 4647 H 438.497 -0.66006 -0.0722276 0
M  V30 4648 H 441.027 -2.00481 0.408498 0
M  V30 4649 H 441.037 -3.92781 -1.10395 0
M  V30 4650 H 439.712 -4.15892 0.0249865 0
M  V30 4651 H 438.289 -3.35778 -1.62196 0
M  V30 4652 N 440.474 -0.00167713 -1.576 0
M  V30 4653 C 441.722 0.681471 -1.90264 0
M  V30 4654 C 442.043 1.7422 -0.875924 0
M  V30 4655 O 441.313 1.95709 0.0864412 0
M  V30 4656 H 439.893 0.254696 -0.702239 0
M  V30 4657 H 442.555 -0.0429996 -1.94853 0
M  V30 4658 H 441.651 1.15166 -2.90075 0
M  V30 4659 N 441.952 1.55251 0.271103 0
M  V30 4660 C 443.363 1.66635 0.842007 0
M  V30 4661 C 443.714 0.594631 1.86972 0
M  V30 4662 O 442.839 -0.263532 2.14789 0
M  V30 4663 C 443.434 3.02082 1.53401 0
M  V30 4664 C 441.993 3.15487 2.05293 0
M  V30 4665 C 441.14 2.62438 0.895631 0
M  V30 4666 H 444.091 1.58629 0.0474117 0
M  V30 4667 H 444.112 2.95176 2.40107 0
M  V30 4668 H 443.624 3.80062 0.785786 0
M  V30 4669 H 441.725 2.42284 2.83071 0
M  V30 4670 H 441.838 4.22075 2.26693 0
M  V30 4671 H 440.202 2.19644 1.28953 0
M  V30 4672 H 440.985 3.42923 0.160878 0
M  V30 4673 N 443.43 -0.535701 1.48216 0
M  V30 4674 C 444.846 -0.863701 1.3421 0
M  V30 4675 C 445.046 -1.98458 0.34879 0
M  V30 4676 O 444.102 -2.51432 -0.23204 0
M  V30 4677 C 445.415 -1.23662 2.74095 0
M  V30 4678 C 446.963 -1.34683 2.82541 0
M  V30 4679 C 447.438 -1.75322 4.23115 0
M  V30 4680 N 448.929 -1.82434 4.2576 0
M  V30 4681 C 449.664 -2.15252 5.31464 0
M  V30 4682 N 449.16 -2.46533 6.47452 0
M  V30 4683 N 450.953 -2.16209 5.18855 0
M  V30 4684 H 443.104 0.203965 2.11418 0
M  V30 4685 H 445.367 0.0286033 0.947568 0
M  V30 4686 H 445.073 -0.486674 3.48316 0
M  V30 4687 H 444.947 -2.18805 3.07253 0
M  V30 4688 H 447.334 -2.08756 2.08579 0
M  V30 4689 H 447.415 -0.376756 2.5301 0
M  V30 4690 H 447.059 -1.01812 4.97591 0
M  V30 4691 H 446.989 -2.7337 4.50085 0
M  V30 4692 H 449.48 -1.6056 3.42095 0
M  V30 4693 H 449.793 -2.70662 7.23852 0
M  V30 4694 H 448.138 -2.44065 6.50736 0
M  V30 4695 H 451.329 -1.91224 4.2726 0
M  V30 4696 H 451.502 -2.41453 6.01335 0
M  V30 4697 N 444.908 -1.36708 -0.784132 0
M  V30 4698 C 445.838 -1.34153 -1.91116 0
M  V30 4699 C 446.819 -0.212121 -1.68772 0
M  V30 4700 O 448.004 -0.410581 -1.8981 0
M  V30 4701 C 445.134 -1.13535 -3.28218 0
M  V30 4702 C 444.088 -2.23356 -3.65097 0
M  V30 4703 C 443.414 -1.87875 -5.00607 0
M  V30 4704 C 444.714 -3.65473 -3.73131 0
M  V30 4705 H 446.408 -2.28459 -1.93512 0
M  V30 4706 H 443.954 -1.09973 -0.929618 0
M  V30 4707 H 445.907 -1.10381 -4.06687 0
M  V30 4708 H 444.631 -0.156804 -3.26223 0
M  V30 4709 H 443.29 -2.25645 -2.88929 0
M  V30 4710 H 442.938 -0.885814 -4.95139 0
M  V30 4711 H 442.638 -2.61406 -5.26252 0
M  V30 4712 H 444.162 -1.86286 -5.81489 0
M  V30 4713 H 445.576 -3.65382 -4.41779 0
M  V30 4714 H 443.973 -4.37953 -4.10265 0
M  V30 4715 H 445.043 -3.99995 -2.74102 0
M  V30 4716 N 446.386 1.0089 -1.21074 0
M  V30 4717 C 447.632 1.74866 -1.02712 0
M  V30 4718 C 447.965 1.89178 0.438787 0
M  V30 4719 O 447.24 1.42325 1.32567 0
M  V30 4720 C 447.523 3.16347 -1.72036 0
M  V30 4721 C 447.376 3.09782 -3.26121 0
M  V30 4722 C 448.695 4.15187 -1.45973 0
M  V30 4723 H 445.814 0.634736 -0.374539 0
M  V30 4724 H 448.456 1.17646 -1.49196 0
M  V30 4725 H 446.606 3.65201 -1.32517 0
M  V30 4726 H 448.278 2.68673 -3.74983 0
M  V30 4727 H 446.521 2.46982 -3.56626 0
M  V30 4728 H 447.192 4.09829 -3.6979 0
M  V30 4729 H 449.668 3.75022 -1.80272 0
M  V30 4730 H 448.544 5.12331 -1.96999 0
M  V30 4731 H 448.805 4.40386 -0.388924 0
M  V30 4732 N 447.864 1.01787 1.20321 0
M  V30 4733 C 448.796 0.547357 2.22568 0
M  V30 4734 C 449.809 -0.370922 1.58518 0
M  V30 4735 O 450.998 -0.169067 1.77698 0
M  V30 4736 C 448.098 -0.223031 3.38165 0
M  V30 4737 C 447.271 0.697472 4.31803 0
M  V30 4738 C 446.33 -0.025562 5.26194 0
M  V30 4739 O 445.356 0.597367 5.66057 0
M  V30 4740 N 446.558 -1.29999 5.65757 0
M  V30 4741 H 449.323 1.42668 2.63564 0
M  V30 4742 H 446.884 0.895552 1.34876 0
M  V30 4743 H 448.876 -0.716002 3.98316 0
M  V30 4744 H 447.446 -1.00366 2.9605 0
M  V30 4745 H 446.666 1.37073 3.69601 0
M  V30 4746 H 447.954 1.32347 4.91286 0
M  V30 4747 H 447.352 -1.827 5.35385 0
M  V30 4748 H 445.909 -1.73766 6.28211 0
M  V30 4749 N 449.342 -1.36122 0.79427 0
M  V30 4750 C 450.753 -1.81646 0.431446 0
M  V30 4751 C 451.104 -1.66043 -1.04518 0
M  V30 4752 O 450.229 -1.1841 -1.8113 0
M  V30 4753 C 450.824 -3.29785 0.776341 0
M  V30 4754 C 449.383 -3.73501 0.466282 0
M  V30 4755 C 448.53 -2.58313 1.00844 0
M  V30 4756 H 451.481 -1.24274 0.986995 0
M  V30 4757 H 451.502 -3.80437 0.0692413 0
M  V30 4758 H 451.014 -3.4111 1.8511 0
M  V30 4759 H 449.115 -3.67733 -0.600245 0
M  V30 4760 H 449.228 -4.68754 0.990288 0
M  V30 4761 H 447.592 -2.5102 0.431406 0
M  V30 4762 H 448.375 -2.72421 2.08906 0
M  V30 4763 N 450.82 -0.546701 -1.47814 0
M  V30 4764 C 451.77 0.227042 -2.26867 0
M  V30 4765 C 452.754 0.894844 -1.33721 0
M  V30 4766 O 453.946 0.794887 -1.58147 0
M  V30 4767 C 451.075 1.26299 -3.19223 0
M  V30 4768 C 450.161 0.59913 -4.19847 0
M  V30 4769 N 450.552 -0.324777 -5.04756 0
M  V30 4770 C 448.85 0.854331 -4.37741 0
M  V30 4771 C 449.551 -0.709386 -5.77358 0
M  V30 4772 N 448.527 -0.0666153 -5.43559 0
M  V30 4773 H 452.329 -0.483476 -2.89896 0
M  V30 4774 H 449.843 -0.365893 -1.58224 0
M  V30 4775 H 451.84 1.83116 -3.74532 0
M  V30 4776 H 450.5 1.97471 -2.57751 0
M  V30 4777 H 451.511 -0.698351 -5.1317 0
M  V30 4778 H 448.188 1.55536 -3.87447 0
M  V30 4779 H 449.578 -1.46796 -6.55668 0
M  V30 4780 N 452.299 1.55045 -0.282633 0
M  V30 4781 C 453.547 1.99365 0.331334 0
M  V30 4782 C 453.868 1.1725 1.55812 0
M  V30 4783 O 453.138 0.263871 1.94115 0
M  V30 4784 H 451.718 0.736397 0.125414 0
M  V30 4785 H 454.38 1.90964 -0.389711 0
M  V30 4786 H 453.476 3.0596 0.616036 0
M  V30 4787 N 453.777 0.010035 1.57597 0
M  V30 4788 C 455.188 -0.531426 1.78977 0
M  V30 4789 C 455.539 -1.73375 0.918454 0
M  V30 4790 O 454.664 -2.16047 0.123635 0
M  V30 4791 C 455.259 -0.97086 3.24592 0
M  V30 4792 C 453.818 -1.45756 3.47033 0
M  V30 4793 C 452.965 -0.413384 2.74201 0
M  V30 4794 H 455.916 0.236166 1.56933 0
M  V30 4795 H 455.937 -1.83633 3.33255 0
M  V30 4796 H 455.449 -0.0955893 3.87982 0
M  V30 4797 H 453.55 -2.35339 2.88871 0
M  V30 4798 H 453.663 -1.4781 4.55729 0
M  V30 4799 H 452.027 -0.877266 2.39115 0
M  V30 4800 H 452.81 0.453092 3.40297 0
M  V30 4801 N 455.255 -1.55392 -0.262866 0
M  V30 4802 C 456.671 -1.47459 -0.610582 0
M  V30 4803 C 456.871 -0.697031 -1.8906 0
M  V30 4804 O 455.927 -0.219952 -2.5154 0
M  V30 4805 C 457.24 -2.91751 -0.728131 0
M  V30 4806 C 458.788 -3.02027 -0.821517 0
M  V30 4807 C 459.263 -4.47594 -0.97076 0
M  V30 4808 N 460.754 -4.51465 -1.03603 0
M  V30 4809 C 461.489 -5.61326 -1.17049 0
M  V30 4810 N 460.985 -6.81032 -1.2715 0
M  V30 4811 N 462.778 -5.49089 -1.20239 0
M  V30 4812 H 454.929 -2.04395 0.577632 0
M  V30 4813 H 457.192 -0.927287 0.197086 0
M  V30 4814 H 456.898 -3.51413 0.142132 0
M  V30 4815 H 456.772 -3.4134 -1.6052 0
M  V30 4816 H 459.159 -2.42456 -1.68224 0
M  V30 4817 H 459.24 -2.55674 0.0803688 0
M  V30 4818 H 458.884 -5.07771 -0.114655 0
M  V30 4819 H 458.814 -4.91613 -1.88745 0
M  V30 4820 H 461.305 -3.6524 -0.96996 0
M  V30 4821 H 461.618 -7.60511 -1.37271 0
M  V30 4822 H 459.963 -6.83824 -1.24136 0
M  V30 4823 H 463.154 -4.54507 -1.11985 0
M  V30 4824 H 463.327 -6.34749 -1.30373 0
M  V30 4825 N 456.733 0.527833 -1.48498 0
M  V30 4826 C 457.98 1.28354 -1.56625 0
M  V30 4827 C 458.308 1.93 -0.241096 0
M  V30 4828 O 457.563 1.79967 0.768798 0
M  V30 4829 C 457.862 2.39275 -2.65485 0
M  V30 4830 C 457.528 1.92268 -4.07853 0
M  V30 4831 C 456.19 1.79166 -4.46602 0
M  V30 4832 C 458.542 1.56771 -4.97064 0
M  V30 4833 C 455.87 1.28905 -5.72364 0
M  V30 4834 C 458.222 1.07972 -6.23318 0
M  V30 4835 C 456.886 0.934887 -6.60921 0
M  V30 4836 H 456.156 0.469682 -0.573131 0
M  V30 4837 H 458.803 0.588781 -1.82224 0
M  V30 4838 H 457.108 3.1443 -2.33754 0
M  V30 4839 H 458.805 2.974 -2.68988 0
M  V30 4840 H 455.395 2.03417 -3.77252 0
M  V30 4841 H 459.579 1.65753 -4.67803 0
M  V30 4842 H 454.835 1.16381 -6.00221 0
M  V30 4843 H 459.009 0.795775 -6.91838 0
M  V30 4844 H 456.636 0.543231 -7.58257 0
M  V30 4845 N 458.211 1.37122 0.776871 0
M  V30 4846 C 459.627 1.1781 1.07671 0
M  V30 4847 C 459.827 0.0107454 2.01497 0
M  V30 4848 O 458.883 -0.650756 2.4397 0
M  V30 4849 C 460.196 2.49451 1.67913 0
M  V30 4850 C 461.744 2.55927 1.80195 0
M  V30 4851 C 462.219 3.87686 2.43851 0
M  V30 4852 N 463.71 3.891 2.51307 0
M  V30 4853 C 464.445 4.87797 3.014 0
M  V30 4854 N 463.941 5.96888 3.51705 0
M  V30 4855 N 465.734 4.75205 3.00227 0
M  V30 4856 H 457.885 2.11843 0.153778 0
M  V30 4857 H 460.148 0.938927 0.130844 0
M  V30 4858 H 459.854 3.35207 1.06439 0
M  V30 4859 H 459.728 2.66169 2.67271 0
M  V30 4860 H 462.115 1.70582 2.40803 0
M  V30 4861 H 462.196 2.43097 0.796069 0
M  V30 4862 H 461.84 4.73444 1.83884 0
M  V30 4863 H 461.77 3.97817 3.45035 0
M  V30 4864 H 464.261 3.10293 2.157 0
M  V30 4865 H 464.574 6.68155 3.88316 0
M  V30 4866 H 462.919 6.0054 3.49824 0
M  V30 4867 H 466.11 3.89103 2.60224 0
M  V30 4868 H 466.283 5.52279 3.38957 0
M  V30 4869 N 459.689 -1.00246 1.21608 0
M  V30 4870 C 460.619 -2.10921 1.00172 0
M  V30 4871 C 461.6 -1.69938 -0.0741587 0
M  V30 4872 O 462.785 -1.94009 0.0861753 0
M  V30 4873 C 459.915 -3.42618 0.568355 0
M  V30 4874 C 458.869 -3.97407 1.58909 0
M  V30 4875 C 458.195 -5.25038 1.01187 0
M  V30 4876 C 459.495 -4.2918 2.97661 0
M  V30 4877 H 461.189 -2.29112 1.92739 0
M  V30 4878 H 458.735 -1.10101 0.928102 0
M  V30 4879 H 460.688 -4.19444 0.405555 0
M  V30 4880 H 459.412 -3.24227 -0.392961 0
M  V30 4881 H 458.071 -3.22703 1.73949 0
M  V30 4882 H 457.719 -5.02982 0.0421965 0
M  V30 4883 H 457.419 -5.62661 1.6937 0
M  V30 4884 H 458.943 -6.04507 0.860448 0
M  V30 4885 H 460.357 -4.96839 2.86049 0
M  V30 4886 H 458.754 -4.77952 3.6288 0
M  V30 4887 H 459.824 -3.3735 3.48315 0
M  V30 4888 N 461.167 -1.02423 -1.1978 0
M  V30 4889 C 462.077 -0.610919 -2.26506 0
M  V30 4890 C 463.093 0.355152 -1.70337 0
M  V30 4891 O 464.269 0.214195 -2.00258 0
M  V30 4892 C 461.334 0.0365921 -3.46681 0
M  V30 4893 C 460.395 -0.976389 -4.18049 0
M  V30 4894 C 459.628 -0.359683 -5.32487 0
M  V30 4895 O 459.851 0.838601 -5.64202 0
M  V30 4896 O 458.785 -1.08022 -5.92127 0
M  V30 4897 H 462.611 -1.49965 -2.64091 0
M  V30 4898 H 460.196 -0.794156 -1.26545 0
M  V30 4899 H 462.078 0.39786 -4.19518 0
M  V30 4900 H 460.753 0.899398 -3.10954 0
M  V30 4901 H 459.66 -1.38916 -3.47352 0
M  V30 4902 H 460.993 -1.80941 -4.57735 0
M  V30 4903 N 462.645 1.35699 -0.801477 0
M  V30 4904 C 463.893 1.9852 -0.37871 0
M  V30 4905 C 464.214 1.63907 1.05638 0
M  V30 4906 O 463.484 0.919013 1.73006 0
M  V30 4907 H 462.064 0.734322 -0.137042 0
M  V30 4908 H 464.726 1.65697 -1.02619 0
M  V30 4909 H 463.822 3.08382 -0.480284 0
M  V30 4910 N 464.123 0.554532 1.47522 0
M  V30 4911 C 465.071 -0.207765 2.3167 0
M  V30 4912 C 466.065 -0.911914 1.4276 0
M  V30 4913 O 467.271 -0.833504 1.59539 0
M  V30 4914 H 463.646 -0.0858726 0.747081 0
M  V30 4915 H 465.617 0.521178 2.93813 0
M  V30 4916 C 464.366 -1.2263 3.25357 0
M  V30 4917 H 463.689 -0.693887 3.93732 0
M  V30 4918 H 465.129 -1.73062 3.87073 0
M  V30 4919 C 463.588 -2.27278 2.4869 0
M  V30 4920 O 464.118 -3.34156 2.22941 0
M  V30 4921 N 462.324 -2.01134 2.09746 0
M  V30 4922 H 461.871 -1.14232 2.30887 0
M  V30 4923 H 461.829 -2.71369 1.58765 0
M  V30 4924 N 465.601 -1.54893 0.290851 0
M  V30 4925 C 466.564 -2.21824 -0.576784 0
M  V30 4926 C 467.564 -1.20104 -1.06919 0
M  V30 4927 O 468.754 -1.44906 -0.966843 0
M  V30 4928 C 465.886 -2.89662 -1.79747 0
M  V30 4929 H 467.079 -2.99899 0.00784051 0
M  V30 4930 H 464.632 -1.56245 0.0415934 0
M  V30 4931 H 465.367 -2.15639 -2.42219 0
M  V30 4932 H 465.152 -3.64219 -1.45214 0
M  V30 4933 H 466.642 -3.4075 -2.4141 0
M  V30 4934 N 467.08 -0.0183926 -1.57589 0
M  V30 4935 C 468.326 0.663543 -1.91638 0
M  V30 4936 C 468.659 1.72392 -0.894134 0
M  V30 4937 O 467.934 1.94316 0.0846449 0
M  V30 4938 C 468.217 1.28984 -3.36207 0
M  V30 4939 C 468.07 0.239761 -4.49161 0
M  V30 4940 C 469.389 2.2109 -3.80536 0
M  V30 4941 H 466.508 0.239746 -0.696915 0
M  V30 4942 H 469.15 -0.073456 -1.89858 0
M  V30 4943 H 467.3 1.91799 -3.37854 0
M  V30 4944 H 468.972 -0.390119 -4.59647 0
M  V30 4945 H 467.215 -0.435972 -4.31604 0
M  V30 4946 H 467.886 0.717383 -5.47319 0
M  V30 4947 H 470.362 1.68273 -3.80557 0
M  V30 4948 H 469.238 2.61869 -4.82406 0
M  V30 4949 H 469.499 3.09764 -3.15434 0
M  V30 4950 N 468.558 1.5553 0.254621 0
M  V30 4951 C 469.488 1.9268 1.31897 0
M  V30 4952 C 470.469 0.790797 1.506 0
M  V30 4953 O 471.654 1.05045 1.63337 0
M  V30 4954 C 468.784 2.21477 2.67517 0
M  V30 4955 C 467.738 3.37256 2.63519 0
M  V30 4956 C 467.064 3.51576 4.02862 0
M  V30 4957 C 468.364 4.73157 2.21179 0
M  V30 4958 H 470.058 2.81832 1.01051 0
M  V30 4959 H 467.604 1.35599 0.484662 0
M  V30 4960 H 469.557 2.46055 3.42104 0
M  V30 4961 H 468.281 1.29144 2.99982 0
M  V30 4962 H 466.94 3.12675 1.9139 0
M  V30 4963 H 466.588 2.56676 4.32581 0
M  V30 4964 H 466.288 4.2943 4.01078 0
M  V30 4965 H 467.812 3.78467 4.79161 0
M  V30 4966 H 469.226 4.97158 2.85494 0
M  V30 4967 H 467.623 5.54058 2.30521 0
M  V30 4968 H 468.693 4.70739 1.16332 0
M  V30 4969 N 470.036 -0.519951 1.48776 0
M  V30 4970 C 471.266 -1.29783 1.60748 0
M  V30 4971 C 471.674 -1.87253 0.27072 0
M  V30 4972 O 471.017 -1.67628 -0.751438 0
M  V30 4973 C 471.079 -2.47984 2.60277 0
M  V30 4974 C 470.743 -2.11526 4.051 0
M  V30 4975 C 471.74 -1.66608 4.92481 0
M  V30 4976 C 469.425 -2.21742 4.50706 0
M  V30 4977 C 471.419 -1.32384 6.23501 0
M  V30 4978 C 469.106 -1.87129 5.81744 0
M  V30 4979 C 470.104 -1.42523 6.67964 0
M  V30 4980 O 469.792 -1.0837 7.96562 0
M  V30 4981 H 469.524 -0.400562 0.544542 0
M  V30 4982 H 472.078 -0.632879 1.95407 0
M  V30 4983 H 470.308 -3.17493 2.2076 0
M  V30 4984 H 471.997 -3.10036 2.61978 0
M  V30 4985 H 472.763 -1.58178 4.58481 0
M  V30 4986 H 468.642 -2.55415 3.83776 0
M  V30 4987 H 472.186 -0.974949 6.90754 0
M  V30 4988 H 468.083 -1.95204 6.15277 0
M  V30 4989 H 468.851 -1.21681 8.09405 0
M  V30 4990 N 471.514 -1.37532 -0.769588 0
M  V30 4991 C 472.762 -1.32597 -1.5252 0
M  V30 4992 C 473.083 0.0884294 -1.94799 0
M  V30 4993 O 472.353 1.03289 -1.66458 0
M  V30 4994 H 470.933 -0.487846 -0.565699 0
M  V30 4995 H 473.595 -1.72044 -0.915806 0
M  V30 4996 H 472.691 -1.96643 -2.42359 0
M  V30 4997 N 472.992 0.995999 -1.22138 0
M  V30 4998 C 474.24 1.73167 -1.042 0
M  V30 4999 C 474.561 1.90329 0.42423 0
M  V30 5000 O 473.831 1.4607 1.30539 0
M  V30 5001 H 472.411 0.641593 -0.38258 0
M  V30 5002 H 475.073 1.19974 -1.53598 0
M  V30 5003 H 474.169 2.72734 -1.51731 0
M  V30 5004 N 474.47 1.03057 1.19235 0
M  V30 5005 C 475.716 0.738841 1.89506 0
M  V30 5006 C 476.071 -0.724807 1.78225 0
M  V30 5007 O 475.364 -1.52118 1.16494 0
M  V30 5008 C 475.558 1.1268 3.39172 0
M  V30 5009 C 475.387 2.62662 3.65019 0
M  V30 5010 C 474.157 3.29658 3.82954 0
M  V30 5011 C 476.355 3.60873 3.66436 0
M  V30 5012 N 474.337 4.68726 3.96446 0
M  V30 5013 C 475.708 4.85566 3.8552 0
M  V30 5014 C 477.763 3.54647 3.49471 0
M  V30 5015 C 476.466 6.04783 3.89397 0
M  V30 5016 C 478.492 4.73281 3.54625 0
M  V30 5017 C 477.854 5.96789 3.74196 0
M  V30 5018 H 473.953 0.322256 0.712513 0
M  V30 5019 H 476.537 1.31822 1.43287 0
M  V30 5020 H 474.708 0.575612 3.84111 0
M  V30 5021 H 476.44 0.787145 3.96971 0
M  V30 5022 H 473.195 2.8007 3.81913 0
M  V30 5023 H 473.619 5.40971 4.07037 0
M  V30 5024 H 478.261 2.60143 3.33295 0
M  V30 5025 H 475.979 6.99654 4.04364 0
M  V30 5026 H 479.565 4.70094 3.42787 0
M  V30 5027 H 478.445 6.87051 3.78061 0
M  V30 5028 N 475.948 -1.35272 0.808662 0
M  V30 5029 C 477.173 -2.03477 0.401475 0
M  V30 5030 C 477.598 -1.60537 -0.980279 0
M  V30 5031 O 476.956 -0.78304 -1.63518 0
M  V30 5032 C 477.004 -3.57181 0.495354 0
M  V30 5033 O 476.108 -4.09474 -0.490397 0
M  V30 5034 H 475.449 -0.642561 0.167366 0
M  V30 5035 H 477.979 -1.72824 1.09512 0
M  V30 5036 H 477.989 -4.06356 0.365912 0
M  V30 5037 H 476.664 -3.87784 1.5032 0
M  V30 5038 H 475.241 -3.71516 -0.321023 0
M  V30 5039 N 477.426 -0.562348 -1.47226 0
M  V30 5040 C 478.673 -0.0402165 -2.0246 0
M  V30 5041 C 479.001 1.31169 -1.43614 0
M  V30 5042 O 478.256 1.86805 -0.5833 0
M  V30 5043 C 478.555 0.0969817 -3.57268 0
M  V30 5044 C 478.221 -1.1847 -4.35058 0
M  V30 5045 C 476.883 -1.53588 -4.56031 0
M  V30 5046 C 479.235 -2.03378 -4.79882 0
M  V30 5047 C 476.563 -2.73452 -5.19077 0
M  V30 5048 C 478.915 -3.2245 -5.44251 0
M  V30 5049 C 477.579 -3.57876 -5.63455 0
M  V30 5050 H 476.849 -0.0147163 -0.740854 0
M  V30 5051 H 479.496 -0.734895 -1.76838 0
M  V30 5052 H 477.801 0.87466 -3.81912 0
M  V30 5053 H 479.498 0.516408 -3.97661 0
M  V30 5054 H 476.088 -0.90126 -4.19017 0
M  V30 5055 H 480.272 -1.77553 -4.63453 0
M  V30 5056 H 475.528 -3.01062 -5.32139 0
M  V30 5057 H 479.702 -3.88526 -5.77945 0
M  V30 5058 H 477.329 -4.50849 -6.12078 0
M  V30 5059 N 478.904 1.54736 -0.299062 0
M  V30 5060 C 479.867 2.22127 0.565012 0
M  V30 5061 C 480.867 1.20669 1.06281 0
M  V30 5062 O 482.057 1.45417 0.959145 0
M  V30 5063 C 479.189 2.90611 1.78208 0
M  V30 5064 H 480.382 2.99891 -0.0237448 0
M  V30 5065 H 477.935 1.5622 -0.0498788 0
M  V30 5066 H 478.67 2.16921 2.41072 0
M  V30 5067 H 478.455 3.64984 1.43281 0
M  V30 5068 H 479.945 3.42026 2.396 0
M  V30 5069 N 480.382 0.0267497 1.57577 0
M  V30 5070 C 481.629 -0.652404 1.91703 0
M  V30 5071 C 481.957 -1.72271 0.902936 0
M  V30 5072 O 481.212 -1.955 -0.0884843 0
M  V30 5073 C 481.511 -1.30914 3.3256 0
M  V30 5074 C 481.177 -0.369441 4.49384 0
M  V30 5075 C 479.839 -0.110791 4.81072 0
M  V30 5076 C 482.191 0.275971 5.20469 0
M  V30 5077 C 479.519 0.801116 5.81205 0
M  V30 5078 C 481.871 1.17592 6.21575 0
M  V30 5079 C 480.535 1.44348 6.51705 0
M  V30 5080 H 479.805 -0.238732 0.70149 0
M  V30 5081 H 482.452 0.0880091 1.91298 0
M  V30 5082 H 480.757 -2.12425 3.29216 0
M  V30 5083 H 482.454 -1.84115 3.56234 0
M  V30 5084 H 479.044 -0.581211 4.24641 0
M  V30 5085 H 483.228 0.0892 4.9622 0
M  V30 5086 H 478.484 1.01614 6.02897 0
M  V30 5087 H 482.658 1.68223 6.75777 0
M  V30 5088 H 480.285 2.15176 7.29111 0
M  V30 5089 N 481.861 -1.55662 -0.24637 0
M  V30 5090 C 483.277 -1.48098 -0.594907 0
M  V30 5091 C 483.477 -0.717044 -1.8831 0
M  V30 5092 O 482.533 -0.246618 -2.51293 0
M  V30 5093 C 483.846 -2.92507 -0.697146 0
M  V30 5094 C 485.394 -3.02881 -0.789436 0
M  V30 5095 C 485.869 -4.48598 -0.923232 0
M  V30 5096 N 487.36 -4.52538 -0.988088 0
M  V30 5097 C 488.095 -5.62536 -1.11089 0
M  V30 5098 N 487.591 -6.82342 -1.19919 0
M  V30 5099 N 489.384 -5.50334 -1.14408 0
M  V30 5100 H 481.535 -2.0377 0.599278 0
M  V30 5101 H 483.798 -0.925145 0.20691 0
M  V30 5102 H 483.504 -3.51242 0.179396 0
M  V30 5103 H 483.378 -3.43024 -1.5689 0
M  V30 5104 H 485.765 -2.44226 -1.65643 0
M  V30 5105 H 485.846 -2.55574 0.107482 0
M  V30 5106 H 485.49 -5.07864 -0.0607927 0
M  V30 5107 H 485.42 -4.93587 -1.8352 0
M  V30 5108 H 487.911 -3.66248 -0.931167 0
M  V30 5109 H 488.224 -7.61924 -1.29197 0
M  V30 5110 H 486.569 -6.85102 -1.16876 0
M  V30 5111 H 489.76 -4.5567 -1.07158 0
M  V30 5112 H 489.933 -6.36096 -1.23634 0
M  V30 5113 N 483.339 0.512053 -1.4905 0
M  V30 5114 C 484.269 1.62365 -1.67809 0
M  V30 5115 C 485.25 1.61737 -0.526809 0
M  V30 5116 O 486.435 1.78651 -0.761404 0
M  V30 5117 C 483.565 3.00895 -1.73435 0
M  V30 5118 C 482.519 3.16387 -2.88242 0
M  V30 5119 C 481.845 4.56157 -2.78971 0
M  V30 5120 C 483.145 2.97457 -4.29321 0
M  V30 5121 H 484.839 1.46921 -2.60873 0
M  V30 5122 H 482.385 0.705379 -1.2554 0
M  V30 5123 H 484.338 3.78549 -1.85145 0
M  V30 5124 H 483.062 3.17403 -0.769619 0
M  V30 5125 H 481.721 2.41155 -2.76116 0
M  V30 5126 H 481.369 4.69525 -1.8043 0
M  V30 5127 H 481.069 4.67465 -3.5602 0
M  V30 5128 H 482.593 5.35886 -2.92675 0
M  V30 5129 H 484.007 3.64888 -4.42187 0
M  V30 5130 H 482.404 3.20245 -5.07507 0
M  V30 5131 H 483.474 1.93692 -4.44535 0
M  V30 5132 N 484.817 1.37938 0.762283 0
M  V30 5133 C 486.233 1.18945 1.06415 0
M  V30 5134 C 486.433 0.0321163 2.01474 0
M  V30 5135 O 485.489 -0.624844 2.44647 0
M  V30 5136 C 486.802 2.51218 1.65258 0
M  V30 5137 C 488.35 2.57824 1.7747 0
M  V30 5138 C 488.825 3.90251 2.39725 0
M  V30 5139 N 490.316 3.91744 2.47166 0
M  V30 5140 C 491.051 4.90966 2.96209 0
M  V30 5141 N 490.547 6.00585 3.45354 0
M  V30 5142 N 492.34 4.78363 2.9517 0
M  V30 5143 H 484.491 2.11994 0.131301 0
M  V30 5144 H 486.754 0.940262 0.120879 0
M  V30 5145 H 486.46 3.36317 1.02878 0
M  V30 5146 H 486.334 2.68989 2.64433 0
M  V30 5147 H 488.721 1.73126 2.3898 0
M  V30 5148 H 488.802 2.43928 0.770241 0
M  V30 5149 H 488.446 4.75368 1.78852 0
M  V30 5150 H 488.376 4.01454 3.40796 0
M  V30 5151 H 490.867 3.12563 2.12397 0
M  V30 5152 H 491.18 6.72236 3.81207 0
M  V30 5153 H 489.525 6.04217 3.43434 0
M  V30 5154 H 492.716 3.91841 2.56082 0
M  V30 5155 H 492.889 5.55843 3.33081 0
M  V30 5156 N 486.295 -0.989507 1.22664 0
M  V30 5157 C 487.52 -1.77031 1.08051 0
M  V30 5158 C 487.945 -1.84535 -0.364483 0
M  V30 5159 O 487.303 -1.3003 -1.2634 0
M  V30 5160 C 487.351 -3.18 1.70024 0
M  V30 5161 O 486.455 -4.01161 0.956216 0
M  V30 5162 H 485.796 -0.545008 0.379292 0
M  V30 5163 H 488.326 -1.24277 1.62531 0
M  V30 5164 H 488.336 -3.68616 1.74888 0
M  V30 5165 H 487.011 -3.11853 2.75174 0
M  V30 5166 H 485.588 -3.59687 0.98384 0
M  V30 5167 N 487.773 -1.03688 -1.18687 0
M  V30 5168 C 488.998 -0.757819 -1.93059 0
M  V30 5169 C 489.423 0.678353 -1.75442 0
M  V30 5170 O 488.781 1.46938 -1.06203 0
M  V30 5171 C 488.829 -1.12423 -3.42627 0
M  V30 5172 O 487.933 -0.247505 -4.11657 0
M  V30 5173 H 487.274 -0.279245 -0.602427 0
M  V30 5174 H 489.804 -1.3857 -1.5053 0
M  V30 5175 H 489.814 -1.08454 -3.93322 0
M  V30 5176 H 488.489 -2.17049 -3.54771 0
M  V30 5177 H 487.066 -0.34649 -3.71287 0
M  V30 5178 N 489.251 1.34841 -0.815825 0
M  V30 5179 C 490.476 2.03261 -0.41226 0
M  V30 5180 C 490.901 1.61055 0.971751 0
M  V30 5181 O 490.259 0.7917 1.63101 0
M  V30 5182 C 490.307 3.56914 -0.514289 0
M  V30 5183 O 489.411 4.09728 0.468675 0
M  V30 5184 H 488.752 0.641664 -0.170771 0
M  V30 5185 H 491.282 1.72241 -1.10427 0
M  V30 5186 H 491.292 4.06156 -0.387457 0
M  V30 5187 H 489.967 3.86982 -1.52375 0
M  V30 5188 H 488.544 3.71681 0.301316 0
M  V30 5189 N 490.729 0.570148 1.46925 0
M  V30 5190 C 491.977 0.0508523 2.02036 0
M  V30 5191 C 492.298 -1.30885 1.44548 0
M  V30 5192 O 491.568 -1.85647 0.625453 0
M  V30 5193 H 490.148 0.0158088 0.746833 0
M  V30 5194 H 492.81 0.743086 1.80178 0
M  V30 5195 H 491.906 -0.027575 3.12088 0
M  V30 5196 N 492.207 -1.54576 0.307264 0
M  V30 5197 C 493.137 -2.26708 -0.55907 0
M  V30 5198 C 494.118 -1.26893 -1.1328 0
M  V30 5199 O 495.303 -1.55677 -1.16097 0
M  V30 5200 C 492.433 -3.01259 -1.72801 0
M  V30 5201 C 491.387 -4.08275 -1.28435 0
M  V30 5202 C 490.713 -4.70575 -2.53895 0
M  V30 5203 C 492.013 -5.2068 -0.411038 0
M  V30 5204 H 493.707 -2.9937 0.042576 0
M  V30 5205 H 491.253 -1.43983 0.0219173 0
M  V30 5206 H 493.206 -3.50444 -2.34023 0
M  V30 5207 H 491.93 -2.26187 -2.356 0
M  V30 5208 H 490.589 -3.59949 -0.695161 0
M  V30 5209 H 490.237 -3.92136 -3.15021 0
M  V30 5210 H 489.937 -5.42854 -2.24908 0
M  V30 5211 H 491.461 -5.22527 -3.15908 0
M  V30 5212 H 492.875 -5.65721 -0.929097 0
M  V30 5213 H 491.272 -5.99716 -0.214664 0
M  V30 5214 H 492.342 -4.81629 0.562287 0
M  V30 5215 N 493.685 -0.035106 -1.57561 0
M  V30 5216 C 494.617 0.973604 -2.07494 0
M  V30 5217 C 495.63 1.28504 -0.999534 0
M  V30 5218 O 496.819 1.24864 -1.27559 0
M  V30 5219 C 493.919 2.29945 -2.48955 0
M  V30 5220 C 493.092 2.1723 -3.79644 0
M  V30 5221 C 492.151 3.328 -4.07592 0
M  V30 5222 O 491.177 3.09418 -4.77754 0
M  V30 5223 N 492.379 4.56779 -3.58236 0
M  V30 5224 H 495.144 0.547525 -2.94656 0
M  V30 5225 H 492.705 0.151515 -1.61189 0
M  V30 5226 H 494.697 3.06097 -2.64739 0
M  V30 5227 H 493.267 2.64173 -1.67126 0
M  V30 5228 H 492.487 1.25768 -3.73599 0
M  V30 5229 H 493.775 2.05945 -4.65257 0
M  V30 5230 H 493.173 4.78668 -3.01485 0
M  V30 5231 H 491.73 5.30079 -3.79288 0
M  V30 5232 N 495.163 1.55791 0.238111 0
M  V30 5233 C 496.409 1.78297 0.966337 0
M  V30 5234 C 496.742 0.601903 1.84637 0
M  V30 5235 O 496.017 -0.399499 1.90353 0
M  V30 5236 C 496.3 3.10758 1.81939 0
M  V30 5237 C 496.153 4.39283 0.966958 0
M  V30 5238 C 497.472 3.39519 2.80027 0
M  V30 5239 H 494.591 0.648654 0.349882 0
M  V30 5240 H 497.233 1.88525 0.236253 0
M  V30 5241 H 495.383 3.02168 2.44185 0
M  V30 5242 H 497.055 4.59873 0.362514 0
M  V30 5243 H 495.298 4.32948 0.271669 0
M  V30 5244 H 495.969 5.28368 1.59784 0
M  V30 5245 H 498.445 3.48128 2.27917 0
M  V30 5246 H 497.321 4.33402 3.36829 0
M  V30 5247 H 497.582 2.60864 3.56934 0
M  V30 5248 N 496.642 -0.504142 1.49319 0
M  V30 5249 C 497.572 -1.61473 1.68667 0
M  V30 5250 C 498.553 -1.61455 0.535378 0
M  V30 5251 O 499.738 -1.78245 0.770868 0
M  V30 5252 C 496.868 -2.99971 1.75028 0
M  V30 5253 C 495.822 -3.14854 2.89916 0
M  V30 5254 C 495.148 -4.54671 2.81387 0
M  V30 5255 C 496.448 -2.95176 4.30893 0
M  V30 5256 H 498.142 -1.45535 2.61648 0
M  V30 5257 H 495.688 -0.698711 1.25913 0
M  V30 5258 H 497.641 -3.77562 1.8715 0
M  V30 5259 H 496.365 -3.1699 0.786441 0
M  V30 5260 H 495.024 -2.39687 2.77391 0
M  V30 5261 H 494.672 -4.68562 1.82917 0
M  V30 5262 H 494.372 -4.6557 3.58494 0
M  V30 5263 H 495.896 -5.34327 2.95512 0
M  V30 5264 H 497.31 -3.62538 4.44116 0
M  V30 5265 H 495.707 -3.17549 5.09198 0
M  V30 5266 H 496.777 -1.91332 4.45556 0
M  V30 5267 N 498.12 -1.38341 -0.754957 0
M  V30 5268 C 499.068 -1.35573 -1.89005 0
M  V30 5269 C 500.062 -0.241824 -1.67665 0
M  V30 5270 O 501.268 -0.410785 -1.7525 0
M  V30 5271 H 497.643 -0.422898 -0.621821 0
M  V30 5272 H 499.614 -2.31359 -1.88455 0
M  V30 5273 C 498.363 -1.19631 -3.26471 0
M  V30 5274 H 497.686 -2.04605 -3.43477 0
M  V30 5275 H 499.126 -1.21748 -4.06144 0
M  V30 5276 C 497.585 0.0968705 -3.36761 0
M  V30 5277 O 498.115 1.07439 -3.87066 0
M  V30 5278 N 496.321 0.153242 -2.90196 0
M  V30 5279 H 495.868 -0.642908 -2.49448 0
M  V30 5280 H 495.826 1.01807 -2.9746 0
M  V30 5281 N 499.598 0.982988 -1.23187 0
M  V30 5282 C 500.844 1.72648 -1.06398 0
M  V30 5283 C 501.177 1.90066 0.398561 0
M  V30 5284 O 500.452 1.45105 1.29518 0
M  V30 5285 C 500.735 3.12627 -1.78707 0
M  V30 5286 C 500.588 3.02795 -3.32618 0
M  V30 5287 C 501.907 4.11997 -1.54747 0
M  V30 5288 H 499.026 0.626649 -0.387918 0
M  V30 5289 H 501.668 1.14455 -1.51658 0
M  V30 5290 H 499.818 3.62308 -1.40234 0
M  V30 5291 H 501.49 2.60659 -3.80598 0
M  V30 5292 H 499.733 2.39362 -3.61785 0
M  V30 5293 H 500.404 4.01893 -3.78399 0
M  V30 5294 H 502.88 3.71114 -1.88186 0
M  V30 5295 H 501.756 5.08037 -2.07821 0
M  V30 5296 H 502.017 4.39462 -0.482249 0
M  V30 5297 N 501.076 1.04316 1.18135 0
M  V30 5298 C 502.026 0.606731 2.19779 0
M  V30 5299 C 503.01 -0.352144 1.56999 0
M  V30 5300 O 504.202 -0.170795 1.76174 0
M  V30 5301 C 501.331 -0.0262443 3.4329 0
M  V30 5302 C 500.417 0.955928 4.13186 0
M  V30 5303 N 500.808 2.12395 4.59045 0
M  V30 5304 C 499.106 0.782473 4.39082 0
M  V30 5305 C 499.807 2.74458 5.12882 0
M  V30 5306 N 498.783 2.02316 5.04548 0
M  V30 5307 H 502.585 1.49679 2.5293 0
M  V30 5308 H 500.099 0.912088 1.34368 0
M  V30 5309 H 502.096 -0.356617 4.15372 0
M  V30 5310 H 500.756 -0.911811 3.11635 0
M  V30 5311 H 501.767 2.50272 4.53414 0
M  V30 5312 H 498.444 -0.0527906 4.17467 0
M  V30 5313 H 499.834 3.73459 5.5855 0
M  V30 5314 N 502.554 -1.34406 0.822964 0
M  V30 5315 C 503.801 -1.98284 0.411057 0
M  V30 5316 C 504.129 -1.65245 -1.02588 0
M  V30 5317 O 503.384 -0.91619 -1.72929 0
M  V30 5318 C 503.683 -3.52981 0.560268 0
M  V30 5319 C 503.349 -4.05931 1.96293 0
M  V30 5320 C 502.011 -4.20103 2.34664 0
M  V30 5321 C 504.363 -4.34412 2.87985 0
M  V30 5322 C 501.691 -4.60082 3.64062 0
M  V30 5323 C 504.043 -4.75838 4.16847 0
M  V30 5324 C 502.707 -4.88215 4.55195 0
M  V30 5325 H 501.977 -0.725573 0.150416 0
M  V30 5326 H 504.624 -1.60349 1.04692 0
M  V30 5327 H 502.929 -3.91477 -0.158982 0
M  V30 5328 H 504.626 -4.00385 0.222087 0
M  V30 5329 H 501.216 -3.95363 1.65487 0
M  V30 5330 H 505.4 -4.23001 2.59584 0
M  V30 5331 H 500.656 -4.67856 3.93599 0
M  V30 5332 H 504.83 -4.96834 4.87984 0
M  V30 5333 H 502.457 -5.18952 5.55512 0
M  V30 5334 N 504.032 -0.577932 -1.46621 0
M  V30 5335 C 505.28 -0.061566 -2.02006 0
M  V30 5336 C 505.601 1.30117 -1.4524 0
M  V30 5337 O 504.871 1.85313 -0.63529 0
M  V30 5338 H 503.451 -0.0197692 -0.746738 0
M  V30 5339 H 506.113 -0.752631 -1.79782 0
M  V30 5340 H 505.209 0.0110238 -3.12098 0
M  V30 5341 N 505.51 1.54411 -0.315457 0
M  V30 5342 C 506.758 2.00023 0.288971 0
M  V30 5343 C 507.079 1.20529 1.5329 0
M  V30 5344 O 506.349 0.304986 1.93511 0
M  V30 5345 H 504.929 0.738891 0.109766 0
M  V30 5346 H 507.591 1.90094 -0.430129 0
M  V30 5347 H 506.687 3.07198 0.550999 0
M  V30 5348 N 506.988 0.0434614 1.5754 0
M  V30 5349 C 507.898 -0.94893 2.14552 0
M  V30 5350 C 508.914 -1.34707 1.10136 0
M  V30 5351 O 510.09 -1.42557 1.42266 0
M  V30 5352 C 507.155 -2.208 2.67298 0
M  V30 5353 C 506.216 -1.86893 3.86484 0
M  V30 5354 C 505.449 -3.06797 4.36705 0
M  V30 5355 O 505.672 -4.19921 3.86034 0
M  V30 5356 O 504.606 -2.8826 5.28384 0
M  V30 5357 H 508.432 -0.494099 2.99654 0
M  V30 5358 H 506.017 -0.177989 1.48336 0
M  V30 5359 H 507.899 -2.94686 3.01228 0
M  V30 5360 H 506.574 -2.65436 1.85272 0
M  V30 5361 H 505.481 -1.10347 3.57455 0
M  V30 5362 H 506.814 -1.47062 4.69716 0
M  V30 5363 N 508.466 -1.55915 -0.229846 0
M  V30 5364 C 509.882 -1.48721 -0.579166 0
M  V30 5365 C 510.082 -0.736976 -1.87539 0
M  V30 5366 O 509.138 -0.273258 -2.51017 0
M  V30 5367 C 510.451 -2.9323 -0.666082 0
M  V30 5368 C 511.999 -3.03701 -0.757267 0
M  V30 5369 C 512.474 -4.49552 -0.8756 0
M  V30 5370 N 513.965 -4.53561 -0.940035 0
M  V30 5371 C 514.7 -5.63683 -1.05116 0
M  V30 5372 N 514.196 -6.83576 -1.12675 0
M  V30 5373 N 515.989 -5.51516 -1.08565 0
M  V30 5374 H 508.14 -2.03123 0.620857 0
M  V30 5375 H 510.403 -0.922898 0.21671 0
M  V30 5376 H 510.109 -3.51032 0.21664 0
M  V30 5377 H 509.983 -3.44668 -1.53243 0
M  V30 5378 H 512.37 -2.45969 -1.63043 0
M  V30 5379 H 512.451 -2.55446 0.134583 0
M  V30 5380 H 512.095 -5.079 -0.00692351 0
M  V30 5381 H 512.025 -4.95506 -1.78274 0
M  V30 5382 H 514.516 -3.67215 -0.892269 0
M  V30 5383 H 514.829 -7.63251 -1.21109 0
M  V30 5384 H 513.174 -6.86303 -1.09603 0
M  V30 5385 H 516.365 -4.5678 -1.02319 0
M  V30 5386 H 516.538 -6.37372 -1.1688 0
M  V30 5387 N 509.944 0.496216 -1.49584 0
M  V30 5388 C 511.193 1.24668 -1.58558 0
M  V30 5389 C 511.506 1.9359 -0.279703 0
M  V30 5390 O 512.712 2.70365 -0.248048 0
M  V30 5391 C 511.168 2.26388 -2.79779 0
M  V30 5392 C 510.776 1.63384 -4.17145 0
M  V30 5393 C 512.52 3.02233 -2.98086 0
M  V30 5394 C 510.427 2.63243 -5.29582 0
M  V30 5395 H 509.357 0.468995 -0.590389 0
M  V30 5396 H 512.008 0.519985 -1.75978 0
M  V30 5397 H 510.39 3.02241 -2.55863 0
M  V30 5398 H 511.564 0.93491 -4.51216 0
M  V30 5399 H 509.879 0.999121 -4.04236 0
M  V30 5400 H 512.476 3.76919 -3.79257 0
M  V30 5401 H 512.819 3.60132 -2.08831 0
M  V30 5402 H 513.352 2.33495 -3.22063 0
M  V30 5403 H 510.091 2.10119 -6.20911 0
M  V30 5404 H 509.611 3.31363 -4.99959 0
M  V30 5405 H 511.29 3.25575 -5.59115 0
M  V30 5406 N 511.423 1.38739 0.74761 0
M  V30 5407 C 512.386 1.36241 1.84312 0
M  V30 5408 C 513.386 0.261811 1.58654 0
M  V30 5409 O 514.576 0.519031 1.66288 0
M  V30 5410 C 511.708 1.12253 3.21888 0
M  V30 5411 H 512.901 2.33712 1.87933 0
M  V30 5412 H 510.454 1.2412 0.949946 0
M  V30 5413 H 511.189 0.154133 3.23934 0
M  V30 5414 H 510.974 1.91943 3.41907 0
M  V30 5415 H 512.464 1.13215 4.0196 0
M  V30 5416 N 512.901 -0.976442 1.23707 0
M  V30 5417 C 514.131 -1.75087 1.09673 0
M  V30 5418 C 514.539 -1.85852 -0.354344 0
M  V30 5419 O 513.882 -1.33985 -1.25673 0
M  V30 5420 C 513.944 -3.19272 1.65245 0
M  V30 5421 C 513.608 -3.32004 3.14042 0
M  V30 5422 C 514.605 -3.18017 4.11292 0
M  V30 5423 C 512.29 -3.56525 3.53829 0
M  V30 5424 C 514.284 -3.28363 5.46312 0
M  V30 5425 C 511.971 -3.6651 4.88993 0
M  V30 5426 C 512.969 -3.52439 5.85043 0
M  V30 5427 O 512.657 -3.62063 7.1775 0
M  V30 5428 H 512.389 -0.556164 0.384262 0
M  V30 5429 H 514.943 -1.23518 1.64111 0
M  V30 5430 H 513.173 -3.72107 1.05231 0
M  V30 5431 H 514.862 -3.7849 1.46629 0
M  V30 5432 H 515.628 -2.98966 3.81896 0
M  V30 5433 H 511.507 -3.66547 2.79579 0
M  V30 5434 H 515.051 -3.17297 6.21263 0
M  V30 5435 H 510.948 -3.85072 5.18063 0
M  V30 5436 H 511.716 -3.78833 7.25553 0
M  V30 5437 N 514.379 -1.04941 -1.1758 0
M  V30 5438 C 515.289 -0.658826 -2.25159 0
M  V30 5439 C 516.305 0.318941 -1.71052 0
M  V30 5440 O 517.481 0.171669 -2.00667 0
M  V30 5441 C 514.546 -0.0369522 -3.4668 0
M  V30 5442 C 513.607 -1.06484 -4.15884 0
M  V30 5443 C 512.84 -0.472551 -5.31604 0
M  V30 5444 O 513.063 0.718736 -5.65854 0
M  V30 5445 O 511.997 -1.20557 -5.89703 0
M  V30 5446 H 515.823 -1.55533 -2.60851 0
M  V30 5447 H 513.408 -0.820819 -1.24832 0
M  V30 5448 H 515.29 0.308784 -4.20267 0
M  V30 5449 H 513.965 0.833238 -3.12792 0
M  V30 5450 H 512.872 -1.46253 -3.44327 0
M  V30 5451 H 514.205 -1.9061 -4.53794 0
M  V30 5452 N 515.857 1.33968 -0.830081 0
M  V30 5453 C 517.103 1.98357 -0.422191 0
M  V30 5454 C 517.436 1.65633 1.01387 0
M  V30 5455 O 516.711 0.931648 1.70735 0
M  V30 5456 C 516.994 3.54492 -0.633043 0
M  V30 5457 C 516.847 3.96934 -2.11574 0
M  V30 5458 C 518.166 4.40039 -0.0735584 0
M  V30 5459 H 515.285 0.720544 -0.154871 0
M  V30 5460 H 517.927 1.58749 -1.04397 0
M  V30 5461 H 516.077 3.88361 -0.103775 0
M  V30 5462 H 517.749 3.73363 -2.7092 0
M  V30 5463 H 515.992 3.46984 -2.60354 0
M  V30 5464 H 516.663 5.05651 -2.21406 0
M  V30 5465 H 519.139 4.12764 -0.52585 0
M  V30 5466 H 518.015 5.48327 -0.250841 0
M  V30 5467 H 518.276 4.30124 1.02202 0
M  V30 5468 N 517.335 0.585699 1.46312 0
M  V30 5469 C 518.56 0.0762461 2.0726 0
M  V30 5470 C 518.985 -1.22071 1.43109 0
M  V30 5471 O 518.343 -1.73804 0.515942 0
M  V30 5472 C 518.391 -0.0729404 3.60526 0
M  V30 5473 O 517.495 -1.1287 3.96654 0
M  V30 5474 H 516.836 0.0641558 0.660893 0
M  V30 5475 H 519.366 0.809492 1.87905 0
M  V30 5476 H 519.376 -0.278158 4.07051 0
M  V30 5477 H 518.051 0.874188 4.06609 0
M  V30 5478 H 516.628 -0.901703 3.61834 0
M  V30 5479 N 518.813 -1.54241 0.323641 0
M  V30 5480 C 520.059 -2.00867 -0.279323 0
M  V30 5481 C 520.392 -1.21146 -1.5178 0
M  V30 5482 O 519.667 -0.29378 -1.92269 0
M  V30 5483 C 519.95 -3.54837 -0.613387 0
M  V30 5484 C 519.803 -4.45284 0.635803 0
M  V30 5485 C 521.122 -4.16186 -1.43099 0
M  V30 5486 H 518.241 -0.730177 -0.100049 0
M  V30 5487 H 520.883 -1.84829 0.440235 0
M  V30 5488 H 519.033 -3.68634 -1.22641 0
M  V30 5489 H 520.705 -4.43357 1.27406 0
M  V30 5490 H 518.948 -4.14956 1.26466 0
M  V30 5491 H 519.619 -5.5084 0.357597 0
M  V30 5492 H 522.095 -4.05964 -0.912814 0
M  V30 5493 H 520.971 -5.24031 -1.6335 0
M  V30 5494 H 521.232 -3.69516 -2.42715 0
M  V30 5495 N 520.291 -0.0518155 -1.57515 0
M  V30 5496 C 521.223 0.951542 -2.08515 0
M  V30 5497 C 522.236 1.27436 -1.01311 0
M  V30 5498 O 523.425 1.23504 -1.28876 0
M  V30 5499 C 520.525 2.27291 -2.5138 0
M  V30 5500 C 519.698 2.13191 -3.81927 0
M  V30 5501 C 518.757 3.28458 -4.11098 0
M  V30 5502 O 517.783 3.04334 -4.81009 0
M  V30 5503 N 518.985 4.52954 -3.63061 0
M  V30 5504 H 521.75 0.516242 -2.9522 0
M  V30 5505 H 519.311 0.13441 -1.61341 0
M  V30 5506 H 521.303 3.03272 -2.67971 0
M  V30 5507 H 519.873 2.62386 -1.69919 0
M  V30 5508 H 519.093 1.21798 -3.74912 0
M  V30 5509 H 520.381 2.00999 -4.67415 0
M  V30 5510 H 519.779 4.75444 -3.06545 0
M  V30 5511 H 518.336 5.26026 -3.84889 0
M  V30 5512 N 521.769 1.56035 0.221574 0
M  V30 5513 C 522.679 1.95581 1.29558 0
M  V30 5514 C 523.695 0.859639 1.51282 0
M  V30 5515 O 524.871 1.16321 1.64413 0
M  V30 5516 C 521.936 2.26447 2.62531 0
M  V30 5517 C 520.997 3.49632 2.4911 0
M  V30 5518 C 520.23 3.79017 3.75742 0
M  V30 5519 O 520.453 3.10077 4.78757 0
M  V30 5520 O 519.387 4.72507 3.72855 0
M  V30 5521 H 523.213 2.8711 0.990035 0
M  V30 5522 H 520.798 1.43244 0.424434 0
M  V30 5523 H 522.68 2.47494 3.41064 0
M  V30 5524 H 521.355 1.38092 2.92766 0
M  V30 5525 H 520.262 3.33864 1.68777 0
M  V30 5526 H 521.595 4.3837 2.23814 0
M  V30 5527 N 523.247 -0.488276 1.49845 0
M  V30 5528 C 524.21 -1.57069 1.66919 0
M  V30 5529 C 525.21 -1.51445 0.540479 0
M  V30 5530 O 526.4 -1.5437 0.807188 0
M  V30 5531 C 523.532 -2.96718 1.67844 0
M  V30 5532 H 524.725 -1.43254 2.63474 0
M  V30 5533 H 522.278 -0.713435 1.39068 0
M  V30 5534 H 523.013 -3.15996 0.7292 0
M  V30 5535 H 522.798 -3.02208 2.49826 0
M  V30 5536 H 524.288 -3.75335 1.83066 0
M  V30 5537 N 524.725 -1.39134 -0.740242 0
M  V30 5538 C 525.971 -1.36273 -1.50192 0
M  V30 5539 C 526.304 0.0430136 -1.94152 0
M  V30 5540 O 525.579 1.00691 -1.66408 0
M  V30 5541 C 525.862 -2.33041 -2.74525 0
M  V30 5542 C 525.715 -3.82535 -2.36617 0
M  V30 5543 C 527.034 -2.27723 -3.76604 0
M  V30 5544 H 524.153 -0.496323 -0.544823 0
M  V30 5545 H 526.795 -1.70085 -0.846815 0
M  V30 5546 H 524.945 -2.04337 -3.30422 0
M  V30 5547 H 526.617 -4.21967 -1.86391 0
M  V30 5548 H 524.86 -3.99565 -1.68909 0
M  V30 5549 H 525.531 -4.45723 -3.2563 0
M  V30 5550 H 528.007 -2.53091 -3.30279 0
M  V30 5551 H 526.883 -2.97519 -4.61274 0
M  V30 5552 H 527.144 -1.28049 -4.2315 0
M  V30 5553 N 526.204 0.969867 -1.24223 0
M  V30 5554 C 527.167 2.04564 -1.03373 0
M  V30 5555 C 528.167 1.60798 0.00819206 0
M  V30 5556 O 529.357 1.72641 -0.232567 0
M  V30 5557 C 526.489 3.36163 -0.566343 0
M  V30 5558 H 527.682 2.24494 -1.98853 0
M  V30 5559 H 525.235 1.1448 -1.06415 0
M  V30 5560 H 525.97 3.21925 0.391751 0
M  V30 5561 H 525.755 3.69273 -1.31834 0
M  V30 5562 H 527.245 4.1526 -0.441435 0
M  V30 5563 N 527.682 1.05563 1.17022 0
M  V30 5564 C 528.612 0.681026 2.23348 0
M  V30 5565 C 529.593 -0.322983 1.67005 0
M  V30 5566 O 530.778 -0.199746 1.9317 0
M  V30 5567 C 527.908 0.0589053 3.4725 0
M  V30 5568 C 526.862 0.988082 4.16438 0
M  V30 5569 C 526.188 0.229646 5.34207 0
M  V30 5570 C 527.488 2.31388 4.68249 0
M  V30 5571 H 529.182 1.56993 2.54938 0
M  V30 5572 H 526.728 0.756302 1.2254 0
M  V30 5573 H 528.681 -0.214982 4.20851 0
M  V30 5574 H 527.405 -0.864968 3.14938 0
M  V30 5575 H 526.064 1.24659 3.44754 0
M  V30 5576 H 525.712 -0.697111 4.98146 0
M  V30 5577 H 525.412 0.848815 5.81437 0
M  V30 5578 H 526.936 -0.0368694 6.10589 0
M  V30 5579 H 528.35 2.09964 5.33468 0
M  V30 5580 H 526.747 2.88736 5.26072 0
M  V30 5581 H 527.817 2.94982 3.84855 0
M  V30 5582 N 529.16 -1.33526 0.837174 0
M  V30 5583 C 530.39 -2.01754 0.444848 0
M  V30 5584 C 530.798 -1.63149 -0.958072 0
M  V30 5585 O 530.141 -0.839827 -1.63379 0
M  V30 5586 C 530.203 -3.56228 0.483917 0
M  V30 5587 C 529.867 -4.18205 1.84265 0
M  V30 5588 C 530.864 -4.37699 2.80563 0
M  V30 5589 C 528.549 -4.54667 2.13503 0
M  V30 5590 C 530.543 -4.928 4.04261 0
M  V30 5591 C 528.23 -5.09475 3.37458 0
M  V30 5592 C 529.228 -5.28488 4.32654 0
M  V30 5593 O 528.916 -5.82132 5.54417 0
M  V30 5594 H 528.648 -0.652928 0.175104 0
M  V30 5595 H 531.202 -1.71469 1.13082 0
M  V30 5596 H 529.432 -3.85833 -0.258826 0
M  V30 5597 H 531.121 -4.05752 0.109653 0
M  V30 5598 H 531.887 -4.0988 2.59274 0
M  V30 5599 H 527.766 -4.39164 1.40201 0
M  V30 5600 H 531.31 -5.07555 4.78574 0
M  V30 5601 H 527.207 -5.36725 3.58604 0
M  V30 5602 H 527.975 -6.00548 5.56133 0
M  V30 5603 N 530.638 -0.59345 -1.46 0
M  V30 5604 C 531.886 -0.082988 -2.0193 0
M  V30 5605 C 532.207 1.28569 -1.46612 0
M  V30 5606 O 531.477 1.84629 -0.654909 0
M  V30 5607 H 530.057 -0.0276882 -0.746487 0
M  V30 5608 H 532.719 -0.771657 -1.78973 0
M  V30 5609 H 531.815 -0.022079 -3.12092 0
M  V30 5610 N 532.116 1.54067 -0.331816 0
M  V30 5611 C 533.364 2.00319 0.267739 0
M  V30 5612 C 533.685 1.22148 1.52003 0
M  V30 5613 O 532.955 0.325494 1.93177 0
M  V30 5614 H 531.535 0.740014 0.101922 0
M  V30 5615 H 534.197 1.89628 -0.450267 0
M  V30 5616 H 533.293 3.07765 0.518385 0
M  V30 5617 N 533.594 0.0601682 1.57485 0
M  V30 5618 C 534.544 -0.920969 2.08572 0
M  V30 5619 C 535.528 -1.26617 0.992827 0
M  V30 5620 O 536.72 -1.24708 1.25606 0
M  V30 5621 C 533.849 -2.19267 2.64153 0
M  V30 5622 C 532.935 -1.87447 3.80427 0
M  V30 5623 N 533.326 -1.26025 4.89848 0
M  V30 5624 C 531.624 -2.17265 3.89502 0
M  V30 5625 C 532.325 -1.12036 5.70809 0
M  V30 5626 N 531.301 -1.62624 5.18705 0
M  V30 5627 H 535.103 -0.441561 2.90564 0
M  V30 5628 H 532.617 -0.144043 1.6176 0
M  V30 5629 H 534.614 -2.90462 2.99061 0
M  V30 5630 H 533.274 -2.67806 1.83603 0
M  V30 5631 H 534.285 -0.931336 5.09457 0
M  V30 5632 H 530.962 -2.68262 3.19909 0
M  V30 5633 H 532.352 -0.642783 6.68818 0
M  V30 5634 N 535.072 -1.5615 -0.213296 0
M  V30 5635 C 536.3 -1.83638 -0.953139 0
M  V30 5636 C 536.715 -0.640362 -1.77609 0
M  V30 5637 O 536.072 0.391071 -1.78261 0
M  V30 5638 C 536.123 -3.09735 -1.86405 0
M  V30 5639 O 535.844 -4.24723 -1.07435 0
M  V30 5640 C 537.345 -3.5027 -2.71709 0
M  V30 5641 H 534.565 -0.610263 -0.278962 0
M  V30 5642 H 537.109 -2.03247 -0.226035 0
M  V30 5643 H 535.264 -2.92077 -2.545 0
M  V30 5644 H 535.678 -4.9641 -1.69343 0
M  V30 5645 H 537.152 -4.41515 -3.31313 0
M  V30 5646 H 537.629 -2.72406 -3.44516 0
M  V30 5647 H 538.235 -3.70396 -2.09015 0
M  V30 5648 N 536.55 0.480323 -1.50102 0
M  V30 5649 C 537.961 1.06142 -1.53593 0
M  V30 5650 C 538.312 1.93335 -0.334055 0
M  V30 5651 O 537.437 2.09188 0.55403 0
M  V30 5652 C 538.032 1.9317 -2.78336 0
M  V30 5653 C 536.591 2.46405 -2.84538 0
M  V30 5654 C 535.738 1.24521 -2.4777 0
M  V30 5655 H 538.689 0.26333 -1.565 0
M  V30 5656 H 538.71 2.78123 -2.59669 0
M  V30 5657 H 538.222 1.29683 -3.65792 0
M  V30 5658 H 536.323 3.13472 -2.01411 0
M  V30 5659 H 536.436 2.82143 -3.87211 0
M  V30 5660 H 534.8 1.57706 -2.00003 0
M  V30 5661 H 535.583 0.627102 -3.37524 0
M  V30 5662 N 538.028 1.39524 0.732853 0
M  V30 5663 C 538.991 1.38189 1.82857 0
M  V30 5664 C 539.991 0.278624 1.58368 0
M  V30 5665 O 541.181 0.536639 1.65728 0
M  V30 5666 C 538.313 1.15661 3.2068 0
M  V30 5667 H 539.506 2.35692 1.85444 0
M  V30 5668 H 537.059 1.2512 0.936728 0
M  V30 5669 H 537.794 0.188482 3.23752 0
M  V30 5670 H 537.579 1.95559 3.39852 0
M  V30 5671 H 539.069 1.17472 4.00737 0
M  V30 5672 N 539.506 -0.963266 1.24736 0
M  V30 5673 C 540.754 -1.70343 1.08755 0
M  V30 5674 C 541.075 -1.91387 -0.373619 0
M  V30 5675 O 540.345 -1.4948 -1.2662 0
M  V30 5676 H 538.925 -0.631224 0.399456 0
M  V30 5677 H 541.587 -1.15859 1.56725 0
M  V30 5678 H 540.683 -2.68616 1.58909 0
M  V30 5679 N 540.985 -1.06182 -1.16461 0
M  V30 5680 C 541.918 -0.615859 -2.19733 0
M  V30 5681 C 542.896 0.360766 -1.58547 0
M  V30 5682 O 544.08 0.270009 -1.86556 0
M  V30 5683 C 541.207 0.097312 -3.3856 0
M  V30 5684 C 540.253 -0.835889 -4.18229 0
M  V30 5685 S 541.086 -2.33052 -4.82128 0
M  V30 5686 C 542.242 -1.62881 -6.04335 0
M  V30 5687 H 542.475 -1.49079 -2.57221 0
M  V30 5688 H 540.008 -0.874692 -1.27234 0
M  V30 5689 H 541.966 0.502563 -4.07412 0
M  V30 5690 H 540.627 0.948418 -2.99439 0
M  V30 5691 H 539.82 -0.283426 -5.03202 0
M  V30 5692 H 539.422 -1.18097 -3.54865 0
M  V30 5693 H 541.714 -0.933764 -6.71034 0
M  V30 5694 H 542.657 -2.45641 -6.64128 0
M  V30 5695 H 543.065 -1.11189 -5.53441 0
M  V30 5696 N 542.463 1.3308 -0.844243 0
M  V30 5697 C 543.395 2.27954 -0.238671 0
M  V30 5698 C 544.408 1.51978 0.583665 0
M  V30 5699 O 545.597 1.73731 0.409857 0
M  V30 5700 C 542.697 3.31963 0.682185 0
M  V30 5701 C 541.87 4.37281 -0.101998 0
M  V30 5702 C 540.929 5.20928 0.743022 0
M  V30 5703 O 539.955 5.68914 0.180285 0
M  V30 5704 N 541.157 5.42738 2.0595 0
M  V30 5705 H 543.922 2.8056 -1.05386 0
M  V30 5706 H 541.483 1.4583 -0.70322 0
M  V30 5707 H 543.475 3.84828 1.25259 0
M  V30 5708 H 542.045 2.79594 1.39808 0
M  V30 5709 H 541.265 3.84843 -0.853802 0
M  V30 5710 H 542.553 5.04746 -0.641015 0
M  V30 5711 H 541.951 5.05463 2.54016 0
M  V30 5712 H 540.508 5.98639 2.57827 0
M  V30 5713 N 543.941 0.601185 1.45683 0
M  V30 5714 C 545.169 0.100054 2.06658 0
M  V30 5715 C 545.584 -1.21285 1.44691 0
M  V30 5716 O 544.941 -1.73735 0.558772 0
M  V30 5717 C 544.992 -0.0528579 3.61461 0
M  V30 5718 O 544.713 1.20809 4.21114 0
M  V30 5719 C 546.214 -0.586193 4.39407 0
M  V30 5720 H 543.434 0.065905 0.667756 0
M  V30 5721 H 545.978 0.827101 1.87028 0
M  V30 5722 H 544.133 -0.730203 3.80456 0
M  V30 5723 H 544.547 1.03368 5.14213 0
M  V30 5724 H 546.021 -0.642297 5.4825 0
M  V30 5725 H 546.498 -1.60713 4.0874 0
M  V30 5726 H 547.104 0.0568935 4.25262 0
M  V30 5727 N 545.419 -1.53889 0.339982 0
M  V30 5728 C 546.366 -2.24902 -0.518452 0
M  V30 5729 C 547.336 -1.24593 -1.09844 0
M  V30 5730 O 548.521 -1.53317 -1.13572 0
M  V30 5731 C 545.661 -3.02262 -1.66529 0
M  V30 5732 C 544.774 -4.17418 -1.11295 0
M  V30 5733 C 543.909 -4.82273 -2.2268 0
M  V30 5734 C 542.948 -5.89503 -1.6478 0
M  V30 5735 N 542.085 -6.48153 -2.69893 0
M  V30 5736 H 546.925 -2.97853 0.0936579 0
M  V30 5737 H 544.462 -1.46986 0.0579924 0
M  V30 5738 H 546.42 -3.45371 -2.3404 0
M  V30 5739 H 545.05 -2.31614 -2.24844 0
M  V30 5740 H 544.102 -3.78976 -0.328886 0
M  V30 5741 H 545.414 -4.94554 -0.649414 0
M  V30 5742 H 544.568 -5.28435 -2.98063 0
M  V30 5743 H 543.307 -4.04552 -2.72376 0
M  V30 5744 H 542.312 -5.42728 -0.879004 0
M  V30 5745 H 543.537 -6.6913 -1.1594 0
M  V30 5746 H 541.483 -5.73298 -3.1885 0
M  V30 5747 H 541.4 -7.20752 -2.28151 0
M  V30 5748 H 542.668 -6.98968 -3.45056 0
M  V30 5749 N 546.897 -0.0685191 -1.57451 0
M  V30 5750 C 548.127 0.609577 -1.97402 0
M  V30 5751 C 548.535 1.63882 -0.945489 0
M  V30 5752 O 547.878 1.8354 0.0766052 0
M  V30 5753 C 547.94 1.3385 -3.33653 0
M  V30 5754 C 547.604 0.463103 -4.54648 0
M  V30 5755 C 548.601 -0.277964 -5.19156 0
M  V30 5756 C 546.286 0.388941 -5.00792 0
M  V30 5757 C 548.28 -1.08145 -6.28159 0
M  V30 5758 C 545.967 -0.418217 -6.09667 0
M  V30 5759 C 546.965 -1.15208 -6.73213 0
M  V30 5760 O 546.653 -1.94594 -7.79993 0
M  V30 5761 H 546.385 0.170197 -0.654224 0
M  V30 5762 H 548.939 -0.13647 -2.04946 0
M  V30 5763 H 547.169 2.13055 -3.22714 0
M  V30 5764 H 548.858 1.90851 -3.58233 0
M  V30 5765 H 549.624 -0.230241 -4.84453 0
M  V30 5766 H 545.503 0.949769 -4.5111 0
M  V30 5767 H 549.047 -1.65476 -6.7769 0
M  V30 5768 H 544.944 -0.467515 -6.43805 0
M  V30 5769 H 545.712 -1.8699 -7.96854 0
M  V30 5770 N 548.375 1.56261 0.205012 0
M  V30 5771 C 549.305 1.96779 1.257 0
M  V30 5772 C 550.286 0.838309 1.48008 0
M  V30 5773 O 551.471 1.10189 1.59913 0
M  V30 5774 C 548.601 2.29876 2.60335 0
M  V30 5775 C 547.555 3.45469 2.52656 0
M  V30 5776 C 546.881 3.64215 3.91473 0
M  V30 5777 C 548.181 4.79954 2.06014 0
M  V30 5778 H 549.875 2.84904 0.920338 0
M  V30 5779 H 547.421 1.37072 0.441277 0
M  V30 5780 H 549.374 2.56814 3.34102 0
M  V30 5781 H 548.098 1.38622 2.95722 0
M  V30 5782 H 546.757 3.18605 1.81345 0
M  V30 5783 H 546.405 2.70309 4.24196 0
M  V30 5784 H 546.105 4.41973 3.87213 0
M  V30 5785 H 547.629 3.93519 4.66878 0
M  V30 5786 H 549.043 5.05989 2.69533 0
M  V30 5787 H 547.44 5.61111 2.12777 0
M  V30 5788 H 548.51 4.74201 1.01297 0
M  V30 5789 N 549.853 -0.472356 1.50355 0
M  V30 5790 C 551.13 -1.23356 1.51798 0
M  V30 5791 C 551.51 -2.09469 0.26193 0
M  V30 5792 O 550.858 -2.15677 -0.754691 0
M  V30 5793 C 551.068 -2.06568 2.81302 0
M  V30 5794 C 552.416 -2.648 3.31913 0
M  V30 5795 O 553.44 -2.16812 2.82614 0
M  V30 5796 O 552.299 -3.52231 4.17846 0
M  V30 5797 H 549.393 -0.559707 0.608816 0
M  V30 5798 H 551.939 -0.48428 1.62643 0
M  V30 5799 H 550.711 -1.43103 3.64194 0
M  V30 5800 H 550.334 -2.88633 2.73454 0
M  V30 5801 N 551.331 -1.39911 -0.725443 0
M  V30 5802 C 552.577 -1.37858 -1.48738 0
M  V30 5803 C 552.91 0.0224187 -1.94187 0
M  V30 5804 O 552.185 0.989204 -1.67466 0
M  V30 5805 C 552.468 -2.3594 -2.72038 0
M  V30 5806 C 552.321 -3.85023 -2.32546 0
M  V30 5807 C 553.64 -2.31704 -3.74167 0
M  V30 5808 H 550.759 -0.502074 -0.539528 0
M  V30 5809 H 553.401 -1.70974 -0.828728 0
M  V30 5810 H 551.551 -2.0783 -3.28236 0
M  V30 5811 H 553.223 -4.2392 -1.81905 0
M  V30 5812 H 551.466 -4.01334 -1.64661 0
M  V30 5813 H 552.137 -4.49152 -3.20884 0
M  V30 5814 H 554.613 -2.5658 -3.27576 0
M  V30 5815 H 553.489 -3.02395 -4.58092 0
M  V30 5816 H 553.75 -1.3253 -4.21768 0
M  V30 5817 N 552.809 0.956637 -1.25245 0
M  V30 5818 C 554.057 1.69764 -1.09657 0
M  V30 5819 C 554.378 1.91583 0.363464 0
M  V30 5820 O 553.648 1.50149 1.25825 0
M  V30 5821 H 552.228 0.629097 -0.402798 0
M  V30 5822 H 554.89 1.15026 -1.57337 0
M  V30 5823 H 553.986 2.67769 -1.60331 0
M  V30 5824 N 554.287 1.06798 1.15896 0
M  V30 5825 C 555.533 0.798757 1.8706 0
M  V30 5826 C 555.888 -0.667739 1.80441 0
M  V30 5827 O 555.181 -1.48334 1.21274 0
M  V30 5828 C 555.375 1.23414 3.35416 0
M  V30 5829 C 555.204 2.74142 3.56478 0
M  V30 5830 C 553.974 3.41675 3.72272 0
M  V30 5831 C 556.172 3.72348 3.5477 0
M  V30 5832 N 554.154 4.81101 3.81333 0
M  V30 5833 C 555.525 4.97585 3.69877 0
M  V30 5834 C 557.58 3.65585 3.38011 0
M  V30 5835 C 556.283 6.16866 3.69959 0
M  V30 5836 C 558.309 4.84323 3.39389 0
M  V30 5837 C 557.671 6.08391 3.5502 0
M  V30 5838 H 553.77 0.344761 0.7019 0
M  V30 5839 H 556.354 1.36314 1.3902 0
M  V30 5840 H 554.525 0.697522 3.82085 0
M  V30 5841 H 556.257 0.91304 3.94266 0
M  V30 5842 H 553.012 2.92078 3.7281 0
M  V30 5843 H 553.436 5.53647 3.8962 0
M  V30 5844 H 558.078 2.70615 3.2485 0
M  V30 5845 H 555.796 7.12164 3.819 0
M  V30 5846 H 559.382 4.80762 3.27658 0
M  V30 5847 H 558.262 6.98731 3.56012 0
M  V30 5848 N 555.766 -1.3263 0.851289 0
M  V30 5849 C 557.014 -1.96978 0.452128 0
M  V30 5850 C 557.335 -1.67715 -0.99482 0
M  V30 5851 O 556.605 -0.98259 -1.69476 0
M  V30 5852 H 555.185 -0.72873 0.164202 0
M  V30 5853 H 557.847 -1.61774 1.08698 0
M  V30 5854 H 556.943 -3.06387 0.594407 0
M  V30 5855 N 557.244 -0.608902 -1.45362 0
M  V30 5856 C 558.174 0.0964526 -2.33301 0
M  V30 5857 C 559.155 0.857444 -1.46908 0
M  V30 5858 O 560.34 0.827735 -1.75676 0
M  V30 5859 C 557.47 1.09354 -3.29635 0
M  V30 5860 C 556.424 0.445676 -4.25673 0
M  V30 5861 C 555.75 1.5511 -5.11708 0
M  V30 5862 C 557.05 -0.633972 -5.18438 0
M  V30 5863 H 558.744 -0.637829 -2.92527 0
M  V30 5864 H 556.29 -0.308178 -1.40664 0
M  V30 5865 H 558.243 1.59556 -3.90025 0
M  V30 5866 H 556.967 1.85843 -2.6857 0
M  V30 5867 H 555.626 -0.0354897 -3.66583 0
M  V30 5868 H 555.274 2.30631 -4.4701 0
M  V30 5869 H 554.974 1.12311 -5.76767 0
M  V30 5870 H 556.498 2.05537 -5.74967 0
M  V30 5871 H 557.912 -0.215974 -5.72893 0
M  V30 5872 H 556.309 -0.983789 -5.91981 0
M  V30 5873 H 557.379 -1.51005 -4.60788 0
M  V30 5874 N 558.722 1.53707 -0.348139 0
M  V30 5875 C 559.97 2.00591 0.246478 0
M  V30 5876 C 560.291 1.23753 1.50699 0
M  V30 5877 O 559.561 0.345964 1.92821 0
M  V30 5878 H 558.141 0.741053 0.0940679 0
M  V30 5879 H 560.803 1.89139 -0.470354 0
M  V30 5880 H 559.899 3.08297 0.485714 0
M  V30 5881 N 560.2 0.0768682 1.57412 0
M  V30 5882 C 561.425 -0.603404 1.98428 0
M  V30 5883 C 561.85 -1.62047 0.955108 0
M  V30 5884 O 561.208 -1.81129 -0.0786778 0
M  V30 5885 C 561.256 -1.24396 3.38464 0
M  V30 5886 O 560.36 -2.35982 3.3821 0
M  V30 5887 H 559.701 -0.154741 0.645718 0
M  V30 5888 H 562.231 0.152885 2.04028 0
M  V30 5889 H 562.241 -1.5896 3.7576 0
M  V30 5890 H 560.916 -0.498735 4.12899 0
M  V30 5891 H 559.493 -2.03173 3.1269 0
M  V30 5892 N 561.678 -1.56367 -0.196722 0
M  V30 5893 C 562.924 -1.80796 -0.918725 0
M  V30 5894 C 563.257 -0.650645 -1.82976 0
M  V30 5895 O 562.532 0.348889 -1.91345 0
M  V30 5896 C 562.815 -3.15472 -1.73636 0
M  V30 5897 C 562.668 -4.41693 -0.85015 0
M  V30 5898 C 563.987 -3.46824 -2.70927 0
M  V30 5899 H 561.106 -0.657702 -0.332561 0
M  V30 5900 H 563.748 -1.89086 -0.186186 0
M  V30 5901 H 561.898 -3.08536 -2.36088 0
M  V30 5902 H 563.57 -4.60673 -0.240459 0
M  V30 5903 H 561.813 -4.33517 -0.156785 0
M  V30 5904 H 562.484 -5.32419 -1.45719 0
M  V30 5905 H 564.96 -3.54049 -2.18607 0
M  V30 5906 H 563.836 -4.4218 -3.25219 0
M  V30 5907 H 564.097 -2.70236 -3.49893 0
M  V30 5908 N 563.156 0.464375 -1.50603 0
M  V30 5909 C 564.384 1.23907 -1.65695 0
M  V30 5910 C 564.799 1.85658 -0.343027 0
M  V30 5911 O 564.156 1.69529 0.675739 0
M  V30 5912 C 564.207 2.3429 -2.75301 0
M  V30 5913 O 563.928 1.7507 -4.01599 0
M  V30 5914 C 565.429 3.25051 -3.01424 0
M  V30 5915 H 562.649 0.374485 -0.556778 0
M  V30 5916 H 565.193 0.55353 -1.96866 0
M  V30 5917 H 563.348 2.98607 -2.46804 0
M  V30 5918 H 563.762 2.47812 -4.62266 0
M  V30 5919 H 565.236 3.98699 -3.81763 0
M  V30 5920 H 565.713 3.84227 -2.12758 0
M  V30 5921 H 566.319 2.66463 -3.31477 0
M  V30 5922 N 564.634 1.40294 0.718013 0
M  V30 5923 C 565.584 1.36847 1.82365 0
M  V30 5924 C 566.568 0.246424 1.59002 0
M  V30 5925 O 567.76 0.485336 1.70216 0
M  V30 5926 C 564.889 1.23105 3.20469 0
M  V30 5927 C 563.975 2.4008 3.49603 0
M  V30 5928 N 564.366 3.65562 3.49568 0
M  V30 5929 C 562.664 2.33407 3.80049 0
M  V30 5930 C 563.365 4.43015 3.76978 0
M  V30 5931 N 562.341 3.72823 3.95606 0
M  V30 5932 H 566.143 2.31811 1.80668 0
M  V30 5933 H 563.657 1.34031 0.91703 0
M  V30 5934 H 565.654 1.18718 3.9964 0
M  V30 5935 H 564.314 0.291056 3.23393 0
M  V30 5936 H 565.325 3.98756 3.30476 0
M  V30 5937 H 562.002 1.47762 3.90478 0
M  V30 5938 H 563.392 5.51859 3.83276 0
M  V30 5939 N 566.112 -0.949982 1.2575 0
M  V30 5940 C 567.022 -2.08109 1.08295 0
M  V30 5941 C 568.038 -1.7399 0.0188181 0
M  V30 5942 O 569.214 -2.00187 0.220724 0
M  V30 5943 C 566.279 -3.39383 0.708534 0
M  V30 5944 C 565.34 -3.8734 1.85111 0
M  V30 5945 C 564.573 -5.12349 1.49447 0
M  V30 5946 O 564.796 -5.6905 0.392212 0
M  V30 5947 O 563.73 -5.5513 2.32624 0
M  V30 5948 H 567.556 -2.25738 2.03165 0
M  V30 5949 H 565.141 -1.06545 1.04731 0
M  V30 5950 H 567.023 -4.18277 0.512061 0
M  V30 5951 H 565.698 -3.23013 -0.210854 0
M  V30 5952 H 564.605 -3.09429 2.10248 0
M  V30 5953 H 565.938 -4.08216 2.74991 0
M  V30 5954 N 567.59 -1.07411 -1.15328 0
M  V30 5955 C 568.52 -0.716472 -2.22236 0
M  V30 5956 C 569.501 0.296373 -1.67498 0
M  V30 5957 O 570.686 0.168989 -1.93463 0
M  V30 5958 C 567.816 -0.114142 -3.47112 0
M  V30 5959 C 566.77 -1.05421 -4.14814 0
M  V30 5960 C 566.096 -0.314604 -5.33774 0
M  V30 5961 C 567.396 -2.38808 -4.64508 0
M  V30 5962 H 569.09 -1.61029 -2.52408 0
M  V30 5963 H 566.636 -0.775702 -1.21321 0
M  V30 5964 H 568.589 0.148001 -4.2114 0
M  V30 5965 H 567.313 0.814755 -3.16274 0
M  V30 5966 H 565.972 -1.30128 -3.42728 0
M  V30 5967 H 565.62 0.617772 -4.99192 0
M  V30 5968 H 565.32 -0.941209 -5.80013 0
M  V30 5969 H 566.844 -0.0602747 -6.1057 0
M  V30 5970 H 568.258 -2.18424 -5.3006 0
M  V30 5971 H 566.655 -2.97069 -5.21412 0
M  V30 5972 H 567.725 -3.01067 -3.80114 0
M  V30 5973 N 569.068 1.32177 -0.85831 0
M  V30 5974 C 570.031 2.27086 -0.310588 0
M  V30 5975 C 571.031 1.51751 0.531806 0
M  V30 5976 O 572.221 1.70794 0.34279 0
M  V30 5977 C 569.353 3.36266 0.560179 0
M  V30 5978 H 570.546 2.77045 -1.1483 0
M  V30 5979 H 568.099 1.42911 -0.632942 0
M  V30 5980 H 568.834 2.9158 1.41956 0
M  V30 5981 H 568.619 3.92077 -0.0428473 0
M  V30 5982 H 570.109 4.06974 0.936056 0
M  V30 5983 N 570.547 0.616602 1.45037 0
M  V30 5984 C 571.958 0.199359 1.85633 0
M  V30 5985 C 572.309 -1.24588 1.51566 0
M  V30 5986 O 571.434 -1.94594 0.94668 0
M  V30 5987 C 572.029 0.355033 3.36935 0
M  V30 5988 C 570.588 -0.00758748 3.76399 0
M  V30 5989 C 569.735 0.675256 2.68953 0
M  V30 5990 H 572.686 0.822708 1.3571 0
M  V30 5991 H 572.707 -0.410201 3.78282 0
M  V30 5992 H 572.219 1.40699 3.61698 0
M  V30 5993 H 570.32 -1.05837 3.57252 0
M  V30 5994 H 570.433 0.392346 4.77491 0
M  V30 5995 H 568.797 0.111992 2.54454 0
M  V30 5996 H 569.58 1.72952 2.96551 0
M  V30 5997 N 572.025 -1.5352 0.356285 0
M  V30 5998 C 573.273 -2.00719 -0.235837 0
M  V30 5999 C 573.594 -1.24551 -1.5004 0
M  V30 6000 O 572.864 -0.356185 -1.92635 0
M  V30 6001 H 571.444 -0.741542 -0.0901366 0
M  V30 6002 H 574.106 -1.88887 0.480378 0
M  V30 6003 H 573.202 -3.08551 -0.469357 0
M  V30 6004 N 573.503 -0.0852151 -1.57369 0
M  V30 6005 C 574.752 0.580443 -1.93168 0
M  V30 6006 C 575.065 1.6995 -0.968319 0
M  V30 6007 O 576.271 2.42564 -1.21963 0
M  V30 6008 C 574.727 1.08386 -3.43192 0
M  V30 6009 C 574.335 -0.00491388 -4.48 0
M  V30 6010 C 576.079 1.72281 -3.87968 0
M  V30 6011 C 573.986 0.513299 -5.89168 0
M  V30 6012 H 572.916 0.22059 -0.72101 0
M  V30 6013 H 575.567 -0.159621 -1.82804 0
M  V30 6014 H 573.949 1.8773 -3.48674 0
M  V30 6015 H 575.123 -0.780032 -4.5415 0
M  V30 6016 H 573.438 -0.548453 -4.12772 0
M  V30 6017 H 576.035 2.12108 -4.9083 0
M  V30 6018 H 576.378 2.58811 -3.26071 0
M  V30 6019 H 576.911 0.995359 -3.85146 0
M  V30 6020 H 573.65 -0.315153 -6.54742 0
M  V30 6021 H 573.17 1.25564 -5.8651 0
M  V30 6022 H 574.849 0.985433 -6.39451 0
M  V30 6023 N 574.981 1.5647 0.188427 0
M  V30 6024 C 576.258 1.71857 0.934058 0
M  V30 6025 C 576.638 0.641867 2.01105 0
M  V30 6026 O 575.986 -0.346098 2.25864 0
M  V30 6027 C 576.196 3.14431 1.5144 0
M  V30 6028 C 577.544 3.74869 1.99396 0
M  V30 6029 O 578.568 3.17601 1.61269 0
M  V30 6030 O 577.427 4.75387 2.69573 0
M  V30 6031 H 574.521 0.701186 0.438483 0
M  V30 6032 H 577.067 1.68768 0.177599 0
M  V30 6033 H 575.839 3.8427 0.738416 0
M  V30 6034 H 575.462 3.21775 2.33552 0
M  V30 6035 N 576.459 -0.456382 1.50847 0
M  V30 6036 C 577.699 -1.21704 1.64218 0
M  V30 6037 C 578.063 -1.88932 0.341859 0
M  V30 6038 O 579.264 -2.66497 0.351137 0
M  V30 6039 C 577.535 -2.22162 2.79962 0
M  V30 6040 S 579.094 -3.0697 3.13552 0
M  V30 6041 H 575.912 -0.412995 0.578754 0
M  V30 6042 H 578.514 -0.511637 1.88686 0
M  V30 6043 H 577.218 -1.71379 3.72904 0
M  V30 6044 H 576.749 -2.9731 2.57624 0
M  V30 6045 H 578.764 -4.23539 2.58513 0
M  V30 6046 N 577.937 -1.40673 -0.710563 0
M  V30 6047 C 579.348 -1.34975 -1.28991 0
M  V30 6048 C 579.699 -0.0256272 -1.96183 0
M  V30 6049 O 578.824 0.876339 -1.97862 0
M  V30 6050 C 579.419 -2.44467 -2.34567 0
M  V30 6051 C 577.978 -2.42213 -2.88114 0
M  V30 6052 C 577.125 -2.25085 -1.61963 0
M  V30 6053 H 580.076 -1.50406 -0.506343 0
M  V30 6054 H 580.097 -2.12663 -3.15523 0
M  V30 6055 H 579.609 -3.40825 -1.85634 0
M  V30 6056 H 577.71 -1.49568 -3.41263 0
M  V30 6057 H 577.823 -3.37983 -3.39565 0
M  V30 6058 H 576.187 -1.72691 -1.87216 0
M  V30 6059 H 576.97 -3.23449 -1.15047 0
M  V30 6060 N 579.415 0.9433 -1.26252 0
M  V30 6061 C 580.325 2.07532 -1.09397 0
M  V30 6062 C 581.341 1.73977 -0.0280449 0
M  V30 6063 O 582.517 2.00067 -0.231337 0
M  V30 6064 C 579.582 3.39002 -0.726523 0
M  V30 6065 C 578.643 3.86353 -1.87163 0
M  V30 6066 C 577.876 5.11549 -1.52162 0
M  V30 6067 O 578.099 5.68834 -0.422385 0
M  V30 6068 O 577.033 5.53889 -2.35565 0
M  V30 6069 H 580.859 2.24658 -2.04359 0
M  V30 6070 H 578.444 1.05988 -1.05295 0
M  V30 6071 H 580.326 4.18 -0.534236 0
M  V30 6072 H 579.001 3.2312 0.193721 0
M  V30 6073 H 577.908 3.0831 -2.11886 0
M  V30 6074 H 579.241 4.06752 -2.77152 0
M  V30 6075 N 580.893 1.08022 1.14757 0
M  V30 6076 C 582.121 0.828847 1.89572 0
M  V30 6077 C 582.536 -0.618621 1.78377 0
M  V30 6078 O 581.893 -1.42482 1.1404 0
M  V30 6079 C 581.944 1.23677 3.39685 0
M  V30 6080 O 581.665 2.62746 3.50566 0
M  V30 6081 C 583.166 1.01569 4.31507 0
M  V30 6082 H 580.386 0.299196 0.600602 0
M  V30 6083 H 582.93 1.43846 1.45357 0
M  V30 6084 H 581.085 0.671347 3.81539 0
M  V30 6085 H 581.499 2.79573 4.43778 0
M  V30 6086 H 582.973 1.35055 5.35223 0
M  V30 6087 H 583.45 -0.0475433 4.39174 0
M  V30 6088 H 584.056 1.56636 3.95405 0
M  V30 6089 N 582.371 -1.3172 0.865308 0
M  V30 6090 C 583.334 -2.26918 0.322627 0
M  V30 6091 C 584.334 -1.52031 -0.523751 0
M  V30 6092 O 585.524 -1.70973 -0.333727 0
M  V30 6093 C 582.656 -3.36558 -0.542338 0
M  V30 6094 H 583.849 -2.76432 1.16298 0
M  V30 6095 H 581.402 -1.42573 0.640512 0
M  V30 6096 H 582.137 -2.92329 -1.40407 0
M  V30 6097 H 581.922 -3.92048 0.0636395 0
M  V30 6098 H 583.412 -4.07465 -0.91446 0
M  V30 6099 N 583.85 -0.624285 -1.44708 0
M  V30 6100 C 585.077 -0.132919 -2.06473 0
M  V30 6101 C 585.493 1.18967 -1.46602 0
M  V30 6102 O 584.85 1.72824 -0.586341 0
M  V30 6103 C 584.901 -0.00465418 -3.615 0
M  V30 6104 O 584.622 -1.27494 -4.19138 0
M  V30 6105 C 586.123 0.516213 -4.40284 0
M  V30 6106 H 583.343 -0.0765201 -0.666623 0
M  V30 6107 H 585.887 -0.856751 -1.85688 0
M  V30 6108 H 584.042 0.669583 -3.8157 0
M  V30 6109 H 584.456 -1.11536 -5.12504 0
M  V30 6110 H 585.93 0.554994 -5.49203 0
M  V30 6111 H 586.407 1.5419 -4.11245 0
M  V30 6112 H 587.013 -0.124542 -4.25118 0
M  V30 6113 N 585.328 1.53329 -0.364422 0
M  V30 6114 C 586.575 2.01239 0.225634 0
M  V30 6115 C 586.903 1.25172 1.48869 0
M  V30 6116 O 586.158 0.333289 1.92841 0
M  V30 6117 C 586.457 3.52911 0.564661 0
M  V30 6118 C 586.123 4.46837 -0.603936 0
M  V30 6119 C 584.785 4.72234 -0.924585 0
M  V30 6120 C 587.137 5.02409 -1.38691 0
M  V30 6121 C 584.465 5.50454 -2.0302 0
M  V30 6122 C 586.817 5.81836 -2.48293 0
M  V30 6123 C 585.481 6.0552 -2.80894 0
M  V30 6124 H 584.751 0.736386 0.0825654 0
M  V30 6125 H 587.398 1.84948 -0.496645 0
M  V30 6126 H 585.703 3.67144 1.36794 0
M  V30 6127 H 587.4 3.87455 1.03344 0
M  V30 6128 H 583.99 4.27217 -0.343983 0
M  V30 6129 H 588.174 4.82735 -1.15243 0
M  V30 6130 H 583.43 5.67024 -2.28678 0
M  V30 6131 H 587.604 6.23905 -3.0938 0
M  V30 6132 H 585.231 6.65916 -3.66688 0
M  V30 6133 N 586.806 0.0935595 1.57322 0
M  V30 6134 C 587.736 -0.863062 2.16964 0
M  V30 6135 C 588.717 -1.29528 1.10256 0
M  V30 6136 O 589.902 -1.36245 1.38387 0
M  V30 6137 C 587.032 -2.12276 2.74875 0
M  V30 6138 C 585.986 -1.82921 3.86942 0
M  V30 6139 C 585.312 -3.15707 4.31548 0
M  V30 6140 C 586.612 -1.11737 5.10208 0
M  V30 6141 H 588.306 -0.366145 2.97153 0
M  V30 6142 H 585.852 -0.174673 1.42937 0
M  V30 6143 H 587.805 -2.79634 3.1525 0
M  V30 6144 H 586.529 -2.64248 1.91938 0
M  V30 6145 H 585.188 -1.17961 3.47103 0
M  V30 6146 H 584.836 -3.65563 3.45504 0
M  V30 6147 H 584.536 -2.96849 5.07104 0
M  V30 6148 H 586.06 -3.84226 4.74555 0
M  V30 6149 H 587.474 -1.69203 5.47762 0
M  V30 6150 H 585.871 -1.03064 5.91183 0
M  V30 6151 H 586.941 -0.0998818 4.84797 0
M  V30 6152 N 588.284 -1.56567 -0.180126 0
M  V30 6153 C 589.561 -1.7235 -0.924931 0
M  V30 6154 C 589.941 -0.652523 -2.00762 0
M  V30 6155 O 589.289 0.334115 -2.26044 0
M  V30 6156 C 589.499 -3.1523 -1.49771 0
M  V30 6157 C 590.847 -3.75921 -1.97405 0
M  V30 6158 O 591.871 -3.18452 -1.59583 0
M  V30 6159 O 590.73 -4.7681 -2.67048 0
M  V30 6160 H 587.824 -0.703502 -0.434758 0
M  V30 6161 H 590.37 -1.6886 -0.168647 0
M  V30 6162 H 589.142 -3.84656 -0.718027 0
M  V30 6163 H 588.765 -3.23009 -2.31842 0
M  V30 6164 N 589.762 0.448376 -1.51087 0
M  V30 6165 C 590.99 1.22143 -1.66999 0
M  V30 6166 C 591.405 1.85283 -0.362699 0
M  V30 6167 O 590.762 1.70236 0.65772 0
M  V30 6168 C 590.813 2.31357 -2.7777 0
M  V30 6169 O 590.534 1.70801 -4.03434 0
M  V30 6170 C 592.035 3.21836 -3.04855 0
M  V30 6171 H 589.255 0.368558 -0.560719 0
M  V30 6172 H 591.799 0.532618 -1.97442 0
M  V30 6173 H 589.954 2.95973 -2.49958 0
M  V30 6174 H 590.368 2.42895 -4.64868 0
M  V30 6175 H 591.842 3.94627 -3.85971 0
M  V30 6176 H 592.319 3.81949 -2.16821 0
M  V30 6177 H 592.925 2.62933 -3.34285 0
M  V30 6178 N 591.24 1.41047 0.703093 0
M  V30 6179 C 592.487 1.4 1.46309 0
M  V30 6180 C 592.815 0.00654574 1.94499 0
M  V30 6181 O 592.07 -0.980255 1.6938 0
M  V30 6182 C 592.369 2.34686 2.6955 0
M  V30 6183 C 592.035 3.81684 2.40058 0
M  V30 6184 C 590.697 4.21731 2.31725 0
M  V30 6185 C 593.049 4.74525 2.15581 0
M  V30 6186 C 590.377 5.52637 1.97001 0
M  V30 6187 C 592.729 6.05744 1.82366 0
M  V30 6188 C 591.393 6.44819 1.72524 0
M  V30 6189 H 590.663 0.512295 0.535382 0
M  V30 6190 H 593.31 1.73792 0.804275 0
M  V30 6191 H 591.615 1.94122 3.40329 0
M  V30 6192 H 593.312 2.31152 3.27673 0
M  V30 6193 H 589.902 3.49963 2.47435 0
M  V30 6194 H 594.086 4.44395 2.20968 0
M  V30 6195 H 589.342 5.81802 1.87928 0
M  V30 6196 H 593.516 6.77189 1.62444 0
M  V30 6197 H 591.143 7.46168 1.45385 0
M  V30 6198 N 592.718 -0.936591 1.26751 0
M  V30 6199 C 593.668 -2.0219 1.05371 0
M  V30 6200 C 594.652 -1.60893 -0.0154112 0
M  V30 6201 O 595.844 -1.75843 0.202085 0
M  V30 6202 C 592.973 -3.36222 0.693541 0
M  V30 6203 C 592.059 -3.8399 1.80035 0
M  V30 6204 N 592.45 -4.0436 3.03852 0
M  V30 6205 C 590.748 -4.12945 1.685 0
M  V30 6206 C 591.449 -4.44 3.75818 0
M  V30 6207 N 590.425 -4.50966 3.03531 0
M  V30 6208 H 594.227 -2.15958 1.99347 0
M  V30 6209 H 591.741 -1.12277 1.17335 0
M  V30 6210 H 593.738 -4.13625 0.521513 0
M  V30 6211 H 592.398 -3.23821 -0.238693 0
M  V30 6212 H 593.409 -3.9092 3.39709 0
M  V30 6213 H 590.086 -4.09308 0.822986 0
M  V30 6214 H 591.476 -4.67914 4.82189 0
M  V30 6215 N 594.196 -1.08629 -1.14182 0
M  V30 6216 C 595.426 -0.837673 -1.88856 0
M  V30 6217 C 595.834 0.614024 -1.78959 0
M  V30 6218 O 595.177 1.43384 -1.14833 0
M  V30 6219 C 595.239 -1.18355 -3.39459 0
M  V30 6220 C 594.903 -2.63848 -3.73139 0
M  V30 6221 C 595.9 -3.62099 -3.73069 0
M  V30 6222 C 593.585 -2.99761 -4.03049 0
M  V30 6223 C 595.579 -4.94292 -4.02435 0
M  V30 6224 C 593.266 -4.32147 -4.32078 0
M  V30 6225 C 594.264 -5.29223 -4.31755 0
M  V30 6226 O 593.952 -6.59229 -4.60079 0
M  V30 6227 H 593.684 -0.301609 -0.604986 0
M  V30 6228 H 596.238 -1.44961 -1.45518 0
M  V30 6229 H 594.468 -0.514628 -3.8326 0
M  V30 6230 H 596.157 -0.915391 -3.95443 0
M  V30 6231 H 596.923 -3.35698 -3.50046 0
M  V30 6232 H 592.802 -2.2484 -4.02453 0
M  V30 6233 H 596.346 -5.70055 -4.02098 0
M  V30 6234 H 592.243 -4.58296 -4.54571 0
M  V30 6235 H 593.011 -6.64578 -4.77785 0
M  V30 6236 N 595.674 1.31259 -0.872281 0
M  V30 6237 C 596.904 2.00504 -0.498183 0
M  V30 6238 C 597.312 1.65632 0.914479 0
M  V30 6239 O 596.655 0.882849 1.61095 0
M  V30 6240 C 596.717 3.5482 -0.578194 0
M  V30 6241 C 596.381 4.13172 -1.95289 0
M  V30 6242 C 597.378 4.30107 -2.92069 0
M  V30 6243 C 595.063 4.48846 -2.25483 0
M  V30 6244 C 597.057 4.81908 -4.17185 0
M  V30 6245 C 594.744 5.00349 -3.50847 0
M  V30 6246 C 595.742 5.16831 -4.46514 0
M  V30 6247 O 595.43 5.67228 -5.69656 0
M  V30 6248 H 595.162 0.648055 -0.192354 0
M  V30 6249 H 597.716 1.6841 -1.17589 0
M  V30 6250 H 595.946 3.86383 0.156438 0
M  V30 6251 H 597.635 4.05318 -0.217192 0
M  V30 6252 H 598.401 4.02862 -2.7005 0
M  V30 6253 H 594.28 4.35292 -1.51795 0
M  V30 6254 H 597.824 4.94688 -4.91863 0
M  V30 6255 H 593.721 5.27028 -3.72708 0
M  V30 6256 H 594.489 5.85592 -5.7186 0
M  V30 6257 N 597.152 0.631951 1.44375 0
M  V30 6258 C 598.429 0.067646 1.95483 0
M  V30 6259 C 598.809 -1.40683 1.57389 0
M  V30 6260 O 598.157 -2.12167 0.848375 0
M  V30 6261 C 598.367 0.291392 3.47781 0
M  V30 6262 C 599.715 0.185028 4.24197 0
M  V30 6263 O 600.739 0.222803 3.55503 0
M  V30 6264 O 599.598 0.0906642 5.46425 0
M  V30 6265 H 596.692 -0.0218379 0.826712 0
M  V30 6266 H 599.238 0.703711 1.54421 0
M  V30 6267 H 598.01 1.31449 3.68561 0
M  V30 6268 H 597.633 -0.378772 3.95792 0
M  V30 6269 N 598.631 -1.53133 0.372548 0
M  V30 6270 C 599.594 -2.24569 -0.458389 0
M  V30 6271 C 600.594 -1.25603 -1.00402 0
M  V30 6272 O 601.784 -1.49827 -0.888672 0
M  V30 6273 C 598.916 -2.98783 -1.6414 0
M  V30 6274 H 600.109 -2.99436 0.166799 0
M  V30 6275 H 597.662 -1.55805 0.124357 0
M  V30 6276 H 598.397 -2.28176 -2.30448 0
M  V30 6277 H 598.182 -3.71404 -1.25704 0
M  V30 6278 H 599.672 -3.53068 -2.23008 0
M  V30 6279 N 600.109 -0.101901 -1.5727 0
M  V30 6280 C 601.386 0.602832 -1.86079 0
M  V30 6281 C 601.766 1.85912 -1 0
M  V30 6282 O 601.114 2.28379 -0.0742488 0
M  V30 6283 C 601.324 0.911694 -3.36881 0
M  V30 6284 C 602.672 1.2722 -4.05093 0
M  V30 6285 O 603.696 1.0025 -3.41802 0
M  V30 6286 O 602.555 1.7776 -5.16782 0
M  V30 6287 H 599.649 0.302366 -0.769743 0
M  V30 6288 H 602.195 -0.135113 -1.69161 0
M  V30 6289 H 600.967 0.0207256 -3.91295 0
M  V30 6290 H 600.59 1.70538 -3.59169 0
M  V30 6291 N 601.587 1.56661 0.17182 0
M  V30 6292 C 602.864 1.72838 0.915778 0
M  V30 6293 C 603.244 0.66316 2.00413 0
M  V30 6294 O 602.592 -0.322123 2.26218 0
M  V30 6295 C 602.802 3.16019 1.48097 0
M  V30 6296 C 604.15 3.76962 1.95408 0
M  V30 6297 O 605.174 3.19294 1.57892 0
M  V30 6298 O 604.033 4.78219 2.64516 0
M  V30 6299 H 601.127 0.705797 0.431021 0
M  V30 6300 H 603.673 1.68947 0.159689 0
M  V30 6301 H 602.445 3.85031 0.697618 0
M  V30 6302 H 602.068 3.24234 2.30126 0
M  V30 6303 N 603.065 -0.440357 1.51323 0
M  V30 6304 C 604.476 -1.02032 1.56353 0
M  V30 6305 C 604.827 -1.92382 0.385197 0
M  V30 6306 O 603.952 -2.10583 -0.498373 0
M  V30 6307 C 604.547 -1.85723 2.83359 0
M  V30 6308 C 603.106 -2.38774 2.90971 0
M  V30 6309 C 602.253 -1.17908 2.50984 0
M  V30 6310 H 605.204 -0.221744 1.57143 0
M  V30 6311 H 605.225 -2.71141 2.66951 0
M  V30 6312 H 604.737 -1.19939 3.69102 0
M  V30 6313 H 602.838 -3.08021 2.09651 0
M  V30 6314 H 602.951 -2.71778 3.94555 0
M  V30 6315 H 601.315 -1.52347 2.04114 0
M  V30 6316 H 602.098 -0.537393 3.39068 0
M  V30 6317 N 604.543 -1.41418 -0.695603 0
M  V30 6318 C 605.789 -1.40982 -1.4578 0
M  V30 6319 C 606.122 -0.0187763 -1.94191 0
M  V30 6320 O 605.397 0.95346 -1.69527 0
M  V30 6321 C 605.68 -2.41657 -2.66972 0
M  V30 6322 C 605.533 -3.89869 -2.24327 0
M  V30 6323 C 606.852 -2.39589 -3.69168 0
M  V30 6324 H 603.971 -0.513405 -0.528757 0
M  V30 6325 H 606.613 -1.72693 -0.792275 0
M  V30 6326 H 604.763 -2.14746 -3.23754 0
M  V30 6327 H 606.435 -4.27683 -1.72872 0
M  V30 6328 H 604.678 -4.04737 -1.56111 0
M  V30 6329 H 605.349 -4.55857 -3.11285 0
M  V30 6330 H 607.825 -2.63471 -3.2206 0
M  V30 6331 H 606.701 -3.12044 -4.51575 0
M  V30 6332 H 606.962 -1.41447 -4.18862 0
M  V30 6333 N 606.021 0.929856 -1.27246 0
M  V30 6334 C 606.971 2.01629 -1.06442 0
M  V30 6335 C 607.955 1.60899 0.00687842 0
M  V30 6336 O 609.147 1.75733 -0.211407 0
M  V30 6337 C 606.276 3.35849 -0.711361 0
M  V30 6338 C 605.362 3.8303 -1.82069 0
M  V30 6339 N 605.753 4.02743 -3.05993 0
M  V30 6340 C 604.051 4.12046 -1.70687 0
M  V30 6341 C 604.752 4.42001 -3.78167 0
M  V30 6342 N 603.728 4.4935 -3.05918 0
M  V30 6343 H 607.53 2.14898 -2.00489 0
M  V30 6344 H 605.044 1.11654 -1.17929 0
M  V30 6345 H 607.041 4.13343 -0.543442 0
M  V30 6346 H 605.701 3.23944 0.221517 0
M  V30 6347 H 606.712 3.89112 -3.41778 0
M  V30 6348 H 603.389 4.08866 -0.844681 0
M  V30 6349 H 604.779 4.6535 -4.84664 0
M  V30 6350 N 607.499 1.09233 1.13605 0
M  V30 6351 C 608.729 0.847677 1.88409 0
M  V30 6352 C 609.137 -0.604524 1.79282 0
M  V30 6353 O 608.48 -1.42773 1.15592 0
M  V30 6354 C 608.542 1.20153 3.38827 0
M  V30 6355 C 608.206 2.65824 3.71735 0
M  V30 6356 C 609.203 3.64072 3.71143 0
M  V30 6357 C 606.888 3.01894 4.01454 0
M  V30 6358 C 608.882 4.96419 3.99808 0
M  V30 6359 C 606.569 4.34433 4.29781 0
M  V30 6360 C 607.567 5.31505 4.28942 0
M  V30 6361 O 607.255 6.61659 4.56576 0
M  V30 6362 H 606.987 0.304813 0.603378 0
M  V30 6363 H 609.541 1.4573 1.44748 0
M  V30 6364 H 607.771 0.534946 3.82982 0
M  V30 6365 H 609.46 0.936349 3.94952 0
M  V30 6366 H 610.226 3.37549 3.4826 0
M  V30 6367 H 606.105 2.26971 4.01255 0
M  V30 6368 H 609.649 5.7218 3.99069 0
M  V30 6369 H 605.546 4.607 4.52135 0
M  V30 6370 H 606.314 6.67102 4.74254 0
M  V30 6371 N 608.977 -1.30795 0.87923 0
M  V30 6372 C 610.388 -1.78535 0.546093 0
M  V30 6373 C 610.739 -1.72354 -0.937467 0
M  V30 6374 O 609.864 -1.2969 -1.73233 0
M  V30 6375 C 610.459 -3.24181 0.9845 0
M  V30 6376 C 609.018 -3.69779 0.702871 0
M  V30 6377 C 608.165 -2.51377 1.17068 0
M  V30 6378 H 611.116 -1.17746 1.06403 0
M  V30 6379 H 611.137 -3.79227 0.311045 0
M  V30 6380 H 610.649 -3.28647 2.06429 0
M  V30 6381 H 608.75 -3.70806 -0.365166 0
M  V30 6382 H 608.863 -4.61507 1.28639 0
M  V30 6383 H 607.227 -2.47768 0.590172 0
M  V30 6384 H 608.01 -2.58584 2.25808 0
M  V30 6385 N 610.455 -0.639598 -1.44038 0
M  V30 6386 C 611.871 -0.305953 -1.5664 0
M  V30 6387 C 612.071 1.19055 -1.62567 0
M  V30 6388 O 611.127 1.97492 -1.57331 0
M  V30 6389 C 612.44 -1.00533 -2.83397 0
M  V30 6390 C 613.988 -0.984278 -2.97121 0
M  V30 6391 C 614.463 -1.66428 -4.26691 0
M  V30 6392 N 615.954 -1.63127 -4.33525 0
M  V30 6393 C 616.689 -2.12629 -5.32519 0
M  V30 6394 N 616.185 -2.70359 -6.3787 0
M  V30 6395 N 617.978 -2.03208 -5.24083 0
M  V30 6396 H 610.129 -1.6109 -1.38434 0
M  V30 6397 H 612.392 -0.676672 -0.663942 0
M  V30 6398 H 612.098 -2.06034 -2.85032 0
M  V30 6399 H 611.972 -0.548362 -3.73193 0
M  V30 6400 H 614.359 0.0622792 -2.95034 0
M  V30 6401 H 614.44 -1.47981 -2.08651 0
M  V30 6402 H 614.084 -2.71034 -4.29538 0
M  V30 6403 H 614.014 -1.14351 -5.14034 0
M  V30 6404 H 616.505 -1.20987 -3.58009 0
M  V30 6405 H 616.818 -3.05842 -7.09704 0
M  V30 6406 H 615.163 -2.74414 -6.38531 0
M  V30 6407 H 618.354 -1.57823 -4.40692 0
M  V30 6408 H 618.527 -2.42097 -6.01077 0
M  V30 6409 N 611.933 1.52934 -0.380664 0
M  V30 6410 C 612.896 2.24809 0.446473 0
M  V30 6411 C 613.896 1.26133 0.997347 0
M  V30 6412 O 615.086 1.50297 0.880714 0
M  V30 6413 C 612.218 2.99649 1.62553 0
M  V30 6414 H 613.411 2.99343 -0.182677 0
M  V30 6415 H 610.964 1.55736 -0.132618 0
M  V30 6416 H 611.699 2.29395 2.29235 0
M  V30 6417 H 611.484 3.72066 1.23732 0
M  V30 6418 H 612.974 3.54246 2.21133 0
M  V30 6419 N 613.412 0.11024 1.57214 0
M  V30 6420 C 614.342 -0.840002 2.17867 0
M  V30 6421 C 615.323 -1.28352 1.11624 0
M  V30 6422 O 616.508 -1.3477 1.39824 0
M  V30 6423 C 613.638 -2.09349 2.77111 0
M  V30 6424 C 612.592 -1.78807 3.8886 0
M  V30 6425 C 611.918 -3.11112 4.34872 0
M  V30 6426 C 613.218 -1.0632 5.11364 0
M  V30 6427 H 614.912 -0.334608 2.97524 0
M  V30 6428 H 612.458 -0.159502 1.43114 0
M  V30 6429 H 614.411 -2.76275 3.18198 0
M  V30 6430 H 613.135 -2.62198 1.9473 0
M  V30 6431 H 611.794 -1.14273 3.48335 0
M  V30 6432 H 611.442 -3.61877 3.49362 0
M  V30 6433 H 611.142 -2.91453 5.10224 0
M  V30 6434 H 612.666 -3.79171 4.78604 0
M  V30 6435 H 614.08 -1.63383 5.49526 0
M  V30 6436 H 612.477 -0.967876 5.92243 0
M  V30 6437 H 613.547 -0.0484569 4.84876 0
M  V30 6438 N 614.89 -1.56749 -0.16351 0
M  V30 6439 C 616.13 -1.84234 -0.885271 0
M  V30 6440 C 616.494 -0.692259 -1.79086 0
M  V30 6441 O 617.695 -0.847747 -2.55082 0
M  V30 6442 C 615.966 -3.16857 -1.65337 0
M  V30 6443 S 617.525 -3.65848 -2.42282 0
M  V30 6444 H 614.343 -0.646293 -0.296354 0
M  V30 6445 H 616.945 -1.94951 -0.146365 0
M  V30 6446 H 615.649 -3.98546 -0.979266 0
M  V30 6447 H 615.18 -3.09102 -2.4335 0
M  V30 6448 H 617.195 -3.33796 -3.67143 0
M  V30 6449 N 616.368 0.432326 -1.51554 0
M  V30 6450 C 617.298 1.53242 -1.76179 0
M  V30 6451 C 618.279 1.58717 -0.611801 0
M  V30 6452 O 619.464 1.74364 -0.855033 0
M  V30 6453 C 616.594 2.91278 -1.89141 0
M  V30 6454 C 615.548 3.00663 -3.04608 0
M  V30 6455 C 614.874 4.40728 -3.02759 0
M  V30 6456 C 616.174 2.74281 -4.44485 0
M  V30 6457 H 617.868 1.32886 -2.68294 0
M  V30 6458 H 615.414 0.637841 -1.29103 0
M  V30 6459 H 617.367 3.68203 -2.04951 0
M  V30 6460 H 616.091 3.12877 -0.936785 0
M  V30 6461 H 614.75 2.26179 -2.88511 0
M  V30 6462 H 614.398 4.59301 -2.05065 0
M  V30 6463 H 614.098 4.47936 -3.80299 0
M  V30 6464 H 615.622 5.19619 -3.20669 0
M  V30 6465 H 617.036 3.40936 -4.60907 0
M  V30 6466 H 615.433 2.92893 -5.23769 0
M  V30 6467 H 616.503 1.69856 -4.54177 0
M  V30 6468 N 617.846 1.41785 0.688094 0
M  V30 6469 C 619.093 1.41544 1.44816 0
M  V30 6470 C 619.421 0.0271746 1.94481 0
M  V30 6471 O 618.676 -0.962235 1.7041 0
M  V30 6472 C 618.975 2.37532 2.67046 0
M  V30 6473 C 618.641 3.84209 2.35996 0
M  V30 6474 C 617.303 4.24165 2.27239 0
M  V30 6475 C 619.655 4.76785 2.10536 0
M  V30 6476 C 616.983 5.54695 1.91128 0
M  V30 6477 C 619.335 6.07644 1.75931 0
M  V30 6478 C 617.999 6.46613 1.65675 0
M  V30 6479 H 617.269 0.517945 0.529919 0
M  V30 6480 H 619.916 1.74635 0.785797 0
M  V30 6481 H 618.221 1.9772 3.38251 0
M  V30 6482 H 619.918 2.34615 3.25203 0
M  V30 6483 H 616.508 3.52567 2.4371 0
M  V30 6484 H 620.692 4.46714 2.16242 0
M  V30 6485 H 615.948 5.83762 1.81746 0
M  V30 6486 H 620.122 6.78874 1.55252 0
M  V30 6487 H 617.749 7.47668 1.37463 0
M  V30 6488 N 619.324 -0.923095 1.27737 0
M  V30 6489 C 620.234 -2.05765 1.12685 0
M  V30 6490 C 621.25 -1.73911 0.0557197 0
M  V30 6491 O 622.426 -1.99674 0.263137 0
M  V30 6492 C 619.491 -3.37804 0.780363 0
M  V30 6493 C 618.552 -3.83326 1.93286 0
M  V30 6494 C 617.785 -5.09064 1.60281 0
M  V30 6495 O 618.008 -5.6809 0.512828 0
M  V30 6496 O 616.942 -5.50071 2.44347 0
M  V30 6497 H 620.768 -2.21378 2.07907 0
M  V30 6498 H 618.353 -1.04299 1.06968 0
M  V30 6499 H 620.235 -4.17097 0.600668 0
M  V30 6500 H 618.91 -3.23387 -0.142291 0
M  V30 6501 H 617.817 -3.049 2.16764 0
M  V30 6502 H 619.15 -4.02292 2.83588 0
M  V30 6503 N 620.802 -1.09834 -1.13024 0
M  V30 6504 C 621.735 -0.685453 -2.17662 0
M  V30 6505 C 622.713 0.310142 -1.59615 0
M  V30 6506 O 623.897 0.21052 -1.87321 0
M  V30 6507 C 621.024 -0.0104476 -3.38698 0
M  V30 6508 C 620.07 -0.968522 -4.15358 0
M  V30 6509 S 620.903 -2.48272 -4.74469 0
M  V30 6510 C 622.059 -1.82025 -5.98847 0
M  V30 6511 H 622.292 -1.57187 -2.52348 0
M  V30 6512 H 619.825 -0.914728 -1.24387 0
M  V30 6513 H 621.783 0.372694 -4.08805 0
M  V30 6514 H 620.444 0.852673 -3.02305 0
M  V30 6515 H 619.637 -0.443373 -5.02046 0
M  V30 6516 H 619.239 -1.29327 -3.50928 0
M  V30 6517 H 621.531 -1.14678 -6.67724 0
M  V30 6518 H 622.474 -2.66645 -6.55977 0
M  V30 6519 H 622.882 -1.2874 -5.49624 0
M  V30 6520 N 622.28 1.30327 -0.886154 0
M  V30 6521 C 623.691 1.78243 -0.555554 0
M  V30 6522 C 624.042 1.72849 0.928314 0
M  V30 6523 O 623.167 1.30607 1.72542 0
M  V30 6524 C 623.762 3.23654 -1.00168 0
M  V30 6525 C 622.321 3.69401 -0.722471 0
M  V30 6526 C 621.468 2.50753 -1.18399 0
M  V30 6527 H 624.419 1.1718 -1.07026 0
M  V30 6528 H 624.44 3.79056 -0.331152 0
M  V30 6529 H 623.952 3.27548 -2.08169 0
M  V30 6530 H 622.053 3.70995 0.345496 0
M  V30 6531 H 622.166 4.60818 -1.31085 0
M  V30 6532 H 620.53 2.47452 -0.603303 0
M  V30 6533 H 621.313 2.57383 -2.27176 0
M  V30 6534 N 623.758 0.647228 1.43697 0
M  V30 6535 C 624.986 0.16575 2.06235 0
M  V30 6536 C 625.401 -1.1662 1.48476 0
M  V30 6537 O 624.758 -1.7187 0.613762 0
M  V30 6538 C 624.809 0.0621651 3.61447 0
M  V30 6539 O 624.53 1.34146 4.17057 0
M  V30 6540 C 626.031 -0.446102 4.4105 0
M  V30 6541 H 623.251 0.0871158 0.665321 0
M  V30 6542 H 625.795 0.886183 1.84301 0
M  V30 6543 H 623.95 -0.608794 3.82587 0
M  V30 6544 H 624.364 1.19675 5.10664 0
M  V30 6545 H 625.838 -0.46755 5.50016 0
M  V30 6546 H 626.315 -1.47627 4.13646 0
M  V30 6547 H 626.921 0.192159 4.24866 0
M  V30 6548 N 625.236 -1.5273 0.388769 0
M  V30 6549 C 626.484 -2.01174 -0.193208 0
M  V30 6550 C 626.805 -1.27705 -1.47365 0
M  V30 6551 O 626.075 -0.396966 -1.91836 0
M  V30 6552 H 624.655 -0.743287 -0.0743871 0
M  V30 6553 H 627.317 -1.87826 0.520336 0
M  V30 6554 H 626.413 -3.09477 -0.403803 0
M  V30 6555 N 626.714 -0.118576 -1.57153 0
M  V30 6556 C 627.96 0.540326 -1.95469 0
M  V30 6557 C 628.293 1.66356 -1.00196 0
M  V30 6558 O 627.568 1.94461 -0.039104 0
M  V30 6559 C 627.851 1.07342 -3.43729 0
M  V30 6560 C 627.704 -0.0463732 -4.49776 0
M  V30 6561 C 629.023 1.96442 -3.93826 0
M  V30 6562 H 626.142 0.19494 -0.710751 0
M  V30 6563 H 628.784 -0.19405 -1.89006 0
M  V30 6564 H 626.934 1.69925 -3.49368 0
M  V30 6565 H 628.606 -0.681648 -4.56236 0
M  V30 6566 H 626.849 -0.709574 -4.27957 0
M  V30 6567 H 627.52 0.367856 -5.50773 0
M  V30 6568 H 629.996 1.43731 -3.90488 0
M  V30 6569 H 628.872 2.3066 -4.98084 0
M  V30 6570 H 629.133 2.89077 -3.34495 0
M  V30 6571 N 628.193 1.56834 0.155195 0
M  V30 6572 C 629.604 1.72421 0.716082 0
M  V30 6573 C 629.955 0.731685 1.82046 0
M  V30 6574 O 629.08 -0.103481 2.16152 0
M  V30 6575 C 629.675 3.12629 1.30571 0
M  V30 6576 C 628.234 3.29846 1.81325 0
M  V30 6577 C 627.381 2.68359 0.698494 0
M  V30 6578 H 630.332 1.58544 -0.0703861 0
M  V30 6579 H 630.353 3.12174 2.1755 0
M  V30 6580 H 629.865 3.84844 0.501701 0
M  V30 6581 H 627.966 2.62614 2.64319 0
M  V30 6582 H 628.079 4.37727 1.9476 0
M  V30 6583 H 626.443 2.28604 1.12305 0
M  V30 6584 H 627.226 3.43171 -0.0939366 0
M  V30 6585 N 629.671 -0.424282 1.51781 0
M  V30 6586 C 630.601 -1.52305 1.7699 0
M  V30 6587 C 631.582 -1.5839 0.620209 0
M  V30 6588 O 632.767 -1.73908 0.864268 0
M  V30 6589 C 629.897 -2.90271 1.90683 0
M  V30 6590 C 628.851 -2.99043 3.06198 0
M  V30 6591 C 628.177 -4.39116 3.05092 0
M  V30 6592 C 629.477 -2.7192 4.45934 0
M  V30 6593 H 631.171 -1.31461 2.68995 0
M  V30 6594 H 628.717 -0.630985 1.29439 0
M  V30 6595 H 630.67 -3.6711 2.06901 0
M  V30 6596 H 629.394 -3.12376 0.953365 0
M  V30 6597 H 628.053 -2.24646 2.89706 0
M  V30 6598 H 627.701 -4.58207 2.07498 0
M  V30 6599 H 627.401 -4.45912 3.82669 0
M  V30 6600 H 628.925 -5.17911 3.2342 0
M  V30 6601 H 630.339 -3.38487 4.62709 0
M  V30 6602 H 628.736 -2.90111 5.25315 0
M  V30 6603 H 629.806 -1.67445 4.55072 0
M  V30 6604 N 631.149 -1.42148 -0.680565 0
M  V30 6605 C 632.565 -1.24947 -0.992995 0
M  V30 6606 C 632.765 -0.149527 -2.00944 0
M  V30 6607 O 631.821 0.481145 -2.47873 0
M  V30 6608 C 633.134 -2.60426 -1.5033 0
M  V30 6609 C 634.682 -2.67733 -1.62137 0
M  V30 6610 C 635.157 -4.03564 -2.16565 0
M  V30 6611 N 636.648 -4.05488 -2.23905 0
M  V30 6612 C 637.383 -5.07401 -2.67081 0
M  V30 6613 N 636.879 -6.19698 -3.09751 0
M  V30 6614 N 638.672 -4.94758 -2.66778 0
M  V30 6615 H 630.823 -2.12399 -0.0074788 0
M  V30 6616 H 633.086 -0.94571 -0.0658529 0
M  V30 6617 H 632.792 -3.41743 -0.830947 0
M  V30 6618 H 632.666 -2.83949 -2.483 0
M  V30 6619 H 635.053 -1.86765 -2.2848 0
M  V30 6620 H 635.134 -2.48004 -0.626713 0
M  V30 6621 H 634.778 -4.84987 -1.50833 0
M  V30 6622 H 634.708 -4.20641 -3.1681 0
M  V30 6623 H 637.199 -3.24415 -1.93812 0
M  V30 6624 H 637.512 -6.93318 -3.41365 0
M  V30 6625 H 635.857 -6.23212 -3.07623 0
M  V30 6626 H 639.048 -4.06105 -2.32801 0
M  V30 6627 H 639.221 -5.74317 -3.00107 0
M  V30 6628 N 632.627 0.916307 -1.28225 0
M  V30 6629 C 634.043 1.19425 -1.05876 0
M  V30 6630 C 634.243 2.005 0.2005 0
M  V30 6631 O 633.299 2.35806 0.902873 0
M  V30 6632 C 634.612 1.93133 -2.30478 0
M  V30 6633 C 636.16 2.06026 -2.35632 0
M  V30 6634 C 636.635 2.83141 -3.59994 0
M  V30 6635 N 638.126 2.90704 -3.60618 0
M  V30 6636 C 638.861 3.50865 -4.53521 0
M  V30 6637 N 638.357 4.12327 -5.56739 0
M  V30 6638 N 640.15 3.48379 -4.41122 0
M  V30 6639 H 632.301 0.37496 -2.09064 0
M  V30 6640 H 634.564 0.228531 -0.920042 0
M  V30 6641 H 634.27 1.40985 -3.22205 0
M  V30 6642 H 634.144 2.93696 -2.36691 0
M  V30 6643 H 636.531 2.57355 -1.44404 0
M  V30 6644 H 636.612 1.04647 -2.33415 0
M  V30 6645 H 636.256 2.32492 -4.51564 0
M  V30 6646 H 636.186 3.84829 -3.59464 0
M  V30 6647 H 638.677 2.47034 -2.85977 0
M  V30 6648 H 638.99 4.56205 -6.23776 0
M  V30 6649 H 637.335 4.10839 -5.60568 0
M  V30 6650 H 640.526 2.99572 -3.59686 0
M  V30 6651 H 640.699 3.94974 -5.13712 0
M  V30 6652 N 634.105 1.10431 1.1244 0
M  V30 6653 C 635.055 0.722378 2.16254 0
M  V30 6654 C 636.039 -0.268427 1.58645 0
M  V30 6655 O 637.231 -0.077169 1.76832 0
M  V30 6656 C 634.36 0.155763 3.42946 0
M  V30 6657 C 633.446 1.17361 4.07538 0
M  V30 6658 N 633.837 2.36429 4.47141 0
M  V30 6659 C 632.135 1.01412 4.34317 0
M  V30 6660 C 632.836 3.01259 4.97612 0
M  V30 6661 N 631.812 2.28777 4.93115 0
M  V30 6662 H 635.614 1.62876 2.4464 0
M  V30 6663 H 633.128 0.982031 1.29344 0
M  V30 6664 H 635.125 -0.135936 4.16678 0
M  V30 6665 H 633.785 -0.745339 3.1603 0
M  V30 6666 H 634.796 2.73954 4.39511 0
M  V30 6667 H 631.473 0.168574 4.1716 0
M  V30 6668 H 632.863 4.02541 5.37968 0
M  V30 6669 N 635.583 -1.29855 0.893053 0
M  V30 6670 C 636.83 -1.95826 0.515585 0
M  V30 6671 C 637.158 -1.70451 -0.936842 0
M  V30 6672 O 636.413 -1.00657 -1.67829 0
M  V30 6673 C 636.712 -3.49515 0.746588 0
M  V30 6674 C 636.378 -3.94955 2.17535 0
M  V30 6675 C 635.04 -4.07073 2.56603 0
M  V30 6676 C 637.392 -4.18536 3.10607 0
M  V30 6677 C 634.72 -4.40138 3.87938 0
M  V30 6678 C 637.072 -4.53073 4.41484 0
M  V30 6679 C 635.736 -4.634 4.80434 0
M  V30 6680 H 635.006 -0.71658 0.188666 0
M  V30 6681 H 637.653 -1.54574 1.13045 0
M  V30 6682 H 635.958 -3.9177 0.0487551 0
M  V30 6683 H 637.655 -3.98644 0.434009 0
M  V30 6684 H 634.245 -3.86035 1.86212 0
M  V30 6685 H 638.429 -4.08646 2.81641 0
M  V30 6686 H 633.685 -4.46335 4.17846 0
M  V30 6687 H 637.859 -4.70269 5.13634 0
M  V30 6688 H 635.486 -4.88775 5.82239 0
M  V30 6689 N 637.061 -0.65484 -1.43351 0
M  V30 6690 C 638.009 0.0476784 -2.32551 0
M  V30 6691 C 639.003 0.811403 -1.48703 0
M  V30 6692 O 640.209 0.721621 -1.64902 0
M  V30 6693 H 636.584 0.0342038 -0.751222 0
M  V30 6694 H 638.555 -0.722342 -2.89525 0
M  V30 6695 C 637.304 0.999251 -3.33032 0
M  V30 6696 H 636.627 0.421005 -3.97577 0
M  V30 6697 H 638.067 1.45986 -3.98076 0
M  V30 6698 C 636.526 2.09606 -2.63756 0
M  V30 6699 O 637.056 3.18004 -2.4543 0
M  V30 6700 N 635.262 1.86207 -2.23103 0
M  V30 6701 H 634.809 0.980555 -2.38208 0
M  V30 6702 H 634.767 2.59787 -1.77081 0
M  V30 6703 N 638.539 1.52521 -0.396863 0
M  V30 6704 C 639.764 2.06571 0.185258 0
M  V30 6705 C 640.189 1.26605 1.39115 0
M  V30 6706 O 639.547 0.293055 1.78916 0
M  V30 6707 C 639.595 3.5674 0.526189 0
M  V30 6708 O 638.699 3.7929 1.61903 0
M  V30 6709 H 638.04 0.663712 0.0195474 0
M  V30 6710 H 640.57 1.966 -0.566519 0
M  V30 6711 H 640.58 4.00311 0.788338 0
M  V30 6712 H 639.255 4.14379 -0.355397 0
M  V30 6713 H 637.832 3.47605 1.35 0
M  V30 6714 N 640.017 0.126909 1.57088 0
M  V30 6715 C 640.965 -0.837618 2.16995 0
M  V30 6716 C 641.959 -1.26974 1.12133 0
M  V30 6717 O 643.165 -1.24056 1.30423 0
M  V30 6718 H 639.54 -0.288256 0.694559 0
M  V30 6719 H 641.511 -0.307957 2.96807 0
M  V30 6720 C 640.26 -2.07474 2.79016 0
M  V30 6721 H 639.583 -1.75117 3.59408 0
M  V30 6722 H 641.023 -2.72949 3.24461 0
M  V30 6723 C 639.482 -2.86967 1.76498 0
M  V30 6724 O 640.012 -3.82625 1.22316 0
M  V30 6725 N 638.218 -2.51111 1.46258 0
M  V30 6726 H 637.765 -1.73389 1.90509 0
M  V30 6727 H 637.723 -3.04594 0.779085 0
M  V30 6728 N 641.495 -1.56914 -0.146875 0
M  V30 6729 C 642.742 -1.83356 -0.859467 0
M  V30 6730 C 643.07 -0.707811 -1.81164 0
M  V30 6731 O 642.325 0.303155 -1.93338 0
M  V30 6732 C 642.624 -3.16128 -1.66727 0
M  V30 6733 C 642.29 -4.42586 -0.861881 0
M  V30 6734 C 640.952 -4.76929 -0.639687 0
M  V30 6735 C 643.304 -5.20344 -0.298643 0
M  V30 6736 C 640.632 -5.86491 0.156451 0
M  V30 6737 C 642.984 -6.30742 0.484536 0
M  V30 6738 C 641.648 -6.63635 0.717306 0
M  V30 6739 H 640.918 -0.670947 -0.314501 0
M  V30 6740 H 643.565 -1.91104 -0.123108 0
M  V30 6741 H 641.87 -3.03831 -2.47374 0
M  V30 6742 H 643.567 -3.33802 -2.2221 0
M  V30 6743 H 640.157 -4.15662 -1.04513 0
M  V30 6744 H 644.341 -4.94186 -0.457585 0
M  V30 6745 H 639.597 -6.10419 0.346292 0
M  V30 6746 H 643.771 -6.90188 0.928105 0
M  V30 6747 H 641.398 -7.48367 1.33607 0
M  V30 6748 N 642.974 0.416227 -1.52004 0
M  V30 6749 C 643.921 1.50666 -1.74838 0
M  V30 6750 C 644.891 1.55245 -0.590599 0
M  V30 6751 O 646.076 1.71928 -0.827374 0
M  V30 6752 C 643.216 2.88185 -1.89851 0
M  V30 6753 C 642.329 2.92971 -3.17478 0
M  V30 6754 C 641.464 4.21745 -3.22962 0
M  V30 6755 C 640.503 4.20478 -4.4482 0
M  V30 6756 N 639.64 5.40811 -4.47736 0
M  V30 6757 H 644.48 1.30498 -2.67907 0
M  V30 6758 H 642.017 0.633568 -1.32757 0
M  V30 6759 H 643.975 3.68007 -1.96537 0
M  V30 6760 H 642.605 3.06865 -1.00169 0
M  V30 6761 H 641.657 2.05684 -3.19997 0
M  V30 6762 H 642.969 2.87899 -4.07328 0
M  V30 6763 H 642.123 5.09954 -3.28682 0
M  V30 6764 H 640.862 4.29503 -2.31038 0
M  V30 6765 H 639.867 3.30659 -4.39254 0
M  V30 6766 H 641.092 4.14366 -5.38031 0
M  V30 6767 H 639.038 5.4925 -3.58692 0
M  V30 6768 H 638.955 5.37705 -5.31422 0
M  V30 6769 H 640.223 6.30993 -4.57676 0
M  V30 6770 N 644.452 1.42507 0.673017 0
M  V30 6771 C 645.7 1.42789 1.43023 0
M  V30 6772 C 646.021 0.0459738 1.94946 0
M  V30 6773 O 645.291 -0.915765 1.73178 0
M  V30 6774 H 643.871 0.525657 0.530748 0
M  V30 6775 H 646.533 1.77944 0.795113 0
M  V30 6776 H 645.629 2.12872 2.28237 0
M  V30 6777 N 645.93 -0.909495 1.28709 0
M  V30 6778 C 647.178 -1.65577 1.15882 0
M  V30 6779 C 647.499 -1.928 -0.292108 0
M  V30 6780 O 646.769 -1.54716 -1.20166 0
M  V30 6781 H 645.349 -0.613714 0.425869 0
M  V30 6782 H 648.011 -1.09108 1.61498 0
M  V30 6783 H 647.107 -2.61634 1.70159 0
M  V30 6784 N 647.408 -1.11026 -1.11852 0
M  V30 6785 C 648.655 -0.85646 -1.83497 0
M  V30 6786 C 648.983 0.617938 -1.84423 0
M  V30 6787 O 648.238 1.47194 -1.28966 0
M  V30 6788 C 648.537 -1.35777 -3.30604 0
M  V30 6789 C 648.203 -2.84465 -3.49843 0
M  V30 6790 C 646.865 -3.25068 -3.54802 0
M  V30 6791 C 649.217 -3.80251 -3.56453 0
M  V30 6792 C 646.545 -4.60194 -3.63921 0
M  V30 6793 C 648.897 -5.15188 -3.67102 0
M  V30 6794 C 647.561 -5.55356 -3.70319 0
M  V30 6795 H 646.831 -0.313401 -0.671462 0
M  V30 6796 H 649.478 -1.38792 -1.31943 0
M  V30 6797 H 647.783 -0.746455 -3.84624 0
M  V30 6798 H 649.48 -1.13779 -3.8452 0
M  V30 6799 H 646.07 -2.52054 -3.46651 0
M  V30 6800 H 650.254 -3.49986 -3.51886 0
M  V30 6801 H 645.51 -4.90728 -3.64686 0
M  V30 6802 H 649.684 -5.89248 -3.71159 0
M  V30 6803 H 647.311 -6.60054 -3.77138 0
M  V30 6804 N 648.886 1.2938 -0.899927 0
M  V30 6805 C 649.834 2.29675 -0.367698 0
M  V30 6806 C 650.828 1.60787 0.533282 0
M  V30 6807 O 652.034 1.75126 0.416058 0
M  V30 6808 H 648.409 0.745284 -0.100279 0
M  V30 6809 H 650.38 2.72008 -1.22696 0
M  V30 6810 C 649.129 3.45512 0.389483 0
M  V30 6811 H 648.452 3.98713 -0.294575 0
M  V30 6812 H 649.892 4.17725 0.726744 0
M  V30 6813 C 648.351 2.969 1.59223 0
M  V30 6814 O 648.881 2.98195 2.69152 0
M  V30 6815 N 647.087 2.52728 1.43447 0
M  V30 6816 H 646.634 2.51873 0.540148 0
M  V30 6817 H 646.592 2.20561 2.24054 0
M  V30 6818 N 650.364 0.662433 1.43002 0
M  V30 6819 C 651.611 0.179591 2.01702 0
M  V30 6820 C 651.939 -1.20964 1.52309 0
M  V30 6821 O 651.194 -1.82343 0.7106 0
M  V30 6822 C 651.493 0.149363 3.57088 0
M  V30 6823 C 651.159 1.48158 4.25864 0
M  V30 6824 C 649.821 1.84638 4.44367 0
M  V30 6825 C 652.173 2.35953 4.64732 0
M  V30 6826 C 649.501 3.08561 4.99006 0
M  V30 6827 C 651.853 3.59176 5.20745 0
M  V30 6828 C 650.517 3.95841 5.37463 0
M  V30 6829 H 649.787 0.0657172 0.73808 0
M  V30 6830 H 652.434 0.854968 1.71355 0
M  V30 6831 H 650.739 -0.609491 3.8703 0
M  V30 6832 H 652.436 -0.241241 4.00274 0
M  V30 6833 H 649.026 1.18777 4.11813 0
M  V30 6834 H 653.21 2.09058 4.50121 0
M  V30 6835 H 648.466 3.37005 5.10135 0
M  V30 6836 H 652.64 4.27417 5.49807 0
M  V30 6837 H 650.267 4.91942 5.79566 0
M  V30 6838 N 651.842 -1.52309 0.404946 0
M  V30 6839 C 653.072 -2.05886 -0.171569 0
M  V30 6840 C 653.48 -1.27527 -1.39762 0
M  V30 6841 O 652.823 -0.319215 -1.80905 0
M  V30 6842 C 652.885 -3.54609 -0.590983 0
M  V30 6843 C 652.549 -4.53989 0.523757 0
M  V30 6844 C 653.546 -5.01084 1.38604 0
M  V30 6845 C 651.231 -4.97465 0.695255 0
M  V30 6846 C 653.225 -5.90295 2.4048 0
M  V30 6847 C 650.912 -5.86473 1.71733 0
M  V30 6848 C 651.91 -6.32782 2.57051 0
M  V30 6849 O 651.598 -7.20029 3.57509 0
M  V30 6850 H 651.33 -0.675508 -0.0257763 0
M  V30 6851 H 653.884 -1.97238 0.573278 0
M  V30 6852 H 652.114 -3.60929 -1.38805 0
M  V30 6853 H 653.803 -3.90853 -1.09494 0
M  V30 6854 H 654.569 -4.68214 1.26492 0
M  V30 6855 H 650.448 -4.60982 0.0408447 0
M  V30 6856 H 653.992 -6.26363 3.07108 0
M  V30 6857 H 649.889 -6.18756 1.83877 0
M  V30 6858 H 650.657 -7.3813 3.53703 0
M  V30 6859 N 653.32 -0.135238 -1.57019 0
M  V30 6860 C 654.283 0.794707 -2.14981 0
M  V30 6861 C 655.283 1.18342 -1.08866 0
M  V30 6862 O 656.473 1.10627 -1.34563 0
M  V30 6863 C 653.605 2.07685 -2.70333 0
M  V30 6864 H 654.798 0.290696 -2.98488 0
M  V30 6865 H 652.351 0.114128 -1.55883 0
M  V30 6866 H 653.086 2.6248 -1.9046 0
M  V30 6867 H 652.871 1.80745 -3.47957 0
M  V30 6868 H 654.361 2.74127 -3.1503 0
M  V30 6869 N 654.798 1.5699 0.138552 0
M  V30 6870 C 656.046 1.83446 0.848053 0
M  V30 6871 C 656.367 0.71744 1.81322 0
M  V30 6872 O 655.637 -0.260228 1.94164 0
M  V30 6873 H 654.217 0.676792 0.316166 0
M  V30 6874 H 656.879 1.94462 0.130538 0
M  V30 6875 H 655.975 2.78677 1.40518 0
M  V30 6876 N 656.276 -0.40816 1.52223 0
M  V30 6877 C 657.206 -1.5042 1.78595 0
M  V30 6878 C 658.187 -1.57723 0.636974 0
M  V30 6879 O 659.372 -1.72982 0.882664 0
M  V30 6880 C 656.502 -2.88232 1.93751 0
M  V30 6881 C 655.456 -2.95779 3.09352 0
M  V30 6882 C 654.782 -4.35855 3.09732 0
M  V30 6883 C 656.082 -2.67175 4.48793 0
M  V30 6884 H 657.776 -1.28601 2.70374 0
M  V30 6885 H 655.322 -0.617221 1.30101 0
M  V30 6886 H 657.275 -3.64895 2.10783 0
M  V30 6887 H 655.999 -3.11347 0.986443 0
M  V30 6888 H 654.658 -2.21561 2.92072 0
M  V30 6889 H 654.306 -4.55981 2.12346 0
M  V30 6890 H 654.006 -4.41829 3.87377 0
M  V30 6891 H 655.53 -5.14451 3.28895 0
M  V30 6892 H 656.944 -3.3356 4.66273 0
M  V30 6893 H 655.341 -2.84523 5.28362 0
M  V30 6894 H 656.411 -1.62609 4.56822 0
M  V30 6895 N 657.755 -1.42862 -0.66545 0
M  V30 6896 C 658.702 -1.4707 -1.77874 0
M  V30 6897 C 659.672 -0.321654 -1.62956 0
M  V30 6898 O 660.857 -0.52707 -1.83376 0
M  V30 6899 C 657.997 -1.38788 -3.15962 0
M  V30 6900 C 657.11 -2.63801 -3.42101 0
M  V30 6901 C 656.245 -2.47594 -4.69969 0
M  V30 6902 C 655.284 -3.67936 -4.89172 0
M  V30 6903 N 654.421 -3.50614 -6.08288 0
M  V30 6904 H 659.261 -2.42204 -1.73613 0
M  V30 6905 H 656.798 -1.20239 -0.847401 0
M  V30 6906 H 658.756 -1.31982 -3.95773 0
M  V30 6907 H 657.386 -0.472431 -3.19324 0
M  V30 6908 H 656.438 -2.80935 -2.56475 0
M  V30 6909 H 657.75 -3.53228 -3.52181 0
M  V30 6910 H 656.904 -2.38427 -5.57886 0
M  V30 6911 H 655.643 -1.55672 -4.62188 0
M  V30 6912 H 654.648 -3.77525 -3.99694 0
M  V30 6913 H 655.873 -4.60851 -4.98792 0
M  V30 6914 H 653.819 -2.61417 -6.01662 0
M  V30 6915 H 653.736 -4.33634 -6.19272 0
M  V30 6916 H 655.004 -3.45276 -6.98859 0
M  V30 6917 N 659.233 0.902656 -1.29189 0
M  V30 6918 C 660.481 1.6496 -1.16758 0
M  V30 6919 C 660.802 1.92952 0.28188 0
M  V30 6920 O 660.072 1.55351 1.19344 0
M  V30 6921 H 658.652 0.611447 -0.429118 0
M  V30 6922 H 661.314 1.0825 -1.62074 0
M  V30 6923 H 660.41 2.60728 -1.71544 0
M  V30 6924 N 660.711 1.11618 1.11262 0
M  V30 6925 C 661.643 0.734015 2.17129 0
M  V30 6926 C 662.656 -0.235243 1.61091 0
M  V30 6927 O 663.845 -0.0178597 1.78491 0
M  V30 6928 C 660.945 0.0643682 3.38839 0
M  V30 6929 C 660.118 1.06092 4.24339 0
M  V30 6930 C 659.177 0.420482 5.24517 0
M  V30 6931 O 658.203 1.07495 5.58957 0
M  V30 6932 N 659.405 -0.815828 5.74739 0
M  V30 6933 H 662.17 1.64492 2.50524 0
M  V30 6934 H 659.731 1.00664 1.26801 0
M  V30 6935 H 661.723 -0.375851 4.02951 0
M  V30 6936 H 660.293 -0.749147 3.03491 0
M  V30 6937 H 659.513 1.67903 3.56654 0
M  V30 6938 H 660.801 1.73507 4.78302 0
M  V30 6939 H 660.199 -1.36668 5.48943 0
M  V30 6940 H 658.756 -1.199 6.40677 0
M  V30 6941 N 662.189 -1.289 0.906776 0
M  V30 6942 C 663.435 -1.95558 0.53712 0
M  V30 6943 C 663.768 -1.71262 -0.915582 0
M  V30 6944 O 663.043 -1.02961 -1.65013 0
M  V30 6945 C 663.326 -3.50198 0.838645 0
M  V30 6946 C 663.179 -3.83923 2.34357 0
M  V30 6947 C 664.498 -4.38861 0.329988 0
M  V30 6948 H 661.617 -0.710289 0.196617 0
M  V30 6949 H 664.259 -1.52392 1.13475 0
M  V30 6950 H 662.409 -3.87096 0.330024 0
M  V30 6951 H 664.081 -3.56933 2.92227 0
M  V30 6952 H 662.324 -3.31215 2.80141 0
M  V30 6953 H 662.995 -4.91883 2.5051 0
M  V30 6954 H 665.471 -4.08996 0.765609 0
M  V30 6955 H 664.347 -5.45931 0.570105 0
M  V30 6956 H 664.608 -4.35352 -0.769511 0
M  V30 6957 N 663.667 -0.670007 -1.42649 0
M  V30 6958 C 664.597 -0.00258501 -2.335 0
M  V30 6959 C 665.578 0.794364 -1.50412 0
M  V30 6960 O 666.763 0.75248 -1.79029 0
M  V30 6961 C 663.893 0.952748 -3.33976 0
M  V30 6962 C 662.847 0.264733 -4.2718 0
M  V30 6963 C 662.173 1.33267 -5.17826 0
M  V30 6964 C 663.473 -0.853289 -5.15283 0
M  V30 6965 H 665.167 -0.761326 -2.89559 0
M  V30 6966 H 662.713 -0.367561 -1.3923 0
M  V30 6967 H 664.666 1.4287 -3.96442 0
M  V30 6968 H 663.39 1.74285 -2.7621 0
M  V30 6969 H 662.049 -0.190938 -3.66102 0
M  V30 6970 H 661.697 2.11464 -4.5639 0
M  V30 6971 H 661.397 0.877476 -5.81011 0
M  V30 6972 H 662.921 1.80965 -5.83167 0
M  V30 6973 H 664.335 -0.458763 -5.71462 0
M  V30 6974 H 662.732 -1.23398 -5.87276 0
M  V30 6975 H 663.802 -1.70412 -4.53969 0
M  V30 6976 N 665.145 1.52092 -0.413018 0
M  V30 6977 C 666.391 2.02154 0.161737 0
M  V30 6978 C 666.724 1.29789 1.44459 0
M  V30 6979 O 665.999 0.405378 1.90229 0
M  V30 6980 C 666.282 3.5781 0.405463 0
M  V30 6981 C 666.135 4.40819 -0.894335 0
M  V30 6982 C 667.454 4.23821 1.18591 0
M  V30 6983 H 664.573 0.734769 0.0573077 0
M  V30 6984 H 667.215 1.81948 -0.547247 0
M  V30 6985 H 665.365 3.75158 1.0094 0
M  V30 6986 H 667.037 4.35175 -1.53039 0
M  V30 6987 H 665.28 4.06877 -1.50444 0
M  V30 6988 H 665.951 5.47819 -0.678144 0
M  V30 6989 H 668.427 4.10596 0.674573 0
M  V30 6990 H 667.303 5.32663 1.3252 0
M  V30 6991 H 667.564 3.83038 2.20758 0
M  V30 6992 N 666.623 0.143563 1.56945 0
M  V30 6993 C 667.553 -0.7936 2.196 0
M  V30 6994 C 668.534 -1.25955 1.14321 0
M  V30 6995 O 669.719 -1.31773 1.42651 0
M  V30 6996 C 666.849 -2.03424 2.81489 0
M  V30 6997 C 665.803 -1.70519 3.92565 0
M  V30 6998 C 665.129 -3.01817 4.41373 0
M  V30 6999 C 666.429 -0.95449 5.13504 0
M  V30 7000 H 668.123 -0.271423 2.98167 0
M  V30 7001 H 665.669 -0.12911 1.4342 0
M  V30 7002 H 667.622 -2.69463 3.23987 0
M  V30 7003 H 666.346 -2.58008 2.00248 0
M  V30 7004 H 665.005 -1.06859 3.5068 0
M  V30 7005 H 664.653 -3.54386 3.56959 0
M  V30 7006 H 664.353 -2.80565 5.16292 0
M  V30 7007 H 665.877 -3.68934 4.86539 0
M  V30 7008 H 667.291 -1.5169 5.52868 0
M  V30 7009 H 665.688 -0.842035 5.94163 0
M  V30 7010 H 666.758 0.0544033 4.84869 0
M  V30 7011 N 668.101 -1.57061 -0.130224 0
M  V30 7012 C 669.517 -1.52103 -0.483413 0
M  V30 7013 C 669.717 -0.854752 -1.82473 0
M  V30 7014 O 668.773 -0.432342 -2.48771 0
M  V30 7015 C 670.086 -2.96872 -0.47825 0
M  V30 7016 C 671.634 -3.07902 -0.562592 0
M  V30 7017 C 672.109 -4.54211 -0.587929 0
M  V30 7018 N 673.6 -4.58621 -0.649684 0
M  V30 7019 C 674.335 -5.69227 -0.690551 0
M  V30 7020 N 673.831 -6.89358 -0.689743 0
M  V30 7021 N 675.624 -5.57304 -0.732708 0
M  V30 7022 H 667.775 -1.98764 0.748779 0
M  V30 7023 H 670.038 -0.907248 0.274965 0
M  V30 7024 H 669.744 -3.48944 0.439444 0
M  V30 7025 H 669.618 -3.53716 -1.31013 0
M  V30 7026 H 672.005 -2.5584 -1.47071 0
M  V30 7027 H 672.086 -2.54073 0.296764 0
M  V30 7028 H 671.73 -5.06915 0.316096 0
M  V30 7029 H 671.66 -5.0584 -1.46401 0
M  V30 7030 H 674.151 -3.72146 -0.656927 0
M  V30 7031 H 674.464 -7.69408 -0.723239 0
M  V30 7032 H 672.809 -6.91884 -0.657347 0
M  V30 7033 H 676 -4.62363 -0.730625 0
M  V30 7034 H 676.173 -6.43515 -0.76109 0
M  V30 7035 N 669.579 0.400081 -1.52437 0
M  V30 7036 C 670.807 1.16768 -1.70801 0
M  V30 7037 C 671.222 1.84036 -0.421462 0
M  V30 7038 O 670.579 1.72242 0.603228 0
M  V30 7039 C 670.63 2.22403 -2.8499 0
M  V30 7040 O 670.351 1.57879 -4.08663 0
M  V30 7041 C 671.852 3.11974 -3.1494 0
M  V30 7042 H 669.072 0.350533 -0.57216 0
M  V30 7043 H 671.616 0.469534 -1.99037 0
M  V30 7044 H 669.771 2.87871 -2.59247 0
M  V30 7045 H 670.185 2.27982 -4.7236 0
M  V30 7046 H 671.659 3.82148 -3.9833 0
M  V30 7047 H 672.136 3.74858 -2.28863 0
M  V30 7048 H 672.742 2.52165 -3.42481 0
M  V30 7049 N 671.057 1.43213 0.657864 0
M  V30 7050 C 672.285 1.48015 1.44566 0
M  V30 7051 C 672.7 0.0965951 1.88553 0
M  V30 7052 O 672.057 -0.892221 1.59203 0
M  V30 7053 C 672.108 2.42199 2.68369 0
M  V30 7054 O 671.829 3.75173 2.26223 0
M  V30 7055 C 673.33 2.56195 3.61772 0
M  V30 7056 H 670.55 0.502861 0.444266 0
M  V30 7057 H 673.094 1.87907 0.806917 0
M  V30 7058 H 671.249 2.05514 3.28394 0
M  V30 7059 H 671.663 4.25776 3.06293 0
M  V30 7060 H 673.137 3.26182 4.4532 0
M  V30 7061 H 673.614 1.60534 4.0881 0
M  V30 7062 H 674.22 2.93671 3.07632 0
M  V30 7063 N 672.536 -0.895792 1.29666 0
M  V30 7064 C 673.761 -1.68528 1.20885 0
M  V30 7065 C 674.186 -1.8673 -0.226595 0
M  V30 7066 O 673.544 -1.39044 -1.16347 0
M  V30 7067 C 673.592 -3.04512 1.93144 0
M  V30 7068 O 672.696 -3.92963 1.25115 0
M  V30 7069 H 672.037 -0.515371 0.418675 0
M  V30 7070 H 674.567 -1.11878 1.71302 0
M  V30 7071 H 674.577 -3.54628 2.0175 0
M  V30 7072 H 673.252 -2.90582 2.97548 0
M  V30 7073 H 671.829 -3.51399 1.24794 0
M  V30 7074 N 674.014 -1.12206 -1.10668 0
M  V30 7075 C 675.242 -0.898635 -1.86366 0
M  V30 7076 C 675.657 0.551991 -1.80551 0
M  V30 7077 O 675.014 1.38152 -1.19249 0
M  V30 7078 C 675.065 -1.36199 -3.34861 0
M  V30 7079 O 674.786 -2.75576 -3.40573 0
M  V30 7080 C 676.287 -1.17515 -4.2744 0
M  V30 7081 H 673.507 -0.321281 -0.589084 0
M  V30 7082 H 676.051 -1.49142 -1.39918 0
M  V30 7083 H 674.206 -0.81249 -3.78784 0
M  V30 7084 H 674.62 -2.95851 -4.33096 0
M  V30 7085 H 676.094 -1.54827 -5.29842 0
M  V30 7086 H 676.571 -0.115486 -4.39048 0
M  V30 7087 H 677.177 -1.71203 -3.89319 0
M  V30 7088 N 675.492 1.28418 -0.913599 0
M  V30 7089 C 676.738 1.9527 -0.547484 0
M  V30 7090 C 677.071 1.71745 0.906486 0
M  V30 7091 O 676.346 1.03834 1.64465 0
M  V30 7092 C 676.629 3.49748 -0.857205 0
M  V30 7093 C 676.482 3.82675 -2.3639 0
M  V30 7094 C 677.801 4.3868 -0.353258 0
M  V30 7095 H 674.92 0.709236 -0.200381 0
M  V30 7096 H 677.562 1.51789 -1.14281 0
M  V30 7097 H 675.712 3.86915 -0.350548 0
M  V30 7098 H 677.384 3.55378 -2.94116 0
M  V30 7099 H 675.627 3.29724 -2.81894 0
M  V30 7100 H 676.298 4.90547 -2.53115 0
M  V30 7101 H 678.774 4.08584 -0.787288 0
M  V30 7102 H 677.65 5.45621 -0.599049 0
M  V30 7103 H 677.911 4.35753 0.746413 0
M  V30 7104 N 676.97 0.677563 1.42291 0
M  V30 7105 C 678.2 0.209155 2.05539 0
M  V30 7106 C 678.608 -1.13987 1.51009 0
M  V30 7107 O 677.951 -1.71976 0.645764 0
M  V30 7108 C 678.013 0.0697758 3.59432 0
M  V30 7109 C 677.677 1.34795 4.36668 0
M  V30 7110 C 678.674 2.28201 4.67141 0
M  V30 7111 C 676.359 1.59632 4.76259 0
M  V30 7112 C 678.353 3.44718 5.36142 0
M  V30 7113 C 676.04 2.76437 5.45 0
M  V30 7114 C 677.038 3.68805 5.74867 0
M  V30 7115 O 676.726 4.83567 6.42198 0
M  V30 7116 H 676.458 0.0986202 0.668768 0
M  V30 7117 H 679.012 0.925483 1.83368 0
M  V30 7118 H 677.242 -0.702157 3.80272 0
M  V30 7119 H 678.931 -0.359115 4.04308 0
M  V30 7120 H 679.697 2.10264 4.37052 0
M  V30 7121 H 675.576 0.886073 4.52404 0
M  V30 7122 H 679.12 4.16833 5.59371 0
M  V30 7123 H 675.017 2.94299 5.74507 0
M  V30 7124 H 675.785 4.83147 6.6069 0
M  V30 7125 N 678.448 -1.51871 0.421078 0
M  V30 7126 C 679.396 -2.28903 -0.413066 0
M  V30 7127 C 680.39 -1.3408 -1.03532 0
M  V30 7128 O 681.596 -1.5149 -0.972146 0
M  V30 7129 H 677.971 -0.736478 -0.152003 0
M  V30 7130 H 679.942 -2.97285 0.257695 0
M  V30 7131 C 678.691 -3.13156 -1.51091 0
M  V30 7132 H 678.014 -3.85997 -1.04145 0
M  V30 7133 H 679.454 -3.7014 -2.06814 0
M  V30 7134 C 677.913 -2.27482 -2.48503 0
M  V30 7135 O 678.443 -1.92325 -3.52667 0
M  V30 7136 N 676.649 -1.91019 -2.18998 0
M  V30 7137 H 676.196 -2.19808 -1.34322 0
M  V30 7138 H 676.154 -1.3399 -2.84419 0
M  V30 7139 N 679.926 -0.151884 -1.56866 0
M  V30 7140 C 681.156 0.504081 -2.00356 0
M  V30 7141 C 681.564 1.58639 -1.03103 0
M  V30 7142 O 680.907 1.83688 -0.0207931 0
M  V30 7143 C 680.969 1.15975 -3.40279 0
M  V30 7144 C 680.633 0.221453 -4.56463 0
M  V30 7145 C 681.63 -0.552766 -5.16953 0
M  V30 7146 C 679.315 0.122936 -5.0215 0
M  V30 7147 C 681.309 -1.4129 -6.21543 0
M  V30 7148 C 678.996 -0.740801 -6.06593 0
M  V30 7149 C 679.994 -1.50732 -6.6616 0
M  V30 7150 O 679.682 -2.35666 -7.68581 0
M  V30 7151 H 679.414 0.135279 -0.662326 0
M  V30 7152 H 681.968 -0.244916 -2.03935 0
M  V30 7153 H 680.198 1.95649 -3.33554 0
M  V30 7154 H 681.887 1.71594 -3.67846 0
M  V30 7155 H 682.653 -0.486716 -4.82552 0
M  V30 7156 H 678.532 0.70931 -4.5551 0
M  V30 7157 H 682.076 -2.01166 -6.67966 0
M  V30 7158 H 677.973 -0.808125 -6.40421 0
M  V30 7159 H 678.741 -2.28967 -7.85822 0
M  V30 7160 N 681.404 1.57128 0.121893 0
M  V30 7161 C 682.681 1.75664 0.860327 0
M  V30 7162 C 683.061 0.726585 1.98202 0
M  V30 7163 O 682.409 -0.24999 2.27128 0
M  V30 7164 C 682.619 3.20571 1.37968 0
M  V30 7165 C 683.967 3.82988 1.83317 0
M  V30 7166 O 684.991 3.24156 1.47654 0
M  V30 7167 O 683.85 4.86393 2.49168 0
M  V30 7168 H 680.944 0.719153 0.408348 0
M  V30 7169 H 683.49 1.6937 0.105859 0
M  V30 7170 H 682.262 3.87056 0.57477 0
M  V30 7171 H 681.885 3.31392 2.19694 0
M  V30 7172 N 682.882 -0.391992 1.52647 0
M  V30 7173 C 684.112 -1.15692 1.71169 0
M  V30 7174 C 684.52 -1.84285 0.428444 0
M  V30 7175 O 683.863 -1.73393 -0.606669 0
M  V30 7176 C 683.925 -2.25033 2.80357 0
M  V30 7177 C 683.589 -1.76433 4.21569 0
M  V30 7178 C 684.586 -1.2427 5.0483 0
M  V30 7179 C 682.271 -1.82746 4.67877 0
M  V30 7180 C 684.265 -0.790657 6.32477 0
M  V30 7181 C 681.952 -1.37153 5.9551 0
M  V30 7182 C 682.95 -0.853997 6.7764 0
M  V30 7183 O 682.638 -0.404708 8.02881 0
M  V30 7184 H 682.37 -0.35297 0.576531 0
M  V30 7185 H 684.924 -0.464994 2.00067 0
M  V30 7186 H 683.154 -2.97641 2.46874 0
M  V30 7187 H 684.843 -2.86718 2.87311 0
M  V30 7188 H 685.609 -1.18752 4.70237 0
M  V30 7189 H 681.488 -2.21971 4.04042 0
M  V30 7190 H 685.032 -0.386024 6.96531 0
M  V30 7191 H 680.929 -1.42356 6.29607 0
M  V30 7192 H 681.697 -0.526459 8.16805 0
M  V30 7193 N 684.36 -1.4356 -0.65026 0
M  V30 7194 C 685.609 -1.44619 -1.406 0
M  V30 7195 C 685.922 -0.0752645 -1.95455 0
M  V30 7196 O 687.128 0.0366832 -2.71475 0
M  V30 7197 C 685.584 -2.54511 -2.54465 0
M  V30 7198 C 685.192 -3.97723 -2.06204 0
M  V30 7199 C 686.936 -2.64768 -3.31811 0
M  V30 7200 C 684.843 -4.99075 -3.17298 0
M  V30 7201 H 683.773 -0.537983 -0.52829 0
M  V30 7202 H 686.424 -1.69559 -0.701561 0
M  V30 7203 H 684.806 -2.22777 -3.27393 0
M  V30 7204 H 685.98 -4.38932 -1.40267 0
M  V30 7205 H 684.295 -3.91538 -1.41729 0
M  V30 7206 H 686.892 -3.37664 -4.14593 0
M  V30 7207 H 687.235 -1.69936 -3.80036 0
M  V30 7208 H 687.768 -2.95817 -2.65964 0
M  V30 7209 H 684.507 -5.95469 -2.74038 0
M  V30 7210 H 684.027 -4.62476 -3.81937 0
M  V30 7211 H 685.706 -5.21913 -3.82382 0
M  V30 7212 N 685.838 0.888903 -1.30139 0
M  V30 7213 C 687.084 1.64288 -1.19922 0
M  V30 7214 C 687.439 1.90839 0.244561 0
M  V30 7215 O 686.732 1.51544 1.17239 0
M  V30 7216 C 686.926 2.99041 -1.95728 0
M  V30 7217 C 686.755 2.85644 -3.47329 0
M  V30 7218 C 685.525 2.85836 -4.16685 0
M  V30 7219 C 687.723 2.6188 -4.42632 0
M  V30 7220 N 685.705 2.63289 -5.54574 0
M  V30 7221 C 687.076 2.48418 -5.68057 0
M  V30 7222 C 689.131 2.47073 -4.32272 0
M  V30 7223 C 687.834 2.21655 -6.84296 0
M  V30 7224 C 689.86 2.21695 -5.48275 0
M  V30 7225 C 689.222 2.09007 -6.72678 0
M  V30 7226 H 685.321 0.606315 -0.493868 0
M  V30 7227 H 687.905 1.0478 -1.64102 0
M  V30 7228 H 686.076 3.56589 -1.53945 0
M  V30 7229 H 687.808 3.63607 -1.77685 0
M  V30 7230 H 684.563 2.97521 -3.68481 0
M  V30 7231 H 684.987 2.55039 -6.27124 0
M  V30 7232 H 689.629 2.55621 -3.36776 0
M  V30 7233 H 687.347 2.11845 -7.79838 0
M  V30 7234 H 690.933 2.11067 -5.42164 0
M  V30 7235 H 689.813 1.89643 -7.60924 0
M  V30 7236 N 687.317 1.12792 1.10072 0
M  V30 7237 C 688.594 0.796867 1.78632 0
M  V30 7238 C 688.974 -0.712739 1.98704 0
M  V30 7239 O 688.322 -1.64773 1.5831 0
M  V30 7240 C 688.532 1.57622 3.11378 0
M  V30 7241 C 689.88 1.76463 3.86194 0
M  V30 7242 O 690.904 1.54165 3.2111 0
M  V30 7243 O 689.763 2.13623 5.03018 0
M  V30 7244 H 686.857 0.290248 0.774394 0
M  V30 7245 H 689.403 1.23215 1.16688 0
M  V30 7246 H 688.175 2.60246 2.92212 0
M  V30 7247 H 687.798 1.13543 3.81043 0
M  V30 7248 N 688.795 -1.27931 0.920396 0
M  V30 7249 C 690.042 -1.94689 0.557007 0
M  V30 7250 C 690.37 -1.724 -0.900476 0
M  V30 7251 O 689.625 -1.04194 -1.65657 0
M  V30 7252 C 689.924 -3.47853 0.820558 0
M  V30 7253 C 689.59 -3.90252 2.25863 0
M  V30 7254 C 688.252 -4.01539 2.65179 0
M  V30 7255 C 690.604 -4.11853 3.19415 0
M  V30 7256 C 687.932 -4.3181 3.97187 0
M  V30 7257 C 690.284 -4.43606 4.50995 0
M  V30 7258 C 688.948 -4.53105 4.90155 0
M  V30 7259 H 688.218 -0.712416 0.203823 0
M  V30 7260 H 690.865 -1.52142 1.16298 0
M  V30 7261 H 689.17 -3.91578 0.131844 0
M  V30 7262 H 690.867 -3.97634 0.51847 0
M  V30 7263 H 687.457 -3.81999 1.94358 0
M  V30 7264 H 691.641 -4.0258 2.90246 0
M  V30 7265 H 686.897 -4.37371 4.2722 0
M  V30 7266 H 691.071 -4.59268 5.23494 0
M  V30 7267 H 688.698 -4.76315 5.92476 0
M  V30 7268 N 690.273 -0.685099 -1.4193 0
M  V30 7269 C 691.522 -0.208816 -2.00616 0
M  V30 7270 C 691.835 1.19506 -1.54847 0
M  V30 7271 O 693.041 1.76826 -2.06021 0
M  V30 7272 C 691.497 -0.322446 -3.58453 0
M  V30 7273 C 691.105 -1.73102 -4.13206 0
M  V30 7274 C 692.849 0.0945979 -4.24395 0
M  V30 7275 C 690.756 -1.79687 -5.63442 0
M  V30 7276 H 689.686 -0.0743092 -0.750329 0
M  V30 7277 H 692.337 -0.851778 -1.62533 0
M  V30 7278 H 690.719 0.388588 -3.94089 0
M  V30 7279 H 691.893 -2.46997 -3.8901 0
M  V30 7280 H 690.208 -2.09682 -3.59753 0
M  V30 7281 H 692.805 0.0656937 -5.3466 0
M  V30 7282 H 693.148 1.1316 -4.00625 0
M  V30 7283 H 693.681 -0.56579 -3.93756 0
M  V30 7284 H 690.42 -2.81404 -5.92024 0
M  V30 7285 H 689.94 -1.10162 -5.89597 0
M  V30 7286 H 691.619 -1.55498 -6.28036 0
M  V30 7287 N 691.751 1.51645 -0.429126 0
M  V30 7288 C 692.998 2.02015 0.140079 0
M  V30 7289 C 693.326 1.31374 1.43427 0
M  V30 7290 O 692.581 0.414779 1.91254 0
M  V30 7291 C 692.88 3.54989 0.414472 0
M  V30 7292 C 692.546 4.43874 -0.792911 0
M  V30 7293 C 691.208 4.67887 -1.12404 0
M  V30 7294 C 693.56 4.96074 -1.59875 0
M  V30 7295 C 690.888 5.41348 -2.26184 0
M  V30 7296 C 693.24 5.70782 -2.72747 0
M  V30 7297 C 691.904 5.93062 -3.06324 0
M  V30 7298 H 691.174 0.739225 0.0512585 0
M  V30 7299 H 693.821 1.82675 -0.574641 0
M  V30 7300 H 692.126 3.72615 1.21099 0
M  V30 7301 H 693.823 3.91489 0.868173 0
M  V30 7302 H 690.413 4.25374 -0.524871 0
M  V30 7303 H 694.597 4.77412 -1.35614 0
M  V30 7304 H 689.853 5.56815 -2.52522 0
M  V30 7305 H 694.027 6.10221 -3.35564 0
M  V30 7306 H 691.654 6.49764 -3.94602 0
M  V30 7307 N 693.229 0.160201 1.56784 0
M  V30 7308 C 694.459 -0.493449 2.00621 0
M  V30 7309 C 694.867 -1.5809 1.03943 0
M  V30 7310 O 694.21 -1.83675 0.0305343 0
M  V30 7311 C 694.272 -1.14169 3.4089 0
M  V30 7312 C 693.936 -0.197243 4.56574 0
M  V30 7313 C 694.933 0.580174 5.16653 0
M  V30 7314 C 692.618 -0.0963038 5.02208 0
M  V30 7315 C 694.612 1.44584 6.20785 0
M  V30 7316 C 692.299 0.772959 6.06192 0
M  V30 7317 C 693.297 1.54263 6.65351 0
M  V30 7318 O 692.985 2.39738 7.67321 0
M  V30 7319 H 692.717 -0.131764 0.663034 0
M  V30 7320 H 695.271 0.255728 2.03802 0
M  V30 7321 H 693.501 -1.93877 3.34587 0
M  V30 7322 H 695.19 -1.69641 3.6875 0
M  V30 7323 H 695.956 0.5123 4.82287 0
M  V30 7324 H 691.835 -0.685143 4.5588 0
M  V30 7325 H 695.379 2.04706 6.66889 0
M  V30 7326 H 691.276 0.842077 6.39984 0
M  V30 7327 H 692.044 2.33131 7.84597 0
M  V30 7328 N 694.707 -1.5719 -0.113559 0
M  V30 7329 C 696.118 -1.74259 -0.670116 0
M  V30 7330 C 696.469 -0.779694 -1.80042 0
M  V30 7331 O 695.594 0.0461353 -2.16351 0
M  V30 7332 C 696.189 -3.15981 -1.22236 0
M  V30 7333 C 694.748 -3.34537 -1.72516 0
M  V30 7334 C 693.895 -2.70116 -0.627098 0
M  V30 7335 H 696.846 -1.58301 0.112396 0
M  V30 7336 H 696.867 -3.17832 -2.09197 0
M  V30 7337 H 696.379 -3.86038 -0.39949 0
M  V30 7338 H 694.48 -2.6953 -2.57263 0
M  V30 7339 H 694.593 -4.42737 -1.83086 0
M  V30 7340 H 692.957 -2.31501 -1.06204 0
M  V30 7341 H 693.74 -3.42802 0.184889 0
M  V30 7342 N 696.185 0.383891 -1.52853 0
M  V30 7343 C 697.133 1.48965 -1.7864 0
M  V30 7344 C 698.127 1.56242 -0.654577 0
M  V30 7345 O 699.333 1.59347 -0.83716 0
M  V30 7346 H 695.708 0.495892 -0.565328 0
M  V30 7347 H 697.679 1.24411 -2.71228 0
M  V30 7348 C 696.428 2.86036 -1.97683 0
M  V30 7349 H 695.751 2.81188 -2.84206 0
M  V30 7350 H 697.191 3.62632 -2.19713 0
M  V30 7351 C 695.65 3.28428 -0.750776 0
M  V30 7352 O 696.18 4.0164 0.0693491 0
M  V30 7353 N 694.386 2.84765 -0.579427 0
M  V30 7354 H 693.933 2.25353 -1.24795 0
M  V30 7355 H 693.891 3.13486 0.239544 0
M  V30 7356 N 697.663 1.43903 0.642637 0
M  V30 7357 C 698.911 1.45791 1.39962 0
M  V30 7358 C 699.232 0.0873144 1.94804 0
M  V30 7359 O 698.502 -0.878825 1.75081 0
M  V30 7360 H 697.082 0.536797 0.519479 0
M  V30 7361 H 699.744 1.7959 0.757189 0
M  V30 7362 H 698.84 2.17665 2.2367 0
M  V30 7363 N 699.141 -0.881989 1.30609 0
M  V30 7364 C 700.387 -1.63647 1.19781 0
M  V30 7365 C 700.72 -1.92632 -0.246265 0
M  V30 7366 O 699.995 -1.54938 -1.17577 0
M  V30 7367 C 700.278 -2.97437 2.02985 0
M  V30 7368 C 700.131 -2.75406 3.55628 0
M  V30 7369 C 701.45 -3.98397 1.86997 0
M  V30 7370 H 698.569 -0.593841 0.436488 0
M  V30 7371 H 701.211 -1.02041 1.60273 0
M  V30 7372 H 699.361 -3.50018 1.68581 0
M  V30 7373 H 701.033 -2.2959 4.00107 0
M  V30 7374 H 699.276 -2.09856 3.79662 0
M  V30 7375 H 699.947 -3.70552 4.09139 0
M  V30 7376 H 702.423 -3.54986 2.17081 0
M  V30 7377 H 701.299 -4.89916 2.47536 0
M  V30 7378 H 701.56 -4.3424 0.829943 0
M  V30 7379 N 700.619 -1.13374 -1.09472 0
M  V30 7380 C 701.552 -0.754354 -2.15371 0
M  V30 7381 C 702.53 0.259205 -1.60521 0
M  V30 7382 O 703.714 0.150819 -1.87896 0
M  V30 7383 C 700.841 -0.118197 -3.38494 0
M  V30 7384 C 699.887 -1.10017 -4.12066 0
M  V30 7385 S 700.72 -2.63242 -4.6633 0
M  V30 7386 C 701.876 -2.00984 -5.92753 0
M  V30 7387 H 702.109 -1.65135 -2.4722 0
M  V30 7388 H 699.642 -0.953838 -1.21414 0
M  V30 7389 H 701.6 0.242447 -4.09783 0
M  V30 7390 H 700.261 0.756065 -3.04865 0
M  V30 7391 H 699.454 -0.60287 -5.00381 0
M  V30 7392 H 699.056 -1.40426 -3.46636 0
M  V30 7393 H 701.348 -1.35863 -6.63738 0
M  V30 7394 H 702.291 -2.8738 -6.47162 0
M  V30 7395 H 702.699 -1.46161 -5.4525 0
M  V30 7396 N 702.098 1.27442 -0.927168 0
M  V30 7397 C 703.008 2.30599 -0.431448 0
M  V30 7398 C 704.024 1.67028 0.48761 0
M  V30 7399 O 705.2 1.97962 0.370546 0
M  V30 7400 C 702.265 3.45327 0.308292 0
M  V30 7401 C 701.326 4.24418 -0.645615 0
M  V30 7402 C 700.559 5.33667 0.0589164 0
M  V30 7403 O 700.782 5.5589 1.27838 0
M  V30 7404 O 699.716 5.98774 -0.612638 0
M  V30 7405 H 703.542 2.75036 -1.28797 0
M  V30 7406 H 701.127 1.32382 -0.692495 0
M  V30 7407 H 703.009 4.15107 0.725555 0
M  V30 7408 H 701.684 3.02945 1.14043 0
M  V30 7409 H 700.591 3.57174 -1.11255 0
M  V30 7410 H 701.924 4.70512 -1.44496 0
M  V30 7411 N 703.576 0.692616 1.41565 0
M  V30 7412 C 704.539 0.0344174 2.29174 0
M  V30 7413 C 705.539 -0.710961 1.44229 0
M  V30 7414 O 706.729 -0.546293 1.65412 0
M  V30 7415 C 703.861 -0.961682 3.27054 0
M  V30 7416 H 705.054 0.805755 2.88873 0
M  V30 7417 H 702.607 0.455947 1.49502 0
M  V30 7418 H 703.342 -1.76089 2.72329 0
M  V30 7419 H 703.127 -0.430375 3.89731 0
M  V30 7420 H 704.617 -1.4201 3.92712 0
M  V30 7421 N 705.054 -1.51416 0.437162 0
M  V30 7422 C 706.001 -2.27743 -0.374374 0
M  V30 7423 C 706.971 -1.31327 -1.01698 0
M  V30 7424 O 708.156 -1.60229 -1.03592 0
M  V30 7425 C 705.296 -3.12241 -1.46969 0
M  V30 7426 C 704.409 -4.23651 -0.845236 0
M  V30 7427 C 703.544 -4.95458 -1.91559 0
M  V30 7428 C 702.583 -5.98789 -1.26956 0
M  V30 7429 N 701.72 -6.64005 -2.28126 0
M  V30 7430 H 706.56 -2.96654 0.282892 0
M  V30 7431 H 704.097 -1.46319 0.151352 0
M  V30 7432 H 706.055 -3.59556 -2.11602 0
M  V30 7433 H 704.685 -2.45445 -2.09659 0
M  V30 7434 H 703.737 -3.803 -0.0872059 0
M  V30 7435 H 705.049 -4.97683 -0.333582 0
M  V30 7436 H 704.203 -5.46321 -2.63854 0
M  V30 7437 H 702.942 -4.21055 -2.46097 0
M  V30 7438 H 701.947 -5.47219 -0.53207 0
M  V30 7439 H 703.172 -6.75149 -0.731509 0
M  V30 7440 H 701.118 -5.92415 -2.81745 0
M  V30 7441 H 701.035 -7.33802 -1.81852 0
M  V30 7442 H 702.303 -7.19498 -2.99905 0
M  V30 7443 N 706.532 -0.168513 -1.56696 0
M  V30 7444 C 707.465 0.801477 -2.13662 0
M  V30 7445 C 708.443 1.22786 -1.06594 0
M  V30 7446 O 709.627 1.32014 -1.34554 0
M  V30 7447 C 706.754 2.07896 -2.6739 0
M  V30 7448 C 705.8 1.79681 -3.86803 0
M  V30 7449 S 706.633 0.968556 -5.26668 0
M  V30 7450 C 707.789 2.25676 -5.83799 0
M  V30 7451 H 708.022 0.317121 -2.95604 0
M  V30 7452 H 705.555 0.0461132 -1.54331 0
M  V30 7453 H 707.513 2.81272 -2.98992 0
M  V30 7454 H 706.174 2.53445 -1.85539 0
M  V30 7455 H 705.367 2.74461 -4.22714 0
M  V30 7456 H 704.969 1.14402 -3.56073 0
M  V30 7457 H 707.261 3.2116 -5.96542 0
M  V30 7458 H 708.204 1.94238 -6.80939 0
M  V30 7459 H 708.612 2.37308 -5.12197 0
M  V30 7460 N 708.01 1.57248 0.105221 0
M  V30 7461 C 708.96 1.9777 1.1345 0
M  V30 7462 C 709.944 0.854654 1.36325 0
M  V30 7463 O 711.136 1.11844 1.37186 0
M  V30 7464 C 708.265 2.39717 2.45745 0
M  V30 7465 C 707.351 3.58686 2.26286 0
M  V30 7466 N 707.742 4.73942 1.76671 0
M  V30 7467 C 706.04 3.64586 2.56891 0
M  V30 7468 C 706.741 5.55923 1.71245 0
M  V30 7469 N 705.717 4.98803 2.16093 0
M  V30 7470 H 709.519 2.84336 0.743664 0
M  V30 7471 H 707.033 1.59359 0.312787 0
M  V30 7472 H 709.03 2.66971 3.20206 0
M  V30 7473 H 707.69 1.54523 2.85574 0
M  V30 7474 H 708.701 4.9689 1.46016 0
M  V30 7475 H 705.378 2.90031 3.00314 0
M  V30 7476 H 706.768 6.58398 1.34022 0
M  V30 7477 N 709.488 -0.375779 1.53054 0
M  V30 7478 C 710.451 -1.44254 1.7811 0
M  V30 7479 C 711.451 -1.47018 0.651328 0
M  V30 7480 O 712.641 -1.47957 0.919472 0
M  V30 7481 C 709.773 -2.8345 1.89391 0
M  V30 7482 H 710.966 -1.23316 2.73374 0
M  V30 7483 H 708.519 -0.608312 1.43977 0
M  V30 7484 H 709.254 -3.09716 0.961589 0
M  V30 7485 H 709.039 -2.82844 2.71555 0
M  V30 7486 H 710.529 -3.60722 2.10404 0
M  V30 7487 N 710.966 -1.44241 -0.634997 0
M  V30 7488 C 712.194 -1.50296 -1.42193 0
M  V30 7489 C 712.609 -0.12658 -1.88375 0
M  V30 7490 O 711.966 0.86678 -1.60603 0
M  V30 7491 C 712.017 -2.46437 -2.64482 0
M  V30 7492 O 711.738 -3.78724 -2.20226 0
M  V30 7493 C 713.239 -2.61918 -3.57651 0
M  V30 7494 H 710.459 -0.509865 -0.43621 0
M  V30 7495 H 713.003 -1.89167 -0.776921 0
M  V30 7496 H 711.158 -2.10712 -3.25083 0
M  V30 7497 H 711.572 -4.30595 -2.9948 0
M  V30 7498 H 713.046 -3.33225 -4.40074 0
M  V30 7499 H 713.523 -1.67017 -4.06204 0
M  V30 7500 H 714.129 -2.98528 -3.02921 0
M  V30 7501 N 712.444 0.87505 -1.31075 0
M  V30 7502 C 713.692 1.62447 -1.20231 0
M  V30 7503 C 714.013 1.93506 0.240888 0
M  V30 7504 O 713.283 1.57847 1.16022 0
M  V30 7505 H 711.863 0.602207 -0.441991 0
M  V30 7506 H 714.525 1.04788 -1.64334 0
M  V30 7507 H 713.621 2.57031 -1.77036 0
M  V30 7508 N 713.922 1.13953 1.08869 0
M  V30 7509 C 715.152 0.926825 1.84644 0
M  V30 7510 C 715.56 -0.527941 1.81685 0
M  V30 7511 O 714.903 -1.37742 1.21543 0
M  V30 7512 C 714.965 1.34416 3.33426 0
M  V30 7513 C 714.629 2.81351 3.60126 0
M  V30 7514 C 715.626 3.79486 3.55368 0
M  V30 7515 C 713.311 3.1865 3.88288 0
M  V30 7516 C 715.305 5.1293 3.78393 0
M  V30 7517 C 712.992 4.5227 4.10968 0
M  V30 7518 C 713.99 5.4922 4.06013 0
M  V30 7519 O 713.678 6.80429 4.28102 0
M  V30 7520 H 713.41 0.33013 0.589907 0
M  V30 7521 H 715.964 1.51738 1.38436 0
M  V30 7522 H 714.194 0.696901 3.80368 0
M  V30 7523 H 715.883 1.10302 3.90626 0
M  V30 7524 H 716.649 3.52017 3.3363 0
M  V30 7525 H 712.528 2.43785 3.91267 0
M  V30 7526 H 716.072 5.88591 3.74442 0
M  V30 7527 H 711.969 4.79462 4.32188 0
M  V30 7528 H 712.737 6.86617 4.45533 0
M  V30 7529 N 715.4 -1.26948 0.933913 0
M  V30 7530 C 716.646 -1.94374 0.57848 0
M  V30 7531 C 716.979 -1.73166 -0.879048 0
M  V30 7532 O 716.254 -1.06438 -1.62792 0
M  V30 7533 C 716.537 -3.4834 0.912739 0
M  V30 7534 C 716.39 -3.78866 2.42448 0
M  V30 7535 C 717.709 -4.38062 0.423003 0
M  V30 7536 H 714.828 -0.705959 0.211639 0
M  V30 7537 H 717.47 -1.49951 1.16682 0
M  V30 7538 H 715.62 -3.86309 0.412058 0
M  V30 7539 H 717.292 -3.50654 2.99733 0
M  V30 7540 H 715.535 -3.25198 2.87104 0
M  V30 7541 H 716.206 -4.86458 2.60887 0
M  V30 7542 H 718.682 -4.0728 0.852191 0
M  V30 7543 H 717.558 -5.44599 0.685776 0
M  V30 7544 H 717.819 -4.36886 -0.676994 0
M  V30 7545 N 716.879 -0.700114 -1.41195 0
M  V30 7546 C 717.829 -0.0144098 -2.27995 0
M  V30 7547 C 718.813 0.748249 -1.42443 0
M  V30 7548 O 720.005 0.622995 -1.65674 0
M  V30 7549 C 717.134 0.917938 -3.308 0
M  V30 7550 C 716.22 0.151286 -4.2383 0
M  V30 7551 N 716.611 -0.85732 -4.98481 0
M  V30 7552 C 714.909 0.386108 -4.44326 0
M  V30 7553 C 715.61 -1.31663 -5.66604 0
M  V30 7554 N 714.586 -0.641689 -5.39799 0
M  V30 7555 H 718.388 -0.787662 -2.83149 0
M  V30 7556 H 715.902 -0.531344 -1.53462 0
M  V30 7557 H 717.899 1.42437 -3.91813 0
M  V30 7558 H 716.559 1.69074 -2.77208 0
M  V30 7559 H 717.57 -1.2377 -5.02893 0
M  V30 7560 H 714.247 1.13644 -4.01735 0
M  V30 7561 H 715.637 -2.15384 -6.36443 0
M  V30 7562 N 718.357 1.51182 -0.445186 0
M  V30 7563 C 719.32 2.26501 0.350722 0
M  V30 7564 C 720.32 1.3025 0.942952 0
M  V30 7565 O 721.51 1.53897 0.816175 0
M  V30 7566 C 718.642 3.06274 1.49697 0
M  V30 7567 H 719.835 2.98299 -0.309474 0
M  V30 7568 H 717.388 1.55034 -0.198551 0
M  V30 7569 H 718.123 2.38911 2.19299 0
M  V30 7570 H 717.908 3.76979 1.0784 0
M  V30 7571 H 719.398 3.63306 2.05909 0
M  V30 7572 N 719.835 0.176821 1.56605 0
M  V30 7573 C 721.063 -0.472828 2.01425 0
M  V30 7574 C 721.478 -1.56436 1.05703 0
M  V30 7575 O 720.835 -1.82405 0.058808 0
M  V30 7576 C 720.886 -1.04607 3.46034 0
M  V30 7577 O 720.607 0.00189608 4.381 0
M  V30 7578 C 722.108 -1.7734 4.06282 0
M  V30 7579 H 719.328 -0.120503 0.660091 0
M  V30 7580 H 721.872 0.280166 2.02572 0
M  V30 7581 H 720.027 -1.74953 3.45645 0
M  V30 7582 H 720.441 -0.422118 5.22799 0
M  V30 7583 H 721.915 -2.12703 5.09374 0
M  V30 7584 H 722.392 -2.67043 3.4869 0
M  V30 7585 H 722.998 -1.11623 4.10391 0
M  V30 7586 N 721.313 -1.57302 -0.09688 0
M  V30 7587 C 722.56 -1.85997 -0.800699 0
M  V30 7588 C 722.888 -0.765089 -1.7882 0
M  V30 7589 O 722.143 0.241492 -1.94204 0
M  V30 7590 C 722.442 -3.21272 -1.56586 0
M  V30 7591 C 722.108 -4.45104 -0.72064 0
M  V30 7592 C 720.77 -4.78723 -0.487632 0
M  V30 7593 C 723.122 -5.2103 -0.132948 0
M  V30 7594 C 720.45 -5.85697 0.34296 0
M  V30 7595 C 722.802 -6.28881 0.684957 0
M  V30 7596 C 721.466 -6.61017 0.928073 0
M  V30 7597 H 720.736 -0.680613 -0.292997 0
M  V30 7598 H 723.383 -1.91399 -0.0622474 0
M  V30 7599 H 721.688 -3.11547 -2.37583 0
M  V30 7600 H 723.385 -3.40702 -2.11478 0
M  V30 7601 H 719.975 -4.18777 -0.912359 0
M  V30 7602 H 724.159 -4.95392 -0.300132 0
M  V30 7603 H 719.415 -6.09008 0.540317 0
M  V30 7604 H 723.589 -6.86886 1.14721 0
M  V30 7605 H 721.216 -7.43738 1.57348 0
M  V30 7606 N 722.791 0.367657 -1.53252 0
M  V30 7607 C 724.021 1.12955 -1.72988 0
M  V30 7608 C 724.429 1.8358 -0.457708 0
M  V30 7609 O 723.772 1.74336 0.579006 0
M  V30 7610 C 723.834 2.20545 -2.83902 0
M  V30 7611 C 723.498 1.69704 -4.24323 0
M  V30 7612 C 724.495 1.16223 -5.06743 0
M  V30 7613 C 722.18 1.7528 -4.70725 0
M  V30 7614 C 724.174 0.689935 -6.33655 0
M  V30 7615 C 721.861 1.27662 -5.97617 0
M  V30 7616 C 722.859 0.746083 -6.78913 0
M  V30 7617 O 722.547 0.276925 -8.03423 0
M  V30 7618 H 722.279 0.343753 -0.582074 0
M  V30 7619 H 724.833 0.433106 -2.00782 0
M  V30 7620 H 723.063 2.93676 -2.51577 0
M  V30 7621 H 724.752 2.82111 -2.91836 0
M  V30 7622 H 725.518 1.11256 -4.72067 0
M  V30 7623 H 721.397 2.15515 -4.07522 0
M  V30 7624 H 724.941 0.275164 -6.97057 0
M  V30 7625 H 720.838 1.32322 -6.31792 0
M  V30 7626 H 721.606 0.396445 -8.17539 0
M  V30 7627 N 724.269 1.44576 0.627338 0
M  V30 7628 C 725.497 1.51048 1.41394 0
M  V30 7629 C 725.912 0.136568 1.88305 0
M  V30 7630 O 725.269 -0.858251 1.6106 0
M  V30 7631 C 725.32 2.47837 2.63172 0
M  V30 7632 O 725.041 3.79887 2.18215 0
M  V30 7633 C 726.542 2.63811 3.56257 0
M  V30 7634 H 723.762 0.512171 0.4335 0
M  V30 7635 H 726.306 1.89576 0.766878 0
M  V30 7636 H 724.461 2.12433 3.23961 0
M  V30 7637 H 724.875 4.32177 2.97192 0
M  V30 7638 H 726.349 3.35554 4.38301 0
M  V30 7639 H 726.826 1.69169 4.05313 0
M  V30 7640 H 727.432 3.0013 3.01333 0
M  V30 7641 N 725.747 -0.868086 1.31537 0
M  V30 7642 C 727.158 -1.437 1.19195 0
M  V30 7643 C 727.509 -1.95169 -0.200842 0
M  V30 7644 O 726.634 -1.86432 -1.09872 0
M  V30 7645 C 727.229 -2.612 2.15778 0
M  V30 7646 C 725.788 -3.1413 2.07363 0
M  V30 7647 C 724.935 -1.86845 2.049 0
M  V30 7648 H 727.886 -0.676457 1.43561 0
M  V30 7649 H 727.907 -3.37948 1.74847 0
M  V30 7650 H 727.419 -2.23709 3.17137 0
M  V30 7651 H 725.52 -3.56238 1.09204 0
M  V30 7652 H 725.633 -3.76285 2.96557 0
M  V30 7653 H 723.997 -2.05886 1.49943 0
M  V30 7654 H 724.78 -1.51589 3.08019 0
M  V30 7655 N 727.225 -1.14528 -1.08264 0
M  V30 7656 C 728.135 -0.84728 -2.18765 0
M  V30 7657 C 729.151 0.172826 -1.7314 0
M  V30 7658 O 730.327 0.000985336 -2.014 0
M  V30 7659 C 727.392 -0.330633 -3.4512 0
M  V30 7660 C 726.453 -1.41348 -4.05363 0
M  V30 7661 C 725.686 -0.921387 -5.25686 0
M  V30 7662 O 725.909 0.236587 -5.69909 0
M  V30 7663 O 724.843 -1.70101 -5.77364 0
M  V30 7664 H 728.669 -1.7708 -2.46731 0
M  V30 7665 H 726.254 -0.923661 -1.17426 0
M  V30 7666 H 728.136 -0.0485053 -4.21372 0
M  V30 7667 H 726.811 0.565147 -3.18728 0
M  V30 7668 H 725.718 -1.74908 -3.30693 0
M  V30 7669 H 727.051 -2.28383 -4.36007 0
M  V30 7670 N 728.703 1.26451 -0.940633 0
M  V30 7671 C 729.951 1.93395 -0.586748 0
M  V30 7672 C 730.272 1.7417 0.876921 0
M  V30 7673 O 729.542 1.097 1.62304 0
M  V30 7674 H 728.122 0.715687 -0.214012 0
M  V30 7675 H 730.784 1.53902 -1.19584 0
M  V30 7676 H 729.88 3.01565 -0.804059 0
M  V30 7677 N 730.181 0.707592 1.40822 0
M  V30 7678 C 731.111 0.0644925 2.33411 0
M  V30 7679 C 732.092 -0.754205 1.52466 0
M  V30 7680 O 733.277 -0.704749 1.80961 0
M  V30 7681 C 730.407 -0.863865 3.36385 0
M  V30 7682 C 729.361 -0.15138 4.27732 0
M  V30 7683 C 728.687 -1.19491 5.21177 0
M  V30 7684 C 729.987 0.989607 5.12839 0
M  V30 7685 H 731.681 0.837829 2.87438 0
M  V30 7686 H 729.227 0.404346 1.38207 0
M  V30 7687 H 731.18 -1.32309 4.0009 0
M  V30 7688 H 729.904 -1.66901 2.80734 0
M  V30 7689 H 728.563 0.287937 3.65467 0
M  V30 7690 H 728.211 -1.9929 4.61836 0
M  V30 7691 H 727.911 -0.723123 5.83134 0
M  V30 7692 H 729.435 -1.6544 5.8776 0
M  V30 7693 H 730.849 0.610114 5.70044 0
M  V30 7694 H 729.246 1.38926 5.83798 0
M  V30 7695 H 730.316 1.82389 4.49291 0
M  V30 7696 N 731.66 -1.50943 0.453197 0
M  V30 7697 C 733.076 -1.59245 0.106342 0
M  V30 7698 C 733.276 -1.46287 -1.38572 0
M  V30 7699 O 732.332 -1.31219 -2.15726 0
M  V30 7700 C 733.645 -2.93797 0.640595 0
M  V30 7701 C 735.193 -3.07148 0.602435 0
M  V30 7702 C 735.668 -4.44247 1.11393 0
M  V30 7703 N 737.159 -4.50611 1.07258 0
M  V30 7704 C 737.894 -5.55049 1.43905 0
M  V30 7705 N 737.39 -6.66828 1.87914 0
M  V30 7706 N 739.183 -5.45494 1.35621 0
M  V30 7707 H 731.334 -1.5761 1.42382 0
M  V30 7708 H 733.597 -0.74384 0.587713 0
M  V30 7709 H 733.303 -3.087 1.68515 0
M  V30 7710 H 733.177 -3.77127 0.0742272 0
M  V30 7711 H 735.564 -2.91903 -0.433171 0
M  V30 7712 H 735.645 -2.25619 1.20539 0
M  V30 7713 H 735.289 -4.60239 2.14808 0
M  V30 7714 H 735.219 -5.2434 0.487353 0
M  V30 7715 H 737.71 -3.70391 0.749585 0
M  V30 7716 H 738.023 -7.42558 2.14072 0
M  V30 7717 H 736.368 -6.67995 1.91853 0
M  V30 7718 H 739.559 -4.57053 1.01093 0
M  V30 7719 H 739.732 -6.2677 1.64508 0
M  V30 7720 N 733.138 -0.185124 -1.56509 0
M  V30 7721 C 734.088 0.752315 -2.15231 0
M  V30 7722 C 735.072 1.18327 -1.0903 0
M  V30 7723 O 736.264 1.14333 -1.35119 0
M  V30 7724 C 733.393 1.97583 -2.80742 0
M  V30 7725 C 732.479 1.56623 -3.94119 0
M  V30 7726 N 732.87 0.867008 -4.98314 0
M  V30 7727 C 731.168 1.85626 -4.05535 0
M  V30 7728 C 731.869 0.663228 -5.77907 0
M  V30 7729 N 730.845 1.20891 -5.29987 0
M  V30 7730 H 734.647 0.209267 -2.93154 0
M  V30 7731 H 732.161 0.0150444 -1.62393 0
M  V30 7732 H 734.158 2.65779 -3.21197 0
M  V30 7733 H 732.818 2.52369 -2.04303 0
M  V30 7734 H 733.829 0.52355 -5.15247 0
M  V30 7735 H 730.506 2.41992 -3.40215 0
M  V30 7736 H 731.896 0.109273 -6.71811 0
M  V30 7737 N 734.616 1.57351 0.0885366 0
M  V30 7738 C 735.864 1.86051 0.789262 0
M  V30 7739 C 736.185 0.774763 1.78948 0
M  V30 7740 O 735.455 -0.198324 1.94894 0
M  V30 7741 H 734.035 0.686508 0.294475 0
M  V30 7742 H 736.697 1.94779 0.0686055 0
M  V30 7743 H 735.793 2.83007 1.31581 0
M  V30 7744 N 736.094 -0.359525 1.53444 0
M  V30 7745 C 737.322 -1.12198 1.73837 0
M  V30 7746 C 737.737 -1.82854 0.470107 0
M  V30 7747 O 737.094 -1.73781 -0.557349 0
M  V30 7748 C 737.145 -2.14769 2.90786 0
M  V30 7749 O 736.866 -1.46989 4.12706 0
M  V30 7750 C 738.367 -3.03514 3.231 0
M  V30 7751 H 735.587 -0.33524 0.581253 0
M  V30 7752 H 738.131 -0.416598 2.00212 0
M  V30 7753 H 736.286 -2.80896 2.66788 0
M  V30 7754 H 736.7 -2.15378 4.78239 0
M  V30 7755 H 738.174 -3.71453 4.08322 0
M  V30 7756 H 738.651 -3.68658 2.38721 0
M  V30 7757 H 739.257 -2.42996 3.49046 0
M  V30 7758 N 737.572 -1.44907 -0.619662 0
M  V30 7759 C 738.988 -1.29046 -0.939107 0
M  V30 7760 C 739.188 -0.23462 -2.00129 0
M  V30 7761 O 738.244 0.37558 -2.49691 0
M  V30 7762 C 739.557 -2.66567 -1.39149 0
M  V30 7763 C 741.105 -2.74368 -1.50635 0
M  V30 7764 C 741.58 -4.12386 -1.99253 0
M  V30 7765 N 743.071 -4.1462 -2.06506 0
M  V30 7766 C 743.806 -5.18272 -2.4532 0
M  V30 7767 N 743.302 -6.32278 -2.83189 0
M  V30 7768 N 745.095 -5.05628 -2.45554 0
M  V30 7769 H 737.246 -2.12239 0.0826135 0
M  V30 7770 H 739.509 -0.947652 -0.0256829 0
M  V30 7771 H 739.215 -3.4496 -0.685254 0
M  V30 7772 H 739.089 -2.94224 -2.36034 0
M  V30 7773 H 741.476 -1.96287 -2.20353 0
M  V30 7774 H 741.557 -2.50439 -0.520963 0
M  V30 7775 H 741.201 -4.90947 -1.30127 0
M  V30 7776 H 741.131 -4.33699 -2.98684 0
M  V30 7777 H 743.622 -3.32343 -1.79878 0
M  V30 7778 H 743.935 -7.07172 -3.11652 0
M  V30 7779 H 742.28 -6.35699 -2.80913 0
M  V30 7780 H 745.471 -4.15613 -2.15367 0
M  V30 7781 H 745.644 -5.86529 -2.75478 0
M  V30 7782 N 739.05 0.861098 -1.31996 0
M  V30 7783 C 739.98 1.98482 -1.22993 0
M  V30 7784 C 740.961 1.6971 -0.115168 0
M  V30 7785 O 742.146 1.91849 -0.30126 0
M  V30 7786 C 739.276 3.34179 -0.945615 0
M  V30 7787 C 738.23 3.77284 -2.02091 0
M  V30 7788 C 737.556 5.1054 -1.58912 0
M  V30 7789 C 738.856 3.93439 -3.43515 0
M  V30 7790 H 740.55 2.06271 -2.17008 0
M  V30 7791 H 738.096 0.991043 -1.04472 0
M  V30 7792 H 740.049 4.12338 -0.869206 0
M  V30 7793 H 738.773 3.26586 0.0301849 0
M  V30 7794 H 737.432 3.01371 -2.08737 0
M  V30 7795 H 737.08 4.99397 -0.600942 0
M  V30 7796 H 736.78 5.40352 -2.30854 0
M  V30 7797 H 738.304 5.91199 -1.52696 0
M  V30 7798 H 739.718 4.6197 -3.39495 0
M  V30 7799 H 738.115 4.34661 -4.13751 0
M  V30 7800 H 739.185 2.96548 -3.8365 0
M  V30 7801 N 740.528 1.15101 1.07655 0
M  V30 7802 C 741.478 0.813448 2.12995 0
M  V30 7803 C 742.462 -0.200899 1.59641 0
M  V30 7804 O 743.654 -0.00209918 1.77 0
M  V30 7805 C 740.783 0.301078 3.41977 0
M  V30 7806 C 739.869 1.3454 4.02194 0
M  V30 7807 N 740.26 2.55181 4.36711 0
M  V30 7808 C 738.558 1.19742 4.29625 0
M  V30 7809 C 739.259 3.22094 4.84387 0
M  V30 7810 N 738.235 2.49486 4.82968 0
M  V30 7811 H 742.037 1.73105 2.37511 0
M  V30 7812 H 739.551 1.03601 1.25063 0
M  V30 7813 H 741.548 0.040914 4.1688 0
M  V30 7814 H 740.208 -0.610629 3.18907 0
M  V30 7815 H 741.219 2.92349 4.27496 0
M  V30 7816 H 737.896 0.345353 4.16069 0
M  V30 7817 H 739.286 4.24996 5.20411 0
M  V30 7818 N 742.006 -1.2595 0.947325 0
M  V30 7819 C 743.234 -1.97544 0.615127 0
M  V30 7820 C 743.649 -1.70484 -0.811221 0
M  V30 7821 O 743.006 -0.97662 -1.5417 0
M  V30 7822 C 743.057 -3.51236 0.855328 0
M  V30 7823 O 742.778 -3.77359 2.22558 0
M  V30 7824 C 744.279 -4.40066 0.534515 0
M  V30 7825 H 741.499 -0.629888 0.231263 0
M  V30 7826 H 744.043 -1.60308 1.26971 0
M  V30 7827 H 742.198 -3.8661 0.247266 0
M  V30 7828 H 742.612 -4.71857 2.29022 0
M  V30 7829 H 744.086 -5.46838 0.753168 0
M  V30 7830 H 744.563 -4.35982 -0.530701 0
M  V30 7831 H 745.169 -4.10245 1.12158 0
M  V30 7832 N 743.484 -0.715051 -1.40445 0
M  V30 7833 C 744.434 -0.038591 -2.27967 0
M  V30 7834 C 745.418 0.733099 -1.43229 0
M  V30 7835 O 746.61 0.605388 -1.66325 0
M  V30 7836 C 743.739 0.882801 -3.31755 0
M  V30 7837 C 742.825 0.106325 -4.23967 0
M  V30 7838 N 743.216 -0.910143 -4.97544 0
M  V30 7839 C 741.514 0.33896 -4.4471 0
M  V30 7840 C 742.215 -1.37665 -5.65175 0
M  V30 7841 N 741.191 -0.698905 -5.39088 0
M  V30 7842 H 744.993 -0.81765 -2.82297 0
M  V30 7843 H 742.507 -0.547591 -1.5289 0
M  V30 7844 H 744.504 1.38273 -3.93302 0
M  V30 7845 H 743.164 1.66124 -2.78985 0
M  V30 7846 H 744.175 -1.29097 -5.01552 0
M  V30 7847 H 740.852 1.09377 -4.02918 0
M  V30 7848 H 742.242 -2.22122 -6.34123 0
M  V30 7849 N 744.962 1.50701 -0.461195 0
M  V30 7850 C 745.892 2.31182 0.328184 0
M  V30 7851 C 746.873 1.37644 0.999408 0
M  V30 7852 O 748.058 1.66565 0.99848 0
M  V30 7853 C 745.188 3.17113 1.41621 0
M  V30 7854 C 744.142 4.19124 0.867148 0
M  V30 7855 C 743.468 4.93728 2.05272 0
M  V30 7856 C 744.768 5.22174 -0.114808 0
M  V30 7857 H 746.462 2.97423 -0.343501 0
M  V30 7858 H 744.008 1.43033 -0.166641 0
M  V30 7859 H 745.961 3.72208 1.97584 0
M  V30 7860 H 744.685 2.48739 2.11652 0
M  V30 7861 H 743.344 3.65116 0.329557 0
M  V30 7862 H 742.992 4.21835 2.73978 0
M  V30 7863 H 742.692 5.62724 1.69161 0
M  V30 7864 H 744.216 5.51654 2.61744 0
M  V30 7865 H 745.63 5.72198 0.355316 0
M  V30 7866 H 744.027 5.98833 -0.389689 0
M  V30 7867 H 745.097 4.7353 -1.04391 0
M  V30 7868 N 746.441 0.193421 1.56409 0
M  V30 7869 C 747.69 -0.445995 1.96707 0
M  V30 7870 C 748.003 -1.62876 1.08309 0
M  V30 7871 O 749.209 -2.33586 1.38383 0
M  V30 7872 C 747.665 -0.844863 3.49843 0
M  V30 7873 C 747.273 0.31352 4.46902 0
M  V30 7874 C 749.017 -1.45146 3.98915 0
M  V30 7875 C 746.924 -0.106214 5.91305 0
M  V30 7876 H 745.854 -0.170398 0.734493 0
M  V30 7877 H 748.505 0.285172 1.81271 0
M  V30 7878 H 746.887 -1.63265 3.60778 0
M  V30 7879 H 748.061 1.09103 4.47698 0
M  V30 7880 H 746.376 0.8315 4.08014 0
M  V30 7881 H 748.973 -1.77792 5.04276 0
M  V30 7882 H 749.316 -2.35734 3.43126 0
M  V30 7883 H 749.849 -0.727675 3.91088 0
M  V30 7884 H 746.588 0.765442 6.51016 0
M  V30 7885 H 746.108 -0.848623 5.93766 0
M  V30 7886 H 747.787 -0.542588 6.44721 0
M  V30 7887 N 747.919 -1.57396 -0.0801906 0
M  V30 7888 C 749.167 -1.86467 -0.779384 0
M  V30 7889 C 749.488 -0.784243 -1.78535 0
M  V30 7890 O 748.758 0.187986 -1.94996 0
M  V30 7891 H 747.338 -0.68806 -0.29083 0
M  V30 7892 H 750 -1.94813 -0.0582749 0
M  V30 7893 H 749.096 -2.83701 -1.30078 0
M  V30 7894 N 749.397 0.351382 -1.53633 0
M  V30 7895 C 750.345 1.45142 -1.8176 0
M  V30 7896 C 751.339 1.54819 -0.687571 0
M  V30 7897 O 752.545 1.57536 -0.870772 0
M  V30 7898 H 748.92 0.483789 -0.575719 0
M  V30 7899 H 750.891 1.1863 -2.73806 0
M  V30 7900 C 749.64 2.81779 -2.03706 0
M  V30 7901 H 748.963 2.75097 -2.90107 0
M  V30 7902 H 750.403 3.5789 -2.27356 0
M  V30 7903 C 748.862 3.26762 -0.820271 0
M  V30 7904 O 749.392 4.01697 -0.0158603 0
M  V30 7905 N 747.598 2.83472 -0.639699 0
M  V30 7906 H 747.145 2.22655 -1.29547 0
M  V30 7907 H 747.103 3.13924 0.172995 0
M  V30 7908 N 750.875 1.45233 0.611969 0
M  V30 7909 C 752.124 1.48296 1.36716 0
M  V30 7910 C 752.437 0.12706 1.95187 0
M  V30 7911 O 753.643 0.0353066 2.71477 0
M  V30 7912 C 752.099 2.61168 2.47627 0
M  V30 7913 C 751.707 4.03051 1.95587 0
M  V30 7914 C 753.451 2.73472 3.24674 0
M  V30 7915 C 751.358 5.07312 3.03954 0
M  V30 7916 H 750.288 0.5518 0.513841 0
M  V30 7917 H 752.939 1.7136 0.656359 0
M  V30 7918 H 751.321 2.31379 3.21372 0
M  V30 7919 H 752.495 4.42497 1.2858 0
M  V30 7920 H 750.81 3.95158 1.31298 0
M  V30 7921 H 753.407 3.48537 4.05494 0
M  V30 7922 H 753.75 1.79953 3.75397 0
M  V30 7923 H 754.283 3.02765 2.58028 0
M  V30 7924 H 751.022 6.02525 2.58154 0
M  V30 7925 H 750.542 4.7244 3.69541 0
M  V30 7926 H 752.221 5.31867 3.6841 0
M  V30 7927 N 752.353 -0.854086 1.3245 0
M  V30 7928 C 753.303 -1.9508 1.18016 0
M  V30 7929 C 754.287 -1.60665 0.0869417 0
M  V30 7930 O 755.479 -1.74201 0.313505 0
M  V30 7931 C 752.608 -3.3113 0.905961 0
M  V30 7932 C 751.694 -3.71763 2.04091 0
M  V30 7933 N 752.085 -3.84218 3.28953 0
M  V30 7934 C 750.383 -4.01393 1.94421 0
M  V30 7935 C 751.084 -4.192 4.03294 0
M  V30 7936 N 750.06 -4.30749 3.31596 0
M  V30 7937 H 753.862 -2.02843 2.12678 0
M  V30 7938 H 751.376 -1.04588 1.24238 0
M  V30 7939 H 753.373 -4.09471 0.783508 0
M  V30 7940 H 752.033 -3.24684 -0.0322715 0
M  V30 7941 H 753.044 -3.68524 3.63883 0
M  V30 7942 H 749.721 -4.03246 1.08162 0
M  V30 7943 H 751.111 -4.36301 5.1097 0
M  V30 7944 N 753.831 -1.1567 -1.07043 0
M  V30 7945 C 755.059 -0.957471 -1.83412 0
M  V30 7946 C 755.474 0.494271 -1.82215 0
M  V30 7947 O 754.831 1.34288 -1.23584 0
M  V30 7948 C 754.882 -1.46784 -3.30359 0
M  V30 7949 O 754.603 -2.86271 -3.31633 0
M  V30 7950 C 756.104 -1.31054 -4.23485 0
M  V30 7951 H 753.324 -0.33986 -0.578564 0
M  V30 7952 H 755.868 -1.53518 -1.35102 0
M  V30 7953 H 754.023 -0.932586 -3.76007 0
M  V30 7954 H 754.437 -3.0948 -4.23465 0
M  V30 7955 H 755.911 -1.71605 -5.24648 0
M  V30 7956 H 756.388 -0.255107 -4.38458 0
M  V30 7957 H 756.994 -1.83503 -3.83676 0
M  V30 7958 N 755.309 1.25446 -0.953992 0
M  V30 7959 C 756.259 2.23627 -0.444413 0
M  V30 7960 C 757.243 1.54004 0.465993 0
M  V30 7961 O 758.435 1.74454 0.29915 0
M  V30 7962 C 755.564 3.42179 0.277175 0
M  V30 7963 C 754.65 4.1907 -0.651263 0
M  V30 7964 N 755.041 4.73346 -1.78262 0
M  V30 7965 C 753.339 4.43628 -0.459338 0
M  V30 7966 C 754.04 5.31576 -2.36224 0
M  V30 7967 N 753.016 5.17991 -1.64884 0
M  V30 7968 H 756.818 2.63197 -1.30785 0
M  V30 7969 H 754.332 1.40677 -0.811402 0
M  V30 7970 H 756.329 4.11653 0.659367 0
M  V30 7971 H 754.989 3.04134 1.13723 0
M  V30 7972 H 756 4.705 -2.1645 0
M  V30 7973 H 752.677 4.15963 0.357885 0
M  V30 7974 H 754.067 5.84361 -3.3162 0
M  V30 7975 N 756.787 0.722489 1.40064 0
M  V30 7976 C 757.717 0.0892452 2.33329 0
M  V30 7977 C 758.698 -0.737992 1.53257 0
M  V30 7978 O 759.883 -0.685516 1.81698 0
M  V30 7979 C 757.013 -0.828139 3.37282 0
M  V30 7980 C 755.967 -0.106005 4.27869 0
M  V30 7981 C 755.293 -1.13957 5.22415 0
M  V30 7982 C 756.593 1.04395 5.11761 0
M  V30 7983 H 758.287 0.868269 2.86534 0
M  V30 7984 H 755.833 0.418982 1.3777 0
M  V30 7985 H 757.786 -1.28058 4.01471 0
M  V30 7986 H 756.51 -1.63914 2.82489 0
M  V30 7987 H 755.169 0.326683 3.65142 0
M  V30 7988 H 754.817 -1.9438 4.63924 0
M  V30 7989 H 754.517 -0.661233 5.83868 0
M  V30 7990 H 756.041 -1.59197 5.89482 0
M  V30 7991 H 757.455 0.670541 5.69365 0
M  V30 7992 H 755.852 1.4511 5.82291 0
M  V30 7993 H 756.922 1.87144 4.47331 0
M  V30 7994 N 758.265 -1.50454 0.469181 0
M  V30 7995 C 759.511 -2.02615 -0.0865971 0
M  V30 7996 C 759.844 -1.35062 -1.39542 0
M  V30 7997 O 759.119 -0.475701 -1.88593 0
M  V30 7998 C 759.402 -3.59068 -0.272385 0
M  V30 7999 C 759.255 -4.37196 1.05733 0
M  V30 8000 C 760.574 -4.2793 -1.0278 0
M  V30 8001 H 757.693 -0.736389 -0.0299977 0
M  V30 8002 H 760.335 -1.79792 0.614399 0
M  V30 8003 H 758.485 -3.78646 -0.869471 0
M  V30 8004 H 760.157 -4.29195 1.69084 0
M  V30 8005 H 758.4 -4.01013 1.65442 0
M  V30 8006 H 759.071 -5.44924 0.880997 0
M  V30 8007 H 761.547 -4.12816 -0.521718 0
M  V30 8008 H 760.423 -5.37214 -1.12659 0
M  V30 8009 H 760.684 -3.90968 -2.0639 0
M  V30 8010 N 759.743 -0.201713 -1.56304 0
M  V30 8011 C 760.693 0.729444 -2.16016 0
M  V30 8012 C 761.677 1.17164 -1.10279 0
M  V30 8013 O 762.869 1.12893 -1.36324 0
M  V30 8014 C 759.998 1.94594 -2.82822 0
M  V30 8015 C 759.084 1.52434 -3.95758 0
M  V30 8016 N 759.475 0.814106 -4.99205 0
M  V30 8017 C 757.773 1.81314 -4.07481 0
M  V30 8018 C 758.474 0.601896 -5.78578 0
M  V30 8019 N 757.45 1.15263 -5.3124 0
M  V30 8020 H 761.252 0.178163 -2.93359 0
M  V30 8021 H 758.766 -0.00218038 -1.624 0
M  V30 8022 H 760.763 2.62357 -3.23998 0
M  V30 8023 H 759.423 2.50188 -2.06969 0
M  V30 8024 H 760.434 0.468872 -5.15773 0
M  V30 8025 H 757.111 2.3837 -3.42762 0
M  V30 8026 H 758.501 0.0380119 -6.71889 0
M  V30 8027 N 761.222 1.57436 0.0718424 0
M  V30 8028 C 762.452 1.91196 0.782795 0
M  V30 8029 C 762.86 0.795927 1.71644 0
M  V30 8030 O 762.203 -0.239604 1.82131 0
M  V30 8031 C 762.265 3.20421 1.63005 0
M  V30 8032 C 761.929 4.48724 0.865782 0
M  V30 8033 C 762.926 5.19571 0.185051 0
M  V30 8034 C 760.611 4.95345 0.832971 0
M  V30 8035 C 762.605 6.3529 -0.518264 0
M  V30 8036 C 760.292 6.1097 0.125884 0
M  V30 8037 C 761.29 6.80794 -0.548533 0
M  V30 8038 O 760.978 7.94213 -1.24423 0
M  V30 8039 H 760.71 0.636486 0.227731 0
M  V30 8040 H 763.264 2.05348 0.0464187 0
M  V30 8041 H 761.494 3.02478 2.40923 0
M  V30 8042 H 763.183 3.39831 2.21968 0
M  V30 8043 H 763.949 4.8458 0.201707 0
M  V30 8044 H 759.828 4.40871 1.34737 0
M  V30 8045 H 763.372 6.89725 -1.04523 0
M  V30 8046 H 759.269 6.45411 0.107155 0
M  V30 8047 H 760.037 8.10331 -1.1535 0
M  V30 8048 N 762.7 -0.34323 1.53817 0
M  V30 8049 C 764.116 -0.686355 1.44088 0
M  V30 8050 C 764.316 -1.92426 0.597882 0
M  V30 8051 O 763.372 -2.52343 0.0889918 0
M  V30 8052 C 764.685 -0.878698 2.87575 0
M  V30 8053 C 766.233 -0.977296 2.97352 0
M  V30 8054 C 766.708 -1.20195 4.41947 0
M  V30 8055 N 768.199 -1.26915 4.45474 0
M  V30 8056 C 768.934 -1.46049 5.54488 0
M  V30 8057 N 768.43 -1.62354 6.73508 0
M  V30 8058 N 770.223 -1.48599 5.42102 0
M  V30 8059 H 762.374 0.470679 2.07119 0
M  V30 8060 H 764.637 0.148652 0.936273 0
M  V30 8061 H 764.343 -0.040602 3.51677 0
M  V30 8062 H 764.217 -1.78034 3.32541 0
M  V30 8063 H 766.604 -1.80591 2.3339 0
M  V30 8064 H 766.685 -0.0525498 2.55746 0
M  V30 8065 H 766.329 -0.378262 5.06489 0
M  V30 8066 H 766.259 -2.14027 4.81145 0
M  V30 8067 H 768.75 -1.15837 3.59708 0
M  V30 8068 H 769.063 -1.76591 7.52353 0
M  V30 8069 H 767.408 -1.5949 6.76453 0
M  V30 8070 H 770.599 -1.35443 4.48077 0
M  V30 8071 H 770.772 -1.6317 6.2712 0
M  V30 8072 N 764.178 -1.45556 -0.604258 0
M  V30 8073 C 765.424 -1.49968 -1.36519 0
M  V30 8074 C 765.757 -0.142236 -1.93678 0
M  V30 8075 O 765.032 0.843717 -1.75247 0
M  V30 8076 C 765.315 -2.58146 -2.51063 0
M  V30 8077 C 765.168 -4.03346 -1.99078 0
M  V30 8078 C 766.487 -2.62581 -3.53184 0
M  V30 8079 H 763.606 -0.545993 -0.495036 0
M  V30 8080 H 766.248 -1.77382 -0.680845 0
M  V30 8081 H 764.398 -2.34901 -3.09441 0
M  V30 8082 H 766.07 -4.37811 -1.45323 0
M  V30 8083 H 764.313 -4.13845 -1.30055 0
M  V30 8084 H 764.984 -4.74731 -2.81664 0
M  V30 8085 H 767.46 -2.83419 -3.04652 0
M  V30 8086 H 766.336 -3.40131 -4.30816 0
M  V30 8087 H 766.597 -1.67798 -4.09019 0
M  V30 8088 N 765.656 0.84705 -1.32902 0
M  V30 8089 C 766.933 1.58583 -1.14503 0
M  V30 8090 C 767.313 2.09075 0.291724 0
M  V30 8091 O 766.661 1.88636 1.28952 0
M  V30 8092 C 766.871 2.72605 -2.17916 0
M  V30 8093 C 768.219 3.41993 -2.51646 0
M  V30 8094 O 769.243 2.82838 -2.1652 0
M  V30 8095 O 768.102 4.48761 -3.1189 0
M  V30 8096 H 765.196 0.698756 -0.442345 0
M  V30 8097 H 767.742 0.890516 -1.44457 0
M  V30 8098 H 766.514 2.32876 -3.14459 0
M  V30 8099 H 766.137 3.49807 -1.89 0
M  V30 8100 N 767.134 1.16236 1.06428 0
M  V30 8101 C 768.064 0.890807 2.1584 0
M  V30 8102 C 769.045 -0.162333 1.69324 0
M  V30 8103 O 770.23 -0.0147191 1.94194 0
M  V30 8104 C 767.36 0.389615 3.45108 0
M  V30 8105 C 766.314 1.38051 4.05125 0
M  V30 8106 C 765.64 0.737773 5.29586 0
M  V30 8107 C 766.94 2.74965 4.44062 0
M  V30 8108 H 768.634 1.80577 2.38814 0
M  V30 8109 H 766.18 0.869657 1.14774 0
M  V30 8110 H 768.133 0.187127 4.20984 0
M  V30 8111 H 766.857 -0.560851 3.21748 0
M  V30 8112 H 765.516 1.56952 3.31303 0
M  V30 8113 H 765.164 -0.219135 5.02522 0
M  V30 8114 H 764.864 1.39914 5.70699 0
M  V30 8115 H 766.388 0.545275 6.0816 0
M  V30 8116 H 767.802 2.59855 5.11027 0
M  V30 8117 H 766.199 3.37563 4.96156 0
M  V30 8118 H 767.269 3.30321 3.54987 0
M  V30 8119 N 768.612 -1.24939 0.960631 0
M  V30 8120 C 769.889 -1.88118 0.535807 0
M  V30 8121 C 770.269 -1.86605 -0.987009 0
M  V30 8122 O 769.617 -1.33375 -1.85536 0
M  V30 8123 C 769.827 -3.30565 1.11927 0
M  V30 8124 C 771.175 -4.07296 1.19981 0
M  V30 8125 O 772.199 -3.39709 1.07126 0
M  V30 8126 O 771.058 -5.28206 1.40218 0
M  V30 8127 H 768.152 -0.807698 0.177631 0
M  V30 8128 H 770.698 -1.32964 1.05445 0
M  V30 8129 H 769.47 -3.26128 2.16231 0
M  V30 8130 H 769.093 -3.93284 0.584245 0
M  V30 8131 N 770.09 -0.729906 -1.39679 0
M  V30 8132 C 771.336 -0.27603 -2.00913 0
M  V30 8133 C 771.669 1.13227 -1.57776 0
M  V30 8134 O 770.944 1.7709 -0.804319 0
M  V30 8135 C 771.227 -0.372157 -3.58172 0
M  V30 8136 C 771.08 -1.81986 -4.11341 0
M  V30 8137 C 772.399 0.248378 -4.39399 0
M  V30 8138 H 769.518 -0.101773 -0.729939 0
M  V30 8139 H 772.16 -0.925104 -1.65957 0
M  V30 8140 H 770.31 0.180459 -3.88081 0
M  V30 8141 H 771.982 -2.42896 -3.92172 0
M  V30 8142 H 770.225 -2.34287 -3.65092 0
M  V30 8143 H 770.896 -1.83842 -5.20486 0
M  V30 8144 H 773.372 -0.222645 -4.15504 0
M  V30 8145 H 772.248 0.150746 -5.48693 0
M  V30 8146 H 772.509 1.33378 -4.21501 0
M  V30 8147 N 771.568 1.50203 -0.477153 0
M  V30 8148 C 772.531 2.27194 0.302599 0
M  V30 8149 C 773.531 1.32221 0.915112 0
M  V30 8150 O 774.721 1.55593 0.783348 0
M  V30 8151 C 771.853 3.0938 1.43167 0
M  V30 8152 H 773.046 2.97575 -0.372678 0
M  V30 8153 H 770.599 1.54578 -0.231392 0
M  V30 8154 H 771.334 2.43509 2.14182 0
M  V30 8155 H 771.119 3.79181 0.998197 0
M  V30 8156 H 772.609 3.67592 1.98157 0
M  V30 8157 N 773.046 0.209999 1.56195 0
M  V30 8158 C 774.294 -0.423974 1.97603 0
M  V30 8159 C 774.615 -1.61112 1.09854 0
M  V30 8160 O 773.885 -1.95134 0.173032 0
M  V30 8161 H 772.465 -0.159629 0.729745 0
M  V30 8162 H 775.127 0.300205 1.92574 0
M  V30 8163 H 774.223 -0.75809 3.02753 0
M  V30 8164 N 774.524 -1.57472 -0.0634922 0
M  V30 8165 C 775.752 -1.91887 -0.773767 0
M  V30 8166 C 776.167 -0.806733 -1.70696 0
M  V30 8167 O 775.524 0.219383 -1.81177 0
M  V30 8168 C 775.575 -3.26092 -1.56034 0
M  V30 8169 O 775.296 -4.33029 -0.66464 0
M  V30 8170 C 776.797 -3.74573 -2.37087 0
M  V30 8171 H 774.017 -0.634074 -0.219525 0
M  V30 8172 H 776.561 -2.04476 -0.0312828 0
M  V30 8173 H 774.716 -3.15004 -2.25502 0
M  V30 8174 H 775.13 -5.10291 -1.21258 0
M  V30 8175 H 776.604 -4.71084 -2.87722 0
M  V30 8176 H 777.081 -3.04003 -3.16984 0
M  V30 8177 H 777.687 -3.88631 -1.72759 0
M  V30 8178 N 776.003 0.335068 -1.53997 0
M  V30 8179 C 776.95 1.41187 -1.82579 0
M  V30 8180 C 777.92 1.51897 -0.672061 0
M  V30 8181 O 779.105 1.673 -0.917346 0
M  V30 8182 C 776.245 2.77717 -2.0486 0
M  V30 8183 C 775.358 2.7573 -3.32561 0
M  V30 8184 C 774.493 4.04032 -3.44864 0
M  V30 8185 C 773.532 3.96308 -4.66483 0
M  V30 8186 N 772.669 5.16317 -4.75774 0
M  V30 8187 H 777.509 1.16113 -2.74448 0
M  V30 8188 H 775.046 0.562305 -1.35928 0
M  V30 8189 H 777.004 3.57071 -2.15768 0
M  V30 8190 H 775.634 3.01124 -1.16294 0
M  V30 8191 H 774.686 1.88432 -3.3045 0
M  V30 8192 H 775.998 2.65902 -4.22016 0
M  V30 8193 H 775.152 4.91814 -3.55251 0
M  V30 8194 H 773.891 4.16652 -2.53481 0
M  V30 8195 H 772.896 3.06911 -4.56164 0
M  V30 8196 H 774.121 3.85263 -5.5924 0
M  V30 8197 H 772.067 5.29464 -3.87303 0
M  V30 8198 H 771.984 5.08779 -5.59178 0
M  V30 8199 H 773.252 6.05846 -4.9048 0
M  V30 8200 N 777.481 1.45874 0.596531 0
M  V30 8201 C 778.429 1.55739 1.72766 0
M  V30 8202 C 779.423 0.426666 1.63939 0
M  V30 8203 O 780.629 0.60301 1.69599 0
M  V30 8204 H 777.004 0.489386 0.570968 0
M  V30 8205 H 778.975 2.50871 1.61575 0
M  V30 8206 C 777.724 1.55174 3.11153 0
M  V30 8207 H 777.047 2.41511 3.1861 0
M  V30 8208 H 778.487 1.66133 3.90097 0
M  V30 8209 C 776.946 0.278001 3.35751 0
M  V30 8210 O 777.476 -0.637557 3.96608 0
M  V30 8211 N 775.682 0.170227 2.90101 0
M  V30 8212 H 775.229 0.916159 2.40758 0
M  V30 8213 H 775.187 -0.68117 3.06932 0
M  V30 8214 N 778.959 -0.83999 1.33349 0
M  V30 8215 C 780.184 -1.63249 1.27924 0
M  V30 8216 C 780.609 -1.87523 -0.147193 0
M  V30 8217 O 779.967 -1.43853 -1.10345 0
M  V30 8218 C 780.015 -2.96046 2.05886 0
M  V30 8219 O 779.119 -3.87303 1.4167 0
M  V30 8220 H 778.46 -0.49715 0.440157 0
M  V30 8221 H 780.99 -1.04512 1.75893 0
M  V30 8222 H 781 -3.45752 2.16609 0
M  V30 8223 H 779.675 -2.77701 3.09605 0
M  V30 8224 H 778.252 -3.45789 1.39585 0
M  V30 8225 N 780.437 -1.16799 -1.0581 0
M  V30 8226 C 781.684 -0.952524 -1.78699 0
M  V30 8227 C 782.012 0.51931 -1.87439 0
M  V30 8228 O 781.267 1.40151 -1.36587 0
M  V30 8229 C 781.566 -1.53111 -3.22942 0
M  V30 8230 C 781.232 -3.0261 -3.34273 0
M  V30 8231 C 779.894 -3.43418 -3.37072 0
M  V30 8232 C 782.246 -3.98611 -3.35795 0
M  V30 8233 C 779.574 -4.78838 -3.39015 0
M  V30 8234 C 781.926 -5.33923 -3.39277 0
M  V30 8235 C 780.59 -5.74205 -3.40361 0
M  V30 8236 H 779.86 -0.348553 -0.653905 0
M  V30 8237 H 782.507 -1.45591 -1.244 0
M  V30 8238 H 780.812 -0.949286 -3.80126 0
M  V30 8239 H 782.509 -1.34002 -3.77948 0
M  V30 8240 H 779.099 -2.70075 -3.32803 0
M  V30 8241 H 783.283 -3.68146 -3.32839 0
M  V30 8242 H 778.539 -5.09369 -3.38161 0
M  V30 8243 H 782.713 -6.08094 -3.39403 0
M  V30 8244 H 780.34 -6.79117 -3.4162 0
M  V30 8245 N 781.915 1.24427 -0.967243 0
M  V30 8246 C 782.847 2.24641 -0.454856 0
M  V30 8247 C 783.86 1.56849 0.436152 0
M  V30 8248 O 785.049 1.76846 0.242401 0
M  V30 8249 C 782.149 3.36954 0.362672 0
M  V30 8250 C 781.322 4.34318 -0.518324 0
M  V30 8251 C 780.381 5.25638 0.243122 0
M  V30 8252 O 779.407 5.68043 -0.362791 0
M  V30 8253 N 780.609 5.59897 1.53282 0
M  V30 8254 H 783.374 2.69238 -1.31648 0
M  V30 8255 H 780.935 1.38464 -0.839015 0
M  V30 8256 H 782.927 3.95014 0.880094 0
M  V30 8257 H 781.497 2.91646 1.12522 0
M  V30 8258 H 780.717 3.74953 -1.21672 0
M  V30 8259 H 782.005 4.96338 -1.11919 0
M  V30 8260 H 781.403 5.27373 2.04682 0
M  V30 8261 H 779.96 6.20488 1.99594 0
M  V30 8262 N 783.393 0.737304 1.3929 0
M  V30 8263 C 784.621 0.296573 2.04763 0
M  V30 8264 C 785.036 -1.06941 1.55592 0
M  V30 8265 O 784.393 -1.67619 0.721822 0
M  V30 8266 C 784.444 0.291906 3.6032 0
M  V30 8267 O 784.165 1.60397 4.07682 0
M  V30 8268 C 785.666 -0.164708 4.42994 0
M  V30 8269 H 782.886 0.129251 0.658434 0
M  V30 8270 H 785.43 1.0016 1.78293 0
M  V30 8271 H 783.585 -0.364251 3.85684 0
M  V30 8272 H 783.999 1.51909 5.0202 0
M  V30 8273 H 785.473 -0.116814 5.51876 0
M  V30 8274 H 785.95 -1.21022 4.22197 0
M  V30 8275 H 786.556 0.461968 4.22784 0
M  V30 8276 N 784.871 -1.49948 0.485112 0
M  V30 8277 C 785.801 -2.31675 -0.291364 0
M  V30 8278 C 786.782 -1.39216 -0.977383 0
M  V30 8279 O 787.967 -1.68133 -0.971855 0
M  V30 8280 C 785.097 -3.19326 -1.36558 0
M  V30 8281 C 784.051 -4.2045 -0.800359 0
M  V30 8282 C 783.377 -4.96931 -1.97391 0
M  V30 8283 C 784.677 -5.21925 0.197867 0
M  V30 8284 H 786.371 -2.96839 0.390775 0
M  V30 8285 H 783.917 -1.42749 0.189375 0
M  V30 8286 H 785.87 -3.75304 -1.91638 0
M  V30 8287 H 784.594 -2.52074 -2.07668 0
M  V30 8288 H 783.253 -3.65594 -0.271428 0
M  V30 8289 H 782.901 -4.26141 -2.67232 0
M  V30 8290 H 782.601 -5.65344 -1.60187 0
M  V30 8291 H 784.125 -5.55749 -2.52935 0
M  V30 8292 H 785.539 -5.72691 -0.264239 0
M  V30 8293 H 783.936 -5.98138 0.484908 0
M  V30 8294 H 785.006 -4.71809 1.11912 0
M  V30 8295 N 786.349 -0.21828 -1.56081 0
M  V30 8296 C 787.281 0.725447 -2.17416 0
M  V30 8297 C 788.294 1.15995 -1.14233 0
M  V30 8298 O 789.483 1.09166 -1.41227 0
M  V30 8299 C 786.583 1.99401 -2.7403 0
M  V30 8300 C 785.756 1.7156 -4.02351 0
M  V30 8301 C 784.815 2.8309 -4.43561 0
M  V30 8302 O 783.841 2.51701 -5.10525 0
M  V30 8303 N 785.043 4.11972 -4.08973 0
M  V30 8304 H 787.808 0.200801 -2.99027 0
M  V30 8305 H 785.369 -0.0371514 -1.61857 0
M  V30 8306 H 787.361 2.73198 -2.98571 0
M  V30 8307 H 785.931 2.42923 -1.96742 0
M  V30 8308 H 785.151 0.814233 -3.85699 0
M  V30 8309 H 786.439 1.50385 -4.86068 0
M  V30 8310 H 785.837 4.40319 -3.55156 0
M  V30 8311 H 784.394 4.82323 -4.38415 0
M  V30 8312 N 787.827 1.57504 0.0551401 0
M  V30 8313 C 788.76 2.00155 1.09604 0
M  V30 8314 C 789.738 0.881274 1.36647 0
M  V30 8315 O 790.922 1.14498 1.49742 0
M  V30 8316 C 788.049 2.35246 2.43674 0
M  V30 8317 C 787.095 3.57452 2.32659 0
M  V30 8318 S 787.928 5.07639 1.7048 0
M  V30 8319 C 789.084 5.45947 3.06093 0
M  V30 8320 H 789.317 2.88131 0.732635 0
M  V30 8321 H 786.85 1.52122 0.264252 0
M  V30 8322 H 788.808 2.56136 3.20787 0
M  V30 8323 H 787.469 1.47769 2.7717 0
M  V30 8324 H 786.662 3.79576 3.31569 0
M  V30 8325 H 786.264 3.36279 1.63685 0
M  V30 8326 H 788.556 5.45036 4.0242 0
M  V30 8327 H 789.499 6.4656 2.88732 0
M  V30 8328 H 789.907 4.73419 3.07466 0
M  V30 8329 N 789.305 -0.326896 1.54172 0
M  V30 8330 C 790.252 -1.40216 1.83325 0
M  V30 8331 C 791.222 -1.51538 0.680107 0
M  V30 8332 O 792.407 -1.66811 0.926206 0
M  V30 8333 C 789.547 -2.76626 2.0633 0
M  V30 8334 C 788.66 -2.73963 3.34019 0
M  V30 8335 C 787.795 -4.02198 3.47002 0
M  V30 8336 C 786.834 -3.93828 4.68578 0
M  V30 8337 N 785.971 -5.13787 4.78506 0
M  V30 8338 H 790.811 -1.14656 2.7506 0
M  V30 8339 H 788.348 -0.555089 1.36225 0
M  V30 8340 H 790.306 -3.55922 2.17659 0
M  V30 8341 H 788.936 -3.00503 1.1789 0
M  V30 8342 H 787.988 -1.86677 3.31445 0
M  V30 8343 H 789.3 -2.6366 4.2342 0
M  V30 8344 H 788.454 -4.89923 3.57855 0
M  V30 8345 H 787.193 -4.15302 2.55687 0
M  V30 8346 H 786.198 -3.04487 4.57786 0
M  V30 8347 H 787.423 -3.82292 5.61275 0
M  V30 8348 H 785.369 -5.27403 3.90105 0
M  V30 8349 H 785.286 -5.05807 5.61868 0
M  V30 8350 H 786.554 -6.03236 4.93686 0
M  V30 8351 N 790.784 -1.46188 -0.588786 0
M  V30 8352 C 791.714 -1.59148 -1.70863 0
M  V30 8353 C 792.695 -0.442083 -1.64255 0
M  V30 8354 O 793.88 -0.667575 -1.82365 0
M  V30 8355 C 791.01 -1.5757 -3.09498 0
M  V30 8356 C 789.964 -2.71418 -3.30932 0
M  V30 8357 C 789.29 -2.549 -4.70032 0
M  V30 8358 C 790.59 -4.1329 -3.19356 0
M  V30 8359 H 792.284 -2.52889 -1.60274 0
M  V30 8360 H 789.83 -1.21707 -0.769638 0
M  V30 8361 H 791.783 -1.65231 -3.87655 0
M  V30 8362 H 790.507 -0.603705 -3.20972 0
M  V30 8363 H 789.166 -2.63216 -2.55172 0
M  V30 8364 H 788.814 -1.55797 -4.78264 0
M  V30 8365 H 788.514 -3.31257 -4.85327 0
M  V30 8366 H 790.038 -2.64443 -5.50366 0
M  V30 8367 H 791.452 -4.22636 -3.87365 0
M  V30 8368 H 789.849 -4.90187 -3.46175 0
M  V30 8369 H 790.919 -4.33874 -2.16522 0
M  V30 8370 N 792.262 0.832906 -1.33792 0
M  V30 8371 C 793.172 1.97514 -1.26592 0
M  V30 8372 C 794.188 1.73114 -0.175391 0
M  V30 8373 O 795.364 1.97387 -0.400062 0
M  V30 8374 C 792.429 3.31625 -1.01121 0
M  V30 8375 C 791.49 3.69101 -2.19233 0
M  V30 8376 C 790.723 4.96813 -1.94968 0
M  V30 8377 O 790.946 5.63208 -0.902955 0
M  V30 8378 O 789.88 5.31932 -2.8166 0
M  V30 8379 H 793.706 2.0653 -2.22664 0
M  V30 8380 H 791.291 0.966826 -1.13898 0
M  V30 8381 H 793.173 4.11968 -0.886571 0
M  V30 8382 H 791.848 3.23599 -0.080822 0
M  V30 8383 H 790.755 2.89243 -2.37253 0
M  V30 8384 H 792.088 3.818 -3.10628 0
M  V30 8385 N 793.74 1.17359 1.05189 0
M  V30 8386 C 794.688 0.886527 2.15043 0
M  V30 8387 C 795.682 -0.148834 1.68745 0
M  V30 8388 O 796.888 -0.00175123 1.8 0
M  V30 8389 H 793.263 0.269147 0.702185 0
M  V30 8390 H 795.234 1.82016 2.36459 0
M  V30 8391 C 793.983 0.416333 3.45198 0
M  V30 8392 H 793.306 1.20449 3.81225 0
M  V30 8393 H 794.746 0.254362 4.23236 0
M  V30 8394 C 793.205 -0.866016 3.25579 0
M  V30 8395 O 793.735 -1.9328 3.52144 0
M  V30 8396 N 791.941 -0.814179 2.78961 0
M  V30 8397 H 791.488 0.0541618 2.57543 0
M  V30 8398 H 791.446 -1.67264 2.66214 0
M  V30 8399 N 795.218 -1.23913 0.973828 0
M  V30 8400 C 796.467 -1.91455 0.63464 0
M  V30 8401 C 796.78 -1.76893 -0.834759 0
M  V30 8402 O 797.986 -2.3918 -1.28473 0
M  V30 8403 C 796.442 -3.43172 1.08447 0
M  V30 8404 C 796.05 -3.66409 2.57776 0
M  V30 8405 C 797.794 -4.1653 0.818721 0
M  V30 8406 C 795.701 -5.11728 2.9646 0
M  V30 8407 H 794.631 -0.716881 0.233661 0
M  V30 8408 H 797.282 -1.40457 1.18085 0
M  V30 8409 H 795.664 -3.93242 0.466524 0
M  V30 8410 H 796.838 -3.26913 3.24753 0
M  V30 8411 H 795.153 -3.06349 2.82027 0
M  V30 8412 H 797.75 -5.23603 1.08367 0
M  V30 8413 H 798.093 -4.15578 -0.245128 0
M  V30 8414 H 798.626 -3.72428 1.39793 0
M  V30 8415 H 795.365 -5.17806 4.01941 0
M  V30 8416 H 794.885 -5.52199 2.34172 0
M  V30 8417 H 796.564 -5.80009 2.86703 0
M  V30 8418 N 796.696 -0.74468 -1.38897 0
M  V30 8419 C 797.924 -0.307428 -2.04603 0
M  V30 8420 C 798.339 1.06115 -1.56157 0
M  V30 8421 O 797.696 1.67233 -0.730701 0
M  V30 8422 C 797.747 -0.31101 -3.6016 0
M  V30 8423 O 797.468 -1.62557 -4.06825 0
M  V30 8424 C 798.969 0.141213 -4.43075 0
M  V30 8425 H 796.189 -0.132741 -0.657739 0
M  V30 8426 H 798.733 -1.01104 -1.77759 0
M  V30 8427 H 796.888 0.343792 -3.85872 0
M  V30 8428 H 797.302 -1.54569 -5.01207 0
M  V30 8429 H 798.776 0.0875449 -5.51931 0
M  V30 8430 H 799.253 1.18782 -4.22833 0
M  V30 8431 H 799.859 -0.484383 -4.22533 0
M  V30 8432 N 798.174 1.49689 -0.493057 0
M  V30 8433 C 799.122 2.30613 0.303383 0
M  V30 8434 C 800.116 1.38867 0.970165 0
M  V30 8435 O 801.322 1.55956 0.898761 0
M  V30 8436 H 797.697 0.742891 0.116691 0
M  V30 8437 H 799.668 2.95717 -0.39924 0
M  V30 8438 C 798.417 3.20008 1.35978 0
M  V30 8439 H 797.74 3.90526 0.856103 0
M  V30 8440 H 799.18 3.79586 1.88919 0
M  V30 8441 C 797.639 2.39079 2.37367 0
M  V30 8442 O 798.169 2.08933 3.43089 0
M  V30 8443 N 796.375 2.0125 2.09635 0
M  V30 8444 H 795.922 2.25966 1.23682 0
M  V30 8445 H 795.88 1.47408 2.77702 0
M  V30 8446 N 799.652 0.226554 1.55963 0
M  V30 8447 C 801.063 -0.280381 1.84583 0
M  V30 8448 C 801.414 -1.59105 1.14804 0
M  V30 8449 O 800.539 -2.12297 0.419414 0
M  V30 8450 C 801.134 -0.515499 3.34855 0
M  V30 8451 C 799.693 -0.966733 3.63774 0
M  V30 8452 C 798.84 -0.0325753 2.77281 0
M  V30 8453 H 801.791 0.449626 1.52197 0
M  V30 8454 H 801.812 -1.36085 3.55332 0
M  V30 8455 H 801.324 0.438594 3.85614 0
M  V30 8456 H 799.425 -1.93401 3.18476 0
M  V30 8457 H 799.538 -0.837679 4.7172 0
M  V30 8458 H 797.902 -0.540279 2.48904 0
M  V30 8459 H 798.685 0.916524 3.30839 0
M  V30 8460 N 801.13 -1.57531 -0.0467866 0
M  V30 8461 C 802.376 -1.89584 -0.736837 0
M  V30 8462 C 802.731 -0.82317 -1.73901 0
M  V30 8463 O 802.024 0.170098 -1.90843 0
M  V30 8464 C 802.218 -3.26091 -1.46285 0
M  V30 8465 C 802.047 -4.46536 -0.532502 0
M  V30 8466 C 800.817 -5.05046 -0.160109 0
M  V30 8467 C 803.015 -5.13979 0.181555 0
M  V30 8468 N 800.997 -6.09009 0.773349 0
M  V30 8469 C 802.368 -6.12345 0.971297 0
M  V30 8470 C 804.423 -4.9727 0.250382 0
M  V30 8471 C 803.126 -6.95802 1.82351 0
M  V30 8472 C 805.152 -5.81275 1.08965 0
M  V30 8473 C 804.514 -6.79197 1.86737 0
M  V30 8474 H 800.613 -0.742868 -0.244277 0
M  V30 8475 H 803.197 -1.947 0.0025481 0
M  V30 8476 H 801.368 -3.21938 -2.1728 0
M  V30 8477 H 803.1 -3.45715 -2.10389 0
M  V30 8478 H 799.855 -4.70754 -0.518457 0
M  V30 8479 H 800.279 -6.65658 1.23406 0
M  V30 8480 H 804.921 -4.21458 -0.336578 0
M  V30 8481 H 802.639 -7.70971 2.42134 0
M  V30 8482 H 806.225 -5.70397 1.14621 0
M  V30 8483 H 805.105 -7.4307 2.50631 0
M  V30 8484 N 802.608 0.318715 -1.54344 0
M  V30 8485 C 803.833 1.07987 -1.77069 0
M  V30 8486 C 804.258 1.80766 -0.520117 0
M  V30 8487 O 803.616 1.73424 0.528566 0
M  V30 8488 C 803.664 2.04987 -2.96669 0
M  V30 8489 O 802.768 3.12974 -2.68554 0
M  V30 8490 H 802.109 0.311109 -0.586606 0
M  V30 8491 H 804.639 0.361533 -2.0138 0
M  V30 8492 H 804.649 2.47771 -3.2415 0
M  V30 8493 H 803.324 1.51417 -3.87357 0
M  V30 8494 H 801.901 2.74831 -2.52037 0
M  V30 8495 N 804.086 1.46499 0.581025 0
M  V30 8496 C 805.497 1.4604 1.16315 0
M  V30 8497 C 805.848 0.202154 1.95156 0
M  V30 8498 O 804.973 -0.694638 2.04948 0
M  V30 8499 C 805.568 2.64593 2.11604 0
M  V30 8500 C 804.127 2.6717 2.65136 0
M  V30 8501 C 803.274 2.38753 1.4104 0
M  V30 8502 H 806.225 1.54354 0.368871 0
M  V30 8503 H 806.246 2.40207 2.95095 0
M  V30 8504 H 805.758 3.56154 1.54194 0
M  V30 8505 H 803.859 1.79685 3.26411 0
M  V30 8506 H 803.972 3.67182 3.07757 0
M  V30 8507 H 802.336 1.88845 1.70908 0
M  V30 8508 H 803.119 3.32493 0.854588 0
M  V30 8509 N 805.565 -0.825799 1.34232 0
M  V30 8510 C 806.981 -1.11848 1.13851 0
M  V30 8511 C 807.181 -2.01405 -0.0619031 0
M  V30 8512 O 806.237 -2.41465 -0.738287 0
M  V30 8513 C 807.55 -1.76797 2.43235 0
M  V30 8514 C 809.098 -1.89304 2.49265 0
M  V30 8515 C 809.573 -2.57669 3.78643 0
M  V30 8516 N 811.064 -2.65171 3.79788 0
M  V30 8517 C 811.799 -3.1879 4.76614 0
M  V30 8518 N 811.295 -3.72995 5.83821 0
M  V30 8519 N 813.088 -3.17164 4.64073 0
M  V30 8520 H 805.239 -0.230049 2.11151 0
M  V30 8521 H 807.502 -0.164609 0.9336 0
M  V30 8522 H 807.208 -1.18455 3.31152 0
M  V30 8523 H 807.082 -2.76693 2.56361 0
M  V30 8524 H 809.469 -2.46796 1.6179 0
M  V30 8525 H 809.55 -0.883191 2.4007 0
M  V30 8526 H 809.194 -2.00833 4.66507 0
M  V30 8527 H 809.124 -3.59152 3.8512 0
M  V30 8528 H 811.615 -2.26746 3.02315 0
M  V30 8529 H 811.928 -4.12151 6.53721 0
M  V30 8530 H 810.273 -3.71246 5.87538 0
M  V30 8531 H 813.464 -2.74082 3.79469 0
M  V30 8532 H 813.637 -3.58647 5.397 0
M  V30 8533 N 807.043 -1.17915 -1.04565 0
M  V30 8534 C 807.993 -0.869634 -2.10764 0
M  V30 8535 C 808.977 0.158502 -1.60117 0
M  V30 8536 O 810.169 -0.04483 -1.76943 0
M  V30 8537 C 807.298 -0.391642 -3.41059 0
M  V30 8538 C 806.384 -1.45156 -3.98485 0
M  V30 8539 N 806.775 -2.6667 -4.29792 0
M  V30 8540 C 805.073 -1.3109 -4.263 0
M  V30 8541 C 805.774 -3.34823 -4.75677 0
M  V30 8542 N 804.75 -2.62203 -4.76183 0
M  V30 8543 H 808.552 -1.79342 -2.32838 0
M  V30 8544 H 806.066 -1.0688 -1.22272 0
M  V30 8545 H 808.063 -0.151428 -4.16625 0
M  V30 8546 H 806.723 0.525862 -3.20413 0
M  V30 8547 H 807.734 -3.0358 -4.19594 0
M  V30 8548 H 804.411 -0.455545 -4.15007 0
M  V30 8549 H 805.801 -4.38645 -5.0896 0
M  V30 8550 N 808.521 1.23394 -0.980386 0
M  V30 8551 C 809.937 1.43961 -0.689008 0
M  V30 8552 C 810.137 1.87229 0.744809 0
M  V30 8553 O 809.193 2.01831 1.51725 0
M  V30 8554 C 810.506 2.49128 -1.68392 0
M  V30 8555 C 812.054 2.62941 -1.69796 0
M  V30 8556 C 812.529 3.71317 -2.68118 0
M  V30 8557 N 814.02 3.7876 -2.66636 0
M  V30 8558 C 814.755 4.62176 -3.39383 0
M  V30 8559 N 814.251 5.49682 -4.21688 0
M  V30 8560 N 816.044 4.56372 -3.28147 0
M  V30 8561 H 808.195 0.936106 -1.90659 0
M  V30 8562 H 810.458 0.473023 -0.821555 0
M  V30 8563 H 810.164 2.24252 -2.70931 0
M  V30 8564 H 810.038 3.47514 -1.46675 0
M  V30 8565 H 812.425 2.87168 -0.679617 0
M  V30 8566 H 812.506 1.64871 -1.95579 0
M  V30 8567 H 812.15 3.4784 -3.70095 0
M  V30 8568 H 812.08 4.68929 -2.3961 0
M  V30 8569 H 814.571 3.16226 -2.06904 0
M  V30 8570 H 814.884 6.10323 -4.74053 0
M  V30 8571 H 813.229 5.49306 -4.25779 0
M  V30 8572 H 816.42 3.87029 -2.63299 0
M  V30 8573 H 816.593 5.21153 -3.85102 0
M  V30 8574 N 809.999 0.752036 1.385 0
M  V30 8575 C 811.245 0.307958 2.00448 0
M  V30 8576 C 811.578 -1.10702 1.59558 0
M  V30 8577 O 810.853 -1.75788 0.832391 0
M  V30 8578 C 811.136 0.429092 3.57534 0
M  V30 8579 C 810.989 1.88507 4.08393 0
M  V30 8580 C 812.308 -0.178442 4.39738 0
M  V30 8581 H 809.427 0.113373 0.728228 0
M  V30 8582 H 812.069 0.951389 1.64465 0
M  V30 8583 H 810.219 -0.118695 3.88319 0
M  V30 8584 H 811.891 2.49104 3.88259 0
M  V30 8585 H 810.134 2.40066 3.61318 0
M  V30 8586 H 810.805 1.92099 5.17496 0
M  V30 8587 H 813.281 0.28872 4.15097 0
M  V30 8588 H 812.157 -0.0634349 5.48863 0
M  V30 8589 H 812.418 -1.26655 4.23569 0
M  V30 8590 N 811.477 -1.49425 0.500989 0
M  V30 8591 C 812.723 -2.02753 -0.0436 0
M  V30 8592 C 813.056 -1.37991 -1.36646 0
M  V30 8593 O 812.331 -0.515597 -1.87542 0
M  V30 8594 C 812.614 -3.59565 -0.19616 0
M  V30 8595 C 812.467 -4.34855 1.14982 0
M  V30 8596 C 813.786 -4.30014 -0.936795 0
M  V30 8597 H 810.905 -0.73686 -0.0143711 0
M  V30 8598 H 813.547 -1.78448 0.652397 0
M  V30 8599 H 811.697 -3.80405 -0.788959 0
M  V30 8600 H 813.369 -4.25512 1.7815 0
M  V30 8601 H 811.612 -3.97414 1.73911 0
M  V30 8602 H 812.283 -5.42933 0.996385 0
M  V30 8603 H 814.759 -4.1383 -0.434036 0
M  V30 8604 H 813.635 -5.39483 -1.01238 0
M  V30 8605 H 813.896 -3.95257 -1.9805 0
M  V30 8606 N 812.955 -0.234822 -1.55841 0
M  V30 8607 C 813.887 0.702346 -2.18174 0
M  V30 8608 C 814.9 1.14776 -1.15457 0
M  V30 8609 O 816.089 1.07662 -1.42377 0
M  V30 8610 C 813.189 1.96483 -2.76129 0
M  V30 8611 C 812.362 1.67283 -4.04148 0
M  V30 8612 C 811.421 2.7837 -4.46539 0
M  V30 8613 O 810.447 2.46272 -5.13166 0
M  V30 8614 N 811.649 4.07611 -4.1332 0
M  V30 8615 H 814.414 0.169074 -2.99223 0
M  V30 8616 H 811.975 -0.0543164 -1.61809 0
M  V30 8617 H 813.967 2.70016 -3.01452 0
M  V30 8618 H 812.537 2.40822 -1.99307 0
M  V30 8619 H 811.757 0.773278 -3.86541 0
M  V30 8620 H 813.045 1.45222 -4.87635 0
M  V30 8621 H 812.443 4.36527 -3.59806 0
M  V30 8622 H 811 4.77646 -4.43506 0
M  V30 8623 N 814.433 1.57553 0.0384317 0
M  V30 8624 C 815.844 1.77258 0.586211 0
M  V30 8625 C 816.195 0.864706 1.76117 0
M  V30 8626 O 815.32 0.057141 2.16325 0
M  V30 8627 C 815.915 3.21453 1.07021 0
M  V30 8628 C 814.474 3.42387 1.56358 0
M  V30 8629 C 813.621 2.72801 0.497508 0
M  V30 8630 H 816.572 1.57585 -0.187796 0
M  V30 8631 H 816.593 3.27451 1.93794 0
M  V30 8632 H 816.105 3.87505 0.214851 0
M  V30 8633 H 814.206 2.81497 2.44111 0
M  V30 8634 H 814.319 4.50968 1.61754 0
M  V30 8635 H 812.683 2.36305 0.95038 0
M  V30 8636 H 813.466 3.41529 -0.348234 0
M  V30 8637 N 815.911 -0.310526 1.54511 0
M  V30 8638 C 817.139 -1.06611 1.77318 0
M  V30 8639 C 817.554 -1.81265 0.528043 0
M  V30 8640 O 816.911 -1.75466 -0.50178 0
M  V30 8641 C 816.962 -2.05409 2.97472 0
M  V30 8642 O 816.683 -1.33785 4.17173 0
M  V30 8643 C 818.184 -2.93082 3.32593 0
M  V30 8644 H 815.404 -0.316578 0.591624 0
M  V30 8645 H 817.948 -0.352691 2.01436 0
M  V30 8646 H 816.103 -2.72266 2.7559 0
M  V30 8647 H 816.517 -2.00055 4.84849 0
M  V30 8648 H 817.991 -3.58274 4.19933 0
M  V30 8649 H 818.468 -3.60877 2.50329 0
M  V30 8650 H 819.074 -2.31768 3.566 0
M  V30 8651 N 817.389 -1.46805 -0.573248 0
M  V30 8652 C 818.319 -1.60951 -1.69165 0
M  V30 8653 C 819.3 -0.45948 -1.63777 0
M  V30 8654 O 820.485 -0.68688 -1.81647 0
M  V30 8655 C 817.615 -1.60844 -3.07809 0
M  V30 8656 C 816.569 -2.74913 -3.28035 0
M  V30 8657 C 815.895 -2.59871 -4.67302 0
M  V30 8658 C 817.195 -4.16654 -3.14955 0
M  V30 8659 H 818.889 -2.54574 -1.57582 0
M  V30 8660 H 816.435 -1.22516 -0.756686 0
M  V30 8661 H 818.388 -1.69334 -3.85881 0
M  V30 8662 H 817.112 -0.637714 -3.20314 0
M  V30 8663 H 815.771 -2.65908 -2.52366 0
M  V30 8664 H 815.419 -1.60861 -4.76585 0
M  V30 8665 H 815.119 -3.36386 -4.81786 0
M  V30 8666 H 816.643 -2.70265 -5.4753 0
M  V30 8667 H 818.057 -4.26721 -3.82861 0
M  V30 8668 H 816.454 -4.93831 -3.40956 0
M  V30 8669 H 817.524 -4.36146 -2.11908 0
M  V30 8670 N 818.867 0.818669 -1.34668 0
M  V30 8671 C 819.777 1.9616 -1.2868 0
M  V30 8672 C 820.793 1.72918 -0.193742 0
M  V30 8673 O 821.969 1.96951 -0.420975 0
M  V30 8674 C 819.034 3.30534 -1.04633 0
M  V30 8675 C 818.095 3.66755 -2.23136 0
M  V30 8676 C 817.328 4.94717 -2.00227 0
M  V30 8677 O 817.551 5.62218 -0.96264 0
M  V30 8678 O 816.485 5.28915 -2.87286 0
M  V30 8679 H 820.311 2.04157 -2.24842 0
M  V30 8680 H 817.896 0.954691 -1.14917 0
M  V30 8681 H 819.778 4.11005 -0.930216 0
M  V30 8682 H 818.453 3.23495 -0.115139 0
M  V30 8683 H 817.36 2.8671 -2.40308 0
M  V30 8684 H 818.693 3.78484 -3.1466 0
M  V30 8685 N 820.346 1.18468 1.03938 0
M  V30 8686 C 821.278 0.870615 2.12021 0
M  V30 8687 C 822.291 -0.132318 1.62261 0
M  V30 8688 O 823.48 0.0956901 1.78243 0
M  V30 8689 C 820.58 0.279727 3.37744 0
M  V30 8690 C 819.753 1.32863 4.16733 0
M  V30 8691 C 818.812 0.753204 5.20781 0
M  V30 8692 O 817.838 1.42825 5.5099 0
M  V30 8693 N 819.04 -0.448664 5.78764 0
M  V30 8694 H 821.805 1.80091 2.39556 0
M  V30 8695 H 819.366 1.08524 1.20142 0
M  V30 8696 H 821.358 -0.118829 4.04526 0
M  V30 8697 H 819.928 -0.554621 3.07641 0
M  V30 8698 H 819.148 1.90245 3.45254 0
M  V30 8699 H 820.436 2.03574 4.66299 0
M  V30 8700 H 819.834 -1.01481 5.56523 0
M  V30 8701 H 818.391 -0.789125 6.47005 0
M  V30 8702 N 821.824 -1.22873 0.986916 0
M  V30 8703 C 823.052 -1.95487 0.677663 0
M  V30 8704 C 823.467 -1.72978 -0.756572 0
M  V30 8705 O 822.824 -1.02517 -1.50985 0
M  V30 8706 C 822.875 -3.48337 0.966638 0
M  V30 8707 O 822.596 -3.70087 2.34451 0
M  V30 8708 C 824.097 -4.38142 0.674248 0
M  V30 8709 H 821.317 -0.622211 0.251185 0
M  V30 8710 H 823.861 -1.56187 1.32007 0
M  V30 8711 H 822.016 -3.85628 0.370137 0
M  V30 8712 H 822.43 -4.64332 2.43918 0
M  V30 8713 H 823.904 -5.44165 0.926759 0
M  V30 8714 H 824.381 -4.3745 -0.391728 0
M  V30 8715 H 824.987 -4.06469 1.25152 0
M  V30 8716 N 823.302 -0.75937 -1.38099 0
M  V30 8717 C 824.234 -0.0956547 -2.29 0
M  V30 8718 C 825.247 0.677561 -1.4803 0
M  V30 8719 O 826.436 0.517696 -1.70828 0
M  V30 8720 C 823.536 0.88844 -3.27047 0
M  V30 8721 C 822.709 0.171652 -4.37063 0
M  V30 8722 C 821.768 1.06733 -5.15262 0
M  V30 8723 O 820.794 0.535698 -5.66674 0
M  V30 8724 N 821.996 2.39486 -5.28797 0
M  V30 8725 H 824.761 -0.876354 -2.86601 0
M  V30 8726 H 822.322 -0.61065 -1.49942 0
M  V30 8727 H 824.314 1.49079 -3.76241 0
M  V30 8728 H 822.884 1.57018 -2.70304 0
M  V30 8729 H 822.104 -0.611473 -3.89429 0
M  V30 8730 H 823.392 -0.324121 -5.07767 0
M  V30 8731 H 822.79 2.85127 -4.88589 0
M  V30 8732 H 821.347 2.94758 -5.81344 0
M  V30 8733 N 824.78 1.49157 -0.508906 0
M  V30 8734 C 826.01 2.06579 0.0293308 0
M  V30 8735 C 826.418 1.36852 1.30645 0
M  V30 8736 O 825.761 0.443079 1.78276 0
M  V30 8737 C 825.823 3.57838 0.345296 0
M  V30 8738 C 825.487 4.49302 -0.835256 0
M  V30 8739 C 826.484 4.90345 -1.72793 0
M  V30 8740 C 824.169 4.91494 -1.0363 0
M  V30 8741 C 826.163 5.72327 -2.80573 0
M  V30 8742 C 823.85 5.7325 -2.11726 0
M  V30 8743 C 824.848 6.13572 -3.00032 0
M  V30 8744 O 824.536 6.93691 -4.06261 0
M  V30 8745 H 824.268 0.675679 -0.0208193 0
M  V30 8746 H 826.822 1.9282 -0.707789 0
M  V30 8747 H 825.052 3.69634 1.13612 0
M  V30 8748 H 826.741 3.97467 0.823089 0
M  V30 8749 H 827.507 4.58388 -1.58446 0
M  V30 8750 H 823.386 4.59605 -0.358308 0
M  V30 8751 H 826.93 6.03719 -3.49527 0
M  V30 8752 H 822.827 6.0462 -2.26065 0
M  V30 8753 H 823.595 7.12011 -4.03711 0
M  V30 8754 N 826.258 0.243083 1.55714 0
M  V30 8755 C 827.483 -0.389944 2.03701 0
M  V30 8756 C 827.908 -1.51025 1.12129 0
M  V30 8757 O 827.266 -1.80944 0.11352 0
M  V30 8758 C 827.314 -0.878649 3.49731 0
M  V30 8759 O 826.418 -1.98851 3.61292 0
M  V30 8760 H 825.759 -0.0855115 0.658471 0
M  V30 8761 H 828.289 0.368023 2.01263 0
M  V30 8762 H 828.299 -1.18287 3.90477 0
M  V30 8763 H 826.974 -0.0588107 4.15858 0
M  V30 8764 H 825.551 -1.68928 3.32442 0
M  V30 8765 N 827.736 -1.57571 -0.0300757 0
M  V30 8766 C 828.982 -1.90355 -0.716687 0
M  V30 8767 C 829.337 -0.841568 -1.73018 0
M  V30 8768 O 828.63 0.149847 -1.91013 0
M  V30 8769 C 828.824 -3.27624 -1.42818 0
M  V30 8770 C 828.653 -4.47076 -0.485111 0
M  V30 8771 C 827.423 -5.05188 -0.106533 0
M  V30 8772 C 829.621 -5.13758 0.236059 0
M  V30 8773 N 827.603 -6.08155 0.837899 0
M  V30 8774 C 828.974 -6.1128 1.03619 0
M  V30 8775 C 831.029 -4.96977 0.30311 0
M  V30 8776 C 829.732 -6.93829 1.89721 0
M  V30 8777 C 831.758 -5.80086 1.15125 0
M  V30 8778 C 831.12 -6.77178 1.9393 0
M  V30 8779 H 827.219 -0.745417 -0.236384 0
M  V30 8780 H 829.803 -1.94686 0.0231985 0
M  V30 8781 H 827.974 -3.24224 -2.13854 0
M  V30 8782 H 829.706 -3.47927 -2.0671 0
M  V30 8783 H 826.461 -4.71277 -0.468498 0
M  V30 8784 H 826.885 -6.64311 1.30459 0
M  V30 8785 H 831.527 -4.21791 -0.291858 0
M  V30 8786 H 829.245 -7.6836 2.50298 0
M  V30 8787 H 832.831 -5.6915 1.20665 0
M  V30 8788 H 831.711 -7.4037 2.58499 0
M  V30 8789 N 829.214 0.302327 -1.54673 0
M  V30 8790 C 830.124 1.39542 -1.88587 0
M  V30 8791 C 831.14 1.55543 -0.779895 0
M  V30 8792 O 832.316 1.70233 -1.07623 0
M  V30 8793 C 829.381 2.7394 -2.12504 0
M  V30 8794 C 828.442 2.66935 -3.3622 0
M  V30 8795 C 827.675 3.94923 -3.58987 0
M  V30 8796 O 827.898 4.94218 -2.84789 0
M  V30 8797 O 826.832 3.96896 -4.52501 0
M  V30 8798 H 830.658 1.13784 -2.81579 0
M  V30 8799 H 828.243 0.49827 -1.40846 0
M  V30 8800 H 830.125 3.5346 -2.29443 0
M  V30 8801 H 828.8 2.99544 -1.22698 0
M  V30 8802 H 827.707 1.85892 -3.24646 0
M  V30 8803 H 829.04 2.46283 -4.26152 0
M  V30 8804 N 830.692 1.47107 0.565454 0
M  V30 8805 C 832.108 1.32443 0.890566 0
M  V30 8806 C 832.308 0.308735 1.99121 0
M  V30 8807 O 831.364 -0.28265 2.50913 0
M  V30 8808 C 832.677 2.71548 1.2916 0
M  V30 8809 C 834.225 2.7977 1.40349 0
M  V30 8810 C 834.7 4.19497 1.83811 0
M  V30 8811 N 836.191 4.21998 1.90975 0
M  V30 8812 C 836.926 5.2702 2.25916 0
M  V30 8813 N 836.422 6.42353 2.59527 0
M  V30 8814 N 838.215 5.14393 2.26619 0
M  V30 8815 H 830.366 2.11786 -0.161328 0
M  V30 8816 H 832.629 0.947952 -0.00950631 0
M  V30 8817 H 832.335 3.47265 0.556753 0
M  V30 8818 H 832.209 3.02782 2.24951 0
M  V30 8819 H 834.596 2.0433 2.12916 0
M  V30 8820 H 834.677 2.522 0.427655 0
M  V30 8821 H 834.321 4.95439 1.11816 0
M  V30 8822 H 834.251 4.44486 2.82382 0
M  V30 8823 H 836.742 3.38791 1.6742 0
M  V30 8824 H 837.055 7.18252 2.85191 0
M  V30 8825 H 835.4 6.45687 2.57126 0
M  V30 8826 H 838.591 4.2332 1.99794 0
M  V30 8827 H 838.764 5.96349 2.5352 0
M  V30 8828 N 832.17 -0.811516 1.35101 0
M  V30 8829 C 833.102 -1.93102 1.23468 0
M  V30 8830 C 834.115 -1.62021 0.159095 0
M  V30 8831 O 835.304 -1.73682 0.411945 0
M  V30 8832 C 832.404 -3.27345 0.877404 0
M  V30 8833 C 831.577 -3.86368 2.05033 0
M  V30 8834 C 830.636 -4.99009 1.66963 0
M  V30 8835 O 829.662 -5.16698 2.38772 0
M  V30 8836 N 830.864 -5.7749 0.590394 0
M  V30 8837 H 833.629 -2.0361 2.19916 0
M  V30 8838 H 831.19 -0.988687 1.28205 0
M  V30 8839 H 833.182 -4.00163 0.604298 0
M  V30 8840 H 831.752 -3.126 0.00275267 0
M  V30 8841 H 830.972 -3.05804 2.48752 0
M  V30 8842 H 832.26 -4.22533 2.83449 0
M  V30 8843 H 831.658 -5.657 -0.00633259 0
M  V30 8844 H 830.215 -6.50708 0.377055 0
M  V30 8845 N 833.648 -1.19017 -1.03309 0
M  V30 8846 C 834.611 -0.926076 -2.09658 0
M  V30 8847 C 835.611 0.0917077 -1.60538 0
M  V30 8848 O 836.801 -0.142574 -1.73616 0
M  V30 8849 C 833.933 -0.390958 -3.38651 0
M  V30 8850 H 835.126 -1.86923 -2.3452 0
M  V30 8851 H 832.679 -1.00325 -1.19853 0
M  V30 8852 H 833.414 0.558446 -3.19456 0
M  V30 8853 H 833.199 -1.12474 -3.75622 0
M  V30 8854 H 834.689 -0.225131 -4.16993 0
M  V30 8855 N 835.127 1.22348 -0.993418 0
M  V30 8856 C 836.09 2.22522 -0.549251 0
M  V30 8857 C 837.09 1.56529 0.368164 0
M  V30 8858 O 838.28 1.73463 0.16005 0
M  V30 8859 C 835.412 3.40307 0.201037 0
M  V30 8860 H 836.605 2.63332 -1.43515 0
M  V30 8861 H 834.158 1.35407 -0.78068 0
M  V30 8862 H 834.893 3.0497 1.10289 0
M  V30 8863 H 834.678 3.8942 -0.457685 0
M  V30 8864 H 836.168 4.14597 0.499946 0
M  V30 8865 N 836.605 0.766683 1.37694 0
M  V30 8866 C 837.852 0.328714 1.99814 0
M  V30 8867 C 838.18 -1.09333 1.60862 0
M  V30 8868 O 837.435 -1.7657 0.8439 0
M  V30 8869 C 837.734 0.413831 3.54996 0
M  V30 8870 C 837.4 1.7934 4.137 0
M  V30 8871 C 836.062 2.17092 4.29447 0
M  V30 8872 C 838.414 2.69776 4.45949 0
M  V30 8873 C 835.742 3.44726 4.74743 0
M  V30 8874 C 838.094 3.96814 4.92667 0
M  V30 8875 C 836.758 4.34618 5.0662 0
M  V30 8876 H 836.028 0.120285 0.731172 0
M  V30 8877 H 838.675 0.97972 1.64541 0
M  V30 8878 H 836.98 -0.320723 3.90485 0
M  V30 8879 H 838.677 0.0563369 4.0096 0
M  V30 8880 H 835.267 1.48997 4.01868 0
M  V30 8881 H 839.451 2.41871 4.33373 0
M  V30 8882 H 834.707 3.73917 4.83731 0
M  V30 8883 H 838.881 4.67022 5.16588 0
M  V30 8884 H 836.508 5.33578 5.41478 0
M  V30 8885 N 838.083 -1.48885 0.516809 0
M  V30 8886 C 839.499 -1.58651 0.173788 0
M  V30 8887 C 839.699 -1.52033 -1.32243 0
M  V30 8888 O 838.755 -1.40251 -2.09967 0
M  V30 8889 C 840.068 -2.90816 0.764628 0
M  V30 8890 C 841.616 -3.04316 0.732164 0
M  V30 8891 C 842.091 -4.39123 1.30135 0
M  V30 8892 N 843.582 -4.45656 1.26273 0
M  V30 8893 C 844.317 -5.48446 1.67317 0
M  V30 8894 N 843.813 -6.58258 2.16028 0
M  V30 8895 N 845.606 -5.39251 1.58635 0
M  V30 8896 H 837.757 -1.5143 1.48939 0
M  V30 8897 H 840.02 -0.718243 0.618733 0
M  V30 8898 H 839.726 -3.01275 1.81456 0
M  V30 8899 H 839.6 -3.76473 0.234113 0
M  V30 8900 H 841.987 -2.93478 -0.308975 0
M  V30 8901 H 842.068 -2.20303 1.3 0
M  V30 8902 H 841.712 -4.50714 2.34135 0
M  V30 8903 H 841.642 -5.21801 0.709305 0
M  V30 8904 H 844.133 -3.66879 0.906006 0
M  V30 8905 H 844.446 -7.32811 2.45374 0
M  V30 8906 H 842.791 -6.59257 2.20013 0
M  V30 8907 H 845.982 -4.52354 1.20387 0
M  V30 8908 H 846.155 -6.19229 1.90944 0
M  V30 8909 N 839.561 -0.251338 -1.55583 0
M  V30 8910 C 840.808 0.372169 -1.99051 0
M  V30 8911 C 841.136 1.57623 -1.13953 0
M  V30 8912 O 840.391 1.94762 -0.191398 0
M  V30 8913 C 840.69 0.821186 -3.47838 0
M  V30 8914 C 840.356 -0.275608 -4.50057 0
M  V30 8915 C 839.018 -0.57683 -4.7773 0
M  V30 8916 C 841.37 -1.01585 -5.11204 0
M  V30 8917 C 838.698 -1.62229 -5.63825 0
M  V30 8918 C 841.05 -2.05087 -5.98433 0
M  V30 8919 C 839.714 -2.35869 -6.24437 0
M  V30 8920 H 838.984 0.136186 -0.728378 0
M  V30 8921 H 841.631 -0.360089 -1.88084 0
M  V30 8922 H 839.936 1.63272 -3.56159 0
M  V30 8923 H 841.633 1.31396 -3.78861 0
M  V30 8924 H 838.223 -0.030697 -4.28589 0
M  V30 8925 H 842.407 -0.79639 -4.89869 0
M  V30 8926 H 837.663 -1.86607 -5.82226 0
M  V30 8927 H 841.837 -2.62934 -6.44855 0
M  V30 8928 H 839.464 -3.17017 -6.90944 0
M  V30 8929 N 841.039 1.57585 0.0217189 0
M  V30 8930 C 841.986 2.07036 1.02004 0
M  V30 8931 C 842.956 0.96106 1.35473 0
M  V30 8932 O 844.141 1.23211 1.45684 0
M  V30 8933 C 841.281 2.56056 2.31364 0
M  V30 8934 C 840.394 3.80805 2.03989 0
M  V30 8935 C 839.529 4.18409 3.27272 0
M  V30 8936 C 838.568 5.36055 2.95486 0
M  V30 8937 N 837.705 5.69056 4.11242 0
M  V30 8938 H 842.545 2.92073 0.591396 0
M  V30 8939 H 840.082 1.44403 0.280384 0
M  V30 8940 H 842.04 2.82548 3.06957 0
M  V30 8941 H 840.67 1.73925 2.71937 0
M  V30 8942 H 839.722 3.61354 1.1886 0
M  V30 8943 H 841.034 4.66512 1.76546 0
M  V30 8944 H 840.188 4.46068 4.11228 0
M  V30 8945 H 838.927 3.31369 3.57835 0
M  V30 8946 H 837.932 5.08142 2.09933 0
M  V30 8947 H 839.157 6.24755 2.66193 0
M  V30 8948 H 837.103 4.84974 4.41742 0
M  V30 8949 H 837.02 6.49288 3.87247 0
M  V30 8950 H 838.288 6.01295 4.96049 0
M  V30 8951 N 842.517 -0.29412 1.54831 0
M  V30 8952 C 843.933 -0.640167 1.46199 0
M  V30 8953 C 844.133 -1.90426 0.658798 0
M  V30 8954 O 843.189 -2.51932 0.169228 0
M  V30 8955 C 844.502 -0.786763 2.90225 0
M  V30 8956 C 846.05 -0.882201 3.0031 0
M  V30 8957 C 846.525 -1.06074 4.45547 0
M  V30 8958 N 848.016 -1.12678 4.49286 0
M  V30 8959 C 848.751 -1.28334 5.58854 0
M  V30 8960 N 848.247 -1.40845 6.78332 0
M  V30 8961 N 850.04 -1.31277 5.46555 0
M  V30 8962 H 842.191 0.536334 2.05517 0
M  V30 8963 H 844.454 0.178363 0.93107 0
M  V30 8964 H 844.16 0.0713018 3.51628 0
M  V30 8965 H 844.034 -1.67364 3.38037 0
M  V30 8966 H 846.421 -1.73075 2.39017 0
M  V30 8967 H 846.502 0.0288405 2.55784 0
M  V30 8968 H 846.146 -0.216935 5.07437 0
M  V30 8969 H 846.076 -1.98611 4.8771 0
M  V30 8970 H 848.567 -1.04335 3.63212 0
M  V30 8971 H 848.88 -1.52566 7.57591 0
M  V30 8972 H 847.225 -1.37888 6.81184 0
M  V30 8973 H 850.416 -1.2112 4.52159 0
M  V30 8974 H 850.589 -1.43136 6.31994 0
M  V30 8975 N 843.995 -1.47404 -0.557645 0
M  V30 8976 C 844.942 -1.59859 -1.66475 0
M  V30 8977 C 845.912 -0.441644 -1.60121 0
M  V30 8978 O 847.097 -0.661641 -1.78961 0
M  V30 8979 C 844.237 -1.61843 -3.04797 0
M  V30 8980 C 843.35 -2.8845 -3.2159 0
M  V30 8981 C 842.485 -2.81773 -4.50308 0
M  V30 8982 C 841.524 -4.03208 -4.60532 0
M  V30 8983 N 840.661 -3.94769 -5.80604 0
M  V30 8984 H 845.501 -2.54415 -1.55168 0
M  V30 8985 H 843.038 -1.26194 -0.755876 0
M  V30 8986 H 844.996 -1.60976 -3.84893 0
M  V30 8987 H 843.626 -0.707997 -3.1494 0
M  V30 8988 H 842.678 -2.99186 -2.34929 0
M  V30 8989 H 843.99 -3.78379 -3.25009 0
M  V30 8990 H 843.144 -2.79153 -5.38663 0
M  V30 8991 H 841.883 -1.89527 -4.49367 0
M  V30 8992 H 840.888 -4.06133 -3.70589 0
M  V30 8993 H 842.113 -4.9658 -4.63233 0
M  V30 8994 H 840.059 -3.05326 -5.80613 0
M  V30 8995 H 839.976 -4.78375 -5.854 0
M  V30 8996 H 841.244 -3.96165 -6.71322 0
M  V30 8997 N 845.473 0.80434 -1.35529 0
M  V30 8998 C 846.403 1.93086 -1.31301 0
M  V30 8999 C 847.384 1.69068 -0.187044 0
M  V30 9000 O 848.569 1.90399 -0.382359 0
M  V30 9001 C 845.699 3.29867 -1.0865 0
M  V30 9002 C 844.653 3.68373 -2.17911 0
M  V30 9003 C 843.979 5.0334 -1.80423 0
M  V30 9004 C 845.279 3.78516 -3.59893 0
M  V30 9005 H 846.973 1.96882 -2.25561 0
M  V30 9006 H 844.519 0.945841 -1.08581 0
M  V30 9007 H 846.472 4.08281 -1.04331 0
M  V30 9008 H 845.196 3.2642 -0.108359 0
M  V30 9009 H 843.855 2.92247 -2.21331 0
M  V30 9010 H 843.503 4.96399 -0.812213 0
M  V30 9011 H 843.203 5.30074 -2.53565 0
M  V30 9012 H 844.727 5.84191 -1.77633 0
M  V30 9013 H 846.141 4.47155 -3.58783 0
M  V30 9014 H 844.538 4.16721 -4.31814 0
M  V30 9015 H 845.608 2.8001 -3.95882 0
M  V30 9016 N 846.951 1.19563 1.02676 0
M  V30 9017 C 848.362 1.00158 1.57561 0
M  V30 9018 C 848.713 -0.444922 1.91089 0
M  V30 9019 O 847.838 -1.32466 1.71119 0
M  V30 9020 C 848.433 1.81181 2.86284 0
M  V30 9021 C 846.992 1.66171 3.37734 0
M  V30 9022 C 846.139 1.7975 2.11152 0
M  V30 9023 H 849.09 1.33904 0.85179 0
M  V30 9024 H 849.111 1.30916 3.57269 0
M  V30 9025 H 848.623 2.86454 2.6185 0
M  V30 9026 H 846.724 0.634927 3.6715 0
M  V30 9027 H 846.837 2.46832 4.10622 0
M  V30 9028 H 845.201 1.22833 2.23123 0
M  V30 9029 H 845.984 2.86487 1.89157 0
M  V30 9030 N 848.429 -1.21819 0.999893 0
M  V30 9031 C 849.376 -2.24003 0.556005 0
M  V30 9032 C 850.346 -1.60825 -0.415287 0
M  V30 9033 O 851.531 -1.88123 -0.318481 0
M  V30 9034 C 848.671 -3.44904 -0.116289 0
M  V30 9035 C 847.784 -4.22573 0.897574 0
M  V30 9036 C 846.919 -5.30831 0.198073 0
M  V30 9037 C 845.958 -6.00225 1.19983 0
M  V30 9038 N 845.095 -7.00111 0.528157 0
M  V30 9039 H 849.935 -2.61334 1.43208 0
M  V30 9040 H 847.472 -1.28431 0.717205 0
M  V30 9041 H 849.43 -4.13908 -0.523055 0
M  V30 9042 H 848.06 -3.08315 -0.956108 0
M  V30 9043 H 847.112 -3.52797 1.42262 0
M  V30 9044 H 848.424 -4.70363 1.66013 0
M  V30 9045 H 847.578 -6.06121 -0.265065 0
M  V30 9046 H 846.317 -4.84033 -0.596924 0
M  V30 9047 H 845.322 -5.23711 1.67353 0
M  V30 9048 H 846.547 -6.4911 1.99582 0
M  V30 9049 H 844.493 -6.55534 -0.247276 0
M  V30 9050 H 844.41 -7.45943 1.22904 0
M  V30 9051 H 845.678 -7.7945 0.0880543 0
M  V30 9052 N 849.908 -0.773975 -1.37286 0
M  V30 9053 C 851.138 -0.350249 -2.03609 0
M  V30 9054 C 851.546 1.03313 -1.58502 0
M  V30 9055 O 850.889 1.67118 -0.7627 0
M  V30 9056 C 850.951 -0.317215 -3.58098 0
M  V30 9057 C 850.615 -1.64556 -4.26345 0
M  V30 9058 C 851.612 -2.59839 -4.50311 0
M  V30 9059 C 849.297 -1.92061 -4.64131 0
M  V30 9060 C 851.291 -3.80833 -5.11122 0
M  V30 9061 C 848.978 -3.13325 -5.24663 0
M  V30 9062 C 849.976 -4.0753 -5.48095 0
M  V30 9063 O 849.664 -5.26658 -6.0736 0
M  V30 9064 H 849.396 -0.144456 -0.660385 0
M  V30 9065 H 851.95 -1.0496 -1.76557 0
M  V30 9066 H 850.18 0.438528 -3.84205 0
M  V30 9067 H 851.869 0.0797428 -4.05822 0
M  V30 9068 H 852.635 -2.39872 -4.21529 0
M  V30 9069 H 848.514 -1.19562 -4.45226 0
M  V30 9070 H 852.058 -4.54377 -5.29327 0
M  V30 9071 H 847.955 -3.33177 -5.52869 0
M  V30 9072 H 848.723 -5.27513 -6.25837 0
M  V30 9073 N 851.386 1.48609 -0.524698 0
M  V30 9074 C 852.316 2.32366 0.229837 0
M  V30 9075 C 853.297 1.41759 0.940129 0
M  V30 9076 O 854.482 1.7065 0.926936 0
M  V30 9077 C 851.612 3.22835 1.28043 0
M  V30 9078 C 850.566 4.22424 0.688603 0
M  V30 9079 C 849.892 5.0199 1.84146 0
M  V30 9080 C 851.192 5.21217 -0.336176 0
M  V30 9081 H 852.886 2.95698 -0.469339 0
M  V30 9082 H 850.432 1.42197 -0.227156 0
M  V30 9083 H 852.385 3.80253 1.8162 0
M  V30 9084 H 851.109 2.57492 2.00912 0
M  V30 9085 H 849.768 3.66185 0.174402 0
M  V30 9086 H 849.416 4.33076 2.5584 0
M  V30 9087 H 849.116 5.69392 1.45142 0
M  V30 9088 H 850.64 5.62259 2.38111 0
M  V30 9089 H 852.054 5.7319 0.112307 0
M  V30 9090 H 850.451 5.96642 -0.643324 0
M  V30 9091 H 851.521 4.68676 -1.24381 0
M  V30 9092 N 852.864 0.259585 1.55447 0
M  V30 9093 C 853.794 -0.62852 2.24882 0
M  V30 9094 C 854.775 -1.17128 1.23349 0
M  V30 9095 O 855.96 -1.20829 1.52033 0
M  V30 9096 C 853.09 -1.81983 2.95803 0
M  V30 9097 C 852.044 -1.40929 4.04132 0
M  V30 9098 C 851.37 -2.68246 4.62545 0
M  V30 9099 C 852.67 -0.570956 5.1917 0
M  V30 9100 H 854.364 -0.0495021 2.99359 0
M  V30 9101 H 851.91 -0.0223688 1.43983 0
M  V30 9102 H 853.863 -2.44689 3.43082 0
M  V30 9103 H 852.587 -2.42444 2.18835 0
M  V30 9104 H 851.246 -0.805519 3.57641 0
M  V30 9105 H 850.894 -3.26931 3.82263 0
M  V30 9106 H 850.594 -2.41495 5.35681 0
M  V30 9107 H 852.118 -3.31827 5.12565 0
M  V30 9108 H 853.532 -1.10262 5.62597 0
M  V30 9109 H 851.929 -0.398979 5.98772 0
M  V30 9110 H 852.999 0.413918 4.8313 0
M  V30 9111 N 854.342 -1.57594 -0.0133615 0
M  V30 9112 C 855.589 -1.8998 -0.70098 0
M  V30 9113 C 855.917 -0.858802 -1.74513 0
M  V30 9114 O 855.172 0.138209 -1.95211 0
M  V30 9115 C 855.471 -3.29121 -1.39336 0
M  V30 9116 C 855.137 -4.48298 -0.483687 0
M  V30 9117 C 853.799 -4.80635 -0.233186 0
M  V30 9118 C 856.151 -5.21003 0.143426 0
M  V30 9119 C 853.479 -5.83055 0.652943 0
M  V30 9120 C 855.831 -6.24366 1.01735 0
M  V30 9121 C 854.495 -6.55168 1.27716 0
M  V30 9122 H 853.765 -0.695187 -0.256507 0
M  V30 9123 H 856.412 -1.9146 0.0392965 0
M  V30 9124 H 854.717 -3.23703 -2.20735 0
M  V30 9125 H 856.414 -3.51433 -1.93121 0
M  V30 9126 H 853.004 -4.23024 -0.689092 0
M  V30 9127 H 857.188 -4.96286 -0.0371139 0
M  V30 9128 H 852.444 -6.05288 0.862379 0
M  V30 9129 H 856.618 -6.79839 1.5097 0
M  V30 9130 H 854.245 -7.34351 1.9655 0
M  V30 9131 N 855.82 0.285905 -1.54985 0
M  V30 9132 C 857.048 1.03776 -1.78992 0
M  V30 9133 C 857.463 1.80402 -0.556814 0
M  V30 9134 O 856.82 1.76242 0.473801 0
M  V30 9135 C 856.871 2.0065 -3.00702 0
M  V30 9136 O 856.592 1.27131 -4.19249 0
M  V30 9137 C 858.093 2.87753 -3.37214 0
M  V30 9138 H 855.313 0.307126 -0.596586 0
M  V30 9139 H 857.857 0.3206 -2.01971 0
M  V30 9140 H 856.012 2.67847 -2.79887 0
M  V30 9141 H 856.426 1.92316 -4.8797 0
M  V30 9142 H 857.9 3.51548 -4.2558 0
M  V30 9143 H 858.377 3.56848 -2.56039 0
M  V30 9144 H 858.983 2.26065 -3.60242 0
M  V30 9145 N 857.298 1.47698 0.54982 0
M  V30 9146 C 858.523 1.58579 1.33669 0
M  V30 9147 C 858.948 0.239049 1.86575 0
M  V30 9148 O 858.306 -0.786256 1.63364 0
M  V30 9149 C 858.354 2.62029 2.47736 0
M  V30 9150 O 857.458 2.17813 3.50188 0
M  V30 9151 H 856.799 0.532447 0.396732 0
M  V30 9152 H 859.329 1.93536 0.6637 0
M  V30 9153 H 859.339 2.82682 2.94202 0
M  V30 9154 H 858.014 3.59812 2.08586 0
M  V30 9155 H 856.591 2.07291 3.09976 0
M  V30 9156 N 858.776 -0.797141 1.35954 0
M  V30 9157 C 860.187 -1.37179 1.26644 0
M  V30 9158 C 860.538 -1.9596 -0.0971046 0
M  V30 9159 O 859.663 -1.91994 -0.998355 0
M  V30 9160 C 860.258 -2.49395 2.2932 0
M  V30 9161 C 858.817 -3.02697 2.23722 0
M  V30 9162 C 857.964 -1.75721 2.14517 0
M  V30 9163 H 860.915 -0.599407 1.46945 0
M  V30 9164 H 860.936 -3.28204 1.92515 0
M  V30 9165 H 860.448 -2.06584 3.2855 0
M  V30 9166 H 858.549 -3.49948 1.27934 0
M  V30 9167 H 858.662 -3.60036 3.16087 0
M  V30 9168 H 857.026 -1.97649 1.60646 0
M  V30 9169 H 857.809 -1.35049 3.15621 0
M  V30 9170 N 860.254 -1.20106 -1.0204 0
M  V30 9171 C 861.186 -0.904236 -2.10609 0
M  V30 9172 C 862.199 0.106487 -1.62451 0
M  V30 9173 O 863.388 -0.124035 -1.78069 0
M  V30 9174 C 860.488 -0.333423 -3.37256 0
M  V30 9175 C 859.661 -1.39476 -4.14566 0
M  V30 9176 C 858.72 -0.835961 -5.19517 0
M  V30 9177 O 857.746 -1.51573 -5.48648 0
M  V30 9178 N 858.948 0.356531 -5.79404 0
M  V30 9179 H 861.713 -1.8388 -2.36661 0
M  V30 9180 H 859.274 -1.10422 -1.184 0
M  V30 9181 H 861.266 0.0544571 -4.04663 0
M  V30 9182 H 859.836 0.505608 -3.08484 0
M  V30 9183 H 859.056 -1.95714 -3.42184 0
M  V30 9184 H 860.344 -2.10967 -4.63001 0
M  V30 9185 H 859.742 0.926143 -5.58067 0
M  V30 9186 H 858.299 0.686093 -6.48179 0
M  V30 9187 N 861.732 1.21287 -1.00634 0
M  V30 9188 C 862.642 2.27388 -0.577226 0
M  V30 9189 C 863.658 1.69791 0.380399 0
M  V30 9190 O 864.834 1.99918 0.2439 0
M  V30 9191 C 861.899 3.46588 0.0880532 0
M  V30 9192 C 860.96 4.19453 -0.914222 0
M  V30 9193 C 860.193 5.32962 -0.280596 0
M  V30 9194 O 860.416 5.62895 0.922265 0
M  V30 9195 O 859.35 5.93666 -0.992196 0
M  V30 9196 H 863.176 2.66289 -1.46028 0
M  V30 9197 H 860.761 1.2771 -0.775283 0
M  V30 9198 H 862.643 4.18881 0.460094 0
M  V30 9199 H 861.318 3.09585 0.945461 0
M  V30 9200 H 860.225 3.49376 -1.33744 0
M  V30 9201 H 861.558 4.6037 -1.74126 0
M  V30 9202 N 863.21 0.781244 1.36873 0
M  V30 9203 C 864.158 0.161889 2.32036 0
M  V30 9204 C 865.152 -0.674225 1.55405 0
M  V30 9205 O 866.358 -0.570223 1.70729 0
M  V30 9206 H 862.733 0.0335702 0.75125 0
M  V30 9207 H 864.704 0.980078 2.81846 0
M  V30 9208 C 863.453 -0.695352 3.40676 0
M  V30 9209 H 862.776 -0.0613425 3.99753 0
M  V30 9210 H 864.216 -1.09553 4.09602 0
M  V30 9211 C 862.675 -1.85008 2.81556 0
M  V30 9212 O 863.205 -2.94616 2.73065 0
M  V30 9213 N 861.411 -1.65364 2.38962 0
M  V30 9214 H 860.958 -0.762106 2.46068 0
M  V30 9215 H 860.916 -2.42789 1.99752 0
M  V30 9216 N 864.689 -1.48329 0.532571 0
M  V30 9217 C 866.1 -1.86469 0.0927749 0
M  V30 9218 C 866.451 -1.44186 -1.3306 0
M  V30 9219 O 865.576 -0.833741 -1.99694 0
M  V30 9220 C 866.171 -3.38414 0.161588 0
M  V30 9221 C 864.73 -3.75739 -0.223028 0
M  V30 9222 C 863.877 -2.72377 0.520199 0
M  V30 9223 H 866.828 -1.40197 0.743678 0
M  V30 9224 H 866.849 -3.75314 -0.626059 0
M  V30 9225 H 866.361 -3.69159 1.19765 0
M  V30 9226 H 864.462 -3.50608 -1.26113 0
M  V30 9227 H 864.575 -4.78954 0.118385 0
M  V30 9228 H 862.939 -2.54678 -0.0338425 0
M  V30 9229 H 863.722 -3.05965 1.55694 0
M  V30 9230 N 866.167 -0.267825 -1.55308 0
M  V30 9231 C 867.413 0.34458 -2.0046 0
M  V30 9232 C 867.768 1.54028 -1.15296 0
M  V30 9233 O 867.061 1.90409 -0.213316 0
M  V30 9234 C 867.255 0.784247 -3.48689 0
M  V30 9235 C 867.084 -0.367304 -4.48197 0
M  V30 9236 C 865.854 -0.848746 -4.98121 0
M  V30 9237 C 868.052 -1.20136 -5.00072 0
M  V30 9238 N 866.034 -1.97052 -5.81415 0
M  V30 9239 C 867.405 -2.17115 -5.80742 0
M  V30 9240 C 869.46 -1.23553 -4.82327 0
M  V30 9241 C 868.163 -3.17248 -6.45559 0
M  V30 9242 C 870.189 -2.22527 -5.47938 0
M  V30 9243 C 869.551 -3.1824 -6.28413 0
M  V30 9244 H 865.65 0.091465 -0.776633 0
M  V30 9245 H 868.234 -0.390184 -1.9075 0
M  V30 9246 H 866.405 1.48825 -3.58756 0
M  V30 9247 H 868.137 1.37337 -3.80684 0
M  V30 9248 H 864.892 -0.429291 -4.7165 0
M  V30 9249 H 865.316 -2.53481 -6.27755 0
M  V30 9250 H 869.958 -0.50937 -4.1972 0
M  V30 9251 H 867.676 -3.90801 -7.07319 0
M  V30 9252 H 871.262 -2.25904 -5.36152 0
M  V30 9253 H 870.142 -3.93573 -6.78285 0
M  V30 9254 N 867.645 1.57599 0.00500368 0
M  V30 9255 C 868.893 1.89973 0.68953 0
M  V30 9256 C 869.214 0.868531 1.7459 0
M  V30 9257 O 868.484 -0.0947367 1.95671 0
M  V30 9258 H 867.064 0.701153 0.25767 0
M  V30 9259 H 869.726 1.94869 -0.0347392 0
M  V30 9260 H 868.822 2.89584 1.16394 0
M  V30 9261 N 869.123 -0.277682 1.55134 0
M  V30 9262 C 870.073 -1.34531 1.8408 0
M  V30 9263 C 871.057 -1.44904 0.699393 0
M  V30 9264 O 872.249 -1.48664 0.960623 0
M  V30 9265 C 869.378 -2.7064 2.11208 0
M  V30 9266 C 868.464 -2.64396 3.31596 0
M  V30 9267 N 868.855 -2.2777 4.51613 0
M  V30 9268 C 867.153 -2.95464 3.34091 0
M  V30 9269 C 867.854 -2.31401 5.33693 0
M  V30 9270 N 866.83 -2.69688 4.71984 0
M  V30 9271 H 870.632 -1.05214 2.74421 0
M  V30 9272 H 868.146 -0.486311 1.54948 0
M  V30 9273 H 870.143 -3.47649 2.301 0
M  V30 9274 H 868.803 -3.00849 1.22148 0
M  V30 9275 H 869.814 -1.99827 4.77797 0
M  V30 9276 H 866.491 -3.30415 2.5521 0
M  V30 9277 H 867.881 -2.05685 6.39643 0
M  V30 9278 N 870.601 -1.47988 -0.541979 0
M  V30 9279 C 871.548 -1.61615 -1.6477 0
M  V30 9280 C 872.518 -0.458602 -1.59644 0
M  V30 9281 O 873.703 -0.680585 -1.78249 0
M  V30 9282 C 870.843 -1.65066 -3.03063 0
M  V30 9283 C 869.956 -2.91845 -3.18513 0
M  V30 9284 C 869.091 -2.86534 -4.47294 0
M  V30 9285 C 868.13 -4.0807 -4.5623 0
M  V30 9286 N 867.267 -4.00905 -5.76385 0
M  V30 9287 H 872.107 -2.56046 -1.52461 0
M  V30 9288 H 869.644 -1.26989 -0.742449 0
M  V30 9289 H 871.602 -1.65049 -3.83164 0
M  V30 9290 H 870.232 -0.74136 -3.14171 0
M  V30 9291 H 869.284 -3.01661 -2.31743 0
M  V30 9292 H 870.596 -3.81804 -3.20978 0
M  V30 9293 H 869.75 -2.84851 -5.35672 0
M  V30 9294 H 868.489 -1.94283 -4.47332 0
M  V30 9295 H 867.494 -4.10041 -3.66261 0
M  V30 9296 H 868.719 -5.01465 -4.5794 0
M  V30 9297 H 866.665 -3.11467 -5.77342 0
M  V30 9298 H 866.582 -4.84557 -5.80293 0
M  V30 9299 H 867.85 -4.03263 -6.67083 0
M  V30 9300 N 872.079 0.78992 -1.36375 0
M  V30 9301 C 873.495 1.0879 -1.16777 0
M  V30 9302 C 873.695 2.01498 0.00848236 0
M  V30 9303 O 872.751 2.43338 0.674007 0
M  V30 9304 C 874.064 1.70285 -2.47837 0
M  V30 9305 C 875.612 1.82629 -2.54196 0
M  V30 9306 C 876.087 2.47539 -3.85342 0
M  V30 9307 N 877.578 2.55008 -3.86685 0
M  V30 9308 C 878.313 3.06041 -4.84898 0
M  V30 9309 N 877.809 3.57385 -5.93505 0
M  V30 9310 N 879.602 3.04748 -4.72319 0
M  V30 9311 H 871.753 0.173985 -2.11686 0
M  V30 9312 H 874.016 0.139798 -0.937636 0
M  V30 9313 H 873.722 1.09633 -3.34176 0
M  V30 9314 H 873.596 2.69799 -2.63607 0
M  V30 9315 H 875.983 2.42419 -1.68276 0
M  V30 9316 H 876.064 0.81923 -2.42327 0
M  V30 9317 H 875.708 1.88393 -4.71668 0
M  V30 9318 H 875.638 3.48815 -3.94507 0
M  V30 9319 H 878.129 2.18651 -3.08221 0
M  V30 9320 H 878.442 3.94674 -6.64419 0
M  V30 9321 H 876.787 3.55538 -5.97175 0
M  V30 9322 H 879.978 2.63925 -3.86602 0
M  V30 9323 H 880.151 3.44212 -5.49019 0
M  V30 9324 N 873.557 1.20646 1.01402 0
M  V30 9325 C 874.785 1.04389 1.78635 0
M  V30 9326 C 875.2 -0.406771 1.84366 0
M  V30 9327 O 874.557 -1.28239 1.2985 0
M  V30 9328 C 874.608 1.62378 3.22979 0
M  V30 9329 O 874.329 3.01768 3.17597 0
M  V30 9330 C 875.83 1.5111 4.1675 0
M  V30 9331 H 873.05 0.367077 0.56169 0
M  V30 9332 H 875.594 1.59789 1.27624 0
M  V30 9333 H 873.749 1.11092 3.7113 0
M  V30 9334 H 874.163 3.29331 4.08217 0
M  V30 9335 H 875.637 1.96441 5.15863 0
M  V30 9336 H 876.114 0.464011 4.36742 0
M  V30 9337 H 876.72 2.01599 3.74483 0
M  V30 9338 N 875.035 -1.20752 1.01276 0
M  V30 9339 C 876.265 -1.93725 0.717934 0
M  V30 9340 C 876.673 -1.74769 -0.724732 0
M  V30 9341 O 876.016 -1.05642 -1.50285 0
M  V30 9342 C 876.078 -3.46196 0.968954 0
M  V30 9343 C 875.742 -3.88909 2.39998 0
M  V30 9344 C 876.739 -3.94982 3.38061 0
M  V30 9345 C 874.424 -4.21006 2.7397 0
M  V30 9346 C 876.418 -4.32558 4.68159 0
M  V30 9347 C 874.105 -4.58257 4.04282 0
M  V30 9348 C 875.103 -4.64004 5.01187 0
M  V30 9349 O 874.791 -5.00403 6.29168 0
M  V30 9350 H 874.523 -0.622663 0.263186 0
M  V30 9351 H 877.077 -1.54299 1.35577 0
M  V30 9352 H 875.307 -3.85728 0.273952 0
M  V30 9353 H 876.996 -4.00394 0.666312 0
M  V30 9354 H 877.762 -3.70353 3.13151 0
M  V30 9355 H 873.641 -4.15725 1.99233 0
M  V30 9356 H 877.185 -4.36959 5.43795 0
M  V30 9357 H 873.082 -4.82341 4.28973 0
M  V30 9358 H 873.85 -5.18409 6.33399 0
M  V30 9359 N 876.513 -0.788492 -1.36457 0
M  V30 9360 C 877.929 -0.470063 -1.52521 0
M  V30 9361 C 878.129 1.01176 -1.74258 0
M  V30 9362 O 877.185 1.79726 -1.77355 0
M  V30 9363 C 878.498 -1.2997 -2.71161 0
M  V30 9364 C 880.046 -1.2933 -2.85031 0
M  V30 9365 C 880.521 -2.10665 -4.06674 0
M  V30 9366 N 882.012 -2.08107 -4.13819 0
M  V30 9367 C 882.747 -2.6781 -5.07016 0
M  V30 9368 N 882.243 -3.36369 -6.05663 0
M  V30 9369 N 884.036 -2.57549 -4.99625 0
M  V30 9370 H 876.187 -1.7484 -1.20602 0
M  V30 9371 H 878.45 -0.743159 -0.588574 0
M  V30 9372 H 878.156 -2.35051 -2.61618 0
M  V30 9373 H 878.03 -0.940367 -3.6529 0
M  V30 9374 H 880.417 -0.250414 -2.94036 0
M  V30 9375 H 880.498 -1.69239 -1.91812 0
M  V30 9376 H 880.142 -3.14984 -3.98431 0
M  V30 9377 H 880.072 -1.68128 -4.9904 0
M  V30 9378 H 882.563 -1.58208 -3.43189 0
M  V30 9379 H 882.876 -3.79258 -6.73338 0
M  V30 9380 H 881.221 -3.40471 -6.05891 0
M  V30 9381 H 884.412 -2.0359 -4.21508 0
M  V30 9382 H 884.585 -3.0437 -5.72069 0
M  V30 9383 N 877.991 1.48044 -0.54043 0
M  V30 9384 C 878.921 2.32597 0.205178 0
M  V30 9385 C 879.902 1.42748 0.925041 0
M  V30 9386 O 881.087 1.71624 0.908784 0
M  V30 9387 C 878.217 3.24175 1.24612 0
M  V30 9388 C 877.171 4.23131 0.64376 0
M  V30 9389 C 876.497 5.03915 1.78812 0
M  V30 9390 C 877.797 5.20831 -0.39144 0
M  V30 9391 H 879.491 2.95184 -0.500676 0
M  V30 9392 H 877.037 1.41948 -0.242225 0
M  V30 9393 H 878.99 3.82158 1.77576 0
M  V30 9394 H 877.714 2.59608 1.98169 0
M  V30 9395 H 876.373 3.66349 0.135554 0
M  V30 9396 H 876.021 4.35765 2.51232 0
M  V30 9397 H 875.721 5.709 1.39094 0
M  V30 9398 H 877.245 5.64753 2.32134 0
M  V30 9399 H 878.659 5.73277 0.0515064 0
M  V30 9400 H 877.056 5.95926 -0.706569 0
M  V30 9401 H 878.126 4.6733 -1.29345 0
M  V30 9402 N 879.47 0.276058 1.55163 0
M  V30 9403 C 880.402 -0.644254 2.19959 0
M  V30 9404 C 881.415 -1.11675 1.18459 0
M  V30 9405 O 882.604 -1.0385 1.45181 0
M  V30 9406 C 879.704 -1.89093 2.81242 0
M  V30 9407 C 878.877 -1.56509 4.08441 0
M  V30 9408 C 877.936 -2.66433 4.53762 0
M  V30 9409 O 876.962 -2.32579 5.19515 0
M  V30 9410 N 878.164 -3.96509 4.23982 0
M  V30 9411 H 880.929 -0.0896808 2.99566 0
M  V30 9412 H 878.49 0.0971981 1.61608 0
M  V30 9413 H 880.482 -2.61929 3.08505 0
M  V30 9414 H 879.052 -2.35453 2.05622 0
M  V30 9415 H 878.272 -0.670522 3.88455 0
M  V30 9416 H 879.56 -1.32242 4.91314 0
M  V30 9417 H 878.958 -4.26834 3.71254 0
M  V30 9418 H 877.515 -4.6572 4.56014 0
M  V30 9419 N 880.948 -1.576 0.00335426 0
M  V30 9420 C 882.197 -1.89892 -0.680001 0
M  V30 9421 C 882.51 -0.878731 -1.7475 0
M  V30 9422 O 883.716 -1.09199 -2.48572 0
M  V30 9423 C 882.172 -3.37098 -1.26066 0
M  V30 9424 C 881.78 -4.4742 -0.227807 0
M  V30 9425 C 883.524 -3.78495 -1.92202 0
M  V30 9426 C 881.431 -5.85706 -0.81865 0
M  V30 9427 H 880.361 -0.708578 -0.257746 0
M  V30 9428 H 883.012 -1.83387 0.0644472 0
M  V30 9429 H 881.394 -3.38451 -2.05589 0
M  V30 9430 H 882.568 -4.57589 0.54307 0
M  V30 9431 H 880.883 -4.15064 0.333297 0
M  V30 9432 H 883.48 -4.7915 -2.37318 0
M  V30 9433 H 883.823 -3.12187 -2.75399 0
M  V30 9434 H 884.356 -3.79456 -1.19408 0
M  V30 9435 H 881.095 -6.55495 -0.0253787 0
M  V30 9436 H 880.615 -5.79196 -1.55861 0
M  V30 9437 H 882.294 -6.33469 -1.31627 0
M  V30 9438 N 882.426 0.269451 -1.5528 0
M  V30 9439 C 883.376 1.33553 -1.84791 0
M  V30 9440 C 884.36 1.44532 -0.707067 0
M  V30 9441 O 885.552 1.48153 -0.968493 0
M  V30 9442 C 882.681 2.69516 -2.12641 0
M  V30 9443 C 881.767 2.62633 -3.32993 0
M  V30 9444 N 882.158 2.25371 -4.52815 0
M  V30 9445 C 880.456 2.93688 -3.35654 0
M  V30 9446 C 881.157 2.28567 -5.34913 0
M  V30 9447 N 880.133 2.67181 -4.73408 0
M  V30 9448 H 883.935 1.03758 -2.74976 0
M  V30 9449 H 881.449 0.478087 -1.55203 0
M  V30 9450 H 883.446 3.46424 -2.3194 0
M  V30 9451 H 882.106 3.00197 -1.23742 0
M  V30 9452 H 883.117 1.9729 -4.7885 0
M  V30 9453 H 879.794 3.29057 -2.56958 0
M  V30 9454 H 881.184 2.02289 -6.40725 0
M  V30 9455 N 883.904 1.48273 0.534124 0
M  V30 9456 C 885.129 1.59988 1.31979 0
M  V30 9457 C 885.554 0.258824 1.86311 0
M  V30 9458 O 884.912 -0.768885 1.64188 0
M  V30 9459 C 884.96 2.64642 2.44943 0
M  V30 9460 O 884.064 2.21515 3.47858 0
M  V30 9461 H 883.405 0.536625 0.391063 0
M  V30 9462 H 885.935 1.94229 0.643135 0
M  V30 9463 H 885.945 2.85786 2.91187 0
M  V30 9464 H 884.62 3.62004 2.04758 0
M  V30 9465 H 883.197 2.10567 3.0776 0
M  V30 9466 N 885.382 -0.782676 1.36792 0
M  V30 9467 C 886.315 -1.90241 1.2603 0
M  V30 9468 C 887.293 -1.61969 0.143055 0
M  V30 9469 O 888.477 -1.85843 0.315366 0
M  V30 9470 C 885.604 -3.25218 0.946082 0
M  V30 9471 C 884.65 -3.72414 2.0787 0
M  V30 9472 S 885.483 -3.87376 3.69729 0
M  V30 9473 C 886.639 -5.25219 3.40435 0
M  V30 9474 H 886.872 -1.99079 2.20805 0
M  V30 9475 H 884.405 -0.942625 1.22286 0
M  V30 9476 H 886.363 -4.03183 0.771612 0
M  V30 9477 H 885.024 -3.14096 0.0159991 0
M  V30 9478 H 884.217 -4.7024 1.81358 0
M  V30 9479 H 883.819 -3.01519 2.21274 0
M  V30 9480 H 886.111 -6.10025 2.94746 0
M  V30 9481 H 887.054 -5.56738 4.37549 0
M  V30 9482 H 887.462 -4.92638 2.75622 0
M  V30 9483 N 886.86 -1.21182 -1.00761 0
M  V30 9484 C 887.823 -0.970339 -2.07646 0
M  V30 9485 C 888.823 0.0576345 -1.60697 0
M  V30 9486 O 890.013 -0.179369 -1.73274 0
M  V30 9487 C 887.145 -0.462703 -3.37745 0
M  V30 9488 H 888.338 -1.91856 -2.30502 0
M  V30 9489 H 885.891 -1.02844 -1.17698 0
M  V30 9490 H 886.626 0.490559 -3.20568 0
M  V30 9491 H 886.411 -1.20416 -3.73152 0
M  V30 9492 H 887.901 -0.313531 -4.16421 0
M  V30 9493 N 888.338 1.20213 -1.01915 0
M  V30 9494 C 889.615 1.85348 -0.62495 0
M  V30 9495 C 889.995 1.91101 0.896854 0
M  V30 9496 O 889.343 1.42075 1.78961 0
M  V30 9497 C 889.553 3.24849 -1.27571 0
M  V30 9498 C 890.901 4.01107 -1.39277 0
M  V30 9499 O 891.925 3.34211 -1.23212 0
M  V30 9500 O 890.784 5.20914 -1.6526 0
M  V30 9501 H 887.878 0.798303 -0.215965 0
M  V30 9502 H 890.424 1.27782 -1.11669 0
M  V30 9503 H 889.196 3.1544 -2.31545 0
M  V30 9504 H 888.819 3.90049 -0.77122 0
M  V30 9505 N 889.816 0.795718 1.36037 0
M  V30 9506 C 890.748 0.156336 2.28666 0
M  V30 9507 C 891.761 -0.638075 1.49775 0
M  V30 9508 O 892.95 -0.472222 1.7214 0
M  V30 9509 C 890.05 -0.801417 3.29288 0
M  V30 9510 C 889.223 -0.0557118 4.37365 0
M  V30 9511 C 888.282 -0.930338 5.1791 0
M  V30 9512 O 887.308 -0.385266 5.67895 0
M  V30 9513 N 888.51 -2.25382 5.34961 0
M  V30 9514 H 891.275 0.952033 2.84177 0
M  V30 9515 H 888.836 0.650189 1.48271 0
M  V30 9516 H 890.828 -1.39051 3.80062 0
M  V30 9517 H 889.398 -1.49796 2.74372 0
M  V30 9518 H 888.618 0.714508 3.87671 0
M  V30 9519 H 889.906 0.458633 5.06729 0
M  V30 9520 H 889.304 -2.72073 4.95977 0
M  V30 9521 H 887.861 -2.79241 5.88955 0
M  V30 9522 N 891.294 -1.47756 0.548274 0
M  V30 9523 C 892.54 -2.02789 0.0209265 0
M  V30 9524 C 892.873 -1.42268 -1.32187 0
M  V30 9525 O 892.148 -0.575001 -1.85806 0
M  V30 9526 C 892.431 -3.60007 -0.0816674 0
M  V30 9527 C 892.284 -4.30977 1.28759 0
M  V30 9528 C 893.603 -4.32777 -0.799515 0
M  V30 9529 H 890.722 -0.736944 0.00907884 0
M  V30 9530 H 893.364 -1.76282 0.708839 0
M  V30 9531 H 891.514 -3.82722 -0.667537 0
M  V30 9532 H 893.186 -4.19629 1.91597 0
M  V30 9533 H 891.429 -3.9168 1.86466 0
M  V30 9534 H 892.1 -5.39488 1.16861 0
M  V30 9535 H 894.576 -4.15001 -0.30216 0
M  V30 9536 H 893.452 -5.42431 -0.840239 0
M  V30 9537 H 893.713 -4.01358 -1.85375 0
M  V30 9538 N 892.772 -0.284283 -1.55015 0
M  V30 9539 C 893.702 0.592663 -2.25853 0
M  V30 9540 C 894.683 1.15151 -1.25197 0
M  V30 9541 O 895.868 1.18395 -1.53936 0
M  V30 9542 C 892.998 1.77254 -2.98661 0
M  V30 9543 C 891.952 1.34482 -4.06323 0
M  V30 9544 C 891.278 2.60853 -4.66754 0
M  V30 9545 C 892.578 0.488288 -5.20013 0
M  V30 9546 H 894.272 0.00187041 -2.994 0
M  V30 9547 H 891.818 -0.000540402 -1.44 0
M  V30 9548 H 893.771 2.39199 -3.46932 0
M  V30 9549 H 892.495 2.38931 -2.22664 0
M  V30 9550 H 891.154 0.748519 -3.58877 0
M  V30 9551 H 890.802 3.20808 -3.87416 0
M  V30 9552 H 890.502 2.32942 -5.39455 0
M  V30 9553 H 892.026 3.23631 -5.1778 0
M  V30 9554 H 893.44 1.01298 -5.6428 0
M  V30 9555 H 891.837 0.303669 -5.99331 0
M  V30 9556 H 892.907 -0.490727 -4.8241 0
M  V30 9557 N 894.251 1.57596 -0.0117121 0
M  V30 9558 C 895.662 1.79033 0.529521 0
M  V30 9559 C 896.013 0.920299 1.73277 0
M  V30 9560 O 895.138 0.125934 2.16033 0
M  V30 9561 C 895.733 3.24695 0.967405 0
M  V30 9562 C 894.292 3.47188 1.45387 0
M  V30 9563 C 893.439 2.74245 0.410466 0
M  V30 9564 H 896.39 1.56908 -0.237836 0
M  V30 9565 H 896.411 3.33451 1.83278 0
M  V30 9566 H 895.923 3.87992 0.0914605 0
M  V30 9567 H 894.024 2.89121 2.35032 0
M  V30 9568 H 894.137 4.55886 1.47325 0
M  V30 9569 H 892.501 2.39209 0.874721 0
M  V30 9570 H 893.284 3.40248 -0.456713 0
M  V30 9571 N 895.729 -0.261212 1.5542 0
M  V30 9572 C 897.14 -0.83138 1.67167 0
M  V30 9573 C 897.491 -1.8659 0.606525 0
M  V30 9574 O 896.616 -2.14953 -0.24985 0
M  V30 9575 C 897.211 -1.51475 3.03052 0
M  V30 9576 C 895.77 -2.0328 3.16787 0
M  V30 9577 C 894.917 -0.878903 2.63003 0
M  V30 9578 H 897.868 -0.0373102 1.58656 0
M  V30 9579 H 897.889 -2.38222 2.96699 0
M  V30 9580 H 897.401 -0.76157 3.80554 0
M  V30 9581 H 895.502 -2.81523 2.44082 0
M  V30 9582 H 895.615 -2.24001 4.2351 0
M  V30 9583 H 893.979 -1.27551 2.2046 0
M  V30 9584 H 894.762 -0.13904 3.43018 0
M  V30 9585 N 897.207 -1.48554 -0.526253 0
M  V30 9586 C 898.455 -1.56452 -1.27935 0
M  V30 9587 C 898.776 -0.24184 -1.93495 0
M  V30 9588 O 898.046 0.736917 -1.81511 0
M  V30 9589 H 896.626 -0.576379 -0.47518 0
M  V30 9590 H 899.288 -1.85039 -0.612083 0
M  V30 9591 H 898.384 -2.34751 -2.05666 0
M  V30 9592 N 898.685 0.775411 -1.37205 0
M  V30 9593 C 899.931 1.53533 -1.33414 0
M  V30 9594 C 900.286 1.92225 0.0819435 0
M  V30 9595 O 899.579 1.60935 1.03974 0
M  V30 9596 C 899.773 2.81377 -2.20367 0
M  V30 9597 C 899.602 2.5518 -3.70288 0
M  V30 9598 C 898.372 2.49493 -4.3941 0
M  V30 9599 C 900.57 2.23425 -4.63234 0
M  V30 9600 N 898.552 2.15341 -5.74892 0
M  V30 9601 C 899.923 1.99381 -5.87067 0
M  V30 9602 C 901.978 2.09549 -4.51657 0
M  V30 9603 C 900.681 1.62863 -7.0062 0
M  V30 9604 C 902.707 1.74431 -5.65091 0
M  V30 9605 C 902.069 1.51245 -6.87971 0
M  V30 9606 H 898.168 0.562278 -0.543477 0
M  V30 9607 H 900.752 0.90495 -1.72391 0
M  V30 9608 H 898.923 3.42259 -1.83612 0
M  V30 9609 H 900.655 3.4724 -2.07861 0
M  V30 9610 H 897.41 2.65221 -3.9237 0
M  V30 9611 H 897.834 2.00972 -6.46482 0
M  V30 9612 H 902.476 2.26159 -3.57228 0
M  V30 9613 H 900.194 1.44991 -7.94986 0
M  V30 9614 H 903.78 1.64359 -5.58102 0
M  V30 9615 H 902.66 1.24472 -7.74259 0
M  V30 9616 N 900.163 1.21714 1.00117 0
M  V30 9617 C 901.095 0.937627 2.09144 0
M  V30 9618 C 902.108 -0.0806291 1.626 0
M  V30 9619 O 903.297 0.152348 1.77849 0
M  V30 9620 C 900.397 0.387036 3.36683 0
M  V30 9621 C 899.57 1.46054 4.12295 0
M  V30 9622 C 898.629 0.918505 5.18122 0
M  V30 9623 O 897.655 1.60282 5.46167 0
M  V30 9624 N 898.857 -0.264308 5.79898 0
M  V30 9625 H 901.622 1.87622 2.33705 0
M  V30 9626 H 899.183 1.12291 1.16629 0
M  V30 9627 H 901.175 0.00992825 4.04699 0
M  V30 9628 H 899.745 -0.456467 3.09249 0
M  V30 9629 H 898.965 2.01133 3.39027 0
M  V30 9630 H 900.253 2.18306 4.59587 0
M  V30 9631 H 899.651 -0.837242 5.5947 0
M  V30 9632 H 898.208 -0.582886 6.49188 0
M  V30 9633 N 901.641 -1.19671 1.02551 0
M  V30 9634 C 902.551 -2.26441 0.613329 0
M  V30 9635 C 903.567 -1.70375 -0.353339 0
M  V30 9636 O 904.743 -2.0028 -0.212064 0
M  V30 9637 C 901.808 -3.46684 -0.0329028 0
M  V30 9638 C 900.869 -4.17945 0.980837 0
M  V30 9639 C 900.102 -5.32448 0.36535 0
M  V30 9640 O 900.325 -5.64291 -0.832596 0
M  V30 9641 O 899.259 -5.92012 1.08652 0
M  V30 9642 H 903.085 -2.63932 1.50246 0
M  V30 9643 H 900.67 -1.2646 0.795502 0
M  V30 9644 H 902.552 -4.1956 -0.393395 0
M  V30 9645 H 901.227 -3.1105 -0.896089 0
M  V30 9646 H 900.134 -3.47204 1.39286 0
M  V30 9647 H 901.467 -4.57542 1.81428 0
M  V30 9648 N 903.119 -0.802921 -1.35613 0
M  V30 9649 C 904.029 -0.212177 -2.33639 0
M  V30 9650 C 905.045 0.642871 -1.61689 0
M  V30 9651 O 906.221 0.555485 -1.93588 0
M  V30 9652 C 903.286 0.632406 -3.40883 0
M  V30 9653 C 902.347 -0.242708 -4.28613 0
M  V30 9654 C 901.58 0.56166 -5.30736 0
M  V30 9655 O 901.803 1.79664 -5.41366 0
M  V30 9656 O 900.737 -0.0455387 -6.01883 0
M  V30 9657 H 904.563 -1.023 -2.85952 0
M  V30 9658 H 902.148 -0.564636 -1.38319 0
M  V30 9659 H 904.03 1.11358 -4.0642 0
M  V30 9660 H 902.705 1.42089 -2.90848 0
M  V30 9661 H 901.612 -0.77094 -3.6607 0
M  V30 9662 H 902.945 -0.995046 -4.82037 0
M  V30 9663 N 904.597 1.47463 -0.556102 0
M  V30 9664 C 905.529 2.28046 0.22968 0
M  V30 9665 C 906.542 1.3694 0.880409 0
M  V30 9666 O 907.731 1.61773 0.754447 0
M  V30 9667 C 904.831 3.11165 1.34273 0
M  V30 9668 C 904.004 4.30225 0.789004 0
M  V30 9669 C 903.063 4.94948 1.78641 0
M  V30 9670 O 902.089 5.53372 1.33297 0
M  V30 9671 N 903.291 4.89543 3.11974 0
M  V30 9672 H 906.056 2.96125 -0.461558 0
M  V30 9673 H 903.617 1.5708 -0.392105 0
M  V30 9674 H 905.609 3.51331 2.00869 0
M  V30 9675 H 904.179 2.45337 1.93722 0
M  V30 9676 H 903.399 3.94163 -0.0536971 0
M  V30 9677 H 904.687 5.07238 0.398378 0
M  V30 9678 H 904.085 4.43275 3.51459 0
M  V30 9679 H 902.642 5.33732 3.74131 0
M  V30 9680 N 906.075 0.2925 1.54862 0
M  V30 9681 C 907.038 -0.574423 2.21885 0
M  V30 9682 C 908.038 -1.06791 1.20218 0
M  V30 9683 O 909.228 -0.9653 1.45009 0
M  V30 9684 C 906.36 -1.79438 2.89853 0
M  V30 9685 H 907.553 0.0110319 2.99898 0
M  V30 9686 H 905.106 0.043256 1.5624 0
M  V30 9687 H 905.841 -2.4199 2.15897 0
M  V30 9688 H 905.626 -1.44827 3.64373 0
M  V30 9689 H 907.116 -2.41048 3.41007 0
M  V30 9690 N 907.553 -1.57587 0.0200696 0
M  V30 9691 C 908.802 -1.90602 -0.659822 0
M  V30 9692 C 909.115 -0.897216 -1.73808 0
M  V30 9693 O 910.321 -1.11829 -2.47399 0
M  V30 9694 C 908.777 -3.38416 -1.22484 0
M  V30 9695 C 908.385 -4.47637 -0.180339 0
M  V30 9696 C 910.129 -3.80513 -1.88176 0
M  V30 9697 C 908.036 -5.86542 -0.756482 0
M  V30 9698 H 906.966 -0.711272 -0.250216 0
M  V30 9699 H 909.617 -1.83308 0.0838942 0
M  V30 9700 H 907.999 -3.40613 -2.01987 0
M  V30 9701 H 909.173 -4.56987 0.591573 0
M  V30 9702 H 907.488 -4.14687 0.377302 0
M  V30 9703 H 910.085 -4.8164 -2.32222 0
M  V30 9704 H 910.428 -3.15091 -2.72073 0
M  V30 9705 H 910.961 -3.80701 -1.15377 0
M  V30 9706 H 907.7 -6.55485 0.0441468 0
M  V30 9707 H 907.22 -5.80816 -1.49709 0
M  V30 9708 H 908.899 -6.3483 -1.249 0
M  V30 9709 N 909.032 0.252966 -1.55557 0
M  V30 9710 C 910.26 0.999565 -1.81153 0
M  V30 9711 C 910.675 1.79181 -0.594955 0
M  V30 9712 O 910.032 1.77208 0.436311 0
M  V30 9713 C 910.083 1.94227 -3.04891 0
M  V30 9714 O 909.804 1.18209 -4.21851 0
M  V30 9715 C 911.305 2.80536 -3.43241 0
M  V30 9716 H 908.525 0.294402 -0.602966 0
M  V30 9717 H 911.069 0.277686 -2.02606 0
M  V30 9718 H 909.224 2.6185 -2.85505 0
M  V30 9719 H 909.638 1.81922 -4.9194 0
M  V30 9720 H 911.112 3.42442 -4.32941 0
M  V30 9721 H 911.589 3.51337 -2.6355 0
M  V30 9722 H 912.195 2.18373 -3.64956 0
M  V30 9723 N 910.51 1.48831 0.518367 0
M  V30 9724 C 911.756 1.58649 1.27287 0
M  V30 9725 C 912.111 0.262085 1.90607 0
M  V30 9726 O 911.404 -0.736154 1.76894 0
M  V30 9727 C 911.598 2.67003 2.3758 0
M  V30 9728 C 911.427 4.09851 1.85073 0
M  V30 9729 C 910.197 4.76852 1.67154 0
M  V30 9730 C 912.395 4.95646 1.37256 0
M  V30 9731 N 910.377 6.04075 1.09394 0
M  V30 9732 C 911.748 6.13208 0.915189 0
M  V30 9733 C 913.803 4.8178 1.25666 0
M  V30 9734 C 912.506 7.18431 0.353411 0
M  V30 9735 C 914.532 5.87136 0.708873 0
M  V30 9736 C 913.894 7.03914 0.261642 0
M  V30 9737 H 909.993 0.635017 0.456374 0
M  V30 9738 H 912.577 1.85763 0.583097 0
M  V30 9739 H 910.748 2.41691 3.04039 0
M  V30 9740 H 912.48 2.6644 3.04617 0
M  V30 9741 H 909.235 4.3337 1.91017 0
M  V30 9742 H 909.659 6.71955 0.824917 0
M  V30 9743 H 914.301 3.91826 1.58846 0
M  V30 9744 H 912.019 8.08099 0.00931313 0
M  V30 9745 H 915.605 5.78463 0.622221 0
M  V30 9746 H 914.485 7.84046 -0.155634 0
M  V30 9747 N 911.988 -0.768124 1.37614 0
M  V30 9748 C 912.951 -1.86314 1.3349 0
M  V30 9749 C 913.951 -1.59025 0.23823 0
M  V30 9750 O 915.141 -1.6704 0.494288 0
M  V30 9751 C 912.273 -3.23519 1.07462 0
M  V30 9752 H 913.466 -1.91382 2.30896 0
M  V30 9753 H 911.019 -0.968267 1.22696 0
M  V30 9754 H 911.754 -3.24127 0.106028 0
M  V30 9755 H 911.539 -3.44719 1.86846 0
M  V30 9756 H 913.029 -4.03597 1.07236 0
M  V30 9757 N 913.466 -1.22244 -0.994698 0
M  V30 9758 C 914.882 -0.982006 -1.25813 0
M  V30 9759 C 915.082 0.325488 -1.98854 0
M  V30 9760 O 914.138 1.04857 -2.29698 0
M  V30 9761 C 915.451 -2.1795 -2.07167 0
M  V30 9762 C 916.999 -2.22287 -2.20358 0
M  V30 9763 C 917.474 -3.41583 -3.05098 0
M  V30 9764 N 918.965 -3.41734 -3.12686 0
M  V30 9765 C 919.7 -4.30692 -3.78539 0
M  V30 9766 N 919.196 -5.29865 -4.46335 0
M  V30 9767 N 920.989 -4.18473 -3.75283 0
M  V30 9768 H 913.14 -2.0631 -0.504963 0
M  V30 9769 H 915.403 -0.90395 -0.285618 0
M  V30 9770 H 915.109 -3.12758 -1.60858 0
M  V30 9771 H 914.983 -2.17862 -3.07922 0
M  V30 9772 H 917.37 -1.28028 -2.65881 0
M  V30 9773 H 917.451 -2.26414 -1.19039 0
M  V30 9774 H 917.095 -4.36141 -2.60275 0
M  V30 9775 H 917.025 -3.34695 -4.06555 0
M  V30 9776 H 919.516 -2.69969 -2.64433 0
M  V30 9777 H 919.829 -5.94027 -4.9432 0
M  V30 9778 H 918.174 -5.3378 -4.45089 0
M  V30 9779 H 921.365 -3.40249 -3.21478 0
M  V30 9780 H 921.538 -4.88007 -4.26326 0
M  V30 9781 N 914.944 1.19125 -1.03184 0
M  V30 9782 C 916.174 1.92558 -0.748663 0
M  V30 9783 C 916.582 1.759 0.696837 0
M  V30 9784 O 915.925 1.08019 1.48585 0
M  V30 9785 C 915.987 3.4461 -1.02391 0
M  V30 9786 C 915.651 3.85041 -2.46155 0
M  V30 9787 C 916.648 3.89554 -3.44302 0
M  V30 9788 C 914.333 4.16594 -2.80633 0
M  V30 9789 C 916.327 4.25055 -4.74981 0
M  V30 9790 C 914.014 4.51767 -4.11521 0
M  V30 9791 C 915.012 4.55972 -5.08506 0
M  V30 9792 O 914.7 4.9033 -6.37049 0
M  V30 9793 H 914.432 0.618397 -0.273059 0
M  V30 9794 H 916.986 1.52122 -1.38015 0
M  V30 9795 H 915.216 3.85244 -0.335284 0
M  V30 9796 H 916.905 3.99283 -0.729927 0
M  V30 9797 H 917.671 3.65324 -3.19003 0
M  V30 9798 H 913.55 4.12503 -2.05821 0
M  V30 9799 H 917.094 4.28252 -5.50678 0
M  V30 9800 H 912.991 4.75455 -4.36592 0
M  V30 9801 H 913.759 5.08266 -6.41566 0
M  V30 9802 N 916.422 0.810101 1.35185 0
M  V30 9803 C 917.833 0.452616 1.81131 0
M  V30 9804 C 918.184 -1.02573 1.67252 0
M  V30 9805 O 917.309 -1.79735 1.20516 0
M  V30 9806 C 917.904 0.814775 3.28857 0
M  V30 9807 C 916.463 0.509839 3.72931 0
M  V30 9808 C 915.61 1.03852 2.57119 0
M  V30 9809 H 918.561 1.00143 1.23114 0
M  V30 9810 H 918.582 0.113635 3.8033 0
M  V30 9811 H 918.094 1.89078 3.38926 0
M  V30 9812 H 916.195 -0.557289 3.68409 0
M  V30 9813 H 916.308 1.04493 4.67566 0
M  V30 9814 H 914.672 0.460671 2.50499 0
M  V30 9815 H 915.455 2.12071 2.69964 0
M  V30 9816 N 917.9 -1.47166 0.563914 0
M  V30 9817 C 918.83 -2.32894 -0.168148 0
M  V30 9818 C 919.811 -1.44202 -0.902214 0
M  V30 9819 O 920.996 -1.73048 -0.881365 0
M  V30 9820 C 918.126 -3.26116 -1.19439 0
M  V30 9821 C 917.08 -4.24101 -0.576363 0
M  V30 9822 C 916.406 -5.06696 -1.70772 0
M  V30 9823 C 917.706 -5.20142 0.47425 0
M  V30 9824 H 919.4 -2.9435 0.547573 0
M  V30 9825 H 916.946 -1.41545 0.264778 0
M  V30 9826 H 918.899 -3.84935 -1.71474 0
M  V30 9827 H 917.623 -2.62728 -1.94014 0
M  V30 9828 H 916.282 -3.66519 -0.0772534 0
M  V30 9829 H 915.93 -4.39707 -2.44268 0
M  V30 9830 H 915.63 -5.7304 -1.29994 0
M  V30 9831 H 917.154 -5.68375 -2.2312 0
M  V30 9832 H 918.568 -5.73286 0.0397035 0
M  V30 9833 H 916.965 -5.94726 0.801287 0
M  V30 9834 H 918.035 -4.65214 1.36764 0
M  V30 9835 N 919.378 -0.300708 -1.54705 0
M  V30 9836 C 920.341 0.562648 -2.22187 0
M  V30 9837 C 921.341 1.06152 -1.20782 0
M  V30 9838 O 922.531 0.957596 -1.45519 0
M  V30 9839 C 919.663 1.77899 -2.908 0
M  V30 9840 H 920.856 -0.0269361 -2.99888 0
M  V30 9841 H 918.409 -0.0515412 -1.56215 0
M  V30 9842 H 919.144 2.40841 -2.17177 0
M  V30 9843 H 918.929 1.42892 -3.65136 0
M  V30 9844 H 920.419 2.39236 -3.42281 0
M  V30 9845 N 920.856 1.57574 -0.0284266 0
M  V30 9846 C 922.102 1.92056 0.651327 0
M  V30 9847 C 922.435 0.905092 1.71819 0
M  V30 9848 O 921.71 -0.0722703 1.94366 0
M  V30 9849 C 921.993 3.37021 1.26841 0
M  V30 9850 C 921.846 4.49304 0.211157 0
M  V30 9851 C 923.165 3.81936 2.18662 0
M  V30 9852 H 920.284 0.698428 0.235304 0
M  V30 9853 H 922.926 1.89807 -0.0855435 0
M  V30 9854 H 921.076 3.39068 1.89644 0
M  V30 9855 H 922.748 4.5939 -0.419379 0
M  V30 9856 H 920.991 4.31317 -0.463445 0
M  V30 9857 H 921.662 5.47764 0.682518 0
M  V30 9858 H 924.138 3.8162 1.65847 0
M  V30 9859 H 923.014 4.84064 2.58792 0
M  V30 9860 H 923.275 3.174 3.07749 0
M  V30 9861 N 922.334 -0.244713 1.55689 0
M  V30 9862 C 923.562 -0.989944 1.8168 0
M  V30 9863 C 923.977 -1.78863 0.604449 0
M  V30 9864 O 923.334 -1.77437 -0.426907 0
M  V30 9865 C 923.385 -1.92607 3.05916 0
M  V30 9866 O 923.106 -1.1597 4.22472 0
M  V30 9867 C 924.607 -2.78711 3.44724 0
M  V30 9868 H 921.827 -0.2912 0.604519 0
M  V30 9869 H 924.371 -0.266938 2.0275 0
M  V30 9870 H 922.526 -2.60333 2.8689 0
M  V30 9871 H 922.94 -1.79311 4.92898 0
M  V30 9872 H 924.414 -3.40141 4.34751 0
M  V30 9873 H 924.891 -3.49935 2.6541 0
M  V30 9874 H 925.497 -2.16435 3.66109 0
M  V30 9875 N 923.813 -1.49104 -0.510467 0
M  V30 9876 C 924.76 -1.65074 -1.61305 0
M  V30 9877 C 925.73 -0.492362 -1.58635 0
M  V30 9878 O 926.915 -0.718241 -1.76765 0
M  V30 9879 C 924.055 -1.71457 -2.99493 0
M  V30 9880 C 923.168 -2.98536 -3.12251 0
M  V30 9881 C 922.303 -2.95957 -4.41116 0
M  V30 9882 C 921.342 -4.17655 -4.47471 0
M  V30 9883 N 920.479 -4.13041 -5.67751 0
M  V30 9884 H 925.319 -2.59222 -1.46996 0
M  V30 9885 H 922.856 -1.28535 -0.715346 0
M  V30 9886 H 924.814 -1.7314 -3.79577 0
M  V30 9887 H 923.444 -0.807834 -3.12528 0
M  V30 9888 H 922.496 -3.06509 -2.25292 0
M  V30 9889 H 923.808 -3.88527 -3.12807 0
M  V30 9890 H 922.962 -2.96149 -5.2951 0
M  V30 9891 H 921.701 -2.03728 -4.4311 0
M  V30 9892 H 920.706 -4.17717 -3.57481 0
M  V30 9893 H 921.931 -5.11066 -4.472 0
M  V30 9894 H 919.877 -3.23643 -5.70606 0
M  V30 9895 H 919.794 -4.96757 -5.69884 0
M  V30 9896 H 921.062 -4.17322 -6.58379 0
M  V30 9897 N 925.291 0.760815 -1.38019 0
M  V30 9898 C 926.521 1.54776 -1.3685 0
M  V30 9899 C 926.929 1.89146 0.0453971 0
M  V30 9900 O 926.272 1.52746 1.0205 0
M  V30 9901 C 926.334 2.87923 -2.15269 0
M  V30 9902 C 925.998 2.76131 -3.64144 0
M  V30 9903 C 926.995 2.46417 -4.57794 0
M  V30 9904 C 924.68 2.9381 -4.07408 0
M  V30 9905 C 926.674 2.34525 -5.92686 0
M  V30 9906 C 924.361 2.81539 -5.42383 0
M  V30 9907 C 925.359 2.51938 -6.34836 0
M  V30 9908 O 925.047 2.39713 -7.67329 0
M  V30 9909 H 924.779 0.485776 -0.470104 0
M  V30 9910 H 927.333 0.949939 -1.82113 0
M  V30 9911 H 925.563 3.49867 -1.64712 0
M  V30 9912 H 927.252 3.49389 -2.06596 0
M  V30 9913 H 928.018 2.32433 -4.25676 0
M  V30 9914 H 923.897 3.15849 -3.35799 0
M  V30 9915 H 927.441 2.11342 -6.64816 0
M  V30 9916 H 923.338 2.95093 -5.741 0
M  V30 9917 H 924.106 2.5498 -7.77771 0
M  V30 9918 N 926.769 1.22769 0.988202 0
M  V30 9919 C 928.185 0.988665 1.2529 0
M  V30 9920 C 928.385 -0.314938 1.99024 0
M  V30 9921 O 927.441 -1.03637 2.30251 0
M  V30 9922 C 928.754 2.19046 2.06009 0
M  V30 9923 C 930.302 2.23452 2.19176 0
M  V30 9924 C 930.777 3.43196 3.03283 0
M  V30 9925 N 932.268 3.43387 3.10869 0
M  V30 9926 C 933.003 4.32693 3.7625 0
M  V30 9927 N 932.499 5.32224 4.43519 0
M  V30 9928 N 934.292 4.20457 3.73058 0
M  V30 9929 H 926.443 2.06575 0.494014 0
M  V30 9930 H 928.706 0.905452 0.28082 0
M  V30 9931 H 928.412 3.13607 1.59197 0
M  V30 9932 H 928.286 2.19492 3.06763 0
M  V30 9933 H 930.673 1.29436 2.65199 0
M  V30 9934 H 930.754 2.27042 1.17836 0
M  V30 9935 H 930.398 4.37515 2.57959 0
M  V30 9936 H 930.328 3.36847 4.04774 0
M  V30 9937 H 932.819 2.71368 2.62998 0
M  V30 9938 H 933.132 5.9664 4.91163 0
M  V30 9939 H 931.477 5.36133 4.42252 0
M  V30 9940 H 934.668 3.41949 3.19669 0
M  V30 9941 H 934.841 4.90261 4.23731 0
M  V30 9942 N 928.247 -1.18576 1.03814 0
M  V30 9943 C 929.157 -2.25778 0.637311 0
M  V30 9944 C 930.173 -1.7074 -0.335248 0
M  V30 9945 O 931.349 -2.00494 -0.19081 0
M  V30 9946 C 928.414 -3.467 0.00386953 0
M  V30 9947 C 927.475 -4.16881 1.02511 0
M  V30 9948 C 926.708 -5.32031 0.421802 0
M  V30 9949 O 926.931 -5.65142 -0.772699 0
M  V30 9950 O 925.865 -5.90826 1.14925 0
M  V30 9951 H 929.691 -2.62323 1.53037 0
M  V30 9952 H 927.276 -1.25609 0.80887 0
M  V30 9953 H 929.158 -4.19953 -0.348873 0
M  V30 9954 H 927.833 -3.11983 -0.863047 0
M  V30 9955 H 926.74 -3.45707 1.4296 0
M  V30 9956 H 928.073 -4.55592 1.86271 0
M  V30 9957 N 929.725 -0.817259 -1.34754 0
M  V30 9958 C 930.95 -0.414423 -2.03217 0
M  V30 9959 C 931.375 0.970037 -1.61158 0
M  V30 9960 O 930.733 1.63016 -0.793436 0
M  V30 9961 C 930.781 -0.518087 -3.56859 0
M  V30 9962 O 929.885 0.464314 -4.09778 0
M  V30 9963 H 929.226 -0.171454 -0.641482 0
M  V30 9964 H 931.756 -1.10611 -1.72123 0
M  V30 9965 H 931.766 -0.391779 -4.06115 0
M  V30 9966 H 930.441 -1.52786 -3.86819 0
M  V30 9967 H 929.018 0.297361 -3.71712 0
M  V30 9968 N 931.203 1.46865 -0.571711 0
M  V30 9969 C 932.113 2.33979 0.170571 0
M  V30 9970 C 933.129 1.49083 0.897239 0
M  V30 9971 O 934.305 1.81979 0.862888 0
M  V30 9972 C 931.37 3.26063 1.17831 0
M  V30 9973 C 930.431 4.26855 0.457499 0
M  V30 9974 C 929.664 5.14539 1.41722 0
M  V30 9975 O 929.887 5.04945 2.65305 0
M  V30 9976 O 928.821 5.94612 0.9338 0
M  V30 9977 H 932.647 2.98781 -0.544396 0
M  V30 9978 H 930.232 1.4566 -0.332198 0
M  V30 9979 H 932.114 3.82903 1.75965 0
M  V30 9980 H 930.789 2.63871 1.87493 0
M  V30 9981 H 929.696 3.73734 -0.165406 0
M  V30 9982 H 931.029 4.91802 -0.197953 0
M  V30 9983 N 932.681 0.308908 1.54543 0
M  V30 9984 C 933.611 -0.556657 2.26768 0
M  V30 9985 C 934.592 -1.13145 1.27013 0
M  V30 9986 O 935.777 -1.15931 1.558 0
M  V30 9987 C 932.907 -1.72481 3.01443 0
M  V30 9988 C 931.861 -1.28001 4.08411 0
M  V30 9989 C 931.187 -2.53395 4.70845 0
M  V30 9990 C 932.487 -0.405497 5.20724 0
M  V30 9991 H 934.181 0.0457618 2.99365 0
M  V30 9992 H 931.727 0.0234495 1.43981 0
M  V30 9993 H 933.68 -2.3365 3.50693 0
M  V30 9994 H 932.404 -2.35359 2.26437 0
M  V30 9995 H 931.063 -0.69133 3.60022 0
M  V30 9996 H 930.711 -3.14604 3.92471 0
M  V30 9997 H 930.411 -2.2433 5.43093 0
M  V30 9998 H 931.935 -3.15352 5.22863 0
M  V30 9999 H 933.349 -0.923076 5.6582 0
M  V30 10000 H 931.746 -0.208282 5.99738 0
M  V30 10001 H 932.816 0.567412 4.81569 0
M  V30 10002 N 934.159 -1.57557 0.0367827 0
M  V30 10003 C 935.399 -1.93981 -0.644252 0
M  V30 10004 C 935.763 -0.913982 -1.6885 0
M  V30 10005 O 936.964 -1.16468 -2.42257 0
M  V30 10006 C 935.235 -3.35281 -1.23779 0
M  V30 10007 S 936.794 -3.93643 -1.93883 0
M  V30 10008 H 933.612 -0.678683 -0.21192 0
M  V30 10009 H 936.214 -1.95232 0.102281 0
M  V30 10010 H 934.918 -4.07752 -0.465451 0
M  V30 10011 H 934.449 -3.37492 -2.02146 0
M  V30 10012 H 936.464 -3.777 -3.21803 0
M  V30 10013 N 935.637 0.236453 -1.55816 0
M  V30 10014 C 936.862 0.98449 -1.82545 0
M  V30 10015 C 937.287 1.77755 -0.615206 0
M  V30 10016 O 936.645 1.75982 0.435895 0
M  V30 10017 C 936.693 1.88973 -3.07118 0
M  V30 10018 O 935.797 2.98298 -2.84766 0
M  V30 10019 H 935.138 0.279577 -0.602273 0
M  V30 10020 H 937.668 0.254277 -2.03014 0
M  V30 10021 H 937.678 2.3024 -3.36829 0
M  V30 10022 H 936.353 1.30671 -3.94839 0
M  V30 10023 H 934.93 2.61085 -2.6625 0
M  V30 10024 N 937.115 1.49373 0.502552 0
M  V30 10025 C 938.34 1.62752 1.28556 0
M  V30 10026 C 938.765 0.298285 1.8572 0
M  V30 10027 O 938.123 -0.733885 1.65782 0
M  V30 10028 C 938.171 2.69778 2.39274 0
M  V30 10029 O 937.275 2.28843 3.43081 0
M  V30 10030 H 936.616 0.544799 0.379592 0
M  V30 10031 H 939.146 1.9555 0.601792 0
M  V30 10032 H 939.156 2.91899 2.8506 0
M  V30 10033 H 937.831 3.66266 1.97033 0
M  V30 10034 H 936.408 2.17047 3.03224 0
M  V30 10035 N 938.594 -0.753485 1.38421 0
M  V30 10036 C 939.819 -1.54783 1.38047 0
M  V30 10037 C 940.244 -1.8808 -0.0276371 0
M  V30 10038 O 939.602 -1.5058 -1.00973 0
M  V30 10039 C 939.65 -2.82353 2.24297 0
M  V30 10040 O 938.754 -3.77509 1.66014 0
M  V30 10041 H 938.095 -0.468151 0.470883 0
M  V30 10042 H 940.625 -0.931144 1.82184 0
M  V30 10043 H 940.635 -3.31277 2.38159 0
M  V30 10044 H 939.31 -2.57449 3.26639 0
M  V30 10045 H 937.887 -3.36212 1.61294 0
M  V30 10046 N 940.072 -1.23292 -0.981677 0
M  V30 10047 C 941.321 -1.05832 -1.71705 0
M  V30 10048 C 941.634 0.40514 -1.91358 0
M  V30 10049 O 942.84 0.699645 -2.6233 0
M  V30 10050 C 941.296 -1.84532 -3.08992 0
M  V30 10051 C 940.904 -3.35199 -2.9723 0
M  V30 10052 C 942.648 -1.75557 -3.86497 0
M  V30 10053 C 940.555 -4.06296 -4.29741 0
M  V30 10054 H 939.485 -0.39241 -0.64384 0
M  V30 10055 H 942.136 -1.47247 -1.09502 0
M  V30 10056 H 940.518 -1.35923 -3.71942 0
M  V30 10057 H 941.692 -3.91286 -2.43377 0
M  V30 10058 H 940.007 -3.44973 -2.332 0
M  V30 10059 H 942.604 -2.25989 -4.84596 0
M  V30 10060 H 942.947 -0.718101 -4.1006 0
M  V30 10061 H 943.48 -2.21771 -3.30246 0
M  V30 10062 H 940.219 -5.10344 -4.11375 0
M  V30 10063 H 939.739 -3.54997 -4.83464 0
M  V30 10064 H 941.418 -4.12519 -4.98434 0
M  V30 10065 N 941.55 1.18024 -1.04442 0
M  V30 10066 C 942.78 1.91753 -0.769044 0
M  V30 10067 C 943.188 1.76629 0.678141 0
M  V30 10068 O 942.531 1.09589 1.47431 0
M  V30 10069 C 942.593 3.43505 -1.0604 0
M  V30 10070 C 942.257 3.82409 -2.50225 0
M  V30 10071 C 943.254 3.8588 -3.48414 0
M  V30 10072 C 940.939 4.13594 -2.85036 0
M  V30 10073 C 942.933 4.19993 -4.79463 0
M  V30 10074 C 940.62 4.47377 -4.1629 0
M  V30 10075 C 941.618 4.50553 -5.13314 0
M  V30 10076 O 941.306 4.83546 -6.42214 0
M  V30 10077 H 941.038 0.615466 -0.279603 0
M  V30 10078 H 943.592 1.5065 -1.3962 0
M  V30 10079 H 941.822 3.84866 -0.376125 0
M  V30 10080 H 943.511 3.98486 -0.772235 0
M  V30 10081 H 944.277 3.6192 -3.2286 0
M  V30 10082 H 940.156 4.10297 -2.10185 0
M  V30 10083 H 943.7 4.22387 -5.55189 0
M  V30 10084 H 939.597 4.70798 -4.4161 0
M  V30 10085 H 940.365 5.01433 -6.46921 0
M  V30 10086 N 943.028 0.824394 1.34319 0
M  V30 10087 C 943.978 0.219624 2.2694 0
M  V30 10088 C 944.962 -0.616964 1.48601 0
M  V30 10089 O 946.154 -0.471303 1.7061 0
M  V30 10090 C 943.283 -0.616379 3.37721 0
M  V30 10091 C 942.369 0.230917 4.23471 0
M  V30 10092 N 942.76 1.30264 4.88738 0
M  V30 10093 C 941.058 0.0155016 4.45997 0
M  V30 10094 C 941.759 1.82141 5.52449 0
M  V30 10095 N 940.735 1.12508 5.3183 0
M  V30 10096 H 944.537 1.03939 2.74907 0
M  V30 10097 H 942.051 0.667353 1.48055 0
M  V30 10098 H 944.048 -1.06582 4.03046 0
M  V30 10099 H 942.708 -1.43429 2.91304 0
M  V30 10100 H 943.719 1.68545 4.89707 0
M  V30 10101 H 940.396 -0.770128 4.10336 0
M  V30 10102 H 941.786 2.7181 6.14466 0
M  V30 10103 N 944.506 -1.46559 0.579492 0
M  V30 10104 C 945.438 -2.28383 -0.19337 0
M  V30 10105 C 946.451 -1.38324 -0.858511 0
M  V30 10106 O 947.64 -1.62952 -0.728615 0
M  V30 10107 C 944.74 -3.13262 -1.29306 0
M  V30 10108 C 943.913 -4.31426 -0.720459 0
M  V30 10109 C 942.972 -4.97728 -1.70744 0
M  V30 10110 O 941.998 -5.55423 -1.24476 0
M  V30 10111 N 943.2 -4.94445 -3.04146 0
M  V30 10112 H 945.965 -2.95353 0.508611 0
M  V30 10113 H 943.526 -1.56436 0.417046 0
M  V30 10114 H 945.518 -3.54483 -1.95254 0
M  V30 10115 H 944.088 -2.48388 -1.89795 0
M  V30 10116 H 943.308 -3.94028 0.116398 0
M  V30 10117 H 944.596 -5.07808 -0.31763 0
M  V30 10118 H 943.994 -4.4881 -3.44363 0
M  V30 10119 H 942.551 -5.39616 -3.65592 0
M  V30 10120 N 945.984 -0.3171 -1.54377 0
M  V30 10121 C 946.932 0.567371 -2.25574 0
M  V30 10122 C 947.926 1.12387 -1.2675 0
M  V30 10123 O 949.132 1.07266 -1.44548 0
M  V30 10124 H 945.507 0.201605 -0.724472 0
M  V30 10125 H 947.478 -0.0554644 -2.98348 0
M  V30 10126 C 946.227 1.71984 -3.02187 0
M  V30 10127 H 945.55 1.30086 -3.78044 0
M  V30 10128 H 946.99 2.31443 -3.5526 0
M  V30 10129 C 945.449 2.6336 -2.10103 0
M  V30 10130 O 945.979 3.64899 -1.67962 0
M  V30 10131 N 944.185 2.3145 -1.75725 0
M  V30 10132 H 943.732 1.48921 -2.10191 0
M  V30 10133 H 943.69 2.92852 -1.14391 0
M  V30 10134 N 947.462 1.57535 -0.0451378 0
M  V30 10135 C 948.739 1.83785 0.669523 0
M  V30 10136 C 949.119 0.932331 1.89396 0
M  V30 10137 O 948.467 -0.00813229 2.28499 0
M  V30 10138 C 948.677 3.33376 1.03255 0
M  V30 10139 C 950.025 4.00243 1.41741 0
M  V30 10140 O 951.049 3.37965 1.12507 0
M  V30 10141 O 949.908 5.10038 1.96275 0
M  V30 10142 H 947.002 0.758342 0.329919 0
M  V30 10143 H 949.548 1.69538 -0.0740415 0
M  V30 10144 H 948.32 3.90965 0.161777 0
M  V30 10145 H 947.943 3.52787 1.83376 0
M  V30 10146 N 948.94 -0.228186 1.55939 0
M  V30 10147 C 950.351 -0.795734 1.68893 0
M  V30 10148 C 950.702 -1.85261 0.645967 0
M  V30 10149 O 949.827 -2.15434 -0.2042 0
M  V30 10150 C 950.422 -1.45013 3.06197 0
M  V30 10151 C 948.981 -1.96514 3.21028 0
M  V30 10152 C 948.128 -0.822918 2.64808 0
M  V30 10153 H 951.079 -0.0036485 1.587 0
M  V30 10154 H 951.1 -2.31875 3.01685 0
M  V30 10155 H 950.612 -0.680678 3.82084 0
M  V30 10156 H 948.713 -2.76282 2.49998 0
M  V30 10157 H 948.826 -2.14967 4.28166 0
M  V30 10158 H 947.19 -1.22846 2.23116 0
M  V30 10159 H 947.973 -0.0662493 3.43236 0
M  V30 10160 N 950.418 -1.49637 -0.494624 0
M  V30 10161 C 951.664 -1.60654 -1.24747 0
M  V30 10162 C 952.019 -0.292376 -1.90166 0
M  V30 10163 O 951.312 0.707918 -1.78042 0
M  V30 10164 C 951.506 -2.70749 -2.33302 0
M  V30 10165 C 951.335 -4.12744 -1.7853 0
M  V30 10166 C 950.105 -4.79451 -1.59546 0
M  V30 10167 C 952.303 -4.97767 -1.29353 0
M  V30 10168 N 950.285 -6.05738 -0.997702 0
M  V30 10169 C 951.656 -6.14587 -0.817517 0
M  V30 10170 C 953.711 -4.83719 -1.17986 0
M  V30 10171 C 952.414 -7.18903 -0.23907 0
M  V30 10172 C 954.44 -5.8819 -0.615375 0
M  V30 10173 C 953.802 -7.04241 -0.149622 0
M  V30 10174 H 949.901 -0.642198 -0.446213 0
M  V30 10175 H 952.485 -1.86668 -0.553469 0
M  V30 10176 H 950.656 -2.46497 -3.00156 0
M  V30 10177 H 952.388 -2.71253 -3.0034 0
M  V30 10178 H 949.143 -4.36354 -1.84098 0
M  V30 10179 H 949.567 -6.73183 -0.717911 0
M  V30 10180 H 954.209 -3.94304 -1.52592 0
M  V30 10181 H 951.927 -8.08012 0.11925 0
M  V30 10182 H 955.513 -5.7938 -0.530114 0
M  V30 10183 H 954.393 -7.83699 0.280349 0
M  V30 10184 N 951.896 0.746133 -1.38819 0
M  V30 10185 C 952.846 1.85085 -1.33145 0
M  V30 10186 C 953.83 1.59466 -0.214339 0
M  V30 10187 O 955.022 1.71159 -0.450943 0
M  V30 10188 C 952.151 3.22884 -1.16623 0
M  V30 10189 C 951.237 3.54369 -2.32988 0
M  V30 10190 N 951.628 3.56863 -3.58445 0
M  V30 10191 C 949.926 3.84674 -2.25703 0
M  V30 10192 C 950.627 3.85827 -4.3533 0
M  V30 10193 N 949.603 4.03037 -3.64777 0
M  V30 10194 H 953.405 1.85301 -2.28124 0
M  V30 10195 H 950.919 0.943847 -1.32156 0
M  V30 10196 H 952.916 4.0195 -1.10642 0
M  V30 10197 H 951.576 3.23914 -0.225841 0
M  V30 10198 H 952.587 3.38443 -3.92017 0
M  V30 10199 H 949.264 3.93375 -1.39864 0
M  V30 10200 H 950.654 3.94317 -5.44025 0
M  V30 10201 N 953.375 1.23811 0.975125 0
M  V30 10202 C 954.786 1.0675 1.53171 0
M  V30 10203 C 955.137 -0.363475 1.92804 0
M  V30 10204 O 954.262 -1.25089 1.76583 0
M  V30 10205 C 954.857 1.93161 2.78342 0
M  V30 10206 C 953.416 1.80346 3.30382 0
M  V30 10207 C 952.563 1.88544 2.03338 0
M  V30 10208 H 955.514 1.37396 0.79423 0
M  V30 10209 H 955.535 1.45951 3.51395 0
M  V30 10210 H 955.047 2.97302 2.49465 0
M  V30 10211 H 953.148 0.790077 3.64127 0
M  V30 10212 H 953.261 2.64026 3.99784 0
M  V30 10213 H 951.625 1.32186 2.17713 0
M  V30 10214 H 952.408 2.94252 1.76836 0
M  V30 10215 N 954.853 -1.17469 1.05066 0
M  V30 10216 C 956.264 -1.69334 0.786304 0
M  V30 10217 C 956.615 -1.83604 -0.691671 0
M  V30 10218 O 955.74 -1.52269 -1.53763 0
M  V30 10219 C 956.335 -3.07572 1.42074 0
M  V30 10220 C 954.894 -3.56609 1.20446 0
M  V30 10221 C 954.041 -2.329 1.50508 0
M  V30 10222 H 956.992 -1.02003 1.21577 0
M  V30 10223 H 957.013 -3.71352 0.829334 0
M  V30 10224 H 956.525 -2.97154 2.49642 0
M  V30 10225 H 954.626 -3.72306 0.147968 0
M  V30 10226 H 954.739 -4.39446 1.90852 0
M  V30 10227 H 953.103 -2.37305 0.925124 0
M  V30 10228 H 953.886 -2.25093 2.59207 0
M  V30 10229 N 956.331 -0.831506 -1.3388 0
M  V30 10230 C 957.577 -0.424302 -1.98312 0
M  V30 10231 C 957.91 1.01211 -1.65741 0
M  V30 10232 O 957.185 1.70636 -0.933464 0
M  V30 10233 C 957.468 -0.636815 -3.54424 0
M  V30 10234 C 957.321 -2.11997 -3.96708 0
M  V30 10235 C 958.64 -0.0782411 -4.4003 0
M  V30 10236 H 955.759 -0.155637 -0.720379 0
M  V30 10237 H 958.401 -1.04566 -1.58638 0
M  V30 10238 H 956.551 -0.107907 -3.8835 0
M  V30 10239 H 958.223 -2.71317 -3.73075 0
M  V30 10240 H 956.466 -2.60723 -3.46707 0
M  V30 10241 H 957.137 -2.21944 -5.05416 0
M  V30 10242 H 959.613 -0.530243 -4.12708 0
M  V30 10243 H 958.489 -0.256676 -5.483 0
M  V30 10244 H 958.75 1.01745 -4.30233 0
M  V30 10245 N 957.809 1.4625 -0.587256 0
M  V30 10246 C 959.055 2.02662 -0.0746851 0
M  V30 10247 C 959.388 1.45723 1.28368 0
M  V30 10248 O 958.663 0.624062 1.84216 0
M  V30 10249 C 958.946 3.60097 -0.0138109 0
M  V30 10250 C 958.799 4.27412 -1.4014 0
M  V30 10251 C 960.118 4.34744 0.684491 0
M  V30 10252 H 957.237 0.736444 -0.0286144 0
M  V30 10253 H 959.879 1.74341 -0.755328 0
M  V30 10254 H 958.029 3.84357 0.56583 0
M  V30 10255 H 959.701 4.14401 -2.02656 0
M  V30 10256 H 957.944 3.86598 -1.96785 0
M  V30 10257 H 958.615 5.362 -1.31124 0
M  V30 10258 H 961.091 4.15657 0.192023 0
M  V30 10259 H 959.967 5.44468 0.696127 0
M  V30 10260 H 960.228 4.06132 1.74669 0
M  V30 10261 N 959.287 0.325282 1.54207 0
M  V30 10262 C 960.534 -0.276775 2.006 0
M  V30 10263 C 960.862 -1.52007 1.21343 0
M  V30 10264 O 960.117 -1.93627 0.284104 0
M  V30 10265 C 960.416 -0.654292 3.5136 0
M  V30 10266 C 960.082 0.490023 4.48229 0
M  V30 10267 C 958.744 0.804104 4.74434 0
M  V30 10268 C 961.096 1.2586 5.05775 0
M  V30 10269 C 958.424 1.88945 5.55443 0
M  V30 10270 C 960.776 2.33405 5.87967 0
M  V30 10271 C 959.44 2.65393 6.12473 0
M  V30 10272 H 958.71 -0.101279 0.734046 0
M  V30 10273 H 961.357 0.449416 1.86152 0
M  V30 10274 H 959.662 -1.46093 3.63544 0
M  V30 10275 H 961.359 -1.13171 3.84699 0
M  V30 10276 H 957.949 0.235147 4.27954 0
M  V30 10277 H 962.133 1.02921 4.85511 0
M  V30 10278 H 957.389 2.14174 5.7266 0
M  V30 10279 H 961.563 2.93402 6.31576 0
M  V30 10280 H 959.19 3.49622 6.75032 0
M  V30 10281 N 960.765 -1.57509 0.0534917 0
M  V30 10282 C 961.675 -2.15152 -0.935249 0
M  V30 10283 C 962.691 -1.10991 -1.34003 0
M  V30 10284 O 963.867 -1.43171 -1.41648 0
M  V30 10285 C 960.932 -2.68699 -2.19093 0
M  V30 10286 C 959.993 -3.87666 -1.84428 0
M  V30 10287 C 959.226 -4.3865 -3.0401 0
M  V30 10288 O 959.449 -3.887 -4.17455 0
M  V30 10289 O 958.383 -5.30209 -2.84889 0
M  V30 10290 H 962.209 -2.99962 -0.475009 0
M  V30 10291 H 959.794 -1.48446 -0.16854 0
M  V30 10292 H 961.676 -3.03098 -2.92762 0
M  V30 10293 H 960.351 -1.86958 -2.6425 0
M  V30 10294 H 959.258 -3.58151 -1.08068 0
M  V30 10295 H 960.591 -4.70643 -1.44068 0
M  V30 10296 N 962.243 0.219913 -1.56058 0
M  V30 10297 C 963.175 1.29604 -1.89038 0
M  V30 10298 C 964.188 1.42964 -0.778791 0
M  V30 10299 O 965.377 1.43832 -1.0571 0
M  V30 10300 C 962.477 2.67145 -2.08534 0
M  V30 10301 C 961.65 2.75712 -3.39561 0
M  V30 10302 C 960.709 3.94279 -3.48469 0
M  V30 10303 O 959.735 3.8254 -4.21487 0
M  V30 10304 N 960.937 5.08655 -2.79732 0
M  V30 10305 H 963.702 1.01638 -2.81939 0
M  V30 10306 H 961.263 0.409945 -1.56624 0
M  V30 10307 H 963.255 3.44847 -2.11808 0
M  V30 10308 H 961.825 2.87704 -1.2225 0
M  V30 10309 H 961.045 1.84475 -3.48371 0
M  V30 10310 H 962.333 2.78407 -4.25872 0
M  V30 10311 H 961.731 5.21088 -2.2019 0
M  V30 10312 H 960.288 5.84394 -2.88665 0
M  V30 10313 N 963.721 1.49897 0.486681 0
M  V30 10314 C 964.968 1.60105 1.23986 0
M  V30 10315 C 965.296 0.294228 1.92262 0
M  V30 10316 O 964.551 -0.718876 1.82018 0
M  V30 10317 C 964.85 2.71982 2.31863 0
M  V30 10318 C 964.516 4.13 1.80948 0
M  V30 10319 C 963.178 4.51373 1.66782 0
M  V30 10320 C 965.53 5.01198 1.43004 0
M  V30 10321 C 962.858 5.75701 1.13072 0
M  V30 10322 C 965.21 6.26058 0.90742 0
M  V30 10323 C 963.874 6.63247 0.752269 0
M  V30 10324 H 963.144 0.585866 0.453698 0
M  V30 10325 H 965.791 1.83778 0.538305 0
M  V30 10326 H 964.096 2.42336 3.07865 0
M  V30 10327 H 965.793 2.77087 2.89869 0
M  V30 10328 H 962.383 3.82718 1.92937 0
M  V30 10329 H 966.567 4.72196 1.52789 0
M  V30 10330 H 961.823 6.03202 0.997842 0
M  V30 10331 H 965.997 6.9377 0.604684 0
M  V30 10332 H 963.624 7.59466 0.33392 0
M  V30 10333 N 965.199 -0.738761 1.39212 0
M  V30 10334 C 966.129 -1.86602 1.40364 0
M  V30 10335 C 967.11 -1.67984 0.267495 0
M  V30 10336 O 968.295 -1.88358 0.472765 0
M  V30 10337 C 965.425 -3.24308 1.24265 0
M  V30 10338 C 964.379 -3.57557 2.35239 0
M  V30 10339 C 963.705 -4.94159 2.04233 0
M  V30 10340 C 965.005 -3.60914 3.77543 0
M  V30 10341 H 966.699 -1.85896 2.34698 0
M  V30 10342 H 964.245 -0.892959 1.1297 0
M  V30 10343 H 966.198 -4.02838 1.23692 0
M  V30 10344 H 964.922 -3.25531 0.263974 0
M  V30 10345 H 963.581 -2.81354 2.35022 0
M  V30 10346 H 963.229 -4.91959 1.04813 0
M  V30 10347 H 962.929 -5.17373 2.78567 0
M  V30 10348 H 964.453 -5.7505 2.05303 0
M  V30 10349 H 965.867 -4.29528 3.79709 0
M  V30 10350 H 964.264 -3.95644 4.51205 0
M  V30 10351 H 965.334 -2.60803 4.08791 0
M  V30 10352 N 966.677 -1.24326 -0.968545 0
M  V30 10353 C 967.627 -1.00191 -2.04807 0
M  V30 10354 C 968.611 0.0563524 -1.60801 0
M  V30 10355 O 969.803 -0.157268 -1.763 0
M  V30 10356 C 966.932 -0.607749 -3.37878 0
M  V30 10357 C 966.018 -1.70204 -3.88447 0
M  V30 10358 N 966.409 -2.93463 -4.11962 0
M  V30 10359 C 964.707 -1.57936 -4.171 0
M  V30 10360 C 965.408 -3.64397 -4.5342 0
M  V30 10361 N 964.384 -2.91956 -4.58544 0
M  V30 10362 H 968.186 -1.93786 -2.20962 0
M  V30 10363 H 965.7 -1.1444 -1.15227 0
M  V30 10364 H 967.697 -0.416079 -4.14819 0
M  V30 10365 H 966.357 0.321026 -3.23109 0
M  V30 10366 H 967.368 -3.2965 -3.99438 0
M  V30 10367 H 964.045 -0.718552 -4.1127 0
M  V30 10368 H 965.435 -4.70125 -4.80034 0
M  V30 10369 N 968.156 1.1691 -1.05688 0
M  V30 10370 C 969.104 2.2315 -0.656262 0
M  V30 10371 C 970.098 1.66256 0.324873 0
M  V30 10372 O 971.304 1.7899 0.190397 0
M  V30 10373 H 967.679 0.726527 -0.19407 0
M  V30 10374 H 969.65 2.54233 -1.56231 0
M  V30 10375 C 968.399 3.47661 -0.0522431 0
M  V30 10376 H 967.722 3.91749 -0.798299 0
M  V30 10377 H 969.162 4.23571 0.190626 0
M  V30 10378 C 967.621 3.14709 1.20248 0
M  V30 10379 O 968.151 3.29947 2.29124 0
M  V30 10380 N 966.357 2.68892 1.10207 0
M  V30 10381 H 965.904 2.56692 0.216063 0
M  V30 10382 H 965.862 2.47218 1.94244 0
M  V30 10383 N 969.634 0.838594 1.33437 0
M  V30 10384 C 970.582 0.260158 2.31141 0
M  V30 10385 C 971.576 -0.607706 1.58124 0
M  V30 10386 O 972.782 -0.497298 1.72994 0
M  V30 10387 H 969.157 0.0654031 0.74915 0
M  V30 10388 H 971.128 1.09874 2.77435 0
M  V30 10389 C 969.877 -0.550234 3.43319 0
M  V30 10390 H 969.2 0.108262 3.99653 0
M  V30 10391 H 970.64 -0.920815 4.1388 0
M  V30 10392 C 969.099 -1.729 2.89149 0
M  V30 10393 O 969.629 -2.82769 2.85315 0
M  V30 10394 N 967.835 -1.5508 2.45761 0
M  V30 10395 H 967.382 -0.657055 2.49079 0
M  V30 10396 H 967.34 -2.34099 2.0987 0
M  V30 10397 N 971.112 -1.45937 0.595003 0
M  V30 10398 C 972.022 -2.34221 -0.133325 0
M  V30 10399 C 973.038 -1.50491 -0.873407 0
M  V30 10400 O 974.214 -1.83328 -0.833828 0
M  V30 10401 C 971.279 -3.27896 -1.12628 0
M  V30 10402 C 970.34 -4.27529 -0.389532 0
M  V30 10403 C 969.573 -5.16729 -1.33519 0
M  V30 10404 O 969.796 -5.09102 -2.57238 0
M  V30 10405 O 968.73 -5.96023 -0.839084 0
M  V30 10406 H 972.556 -2.97877 0.591861 0
M  V30 10407 H 970.141 -1.45113 0.355329 0
M  V30 10408 H 972.023 -3.85654 -1.69851 0
M  V30 10409 H 970.698 -2.6682 -1.83272 0
M  V30 10410 H 969.605 -3.73424 0.224843 0
M  V30 10411 H 970.938 -4.91425 0.276169 0
M  V30 10412 N 972.59 -0.333456 -1.54032 0
M  V30 10413 C 973.538 0.543414 -2.26163 0
M  V30 10414 C 974.532 1.11037 -1.27934 0
M  V30 10415 O 975.738 1.05727 -1.45677 0
M  V30 10416 H 972.113 0.19391 -0.726569 0
M  V30 10417 H 974.084 -0.0871052 -2.98273 0
M  V30 10418 C 972.833 1.68769 -3.03994 0
M  V30 10419 H 972.156 1.26069 -3.79403 0
M  V30 10420 H 973.596 2.27662 -3.57695 0
M  V30 10421 C 972.055 2.61117 -2.12884 0
M  V30 10422 O 972.585 3.63097 -1.71823 0
M  V30 10423 N 970.791 2.29573 -1.7817 0
M  V30 10424 H 970.338 1.46684 -2.11759 0
M  V30 10425 H 970.296 2.91622 -1.1749 0
M  V30 10426 N 974.068 1.57479 -0.061844 0
M  V30 10427 C 975.317 1.92285 0.609055 0
M  V30 10428 C 975.63 0.942983 1.71369 0
M  V30 10429 O 976.836 1.18349 2.44348 0
M  V30 10430 C 975.292 3.41545 1.13468 0
M  V30 10431 C 974.9 4.47958 0.0615926 0
M  V30 10432 C 976.644 3.85368 1.78022 0
M  V30 10433 C 974.551 5.88341 0.600705 0
M  V30 10434 H 973.481 0.717656 0.23127 0
M  V30 10435 H 976.132 1.83021 -0.132466 0
M  V30 10436 H 974.514 3.45848 1.92886 0
M  V30 10437 H 975.688 4.55258 -0.712527 0
M  V30 10438 H 974.003 4.13541 -0.487116 0
M  V30 10439 H 976.6 4.87627 2.19371 0
M  V30 10440 H 976.943 3.22193 2.63623 0
M  V30 10441 H 977.476 3.83626 1.05242 0
M  V30 10442 H 974.215 6.55138 -0.217922 0
M  V30 10443 H 973.735 5.84581 1.34257 0
M  V30 10444 H 975.414 6.37918 1.08025 0
M  V30 10445 N 975.546 -0.211634 1.56173 0
M  V30 10446 C 976.456 -1.2831 1.96402 0
M  V30 10447 C 977.472 -1.50731 0.869254 0
M  V30 10448 O 978.648 -1.63669 1.17365 0
M  V30 10449 C 975.713 -2.61084 2.28114 0
M  V30 10450 C 974.774 -2.46879 3.51211 0
M  V30 10451 C 974.007 -3.73321 3.81401 0
M  V30 10452 O 974.23 -4.76773 3.13119 0
M  V30 10453 O 973.164 -3.69839 4.74871 0
M  V30 10454 H 976.99 -0.971733 2.87734 0
M  V30 10455 H 974.575 -0.415305 1.43512 0
M  V30 10456 H 976.457 -3.39481 2.49661 0
M  V30 10457 H 975.132 -2.91881 1.39954 0
M  V30 10458 H 974.039 -1.66648 3.34932 0
M  V30 10459 H 975.372 -2.21018 4.39786 0
M  V30 10460 N 977.024 -1.50153 -0.478725 0
M  V30 10461 C 977.972 -1.68975 -1.59844 0
M  V30 10462 C 978.966 -0.555591 -1.6003 0
M  V30 10463 O 980.172 -0.735875 -1.64271 0
M  V30 10464 H 976.547 -0.533211 -0.530274 0
M  V30 10465 H 978.518 -2.62917 -1.41128 0
M  V30 10466 C 977.267 -1.79409 -2.97838 0
M  V30 10467 H 976.59 -2.66066 -2.98411 0
M  V30 10468 H 978.03 -1.96606 -3.75662 0
M  V30 10469 C 976.489 -0.543927 -3.3248 0
M  V30 10470 O 977.019 0.320376 -4.0042 0
M  V30 10471 N 975.225 -0.400217 -2.87831 0
M  V30 10472 H 974.772 -1.10458 -2.32716 0
M  V30 10473 H 974.73 0.435111 -3.11375 0
M  V30 10474 N 978.502 0.731368 -1.39602 0
M  V30 10475 C 979.412 1.87579 -1.40894 0
M  V30 10476 C 980.428 1.71336 -0.303319 0
M  V30 10477 O 981.604 1.93875 -0.545377 0
M  V30 10478 C 978.669 3.23211 -1.25442 0
M  V30 10479 C 977.73 3.51822 -2.46008 0
M  V30 10480 C 976.963 4.80982 -2.31284 0
M  V30 10481 O 977.186 5.54958 -1.31824 0
M  V30 10482 O 976.12 5.09574 -3.20341 0
M  V30 10483 H 979.946 1.89444 -2.3737 0
M  V30 10484 H 977.531 0.879675 -1.20756 0
M  V30 10485 H 979.413 4.04257 -1.18972 0
M  V30 10486 H 978.088 3.22108 -0.320637 0
M  V30 10487 H 976.995 2.70847 -2.58055 0
M  V30 10488 H 978.328 3.57707 -3.38093 0
M  V30 10489 N 979.98 1.24838 0.961938 0
M  V30 10490 C 981.257 0.99939 1.68141 0
M  V30 10491 C 981.637 -0.476588 2.0565 0
M  V30 10492 O 980.985 -1.45224 1.76415 0
M  V30 10493 C 981.195 1.92797 2.90913 0
M  V30 10494 C 982.543 2.20219 3.63027 0
M  V30 10495 O 983.567 1.90496 3.00981 0
M  V30 10496 O 982.426 2.70725 4.74731 0
M  V30 10497 H 979.52 0.37842 0.735342 0
M  V30 10498 H 982.066 1.35961 1.01551 0
M  V30 10499 H 980.838 2.92492 2.59931 0
M  V30 10500 H 980.461 1.57127 3.65235 0
M  V30 10501 N 981.458 -1.16348 1.06306 0
M  V30 10502 C 982.388 -2.2291 0.695234 0
M  V30 10503 C 983.369 -1.67208 -0.312343 0
M  V30 10504 O 984.554 -1.93293 -0.187442 0
M  V30 10505 C 981.684 -3.47205 0.0810149 0
M  V30 10506 C 980.638 -4.15801 1.01458 0
M  V30 10507 C 979.964 -5.3405 0.263656 0
M  V30 10508 C 981.264 -4.66766 2.34365 0
M  V30 10509 H 982.958 -2.53934 1.58613 0
M  V30 10510 H 980.504 -1.22056 0.76409 0
M  V30 10511 H 982.457 -4.2098 -0.18818 0
M  V30 10512 H 981.181 -3.15482 -0.844897 0
M  V30 10513 H 979.84 -3.43954 1.26852 0
M  V30 10514 H 979.488 -4.9858 -0.665378 0
M  V30 10515 H 979.188 -5.80885 0.88582 0
M  V30 10516 H 980.712 -6.106 0.00200994 0
M  V30 10517 H 982.126 -5.3212 2.13356 0
M  V30 10518 H 980.523 -5.24223 2.9208 0
M  V30 10519 H 981.593 -3.82969 2.97426 0
M  V30 10520 N 982.937 -0.845659 -1.3299 0
M  V30 10521 C 984.183 -0.445311 -1.9785 0
M  V30 10522 C 984.516 0.994476 -1.66805 0
M  V30 10523 O 983.791 1.69636 -0.95151 0
M  V30 10524 C 984.074 -0.674371 -3.53729 0
M  V30 10525 C 983.927 -2.16192 -3.94437 0
M  V30 10526 C 985.246 -0.124908 -4.39923 0
M  V30 10527 H 982.365 -0.163269 -0.718688 0
M  V30 10528 H 985.007 -1.06242 -1.5752 0
M  V30 10529 H 983.157 -0.149091 -3.88214 0
M  V30 10530 H 984.829 -2.75259 -3.70176 0
M  V30 10531 H 983.072 -2.64386 -3.43922 0
M  V30 10532 H 983.743 -2.27292 -5.03033 0
M  V30 10533 H 986.219 -0.573986 -4.12122 0
M  V30 10534 H 985.095 -0.314816 -5.47996 0
M  V30 10535 H 985.356 0.971758 -4.31288 0
M  V30 10536 N 984.415 1.45619 -0.602734 0
M  V30 10537 C 985.378 2.28941 0.108962 0
M  V30 10538 C 986.378 1.39501 0.799762 0
M  V30 10539 O 987.568 1.61673 0.648663 0
M  V30 10540 C 984.7 3.204 1.16432 0
M  V30 10541 H 985.893 2.93346 -0.623534 0
M  V30 10542 H 983.446 1.52061 -0.361565 0
M  V30 10543 H 984.181 2.60785 1.92774 0
M  V30 10544 H 983.966 3.86277 0.673248 0
M  V30 10545 H 985.456 3.83063 1.6629 0
M  V30 10546 N 985.893 0.34162 1.53853 0
M  V30 10547 C 987.139 -0.248546 2.01876 0
M  V30 10548 C 987.494 -1.48352 1.22513 0
M  V30 10549 O 986.787 -1.89174 0.303919 0
M  V30 10550 C 986.981 -0.616989 3.52034 0
M  V30 10551 C 986.81 0.580727 4.45935 0
M  V30 10552 C 985.58 1.08544 4.93504 0
M  V30 10553 C 987.778 1.43858 4.93771 0
M  V30 10554 N 985.76 2.24568 5.71351 0
M  V30 10555 C 987.131 2.44575 5.69722 0
M  V30 10556 C 989.186 1.46425 4.75882 0
M  V30 10557 C 987.889 3.47687 6.29688 0
M  V30 10558 C 989.915 2.48416 5.36697 0
M  V30 10559 C 989.277 3.4786 6.12514 0
M  V30 10560 H 985.376 -0.0543067 0.780112 0
M  V30 10561 H 987.96 0.480749 1.88671 0
M  V30 10562 H 986.131 -1.31539 3.65448 0
M  V30 10563 H 987.863 -1.19018 3.86803 0
M  V30 10564 H 984.618 0.653832 4.69065 0
M  V30 10565 H 985.042 2.83143 6.14946 0
M  V30 10566 H 989.684 0.709044 4.16812 0
M  V30 10567 H 987.402 4.24103 6.87868 0
M  V30 10568 H 990.988 2.51227 5.24763 0
M  V30 10569 H 989.868 4.25486 6.58734 0
M  V30 10570 N 987.371 -1.57444 0.0701946 0
M  V30 10571 C 988.617 -1.93716 -0.600178 0
M  V30 10572 C 988.95 -0.950329 -1.69359 0
M  V30 10573 O 988.225 0.0207123 -1.94489 0
M  V30 10574 C 988.508 -3.40266 -1.17861 0
M  V30 10575 C 988.361 -4.49706 -0.0919575 0
M  V30 10576 C 989.68 -3.87599 -2.08459 0
M  V30 10577 H 986.799 -0.704421 -0.216704 0
M  V30 10578 H 989.441 -1.89514 0.135838 0
M  V30 10579 H 987.591 -3.43977 -1.80587 0
M  V30 10580 H 989.263 -4.58116 0.541031 0
M  V30 10581 H 987.506 -4.29937 0.577639 0
M  V30 10582 H 988.177 -5.49381 -0.537048 0
M  V30 10583 H 990.653 -3.85883 -1.5567 0
M  V30 10584 H 989.529 -4.90755 -2.45867 0
M  V30 10585 H 989.79 -3.25448 -2.99226 0
M  V30 10586 N 988.849 0.203349 -1.56283 0
M  V30 10587 C 990.077 0.941426 -1.84241 0
M  V30 10588 C 990.492 1.77197 -0.651658 0
M  V30 10589 O 989.849 1.78506 0.379713 0
M  V30 10590 C 989.9 1.84429 -3.10915 0
M  V30 10591 O 989.621 1.04729 -4.25398 0
M  V30 10592 C 991.122 2.69474 -3.51993 0
M  V30 10593 H 988.342 0.27507 -0.612027 0
M  V30 10594 H 990.886 0.213088 -2.03387 0
M  V30 10595 H 989.041 2.52635 -2.93691 0
M  V30 10596 H 989.455 1.66179 -4.97478 0
M  V30 10597 H 990.929 3.28495 -4.43616 0
M  V30 10598 H 991.406 3.42775 -2.74594 0
M  V30 10599 H 992.012 2.06652 -3.71719 0
M  V30 10600 N 990.327 1.50405 0.470755 0
M  V30 10601 C 991.573 1.6165 1.22462 0
M  V30 10602 C 991.906 0.316034 1.91611 0
M  V30 10603 O 991.181 -0.682509 1.82132 0
M  V30 10604 C 991.464 2.79702 2.26801 0
M  V30 10605 C 991.317 4.19631 1.61955 0
M  V30 10606 C 992.636 2.93313 3.28109 0
M  V30 10607 H 989.755 0.588345 0.443868 0
M  V30 10608 H 992.397 1.82792 0.518376 0
M  V30 10609 H 990.547 2.61807 2.87036 0
M  V30 10610 H 992.219 4.49117 1.05316 0
M  V30 10611 H 990.462 4.23874 0.922674 0
M  V30 10612 H 991.133 4.98162 2.37779 0
M  V30 10613 H 993.609 3.09697 2.77897 0
M  V30 10614 H 992.485 3.77537 3.98443 0
M  V30 10615 H 992.746 2.03942 3.9225 0
M  V30 10616 N 991.805 -0.723954 1.39988 0
M  V30 10617 C 993.053 -1.48078 1.3754 0
M  V30 10618 C 993.374 -1.94985 -0.0243358 0
M  V30 10619 O 992.644 -1.69764 -0.977602 0
M  V30 10620 H 991.224 -0.549354 0.506181 0
M  V30 10621 H 993.886 -0.858746 1.74962 0
M  V30 10622 H 992.982 -2.35763 2.04505 0
M  V30 10623 N 993.283 -1.25346 -0.955304 0
M  V30 10624 C 994.53 -1.10055 -1.69983 0
M  V30 10625 C 994.858 0.358586 -1.91166 0
M  V30 10626 O 994.113 1.28071 -1.47974 0
M  V30 10627 C 994.412 -1.7993 -3.08804 0
M  V30 10628 C 994.078 -3.29851 -3.07424 0
M  V30 10629 C 992.74 -3.7075 -3.06754 0
M  V30 10630 C 995.092 -4.25636 -3.00805 0
M  V30 10631 C 992.42 -5.05847 -2.97214 0
M  V30 10632 C 994.772 -5.60756 -2.92806 0
M  V30 10633 C 993.436 -6.00984 -2.90472 0
M  V30 10634 H 992.706 -0.402718 -0.622012 0
M  V30 10635 H 995.353 -1.5561 -1.11614 0
M  V30 10636 H 993.658 -1.26803 -3.70713 0
M  V30 10637 H 995.355 -1.65551 -3.65231 0
M  V30 10638 H 991.945 -2.97308 -3.08716 0
M  V30 10639 H 996.129 -3.9503 -3.00441 0
M  V30 10640 H 991.385 -5.36196 -2.93775 0
M  V30 10641 H 995.559 -6.34671 -2.86645 0
M  V30 10642 H 993.186 -7.05626 -2.82835 0
M  V30 10643 N 994.761 1.15782 -1.06922 0
M  V30 10644 C 995.691 2.22538 -0.707045 0
M  V30 10645 C 996.672 1.67371 0.303471 0
M  V30 10646 O 997.857 1.9339 0.177189 0
M  V30 10647 C 994.987 3.47158 -0.0994269 0
M  V30 10648 C 993.941 4.15257 -1.03661 0
M  V30 10649 C 993.267 5.33902 -0.291974 0
M  V30 10650 C 994.567 4.65516 -2.36837 0
M  V30 10651 H 996.261 2.53089 -1.59958 0
M  V30 10652 H 993.807 1.21649 -0.770552 0
M  V30 10653 H 995.76 4.21073 0.165852 0
M  V30 10654 H 994.484 3.15926 0.828155 0
M  V30 10655 H 993.143 3.43276 -1.28674 0
M  V30 10656 H 992.791 4.98926 0.638928 0
M  V30 10657 H 992.491 5.80407 -0.916613 0
M  V30 10658 H 994.015 6.1059 -0.0343915 0
M  V30 10659 H 995.429 5.30981 -2.16175 0
M  V30 10660 H 993.826 5.22666 -2.94856 0
M  V30 10661 H 994.896 3.81387 -2.99453 0
M  V30 10662 N 996.239 0.8527 1.3254 0
M  V30 10663 C 997.189 0.267711 2.26423 0
M  V30 10664 C 998.173 -0.585305 1.49877 0
M  V30 10665 O 999.365 -0.435008 1.71571 0
M  V30 10666 C 996.494 -0.544605 3.38953 0
M  V30 10667 C 995.58 0.32069 4.22886 0
M  V30 10668 N 995.971 1.40601 4.85865 0
M  V30 10669 C 994.269 0.110101 4.45864 0
M  V30 10670 C 994.97 1.93819 5.48461 0
M  V30 10671 N 993.946 1.23764 5.29324 0
M  V30 10672 H 997.748 1.09747 2.7264 0
M  V30 10673 H 995.262 0.698607 1.46606 0
M  V30 10674 H 997.259 -0.98009 4.05216 0
M  V30 10675 H 995.919 -1.37218 2.94281 0
M  V30 10676 H 996.93 1.78894 4.86022 0
M  V30 10677 H 993.607 -0.682917 4.11877 0
M  V30 10678 H 994.997 2.84783 6.08562 0
M  V30 10679 N 997.718 -1.45297 0.610449 0
M  V30 10680 C 998.967 -2.0143 0.104323 0
M  V30 10681 C 999.28 -1.48431 -1.27388 0
M  V30 10682 O 1000.49 -1.96558 -1.87289 0
M  V30 10683 C 998.942 -3.59644 0.135812 0
M  V30 10684 C 998.55 -4.2164 1.51405 0
M  V30 10685 C 1000.29 -4.2333 -0.314922 0
M  V30 10686 C 998.201 -5.72015 1.50176 0
M  V30 10687 H 997.131 -0.753176 0.035233 0
M  V30 10688 H 999.782 -1.66738 0.7662 0
M  V30 10689 H 998.164 -3.91538 -0.592773 0
M  V30 10690 H 999.338 -4.01315 2.26457 0
M  V30 10691 H 997.653 -3.70159 1.90712 0
M  V30 10692 H 1000.25 -5.33597 -0.343335 0
M  V30 10693 H 1000.59 -3.94206 -1.33817 0
M  V30 10694 H 1001.13 -3.96163 0.360489 0
M  V30 10695 H 997.865 -6.05842 2.50271 0
M  V30 10696 H 997.385 -5.94523 0.793869 0
M  V30 10697 H 999.064 -6.35266 1.22665 0
M  V30 10698 N 999.196 -0.349774 -1.5367 0
M  V30 10699 C 1000.61 0.132815 -1.86227 0
M  V30 10700 C 1000.96 1.49479 -1.27084 0
M  V30 10701 O 1000.08 2.08292 -0.58679 0
M  V30 10702 C 1000.68 0.247775 -3.37893 0
M  V30 10703 C 999.237 0.674603 -3.70305 0
M  V30 10704 C 998.384 -0.187869 -2.76663 0
M  V30 10705 H 1001.33 -0.569148 -1.48143 0
M  V30 10706 H 1001.36 1.07418 -3.65023 0
M  V30 10707 H 1000.87 -0.743635 -3.80909 0
M  V30 10708 H 998.969 1.67481 -3.32837 0
M  V30 10709 H 999.082 0.460177 -4.76885 0
M  V30 10710 H 997.446 0.340779 -2.5241 0
M  V30 10711 H 998.229 -1.17653 -3.2251 0
M  V30 10712 N 1000.67 1.57404 -0.0785433 0
M  V30 10713 C 1001.62 2.09632 0.896565 0
M  V30 10714 C 1002.61 1.00754 1.25449 0
M  V30 10715 O 1003.8 1.27053 1.23234 0
M  V30 10716 C 1000.93 2.66694 2.16169 0
M  V30 10717 C 1000.01 3.82588 1.82994 0
M  V30 10718 N 1000.41 4.91286 1.203 0
M  V30 10719 C 998.704 3.92011 2.12704 0
M  V30 10720 C 999.405 5.72077 1.05367 0
M  V30 10721 N 998.381 5.20567 1.56559 0
M  V30 10722 H 1002.18 2.9106 0.407621 0
M  V30 10723 H 999.697 1.61917 0.125155 0
M  V30 10724 H 1001.69 3.0243 2.86952 0
M  V30 10725 H 1000.35 1.86716 2.65645 0
M  V30 10726 H 1001.36 5.10509 0.871817 0
M  V30 10727 H 998.042 3.23018 2.6451 0
M  V30 10728 H 999.432 6.69523 0.564685 0
M  V30 10729 N 1002.15 -0.195058 1.56388 0
M  V30 10730 C 1003.38 -0.935745 1.85091 0
M  V30 10731 C 1003.8 -1.76061 0.662118 0
M  V30 10732 O 1003.16 -1.77076 -0.389083 0
M  V30 10733 C 1003.21 -1.80764 3.1202 0
M  V30 10734 O 1002.31 -2.90643 2.92575 0
M  V30 10735 H 1001.65 -0.26351 0.609474 0
M  V30 10736 H 1004.18 -0.200362 2.03617 0
M  V30 10737 H 1004.19 -2.21229 3.42815 0
M  V30 10738 H 1002.87 -1.20157 3.98165 0
M  V30 10739 H 1001.44 -2.53934 2.73079 0
M  V30 10740 N 1003.63 -1.50653 -0.462772 0
M  V30 10741 C 1004.54 -1.72923 -1.58539 0
M  V30 10742 C 1005.56 -0.612577 -1.6286 0
M  V30 10743 O 1006.73 -0.891885 -1.80575 0
M  V30 10744 C 1003.8 -1.82623 -2.94703 0
M  V30 10745 C 1002.86 -3.06392 -3.00704 0
M  V30 10746 C 1002.09 -3.15618 -4.30373 0
M  V30 10747 O 1002.31 -2.31423 -5.21344 0
M  V30 10748 O 1001.25 -4.0841 -4.42136 0
M  V30 10749 H 1005.07 -2.68103 -1.42669 0
M  V30 10750 H 1002.66 -1.34848 -0.643144 0
M  V30 10751 H 1004.54 -1.91134 -3.7556 0
M  V30 10752 H 1003.22 -0.906275 -3.10754 0
M  V30 10753 H 1002.12 -3.03375 -2.18894 0
M  V30 10754 H 1003.46 -3.97992 -2.89591 0
M  V30 10755 N 1005.11 0.71652 -1.4037 0
M  V30 10756 C 1006.39 1.46947 -1.29097 0
M  V30 10757 C 1006.77 2.10903 0.0911182 0
M  V30 10758 O 1006.11 2.00068 1.10385 0
M  V30 10759 C 1006.32 2.50594 -2.42907 0
M  V30 10760 C 1007.67 3.16451 -2.83097 0
M  V30 10761 O 1008.7 2.60913 -2.42493 0
M  V30 10762 O 1007.55 4.16991 -3.53244 0
M  V30 10763 H 1004.65 0.653413 -0.506932 0
M  V30 10764 H 1007.19 0.748774 -1.52287 0
M  V30 10765 H 1005.97 2.01843 -3.35224 0
M  V30 10766 H 1005.59 3.302 -2.21481 0
M  V30 10767 N 1006.59 1.25851 0.948643 0
M  V30 10768 C 1007.84 1.10347 1.68838 0
M  V30 10769 C 1008.15 -0.354262 1.92365 0
M  V30 10770 O 1009.35 -0.629847 2.64093 0
M  V30 10771 C 1007.81 1.92659 3.03991 0
M  V30 10772 C 1007.42 3.42962 2.88238 0
M  V30 10773 C 1009.16 1.85743 3.81707 0
M  V30 10774 C 1007.07 4.17547 4.18818 0
M  V30 10775 H 1006 0.409342 0.63321 0
M  V30 10776 H 1008.65 1.50098 1.05559 0
M  V30 10777 H 1007.03 1.45736 3.68208 0
M  V30 10778 H 1008.21 3.97601 2.32917 0
M  V30 10779 H 1006.52 3.51035 2.23972 0
M  V30 10780 H 1009.12 2.38758 4.78434 0
M  V30 10781 H 1009.46 0.826568 4.08012 0
M  V30 10782 H 1009.99 2.30449 3.2425 0
M  V30 10783 H 1006.73 5.21072 3.97699 0
M  V30 10784 H 1006.25 3.6769 4.73882 0
M  V30 10785 H 1007.93 4.25589 4.87322 0
M  V30 10786 N 1008.06 -1.15214 1.07534 0
M  V30 10787 C 1009.48 -1.67628 0.822045 0
M  V30 10788 C 1009.83 -1.8503 -0.652571 0
M  V30 10789 O 1008.95 -1.55497 -1.50498 0
M  V30 10790 C 1009.55 -3.04489 1.48566 0
M  V30 10791 C 1008.11 -3.53974 1.27983 0
M  V30 10792 C 1007.25 -2.29656 1.55414 0
M  V30 10793 H 1010.2 -0.994016 1.23713 0
M  V30 10794 H 1010.22 -3.69509 0.907916 0
M  V30 10795 H 1009.74 -2.91792 2.55888 0
M  V30 10796 H 1007.84 -3.71908 0.226906 0
M  V30 10797 H 1007.95 -4.35298 2.0013 0
M  V30 10798 H 1006.31 -2.35289 0.975251 0
M  V30 10799 H 1007.1 -2.19544 2.63923 0
M  V30 10800 N 1009.54 -0.859717 -1.32086 0
M  V30 10801 C 1010.49 -0.296897 -2.30697 0
M  V30 10802 C 1011.48 0.582473 -1.59071 0
M  V30 10803 O 1012.69 0.469713 -1.73763 0
M  V30 10804 H 1009.07 -0.0773132 -0.748015 0
M  V30 10805 H 1011.04 -1.14273 -2.75652 0
M  V30 10806 C 1009.79 0.495546 -3.44151 0
M  V30 10807 H 1009.11 -0.171829 -3.99431 0
M  V30 10808 H 1010.55 0.854854 -4.15293 0
M  V30 10809 C 1009.01 1.68278 -2.91863 0
M  V30 10810 O 1009.54 2.78194 -2.89777 0
M  V30 10811 N 1007.74 1.51151 -2.48197 0
M  V30 10812 H 1007.29 0.617345 -2.50093 0
M  V30 10813 H 1007.25 2.3073 -2.13567 0
M  V30 10814 N 1011.02 1.44971 -0.618145 0
M  V30 10815 C 1012.25 2.06527 -0.124165 0
M  V30 10816 C 1012.66 1.46097 1.19588 0
M  V30 10817 O 1012.02 0.57901 1.73071 0
M  V30 10818 C 1012.07 3.61498 0.0106701 0
M  V30 10819 O 1011.79 4.19675 -1.25716 0
M  V30 10820 C 1013.29 4.40061 0.534872 0
M  V30 10821 H 1010.51 0.666941 -0.0736935 0
M  V30 10822 H 1013.06 1.8605 -0.848871 0
M  V30 10823 H 1011.21 3.81282 0.685752 0
M  V30 10824 H 1011.63 5.12972 -1.09362 0
M  V30 10825 H 1013.1 5.48963 0.57827 0
M  V30 10826 H 1013.58 4.10587 1.55931 0
M  V30 10827 H 1014.18 4.25167 -0.10652 0
M  V30 10828 N 1012.5 0.357919 1.53482 0
M  V30 10829 C 1013.46 -0.479797 2.24122 0
M  V30 10830 C 1014.46 -1.01596 1.24639 0
M  V30 10831 O 1015.65 -0.902928 1.48973 0
M  V30 10832 C 1012.78 -1.66983 2.97203 0
M  V30 10833 H 1013.98 0.138219 2.99581 0
M  V30 10834 H 1011.53 0.109484 1.55916 0
M  V30 10835 H 1012.26 -2.32615 2.25966 0
M  V30 10836 H 1012.05 -1.29242 3.70188 0
M  V30 10837 H 1013.54 -2.26367 3.50924 0
M  V30 10838 N 1013.98 -1.5736 0.0868897 0
M  V30 10839 C 1015.2 -1.98388 -0.587349 0
M  V30 10840 C 1015.62 -0.965757 -1.6223 0
M  V30 10841 O 1014.98 0.0456981 -1.82443 0
M  V30 10842 C 1015.03 -3.39479 -1.24242 0
M  V30 10843 O 1014.75 -4.37393 -0.248878 0
M  V30 10844 C 1016.25 -3.95465 -2.00305 0
M  V30 10845 H 1013.47 -0.652111 -0.15809 0
M  V30 10846 H 1016.01 -2.03843 0.163754 0
M  V30 10847 H 1014.17 -3.35063 -1.94451 0
M  V30 10848 H 1014.58 -5.19525 -0.720678 0
M  V30 10849 H 1016.06 -4.96363 -2.41511 0
M  V30 10850 H 1016.53 -3.32832 -2.86565 0
M  V30 10851 H 1017.14 -4.03328 -1.34931 0
M  V30 10852 N 1015.45 0.186762 -1.56489 0
M  V30 10853 C 1016.87 0.750675 -1.70944 0
M  V30 10854 C 1017.22 1.83483 -0.694858 0
M  V30 10855 O 1016.34 2.159 0.147009 0
M  V30 10856 C 1016.94 1.36843 -3.09934 0
M  V30 10857 C 1015.5 1.87934 -3.26125 0
M  V30 10858 C 1014.64 0.75242 -2.66897 0
M  V30 10859 H 1017.59 -0.0384292 -1.58653 0
M  V30 10860 H 1017.61 2.23795 -3.07727 0
M  V30 10861 H 1017.13 0.579135 -3.83755 0
M  V30 10862 H 1015.23 2.69556 -2.57235 0
M  V30 10863 H 1015.34 2.0354 -4.33715 0
M  V30 10864 H 1013.7 1.16888 -2.26295 0
M  V30 10865 H 1014.49 -0.0247769 -3.43291 0
M  V30 10866 N 1016.93 1.50896 0.454776 0
M  V30 10867 C 1018.18 1.62378 1.20324 0
M  V30 10868 C 1018.5 0.333883 1.9212 0
M  V30 10869 O 1017.77 -0.649477 1.8482 0
M  V30 10870 H 1016.35 0.598395 0.447139 0
M  V30 10871 H 1019.01 1.87749 0.523102 0
M  V30 10872 H 1018.11 2.44296 1.94232 0
M  V30 10873 N 1018.41 -0.709066 1.40748 0
M  V30 10874 C 1019.36 -1.84445 1.41714 0
M  V30 10875 C 1020.35 -1.66779 0.296818 0
M  V30 10876 O 1021.56 -1.73805 0.468181 0
M  V30 10877 H 1017.93 -0.607581 0.443114 0
M  V30 10878 H 1019.9 -1.80747 2.3743 0
M  V30 10879 C 1018.65 -3.22362 1.303 0
M  V30 10880 H 1017.98 -3.36565 2.15787 0
M  V30 10881 H 1019.42 -4.01922 1.35036 0
M  V30 10882 C 1017.88 -3.36897 0.0139015 0
M  V30 10883 O 1018.41 -3.90389 -0.946553 0
M  V30 10884 N 1016.61 -2.90543 -0.0577491 0
M  V30 10885 H 1016.16 -2.472 0.724574 0
M  V30 10886 H 1016.12 -3.00647 -0.919721 0
M  V30 10887 N 1019.89 -1.26353 -0.941956 0
M  V30 10888 C 1021.11 -1.14731 -1.72776 0
M  V30 10889 C 1021.54 0.293766 -1.85792 0
M  V30 10890 O 1020.9 1.21284 -1.34759 0
M  V30 10891 C 1020.95 -1.82041 -3.11277 0
M  V30 10892 O 1020.05 -1.10867 -3.97218 0
M  V30 10893 H 1019.39 -0.399823 -0.53013 0
M  V30 10894 H 1021.92 -1.67157 -1.17981 0
M  V30 10895 H 1021.93 -1.88834 -3.61671 0
M  V30 10896 H 1020.61 -2.86879 -3.0112 0
M  V30 10897 H 1019.18 -1.12044 -3.55669 0
M  V30 10898 N 1021.37 1.14642 -1.08144 0
M  V30 10899 C 1022.61 1.85892 -0.810683 0
M  V30 10900 C 1022.95 1.82575 0.661821 0
M  V30 10901 O 1022.22 1.25454 1.48632 0
M  V30 10902 C 1022.5 3.34647 -1.32979 0
M  V30 10903 C 1022.36 3.46551 -2.86744 0
M  V30 10904 C 1023.68 4.29661 -0.952864 0
M  V30 10905 H 1020.8 0.674963 -0.295963 0
M  V30 10906 H 1023.44 1.3464 -1.3406 0
M  V30 10907 H 1021.59 3.78425 -0.87903 0
M  V30 10908 H 1023.26 3.11579 -3.40171 0
M  V30 10909 H 1021.5 2.87849 -3.24539 0
M  V30 10910 H 1022.17 4.51101 -3.18138 0
M  V30 10911 H 1024.65 3.93885 -1.34141 0
M  V30 10912 H 1023.53 5.32209 -1.34331 0
M  V30 10913 H 1023.79 4.41877 0.140392 0
M  V30 10914 N 1022.85 0.866709 1.31628 0
M  V30 10915 C 1024.09 0.475086 1.96437 0
M  V30 10916 C 1024.41 -0.975179 1.68865 0
M  V30 10917 O 1023.68 -1.68317 1.0023 0
M  V30 10918 H 1022.26 0.172695 0.726764 0
M  V30 10919 H 1024.93 1.10578 1.60494 0
M  V30 10920 H 1024.02 0.630123 3.05673 0
M  V30 10921 N 1024.32 -1.44642 0.625825 0
M  V30 10922 C 1025.57 -2.02094 0.128201 0
M  V30 10923 C 1025.9 -1.49181 -1.24801 0
M  V30 10924 O 1025.15 -0.663965 -1.84092 0
M  V30 10925 C 1025.45 -3.57352 0.0584381 0
M  V30 10926 C 1025.12 -4.29496 1.37272 0
M  V30 10927 C 1023.78 -4.48922 1.7327 0
M  V30 10928 C 1026.13 -4.70586 2.2405 0
M  V30 10929 C 1023.46 -5.06697 2.95762 0
M  V30 10930 C 1025.81 -5.29717 3.45807 0
M  V30 10931 C 1024.48 -5.47363 3.82034 0
M  V30 10932 H 1023.75 -0.739514 0.0469122 0
M  V30 10933 H 1026.39 -1.73475 0.811083 0
M  V30 10934 H 1024.7 -3.85354 -0.707791 0
M  V30 10935 H 1026.4 -3.9953 -0.34303 0
M  V30 10936 H 1022.99 -4.14702 1.08258 0
M  V30 10937 H 1027.17 -4.55295 1.97535 0
M  V30 10938 H 1022.43 -5.18546 3.23913 0
M  V30 10939 H 1026.6 -5.60507 4.13286 0
M  V30 10940 H 1024.23 -5.91898 4.77033 0
M  V30 10941 N 1025.8 -0.366053 -1.5329 0
M  V30 10942 C 1026.73 0.47211 -2.28677 0
M  V30 10943 C 1027.71 1.08353 -1.31125 0
M  V30 10944 O 1028.9 1.10069 -1.59995 0
M  V30 10945 C 1026.03 1.61174 -3.07637 0
M  V30 10946 C 1024.98 1.12755 -4.12881 0
M  V30 10947 C 1024.31 2.35745 -4.79925 0
M  V30 10948 C 1025.61 0.211954 -5.2187 0
M  V30 10949 H 1027.3 -0.156838 -2.98989 0
M  V30 10950 H 1024.85 -0.0768709 -1.43795 0
M  V30 10951 H 1026.8 2.20473 -3.59123 0
M  V30 10952 H 1025.52 2.26793 -2.35016 0
M  V30 10953 H 1024.18 0.557234 -3.6234 0
M  V30 10954 H 1023.83 2.99821 -4.03877 0
M  V30 10955 H 1023.53 2.04019 -5.51044 0
M  V30 10956 H 1025.06 2.95729 -5.34207 0
M  V30 10957 H 1026.47 0.71244 -5.68856 0
M  V30 10958 H 1024.87 -0.0144501 -6.00098 0
M  V30 10959 H 1025.94 -0.745753 -4.79131 0
M  V30 10960 N 1027.28 1.57312 -0.0952337 0
M  V30 10961 C 1028.21 2.17056 0.860753 0
M  V30 10962 C 1029.19 1.10394 1.29411 0
M  V30 10963 O 1030.38 1.38532 1.36098 0
M  V30 10964 C 1027.51 2.751 2.11984 0
M  V30 10965 C 1026.46 3.87136 1.8251 0
M  V30 10966 C 1025.79 4.31883 3.15247 0
M  V30 10967 C 1027.09 5.10326 1.11194 0
M  V30 10968 H 1028.78 2.97192 0.362983 0
M  V30 10969 H 1026.33 1.42955 0.173151 0
M  V30 10970 H 1028.28 3.15547 2.79299 0
M  V30 10971 H 1027 1.92219 2.64044 0
M  V30 10972 H 1025.66 3.47229 1.17592 0
M  V30 10973 H 1025.31 3.45893 3.65195 0
M  V30 10974 H 1025.01 5.0742 2.96309 0
M  V30 10975 H 1026.53 4.74964 3.83721 0
M  V30 10976 H 1027.95 5.47942 1.6862 0
M  V30 10977 H 1026.34 5.91293 1.02435 0
M  V30 10978 H 1027.41 4.84807 0.0947227 0
M  V30 10979 N 1028.76 -0.17846 1.56586 0
M  V30 10980 C 1030.17 -0.529957 1.50544 0
M  V30 10981 C 1030.37 -1.85015 0.798237 0
M  V30 10982 O 1029.43 -2.49983 0.355639 0
M  V30 10983 C 1030.74 -0.569314 2.95261 0
M  V30 10984 C 1032.29 -0.657008 3.06027 0
M  V30 10985 C 1032.77 -0.727323 4.52188 0
M  V30 10986 N 1034.26 -0.790406 4.56406 0
M  V30 10987 C 1034.99 -0.865265 5.66834 0
M  V30 10988 N 1034.49 -0.901398 6.86911 0
M  V30 10989 N 1036.28 -0.903736 5.54787 0
M  V30 10990 H 1028.43 0.687304 2.00972 0
M  V30 10991 H 1030.69 0.246936 0.915274 0
M  V30 10992 H 1030.4 0.331934 3.5013 0
M  V30 10993 H 1030.27 -1.41828 3.4952 0
M  V30 10994 H 1032.66 -1.54868 2.51197 0
M  V30 10995 H 1032.74 0.218495 2.54865 0
M  V30 10996 H 1032.39 0.160067 5.07648 0
M  V30 10997 H 1032.32 -1.61887 5.01099 0
M  V30 10998 H 1034.81 -0.771054 3.6995 0
M  V30 10999 H 1035.12 -0.959494 7.6682 0
M  V30 11000 H 1033.47 -0.869795 6.89536 0
M  V30 11001 H 1036.66 -0.872459 4.59898 0
M  V30 11002 H 1036.83 -0.958615 6.4087 0
M  V30 11003 N 1030.24 -1.51135 -0.446768 0
M  V30 11004 C 1031.65 -1.55919 -1.02694 0
M  V30 11005 C 1032 -0.377038 -1.92543 0
M  V30 11006 O 1031.12 0.507295 -2.1037 0
M  V30 11007 C 1031.72 -2.8257 -1.86922 0
M  V30 11008 C 1030.28 -2.89956 -2.40005 0
M  V30 11009 C 1029.42 -2.50482 -1.18971 0
M  V30 11010 H 1032.37 -1.57048 -0.228403 0
M  V30 11011 H 1032.4 -2.65799 -2.7227 0
M  V30 11012 H 1031.91 -3.6859 -1.21502 0
M  V30 11013 H 1030.01 -2.08343 -3.08907 0
M  V30 11014 H 1030.12 -3.93399 -2.73448 0
M  V30 11015 H 1028.49 -2.03466 -1.53211 0
M  V30 11016 H 1029.27 -3.38837 -0.551762 0
M  V30 11017 N 1031.71 0.701592 -1.41122 0
M  V30 11018 C 1032.96 1.4616 -1.40155 0
M  V30 11019 C 1033.29 1.94498 -0.00861553 0
M  V30 11020 O 1032.54 1.69484 0.978452 0
M  V30 11021 C 1032.84 2.693 -2.34973 0
M  V30 11022 C 1032.51 2.39652 -3.81939 0
M  V30 11023 C 1031.17 2.31277 -4.21977 0
M  V30 11024 C 1033.52 2.15076 -4.74755 0
M  V30 11025 C 1030.85 1.96413 -5.52846 0
M  V30 11026 C 1033.2 1.81722 -6.05937 0
M  V30 11027 C 1031.87 1.71838 -6.45002 0
M  V30 11028 H 1031.14 0.534837 -0.512865 0
M  V30 11029 H 1033.78 0.802425 -1.73878 0
M  V30 11030 H 1032.09 3.40123 -1.94484 0
M  V30 11031 H 1033.79 3.27427 -2.31501 0
M  V30 11032 H 1030.38 2.47063 -3.50226 0
M  V30 11033 H 1034.56 2.20495 -4.4463 0
M  V30 11034 H 1029.82 1.87308 -5.82001 0
M  V30 11035 H 1033.99 1.61723 -6.77362 0
M  V30 11036 H 1031.62 1.44591 -7.46323 0
M  V30 11037 N 1033.19 1.2685 0.935242 0
M  V30 11038 C 1034.14 1.08746 2.05614 0
M  V30 11039 C 1035.13 0.012681 1.69395 0
M  V30 11040 O 1036.34 0.169822 1.79197 0
M  V30 11041 H 1032.71 0.33485 0.673335 0
M  V30 11042 H 1034.69 2.03725 2.18033 0
M  V30 11043 C 1033.43 0.74346 3.39659 0
M  V30 11044 H 1032.76 1.56236 3.68008 0
M  V30 11045 H 1034.2 0.656607 4.18885 0
M  V30 11046 C 1032.66 -0.551751 3.32351 0
M  V30 11047 O 1033.19 -1.58836 3.68963 0
M  V30 11048 N 1031.39 -0.544583 2.85452 0
M  V30 11049 H 1030.94 0.29939 2.55854 0
M  V30 11050 H 1030.9 -1.41129 2.80945 0
M  V30 11051 N 1034.67 -1.14067 1.0875 0
M  V30 11052 C 1035.92 -1.85185 0.819317 0
M  V30 11053 C 1036.25 -1.8314 -0.654969 0
M  V30 11054 O 1035.5 -1.25974 -1.49763 0
M  V30 11055 C 1035.8 -3.33273 1.29089 0
M  V30 11056 C 1035.47 -3.55504 2.77359 0
M  V30 11057 C 1034.13 -3.61279 3.17853 0
M  V30 11058 C 1036.48 -3.64041 3.72992 0
M  V30 11059 C 1033.81 -3.73119 4.52768 0
M  V30 11060 C 1036.16 -3.77407 5.07687 0
M  V30 11061 C 1034.82 -3.81433 5.47782 0
M  V30 11062 H 1034.09 -0.67764 0.299809 0
M  V30 11063 H 1036.74 -1.34713 1.36106 0
M  V30 11064 H 1035.05 -3.86049 0.668811 0
M  V30 11065 H 1036.74 -3.86734 1.06009 0
M  V30 11066 H 1033.33 -3.51659 2.45019 0
M  V30 11067 H 1037.52 -3.58866 3.42825 0
M  V30 11068 H 1032.77 -3.74499 4.83281 0
M  V30 11069 H 1036.95 -3.82956 5.81651 0
M  V30 11070 H 1034.57 -3.9036 6.52321 0
M  V30 11071 N 1036.15 -0.873678 -1.31166 0
M  V30 11072 C 1037.4 -0.486457 -1.9657 0
M  V30 11073 C 1037.72 0.962042 -1.69041 0
M  V30 11074 O 1036.98 1.69305 -0.981543 0
M  V30 11075 C 1037.28 -0.69462 -3.50585 0
M  V30 11076 C 1036.94 -2.11647 -3.98141 0
M  V30 11077 C 1035.61 -2.50531 -4.10838 0
M  V30 11078 C 1037.96 -3.0436 -4.23101 0
M  V30 11079 C 1035.29 -3.81361 -4.45848 0
M  V30 11080 C 1037.64 -4.34709 -4.59577 0
M  V30 11081 C 1036.3 -4.73502 -4.70481 0
M  V30 11082 H 1035.57 -0.178007 -0.719301 0
M  V30 11083 H 1038.22 -1.10737 -1.56235 0
M  V30 11084 H 1036.52 0.00940878 -3.91799 0
M  V30 11085 H 1038.22 -0.374782 -3.99245 0
M  V30 11086 H 1034.81 -1.8046 -3.88757 0
M  V30 11087 H 1038.99 -2.75544 -4.12782 0
M  V30 11088 H 1034.25 -4.11174 -4.52488 0
M  V30 11089 H 1038.42 -5.06596 -4.77842 0
M  V30 11090 H 1036.05 -5.74919 -4.97365 0
M  V30 11091 N 1037.63 1.44308 -0.633487 0
M  V30 11092 C 1039.04 1.85387 -0.221009 0
M  V30 11093 C 1039.39 1.5301 1.22811 0
M  V30 11094 O 1038.51 0.969325 1.93476 0
M  V30 11095 C 1039.11 3.36497 -0.394331 0
M  V30 11096 C 1037.67 3.76382 -0.0363405 0
M  V30 11097 C 1036.81 2.68146 -0.706598 0
M  V30 11098 H 1039.77 1.34741 -0.83849 0
M  V30 11099 H 1039.79 3.78735 0.366026 0
M  V30 11100 H 1039.3 3.60031 -1.44911 0
M  V30 11101 H 1037.4 3.58463 1.01661 0
M  V30 11102 H 1037.51 4.77 -0.448045 0
M  V30 11103 H 1035.88 2.54306 -0.14168 0
M  V30 11104 H 1036.66 2.94512 -1.76401 0
M  V30 11105 N 1039.1 0.374177 1.53094 0
M  V30 11106 C 1040.01 -0.475935 2.29722 0
M  V30 11107 C 1041.03 -1.085 1.36029 0
M  V30 11108 O 1042.21 -1.09408 1.69091 0
M  V30 11109 C 1039.27 -1.59572 3.07795 0
M  V30 11110 C 1038.33 -1.01332 4.17169 0
M  V30 11111 C 1037.57 -2.07975 4.9151 0
M  V30 11112 O 1037.79 -3.29232 4.65793 0
M  V30 11113 O 1036.72 -1.7055 5.77232 0
M  V30 11114 H 1040.55 0.147877 3.0334 0
M  V30 11115 H 1038.13 0.138312 1.48758 0
M  V30 11116 H 1040.02 -2.24658 3.5652 0
M  V30 11117 H 1038.69 -2.20478 2.37005 0
M  V30 11118 H 1037.6 -0.326133 3.72676 0
M  V30 11119 H 1038.93 -0.4487 4.90151 0
M  V30 11120 N 1040.58 -1.57259 0.103575 0
M  V30 11121 C 1041.86 -1.86143 -0.600852 0
M  V30 11122 C 1042.24 -1.00198 -1.85805 0
M  V30 11123 O 1041.59 -0.0766791 -2.28371 0
M  V30 11124 C 1041.8 -3.36978 -0.908108 0
M  V30 11125 C 1043.15 -4.05228 -1.26788 0
M  V30 11126 O 1044.17 -3.41908 -0.998859 0
M  V30 11127 O 1043.03 -5.16971 -1.7721 0
M  V30 11128 H 1040.12 -0.770064 -0.301547 0
M  V30 11129 H 1042.67 -1.69147 0.136914 0
M  V30 11130 H 1041.44 -3.91296 -0.0165615 0
M  V30 11131 H 1041.06 -3.5935 -1.70156 0
M  V30 11132 N 1042.06 0.170153 -1.56679 0
M  V30 11133 C 1043.47 0.732502 -1.7173 0
M  V30 11134 C 1043.82 1.82736 -0.71428 0
M  V30 11135 O 1042.95 2.16044 0.124102 0
M  V30 11136 C 1043.54 1.33548 -3.11368 0
M  V30 11137 C 1042.1 1.84464 -3.281 0
M  V30 11138 C 1041.25 0.724069 -2.6768 0
M  V30 11139 H 1044.2 -0.0552543 -1.58604 0
M  V30 11140 H 1044.22 2.20519 -3.10083 0
M  V30 11141 H 1043.73 0.5384 -3.84347 0
M  V30 11142 H 1041.83 2.66813 -2.6008 0
M  V30 11143 H 1041.95 1.98928 -4.35849 0
M  V30 11144 H 1040.31 1.14481 -2.27522 0
M  V30 11145 H 1041.09 -0.0611861 -3.43245 0
M  V30 11146 N 1043.54 1.5137 0.438746 0
M  V30 11147 C 1044.76 1.68058 1.21537 0
M  V30 11148 C 1045.19 0.376787 1.84288 0
M  V30 11149 O 1044.55 -0.662911 1.68746 0
M  V30 11150 C 1044.59 2.79684 2.27616 0
M  V30 11151 O 1043.7 2.43189 3.33066 0
M  V30 11152 H 1043.04 0.560408 0.356144 0
M  V30 11153 H 1045.57 1.97926 0.518311 0
M  V30 11154 H 1045.58 3.03726 2.72423 0
M  V30 11155 H 1044.25 3.74293 1.81321 0
M  V30 11156 H 1042.83 2.29713 2.93746 0
M  V30 11157 N 1045.02 -0.694098 1.41492 0
M  V30 11158 C 1045.95 -1.82042 1.46229 0
M  V30 11159 C 1046.93 -1.67047 0.320803 0
M  V30 11160 O 1048.11 -1.86758 0.53245 0
M  V30 11161 C 1045.24 -3.2019 1.34519 0
M  V30 11162 C 1044.2 -3.49892 2.46495 0
M  V30 11163 C 1043.52 -4.87411 2.1985 0
M  V30 11164 C 1044.82 -3.4872 3.88834 0
M  V30 11165 H 1046.52 -1.78335 2.40493 0
M  V30 11166 H 1044.06 -0.856566 1.15754 0
M  V30 11167 H 1046.02 -3.98699 1.36445 0
M  V30 11168 H 1044.74 -3.24527 0.367406 0
M  V30 11169 H 1043.4 -2.73734 2.43854 0
M  V30 11170 H 1043.05 -4.88375 1.20411 0
M  V30 11171 H 1042.75 -5.08248 2.94885 0
M  V30 11172 H 1044.27 -5.68228 2.23494 0
M  V30 11173 H 1045.68 -4.1723 3.93182 0
M  V30 11174 H 1044.08 -3.81089 4.63564 0
M  V30 11175 H 1045.15 -2.47665 4.16881 0
M  V30 11176 N 1046.49 -1.27344 -0.928501 0
M  V30 11177 C 1047.46 -1.10043 -2.01055 0
M  V30 11178 C 1048.46 -0.0446793 -1.60738 0
M  V30 11179 O 1049.65 -0.289202 -1.71783 0
M  V30 11180 C 1046.78 -0.676559 -3.34119 0
M  V30 11181 H 1047.97 -2.06126 -2.17835 0
M  V30 11182 H 1045.53 -1.10121 -1.10919 0
M  V30 11183 H 1046.26 0.285697 -3.23039 0
M  V30 11184 H 1046.05 -1.43903 -3.64739 0
M  V30 11185 H 1047.54 -0.577725 -4.13584 0
M  V30 11186 N 1047.97 1.13488 -1.09353 0
M  V30 11187 C 1049.2 1.89133 -0.85108 0
M  V30 11188 C 1049.62 1.78542 0.591976 0
M  V30 11189 O 1048.98 1.13243 1.41583 0
M  V30 11190 C 1049.03 3.36736 -1.29001 0
M  V30 11191 O 1048.13 4.09959 -0.447993 0
M  V30 11192 H 1047.47 0.58809 -0.308296 0
M  V30 11193 H 1050 1.43593 -1.45747 0
M  V30 11194 H 1050.01 3.87564 -1.27508 0
M  V30 11195 H 1048.69 3.43762 -2.34095 0
M  V30 11196 H 1047.27 3.69155 -0.52717 0
M  V30 11197 N 1049.45 0.880621 1.30701 0
M  V30 11198 C 1050.87 0.574015 1.4892 0
M  V30 11199 C 1051.07 -0.889312 1.80813 0
M  V30 11200 O 1050.12 -1.67082 1.89314 0
M  V30 11201 C 1051.44 1.48341 2.61563 0
M  V30 11202 C 1052.98 1.48658 2.75445 0
M  V30 11203 C 1053.46 2.3818 3.91196 0
M  V30 11204 N 1054.95 2.36119 3.985 0
M  V30 11205 C 1055.69 3.02101 4.87363 0
M  V30 11206 N 1055.18 3.77293 5.81052 0
M  V30 11207 N 1056.97 2.91356 4.80696 0
M  V30 11208 H 1049.13 1.82732 1.08271 0
M  V30 11209 H 1051.39 0.781939 0.535981 0
M  V30 11210 H 1051.09 2.52515 2.44804 0
M  V30 11211 H 1050.97 1.18977 3.57944 0
M  V30 11212 H 1053.36 0.452374 2.91612 0
M  V30 11213 H 1053.44 1.8205 1.79698 0
M  V30 11214 H 1053.08 3.41683 3.75786 0
M  V30 11215 H 1053.01 2.02106 4.86272 0
M  V30 11216 H 1055.5 1.81474 3.31475 0
M  V30 11217 H 1055.81 4.24742 6.45612 0
M  V30 11218 H 1054.16 3.81401 5.80998 0
M  V30 11219 H 1057.35 2.32143 4.06481 0
M  V30 11220 H 1057.52 3.43056 5.49742 0
M  V30 11221 N 1050.93 -1.4397 0.641131 0
M  V30 11222 C 1052.21 -1.95436 0.0800918 0
M  V30 11223 C 1052.59 -1.58282 -1.39678 0
M  V30 11224 O 1051.93 -0.861867 -2.11623 0
M  V30 11225 C 1052.14 -3.47589 0.313531 0
M  V30 11226 C 1053.49 -4.2407 0.212034 0
M  V30 11227 O 1054.52 -3.55353 0.245434 0
M  V30 11228 O 1053.38 -5.46356 0.125455 0
M  V30 11229 H 1050.47 -0.826834 -0.0165735 0
M  V30 11230 H 1053.02 -1.5397 0.71353 0
M  V30 11231 H 1051.79 -3.67716 1.33793 0
M  V30 11232 H 1051.41 -3.96025 -0.353563 0
M  V30 11233 N 1052.41 -0.382291 -1.52893 0
M  V30 11234 C 1053.64 0.202408 -2.05908 0
M  V30 11235 C 1054.05 1.4109 -1.25456 0
M  V30 11236 O 1053.41 1.80027 -0.29942 0
M  V30 11237 C 1053.46 0.579452 -3.56826 0
M  V30 11238 O 1053.18 -0.58102 -4.3423 0
M  V30 11239 C 1054.68 1.22076 -4.2616 0
M  V30 11240 H 1051.9 0.0321859 -0.670228 0
M  V30 11241 H 1054.44 -0.545494 -1.9709 0
M  V30 11242 H 1052.6 1.27726 -3.65739 0
M  V30 11243 H 1053.01 -0.272693 -5.23791 0
M  V30 11244 H 1054.49 1.435 -5.33021 0
M  V30 11245 H 1054.96 2.18605 -3.80931 0
M  V30 11246 H 1055.57 0.563922 -4.21545 0
M  V30 11247 N 1053.89 1.57202 -0.111913 0
M  V30 11248 C 1055.13 1.95239 0.548607 0
M  V30 11249 C 1055.46 0.994897 1.6678 0
M  V30 11250 O 1054.74 0.0308603 1.94476 0
M  V30 11251 C 1055.02 3.43271 1.08798 0
M  V30 11252 C 1054.88 4.49792 -0.0273064 0
M  V30 11253 C 1056.19 3.92989 1.98109 0
M  V30 11254 H 1053.31 0.709919 0.197951 0
M  V30 11255 H 1055.96 1.89087 -0.186036 0
M  V30 11256 H 1054.11 3.48644 1.71404 0
M  V30 11257 H 1055.78 4.56521 -0.662302 0
M  V30 11258 H 1054.02 4.28254 -0.691426 0
M  V30 11259 H 1054.69 5.50612 0.391201 0
M  V30 11260 H 1057.17 3.89875 1.45385 0
M  V30 11261 H 1056.04 4.97101 2.32769 0
M  V30 11262 H 1056.3 3.33267 2.90492 0
M  V30 11263 N 1055.36 -0.161842 1.56767 0
M  V30 11264 C 1056.61 -0.875278 1.81719 0
M  V30 11265 C 1056.93 -1.82998 0.690739 0
M  V30 11266 O 1058.13 -2.58648 0.82545 0
M  V30 11267 C 1056.59 -1.60703 3.22029 0
M  V30 11268 C 1056.2 -0.695486 4.42569 0
M  V30 11269 C 1057.94 -2.30813 3.56266 0
M  V30 11270 C 1055.85 -1.42801 5.73901 0
M  V30 11271 H 1054.78 -0.330591 0.677662 0
M  V30 11272 H 1057.43 -0.128112 1.83052 0
M  V30 11273 H 1055.81 -2.39929 3.1504 0
M  V30 11274 H 1056.98 0.0604882 4.6076 0
M  V30 11275 H 1055.3 -0.10356 4.16271 0
M  V30 11276 H 1057.9 -2.86229 4.51638 0
M  V30 11277 H 1058.24 -3.06603 2.81604 0
M  V30 11278 H 1058.77 -1.5852 3.64851 0
M  V30 11279 H 1055.51 -0.712253 6.51619 0
M  V30 11280 H 1055.03 -2.15707 5.5967 0
M  V30 11281 H 1056.71 -1.97295 6.16185 0
M  V30 11282 N 1056.84 -1.516 -0.430713 0
M  V30 11283 C 1058.09 -1.6484 -1.18134 0
M  V30 11284 C 1058.42 -0.366725 -1.90706 0
M  V30 11285 O 1057.7 0.63398 -1.83878 0
M  V30 11286 C 1057.98 -2.85617 -2.19306 0
M  V30 11287 C 1057.83 -4.23778 -1.50773 0
M  V30 11288 C 1059.15 -3.01909 -3.20217 0
M  V30 11289 H 1056.27 -0.599907 -0.428113 0
M  V30 11290 H 1058.91 -1.84102 -0.46973 0
M  V30 11291 H 1057.06 -2.69325 -2.79993 0
M  V30 11292 H 1058.73 -4.51752 -0.93371 0
M  V30 11293 H 1056.98 -4.26171 -0.809966 0
M  V30 11294 H 1057.65 -5.04291 -2.24487 0
M  V30 11295 H 1060.12 -3.16956 -2.69589 0
M  V30 11296 H 1059 -3.87968 -3.88293 0
M  V30 11297 H 1059.26 -2.1427 -3.86705 0
M  V30 11298 N 1058.32 0.686584 -1.41858 0
M  V30 11299 C 1059.57 1.44738 -1.42908 0
M  V30 11300 C 1059.92 1.92357 -0.0404705 0
M  V30 11301 O 1059.21 1.67221 0.935287 0
M  V30 11302 C 1059.41 2.66793 -2.37816 0
M  V30 11303 C 1059.24 2.31114 -3.85767 0
M  V30 11304 C 1058.01 2.21043 -4.54388 0
M  V30 11305 C 1060.2 1.93512 -4.76505 0
M  V30 11306 N 1058.19 1.78344 -5.87424 0
M  V30 11307 C 1059.56 1.61642 -5.98558 0
M  V30 11308 C 1061.61 1.80401 -4.64069 0
M  V30 11309 C 1060.32 1.17977 -7.09559 0
M  V30 11310 C 1062.34 1.38141 -5.7504 0
M  V30 11311 C 1061.7 1.07186 -6.96197 0
M  V30 11312 H 1057.8 0.526577 -0.578136 0
M  V30 11313 H 1060.39 0.793483 -1.77797 0
M  V30 11314 H 1058.56 3.29889 -2.05007 0
M  V30 11315 H 1060.29 3.33318 -2.29524 0
M  V30 11316 H 1057.04 2.39731 -4.08443 0
M  V30 11317 H 1057.47 1.59451 -6.57955 0
M  V30 11318 H 1062.11 2.02983 -3.70888 0
M  V30 11319 H 1059.83 0.941397 -8.02598 0
M  V30 11320 H 1063.41 1.28533 -5.67425 0
M  V30 11321 H 1062.29 0.749804 -7.80607 0
M  V30 11322 N 1059.8 1.27835 0.921735 0
M  V30 11323 C 1061.21 1.13151 1.48505 0
M  V30 11324 C 1061.56 -0.281373 1.94172 0
M  V30 11325 O 1060.68 -1.17487 1.8173 0
M  V30 11326 C 1061.28 2.04792 2.69899 0
M  V30 11327 C 1059.84 1.94196 3.22436 0
M  V30 11328 C 1058.99 1.96999 1.95158 0
M  V30 11329 H 1061.94 1.40641 0.735241 0
M  V30 11330 H 1061.96 1.60724 3.44889 0
M  V30 11331 H 1061.47 3.07615 2.36631 0
M  V30 11332 H 1059.57 0.943805 3.60448 0
M  V30 11333 H 1059.68 2.80744 3.88226 0
M  V30 11334 H 1058.05 1.41301 2.11911 0
M  V30 11335 H 1058.83 3.01487 1.64196 0
M  V30 11336 N 1061.28 -1.12907 1.09954 0
M  V30 11337 C 1062.69 -1.363 0.830326 0
M  V30 11338 C 1062.89 -1.93772 -0.552694 0
M  V30 11339 O 1061.95 -2.1607 -1.30652 0
M  V30 11340 C 1063.26 -2.30925 1.92598 0
M  V30 11341 C 1064.81 -2.44528 1.95385 0
M  V30 11342 C 1065.28 -3.42464 3.0411 0
M  V30 11343 N 1066.77 -3.50018 3.03384 0
M  V30 11344 C 1067.51 -4.25693 3.84152 0
M  V30 11345 N 1067.01 -5.04476 4.74843 0
M  V30 11346 N 1068.8 -4.21049 3.7239 0
M  V30 11347 H 1060.95 -0.739571 1.99108 0
M  V30 11348 H 1063.21 -0.387983 0.86497 0
M  V30 11349 H 1062.92 -1.95861 2.92115 0
M  V30 11350 H 1062.79 -3.30997 1.80889 0
M  V30 11351 H 1065.18 -2.78875 0.965037 0
M  V30 11352 H 1065.26 -1.44361 2.11172 0
M  V30 11353 H 1064.9 -3.08847 4.03207 0
M  V30 11354 H 1064.83 -4.42448 2.85565 0
M  V30 11355 H 1067.33 -2.93809 2.37665 0
M  V30 11356 H 1067.64 -5.59541 5.33042 0
M  V30 11357 H 1065.98 -5.0369 4.78875 0
M  V30 11358 H 1069.17 -3.5858 3.00895 0
M  V30 11359 H 1069.35 -4.79771 4.35572 0
M  V30 11360 N 1062.75 -0.88754 -1.30232 0
M  V30 11361 C 1064.03 -0.427249 -1.90877 0
M  V30 11362 C 1064.41 1.0922 -1.80649 0
M  V30 11363 O 1063.76 1.92866 -1.22536 0
M  V30 11364 C 1063.97 -0.928219 -3.3643 0
M  V30 11365 C 1065.32 -0.964706 -4.13496 0
M  V30 11366 O 1066.34 -0.875057 -3.45284 0
M  V30 11367 O 1065.2 -1.09754 -5.35366 0
M  V30 11368 H 1062.29 -0.131107 -0.816541 0
M  V30 11369 H 1064.84 -0.976609 -1.38782 0
M  V30 11370 H 1063.61 -1.97209 -3.37971 0
M  V30 11371 H 1063.23 -0.358169 -3.95983 0
M  V30 11372 N 1064.23 1.43628 -0.648757 0
M  V30 11373 C 1065.18 2.32529 0.057536 0
M  V30 11374 C 1066.17 1.48358 0.817699 0
M  V30 11375 O 1067.38 1.64595 0.728605 0
M  V30 11376 H 1063.76 0.75107 0.037388 0
M  V30 11377 H 1065.73 2.89829 -0.710062 0
M  V30 11378 C 1064.48 3.32605 1.01336 0
M  V30 11379 H 1063.8 3.97395 0.437855 0
M  V30 11380 H 1065.24 3.97453 1.47672 0
M  V30 11381 C 1063.7 2.62865 2.10722 0
M  V30 11382 O 1064.23 2.4408 3.19042 0
M  V30 11383 N 1062.43 2.22312 1.87152 0
M  V30 11384 H 1061.98 2.3779 0.990644 0
M  V30 11385 H 1061.94 1.75979 2.60536 0
M  V30 11386 N 1065.71 0.390394 1.52688 0
M  V30 11387 C 1066.96 -0.191067 2.01195 0
M  V30 11388 C 1067.28 -1.47229 1.27862 0
M  V30 11389 O 1066.55 -1.91793 0.399007 0
M  V30 11390 H 1065.13 -0.073596 0.743366 0
M  V30 11391 H 1067.79 0.522334 1.8777 0
M  V30 11392 H 1066.89 -0.40051 3.0952 0
M  V30 11393 N 1067.19 -1.57141 0.120249 0
M  V30 11394 C 1068.6 -1.82256 -0.404931 0
M  V30 11395 C 1068.95 -1.03748 -1.66526 0
M  V30 11396 O 1068.08 -0.274456 -2.14653 0
M  V30 11397 C 1068.67 -3.30588 -0.741431 0
M  V30 11398 C 1067.23 -3.56379 -1.21124 0
M  V30 11399 C 1066.38 -2.76421 -0.220569 0
M  V30 11400 H 1069.33 -1.54897 0.345361 0
M  V30 11401 H 1069.35 -3.45284 -1.59872 0
M  V30 11402 H 1068.86 -3.87701 0.176036 0
M  V30 11403 H 1066.96 -3.04625 -2.14556 0
M  V30 11404 H 1067.07 -4.64952 -1.1557 0
M  V30 11405 H 1065.44 -2.44666 -0.707857 0
M  V30 11406 H 1066.22 -3.36294 0.690018 0
M  V30 11407 N 1068.67 0.153526 -1.5685 0
M  V30 11408 C 1069.61 1.20896 -1.98713 0
M  V30 11409 C 1070.61 1.44839 -0.878529 0
M  V30 11410 O 1071.81 1.45208 -1.0637 0
M  V30 11411 H 1068.19 0.406797 -0.632472 0
M  V30 11412 H 1070.16 0.829145 -2.86649 0
M  V30 11413 C 1068.91 2.53642 -2.37825 0
M  V30 11414 H 1068.23 2.36047 -3.22679 0
M  V30 11415 H 1069.67 3.26136 -2.70946 0
M  V30 11416 C 1068.13 3.13706 -1.22841 0
M  V30 11417 O 1068.66 3.98246 -0.525626 0
M  V30 11418 N 1066.87 2.73059 -0.99435 0
M  V30 11419 H 1066.41 2.0441 -1.56761 0
M  V30 11420 H 1066.37 3.1358 -0.226883 0
M  V30 11421 N 1070.14 1.51827 0.422667 0
M  V30 11422 C 1071.37 1.68803 1.19117 0
M  V30 11423 C 1071.78 0.391228 1.85111 0
M  V30 11424 O 1071.13 -0.64148 1.72136 0
M  V30 11425 C 1071.19 2.75767 2.30636 0
M  V30 11426 C 1070.85 4.17929 1.8489 0
M  V30 11427 C 1071.85 5.02223 1.34416 0
M  V30 11428 C 1069.53 4.641 1.92136 0
M  V30 11429 C 1071.53 6.30756 0.917925 0
M  V30 11430 C 1069.21 5.92626 1.49123 0
M  V30 11431 C 1070.21 6.75782 0.990352 0
M  V30 11432 O 1069.9 8.01902 0.566386 0
M  V30 11433 H 1069.63 0.569303 0.364514 0
M  V30 11434 H 1072.19 1.9909 0.505208 0
M  V30 11435 H 1070.42 2.40827 3.02555 0
M  V30 11436 H 1072.11 2.81476 2.92448 0
M  V30 11437 H 1072.87 4.67749 1.28202 0
M  V30 11438 H 1068.75 3.99488 2.30066 0
M  V30 11439 H 1072.29 6.95612 0.52628 0
M  V30 11440 H 1068.19 6.26611 1.55012 0
M  V30 11441 H 1068.96 8.15579 0.690918 0
M  V30 11442 N 1071.62 -0.679052 1.4222 0
M  V30 11443 C 1072.87 -1.44125 1.42674 0
M  V30 11444 C 1073.2 -1.94156 0.041438 0
M  V30 11445 O 1072.48 -1.70628 -0.93361 0
M  V30 11446 C 1072.76 -2.64133 2.44756 0
M  V30 11447 C 1072.61 -2.19761 3.9246 0
M  V30 11448 C 1073.93 -3.66347 2.43881 0
M  V30 11449 H 1071.05 -0.522729 0.519541 0
M  V30 11450 H 1073.69 -0.772067 1.73606 0
M  V30 11451 H 1071.84 -3.21225 2.1851 0
M  V30 11452 H 1073.51 -1.67869 4.29671 0
M  V30 11453 H 1071.76 -1.51377 4.06531 0
M  V30 11454 H 1072.43 -3.05944 4.59459 0
M  V30 11455 H 1074.9 -3.18963 2.67211 0
M  V30 11456 H 1073.78 -4.47902 3.17293 0
M  V30 11457 H 1074.04 -4.17183 1.46325 0
M  V30 11458 N 1073.1 -1.28322 -0.914942 0
M  V30 11459 C 1074.03 -1.07947 -2.02188 0
M  V30 11460 C 1075.05 -0.0315743 -1.62769 0
M  V30 11461 O 1076.23 -0.274503 -1.76377 0
M  V30 11462 C 1073.33 -0.61805 -3.33217 0
M  V30 11463 C 1072.51 -1.74109 -4.01254 0
M  V30 11464 C 1071.57 -1.27325 -5.10563 0
M  V30 11465 O 1070.59 -1.97526 -5.33828 0
M  V30 11466 N 1071.79 -0.1358 -5.80341 0
M  V30 11467 H 1074.56 -2.03275 -2.20225 0
M  V30 11468 H 1072.12 -1.20059 -1.08616 0
M  V30 11469 H 1074.11 -0.288693 -4.03669 0
M  V30 11470 H 1072.68 0.242348 -3.11659 0
M  V30 11471 H 1071.9 -2.2401 -3.24366 0
M  V30 11472 H 1073.19 -2.49448 -4.43456 0
M  V30 11473 H 1072.59 0.449846 -5.63909 0
M  V30 11474 H 1071.15 0.134289 -6.51662 0
M  V30 11475 N 1074.58 1.12322 -1.10551 0
M  V30 11476 C 1075.99 1.35858 -0.837543 0
M  V30 11477 C 1076.19 1.94062 0.54241 0
M  V30 11478 O 1075.25 2.1676 1.29505 0
M  V30 11479 C 1076.56 2.299 -1.9382 0
M  V30 11480 C 1078.11 2.43488 -1.96679 0
M  V30 11481 C 1078.59 3.40846 -3.05922 0
M  V30 11482 N 1080.08 3.48404 -3.05236 0
M  V30 11483 C 1080.81 4.2365 -3.86405 0
M  V30 11484 N 1080.31 5.01951 -4.77512 0
M  V30 11485 N 1082.1 4.19068 -3.74618 0
M  V30 11486 H 1074.25 0.729002 -1.99498 0
M  V30 11487 H 1076.52 0.38339 -0.867016 0
M  V30 11488 H 1076.22 1.94309 -2.9315 0
M  V30 11489 H 1076.1 3.30033 -1.82641 0
M  V30 11490 H 1078.48 2.78359 -0.979813 0
M  V30 11491 H 1078.56 1.43239 -2.11934 0
M  V30 11492 H 1078.21 3.06704 -4.04839 0
M  V30 11493 H 1078.14 4.40927 -2.87907 0
M  V30 11494 H 1080.63 2.92545 -2.39219 0
M  V30 11495 H 1080.94 5.56707 -5.36002 0
M  V30 11496 H 1079.29 5.01143 -4.8154 0
M  V30 11497 H 1082.48 3.5698 -3.02792 0
M  V30 11498 H 1082.65 4.77455 -4.38111 0
M  V30 11499 N 1076.06 0.894434 1.2976 0
M  V30 11500 C 1077.3 0.527831 1.96432 0
M  V30 11501 C 1077.66 -0.914793 1.69261 0
M  V30 11502 O 1076.95 -1.63911 0.99215 0
M  V30 11503 C 1077.14 0.750307 3.49435 0
M  V30 11504 C 1076.97 2.213 3.91479 0
M  V30 11505 C 1075.74 2.85943 4.16611 0
M  V30 11506 C 1077.94 3.18771 4.03595 0
M  V30 11507 N 1075.92 4.2271 4.45185 0
M  V30 11508 C 1077.29 4.40641 4.3616 0
M  V30 11509 C 1079.35 3.14432 3.86053 0
M  V30 11510 C 1078.05 5.58725 4.53011 0
M  V30 11511 C 1080.08 4.31797 4.0411 0
M  V30 11512 C 1079.44 5.52435 4.37029 0
M  V30 11513 H 1075.54 0.242654 0.7434 0
M  V30 11514 H 1078.12 1.15415 1.56804 0
M  V30 11515 H 1076.29 0.153411 3.88097 0
M  V30 11516 H 1078.03 0.349663 4.03187 0
M  V30 11517 H 1074.78 2.36763 4.10171 0
M  V30 11518 H 1075.21 4.9337 4.63589 0
M  V30 11519 H 1079.85 2.22255 3.5967 0
M  V30 11520 H 1077.57 6.51398 4.78232 0
M  V30 11521 H 1081.15 4.2992 3.91995 0
M  V30 11522 H 1080.03 6.41738 4.50712 0
M  V30 11523 N 1077.53 -1.43282 0.656365 0
M  V30 11524 C 1078.78 -2.00996 0.168354 0
M  V30 11525 C 1079.1 -1.52408 -1.22601 0
M  V30 11526 O 1080.3 -2.02417 -1.80941 0
M  V30 11527 C 1078.76 -3.5903 0.250161 0
M  V30 11528 C 1078.37 -4.1661 1.64742 0
M  V30 11529 C 1080.11 -4.24118 -0.180084 0
M  V30 11530 C 1078.02 -5.66948 1.68299 0
M  V30 11531 H 1076.95 -0.751674 0.0591769 0
M  V30 11532 H 1079.6 -1.64216 0.818859 0
M  V30 11533 H 1077.98 -3.93226 -0.467908 0
M  V30 11534 H 1079.15 -3.93908 2.3911 0
M  V30 11535 H 1077.47 -3.63905 2.02391 0
M  V30 11536 H 1080.07 -5.34419 -0.173401 0
M  V30 11537 H 1080.41 -3.98264 -1.21208 0
M  V30 11538 H 1080.94 -3.94816 0.486343 0
M  V30 11539 H 1077.68 -5.97573 2.69419 0
M  V30 11540 H 1077.2 -5.91697 0.98261 0
M  V30 11541 H 1078.88 -6.31041 1.42813 0
M  V30 11542 N 1079.01 -0.398486 -1.52479 0
M  V30 11543 C 1080.42 0.0735015 -1.86555 0
M  V30 11544 C 1080.78 1.45361 -1.31775 0
M  V30 11545 O 1079.9 2.0632 -0.652759 0
M  V30 11546 C 1080.5 0.140152 -3.3851 0
M  V30 11547 C 1079.05 0.556451 -3.72264 0
M  V30 11548 C 1078.2 -0.275792 -2.75925 0
M  V30 11549 H 1081.15 -0.615991 -1.46257 0
M  V30 11550 H 1081.17 0.957507 -3.68255 0
M  V30 11551 H 1080.69 -0.864442 -3.7835 0
M  V30 11552 H 1078.79 1.56808 -3.37997 0
M  V30 11553 H 1078.9 0.308227 -4.78107 0
M  V30 11554 H 1077.26 0.260304 -2.53366 0
M  V30 11555 H 1078.05 -1.27854 -3.18604 0
M  V30 11556 N 1080.49 1.57075 -0.12858 0
M  V30 11557 C 1081.4 2.19369 0.831533 0
M  V30 11558 C 1082.42 1.17258 1.28555 0
M  V30 11559 O 1083.59 1.49766 1.34656 0
M  V30 11560 C 1080.66 2.78846 2.06024 0
M  V30 11561 C 1079.72 3.96024 1.65722 0
M  V30 11562 C 1078.95 4.52655 2.82735 0
M  V30 11563 O 1079.18 4.08175 3.98434 0
M  V30 11564 O 1078.11 5.43198 2.59268 0
M  V30 11565 H 1081.94 3.01887 0.331352 0
M  V30 11566 H 1079.52 1.49081 0.0975226 0
M  V30 11567 H 1081.4 3.16721 2.77967 0
M  V30 11568 H 1080.08 1.99353 2.5503 0
M  V30 11569 H 1078.98 3.62899 0.908574 0
M  V30 11570 H 1080.32 4.76981 1.21449 0
M  V30 11571 N 1081.97 -0.145205 1.5693 0
M  V30 11572 C 1083.25 -0.88631 1.74367 0
M  V30 11573 C 1083.63 -1.99259 0.697081 0
M  V30 11574 O 1082.97 -2.26732 -0.28368 0
M  V30 11575 C 1083.18 -1.42712 3.18488 0
M  V30 11576 C 1084.53 -1.88982 3.80225 0
M  V30 11577 O 1085.56 -1.5245 3.21928 0
M  V30 11578 O 1084.42 -2.56361 4.8264 0
M  V30 11579 H 1081.51 -0.418979 0.713011 0
M  V30 11580 H 1084.06 -0.130991 1.69194 0
M  V30 11581 H 1082.83 -0.632165 3.8616 0
M  V30 11582 H 1082.45 -2.24589 3.28094 0
M  V30 11583 N 1083.45 -1.52049 -0.414609 0
M  V30 11584 C 1084.86 -1.40729 -0.752822 0
M  V30 11585 C 1085.06 -0.507468 -1.95005 0
M  V30 11586 O 1084.12 0.0288189 -2.52484 0
M  V30 11587 C 1085.43 -2.83163 -1.01189 0
M  V30 11588 C 1086.98 -2.92469 -1.11494 0
M  V30 11589 C 1087.46 -4.35859 -1.4068 0
M  V30 11590 N 1088.95 -4.39069 -1.47557 0
M  V30 11591 C 1089.68 -5.47072 -1.71756 0
M  V30 11592 N 1089.18 -6.65201 -1.93595 0
M  V30 11593 N 1090.97 -5.3458 -1.73726 0
M  V30 11594 H 1083.12 -2.09089 0.373549 0
M  V30 11595 H 1085.38 -0.942188 0.104814 0
M  V30 11596 H 1085.09 -3.51104 -0.204609 0
M  V30 11597 H 1084.96 -3.23874 -1.93353 0
M  V30 11598 H 1087.35 -2.24711 -1.91282 0
M  V30 11599 H 1087.43 -2.55222 -0.171794 0
M  V30 11600 H 1087.08 -5.04174 -0.614119 0
M  V30 11601 H 1087.01 -4.70637 -2.36238 0
M  V30 11602 H 1089.5 -3.53913 -1.32491 0
M  V30 11603 H 1089.81 -7.43297 -2.11495 0
M  V30 11604 H 1088.16 -6.68276 -1.90871 0
M  V30 11605 H 1091.35 -4.41271 -1.56198 0
M  V30 11606 H 1091.52 -6.18826 -1.92246 0
M  V30 11607 N 1084.93 0.6715 -1.42579 0
M  V30 11608 C 1086.2 1.42766 -1.33706 0
M  V30 11609 C 1086.58 2.11086 0.0239748 0
M  V30 11610 O 1085.93 2.03479 1.03964 0
M  V30 11611 C 1086.14 2.42739 -2.50756 0
M  V30 11612 C 1087.49 3.07284 -2.93021 0
M  V30 11613 O 1088.51 2.53066 -2.50671 0
M  V30 11614 O 1087.37 4.05541 -3.66331 0
M  V30 11615 H 1084.47 0.636955 -0.527463 0
M  V30 11616 H 1087.01 0.699946 -1.54593 0
M  V30 11617 H 1085.78 1.91076 -3.41476 0
M  V30 11618 H 1085.41 3.22986 -2.31874 0
M  V30 11619 N 1086.4 1.28806 0.908124 0
M  V30 11620 C 1087.64 1.17546 1.67219 0
M  V30 11621 C 1088.01 -0.270396 1.90086 0
M  V30 11622 O 1089.21 -0.505808 2.63998 0
M  V30 11623 C 1087.48 1.95774 2.99011 0
M  V30 11624 S 1089.04 2.00953 3.90081 0
M  V30 11625 H 1085.86 0.419283 0.574215 0
M  V30 11626 H 1088.46 1.6298 1.07971 0
M  V30 11627 H 1087.16 2.99978 2.80074 0
M  V30 11628 H 1086.69 1.50911 3.63303 0
M  V30 11629 H 1088.71 1.1201 4.83392 0
M  V30 11630 N 1087.88 -1.11734 1.11145 0
M  V30 11631 C 1089.11 -1.87755 0.881062 0
M  V30 11632 C 1089.53 -1.79461 -0.563496 0
M  V30 11633 O 1088.89 -1.15481 -1.39763 0
M  V30 11634 C 1088.94 -3.34641 1.34342 0
M  V30 11635 O 1088.04 -4.09195 0.513157 0
M  V30 11636 H 1087.38 -0.583111 0.317613 0
M  V30 11637 H 1089.91 -1.41256 1.48013 0
M  V30 11638 H 1089.92 -3.85486 1.33658 0
M  V30 11639 H 1088.6 -3.39994 2.39534 0
M  V30 11640 H 1087.17 -3.68269 0.585833 0
M  V30 11641 N 1089.36 -0.901303 -1.29284 0
M  V30 11642 C 1090.29 -0.32479 -2.25877 0
M  V30 11643 C 1091.27 0.563944 -1.52507 0
M  V30 11644 O 1092.45 0.510393 -1.81459 0
M  V30 11645 C 1089.58 0.536897 -3.34418 0
M  V30 11646 C 1088.63 -0.28474 -4.25548 0
M  V30 11647 S 1089.46 -1.68355 -5.08347 0
M  V30 11648 C 1090.62 -0.828826 -6.20388 0
M  V30 11649 H 1090.85 -1.14352 -2.74428 0
M  V30 11650 H 1088.38 -0.701749 -1.37531 0
M  V30 11651 H 1090.34 1.02827 -3.97413 0
M  V30 11652 H 1089 1.32988 -2.84558 0
M  V30 11653 H 1088.19 0.373566 -5.02614 0
M  V30 11654 H 1087.8 -0.709313 -3.67212 0
M  V30 11655 H 1090.09 -0.0529234 -6.77479 0
M  V30 11656 H 1091.03 -1.57161 -6.90439 0
M  V30 11657 H 1091.44 -0.382503 -5.63203 0
M  V30 11658 N 1090.84 1.42931 -0.663954 0
M  V30 11659 C 1092.25 1.84877 -0.260283 0
M  V30 11660 C 1092.6 1.5558 1.19538 0
M  V30 11661 O 1091.72 1.01015 1.91377 0
M  V30 11662 C 1092.32 3.35585 -0.465618 0
M  V30 11663 C 1090.88 3.76221 -0.116169 0
M  V30 11664 C 1090.03 2.66587 -0.763317 0
M  V30 11665 H 1092.98 1.32932 -0.866882 0
M  V30 11666 H 1093 3.79427 0.285608 0
M  V30 11667 H 1092.51 3.56877 -1.52515 0
M  V30 11668 H 1090.61 3.60539 0.940342 0
M  V30 11669 H 1090.72 4.75943 -0.549123 0
M  V30 11670 H 1089.09 2.53948 -0.19559 0
M  V30 11671 H 1089.87 2.90704 -1.82609 0
M  V30 11672 N 1092.32 0.406567 1.52266 0
M  V30 11673 C 1093.73 -0.063607 1.86592 0
M  V30 11674 C 1094.08 -1.4466 1.32544 0
M  V30 11675 O 1093.2 -2.05971 0.663692 0
M  V30 11676 C 1093.8 -0.122198 3.3858 0
M  V30 11677 C 1092.36 -0.536701 3.72554 0
M  V30 11678 C 1091.5 0.290422 2.75775 0
M  V30 11679 H 1094.45 0.623738 1.45929 0
M  V30 11680 H 1094.48 -0.937964 3.68758 0
M  V30 11681 H 1093.99 0.884495 3.77887 0
M  V30 11682 H 1092.09 -1.55013 3.38824 0
M  V30 11683 H 1092.2 -0.282867 4.78264 0
M  V30 11684 H 1090.57 -0.246864 2.53501 0
M  V30 11685 H 1091.35 1.29541 3.17921 0
M  V30 11686 N 1093.79 -1.57004 0.136909 0
M  V30 11687 C 1095.21 -1.82675 -0.385577 0
M  V30 11688 C 1095.56 -1.05508 -1.65416 0
M  V30 11689 O 1094.68 -0.297207 -2.14349 0
M  V30 11690 C 1095.28 -3.31356 -0.706326 0
M  V30 11691 C 1093.84 -3.57644 -1.17337 0
M  V30 11692 C 1092.98 -2.7664 -0.191239 0
M  V30 11693 H 1095.93 -1.54522 0.36177 0
M  V30 11694 H 1095.95 -3.4696 -1.56201 0
M  V30 11695 H 1095.47 -3.87492 0.217147 0
M  V30 11696 H 1093.57 -3.06883 -2.11313 0
M  V30 11697 H 1093.68 -4.66152 -1.10632 0
M  V30 11698 H 1092.04 -2.45403 -0.681867 0
M  V30 11699 H 1092.83 -3.35543 0.725647 0
M  V30 11700 N 1095.27 0.136881 -1.57004 0
M  V30 11701 C 1096.52 0.847775 -1.83899 0
M  V30 11702 C 1096.85 1.80709 -0.719332 0
M  V30 11703 O 1096.1 1.93527 0.290838 0
M  V30 11704 C 1096.4 1.64711 -3.17183 0
M  V30 11705 C 1096.07 0.833683 -4.43126 0
M  V30 11706 C 1094.73 0.609306 -4.77327 0
M  V30 11707 C 1097.08 0.265504 -5.20523 0
M  V30 11708 C 1094.41 -0.193793 -5.8638 0
M  V30 11709 C 1096.76 -0.524688 -6.3042 0
M  V30 11710 C 1095.43 -0.759548 -6.63164 0
M  V30 11711 H 1094.7 0.310223 -0.672936 0
M  V30 11712 H 1097.34 0.110937 -1.91178 0
M  V30 11713 H 1095.65 2.45435 -3.054 0
M  V30 11714 H 1097.34 2.20081 -3.3521 0
M  V30 11715 H 1093.93 1.01864 -4.16319 0
M  V30 11716 H 1098.12 0.426109 -4.94467 0
M  V30 11717 H 1093.37 -0.385153 -6.10186 0
M  V30 11718 H 1097.55 -0.972033 -6.89583 0
M  V30 11719 H 1095.18 -1.38369 -7.47501 0
M  V30 11720 N 1096.75 1.52266 0.40654 0
M  V30 11721 C 1097.98 1.70598 1.17945 0
M  V30 11722 C 1098.4 0.415793 1.83447 0
M  V30 11723 O 1097.76 -0.626968 1.70114 0
M  V30 11724 C 1097.81 2.84449 2.21633 0
M  V30 11725 O 1096.91 2.50199 3.27833 0
M  V30 11726 H 1096.25 0.567837 0.344177 0
M  V30 11727 H 1098.78 1.98981 0.476211 0
M  V30 11728 H 1098.79 3.09436 2.65919 0
M  V30 11729 H 1097.47 3.78055 1.73341 0
M  V30 11730 H 1096.04 2.35892 2.88807 0
M  V30 11731 N 1098.23 -0.663929 1.42933 0
M  V30 11732 C 1099.46 -1.44981 1.47187 0
M  V30 11733 C 1099.87 -1.89009 0.0850091 0
M  V30 11734 O 1099.21 -1.59413 -0.912855 0
M  V30 11735 C 1099.27 -2.72409 2.34592 0
M  V30 11736 C 1098.94 -2.5039 3.82301 0
M  V30 11737 C 1099.93 -2.14295 4.73681 0
M  V30 11738 C 1097.62 -2.65047 4.2668 0
M  V30 11739 C 1099.61 -1.93139 6.07434 0
M  V30 11740 C 1097.3 -2.43506 5.60489 0
M  V30 11741 C 1098.3 -2.07607 6.50683 0
M  V30 11742 O 1097.98 -1.86284 7.82019 0
M  V30 11743 H 1097.72 -0.452238 0.502451 0
M  V30 11744 H 1100.27 -0.822228 1.88225 0
M  V30 11745 H 1098.5 -3.37689 1.88422 0
M  V30 11746 H 1100.19 -3.34327 2.30174 0
M  V30 11747 H 1100.96 -2.02557 4.40676 0
M  V30 11748 H 1096.83 -2.91966 3.56759 0
M  V30 11749 H 1100.38 -1.65042 6.77796 0
M  V30 11750 H 1096.28 -2.54844 5.93064 0
M  V30 11751 H 1097.04 -2.00795 7.93488 0
M  V30 11752 N 1099.71 -1.29285 -0.901281 0
M  V30 11753 C 1100.65 -1.14159 -2.02659 0
M  V30 11754 C 1101.65 -0.0575887 -1.69302 0
M  V30 11755 O 1102.85 -0.217273 -1.78684 0
M  V30 11756 H 1099.23 -0.352584 -0.66422 0
M  V30 11757 H 1101.2 -2.09434 -2.12555 0
M  V30 11758 C 1099.95 -0.833253 -3.37568 0
M  V30 11759 H 1099.27 -1.65939 -3.63737 0
M  V30 11760 H 1100.71 -0.767436 -4.16997 0
M  V30 11761 C 1099.17 0.46344 -3.33697 0
M  V30 11762 O 1099.7 1.48998 -3.73045 0
M  V30 11763 N 1097.91 0.468709 -2.86795 0
M  V30 11764 H 1097.45 -0.36712 -2.54971 0
M  V30 11765 H 1097.41 1.3363 -2.84588 0
M  V30 11766 N 1101.18 1.11143 -1.11736 0
M  V30 11767 C 1102.43 1.82586 -0.866412 0
M  V30 11768 C 1102.75 1.85227 0.609593 0
M  V30 11769 O 1102.02 1.32505 1.44288 0
M  V30 11770 H 1100.6 0.676149 -0.31754 0
M  V30 11771 H 1103.27 1.34516 -1.41037 0
M  V30 11772 H 1102.36 2.8635 -1.24136 0
M  V30 11773 N 1102.66 0.908147 1.28804 0
M  V30 11774 C 1103.89 0.55409 1.99343 0
M  V30 11775 C 1104.31 -0.863262 1.67908 0
M  V30 11776 O 1103.66 -1.571 0.92875 0
M  V30 11777 C 1103.71 0.746916 3.537 0
M  V30 11778 O 1103.43 2.10849 3.84024 0
M  V30 11779 C 1104.94 0.398939 4.41501 0
M  V30 11780 H 1102.16 0.211784 0.636701 0
M  V30 11781 H 1104.7 1.21981 1.64137 0
M  V30 11782 H 1102.85 0.128264 3.87188 0
M  V30 11783 H 1103.27 2.14404 4.78676 0
M  V30 11784 H 1104.74 0.584656 5.48895 0
M  V30 11785 H 1105.22 -0.664517 4.34144 0
M  V30 11786 H 1105.83 0.994892 4.135 0
M  V30 11787 N 1104.14 -1.42577 0.671525 0
M  V30 11788 C 1105.37 -2.05625 0.20044 0
M  V30 11789 C 1105.78 -1.50524 -1.14626 0
M  V30 11790 O 1105.12 -0.638468 -1.72248 0
M  V30 11791 C 1105.18 -3.59459 0.0545385 0
M  V30 11792 C 1104.85 -4.37236 1.32943 0
M  V30 11793 C 1105.84 -4.68104 2.26219 0
M  V30 11794 C 1103.53 -4.76932 1.57612 0
M  V30 11795 C 1105.52 -5.37599 3.42442 0
M  V30 11796 C 1103.21 -5.46167 2.74125 0
M  V30 11797 C 1104.21 -5.76425 3.66364 0
M  V30 11798 O 1103.9 -6.44242 4.8084 0
M  V30 11799 H 1103.63 -0.66918 0.0957843 0
M  V30 11800 H 1106.18 -1.83759 0.917701 0
M  V30 11801 H 1104.41 -3.79971 -0.718271 0
M  V30 11802 H 1106.1 -4.04152 -0.376251 0
M  V30 11803 H 1106.87 -4.37939 2.08409 0
M  V30 11804 H 1102.75 -4.52776 0.866887 0
M  V30 11805 H 1106.29 -5.61133 4.14458 0
M  V30 11806 H 1102.19 -5.75749 2.91861 0
M  V30 11807 H 1102.96 -6.62732 4.80342 0
M  V30 11808 N 1105.62 -0.414636 -1.52048 0
M  V30 11809 C 1107.03 -0.0657806 -1.59464 0
M  V30 11810 C 1107.23 1.4225 -1.42713 0
M  V30 11811 O 1106.29 2.18996 -1.25687 0
M  V30 11812 C 1107.6 -0.565618 -2.95332 0
M  V30 11813 C 1109.15 -0.524072 -3.08581 0
M  V30 11814 C 1109.63 -1.00051 -4.46938 0
M  V30 11815 N 1111.12 -0.957555 -4.53194 0
M  V30 11816 C 1111.85 -1.29733 -5.58531 0
M  V30 11817 N 1111.35 -1.70883 -6.71395 0
M  V30 11818 N 1113.14 -1.21694 -5.48769 0
M  V30 11819 H 1105.29 -1.38325 -1.61183 0
M  V30 11820 H 1107.56 -0.568593 -0.758556 0
M  V30 11821 H 1107.26 -1.60604 -3.12888 0
M  V30 11822 H 1107.14 0.0217735 -3.77194 0
M  V30 11823 H 1109.52 0.507319 -2.90707 0
M  V30 11824 H 1109.6 -1.14759 -2.28613 0
M  V30 11825 H 1109.25 -2.03025 -4.65557 0
M  V30 11826 H 1109.18 -0.353754 -5.2541 0
M  V30 11827 H 1111.67 -0.65508 -3.72179 0
M  V30 11828 H 1111.98 -1.95105 -7.47766 0
M  V30 11829 H 1110.33 -1.74791 -6.72661 0
M  V30 11830 H 1113.52 -0.894286 -4.59478 0
M  V30 11831 H 1113.69 -1.48504 -6.30754 0
M  V30 11832 N 1107.1 1.56929 -0.145233 0
M  V30 11833 C 1108.51 1.82877 0.375884 0
M  V30 11834 C 1108.86 1.06384 1.64854 0
M  V30 11835 O 1107.98 0.30857 2.14189 0
M  V30 11836 C 1108.58 3.31725 0.688744 0
M  V30 11837 C 1107.14 3.58261 1.15439 0
M  V30 11838 C 1106.28 2.76737 0.176565 0
M  V30 11839 H 1109.24 1.54328 -0.36996 0
M  V30 11840 H 1109.26 3.47784 1.54359 0
M  V30 11841 H 1108.77 3.87371 -0.237694 0
M  V30 11842 H 1106.87 3.08 2.09683 0
M  V30 11843 H 1106.98 4.66732 1.08158 0
M  V30 11844 H 1105.35 2.45761 0.668843 0
M  V30 11845 H 1106.13 3.35154 -0.743432 0
M  V30 11846 N 1108.58 -0.128553 1.57075 0
M  V30 11847 C 1109.82 -0.839252 1.8462 0
M  V30 11848 C 1110.15 -1.79974 0.729582 0
M  V30 11849 O 1109.43 -1.92681 -0.265369 0
M  V30 11850 C 1109.71 -1.59756 3.22723 0
M  V30 11851 C 1109.57 -0.657313 4.44971 0
M  V30 11852 C 1110.88 -2.55592 3.58275 0
M  V30 11853 H 1108 -0.303652 0.671539 0
M  V30 11854 H 1110.65 -0.103802 1.89716 0
M  V30 11855 H 1108.8 -2.22451 3.18509 0
M  V30 11856 H 1110.47 -0.0399471 4.61283 0
M  V30 11857 H 1108.71 0.0318416 4.33788 0
M  V30 11858 H 1109.38 -1.22433 5.38251 0
M  V30 11859 H 1111.86 -2.03007 3.63218 0
M  V30 11860 H 1110.73 -3.05687 4.55902 0
M  V30 11861 H 1110.99 -3.37813 2.85193 0
M  V30 11862 O 1110.09 -1.59176 -0.273012 0
M  V30 11863 H 1110.78 -1.70554 -0.918198 0
M  V30 END ATOM
M  V30 BEGIN BOND
M  V30 END BOND
M  V30 END CTAB
M  END
$$$$
