drugbank_target|P27487 Dipeptidyl peptidase 4 (DB01076; DB01261; DB01884; DB02004; DB03253; DB03660; DB04491; DB04577; DB04578; DB04876; DB05001; DB06011; DB06127; DB06203; DB06335; DB06880; DB06939; DB06993; DB06994; DB07015; DB07021; DB07067; DB07072; DB07081; DB07092; DB07135; DB07154; DB07181; DB07193; DB07239; DB07271; DB07328; DB07356; DB07412; DB07465; DB07482; DB07666; DB07779; DB07830; DB07851; DB08024; DB08044; DB08051; DB08164; DB08382; DB08429; DB08445; DB08504; DB08530; DB08588; DB08672; DB08743; DB08882; DB11723)
 OpenBabel12092119413D

  0  0  0     0  0            999 V3000
M  V30 BEGIN CTAB
M  V30 COUNTS 12239 12415 0 0 0
M  V30 BEGIN ATOM
M  V30 1 H -0.908 1.98254 -0.117106 0
M  V30 2 N 0 1.576 0 0
M  V30 3 C 0.933 2.03868 1.02534 0
M  V30 4 C 1.911 0.928543 1.3348 0
M  V30 5 O 3.095 1.19667 1.45644 0
M  V30 6 C 0.222 2.43627 2.35294 0
M  V30 7 C -0.732 3.65373 2.2001 0
M  V30 8 S 0.101 5.13292 1.52614 0
M  V30 9 C 1.257 5.56322 2.86805 0
M  V30 10 H 1.49 2.90518 0.631377 0
M  V30 11 H -0.977 1.52953 0.210867 0
M  V30 12 H 0.981 2.67203 3.11629 0
M  V30 13 H -0.358 1.57376 2.7183 0
M  V30 14 H -1.165 3.90944 3.18086 0
M  V30 15 H -1.563 3.418 1.51819 0
M  V30 16 H 0.729 5.58782 3.83104 0
M  V30 17 H 1.672 6.56266 2.65933 0
M  V30 18 H 2.08 4.83886 2.90714 0
M  V30 19 N 1.4781 -0.272755 1.55222 0
M  V30 20 C 2.4251 -1.33716 1.88119 0
M  V30 21 C 3.3951 -1.49066 0.73271 0
M  V30 22 O 4.5801 -1.63469 0.984002 0
M  V30 23 C 1.7201 -2.69238 2.15882 0
M  V30 24 C 0.8331 -2.62108 3.43399 0
M  V30 25 C -0.0319 -3.89811 3.60861 0
M  V30 26 C -0.9929 -3.77193 4.8207 0
M  V30 27 N -1.8559 -4.9673 4.96189 0
M  V30 28 H 2.9841 -1.04962 2.78903 0
M  V30 29 H 0.5211 -0.507088 1.38083 0
M  V30 30 H 2.4791 -3.48089 2.29978 0
M  V30 31 H 1.1091 -2.96194 1.28331 0
M  V30 32 H 0.1611 -1.74967 3.37773 0
M  V30 33 H 1.4731 -2.48685 4.32386 0
M  V30 34 H 0.6271 -4.77103 3.74777 0
M  V30 35 H -0.6339 -4.06102 2.7006 0
M  V30 36 H -1.6289 -2.88284 4.68159 0
M  V30 37 H -0.4039 -3.62421 5.74307 0
M  V30 38 H -2.4579 -5.13431 4.08319 0
M  V30 39 H -2.5409 -4.85839 5.79221 0
M  V30 40 H -1.2729 -5.85594 5.1449 0
M  V30 41 N 2.9562 -1.48159 -0.537278 0
M  V30 42 C 4.1842 -1.59454 -1.31841 0
M  V30 43 C 4.5992 -0.252065 -1.8711 0
M  V30 44 O 3.9562 0.757621 -1.66031 0
M  V30 45 C 4.0072 -2.63546 -2.47439 0
M  V30 46 O 3.7282 -3.92583 -1.94449 0
M  V30 47 C 5.2292 -2.85212 -3.39366 0
M  V30 48 H 2.4492 -0.53785 -0.401196 0
M  V30 49 H 4.9932 -1.93932 -0.648891 0
M  V30 50 H 3.1482 -2.31946 -3.1029 0
M  V30 51 H 3.5622 -4.49629 -2.70063 0
M  V30 52 H 5.0362 -3.61863 -4.16844 0
M  V30 53 H 5.5132 -1.93765 -3.94147 0
M  V30 54 H 6.1192 -3.18086 -2.82314 0
M  V30 55 N 4.4343 0.785586 -1.36625 0
M  V30 56 C 5.8453 1.36101 -1.27803 0
M  V30 57 C 6.1963 1.96035 0.0804875 0
M  V30 58 O 5.3213 1.92834 0.982042 0
M  V30 59 C 5.9163 2.47442 -2.31426 0
M  V30 60 C 4.4753 3.00789 -2.26281 0
M  V30 61 C 3.6223 1.73896 -2.15999 0
M  V30 62 H 6.5733 0.586928 -1.47448 0
M  V30 63 H 6.5943 3.2656 -1.95291 0
M  V30 64 H 6.1063 2.03791 -3.30289 0
M  V30 65 H 4.2073 3.48851 -1.30896 0
M  V30 66 H 4.3203 3.57343 -3.19128 0
M  V30 67 H 2.6843 1.9628 -1.62316 0
M  V30 68 H 3.4673 1.32368 -3.16755 0
M  V30 69 N 5.9124 1.20967 1.01018 0
M  V30 70 C 7.1584 1.0353 1.7508 0
M  V30 71 C 7.5134 -0.42734 1.87594 0
M  V30 72 O 6.8064 -1.31298 1.3954 0
M  V30 73 C 7.0004 1.65997 3.16512 0
M  V30 74 C 6.8294 3.18184 3.17788 0
M  V30 75 C 5.5994 3.87198 3.24662 0
M  V30 76 C 7.7974 4.15334 3.03319 0
M  V30 77 N 5.7794 5.26618 3.15509 0
M  V30 78 C 7.1504 5.41472 3.02007 0
M  V30 79 C 9.2054 4.06449 2.87583 0
M  V30 80 C 7.9084 6.5975 2.86571 0
M  V30 81 C 9.9344 5.24357 2.73503 0
M  V30 82 C 9.2964 6.49404 2.72862 0
M  V30 83 H 5.3954 0.433137 0.651089 0
M  V30 84 H 7.9794 1.5324 1.20107 0
M  V30 85 H 6.1504 1.18863 3.69765 0
M  V30 86 H 7.8824 1.41816 3.79039 0
M  V30 87 H 4.6374 3.38093 3.31648 0
M  V30 88 H 5.0614 5.99626 3.14289 0
M  V30 89 H 9.7034 3.10573 2.86887 0
M  V30 90 H 7.4214 7.55792 2.86015 0
M  V30 91 H 11.0074 5.19299 2.62334 0
M  V30 92 H 9.8874 7.39105 2.62093 0
M  V30 93 N 7.3905 -1.2043 1.01659 0
M  V30 94 C 8.3375 -2.23215 0.586822 0
M  V30 95 C 9.3075 -1.61382 -0.393085 0
M  V30 96 O 10.4925 -1.88544 -0.292525 0
M  V30 97 C 7.6325 -3.45032 -0.0687464 0
M  V30 98 C 6.7455 -4.21296 0.955724 0
M  V30 99 C 5.8805 -5.30507 0.271208 0
M  V30 100 C 4.9195 -5.98515 1.28244 0
M  V30 101 N 4.0565 -6.99316 0.62459 0
M  V30 102 H 8.8965 -2.59336 1.46796 0
M  V30 103 H 6.4335 -1.27431 0.734836 0
M  V30 104 H 8.3915 -4.1459 -0.465965 0
M  V30 105 H 7.0215 -3.09604 -0.913529 0
M  V30 106 H 6.0735 -3.50803 1.4711 0
M  V30 107 H 7.3855 -4.6803 1.72479 0
M  V30 108 H 6.5395 -6.06428 -0.18151 0
M  V30 109 H 5.2785 -4.8481 -0.530163 0
M  V30 110 H 4.2835 -5.21355 1.74554 0
M  V30 111 H 5.5085 -6.46298 2.08509 0
M  V30 112 H 3.4545 -6.55812 -0.156914 0
M  V30 113 H 3.3715 -7.44178 1.33172 0
M  V30 114 H 4.6395 -7.79255 0.195462 0
M  V30 115 N 8.8686 -0.792821 -1.36206 0
M  V30 116 C 10.1146 -0.36733 -1.99446 0
M  V30 117 C 10.4476 1.05917 -1.62774 0
M  V30 118 O 9.7226 1.7324 -0.88421 0
M  V30 119 C 10.0056 -0.535044 -3.56103 0
M  V30 120 C 9.8586 -2.00548 -4.02617 0
M  V30 121 C 11.1776 0.0478191 -4.40074 0
M  V30 122 H 8.2966 -0.134941 -0.724541 0
M  V30 123 H 10.9386 -0.999794 -1.61568 0
M  V30 124 H 9.0886 0.00336329 -3.885 0
M  V30 125 H 10.7606 -2.60521 -3.80692 0
M  V30 126 H 9.0036 -2.50686 -3.54032 0
M  V30 127 H 9.6746 -2.07377 -5.11565 0
M  V30 128 H 12.1506 -0.411822 -4.14057 0
M  V30 129 H 11.0266 -0.0995336 -5.4881 0
M  V30 130 H 11.2876 1.14025 -4.27142 0
M  V30 131 N 10.3467 1.47872 -0.545128 0
M  V30 132 C 11.2767 2.32661 0.197793 0
M  V30 133 C 12.2577 1.43041 0.920504 0
M  V30 134 O 13.4427 1.71912 0.90333 0
M  V30 135 C 10.5727 3.24569 1.23582 0
M  V30 136 C 9.5267 4.23333 0.630323 0
M  V30 137 C 8.8527 5.0448 1.77211 0
M  V30 138 C 10.1527 5.20704 -0.407974 0
M  V30 139 H 11.8467 2.95024 -0.510045 0
M  V30 140 H 9.3927 1.4187 -0.246731 0
M  V30 141 H 11.3457 3.8272 1.76362 0
M  V30 142 H 10.0697 2.60236 1.97344 0
M  V30 143 H 8.7287 3.6639 0.123922 0
M  V30 144 H 8.3767 4.36561 2.49847 0
M  V30 145 H 8.0767 5.71339 1.37281 0
M  V30 146 H 9.6007 5.65487 2.3034 0
M  V30 147 H 11.0147 5.7329 0.033305 0
M  V30 148 H 9.4117 5.95699 -0.725486 0
M  V30 149 H 10.4817 4.66917 -1.30828 0
M  V30 150 N 11.8248 0.280983 1.55075 0
M  V30 151 C 12.7548 -0.597469 2.25727 0
M  V30 152 C 13.7358 -1.15417 1.24952 0
M  V30 153 O 14.9208 -1.18722 1.53684 0
M  V30 154 C 12.0508 -1.7789 2.98283 0
M  V30 155 C 11.0048 -1.35347 4.06036 0
M  V30 156 C 10.3308 -2.61846 4.66198 0
M  V30 157 C 11.6308 -0.499354 5.19907 0
M  V30 158 H 13.3248 -0.00824265 2.99399 0
M  V30 159 H 10.8708 -0.0025244 1.44 0
M  V30 160 H 12.8238 -2.39937 3.46422 0
M  V30 161 H 11.5478 -2.39405 2.22155 0
M  V30 162 H 10.2068 -0.756156 3.58717 0
M  V30 163 H 9.8548 -3.21632 3.86732 0
M  V30 164 H 9.5548 -2.3409 5.38958 0
M  V30 165 H 11.0788 -3.24732 5.1709 0
M  V30 166 H 12.4928 -1.02498 5.64063 0
M  V30 167 H 10.8898 -0.316424 5.99265 0
M  V30 168 H 11.9598 0.480459 4.82514 0
M  V30 169 N 13.3029 -1.57598 0.00835791 0
M  V30 170 C 14.5509 -1.90551 -0.6734 0
M  V30 171 C 14.8719 -0.883301 -1.73847 0
M  V30 172 O 14.1419 0.0781442 -1.95744 0
M  V30 173 H 12.7219 -0.703312 -0.251717 0
M  V30 174 H 15.3839 -1.94833 0.0512592 0
M  V30 175 H 14.4799 -2.9056 -1.13935 0
M  V30 176 N 14.781 0.264519 -1.55364 0
M  V30 177 C 15.711 1.33121 -1.91836 0
M  V30 178 C 16.692 1.51101 -0.781192 0
M  V30 179 O 17.877 1.64003 -1.04003 0
M  V30 180 C 15.007 2.68921 -2.19769 0
M  V30 181 C 13.961 2.65661 -3.35571 0
M  V30 182 C 13.287 4.05093 -3.49004 0
M  V30 183 C 14.587 2.24187 -4.71739 0
M  V30 184 H 16.281 1.02844 -2.81182 0
M  V30 185 H 13.827 0.493286 -1.35287 0
M  V30 186 H 15.78 3.43663 -2.43872 0
M  V30 187 H 14.504 3.00799 -1.27231 0
M  V30 188 H 13.163 1.93377 -3.1145 0
M  V30 189 H 12.811 4.34206 -2.53917 0
M  V30 190 H 12.511 4.03804 -4.26868 0
M  V30 191 H 14.035 4.81561 -3.75408 0
M  V30 192 H 15.449 2.88654 -4.9533 0
M  V30 193 H 13.846 2.34044 -5.52579 0
M  V30 194 H 14.916 1.19327 -4.69988 0
M  V30 195 N 16.2591 1.48442 0.529413 0
M  V30 196 C 17.1891 1.65902 1.64313 0
M  V30 197 C 18.1701 0.507897 1.6234 0
M  V30 198 O 19.3551 0.740503 1.79528 0
M  V30 199 C 16.4851 1.69911 3.02898 0
M  V30 200 C 15.4391 2.8453 3.19729 0
M  V30 201 C 14.7651 2.73629 4.59381 0
M  V30 202 C 16.0651 4.25821 3.02447 0
M  V30 203 H 17.7591 2.5914 1.49955 0
M  V30 204 H 15.3051 1.24709 0.719982 0
M  V30 205 H 17.2581 1.80715 3.80684 0
M  V30 206 H 15.9821 0.732524 3.18279 0
M  V30 207 H 14.6411 2.73283 2.44361 0
M  V30 208 H 14.2891 1.74938 4.71599 0
M  V30 209 H 13.9891 3.50541 4.71588 0
M  V30 210 H 15.5131 2.86401 5.39265 0
M  V30 211 H 16.9271 4.37898 3.70024 0
M  V30 212 H 15.3241 5.03735 3.26146 0
M  V30 213 H 16.3941 4.42244 1.98867 0
M  V30 214 N 17.7372 -0.778329 1.37039 0
M  V30 215 C 18.9852 -1.53361 1.31623 0
M  V30 216 C 19.3062 -1.94739 -0.100831 0
M  V30 217 O 18.5762 -1.65797 -1.04347 0
M  V30 218 H 17.1562 -0.568794 0.484234 0
M  V30 219 H 19.8182 -0.926742 1.71457 0
M  V30 220 H 18.9142 -2.43606 1.95096 0
M  V30 221 N 19.2153 -1.21501 -1.00376 0
M  V30 222 C 20.1783 -0.976927 -2.07337 0
M  V30 223 C 21.1783 0.0525322 -1.60714 0
M  V30 224 O 22.3683 -0.184869 -1.73216 0
M  V30 225 C 19.5003 -0.473423 -3.37597 0
M  V30 226 H 20.6933 -1.92587 -2.29892 0
M  V30 227 H 18.2463 -1.03217 -1.17371 0
M  V30 228 H 18.9813 0.480379 -3.20722 0
M  V30 229 H 18.7663 -1.216 -3.72768 0
M  V30 230 H 20.2563 -0.32675 -4.1632 0
M  V30 231 N 20.6934 1.19889 -1.02296 0
M  V30 232 C 21.6564 2.21116 -0.603351 0
M  V30 233 C 22.6564 1.5738 0.329884 0
M  V30 234 O 23.8464 1.73802 0.117702 0
M  V30 235 C 20.9784 3.40696 0.117992 0
M  V30 236 H 22.1714 2.59754 -1.49893 0
M  V30 237 H 19.7244 1.33463 -0.813468 0
M  V30 238 H 20.4594 3.07569 1.0282 0
M  V30 239 H 20.2444 3.88188 -0.552511 0
M  V30 240 H 21.7344 4.15692 0.398696 0
M  V30 241 N 22.1715 0.800033 1.35784 0
M  V30 242 C 23.1345 0.211565 2.28221 0
M  V30 243 C 24.1345 -0.59728 1.49296 0
M  V30 244 O 25.3245 -0.416721 1.69142 0
M  V30 245 C 22.4565 -0.705846 3.33513 0
M  V30 246 H 23.6495 1.02677 2.81776 0
M  V30 247 H 21.2025 0.570211 1.45528 0
M  V30 248 H 21.9375 -1.54498 2.85133 0
M  V30 249 H 21.7225 -0.127655 3.91892 0
M  V30 250 H 23.2125 -1.11211 4.02519 0
M  V30 251 N 23.6496 -1.47581 0.552962 0
M  V30 252 C 24.5796 -2.32762 -0.185451 0
M  V30 253 C 25.5606 -1.43527 -0.912905 0
M  V30 254 O 26.7456 -1.72388 -0.894201 0
M  V30 255 C 23.8756 -3.25219 -1.21859 0
M  V30 256 C 22.8296 -4.23661 -0.607864 0
M  V30 257 C 22.1556 -5.05413 -1.74533 0
M  V30 258 C 23.4556 -5.20481 0.435582 0
M  V30 259 H 25.1496 -2.94749 0.525684 0
M  V30 260 H 22.6956 -1.41738 0.254251 0
M  V30 261 H 24.6486 -3.8365 -1.7433 0
M  V30 262 H 23.3726 -2.61279 -1.95961 0
M  V30 263 H 22.0316 -3.66451 -0.104489 0
M  V30 264 H 21.6796 -4.3788 -2.47529 0
M  V30 265 H 21.3796 -5.72059 -1.34249 0
M  V30 266 H 22.9036 -5.66701 -2.27338 0
M  V30 267 H 24.3176 -5.733 -0.00290157 0
M  V30 268 H 22.7146 -5.95305 0.757067 0
M  V30 269 H 23.7846 -4.66217 1.33303 0
M  V30 270 N 25.1277 -0.289203 -1.54924 0
M  V30 271 C 26.3737 0.323998 -2.00195 0
M  V30 272 C 26.7067 1.54441 -1.17735 0
M  V30 273 O 25.9817 1.92875 -0.250878 0
M  V30 274 C 26.2647 0.692276 -3.53383 0
M  V30 275 C 26.1177 -0.536457 -4.46589 0
M  V30 276 C 27.4367 1.52335 -4.12895 0
M  V30 277 H 24.5557 0.116289 -0.727768 0
M  V30 278 H 27.1977 -0.398954 -1.85764 0
M  V30 279 H 25.3477 1.30822 -3.65811 0
M  V30 280 H 27.0197 -1.17499 -4.46085 0
M  V30 281 H 25.2627 -1.17192 -4.1767 0
M  V30 282 H 25.9337 -0.234806 -5.515 0
M  V30 283 H 28.4097 1.00302 -4.0383 0
M  V30 284 H 27.2857 1.74982 -5.20262 0
M  V30 285 H 27.5467 2.50886 -3.64018 0
M  V30 286 N 26.6058 1.57591 -0.0167156 0
M  V30 287 C 27.8338 1.95575 0.675128 0
M  V30 288 C 28.2488 0.892542 1.6637 0
M  V30 289 O 27.6058 -0.126912 1.82058 0
M  V30 290 C 27.6568 3.33608 1.39239 0
M  V30 291 O 27.3778 4.3585 0.443444 0
M  V30 292 C 28.8788 3.86151 2.17721 0
M  V30 293 H 26.0988 0.644423 0.186978 0
M  V30 294 H 28.6428 2.0437 -0.0728 0
M  V30 295 H 26.7978 3.2607 2.09182 0
M  V30 296 H 27.2118 5.158 0.951358 0
M  V30 297 H 28.6858 4.85114 2.63379 0
M  V30 298 H 29.1628 3.19738 3.01105 0
M  V30 299 H 29.7688 3.96918 1.52761 0
M  V30 300 N 28.0839 -0.256276 1.55502 0
M  V30 301 C 29.3329 -0.983486 1.76098 0
M  V30 302 C 29.6459 -1.86837 0.578896 0
M  V30 303 O 30.8519 -2.63163 0.667648 0
M  V30 304 C 29.3079 -1.79868 3.1173 0
M  V30 305 C 28.9159 -0.961648 4.37557 0
M  V30 306 C 30.6599 -2.51919 3.41668 0
M  V30 307 C 28.5669 -1.77219 5.64223 0
M  V30 308 H 27.4969 -0.370936 0.656447 0
M  V30 309 H 30.1479 -0.238492 1.81944 0
M  V30 310 H 28.5299 -2.58527 2.99966 0
M  V30 311 H 29.7039 -0.218048 4.60284 0
M  V30 312 H 28.0189 -0.354913 4.14885 0
M  V30 313 H 30.6159 -3.12998 4.33516 0
M  V30 314 H 30.9589 -3.23059 2.62562 0
M  V30 315 H 31.4919 -1.80278 3.54605 0
M  V30 316 H 28.2309 -1.10471 6.46124 0
M  V30 317 H 27.7509 -2.49132 5.45613 0
M  V30 318 H 29.4299 -2.34169 6.03137 0
M  V30 319 N 29.562 -1.4872 -0.521534 0
M  V30 320 C 30.811 -1.56419 -1.27341 0
M  V30 321 C 31.124 -0.246805 -1.94037 0
M  V30 322 O 32.33 -0.202122 -2.70747 0
M  V30 323 C 30.786 -2.75896 -2.31105 0
M  V30 324 C 30.394 -4.14311 -1.70441 0
M  V30 325 C 32.138 -2.92913 -3.07249 0
M  V30 326 C 30.045 -5.25038 -2.72194 0
M  V30 327 H 28.975 -0.582344 -0.478949 0
M  V30 328 H 31.626 -1.75071 -0.549779 0
M  V30 329 H 30.008 -2.50697 -3.06541 0
M  V30 330 H 31.182 -4.49564 -1.01136 0
M  V30 331 H 29.497 -4.02482 -1.06759 0
M  V30 332 H 32.094 -3.72805 -3.83302 0
M  V30 333 H 32.437 -2.02689 -3.63625 0
M  V30 334 H 32.97 -3.18054 -2.38928 0
M  V30 335 H 29.709 -6.17255 -2.20627 0
M  V30 336 H 29.229 -4.94263 -3.39801 0
M  V30 337 H 30.908 -5.53508 -3.35019 0
M  V30 338 N 31.0401 0.771051 -1.3745 0
M  V30 339 C 32.2681 1.56015 -1.35893 0
M  V30 340 C 32.6831 1.88718 0.0555523 0
M  V30 341 O 32.0401 1.51502 1.01752 0
M  V30 342 C 32.0911 2.87001 -2.19801 0
M  V30 343 O 31.8121 2.557 -3.55738 0
M  V30 344 C 33.3131 3.81228 -2.26231 0
M  V30 345 H 30.5331 0.483317 -0.465453 0
M  V30 346 H 33.0771 0.955611 -1.80799 0
M  V30 347 H 31.2321 3.43877 -1.78402 0
M  V30 348 H 31.6461 3.39584 -3.99729 0
M  V30 349 H 33.1201 4.70139 -2.89263 0
M  V30 350 H 33.5971 4.20409 -1.27093 0
M  V30 351 H 34.2031 3.30281 -2.67945 0
M  V30 352 N 32.5182 1.22032 0.997298 0
M  V30 353 C 33.7642 1.04376 1.73878 0
M  V30 354 C 34.0972 -0.420716 1.89588 0
M  V30 355 O 33.3722 -1.31202 1.43583 0
M  V30 356 C 33.6552 1.75047 3.14691 0
M  V30 357 C 33.5082 3.29062 3.06656 0
M  V30 358 C 34.8272 1.49928 4.13775 0
M  V30 359 H 31.9462 0.380578 0.631133 0
M  V30 360 H 34.5882 1.50312 1.16217 0
M  V30 361 H 32.7382 1.35996 3.63919 0
M  V30 362 H 34.4102 3.7753 2.65083 0
M  V30 363 H 32.6532 3.58967 2.43568 0
M  V30 364 H 33.3242 3.73683 4.06282 0
M  V30 365 H 35.8002 1.83842 3.73285 0
M  V30 366 H 34.6762 2.01878 5.10428 0
M  V30 367 H 34.9372 0.430929 4.39995 0
M  V30 368 N 33.9963 -1.19345 1.0293 0
M  V30 369 C 35.4073 -1.70725 0.755633 0
M  V30 370 C 35.7583 -1.82326 -0.724676 0
M  V30 371 O 34.8833 -1.49471 -1.56484 0
M  V30 372 C 35.4783 -3.10084 1.36503 0
M  V30 373 C 34.0373 -3.58723 1.13994 0
M  V30 374 C 33.1843 -2.35577 1.46283 0
M  V30 375 H 36.1353 -1.0418 1.19718 0
M  V30 376 H 36.1563 -3.72787 0.762217 0
M  V30 377 H 35.6683 -3.01609 2.44241 0
M  V30 378 H 33.7693 -3.72512 0.0807901 0
M  V30 379 H 33.8823 -4.42816 1.82894 0
M  V30 380 H 32.2463 -2.38935 0.88217 0
M  V30 381 H 33.0293 -2.29731 2.55105 0
M  V30 382 N 35.4744 -0.807222 -1.35358 0
M  V30 383 C 36.7204 -0.388463 -1.99045 0
M  V30 384 C 37.0534 1.04184 -1.63888 0
M  V30 385 O 36.3284 1.72292 -0.902535 0
M  V30 386 C 36.6114 -0.572783 -3.55515 0
M  V30 387 C 36.4644 -2.04807 -4.00468 0
M  V30 388 C 37.7834 0.00114064 -4.401 0
M  V30 389 H 34.9024 -0.142619 -0.723069 0
M  V30 390 H 37.5444 -1.01687 -1.60498 0
M  V30 391 H 35.6944 -0.0378425 -3.88482 0
M  V30 392 H 37.3664 -2.64544 -3.77908 0
M  V30 393 H 35.6094 -2.54427 -3.51353 0
M  V30 394 H 36.2804 -2.12792 -5.09337 0
M  V30 395 H 38.7564 -0.455716 -4.13597 0
M  V30 396 H 37.6324 -0.157737 -5.48673 0
M  V30 397 H 37.8934 1.09488 -4.28328 0
M  V30 398 N 36.9525 1.47285 -0.560781 0
M  V30 399 C 38.1985 2.02764 -0.0381184 0
M  V30 400 C 38.5315 1.43384 1.30976 0
M  V30 401 O 37.8065 0.590733 1.85312 0
M  V30 402 C 38.0895 3.60064 0.0511427 0
M  V30 403 C 37.9425 4.2987 -1.32408 0
M  V30 404 C 39.2615 4.33439 0.762795 0
M  V30 405 H 36.3805 0.736841 -0.0153264 0
M  V30 406 H 39.0225 1.75675 -0.723759 0
M  V30 407 H 37.1725 3.83274 0.635065 0
M  V30 408 H 38.8445 4.17989 -1.95148 0
M  V30 409 H 37.0875 3.90085 -1.8978 0
M  V30 410 H 37.7585 5.38478 -1.21431 0
M  V30 411 H 40.2345 4.15243 0.266965 0
M  V30 412 H 39.1105 5.43124 0.794221 0
M  V30 413 H 39.3715 4.02915 1.81966 0
M  V30 414 N 38.4306 0.297415 1.54768 0
M  V30 415 C 39.3606 -0.573494 2.26348 0
M  V30 416 C 40.3416 -1.14085 1.26169 0
M  V30 417 O 41.5266 -1.17086 1.54934 0
M  V30 418 C 38.6566 -1.74716 3.00153 0
M  V30 419 C 37.6106 -1.31032 4.07449 0
M  V30 420 C 36.9366 -2.56887 4.68949 0
M  V30 421 C 38.2366 -0.444183 5.20408 0
M  V30 422 H 39.9306 0.0235131 2.99391 0
M  V30 423 H 37.4766 0.0127488 1.43994 0
M  V30 424 H 39.4296 -2.3625 3.48947 0
M  V30 425 H 38.1536 -2.37035 2.24682 0
M  V30 426 H 36.8126 -0.718066 3.59499 0
M  V30 427 H 36.4606 -3.17512 3.90122 0
M  V30 428 H 36.1606 -2.2836 5.41411 0
M  V30 429 H 37.6846 -3.19229 5.20505 0
M  V30 430 H 39.0986 -0.9651 5.65118 0
M  V30 431 H 37.4956 -0.252846 5.99567 0
M  V30 432 H 38.5656 0.531609 4.81977 0
M  V30 433 N 39.9087 -1.5758 0.0250728 0
M  V30 434 C 40.8387 -2.13007 -0.956575 0
M  V30 435 C 41.8197 -1.0452 -1.342 0
M  V30 436 O 43.0047 -1.32332 -1.42133 0
M  V30 437 C 40.1347 -2.65386 -2.24026 0
M  V30 438 C 39.0887 -3.78623 -1.99571 0
M  V30 439 C 38.4147 -4.17414 -3.3417 0
M  V30 440 C 39.7147 -5.04867 -1.33814 0
M  V30 441 H 41.4087 -2.9528 -0.494991 0
M  V30 442 H 38.9547 -1.42042 -0.236651 0
M  V30 443 H 40.9077 -3.02794 -2.93076 0
M  V30 444 H 39.6317 -1.80268 -2.72343 0
M  V30 445 H 38.2907 -3.41646 -1.32941 0
M  V30 446 H 37.9387 -3.29284 -3.80238 0
M  V30 447 H 37.6387 -4.93719 -3.18615 0
M  V30 448 H 39.1627 -4.57402 -4.04495 0
M  V30 449 H 40.5767 -5.39888 -1.92857 0
M  V30 450 H 38.9737 -5.86144 -1.28669 0
M  V30 451 H 40.0437 -4.83904 -0.310561 0
M  V30 452 N 41.3868 0.248026 -1.55636 0
M  V30 453 C 42.3348 1.32683 -1.91045 0
M  V30 454 C 43.3288 1.49883 -0.789401 0
M  V30 455 O 44.5348 1.51371 -0.974007 0
M  V30 456 H 40.9098 0.444272 -0.606734 0
M  V30 457 H 42.8808 1.00085 -2.81115 0
M  V30 458 C 41.6298 2.6755 -2.22064 0
M  V30 459 H 40.9528 2.55114 -3.07826 0
M  V30 460 H 42.3928 3.41912 -2.50743 0
M  V30 461 C 40.8518 3.20556 -1.0366 0
M  V30 462 O 41.3818 4.00695 -0.284016 0
M  V30 463 N 39.5878 2.78568 -0.82753 0
M  V30 464 H 39.1348 2.1351 -1.44123 0
M  V30 465 H 39.0928 3.14378 -0.0369803 0
M  V30 466 N 42.8649 1.48995 0.513639 0
M  V30 467 C 43.8119 1.6473 1.61656 0
M  V30 468 C 44.7819 0.488984 1.58739 0
M  V30 469 O 45.9669 0.714478 1.76918 0
M  V30 470 C 43.1069 1.7082 2.99858 0
M  V30 471 C 42.2199 2.9787 3.12885 0
M  V30 472 C 41.3549 2.95017 4.41744 0
M  V30 473 C 40.3939 4.16702 4.48359 0
M  V30 474 N 39.5309 4.11832 5.68629 0
M  V30 475 H 44.3709 2.58909 1.47547 0
M  V30 476 H 41.9079 1.28382 0.71808 0
M  V30 477 H 43.8659 1.72331 3.79944 0
M  V30 478 H 42.4959 0.801181 3.12699 0
M  V30 479 H 41.5479 3.06029 2.25944 0
M  V30 480 H 42.8599 3.8786 3.13633 0
M  V30 481 H 42.0139 2.95021 5.30139 0
M  V30 482 H 40.7529 2.02784 4.43542 0
M  V30 483 H 39.7579 4.16955 3.58369 0
M  V30 484 H 40.9829 5.10113 4.48287 0
M  V30 485 H 38.9289 3.22428 5.71293 0
M  V30 486 H 38.8459 4.95543 5.7094 0
M  V30 487 H 40.1139 4.1592 6.59266 0
M  V30 488 N 44.343 -0.763751 1.37857 0
M  V30 489 C 45.591 -1.51957 1.33243 0
M  V30 490 C 45.912 -1.94835 -0.0801709 0
M  V30 491 O 45.182 -1.66894 -1.02582 0
M  V30 492 H 43.762 -0.563626 0.49024 0
M  V30 493 H 46.424 -0.908504 1.7243 0
M  V30 494 H 45.52 -2.41523 1.97669 0
M  V30 495 N 45.8211 -1.22559 -0.990812 0
M  V30 496 C 47.0491 -1.07779 -1.76611 0
M  V30 497 C 47.4641 0.371513 -1.85109 0
M  V30 498 O 46.8211 1.25737 -1.32274 0
M  V30 499 C 46.8721 -1.68512 -3.19822 0
M  V30 500 O 46.5931 -3.07774 -3.1178 0
M  V30 501 C 48.0941 -1.59035 -4.13791 0
M  V30 502 H 45.3141 -0.377729 -0.554583 0
M  V30 503 H 47.8581 -1.62195 -1.24551 0
M  V30 504 H 46.0131 -1.18154 -3.68942 0
M  V30 505 H 46.4271 -3.37062 -4.01858 0
M  V30 506 H 47.9011 -2.0625 -5.1202 0
M  V30 507 H 48.3781 -0.547273 -4.35777 0
M  V30 508 H 48.9841 -2.08709 -3.70568 0
M  V30 509 N 47.2992 1.18797 -1.03562 0
M  V30 510 C 48.5762 1.84469 -0.650434 0
M  V30 511 C 48.9562 1.92319 0.870433 0
M  V30 512 O 48.3042 1.44528 1.76986 0
M  V30 513 C 48.5142 3.2306 -1.32036 0
M  V30 514 C 49.8622 3.9915 -1.44792 0
M  V30 515 O 50.8862 3.32481 -1.27806 0
M  V30 516 O 49.7452 5.18587 -1.72423 0
M  V30 517 H 46.8392 0.795251 -0.226946 0
M  V30 518 H 49.3852 1.26231 -1.13419 0
M  V30 519 H 48.1572 3.1222 -2.3587 0
M  V30 520 H 47.7802 3.88949 -0.8249 0
M  V30 521 N 48.7773 0.814389 1.34928 0
M  V30 522 C 50.0543 0.321363 1.92942 0
M  V30 523 C 50.4343 -1.19014 1.74353 0
M  V30 524 O 49.7823 -1.99328 1.11716 0
M  V30 525 C 49.9923 0.741323 3.41036 0
M  V30 526 C 51.3403 0.735266 4.18185 0
M  V30 527 O 52.3643 0.68336 3.49584 0
M  V30 528 O 51.2233 0.800703 5.40602 0
M  V30 529 H 48.3173 0.0858893 0.822528 0
M  V30 530 H 50.8633 0.898609 1.43955 0
M  V30 531 H 49.6353 1.78276 3.4833 0
M  V30 532 H 49.2583 0.139307 3.97356 0
M  V30 533 N 50.2554 -1.46986 0.568584 0
M  V30 534 C 51.2184 -2.28624 -0.162366 0
M  V30 535 C 52.2184 -1.37596 -0.832103 0
M  V30 536 O 53.4084 -1.60115 -0.68622 0
M  V30 537 C 50.5404 -3.17596 -1.23878 0
M  V30 538 H 51.7334 -2.94722 0.554899 0
M  V30 539 H 49.2864 -1.52863 0.325976 0
M  V30 540 H 50.0214 -2.56214 -1.98808 0
M  V30 541 H 49.8064 -3.846 -0.763219 0
M  V30 542 H 51.2964 -3.79078 -1.75185 0
M  V30 543 N 51.7335 -0.305618 -1.54608 0
M  V30 544 C 52.9615 0.304775 -2.04643 0
M  V30 545 C 53.3765 1.47167 -1.18268 0
M  V30 546 O 52.7335 1.81296 -0.209328 0
M  V30 547 C 52.7845 0.756564 -3.53495 0
M  V30 548 O 52.5055 -0.36389 -4.36586 0
M  V30 549 C 54.0065 1.43163 -4.19546 0
M  V30 550 H 51.2265 0.0655481 -0.667791 0
M  V30 551 H 53.7705 -0.446592 -1.99564 0
M  V30 552 H 51.9255 1.45794 -3.58919 0
M  V30 553 H 52.3395 -0.0113121 -5.24499 0
M  V30 554 H 53.8135 1.69886 -5.25207 0
M  V30 555 H 54.2905 2.37318 -3.69563 0
M  V30 556 H 54.8965 0.773307 -4.18211 0
M  V30 557 N 53.2116 1.57565 -0.0334293 0
M  V30 558 C 54.1746 2.09393 0.932048 0
M  V30 559 C 55.1746 1.00986 1.25134 0
M  V30 560 O 56.3646 1.27129 1.19096 0
M  V30 561 C 53.4966 2.56338 2.2473 0
M  V30 562 H 54.6896 2.95984 0.483085 0
M  V30 563 H 52.2426 1.54819 0.21468 0
M  V30 564 H 52.9776 1.7309 2.74245 0
M  V30 565 H 52.7626 3.35542 2.02865 0
M  V30 566 H 54.2526 2.96646 2.93923 0
M  V30 567 N 54.6897 -0.239769 1.55765 0
M  V30 568 C 55.9667 -0.990056 1.68693 0
M  V30 569 C 56.3467 -2.03107 0.5754 0
M  V30 570 O 55.6947 -2.24604 -0.42017 0
M  V30 571 C 55.9047 -1.61696 3.09282 0
M  V30 572 C 57.2527 -2.11613 3.6811 0
M  V30 573 O 58.2767 -1.71624 3.12127 0
M  V30 574 O 57.1357 -2.85057 4.66267 0
M  V30 575 H 54.2297 -0.461299 0.686391 0
M  V30 576 H 56.7757 -0.232991 1.68093 0
M  V30 577 H 55.5477 -0.864357 3.81634 0
M  V30 578 H 55.1707 -2.44005 3.13923 0
M  V30 579 N 56.1678 -1.49265 -0.50573 0
M  V30 580 C 57.3928 -1.62478 -1.28902 0
M  V30 581 C 57.8178 -0.294332 -1.85783 0
M  V30 582 O 57.1758 0.737412 -1.65626 0
M  V30 583 C 57.2238 -2.69268 -2.39848 0
M  V30 584 O 56.3278 -2.28113 -3.43567 0
M  V30 585 H 55.6688 -0.54399 -0.380751 0
M  V30 586 H 58.1988 -1.95421 -0.605952 0
M  V30 587 H 58.2088 -2.91291 -2.85681 0
M  V30 588 H 56.8838 -3.65846 -1.97812 0
M  V30 589 H 55.4608 -2.16401 -3.03685 0
M  V30 590 N 57.6459 0.756429 -1.3826 0
M  V30 591 C 59.0619 1.0591 -1.19395 0
M  V30 592 C 59.2619 2.01459 -0.0406567 0
M  V30 593 O 58.3179 2.44909 0.614467 0
M  V30 594 C 59.6309 1.64191 -2.51916 0
M  V30 595 C 61.1789 1.76376 -2.58574 0
M  V30 596 C 61.6539 2.38069 -3.91264 0
M  V30 597 N 63.1449 2.45503 -3.92788 0
M  V30 598 C 63.8799 2.94126 -4.92217 0
M  V30 599 N 63.3759 3.42805 -6.02043 0
M  V30 600 N 65.1689 2.9314 -4.7961 0
M  V30 601 H 57.3199 0.122313 -2.12048 0
M  V30 602 H 59.5829 0.116892 -0.940766 0
M  V30 603 H 59.2889 1.01451 -3.3675 0
M  V30 604 H 59.1629 2.6329 -2.70108 0
M  V30 605 H 61.5499 2.38244 -1.74137 0
M  V30 606 H 61.6309 0.759894 -2.44252 0
M  V30 607 H 61.2749 1.76835 -4.76121 0
M  V30 608 H 61.2049 3.39091 -4.02895 0
M  V30 609 H 63.6959 2.1107 -3.13461 0
M  V30 610 H 64.0089 3.78354 -6.73846 0
M  V30 611 H 62.3539 3.4087 -6.05667 0
M  V30 612 H 65.5449 2.54419 -3.92923 0
M  V30 613 H 65.7179 3.30721 -5.5725 0
M  V30 614 N 59.124 1.23083 0.984299 0
M  V30 615 C 60.071 1.00854 2.07598 0
M  V30 616 C 61.041 -0.0726709 1.65941 0
M  V30 617 O 62.226 0.0786535 1.90638 0
M  V30 618 C 59.366 0.601645 3.39815 0
M  V30 619 C 58.479 1.75456 3.94765 0
M  V30 620 C 57.614 1.29482 5.15177 0
M  V30 621 C 56.653 2.41873 5.62284 0
M  V30 622 N 55.79 1.96885 6.73929 0
M  V30 623 H 60.63 1.943 2.25946 0
M  V30 624 H 58.167 0.968001 1.10762 0
M  V30 625 H 60.125 0.346854 4.15756 0
M  V30 626 H 58.755 -0.295803 3.21442 0
M  V30 627 H 57.807 2.12346 3.15616 0
M  V30 628 H 59.119 2.59965 4.25699 0
M  V30 629 H 58.273 0.997923 5.98437 0
M  V30 630 H 57.012 0.420046 4.85888 0
M  V30 631 H 56.017 2.72342 4.77608 0
M  V30 632 H 57.242 3.29881 5.93595 0
M  V30 633 H 55.188 1.11782 6.46406 0
M  V30 634 H 55.105 2.74956 7.04227 0
M  V30 635 H 56.373 1.70289 7.60672 0
M  V30 636 N 60.6021 -1.18246 1.0419 0
M  V30 637 C 61.8301 -1.92195 0.766072 0
M  V30 638 C 62.2451 -1.76247 -0.676933 0
M  V30 639 O 61.6021 -1.09293 -1.46155 0
M  V30 640 C 61.6531 -3.43568 1.12442 0
M  V30 641 O 61.3741 -3.59015 2.51078 0
M  V30 642 C 62.8751 -4.34613 0.873275 0
M  V30 643 H 60.0951 -0.610114 0.279288 0
M  V30 644 H 62.6391 -1.50007 1.38989 0
M  V30 645 H 60.7941 -3.8354 0.545542 0
M  V30 646 H 61.2081 -4.5273 2.64831 0
M  V30 647 H 62.6821 -5.39374 1.17385 0
M  V30 648 H 63.1591 -4.38781 -0.191909 0
M  V30 649 H 63.7651 -4.00341 1.43551 0
M  V30 650 N 62.0802 -0.821533 -1.34494 0
M  V30 651 C 63.3102 -0.421272 -2.02259 0
M  V30 652 C 63.7182 0.977047 -1.6202 0
M  V30 653 O 63.0612 1.64348 -0.820703 0
M  V30 654 C 63.1232 -0.44231 -3.56769 0
M  V30 655 C 62.7872 -1.79372 -4.20327 0
M  V30 656 C 63.7842 -2.75435 -4.40944 0
M  V30 657 C 61.4692 -2.08182 -4.57127 0
M  V30 658 C 63.4632 -3.98482 -4.97484 0
M  V30 659 C 61.1502 -3.31489 -5.13379 0
M  V30 660 C 62.1482 -4.26457 -5.33501 0
M  V30 661 O 61.8362 -5.47585 -5.88562 0
M  V30 662 H 61.5682 -0.167473 -0.654927 0
M  V30 663 H 64.1222 -1.11073 -1.72777 0
M  V30 664 H 62.3522 0.303836 -3.85505 0
M  V30 665 H 64.0412 -0.0622925 -4.05852 0
M  V30 666 H 64.8072 -2.54473 -4.12878 0
M  V30 667 H 60.6862 -1.35066 -4.4077 0
M  V30 668 H 64.2302 -4.72618 -5.13106 0
M  V30 669 H 60.1272 -3.52316 -5.40873 0
M  V30 670 H 60.8952 -5.49086 -6.06998 0
M  V30 671 N 63.5583 1.46682 -0.576371 0
M  V30 672 C 64.7863 2.06798 -0.0649635 0
M  V30 673 C 65.2013 1.42612 1.23723 0
M  V30 674 O 64.5583 0.529203 1.74659 0
M  V30 675 C 64.6093 3.6132 0.114202 0
M  V30 676 O 64.3303 4.23104 -1.13644 0
M  V30 677 C 65.8313 4.38349 0.66069 0
M  V30 678 H 63.0513 0.668778 -0.0545616 0
M  V30 679 H 65.5953 1.88404 -0.795237 0
M  V30 680 H 63.7503 3.79162 0.794673 0
M  V30 681 H 64.1643 5.15894 -0.946253 0
M  V30 682 H 65.6383 5.47081 0.73526 0
M  V30 683 H 66.1153 4.05953 1.67627 0
M  V30 684 H 66.7213 4.25297 0.0152951 0
M  V30 685 N 65.0364 0.313813 1.54444 0
M  V30 686 C 65.9664 -0.549454 2.26943 0
M  V30 687 C 66.9474 -1.12741 1.27372 0
M  V30 688 O 68.1324 -1.15436 1.56167 0
M  V30 689 C 65.2624 -1.71523 3.01989 0
M  V30 690 C 64.2164 -1.26703 4.08816 0
M  V30 691 C 63.5424 -2.51898 4.71647 0
M  V30 692 C 64.8424 -0.388962 5.2085 0
M  V30 693 H 66.5364 0.0552661 2.99349 0
M  V30 694 H 64.0824 0.0280207 1.43973 0
M  V30 695 H 66.0354 -2.32535 3.51433 0
M  V30 696 H 64.7594 -2.34639 2.27183 0
M  V30 697 H 63.4184 -0.679896 3.6024 0
M  V30 698 H 63.0664 -3.13356 3.93468 0
M  V30 699 H 62.7664 -2.22605 5.43802 0
M  V30 700 H 64.2904 -3.1369 5.23861 0
M  V30 701 H 65.7044 -0.905107 5.6611 0
M  V30 702 H 64.1014 -0.18924 5.99802 0
M  V30 703 H 65.1714 0.582699 4.81386 0
M  V30 704 N 66.5145 -1.57545 0.0417849 0
M  V30 705 C 67.7425 -1.96624 -0.643928 0
M  V30 706 C 68.1575 -0.918897 -1.64929 0
M  V30 707 O 67.5145 0.0979323 -1.82237 0
M  V30 708 C 67.5655 -3.35781 -1.33914 0
M  V30 709 O 67.2865 -4.365 -0.374048 0
M  V30 710 C 68.7875 -3.89566 -2.1155 0
M  V30 711 H 66.0075 -0.647316 -0.176702 0
M  V30 712 H 68.5515 -2.04229 0.105304 0
M  V30 713 H 66.7065 -3.29357 -2.03968 0
M  V30 714 H 67.1205 -5.17248 -0.869179 0
M  V30 715 H 68.5945 -4.89242 -2.55628 0
M  V30 716 H 69.0715 -3.24488 -2.9598 0
M  V30 717 H 69.6775 -3.99298 -1.46427 0
M  V30 718 N 67.9926 0.231505 -1.5589 0
M  V30 719 C 69.2696 0.981096 -1.69215 0
M  V30 720 C 69.6496 2.02799 -0.586164 0
M  V30 721 O 68.9976 2.24823 0.408253 0
M  V30 722 C 69.2076 1.60054 -3.10135 0
M  V30 723 C 70.5556 2.09658 -3.69227 0
M  V30 724 O 71.5796 1.69967 -3.13033 0
M  V30 725 O 70.4386 2.8258 -4.67772 0
M  V30 726 H 67.5326 0.457653 -0.688827 0
M  V30 727 H 70.0786 0.224073 -1.68214 0
M  V30 728 H 68.8506 0.844105 -3.82087 0
M  V30 729 H 68.4736 2.42336 -3.15212 0
M  V30 730 N 69.4707 1.49531 0.497807 0
M  V30 731 C 70.7007 1.62657 1.27382 0
M  V30 732 C 71.1087 0.298488 1.86831 0
M  V30 733 O 70.4517 -0.72647 1.68725 0
M  V30 734 C 70.5137 2.6393 2.44093 0
M  V30 735 C 70.1777 4.08195 2.05489 0
M  V30 736 C 71.1747 4.949 1.59279 0
M  V30 737 C 68.8597 4.53948 2.15026 0
M  V30 738 C 70.8537 6.25397 1.23113 0
M  V30 739 C 68.5407 5.84458 1.78473 0
M  V30 740 C 69.5387 6.70006 1.32591 0
M  V30 741 O 69.2267 7.98083 0.965327 0
M  V30 742 H 68.9587 0.550429 0.392434 0
M  V30 743 H 71.5127 1.96325 0.603801 0
M  V30 744 H 69.7427 2.25449 3.14181 0
M  V30 745 H 71.4317 2.66552 3.06113 0
M  V30 746 H 72.1977 4.60779 1.51354 0
M  V30 747 H 68.0767 3.87525 2.4969 0
M  V30 748 H 71.6207 6.92125 0.872299 0
M  V30 749 H 67.5177 6.18107 1.86048 0
M  V30 750 H 68.2857 8.11122 1.09652 0
M  V30 751 N 70.9488 -0.749086 1.3866 0
M  V30 752 C 71.8788 -1.8764 1.38973 0
M  V30 753 C 72.8598 -1.68178 0.255004 0
M  V30 754 O 74.0448 -1.88704 0.458754 0
M  V30 755 C 71.1748 -3.25222 1.21851 0
M  V30 756 C 70.1288 -3.59295 2.32575 0
M  V30 757 C 69.4548 -4.95663 2.00555 0
M  V30 758 C 70.7548 -3.63709 3.7485 0
M  V30 759 H 72.4488 -1.87635 2.3331 0
M  V30 760 H 69.9948 -0.901329 1.12303 0
M  V30 761 H 71.9478 -4.03746 1.20695 0
M  V30 762 H 70.6718 -3.25719 0.239775 0
M  V30 763 H 69.3308 -2.83093 2.32925 0
M  V30 764 H 68.9788 -4.92724 1.01154 0
M  V30 765 H 68.6788 -5.19429 2.74714 0
M  V30 766 H 70.2028 -5.7656 2.01024 0
M  V30 767 H 71.6168 -4.32338 3.76506 0
M  V30 768 H 70.0138 -3.98986 4.48252 0
M  V30 769 H 71.0838 -2.63834 4.06841 0
M  V30 770 N 72.4269 -1.23603 -0.977757 0
M  V30 771 C 73.3739 -1.01954 -2.07061 0
M  V30 772 C 74.3439 0.0638697 -1.65977 0
M  V30 773 O 75.5289 -0.0887624 -1.90593 0
M  V30 774 C 72.6689 -0.619658 -3.39491 0
M  V30 775 C 71.7819 -1.77547 -3.93829 0
M  V30 776 C 70.9169 -1.32212 -5.14484 0
M  V30 777 C 69.9559 -2.44852 -5.60994 0
M  V30 778 N 69.0929 -2.00456 -6.72876 0
M  V30 779 H 73.9329 -1.95495 -2.24913 0
M  V30 780 H 71.4699 -0.973861 -1.10247 0
M  V30 781 H 73.4279 -0.368898 -4.15566 0
M  V30 782 H 72.0579 0.278752 -3.21594 0
M  V30 783 H 71.1099 -2.14016 -3.14486 0
M  V30 784 H 72.4219 -2.62219 -4.24314 0
M  V30 785 H 71.5759 -1.02965 -5.97899 0
M  V30 786 H 70.3149 -0.445808 -4.85658 0
M  V30 787 H 69.3199 -2.74871 -4.76157 0
M  V30 788 H 70.5449 -3.33024 -5.91837 0
M  V30 789 H 68.4909 -1.15208 -6.45804 0
M  V30 790 H 68.4079 -2.78687 -7.02759 0
M  V30 791 H 69.6759 -1.7432 -7.59758 0
M  V30 792 N 73.905 1.17692 -1.04816 0
M  V30 793 C 74.853 2.23632 -0.63966 0
M  V30 794 C 75.847 1.6601 0.337219 0
M  V30 795 O 77.053 1.78844 0.203693 0
M  V30 796 H 73.428 0.727949 -0.188665 0
M  V30 797 H 75.399 2.55387 -1.54337 0
M  V30 798 C 74.148 3.4769 -0.0264051 0
M  V30 799 H 73.471 3.92331 -0.769164 0
M  V30 800 H 74.911 4.23418 0.222098 0
M  V30 801 C 73.37 3.13807 1.22584 0
M  V30 802 O 73.9 3.28236 2.31569 0
M  V30 803 N 72.106 2.68065 1.12202 0
M  V30 804 H 71.653 2.56525 0.235133 0
M  V30 805 H 71.611 2.45767 1.96076 0
M  V30 806 N 75.3831 0.828654 1.34056 0
M  V30 807 C 76.6111 0.43262 2.02326 0
M  V30 808 C 77.0261 -0.963147 1.62385 0
M  V30 809 O 76.3831 -1.62425 0.832121 0
M  V30 810 C 76.4341 0.53182 3.57567 0
M  V30 811 O 76.1551 1.87258 3.96063 0
M  V30 812 C 77.6561 0.131422 4.43105 0
M  V30 813 H 74.8761 0.172923 0.648335 0
M  V30 814 H 77.4201 1.1184 1.71208 0
M  V30 815 H 75.5751 -0.105938 3.87255 0
M  V30 816 H 75.9891 1.85087 4.90758 0
M  V30 817 H 77.4631 0.251904 5.51425 0
M  V30 818 H 77.9401 -0.925645 4.29335 0
M  V30 819 H 78.5461 0.743207 4.18756 0
M  V30 820 N 76.8612 -1.46375 0.584142 0
M  V30 821 C 78.0912 -2.06461 0.0758195 0
M  V30 822 C 78.4992 -1.43322 -1.23512 0
M  V30 823 O 77.8422 -0.533216 -1.75791 0
M  V30 824 C 77.9042 -3.59131 -0.162773 0
M  V30 825 C 77.5682 -4.4447 1.06279 0
M  V30 826 C 78.5652 -4.80918 1.97519 0
M  V30 827 C 76.2502 -4.85584 1.28504 0
M  V30 828 C 78.2442 -5.57309 3.09331 0
M  V30 829 C 75.9312 -5.61734 2.4062 0
M  V30 830 C 76.9292 -5.9751 3.30863 0
M  V30 831 O 76.6172 -6.72121 4.41032 0
M  V30 832 H 76.3492 -0.673745 0.0551725 0
M  V30 833 H 78.9032 -1.88969 0.804984 0
M  V30 834 H 77.1332 -3.74936 -0.946565 0
M  V30 835 H 78.8222 -4.0114 -0.619782 0
M  V30 836 H 79.5882 -4.49732 1.81565 0
M  V30 837 H 75.4672 -4.57187 0.591702 0
M  V30 838 H 79.0112 -5.85152 3.79793 0
M  V30 839 H 74.9082 -5.92334 2.56537 0
M  V30 840 H 75.6762 -6.90547 4.39417 0
M  V30 841 N 78.3393 -0.321999 -1.54275 0
M  V30 842 C 79.7553 0.0306999 -1.5957 0
M  V30 843 C 79.9553 1.50614 -1.33857 0
M  V30 844 O 79.0113 2.2619 -1.12223 0
M  V30 845 C 80.3243 -0.386122 -2.98211 0
M  V30 846 C 81.8723 -0.336647 -3.11184 0
M  V30 847 C 82.3473 -0.728607 -4.52167 0
M  V30 848 N 83.8383 -0.681952 -4.58152 0
M  V30 849 C 84.5733 -0.957449 -5.6535 0
M  V30 850 N 84.0693 -1.3 -6.80494 0
M  V30 851 N 85.8623 -0.883113 -5.55119 0
M  V30 852 H 78.0133 -1.28332 -1.69247 0
M  V30 853 H 80.2763 -0.521716 -0.791528 0
M  V30 854 H 79.9823 -1.41404 -3.22022 0
M  V30 855 H 79.8563 0.249662 -3.76373 0
M  V30 856 H 82.2433 0.682058 -2.8711 0
M  V30 857 H 82.3243 -1.00734 -2.3513 0
M  V30 858 H 81.9683 -1.74522 -4.76974 0
M  V30 859 H 81.8983 -0.0356152 -5.26588 0
M  V30 860 H 84.3893 -0.428985 -3.75457 0
M  V30 861 H 84.7023 -1.49563 -7.58189 0
M  V30 862 H 83.0473 -1.33824 -6.81994 0
M  V30 863 H 86.2383 -0.615001 -4.64042 0
M  V30 864 H 86.4113 -1.10118 -6.38575 0
M  V30 865 N 79.8174 1.5752 -0.0501392 0
M  V30 866 C 80.7474 2.14502 0.922566 0
M  V30 867 C 81.7284 1.06642 1.3252 0
M  V30 868 O 82.9134 1.34577 1.4001 0
M  V30 869 C 80.0434 2.68916 2.19776 0
M  V30 870 C 78.9974 3.8175 1.93523 0
M  V30 871 C 78.3234 4.22677 3.27487 0
M  V30 872 C 79.6234 5.06932 1.25765 0
M  V30 873 H 81.3174 2.9603 0.447952 0
M  V30 874 H 78.8634 1.42401 0.214024 0
M  V30 875 H 80.8164 3.07419 2.88222 0
M  V30 876 H 79.5404 1.84578 2.69441 0
M  V30 877 H 78.1994 3.43718 1.27489 0
M  V30 878 H 77.8474 3.35291 3.74952 0
M  V30 879 H 77.5474 4.98725 3.1072 0
M  V30 880 H 79.0714 4.63779 3.97166 0
M  V30 881 H 80.4854 5.42888 1.84244 0
M  V30 882 H 78.8824 5.88116 1.19328 0
M  V30 883 H 79.9524 4.84337 0.233536 0
M  V30 884 N 81.2955 -0.223234 1.56011 0
M  V30 885 C 82.2425 -1.27664 1.92277 0
M  V30 886 C 83.2125 -1.46659 0.779763 0
M  V30 887 O 84.3975 -1.60256 1.03551 0
M  V30 888 C 81.5375 -2.62234 2.24338 0
M  V30 889 C 80.6505 -2.51051 3.51564 0
M  V30 890 C 79.7855 -3.78133 3.7308 0
M  V30 891 C 78.8245 -3.61665 4.93827 0
M  V30 892 N 77.9615 -4.80693 5.11741 0
M  V30 893 H 82.8015 -0.960358 2.82101 0
M  V30 894 H 80.3385 -0.462901 1.39627 0
M  V30 895 H 82.2965 -3.40596 2.40936 0
M  V30 896 H 80.9265 -2.91961 1.3769 0
M  V30 897 H 79.9785 -1.64132 3.43169 0
M  V30 898 H 81.2905 -2.34803 4.40079 0
M  V30 899 H 80.4445 -4.64938 3.89766 0
M  V30 900 H 79.1835 -3.97304 2.82844 0
M  V30 901 H 78.1885 -2.73244 4.77093 0
M  V30 902 H 79.4135 -3.43966 5.85546 0
M  V30 903 H 77.3595 -5.00181 4.24446 0
M  V30 904 H 77.2765 -4.67165 5.94384 0
M  V30 905 H 78.5445 -5.6893 5.3286 0
M  V30 906 N 82.7736 -1.49793 -0.48987 0
M  V30 907 C 83.7036 -1.70201 -1.59856 0
M  V30 908 C 84.6846 -0.55076 -1.60937 0
M  V30 909 O 85.8696 -0.787841 -1.77501 0
M  V30 910 C 82.9996 -1.77882 -2.98287 0
M  V30 911 C 81.9536 -2.92907 -3.12073 0
M  V30 912 C 81.2796 -2.85712 -4.51965 0
M  V30 913 C 82.5796 -4.3369 -2.91051 0
M  V30 914 H 84.2736 -2.63025 -1.43032 0
M  V30 915 H 81.8196 -1.26574 -0.686664 0
M  V30 916 H 83.7726 -1.90744 -3.75759 0
M  V30 917 H 82.4966 -0.816653 -3.16225 0
M  V30 918 H 81.1556 -2.79665 -2.37029 0
M  V30 919 H 80.8036 -1.8738 -4.66795 0
M  V30 920 H 80.5036 -3.62921 -4.62128 0
M  V30 921 H 82.0276 -3.00598 -5.31482 0
M  V30 922 H 83.4416 -4.47555 -3.58284 0
M  V30 923 H 81.8386 -5.12205 -3.12675 0
M  V30 924 H 82.9086 -4.47362 -1.87071 0
M  V30 925 N 84.2517 0.741722 -1.39055 0
M  V30 926 C 85.4817 1.52876 -1.3897 0
M  V30 927 C 85.8897 1.8919 0.0193266 0
M  V30 928 O 85.2327 1.54138 0.999356 0
M  V30 929 C 85.2947 2.84929 -2.19216 0
M  V30 930 C 84.9587 2.71086 -3.67915 0
M  V30 931 C 85.9557 2.40084 -4.61146 0
M  V30 932 C 83.6407 2.88168 -4.11418 0
M  V30 933 C 85.6347 2.26335 -5.95862 0
M  V30 934 C 83.3217 2.74037 -5.46211 0
M  V30 935 C 84.3197 2.43166 -6.38247 0
M  V30 936 O 84.0077 2.29115 -7.70559 0
M  V30 937 H 83.7397 0.479252 -0.476753 0
M  V30 938 H 86.2937 0.924751 -1.83405 0
M  V30 939 H 84.5237 3.47564 -1.69518 0
M  V30 940 H 86.2127 3.46509 -2.11392 0
M  V30 941 H 86.9787 2.26545 -4.28838 0
M  V30 942 H 82.8577 3.11191 -3.40119 0
M  V30 943 H 86.4017 2.0216 -6.67665 0
M  V30 944 H 82.2987 2.87153 -5.78112 0
M  V30 945 H 83.0667 2.44237 -7.81211 0
M  V30 946 N 85.7298 1.2412 0.971189 0
M  V30 947 C 86.9548 1.10667 1.75407 0
M  V30 948 C 87.3798 -0.337048 1.85056 0
M  V30 949 O 86.7378 -1.24396 1.31892 0
M  V30 950 C 86.7858 1.74726 3.15441 0
M  V30 951 O 85.8898 1.01566 3.99697 0
M  V30 952 H 85.2308 0.387341 0.539317 0
M  V30 953 H 87.7608 1.64358 1.2185 0
M  V30 954 H 87.7708 1.80341 3.6598 0
M  V30 955 H 86.4458 2.79773 3.07734 0
M  V30 956 H 85.0228 1.03713 3.58187 0
M  V30 957 N 87.2079 -1.17134 1.05439 0
M  V30 958 C 88.1379 -2.2342 0.678649 0
M  V30 959 C 89.1189 -1.66971 -0.32476 0
M  V30 960 O 90.3039 -1.93149 -0.201802 0
M  V30 961 C 87.4339 -3.47256 0.0552099 0
M  V30 962 C 86.3879 -4.16543 0.98365 0
M  V30 963 C 85.7139 -5.34231 0.223961 0
M  V30 964 C 87.0139 -4.68495 2.3089 0
M  V30 965 H 88.7079 -2.55105 1.56722 0
M  V30 966 H 86.2539 -1.2262 0.754998 0
M  V30 967 H 88.2069 -4.20828 -0.21946 0
M  V30 968 H 86.9309 -3.14846 -0.868319 0
M  V30 969 H 85.5899 -3.44887 1.24293 0
M  V30 970 H 85.2379 -4.98071 -0.702412 0
M  V30 971 H 84.9379 -5.81527 0.842627 0
M  V30 972 H 86.4619 -6.10585 -0.0433671 0
M  V30 973 H 87.8759 -5.33691 2.09396 0
M  V30 974 H 86.2729 -5.26379 2.88176 0
M  V30 975 H 87.3429 -3.85169 2.94572 0
M  V30 976 N 88.686 -0.835752 -1.33615 0
M  V30 977 C 90.102 -0.523139 -1.50783 0
M  V30 978 C 90.302 0.950171 -1.77691 0
M  V30 979 O 89.358 1.73411 -1.83534 0
M  V30 980 C 90.671 -1.39378 -2.66448 0
M  V30 981 C 92.219 -1.39223 -2.80332 0
M  V30 982 C 92.694 -2.24765 -3.99055 0
M  V30 983 N 94.185 -2.22458 -4.06284 0
M  V30 984 C 94.92 -2.85386 -4.97336 0
M  V30 985 N 94.416 -3.57354 -5.93523 0
M  V30 986 N 96.209 -2.74872 -4.90308 0
M  V30 987 H 88.36 -1.78952 -1.14411 0
M  V30 988 H 90.623 -0.763297 -0.562212 0
M  V30 989 H 90.329 -2.44061 -2.53234 0
M  V30 990 H 90.203 -1.0676 -3.61776 0
M  V30 991 H 92.59 -0.353136 -2.92979 0
M  V30 992 H 92.671 -1.75846 -1.85773 0
M  V30 993 H 92.315 -3.28732 -3.87167 0
M  V30 994 H 92.245 -1.85485 -4.92852 0
M  V30 995 H 94.736 -1.70119 -3.37443 0
M  V30 996 H 95.049 -4.02584 -6.59656 0
M  V30 997 H 93.394 -3.61461 -5.93608 0
M  V30 998 H 96.585 -2.18213 -4.14126 0
M  V30 999 H 96.758 -3.24199 -5.61069 0
M  V30 1000 N 90.1641 1.46063 -0.591896 0
M  V30 1001 C 91.4101 2.03203 -0.0894879 0
M  V30 1002 C 91.7651 1.45407 1.25994 0
M  V30 1003 O 91.0581 0.61326 1.8152 0
M  V30 1004 C 91.2521 3.57391 0.0249813 0
M  V30 1005 C 91.0811 4.30142 -1.3118 0
M  V30 1006 C 89.8511 4.68688 -1.88838 0
M  V30 1007 C 92.0491 4.63098 -2.23708 0
M  V30 1008 N 90.0311 5.26228 -3.1616 0
M  V30 1009 C 91.4021 5.21305 -3.3562 0
M  V30 1010 C 93.4571 4.45031 -2.23274 0
M  V30 1011 C 92.1601 5.63351 -4.47245 0
M  V30 1012 C 94.1861 4.881 -3.33935 0
M  V30 1013 C 93.5481 5.46386 -4.44569 0
M  V30 1014 H 89.6471 0.778323 -0.0757431 0
M  V30 1015 H 92.2311 1.78094 -0.78681 0
M  V30 1016 H 90.4021 3.82195 0.69149 0
M  V30 1017 H 92.1341 4.0118 0.532613 0
M  V30 1018 H 88.8891 4.5174 -1.42223 0
M  V30 1019 H 89.3131 5.59512 -3.8115 0
M  V30 1020 H 93.9551 3.99295 -1.39008 0
M  V30 1021 H 91.6731 6.08061 -5.32247 0
M  V30 1022 H 95.2591 4.75866 -3.34728 0
M  V30 1023 H 94.1391 5.79102 -5.28782 0
M  V30 1024 N 91.6422 0.330177 1.54103 0
M  V30 1025 C 92.8912 -0.271336 1.99867 0
M  V30 1026 C 93.2042 -1.52723 1.22209 0
M  V30 1027 O 94.4102 -2.20515 1.58383 0
M  V30 1028 C 92.8662 -0.534032 3.55916 0
M  V30 1029 C 92.4742 0.705193 4.42415 0
M  V30 1030 C 94.2182 -1.09514 4.1013 0
M  V30 1031 C 92.1252 0.414035 5.89949 0
M  V30 1032 H 91.0552 -0.105166 0.74663 0
M  V30 1033 H 93.7062 0.443429 1.78062 0
M  V30 1034 H 92.0882 -1.30915 3.73734 0
M  V30 1035 H 93.2622 1.4804 4.36372 0
M  V30 1036 H 91.5772 1.18698 3.99124 0
M  V30 1037 H 94.1742 -1.3277 5.17954 0
M  V30 1038 H 94.5172 -2.04656 3.62521 0
M  V30 1039 H 95.0502 -0.381038 3.95971 0
M  V30 1040 H 91.7892 1.33481 6.41766 0
M  V30 1041 H 91.3092 -0.323336 5.98928 0
M  V30 1042 H 92.9882 0.0263105 6.46995 0
M  V30 1043 N 93.1203 -1.57491 0.0584922 0
M  V30 1044 C 94.3453 -1.97711 -0.62652 0
M  V30 1045 C 94.7703 -0.936132 -1.63151 0
M  V30 1046 O 94.1283 0.099811 -1.81025 0
M  V30 1047 C 94.1763 -3.36989 -1.28338 0
M  V30 1048 O 93.2803 -3.35433 -2.39913 0
M  V30 1049 H 92.6213 -0.643868 -0.162266 0
M  V30 1050 H 95.1513 -2.04193 0.129064 0
M  V30 1051 H 95.1613 -3.73879 -1.63335 0
M  V30 1052 H 93.8363 -4.12289 -0.546889 0
M  V30 1053 H 92.4133 -3.10298 -2.06809 0
M  V30 1054 N 94.5984 0.214957 -1.56127 0
M  V30 1055 C 95.8754 0.963093 -1.70247 0
M  V30 1056 C 96.2554 2.02166 -0.60764 0
M  V30 1057 O 95.6034 2.25244 0.384385 0
M  V30 1058 C 95.8134 1.56756 -3.11815 0
M  V30 1059 C 97.1614 2.0573 -3.7143 0
M  V30 1060 O 98.1854 1.66637 -3.14818 0
M  V30 1061 O 97.0444 2.77603 -4.70743 0
M  V30 1062 H 94.1384 0.450321 -0.693643 0
M  V30 1063 H 96.6844 0.206219 -1.68442 0
M  V30 1064 H 95.4564 0.803533 -3.82961 0
M  V30 1065 H 95.0794 2.3898 -3.17765 0
M  V30 1066 N 96.0765 1.50051 0.48192 0
M  V30 1067 C 97.0265 1.64512 1.5786 0
M  V30 1068 C 98.0105 0.500073 1.52932 0
M  V30 1069 O 99.2025 0.753964 1.60139 0
M  V30 1070 C 96.3315 1.73263 2.9637 0
M  V30 1071 C 95.4175 2.93409 3.06222 0
M  V30 1072 N 95.8085 4.17236 2.85915 0
M  V30 1073 C 94.1065 2.91742 3.37346 0
M  V30 1074 C 94.8075 4.981 3.00451 0
M  V30 1075 N 93.7835 4.3184 3.30174 0
M  V30 1076 H 97.5855 2.57955 1.40842 0
M  V30 1077 H 95.0995 1.47086 0.688439 0
M  V30 1078 H 97.0965 1.81724 3.75209 0
M  V30 1079 H 95.7565 0.809711 3.14442 0
M  V30 1080 H 96.7675 4.46909 2.6171 0
M  V30 1081 H 93.4445 2.08907 3.61475 0
M  V30 1082 H 94.8345 6.06532 2.89082 0
M  V30 1083 N 97.5546 -0.734337 1.39446 0
M  V30 1084 C 98.4646 -1.87879 1.40495 0
M  V30 1085 C 99.4806 -1.714 0.299672 0
M  V30 1086 O 100.657 -1.93991 0.541249 0
M  V30 1087 C 97.7216 -3.23477 1.24754 0
M  V30 1088 C 96.7826 -3.52344 2.45259 0
M  V30 1089 C 96.0156 -4.81473 2.30259 0
M  V30 1090 O 96.2386 -5.55237 1.30643 0
M  V30 1091 O 95.1726 -5.10254 3.19256 0
M  V30 1092 H 98.9986 -1.89949 2.36966 0
M  V30 1093 H 96.5836 -0.882243 1.20569 0
M  V30 1094 H 98.4656 -4.04509 1.18111 0
M  V30 1095 H 97.1406 -3.22176 0.313781 0
M  V30 1096 H 96.0476 -2.71396 2.57478 0
M  V30 1097 H 97.3806 -3.58426 3.37331 0
M  V30 1098 N 99.0327 -1.24633 -0.964593 0
M  V30 1099 C 100.263 -1.11339 -1.74032 0
M  V30 1100 C 100.671 0.336593 -1.86182 0
M  V30 1101 O 100.014 1.24389 -1.35178 0
M  V30 1102 C 100.076 -1.68284 -3.1768 0
M  V30 1103 C 99.7397 -3.17196 -3.28992 0
M  V30 1104 C 100.737 -4.14308 -3.14078 0
M  V30 1105 C 98.4217 -3.57215 -3.53133 0
M  V30 1106 C 100.416 -5.4942 -3.23135 0
M  V30 1107 C 98.1027 -4.92468 -3.61827 0
M  V30 1108 C 99.1007 -5.8838 -3.46841 0
M  V30 1109 O 98.7887 -7.21173 -3.55197 0
M  V30 1110 H 98.5207 -0.389551 -0.552472 0
M  V30 1111 H 101.075 -1.65282 -1.21946 0
M  V30 1112 H 99.3047 -1.08777 -3.71085 0
M  V30 1113 H 100.994 -1.50234 -3.77074 0
M  V30 1114 H 101.76 -3.84731 -2.95308 0
M  V30 1115 H 97.6387 -2.83063 -3.63863 0
M  V30 1116 H 101.183 -6.24263 -3.11355 0
M  V30 1117 H 97.0797 -5.21714 -3.80111 0
M  V30 1118 H 97.8477 -7.29135 -3.71892 0
M  V30 1119 N 100.511 1.16574 -1.06058 0
M  V30 1120 C 101.441 2.23057 -0.690488 0
M  V30 1121 C 102.422 1.67141 0.315901 0
M  V30 1122 O 103.607 1.93253 0.191556 0
M  V30 1123 C 100.737 3.47222 -0.073625 0
M  V30 1124 C 99.6908 4.16016 -1.00573 0
M  V30 1125 C 99.0168 5.34104 -0.252289 0
M  V30 1126 C 100.317 4.67264 -2.33371 0
M  V30 1127 H 102.011 2.54271 -1.58072 0
M  V30 1128 H 99.5568 1.22218 -0.76149 0
M  V30 1129 H 101.51 4.20939 0.19714 0
M  V30 1130 H 100.234 3.15302 0.85161 0
M  V30 1131 H 98.8928 3.44223 -1.2612 0
M  V30 1132 H 98.5408 4.98437 0.675988 0
M  V30 1133 H 98.2408 5.81072 -0.873455 0
M  V30 1134 H 99.7648 6.10599 0.0109857 0
M  V30 1135 H 101.179 5.32573 -2.12223 0
M  V30 1136 H 99.5758 5.24843 -2.90963 0
M  V30 1137 H 100.646 3.83602 -2.96611 0
M  V30 1138 N 101.989 0.842826 1.3317 0
M  V30 1139 C 103.219 0.453397 2.01564 0
M  V30 1140 C 103.627 -0.951147 1.63554 0
M  V30 1141 O 102.97 -1.63021 0.846746 0
M  V30 1142 C 103.032 0.499013 3.5602 0
M  V30 1143 C 102.696 1.86037 4.1742 0
M  V30 1144 C 103.693 2.82416 4.36506 0
M  V30 1145 C 101.378 2.15428 4.53757 0
M  V30 1146 C 103.372 4.06346 4.91082 0
M  V30 1147 C 101.059 3.39615 5.0804 0
M  V30 1148 C 102.057 4.3489 5.26649 0
M  V30 1149 O 101.745 5.5688 5.79776 0
M  V30 1150 H 101.477 0.177871 0.652179 0
M  V30 1151 H 104.031 1.13808 1.70988 0
M  V30 1152 H 102.261 -0.242467 3.85939 0
M  V30 1153 H 103.95 0.126852 4.05702 0
M  V30 1154 H 104.716 2.6101 4.08777 0
M  V30 1155 H 100.595 1.42061 4.38565 0
M  V30 1156 H 104.139 4.80722 5.05522 0
M  V30 1157 H 100.036 3.60876 5.352 0
M  V30 1158 H 100.804 5.58674 5.98185 0
M  V30 1159 N 103.467 -1.45747 0.599634 0
M  V30 1160 C 104.414 -2.30467 -0.123849 0
M  V30 1161 C 105.384 -1.41632 -0.86774 0
M  V30 1162 O 106.569 -1.70568 -0.855056 0
M  V30 1163 C 103.709 -3.26402 -1.12051 0
M  V30 1164 C 102.822 -4.3034 -0.37832 0
M  V30 1165 C 101.957 -5.13389 -1.364 0
M  V30 1166 C 100.996 -6.09061 -0.609171 0
M  V30 1167 N 100.133 -6.84918 -1.54374 0
M  V30 1168 H 104.973 -2.91802 0.604627 0
M  V30 1169 H 102.51 -1.43797 0.309972 0
M  V30 1170 H 104.468 -3.80482 -1.7114 0
M  V30 1171 H 103.098 -2.66839 -1.8165 0
M  V30 1172 H 102.15 -3.78984 0.327929 0
M  V30 1173 H 103.462 -4.98354 0.210997 0
M  V30 1174 H 102.616 -5.7183 -2.02719 0
M  V30 1175 H 101.355 -4.45376 -1.98725 0
M  V30 1176 H 100.36 -5.49758 0.0676979 0
M  V30 1177 H 101.585 -6.79099 0.00891991 0
M  V30 1178 H 99.531 -6.19601 -2.15478 0
M  V30 1179 H 99.448 -7.49254 -1.00766 0
M  V30 1180 H 100.716 -7.47906 -2.19676 0
M  V30 1181 N 104.945 -0.338344 -1.53925 0
M  V30 1182 C 105.877 0.555117 -2.22376 0
M  V30 1183 C 106.89 1.06812 -1.22862 0
M  V30 1184 O 108.079 0.979163 -1.49247 0
M  V30 1185 C 105.179 1.77609 -2.88631 0
M  V30 1186 C 104.352 1.39927 -4.14414 0
M  V30 1187 C 103.411 2.47936 -4.64127 0
M  V30 1188 O 102.437 2.11461 -5.28463 0
M  V30 1189 N 103.639 3.79107 -4.39612 0
M  V30 1190 H 106.404 -0.0310778 -2.99684 0
M  V30 1191 H 103.965 -0.162226 -1.61085 0
M  V30 1192 H 105.957 2.49287 -3.18807 0
M  V30 1193 H 104.527 2.26978 -2.14941 0
M  V30 1194 H 103.747 0.513481 -3.90841 0
M  V30 1195 H 105.035 1.12341 -4.96243 0
M  V30 1196 H 104.433 4.11531 -3.88148 0
M  V30 1197 H 102.99 4.4697 -4.74406 0
M  V30 1198 N 106.423 1.57458 -0.0668435 0
M  V30 1199 C 107.333 2.15937 0.916975 0
M  V30 1200 C 108.349 1.12123 1.33058 0
M  V30 1201 O 109.525 1.44366 1.40429 0
M  V30 1202 C 106.59 2.70547 2.16807 0
M  V30 1203 C 105.651 3.89215 1.81135 0
M  V30 1204 C 104.884 4.41211 3.0028 0
M  V30 1205 O 105.107 3.92225 4.14144 0
M  V30 1206 O 104.041 5.32605 2.80384 0
M  V30 1207 H 107.867 3.00354 0.449561 0
M  V30 1208 H 105.452 1.48584 0.155949 0
M  V30 1209 H 107.334 3.0557 2.90181 0
M  V30 1210 H 106.009 1.89192 2.62656 0
M  V30 1211 H 104.916 3.59054 1.05028 0
M  V30 1212 H 106.249 4.71848 1.40073 0
M  V30 1213 N 107.901 -0.206675 1.56239 0
M  V30 1214 C 108.849 -1.27571 1.94495 0
M  V30 1215 C 109.843 -1.47737 0.828862 0
M  V30 1216 O 111.049 -1.48735 1.0138 0
M  V30 1217 H 107.424 -0.428029 0.6183 0
M  V30 1218 H 109.395 -0.925961 2.8367 0
M  V30 1219 C 108.144 -2.61568 2.29079 0
M  V30 1220 H 107.467 -2.46863 3.14482 0
M  V30 1221 H 108.907 -3.35144 2.5972 0
M  V30 1222 C 107.366 -3.17695 1.12123 0
M  V30 1223 O 107.896 -3.99801 0.390153 0
M  V30 1224 N 106.102 -2.76276 0.901097 0
M  V30 1225 H 105.649 -2.09613 1.49733 0
M  V30 1226 H 105.607 -3.1417 0.120319 0
M  V30 1227 N 109.379 -1.50304 -0.473955 0
M  V30 1228 C 110.327 -1.69482 -1.59307 0
M  V30 1229 C 111.321 -0.560669 -1.59853 0
M  V30 1230 O 112.527 -0.741087 -1.64036 0
M  V30 1231 H 108.902 -0.534892 -0.528578 0
M  V30 1232 H 110.873 -2.63364 -1.40293 0
M  V30 1233 C 109.622 -1.80354 -2.97267 0
M  V30 1234 H 108.945 -2.67012 -2.97564 0
M  V30 1235 H 110.385 -1.97798 -3.75036 0
M  V30 1236 C 108.844 -0.55448 -3.32306 0
M  V30 1237 O 109.374 0.307661 -4.0052 0
M  V30 1238 N 107.58 -0.409354 -2.87702 0
M  V30 1239 H 107.127 -1.11196 -2.32364 0
M  V30 1240 H 107.085 0.425223 -3.11511 0
M  V30 1241 N 110.857 0.726932 -1.39834 0
M  V30 1242 C 112.106 1.48214 -1.36805 0
M  V30 1243 C 112.419 1.95576 0.0305291 0
M  V30 1244 O 113.625 2.7088 0.183417 0
M  V30 1245 C 112.081 2.67854 -2.40379 0
M  V30 1246 C 111.689 2.27408 -3.85992 0
M  V30 1247 C 113.433 3.45641 -2.46439 0
M  V30 1248 C 111.34 3.43819 -4.81189 0
M  V30 1249 H 110.27 0.556606 -0.508631 0
M  V30 1250 H 112.921 0.792216 -1.65518 0
M  V30 1251 H 111.303 3.3896 -2.04749 0
M  V30 1252 H 112.477 1.63795 -4.30706 0
M  V30 1253 H 110.792 1.62692 -3.83302 0
M  V30 1254 H 113.389 4.32244 -3.14753 0
M  V30 1255 H 113.732 3.88669 -1.49139 0
M  V30 1256 H 114.265 2.8157 -2.81004 0
M  V30 1257 H 111.004 3.05834 -5.79781 0
M  V30 1258 H 110.524 4.06385 -4.41148 0
M  V30 1259 H 112.203 4.10043 -5.00474 0
M  V30 1260 N 112.336 1.25143 0.95797 0
M  V30 1261 C 113.266 1.07711 2.07173 0
M  V30 1262 C 114.247 -0.0128462 1.70095 0
M  V30 1263 O 115.432 0.156061 1.93572 0
M  V30 1264 C 112.562 0.691503 3.40346 0
M  V30 1265 C 111.516 1.73132 3.9142 0
M  V30 1266 C 110.842 1.20049 5.21049 0
M  V30 1267 C 112.142 3.1294 4.1817 0
M  V30 1268 H 113.836 2.00873 2.22014 0
M  V30 1269 H 111.382 0.967191 1.06684 0
M  V30 1270 H 113.335 0.556505 4.17709 0
M  V30 1271 H 112.059 -0.275819 3.25433 0
M  V30 1272 H 110.718 1.8547 3.16222 0
M  V30 1273 H 110.366 0.223499 5.02503 0
M  V30 1274 H 110.066 1.89545 5.56189 0
M  V30 1275 H 111.59 1.07782 6.01012 0
M  V30 1276 H 113.004 3.03775 4.86203 0
M  V30 1277 H 111.401 3.79875 4.64559 0
M  V30 1278 H 112.471 3.6025 3.24573 0
M  V30 1279 N 113.814 -1.1601 1.06675 0
M  V30 1280 C 115.06 -1.86909 0.786945 0
M  V30 1281 C 115.393 -1.81717 -0.685018 0
M  V30 1282 O 114.668 -1.23551 -1.50218 0
M  V30 1283 C 114.951 -3.36313 1.28707 0
M  V30 1284 C 114.804 -3.50175 2.82308 0
M  V30 1285 C 116.123 -4.3084 0.898071 0
M  V30 1286 H 113.242 -0.678677 0.287343 0
M  V30 1287 H 115.884 -1.36336 1.32334 0
M  V30 1288 H 114.034 -3.79513 0.830768 0
M  V30 1289 H 115.706 -3.15886 3.36175 0
M  V30 1290 H 113.949 -2.91959 3.20847 0
M  V30 1291 H 114.62 -4.55116 3.12368 0
M  V30 1292 H 117.096 -3.95561 1.29114 0
M  V30 1293 H 115.972 -5.33876 1.27543 0
M  V30 1294 H 116.233 -4.41662 -0.196651 0
M  V30 1295 N 115.292 -0.849877 -1.32721 0
M  V30 1296 C 116.539 -0.450923 -1.97416 0
M  V30 1297 C 116.867 0.992376 -1.67279 0
M  V30 1298 O 116.122 1.71048 -0.950845 0
M  V30 1299 C 116.421 -0.631272 -3.51781 0
M  V30 1300 C 116.087 -2.04432 -4.01894 0
M  V30 1301 C 114.749 -2.4308 -4.1529 0
M  V30 1302 C 117.101 -2.96679 -4.28522 0
M  V30 1303 C 114.429 -3.73257 -4.52654 0
M  V30 1304 C 116.781 -4.26349 -4.67343 0
M  V30 1305 C 115.445 -4.64939 -4.78945 0
M  V30 1306 H 114.715 -0.165004 -0.722395 0
M  V30 1307 H 117.362 -1.07901 -1.58207 0
M  V30 1308 H 115.667 0.0800767 -3.91718 0
M  V30 1309 H 117.364 -0.302709 -3.99856 0
M  V30 1310 H 113.954 -1.73419 -3.91949 0
M  V30 1311 H 118.138 -2.68054 -4.17685 0
M  V30 1312 H 113.394 -4.02946 -4.59831 0
M  V30 1313 H 117.568 -4.97895 -4.86902 0
M  V30 1314 H 115.195 -5.65855 -5.07654 0
M  V30 1315 N 116.77 1.45427 -0.607355 0
M  V30 1316 C 117.718 2.32269 0.12411 0
M  V30 1317 C 118.712 1.45955 0.859854 0
M  V30 1318 O 119.918 1.6244 0.775447 0
M  V30 1319 H 116.293 0.749691 0.0588839 0
M  V30 1320 H 118.264 2.91743 -0.626762 0
M  V30 1321 C 117.013 3.29567 1.1082 0
M  V30 1322 H 116.336 3.95978 0.551492 0
M  V30 1323 H 117.776 3.93061 1.58995 0
M  V30 1324 C 116.235 2.56722 2.18164 0
M  V30 1325 O 116.765 2.34842 3.25902 0
M  V30 1326 N 114.971 2.16861 1.93442 0
M  V30 1327 H 114.518 2.34855 1.05834 0
M  V30 1328 H 114.476 1.68444 2.65469 0
M  V30 1329 N 118.248 0.346503 1.53744 0
M  V30 1330 C 119.211 -0.496439 2.23759 0
M  V30 1331 C 120.211 -1.0252 1.2388 0
M  V30 1332 O 121.401 -0.913974 1.48297 0
M  V30 1333 C 118.533 -1.69187 2.95954 0
M  V30 1334 H 119.726 0.115952 2.99676 0
M  V30 1335 H 117.279 0.0978939 1.55993 0
M  V30 1336 H 118.014 -2.34288 2.24231 0
M  V30 1337 H 117.799 -1.31989 3.69217 0
M  V30 1338 H 119.289 -2.28969 3.49232 0
M  V30 1339 N 119.726 -1.57421 0.075193 0
M  V30 1340 C 120.636 -2.1642 -0.905511 0
M  V30 1341 C 121.652 -1.12828 -1.32461 0
M  V30 1342 O 122.828 -1.45109 -1.39661 0
M  V30 1343 C 119.893 -2.71693 -2.15369 0
M  V30 1344 C 118.954 -3.90171 -1.79068 0
M  V30 1345 C 118.187 -4.42798 -2.97936 0
M  V30 1346 O 118.41 -3.94416 -4.12058 0
M  V30 1347 O 117.344 -5.34085 -2.77555 0
M  V30 1348 H 121.17 -3.00588 -0.433626 0
M  V30 1349 H 118.755 -1.48664 -0.148067 0
M  V30 1350 H 120.637 -3.07104 -2.88557 0
M  V30 1351 H 119.312 -1.90582 -2.61649 0
M  V30 1352 H 118.219 -3.59606 -1.03122 0
M  V30 1353 H 119.552 -4.72584 -1.37569 0
M  V30 1354 N 121.204 0.198386 -1.56346 0
M  V30 1355 C 122.434 0.934215 -1.84271 0
M  V30 1356 C 122.842 1.77496 -0.655125 0
M  V30 1357 O 122.185 1.7961 0.385488 0
M  V30 1358 C 122.247 1.88278 -3.06254 0
M  V30 1359 C 121.911 1.22431 -4.40295 0
M  V30 1360 C 122.908 0.602839 -5.16393 0
M  V30 1361 C 120.593 1.22915 -4.87029 0
M  V30 1362 C 122.587 -0.0050083 -6.374 0
M  V30 1363 C 120.274 0.617465 -6.07973 0
M  V30 1364 C 121.272 0.00146341 -6.83 0
M  V30 1365 O 120.96 -0.600642 -8.01653 0
M  V30 1366 H 120.692 0.278245 -0.616081 0
M  V30 1367 H 123.246 0.211626 -2.04307 0
M  V30 1368 H 121.476 2.64498 -2.82095 0
M  V30 1369 H 123.165 2.48612 -3.20853 0
M  V30 1370 H 123.931 0.591265 -4.81382 0
M  V30 1371 H 119.81 1.69801 -4.28589 0
M  V30 1372 H 123.354 -0.48643 -6.95902 0
M  V30 1373 H 119.251 0.62653 -6.42452 0
M  V30 1374 H 120.019 -0.497225 -8.16988 0
M  V30 1375 N 122.682 1.50554 0.465978 0
M  V30 1376 C 123.93 1.61479 1.21528 0
M  V30 1377 C 124.251 0.319596 1.92363 0
M  V30 1378 O 123.521 -0.663194 1.84333 0
M  V30 1379 H 122.101 0.595055 0.451573 0
M  V30 1380 H 124.763 1.87355 0.53704 0
M  V30 1381 H 123.859 2.42846 1.96042 0
M  V30 1382 N 124.16 -0.719506 1.40217 0
M  V30 1383 C 125.108 -1.85493 1.40339 0
M  V30 1384 C 126.102 -1.66995 0.284415 0
M  V30 1385 O 127.308 -1.74148 0.455252 0
M  V30 1386 H 123.683 -0.610857 0.438586 0
M  V30 1387 H 125.654 -1.82506 2.36081 0
M  V30 1388 C 124.403 -3.23321 1.27901 0
M  V30 1389 H 123.726 -3.38159 2.1328 0
M  V30 1390 H 125.166 -4.02914 1.32045 0
M  V30 1391 C 123.625 -3.36898 -0.0111355 0
M  V30 1392 O 124.155 -3.89674 -0.975538 0
M  V30 1393 N 122.361 -2.90492 -0.0793393 0
M  V30 1394 H 121.908 -2.47731 0.706183 0
M  V30 1395 H 121.866 -2.99955 -0.942038 0
M  V30 1396 N 125.638 -1.25649 -0.95132 0
M  V30 1397 C 126.863 -1.13443 -1.73624 0
M  V30 1398 C 127.288 0.307565 -1.85568 0
M  V30 1399 O 126.646 1.22282 -1.33854 0
M  V30 1400 C 126.694 -1.79723 -3.12621 0
M  V30 1401 O 125.798 -1.07912 -3.98031 0
M  V30 1402 H 125.139 -0.395872 -0.533086 0
M  V30 1403 H 127.669 -1.66276 -1.1922 0
M  V30 1404 H 127.679 -1.86141 -3.63064 0
M  V30 1405 H 126.354 -2.84633 -3.03244 0
M  V30 1406 H 124.931 -1.09398 -3.56492 0
M  V30 1407 N 127.117 1.15442 -1.07289 0
M  V30 1408 C 128.342 1.90638 -0.816828 0
M  V30 1409 C 128.767 1.77445 0.624083 0
M  V30 1410 O 128.125 1.10671 1.43602 0
M  V30 1411 C 128.173 3.39008 -1.22906 0
M  V30 1412 O 127.277 4.10701 -0.373975 0
M  V30 1413 H 126.618 0.593555 -0.297638 0
M  V30 1414 H 129.148 1.46198 -1.43134 0
M  V30 1415 H 129.158 3.89801 -1.20497 0
M  V30 1416 H 127.833 3.47929 -2.27856 0
M  V30 1417 H 126.41 3.70046 -0.460499 0
M  V30 1418 N 128.595 0.856903 1.32268 0
M  V30 1419 C 129.841 0.462069 1.97466 0
M  V30 1420 C 130.174 -0.980298 1.67642 0
M  V30 1421 O 129.449 -1.68824 0.965858 0
M  V30 1422 C 129.732 0.704336 3.53145 0
M  V30 1423 C 129.585 2.19529 3.9259 0
M  V30 1424 C 130.904 0.1622 4.39801 0
M  V30 1425 H 128.023 0.169357 0.717278 0
M  V30 1426 H 130.665 1.07574 1.56614 0
M  V30 1427 H 128.815 0.181999 3.88073 0
M  V30 1428 H 130.487 2.78387 3.67829 0
M  V30 1429 H 128.73 2.67292 3.41668 0
M  V30 1430 H 129.401 2.31549 5.01088 0
M  V30 1431 H 131.877 0.608905 4.11621 0
M  V30 1432 H 130.753 0.361265 5.4771 0
M  V30 1433 H 131.014 -0.935158 4.32096 0
M  V30 1434 N 130.073 -1.45103 0.615059 0
M  V30 1435 C 131.32 -2.02183 0.113179 0
M  V30 1436 C 131.648 -1.48249 -1.25906 0
M  V30 1437 O 130.903 -0.650265 -1.84581 0
M  V30 1438 C 131.202 -3.57386 0.0318797 0
M  V30 1439 C 130.868 -4.30505 1.34077 0
M  V30 1440 C 129.53 -4.50197 1.69929 0
M  V30 1441 C 131.882 -4.72238 2.20546 0
M  V30 1442 C 129.21 -5.08881 2.91988 0
M  V30 1443 C 131.562 -5.32272 3.41861 0
M  V30 1444 C 130.226 -5.50187 3.77956 0
M  V30 1445 H 129.496 -0.739842 0.0414151 0
M  V30 1446 H 132.143 -1.74073 0.798168 0
M  V30 1447 H 130.448 -3.84817 -0.736409 0
M  V30 1448 H 132.145 -3.99264 -0.372712 0
M  V30 1449 H 128.735 -4.15496 1.05173 0
M  V30 1450 H 132.919 -4.56751 1.94146 0
M  V30 1451 H 128.175 -5.20939 3.2005 0
M  V30 1452 H 132.349 -5.63563 4.09109 0
M  V30 1453 H 129.976 -5.95427 4.72622 0
M  V30 1454 N 131.551 -0.354651 -1.53558 0
M  V30 1455 C 132.481 0.489091 -2.2832 0
M  V30 1456 C 133.462 1.09324 -1.30316 0
M  V30 1457 O 134.647 1.11255 -1.59173 0
M  V30 1458 C 131.777 1.63456 -3.0643 0
M  V30 1459 C 130.731 1.1582 -4.12031 0
M  V30 1460 C 130.057 2.39305 -4.7816 0
M  V30 1461 C 131.357 0.250731 -5.21698 0
M  V30 1462 H 133.051 -0.134614 -2.99097 0
M  V30 1463 H 130.597 -0.0661826 -1.43848 0
M  V30 1464 H 132.55 2.23136 -3.57475 0
M  V30 1465 H 131.274 2.28533 -2.33325 0
M  V30 1466 H 129.933 0.584146 -3.61916 0
M  V30 1467 H 129.581 3.02814 -4.01637 0
M  V30 1468 H 129.281 2.08109 -5.49513 0
M  V30 1469 H 130.805 2.99691 -5.31994 0
M  V30 1470 H 132.219 0.754695 -5.68311 0
M  V30 1471 H 130.616 0.0301468 -6.00092 0
M  V30 1472 H 131.686 -0.710125 -4.79672 0
M  V30 1473 N 133.029 1.57378 -0.0835403 0
M  V30 1474 C 133.939 2.16897 0.894021 0
M  V30 1475 C 134.955 1.13528 1.31861 0
M  V30 1476 O 136.131 1.45848 1.3889 0
M  V30 1477 C 133.196 2.72831 2.13925 0
M  V30 1478 C 132.257 3.91115 1.76997 0
M  V30 1479 C 131.49 4.44371 2.95584 0
M  V30 1480 O 131.713 3.96596 4.09961 0
M  V30 1481 O 130.647 5.35549 2.74719 0
M  V30 1482 H 134.473 3.00814 0.417679 0
M  V30 1483 H 132.058 1.48741 0.140181 0
M  V30 1484 H 133.94 3.0863 2.86924 0
M  V30 1485 H 132.615 1.91967 2.60635 0
M  V30 1486 H 131.522 3.60148 1.01214 0
M  V30 1487 H 132.855 4.73307 1.3506 0
M  V30 1488 N 134.507 -0.190092 1.56449 0
M  V30 1489 C 135.455 -1.25501 1.95837 0
M  V30 1490 C 136.449 -1.4685 0.844485 0
M  V30 1491 O 137.655 -1.47651 1.02952 0
M  V30 1492 H 134.03 -0.421447 0.622805 0
M  V30 1493 H 136.001 -0.895821 2.84636 0
M  V30 1494 C 134.75 -2.59124 2.31841 0
M  V30 1495 H 134.073 -2.43514 3.17082 0
M  V30 1496 H 135.513 -3.32371 2.6326 0
M  V30 1497 C 133.972 -3.16488 1.15486 0
M  V30 1498 O 134.502 -3.99365 0.432535 0
M  V30 1499 N 132.708 -2.75305 0.930349 0
M  V30 1500 H 132.255 -2.08013 1.51948 0
M  V30 1501 H 132.213 -3.14024 0.153634 0
M  V30 1502 N 135.985 -1.50799 -0.457987 0
M  V30 1503 C 137.21 -1.66496 -1.23668 0
M  V30 1504 C 137.635 -0.353288 -1.84752 0
M  V30 1505 O 136.993 0.684346 -1.67888 0
M  V30 1506 C 137.041 -2.76763 -2.3116 0
M  V30 1507 O 136.145 -2.38928 -3.36136 0
M  V30 1508 H 135.486 -0.555828 -0.363252 0
M  V30 1509 H 138.016 -1.9725 -0.543474 0
M  V30 1510 H 138.026 -3.00232 -2.76269 0
M  V30 1511 H 136.701 -3.71954 -1.86073 0
M  V30 1512 H 135.278 -2.25953 -2.96647 0
M  V30 1513 N 137.463 0.71206 -1.40597 0
M  V30 1514 C 138.691 1.50111 -1.42388 0
M  V30 1515 C 139.106 1.88784 -0.0245395 0
M  V30 1516 O 138.463 1.55681 0.952351 0
M  V30 1517 C 138.514 2.7742 -2.31776 0
M  V30 1518 O 138.235 2.40382 -3.66262 0
M  V30 1519 C 139.736 3.7129 -2.42196 0
M  V30 1520 H 136.956 0.46314 -0.485533 0
M  V30 1521 H 139.5 0.878068 -1.8469 0
M  V30 1522 H 137.655 3.36001 -1.92827 0
M  V30 1523 H 138.069 3.22324 -4.13772 0
M  V30 1524 H 139.543 4.57448 -3.08943 0
M  V30 1525 H 140.02 4.14641 -1.44809 0
M  V30 1526 H 140.626 3.18619 -2.81712 0
M  V30 1527 N 138.941 1.26152 0.944643 0
M  V30 1528 C 140.188 1.11492 1.69044 0
M  V30 1529 C 140.516 -0.342366 1.91463 0
M  V30 1530 O 139.771 -1.26812 1.49054 0
M  V30 1531 C 140.07 1.82541 3.07268 0
M  V30 1532 C 139.736 3.32445 3.04616 0
M  V30 1533 C 138.398 3.73337 3.036 0
M  V30 1534 C 140.75 4.28171 2.97185 0
M  V30 1535 C 138.078 5.08348 2.92915 0
M  V30 1536 C 140.43 5.63218 2.88041 0
M  V30 1537 C 139.094 6.03426 2.85366 0
M  V30 1538 H 138.364 0.407977 0.618576 0
M  V30 1539 H 141.011 1.56551 1.10291 0
M  V30 1540 H 139.316 1.29941 3.69625 0
M  V30 1541 H 141.013 1.68642 3.63815 0
M  V30 1542 H 137.603 2.99915 3.06185 0
M  V30 1543 H 141.787 3.97563 2.97081 0
M  V30 1544 H 137.043 5.38667 2.89219 0
M  V30 1545 H 141.217 6.37078 2.81254 0
M  V30 1546 H 138.844 7.07999 2.76842 0
M  V30 1547 N 140.419 -1.14872 1.07899 0
M  V30 1548 C 141.696 -1.81928 0.71845 0
M  V30 1549 C 142.076 -1.95417 -0.798455 0
M  V30 1550 O 141.424 -1.50997 -1.715 0
M  V30 1551 C 141.634 -3.17937 1.43935 0
M  V30 1552 C 142.982 -3.93501 1.59506 0
M  V30 1553 O 144.006 -3.27509 1.40058 0
M  V30 1554 O 142.865 -5.1183 1.91551 0
M  V30 1555 H 139.959 -0.78628 0.256305 0
M  V30 1556 H 142.505 -1.21934 1.18026 0
M  V30 1557 H 141.277 -3.0325 2.47295 0
M  V30 1558 H 140.9 -3.85619 0.968687 0
M  V30 1559 N 141.898 -0.863906 -1.31812 0
M  V30 1560 C 142.808 -0.318461 -2.32428 0
M  V30 1561 C 143.824 0.568496 -1.64451 0
M  V30 1562 O 145 0.46666 -1.95919 0
M  V30 1563 C 142.065 0.476355 -3.43412 0
M  V30 1564 C 141.126 -0.43784 -4.27061 0
M  V30 1565 C 140.359 0.319138 -5.32745 0
M  V30 1566 O 140.582 1.54799 -5.48993 0
M  V30 1567 O 139.516 -0.319861 -6.01049 0
M  V30 1568 H 143.342 -1.15229 -2.80991 0
M  V30 1569 H 140.927 -0.627103 -1.35602 0
M  V30 1570 H 142.809 0.927156 -4.11074 0
M  V30 1571 H 141.484 1.28683 -2.97022 0
M  V30 1572 H 140.391 -0.937013 -3.62175 0
M  V30 1573 H 141.724 -1.21375 -4.77 0
M  V30 1574 N 143.376 1.44774 -0.622745 0
M  V30 1575 C 144.623 2.02121 -0.1239 0
M  V30 1576 C 144.951 1.48915 1.25118 0
M  V30 1577 O 144.206 0.660045 1.84233 0
M  V30 1578 C 144.505 3.57364 -0.0508323 0
M  V30 1579 C 144.171 4.29787 -1.36358 0
M  V30 1580 C 142.833 4.4929 -1.72314 0
M  V30 1581 C 145.185 4.71062 -2.23048 0
M  V30 1582 C 142.513 5.07325 -2.94682 0
M  V30 1583 C 144.865 5.30452 -3.44679 0
M  V30 1584 C 143.529 5.48175 -3.80868 0
M  V30 1585 H 142.799 0.739612 -0.0453381 0
M  V30 1586 H 145.446 1.73648 -0.807389 0
M  V30 1587 H 143.751 3.85202 0.715991 0
M  V30 1588 H 145.448 3.99456 0.351533 0
M  V30 1589 H 142.038 4.14932 -1.07375 0
M  V30 1590 H 146.222 4.55715 -1.96565 0
M  V30 1591 H 141.478 5.19235 -3.22809 0
M  V30 1592 H 145.652 5.61385 -4.12092 0
M  V30 1593 H 143.279 5.92912 -4.75773 0
M  V30 1594 N 144.854 0.36279 1.53368 0
M  V30 1595 C 146.102 -0.227326 2.00817 0
M  V30 1596 C 146.423 -1.49511 1.25186 0
M  V30 1597 O 145.693 -1.92482 0.364348 0
M  V30 1598 H 144.273 -0.0869923 0.741917 0
M  V30 1599 H 146.935 0.488381 1.88682 0
M  V30 1600 H 146.031 -0.456273 3.08747 0
M  V30 1601 N 146.332 -1.57332 0.0918853 0
M  V30 1602 C 147.282 -2.10385 -0.87876 0
M  V30 1603 C 148.266 -1.01814 -1.24591 0
M  V30 1604 O 149.458 -1.28093 -1.22152 0
M  V30 1605 C 146.587 -2.68517 -2.13901 0
M  V30 1606 C 145.673 -3.84126 -1.79744 0
M  V30 1607 N 146.064 -4.92288 -1.1613 0
M  V30 1608 C 144.362 -3.93801 -2.09373 0
M  V30 1609 C 145.063 -5.7295 -1.00513 0
M  V30 1610 N 144.039 -5.21876 -1.5214 0
M  V30 1611 H 147.841 -2.91395 -0.38293 0
M  V30 1612 H 145.355 -1.62017 -0.111423 0
M  V30 1613 H 147.352 -3.04852 -2.84378 0
M  V30 1614 H 146.012 -1.88961 -2.64053 0
M  V30 1615 H 147.023 -5.1123 -0.828504 0
M  V30 1616 H 143.7 -3.25249 -2.61762 0
M  V30 1617 H 145.09 -6.69978 -0.507902 0
M  V30 1618 N 147.81 0.181792 -1.56548 0
M  V30 1619 C 149.035 0.920019 -1.85877 0
M  V30 1620 C 149.46 1.75494 -0.677021 0
M  V30 1621 O 148.818 1.77399 0.374056 0
M  V30 1622 C 148.866 1.78112 -3.13542 0
M  V30 1623 O 147.97 2.88152 -2.95029 0
M  V30 1624 H 147.311 0.258334 -0.611686 0
M  V30 1625 H 149.841 0.183092 -2.03779 0
M  V30 1626 H 149.851 2.18314 -3.44678 0
M  V30 1627 H 148.526 1.16777 -3.99169 0
M  V30 1628 H 147.103 2.51609 -2.75222 0
M  V30 1629 N 149.288 1.51039 0.449983 0
M  V30 1630 C 150.537 1.62317 1.19733 0
M  V30 1631 C 150.85 0.339101 1.92638 0
M  V30 1632 O 152.056 0.331069 2.69474 0
M  V30 1633 C 150.512 2.86608 2.17678 0
M  V30 1634 C 150.12 4.21972 1.50479 0
M  V30 1635 C 151.864 3.07239 2.92924 0
M  V30 1636 C 149.771 5.37426 2.46834 0
M  V30 1637 H 148.701 0.604532 0.450619 0
M  V30 1638 H 151.352 1.77494 0.465625 0
M  V30 1639 H 149.734 2.65037 2.94231 0
M  V30 1640 H 150.908 4.53878 0.795716 0
M  V30 1641 H 149.223 4.07117 0.874344 0
M  V30 1642 H 151.82 3.90668 3.65079 0
M  V30 1643 H 152.163 2.19807 3.5354 0
M  V30 1644 H 152.696 3.29091 2.23481 0
M  V30 1645 H 149.435 6.27079 1.90926 0
M  V30 1646 H 148.955 5.09912 3.15832 0
M  V30 1647 H 150.634 5.68862 3.08228 0
M  V30 1648 N 150.766 -0.704594 1.40972 0
M  V30 1649 C 151.714 -1.83994 1.42299 0
M  V30 1650 C 152.708 -1.66684 0.302111 0
M  V30 1651 O 153.914 -1.73655 0.473697 0
M  V30 1652 H 150.289 -0.606171 0.44504 0
M  V30 1653 H 152.26 -1.79992 2.38003 0
M  V30 1654 C 151.009 -3.21946 1.31323 0
M  V30 1655 H 150.332 -3.35878 2.16855 0
M  V30 1656 H 151.772 -4.01491 1.36311 0
M  V30 1657 C 150.231 -3.36891 0.0245977 0
M  V30 1658 O 150.761 -3.90687 -0.934153 0
M  V30 1659 N 148.967 -2.90559 -0.0485243 0
M  V30 1660 H 148.514 -2.46968 0.732419 0
M  V30 1661 H 148.472 -3.00937 -0.910171 0
M  V30 1662 N 152.244 -1.26651 -0.937939 0
M  V30 1663 C 153.521 -1.0313 -1.66204 0
M  V30 1664 C 153.901 0.437256 -2.06522 0
M  V30 1665 O 153.249 1.41831 -1.79154 0
M  V30 1666 C 153.459 -1.98314 -2.87181 0
M  V30 1667 C 154.807 -2.27107 -3.58758 0
M  V30 1668 O 155.831 -1.96205 -2.97291 0
M  V30 1669 O 154.69 -2.79736 -4.69479 0
M  V30 1670 H 151.784 -0.392384 -0.727986 0
M  V30 1671 H 154.33 -1.37874 -0.989382 0
M  V30 1672 H 153.102 -2.97399 -2.54302 0
M  V30 1673 H 152.725 -1.64068 -3.6217 0
M  V30 1674 N 153.722 1.14298 -1.08507 0
M  V30 1675 C 154.952 1.88945 -0.835663 0
M  V30 1676 C 155.36 1.78894 0.615928 0
M  V30 1677 O 154.703 1.1468 1.43506 0
M  V30 1678 C 154.765 3.39585 -1.17994 0
M  V30 1679 C 154.429 3.7342 -2.63451 0
M  V30 1680 C 155.426 3.73454 -3.61702 0
M  V30 1681 C 153.111 4.03368 -2.99332 0
M  V30 1682 C 155.105 4.02961 -4.93864 0
M  V30 1683 C 152.792 4.32538 -4.31687 0
M  V30 1684 C 153.79 4.32318 -5.28763 0
M  V30 1685 O 153.478 4.6078 -6.58739 0
M  V30 1686 H 153.21 0.605307 -0.300965 0
M  V30 1687 H 155.764 1.45673 -1.44806 0
M  V30 1688 H 153.994 3.83315 -0.51055 0
M  V30 1689 H 155.683 3.9554 -0.911182 0
M  V30 1690 H 156.449 3.50403 -3.35325 0
M  V30 1691 H 152.328 4.02692 -2.24411 0
M  V30 1692 H 155.872 4.02704 -5.69627 0
M  V30 1693 H 151.769 4.55059 -4.57812 0
M  V30 1694 H 152.537 4.78492 -6.64069 0
M  V30 1695 N 155.201 0.870884 1.31352 0
M  V30 1696 C 156.426 0.495957 2.01383 0
M  V30 1697 C 156.851 -0.904324 1.64935 0
M  V30 1698 O 156.209 -1.59687 0.858466 0
M  V30 1699 C 156.257 0.661433 3.54482 0
M  V30 1700 O 155.361 -0.298851 4.11316 0
M  V30 1701 H 154.702 0.197158 0.634054 0
M  V30 1702 H 157.232 1.17455 1.67527 0
M  V30 1703 H 157.242 0.555072 4.04207 0
M  V30 1704 H 155.917 1.68246 3.8035 0
M  V30 1705 H 154.494 -0.147368 3.72609 0
M  V30 1706 N 156.679 -1.44442 0.630414 0
M  V30 1707 C 157.928 -2.01267 0.132073 0
M  V30 1708 C 158.241 -1.50172 -1.25331 0
M  V30 1709 O 159.447 -1.9912 -1.84562 0
M  V30 1710 C 157.903 -3.59422 0.185362 0
M  V30 1711 C 157.511 -4.19514 1.57201 0
M  V30 1712 C 159.255 -4.23724 -0.256553 0
M  V30 1713 C 157.162 -5.69891 1.58045 0
M  V30 1714 H 156.092 -0.752619 0.0456092 0
M  V30 1715 H 158.743 -1.65666 0.789106 0
M  V30 1716 H 157.125 -3.92318 -0.538759 0
M  V30 1717 H 158.299 -3.98156 2.31966 0
M  V30 1718 H 156.614 -3.67496 1.95795 0
M  V30 1719 H 159.211 -5.34019 -0.269767 0
M  V30 1720 H 159.554 -3.96013 -1.28372 0
M  V30 1721 H 160.087 -3.95629 0.41505 0
M  V30 1722 H 156.826 -6.02336 2.58597 0
M  V30 1723 H 156.346 -5.93373 0.875725 0
M  V30 1724 H 158.025 -6.33515 1.31408 0
M  V30 1725 N 158.157 -0.370918 -1.53173 0
M  V30 1726 C 159.382 0.220293 -2.06227 0
M  V30 1727 C 159.807 1.41243 -1.24225 0
M  V30 1728 O 159.165 1.79387 -0.262645 0
M  V30 1729 C 159.213 0.586663 -3.55796 0
M  V30 1730 O 158.317 1.68317 -3.76488 0
M  V30 1731 H 157.658 0.0308099 -0.663285 0
M  V30 1732 H 160.188 -0.533068 -1.97534 0
M  V30 1733 H 160.198 0.85617 -3.98916 0
M  V30 1734 H 158.873 -0.285013 -4.14922 0
M  V30 1735 H 157.45 1.40881 -3.45264 0
M  V30 1736 N 159.635 1.57281 -0.100228 0
M  V30 1737 C 161.046 1.81725 0.428107 0
M  V30 1738 C 161.397 1.01619 1.67833 0
M  V30 1739 O 160.522 0.247098 2.14985 0
M  V30 1740 C 161.117 3.29617 0.78347 0
M  V30 1741 C 159.676 3.54808 1.25653 0
M  V30 1742 C 158.823 2.76118 0.255752 0
M  V30 1743 H 161.774 1.55324 -0.325608 0
M  V30 1744 H 161.795 3.4322 1.64256 0
M  V30 1745 H 161.307 3.87893 -0.12665 0
M  V30 1746 H 159.408 3.01868 2.18418 0
M  V30 1747 H 159.521 4.63443 1.21482 0
M  V30 1748 H 157.885 2.43745 0.738956 0
M  V30 1749 H 158.668 3.37145 -0.647136 0
M  V30 1750 N 161.113 -0.173488 1.56642 0
M  V30 1751 C 162.39 -0.917617 1.7274 0
M  V30 1752 C 162.77 -2.00484 0.661027 0
M  V30 1753 O 162.118 -2.26184 -0.32453 0
M  V30 1754 C 162.328 -1.48433 3.15862 0
M  V30 1755 C 163.676 -1.95809 3.76754 0
M  V30 1756 O 164.7 -1.58231 3.19126 0
M  V30 1757 O 163.559 -2.65024 4.77938 0
M  V30 1758 H 160.653 -0.431772 0.705338 0
M  V30 1759 H 163.199 -0.161487 1.6893 0
M  V30 1760 H 161.971 -0.701715 3.84957 0
M  V30 1761 H 161.594 -2.30471 3.23989 0
M  V30 1762 N 162.591 -1.51276 -0.441967 0
M  V30 1763 C 163.839 -1.63392 -1.18943 0
M  V30 1764 C 164.16 -0.350159 -1.9183 0
M  V30 1765 O 163.43 0.633784 -1.85364 0
M  V30 1766 H 162.01 -0.602164 -0.442049 0
M  V30 1767 H 164.672 -1.88186 -0.507165 0
M  V30 1768 H 163.768 -2.45934 -1.92154 0
M  V30 1769 N 164.069 0.697108 -1.41344 0
M  V30 1770 C 165.001 1.8224 -1.39001 0
M  V30 1771 C 166.014 1.60152 -0.292428 0
M  V30 1772 O 167.203 1.69684 -0.554048 0
M  V30 1773 C 164.303 3.18976 -1.14489 0
M  V30 1774 C 163.476 3.68105 -2.36258 0
M  V30 1775 C 162.535 4.83506 -2.07625 0
M  V30 1776 O 161.561 4.95201 -2.8065 0
M  V30 1777 N 162.763 5.70637 -1.06555 0
M  V30 1778 H 165.528 1.84742 -2.35988 0
M  V30 1779 H 163.089 0.87937 -1.35936 0
M  V30 1780 H 165.081 3.93801 -0.932885 0
M  V30 1781 H 163.651 3.11508 -0.261043 0
M  V30 1782 H 162.871 2.84204 -2.7317 0
M  V30 1783 H 164.159 3.97667 -3.17393 0
M  V30 1784 H 163.557 5.63817 -0.461125 0
M  V30 1785 H 162.114 6.45368 -0.913444 0
M  V30 1786 N 165.547 1.27147 0.931209 0
M  V30 1787 C 166.794 1.13278 1.67852 0
M  V30 1788 C 167.122 -0.32204 1.91815 0
M  V30 1789 O 166.377 -1.25224 1.50391 0
M  V30 1790 C 166.676 1.8579 3.05314 0
M  V30 1791 C 166.342 3.35657 3.01073 0
M  V30 1792 C 165.004 3.76536 2.99623 0
M  V30 1793 C 167.356 4.31299 2.92627 0
M  V30 1794 C 164.684 5.11426 2.87506 0
M  V30 1795 C 167.036 5.66242 2.82051 0
M  V30 1796 C 165.7 6.06418 2.7895 0
M  V30 1797 H 164.97 0.414515 0.614214 0
M  V30 1798 H 167.617 1.57712 1.08624 0
M  V30 1799 H 165.922 1.33854 3.68226 0
M  V30 1800 H 167.619 1.72491 3.62005 0
M  V30 1801 H 164.209 3.03146 3.02986 0
M  V30 1802 H 168.393 4.00692 2.92848 0
M  V30 1803 H 163.649 5.41705 2.83489 0
M  V30 1804 H 167.823 6.40026 2.74481 0
M  V30 1805 H 165.45 7.10895 2.69318 0
M  V30 1806 N 167.025 -1.13721 1.09112 0
M  V30 1807 C 168.274 -1.84275 0.82009 0
M  V30 1808 C 168.587 -1.84253 -0.656509 0
M  V30 1809 O 169.793 -2.50668 -1.04296 0
M  V30 1810 C 168.249 -3.30825 1.41714 0
M  V30 1811 C 167.857 -3.39244 2.92605 0
M  V30 1812 C 169.601 -4.06443 1.22492 0
M  V30 1813 C 167.508 -4.80047 3.45411 0
M  V30 1814 H 166.438 -0.690387 0.30312 0
M  V30 1815 H 169.089 -1.28146 1.31343 0
M  V30 1816 H 167.471 -3.86737 0.851498 0
M  V30 1817 H 168.645 -2.93344 3.55367 0
M  V30 1818 H 166.96 -2.77088 3.10823 0
M  V30 1819 H 169.557 -5.10387 1.59402 0
M  V30 1820 H 169.9 -4.15972 0.165299 0
M  V30 1821 H 170.433 -3.56852 1.75788 0
M  V30 1822 H 167.172 -4.75709 4.50978 0
M  V30 1823 H 166.692 -5.26455 2.87411 0
M  V30 1824 H 168.371 -5.48957 3.42425 0
M  V30 1825 N 168.503 -0.877838 -1.30888 0
M  V30 1826 C 169.433 -0.35534 -2.3078 0
M  V30 1827 C 170.414 0.557994 -1.60687 0
M  V30 1828 O 171.599 0.473355 -1.88343 0
M  V30 1829 C 168.729 0.437221 -3.44537 0
M  V30 1830 C 167.683 -0.383715 -4.26276 0
M  V30 1831 C 167.009 0.535014 -5.32017 0
M  V30 1832 C 168.309 -1.62201 -4.96476 0
M  V30 1833 H 170.003 -1.19007 -2.74732 0
M  V30 1834 H 167.549 -0.573698 -1.32078 0
M  V30 1835 H 169.502 0.813334 -4.13477 0
M  V30 1836 H 168.226 1.30553 -2.99372 0
M  V30 1837 H 166.885 -0.741874 -3.59015 0
M  V30 1838 H 166.533 1.40083 -4.831 0
M  V30 1839 H 166.233 -0.0104211 -5.87599 0
M  V30 1840 H 167.757 0.907799 -6.03814 0
M  V30 1841 H 169.171 -1.31689 -5.5797 0
M  V30 1842 H 167.568 -2.10711 -5.61891 0
M  V30 1843 H 168.638 -2.37044 -4.23011 0
M  V30 1844 N 169.982 1.44106 -0.638065 0
M  V30 1845 C 170.912 2.33448 0.0494287 0
M  V30 1846 C 171.893 1.48606 0.827672 0
M  V30 1847 O 173.078 1.77308 0.792173 0
M  V30 1848 C 170.208 3.31771 1.02691 0
M  V30 1849 C 169.162 4.26485 0.359823 0
M  V30 1850 C 168.488 5.14729 1.44769 0
M  V30 1851 C 169.788 5.17056 -0.738296 0
M  V30 1852 H 171.482 2.91183 -0.696636 0
M  V30 1853 H 169.028 1.40014 -0.336456 0
M  V30 1854 H 170.981 3.93161 1.51666 0
M  V30 1855 H 169.705 2.7226 1.80395 0
M  V30 1856 H 168.364 3.66437 -0.10934 0
M  V30 1857 H 168.012 4.51566 2.21578 0
M  V30 1858 H 167.712 5.78913 1.00668 0
M  V30 1859 H 169.236 5.78991 1.93911 0
M  V30 1860 H 170.65 5.72342 -0.331354 0
M  V30 1861 H 169.047 5.89879 -1.10286 0
M  V30 1862 H 170.117 4.57652 -1.60258 0
M  V30 1863 N 171.46 0.379036 1.52974 0
M  V30 1864 C 172.37 -0.468639 2.29872 0
M  V30 1865 C 173.386 -1.08067 1.36373 0
M  V30 1866 O 174.562 -1.08871 1.69438 0
M  V30 1867 C 171.627 -1.58594 3.083 0
M  V30 1868 C 170.688 -1.00007 4.17489 0
M  V30 1869 C 169.921 -2.06413 4.92168 0
M  V30 1870 O 170.144 -3.27751 4.66835 0
M  V30 1871 O 169.078 -1.68717 5.7777 0
M  V30 1872 H 172.904 0.157508 3.03291 0
M  V30 1873 H 170.489 0.143035 1.48714 0
M  V30 1874 H 172.371 -2.23525 3.57232 0
M  V30 1875 H 171.046 -2.19724 2.37703 0
M  V30 1876 H 169.953 -0.314299 3.72777 0
M  V30 1877 H 171.286 -0.433135 4.90291 0
M  V30 1878 N 172.938 -1.57226 0.108567 0
M  V30 1879 C 174.168 -1.9889 -0.559142 0
M  V30 1880 C 174.576 -0.986889 -1.61422 0
M  V30 1881 O 173.919 0.0298705 -1.83676 0
M  V30 1882 C 173.981 -3.36952 -1.25315 0
M  V30 1883 C 173.645 -4.55679 -0.347248 0
M  V30 1884 C 174.642 -5.18281 0.409996 0
M  V30 1885 C 172.327 -5.0162 -0.261367 0
M  V30 1886 C 174.321 -6.25203 1.24096 0
M  V30 1887 C 172.008 -6.08405 0.573238 0
M  V30 1888 C 173.006 -6.70063 1.32304 0
M  V30 1889 O 172.694 -7.74788 2.14381 0
M  V30 1890 H 172.426 -0.658343 -0.153492 0
M  V30 1891 H 174.98 -2.04532 0.188584 0
M  V30 1892 H 173.21 -3.28032 -2.04773 0
M  V30 1893 H 174.899 -3.62974 -1.81673 0
M  V30 1894 H 175.665 -4.8371 0.353457 0
M  V30 1895 H 171.544 -4.53381 -0.834656 0
M  V30 1896 H 175.088 -6.73259 1.82669 0
M  V30 1897 H 170.985 -6.42406 0.631208 0
M  V30 1898 H 171.753 -7.91837 2.07209 0
M  V30 1899 N 174.416 0.165178 -1.56732 0
M  V30 1900 C 175.364 1.22369 -1.97809 0
M  V30 1901 C 176.358 1.45488 -0.867741 0
M  V30 1902 O 177.564 1.45995 -1.05288 0
M  V30 1903 H 173.939 0.411486 -0.629431 0
M  V30 1904 H 175.91 0.850425 -2.86025 0
M  V30 1905 C 174.659 2.55403 -2.35934 0
M  V30 1906 H 173.982 2.38438 -3.20916 0
M  V30 1907 H 175.422 3.2814 -2.68514 0
M  V30 1908 C 173.881 3.14611 -1.20506 0
M  V30 1909 O 174.411 3.98626 -0.496016 0
M  V30 1910 N 172.617 2.7379 -0.97403 0
M  V30 1911 H 172.164 2.0557 -1.55238 0
M  V30 1912 H 172.122 3.1374 -0.203573 0
M  V30 1913 N 175.894 1.51508 0.433938 0
M  V30 1914 C 177.124 1.67914 1.20369 0
M  V30 1915 C 177.532 0.377461 1.85397 0
M  V30 1916 O 176.875 -0.654255 1.71654 0
M  V30 1917 C 176.937 2.74045 2.32679 0
M  V30 1918 C 176.601 4.16543 1.87991 0
M  V30 1919 C 177.598 5.01211 1.38145 0
M  V30 1920 C 175.283 4.6266 1.95579 0
M  V30 1921 C 177.277 6.30056 0.964774 0
M  V30 1922 C 174.964 5.91501 1.53523 0
M  V30 1923 C 175.962 6.75027 1.04055 0
M  V30 1924 O 175.65 8.01459 0.625964 0
M  V30 1925 H 175.382 0.566578 0.368735 0
M  V30 1926 H 177.936 1.98709 0.51999 0
M  V30 1927 H 176.166 2.38572 3.04336 0
M  V30 1928 H 177.855 2.79295 2.94532 0
M  V30 1929 H 178.621 4.66783 1.31675 0
M  V30 1930 H 174.5 3.97767 2.33029 0
M  V30 1931 H 178.044 6.95202 0.57796 0
M  V30 1932 H 173.941 6.25442 1.59665 0
M  V30 1933 H 174.709 8.15043 0.751509 0
M  V30 1934 N 177.372 -0.689602 1.41712 0
M  V30 1935 C 178.618 -1.45181 1.41599 0
M  V30 1936 C 178.951 -1.94181 0.0270081 0
M  V30 1937 O 178.226 -1.6993 -0.946265 0
M  V30 1938 C 178.509 -2.65945 2.42787 0
M  V30 1939 C 178.362 -2.22672 3.90816 0
M  V30 1940 C 179.681 -3.68149 2.41151 0
M  V30 1941 H 176.8 -0.526576 0.515642 0
M  V30 1942 H 179.442 -0.784947 1.73028 0
M  V30 1943 H 177.592 -3.2284 2.16116 0
M  V30 1944 H 179.264 -1.71058 4.28412 0
M  V30 1945 H 177.507 -1.54394 4.05395 0
M  V30 1946 H 178.178 -3.0935 4.57172 0
M  V30 1947 H 180.654 -3.2094 2.64834 0
M  V30 1948 H 179.53 -4.50248 3.13955 0
M  V30 1949 H 179.791 -4.18259 1.43221 0
M  V30 1950 N 178.85 -1.27639 -0.924453 0
M  V30 1951 C 179.797 -1.10644 -2.0255 0
M  V30 1952 C 180.767 -0.00658438 -1.66099 0
M  V30 1953 O 181.952 -0.16952 -1.90045 0
M  V30 1954 C 179.092 -0.76309 -3.36557 0
M  V30 1955 C 178.205 -1.94091 -3.85944 0
M  V30 1956 C 177.34 -1.53914 -5.08413 0
M  V30 1957 C 176.379 -2.68425 -5.50104 0
M  V30 1958 N 175.516 -2.28815 -6.63768 0
M  V30 1959 H 180.356 -2.04858 -2.16419 0
M  V30 1960 H 177.893 -1.01974 -1.06017 0
M  V30 1961 H 179.851 -0.544822 -4.13627 0
M  V30 1962 H 178.481 0.142102 -3.22487 0
M  V30 1963 H 177.533 -2.27162 -3.05125 0
M  V30 1964 H 178.845 -2.7998 -4.12811 0
M  V30 1965 H 177.999 -1.28231 -5.92994 0
M  V30 1966 H 176.738 -0.651391 -4.8333 0
M  V30 1967 H 175.743 -2.94819 -4.64071 0
M  V30 1968 H 176.968 -3.57826 -5.7718 0
M  V30 1969 H 174.914 -1.42495 -6.40337 0
M  V30 1970 H 174.831 -3.08242 -6.90306 0
M  V30 1971 H 176.099 -2.06387 -7.51681 0
M  V30 1972 N 180.328 1.1314 -1.09713 0
M  V30 1973 C 181.26 2.18343 -0.697056 0
M  V30 1974 C 182.273 1.60669 0.262551 0
M  V30 1975 O 183.462 1.78435 0.0481527 0
M  V30 1976 C 180.562 3.38899 -0.00684728 0
M  V30 1977 C 179.735 4.26078 -0.988741 0
M  V30 1978 C 178.794 5.25155 -0.331394 0
M  V30 1979 O 177.82 5.60701 -0.979926 0
M  V30 1980 N 179.022 5.73271 0.913261 0
M  V30 1981 H 181.787 2.5328 -1.60216 0
M  V30 1982 H 179.348 1.28491 -0.984971 0
M  V30 1983 H 181.34 4.02255 0.444191 0
M  V30 1984 H 179.91 3.02175 0.800551 0
M  V30 1985 H 179.13 3.59453 -1.61826 0
M  V30 1986 H 180.418 4.81178 -1.65364 0
M  V30 1987 H 179.816 5.46544 1.45966 0
M  V30 1988 H 178.373 6.3855 1.30757 0
M  V30 1989 N 181.806 0.884767 1.30421 0
M  V30 1990 C 183.052 0.513218 1.96819 0
M  V30 1991 C 183.407 -0.927347 1.68577 0
M  V30 1992 O 182.7 -1.64644 0.979941 0
M  V30 1993 C 182.894 0.724318 3.49983 0
M  V30 1994 C 182.723 2.18385 3.93113 0
M  V30 1995 C 181.493 2.82839 4.18725 0
M  V30 1996 C 183.691 3.15763 4.05953 0
M  V30 1997 N 181.673 4.1939 4.48314 0
M  V30 1998 C 183.044 4.37387 4.39423 0
M  V30 1999 C 185.099 3.11555 3.88379 0
M  V30 2000 C 183.802 5.55343 4.5715 0
M  V30 2001 C 185.828 4.28782 4.07308 0
M  V30 2002 C 185.19 5.49172 4.41123 0
M  V30 2003 H 181.289 0.237123 0.745182 0
M  V30 2004 H 183.873 1.14246 1.57658 0
M  V30 2005 H 182.044 0.124565 3.882 0
M  V30 2006 H 183.776 0.31969 4.03435 0
M  V30 2007 H 180.531 2.33708 4.11919 0
M  V30 2008 H 180.955 4.89911 4.67243 0
M  V30 2009 H 185.597 2.19576 3.61312 0
M  V30 2010 H 183.315 6.47826 4.8306 0
M  V30 2011 H 186.901 4.26995 3.95179 0
M  V30 2012 H 185.781 6.38371 4.55469 0
M  V30 2013 N 183.284 -1.43765 0.645699 0
M  V30 2014 C 184.7 -1.56509 0.312591 0
M  V30 2015 C 184.9 -1.6307 -1.18365 0
M  V30 2016 O 183.956 -1.58167 -1.96824 0
M  V30 2017 C 185.269 -2.82968 1.01733 0
M  V30 2018 C 186.817 -2.96701 0.996865 0
M  V30 2019 C 187.292 -4.25982 1.68236 0
M  V30 2020 N 188.783 -4.32829 1.64964 0
M  V30 2021 C 189.518 -5.31613 2.14885 0
M  V30 2022 N 189.014 -6.36718 2.73061 0
M  V30 2023 N 190.807 -5.23217 2.05428 0
M  V30 2024 H 182.958 -1.3775 1.61675 0
M  V30 2025 H 185.221 -0.661067 0.679481 0
M  V30 2026 H 184.927 -2.84156 2.0724 0
M  V30 2027 H 184.801 -3.72957 0.564177 0
M  V30 2028 H 187.188 -2.95058 -0.0497719 0
M  V30 2029 H 187.269 -2.08022 1.48865 0
M  V30 2030 H 186.913 -4.28386 2.72852 0
M  V30 2031 H 186.843 -5.13545 1.16529 0
M  V30 2032 H 189.334 -3.57493 1.22503 0
M  V30 2033 H 189.647 -7.08401 3.08848 0
M  V30 2034 H 187.992 -6.37362 2.77118 0
M  V30 2035 H 191.183 -4.40019 1.59689 0
M  V30 2036 H 191.356 -6.00045 2.44643 0
M  V30 2037 N 184.763 -0.387143 -1.52771 0
M  V30 2038 C 185.713 0.465942 -2.23188 0
M  V30 2039 C 186.697 1.03138 -1.23496 0
M  V30 2040 O 187.889 0.957845 -1.48843 0
M  V30 2041 C 185.018 1.59384 -3.04059 0
M  V30 2042 C 184.104 1.04024 -4.11144 0
M  V30 2043 N 184.495 0.211416 -5.05358 0
M  V30 2044 C 182.793 1.31295 -4.26237 0
M  V30 2045 C 183.494 -0.0941698 -5.81624 0
M  V30 2046 N 182.47 0.509207 -5.4121 0
M  V30 2047 H 186.272 -0.173856 -2.93385 0
M  V30 2048 H 183.786 -0.19633 -1.61209 0
M  V30 2049 H 185.783 2.21738 -3.53041 0
M  V30 2050 H 184.443 2.23648 -2.35397 0
M  V30 2051 H 185.454 -0.151151 -5.17679 0
M  V30 2052 H 182.131 1.95679 -3.68803 0
M  V30 2053 H 183.521 -0.765572 -6.67524 0
M  V30 2054 N 186.241 1.57166 -0.116904 0
M  V30 2055 C 187.466 1.999 0.55271 0
M  V30 2056 C 187.891 0.996039 1.59564 0
M  V30 2057 O 187.249 -0.032556 1.81271 0
M  V30 2058 C 187.297 3.4152 1.15742 0
M  V30 2059 O 186.401 3.44106 2.27299 0
M  V30 2060 H 185.742 0.649447 0.138258 0
M  V30 2061 H 188.272 2.03573 -0.204759 0
M  V30 2062 H 188.282 3.79684 1.49346 0
M  V30 2063 H 186.957 4.14034 0.393493 0
M  V30 2064 H 185.534 3.17759 1.9515 0
M  V30 2065 N 187.719 -0.156864 1.56817 0
M  V30 2066 C 188.949 -0.885031 1.86684 0
M  V30 2067 C 189.357 -1.75696 0.701954 0
M  V30 2068 O 188.7 -1.80569 -0.337732 0
M  V30 2069 C 188.762 -1.80092 3.11138 0
M  V30 2070 C 188.426 -1.10714 4.43386 0
M  V30 2071 C 189.423 -0.465714 5.1781 0
M  V30 2072 C 187.108 -1.09959 4.90117 0
M  V30 2073 C 189.102 0.174002 6.37162 0
M  V30 2074 C 186.789 -0.456055 6.09396 0
M  V30 2075 C 187.787 0.179622 6.82764 0
M  V30 2076 O 187.475 0.812975 7.99779 0
M  V30 2077 H 187.207 -0.261813 0.623242 0
M  V30 2078 H 189.761 -0.157383 2.04796 0
M  V30 2079 H 187.991 -2.56926 2.89009 0
M  V30 2080 H 189.68 -2.40018 3.27332 0
M  V30 2081 H 190.446 -0.463427 4.82781 0
M  V30 2082 H 186.325 -1.58378 4.3294 0
M  V30 2083 H 189.869 0.670765 6.94368 0
M  V30 2084 H 185.766 -0.455975 6.43888 0
M  V30 2085 H 186.534 0.71366 8.15383 0
M  V30 2086 N 189.197 -1.51736 -0.425897 0
M  V30 2087 C 190.425 -1.68794 -1.1965 0
M  V30 2088 C 190.84 -0.390164 -1.84725 0
M  V30 2089 O 190.197 0.632376 -1.71194 0
M  V30 2090 C 190.248 -2.81174 -2.27208 0
M  V30 2091 O 189.969 -4.05925 -1.64793 0
M  V30 2092 C 191.47 -3.09599 -3.17275 0
M  V30 2093 H 188.69 -0.566128 -0.360194 0
M  V30 2094 H 191.234 -1.98211 -0.503249 0
M  V30 2095 H 189.389 -2.54324 -2.9223 0
M  V30 2096 H 189.803 -4.68423 -2.35967 0
M  V30 2097 H 191.277 -3.91786 -3.88854 0
M  V30 2098 H 191.754 -2.22468 -3.78688 0
M  V30 2099 H 192.36 -3.38151 -2.57941 0
M  V30 2100 N 190.675 0.682077 -1.42076 0
M  V30 2101 C 191.638 1.77756 -1.44691 0
M  V30 2102 C 192.638 1.5726 -0.335535 0
M  V30 2103 O 193.828 1.63686 -0.596037 0
M  V30 2104 C 190.96 3.16301 -1.27146 0
M  V30 2105 H 192.153 1.76826 -2.42224 0
M  V30 2106 H 189.706 0.891012 -1.28416 0
M  V30 2107 H 190.441 3.22862 -0.305075 0
M  V30 2108 H 190.226 3.32581 -2.07683 0
M  V30 2109 H 191.716 3.96241 -1.31843 0
M  V30 2110 N 192.153 1.28127 0.917671 0
M  V30 2111 C 193.378 1.18007 1.70555 0
M  V30 2112 C 193.803 -0.258257 1.86319 0
M  V30 2113 O 193.161 -1.1869 1.37049 0
M  V30 2114 C 193.209 1.87948 3.07746 0
M  V30 2115 O 192.313 1.18427 3.9503 0
M  V30 2116 H 191.654 0.409867 0.522403 0
M  V30 2117 H 194.184 1.69379 1.1477 0
M  V30 2118 H 194.194 1.95701 3.58001 0
M  V30 2119 H 192.869 2.92573 2.95591 0
M  V30 2120 H 191.446 1.18811 3.53466 0
M  V30 2121 N 193.631 -1.12557 1.10312 0
M  V30 2122 C 194.861 -1.87592 0.865617 0
M  V30 2123 C 195.269 -1.79851 -0.587389 0
M  V30 2124 O 194.612 -1.16949 -1.41664 0
M  V30 2125 C 194.674 -3.37665 1.23381 0
M  V30 2126 C 194.338 -3.69181 2.69359 0
M  V30 2127 C 195.335 -3.67652 3.67597 0
M  V30 2128 C 193.02 -3.98555 3.05711 0
M  V30 2129 C 195.014 -3.95053 5.00212 0
M  V30 2130 C 192.701 -4.25616 4.38514 0
M  V30 2131 C 193.699 -4.23851 5.35574 0
M  V30 2132 O 193.387 -4.50242 6.65986 0
M  V30 2133 H 193.119 -0.600442 0.310557 0
M  V30 2134 H 195.673 -1.4335 1.47105 0
M  V30 2135 H 193.903 -3.82454 0.571467 0
M  V30 2136 H 195.592 -3.94041 0.973994 0
M  V30 2137 H 196.358 -3.45024 3.40857 0
M  V30 2138 H 192.237 -3.99071 2.30789 0
M  V30 2139 H 195.781 -3.93591 5.75962 0
M  V30 2140 H 191.678 -4.47718 4.64994 0
M  V30 2141 H 192.446 -4.67867 6.71597 0
M  V30 2142 N 195.109 -0.891671 -1.2995 0
M  V30 2143 C 196.386 -0.433307 -1.9074 0
M  V30 2144 C 196.766 1.08646 -1.80995 0
M  V30 2145 O 196.114 1.92476 -1.23147 0
M  V30 2146 C 196.324 -0.938895 -3.36134 0
M  V30 2147 C 197.672 -0.977829 -4.13187 0
M  V30 2148 O 198.696 -0.886015 -3.45005 0
M  V30 2149 O 197.555 -1.11453 -5.35015 0
M  V30 2150 H 194.649 -0.133699 -0.816121 0
M  V30 2151 H 197.195 -0.981011 -1.38471 0
M  V30 2152 H 195.967 -1.98281 -3.37343 0
M  V30 2153 H 195.59 -0.37074 -3.95868 0
M  V30 2154 N 196.587 1.43421 -0.653314 0
M  V30 2155 C 197.836 2.01032 -0.164076 0
M  V30 2156 C 198.149 1.52147 1.22926 0
M  V30 2157 O 199.355 2.02031 1.81371 0
M  V30 2158 C 197.811 3.59082 -0.24252 0
M  V30 2159 C 197.419 4.1696 -1.63855 0
M  V30 2160 C 199.163 4.24079 0.18911 0
M  V30 2161 C 197.07 5.67304 -1.67092 0
M  V30 2162 H 196 0.751798 -0.0575769 0
M  V30 2163 H 198.651 1.6439 -0.815362 0
M  V30 2164 H 197.033 3.93125 0.476276 0
M  V30 2165 H 198.207 3.94416 -2.38271 0
M  V30 2166 H 196.522 3.64335 -2.01616 0
M  V30 2167 H 199.119 5.34381 0.184775 0
M  V30 2168 H 199.462 3.98005 1.22056 0
M  V30 2169 H 199.995 3.94918 -0.477938 0
M  V30 2170 H 196.734 5.98145 -2.68146 0
M  V30 2171 H 196.254 5.91904 -0.970014 0
M  V30 2172 H 197.933 6.31344 -1.4147 0
M  V30 2173 N 198.065 0.39524 1.52563 0
M  V30 2174 C 199.295 -0.184675 2.05773 0
M  V30 2175 C 199.703 -1.40571 1.26635 0
M  V30 2176 O 199.046 -1.81105 0.30769 0
M  V30 2177 C 199.108 -0.613551 3.54226 0
M  V30 2178 C 198.772 0.49484 4.54313 0
M  V30 2179 C 199.769 1.3541 5.01956 0
M  V30 2180 C 197.454 0.663565 4.97898 0
M  V30 2181 C 199.448 2.36716 5.91814 0
M  V30 2182 C 197.135 1.67996 5.87555 0
M  V30 2183 C 198.133 2.53017 6.34406 0
M  V30 2184 O 197.821 3.52917 7.22291 0
M  V30 2185 H 197.553 -0.030077 0.675331 0
M  V30 2186 H 200.107 0.560708 1.97599 0
M  V30 2187 H 198.337 -1.411 3.60038 0
M  V30 2188 H 200.026 -1.11981 3.90148 0
M  V30 2189 H 200.792 1.23509 4.6901 0
M  V30 2190 H 196.671 0.0114913 4.60999 0
M  V30 2191 H 200.215 3.03113 6.28306 0
M  V30 2192 H 196.112 1.79933 6.19915 0
M  V30 2193 H 196.88 3.48996 7.40367 0
M  V30 2194 N 199.544 -1.57102 0.125237 0
M  V30 2195 C 200.821 -1.86953 -0.575142 0
M  V30 2196 C 201.201 -1.02749 -1.84407 0
M  V30 2197 O 200.549 -0.108144 -2.28244 0
M  V30 2198 C 200.759 -3.38198 -0.861583 0
M  V30 2199 C 202.107 -4.06937 -1.21192 0
M  V30 2200 O 203.131 -3.43252 -0.951645 0
M  V30 2201 O 201.99 -5.19364 -1.70068 0
M  V30 2202 H 199.084 -0.774147 -0.290906 0
M  V30 2203 H 201.63 -1.68942 0.160211 0
M  V30 2204 H 200.402 -3.91282 0.0373647 0
M  V30 2205 H 200.025 -3.61661 -1.65188 0
M  V30 2206 N 201.022 0.148545 -1.56898 0
M  V30 2207 C 201.952 1.18524 -2.01182 0
M  V30 2208 C 202.933 1.4489 -0.891123 0
M  V30 2209 O 204.118 1.55836 -1.15882 0
M  V30 2210 C 201.248 2.51879 -2.39112 0
M  V30 2211 C 200.202 2.40038 -3.54353 0
M  V30 2212 C 199.528 3.78089 -3.78091 0
M  V30 2213 C 200.828 1.88577 -4.87069 0
M  V30 2214 H 202.522 0.817029 -2.88036 0
M  V30 2215 H 200.068 0.391575 -1.38574 0
M  V30 2216 H 202.021 3.24627 -2.68692 0
M  V30 2217 H 200.745 2.90532 -1.49193 0
M  V30 2218 H 199.404 1.69742 -3.24936 0
M  V30 2219 H 199.052 4.14175 -2.85426 0
M  V30 2220 H 198.752 3.71028 -4.55645 0
M  V30 2221 H 200.276 4.52387 -4.10095 0
M  V30 2222 H 201.69 2.51117 -5.15377 0
M  V30 2223 H 200.087 1.9241 -5.68417 0
M  V30 2224 H 201.157 0.84136 -4.77545 0
M  V30 2225 N 202.5 1.5196 0.417844 0
M  V30 2226 C 203.448 1.75278 1.52907 0
M  V30 2227 C 204.442 0.619611 1.57662 0
M  V30 2228 O 205.648 0.801457 1.61173 0
M  V30 2229 H 202.023 0.554141 0.508362 0
M  V30 2230 H 203.994 2.68389 1.30422 0
M  V30 2231 C 202.743 1.91262 2.90369 0
M  V30 2232 H 202.066 2.77872 2.8745 0
M  V30 2233 H 203.506 2.11581 3.67436 0
M  V30 2234 C 201.965 0.677431 3.30019 0
M  V30 2235 O 202.495 -0.158799 4.01386 0
M  V30 2236 N 200.701 0.515851 2.85985 0
M  V30 2237 H 200.248 1.19744 2.28077 0
M  V30 2238 H 200.206 -0.309315 3.12875 0
M  V30 2239 N 203.978 -0.674533 1.42435 0
M  V30 2240 C 204.925 -1.78807 1.45934 0
M  V30 2241 C 205.895 -1.63157 0.311271 0
M  V30 2242 O 207.08 -1.83707 0.515383 0
M  V30 2243 C 204.22 -3.16839 1.36773 0
M  V30 2244 C 203.333 -3.43774 2.61617 0
M  V30 2245 C 202.468 -4.71536 2.44597 0
M  V30 2246 C 201.507 -4.91505 3.64814 0
M  V30 2247 N 200.644 -6.10508 3.46734 0
M  V30 2248 H 205.484 -1.75151 2.41093 0
M  V30 2249 H 203.021 -0.85504 1.19697 0
M  V30 2250 H 204.979 -3.96606 1.29459 0
M  V30 2251 H 203.609 -3.19619 0.452089 0
M  V30 2252 H 202.661 -2.58259 2.79297 0
M  V30 2253 H 203.973 -3.54423 3.50978 0
M  V30 2254 H 203.127 -5.59393 2.3487 0
M  V30 2255 H 201.866 -4.6317 1.52726 0
M  V30 2256 H 200.871 -4.0209 3.74972 0
M  V30 2257 H 202.096 -5.01716 4.57665 0
M  V30 2258 H 200.042 -6.03315 2.5758 0
M  V30 2259 H 199.959 -6.2202 4.29682 0
M  V30 2260 H 201.227 -7.01044 3.40819 0
M  V30 2261 N 205.456 -1.28612 -0.910864 0
M  V30 2262 C 206.872 -1.06381 -1.18976 0
M  V30 2263 C 207.072 0.191998 -2.00583 0
M  V30 2264 O 206.128 0.892869 -2.36187 0
M  V30 2265 C 207.441 -2.31295 -1.92154 0
M  V30 2266 C 208.989 -2.36503 -2.05025 0
M  V30 2267 C 209.464 -3.61191 -2.81612 0
M  V30 2268 N 210.955 -3.61847 -2.89172 0
M  V30 2269 C 211.69 -4.55004 -3.4894 0
M  V30 2270 N 211.186 -5.58482 -4.09963 0
M  V30 2271 N 212.979 -4.42594 -3.46506 0
M  V30 2272 H 205.13 -2.09221 -0.366094 0
M  V30 2273 H 207.393 -0.921003 -0.224629 0
M  V30 2274 H 207.099 -3.228 -1.39618 0
M  V30 2275 H 206.973 -2.37934 -2.9269 0
M  V30 2276 H 209.36 -1.45494 -2.5674 0
M  V30 2277 H 209.441 -2.33857 -1.03657 0
M  V30 2278 H 209.085 -4.52545 -2.30576 0
M  V30 2279 H 209.015 -3.61092 -3.83302 0
M  V30 2280 H 211.506 -2.87022 -2.45819 0
M  V30 2281 H 211.819 -6.25704 -4.53557 0
M  V30 2282 H 210.164 -5.62305 -4.08459 0
M  V30 2283 H 213.355 -3.60953 -2.98045 0
M  V30 2284 H 213.528 -5.15381 -3.92793 0
M  V30 2285 N 206.934 1.1197 -1.10907 0
M  V30 2286 C 207.866 2.17592 -0.720175 0
M  V30 2287 C 208.879 1.60938 0.245495 0
M  V30 2288 O 210.068 1.78476 0.0292245 0
M  V30 2289 C 207.168 3.38873 -0.0427917 0
M  V30 2290 C 206.341 4.25006 -1.03388 0
M  V30 2291 C 205.4 5.24774 -0.387075 0
M  V30 2292 O 204.426 5.59631 -1.03934 0
M  V30 2293 N 205.628 5.74208 0.852407 0
M  V30 2294 H 208.393 2.51567 -1.62893 0
M  V30 2295 H 205.954 1.27439 -0.998543 0
M  V30 2296 H 207.946 4.02703 0.401501 0
M  V30 2297 H 206.516 3.03007 0.768456 0
M  V30 2298 H 205.736 3.57716 -1.65629 0
M  V30 2299 H 207.024 4.79397 -1.70458 0
M  V30 2300 H 206.422 5.48062 1.40161 0
M  V30 2301 H 204.979 6.39901 1.23977 0
M  V30 2302 N 208.412 0.89855 1.29475 0
M  V30 2303 C 209.342 0.39201 2.30186 0
M  V30 2304 C 210.323 -0.532359 1.61555 0
M  V30 2305 O 211.508 -0.443331 1.89072 0
M  V30 2306 C 208.638 -0.382353 3.45189 0
M  V30 2307 C 207.592 0.451483 4.25612 0
M  V30 2308 C 206.918 -0.450307 5.328 0
M  V30 2309 C 208.218 1.70079 4.93832 0
M  V30 2310 H 209.912 1.23362 2.72804 0
M  V30 2311 H 207.458 0.594638 1.31149 0
M  V30 2312 H 209.411 -0.747451 4.14718 0
M  V30 2313 H 208.135 -1.25774 3.01411 0
M  V30 2314 H 206.794 0.798897 3.57789 0
M  V30 2315 H 206.442 -1.32379 4.85268 0
M  V30 2316 H 206.142 0.103902 5.87508 0
M  V30 2317 H 207.666 -0.811623 6.05182 0
M  V30 2318 H 209.08 1.40549 5.55805 0
M  V30 2319 H 207.477 2.19623 5.58467 0
M  V30 2320 H 208.547 2.43744 4.19186 0
M  V30 2321 N 209.89 -1.43072 0.660911 0
M  V30 2322 C 211.139 -2.00942 0.174735 0
M  V30 2323 C 211.452 -1.52797 -1.22117 0
M  V30 2324 O 212.658 -2.02991 -1.80297 0
M  V30 2325 C 211.114 -3.58948 0.261559 0
M  V30 2326 C 210.722 -4.16085 1.66064 0
M  V30 2327 C 212.466 -4.24173 -0.166617 0
M  V30 2328 C 210.373 -5.6641 1.70098 0
M  V30 2329 H 209.303 -0.751483 0.0615631 0
M  V30 2330 H 211.954 -1.63955 0.824069 0
M  V30 2331 H 210.336 -3.93372 -0.455421 0
M  V30 2332 H 211.51 -3.93147 2.40359 0
M  V30 2333 H 209.825 -3.6326 2.03546 0
M  V30 2334 H 212.422 -5.34471 -0.156433 0
M  V30 2335 H 212.765 -3.98647 -1.19943 0
M  V30 2336 H 213.298 -3.94659 0.498875 0
M  V30 2337 H 210.037 -5.96715 2.71315 0
M  V30 2338 H 209.557 -5.91382 1.00139 0
M  V30 2339 H 211.236 -6.30585 1.44816 0
M  V30 2340 N 211.368 -0.403325 -1.52352 0
M  V30 2341 C 212.596 0.174012 -2.06167 0
M  V30 2342 C 213.011 1.39347 -1.27388 0
M  V30 2343 O 212.368 1.79597 -0.324201 0
M  V30 2344 C 212.419 0.530223 -3.5759 0
M  V30 2345 O 212.14 -0.640806 -4.33388 0
M  V30 2346 C 213.641 1.16192 -4.27802 0
M  V30 2347 H 210.861 0.0229464 -0.670608 0
M  V30 2348 H 213.405 -0.572604 -1.9632 0
M  V30 2349 H 211.56 1.22673 -3.67464 0
M  V30 2350 H 211.974 -0.344851 -5.23365 0
M  V30 2351 H 213.448 1.36141 -5.34948 0
M  V30 2352 H 213.925 2.13335 -3.83907 0
M  V30 2353 H 214.531 0.505775 -4.22282 0
M  V30 2354 N 212.846 1.57033 -0.133567 0
M  V30 2355 C 213.756 2.19632 0.824564 0
M  V30 2356 C 214.772 1.17666 1.28182 0
M  V30 2357 O 215.948 1.50193 1.3418 0
M  V30 2358 C 213.013 2.79499 2.05137 0
M  V30 2359 C 212.074 3.96548 1.64464 0
M  V30 2360 C 211.307 4.5355 2.81297 0
M  V30 2361 O 211.53 4.09438 3.97136 0
M  V30 2362 O 210.464 5.44018 2.57542 0
M  V30 2363 H 214.29 3.01991 0.321766 0
M  V30 2364 H 211.875 1.49112 0.0927889 0
M  V30 2365 H 213.757 3.17602 2.7696 0
M  V30 2366 H 212.432 2.00162 2.54395 0
M  V30 2367 H 211.339 3.63186 0.897048 0
M  V30 2368 H 212.672 4.77364 1.19934 0
M  V30 2369 N 214.325 -0.140222 1.56975 0
M  V30 2370 C 215.235 -1.19223 2.02047 0
M  V30 2371 C 216.251 -1.46612 0.937062 0
M  V30 2372 O 217.427 -1.58148 1.24704 0
M  V30 2373 C 214.492 -2.50414 2.39778 0
M  V30 2374 C 213.553 -2.30612 3.621 0
M  V30 2375 C 212.786 -3.55547 3.98023 0
M  V30 2376 O 213.009 -4.62004 3.34528 0
M  V30 2377 O 211.943 -3.47808 4.91237 0
M  V30 2378 H 215.769 -0.839559 2.91865 0
M  V30 2379 H 213.354 -0.349453 1.45256 0
M  V30 2380 H 215.236 -3.27747 2.64877 0
M  V30 2381 H 213.911 -2.85198 1.53114 0
M  V30 2382 H 212.818 -1.51207 3.4218 0
M  V30 2383 H 214.151 -2.00741 4.49404 0
M  V30 2384 N 215.803 -1.52179 -0.40978 0
M  V30 2385 C 217.219 -1.40968 -0.74835 0
M  V30 2386 C 217.419 -0.513657 -1.94843 0
M  V30 2387 O 216.475 0.0208026 -2.52491 0
M  V30 2388 C 217.788 -2.83483 -1.0029 0
M  V30 2389 C 219.336 -2.92821 -1.10565 0
M  V30 2390 C 219.811 -4.36303 -1.39296 0
M  V30 2391 N 221.302 -4.39535 -1.46162 0
M  V30 2392 C 222.037 -5.47614 -1.70018 0
M  V30 2393 N 221.533 -6.65812 -1.91483 0
M  V30 2394 N 223.326 -5.35129 -1.72027 0
M  V30 2395 H 215.477 -2.0897 0.380186 0
M  V30 2396 H 217.74 -0.94185 0.107805 0
M  V30 2397 H 217.446 -3.51168 -0.193461 0
M  V30 2398 H 217.32 -3.24487 -1.92323 0
M  V30 2399 H 219.707 -2.25318 -1.90568 0
M  V30 2400 H 219.788 -2.55276 -0.16369 0
M  V30 2401 H 219.432 -5.04366 -0.598109 0
M  V30 2402 H 219.362 -4.71385 -2.34743 0
M  V30 2403 H 221.853 -3.54332 -1.31367 0
M  V30 2404 H 222.166 -7.43964 -2.09134 0
M  V30 2405 H 220.511 -6.68879 -1.88749 0
M  V30 2406 H 223.702 -4.41764 -1.54796 0
M  V30 2407 H 223.875 -6.19433 -1.9028 0
M  V30 2408 N 217.281 0.66697 -1.42791 0
M  V30 2409 C 218.53 1.42278 -1.42968 0
M  V30 2410 C 218.843 1.9553 -0.0524489 0
M  V30 2411 O 220.049 2.71414 0.068363 0
M  V30 2412 C 218.505 2.57418 -2.51524 0
M  V30 2413 C 218.113 2.10832 -3.9529 0
M  V30 2414 C 219.857 3.34878 -2.60877 0
M  V30 2415 C 217.764 3.23101 -4.95338 0
M  V30 2416 H 216.694 0.534533 -0.531781 0
M  V30 2417 H 219.345 0.721302 -1.68729 0
M  V30 2418 H 217.727 3.29971 -2.18941 0
M  V30 2419 H 218.901 1.4538 -4.37266 0
M  V30 2420 H 217.216 1.46289 -3.89857 0
M  V30 2421 H 219.813 4.18505 -3.32802 0
M  V30 2422 H 220.156 3.81993 -1.6549 0
M  V30 2423 H 220.689 2.69398 -2.92693 0
M  V30 2424 H 217.428 2.80969 -5.9223 0
M  V30 2425 H 216.948 3.87309 -4.57987 0
M  V30 2426 H 218.627 3.88447 -5.17415 0
M  V30 2427 N 218.759 1.29093 0.90403 0
M  V30 2428 C 220.17 1.15186 1.46932 0
M  V30 2429 C 220.521 -0.254587 1.94541 0
M  V30 2430 O 219.646 -1.14972 1.83332 0
M  V30 2431 C 220.241 2.08492 2.67051 0
M  V30 2432 C 218.8 1.98621 3.19729 0
M  V30 2433 C 217.947 1.9967 1.92425 0
M  V30 2434 H 220.898 1.41641 0.715789 0
M  V30 2435 H 220.919 1.65461 3.42641 0
M  V30 2436 H 220.431 3.10847 2.3237 0
M  V30 2437 H 218.532 0.993389 3.59114 0
M  V30 2438 H 218.645 2.86068 3.8432 0
M  V30 2439 H 217.009 1.44208 2.09943 0
M  V30 2440 H 217.792 3.03721 1.60026 0
M  V30 2441 N 220.237 -1.11381 1.11499 0
M  V30 2442 C 221.185 -2.19522 0.768956 0
M  V30 2443 C 222.179 -1.67693 -0.239857 0
M  V30 2444 O 223.385 -1.79727 -0.0990755 0
M  V30 2445 H 219.76 -0.715711 0.230786 0
M  V30 2446 H 221.731 -2.45954 1.68964 0
M  V30 2447 C 220.48 -3.46945 0.229073 0
M  V30 2448 H 219.803 -3.8718 0.996596 0
M  V30 2449 H 221.243 -4.23993 0.0251441 0
M  V30 2450 C 219.702 -3.2042 -1.04079 0
M  V30 2451 O 220.232 -3.41178 -2.12038 0
M  V30 2452 N 218.438 -2.74151 -0.963823 0
M  V30 2453 H 217.985 -2.57459 -0.0851722 0
M  V30 2454 H 217.943 -2.56781 -1.81414 0
M  V30 2455 N 221.715 -0.905404 -1.28997 0
M  V30 2456 C 222.663 -0.377431 -2.29517 0
M  V30 2457 C 223.657 0.526461 -1.61012 0
M  V30 2458 O 224.863 0.40863 -1.753 0
M  V30 2459 H 221.238 -0.103437 -0.744852 0
M  V30 2460 H 223.209 -1.23848 -2.71485 0
M  V30 2461 C 221.958 0.374833 -3.45674 0
M  V30 2462 H 221.281 -0.311474 -3.98585 0
M  V30 2463 H 222.721 0.70903 -4.1803 0
M  V30 2464 C 221.18 1.57963 -2.97572 0
M  V30 2465 O 221.71 2.67886 -2.99333 0
M  V30 2466 N 219.916 1.42375 -2.53333 0
M  V30 2467 H 219.463 0.529466 -2.521 0
M  V30 2468 H 219.421 2.23117 -2.21509 0
M  V30 2469 N 223.193 1.4272 -0.668489 0
M  V30 2470 C 224.421 2.05966 -0.196348 0
M  V30 2471 C 224.836 1.50191 1.14403 0
M  V30 2472 O 224.193 0.639208 1.7094 0
M  V30 2473 C 224.244 3.61314 -0.115815 0
M  V30 2474 O 223.965 4.1502 -1.40322 0
M  V30 2475 C 225.466 4.41663 0.380579 0
M  V30 2476 H 222.686 0.663954 -0.0969829 0
M  V30 2477 H 225.23 1.82966 -0.913446 0
M  V30 2478 H 223.385 3.83448 0.551931 0
M  V30 2479 H 223.799 5.08832 -1.27243 0
M  V30 2480 H 225.273 5.5065 0.385848 0
M  V30 2481 H 225.75 4.15792 1.41471 0
M  V30 2482 H 226.356 4.24534 -0.255209 0
M  V30 2483 N 224.671 0.411399 1.52136 0
M  V30 2484 C 225.603 -0.448386 2.24771 0
M  V30 2485 C 226.616 -1.00828 1.27818 0
M  V30 2486 O 227.805 -0.906841 1.53749 0
M  V30 2487 C 224.905 -1.63636 2.96777 0
M  V30 2488 C 224.078 -1.19995 4.20618 0
M  V30 2489 C 223.137 -2.25509 4.75428 0
M  V30 2490 O 222.163 -1.86007 5.3795 0
M  V30 2491 N 223.365 -3.577 4.57199 0
M  V30 2492 H 226.13 0.174025 2.99194 0
M  V30 2493 H 223.691 0.238897 1.60128 0
M  V30 2494 H 225.683 -2.33793 3.30338 0
M  V30 2495 H 224.253 -2.16465 2.25526 0
M  V30 2496 H 223.473 -0.326421 3.92846 0
M  V30 2497 H 224.761 -0.885365 5.01038 0
M  V30 2498 H 224.159 -3.92543 4.07341 0
M  V30 2499 H 222.716 -4.23827 4.95191 0
M  V30 2500 N 226.149 -1.5696 0.141893 0
M  V30 2501 C 227.395 -1.97034 -0.504884 0
M  V30 2502 C 227.75 -1.02518 -1.62812 0
M  V30 2503 O 227.043 -0.0592943 -1.91508 0
M  V30 2504 C 227.237 -3.41242 -1.06249 0
M  V30 2505 C 227.066 -4.497 0.00519653 0
M  V30 2506 C 225.836 -5.03338 0.444873 0
M  V30 2507 C 228.034 -5.08122 0.794767 0
M  V30 2508 N 226.016 -5.95395 1.49593 0
M  V30 2509 C 227.387 -5.96339 1.69645 0
M  V30 2510 C 229.442 -4.9071 0.843122 0
M  V30 2511 C 228.145 -6.69009 2.64233 0
M  V30 2512 C 230.171 -5.64077 1.77681 0
M  V30 2513 C 229.533 -6.51999 2.66603 0
M  V30 2514 H 225.632 -0.766745 -0.153707 0
M  V30 2515 H 228.216 -1.93273 0.235313 0
M  V30 2516 H 226.387 -3.45606 -1.77231 0
M  V30 2517 H 228.119 -3.68389 -1.67546 0
M  V30 2518 H 224.874 -4.73576 0.0480959 0
M  V30 2519 H 225.298 -6.46128 2.02107 0
M  V30 2520 H 229.94 -4.22459 0.169732 0
M  V30 2521 H 227.658 -7.36492 3.32575 0
M  V30 2522 H 231.244 -5.52602 1.81996 0
M  V30 2523 H 230.124 -7.07775 3.37675 0
M  V30 2524 N 227.627 0.131896 -1.57047 0
M  V30 2525 C 228.873 0.843179 -1.84441 0
M  V30 2526 C 229.206 1.80129 -0.725749 0
M  V30 2527 O 228.481 1.92624 0.269469 0
M  V30 2528 C 228.764 1.60442 -3.22382 0
M  V30 2529 C 228.617 0.666782 -4.4483 0
M  V30 2530 C 229.936 2.56354 -3.5773 0
M  V30 2531 H 227.055 0.305081 -0.670891 0
M  V30 2532 H 229.697 0.107839 -1.89694 0
M  V30 2533 H 227.847 2.23128 -3.18035 0
M  V30 2534 H 229.519 0.0497646 -4.61273 0
M  V30 2535 H 227.762 -0.022609 -4.33794 0
M  V30 2536 H 228.433 1.23579 -5.37989 0
M  V30 2537 H 230.909 2.0378 -3.62785 0
M  V30 2538 H 229.785 3.06657 -4.5525 0
M  V30 2539 H 230.046 3.38419 -2.84473 0
M  V30 2540 N 229.106 1.52395 0.401703 0
M  V30 2541 C 230.334 1.70676 1.16949 0
M  V30 2542 C 230.749 0.419503 1.8408 0
M  V30 2543 O 230.106 -0.605061 1.72178 0
M  V30 2544 C 230.157 2.84753 2.22706 0
M  V30 2545 O 229.878 4.08495 1.58314 0
M  V30 2546 C 231.379 3.14608 3.12309 0
M  V30 2547 H 228.599 0.571787 0.351142 0
M  V30 2548 H 231.143 1.98987 0.471652 0
M  V30 2549 H 229.298 2.58941 2.88147 0
M  V30 2550 H 229.712 4.72117 2.28485 0
M  V30 2551 H 231.186 3.97923 3.82572 0
M  V30 2552 H 231.663 2.28464 3.75101 0
M  V30 2553 H 232.269 3.42212 2.52529 0
M  V30 2554 N 230.584 -0.659388 1.43143 0
M  V30 2555 C 231.83 -1.41984 1.45644 0
M  V30 2556 C 232.185 -1.92245 0.0771718 0
M  V30 2557 O 231.478 -1.68976 -0.903205 0
M  V30 2558 C 231.672 -2.62206 2.42864 0
M  V30 2559 C 231.501 -2.23711 3.90107 0
M  V30 2560 C 230.271 -2.12332 4.58523 0
M  V30 2561 C 232.469 -1.84384 4.80112 0
M  V30 2562 N 230.451 -1.67102 5.9072 0
M  V30 2563 C 231.822 -1.5019 6.01534 0
M  V30 2564 C 233.877 -1.71512 4.67427 0
M  V30 2565 C 232.58 -1.04414 7.11681 0
M  V30 2566 C 234.606 -1.27142 5.77572 0
M  V30 2567 C 233.968 -0.938808 6.98116 0
M  V30 2568 H 230.067 -0.515448 0.588079 0
M  V30 2569 H 232.651 -0.759409 1.79279 0
M  V30 2570 H 230.822 -3.25917 2.11265 0
M  V30 2571 H 232.554 -3.28877 2.35843 0
M  V30 2572 H 229.309 -2.31893 4.12944 0
M  V30 2573 H 229.733 -1.46866 6.60878 0
M  V30 2574 H 234.375 -1.95868 3.74694 0
M  V30 2575 H 232.093 -0.788061 8.04248 0
M  V30 2576 H 235.679 -1.17681 5.69774 0
M  V30 2577 H 234.559 -0.6007 7.81896 0
M  V30 2578 N 232.062 -1.29571 -0.897171 0
M  V30 2579 C 233.287 -1.20705 -1.68656 0
M  V30 2580 C 233.712 0.228582 -1.86706 0
M  V30 2581 O 233.07 1.16494 -1.3892 0
M  V30 2582 C 233.118 -1.9282 -3.04717 0
M  V30 2583 O 232.222 -1.24697 -3.93096 0
M  V30 2584 H 231.563 -0.418126 -0.515816 0
M  V30 2585 H 234.093 -1.71183 -1.12061 0
M  V30 2586 H 234.103 -2.01372 -3.54843 0
M  V30 2587 H 232.778 -2.97239 -2.90899 0
M  V30 2588 H 231.355 -1.2442 -3.51531 0
M  V30 2589 N 233.54 1.10788 -1.12088 0
M  V30 2590 C 234.951 1.64181 -0.88891 0
M  V30 2591 C 235.302 1.87508 0.577498 0
M  V30 2592 O 234.427 1.61434 1.44112 0
M  V30 2593 C 235.022 2.98257 -1.60712 0
M  V30 2594 C 233.581 3.4853 -1.42139 0
M  V30 2595 C 232.728 2.23208 -1.6454 0
M  V30 2596 H 235.679 0.943368 -1.27618 0
M  V30 2597 H 235.7 3.65552 -1.05604 0
M  V30 2598 H 235.212 2.81246 -2.67436 0
M  V30 2599 H 233.313 3.70692 -0.376552 0
M  V30 2600 H 233.426 4.26882 -2.17505 0
M  V30 2601 H 231.79 2.31169 -1.06925 0
M  V30 2602 H 232.573 2.08733 -2.72554 0
M  V30 2603 N 235.018 0.912232 1.28515 0
M  V30 2604 C 236.264 0.545405 1.95328 0
M  V30 2605 C 236.597 -0.908313 1.71649 0
M  V30 2606 O 235.872 -1.64575 1.03659 0
M  V30 2607 C 236.155 0.853483 3.4984 0
M  V30 2608 C 236.008 2.35982 3.82926 0
M  V30 2609 C 237.327 0.348589 4.38717 0
M  V30 2610 H 234.446 0.199626 0.709449 0
M  V30 2611 H 237.088 1.1412 1.5191 0
M  V30 2612 H 235.238 0.34643 3.86952 0
M  V30 2613 H 236.91 2.93738 3.55691 0
M  V30 2614 H 235.153 2.81543 3.30024 0
M  V30 2615 H 235.824 2.52593 4.90816 0
M  V30 2616 H 238.3 0.78294 4.08668 0
M  V30 2617 H 237.176 0.593242 5.45685 0
M  V30 2618 H 237.437 -0.751049 4.35674 0
M  V30 2619 N 236.496 -1.42363 0.676048 0
M  V30 2620 C 237.744 -2.01123 0.198437 0
M  V30 2621 C 238.065 -1.53731 -1.19966 0
M  V30 2622 O 237.335 -0.759518 -1.80577 0
M  V30 2623 H 235.915 -0.743678 0.0703721 0
M  V30 2624 H 238.577 -1.74263 0.872837 0
M  V30 2625 H 237.673 -3.11454 0.200686 0
M  V30 2626 N 237.974 -0.419461 -1.51915 0
M  V30 2627 C 238.924 0.418496 -2.24126 0
M  V30 2628 C 239.908 1.00495 -1.25656 0
M  V30 2629 O 241.1 0.926058 -1.50842 0
M  V30 2630 C 238.229 1.52899 -3.07371 0
M  V30 2631 C 237.315 0.952797 -4.13258 0
M  V30 2632 N 237.706 0.104175 -5.05693 0
M  V30 2633 C 236.004 1.22224 -4.28926 0
M  V30 2634 C 236.705 -0.21752 -5.81293 0
M  V30 2635 N 235.681 0.394293 -5.42168 0
M  V30 2636 H 239.483 -0.236048 -2.92951 0
M  V30 2637 H 236.997 -0.230481 -1.60756 0
M  V30 2638 H 238.994 2.14199 -3.57665 0
M  V30 2639 H 237.654 2.18605 -2.40088 0
M  V30 2640 H 238.665 -0.260924 -5.17242 0
M  V30 2641 H 235.342 1.87812 -3.72871 0
M  V30 2642 H 236.732 -0.906992 -6.6575 0
M  V30 2643 N 239.452 1.56882 -0.150215 0
M  V30 2644 C 240.399 2.16922 0.788244 0
M  V30 2645 C 241.369 1.10303 1.24187 0
M  V30 2646 O 242.554 1.38359 1.31383 0
M  V30 2647 C 239.694 2.79754 2.02068 0
M  V30 2648 C 238.807 4.00775 1.61257 0
M  V30 2649 C 237.942 4.51595 2.79705 0
M  V30 2650 C 236.981 5.65074 2.35282 0
M  V30 2651 N 236.118 6.10499 3.4675 0
M  V30 2652 H 240.958 2.96779 0.269444 0
M  V30 2653 H 238.495 1.46599 0.12128 0
M  V30 2654 H 240.453 3.14329 2.74323 0
M  V30 2655 H 239.083 2.02536 2.51354 0
M  V30 2656 H 238.135 3.72158 0.787553 0
M  V30 2657 H 239.447 4.82978 1.24633 0
M  V30 2658 H 238.601 4.88242 3.60145 0
M  V30 2659 H 237.34 3.68406 3.19576 0
M  V30 2660 H 236.345 5.28 1.53283 0
M  V30 2661 H 237.57 6.50052 1.96493 0
M  V30 2662 H 235.516 5.30243 3.86236 0
M  V30 2663 H 235.433 6.87637 3.14152 0
M  V30 2664 H 236.701 6.51791 4.27537 0
M  V30 2665 N 240.93 -0.123565 1.57115 0
M  V30 2666 C 241.86 -1.15309 2.03042 0
M  V30 2667 C 242.841 -1.43454 0.914061 0
M  V30 2668 O 244.026 -1.53973 1.18347 0
M  V30 2669 C 241.156 -2.48043 2.43089 0
M  V30 2670 C 240.11 -2.3437 3.58127 0
M  V30 2671 C 239.436 -3.72026 3.84059 0
M  V30 2672 C 240.736 -1.80804 4.90007 0
M  V30 2673 H 242.43 -0.771102 2.893 0
M  V30 2674 H 239.976 -0.369479 1.39179 0
M  V30 2675 H 241.929 -3.20311 2.73823 0
M  V30 2676 H 240.653 -2.88122 1.53796 0
M  V30 2677 H 239.312 -1.64551 3.27595 0
M  V30 2678 H 238.96 -4.09582 2.91979 0
M  V30 2679 H 238.66 -3.63732 4.6149 0
M  V30 2680 H 240.184 -4.45806 4.1724 0
M  V30 2681 H 241.598 -2.42886 5.19307 0
M  V30 2682 H 239.995 -1.83343 5.71407 0
M  V30 2683 H 241.065 -0.76528 4.78823 0
M  V30 2684 N 242.408 -1.52605 -0.393616 0
M  V30 2685 C 243.371 -1.76415 -1.46323 0
M  V30 2686 C 244.371 -0.634126 -1.47768 0
M  V30 2687 O 245.561 -0.902142 -1.4902 0
M  V30 2688 C 242.693 -1.8607 -2.85641 0
M  V30 2689 H 243.886 -2.71916 -1.26498 0
M  V30 2690 H 241.439 -1.43257 -0.625073 0
M  V30 2691 H 242.174 -0.925378 -3.10817 0
M  V30 2692 H 241.959 -2.68235 -2.85993 0
M  V30 2693 H 243.449 -2.06179 -3.63153 0
M  V30 2694 N 243.887 0.651787 -1.4349 0
M  V30 2695 C 245.117 1.43728 -1.48411 0
M  V30 2696 C 245.525 1.8893 -0.10103 0
M  V30 2697 O 244.868 1.60182 0.899307 0
M  V30 2698 C 244.93 2.70411 -2.36893 0
M  V30 2699 C 244.594 2.4714 -3.8441 0
M  V30 2700 C 245.591 2.10271 -4.75481 0
M  V30 2701 C 243.276 2.6142 -4.28912 0
M  V30 2702 C 245.27 1.87982 -6.0905 0
M  V30 2703 C 242.957 2.38746 -5.62533 0
M  V30 2704 C 243.955 2.02083 -6.5242 0
M  V30 2705 O 243.643 1.79647 -7.8357 0
M  V30 2706 H 243.375 0.447962 -0.506267 0
M  V30 2707 H 245.929 0.80624 -1.88915 0
M  V30 2708 H 244.159 3.36079 -1.91278 0
M  V30 2709 H 245.848 3.32364 -2.33 0
M  V30 2710 H 246.614 1.98814 -4.42378 0
M  V30 2711 H 242.493 2.88931 -3.59222 0
M  V30 2712 H 246.037 1.5929 -6.7917 0
M  V30 2713 H 241.934 2.49806 -5.95203 0
M  V30 2714 H 242.702 1.9406 -7.95162 0
M  V30 2715 N 245.365 1.30045 0.890287 0
M  V30 2716 C 246.611 1.18737 1.64406 0
M  V30 2717 C 246.944 -0.258525 1.92472 0
M  V30 2718 O 246.219 -1.18562 1.54186 0
M  V30 2719 C 246.502 2.01087 2.98724 0
M  V30 2720 C 246.355 3.53867 2.77665 0
M  V30 2721 C 247.674 1.84457 3.9958 0
M  V30 2722 H 244.793 0.432698 0.596608 0
M  V30 2723 H 247.435 1.5962 1.0306 0
M  V30 2724 H 245.585 1.66349 3.51084 0
M  V30 2725 H 247.257 3.98637 2.32133 0
M  V30 2726 H 245.5 3.78318 2.12269 0
M  V30 2727 H 246.171 4.06772 3.7315 0
M  V30 2728 H 248.647 2.14817 3.56361 0
M  V30 2729 H 247.523 2.44411 4.91482 0
M  V30 2730 H 247.784 0.802276 4.3476 0
M  V30 2731 N 246.843 -1.10192 1.12674 0
M  V30 2732 C 248.089 -1.82658 0.894847 0
M  V30 2733 C 248.444 -1.83666 -0.573107 0
M  V30 2734 O 247.737 -1.28816 -1.41835 0
M  V30 2735 C 247.931 -3.28552 1.4067 0
M  V30 2736 C 247.76 -3.41756 2.92289 0
M  V30 2737 C 246.53 -3.54021 3.60551 0
M  V30 2738 C 248.728 -3.34949 3.90274 0
M  V30 2739 N 246.71 -3.55827 5.0026 0
M  V30 2740 C 248.081 -3.43531 5.16127 0
M  V30 2741 C 250.136 -3.18565 3.8265 0
M  V30 2742 C 248.839 -3.37416 6.3525 0
M  V30 2743 C 250.865 -3.13772 5.01299 0
M  V30 2744 C 250.227 -3.22938 6.26012 0
M  V30 2745 H 246.326 -0.683044 0.380756 0
M  V30 2746 H 248.91 -1.31752 1.43351 0
M  V30 2747 H 247.081 -3.77946 0.895055 0
M  V30 2748 H 248.813 -3.88991 1.11661 0
M  V30 2749 H 245.568 -3.57135 3.1105 0
M  V30 2750 H 245.992 -3.60335 5.73138 0
M  V30 2751 H 250.634 -3.10354 2.87124 0
M  V30 2752 H 248.352 -3.44391 7.3104 0
M  V30 2753 H 251.938 -3.02242 4.97133 0
M  V30 2754 H 250.818 -3.19235 7.16281 0
M  V30 2755 N 248.321 -0.919034 -1.28029 0
M  V30 2756 C 249.269 -0.401753 -2.29104 0
M  V30 2757 C 250.263 0.509354 -1.61561 0
M  V30 2758 O 251.469 0.390014 -1.75724 0
M  V30 2759 H 247.844 -0.111331 -0.743713 0
M  V30 2760 H 249.815 -1.2672 -2.70156 0
M  V30 2761 C 248.564 0.338148 -3.46052 0
M  V30 2762 H 247.887 -0.353732 -3.98232 0
M  V30 2763 H 249.327 0.664653 -4.18758 0
M  V30 2764 C 247.786 1.54798 -2.99231 0
M  V30 2765 O 248.316 2.64696 -3.02157 0
M  V30 2766 N 246.522 1.3968 -2.54829 0
M  V30 2767 H 246.069 0.502698 -2.52647 0
M  V30 2768 H 246.027 2.20755 -2.23863 0
M  V30 2769 N 249.799 1.42003 -0.683588 0
M  V30 2770 C 250.747 2.326 0.000815408 0
M  V30 2771 C 251.741 1.50308 0.781278 0
M  V30 2772 O 252.947 1.66322 0.688251 0
M  V30 2773 H 249.322 0.751758 0.0190616 0
M  V30 2774 H 251.293 2.88011 -0.780528 0
M  V30 2775 C 250.042 3.34978 0.93195 0
M  V30 2776 H 249.365 3.98345 0.340817 0
M  V30 2777 H 250.805 4.00936 1.37936 0
M  V30 2778 C 249.264 2.67925 2.04249 0
M  V30 2779 O 249.794 2.51788 3.12995 0
M  V30 2780 N 248 2.2681 1.81675 0
M  V30 2781 H 247.547 2.40135 0.932363 0
M  V30 2782 H 247.505 1.8228 2.56167 0
M  V30 2783 N 251.277 0.427512 1.51691 0
M  V30 2784 C 252.554 -0.201684 1.94557 0
M  V30 2785 C 252.934 -1.60981 1.36559 0
M  V30 2786 O 252.282 -2.21814 0.548702 0
M  V30 2787 C 252.492 -0.189394 3.48486 0
M  V30 2788 C 253.84 -0.39978 4.22714 0
M  V30 2789 O 254.864 -0.267945 3.55191 0
M  V30 2790 O 253.723 -0.661249 5.42485 0
M  V30 2791 H 250.817 -0.135261 0.815864 0
M  V30 2792 H 253.363 0.484782 1.62628 0
M  V30 2793 H 252.135 0.795431 3.8313 0
M  V30 2794 H 251.758 -0.919187 3.86829 0
M  V30 2795 N 252.755 -1.56801 0.158532 0
M  V30 2796 C 254.004 -1.95665 -0.489702 0
M  V30 2797 C 254.317 -1.04654 -1.65248 0
M  V30 2798 O 255.523 -1.33146 -2.3661 0
M  V30 2799 C 253.979 -3.47874 -0.922582 0
M  V30 2800 C 253.587 -4.47489 0.213893 0
M  V30 2801 C 255.331 -3.95583 -1.53996 0
M  V30 2802 C 253.238 -5.90921 -0.237903 0
M  V30 2803 H 252.168 -0.730516 -0.186716 0
M  V30 2804 H 254.819 -1.81861 0.244722 0
M  V30 2805 H 253.201 -3.57051 -1.71261 0
M  V30 2806 H 254.375 -4.50017 0.991036 0
M  V30 2807 H 252.69 -4.09764 0.740407 0
M  V30 2808 H 255.287 -5.0019 -1.8898 0
M  V30 2809 H 255.63 -3.37789 -2.43319 0
M  V30 2810 H 256.163 -3.8937 -0.814611 0
M  V30 2811 H 252.902 -6.52559 0.620236 0
M  V30 2812 H 252.422 -5.91729 -0.980676 0
M  V30 2813 H 254.101 -6.43352 -0.686067 0
M  V30 2814 N 254.233 0.115231 -1.57178 0
M  V30 2815 C 255.463 0.835224 -1.88964 0
M  V30 2816 C 255.871 1.73774 -0.74829 0
M  V30 2817 O 255.214 1.81401 0.289739 0
M  V30 2818 C 255.276 1.7178 -3.15804 0
M  V30 2819 C 254.94 0.989198 -4.46166 0
M  V30 2820 C 255.937 0.328263 -5.18863 0
M  V30 2821 C 253.622 0.969256 -4.9286 0
M  V30 2822 C 255.616 -0.342873 -6.36477 0
M  V30 2823 C 253.303 0.294324 -6.10391 0
M  V30 2824 C 254.301 -0.360582 -6.82048 0
M  V30 2825 O 253.989 -1.02474 -7.97342 0
M  V30 2826 H 253.721 0.245197 -0.629964 0
M  V30 2827 H 256.275 0.10303 -2.05141 0
M  V30 2828 H 254.505 2.49173 -2.95719 0
M  V30 2829 H 256.194 2.31255 -3.33581 0
M  V30 2830 H 256.96 0.335263 -4.8384 0
M  V30 2831 H 252.839 1.46844 -4.36987 0
M  V30 2832 H 256.383 -0.854629 -6.92345 0
M  V30 2833 H 252.28 0.285099 -6.4487 0
M  V30 2834 H 253.048 -0.929594 -8.13204 0
M  V30 2835 N 255.711 1.52812 0.385517 0
M  V30 2836 C 256.957 1.68275 1.13188 0
M  V30 2837 C 257.29 0.423179 1.89533 0
M  V30 2838 O 256.565 -0.579113 1.85679 0
M  V30 2839 C 256.848 2.92001 2.1073 0
M  V30 2840 C 256.701 4.28067 1.38125 0
M  V30 2841 C 258.02 3.11283 3.11113 0
M  V30 2842 H 255.139 0.612352 0.410115 0
M  V30 2843 H 257.781 1.85415 0.414869 0
M  V30 2844 H 255.931 2.77519 2.71874 0
M  V30 2845 H 257.603 4.54324 0.799187 0
M  V30 2846 H 255.846 4.28388 0.683092 0
M  V30 2847 H 256.517 5.10733 2.09417 0
M  V30 2848 H 258.993 3.2482 2.6006 0
M  V30 2849 H 257.869 3.99325 3.76605 0
M  V30 2850 H 258.13 2.25656 3.80173 0
M  V30 2851 N 257.189 -0.644168 1.43834 0
M  V30 2852 C 258.136 -1.75671 1.49694 0
M  V30 2853 C 259.106 -1.6246 0.345809 0
M  V30 2854 O 260.291 -1.82573 0.554234 0
M  V30 2855 C 257.431 -3.13867 1.43463 0
M  V30 2856 C 256.544 -3.38147 2.6885 0
M  V30 2857 C 255.679 -4.66241 2.54544 0
M  V30 2858 C 254.718 -4.83657 3.75157 0
M  V30 2859 N 253.855 -6.03016 3.59605 0
M  V30 2860 H 258.695 -1.69998 2.44754 0
M  V30 2861 H 256.232 -0.829458 1.21484 0
M  V30 2862 H 258.19 -3.9377 1.37843 0
M  V30 2863 H 256.82 -3.18588 0.519783 0
M  V30 2864 H 255.872 -2.52276 2.84712 0
M  V30 2865 H 257.184 -3.46899 3.58417 0
M  V30 2866 H 256.338 -5.54285 2.46683 0
M  V30 2867 H 255.077 -4.59826 1.62516 0
M  V30 2868 H 254.082 -3.94046 3.83416 0
M  V30 2869 H 255.307 -4.91896 4.68204 0
M  V30 2870 H 253.253 -5.97715 2.7032 0
M  V30 2871 H 253.17 -6.12766 4.42779 0
M  V30 2872 H 254.438 -6.93657 3.55613 0
M  V30 2873 N 258.668 -1.30515 -0.883378 0
M  V30 2874 C 259.917 -1.18795 -1.63005 0
M  V30 2875 C 260.23 0.255923 -1.93919 0
M  V30 2876 O 261.436 0.494654 -2.66956 0
M  V30 2877 C 259.892 -2.07878 -2.93794 0
M  V30 2878 C 259.5 -3.57184 -2.70414 0
M  V30 2879 C 261.244 -2.04924 -3.71761 0
M  V30 2880 C 259.151 -4.38317 -3.97029 0
M  V30 2881 H 258.081 -0.441031 -0.611562 0
M  V30 2882 H 260.732 -1.55275 -0.977854 0
M  V30 2883 H 259.114 -1.64283 -3.60315 0
M  V30 2884 H 260.288 -4.08937 -2.12384 0
M  V30 2885 H 258.603 -3.61976 -2.0582 0
M  V30 2886 H 261.2 -2.62792 -4.65665 0
M  V30 2887 H 261.543 -1.0331 -4.03277 0
M  V30 2888 H 262.076 -2.46649 -3.12104 0
M  V30 2889 H 258.815 -5.40632 -3.70671 0
M  V30 2890 H 258.335 -3.91326 -4.54559 0
M  V30 2891 H 260.014 -4.49834 -4.65036 0
M  V30 2892 N 260.146 1.09593 -1.13257 0
M  V30 2893 C 261.056 2.19739 -0.821691 0
M  V30 2894 C 262.072 1.72926 0.19302 0
M  V30 2895 O 263.248 2.01385 0.0244895 0
M  V30 2896 C 260.313 3.45482 -0.290333 0
M  V30 2897 C 259.374 4.06985 -1.36607 0
M  V30 2898 C 258.607 5.26726 -0.859975 0
M  V30 2899 O 258.83 5.69594 0.303082 0
M  V30 2900 O 257.764 5.7931 -1.63351 0
M  V30 2901 H 261.59 2.48781 -1.74189 0
M  V30 2902 H 259.175 1.18496 -0.909894 0
M  V30 2903 H 261.057 4.214 0.000674022 0
M  V30 2904 H 259.732 3.18047 0.602306 0
M  V30 2905 H 258.639 3.32712 -1.71037 0
M  V30 2906 H 259.972 4.38643 -2.23279 0
M  V30 2907 N 261.624 0.925811 1.2754 0
M  V30 2908 C 263.035 0.610102 1.7645 0
M  V30 2909 C 263.386 -0.874723 1.75622 0
M  V30 2910 O 262.511 -1.68444 1.35851 0
M  V30 2911 C 263.106 1.10073 3.20421 0
M  V30 2912 C 261.665 0.835723 3.67005 0
M  V30 2913 C 260.812 1.26054 2.46993 0
M  V30 2914 H 263.763 1.10579 1.13833 0
M  V30 2915 H 263.784 0.447557 3.77859 0
M  V30 2916 H 263.296 2.18143 3.20991 0
M  V30 2917 H 261.397 -0.231249 3.71882 0
M  V30 2918 H 261.51 1.45193 4.56569 0
M  V30 2919 H 259.874 0.679111 2.45479 0
M  V30 2920 H 260.657 2.34984 2.50275 0
M  V30 2921 N 263.102 -1.41638 0.69111 0
M  V30 2922 C 264.05 -2.32597 0.0115199 0
M  V30 2923 C 265.044 -1.5072 -0.773296 0
M  V30 2924 O 266.25 -1.66685 -0.67942 0
M  V30 2925 H 262.625 -0.751849 -0.0150746 0
M  V30 2926 H 264.596 -2.87593 0.795791 0
M  V30 2927 C 263.345 -3.35467 -0.914172 0
M  V30 2928 H 262.668 -3.9852 -0.319687 0
M  V30 2929 H 264.108 -4.01662 -1.35808 0
M  V30 2930 C 262.567 -2.69004 -2.02826 0
M  V30 2931 O 263.097 -2.53444 -3.11655 0
M  V30 2932 N 261.303 -2.2777 -1.80469 0
M  V30 2933 H 260.85 -2.40626 -0.919615 0
M  V30 2934 H 260.808 -1.83635 -2.55197 0
M  V30 2935 N 264.58 -0.43555 -1.51462 0
M  V30 2936 C 265.51 0.367376 -2.30592 0
M  V30 2937 C 266.491 1.02263 -1.35928 0
M  V30 2938 O 267.676 1.02661 -1.64847 0
M  V30 2939 C 264.806 1.46983 -3.14664 0
M  V30 2940 C 263.76 0.938161 -4.17591 0
M  V30 2941 C 263.086 2.13622 -4.90173 0
M  V30 2942 C 264.386 -0.0261621 -5.22293 0
M  V30 2943 H 266.08 -0.292969 -2.97963 0
M  V30 2944 H 263.626 -0.14234 -1.43295 0
M  V30 2945 H 265.579 2.03873 -3.688 0
M  V30 2946 H 264.303 2.15843 -2.4511 0
M  V30 2947 H 262.962 0.391481 -3.64504 0
M  V30 2948 H 262.61 2.81098 -4.17124 0
M  V30 2949 H 262.31 1.78688 -5.59772 0
M  V30 2950 H 263.834 2.7107 -5.47132 0
M  V30 2951 H 265.248 0.452384 -5.71512 0
M  V30 2952 H 263.645 -0.287992 -5.99409 0
M  V30 2953 H 264.715 -0.963391 -4.75233 0
M  V30 2954 N 266.058 1.56714 -0.166846 0
M  V30 2955 C 267.469 1.83378 0.350646 0
M  V30 2956 C 267.82 1.08646 1.63372 0
M  V30 2957 O 266.945 0.338058 2.13743 0
M  V30 2958 C 267.54 3.32643 0.642963 0
M  V30 2959 C 266.099 3.59818 1.10491 0
M  V30 2960 C 265.246 2.76954 0.138411 0
M  V30 2961 H 268.197 1.53803 -0.391193 0
M  V30 2962 H 268.218 3.49878 1.49551 0
M  V30 2963 H 267.73 3.87007 -0.291055 0
M  V30 2964 H 265.831 3.1086 2.05418 0
M  V30 2965 H 265.944 4.68178 1.01716 0
M  V30 2966 H 264.308 2.4666 0.634911 0
M  V30 2967 H 265.091 3.34097 -0.789549 0
M  V30 2968 N 267.536 -0.106894 1.57237 0
M  V30 2969 C 268.761 -0.830287 1.90055 0
M  V30 2970 C 269.186 -1.72064 0.75998 0
M  V30 2971 O 268.544 -1.78982 -0.288991 0
M  V30 2972 C 268.592 -1.6295 3.21683 0
M  V30 2973 O 267.696 -2.73748 3.08441 0
M  V30 2974 H 267.037 -0.228855 0.623315 0
M  V30 2975 H 269.567 -0.085658 2.04421 0
M  V30 2976 H 269.577 -2.01621 3.54701 0
M  V30 2977 H 268.252 -0.975989 4.04286 0
M  V30 2978 H 266.829 -2.38192 2.86913 0
M  V30 2979 N 269.014 -1.53014 -0.377408 0
M  V30 2980 C 270.244 -1.72265 -1.14054 0
M  V30 2981 C 270.652 -0.44601 -1.83868 0
M  V30 2982 O 269.995 0.590095 -1.73964 0
M  V30 2983 C 270.057 -2.82492 -2.22348 0
M  V30 2984 C 269.721 -4.23233 -1.72402 0
M  V30 2985 C 270.718 -5.05992 -1.19448 0
M  V30 2986 C 268.403 -4.696 -1.78273 0
M  V30 2987 C 270.397 -6.33203 -0.730268 0
M  V30 2988 C 268.084 -5.96792 -1.31464 0
M  V30 2989 C 269.082 -6.78424 -0.789297 0
M  V30 2990 O 268.77 -8.0323 -0.328077 0
M  V30 2991 H 268.502 -0.579873 -0.347453 0
M  V30 2992 H 271.056 -2.00502 -0.445882 0
M  V30 2993 H 269.286 -2.49702 -2.95272 0
M  V30 2994 H 270.975 -2.90034 -2.83963 0
M  V30 2995 H 271.741 -4.71349 -1.14259 0
M  V30 2996 H 267.62 -4.06142 -2.18106 0
M  V30 2997 H 271.164 -6.96868 -0.319542 0
M  V30 2998 H 267.061 -6.30937 -1.36342 0
M  V30 2999 H 267.829 -8.1727 -0.448493 0
M  V30 3000 N 270.492 0.636531 -1.44174 0
M  V30 3001 C 271.908 0.954104 -1.27941 0
M  V30 3002 C 272.108 2.0039 -0.211248 0
M  V30 3003 O 271.164 2.49236 0.404695 0
M  V30 3004 C 272.477 1.4225 -2.64925 0
M  V30 3005 C 274.025 1.53827 -2.72592 0
M  V30 3006 C 274.5 2.04053 -4.10032 0
M  V30 3007 N 275.991 2.11331 -4.12182 0
M  V30 3008 C 276.726 2.51352 -5.15374 0
M  V30 3009 N 276.222 2.90549 -6.2893 0
M  V30 3010 N 278.015 2.51438 -5.02728 0
M  V30 3011 H 270.166 -0.0578386 -2.12321 0
M  V30 3012 H 272.429 0.0367406 -0.947288 0
M  V30 3013 H 272.135 0.725466 -3.44136 0
M  V30 3014 H 272.009 2.39451 -2.9145 0
M  V30 3015 H 274.396 2.22628 -1.93702 0
M  V30 3016 H 274.477 0.550154 -2.49814 0
M  V30 3017 H 274.121 1.35848 -4.89395 0
M  V30 3018 H 274.051 3.03726 -4.30184 0
M  V30 3019 H 276.542 1.83745 -3.30222 0
M  V30 3020 H 276.855 3.19884 -7.03487 0
M  V30 3021 H 275.2 2.88313 -6.32377 0
M  V30 3022 H 278.391 2.20203 -4.13072 0
M  V30 3023 H 278.564 2.82304 -5.83274 0
M  V30 3024 N 271.97 1.30982 0.876444 0
M  V30 3025 C 273.219 1.19658 1.62373 0
M  V30 3026 C 273.532 -0.245636 1.94052 0
M  V30 3027 O 274.738 -0.48049 2.67214 0
M  V30 3028 C 273.194 2.09433 2.92687 0
M  V30 3029 C 272.802 3.58613 2.68516 0
M  V30 3030 C 274.546 2.06893 3.70669 0
M  V30 3031 C 272.453 4.40416 3.94699 0
M  V30 3032 H 271.383 0.444268 0.609214 0
M  V30 3033 H 274.034 1.55791 0.969605 0
M  V30 3034 H 272.416 1.66191 3.59439 0
M  V30 3035 H 273.59 4.10058 2.10212 0
M  V30 3036 H 271.905 3.63063 2.03898 0
M  V30 3037 H 274.502 2.65258 4.64265 0
M  V30 3038 H 274.845 1.05448 4.02724 0
M  V30 3039 H 275.378 2.48301 3.10792 0
M  V30 3040 H 272.117 5.42591 3.67798 0
M  V30 3041 H 271.637 3.93731 4.52477 0
M  V30 3042 H 273.316 4.52294 4.62644 0
M  V30 3043 N 273.449 -1.08991 1.13837 0
M  V30 3044 C 274.677 -1.85011 0.926202 0
M  V30 3045 C 275.092 -1.8135 -0.525127 0
M  V30 3046 O 274.449 -1.21287 -1.36366 0
M  V30 3047 C 274.5 -3.32802 1.41155 0
M  V30 3048 O 274.221 -3.36444 2.80601 0
M  V30 3049 C 275.722 -4.25649 1.23847 0
M  V30 3050 H 272.942 -0.584249 0.32999 0
M  V30 3051 H 275.486 -1.37688 1.51202 0
M  V30 3052 H 273.641 -3.77536 0.868631 0
M  V30 3053 H 274.055 -4.28657 3.02248 0
M  V30 3054 H 275.529 -5.27485 1.62675 0
M  V30 3055 H 276.006 -4.38828 0.18065 0
M  V30 3056 H 276.612 -3.86735 1.76964 0
M  V30 3057 N 274.927 -0.932562 -1.27047 0
M  V30 3058 C 276.173 -0.585913 -1.94778 0
M  V30 3059 C 276.528 0.864142 -1.71902 0
M  V30 3060 O 275.821 1.60894 -1.04037 0
M  V30 3061 C 276.015 -0.853713 -3.47054 0
M  V30 3062 C 275.844 -2.32825 -3.84737 0
M  V30 3063 C 274.614 -2.98184 -4.07939 0
M  V30 3064 C 276.812 -3.30612 -3.93954 0
M  V30 3065 N 274.794 -4.3574 -4.3244 0
M  V30 3066 C 276.165 -4.53395 -4.22887 0
M  V30 3067 C 278.22 -3.25755 -3.76548 0
M  V30 3068 C 276.923 -5.71927 -4.36224 0
M  V30 3069 C 278.949 -4.43604 -3.91113 0
M  V30 3070 C 278.311 -5.65166 -4.20437 0
M  V30 3071 H 274.41 -0.264617 -0.735868 0
M  V30 3072 H 276.994 -1.20019 -1.53309 0
M  V30 3073 H 275.165 -0.268557 -3.8747 0
M  V30 3074 H 276.897 -0.469202 -4.01971 0
M  V30 3075 H 273.652 -2.48835 -4.02961 0
M  V30 3076 H 274.076 -5.06915 -4.48738 0
M  V30 3077 H 278.718 -2.32835 -3.52913 0
M  V30 3078 H 276.436 -6.65308 -4.58683 0
M  V30 3079 H 280.022 -4.41368 -3.79059 0
M  V30 3080 H 278.902 -6.54836 -4.31462 0
M  V30 3081 N 276.405 1.4127 -0.698611 0
M  V30 3082 C 277.633 2.05503 -0.239992 0
M  V30 3083 C 278.048 1.52584 1.11191 0
M  V30 3084 O 277.405 0.675323 1.69545 0
M  V30 3085 C 277.456 3.60987 -0.192429 0
M  V30 3086 O 277.177 4.1195 -1.49094 0
M  V30 3087 C 278.678 4.42371 0.28681 0
M  V30 3088 H 275.898 0.661748 -0.111045 0
M  V30 3089 H 278.442 1.80987 -0.95205 0
M  V30 3090 H 276.597 3.84533 0.470472 0
M  V30 3091 H 277.011 5.06018 -1.38007 0
M  V30 3092 H 278.485 5.51344 0.26896 0
M  V30 3093 H 278.962 4.18699 1.32619 0
M  V30 3094 H 279.568 4.23897 -0.345201 0
M  V30 3095 N 277.883 0.443576 1.51229 0
M  V30 3096 C 279.131 -0.120557 2.0174 0
M  V30 3097 C 279.452 -1.42665 1.32935 0
M  V30 3098 O 278.722 -1.9028 0.465866 0
M  V30 3099 H 277.302 -0.0475426 0.745486 0
M  V30 3100 H 279.964 0.587711 1.85828 0
M  V30 3101 H 279.06 -0.291972 3.10731 0
M  V30 3102 N 279.361 -1.56624 0.175154 0
M  V30 3103 C 280.308 -2.18149 -0.753634 0
M  V30 3104 C 281.278 -1.12265 -1.22417 0
M  V30 3105 O 282.463 -1.40432 -1.29165 0
M  V30 3106 C 279.603 -2.82933 -1.97592 0
M  V30 3107 C 278.716 -4.03289 -1.5486 0
M  V30 3108 C 277.851 -4.55988 -2.72485 0
M  V30 3109 C 276.89 -5.68746 -2.26262 0
M  V30 3110 N 276.027 -6.15938 -3.36994 0
M  V30 3111 H 280.867 -2.9717 -0.222195 0
M  V30 3112 H 278.404 -1.46774 -0.0979422 0
M  V30 3113 H 280.362 -3.18653 -2.69288 0
M  V30 3114 H 278.992 -2.06509 -2.481 0
M  V30 3115 H 278.044 -3.73364 -0.728246 0
M  V30 3116 H 279.356 -4.849 -1.16933 0
M  V30 3117 H 278.51 -4.9391 -3.52332 0
M  V30 3118 H 277.249 -3.73443 -3.13674 0
M  V30 3119 H 276.254 -5.30372 -1.44863 0
M  V30 3120 H 277.479 -6.53095 -1.86127 0
M  V30 3121 H 275.425 -5.36321 -3.77751 0
M  V30 3122 H 275.342 -6.92548 -3.03172 0
M  V30 3123 H 276.61 -6.58511 -4.17114 0
M  V30 3124 N 280.839 0.0985539 -1.57292 0
M  V30 3125 C 281.749 1.13824 -2.05137 0
M  V30 3126 C 282.765 1.44076 -0.975604 0
M  V30 3127 O 283.941 1.54786 -1.28853 0
M  V30 3128 C 281.006 2.43969 -2.46333 0
M  V30 3129 C 280.067 2.2093 -3.68087 0
M  V30 3130 C 279.3 3.44869 -4.0731 0
M  V30 3131 O 279.523 4.52972 -3.46659 0
M  V30 3132 O 278.457 3.34661 -5.00285 0
M  V30 3133 H 282.283 0.761881 -2.93988 0
M  V30 3134 H 279.868 0.310818 -1.46131 0
M  V30 3135 H 281.75 3.20609 -2.73473 0
M  V30 3136 H 280.425 2.81038 -1.60621 0
M  V30 3137 H 279.332 1.42081 -3.46069 0
M  V30 3138 H 280.665 1.88755 -4.54568 0
M  V30 3139 N 282.317 1.53212 0.369288 0
M  V30 3140 C 283.594 1.59815 1.12776 0
M  V30 3141 C 283.974 0.403402 2.0721 0
M  V30 3142 O 283.322 -0.606667 2.20299 0
M  V30 3143 C 283.532 2.94664 1.87013 0
M  V30 3144 C 284.88 3.49109 2.41677 0
M  V30 3145 O 285.904 2.96669 1.97144 0
M  V30 3146 O 284.763 4.40775 3.23079 0
M  V30 3147 H 281.857 0.645376 0.517125 0
M  V30 3148 H 284.403 1.65553 0.37285 0
M  V30 3149 H 283.175 3.73061 1.18071 0
M  V30 3150 H 282.798 2.92401 2.69421 0
M  V30 3151 N 283.795 -0.628877 1.44509 0
M  V30 3152 C 285.044 -1.38437 1.4669 0
M  V30 3153 C 285.357 -1.95322 0.104272 0
M  V30 3154 O 286.563 -2.715 0.00362163 0
M  V30 3155 C 285.019 -2.50659 2.5826 0
M  V30 3156 C 284.627 -2.00277 4.0074 0
M  V30 3157 C 286.371 -3.27844 2.69664 0
M  V30 3158 C 284.278 -3.09854 5.0373 0
M  V30 3159 H 283.208 -0.520245 0.545766 0
M  V30 3160 H 285.859 -0.676313 1.70582 0
M  V30 3161 H 284.241 -3.2405 2.27612 0
M  V30 3162 H 285.415 -1.33736 4.40966 0
M  V30 3163 H 283.73 -1.35901 3.93599 0
M  V30 3164 H 286.327 -4.09534 3.43781 0
M  V30 3165 H 286.67 -3.77471 1.75559 0
M  V30 3166 H 287.203 -2.61543 2.99733 0
M  V30 3167 H 283.942 -2.65168 5.99472 0
M  V30 3168 H 283.462 -3.7503 4.68095 0
M  V30 3169 H 285.141 -3.74592 5.27532 0
M  V30 3170 N 285.273 -1.31445 -0.869486 0
M  V30 3171 C 286.522 -1.20517 -1.61736 0
M  V30 3172 C 286.835 0.235341 -1.94179 0
M  V30 3173 O 288.041 0.466312 -2.67465 0
M  V30 3174 C 286.497 -2.10982 -2.91573 0
M  V30 3175 C 286.105 -3.60032 -2.66611 0
M  V30 3176 C 287.849 -2.08856 -3.69567 0
M  V30 3177 C 285.756 -4.42503 -3.92358 0
M  V30 3178 H 284.686 -0.447493 -0.606849 0
M  V30 3179 H 287.337 -1.56303 -0.96133 0
M  V30 3180 H 285.719 -1.68095 -3.58553 0
M  V30 3181 H 286.893 -4.11167 -2.08035 0
M  V30 3182 H 285.208 -3.64139 -2.0197 0
M  V30 3183 H 287.805 -2.67716 -4.62852 0
M  V30 3184 H 288.148 -1.07582 -4.02159 0
M  V30 3185 H 288.681 -2.49945 -3.09471 0
M  V30 3186 H 285.42 -5.44533 -3.64916 0
M  V30 3187 H 284.94 -3.96125 -4.50383 0
M  V30 3188 H 286.619 -4.54741 -4.60238 0
M  V30 3189 N 286.751 1.08385 -1.14413 0
M  V30 3190 C 287.981 1.8425 -0.934644 0
M  V30 3191 C 288.389 1.81907 0.520234 0
M  V30 3192 O 287.732 1.22126 1.37226 0
M  V30 3193 C 287.794 3.32853 -1.35828 0
M  V30 3194 C 287.458 3.5893 -2.82875 0
M  V30 3195 C 288.455 3.53756 -3.80989 0
M  V30 3196 C 286.14 3.86934 -3.20293 0
M  V30 3197 C 288.134 3.76216 -5.14529 0
M  V30 3198 C 285.821 4.09047 -4.54008 0
M  V30 3199 C 286.819 4.03682 -5.50936 0
M  V30 3200 O 286.507 4.25214 -6.82238 0
M  V30 3201 H 286.239 0.588502 -0.332628 0
M  V30 3202 H 288.793 1.37792 -1.52324 0
M  V30 3203 H 287.023 3.8007 -0.713019 0
M  V30 3204 H 288.712 3.90154 -1.11957 0
M  V30 3205 H 289.478 3.32135 -3.53428 0
M  V30 3206 H 285.357 3.9023 -2.45442 0
M  V30 3207 H 288.901 3.71943 -5.90173 0
M  V30 3208 H 284.798 4.30151 -4.8129 0
M  V30 3209 H 285.566 4.42619 -6.88499 0
M  V30 3210 N 288.23 0.939286 1.26551 0
M  V30 3211 C 289.178 0.43815 2.28436 0
M  V30 3212 C 290.172 -0.483587 1.62351 0
M  V30 3213 O 291.378 -0.362009 1.76322 0
M  V30 3214 H 287.753 0.123149 0.741848 0
M  V30 3215 H 289.724 1.31002 2.68106 0
M  V30 3216 C 288.473 -0.283052 3.46546 0
M  V30 3217 H 287.796 0.417043 3.97619 0
M  V30 3218 H 289.236 -0.597948 4.19763 0
M  V30 3219 C 287.695 -1.50018 3.01656 0
M  V30 3220 O 288.225 -2.59855 3.0633 0
M  V30 3221 N 286.431 -1.35608 2.57019 0
M  V30 3222 H 285.978 -0.46244 2.53415 0
M  V30 3223 H 285.936 -2.17165 2.27347 0
M  V30 3224 N 289.708 -1.40897 0.706093 0
M  V30 3225 C 290.956 -2.00657 0.241054 0
M  V30 3226 C 291.277 -1.56241 -1.16678 0
M  V30 3227 O 290.547 -0.79765 -1.78926 0
M  V30 3228 H 289.127 -0.742018 0.0861308 0
M  V30 3229 H 291.789 -1.72372 0.909604 0
M  V30 3230 H 290.885 -3.10958 0.266705 0
M  V30 3231 N 291.186 -0.45159 -1.50991 0
M  V30 3232 C 292.435 0.111653 -2.01391 0
M  V30 3233 C 292.748 1.42529 -1.33959 0
M  V30 3234 O 293.954 2.07232 -1.75405 0
M  V30 3235 C 292.41 0.249514 -3.59034 0
M  V30 3236 C 292.018 -1.05453 -4.35412 0
M  V30 3237 C 293.762 0.765762 -4.17536 0
M  V30 3238 C 291.669 -0.881529 -5.84793 0
M  V30 3239 H 290.599 0.0455022 -0.752626 0
M  V30 3240 H 293.25 -0.583524 -1.73975 0
M  V30 3241 H 291.632 1.00803 -3.82955 0
M  V30 3242 H 292.806 -1.82248 -4.23229 0
M  V30 3243 H 291.121 -1.50039 -3.88429 0
M  V30 3244 H 293.718 0.911913 -5.26866 0
M  V30 3245 H 294.061 1.75201 -3.77638 0
M  V30 3246 H 294.594 0.0651744 -3.97747 0
M  V30 3247 H 291.333 -1.84057 -6.29129 0
M  V30 3248 H 290.853 -0.153625 -5.99603 0
M  V30 3249 H 292.532 -0.540363 -6.4474 0
M  V30 3250 N 292.664 1.56529 -0.183458 0
M  V30 3251 C 293.892 2.01623 0.464285 0
M  V30 3252 C 294.307 1.06366 1.55986 0
M  V30 3253 O 293.664 0.0665398 1.82379 0
M  V30 3254 C 293.715 3.46475 1.03139 0
M  V30 3255 O 293.436 4.38095 -0.0204675 0
M  V30 3256 C 294.937 4.0703 1.75617 0
M  V30 3257 H 292.157 0.660596 0.117704 0
M  V30 3258 H 294.701 2.02451 -0.288751 0
M  V30 3259 H 292.856 3.46383 1.73486 0
M  V30 3260 H 293.27 5.22973 0.399952 0
M  V30 3261 H 294.744 5.10271 2.10542 0
M  V30 3262 H 295.221 3.49819 2.65563 0
M  V30 3263 H 295.827 4.1086 1.09882 0
M  V30 3264 N 294.142 -0.090211 1.57342 0
M  V30 3265 C 295.419 -0.824761 1.77361 0
M  V30 3266 C 295.799 -1.96698 0.76637 0
M  V30 3267 O 295.147 -2.27586 -0.204179 0
M  V30 3268 C 295.357 -1.31481 3.23286 0
M  V30 3269 C 296.705 -1.75563 3.86604 0
M  V30 3270 O 297.729 -1.41093 3.27065 0
M  V30 3271 O 296.588 -2.39317 4.91314 0
M  V30 3272 H 293.682 -0.393776 0.727234 0
M  V30 3273 H 296.228 -0.0717138 1.69548 0
M  V30 3274 H 295 -0.496671 3.88135 0
M  V30 3275 H 294.623 -2.12973 3.35751 0
M  V30 3276 N 295.62 -1.53406 -0.361157 0
M  V30 3277 C 296.866 -1.70999 -1.1014 0
M  V30 3278 C 297.221 -0.458425 -1.86859 0
M  V30 3279 O 296.514 0.548654 -1.83577 0
M  V30 3280 C 296.708 -2.90211 -2.08596 0
M  V30 3281 C 296.537 -4.26841 -1.41553 0
M  V30 3282 C 295.307 -4.91621 -1.16778 0
M  V30 3283 C 297.505 -5.07212 -0.850915 0
M  V30 3284 N 295.487 -6.12164 -0.461312 0
M  V30 3285 C 296.858 -6.19394 -0.274046 0
M  V30 3286 C 298.913 -4.92218 -0.750036 0
M  V30 3287 C 297.616 -7.18221 0.393868 0
M  V30 3288 C 299.642 -5.91322 -0.095894 0
M  V30 3289 C 299.004 -7.0283 0.470081 0
M  V30 3290 H 295.103 -0.678939 -0.388028 0
M  V30 3291 H 297.687 -1.90811 -0.38722 0
M  V30 3292 H 295.858 -2.71931 -2.77323 0
M  V30 3293 H 297.59 -2.96606 -2.7533 0
M  V30 3294 H 294.345 -4.50849 -1.45024 0
M  V30 3295 H 294.769 -6.76888 -0.123312 0
M  V30 3296 H 299.411 -4.06192 -1.17337 0
M  V30 3297 H 297.129 -8.03835 0.82914 0
M  V30 3298 H 300.715 -5.81797 -0.0187075 0
M  V30 3299 H 299.595 -7.782 0.968241 0
M  V30 3300 N 297.098 0.621204 -1.44841 0
M  V30 3301 C 298.344 1.3826 -1.48365 0
M  V30 3302 C 298.677 1.93831 -0.119624 0
M  V30 3303 O 297.952 1.74251 0.864111 0
M  V30 3304 C 298.235 2.54058 -2.55199 0
M  V30 3305 C 298.088 2.03772 -4.00995 0
M  V30 3306 C 299.407 3.56225 -2.58442 0
M  V30 3307 H 296.526 0.501374 -0.540179 0
M  V30 3308 H 299.168 0.7015 -1.76576 0
M  V30 3309 H 297.318 3.12162 -2.31274 0
M  V30 3310 H 298.99 1.50423 -4.36086 0
M  V30 3311 H 297.233 1.34876 -4.12299 0
M  V30 3312 H 297.904 2.87185 -4.71411 0
M  V30 3313 H 300.38 3.07939 -2.79844 0
M  V30 3314 H 299.256 4.34756 -3.3508 0
M  V30 3315 H 299.517 4.10949 -1.63013 0
M  V30 3316 N 298.576 1.31904 0.862503 0
M  V30 3317 C 299.806 1.24817 1.64634 0
M  V30 3318 C 300.214 -0.187579 1.88268 0
M  V30 3319 O 299.557 -1.13253 1.44635 0
M  V30 3320 C 299.619 1.92996 3.03303 0
M  V30 3321 C 299.283 3.42336 3.02746 0
M  V30 3322 C 300.28 4.37956 2.80162 0
M  V30 3323 C 297.965 3.84147 3.2363 0
M  V30 3324 C 299.959 5.73361 2.78453 0
M  V30 3325 C 297.646 5.19663 3.21549 0
M  V30 3326 C 298.644 6.14081 2.98988 0
M  V30 3327 O 298.332 7.47118 2.96766 0
M  V30 3328 H 298.064 0.432222 0.519769 0
M  V30 3329 H 300.618 1.7445 1.08427 0
M  V30 3330 H 298.848 1.37922 3.61268 0
M  V30 3331 H 300.537 1.79723 3.63943 0
M  V30 3332 H 301.303 4.06981 2.63802 0
M  V30 3333 H 297.182 3.11083 3.40218 0
M  V30 3334 H 300.726 6.4703 2.60763 0
M  V30 3335 H 296.623 5.5027 3.37451 0
M  V30 3336 H 297.391 7.56382 3.12775 0
M  V30 3337 N 300.054 -1.07777 1.14986 0
M  V30 3338 C 300.964 -2.18404 0.856546 0
M  V30 3339 C 301.98 -1.73211 -0.165485 0
M  V30 3340 O 303.156 -2.01399 0.00755219 0
M  V30 3341 C 300.221 -3.44977 0.34526 0
M  V30 3342 C 299.282 -4.0476 1.43065 0
M  V30 3343 C 298.515 -5.25291 0.943663 0
M  V30 3344 O 298.738 -5.70004 -0.212426 0
M  V30 3345 O 297.672 -5.76638 1.72547 0
M  V30 3346 H 301.498 -2.45978 1.78125 0
M  V30 3347 H 299.083 -1.17033 0.928631 0
M  V30 3348 H 300.965 -4.21348 0.0663671 0
M  V30 3349 H 299.64 -3.18965 -0.551631 0
M  V30 3350 H 298.547 -3.29949 1.76309 0
M  V30 3351 H 299.88 -4.35035 2.30229 0
M  V30 3352 N 301.532 -0.945985 -1.26051 0
M  V30 3353 C 302.442 -0.465633 -2.29933 0
M  V30 3354 C 303.458 0.462761 -1.67733 0
M  V30 3355 O 304.634 0.341118 -1.9849 0
M  V30 3356 C 301.699 0.256994 -3.45746 0
M  V30 3357 C 300.76 -0.708549 -4.23412 0
M  V30 3358 C 299.993 -0.0203135 -5.33696 0
M  V30 3359 O 300.216 1.19571 -5.57726 0
M  V30 3360 O 299.15 -0.701459 -5.97799 0
M  V30 3361 H 302.976 -1.32866 -2.73094 0
M  V30 3362 H 300.561 -0.712071 -1.31339 0
M  V30 3363 H 302.443 0.663852 -4.16138 0
M  V30 3364 H 301.118 1.09533 -3.04605 0
M  V30 3365 H 300.025 -1.16545 -3.55483 0
M  V30 3366 H 301.358 -1.51465 -4.68315 0
M  V30 3367 N 303.011 1.40521 -0.713556 0
M  V30 3368 C 303.921 2.34522 -0.0606667 0
M  V30 3369 C 304.937 1.57193 0.74607 0
M  V30 3370 O 306.113 1.89591 0.679493 0
M  V30 3371 C 303.178 3.36081 0.851491 0
M  V30 3372 C 302.239 4.29286 0.0349339 0
M  V30 3373 C 301.472 5.25994 0.903649 0
M  V30 3374 O 301.695 5.28616 2.14292 0
M  V30 3375 O 300.629 6.00918 0.343723 0
M  V30 3376 H 304.455 2.91968 -0.835972 0
M  V30 3377 H 302.04 1.41681 -0.47402 0
M  V30 3378 H 303.922 3.98369 1.37404 0
M  V30 3379 H 302.597 2.81052 1.60598 0
M  V30 3380 H 301.504 3.70289 -0.532633 0
M  V30 3381 H 302.837 4.87462 -0.681287 0
M  V30 3382 N 304.489 0.459591 1.5075 0
M  V30 3383 C 305.735 -0.0994966 2.02556 0
M  V30 3384 C 306.068 -1.40399 1.3417 0
M  V30 3385 O 305.343 -1.88892 0.463683 0
M  V30 3386 C 305.626 -0.295242 3.58888 0
M  V30 3387 C 305.479 1.02947 4.37861 0
M  V30 3388 C 306.798 -1.05502 4.27267 0
M  V30 3389 H 303.917 -0.034686 0.736183 0
M  V30 3390 H 306.559 0.602938 1.8018 0
M  V30 3391 H 304.709 -0.893563 3.78084 0
M  V30 3392 H 306.381 1.66348 4.30263 0
M  V30 3393 H 304.624 1.62885 4.02058 0
M  V30 3394 H 305.295 0.846281 5.45474 0
M  V30 3395 H 307.771 -0.547993 4.12476 0
M  V30 3396 H 306.647 -1.16077 5.36486 0
M  V30 3397 H 306.908 -2.08875 3.89645 0
M  V30 3398 N 305.967 -1.56429 0.191757 0
M  V30 3399 C 307.214 -1.97485 -0.447891 0
M  V30 3400 C 307.542 -1.07852 -1.61859 0
M  V30 3401 O 306.797 -0.116903 -1.95351 0
M  V30 3402 C 307.096 -3.44449 -0.953384 0
M  V30 3403 C 306.762 -4.50781 0.103586 0
M  V30 3404 C 305.424 -4.79584 0.394023 0
M  V30 3405 C 307.776 -5.1471 0.819946 0
M  V30 3406 C 305.104 -5.69607 1.40585 0
M  V30 3407 C 307.456 -6.05827 1.8209 0
M  V30 3408 C 306.12 -6.32987 2.11857 0
M  V30 3409 H 305.39 -0.722648 -0.163895 0
M  V30 3410 H 308.037 -1.89322 0.28802 0
M  V30 3411 H 306.342 -3.49666 -1.76751 0
M  V30 3412 H 308.039 -3.73569 -1.45765 0
M  V30 3413 H 304.629 -4.28394 -0.132951 0
M  V30 3414 H 308.813 -4.92552 0.608789 0
M  V30 3415 H 304.069 -5.88926 1.64243 0
M  V30 3416 H 308.243 -6.54424 2.38123 0
M  V30 3417 H 305.87 -7.02544 2.90407 0
M  V30 3418 N 307.445 0.0818655 -1.57387 0
M  V30 3419 C 308.67 0.799946 -1.91352 0
M  V30 3420 C 309.095 1.70833 -0.787258 0
M  V30 3421 O 308.453 1.79419 0.26048 0
M  V30 3422 C 308.501 1.57812 -3.24234 0
M  V30 3423 O 307.605 2.68806 -3.12757 0
M  V30 3424 H 306.946 0.21891 -0.626877 0
M  V30 3425 H 309.476 0.0531256 -2.04531 0
M  V30 3426 H 309.486 1.95952 -3.57864 0
M  V30 3427 H 308.161 0.911548 -4.05788 0
M  V30 3428 H 306.738 2.33597 -2.90666 0
M  V30 3429 N 308.923 1.53595 0.353017 0
M  V30 3430 C 309.886 1.80232 1.41594 0
M  V30 3431 C 310.886 0.673081 1.46035 0
M  V30 3432 O 312.076 0.941335 1.46576 0
M  V30 3433 C 309.208 1.93578 2.80607 0
M  V30 3434 H 310.401 2.75174 1.19244 0
M  V30 3435 H 307.954 1.44864 0.586872 0
M  V30 3436 H 308.689 1.00746 3.08254 0
M  V30 3437 H 308.474 2.75724 2.78781 0
M  V30 3438 H 309.964 2.15735 3.57558 0
M  V30 3439 N 310.401 -0.613514 1.45168 0
M  V30 3440 C 311.631 -1.39743 1.52169 0
M  V30 3441 C 312.039 -1.88596 0.151086 0
M  V30 3442 O 311.382 -1.6251 -0.856521 0
M  V30 3443 C 311.444 -2.64035 2.43979 0
M  V30 3444 C 311.108 -2.36861 3.90827 0
M  V30 3445 C 312.105 -1.97591 4.80889 0
M  V30 3446 C 309.79 -2.49956 4.35692 0
M  V30 3447 C 311.784 -1.71768 6.1382 0
M  V30 3448 C 309.471 -2.23747 5.68665 0
M  V30 3449 C 310.469 -1.84714 6.57548 0
M  V30 3450 O 310.157 -1.58809 7.88058 0
M  V30 3451 H 309.889 -0.434382 0.517966 0
M  V30 3452 H 312.443 -0.75587 1.90986 0
M  V30 3453 H 310.673 -3.3089 2.00122 0
M  V30 3454 H 312.362 -3.26069 2.41731 0
M  V30 3455 H 313.128 -1.87015 4.47493 0
M  V30 3456 H 309.007 -2.79305 3.66756 0
M  V30 3457 H 312.551 -1.41227 6.83155 0
M  V30 3458 H 308.448 -2.33938 6.01617 0
M  V30 3459 H 309.216 -1.7291 8.00028 0
M  V30 3460 N 311.879 -1.3236 -0.855495 0
M  V30 3461 C 313.104 -1.2601 -1.64731 0
M  V30 3462 C 313.529 0.169068 -1.87339 0
M  V30 3463 O 312.887 1.12016 -1.42556 0
M  V30 3464 C 312.935 -2.02417 -2.98429 0
M  V30 3465 O 312.039 -1.3714 -3.8893 0
M  V30 3466 H 311.38 -0.434325 -0.502253 0
M  V30 3467 H 313.91 -1.74661 -1.06558 0
M  V30 3468 H 313.92 -2.12559 -3.48257 0
M  V30 3469 H 312.595 -3.06343 -2.81295 0
M  V30 3470 H 311.172 -1.3554 -3.47395 0
M  V30 3471 N 313.357 1.07166 -1.15556 0
M  V30 3472 C 314.32 2.12589 -0.856644 0
M  V30 3473 C 315.32 1.6015 0.14444 0
M  V30 3474 O 316.51 1.7399 -0.0854163 0
M  V30 3475 C 313.642 3.39753 -0.279405 0
M  V30 3476 H 314.835 2.40539 -1.79112 0
M  V30 3477 H 312.388 1.23086 -0.963298 0
M  V30 3478 H 313.123 3.17447 0.663174 0
M  V30 3479 H 312.908 3.79117 -1.00063 0
M  V30 3480 H 314.398 4.17507 -0.0879113 0
M  V30 3481 N 314.835 0.952656 1.25548 0
M  V30 3482 C 315.765 0.489287 2.28316 0
M  V30 3483 C 316.746 -0.463359 1.63667 0
M  V30 3484 O 317.931 -0.36274 1.90782 0
M  V30 3485 C 315.061 -0.235603 3.465 0
M  V30 3486 C 314.015 0.631593 4.23314 0
M  V30 3487 C 313.341 -0.223923 5.34231 0
M  V30 3488 C 314.641 1.90871 4.86174 0
M  V30 3489 H 316.335 1.34822 2.67326 0
M  V30 3490 H 313.881 0.649728 1.28509 0
M  V30 3491 H 315.834 -0.570882 4.17515 0
M  V30 3492 H 314.558 -1.12877 3.06474 0
M  V30 3493 H 313.217 0.949929 3.54079 0
M  V30 3494 H 312.865 -1.11678 4.90446 0
M  V30 3495 H 312.565 0.35299 5.86539 0
M  V30 3496 H 314.089 -0.554214 6.0808 0
M  V30 3497 H 315.503 1.63997 5.49343 0
M  V30 3498 H 313.9 2.43112 5.4865 0
M  V30 3499 H 314.97 2.61304 4.08471 0
M  V30 3500 N 316.313 -1.40141 0.720998 0
M  V30 3501 C 317.559 -2.01572 0.272075 0
M  V30 3502 C 317.914 -1.5616 -1.12391 0
M  V30 3503 O 317.207 -0.774198 -1.75262 0
M  V30 3504 C 317.401 -3.56165 0.296892 0
M  V30 3505 C 317.23 -4.16584 1.69375 0
M  V30 3506 C 316 -4.49783 2.30269 0
M  V30 3507 C 318.198 -4.41076 2.64493 0
M  V30 3508 N 316.18 -4.95626 3.62254 0
M  V30 3509 C 317.551 -4.88971 3.81192 0
M  V30 3510 C 319.606 -4.23122 2.62435 0
M  V30 3511 C 318.309 -5.20796 4.96149 0
M  V30 3512 C 320.335 -4.56052 3.76524 0
M  V30 3513 C 319.697 -5.04141 4.91956 0
M  V30 3514 H 315.796 -0.768343 0.145511 0
M  V30 3515 H 318.38 -1.70287 0.943959 0
M  V30 3516 H 316.551 -3.86868 -0.344578 0
M  V30 3517 H 318.283 -4.04346 -0.169254 0
M  V30 3518 H 315.038 -4.37101 1.82318 0
M  V30 3519 H 315.462 -5.22923 4.29977 0
M  V30 3520 H 320.104 -3.85158 1.74393 0
M  V30 3521 H 317.822 -5.57672 5.84831 0
M  V30 3522 H 321.408 -4.43796 3.76213 0
M  V30 3523 H 320.288 -5.29142 5.78774 0
M  V30 3524 N 317.792 -0.46758 -1.50504 0
M  V30 3525 C 319.038 0.0808869 -2.03239 0
M  V30 3526 C 319.393 1.37721 -1.34353 0
M  V30 3527 O 318.686 1.86016 -0.459194 0
M  V30 3528 C 318.88 0.323995 -3.55928 0
M  V30 3529 C 318.709 -0.947215 -4.39611 0
M  V30 3530 C 317.479 -1.48951 -4.82848 0
M  V30 3531 C 319.677 -1.84166 -4.80195 0
M  V30 3532 N 317.659 -2.71011 -5.50842 0
M  V30 3533 C 319.03 -2.90815 -5.47564 0
M  V30 3534 C 321.085 -1.85246 -4.62156 0
M  V30 3535 C 319.788 -3.98529 -5.98805 0
M  V30 3536 C 321.814 -2.91914 -5.14335 0
M  V30 3537 C 321.176 -3.97282 -5.81676 0
M  V30 3538 H 317.275 -0.0103394 -0.781932 0
M  V30 3539 H 319.859 -0.635003 -1.84054 0
M  V30 3540 H 318.03 1.00892 -3.75067 0
M  V30 3541 H 319.762 0.866492 -3.95315 0
M  V30 3542 H 316.517 -1.03918 -4.62058 0
M  V30 3543 H 316.941 -3.32988 -5.89447 0
M  V30 3544 H 321.583 -1.05103 -4.09528 0
M  V30 3545 H 319.301 -4.79491 -6.50472 0
M  V30 3546 H 322.887 -2.93729 -5.0221 0
M  V30 3547 H 321.767 -4.78462 -6.21324 0
M  V30 3548 N 319.27 1.56325 -0.20005 0
M  V30 3549 C 320.495 2.02548 0.44597 0
M  V30 3550 C 320.92 1.07922 1.5406 0
M  V30 3551 O 320.278 0.0635775 1.81188 0
M  V30 3552 C 320.326 3.47175 0.974761 0
M  V30 3553 O 319.43 3.55671 2.08739 0
M  V30 3554 H 318.771 0.655862 0.103638 0
M  V30 3555 H 321.301 2.02201 -0.312381 0
M  V30 3556 H 321.311 3.87067 1.2901 0
M  V30 3557 H 319.986 4.15538 0.17347 0
M  V30 3558 H 318.563 3.27657 1.78032 0
M  V30 3559 N 320.748 -0.0735177 1.57428 0
M  V30 3560 C 322.159 -0.625551 1.75908 0
M  V30 3561 C 322.51 -1.78 0.825261 0
M  V30 3562 O 321.635 -2.16398 0.00893964 0
M  V30 3563 C 322.23 -1.14155 3.18989 0
M  V30 3564 C 320.789 -1.63946 3.38819 0
M  V30 3565 C 319.936 -0.558151 2.71625 0
M  V30 3566 H 322.887 0.152647 1.57964 0
M  V30 3567 H 322.908 -2.0104 3.23053 0
M  V30 3568 H 322.42 -0.301116 3.8693 0
M  V30 3569 H 320.521 -2.50321 2.7599 0
M  V30 3570 H 320.634 -1.71759 4.47253 0
M  V30 3571 H 318.998 -1.00278 2.34129 0
M  V30 3572 H 319.781 0.272071 3.4222 0
M  V30 3573 N 322.226 -1.5378 -0.344866 0
M  V30 3574 C 323.174 -1.82373 -1.4437 0
M  V30 3575 C 324.168 -0.694128 -1.54526 0
M  V30 3576 O 325.374 -0.877442 -1.57165 0
M  V30 3577 H 321.749 -0.577765 -0.481344 0
M  V30 3578 H 323.72 -2.74306 -1.17468 0
M  V30 3579 C 322.469 -2.04898 -2.80913 0
M  V30 3580 H 321.792 -2.9127 -2.73865 0
M  V30 3581 H 323.232 -2.28871 -3.56923 0
M  V30 3582 C 321.691 -0.834116 -3.26411 0
M  V30 3583 O 322.221 -0.0328885 -4.01687 0
M  V30 3584 N 320.427 -0.65171 -2.83198 0
M  V30 3585 H 319.974 -1.30489 -2.22104 0
M  V30 3586 H 319.932 0.159686 -3.13994 0
M  V30 3587 N 323.704 0.605807 -1.45491 0
M  V30 3588 C 324.952 1.36207 -1.49305 0
M  V30 3589 C 325.273 1.94519 -0.136863 0
M  V30 3590 O 324.543 1.77261 0.833983 0
M  V30 3591 H 323.123 0.50565 -0.549843 0
M  V30 3592 H 325.785 0.711239 -1.81459 0
M  V30 3593 H 324.881 2.18058 -2.23287 0
M  V30 3594 N 325.182 1.32811 0.848464 0
M  V30 3595 C 326.41 1.26739 1.63538 0
M  V30 3596 C 326.825 -0.163484 1.88091 0
M  V30 3597 O 326.182 -1.10258 1.45429 0
M  V30 3598 C 326.233 2.03013 2.99112 0
M  V30 3599 O 325.954 3.40518 2.75643 0
M  V30 3600 C 327.455 2.04038 3.93552 0
M  V30 3601 H 324.675 0.437024 0.509167 0
M  V30 3602 H 327.219 1.75033 1.05753 0
M  V30 3603 H 325.374 1.58426 3.53525 0
M  V30 3604 H 325.788 3.79635 3.61908 0
M  V30 3605 H 327.262 2.61877 4.85926 0
M  V30 3606 H 327.739 1.0282 4.26995 0
M  V30 3607 H 328.345 2.486 3.45077 0
M  V30 3608 N 326.66 -1.06551 1.16123 0
M  V30 3609 C 327.907 -1.79302 0.941126 0
M  V30 3610 C 328.235 -1.87105 -0.531235 0
M  V30 3611 O 327.49 -1.35692 -1.41018 0
M  V30 3612 C 327.789 -3.23911 1.51052 0
M  V30 3613 C 327.455 -3.36193 3.00475 0
M  V30 3614 C 326.117 -3.39252 3.41265 0
M  V30 3615 C 328.469 -3.38326 3.96465 0
M  V30 3616 C 325.797 -3.42057 4.76669 0
M  V30 3617 C 328.149 -3.4267 5.31752 0
M  V30 3618 C 326.813 -3.4401 5.72026 0
M  V30 3619 H 326.083 -0.656111 0.344382 0
M  V30 3620 H 328.73 -1.25325 1.44796 0
M  V30 3621 H 327.035 -3.80723 0.925063 0
M  V30 3622 H 328.732 -3.78793 1.31593 0
M  V30 3623 H 325.322 -3.34516 2.6795 0
M  V30 3624 H 329.506 -3.35176 3.6602 0
M  V30 3625 H 324.762 -3.41398 5.07206 0
M  V30 3626 H 328.936 -3.43268 6.05921 0
M  V30 3627 H 326.563 -3.45937 6.76928 0
M  V30 3628 N 328.138 -0.959301 -1.25041 0
M  V30 3629 C 329.068 -0.501388 -2.28053 0
M  V30 3630 C 330.049 0.454673 -1.63911 0
M  V30 3631 O 331.234 0.352618 -1.90972 0
M  V30 3632 C 328.364 0.217224 -3.4662 0
M  V30 3633 C 327.318 -0.654034 -4.22973 0
M  V30 3634 C 326.644 0.195589 -5.34342 0
M  V30 3635 C 327.944 -1.93447 -4.85155 0
M  V30 3636 H 329.638 -1.36238 -2.66608 0
M  V30 3637 H 327.184 -0.656534 -1.28163 0
M  V30 3638 H 329.137 0.548732 -4.17812 0
M  V30 3639 H 327.861 1.1125 -3.07068 0
M  V30 3640 H 326.52 -0.968693 -3.5357 0
M  V30 3641 H 326.168 1.09076 -4.91031 0
M  V30 3642 H 325.868 -0.384091 -5.86343 0
M  V30 3643 H 327.392 0.521958 -6.08365 0
M  V30 3644 H 328.806 -1.66908 -5.48466 0
M  V30 3645 H 327.203 -2.46018 -5.47353 0
M  V30 3646 H 328.273 -2.63466 -4.07079 0
M  V30 3647 N 329.616 1.39756 -0.72842 0
M  V30 3648 C 330.579 2.29012 -0.0927297 0
M  V30 3649 C 331.579 1.45992 0.674025 0
M  V30 3650 O 332.769 1.66749 0.50402 0
M  V30 3651 C 329.901 3.29396 0.878137 0
M  V30 3652 H 331.094 2.86729 -0.879011 0
M  V30 3653 H 328.647 1.48293 -0.493847 0
M  V30 3654 H 329.382 2.76722 1.69101 0
M  V30 3655 H 329.167 3.907 0.331051 0
M  V30 3656 H 330.657 3.96199 1.3197 0
M  V30 3657 N 331.094 0.475555 1.50254 0
M  V30 3658 C 332.324 -0.0753399 2.06463 0
M  V30 3659 C 332.732 -1.33661 1.33908 0
M  V30 3660 O 332.075 -1.79219 0.403257 0
M  V30 3661 C 332.137 -0.424921 3.5698 0
M  V30 3662 C 331.801 0.734965 4.51051 0
M  V30 3663 C 332.798 1.61827 4.94073 0
M  V30 3664 C 330.483 0.926557 4.9368 0
M  V30 3665 C 332.477 2.67754 5.78434 0
M  V30 3666 C 330.164 1.98904 5.77824 0
M  V30 3667 C 331.162 2.8629 6.20103 0
M  V30 3668 O 330.85 3.90708 7.02568 0
M  V30 3669 H 330.582 0.00576308 0.675975 0
M  V30 3670 H 333.136 0.664662 1.94349 0
M  V30 3671 H 331.366 -1.21817 3.67012 0
M  V30 3672 H 333.055 -0.911422 3.95535 0
M  V30 3673 H 333.821 1.48196 4.61804 0
M  V30 3674 H 329.7 0.25584 4.6029 0
M  V30 3675 H 333.244 3.35992 6.11355 0
M  V30 3676 H 329.141 2.12541 6.09505 0
M  V30 3677 H 329.909 3.87751 7.20827 0
M  V30 3678 N 332.573 -1.56217 0.208337 0
M  V30 3679 C 333.536 -2.18455 -0.693557 0
M  V30 3680 C 334.536 -1.14268 -1.13135 0
M  V30 3681 O 335.726 -1.39577 -1.0423 0
M  V30 3682 C 332.858 -2.79727 -1.94848 0
M  V30 3683 H 334.051 -2.99519 -0.15114 0
M  V30 3684 H 331.604 -1.56245 -0.041287 0
M  V30 3685 H 332.339 -2.02497 -2.53309 0
M  V30 3686 H 332.124 -3.56009 -1.64316 0
M  V30 3687 H 333.614 -3.27475 -2.59133 0
M  V30 3688 N 334.051 0.0651679 -1.57465 0
M  V30 3689 C 334.983 1.10359 -2.00882 0
M  V30 3690 C 335.996 1.346 -0.915788 0
M  V30 3691 O 337.185 1.32723 -1.1936 0
M  V30 3692 C 334.285 2.45312 -2.33828 0
M  V30 3693 C 333.458 2.40934 -3.65061 0
M  V30 3694 C 332.517 3.58047 -3.85602 0
M  V30 3695 O 331.543 3.39175 -4.57109 0
M  V30 3696 N 332.745 4.78637 -3.28462 0
M  V30 3697 H 335.51 0.733807 -2.90578 0
M  V30 3698 H 333.071 0.253719 -1.599 0
M  V30 3699 H 335.063 3.22314 -2.44737 0
M  V30 3700 H 333.633 2.74267 -1.49988 0
M  V30 3701 H 332.853 1.49273 -3.64844 0
M  V30 3702 H 334.141 2.35117 -4.51218 0
M  V30 3703 H 333.539 4.96872 -2.70433 0
M  V30 3704 H 332.096 5.53127 -3.44809 0
M  V30 3705 N 335.529 1.53961 0.336706 0
M  V30 3706 C 336.776 1.71536 1.07618 0
M  V30 3707 C 337.104 0.482125 1.8843 0
M  V30 3708 O 336.359 -0.536142 1.88213 0
M  V30 3709 C 336.658 2.93493 2.03953 0
M  V30 3710 C 336.324 4.28811 1.39399 0
M  V30 3711 C 334.986 4.65602 1.21523 0
M  V30 3712 C 337.338 5.12844 0.929541 0
M  V30 3713 C 334.666 5.84037 0.558312 0
M  V30 3714 C 337.018 6.31951 0.286505 0
M  V30 3715 C 335.682 6.67432 0.0954869 0
M  V30 3716 H 334.952 0.627696 0.393801 0
M  V30 3717 H 337.599 1.88186 0.354715 0
M  V30 3718 H 335.904 2.71475 2.82504 0
M  V30 3719 H 337.601 3.04285 2.61174 0
M  V30 3720 H 334.191 3.99858 1.54311 0
M  V30 3721 H 338.375 4.84947 1.05548 0
M  V30 3722 H 333.631 6.10097 0.398995 0
M  V30 3723 H 337.805 6.96352 -0.0814376 0
M  V30 3724 H 335.432 7.59063 -0.415579 0
M  V30 3725 N 337.007 -0.598083 1.45811 0
M  V30 3726 C 337.955 -1.72932 1.55555 0
M  V30 3727 C 338.949 -1.63984 0.424921 0
M  V30 3728 O 340.155 -1.69663 0.601205 0
M  V30 3729 H 336.53 -0.571489 0.488779 0
M  V30 3730 H 338.501 -1.61842 2.50699 0
M  V30 3731 C 337.25 -3.11318 1.54843 0
M  V30 3732 H 336.573 -3.18867 2.41172 0
M  V30 3733 H 338.013 -3.90274 1.65717 0
M  V30 3734 C 336.472 -3.3578 0.274427 0
M  V30 3735 O 337.002 -3.9654 -0.641778 0
M  V30 3736 N 335.208 -2.90119 0.167139 0
M  V30 3737 H 334.755 -2.40855 0.913596 0
M  V30 3738 H 334.713 -3.0686 -0.684435 0
M  V30 3739 N 338.485 -1.33259 -0.841409 0
M  V30 3740 C 339.762 -1.15174 -1.58096 0
M  V30 3741 C 340.142 0.282858 -2.09196 0
M  V30 3742 O 339.49 1.28151 -1.89181 0
M  V30 3743 C 339.7 -2.1907 -2.71679 0
M  V30 3744 C 341.048 -2.53093 -3.40924 0
M  V30 3745 O 342.072 -2.17717 -2.81918 0
M  V30 3746 O 340.931 -3.1379 -4.47435 0
M  V30 3747 H 338.025 -0.445303 -0.696875 0
M  V30 3748 H 340.571 -1.44833 -0.884385 0
M  V30 3749 H 339.343 -3.15443 -2.31541 0
M  V30 3750 H 338.966 -1.90481 -3.49002 0
M  V30 3751 N 339.963 1.05934 -1.16686 0
M  V30 3752 C 341.191 1.8249 -0.974929 0
M  V30 3753 C 341.606 1.82679 0.476861 0
M  V30 3754 O 340.963 1.2486 1.33103 0
M  V30 3755 C 341.014 3.28943 -1.49929 0
M  V30 3756 O 340.735 3.28886 -2.89423 0
M  V30 3757 C 342.236 4.22215 -1.35089 0
M  V30 3758 H 339.456 0.575295 -0.345365 0
M  V30 3759 H 342 1.33631 -1.548 0
M  V30 3760 H 340.155 3.751 -0.968423 0
M  V30 3761 H 340.569 4.20493 -3.13506 0
M  V30 3762 H 342.043 5.22987 -1.76603 0
M  V30 3763 H 342.52 4.38195 -0.296935 0
M  V30 3764 H 343.126 3.81907 -1.87155 0
M  V30 3765 N 341.441 0.965919 1.2453 0
M  V30 3766 C 342.351 0.502154 2.29163 0
M  V30 3767 C 343.367 -0.436017 1.68448 0
M  V30 3768 O 344.543 -0.309497 1.99008 0
M  V30 3769 C 341.608 -0.201956 3.46111 0
M  V30 3770 C 340.669 0.775821 4.22232 0
M  V30 3771 C 339.902 0.105217 5.33596 0
M  V30 3772 O 340.125 -1.10683 5.59558 0
M  V30 3773 O 339.059 0.796475 5.96607 0
M  V30 3774 H 342.885 1.37194 2.70946 0
M  V30 3775 H 340.47 0.732875 1.30189 0
M  V30 3776 H 342.352 -0.597564 4.17142 0
M  V30 3777 H 341.027 -1.04673 3.06309 0
M  V30 3778 H 339.934 1.22185 3.53584 0
M  V30 3779 H 341.267 1.58896 4.65846 0
M  V30 3780 N 342.919 -1.39368 0.735821 0
M  V30 3781 C 344.165 -2.00794 0.284544 0
M  V30 3782 C 344.498 -1.58255 -1.12557 0
M  V30 3783 O 343.773 -0.811819 -1.76748 0
M  V30 3784 C 344.056 -3.58011 0.387337 0
M  V30 3785 C 343.909 -4.10566 1.83728 0
M  V30 3786 C 345.228 -4.395 -0.22975 0
M  V30 3787 H 342.347 -0.729501 0.104866 0
M  V30 3788 H 344.989 -1.65564 0.93213 0
M  V30 3789 H 343.139 -3.88154 -0.164006 0
M  V30 3790 H 344.811 -3.91139 2.44556 0
M  V30 3791 H 343.054 -3.64095 2.35833 0
M  V30 3792 H 343.725 -5.19702 1.86047 0
M  V30 3793 H 346.201 -4.15406 0.240257 0
M  V30 3794 H 345.077 -5.48752 -0.127485 0
M  V30 3795 H 345.338 -4.22062 -1.3159 0
M  V30 3796 N 344.397 -0.483516 -1.5 0
M  V30 3797 C 345.808 -0.0314176 -1.86674 0
M  V30 3798 C 346.159 1.37728 -1.39733 0
M  V30 3799 O 345.284 2.02327 -0.767635 0
M  V30 3800 C 345.879 -0.0502376 -3.38763 0
M  V30 3801 C 344.438 0.346442 -3.74802 0
M  V30 3802 C 343.585 -0.430366 -2.7394 0
M  V30 3803 H 346.536 -0.697182 -1.42566 0
M  V30 3804 H 346.557 0.749116 -3.73053 0
M  V30 3805 H 346.069 -1.07563 -3.72897 0
M  V30 3806 H 344.17 1.37572 -3.46273 0
M  V30 3807 H 344.283 0.0391486 -4.79084 0
M  V30 3808 H 342.647 0.117557 -2.54429 0
M  V30 3809 H 343.43 -1.4555 -3.10918 0
M  V30 3810 N 345.875 1.56104 -0.216619 0
M  V30 3811 C 346.805 2.23063 0.690296 0
M  V30 3812 C 347.786 1.20072 1.20485 0
M  V30 3813 O 348.971 1.48643 1.24976 0
M  V30 3814 C 346.101 2.90672 1.90072 0
M  V30 3815 C 345.055 4.00092 1.5202 0
M  V30 3816 C 344.381 4.54972 2.80899 0
M  V30 3817 C 345.681 5.17398 0.71391 0
M  V30 3818 H 347.375 2.99109 0.132038 0
M  V30 3819 H 344.921 1.43866 0.0620664 0
M  V30 3820 H 346.874 3.36204 2.54057 0
M  V30 3821 H 345.598 2.12066 2.48386 0
M  V30 3822 H 344.257 3.55283 0.903839 0
M  V30 3823 H 343.905 3.73102 3.37348 0
M  V30 3824 H 343.605 5.28817 2.56176 0
M  V30 3825 H 345.129 5.0322 3.45836 0
M  V30 3826 H 346.543 5.59342 1.25735 0
M  V30 3827 H 344.94 5.97444 0.563951 0
M  V30 3828 H 346.01 4.84088 -0.280527 0
M  V30 3829 N 347.353 -0.0568162 1.57498 0
M  V30 3830 C 348.602 -0.752001 1.87157 0
M  V30 3831 C 348.915 -1.77978 0.811375 0
M  V30 3832 O 350.121 -2.52559 0.996293 0
M  V30 3833 C 348.577 -1.38844 3.3204 0
M  V30 3834 C 348.185 -0.398456 4.46225 0
M  V30 3835 C 349.929 -2.06512 3.70882 0
M  V30 3836 C 347.836 -1.04166 5.82154 0
M  V30 3837 H 346.766 -0.28461 0.698222 0
M  V30 3838 H 349.417 -0.00561272 1.83499 0
M  V30 3839 H 347.799 -2.1836 3.30356 0
M  V30 3840 H 348.973 0.367977 4.59328 0
M  V30 3841 H 347.288 0.174592 4.16034 0
M  V30 3842 H 349.885 -2.55437 4.6974 0
M  V30 3843 H 350.228 -2.87117 3.01445 0
M  V30 3844 H 350.761 -1.33808 3.7462 0
M  V30 3845 H 347.5 -0.275614 6.5492 0
M  V30 3846 H 347.02 -1.7786 5.72823 0
M  V30 3847 H 348.699 -1.55715 6.27982 0
M  V30 3848 N 348.832 -1.54138 -0.328536 0
M  V30 3849 C 349.742 -1.86192 -1.42723 0
M  V30 3850 C 350.758 -0.753382 -1.56844 0
M  V30 3851 O 351.934 -1.04718 -1.72035 0
M  V30 3852 C 348.999 -2.07824 -2.77507 0
M  V30 3853 C 348.06 -3.31641 -2.72603 0
M  V30 3854 C 347.293 -3.52232 -4.00959 0
M  V30 3855 O 347.516 -2.7636 -4.9898 0
M  V30 3856 O 346.45 -4.45699 -4.0452 0
M  V30 3857 H 350.276 -2.79608 -1.18547 0
M  V30 3858 H 347.861 -1.3998 -0.522104 0
M  V30 3859 H 349.743 -2.23411 -3.57303 0
M  V30 3860 H 348.418 -1.17596 -3.01584 0
M  V30 3861 H 347.325 -3.21444 -1.91376 0
M  V30 3862 H 348.658 -4.2191 -2.53481 0
M  V30 3863 N 350.31 0.590341 -1.46126 0
M  V30 3864 C 351.54 1.37304 -1.54373 0
M  V30 3865 C 351.948 1.88332 -0.181071 0
M  V30 3866 O 351.291 1.63852 0.830559 0
M  V30 3867 C 351.353 2.6012 -2.48149 0
M  V30 3868 C 351.017 2.30613 -3.94546 0
M  V30 3869 C 352.014 1.89915 -4.83971 0
M  V30 3870 C 349.699 2.42993 -4.39613 0
M  V30 3871 C 351.693 1.61981 -6.16475 0
M  V30 3872 C 349.38 2.14672 -5.72153 0
M  V30 3873 C 350.378 1.7423 -6.60404 0
M  V30 3874 O 350.066 1.46251 -7.90485 0
M  V30 3875 H 349.798 0.426086 -0.524811 0
M  V30 3876 H 352.352 0.72539 -1.92165 0
M  V30 3877 H 350.582 3.27664 -2.05361 0
M  V30 3878 H 352.271 3.22182 -2.46887 0
M  V30 3879 H 353.037 1.79872 -4.50412 0
M  V30 3880 H 348.916 2.73435 -3.71153 0
M  V30 3881 H 352.46 1.30341 -6.85315 0
M  V30 3882 H 348.357 2.24337 -6.05263 0
M  V30 3883 H 349.125 1.6016 -8.02677 0
M  V30 3884 N 351.788 1.33704 0.83433 0
M  V30 3885 C 353.013 1.28615 1.62705 0
M  V30 3886 C 353.438 -0.139242 1.87584 0
M  V30 3887 O 352.796 -1.09734 1.4432 0
M  V30 3888 C 352.844 2.07139 2.95171 0
M  V30 3889 O 351.948 1.4331 3.86699 0
M  V30 3890 H 351.289 0.44226 0.49528 0
M  V30 3891 H 353.819 1.76335 1.03766 0
M  V30 3892 H 353.829 2.18073 3.44831 0
M  V30 3893 H 352.504 3.10779 2.76386 0
M  V30 3894 H 351.081 1.4105 3.45195 0
M  V30 3895 N 353.266 -1.05314 1.17247 0
M  V30 3896 C 354.513 -1.78293 0.960091 0
M  V30 3897 C 354.841 -1.87658 -0.51136 0
M  V30 3898 O 354.096 -1.3718 -1.39571 0
M  V30 3899 C 354.395 -3.2229 1.54479 0
M  V30 3900 C 354.061 -3.32987 3.04024 0
M  V30 3901 C 352.723 -3.35613 3.44844 0
M  V30 3902 C 355.075 -3.34102 4.00031 0
M  V30 3903 C 352.403 -3.36982 4.8027 0
M  V30 3904 C 354.755 -3.3701 5.35357 0
M  V30 3905 C 353.419 -3.37923 5.75642 0
M  V30 3906 H 352.689 -0.652422 0.351322 0
M  V30 3907 H 355.336 -1.23782 1.46117 0
M  V30 3908 H 353.641 -3.7972 0.965391 0
M  V30 3909 H 355.338 -3.77376 1.35603 0
M  V30 3910 H 351.928 -3.31655 2.71483 0
M  V30 3911 H 356.112 -3.31276 3.69554 0
M  V30 3912 H 351.368 -3.35999 5.10798 0
M  V30 3913 H 355.542 -3.36822 6.09528 0
M  V30 3914 H 353.169 -3.38738 6.80559 0
M  V30 3915 N 354.744 -0.972509 -1.24016 0
M  V30 3916 C 355.974 -0.653853 -1.9598 0
M  V30 3917 C 356.382 0.781801 -1.72292 0
M  V30 3918 O 355.725 1.53677 -1.00644 0
M  V30 3919 C 355.787 -0.854608 -3.49194 0
M  V30 3920 C 355.451 -2.27082 -3.96589 0
M  V30 3921 C 356.448 -3.24892 -4.05883 0
M  V30 3922 C 354.133 -2.5998 -4.29786 0
M  V30 3923 C 356.127 -4.53684 -4.47716 0
M  V30 3924 C 353.814 -3.88997 -4.71301 0
M  V30 3925 C 354.812 -4.85661 -4.80232 0
M  V30 3926 O 354.5 -6.12376 -5.20818 0
M  V30 3927 H 354.232 -0.242572 -0.630979 0
M  V30 3928 H 356.786 -1.30431 -1.58673 0
M  V30 3929 H 355.016 -0.146985 -3.86421 0
M  V30 3930 H 356.705 -0.534311 -4.02368 0
M  V30 3931 H 357.471 -3.00805 -3.80449 0
M  V30 3932 H 353.35 -1.85457 -4.22051 0
M  V30 3933 H 356.894 -5.29135 -4.54601 0
M  V30 3934 H 352.791 -4.12882 -4.96184 0
M  V30 3935 H 353.559 -6.16013 -5.38953 0
M  V30 3936 N 356.222 1.38976 -0.743202 0
M  V30 3937 C 357.447 2.05161 -0.303936 0
M  V30 3938 C 357.872 1.55677 1.05576 0
M  V30 3939 O 357.23 0.704131 1.67068 0
M  V30 3940 C 357.278 3.59138 -0.324373 0
M  V30 3941 O 356.382 4.06668 0.685204 0
M  V30 3942 H 355.723 0.649815 -0.136518 0
M  V30 3943 H 358.253 1.77852 -1.01142 0
M  V30 3944 H 358.263 4.07639 -0.171618 0
M  V30 3945 H 356.938 3.94515 -1.31647 0
M  V30 3946 H 355.515 3.69561 0.497913 0
M  V30 3947 N 357.7 0.491464 1.49741 0
M  V30 3948 C 358.977 -0.118984 1.95238 0
M  V30 3949 C 359.357 -1.55044 1.43264 0
M  V30 3950 O 358.705 -2.19287 0.642287 0
M  V30 3951 C 358.915 -0.0414187 3.48975 0
M  V30 3952 C 360.263 -0.220133 4.24029 0
M  V30 3953 O 361.287 -0.117055 3.56008 0
M  V30 3954 O 360.146 -0.430567 5.44801 0
M  V30 3955 H 357.24 -0.100536 0.820866 0
M  V30 3956 H 359.786 0.553322 1.60426 0
M  V30 3957 H 358.558 0.957214 3.79412 0
M  V30 3958 H 358.181 -0.754292 3.9038 0
M  V30 3959 N 359.178 -1.55987 0.224894 0
M  V30 3960 C 360.088 -2.24066 -0.69511 0
M  V30 3961 C 361.104 -1.24939 -1.21104 0
M  V30 3962 O 362.28 -1.5776 -1.25195 0
M  V30 3963 C 359.345 -2.90983 -1.88493 0
M  V30 3964 C 358.406 -4.05462 -1.41064 0
M  V30 3965 C 357.639 -4.69179 -2.54375 0
M  V30 3966 O 357.862 -4.31895 -3.72589 0
M  V30 3967 O 356.796 -5.58108 -2.25386 0
M  V30 3968 H 360.622 -3.03353 -0.145149 0
M  V30 3969 H 358.207 -1.49399 -0.00569476 0
M  V30 3970 H 360.089 -3.33209 -2.57972 0
M  V30 3971 H 358.764 -2.14653 -2.42293 0
M  V30 3972 H 357.671 -3.67798 -0.683774 0
M  V30 3973 H 359.004 -4.83545 -0.918985 0
M  V30 3974 N 360.656 0.0484629 -1.57525 0
M  V30 3975 C 361.881 0.759177 -1.93006 0
M  V30 3976 C 362.306 1.69125 -0.823317 0
M  V30 3977 O 361.664 1.79931 0.222364 0
M  V30 3978 C 361.712 1.50899 -3.27509 0
M  V30 3979 O 360.816 2.62112 -3.18388 0
M  V30 3980 H 360.157 0.205564 -0.631379 0
M  V30 3981 H 362.687 0.00972959 -2.04598 0
M  V30 3982 H 362.697 1.88317 -3.6194 0
M  V30 3983 H 361.372 0.825269 -4.0763 0
M  V30 3984 H 359.949 2.27379 -2.95556 0
M  V30 3985 N 362.134 1.5431 0.320358 0
M  V30 3986 C 363.064 1.86912 1.3995 0
M  V30 3987 C 364.045 0.726211 1.53819 0
M  V30 3988 O 365.23 0.980233 1.67646 0
M  V30 3989 C 362.36 2.09932 2.7667 0
M  V30 3990 C 361.314 3.25776 2.77586 0
M  V30 3991 C 360.64 3.34173 4.17412 0
M  V30 3992 C 361.94 4.6335 2.41048 0
M  V30 3993 H 363.634 2.77292 1.12914 0
M  V30 3994 H 361.18 1.33421 0.541738 0
M  V30 3995 H 363.133 2.31324 3.52232 0
M  V30 3996 H 361.857 1.16304 3.0519 0
M  V30 3997 H 360.516 3.04276 2.04479 0
M  V30 3998 H 360.164 2.38098 4.43078 0
M  V30 3999 H 359.864 4.12033 4.18931 0
M  V30 4000 H 361.388 3.57803 4.94782 0
M  V30 4001 H 362.802 4.84602 3.06324 0
M  V30 4002 H 361.199 5.43782 2.53813 0
M  V30 4003 H 362.269 4.65381 1.36193 0
M  V30 4004 N 363.613 -0.582584 1.46437 0
M  V30 4005 C 364.545 -1.70618 1.53043 0
M  V30 4006 C 365.558 -1.57322 0.418769 0
M  V30 4007 O 366.747 -1.64744 0.687136 0
M  V30 4008 C 363.847 -3.08869 1.39474 0
M  V30 4009 C 363.02 -3.48166 2.64762 0
M  V30 4010 C 362.079 -4.65478 2.4539 0
M  V30 4011 O 361.105 -4.71333 3.19114 0
M  V30 4012 N 362.307 -5.60365 1.51564 0
M  V30 4013 H 365.072 -1.65405 2.49923 0
M  V30 4014 H 362.633 -0.768567 1.42494 0
M  V30 4015 H 364.625 -3.85143 1.24287 0
M  V30 4016 H 363.195 -3.08449 0.507758 0
M  V30 4017 H 362.415 -2.61598 2.9489 0
M  V30 4018 H 363.703 -3.71188 3.4799 0
M  V30 4019 H 363.101 -5.5837 0.907705 0
M  V30 4020 H 361.658 -6.36068 1.4234 0
M  V30 4021 N 365.091 -1.34144 -0.827227 0
M  V30 4022 C 366.321 -1.29138 -1.61267 0
M  V30 4023 C 366.729 0.137597 -1.88699 0
M  V30 4024 O 366.072 1.09379 -1.47587 0
M  V30 4025 C 366.134 -2.0097 -2.9808 0
M  V30 4026 C 365.798 -3.50242 -2.93563 0
M  V30 4027 C 366.795 -4.4523 -2.68452 0
M  V30 4028 C 364.48 -3.92592 -3.13331 0
M  V30 4029 C 366.474 -5.80542 -2.63154 0
M  V30 4030 C 364.161 -5.28005 -3.07658 0
M  V30 4031 C 365.159 -6.21792 -2.82602 0
M  V30 4032 O 364.847 -7.54723 -2.76853 0
M  V30 4033 H 364.579 -0.445851 -0.508127 0
M  V30 4034 H 367.133 -1.77263 -1.03763 0
M  V30 4035 H 365.363 -1.47451 -3.57484 0
M  V30 4036 H 367.052 -1.89309 -3.5905 0
M  V30 4037 H 367.818 -4.13832 -2.52919 0
M  V30 4038 H 363.697 -3.19994 -3.31851 0
M  V30 4039 H 367.241 -6.53717 -2.43516 0
M  V30 4040 H 363.138 -5.59023 -3.22743 0
M  V30 4041 H 363.906 -7.64409 -2.92611 0
M  V30 4042 N 366.569 1.04691 -1.17803 0
M  V30 4043 C 367.98 1.59238 -0.974689 0
M  V30 4044 C 368.331 1.90306 0.477292 0
M  V30 4045 O 367.456 1.68846 1.35352 0
M  V30 4046 C 368.051 2.89318 -1.76296 0
M  V30 4047 C 366.61 3.40506 -1.60414 0
M  V30 4048 C 365.757 2.14172 -1.76141 0
M  V30 4049 H 368.708 0.874395 -1.32439 0
M  V30 4050 H 368.729 3.5944 -1.24833 0
M  V30 4051 H 368.241 2.66675 -2.81968 0
M  V30 4052 H 366.342 3.68175 -0.572519 0
M  V30 4053 H 366.455 4.14753 -2.39827 0
M  V30 4054 H 364.819 2.25176 -1.19028 0
M  V30 4055 H 365.602 1.93992 -2.83235 0
M  V30 4056 N 368.047 0.979072 1.23499 0
M  V30 4057 C 368.994 0.517904 2.24914 0
M  V30 4058 C 369.964 -0.442525 1.60097 0
M  V30 4059 O 371.149 -0.350365 1.87556 0
M  V30 4060 C 368.289 -0.174813 3.44657 0
M  V30 4061 C 367.402 0.825721 4.24035 0
M  V30 4062 C 366.537 0.107946 5.3109 0
M  V30 4063 C 365.576 1.09778 6.02175 0
M  V30 4064 N 364.713 0.40925 7.00906 0
M  V30 4065 H 369.553 1.38751 2.63727 0
M  V30 4066 H 367.09 0.695303 1.2963 0
M  V30 4067 H 369.048 -0.593233 4.12961 0
M  V30 4068 H 367.678 -1.0083 3.06648 0
M  V30 4069 H 366.73 1.36253 3.55161 0
M  V30 4070 H 368.042 1.58005 4.73113 0
M  V30 4071 H 367.196 -0.367904 6.05583 0
M  V30 4072 H 365.935 -0.678994 4.8295 0
M  V30 4073 H 364.94 1.5844 5.26476 0
M  V30 4074 H 366.165 1.88536 6.52404 0
M  V30 4075 H 364.111 -0.358506 6.5502 0
M  V30 4076 H 364.028 1.10226 7.47921 0
M  V30 4077 H 365.296 -0.0442557 7.79487 0
M  V30 4078 N 369.525 -1.3858 0.750561 0
M  V30 4079 C 370.753 -2.04471 0.316098 0
M  V30 4080 C 371.168 -1.56606 -1.05452 0
M  V30 4081 O 370.525 -0.737784 -1.66922 0
M  V30 4082 C 370.576 -3.60025 0.326275 0
M  V30 4083 O 370.297 -4.06133 1.6428 0
M  V30 4084 C 371.798 -4.43131 -0.122429 0
M  V30 4085 H 369.018 -0.65717 0.135528 0
M  V30 4086 H 371.562 -1.77329 1.01857 0
M  V30 4087 H 369.717 -3.86014 -0.327431 0
M  V30 4088 H 370.131 -5.00547 1.56693 0
M  V30 4089 H 371.605 -5.51963 -0.0641473 0
M  V30 4090 H 372.082 -4.23333 -1.16988 0
M  V30 4091 H 372.688 -4.22323 0.50229 0
M  V30 4092 N 371.003 -0.499398 -1.49478 0
M  V30 4093 C 372.249 0.0457576 -2.02748 0
M  V30 4094 C 372.582 1.36793 -1.37846 0
M  V30 4095 O 371.857 1.87596 -0.513601 0
M  V30 4096 C 372.14 0.199986 -3.59544 0
M  V30 4097 C 371.993 -1.1452 -4.34977 0
M  V30 4098 C 373.312 0.94137 -4.29914 0
M  V30 4099 H 370.431 0.0151552 -0.736844 0
M  V30 4100 H 373.073 -0.650498 -1.78518 0
M  V30 4101 H 371.223 0.793007 -3.8032 0
M  V30 4102 H 372.895 -1.77697 -4.25701 0
M  V30 4103 H 371.138 -1.73488 -3.97598 0
M  V30 4104 H 371.809 -0.990607 -5.43039 0
M  V30 4105 H 374.285 0.43844 -4.13784 0
M  V30 4106 H 373.161 1.01812 -5.39375 0
M  V30 4107 H 373.422 1.98471 -3.95046 0
M  V30 4108 N 372.481 1.55866 -0.233164 0
M  V30 4109 C 373.897 1.59133 0.121988 0
M  V30 4110 C 374.097 1.25016 1.58029 0
M  V30 4111 O 373.153 0.990922 2.32243 0
M  V30 4112 C 374.466 2.99932 -0.214792 0
M  V30 4113 C 376.014 3.12601 -0.157971 0
M  V30 4114 C 376.489 4.55597 -0.46859 0
M  V30 4115 N 377.98 4.61305 -0.418585 0
M  V30 4116 C 378.715 5.69903 -0.63227 0
M  V30 4117 N 378.211 6.86819 -0.90835 0
M  V30 4118 N 380.004 5.59264 -0.563913 0
M  V30 4119 H 372.155 1.76315 -1.18434 0
M  V30 4120 H 374.418 0.820093 -0.475553 0
M  V30 4121 H 374.124 3.29588 -1.22739 0
M  V30 4122 H 373.998 3.74327 0.464691 0
M  V30 4123 H 376.385 2.82735 0.845283 0
M  V30 4124 H 376.466 2.40511 -0.871102 0
M  V30 4125 H 376.11 4.86182 -1.46934 0
M  V30 4126 H 376.04 5.25928 0.265865 0
M  V30 4127 H 378.531 3.77297 -0.213368 0
M  V30 4128 H 378.844 7.65507 -1.05919 0
M  V30 4129 H 377.189 6.88536 -0.945673 0
M  V30 4130 H 380.38 4.66802 -0.348372 0
M  V30 4131 H 380.553 6.43831 -0.733847 0
M  V30 4132 N 373.959 -0.0401083 1.57549 0
M  V30 4133 C 375.205 -0.734211 1.89043 0
M  V30 4134 C 375.538 -1.75591 0.829535 0
M  V30 4135 O 374.813 -1.93868 -0.156706 0
M  V30 4136 C 375.096 -1.41374 3.31188 0
M  V30 4137 C 374.949 -0.406299 4.47961 0
M  V30 4138 C 376.268 -2.35061 3.72068 0
M  V30 4139 H 373.387 -0.265447 0.687537 0
M  V30 4140 H 376.029 0.00294087 1.9 0
M  V30 4141 H 374.179 -2.04206 3.30503 0
M  V30 4142 H 375.851 0.219255 4.60779 0
M  V30 4143 H 374.094 0.275485 4.32924 0
M  V30 4144 H 374.765 -0.920022 5.44279 0
M  V30 4145 H 377.241 -1.82282 3.74049 0
M  V30 4146 H 376.117 -2.79593 4.72355 0
M  V30 4147 H 376.378 -3.21258 3.0372 0
M  V30 4148 N 375.437 -1.54477 -0.31217 0
M  V30 4149 C 376.848 -1.64344 -0.885891 0
M  V30 4150 C 377.199 -0.54485 -1.88483 0
M  V30 4151 O 376.324 0.320387 -2.14015 0
M  V30 4152 C 376.919 -2.97908 -1.61357 0
M  V30 4153 C 375.478 -3.09933 -2.13585 0
M  V30 4154 C 374.625 -2.59971 -0.964897 0
M  V30 4155 H 377.576 -1.58448 -0.0894528 0
M  V30 4156 H 377.597 -2.88706 -2.47848 0
M  V30 4157 H 377.109 -3.77845 -0.886277 0
M  V30 4158 H 375.21 -2.34694 -2.89395 0
M  V30 4159 H 375.323 -4.15916 -2.37804 0
M  V30 4160 H 373.687 -2.16147 -1.34731 0
M  V30 4161 H 374.47 -3.42376 -0.251742 0
M  V30 4162 N 376.915 0.57481 -1.46744 0
M  V30 4163 C 378.145 1.35659 -1.55821 0
M  V30 4164 C 378.553 1.88129 -0.201036 0
M  V30 4165 O 377.896 1.64723 0.813134 0
M  V30 4166 C 377.958 2.57473 -2.50894 0
M  V30 4167 C 377.622 2.26415 -3.9697 0
M  V30 4168 C 378.619 1.84771 -4.85958 0
M  V30 4169 C 376.304 2.38316 -4.42166 0
M  V30 4170 C 378.298 1.55434 -6.18158 0
M  V30 4171 C 375.985 2.08591 -5.74398 0
M  V30 4172 C 376.983 1.67216 -6.62214 0
M  V30 4173 O 376.671 1.37859 -7.91991 0
M  V30 4174 H 376.403 0.420496 -0.529301 0
M  V30 4175 H 378.957 0.704967 -1.92923 0
M  V30 4176 H 377.187 3.25468 -2.08824 0
M  V30 4177 H 378.876 3.19546 -2.50291 0
M  V30 4178 H 379.642 1.75085 -4.52295 0
M  V30 4179 H 375.521 2.69483 -3.74032 0
M  V30 4180 H 379.065 1.23065 -6.86659 0
M  V30 4181 H 374.962 2.17905 -6.07608 0
M  V30 4182 H 375.73 1.51638 -8.04331 0
M  V30 4183 N 378.394 1.34581 0.820102 0
M  V30 4184 C 379.805 1.24298 1.39309 0
M  V30 4185 C 380.156 -0.130351 1.95767 0
M  V30 4186 O 379.281 -1.0308 1.90272 0
M  V30 4187 C 379.876 2.25054 2.53251 0
M  V30 4188 C 378.435 2.18552 3.0645 0
M  V30 4189 C 377.582 2.11503 1.79337 0
M  V30 4190 H 380.533 1.45906 0.624262 0
M  V30 4191 H 380.554 1.86917 3.31425 0
M  V30 4192 H 380.066 3.24996 2.1213 0
M  V30 4193 H 378.167 1.21976 3.52069 0
M  V30 4194 H 378.28 3.0993 3.65349 0
M  V30 4195 H 376.644 1.57268 2.00347 0
M  V30 4196 H 377.427 3.13284 1.40386 0
M  V30 4197 N 379.872 -1.04064 1.18357 0
M  V30 4198 C 380.819 -2.12077 0.910603 0
M  V30 4199 C 381.789 -1.65421 -0.15 0
M  V30 4200 O 382.974 -1.90797 -0.0103614 0
M  V30 4201 C 380.114 -3.42252 0.442472 0
M  V30 4202 C 379.227 -4.0252 1.5685 0
M  V30 4203 C 378.362 -5.20657 1.05309 0
M  V30 4204 C 377.401 -5.72955 2.1538 0
M  V30 4205 N 376.538 -6.8238 1.65233 0
M  V30 4206 H 381.378 -2.34764 1.83548 0
M  V30 4207 H 378.915 -1.15157 0.915279 0
M  V30 4208 H 380.873 -4.16921 0.152534 0
M  V30 4209 H 379.503 -3.19712 -0.445428 0
M  V30 4210 H 378.555 -3.25178 1.97391 0
M  V30 4211 H 379.867 -4.37362 2.39824 0
M  V30 4212 H 379.021 -6.0244 0.717677 0
M  V30 4213 H 377.76 -4.87318 0.19293 0
M  V30 4214 H 376.765 -4.89793 2.49766 0
M  V30 4215 H 377.99 -6.08337 3.01832 0
M  V30 4216 H 375.936 -6.50917 0.815064 0
M  V30 4217 H 375.853 -7.16286 2.41805 0
M  V30 4218 H 377.121 -7.67788 1.34619 0
M  V30 4219 N 381.35 -0.985608 -1.22978 0
M  V30 4220 C 382.313 -0.535071 -2.22867 0
M  V30 4221 C 383.313 0.378123 -1.56291 0
M  V30 4222 O 384.503 0.171092 -1.73358 0
M  V30 4223 C 381.635 0.222702 -3.40172 0
M  V30 4224 H 382.828 -1.41835 -2.6424 0
M  V30 4225 H 380.381 -0.772042 -1.35901 0
M  V30 4226 H 381.116 1.12229 -3.04262 0
M  V30 4227 H 380.901 -0.43288 -3.89703 0
M  V30 4228 H 382.391 0.526335 -4.1427 0
M  V30 4229 N 382.828 1.3818 -0.7579 0
M  V30 4230 C 384.076 1.99624 -0.315361 0
M  V30 4231 C 384.397 1.60464 1.10799 0
M  V30 4232 O 383.667 0.863507 1.75842 0
M  V30 4233 H 382.247 0.73831 -0.113611 0
M  V30 4234 H 384.909 1.68878 -0.972952 0
M  V30 4235 H 384.005 3.09754 -0.381931 0
M  V30 4236 N 384.306 0.507319 1.49211 0
M  V30 4237 C 385.269 -0.256763 2.27757 0
M  V30 4238 C 386.269 -0.888287 1.34038 0
M  V30 4239 O 387.459 -0.751841 1.5714 0
M  V30 4240 C 384.591 -1.36905 3.12202 0
M  V30 4241 H 385.784 0.432557 2.96764 0
M  V30 4242 H 383.337 0.262488 1.5408 0
M  V30 4243 H 384.072 -2.09233 2.47775 0
M  V30 4244 H 383.857 -0.921599 3.81115 0
M  V30 4245 H 385.347 -1.9071 3.7151 0
M  V30 4246 N 385.784 -1.5574 0.241426 0
M  V30 4247 C 387.03 -1.99104 -0.385406 0
M  V30 4248 C 387.363 -1.1293 -1.57988 0
M  V30 4249 O 386.638 -0.191449 -1.93555 0
M  V30 4250 C 386.921 -3.51087 -0.800616 0
M  V30 4251 C 386.774 -4.48028 0.398874 0
M  V30 4252 C 388.093 -4.08015 -1.64959 0
M  V30 4253 H 385.212 -0.723848 -0.138614 0
M  V30 4254 H 387.854 -1.86903 0.341642 0
M  V30 4255 H 386.004 -3.61615 -1.4201 0
M  V30 4256 H 387.676 -4.49487 1.03726 0
M  V30 4257 H 385.919 -4.21077 1.04293 0
M  V30 4258 H 386.59 -5.51962 0.0651056 0
M  V30 4259 H 389.066 -4.00555 -1.12672 0
M  V30 4260 H 387.942 -5.14635 -1.90898 0
M  V30 4261 H 388.203 -3.56131 -2.61961 0
M  V30 4262 N 387.262 0.0317525 -1.57568 0
M  V30 4263 C 388.21 1.05165 -2.07468 0
M  V30 4264 C 389.204 1.3761 -0.98792 0
M  V30 4265 O 390.41 1.36546 -1.17282 0
M  V30 4266 H 386.785 0.35666 -0.66204 0
M  V30 4267 H 388.756 0.604958 -2.92203 0
M  V30 4268 C 387.505 2.34488 -2.56731 0
M  V30 4269 H 386.828 2.10383 -3.39969 0
M  V30 4270 H 388.268 3.04203 -2.95358 0
M  V30 4271 C 386.727 3.03266 -1.46736 0
M  V30 4272 O 387.257 3.92988 -0.832069 0
M  V30 4273 N 385.463 2.6455 -1.20256 0
M  V30 4274 H 385.01 1.91674 -1.72102 0
M  V30 4275 H 384.968 3.10886 -0.468737 0
M  V30 4276 N 388.74 1.54641 0.303973 0
M  V30 4277 C 390.151 1.64811 0.877163 0
M  V30 4278 C 390.502 0.554838 1.88191 0
M  V30 4279 O 389.627 -0.309033 2.14182 0
M  V30 4280 C 390.222 2.9876 1.59775 0
M  V30 4281 C 388.781 3.11061 2.11938 0
M  V30 4282 C 387.928 2.60479 0.951097 0
M  V30 4283 H 390.879 1.58493 0.0810486 0
M  V30 4284 H 390.9 2.90017 2.46314 0
M  V30 4285 H 390.412 3.7831 0.866226 0
M  V30 4286 H 388.513 2.36225 2.88146 0
M  V30 4287 H 388.626 4.17171 2.35595 0
M  V30 4288 H 386.99 2.16859 1.33583 0
M  V30 4289 H 387.773 3.42504 0.233581 0
M  V30 4290 N 390.218 -0.567019 1.47046 0
M  V30 4291 C 391.446 -1.35027 1.56765 0
M  V30 4292 C 391.861 -1.8758 0.214316 0
M  V30 4293 O 391.218 -1.64471 -0.790919 0
M  V30 4294 C 391.269 -2.52698 2.58507 0
M  V30 4295 O 390.99 -2.0232 3.88585 0
M  V30 4296 C 392.491 -3.45043 2.78316 0
M  V30 4297 H 389.711 -0.41195 0.529658 0
M  V30 4298 H 392.255 -0.687832 1.92585 0
M  V30 4299 H 390.41 -3.149 2.25648 0
M  V30 4300 H 390.824 -2.79068 4.44096 0
M  V30 4301 H 392.298 -4.2405 3.53391 0
M  V30 4302 H 392.775 -3.97971 1.85784 0
M  V30 4303 H 393.381 -2.88665 3.12334 0
M  V30 4304 N 391.696 -1.35014 -0.812953 0
M  V30 4305 C 392.942 -1.2812 -1.57204 0
M  V30 4306 C 393.275 0.145869 -1.93651 0
M  V30 4307 O 392.55 1.0937 -1.60836 0
M  V30 4308 C 392.833 -2.18162 -2.86492 0
M  V30 4309 C 392.686 -3.69454 -2.56561 0
M  V30 4310 C 394.005 -2.07439 -3.88145 0
M  V30 4311 H 391.124 -0.466746 -0.570366 0
M  V30 4312 H 393.766 -1.65357 -0.935783 0
M  V30 4313 H 391.916 -1.86535 -3.40789 0
M  V30 4314 H 393.588 -4.11493 -2.08497 0
M  V30 4315 H 391.831 -3.9005 -1.89851 0
M  V30 4316 H 392.502 -4.27835 -3.48799 0
M  V30 4317 H 394.978 -2.35228 -3.4323 0
M  V30 4318 H 393.854 -2.7265 -4.76396 0
M  V30 4319 H 394.115 -1.05439 -4.29343 0
M  V30 4320 N 393.175 1.03435 -1.18907 0
M  V30 4321 C 394.122 2.11591 -0.921837 0
M  V30 4322 C 395.092 1.65499 0.141226 0
M  V30 4323 O 396.277 1.908 0.000242829 0
M  V30 4324 C 393.417 3.42012 -0.460616 0
M  V30 4325 C 392.53 4.01682 -1.58982 0
M  V30 4326 C 391.665 5.20091 -1.08069 0
M  V30 4327 C 390.704 5.71805 -2.18416 0
M  V30 4328 N 389.841 6.81494 -1.68849 0
M  V30 4329 H 394.681 2.33787 -1.8479 0
M  V30 4330 H 392.218 1.1467 -0.921373 0
M  V30 4331 H 394.176 4.16834 -0.174642 0
M  V30 4332 H 392.806 3.19944 0.428467 0
M  V30 4333 H 391.858 3.24127 -1.99113 0
M  V30 4334 H 393.17 4.36084 -2.4214 0
M  V30 4335 H 392.324 6.02051 -0.749615 0
M  V30 4336 H 391.063 4.87209 -0.218771 0
M  V30 4337 H 390.068 4.88461 -2.5236 0
M  V30 4338 H 391.293 6.06728 -3.05054 0
M  V30 4339 H 389.239 6.50475 -0.849572 0
M  V30 4340 H 389.156 7.14994 -2.45601 0
M  V30 4341 H 390.424 7.67063 -1.38689 0
M  V30 4342 N 394.653 0.992116 1.22453 0
M  V30 4343 C 395.9 0.667534 1.91181 0
M  V30 4344 C 396.228 -0.800317 1.77271 0
M  V30 4345 O 395.483 -1.59421 1.13505 0
M  V30 4346 C 395.782 1.01832 3.42586 0
M  V30 4347 C 395.448 2.47831 3.76684 0
M  V30 4348 C 394.11 2.87729 3.85701 0
M  V30 4349 C 396.462 3.42466 3.92895 0
M  V30 4350 C 393.79 4.21252 4.08367 0
M  V30 4351 C 396.142 4.75648 4.17064 0
M  V30 4352 C 394.806 5.15288 4.24305 0
M  V30 4353 H 394.076 0.244268 0.699581 0
M  V30 4354 H 396.723 1.24816 1.45235 0
M  V30 4355 H 395.028 0.355769 3.90181 0
M  V30 4356 H 396.725 0.745228 3.94014 0
M  V30 4357 H 393.315 2.15905 3.70247 0
M  V30 4358 H 397.499 3.12814 3.85307 0
M  V30 4359 H 392.755 4.51554 4.122 0
M  V30 4360 H 396.929 5.48924 4.2855 0
M  V30 4361 H 394.556 6.18769 4.41621 0
M  V30 4362 N 396.131 -1.37776 0.765217 0
M  V30 4363 C 397.378 -1.99849 0.326588 0
M  V30 4364 C 397.706 -1.60746 -1.09504 0
M  V30 4365 O 396.961 -0.84202 -1.76659 0
M  V30 4366 C 397.26 -3.5504 0.410053 0
M  V30 4367 C 396.926 -4.13891 1.78899 0
M  V30 4368 C 395.588 -4.29678 2.16635 0
M  V30 4369 C 397.94 -4.46236 2.69301 0
M  V30 4370 C 395.268 -4.7511 3.44221 0
M  V30 4371 C 397.62 -4.93089 3.9629 0
M  V30 4372 C 396.284 -5.07082 4.34078 0
M  V30 4373 H 395.554 -0.7313 0.119507 0
M  V30 4374 H 398.201 -1.64645 0.977968 0
M  V30 4375 H 396.506 -3.90451 -0.324878 0
M  V30 4376 H 398.203 -4.00966 0.0520699 0
M  V30 4377 H 394.793 -4.02026 1.48569 0
M  V30 4378 H 398.977 -4.3363 2.41409 0
M  V30 4379 H 394.233 -4.84129 3.73402 0
M  V30 4380 H 398.407 -5.17084 4.66472 0
M  V30 4381 H 396.034 -5.42046 5.33001 0
M  V30 4382 N 397.609 -0.515225 -1.4894 0
M  V30 4383 C 398.855 0.0242508 -2.02785 0
M  V30 4384 C 399.188 1.35323 -1.39289 0
M  V30 4385 O 398.463 1.87041 -0.533469 0
M  V30 4386 C 398.746 0.16184 -3.59736 0
M  V30 4387 C 398.599 -1.19127 -4.33738 0
M  V30 4388 C 399.918 0.895719 -4.30888 0
M  V30 4389 H 397.037 0.00733914 -0.736963 0
M  V30 4390 H 399.679 -0.669395 -1.77818 0
M  V30 4391 H 397.829 0.752624 -3.8114 0
M  V30 4392 H 399.501 -1.82202 -4.23792 0
M  V30 4393 H 397.744 -1.77695 -3.95736 0
M  V30 4394 H 398.415 -1.04815 -5.41957 0
M  V30 4395 H 400.891 0.394528 -4.14225 0
M  V30 4396 H 399.767 0.960859 -5.40425 0
M  V30 4397 H 400.028 1.9427 -3.97129 0
M  V30 4398 N 399.087 1.5561 -0.249682 0
M  V30 4399 C 400.333 1.99306 0.374841 0
M  V30 4400 C 400.666 1.13767 1.57387 0
M  V30 4401 O 399.941 0.201711 1.93451 0
M  V30 4402 C 400.224 3.51507 0.781986 0
M  V30 4403 C 400.077 4.4781 -0.422629 0
M  V30 4404 C 401.396 4.08884 1.62793 0
M  V30 4405 H 398.515 0.724572 0.134773 0
M  V30 4406 H 401.157 1.86719 -0.351549 0
M  V30 4407 H 399.307 3.62363 1.4009 0
M  V30 4408 H 400.979 4.48931 -1.06108 0
M  V30 4409 H 399.222 4.20518 -1.06524 0
M  V30 4410 H 399.893 5.51919 -0.0943766 0
M  V30 4411 H 402.369 4.01147 1.10547 0
M  V30 4412 H 401.245 5.1564 1.88166 0
M  V30 4413 H 401.506 3.57515 2.60068 0
M  V30 4414 N 400.565 -0.0233959 1.57583 0
M  V30 4415 C 401.513 -1.04063 2.08023 0
M  V30 4416 C 402.507 -1.37084 0.995204 0
M  V30 4417 O 403.713 -1.35923 1.18004 0
M  V30 4418 H 400.088 -0.353144 0.663922 0
M  V30 4419 H 402.059 -0.589453 2.9252 0
M  V30 4420 C 400.808 -2.33123 2.57971 0
M  V30 4421 H 400.131 -2.08577 3.4108 0
M  V30 4422 H 401.571 -3.02632 2.96967 0
M  V30 4423 C 400.03 -3.02483 1.48342 0
M  V30 4424 O 400.56 -3.92541 0.852898 0
M  V30 4425 N 398.766 -2.63909 1.21658 0
M  V30 4426 H 398.313 -1.90758 1.73116 0
M  V30 4427 H 398.271 -3.10633 0.485218 0
M  V30 4428 N 402.043 -1.548 -0.295768 0
M  V30 4429 C 403.271 -1.78327 -1.04914 0
M  V30 4430 C 403.686 -0.545316 -1.80753 0
M  V30 4431 O 403.043 0.485013 -1.75937 0
M  V30 4432 C 403.094 -2.99418 -2.02561 0
M  V30 4433 O 402.815 -4.18431 -1.29798 0
M  V30 4434 C 404.316 -3.35375 -2.89895 0
M  V30 4435 H 401.536 -0.594618 -0.310918 0
M  V30 4436 H 404.08 -2.01763 -0.333454 0
M  V30 4437 H 402.235 -2.78175 -2.69624 0
M  V30 4438 H 402.649 -4.86736 -1.95419 0
M  V30 4439 H 404.123 -4.23332 -3.54251 0
M  V30 4440 H 404.6 -2.53761 -3.58472 0
M  V30 4441 H 405.206 -3.58796 -2.28355 0
M  V30 4442 N 403.521 0.559213 -1.47345 0
M  V30 4443 C 404.798 1.31997 -1.44348 0
M  V30 4444 C 405.178 2.1064 -0.139358 0
M  V30 4445 O 404.526 2.1091 0.879153 0
M  V30 4446 C 404.736 2.22618 -2.68779 0
M  V30 4447 C 406.084 2.83701 -3.1591 0
M  V30 4448 O 407.108 2.32921 -2.69493 0
M  V30 4449 O 405.967 3.75993 -3.966 0
M  V30 4450 H 403.061 0.594251 -0.575147 0
M  V30 4451 H 405.607 0.578282 -1.59543 0
M  V30 4452 H 404.379 1.64093 -3.55231 0
M  V30 4453 H 404.002 3.04085 -2.5616 0
M  V30 4454 N 404.999 1.35443 0.805782 0
M  V30 4455 C 406.224 1.32037 1.59941 0
M  V30 4456 C 406.649 -0.0994215 1.87837 0
M  V30 4457 O 406.007 -1.06648 1.46615 0
M  V30 4458 C 406.055 2.13354 2.90711 0
M  V30 4459 O 405.159 1.5148 3.83572 0
M  V30 4460 H 404.5 0.452666 0.485787 0
M  V30 4461 H 407.03 1.78496 1.00002 0
M  V30 4462 H 407.04 2.25338 3.40128 0
M  V30 4463 H 405.715 3.16572 2.69732 0
M  V30 4464 H 404.292 1.4834 3.42125 0
M  V30 4465 N 406.477 -1.02803 1.19454 0
M  V30 4466 C 407.407 -2.12999 0.956758 0
M  V30 4467 C 408.388 -1.69743 -0.110188 0
M  V30 4468 O 409.573 -1.94148 0.0450038 0
M  V30 4469 C 406.703 -3.43746 0.495553 0
M  V30 4470 C 405.657 -4.00688 1.50443 0
M  V30 4471 C 404.983 -5.27067 0.900275 0
M  V30 4472 C 406.283 -4.35397 2.8849 0
M  V30 4473 H 407.977 -2.33148 1.87836 0
M  V30 4474 H 405.523 -1.12045 0.904539 0
M  V30 4475 H 407.476 -4.2021 0.316493 0
M  V30 4476 H 406.2 -3.23321 -0.461646 0
M  V30 4477 H 404.859 -3.2632 1.67065 0
M  V30 4478 H 404.507 -5.02959 -0.064503 0
M  V30 4479 H 404.207 -5.66127 1.57397 0
M  V30 4480 H 405.731 -6.06196 0.73203 0
M  V30 4481 H 407.145 -5.02795 2.75446 0
M  V30 4482 H 405.542 -4.85541 3.52661 0
M  V30 4483 H 406.612 -3.44662 3.41081 0
M  V30 4484 N 407.956 -0.998596 -1.21925 0
M  V30 4485 C 409.181 -0.696015 -1.95372 0
M  V30 4486 C 409.606 0.733826 -1.73195 0
M  V30 4487 O 408.964 1.50242 -1.01474 0
M  V30 4488 C 409.012 -1.01466 -3.4603 0
M  V30 4489 O 408.116 -0.116415 -4.12236 0
M  V30 4490 H 407.457 -0.259938 -0.611006 0
M  V30 4491 H 409.987 -1.33711 -1.54863 0
M  V30 4492 H 409.997 -0.958855 -3.96573 0
M  V30 4493 H 408.672 -2.05653 -3.61497 0
M  V30 4494 H 407.249 -0.228193 -3.72201 0
M  V30 4495 N 409.434 1.37368 -0.772513 0
M  V30 4496 C 410.659 2.0447 -0.347386 0
M  V30 4497 C 411.084 1.57882 1.0225 0
M  V30 4498 O 410.442 0.73941 1.65537 0
M  V30 4499 C 410.49 3.58369 -0.400479 0
M  V30 4500 O 409.594 4.0803 0.598789 0
M  V30 4501 H 408.935 0.646773 -0.15027 0
M  V30 4502 H 411.465 1.75667 -1.04892 0
M  V30 4503 H 411.475 4.07183 -0.258045 0
M  V30 4504 H 410.15 3.91633 -1.39986 0
M  V30 4505 H 408.727 3.70534 0.419411 0
M  V30 4506 N 410.912 0.523116 1.48665 0
M  V30 4507 C 412.158 -0.0134963 2.02796 0
M  V30 4508 C 412.491 -1.34582 1.40004 0
M  V30 4509 O 411.766 -1.86756 0.543381 0
M  V30 4510 C 412.049 -0.14276 3.59817 0
M  V30 4511 C 411.902 1.21425 4.331 0
M  V30 4512 C 413.221 -0.872856 4.31357 0
M  V30 4513 H 410.34 -0.00343074 0.736992 0
M  V30 4514 H 412.982 0.678816 1.7746 0
M  V30 4515 H 411.132 -0.732401 3.81534 0
M  V30 4516 H 412.804 1.84447 4.2282 0
M  V30 4517 H 411.047 1.79791 3.94788 0
M  V30 4518 H 411.718 1.07687 5.41394 0
M  V30 4519 H 414.194 -0.372555 4.14429 0
M  V30 4520 H 413.07 -0.932185 5.40927 0
M  V30 4521 H 413.331 -1.92161 3.98154 0
M  V30 4522 N 412.39 -1.55475 0.257931 0
M  V30 4523 C 413.618 -2.03609 -0.367559 0
M  V30 4524 C 414.033 -1.13687 -1.50734 0
M  V30 4525 O 413.39 -0.153479 -1.81853 0
M  V30 4526 C 413.441 -3.51001 -0.864908 0
M  V30 4527 O 413.162 -4.37499 0.229465 0
M  V30 4528 C 414.663 -4.14946 -1.55997 0
M  V30 4529 H 411.883 -0.665459 -0.0860521 0
M  V30 4530 H 414.427 -2.00843 0.385014 0
M  V30 4531 H 412.582 -3.54266 -1.56762 0
M  V30 4532 H 412.996 -5.24286 -0.14998 0
M  V30 4533 H 414.47 -5.19735 -1.85956 0
M  V30 4534 H 414.947 -3.6209 -2.4857 0
M  V30 4535 H 415.553 -4.15635 -0.901543 0
M  V30 4536 N 413.868 0.0150385 -1.57593 0
M  V30 4537 C 414.816 1.02958 -2.08572 0
M  V30 4538 C 415.81 1.36554 -1.00246 0
M  V30 4539 O 417.016 1.35295 -1.18724 0
M  V30 4540 H 413.391 0.349619 -0.665786 0
M  V30 4541 H 415.362 0.573932 -2.92829 0
M  V30 4542 C 414.111 2.31752 -2.59203 0
M  V30 4543 H 413.434 2.06765 -3.42182 0
M  V30 4544 H 414.874 3.01053 -2.98568 0
M  V30 4545 C 413.333 3.01692 -1.49945 0
M  V30 4546 O 413.863 3.92083 -0.873704 0
M  V30 4547 N 412.069 2.6326 -1.23056 0
M  V30 4548 H 411.616 1.89838 -1.74125 0
M  V30 4549 H 411.574 3.10372 -0.501685 0
M  V30 4550 N 415.346 1.54954 0.287554 0
M  V30 4551 C 416.309 1.86076 1.33823 0
M  V30 4552 C 417.309 0.734414 1.43049 0
M  V30 4553 O 418.499 1.00266 1.42452 0
M  V30 4554 C 415.631 2.05305 2.72144 0
M  V30 4555 H 416.824 2.79984 1.07465 0
M  V30 4556 H 414.377 1.47223 0.524902 0
M  V30 4557 H 415.112 1.1373 3.03704 0
M  V30 4558 H 414.897 2.873 2.66836 0
M  V30 4559 H 416.387 2.30706 3.48087 0
M  V30 4560 N 416.824 -0.551391 1.4764 0
M  V30 4561 C 418.052 -1.33357 1.58189 0
M  V30 4562 C 418.467 -1.87342 0.234199 0
M  V30 4563 O 417.824 -1.65301 -0.77343 0
M  V30 4564 C 417.875 -2.49942 2.61173 0
M  V30 4565 O 417.596 -1.98187 3.90709 0
M  V30 4566 C 419.097 -3.42072 2.8196 0
M  V30 4567 H 416.317 -0.40631 0.533998 0
M  V30 4568 H 418.861 -0.667367 1.93304 0
M  V30 4569 H 417.016 -3.12489 2.28975 0
M  V30 4570 H 417.43 -2.74342 4.47031 0
M  V30 4571 H 418.904 -4.20278 3.57869 0
M  V30 4572 H 419.381 -3.95978 1.89995 0
M  V30 4573 H 419.987 -2.85336 3.15378 0
M  V30 4574 N 418.302 -1.35869 -0.798587 0
M  V30 4575 C 419.527 -1.32883 -1.59238 0
M  V30 4576 C 419.952 0.0894587 -1.87887 0
M  V30 4577 O 419.31 1.05869 -1.47178 0
M  V30 4578 C 419.358 -2.14892 -2.89575 0
M  V30 4579 O 418.462 -1.53512 -3.82763 0
M  V30 4580 H 417.803 -0.455236 -0.48338 0
M  V30 4581 H 420.333 -1.79024 -0.990539 0
M  V30 4582 H 420.343 -2.27139 -3.38928 0
M  V30 4583 H 419.018 -3.17998 -2.68049 0
M  V30 4584 H 417.595 -1.50153 -3.41334 0
M  V30 4585 N 419.78 1.02168 -1.19998 0
M  V30 4586 C 421.029 1.75091 -1.0013 0
M  V30 4587 C 421.342 1.89923 0.467835 0
M  V30 4588 O 422.548 2.59888 0.785515 0
M  V30 4589 C 421.004 3.14892 -1.74273 0
M  V30 4590 C 420.612 3.0809 -3.25245 0
M  V30 4591 C 422.356 3.9206 -1.62755 0
M  V30 4592 C 420.263 4.42867 -3.91948 0
M  V30 4593 H 419.193 0.656394 -0.37103 0
M  V30 4594 H 421.844 1.14284 -1.43567 0
M  V30 4595 H 420.226 3.7621 -1.2362 0
M  V30 4596 H 421.4 2.5611 -3.83072 0
M  V30 4597 H 419.715 2.44416 -3.3712 0
M  V30 4598 H 422.312 4.91764 -2.09934 0
M  V30 4599 H 422.655 4.12199 -0.582894 0
M  V30 4600 H 423.188 3.37359 -2.10793 0
M  V30 4601 H 419.927 4.27931 -4.96543 0
M  V30 4602 H 419.447 4.94874 -3.3891 0
M  V30 4603 H 421.126 5.11728 -3.95909 0
M  V30 4604 N 421.258 1.00505 1.21394 0
M  V30 4605 C 422.19 0.52372 2.23136 0
M  V30 4606 C 423.203 -0.387714 1.58116 0
M  V30 4607 O 424.392 -0.187905 1.77508 0
M  V30 4608 C 421.492 -0.258885 3.3791 0
M  V30 4609 C 420.665 0.651634 4.32519 0
M  V30 4610 C 419.724 -0.0813705 5.26137 0
M  V30 4611 O 418.75 0.537295 5.66658 0
M  V30 4612 N 419.952 -1.35992 5.64346 0
M  V30 4613 H 422.717 1.39865 2.65062 0
M  V30 4614 H 420.278 0.881196 1.35818 0
M  V30 4615 H 422.27 -0.758208 3.97534 0
M  V30 4616 H 420.84 -1.035 2.94968 0
M  V30 4617 H 420.06 1.33145 3.71034 0
M  V30 4618 H 421.348 1.27129 4.92662 0
M  V30 4619 H 420.746 -1.88368 5.33417 0
M  V30 4620 H 419.303 -1.8042 6.26332 0
M  V30 4621 N 422.737 -1.36956 0.779787 0
M  V30 4622 C 423.986 -1.98738 0.344405 0
M  V30 4623 C 424.299 -1.62596 -1.08728 0
M  V30 4624 O 425.505 -2.1754 -1.62445 0
M  V30 4625 C 423.961 -3.5544 0.564829 0
M  V30 4626 C 423.569 -4.00514 2.0073 0
M  V30 4627 C 425.313 -4.24059 0.193471 0
M  V30 4628 C 423.22 -5.49957 2.17489 0
M  V30 4629 H 422.15 -0.743561 0.12503 0
M  V30 4630 H 424.801 -1.56381 0.960057 0
M  V30 4631 H 423.183 -3.95817 -0.120397 0
M  V30 4632 H 424.357 -3.71362 2.72814 0
M  V30 4633 H 422.672 -3.44703 2.336 0
M  V30 4634 H 425.269 -5.33874 0.297097 0
M  V30 4635 H 425.612 -4.07378 -0.857263 0
M  V30 4636 H 426.145 -3.89012 0.831556 0
M  V30 4637 H 422.884 -5.71574 3.2091 0
M  V30 4638 H 422.404 -5.80767 1.49899 0
M  V30 4639 H 424.083 -6.16043 1.97738 0
M  V30 4640 N 424.215 -0.530993 -1.48385 0
M  V30 4641 C 425.443 -0.00134122 -2.069 0
M  V30 4642 C 425.858 1.2805 -1.3874 0
M  V30 4643 O 425.215 1.76204 -0.475244 0
M  V30 4644 C 425.266 0.225256 -3.60798 0
M  V30 4645 O 424.987 -1.0058 -4.26398 0
M  V30 4646 C 426.488 0.795172 -4.3611 0
M  V30 4647 H 423.708 -0.0339704 -0.67014 0
M  V30 4648 H 426.252 -0.736926 -1.90761 0
M  V30 4649 H 424.407 0.910891 -3.76539 0
M  V30 4650 H 424.821 -0.787165 -5.1856 0
M  V30 4651 H 426.295 0.903143 -5.44562 0
M  V30 4652 H 426.772 1.80031 -4.00606 0
M  V30 4653 H 427.378 0.146069 -4.25049 0
M  V30 4654 N 425.693 1.55336 -0.266172 0
M  V30 4655 C 426.656 2.20878 0.612001 0
M  V30 4656 C 427.656 1.18388 1.08816 0
M  V30 4657 O 428.846 1.4335 0.989774 0
M  V30 4658 C 425.978 2.86765 1.84332 0
M  V30 4659 H 427.171 2.99873 0.0398718 0
M  V30 4660 H 424.724 1.56291 -0.0167309 0
M  V30 4661 H 425.459 2.11759 2.45619 0
M  V30 4662 H 425.244 3.61862 1.5099 0
M  V30 4663 H 426.734 3.36867 2.46801 0
M  V30 4664 N 427.171 -0.0066808 1.57599 0
M  V30 4665 C 428.582 -0.550379 1.78403 0
M  V30 4666 C 428.933 -1.74339 0.900014 0
M  V30 4667 O 428.058 -2.16166 0.100713 0
M  V30 4668 C 428.653 -1.00523 3.23544 0
M  V30 4669 C 427.212 -1.49428 3.45468 0
M  V30 4670 C 426.359 -0.442444 2.73748 0
M  V30 4671 H 429.31 0.219508 1.57175 0
M  V30 4672 H 429.331 -1.87157 3.31289 0
M  V30 4673 H 428.843 -0.136735 3.87859 0
M  V30 4674 H 426.944 -2.3839 2.86358 0
M  V30 4675 H 427.057 -1.52635 4.54136 0
M  V30 4676 H 425.421 -0.902578 2.38171 0
M  V30 4677 H 426.204 0.416973 3.40758 0
M  V30 4678 N 428.649 -1.55105 -0.279332 0
M  V30 4679 C 429.612 -1.86783 -1.32834 0
M  V30 4680 C 430.612 -0.74199 -1.42657 0
M  V30 4681 O 431.802 -1.0102 -1.41918 0
M  V30 4682 C 428.934 -2.06746 -2.71052 0
M  V30 4683 H 430.127 -2.8055 -1.05979 0
M  V30 4684 H 427.68 -1.47499 -0.517087 0
M  V30 4685 H 428.415 -1.15339 -3.03097 0
M  V30 4686 H 428.2 -2.88711 -2.65309 0
M  V30 4687 H 429.69 -2.32549 -3.46858 0
M  V30 4688 N 430.127 0.543554 -1.4793 0
M  V30 4689 C 431.352 1.32995 -1.59145 0
M  V30 4690 C 431.777 1.86472 -0.246956 0
M  V30 4691 O 431.135 1.63696 0.779324 0
M  V30 4692 C 431.183 2.46623 -2.63077 0
M  V30 4693 O 430.287 3.49261 -2.19295 0
M  V30 4694 H 429.628 0.394472 -0.534124 0
M  V30 4695 H 432.158 0.655489 -1.93816 0
M  V30 4696 H 432.168 2.93001 -2.83926 0
M  V30 4697 H 430.843 2.07059 -3.60693 0
M  V30 4698 H 429.42 3.09094 -2.08603 0
M  V30 4699 N 431.605 1.3629 0.791371 0
M  V30 4700 C 432.538 1.24816 1.9104 0
M  V30 4701 C 433.516 0.132739 1.62057 0
M  V30 4702 O 434.7 0.303527 1.8604 0
M  V30 4703 C 431.827 0.925355 3.25814 0
M  V30 4704 C 430.873 2.05495 3.7373 0
M  V30 4705 S 431.706 3.67255 3.89723 0
M  V30 4706 C 432.862 3.37084 5.27376 0
M  V30 4707 H 433.095 2.19533 2.00481 0
M  V30 4708 H 430.628 1.21684 0.950393 0
M  V30 4709 H 432.586 0.745924 4.03666 0
M  V30 4710 H 431.247 -0.00400098 3.141 0
M  V30 4711 H 430.44 1.7836 4.71385 0
M  V30 4712 H 430.042 2.1935 3.02922 0
M  V30 4713 H 432.334 2.90856 6.1189 0
M  V30 4714 H 433.277 4.33995 5.59512 0
M  V30 4715 H 433.685 2.7248 4.94383 0
M  V30 4716 N 433.083 -1.0153 1.20538 0
M  V30 4717 C 434.013 -2.11972 0.979295 0
M  V30 4718 C 434.994 -1.6985 -0.0921787 0
M  V30 4719 O 436.179 -1.94089 0.0655932 0
M  V30 4720 C 433.309 -3.43201 0.531984 0
M  V30 4721 C 432.263 -3.9907 1.54685 0
M  V30 4722 C 431.589 -5.26082 0.956127 0
M  V30 4723 C 432.889 -4.32313 2.93092 0
M  V30 4724 H 434.583 -2.31143 1.90298 0
M  V30 4725 H 432.129 -1.11079 0.916372 0
M  V30 4726 H 434.082 -4.1985 0.361044 0
M  V30 4727 H 432.806 -3.23792 -0.427327 0
M  V30 4728 H 431.465 -3.2453 1.70517 0
M  V30 4729 H 431.113 -5.02999 -0.0111538 0
M  V30 4730 H 430.813 -5.64426 1.63393 0
M  V30 4731 H 432.337 -6.05386 0.796284 0
M  V30 4732 H 433.751 -4.99845 2.80763 0
M  V30 4733 H 432.148 -4.81774 3.57791 0
M  V30 4734 H 433.218 -3.41025 3.44717 0
M  V30 4735 N 434.561 -1.01147 -1.20859 0
M  V30 4736 C 435.81 -0.693214 -1.89413 0
M  V30 4737 C 436.123 0.779969 -1.79376 0
M  V30 4738 O 437.329 1.21057 -2.43017 0
M  V30 4739 C 435.785 -1.18949 -3.39675 0
M  V30 4740 C 435.393 -2.68921 -3.58309 0
M  V30 4741 C 437.137 -0.94642 -4.13815 0
M  V30 4742 C 435.044 -3.12056 -5.0237 0
M  V30 4743 H 433.974 -0.255595 -0.709357 0
M  V30 4744 H 436.625 -1.22349 -1.36759 0
M  V30 4745 H 435.007 -0.587228 -3.91622 0
M  V30 4746 H 436.181 -3.34652 -3.16772 0
M  V30 4747 H 434.496 -2.91314 -2.97532 0
M  V30 4748 H 437.093 -1.24417 -5.20023 0
M  V30 4749 H 437.436 0.117219 -4.16135 0
M  V30 4750 H 437.969 -1.5118 -3.67953 0
M  V30 4751 H 434.708 -4.17674 -5.05202 0
M  V30 4752 H 434.228 -2.51041 -5.44737 0
M  V30 4753 H 435.907 -3.04403 -5.70918 0
M  V30 4754 N 436.039 1.36541 -0.78704 0
M  V30 4755 C 437.287 1.98911 -0.357633 0
M  V30 4756 C 437.608 1.62778 1.07371 0
M  V30 4757 O 436.878 0.900612 1.73971 0
M  V30 4758 H 435.458 0.735734 -0.129246 0
M  V30 4759 H 438.12 1.66776 -1.00855 0
M  V30 4760 H 437.216 3.08874 -0.447549 0
M  V30 4761 N 437.518 0.538854 1.48102 0
M  V30 4762 C 438.795 -0.0568108 1.95517 0
M  V30 4763 C 439.175 -1.50408 1.48124 0
M  V30 4764 O 438.523 -2.17133 0.711727 0
M  V30 4765 C 438.733 0.0696262 3.48931 0
M  V30 4766 C 440.081 -0.0851202 4.24515 0
M  V30 4767 O 441.105 -0.0037347 3.562 0
M  V30 4768 O 439.964 -0.257025 5.45895 0
M  V30 4769 H 437.058 -0.0743695 0.823649 0
M  V30 4770 H 439.604 0.604081 1.58584 0
M  V30 4771 H 438.376 1.07744 3.76174 0
M  V30 4772 H 437.999 -0.629714 3.92582 0
M  V30 4773 N 438.996 -1.55193 0.274407 0
M  V30 4774 C 439.946 -2.19184 -0.627882 0
M  V30 4775 C 440.93 -1.15625 -1.11892 0
M  V30 4776 O 442.122 -1.41441 -1.06411 0
M  V30 4777 C 439.251 -2.91591 -1.81189 0
M  V30 4778 C 438.337 -4.02438 -1.33807 0
M  V30 4779 N 438.728 -5.0246 -0.580349 0
M  V30 4780 C 437.026 -4.15496 -1.62109 0
M  V30 4781 C 437.727 -5.80756 -0.331344 0
M  V30 4782 N 436.703 -5.36038 -0.903556 0
M  V30 4783 H 440.505 -2.93871 -0.0411216 0
M  V30 4784 H 438.019 -1.62213 0.0779348 0
M  V30 4785 H 440.016 -3.35883 -2.46957 0
M  V30 4786 H 438.676 -2.18414 -2.40261 0
M  V30 4787 H 439.687 -5.17399 -0.227762 0
M  V30 4788 H 436.364 -3.53509 -2.22121 0
M  V30 4789 H 437.754 -6.71335 0.275454 0
M  V30 4790 N 440.474 -0.00167713 -1.576 0
M  V30 4791 C 441.704 0.692754 -1.94639 0
M  V30 4792 C 442.112 1.67744 -0.87513 0
M  V30 4793 O 441.455 1.8305 0.154382 0
M  V30 4794 C 441.517 1.47881 -3.27676 0
M  V30 4795 C 441.181 0.655518 -4.52274 0
M  V30 4796 C 442.178 -0.0575214 -5.19868 0
M  V30 4797 C 439.863 0.600994 -4.98692 0
M  V30 4798 C 441.857 -0.814052 -6.3218 0
M  V30 4799 C 439.544 -0.15926 -6.10892 0
M  V30 4800 C 440.542 -0.865515 -6.77494 0
M  V30 4801 O 440.23 -1.61336 -7.87544 0
M  V30 4802 H 439.962 0.197792 -0.646417 0
M  V30 4803 H 442.516 -0.049423 -2.05341 0
M  V30 4804 H 440.746 2.2655 -3.13388 0
M  V30 4805 H 442.435 2.05874 -3.49816 0
M  V30 4806 H 443.201 -0.0245611 -4.84994 0
M  V30 4807 H 439.08 1.14025 -4.46676 0
M  V30 4808 H 442.624 -1.36584 -6.84098 0
M  V30 4809 H 438.521 -0.194035 -6.45208 0
M  V30 4810 H 439.289 -1.53025 -8.04068 0
M  V30 4811 N 441.952 1.55251 0.271103 0
M  V30 4812 C 442.882 1.9127 1.33933 0
M  V30 4813 C 443.863 0.77478 1.5143 0
M  V30 4814 O 445.048 1.03307 1.64442 0
M  V30 4815 C 442.178 2.18627 2.69851 0
M  V30 4816 C 441.132 3.34442 2.67081 0
M  V30 4817 C 440.458 3.47284 4.06569 0
M  V30 4818 C 441.758 4.70784 2.26185 0
M  V30 4819 H 443.452 2.80744 1.04035 0
M  V30 4820 H 440.998 1.35077 0.499017 0
M  V30 4821 H 442.951 2.42413 3.44694 0
M  V30 4822 H 441.675 1.25955 3.01335 0
M  V30 4823 H 440.334 3.10627 1.94695 0
M  V30 4824 H 439.982 2.52074 4.35279 0
M  V30 4825 H 439.682 4.25152 4.0561 0
M  V30 4826 H 441.206 3.73363 4.83148 0
M  V30 4827 H 442.62 4.94102 2.90751 0
M  V30 4828 H 441.017 5.51582 2.36384 0
M  V30 4829 H 442.087 4.69478 1.21319 0
M  V30 4830 N 443.43 -0.535701 1.48216 0
M  V30 4831 C 444.67 -1.30238 1.57536 0
M  V30 4832 C 445.034 -1.90479 0.241229 0
M  V30 4833 O 446.235 -2.67983 0.20938 0
M  V30 4834 C 444.506 -2.3669 2.67792 0
M  V30 4835 S 446.065 -3.23159 2.9684 0
M  V30 4836 H 442.883 -0.443093 0.556048 0
M  V30 4837 H 445.485 -0.610937 1.85709 0
M  V30 4838 H 444.189 -1.90905 3.63296 0
M  V30 4839 H 443.72 -3.10548 2.41502 0
M  V30 4840 H 445.735 -4.36647 2.35699 0
M  V30 4841 N 444.908 -1.36708 -0.784132 0
M  V30 4842 C 446.185 -1.21776 -1.53069 0
M  V30 4843 C 446.565 0.193876 -2.10208 0
M  V30 4844 O 445.913 1.20012 -1.94446 0
M  V30 4845 C 446.123 -2.30395 -2.62143 0
M  V30 4846 C 447.471 -2.67325 -3.29882 0
M  V30 4847 O 448.495 -2.29478 -2.7243 0
M  V30 4848 O 447.354 -3.32485 -4.33724 0
M  V30 4849 H 444.448 -0.474459 -0.677361 0
M  V30 4850 H 446.994 -1.48454 -0.82216 0
M  V30 4851 H 445.766 -3.2498 -2.17953 0
M  V30 4852 H 445.389 -2.05112 -3.40609 0
M  V30 4853 N 446.386 1.0089 -1.21074 0
M  V30 4854 C 447.632 1.74866 -1.02712 0
M  V30 4855 C 447.965 1.89178 0.438787 0
M  V30 4856 O 447.24 1.42325 1.32567 0
M  V30 4857 C 447.523 3.16347 -1.72036 0
M  V30 4858 C 447.376 3.09782 -3.26121 0
M  V30 4859 C 448.695 4.15187 -1.45973 0
M  V30 4860 H 445.814 0.634736 -0.374539 0
M  V30 4861 H 448.456 1.17646 -1.49196 0
M  V30 4862 H 446.606 3.65201 -1.32517 0
M  V30 4863 H 448.278 2.68673 -3.74983 0
M  V30 4864 H 446.521 2.46982 -3.56626 0
M  V30 4865 H 447.192 4.09829 -3.6979 0
M  V30 4866 H 449.668 3.75022 -1.80272 0
M  V30 4867 H 448.544 5.12331 -1.96999 0
M  V30 4868 H 448.805 4.40386 -0.388924 0
M  V30 4869 N 447.864 1.01787 1.20321 0
M  V30 4870 C 449.092 0.727194 1.937 0
M  V30 4871 C 449.507 -0.712305 1.74848 0
M  V30 4872 O 448.864 -1.48327 1.06327 0
M  V30 4873 C 448.915 1.05497 3.45764 0
M  V30 4874 O 448.636 2.43794 3.64 0
M  V30 4875 C 450.137 0.785534 4.36285 0
M  V30 4876 H 447.357 0.266939 0.615617 0
M  V30 4877 H 449.901 1.35939 1.52777 0
M  V30 4878 H 448.056 0.468158 3.84561 0
M  V30 4879 H 448.47 2.55656 4.57974 0
M  V30 4880 H 449.944 1.06495 5.4163 0
M  V30 4881 H 450.421 -0.280273 4.38305 0
M  V30 4882 H 451.027 1.35456 4.03152 0
M  V30 4883 N 449.342 -1.36122 0.79427 0
M  V30 4884 C 450.588 -1.99846 0.378542 0
M  V30 4885 C 450.943 -1.61898 -1.03955 0
M  V30 4886 O 450.236 -0.866013 -1.70912 0
M  V30 4887 C 450.43 -3.5409 0.48527 0
M  V30 4888 C 450.259 -4.0702 1.91219 0
M  V30 4889 C 449.029 -4.36944 2.53787 0
M  V30 4890 C 451.227 -4.26435 2.87502 0
M  V30 4891 N 449.209 -4.75727 3.88017 0
M  V30 4892 C 450.58 -4.68077 4.06576 0
M  V30 4893 C 452.635 -4.08616 2.84495 0
M  V30 4894 C 451.338 -4.93765 5.23057 0
M  V30 4895 C 453.364 -4.35453 4.00169 0
M  V30 4896 C 452.726 -4.77355 5.17988 0
M  V30 4897 H 448.825 -0.759549 0.186034 0
M  V30 4898 H 451.409 -1.65043 1.0329 0
M  V30 4899 H 449.58 -3.88151 -0.139023 0
M  V30 4900 H 451.312 -4.04675 0.0453192 0
M  V30 4901 H 448.067 -4.26822 2.05231 0
M  V30 4902 H 448.491 -4.99396 4.57092 0
M  V30 4903 H 453.133 -3.75373 1.94564 0
M  V30 4904 H 450.851 -5.25887 6.1357 0
M  V30 4905 H 454.437 -4.2323 3.99208 0
M  V30 4906 H 453.317 -4.97718 6.06008 0
M  V30 4907 N 450.82 -0.546701 -1.47814 0
M  V30 4908 C 451.783 0.196287 -2.28358 0
M  V30 4909 C 452.783 0.852437 -1.36346 0
M  V30 4910 O 453.973 0.709913 -1.59078 0
M  V30 4911 C 451.105 1.28579 -3.15722 0
M  V30 4912 H 452.298 -0.511086 -2.95513 0
M  V30 4913 H 449.851 -0.303248 -1.5333 0
M  V30 4914 H 450.586 2.0259 -2.53235 0
M  V30 4915 H 450.371 0.820229 -3.83425 0
M  V30 4916 H 451.861 1.80793 -3.76435 0
M  V30 4917 N 452.299 1.55045 -0.282633 0
M  V30 4918 C 453.527 2.04168 0.33512 0
M  V30 4919 C 453.942 1.16071 1.48906 0
M  V30 4920 O 453.299 0.182391 1.81586 0
M  V30 4921 C 453.35 3.52332 0.808957 0
M  V30 4922 O 453.071 4.37078 -0.299038 0
M  V30 4923 C 454.572 4.17375 1.49375 0
M  V30 4924 H 451.792 0.666744 0.0754543 0
M  V30 4925 H 454.336 2.00205 -0.416918 0
M  V30 4926 H 452.491 3.56715 1.51106 0
M  V30 4927 H 452.905 5.24458 0.0665514 0
M  V30 4928 H 454.379 5.22627 1.77664 0
M  V30 4929 H 454.856 3.65999 2.42778 0
M  V30 4930 H 455.462 4.17016 0.835305 0
M  V30 4931 N 453.777 0.010035 1.57597 0
M  V30 4932 C 454.709 -1.00649 2.05918 0
M  V30 4933 C 455.722 -1.30077 0.978964 0
M  V30 4934 O 456.911 -1.26878 1.25556 0
M  V30 4935 C 454.011 -2.33876 2.45265 0
M  V30 4936 C 453.184 -2.23242 3.7614 0
M  V30 4937 C 452.243 -3.39242 4.02245 0
M  V30 4938 O 451.269 -3.1698 4.72771 0
M  V30 4939 N 452.471 -4.6242 3.50924 0
M  V30 4940 H 455.236 -0.594333 2.93748 0
M  V30 4941 H 452.797 -0.17714 1.60928 0
M  V30 4942 H 454.789 -3.1027 2.59836 0
M  V30 4943 H 453.359 -2.66799 1.62902 0
M  V30 4944 H 452.579 -1.31696 3.71551 0
M  V30 4945 H 453.867 -2.13321 4.61922 0
M  V30 4946 H 453.265 -4.83404 2.93832 0
M  V30 4947 H 451.822 -5.36046 3.70807 0
M  V30 4948 N 455.255 -1.55392 -0.262866 0
M  V30 4949 C 456.165 -1.92077 -1.34698 0
M  V30 4950 C 457.181 -0.819227 -1.53508 0
M  V30 4951 O 458.357 -1.11921 -1.67439 0
M  V30 4952 C 455.422 -2.19407 -2.68443 0
M  V30 4953 C 454.483 -3.42905 -2.58292 0
M  V30 4954 C 453.716 -3.68921 -3.85659 0
M  V30 4955 O 453.939 -2.97275 -4.8681 0
M  V30 4956 O 452.873 -4.62455 -3.85252 0
M  V30 4957 H 456.699 -2.84384 -1.06581 0
M  V30 4958 H 454.284 -1.42069 -0.462264 0
M  V30 4959 H 456.166 -2.38365 -3.47506 0
M  V30 4960 H 454.841 -1.30282 -2.96325 0
M  V30 4961 H 453.748 -3.29272 -1.7757 0
M  V30 4962 H 455.081 -4.32282 -2.35358 0
M  V30 4963 N 456.733 0.527833 -1.48498 0
M  V30 4964 C 458.149 0.856571 -1.34666 0
M  V30 4965 C 458.349 1.98271 -0.35931 0
M  V30 4966 O 457.405 2.51551 0.218703 0
M  V30 4967 C 458.718 1.22207 -2.74747 0
M  V30 4968 C 460.266 1.33183 -2.83251 0
M  V30 4969 C 460.741 1.73075 -4.24039 0
M  V30 4970 N 462.232 1.80174 -4.26722 0
M  V30 4971 C 462.967 2.1243 -5.32598 0
M  V30 4972 N 462.463 2.43096 -6.4875 0
M  V30 4973 N 464.256 2.13454 -5.19994 0
M  V30 4974 H 456.407 -0.215174 -2.11307 0
M  V30 4975 H 458.67 -0.0336281 -0.947403 0
M  V30 4976 H 458.376 0.468195 -3.4857 0
M  V30 4977 H 458.25 2.17173 -3.08409 0
M  V30 4978 H 460.637 2.07647 -2.09683 0
M  V30 4979 H 460.718 0.363333 -2.53206 0
M  V30 4980 H 460.362 0.991712 -4.98124 0
M  V30 4981 H 460.292 2.70979 -4.51529 0
M  V30 4982 H 462.783 1.58744 -3.42942 0
M  V30 4983 H 463.096 2.6682 -7.25277 0
M  V30 4984 H 461.441 2.40611 -6.52021 0
M  V30 4985 H 464.632 1.88956 -4.28268 0
M  V30 4986 H 464.805 2.38261 -6.02608 0
M  V30 4987 N 458.211 1.37122 0.776871 0
M  V30 4988 C 459.46 1.31373 1.53049 0
M  V30 4989 C 459.773 -0.101016 1.95339 0
M  V30 4990 O 460.979 -0.280953 2.70042 0
M  V30 4991 C 459.435 2.30567 2.76346 0
M  V30 4992 C 459.043 3.77543 2.41175 0
M  V30 4993 C 460.787 2.33818 3.54301 0
M  V30 4994 C 458.694 4.68481 3.60943 0
M  V30 4995 H 457.624 0.488234 0.574581 0
M  V30 4996 H 460.275 1.62554 0.851372 0
M  V30 4997 H 458.657 1.92396 3.46121 0
M  V30 4998 H 459.831 4.24521 1.79216 0
M  V30 4999 H 458.146 3.77187 1.76405 0
M  V30 5000 H 460.743 2.98965 4.4331 0
M  V30 5001 H 461.086 1.3503 3.93793 0
M  V30 5002 H 461.619 2.7067 2.91518 0
M  V30 5003 H 458.358 5.68378 3.26537 0
M  V30 5004 H 457.878 4.2621 4.22025 0
M  V30 5005 H 459.557 4.85366 4.27819 0
M  V30 5006 N 459.689 -1.00246 1.21608 0
M  V30 5007 C 460.914 -1.78167 1.06167 0
M  V30 5008 C 461.339 -1.84138 -0.384035 0
M  V30 5009 O 460.697 -1.28683 -1.27712 0
M  V30 5010 C 460.745 -3.19786 1.66642 0
M  V30 5011 O 459.849 -4.02153 0.913613 0
M  V30 5012 H 459.19 -0.549 0.37349 0
M  V30 5013 H 461.72 -1.25994 1.61204 0
M  V30 5014 H 461.73 -3.70451 1.70969 0
M  V30 5015 H 460.405 -3.14754 2.7185 0
M  V30 5016 H 458.982 -3.60711 0.945635 0
M  V30 5017 N 461.167 -1.02423 -1.1978 0
M  V30 5018 C 462.097 -0.62157 -2.25075 0
M  V30 5019 C 463.078 0.367148 -1.6609 0
M  V30 5020 O 464.263 0.250892 -1.92573 0
M  V30 5021 C 461.393 0.0331826 -3.47284 0
M  V30 5022 C 460.347 -0.877323 -4.18912 0
M  V30 5023 C 459.673 -0.0879296 -5.34628 0
M  V30 5024 C 460.973 -2.18892 -4.74219 0
M  V30 5025 H 462.667 -1.50179 -2.59011 0
M  V30 5026 H 460.213 -0.723547 -1.24502 0
M  V30 5027 H 462.166 0.326488 -4.20133 0
M  V30 5028 H 460.89 0.948164 -3.12534 0
M  V30 5029 H 459.549 -1.15475 -3.47938 0
M  V30 5030 H 459.197 0.828941 -4.96123 0
M  V30 5031 H 458.897 -0.694359 -5.83483 0
M  V30 5032 H 460.421 0.198743 -6.10276 0
M  V30 5033 H 461.835 -1.95746 -5.38847 0
M  V30 5034 H 460.232 -2.74686 -5.33542 0
M  V30 5035 H 461.302 -2.84674 -3.92541 0
M  V30 5036 N 462.645 1.35699 -0.801477 0
M  V30 5037 C 463.577 2.28598 -0.166028 0
M  V30 5038 C 464.59 1.50044 0.631721 0
M  V30 5039 O 465.779 1.72339 0.464921 0
M  V30 5040 C 462.879 3.29625 0.787451 0
M  V30 5041 C 462.052 4.37384 0.037171 0
M  V30 5042 C 461.111 5.183 0.908375 0
M  V30 5043 O 460.137 5.68053 0.361189 0
M  V30 5044 N 461.339 5.35912 2.23112 0
M  V30 5045 H 464.104 2.83771 -0.964071 0
M  V30 5046 H 461.665 1.47994 -0.656469 0
M  V30 5047 H 463.657 3.80648 1.37439 0
M  V30 5048 H 462.227 2.75004 1.48632 0
M  V30 5049 H 461.447 3.87364 -0.730935 0
M  V30 5050 H 462.735 5.0653 -0.480109 0
M  V30 5051 H 462.133 4.97125 2.69968 0
M  V30 5052 H 460.69 5.90133 2.76741 0
M  V30 5053 N 464.123 0.554532 1.47522 0
M  V30 5054 C 465.369 0.0377449 2.03365 0
M  V30 5055 C 465.724 -1.29654 1.42154 0
M  V30 5056 O 465.017 -1.83022 0.566865 0
M  V30 5057 C 465.211 -0.115927 3.57212 0
M  V30 5058 C 465.04 1.20191 4.33341 0
M  V30 5059 C 463.81 1.76849 4.73342 0
M  V30 5060 C 466.008 2.11849 4.68641 0
M  V30 5061 N 463.99 3.02665 5.34104 0
M  V30 5062 C 465.361 3.22245 5.29677 0
M  V30 5063 C 467.416 2.11876 4.5057 0
M  V30 5064 C 466.119 4.32763 5.74551 0
M  V30 5065 C 468.145 3.21405 4.9644 0
M  V30 5066 C 467.507 4.30519 5.57523 0
M  V30 5067 H 463.606 0.0559107 0.779999 0
M  V30 5068 H 466.19 0.741232 1.80038 0
M  V30 5069 H 464.361 -0.788533 3.80311 0
M  V30 5070 H 466.093 -0.634538 3.99695 0
M  V30 5071 H 462.848 1.30681 4.55214 0
M  V30 5072 H 463.272 3.66788 5.69031 0
M  V30 5073 H 467.914 1.28801 4.02704 0
M  V30 5074 H 465.632 5.166 6.2141 0
M  V30 5075 H 469.218 3.22509 4.8423 0
M  V30 5076 H 468.098 5.13873 5.92371 0
M  V30 5077 N 465.601 -1.54893 0.290851 0
M  V30 5078 C 466.531 -2.26103 -0.583084 0
M  V30 5079 C 467.512 -1.25684 -1.14619 0
M  V30 5080 O 468.697 -1.54436 -1.17741 0
M  V30 5081 C 465.827 -2.99409 -1.75987 0
M  V30 5082 C 464.781 -4.0689 -1.32758 0
M  V30 5083 C 464.107 -4.67856 -2.58872 0
M  V30 5084 C 465.407 -5.20215 -0.46624 0
M  V30 5085 H 467.101 -2.99398 0.0108214 0
M  V30 5086 H 464.647 -1.43998 0.00664468 0
M  V30 5087 H 466.6 -3.47943 -2.37727 0
M  V30 5088 H 465.324 -2.23675 -2.37985 0
M  V30 5089 H 463.983 -3.59191 -0.733299 0
M  V30 5090 H 463.631 -3.88772 -3.19163 0
M  V30 5091 H 463.331 -5.40438 -2.30653 0
M  V30 5092 H 464.855 -5.19147 -3.21433 0
M  V30 5093 H 466.269 -5.64704 -0.989047 0
M  V30 5094 H 464.666 -5.99455 -0.27826 0
M  V30 5095 H 465.736 -4.82198 0.511173 0
M  V30 5096 N 467.08 -0.0183926 -1.57589 0
M  V30 5097 C 468.496 0.337897 -1.55982 0
M  V30 5098 C 468.696 1.73604 -1.02294 0
M  V30 5099 O 467.752 2.43589 -0.664895 0
M  V30 5100 C 469.065 0.196305 -3.00059 0
M  V30 5101 C 470.613 0.269875 -3.11834 0
M  V30 5102 C 471.088 0.157197 -4.5773 0
M  V30 5103 N 472.579 0.214521 -4.62703 0
M  V30 5104 C 473.314 0.150955 -5.73201 0
M  V30 5105 N 472.81 0.0369212 -6.9279 0
M  V30 5106 N 474.603 0.204162 -5.61729 0
M  V30 5107 H 466.754 -0.93279 -1.90821 0
M  V30 5108 H 469.017 -0.359253 -0.877292 0
M  V30 5109 H 468.723 -0.766383 -3.43248 0
M  V30 5110 H 468.597 0.970908 -3.6449 0
M  V30 5111 H 470.984 1.22302 -2.68563 0
M  V30 5112 H 471.065 -0.534918 -2.50144 0
M  V30 5113 H 470.709 -0.792479 -5.01679 0
M  V30 5114 H 470.639 0.980717 -5.17387 0
M  V30 5115 H 473.13 0.303238 -3.76681 0
M  V30 5116 H 473.443 -0.00518321 -7.728 0
M  V30 5117 H 471.788 0.0022886 -6.95 0
M  V30 5118 H 474.979 0.291575 -4.67191 0
M  V30 5119 H 475.152 0.15116 -6.47824 0
M  V30 5120 N 468.558 1.5553 0.254621 0
M  V30 5121 C 469.974 1.4778 0.602753 0
M  V30 5122 C 470.174 0.707047 1.88688 0
M  V30 5123 O 469.23 0.233288 2.5142 0
M  V30 5124 C 470.543 2.92133 0.712648 0
M  V30 5125 C 472.091 3.02458 0.805488 0
M  V30 5126 C 472.566 4.48102 0.947009 0
M  V30 5127 N 474.057 4.52008 1.01207 0
M  V30 5128 C 474.792 5.61939 1.1407 0
M  V30 5129 N 474.288 6.81697 1.23536 0
M  V30 5130 N 476.081 5.49719 1.17325 0
M  V30 5131 H 468.232 2.04085 -0.588463 0
M  V30 5132 H 470.495 0.926229 -0.202001 0
M  V30 5133 H 470.201 3.51332 -0.160766 0
M  V30 5134 H 470.075 3.42187 1.58707 0
M  V30 5135 H 472.462 2.43344 1.66936 0
M  V30 5136 H 472.543 2.55627 -0.0939266 0
M  V30 5137 H 472.187 5.07824 0.087725 0
M  V30 5138 H 472.117 4.92607 1.86135 0
M  V30 5139 H 474.608 3.65749 0.950577 0
M  V30 5140 H 474.921 7.61228 1.33236 0
M  V30 5141 H 473.266 6.84473 1.20508 0
M  V30 5142 H 476.457 4.55095 1.09573 0
M  V30 5143 H 476.63 6.35432 1.27005 0
M  V30 5144 N 470.036 -0.519951 1.48776 0
M  V30 5145 C 471.285 -1.27175 1.56555 0
M  V30 5146 C 471.598 -1.9401 0.248869 0
M  V30 5147 O 472.804 -2.70725 0.205004 0
M  V30 5148 C 471.26 -2.30811 2.76142 0
M  V30 5149 C 470.868 -1.7 4.14493 0
M  V30 5150 C 472.612 -3.06937 2.9324 0
M  V30 5151 C 470.519 -2.71635 5.25327 0
M  V30 5152 H 469.449 -0.478329 0.582853 0
M  V30 5153 H 472.1 -0.547916 1.75129 0
M  V30 5154 H 470.482 -3.06274 2.51023 0
M  V30 5155 H 471.656 -1.00658 4.49672 0
M  V30 5156 H 469.971 -1.06331 4.02595 0
M  V30 5157 H 472.568 -3.82905 3.73213 0
M  V30 5158 H 472.911 -3.63409 2.03075 0
M  V30 5159 H 473.444 -2.38589 3.18308 0
M  V30 5160 H 470.183 -2.1997 6.1749 0
M  V30 5161 H 469.703 -3.39275 4.94624 0
M  V30 5162 H 471.382 -3.34429 5.53865 0
M  V30 5163 N 471.514 -1.37532 -0.769588 0
M  V30 5164 C 472.446 -1.29347 -1.89214 0
M  V30 5165 C 473.459 -0.208842 -1.61455 0
M  V30 5166 O 474.648 -0.465158 -1.72333 0
M  V30 5167 C 471.748 -0.977649 -3.24492 0
M  V30 5168 C 470.921 -2.16817 -3.7988 0
M  V30 5169 C 469.98 -1.82229 -4.93639 0
M  V30 5170 O 469.006 -2.54548 -5.09111 0
M  V30 5171 N 470.208 -0.767696 -5.75401 0
M  V30 5172 H 472.973 -2.26073 -1.96751 0
M  V30 5173 H 470.534 -1.31185 -0.948795 0
M  V30 5174 H 472.526 -0.727065 -3.98115 0
M  V30 5175 H 471.096 -0.0988777 -3.12444 0
M  V30 5176 H 470.316 -2.58038 -2.9801 0
M  V30 5177 H 471.604 -2.96308 -4.13617 0
M  V30 5178 H 471.002 -0.167626 -5.65452 0
M  V30 5179 H 469.559 -0.576973 -6.49241 0
M  V30 5180 N 472.992 0.995999 -1.22138 0
M  V30 5181 C 473.94 2.10673 -0.985876 0
M  V30 5182 C 474.934 1.69255 0.0699553 0
M  V30 5183 O 476.14 1.79812 -0.0822176 0
M  V30 5184 H 472.515 0.688865 -0.30161 0
M  V30 5185 H 474.486 2.27711 -1.92848 0
M  V30 5186 C 473.235 3.42881 -0.576909 0
M  V30 5187 H 472.558 3.75191 -1.38101 0
M  V30 5188 H 473.998 4.21589 -0.451518 0
M  V30 5189 C 472.457 3.29265 0.713196 0
M  V30 5190 O 472.987 3.60777 1.76643 0
M  V30 5191 N 471.193 2.82456 0.683162 0
M  V30 5192 H 470.74 2.5701 -0.174242 0
M  V30 5193 H 470.698 2.73727 1.54663 0
M  V30 5194 N 474.47 1.03057 1.19235 0
M  V30 5195 C 475.7 0.746613 1.92638 0
M  V30 5196 C 476.108 -0.698708 1.75826 0
M  V30 5197 O 475.451 -1.487 1.07861 0
M  V30 5198 C 475.513 1.02024 3.44719 0
M  V30 5199 C 475.177 2.45745 3.85303 0
M  V30 5200 C 476.174 3.43887 3.8992 0
M  V30 5201 C 473.859 2.8019 4.16892 0
M  V30 5202 C 475.853 4.74529 4.2556 0
M  V30 5203 C 473.54 4.1104 4.52205 0
M  V30 5204 C 474.538 5.0802 4.56513 0
M  V30 5205 O 474.226 6.36527 4.91008 0
M  V30 5206 H 473.958 0.272401 0.618687 0
M  V30 5207 H 476.512 1.37853 1.52269 0
M  V30 5208 H 474.742 0.331184 3.85279 0
M  V30 5209 H 476.431 0.725677 3.9936 0
M  V30 5210 H 477.197 3.18614 3.65664 0
M  V30 5211 H 473.076 2.05382 4.12722 0
M  V30 5212 H 476.62 5.50222 4.28838 0
M  V30 5213 H 472.517 4.36086 4.7592 0
M  V30 5214 H 473.285 6.41025 5.08949 0
M  V30 5215 N 475.948 -1.35272 0.808662 0
M  V30 5216 C 477.173 -2.03477 0.401475 0
M  V30 5217 C 477.598 -1.60537 -0.980279 0
M  V30 5218 O 476.956 -0.78304 -1.63518 0
M  V30 5219 C 477.004 -3.57181 0.495354 0
M  V30 5220 O 476.108 -4.09474 -0.490397 0
M  V30 5221 H 475.449 -0.642561 0.167366 0
M  V30 5222 H 477.979 -1.72824 1.09512 0
M  V30 5223 H 477.989 -4.06356 0.365912 0
M  V30 5224 H 476.664 -3.87784 1.5032 0
M  V30 5225 H 475.241 -3.71516 -0.321023 0
M  V30 5226 N 477.426 -0.562348 -1.47226 0
M  V30 5227 C 478.672 -0.0402761 -2.0276 0
M  V30 5228 C 479.005 1.30823 -1.43523 0
M  V30 5229 O 478.28 1.85249 -0.592705 0
M  V30 5230 C 478.563 0.047311 -3.60069 0
M  V30 5231 C 478.416 -1.32865 -4.29729 0
M  V30 5232 C 479.735 0.758182 -4.3352 0
M  V30 5233 H 476.854 -0.0161105 -0.736824 0
M  V30 5234 H 479.496 -0.725628 -1.75598 0
M  V30 5235 H 477.646 0.630986 -3.83342 0
M  V30 5236 H 479.318 -1.95593 -4.17781 0
M  V30 5237 H 477.561 -1.90195 -3.89882 0
M  V30 5238 H 478.232 -1.22004 -5.38349 0
M  V30 5239 H 480.708 0.262546 -4.15271 0
M  V30 5240 H 479.584 0.78844 -5.43208 0
M  V30 5241 H 479.845 1.81537 -4.03109 0
M  V30 5242 N 478.904 1.54736 -0.299062 0
M  V30 5243 C 479.837 2.1962 0.619851 0
M  V30 5244 C 480.815 1.16496 1.13434 0
M  V30 5245 O 481.999 1.4513 1.2029 0
M  V30 5246 C 479.126 2.8385 1.84788 0
M  V30 5247 C 478.172 4.00484 1.46679 0
M  V30 5248 S 479.005 5.32926 0.524389 0
M  V30 5249 C 480.161 6.00638 1.76026 0
M  V30 5250 H 480.394 2.97221 0.0686177 0
M  V30 5251 H 477.927 1.54176 -0.0832085 0
M  V30 5252 H 479.885 3.21483 2.55263 0
M  V30 5253 H 478.546 2.06099 2.37028 0
M  V30 5254 H 477.739 4.44201 2.38121 0
M  V30 5255 H 477.341 3.64398 0.842008 0
M  V30 5256 H 479.633 6.21327 2.70109 0
M  V30 5257 H 480.576 6.94805 1.36569 0
M  V30 5258 H 480.984 5.3026 1.93609 0
M  V30 5259 N 480.382 0.0267497 1.57577 0
M  V30 5260 C 481.659 -0.690926 1.82991 0
M  V30 5261 C 482.039 -1.90471 0.910164 0
M  V30 5262 O 481.387 -2.28474 -0.0347985 0
M  V30 5263 C 481.597 -1.07139 3.32148 0
M  V30 5264 C 482.945 -1.46402 3.98562 0
M  V30 5265 O 483.969 -1.16443 3.36629 0
M  V30 5266 O 482.828 -2.02214 5.07712 0
M  V30 5267 H 479.922 -0.338747 0.75444 0
M  V30 5268 H 482.468 0.0542506 1.69613 0
M  V30 5269 H 481.24 -0.207394 3.9075 0
M  V30 5270 H 480.863 -1.87481 3.50623 0
M  V30 5271 N 481.861 -1.55662 -0.24637 0
M  V30 5272 C 483.11 -1.7672 -0.972254 0
M  V30 5273 C 483.423 -0.59078 -1.86465 0
M  V30 5274 O 484.629 -0.684391 -2.62732 0
M  V30 5275 C 483.085 -3.12869 -1.7788 0
M  V30 5276 C 482.693 -4.38161 -0.933768 0
M  V30 5277 C 484.437 -3.43265 -2.49738 0
M  V30 5278 C 482.344 -5.6534 -1.73623 0
M  V30 5279 H 481.274 -0.658795 -0.366749 0
M  V30 5280 H 483.925 -1.82092 -0.226902 0
M  V30 5281 H 482.307 -3.01606 -2.56612 0
M  V30 5282 H 483.481 -4.60413 -0.188736 0
M  V30 5283 H 481.796 -4.15102 -0.328488 0
M  V30 5284 H 484.393 -4.35501 -3.10231 0
M  V30 5285 H 484.736 -2.64614 -3.2138 0
M  V30 5286 H 485.269 -3.55746 -1.78016 0
M  V30 5287 H 482.008 -6.46814 -1.06354 0
M  V30 5288 H 481.528 -5.47188 -2.45653 0
M  V30 5289 H 483.207 -6.04616 -2.30323 0
M  V30 5290 N 483.339 0.512053 -1.4905 0
M  V30 5291 C 484.579 1.27715 -1.59588 0
M  V30 5292 C 484.943 1.90071 -0.271502 0
M  V30 5293 O 486.144 2.67616 -0.251987 0
M  V30 5294 C 484.415 2.32399 -2.71524 0
M  V30 5295 S 485.974 3.18396 -3.01943 0
M  V30 5296 H 482.792 0.43419 -0.563027 0
M  V30 5297 H 485.394 0.581315 -1.86657 0
M  V30 5298 H 484.098 1.85101 -3.66287 0
M  V30 5299 H 483.629 3.06667 -2.46412 0
M  V30 5300 H 485.644 4.32842 -2.42616 0
M  V30 5301 N 484.817 1.37938 0.762283 0
M  V30 5302 C 486.094 1.24196 1.51112 0
M  V30 5303 C 486.474 -0.160409 2.1049 0
M  V30 5304 O 485.822 -1.16904 1.96331 0
M  V30 5305 C 486.032 2.34537 2.58445 0
M  V30 5306 C 487.38 2.7254 3.25588 0
M  V30 5307 O 488.404 2.33783 2.68745 0
M  V30 5308 O 487.263 3.39343 4.28379 0
M  V30 5309 H 484.357 0.485175 0.669727 0
M  V30 5310 H 486.903 1.49743 0.798438 0
M  V30 5311 H 485.675 3.28406 2.12756 0
M  V30 5312 H 485.298 2.10505 3.37303 0
M  V30 5313 N 486.295 -0.989507 1.22664 0
M  V30 5314 C 487.525 -1.7624 1.0781 0
M  V30 5315 C 487.933 -1.85466 -0.374036 0
M  V30 5316 O 487.276 -1.32645 -1.27087 0
M  V30 5317 C 487.338 -3.21007 1.61849 0
M  V30 5318 C 487.002 -3.35316 3.10503 0
M  V30 5319 C 487.999 -3.22362 4.07896 0
M  V30 5320 C 485.684 -3.60258 3.50028 0
M  V30 5321 C 487.678 -3.34139 5.42798 0
M  V30 5322 C 485.365 -3.71676 4.85078 0
M  V30 5323 C 486.363 -3.58625 5.81272 0
M  V30 5324 O 486.051 -3.69655 7.1387 0
M  V30 5325 H 485.783 -0.560209 0.378341 0
M  V30 5326 H 488.337 -1.25252 1.62792 0
M  V30 5327 H 486.567 -3.73202 1.01279 0
M  V30 5328 H 488.256 -3.80024 1.42606 0
M  V30 5329 H 489.022 -3.03 3.78703 0
M  V30 5330 H 484.901 -3.69492 2.75675 0
M  V30 5331 H 488.445 -3.23869 6.17863 0
M  V30 5332 H 484.342 -3.90545 5.1395 0
M  V30 5333 H 485.11 -3.86507 7.21495 0
M  V30 5334 N 487.773 -1.03688 -1.18687 0
M  V30 5335 C 489.05 -0.652397 -1.84399 0
M  V30 5336 C 489.43 0.868386 -1.92412 0
M  V30 5337 O 488.778 1.76832 -1.44716 0
M  V30 5338 C 488.988 -1.3238 -3.22919 0
M  V30 5339 C 490.336 -1.45216 -3.98996 0
M  V30 5340 O 491.36 -1.2816 -3.32345 0
M  V30 5341 O 490.219 -1.72975 -5.18403 0
M  V30 5342 H 487.313 -0.227793 -0.795009 0
M  V30 5343 H 489.859 -1.13553 -1.2611 0
M  V30 5344 H 488.631 -2.36202 -3.11968 0
M  V30 5345 H 488.254 -0.829039 -3.88861 0
M  V30 5346 N 489.251 1.34841 -0.815825 0
M  V30 5347 C 490.161 2.33425 -0.234462 0
M  V30 5348 C 491.177 1.62295 0.627413 0
M  V30 5349 O 492.353 1.94109 0.536987 0
M  V30 5350 C 489.418 3.41471 0.599849 0
M  V30 5351 C 488.479 4.28362 -0.283596 0
M  V30 5352 C 487.712 5.31248 0.51099 0
M  V30 5353 O 487.935 5.43056 1.7449 0
M  V30 5354 O 486.869 6.01812 -0.10297 0
M  V30 5355 H 490.695 2.84962 -1.05024 0
M  V30 5356 H 488.28 1.37774 -0.577809 0
M  V30 5357 H 490.162 4.07464 1.07475 0
M  V30 5358 H 488.837 2.9219 1.39308 0
M  V30 5359 H 487.744 3.65318 -0.805836 0
M  V30 5360 H 489.077 4.81066 -1.041 0
M  V30 5361 N 490.729 0.570148 1.46925 0
M  V30 5362 C 491.954 0.0542592 2.07329 0
M  V30 5363 C 492.379 -1.23582 1.41806 0
M  V30 5364 O 491.737 -1.74341 0.497479 0
M  V30 5365 C 491.785 -0.111175 3.60429 0
M  V30 5366 O 490.889 -1.17071 3.95434 0
M  V30 5367 H 490.23 0.0571425 0.661537 0
M  V30 5368 H 492.76 0.789516 1.88753 0
M  V30 5369 H 492.77 -0.321315 4.06733 0
M  V30 5370 H 491.445 0.831012 4.07513 0
M  V30 5371 H 490.022 -0.940029 3.60857 0
M  V30 5372 N 492.207 -1.54576 0.307264 0
M  V30 5373 C 493.432 -2.05139 -0.305379 0
M  V30 5374 C 493.857 -1.18278 -1.46259 0
M  V30 5375 O 493.215 -0.188243 -1.8032 0
M  V30 5376 C 493.263 -3.53066 -0.733283 0
M  V30 5377 O 492.367 -3.69206 -1.83741 0
M  V30 5378 H 491.708 -0.661444 -0.0582105 0
M  V30 5379 H 494.238 -1.99569 0.450931 0
M  V30 5380 H 494.248 -3.95034 -1.02039 0
M  V30 5381 H 492.923 -4.15746 0.113198 0
M  V30 5382 H 491.5 -3.39143 -1.55037 0
M  V30 5383 N 493.685 -0.035106 -1.57561 0
M  V30 5384 C 494.933 0.64096 -1.91667 0
M  V30 5385 C 495.254 1.72323 -0.912681 0
M  V30 5386 O 494.524 1.95849 0.0449089 0
M  V30 5387 H 493.104 0.239743 -0.707483 0
M  V30 5388 H 495.766 -0.084321 -1.94718 0
M  V30 5389 H 494.862 1.08987 -2.92452 0
M  V30 5390 N 495.163 1.55791 0.238111 0
M  V30 5391 C 496.579 1.48411 0.587045 0
M  V30 5392 C 496.779 0.72702 1.87927 0
M  V30 5393 O 495.835 0.259942 2.51158 0
M  V30 5394 C 497.148 2.92873 0.681623 0
M  V30 5395 C 498.696 3.03295 0.773363 0
M  V30 5396 C 499.171 4.49082 0.899428 0
M  V30 5397 N 500.662 4.53056 0.964075 0
M  V30 5398 C 501.397 5.63117 1.08104 0
M  V30 5399 N 500.893 6.82969 1.16299 0
M  V30 5400 N 502.686 5.50933 1.11488 0
M  V30 5401 H 494.837 2.0345 -0.610076 0
M  V30 5402 H 497.1 0.924034 -0.211813 0
M  V30 5403 H 496.806 3.51142 -0.19802 0
M  V30 5404 H 496.68 3.43851 1.55069 0
M  V30 5405 H 499.067 2.45101 1.64346 0
M  V30 5406 H 499.148 2.55513 -0.121034 0
M  V30 5407 H 498.792 5.07889 0.0338586 0
M  V30 5408 H 498.722 4.94553 1.809 0
M  V30 5409 H 501.213 3.66737 0.91173 0
M  V30 5410 H 501.526 7.62598 1.25155 0
M  V30 5411 H 499.871 6.85712 1.13241 0
M  V30 5412 H 503.062 4.56231 1.0474 0
M  V30 5413 H 503.235 6.36743 1.20259 0
M  V30 5414 N 496.642 -0.504142 1.49319 0
M  V30 5415 C 497.888 -1.25767 1.59857 0
M  V30 5416 C 498.243 -1.90348 0.280262 0
M  V30 5417 O 497.536 -1.77588 -0.719241 0
M  V30 5418 C 497.73 -2.35021 2.69258 0
M  V30 5419 C 497.559 -1.81154 4.11598 0
M  V30 5420 C 496.329 -1.62596 4.78425 0
M  V30 5421 C 498.527 -1.3252 4.96934 0
M  V30 5422 N 496.509 -1.03625 6.05091 0
M  V30 5423 C 497.88 -0.856633 6.14054 0
M  V30 5424 C 499.935 -1.21063 4.82958 0
M  V30 5425 C 498.638 -0.284841 7.18736 0
M  V30 5426 C 500.664 -0.652815 5.87786 0
M  V30 5427 C 500.026 -0.194461 7.04132 0
M  V30 5428 H 496.125 -0.450293 0.639343 0
M  V30 5429 H 498.709 -0.565344 1.86311 0
M  V30 5430 H 496.88 -3.01719 2.44581 0
M  V30 5431 H 498.612 -3.02061 2.69335 0
M  V30 5432 H 495.367 -1.86873 4.35173 0
M  V30 5433 H 495.791 -0.76076 6.72712 0
M  V30 5434 H 500.433 -1.551 3.93324 0
M  V30 5435 H 498.151 0.0677979 8.08072 0
M  V30 5436 H 501.737 -0.566994 5.79031 0
M  V30 5437 H 500.617 0.230442 7.83861 0
M  V30 5438 N 498.12 -1.38341 -0.754957 0
M  V30 5439 C 499.068 -1.35573 -1.89005 0
M  V30 5440 C 500.062 -0.241824 -1.67665 0
M  V30 5441 O 501.268 -0.410785 -1.7525 0
M  V30 5442 H 497.643 -0.422898 -0.621821 0
M  V30 5443 H 499.614 -2.31359 -1.88455 0
M  V30 5444 C 498.363 -1.19631 -3.26471 0
M  V30 5445 H 497.686 -2.04605 -3.43477 0
M  V30 5446 H 499.126 -1.21748 -4.06144 0
M  V30 5447 C 497.585 0.0968705 -3.36761 0
M  V30 5448 O 498.115 1.07439 -3.87066 0
M  V30 5449 N 496.321 0.153242 -2.90196 0
M  V30 5450 H 495.868 -0.642908 -2.49448 0
M  V30 5451 H 495.826 1.01807 -2.9746 0
M  V30 5452 N 499.598 0.982988 -1.23187 0
M  V30 5453 C 500.838 1.73903 -1.07412 0
M  V30 5454 C 501.202 1.88146 0.382764 0
M  V30 5455 O 502.403 2.6053 0.661638 0
M  V30 5456 C 500.674 3.10105 -1.77678 0
M  V30 5457 S 502.233 4.01323 -1.77441 0
M  V30 5458 H 499.051 0.598093 -0.384456 0
M  V30 5459 H 501.653 1.17456 -1.56283 0
M  V30 5460 H 500.357 2.97388 -2.82822 0
M  V30 5461 H 499.888 3.71622 -1.29077 0
M  V30 5462 H 501.903 4.89189 -0.831162 0
M  V30 5463 N 501.076 1.04316 1.18135 0
M  V30 5464 C 502.006 0.657299 2.24058 0
M  V30 5465 C 502.987 -0.340678 1.66654 0
M  V30 5466 O 504.172 -0.220223 1.92947 0
M  V30 5467 C 501.302 0.0220715 3.47293 0
M  V30 5468 C 500.256 0.943857 4.17463 0
M  V30 5469 C 499.582 0.172973 5.3442 0
M  V30 5470 C 500.882 2.26409 4.70677 0
M  V30 5471 H 502.576 1.5428 2.56589 0
M  V30 5472 H 500.122 0.743263 1.23335 0
M  V30 5473 H 502.075 -0.259607 4.206 0
M  V30 5474 H 500.799 -0.898323 3.14003 0
M  V30 5475 H 499.458 1.20996 3.46057 0
M  V30 5476 H 499.106 -0.749907 4.97379 0
M  V30 5477 H 498.806 0.787098 5.82304 0
M  V30 5478 H 500.33 -0.101628 6.10515 0
M  V30 5479 H 501.744 2.04294 5.35665 0
M  V30 5480 H 500.141 2.8314 5.29105 0
M  V30 5481 H 501.211 2.90883 3.87962 0
M  V30 5482 N 502.554 -1.34406 0.822964 0
M  V30 5483 C 503.8 -1.98578 0.411666 0
M  V30 5484 C 504.133 -1.65093 -1.02264 0
M  V30 5485 O 503.408 -0.92258 -1.71227 0
M  V30 5486 C 503.691 -3.54823 0.614235 0
M  V30 5487 C 503.544 -3.9805 2.09466 0
M  V30 5488 C 504.863 -4.40071 0.050221 0
M  V30 5489 H 501.982 -0.721355 0.151047 0
M  V30 5490 H 504.624 -1.59301 1.03554 0
M  V30 5491 H 502.774 -3.88411 0.0831774 0
M  V30 5492 H 504.446 -3.74795 2.68936 0
M  V30 5493 H 502.689 -3.4836 2.5851 0
M  V30 5494 H 503.36 -5.06819 2.18721 0
M  V30 5495 H 505.836 -4.13037 0.503953 0
M  V30 5496 H 504.712 -5.48452 0.221759 0
M  V30 5497 H 504.973 -4.29576 -1.04482 0
M  V30 5498 N 504.032 -0.577932 -1.46621 0
M  V30 5499 C 504.995 0.147805 -2.28723 0
M  V30 5500 C 505.995 0.823325 -1.38123 0
M  V30 5501 O 507.185 0.676011 -1.60548 0
M  V30 5502 C 504.317 1.21853 -3.18378 0
M  V30 5503 H 505.51 -0.573654 -2.94362 0
M  V30 5504 H 503.063 -0.335703 -1.52652 0
M  V30 5505 H 503.798 1.97173 -2.57475 0
M  V30 5506 H 503.583 0.738714 -3.85078 0
M  V30 5507 H 505.073 1.72768 -3.80186 0
M  V30 5508 N 505.51 1.54411 -0.315457 0
M  V30 5509 C 506.926 1.59556 0.037464 0
M  V30 5510 C 507.126 1.33217 1.5118 0
M  V30 5511 O 506.182 1.11264 2.26664 0
M  V30 5512 C 507.495 2.98372 -0.373477 0
M  V30 5513 C 509.043 3.11324 -0.323452 0
M  V30 5514 C 509.518 4.52472 -0.709433 0
M  V30 5515 N 511.009 4.58437 -0.662524 0
M  V30 5516 C 511.744 5.65751 -0.933474 0
M  V30 5517 N 511.24 6.81039 -1.27114 0
M  V30 5518 N 513.033 5.55489 -0.859573 0
M  V30 5519 H 505.184 1.6979 -1.27614 0
M  V30 5520 H 507.447 0.793732 -0.518356 0
M  V30 5521 H 507.153 3.22618 -1.40037 0
M  V30 5522 H 507.027 3.76264 0.265615 0
M  V30 5523 H 509.414 2.86818 0.694223 0
M  V30 5524 H 509.495 2.35555 -0.997367 0
M  V30 5525 H 509.139 4.7771 -1.72498 0
M  V30 5526 H 509.069 5.26598 -0.0132923 0
M  V30 5527 H 511.56 3.75636 -0.413065 0
M  V30 5528 H 511.873 7.58816 -1.46348 0
M  V30 5529 H 510.218 6.82555 -1.30932 0
M  V30 5530 H 513.409 4.64299 -0.595324 0
M  V30 5531 H 513.582 6.39036 -1.0741 0
M  V30 5532 N 506.988 0.0434614 1.5754 0
M  V30 5533 C 507.92 -0.962586 2.08007 0
M  V30 5534 C 508.933 -1.27972 1.00634 0
M  V30 5535 O 510.122 -1.24186 1.28219 0
M  V30 5536 C 507.222 -2.28621 2.50171 0
M  V30 5537 C 506.395 -2.15214 3.80791 0
M  V30 5538 C 505.454 -3.30633 4.09351 0
M  V30 5539 O 504.48 -3.0688 4.79388 0
M  V30 5540 N 505.682 -4.54873 3.60654 0
M  V30 5541 H 508.447 -0.531891 2.94942 0
M  V30 5542 H 506.008 -0.142965 1.61268 0
M  V30 5543 H 508 -3.04689 2.66359 0
M  V30 5544 H 506.57 -2.63283 1.68525 0
M  V30 5545 H 505.79 -1.23785 3.74261 0
M  V30 5546 H 507.078 -2.03475 4.66343 0
M  V30 5547 H 506.476 -4.77063 3.04019 0
M  V30 5548 H 505.033 -5.2806 3.82094 0
M  V30 5549 N 508.466 -1.55915 -0.229846 0
M  V30 5550 C 509.416 -1.8813 -1.28807 0
M  V30 5551 C 510.4 -0.743621 -1.42685 0
M  V30 5552 O 511.592 -1.00588 -1.4564 0
M  V30 5553 C 508.721 -2.19431 -2.64017 0
M  V30 5554 C 507.807 -3.39569 -2.54074 0
M  V30 5555 N 508.198 -4.58404 -2.13774 0
M  V30 5556 C 506.496 -3.43019 -2.85051 0
M  V30 5557 C 507.197 -5.40557 -2.1488 0
M  V30 5558 N 506.173 -4.80054 -2.55047 0
M  V30 5559 H 509.975 -2.77527 -0.967261 0
M  V30 5560 H 507.489 -1.5637 -0.438433 0
M  V30 5561 H 509.486 -2.40681 -3.40409 0
M  V30 5562 H 508.146 -1.31341 -2.9695 0
M  V30 5563 H 509.157 -4.83716 -1.8504 0
M  V30 5564 H 505.834 -2.65249 -3.22411 0
M  V30 5565 H 507.224 -6.45666 -1.85918 0
M  V30 5566 N 509.944 0.496216 -1.49584 0
M  V30 5567 C 511.193 1.24668 -1.58558 0
M  V30 5568 C 511.506 1.9359 -0.279703 0
M  V30 5569 O 512.712 2.70365 -0.248048 0
M  V30 5570 C 511.168 2.26388 -2.79779 0
M  V30 5571 C 510.776 1.63384 -4.17145 0
M  V30 5572 C 512.52 3.02233 -2.98086 0
M  V30 5573 C 510.427 2.63243 -5.29582 0
M  V30 5574 H 509.357 0.468995 -0.590389 0
M  V30 5575 H 512.008 0.519985 -1.75978 0
M  V30 5576 H 510.39 3.02241 -2.55863 0
M  V30 5577 H 511.564 0.93491 -4.51216 0
M  V30 5578 H 509.879 0.999121 -4.04236 0
M  V30 5579 H 512.476 3.76919 -3.79257 0
M  V30 5580 H 512.819 3.60132 -2.08831 0
M  V30 5581 H 513.352 2.33495 -3.22063 0
M  V30 5582 H 510.091 2.10119 -6.20911 0
M  V30 5583 H 509.611 3.31363 -4.99959 0
M  V30 5584 H 511.29 3.25575 -5.59115 0
M  V30 5585 N 511.423 1.38739 0.74761 0
M  V30 5586 C 512.333 1.38696 1.89211 0
M  V30 5587 C 513.349 0.283303 1.71678 0
M  V30 5588 O 514.525 0.522713 1.94498 0
M  V30 5589 C 511.59 1.21662 3.24653 0
M  V30 5590 C 510.651 2.41886 3.54669 0
M  V30 5591 C 509.884 2.25655 4.83648 0
M  V30 5592 O 510.107 1.25339 5.56459 0
M  V30 5593 O 509.041 3.14372 5.13277 0
M  V30 5594 H 512.867 2.35143 1.92202 0
M  V30 5595 H 510.452 1.19721 0.893708 0
M  V30 5596 H 512.334 1.14246 4.05618 0
M  V30 5597 H 511.009 0.283024 3.2246 0
M  V30 5598 H 509.916 2.54877 2.73841 0
M  V30 5599 H 511.249 3.33895 3.61628 0
M  V30 5600 N 512.901 -0.976442 1.23707 0
M  V30 5601 C 513.834 -2.06793 0.964973 0
M  V30 5602 C 514.812 -1.62304 -0.0981472 0
M  V30 5603 O 515.996 -1.88464 0.0369477 0
M  V30 5604 C 513.123 -3.35636 0.454522 0
M  V30 5605 C 512.169 -3.99069 1.50485 0
M  V30 5606 S 513.002 -4.37814 3.0835 0
M  V30 5607 C 514.158 -5.69805 2.58985 0
M  V30 5608 H 514.391 -2.29556 1.88922 0
M  V30 5609 H 511.924 -1.11317 1.06995 0
M  V30 5610 H 513.882 -4.10162 0.166626 0
M  V30 5611 H 512.543 -3.10876 -0.448871 0
M  V30 5612 H 511.736 -4.91896 1.09792 0
M  V30 5613 H 511.338 -3.30938 1.7423 0
M  V30 5614 H 513.63 -6.46919 2.01252 0
M  V30 5615 H 514.573 -6.15345 3.50366 0
M  V30 5616 H 514.981 -5.27994 1.99705 0
M  V30 5617 N 514.379 -1.04941 -1.1758 0
M  V30 5618 C 515.604 -0.778253 -1.92245 0
M  V30 5619 C 516.029 0.659707 -1.76152 0
M  V30 5620 O 515.387 1.45803 -1.07755 0
M  V30 5621 C 515.435 -1.16051 -3.41416 0
M  V30 5622 O 514.539 -0.291153 -4.11371 0
M  V30 5623 H 513.88 -0.285619 -0.599431 0
M  V30 5624 H 516.41 -1.40159 -1.49052 0
M  V30 5625 H 516.42 -1.12619 -3.92149 0
M  V30 5626 H 515.095 -2.208 -3.52449 0
M  V30 5627 H 513.672 -0.385851 -3.70898 0
M  V30 5628 N 515.857 1.33968 -0.830081 0
M  V30 5629 C 517.085 2.0228 -0.434773 0
M  V30 5630 C 517.5 1.62487 0.961419 0
M  V30 5631 O 516.857 0.833849 1.62337 0
M  V30 5632 C 516.908 3.5751 -0.535625 0
M  V30 5633 O 516.629 3.95864 -1.87679 0
M  V30 5634 C 518.13 4.43091 -0.136137 0
M  V30 5635 H 515.35 0.648151 -0.173613 0
M  V30 5636 H 517.894 1.71089 -1.12022 0
M  V30 5637 H 516.049 3.87266 0.101817 0
M  V30 5638 H 516.463 4.9056 -1.85609 0
M  V30 5639 H 517.937 5.51398 -0.257772 0
M  V30 5640 H 518.414 4.29433 0.921076 0
M  V30 5641 H 519.02 4.18677 -0.747662 0
M  V30 5642 N 517.335 0.585699 1.46312 0
M  V30 5643 C 518.563 0.0781299 2.06752 0
M  V30 5644 C 518.978 -1.22812 1.43396 0
M  V30 5645 O 518.335 -1.74318 0.540314 0
M  V30 5646 C 518.386 -0.0911927 3.61385 0
M  V30 5647 O 518.107 1.16336 4.22371 0
M  V30 5648 C 519.608 -0.632765 4.38761 0
M  V30 5649 H 516.828 0.0588188 0.668417 0
M  V30 5650 H 519.372 0.807218 1.87894 0
M  V30 5651 H 517.527 -0.770514 3.7966 0
M  V30 5652 H 517.941 0.979082 5.15281 0
M  V30 5653 H 519.415 -0.70041 5.47538 0
M  V30 5654 H 519.892 -1.65039 4.07012 0
M  V30 5655 H 520.498 0.0117856 4.25298 0
M  V30 5656 N 518.813 -1.54241 0.323641 0
M  V30 5657 C 520.061 -2.00174 -0.278359 0
M  V30 5658 C 520.382 -1.2134 -1.52648 0
M  V30 5659 O 519.652 -0.315244 -1.93347 0
M  V30 5660 H 518.232 -0.739463 -0.105845 0
M  V30 5661 H 520.894 -1.89864 0.440204 0
M  V30 5662 H 519.99 -3.07486 -0.5347 0
M  V30 5663 N 520.291 -0.0518155 -1.57515 0
M  V30 5664 C 521.537 0.616839 -1.93821 0
M  V30 5665 C 521.892 1.68413 -0.930307 0
M  V30 5666 O 521.185 1.91534 0.0504231 0
M  V30 5667 C 521.379 1.25607 -3.34601 0
M  V30 5668 C 521.208 0.252222 -4.48992 0
M  V30 5669 C 519.978 -0.156031 -5.05059 0
M  V30 5670 C 522.176 -0.502613 -5.11838 0
M  V30 5671 N 520.158 -1.15267 -6.02981 0
M  V30 5672 C 521.529 -1.35232 -6.05072 0
M  V30 5673 C 523.584 -0.560855 -4.94731 0
M  V30 5674 C 522.287 -2.25505 -6.83037 0
M  V30 5675 C 524.313 -1.45102 -5.73323 0
M  V30 5676 C 523.675 -2.28845 -6.6619 0
M  V30 5677 H 519.774 0.197344 -0.75669 0
M  V30 5678 H 522.358 -0.124297 -1.94303 0
M  V30 5679 H 520.529 1.96723 -3.34895 0
M  V30 5680 H 522.261 1.88358 -3.58195 0
M  V30 5681 H 519.016 0.22306 -4.73074 0
M  V30 5682 H 519.44 -1.64791 -6.56638 0
M  V30 5683 H 524.082 0.0723639 -4.22738 0
M  V30 5684 H 521.8 -2.89872 -7.54321 0
M  V30 5685 H 525.386 -1.50066 -5.62113 0
M  V30 5686 H 524.266 -2.96608 -7.25943 0
M  V30 5687 N 521.769 1.56035 0.221574 0
M  V30 5688 C 523.015 1.79312 0.947372 0
M  V30 5689 C 523.348 0.621453 1.83988 0
M  V30 5690 O 522.623 -0.379287 1.90766 0
M  V30 5691 C 522.906 3.1267 1.78633 0
M  V30 5692 C 522.759 4.40284 0.920312 0
M  V30 5693 C 524.078 3.4247 2.7641 0
M  V30 5694 H 521.197 0.652328 0.342982 0
M  V30 5695 H 523.839 1.88765 0.216244 0
M  V30 5696 H 521.989 3.04741 2.40967 0
M  V30 5697 H 523.661 4.60232 0.313718 0
M  V30 5698 H 521.904 4.33212 0.225734 0
M  V30 5699 H 522.575 5.30033 1.54171 0
M  V30 5700 H 525.051 3.50526 2.24211 0
M  V30 5701 H 523.927 4.3695 3.32213 0
M  V30 5702 H 524.188 2.64635 3.54148 0
M  V30 5703 N 523.247 -0.488276 1.49845 0
M  V30 5704 C 524.495 -1.23911 1.59657 0
M  V30 5705 C 524.816 -1.92816 0.291005 0
M  V30 5706 O 524.086 -1.83328 -0.690485 0
M  V30 5707 H 522.666 -0.460357 0.588286 0
M  V30 5708 H 525.328 -0.564794 1.86537 0
M  V30 5709 H 524.424 -1.99625 2.39909 0
M  V30 5710 N 524.725 -1.39134 -0.740242 0
M  V30 5711 C 526.141 -1.20623 -1.0451 0
M  V30 5712 C 526.341 -0.0641651 -2.01398 0
M  V30 5713 O 525.397 0.585843 -2.4561 0
M  V30 5714 C 526.71 -2.53815 -1.6124 0
M  V30 5715 C 528.258 -2.60615 -1.73346 0
M  V30 5716 C 528.733 -3.94015 -2.33486 0
M  V30 5717 N 530.224 -3.95627 -2.40902 0
M  V30 5718 C 530.959 -4.95616 -2.88361 0
M  V30 5719 N 530.455 -6.06003 -3.35756 0
M  V30 5720 N 532.248 -4.82998 -2.87523 0
M  V30 5721 H 524.399 -2.12176 -0.0975576 0
M  V30 5722 H 526.662 -0.942066 -0.105904 0
M  V30 5723 H 526.368 -3.37911 -0.975144 0
M  V30 5724 H 526.242 -2.73162 -2.6012 0
M  V30 5725 H 528.629 -1.76906 -2.36195 0
M  V30 5726 H 528.71 -2.45123 -0.731336 0
M  V30 5727 H 528.354 -4.78153 -1.71267 0
M  V30 5728 H 528.284 -4.06825 -3.34366 0
M  V30 5729 H 530.775 -3.15903 -2.07398 0
M  V30 5730 H 531.088 -6.78215 -3.70464 0
M  V30 5731 H 529.433 -6.09604 -3.33778 0
M  V30 5732 H 532.624 -3.95866 -2.49816 0
M  V30 5733 H 532.797 -5.61072 -3.24196 0
M  V30 5734 N 526.204 0.969867 -1.24223 0
M  V30 5735 C 527.451 1.71256 -1.08063 0
M  V30 5736 C 527.779 1.90734 0.380872 0
M  V30 5737 O 527.034 1.46469 1.29789 0
M  V30 5738 C 527.333 3.10883 -1.76314 0
M  V30 5739 C 526.999 3.11252 -3.26241 0
M  V30 5740 C 525.661 3.1106 -3.67144 0
M  V30 5741 C 528.013 3.05751 -4.22097 0
M  V30 5742 C 525.341 3.03097 -5.02344 0
M  V30 5743 C 527.693 2.9933 -5.57301 0
M  V30 5744 C 526.357 2.97466 -5.97554 0
M  V30 5745 H 525.627 0.62667 -0.395431 0
M  V30 5746 H 528.274 1.13422 -1.54297 0
M  V30 5747 H 526.579 3.72168 -1.22468 0
M  V30 5748 H 528.276 3.67138 -1.61277 0
M  V30 5749 H 524.866 3.12165 -2.93685 0
M  V30 5750 H 529.05 3.05031 -3.91497 0
M  V30 5751 H 524.306 3.00013 -5.32731 0
M  V30 5752 H 528.48 2.94033 -6.31283 0
M  V30 5753 H 526.107 2.91051 -7.02277 0
M  V30 5754 N 527.682 1.05563 1.17022 0
M  V30 5755 C 529.098 0.777684 1.39371 0
M  V30 5756 C 529.298 -0.626269 1.91521 0
M  V30 5757 O 528.354 -1.38806 2.10924 0
M  V30 5758 C 529.667 1.83642 2.3811 0
M  V30 5759 C 531.215 1.85907 2.51809 0
M  V30 5760 C 531.69 2.90813 3.53824 0
M  V30 5761 N 533.181 2.898 3.61345 0
M  V30 5762 C 533.916 3.6762 4.40049 0
M  V30 5763 N 533.412 4.55237 5.22237 0
M  V30 5764 N 535.205 3.56044 4.34959 0
M  V30 5765 H 527.356 1.9614 0.815047 0
M  V30 5766 H 529.619 0.849527 0.420722 0
M  V30 5767 H 529.325 2.84425 2.06871 0
M  V30 5768 H 529.199 1.6812 3.37662 0
M  V30 5769 H 531.586 0.857865 2.82356 0
M  V30 5770 H 531.667 2.05506 1.52318 0
M  V30 5771 H 531.311 3.91122 3.24015 0
M  V30 5772 H 531.241 2.68465 4.53028 0
M  V30 5773 H 533.732 2.26274 3.02669 0
M  V30 5774 H 534.045 5.11291 5.79484 0
M  V30 5775 H 532.39 4.59296 5.21605 0
M  V30 5776 H 535.581 2.86986 3.69806 0
M  V30 5777 H 535.754 4.16938 4.96051 0
M  V30 5778 N 529.16 -1.33526 0.837174 0
M  V30 5779 C 530.571 -1.80182 0.489017 0
M  V30 5780 C 530.922 -1.69285 -0.991826 0
M  V30 5781 O 530.047 -1.24113 -1.77271 0
M  V30 5782 C 530.642 -3.27149 0.880866 0
M  V30 5783 C 529.201 -3.71828 0.584872 0
M  V30 5784 C 528.348 -2.54974 1.09011 0
M  V30 5785 H 531.299 -1.21071 1.02603 0
M  V30 5786 H 531.32 -3.80024 0.190239 0
M  V30 5787 H 530.832 -3.35048 1.95869 0
M  V30 5788 H 528.933 -3.69457 -0.48295 0
M  V30 5789 H 529.046 -4.65366 1.13892 0
M  V30 5790 H 527.41 -2.4952 0.511047 0
M  V30 5791 H 528.193 -2.65637 2.17467 0
M  V30 5792 N 530.638 -0.59345 -1.46 0
M  V30 5793 C 531.863 -0.0872365 -2.07216 0
M  V30 5794 C 532.288 1.2131 -1.43755 0
M  V30 5795 O 531.646 1.73528 -0.525152 0
M  V30 5796 C 531.694 0.0538197 -3.6056 0
M  V30 5797 O 530.798 1.10765 -3.97247 0
M  V30 5798 H 530.139 -0.0676598 -0.660544 0
M  V30 5799 H 532.669 -0.819445 -1.87473 0
M  V30 5800 H 532.679 0.256567 -4.07193 0
M  V30 5801 H 531.354 -0.895739 -4.0614 0
M  V30 5802 H 529.931 0.882501 -3.62307 0
M  V30 5803 N 532.116 1.54067 -0.331816 0
M  V30 5804 C 533.026 2.28322 0.539104 0
M  V30 5805 C 534.042 1.32985 1.1221 0
M  V30 5806 O 535.218 1.6601 1.1403 0
M  V30 5807 C 532.283 3.03277 1.68 0
M  V30 5808 C 531.344 4.14216 1.12798 0
M  V30 5809 C 530.577 4.85588 2.2145 0
M  V30 5810 O 530.8 4.56536 3.41952 0
M  V30 5811 O 529.734 5.72309 1.86404 0
M  V30 5812 H 533.56 3.03632 -0.0641692 0
M  V30 5813 H 531.145 1.49083 -0.0972365 0
M  V30 5814 H 533.027 3.50189 2.34405 0
M  V30 5815 H 531.702 2.30834 2.2693 0
M  V30 5816 H 530.609 3.71635 0.428782 0
M  V30 5817 H 531.942 4.88727 0.583698 0
M  V30 5818 N 533.594 0.0601682 1.57485 0
M  V30 5819 C 535.005 -0.474217 1.80577 0
M  V30 5820 C 535.356 -1.70365 0.973147 0
M  V30 5821 O 534.481 -2.15544 0.192306 0
M  V30 5822 C 535.076 -0.867102 3.27516 0
M  V30 5823 C 533.635 -1.34642 3.51495 0
M  V30 5824 C 532.782 -0.32594 2.75378 0
M  V30 5825 H 535.733 0.285973 1.56102 0
M  V30 5826 H 535.754 -1.72938 3.38929 0
M  V30 5827 H 535.266 0.0278927 3.8809 0
M  V30 5828 H 533.367 -2.2603 2.96212 0
M  V30 5829 H 533.48 -1.33237 4.60201 0
M  V30 5830 H 531.844 -0.800749 2.41785 0
M  V30 5831 H 532.627 0.561125 3.38683 0
M  V30 5832 N 535.072 -1.5615 -0.213296 0
M  V30 5833 C 536.022 -1.89485 -1.26804 0
M  V30 5834 C 537.006 -0.758713 -1.41889 0
M  V30 5835 O 538.198 -1.02127 -1.44565 0
M  V30 5836 C 535.327 -2.22219 -2.61675 0
M  V30 5837 C 534.413 -3.42245 -2.50458 0
M  V30 5838 N 534.804 -4.60645 -2.089 0
M  V30 5839 C 533.102 -3.46023 -2.81397 0
M  V30 5840 C 533.803 -5.42805 -2.09135 0
M  V30 5841 N 532.779 -4.82732 -2.49941 0
M  V30 5842 H 536.581 -2.78537 -0.937771 0
M  V30 5843 H 534.095 -1.56826 -0.421824 0
M  V30 5844 H 536.092 -2.44278 -3.37837 0
M  V30 5845 H 534.752 -1.34484 -2.95541 0
M  V30 5846 H 535.763 -4.85651 -1.79899 0
M  V30 5847 H 532.44 -2.68654 -3.1958 0
M  V30 5848 H 533.83 -6.47601 -1.79059 0
M  V30 5849 N 536.55 0.480323 -1.50102 0
M  V30 5850 C 537.797 1.23307 -1.60629 0
M  V30 5851 C 538.125 1.92135 -0.302375 0
M  V30 5852 O 537.38 1.82321 0.711154 0
M  V30 5853 C 537.679 2.30708 -2.72963 0
M  V30 5854 C 537.345 1.79195 -4.13763 0
M  V30 5855 C 536.007 1.64867 -4.52076 0
M  V30 5856 C 538.359 1.40878 -5.018 0
M  V30 5857 C 535.687 1.10631 -5.76175 0
M  V30 5858 C 538.039 0.880872 -6.26437 0
M  V30 5859 C 536.703 0.724146 -6.6356 0
M  V30 5860 H 535.973 0.451211 -0.587784 0
M  V30 5861 H 538.62 0.53051 -1.84005 0
M  V30 5862 H 536.925 3.06834 -2.43639 0
M  V30 5863 H 538.622 2.88692 -2.78313 0
M  V30 5864 H 535.212 1.91313 -3.83533 0
M  V30 5865 H 539.396 1.50786 -4.7284 0
M  V30 5866 H 534.652 0.972263 -6.0362 0
M  V30 5867 H 538.826 0.575269 -6.9402 0
M  V30 5868 H 536.453 0.301722 -7.59601 0
M  V30 5869 N 538.028 1.39524 0.732853 0
M  V30 5870 C 539.256 1.40143 1.52209 0
M  V30 5871 C 539.671 -0.00348836 1.888 0
M  V30 5872 O 539.028 -0.975357 1.5425 0
M  V30 5873 C 539.079 2.27632 2.8083 0
M  V30 5874 O 538.8 3.62654 2.45792 0
M  V30 5875 C 540.301 2.36658 3.74844 0
M  V30 5876 H 537.521 0.478604 0.470297 0
M  V30 5877 H 540.065 1.83366 0.905388 0
M  V30 5878 H 538.22 1.87818 3.38826 0
M  V30 5879 H 538.634 4.08941 3.28431 0
M  V30 5880 H 540.108 3.02118 4.61984 0
M  V30 5881 H 540.585 1.38638 4.16745 0
M  V30 5882 H 541.191 2.76951 3.22766 0
M  V30 5883 N 539.506 -0.963266 1.24736 0
M  V30 5884 C 540.436 -2.07628 1.06832 0
M  V30 5885 C 541.417 -1.70088 -0.0200566 0
M  V30 5886 O 542.602 -1.93636 0.147854 0
M  V30 5887 C 539.732 -3.40636 0.677069 0
M  V30 5888 C 538.686 -3.9215 1.71471 0
M  V30 5889 C 538.012 -5.21553 1.1784 0
M  V30 5890 C 539.312 -4.19493 3.11164 0
M  V30 5891 H 541.006 -2.22864 1.9993 0
M  V30 5892 H 538.552 -1.07093 0.96266 0
M  V30 5893 H 540.505 -4.17941 0.538792 0
M  V30 5894 H 539.229 -3.25313 -0.289612 0
M  V30 5895 H 537.888 -3.17005 1.84128 0
M  V30 5896 H 537.536 -5.02593 0.202195 0
M  V30 5897 H 537.236 -5.56988 1.87185 0
M  V30 5898 H 538.76 -6.01463 1.05233 0
M  V30 5899 H 540.174 -4.87487 3.01711 0
M  V30 5900 H 538.571 -4.66165 3.77902 0
M  V30 5901 H 539.641 -3.26097 3.58871 0
M  V30 5902 N 540.985 -1.06182 -1.16461 0
M  V30 5903 C 542.262 -0.691364 -1.82974 0
M  V30 5904 C 542.642 0.827377 -1.9421 0
M  V30 5905 O 541.99 1.73723 -1.48434 0
M  V30 5906 C 542.2 -1.39199 -3.20038 0
M  V30 5907 C 543.548 -1.53647 -3.95825 0
M  V30 5908 O 544.572 -1.35181 -3.29552 0
M  V30 5909 O 543.431 -1.83932 -5.14618 0
M  V30 5910 H 540.525 -0.244605 -0.789998 0
M  V30 5911 H 543.071 -1.16203 -1.23673 0
M  V30 5912 H 541.843 -2.42766 -3.06888 0
M  V30 5913 H 541.466 -0.911335 -3.87015 0
M  V30 5914 N 542.463 1.3308 -0.844243 0
M  V30 5915 C 543.711 1.97215 -0.441676 0
M  V30 5916 C 544.032 1.67185 1.0037 0
M  V30 5917 O 543.302 0.973588 1.69994 0
M  V30 5918 H 541.882 0.72959 -0.160335 0
M  V30 5919 H 544.544 1.62348 -1.07838 0
M  V30 5920 H 543.64 3.06698 -0.57815 0
M  V30 5921 N 543.941 0.601185 1.45683 0
M  V30 5922 C 544.889 -0.133955 2.32214 0
M  V30 5923 C 545.883 -0.866034 1.45589 0
M  V30 5924 O 547.089 -0.782326 1.6211 0
M  V30 5925 H 543.464 -0.0620613 0.749435 0
M  V30 5926 H 545.435 0.614389 2.92007 0
M  V30 5927 C 544.184 -1.12216 3.29094 0
M  V30 5928 H 543.507 -0.568273 3.95741 0
M  V30 5929 H 544.947 -1.60659 3.92383 0
M  V30 5930 C 543.406 -2.19251 2.55794 0
M  V30 5931 O 543.936 -3.26894 2.33459 0
M  V30 5932 N 542.142 -1.9436 2.16039 0
M  V30 5933 H 541.689 -1.06829 2.34404 0
M  V30 5934 H 541.647 -2.66181 1.67318 0
M  V30 5935 N 545.419 -1.53889 0.339982 0
M  V30 5936 C 546.644 -2.05741 -0.261798 0
M  V30 5937 C 547.069 -1.21354 -1.43718 0
M  V30 5938 O 546.427 -0.22645 -1.7988 0
M  V30 5939 C 546.475 -3.54542 -0.658228 0
M  V30 5940 O 545.579 -3.7302 -1.75869 0
M  V30 5941 H 544.92 -0.662529 -0.0441672 0
M  V30 5942 H 547.45 -1.98568 0.493161 0
M  V30 5943 H 547.46 -3.9711 -0.936368 0
M  V30 5944 H 546.135 -4.15412 0.201358 0
M  V30 5945 H 544.712 -3.42355 -1.47809 0
M  V30 5946 N 546.897 -0.0685191 -1.57451 0
M  V30 5947 C 548.144 0.601348 -1.93365 0
M  V30 5948 C 548.472 1.69816 -0.948294 0
M  V30 5949 O 547.727 1.95666 0.0366199 0
M  V30 5950 C 548.026 1.22051 -3.35914 0
M  V30 5951 C 547.692 0.250165 -4.50205 0
M  V30 5952 C 546.354 -0.0167954 -4.81197 0
M  V30 5953 C 548.706 -0.413867 -5.19554 0
M  V30 5954 C 546.034 -0.95493 -5.78876 0
M  V30 5955 C 548.386 -1.3403 -6.18238 0
M  V30 5956 C 547.05 -1.61576 -6.47649 0
M  V30 5957 H 546.32 0.220049 -0.707573 0
M  V30 5958 H 548.967 -0.138697 -1.90997 0
M  V30 5959 H 547.272 2.03622 -3.34732 0
M  V30 5960 H 548.969 1.74605 -3.6099 0
M  V30 5961 H 545.559 0.468421 -4.26033 0
M  V30 5962 H 549.743 -0.220733 -4.95809 0
M  V30 5963 H 544.999 -1.17563 -5.99991 0
M  V30 5964 H 549.173 -1.86081 -6.71079 0
M  V30 5965 H 546.8 -2.34431 -7.2315 0
M  V30 5966 N 548.375 1.56261 0.205012 0
M  V30 5967 C 549.605 1.83874 0.942018 0
M  V30 5968 C 550.013 0.647595 1.77772 0
M  V30 5969 O 549.356 -0.393098 1.79445 0
M  V30 5970 C 549.418 3.05453 1.89575 0
M  V30 5971 C 549.082 4.39772 1.24296 0
M  V30 5972 C 550.079 5.16133 0.624724 0
M  V30 5973 C 547.764 4.86504 1.24978 0
M  V30 5974 C 549.758 6.37396 0.0220117 0
M  V30 5975 C 547.445 6.07705 0.643232 0
M  V30 5976 C 548.443 6.82993 0.0304164 0
M  V30 5977 O 548.131 8.019 -0.566654 0
M  V30 5978 H 547.863 0.614896 0.280854 0
M  V30 5979 H 550.417 2.04215 0.220285 0
M  V30 5980 H 548.647 2.80972 2.65691 0
M  V30 5981 H 550.336 3.19797 2.4997 0
M  V30 5982 H 551.102 4.81127 0.611666 0
M  V30 5983 H 546.981 4.27865 1.71616 0
M  V30 5984 H 550.525 6.96102 -0.456926 0
M  V30 5985 H 546.422 6.42181 0.653759 0
M  V30 5986 H 547.19 8.17192 -0.462588 0
M  V30 5987 N 549.853 -0.472356 1.50355 0
M  V30 5988 C 550.8 -1.57051 1.69126 0
M  V30 5989 C 551.77 -1.5733 0.532574 0
M  V30 5990 O 552.955 -1.7488 0.762994 0
M  V30 5991 C 550.095 -2.95033 1.79024 0
M  V30 5992 C 549.208 -3.04552 3.06386 0
M  V30 5993 C 548.343 -4.33441 3.07087 0
M  V30 5994 C 547.382 -4.36697 4.28908 0
M  V30 5995 N 546.519 -5.57056 4.27356 0
M  V30 5996 H 551.359 -1.40351 2.62879 0
M  V30 5997 H 548.896 -0.682403 1.30314 0
M  V30 5998 H 550.854 -3.75048 1.82744 0
M  V30 5999 H 549.484 -3.10371 0.887109 0
M  V30 6000 H 548.536 -2.17419 3.12143 0
M  V30 6001 H 549.848 -3.02818 3.96362 0
M  V30 6002 H 549.002 -5.21801 3.09529 0
M  V30 6003 H 547.741 -4.37782 2.14939 0
M  V30 6004 H 546.746 -3.46734 4.2668 0
M  V30 6005 H 547.971 -4.34049 5.22282 0
M  V30 6006 H 545.917 -5.62184 3.3806 0
M  V30 6007 H 545.834 -5.57058 5.111 0
M  V30 6008 H 547.102 -6.47545 4.33942 0
M  V30 6009 N 551.331 -1.39911 -0.725443 0
M  V30 6010 C 552.58 -1.36963 -1.48068 0
M  V30 6011 C 552.893 0.0284478 -1.95579 0
M  V30 6012 O 554.099 0.180535 -2.70899 0
M  V30 6013 C 552.555 -2.40664 -2.67598 0
M  V30 6014 C 552.163 -3.86234 -2.26997 0
M  V30 6015 C 553.907 -2.46807 -3.45379 0
M  V30 6016 C 551.814 -4.81554 -3.43307 0
M  V30 6017 H 550.744 -0.509223 -0.556065 0
M  V30 6018 H 553.395 -1.65602 -0.790454 0
M  V30 6019 H 551.777 -2.05109 -3.38742 0
M  V30 6020 H 552.951 -4.3088 -1.63337 0
M  V30 6021 H 551.266 -3.83475 -1.62284 0
M  V30 6022 H 553.863 -3.15213 -4.31909 0
M  V30 6023 H 554.206 -1.49552 -3.8851 0
M  V30 6024 H 554.739 -2.81303 -2.81271 0
M  V30 6025 H 551.478 -5.80106 -3.05217 0
M  V30 6026 H 550.998 -4.4158 -4.05915 0
M  V30 6027 H 552.677 -5.0091 -4.0951 0
M  V30 6028 N 552.809 0.956637 -1.25245 0
M  V30 6029 C 554.058 1.69537 -1.0927 0
M  V30 6030 C 554.371 1.92136 0.366503 0
M  V30 6031 O 555.577 2.63687 0.64665 0
M  V30 6032 C 554.033 3.05211 -1.9072 0
M  V30 6033 C 553.641 2.90416 -3.41119 0
M  V30 6034 C 555.385 3.82882 -1.83308 0
M  V30 6035 C 553.292 4.21468 -4.14872 0
M  V30 6036 H 552.222 0.635804 -0.405302 0
M  V30 6037 H 554.873 1.06513 -1.49423 0
M  V30 6038 H 553.255 3.69128 -1.43389 0
M  V30 6039 H 554.429 2.35444 -3.9611 0
M  V30 6040 H 552.744 2.26203 -3.49602 0
M  V30 6041 H 555.341 4.79944 -2.35706 0
M  V30 6042 H 555.684 4.0853 -0.800572 0
M  V30 6043 H 556.217 3.25711 -2.28379 0
M  V30 6044 H 552.956 4.01009 -5.18529 0
M  V30 6045 H 552.476 4.76213 -3.64665 0
M  V30 6046 H 554.155 4.90022 -4.22478 0
M  V30 6047 N 554.287 1.06798 1.15896 0
M  V30 6048 C 555.512 0.808739 1.90982 0
M  V30 6049 C 555.937 -0.6316 1.77179 0
M  V30 6050 O 555.295 -1.4407 1.10061 0
M  V30 6051 C 555.343 1.21468 3.39526 0
M  V30 6052 O 554.447 0.356562 4.10856 0
M  V30 6053 H 553.788 0.29512 0.594811 0
M  V30 6054 H 556.318 1.42513 1.46804 0
M  V30 6055 H 556.328 1.18844 3.90308 0
M  V30 6056 H 555.003 2.26379 3.48891 0
M  V30 6057 H 553.58 0.444808 3.70238 0
M  V30 6058 N 555.766 -1.3263 0.851289 0
M  V30 6059 C 556.714 -2.30882 0.282202 0
M  V30 6060 C 557.708 -1.58697 -0.592589 0
M  V30 6061 O 558.914 -1.73461 -0.480768 0
M  V30 6062 H 555.289 -0.748492 0.0725487 0
M  V30 6063 H 557.26 -2.76374 1.12516 0
M  V30 6064 C 556.009 -3.43828 -0.517449 0
M  V30 6065 H 555.332 -3.99532 0.146392 0
M  V30 6066 H 556.772 -4.1474 -0.88128 0
M  V30 6067 C 555.231 -2.90786 -1.70133 0
M  V30 6068 O 555.761 -2.88 -2.80034 0
M  V30 6069 N 553.967 -2.4723 -1.52728 0
M  V30 6070 H 553.514 -2.49695 -0.633257 0
M  V30 6071 H 553.472 -2.12094 -2.32085 0
M  V30 6072 N 557.244 -0.608902 -1.45362 0
M  V30 6073 C 558.154 0.110969 -2.34337 0
M  V30 6074 C 559.17 0.859007 -1.51318 0
M  V30 6075 O 560.346 0.816296 -1.84116 0
M  V30 6076 C 557.411 1.09494 -3.28956 0
M  V30 6077 C 556.472 0.348718 -4.27881 0
M  V30 6078 C 555.705 1.28582 -5.17979 0
M  V30 6079 O 555.928 2.52369 -5.11533 0
M  V30 6080 O 554.862 0.782172 -5.96796 0
M  V30 6081 H 558.688 -0.620258 -2.97299 0
M  V30 6082 H 556.273 -0.36916 -1.44767 0
M  V30 6083 H 558.155 1.66163 -3.87257 0
M  V30 6084 H 556.83 1.80717 -2.68557 0
M  V30 6085 H 555.737 -0.260465 -3.73192 0
M  V30 6086 H 557.07 -0.323049 -4.91139 0
M  V30 6087 N 558.722 1.53707 -0.348139 0
M  V30 6088 C 559.632 2.28881 0.514857 0
M  V30 6089 C 560.648 1.34168 1.10793 0
M  V30 6090 O 561.824 1.6721 1.12262 0
M  V30 6091 C 558.889 3.05042 1.64774 0
M  V30 6092 C 557.95 4.15389 1.08398 0
M  V30 6093 C 557.183 4.87909 2.16287 0
M  V30 6094 O 557.406 4.60137 3.3709 0
M  V30 6095 O 556.34 5.74254 1.80323 0
M  V30 6096 H 560.166 3.03547 -0.0963699 0
M  V30 6097 H 557.751 1.48972 -0.113043 0
M  V30 6098 H 559.633 3.52656 2.30677 0
M  V30 6099 H 558.308 2.33228 2.24469 0
M  V30 6100 H 557.215 3.72068 0.389341 0
M  V30 6101 H 558.548 4.89318 0.531829 0
M  V30 6102 N 560.2 0.0768682 1.57412 0
M  V30 6103 C 561.448 -0.589918 1.93299 0
M  V30 6104 C 561.769 -1.69842 0.958049 0
M  V30 6105 O 561.039 -1.95899 0.00703261 0
M  V30 6106 H 559.619 -0.220901 0.713591 0
M  V30 6107 H 562.281 0.135917 1.94425 0
M  V30 6108 H 561.377 -1.01195 2.95239 0
M  V30 6109 N 561.678 -1.56367 -0.196722 0
M  V30 6110 C 562.908 -1.84371 -0.932254 0
M  V30 6111 C 563.316 -0.657013 -1.77426 0
M  V30 6112 O 562.659 0.383576 -1.79651 0
M  V30 6113 C 562.721 -3.06454 -1.87952 0
M  V30 6114 C 562.385 -4.40425 -1.21962 0
M  V30 6115 C 563.382 -5.16457 -0.597343 0
M  V30 6116 C 561.067 -4.8716 -1.22396 0
M  V30 6117 C 563.061 -6.37399 0.0117913 0
M  V30 6118 C 560.748 -6.08038 -0.610995 0
M  V30 6119 C 561.746 -6.83 0.00580487 0
M  V30 6120 O 561.434 -8.01589 0.609173 0
M  V30 6121 H 561.166 -0.616377 -0.277589 0
M  V30 6122 H 563.72 -2.04329 -0.209452 0
M  V30 6123 H 561.95 -2.82377 -2.64197 0
M  V30 6124 H 563.639 -3.21118 -2.48271 0
M  V30 6125 H 564.405 -4.81445 -0.586142 0
M  V30 6126 H 560.284 -4.2877 -1.69345 0
M  V30 6127 H 563.828 -6.9585 0.493836 0
M  V30 6128 H 559.725 -6.42519 -0.619693 0
M  V30 6129 H 560.493 -8.16935 0.505919 0
M  V30 6130 N 563.156 0.464375 -1.50603 0
M  V30 6131 C 564.572 0.798684 -1.38178 0
M  V30 6132 C 564.772 1.96568 -0.44308 0
M  V30 6133 O 563.828 2.52252 0.111814 0
M  V30 6134 C 565.141 1.10444 -2.79683 0
M  V30 6135 C 566.689 1.2105 -2.88645 0
M  V30 6136 C 567.164 1.54934 -4.30998 0
M  V30 6137 N 568.655 1.61913 -4.3398 0
M  V30 6138 C 569.39 1.8965 -5.41129 0
M  V30 6139 N 568.886 2.15361 -6.58477 0
M  V30 6140 N 570.679 1.91207 -5.28579 0
M  V30 6141 H 562.83 -0.304603 -2.10204 0
M  V30 6142 H 565.093 -0.0737804 -0.945125 0
M  V30 6143 H 564.799 0.319934 -3.50242 0
M  V30 6144 H 564.673 2.03896 -3.17342 0
M  V30 6145 H 567.06 1.98567 -2.18301 0
M  V30 6146 H 567.141 0.255613 -2.5452 0
M  V30 6147 H 566.785 0.779549 -5.01882 0
M  V30 6148 H 566.715 2.51584 -4.62615 0
M  V30 6149 H 569.206 1.44055 -3.49366 0
M  V30 6150 H 569.519 2.35818 -7.35941 0
M  V30 6151 H 567.864 2.1274 -6.6164 0
M  V30 6152 H 571.055 1.70622 -4.35897 0
M  V30 6153 H 571.228 2.12488 -6.12171 0
M  V30 6154 N 564.634 1.40294 0.718013 0
M  V30 6155 C 565.584 1.36847 1.82365 0
M  V30 6156 C 566.568 0.246424 1.59002 0
M  V30 6157 O 567.76 0.485336 1.70216 0
M  V30 6158 C 564.889 1.23105 3.20469 0
M  V30 6159 C 563.975 2.4008 3.49603 0
M  V30 6160 N 564.366 3.65562 3.49568 0
M  V30 6161 C 562.664 2.33407 3.80049 0
M  V30 6162 C 563.365 4.43015 3.76978 0
M  V30 6163 N 562.341 3.72823 3.95606 0
M  V30 6164 H 566.143 2.31811 1.80668 0
M  V30 6165 H 563.657 1.34031 0.91703 0
M  V30 6166 H 565.654 1.18718 3.9964 0
M  V30 6167 H 564.314 0.291056 3.23393 0
M  V30 6168 H 565.325 3.98756 3.30476 0
M  V30 6169 H 562.002 1.47762 3.90478 0
M  V30 6170 H 563.392 5.51859 3.83276 0
M  V30 6171 N 566.112 -0.949982 1.2575 0
M  V30 6172 C 567.361 -1.68956 1.10168 0
M  V30 6173 C 567.674 -1.92327 -0.356309 0
M  V30 6174 O 568.88 -2.64026 -0.632657 0
M  V30 6175 C 567.336 -3.04196 1.92336 0
M  V30 6176 C 566.944 -2.88603 3.42655 0
M  V30 6177 C 568.688 -3.81904 1.85336 0
M  V30 6178 C 566.595 -4.19262 4.17101 0
M  V30 6179 H 565.525 -0.633645 0.408668 0
M  V30 6180 H 568.176 -1.05719 1.49986 0
M  V30 6181 H 566.558 -3.68363 1.45344 0
M  V30 6182 H 567.732 -2.3334 3.97353 0
M  V30 6183 H 566.047 -2.24345 3.50796 0
M  V30 6184 H 568.644 -4.78688 2.38248 0
M  V30 6185 H 568.987 -4.08099 0.822226 0
M  V30 6186 H 569.52 -3.24495 2.30104 0
M  V30 6187 H 566.259 -3.98254 5.20648 0
M  V30 6188 H 565.779 -4.74273 3.67186 0
M  V30 6189 H 567.458 -4.87775 4.25071 0
M  V30 6190 N 567.59 -1.07411 -1.15328 0
M  V30 6191 C 568.83 -0.807011 -1.87794 0
M  V30 6192 C 569.194 0.654987 -1.80482 0
M  V30 6193 O 570.395 1.03716 -2.47985 0
M  V30 6194 C 568.666 -1.30198 -3.32841 0
M  V30 6195 S 570.225 -1.16564 -4.23034 0
M  V30 6196 H 567.043 -0.292429 -0.648079 0
M  V30 6197 H 569.645 -1.37334 -1.39139 0
M  V30 6198 H 568.349 -2.3607 -3.35707 0
M  V30 6199 H 567.88 -0.730881 -3.86551 0
M  V30 6200 H 569.895 -0.103557 -4.96092 0
M  V30 6201 N 569.068 1.32177 -0.85831 0
M  V30 6202 C 570.298 2.01021 -0.476889 0
M  V30 6203 C 570.706 1.64653 0.931995 0
M  V30 6204 O 570.049 0.865713 1.62022 0
M  V30 6205 C 570.111 3.55413 -0.540528 0
M  V30 6206 C 569.775 4.1522 -1.90895 0
M  V30 6207 C 570.772 4.3318 -2.87491 0
M  V30 6208 C 568.457 4.51212 -2.20709 0
M  V30 6209 C 570.451 4.86306 -4.1205 0
M  V30 6210 C 568.138 5.04042 -3.45521 0
M  V30 6211 C 569.136 5.21538 -4.41007 0
M  V30 6212 O 568.824 5.73238 -5.63608 0
M  V30 6213 H 568.556 0.650059 -0.18547 0
M  V30 6214 H 571.11 1.69648 -1.15796 0
M  V30 6215 H 569.34 3.86196 0.19741 0
M  V30 6216 H 571.029 4.05526 -0.174191 0
M  V30 6217 H 571.795 4.05704 -2.65762 0
M  V30 6218 H 567.674 4.36878 -1.4717 0
M  V30 6219 H 571.218 4.99877 -4.86589 0
M  V30 6220 H 567.115 5.30952 -3.67098 0
M  V30 6221 H 567.883 5.91625 -5.65617 0
M  V30 6222 N 570.547 0.616602 1.45037 0
M  V30 6223 C 571.794 0.115331 2.02171 0
M  V30 6224 C 572.122 -1.25748 1.48383 0
M  V30 6225 O 571.377 -1.84511 0.652229 0
M  V30 6226 C 571.676 0.0356829 3.57382 0
M  V30 6227 C 571.342 1.34535 4.30362 0
M  V30 6228 C 570.004 1.70408 4.50016 0
M  V30 6229 C 572.356 2.21049 4.72003 0
M  V30 6230 C 569.684 2.92529 5.0857 0
M  V30 6231 C 572.036 3.42427 5.31908 0
M  V30 6232 C 570.7 3.78541 5.49784 0
M  V30 6233 H 569.97 0.0422024 0.739797 0
M  V30 6234 H 572.617 0.80002 1.73988 0
M  V30 6235 H 570.922 -0.732314 3.84895 0
M  V30 6236 H 572.619 -0.368463 3.99304 0
M  V30 6237 H 569.209 1.05615 4.15383 0
M  V30 6238 H 573.393 1.94632 4.56544 0
M  V30 6239 H 568.649 3.20605 5.20598 0
M  V30 6240 H 572.823 4.09709 5.63127 0
M  V30 6241 H 570.45 4.73255 5.94923 0
M  V30 6242 N 572.025 -1.5352 0.356285 0
M  V30 6243 C 572.957 -2.23009 -0.529127 0
M  V30 6244 C 573.97 -1.241 -1.05371 0
M  V30 6245 O 575.159 -1.50379 -0.961679 0
M  V30 6246 C 572.259 -2.90685 -1.74229 0
M  V30 6247 C 571.432 -4.16019 -1.35081 0
M  V30 6248 C 570.491 -4.66989 -2.42502 0
M  V30 6249 O 569.517 -5.30895 -2.05279 0
M  V30 6250 N 570.719 -4.44006 -3.7395 0
M  V30 6251 H 573.484 -2.99627 0.0660501 0
M  V30 6252 H 571.045 -1.60885 0.181014 0
M  V30 6253 H 573.037 -3.21695 -2.4555 0
M  V30 6254 H 571.607 -2.17575 -2.24454 0
M  V30 6255 H 570.827 -3.91414 -0.467833 0
M  V30 6256 H 572.115 -4.9752 -1.06542 0
M  V30 6257 H 571.513 -3.92924 -4.06973 0
M  V30 6258 H 570.07 -4.7959 -4.41403 0
M  V30 6259 N 573.503 -0.0852151 -1.57369 0
M  V30 6260 C 574.752 0.580443 -1.93168 0
M  V30 6261 C 575.065 1.6995 -0.968319 0
M  V30 6262 O 576.271 2.42564 -1.21963 0
M  V30 6263 C 574.727 1.08386 -3.43192 0
M  V30 6264 C 574.335 -0.00491388 -4.48 0
M  V30 6265 C 576.079 1.72281 -3.87968 0
M  V30 6266 C 573.986 0.513299 -5.89168 0
M  V30 6267 H 572.916 0.22059 -0.72101 0
M  V30 6268 H 575.567 -0.159621 -1.82804 0
M  V30 6269 H 573.949 1.8773 -3.48674 0
M  V30 6270 H 575.123 -0.780032 -4.5415 0
M  V30 6271 H 573.438 -0.548453 -4.12772 0
M  V30 6272 H 576.035 2.12108 -4.9083 0
M  V30 6273 H 576.378 2.58811 -3.26071 0
M  V30 6274 H 576.911 0.995359 -3.85146 0
M  V30 6275 H 573.65 -0.315153 -6.54742 0
M  V30 6276 H 573.17 1.25564 -5.8651 0
M  V30 6277 H 574.849 0.985433 -6.39451 0
M  V30 6278 N 574.981 1.5647 0.188427 0
M  V30 6279 C 576.258 1.71857 0.934058 0
M  V30 6280 C 576.638 0.641867 2.01105 0
M  V30 6281 O 575.986 -0.346098 2.25864 0
M  V30 6282 C 576.196 3.14431 1.5144 0
M  V30 6283 C 577.544 3.74869 1.99396 0
M  V30 6284 O 578.568 3.17601 1.61269 0
M  V30 6285 O 577.427 4.75387 2.69573 0
M  V30 6286 H 574.521 0.701186 0.438483 0
M  V30 6287 H 577.067 1.68768 0.177599 0
M  V30 6288 H 575.839 3.8427 0.738416 0
M  V30 6289 H 575.462 3.21775 2.33552 0
M  V30 6290 N 576.459 -0.456382 1.50847 0
M  V30 6291 C 577.406 -1.55249 1.70782 0
M  V30 6292 C 578.376 -1.56757 0.549231 0
M  V30 6293 O 579.561 -1.74061 0.7815 0
M  V30 6294 C 576.701 -2.93118 1.82143 0
M  V30 6295 C 575.814 -3.01285 3.09598 0
M  V30 6296 C 574.949 -4.30159 3.11667 0
M  V30 6297 C 573.988 -4.32124 4.33515 0
M  V30 6298 N 573.125 -5.52492 4.3324 0
M  V30 6299 H 577.965 -1.37555 2.64353 0
M  V30 6300 H 575.502 -0.668543 1.3103 0
M  V30 6301 H 577.46 -3.73088 1.86711 0
M  V30 6302 H 576.09 -3.09413 0.919978 0
M  V30 6303 H 575.142 -2.14096 3.14431 0
M  V30 6304 H 576.454 -2.98597 3.99551 0
M  V30 6305 H 575.608 -5.18489 3.15046 0
M  V30 6306 H 574.347 -4.35477 2.1957 0
M  V30 6307 H 573.352 -3.42189 4.30333 0
M  V30 6308 H 574.577 -4.28485 5.26856 0
M  V30 6309 H 572.523 -5.58567 3.44004 0
M  V30 6310 H 572.44 -5.51605 5.16979 0
M  V30 6311 H 573.708 -6.42906 4.40786 0
M  V30 6312 N 577.937 -1.40673 -0.710563 0
M  V30 6313 C 578.884 -1.41336 -1.82463 0
M  V30 6314 C 579.854 -0.269648 -1.63897 0
M  V30 6315 O 581.039 -0.468463 -1.8496 0
M  V30 6316 C 578.179 -1.28665 -3.20218 0
M  V30 6317 C 577.292 -2.52784 -3.5032 0
M  V30 6318 C 576.427 -2.32517 -4.77608 0
M  V30 6319 C 575.466 -3.52187 -5.0063 0
M  V30 6320 N 574.603 -3.31084 -6.19135 0
M  V30 6321 H 579.443 -2.36558 -1.8123 0
M  V30 6322 H 576.98 -1.17483 -0.885226 0
M  V30 6323 H 578.938 -1.19324 -3.99772 0
M  V30 6324 H 577.568 -0.370602 -3.20666 0
M  V30 6325 H 576.62 -2.72634 -2.65283 0
M  V30 6326 H 577.932 -3.41845 -3.63241 0
M  V30 6327 H 577.086 -2.20558 -5.65189 0
M  V30 6328 H 575.825 -1.40889 -4.66906 0
M  V30 6329 H 574.83 -3.64617 -4.11502 0
M  V30 6330 H 576.055 -4.44749 -5.13201 0
M  V30 6331 H 574.001 -2.42143 -6.09674 0
M  V30 6332 H 573.918 -4.13713 -6.32754 0
M  V30 6333 H 575.186 -3.22868 -7.0949 0
M  V30 6334 N 579.415 0.9433 -1.26252 0
M  V30 6335 C 580.692 1.66639 -1.02424 0
M  V30 6336 C 581.072 2.06335 0.446006 0
M  V30 6337 O 580.42 1.78551 1.42589 0
M  V30 6338 C 580.63 2.88019 -1.97094 0
M  V30 6339 C 581.978 3.59718 -2.25584 0
M  V30 6340 O 583.002 2.9812 -1.94943 0
M  V30 6341 O 581.861 4.7066 -2.77743 0
M  V30 6342 H 578.955 0.729643 -0.389294 0
M  V30 6343 H 581.501 0.995218 -1.37454 0
M  V30 6344 H 580.273 2.5556 -2.96319 0
M  V30 6345 H 579.896 3.62863 -1.62532 0
M  V30 6346 N 580.893 1.08022 1.14757 0
M  V30 6347 C 582.133 0.816959 1.87364 0
M  V30 6348 C 582.497 -0.645407 1.80827 0
M  V30 6349 O 583.698 -1.024 2.48531 0
M  V30 6350 C 581.969 1.31961 3.32146 0
M  V30 6351 S 583.528 1.18806 4.2241 0
M  V30 6352 H 580.346 0.295862 0.646519 0
M  V30 6353 H 582.948 1.3807 1.38408 0
M  V30 6354 H 581.652 2.37847 3.3445 0
M  V30 6355 H 581.183 0.751371 3.86158 0
M  V30 6356 H 583.198 0.129865 4.9603 0
M  V30 6357 N 582.371 -1.3172 0.865308 0
M  V30 6358 C 583.599 -2.01057 0.488251 0
M  V30 6359 C 584.014 -1.64979 -0.918 0
M  V30 6360 O 583.371 -0.876597 -1.60069 0
M  V30 6361 C 583.422 -3.55964 0.630224 0
M  V30 6362 O 583.143 -3.90749 1.98109 0
M  V30 6363 C 584.644 -4.42574 0.253567 0
M  V30 6364 H 581.864 -0.64332 0.190736 0
M  V30 6365 H 584.408 -1.68058 1.16519 0
M  V30 6366 H 582.563 -3.874 0.000895422 0
M  V30 6367 H 582.977 -4.85467 1.9855 0
M  V30 6368 H 584.451 -5.50521 0.403875 0
M  V30 6369 H 584.928 -4.31724 -0.806895 0
M  V30 6370 H 585.534 -4.16547 0.858404 0
M  V30 6371 N 583.85 -0.624285 -1.44708 0
M  V30 6372 C 585.096 -0.126051 -2.02107 0
M  V30 6373 C 585.425 1.2496 -1.49048 0
M  V30 6374 O 584.68 1.84163 -0.662005 0
M  V30 6375 C 584.979 -0.0546353 -3.57358 0
M  V30 6376 C 584.644 -1.36815 -4.29642 0
M  V30 6377 C 583.307 -1.72792 -4.49106 0
M  V30 6378 C 585.659 -2.23549 -4.70824 0
M  V30 6379 C 582.986 -2.95222 -5.07012 0
M  V30 6380 C 585.339 -3.45243 -5.30085 0
M  V30 6381 C 584.003 -3.81452 -5.47769 0
M  V30 6382 H 583.273 -0.0461252 -0.739563 0
M  V30 6383 H 585.92 -0.809236 -1.73562 0
M  V30 6384 H 584.225 0.711891 -3.85278 0
M  V30 6385 H 585.922 0.347282 -3.99493 0
M  V30 6386 H 582.512 -1.07817 -4.14817 0
M  V30 6387 H 586.696 -1.9705 -4.55505 0
M  V30 6388 H 581.952 -3.23361 -5.18891 0
M  V30 6389 H 586.125 -4.12689 -5.60946 0
M  V30 6390 H 583.753 -4.76403 -5.92405 0
M  V30 6391 N 585.328 1.53329 -0.364422 0
M  V30 6392 C 586.577 2.00421 0.226747 0
M  V30 6393 C 586.89 1.25581 1.49963 0
M  V30 6394 O 588.096 1.63256 2.16933 0
M  V30 6395 C 586.552 3.57017 0.454618 0
M  V30 6396 C 586.16 4.40734 -0.803568 0
M  V30 6397 C 587.904 4.12468 1.00351 0
M  V30 6398 C 585.811 5.8888 -0.545345 0
M  V30 6399 H 584.741 0.748787 0.0885082 0
M  V30 6400 H 587.392 1.7703 -0.482983 0
M  V30 6401 H 585.774 3.76558 1.22558 0
M  V30 6402 H 586.948 4.32967 -1.57723 0
M  V30 6403 H 585.263 3.96381 -1.27559 0
M  V30 6404 H 587.86 5.20783 1.212 0
M  V30 6405 H 588.203 3.6699 1.9653 0
M  V30 6406 H 588.736 3.96721 0.29274 0
M  V30 6407 H 585.475 6.38633 -1.47743 0
M  V30 6408 H 584.995 5.99499 0.189842 0
M  V30 6409 H 586.674 6.46776 -0.170425 0
M  V30 6410 N 586.806 0.0935595 1.57322 0
M  V30 6411 C 588.034 -0.578934 1.98635 0
M  V30 6412 C 588.449 -1.61819 0.972626 0
M  V30 6413 O 587.806 -1.82461 -0.0379638 0
M  V30 6414 C 587.857 -1.22802 3.40003 0
M  V30 6415 O 587.578 -0.230334 4.37494 0
M  V30 6416 C 589.079 -1.98627 3.96311 0
M  V30 6417 H 586.299 -0.155324 0.652775 0
M  V30 6418 H 588.843 0.172393 2.03772 0
M  V30 6419 H 586.998 -1.93029 3.35885 0
M  V30 6420 H 587.412 -0.698649 5.19826 0
M  V30 6421 H 588.886 -2.39405 4.97382 0
M  V30 6422 H 589.363 -2.85151 3.34044 0
M  V30 6423 H 589.969 -1.3322 4.03897 0
M  V30 6424 N 588.284 -1.56567 -0.180126 0
M  V30 6425 C 589.231 -1.95725 -1.22313 0
M  V30 6426 C 590.201 -0.819911 -1.44453 0
M  V30 6427 O 591.386 -1.07931 -1.57339 0
M  V30 6428 C 588.526 -2.31484 -2.55947 0
M  V30 6429 C 587.639 -3.58354 -2.4126 0
M  V30 6430 C 586.774 -3.83366 -3.67701 0
M  V30 6431 C 585.813 -5.03612 -3.47909 0
M  V30 6432 N 584.95 -5.24802 -4.66398 0
M  V30 6433 H 589.79 -2.84642 -0.882198 0
M  V30 6434 H 587.327 -1.4085 -0.42422 0
M  V30 6435 H 589.285 -2.50237 -3.33822 0
M  V30 6436 H 587.915 -1.45689 -2.88053 0
M  V30 6437 H 586.967 -3.47565 -1.54606 0
M  V30 6438 H 588.279 -4.46386 -2.22577 0
M  V30 6439 H 587.433 -4.02439 -4.54013 0
M  V30 6440 H 586.172 -2.93692 -3.89353 0
M  V30 6441 H 585.177 -4.84447 -2.59983 0
M  V30 6442 H 586.402 -5.94809 -3.27688 0
M  V30 6443 H 584.348 -4.38079 -4.88286 0
M  V30 6444 H 584.265 -6.07041 -4.50596 0
M  V30 6445 H 585.533 -5.48346 -5.54019 0
M  V30 6446 N 589.762 0.448376 -1.51087 0
M  V30 6447 C 591.01 1.19635 -1.62886 0
M  V30 6448 C 591.331 1.91977 -0.342024 0
M  V30 6449 O 590.601 1.85094 0.641636 0
M  V30 6450 H 589.181 0.444598 -0.600285 0
M  V30 6451 H 591.843 0.515138 -1.87969 0
M  V30 6452 H 590.939 1.93194 -2.45117 0
M  V30 6453 N 591.24 1.41047 0.703093 0
M  V30 6454 C 592.468 1.4334 1.49202 0
M  V30 6455 C 592.883 0.0365596 1.88765 0
M  V30 6456 O 592.24 -0.942419 1.56284 0
M  V30 6457 C 592.291 2.33538 2.75939 0
M  V30 6458 O 592.012 3.67786 2.38045 0
M  V30 6459 C 593.513 2.44555 3.6974 0
M  V30 6460 H 590.733 0.488472 0.460039 0
M  V30 6461 H 593.277 1.85245 0.86629 0
M  V30 6462 H 591.432 1.94962 3.34766 0
M  V30 6463 H 591.846 4.15816 3.19683 0
M  V30 6464 H 593.32 3.11849 4.55471 0
M  V30 6465 H 593.797 1.47447 4.1371 0
M  V30 6466 H 594.403 2.83735 3.16819 0
M  V30 6467 N 592.718 -0.936591 1.26751 0
M  V30 6468 C 593.964 -1.68625 1.13741 0
M  V30 6469 C 594.319 -1.898 -0.315221 0
M  V30 6470 O 593.612 -1.47088 -1.22783 0
M  V30 6471 C 593.806 -3.06099 1.84494 0
M  V30 6472 C 593.635 -2.98338 3.36488 0
M  V30 6473 C 592.405 -3.01104 4.05789 0
M  V30 6474 C 594.603 -2.78128 4.32608 0
M  V30 6475 N 592.585 -2.8369 5.4442 0
M  V30 6476 C 593.956 -2.69329 5.58446 0
M  V30 6477 C 596.011 -2.62946 4.22804 0
M  V30 6478 C 594.714 -2.46899 6.75598 0
M  V30 6479 C 596.74 -2.41892 5.39669 0
M  V30 6480 C 596.102 -2.33829 6.64457 0
M  V30 6481 H 592.201 -0.624227 0.471025 0
M  V30 6482 H 594.785 -1.10798 1.601 0
M  V30 6483 H 592.956 -3.62057 1.40604 0
M  V30 6484 H 594.688 -3.69951 1.64067 0
M  V30 6485 H 591.443 -3.10992 3.57185 0
M  V30 6486 H 591.867 -2.78138 6.17226 0
M  V30 6487 H 596.509 -2.67944 3.27056 0
M  V30 6488 H 594.227 -2.40642 7.71438 0
M  V30 6489 H 597.813 -2.31043 5.33957 0
M  V30 6490 H 596.693 -2.17754 7.53361 0
M  V30 6491 N 594.196 -1.08629 -1.14182 0
M  V30 6492 C 595.106 -0.730126 -2.22949 0
M  V30 6493 C 596.122 0.26436 -1.7198 0
M  V30 6494 O 597.298 0.107742 -2.01112 0
M  V30 6495 C 594.363 -0.147227 -3.46387 0
M  V30 6496 C 593.424 -1.19662 -4.12286 0
M  V30 6497 C 592.657 -0.641437 -5.29831 0
M  V30 6498 O 592.88 0.538351 -5.67854 0
M  V30 6499 O 591.814 -1.39257 -5.85569 0
M  V30 6500 H 595.64 -1.63753 -2.55771 0
M  V30 6501 H 593.225 -0.860118 -1.22157 0
M  V30 6502 H 595.107 0.174923 -4.21037 0
M  V30 6503 H 593.782 0.733304 -3.15285 0
M  V30 6504 H 592.689 -1.57133 -3.395 0
M  V30 6505 H 594.022 -2.0495 -4.475 0
M  V30 6506 N 595.674 1.31259 -0.872281 0
M  V30 6507 C 596.92 1.96913 -0.485083 0
M  V30 6508 C 597.253 1.68774 0.960667 0
M  V30 6509 O 596.528 0.985495 1.67685 0
M  V30 6510 C 596.811 3.52299 -0.745502 0
M  V30 6511 C 596.664 3.90002 -2.24095 0
M  V30 6512 C 597.983 4.39582 -0.213516 0
M  V30 6513 H 595.102 0.715252 -0.177716 0
M  V30 6514 H 597.744 1.55347 -1.09395 0
M  V30 6515 H 595.894 3.87835 -0.227276 0
M  V30 6516 H 597.566 3.64555 -2.82661 0
M  V30 6517 H 595.809 3.38526 -2.71261 0
M  V30 6518 H 596.48 4.98352 -2.37381 0
M  V30 6519 H 598.956 4.10882 -0.656902 0
M  V30 6520 H 597.832 5.47251 -0.42516 0
M  V30 6521 H 598.093 4.33158 0.884666 0
M  V30 6522 N 597.152 0.631951 1.44375 0
M  V30 6523 C 598.401 0.134214 2.01253 0
M  V30 6524 C 598.714 -1.25171 1.50305 0
M  V30 6525 O 599.92 -1.8435 1.99317 0
M  V30 6526 C 598.376 0.189187 3.59402 0
M  V30 6527 C 597.984 1.57647 4.19346 0
M  V30 6528 C 599.728 -0.252044 4.23751 0
M  V30 6529 C 597.635 1.58651 5.69722 0
M  V30 6530 H 596.565 0.0464101 0.75257 0
M  V30 6531 H 599.216 0.790868 1.65582 0
M  V30 6532 H 597.598 -0.534584 3.92375 0
M  V30 6533 H 598.772 2.32389 3.97909 0
M  V30 6534 H 597.087 1.96186 3.67288 0
M  V30 6535 H 599.684 -0.264084 5.34047 0
M  V30 6536 H 600.027 -1.27951 3.96149 0
M  V30 6537 H 600.56 0.41926 3.95584 0
M  V30 6538 H 597.299 2.59237 6.0206 0
M  V30 6539 H 596.819 0.882039 5.93279 0
M  V30 6540 H 598.498 1.32082 6.33375 0
M  V30 6541 N 598.631 -1.53133 0.372548 0
M  V30 6542 C 599.879 -2.00958 -0.214534 0
M  V30 6543 C 600.2 -1.26135 -1.48711 0
M  V30 6544 O 599.47 -0.376597 -1.92246 0
M  V30 6545 H 598.05 -0.742456 -0.0822664 0
M  V30 6546 H 600.712 -1.88367 0.500385 0
M  V30 6547 H 599.808 -3.09031 -0.436605 0
M  V30 6548 N 600.109 -0.101901 -1.5727 0
M  V30 6549 C 601.358 0.559922 -1.93772 0
M  V30 6550 C 601.671 1.68913 -0.98629 0
M  V30 6551 O 602.877 2.41256 -1.24529 0
M  V30 6552 C 601.333 1.04739 -3.44322 0
M  V30 6553 C 600.941 -0.05243 -4.47969 0
M  V30 6554 C 602.685 1.68157 -3.89774 0
M  V30 6555 C 600.592 0.450781 -5.8968 0
M  V30 6556 H 599.522 0.212931 -0.723309 0
M  V30 6557 H 602.173 -0.179001 -1.82625 0
M  V30 6558 H 600.555 1.84021 -3.50645 0
M  V30 6559 H 601.729 -0.828157 -4.53297 0
M  V30 6560 H 600.044 -0.592202 -4.12167 0
M  V30 6561 H 602.641 2.0689 -4.93052 0
M  V30 6562 H 602.984 2.55338 -3.28798 0
M  V30 6563 H 603.517 0.954453 -3.8618 0
M  V30 6564 H 600.256 -0.38458 -6.54371 0
M  V30 6565 H 599.776 1.19336 -5.87809 0
M  V30 6566 H 601.455 0.917555 -6.40461 0
M  V30 6567 N 601.587 1.56661 0.17182 0
M  V30 6568 C 602.497 1.99604 1.2327 0
M  V30 6569 C 603.513 0.907333 1.4847 0
M  V30 6570 O 604.689 1.21492 1.60629 0
M  V30 6571 C 601.754 2.34685 2.55194 0
M  V30 6572 C 600.815 3.57381 2.3786 0
M  V30 6573 C 600.048 3.90779 3.63494 0
M  V30 6574 O 600.271 3.25152 4.6865 0
M  V30 6575 O 599.205 4.84129 3.57634 0
M  V30 6576 H 603.031 2.90114 0.898192 0
M  V30 6577 H 600.616 1.44522 0.378647 0
M  V30 6578 H 602.498 2.5822 3.33017 0
M  V30 6579 H 601.173 1.47336 2.88225 0
M  V30 6580 H 600.08 3.39064 1.5807 0
M  V30 6581 H 601.413 4.45268 2.09754 0
M  V30 6582 N 603.065 -0.440357 1.51323 0
M  V30 6583 C 604.028 -1.51679 1.71832 0
M  V30 6584 C 605.028 -1.49648 0.588386 0
M  V30 6585 O 606.218 -1.51724 0.855891 0
M  V30 6586 C 603.35 -2.91228 1.77199 0
M  V30 6587 H 604.543 -1.34799 2.67898 0
M  V30 6588 H 602.096 -0.66883 1.41267 0
M  V30 6589 H 602.831 -3.13516 0.829363 0
M  V30 6590 H 602.616 -2.94107 2.59314 0
M  V30 6591 H 604.106 -3.69321 1.94915 0
M  V30 6592 N 604.543 -1.41418 -0.695603 0
M  V30 6593 C 605.473 -1.46035 -1.82197 0
M  V30 6594 C 606.454 -0.319025 -1.67082 0
M  V30 6595 O 607.639 -0.530462 -1.86815 0
M  V30 6596 C 604.769 -1.34179 -3.20333 0
M  V30 6597 C 603.723 -2.46123 -3.50154 0
M  V30 6598 C 603.049 -2.19332 -4.87645 0
M  V30 6599 C 604.349 -3.88463 -3.49133 0
M  V30 6600 H 606.043 -2.40303 -1.78591 0
M  V30 6601 H 603.589 -1.15663 -0.857797 0
M  V30 6602 H 605.542 -1.36021 -3.98844 0
M  V30 6603 H 604.266 -0.363952 -3.24566 0
M  V30 6604 H 602.925 -2.43563 -2.73994 0
M  V30 6605 H 602.573 -1.19891 -4.88503 0
M  V30 6606 H 602.273 -2.94344 -5.08562 0
M  V30 6607 H 603.797 -2.22889 -5.68465 0
M  V30 6608 H 605.211 -3.92738 -4.17648 0
M  V30 6609 H 603.608 -4.63158 -3.81582 0
M  V30 6610 H 604.678 -4.16617 -2.48109 0
M  V30 6611 N 606.021 0.929856 -1.27246 0
M  V30 6612 C 607.249 1.71144 -1.16265 0
M  V30 6613 C 607.664 1.867 0.280786 0
M  V30 6614 O 607.021 1.38249 1.19136 0
M  V30 6615 C 607.072 3.11222 -1.83911 0
M  V30 6616 O 606.793 2.96398 -3.22614 0
M  V30 6617 C 608.294 4.05541 -1.79028 0
M  V30 6618 H 605.514 0.535499 -0.404328 0
M  V30 6619 H 608.058 1.16492 -1.68077 0
M  V30 6620 H 606.213 3.6274 -1.36009 0
M  V30 6621 H 606.627 3.8494 -3.56261 0
M  V30 6622 H 608.101 5.01351 -2.30978 0
M  V30 6623 H 608.578 4.32589 -0.759168 0
M  V30 6624 H 609.184 3.59947 -2.26535 0
M  V30 6625 N 607.499 1.09233 1.13605 0
M  V30 6626 C 608.724 0.849067 1.89224 0
M  V30 6627 C 609.149 -0.593875 1.78479 0
M  V30 6628 O 608.507 -1.41703 1.13092 0
M  V30 6629 C 608.555 1.28642 3.36873 0
M  V30 6630 O 607.659 0.44363 4.10007 0
M  V30 6631 H 607 0.30767 0.588417 0
M  V30 6632 H 609.53 1.45595 1.43748 0
M  V30 6633 H 609.54 1.27096 3.87699 0
M  V30 6634 H 608.215 2.33729 3.44011 0
M  V30 6635 H 606.792 0.523241 3.69211 0
M  V30 6636 N 608.977 -1.30795 0.87923 0
M  V30 6637 C 610.254 -1.91145 0.415086 0
M  V30 6638 C 610.634 -1.7995 -1.10368 0
M  V30 6639 O 609.982 -1.21305 -1.93642 0
M  V30 6640 C 610.192 -3.37014 0.906778 0
M  V30 6641 C 611.54 -4.14101 0.938358 0
M  V30 6642 O 612.564 -3.45834 0.853053 0
M  V30 6643 O 611.423 -5.36054 1.06342 0
M  V30 6644 H 608.517 -0.81736 0.125905 0
M  V30 6645 H 611.063 -1.39401 0.967753 0
M  V30 6646 H 609.835 -3.3922 1.95053 0
M  V30 6647 H 609.458 -3.96204 0.332948 0
M  V30 6648 N 610.455 -0.639598 -1.44038 0
M  V30 6649 C 611.685 -0.154586 -2.06021 0
M  V30 6650 C 612.093 1.17951 -1.47933 0
M  V30 6651 O 611.436 1.73627 -0.59994 0
M  V30 6652 C 611.498 0.0255459 -3.59491 0
M  V30 6653 C 611.162 -1.2317 -4.40089 0
M  V30 6654 C 612.159 -2.15735 -4.73027 0
M  V30 6655 C 609.844 -1.46949 -4.80324 0
M  V30 6656 C 611.838 -3.30382 -5.45093 0
M  V30 6657 C 609.525 -2.61891 -5.52138 0
M  V30 6658 C 610.523 -3.53433 -5.84443 0
M  V30 6659 O 610.211 -4.6637 -6.54793 0
M  V30 6660 H 609.943 -0.0808543 -0.671147 0
M  V30 6661 H 612.497 -0.876541 -1.85758 0
M  V30 6662 H 610.727 0.802733 -3.78276 0
M  V30 6663 H 612.416 0.466184 -4.03214 0
M  V30 6664 H 613.182 -1.98602 -4.42473 0
M  V30 6665 H 609.061 -0.765815 -4.54595 0
M  V30 6666 H 612.605 -4.01856 -5.70226 0
M  V30 6667 H 608.502 -2.78964 -5.82108 0
M  V30 6668 H 609.27 -4.6546 -6.73267 0
M  V30 6669 N 611.933 1.52934 -0.380664 0
M  V30 6670 C 612.863 2.29118 0.450268 0
M  V30 6671 C 613.844 1.32153 1.07096 0
M  V30 6672 O 615.029 1.61038 1.08537 0
M  V30 6673 C 612.159 3.09161 1.58231 0
M  V30 6674 C 611.113 4.13938 1.0881 0
M  V30 6675 C 610.439 4.82153 2.31155 0
M  V30 6676 C 611.739 5.22048 0.162146 0
M  V30 6677 H 613.433 2.98826 -0.185361 0
M  V30 6678 H 610.979 1.43715 -0.0905886 0
M  V30 6679 H 612.932 3.61211 2.17036 0
M  V30 6680 H 611.656 2.3717 2.2454 0
M  V30 6681 H 610.315 3.62855 0.522633 0
M  V30 6682 H 609.963 4.06719 2.95953 0
M  V30 6683 H 609.663 5.52966 1.98752 0
M  V30 6684 H 611.187 5.37004 2.90618 0
M  V30 6685 H 612.601 5.6951 0.658126 0
M  V30 6686 H 610.998 6.00057 -0.0717122 0
M  V30 6687 H 612.068 4.78398 -0.791438 0
M  V30 6688 N 613.412 0.11024 1.57214 0
M  V30 6689 C 614.642 -0.557025 1.98949 0
M  V30 6690 C 615.05 -1.61317 0.988606 0
M  V30 6691 O 614.393 -1.83679 -0.0279159 0
M  V30 6692 C 614.455 -1.24956 3.37085 0
M  V30 6693 C 614.119 -0.342398 4.55716 0
M  V30 6694 C 615.116 0.415511 5.18237 0
M  V30 6695 C 612.801 -0.256029 5.01647 0
M  V30 6696 C 614.795 1.24761 6.25071 0
M  V30 6697 C 612.482 0.579713 6.08344 0
M  V30 6698 C 613.48 1.33017 6.69922 0
M  V30 6699 O 613.168 2.15205 7.74559 0
M  V30 6700 H 612.9 -0.152792 0.658506 0
M  V30 6701 H 615.454 0.19076 2.04512 0
M  V30 6702 H 613.684 -2.04424 3.2825 0
M  V30 6703 H 615.373 -1.81286 3.63167 0
M  V30 6704 H 616.139 0.358605 4.83672 0
M  V30 6705 H 612.018 -0.829831 4.5347 0
M  V30 6706 H 615.562 1.83386 6.73064 0
M  V30 6707 H 611.459 0.638044 6.42339 0
M  V30 6708 H 612.227 2.08052 7.91617 0
M  V30 6709 N 614.89 -1.56749 -0.16351 0
M  V30 6710 C 616.12 -1.86307 -0.892936 0
M  V30 6711 C 616.528 -0.6945 -1.75992 0
M  V30 6712 O 615.871 0.345384 -1.80424 0
M  V30 6713 C 615.933 -3.10372 -1.81409 0
M  V30 6714 C 615.597 -4.42913 -1.12593 0
M  V30 6715 C 616.594 -5.17608 -0.487661 0
M  V30 6716 C 614.279 -4.89646 -1.12035 0
M  V30 6717 C 616.273 -6.3723 0.14699 0
M  V30 6718 C 613.96 -6.09197 -0.481883 0
M  V30 6719 C 614.958 -6.82834 0.150678 0
M  V30 6720 O 614.646 -8.00116 0.779065 0
M  V30 6721 H 614.378 -0.622126 -0.264452 0
M  V30 6722 H 616.932 -2.04728 -0.166063 0
M  V30 6723 H 615.162 -2.87917 -2.58148 0
M  V30 6724 H 616.851 -3.26312 -2.41403 0
M  V30 6725 H 617.617 -4.8258 -0.483888 0
M  V30 6726 H 613.496 -4.32265 -1.60212 0
M  V30 6727 H 617.04 -6.94646 0.641325 0
M  V30 6728 H 612.937 -6.43688 -0.483266 0
M  V30 6729 H 613.705 -8.15678 0.679089 0
M  V30 6730 N 616.368 0.432326 -1.51554 0
M  V30 6731 C 617.617 1.17831 -1.63703 0
M  V30 6732 C 617.93 1.92229 -0.36156 0
M  V30 6733 O 619.136 2.69069 -0.362495 0
M  V30 6734 C 617.592 2.14318 -2.89129 0
M  V30 6735 C 617.2 1.45544 -4.23699 0
M  V30 6736 C 618.944 2.89319 -3.10636 0
M  V30 6737 C 616.851 2.40545 -5.4027 0
M  V30 6738 H 615.781 0.443533 -0.60975 0
M  V30 6739 H 618.432 0.444878 -1.78026 0
M  V30 6740 H 616.814 2.91117 -2.68452 0
M  V30 6741 H 617.988 0.742693 -4.54775 0
M  V30 6742 H 616.303 0.826772 -4.0811 0
M  V30 6743 H 618.9 3.60495 -3.94902 0
M  V30 6744 H 619.243 3.50951 -2.23918 0
M  V30 6745 H 619.776 2.19625 -3.31677 0
M  V30 6746 H 616.515 1.83594 -6.29264 0
M  V30 6747 H 616.035 3.09859 -5.13563 0
M  V30 6748 H 617.714 3.01569 -5.72421 0
M  V30 6749 N 617.846 1.41785 0.688094 0
M  V30 6750 C 619.071 1.45117 1.48175 0
M  V30 6751 C 619.496 0.060129 1.88004 0
M  V30 6752 O 618.854 -0.938385 1.55126 0
M  V30 6753 C 618.902 2.37224 2.71583 0
M  V30 6754 O 618.006 1.83443 3.69354 0
M  V30 6755 H 617.347 0.492208 0.445676 0
M  V30 6756 H 619.877 1.86329 0.845145 0
M  V30 6757 H 619.887 2.53353 3.19806 0
M  V30 6758 H 618.562 3.38293 2.41931 0
M  V30 6759 H 617.139 1.76802 3.28322 0
M  V30 6760 N 619.324 -0.923095 1.27737 0
M  V30 6761 C 620.272 -2.04567 1.10703 0
M  V30 6762 C 621.266 -1.69375 0.0288445 0
M  V30 6763 O 622.472 -1.79027 0.186913 0
M  V30 6764 H 618.847 -0.670109 0.34126 0
M  V30 6765 H 620.818 -2.1608 2.05796 0
M  V30 6766 C 619.567 -3.38934 0.775837 0
M  V30 6767 H 618.89 -3.66501 1.59741 0
M  V30 6768 H 620.33 -4.18239 0.696548 0
M  V30 6769 C 618.789 -3.32863 -0.520012 0
M  V30 6770 O 619.319 -3.70462 -1.55308 0
M  V30 6771 N 617.525 -2.85958 -0.51732 0
M  V30 6772 H 617.072 -2.55557 0.32379 0
M  V30 6773 H 617.03 -2.82279 -1.38441 0
M  V30 6774 N 620.802 -1.09834 -1.13024 0
M  V30 6775 C 621.712 -0.753731 -2.22162 0
M  V30 6776 C 622.728 0.246105 -1.72251 0
M  V30 6777 O 623.904 0.0864051 -2.01215 0
M  V30 6778 C 620.969 -0.183958 -3.46212 0
M  V30 6779 C 620.03 -1.24028 -4.10993 0
M  V30 6780 C 619.263 -0.697597 -5.29121 0
M  V30 6781 O 619.486 0.478092 -5.68393 0
M  V30 6782 O 618.42 -1.4546 -5.84059 0
M  V30 6783 H 622.246 -1.66456 -2.5402 0
M  V30 6784 H 619.831 -0.873026 -1.21238 0
M  V30 6785 H 621.713 0.130257 -4.21199 0
M  V30 6786 H 620.388 0.699823 -3.16045 0
M  V30 6787 H 619.295 -1.60725 -3.37814 0
M  V30 6788 H 620.628 -2.09685 -4.45301 0
M  V30 6789 N 622.28 1.30327 -0.886154 0
M  V30 6790 C 623.51 1.99964 -0.519421 0
M  V30 6791 C 623.918 1.66593 0.89686 0
M  V30 6792 O 623.261 0.899886 1.60149 0
M  V30 6793 C 623.323 3.54187 -0.615795 0
M  V30 6794 C 622.987 4.11078 -1.9966 0
M  V30 6795 C 623.984 4.26985 -2.96614 0
M  V30 6796 C 621.669 4.46429 -2.30231 0
M  V30 6797 C 623.663 4.77456 -4.22273 0
M  V30 6798 C 621.35 4.966 -3.56135 0
M  V30 6799 C 622.348 5.12066 -4.5197 0
M  V30 6800 O 622.036 5.61154 -5.7564 0
M  V30 6801 H 621.768 0.645979 -0.199217 0
M  V30 6802 H 624.322 1.67154 -1.19368 0
M  V30 6803 H 622.552 3.86528 0.115448 0
M  V30 6804 H 624.241 4.05065 -0.26017 0
M  V30 6805 H 625.007 3.99975 -2.74308 0
M  V30 6806 H 620.886 4.33658 -1.56404 0
M  V30 6807 H 624.43 4.89444 -4.97082 0
M  V30 6808 H 620.327 5.23045 -3.78277 0
M  V30 6809 H 621.095 5.79494 -5.78039 0
M  V30 6810 N 623.758 0.647228 1.43697 0
M  V30 6811 C 624.705 -0.0480092 2.3075 0
M  V30 6812 C 625.675 -0.820705 1.44408 0
M  V30 6813 O 626.86 -0.798515 1.73287 0
M  V30 6814 C 624 -1.01259 3.2991 0
M  V30 6815 C 623.113 -0.236629 4.31351 0
M  V30 6816 C 622.248 -1.19447 5.17596 0
M  V30 6817 C 621.287 -0.408595 6.10735 0
M  V30 6818 N 620.424 -1.31772 6.89623 0
M  V30 6819 H 625.264 0.700238 2.89656 0
M  V30 6820 H 622.801 0.357082 1.427 0
M  V30 6821 H 624.759 -1.58538 3.85903 0
M  V30 6822 H 623.389 -1.72778 2.72667 0
M  V30 6823 H 622.441 0.452353 3.77701 0
M  V30 6824 H 623.753 0.374731 4.9739 0
M  V30 6825 H 622.907 -1.83809 5.78186 0
M  V30 6826 H 621.646 -1.83975 4.51669 0
M  V30 6827 H 620.651 0.24841 5.49239 0
M  V30 6828 H 621.876 0.232188 6.78703 0
M  V30 6829 H 619.822 -1.94991 6.2635 0
M  V30 6830 H 619.739 -0.760779 7.52162 0
M  V30 6831 H 621.007 -1.94967 7.54724 0
M  V30 6832 N 625.236 -1.5273 0.388769 0
M  V30 6833 C 626.484 -2.01174 -0.193208 0
M  V30 6834 C 626.805 -1.27705 -1.47365 0
M  V30 6835 O 626.075 -0.396966 -1.91836 0
M  V30 6836 H 624.655 -0.743287 -0.0743871 0
M  V30 6837 H 627.317 -1.87826 0.520336 0
M  V30 6838 H 626.413 -3.09477 -0.403803 0
M  V30 6839 N 626.714 -0.118576 -1.57153 0
M  V30 6840 C 627.647 0.869046 -2.11004 0
M  V30 6841 C 628.625 1.26115 -1.02634 0
M  V30 6842 O 629.809 1.36228 -1.30285 0
M  V30 6843 C 626.936 2.16297 -2.6064 0
M  V30 6844 C 625.982 1.91896 -3.80891 0
M  V30 6845 S 626.815 1.13562 -5.2332 0
M  V30 6846 C 627.971 2.44135 -5.76324 0
M  V30 6847 H 628.204 0.411005 -2.94445 0
M  V30 6848 H 625.737 0.0951891 -1.54106 0
M  V30 6849 H 627.695 2.90642 -2.89892 0
M  V30 6850 H 626.356 2.59219 -1.77382 0
M  V30 6851 H 625.549 2.8777 -4.13768 0
M  V30 6852 H 625.151 1.25672 -3.52253 0
M  V30 6853 H 627.443 3.39976 -5.86022 0
M  V30 6854 H 628.386 2.15803 -6.74414 0
M  V30 6855 H 628.794 2.53483 -5.04387 0
M  V30 6856 N 628.193 1.56834 0.155195 0
M  V30 6857 C 629.604 1.72421 0.716082 0
M  V30 6858 C 629.955 0.731685 1.82046 0
M  V30 6859 O 629.08 -0.103481 2.16152 0
M  V30 6860 C 629.675 3.12629 1.30571 0
M  V30 6861 C 628.234 3.29846 1.81325 0
M  V30 6862 C 627.381 2.68359 0.698494 0
M  V30 6863 H 630.332 1.58544 -0.0703861 0
M  V30 6864 H 630.353 3.12174 2.1755 0
M  V30 6865 H 629.865 3.84844 0.501701 0
M  V30 6866 H 627.966 2.62614 2.64319 0
M  V30 6867 H 628.079 4.37727 1.9476 0
M  V30 6868 H 626.443 2.28604 1.12305 0
M  V30 6869 H 627.226 3.43171 -0.0939366 0
M  V30 6870 N 629.671 -0.424282 1.51781 0
M  V30 6871 C 630.919 -1.17028 1.64769 0
M  V30 6872 C 631.24 -1.91409 0.372523 0
M  V30 6873 O 630.51 -1.86091 -0.612108 0
M  V30 6874 H 629.09 -0.434992 0.607282 0
M  V30 6875 H 631.752 -0.485169 1.88765 0
M  V30 6876 H 630.848 -1.8927 2.4816 0
M  V30 6877 N 631.149 -1.42148 -0.680565 0
M  V30 6878 C 632.397 -1.42029 -1.43779 0
M  V30 6879 C 632.718 -0.0356347 -1.94967 0
M  V30 6880 O 631.988 0.924936 -1.7269 0
M  V30 6881 H 630.568 -0.522835 -0.533529 0
M  V30 6882 H 633.23 -1.7752 -0.804538 0
M  V30 6883 H 632.326 -2.11658 -2.29363 0
M  V30 6884 N 632.627 0.916307 -1.28225 0
M  V30 6885 C 634.043 1.19425 -1.05876 0
M  V30 6886 C 634.243 2.005 0.2005 0
M  V30 6887 O 633.299 2.35806 0.902873 0
M  V30 6888 C 634.612 1.93133 -2.30478 0
M  V30 6889 C 636.16 2.06026 -2.35632 0
M  V30 6890 C 636.635 2.83141 -3.59994 0
M  V30 6891 N 638.126 2.90704 -3.60618 0
M  V30 6892 C 638.861 3.50865 -4.53521 0
M  V30 6893 N 638.357 4.12327 -5.56739 0
M  V30 6894 N 640.15 3.48379 -4.41122 0
M  V30 6895 H 632.301 0.37496 -2.09064 0
M  V30 6896 H 634.564 0.228531 -0.920042 0
M  V30 6897 H 634.27 1.40985 -3.22205 0
M  V30 6898 H 634.144 2.93696 -2.36691 0
M  V30 6899 H 636.531 2.57355 -1.44404 0
M  V30 6900 H 636.612 1.04647 -2.33415 0
M  V30 6901 H 636.256 2.32492 -4.51564 0
M  V30 6902 H 636.186 3.84829 -3.59464 0
M  V30 6903 H 638.677 2.47034 -2.85977 0
M  V30 6904 H 638.99 4.56205 -6.23776 0
M  V30 6905 H 637.335 4.10839 -5.60568 0
M  V30 6906 H 640.526 2.99572 -3.59686 0
M  V30 6907 H 640.699 3.94974 -5.13712 0
M  V30 6908 N 634.105 1.10431 1.1244 0
M  V30 6909 C 635.053 0.747974 2.20246 0
M  V30 6910 C 636.047 -0.255848 1.67457 0
M  V30 6911 O 637.253 -0.116221 1.79624 0
M  V30 6912 H 633.628 0.223946 0.71788 0
M  V30 6913 H 635.599 1.6661 2.47556 0
M  V30 6914 C 634.348 0.195957 3.47147 0
M  V30 6915 H 633.671 0.959606 3.88113 0
M  V30 6916 H 635.111 -0.0153154 4.23997 0
M  V30 6917 C 633.57 -1.07132 3.19413 0
M  V30 6918 O 634.1 -2.15284 3.3914 0
M  V30 6919 N 632.306 -0.98994 2.73219 0
M  V30 6920 H 631.853 -0.109736 2.57366 0
M  V30 6921 H 631.811 -1.83856 2.55038 0
M  V30 6922 N 635.583 -1.29855 0.893053 0
M  V30 6923 C 636.513 -2.3035 0.382249 0
M  V30 6924 C 637.494 -1.61328 -0.539203 0
M  V30 6925 O 638.679 -1.88882 -0.451342 0
M  V30 6926 C 635.809 -3.45024 -0.396983 0
M  V30 6927 C 634.763 -4.258 0.433437 0
M  V30 6928 C 634.089 -5.32605 -0.472889 0
M  V30 6929 C 635.389 -4.94549 1.67984 0
M  V30 6930 H 637.083 -2.73325 1.22205 0
M  V30 6931 H 634.629 -1.314 0.589073 0
M  V30 6932 H 636.582 -4.14398 -0.765024 0
M  V30 6933 H 635.306 -3.00875 -1.2705 0
M  V30 6934 H 633.965 -3.58125 0.783723 0
M  V30 6935 H 633.613 -4.84702 -1.34435 0
M  V30 6936 H 633.313 -5.87547 0.0789958 0
M  V30 6937 H 634.837 -6.04832 -0.837269 0
M  V30 6938 H 636.251 -5.56395 1.38192 0
M  V30 6939 H 634.648 -5.59393 2.17254 0
M  V30 6940 H 635.718 -4.20215 2.41965 0
M  V30 6941 N 637.061 -0.65484 -1.43351 0
M  V30 6942 C 638.291 -0.176429 -2.05845 0
M  V30 6943 C 638.699 1.16375 -1.49176 0
M  V30 6944 O 638.042 1.72981 -0.618322 0
M  V30 6945 C 638.104 -0.0125844 -3.59498 0
M  V30 6946 C 637.768 -1.27831 -4.38758 0
M  V30 6947 C 638.765 -2.2074 -4.70712 0
M  V30 6948 C 636.45 -1.52035 -4.78739 0
M  V30 6949 C 638.444 -3.36145 -5.41558 0
M  V30 6950 C 636.131 -2.67732 -5.49329 0
M  V30 6951 C 637.129 -3.59612 -5.80662 0
M  V30 6952 O 636.817 -4.73289 -6.4981 0
M  V30 6953 H 636.549 -0.0879682 -0.670252 0
M  V30 6954 H 639.103 -0.896193 -1.84818 0
M  V30 6955 H 637.333 0.762567 -3.79107 0
M  V30 6956 H 639.022 0.423392 -4.03686 0
M  V30 6957 H 639.788 -2.03284 -4.40341 0
M  V30 6958 H 635.667 -0.813987 -4.53757 0
M  V30 6959 H 639.211 -4.07881 -5.65932 0
M  V30 6960 H 635.108 -2.85122 -5.79116 0
M  V30 6961 H 635.876 -4.72575 -6.68293 0
M  V30 6962 N 638.539 1.52521 -0.396863 0
M  V30 6963 C 639.486 2.26671 0.434624 0
M  V30 6964 C 640.456 1.28584 1.05144 0
M  V30 6965 O 641.641 1.57426 1.07804 0
M  V30 6966 C 638.781 3.08234 1.55196 0
M  V30 6967 C 637.894 4.21261 0.957262 0
M  V30 6968 C 637.029 4.90205 2.04627 0
M  V30 6969 C 636.068 5.95213 1.42787 0
M  V30 6970 N 635.205 6.57723 2.45651 0
M  V30 6971 H 640.045 2.973 -0.204139 0
M  V30 6972 H 637.582 1.46669 -0.112505 0
M  V30 6973 H 639.54 3.53819 2.2106 0
M  V30 6974 H 638.17 2.398 2.16092 0
M  V30 6975 H 637.222 3.79935 0.188005 0
M  V30 6976 H 638.534 4.96624 0.465416 0
M  V30 6977 H 637.688 5.39133 2.78246 0
M  V30 6978 H 636.427 4.14383 2.57174 0
M  V30 6979 H 635.432 5.45616 0.676968 0
M  V30 6980 H 636.657 6.72972 0.910255 0
M  V30 6981 H 634.603 5.84737 2.97353 0
M  V30 6982 H 634.52 7.28723 2.01243 0
M  V30 6983 H 635.788 7.11293 3.18876 0
M  V30 6984 N 640.017 0.126909 1.57088 0
M  V30 6985 C 641.266 -0.529024 1.94639 0
M  V30 6986 C 641.579 -1.67323 1.01304 0
M  V30 6987 O 642.785 -2.39245 1.28352 0
M  V30 6988 C 641.241 -0.992483 3.45945 0
M  V30 6989 C 640.849 0.123691 4.47829 0
M  V30 6990 C 642.593 -1.61934 3.924 0
M  V30 6991 C 640.5 -0.356911 5.90322 0
M  V30 6992 H 639.43 -0.201397 0.726605 0
M  V30 6993 H 642.081 0.208032 1.82317 0
M  V30 6994 H 640.463 -1.7842 3.53528 0
M  V30 6995 H 641.637 0.900168 4.51922 0
M  V30 6996 H 639.952 0.657699 4.11173 0
M  V30 6997 H 642.549 -1.9902 4.96281 0
M  V30 6998 H 642.892 -2.50075 3.32819 0
M  V30 6999 H 643.425 -0.892894 3.8765 0
M  V30 7000 H 640.164 0.488636 6.53676 0
M  V30 7001 H 639.684 -1.0997 5.89633 0
M  V30 7002 H 641.363 -0.815547 6.41839 0
M  V30 7003 N 641.495 -1.56914 -0.146875 0
M  V30 7004 C 642.427 -1.94878 -1.20645 0
M  V30 7005 C 643.44 -0.844633 -1.39175 0
M  V30 7006 O 644.629 -1.12304 -1.38744 0
M  V30 7007 C 641.729 -2.20769 -2.57127 0
M  V30 7008 C 640.902 -3.52053 -2.59572 0
M  V30 7009 C 639.961 -3.66482 -3.77594 0
M  V30 7010 O 638.987 -4.38873 -3.62462 0
M  V30 7011 N 640.189 -3.03156 -4.95052 0
M  V30 7012 H 642.954 -2.86374 -0.883757 0
M  V30 7013 H 640.515 -1.58366 -0.336436 0
M  V30 7014 H 642.507 -2.27664 -3.34591 0
M  V30 7015 H 641.077 -1.35538 -2.81688 0
M  V30 7016 H 640.297 -3.56598 -1.68023 0
M  V30 7017 H 641.585 -4.38396 -2.58238 0
M  V30 7018 H 640.983 -2.44258 -5.10249 0
M  V30 7019 H 639.54 -3.15611 -5.70292 0
M  V30 7020 N 642.974 0.416227 -1.52004 0
M  V30 7021 C 643.904 1.51365 -1.77795 0
M  V30 7022 C 644.885 1.58059 -0.628601 0
M  V30 7023 O 646.07 1.73447 -0.873478 0
M  V30 7024 C 643.2 2.89256 -1.92219 0
M  V30 7025 C 642.154 2.97415 -3.0778 0
M  V30 7026 C 641.48 4.37492 -3.07417 0
M  V30 7027 C 642.78 2.69551 -4.47369 0
M  V30 7028 H 644.474 1.30033 -2.69688 0
M  V30 7029 H 642.02 0.624112 -1.29772 0
M  V30 7030 H 643.973 3.66008 -2.08845 0
M  V30 7031 H 642.697 3.11866 -0.969917 0
M  V30 7032 H 641.356 2.23107 -2.90893 0
M  V30 7033 H 641.004 4.571 -2.09925 0
M  V30 7034 H 640.704 4.43877 -3.85029 0
M  V30 7035 H 642.228 5.16188 -3.26162 0
M  V30 7036 H 643.642 3.36028 -4.64497 0
M  V30 7037 H 642.039 2.87321 -5.26846 0
M  V30 7038 H 643.109 1.65029 -4.55953 0
M  V30 7039 N 644.452 1.42507 0.673017 0
M  V30 7040 C 645.677 1.4668 1.46627 0
M  V30 7041 C 646.102 0.080066 1.8793 0
M  V30 7042 O 645.46 -0.921879 1.56112 0
M  V30 7043 C 645.508 2.40091 2.69051 0
M  V30 7044 O 644.612 1.8735 3.67387 0
M  V30 7045 H 643.953 0.496908 0.44043 0
M  V30 7046 H 646.483 1.87215 0.825334 0
M  V30 7047 H 646.493 2.56731 3.17101 0
M  V30 7048 H 645.168 3.4084 2.3833 0
M  V30 7049 H 643.745 1.80274 3.26429 0
M  V30 7050 N 645.93 -0.909495 1.28709 0
M  V30 7051 C 647.207 -1.63865 1.06806 0
M  V30 7052 C 647.587 -2.07445 -0.391143 0
M  V30 7053 O 646.935 -1.82269 -1.37805 0
M  V30 7054 C 647.145 -2.82692 2.04661 0
M  V30 7055 C 648.493 -3.5361 2.35042 0
M  V30 7056 O 649.517 -2.92847 2.02779 0
M  V30 7057 O 648.376 -4.63131 2.90124 0
M  V30 7058 H 645.47 -0.719065 0.408502 0
M  V30 7059 H 648.016 -0.958424 1.40044 0
M  V30 7060 H 646.788 -2.47614 3.0299 0
M  V30 7061 H 646.411 -3.58426 1.72095 0
M  V30 7062 N 647.408 -1.11026 -1.11852 0
M  V30 7063 C 648.638 -0.877544 -1.87037 0
M  V30 7064 C 649.046 0.575925 -1.80221 0
M  V30 7065 O 648.389 1.40916 -1.17849 0
M  V30 7066 C 648.451 -1.25529 -3.36872 0
M  V30 7067 C 648.115 -2.71704 -3.67459 0
M  V30 7068 C 649.112 -3.69931 -3.65304 0
M  V30 7069 C 646.797 -3.08243 -3.966 0
M  V30 7070 C 648.791 -5.02717 -3.9186 0
M  V30 7071 C 646.478 -4.41215 -4.22815 0
M  V30 7072 C 647.476 -5.38262 -4.20432 0
M  V30 7073 O 647.164 -6.68839 -4.45992 0
M  V30 7074 H 646.896 -0.314374 -0.598452 0
M  V30 7075 H 649.45 -1.48015 -1.42411 0
M  V30 7076 H 647.68 -0.595808 -3.82082 0
M  V30 7077 H 649.369 -0.999064 -3.93413 0
M  V30 7078 H 650.135 -3.43047 -3.42846 0
M  V30 7079 H 646.014 -2.33326 -3.97593 0
M  V30 7080 H 649.558 -5.78456 -3.89916 0
M  V30 7081 H 645.455 -4.67835 -4.44748 0
M  V30 7082 H 646.223 -6.74563 -4.63581 0
M  V30 7083 N 648.886 1.2938 -0.899927 0
M  V30 7084 C 650.114 1.99691 -0.541386 0
M  V30 7085 C 650.529 1.67355 0.873936 0
M  V30 7086 O 649.886 0.918728 1.57688 0
M  V30 7087 C 649.937 3.54168 -0.72438 0
M  V30 7088 O 649.658 3.85359 -2.08399 0
M  V30 7089 C 651.159 4.41746 -0.370819 0
M  V30 7090 H 648.379 0.638037 -0.207726 0
M  V30 7091 H 650.923 1.6491 -1.20934 0
M  V30 7092 H 649.078 3.87261 -0.103607 0
M  V30 7093 H 649.492 4.80032 -2.11352 0
M  V30 7094 H 650.966 5.49256 -0.549693 0
M  V30 7095 H 651.443 4.33712 0.692148 0
M  V30 7096 H 652.049 4.14125 -0.968543 0
M  V30 7097 N 650.364 0.662433 1.43002 0
M  V30 7098 C 651.311 -0.0235324 2.30788 0
M  V30 7099 C 652.281 -0.805342 1.4527 0
M  V30 7100 O 653.466 -0.78009 1.74124 0
M  V30 7101 C 650.606 -0.977545 3.30965 0
M  V30 7102 C 649.719 -0.190865 4.31578 0
M  V30 7103 C 648.854 -1.13951 5.18834 0
M  V30 7104 C 647.893 -0.343796 6.11134 0
M  V30 7105 N 647.03 -1.2445 6.90982 0
M  V30 7106 H 651.87 0.730921 2.88897 0
M  V30 7107 H 649.407 0.372197 1.42313 0
M  V30 7108 H 651.365 -1.54437 3.87563 0
M  V30 7109 H 649.995 -1.69877 2.74484 0
M  V30 7110 H 649.047 0.492388 3.772 0
M  V30 7111 H 650.359 0.427464 4.96965 0
M  V30 7112 H 649.513 -1.77666 5.80103 0
M  V30 7113 H 648.252 -1.79174 4.53595 0
M  V30 7114 H 647.257 0.30665 5.48944 0
M  V30 7115 H 648.482 0.304161 6.78419 0
M  V30 7116 H 646.428 -1.88336 6.28383 0
M  V30 7117 H 646.345 -0.680959 7.52927 0
M  V30 7118 H 647.613 -1.86952 7.56749 0
M  V30 7119 N 651.842 -1.52309 0.404946 0
M  V30 7120 C 653.088 -2.02065 -0.172455 0
M  V30 7121 C 653.421 -1.29022 -1.45145 0
M  V30 7122 O 652.696 -0.395284 -1.90441 0
M  V30 7123 C 652.979 -3.5759 -0.424433 0
M  V30 7124 C 652.832 -4.41287 0.870945 0
M  V30 7125 C 654.151 -4.23186 -1.20837 0
M  V30 7126 H 651.27 -0.734454 -0.0612035 0
M  V30 7127 H 653.912 -1.82236 0.53759 0
M  V30 7128 H 652.062 -3.74617 -1.02929 0
M  V30 7129 H 653.734 -4.3598 1.50729 0
M  V30 7130 H 651.977 -4.07669 1.48284 0
M  V30 7131 H 652.648 -5.48171 0.649083 0
M  V30 7132 H 655.124 -4.10232 -0.696338 0
M  V30 7133 H 654 -5.31953 -1.35343 0
M  V30 7134 H 654.261 -3.81862 -2.22786 0
M  V30 7135 N 653.32 -0.135238 -1.57019 0
M  V30 7136 C 654.548 0.526066 -2.001 0
M  V30 7137 C 654.963 1.59184 -1.01519 0
M  V30 7138 O 654.32 1.82497 -0.0104258 0
M  V30 7139 C 654.371 1.13744 -3.43139 0
M  V30 7140 O 654.092 0.114259 -4.37951 0
M  V30 7141 C 655.593 1.8805 -4.01438 0
M  V30 7142 H 652.813 0.137962 -0.656664 0
M  V30 7143 H 655.357 -0.226359 -2.03243 0
M  V30 7144 H 653.512 1.84056 -3.40885 0
M  V30 7145 H 653.926 0.56058 -5.21496 0
M  V30 7146 H 655.4 2.26133 -5.03555 0
M  V30 7147 H 655.877 2.76194 -3.41487 0
M  V30 7148 H 656.483 1.22464 -4.07287 0
M  V30 7149 N 654.798 1.5699 0.138552 0
M  V30 7150 C 656.038 1.85619 0.855849 0
M  V30 7151 C 656.402 0.720663 1.77962 0
M  V30 7152 O 657.603 0.888221 2.53701 0
M  V30 7153 C 655.874 3.19447 1.60275 0
M  V30 7154 S 657.433 3.69656 2.36431 0
M  V30 7155 H 654.251 0.650926 0.286035 0
M  V30 7156 H 656.853 1.9516 0.115331 0
M  V30 7157 H 655.557 4.00053 0.915737 0
M  V30 7158 H 655.088 3.12935 2.38402 0
M  V30 7159 H 657.103 3.39595 3.61787 0
M  V30 7160 N 656.276 -0.40816 1.52223 0
M  V30 7161 C 657.206 -1.5042 1.78595 0
M  V30 7162 C 658.187 -1.57723 0.636974 0
M  V30 7163 O 659.372 -1.72982 0.882664 0
M  V30 7164 C 656.502 -2.88232 1.93751 0
M  V30 7165 C 655.456 -2.95779 3.09352 0
M  V30 7166 C 654.782 -4.35855 3.09732 0
M  V30 7167 C 656.082 -2.67175 4.48793 0
M  V30 7168 H 657.776 -1.28601 2.70374 0
M  V30 7169 H 655.322 -0.617221 1.30101 0
M  V30 7170 H 657.275 -3.64895 2.10783 0
M  V30 7171 H 655.999 -3.11347 0.986443 0
M  V30 7172 H 654.658 -2.21561 2.92072 0
M  V30 7173 H 654.306 -4.55981 2.12346 0
M  V30 7174 H 654.006 -4.41829 3.87377 0
M  V30 7175 H 655.53 -5.14451 3.28895 0
M  V30 7176 H 656.944 -3.3356 4.66273 0
M  V30 7177 H 655.341 -2.84523 5.28362 0
M  V30 7178 H 656.411 -1.62609 4.56822 0
M  V30 7179 N 657.755 -1.42862 -0.66545 0
M  V30 7180 C 658.98 -1.47456 -1.45848 0
M  V30 7181 C 659.405 -0.0900312 -1.87884 0
M  V30 7182 O 658.763 0.913587 -1.56599 0
M  V30 7183 C 658.811 -2.41514 -2.67774 0
M  V30 7184 O 657.915 -1.89296 -3.66389 0
M  V30 7185 H 657.256 -0.499236 -0.437789 0
M  V30 7186 H 659.786 -1.8765 -0.815394 0
M  V30 7187 H 659.796 -2.58409 -3.15735 0
M  V30 7188 H 658.471 -3.42099 -2.36519 0
M  V30 7189 H 657.048 -1.82003 -3.25468 0
M  V30 7190 N 659.233 0.902656 -1.29189 0
M  V30 7191 C 660.473 1.6672 -1.18254 0
M  V30 7192 C 660.837 1.90199 0.262336 0
M  V30 7193 O 662.038 2.6421 0.494612 0
M  V30 7194 C 660.309 2.98178 -1.9704 0
M  V30 7195 S 661.868 3.89226 -2.02605 0
M  V30 7196 H 658.686 0.572432 -0.421714 0
M  V30 7197 H 661.288 1.07279 -1.63436 0
M  V30 7198 H 659.992 2.788 -3.01163 0
M  V30 7199 H 659.523 3.62661 -1.5245 0
M  V30 7200 H 661.538 4.82913 -1.14059 0
M  V30 7201 N 660.711 1.11618 1.11262 0
M  V30 7202 C 661.621 0.78898 2.20935 0
M  V30 7203 C 662.637 -0.21867 1.7262 0
M  V30 7204 O 663.813 -0.0543826 2.01327 0
M  V30 7205 C 660.878 0.239014 3.45875 0
M  V30 7206 C 659.939 1.3055 4.08968 0
M  V30 7207 C 659.172 0.781687 5.27944 0
M  V30 7208 O 659.395 -0.387605 5.69082 0
M  V30 7209 O 658.329 1.54734 5.81671 0
M  V30 7210 H 662.155 1.70477 2.51339 0
M  V30 7211 H 659.74 0.892203 1.19834 0
M  V30 7212 H 661.622 -0.0632312 4.21353 0
M  V30 7213 H 660.297 -0.649454 3.17118 0
M  V30 7214 H 659.204 1.66079 3.35214 0
M  V30 7215 H 660.537 2.16743 4.41909 0
M  V30 7216 N 662.189 -1.289 0.906776 0
M  V30 7217 C 663.119 -2.29932 0.406659 0
M  V30 7218 C 664.1 -1.6189 -0.522061 0
M  V30 7219 O 665.285 -1.8935 -0.431283 0
M  V30 7220 C 662.415 -3.45425 -0.360366 0
M  V30 7221 C 661.369 -4.25316 0.478574 0
M  V30 7222 C 660.695 -5.33076 -0.416373 0
M  V30 7223 C 661.995 -4.92739 1.7322 0
M  V30 7224 H 663.689 -2.72013 1.25097 0
M  V30 7225 H 661.235 -1.30768 0.602977 0
M  V30 7226 H 663.188 -4.15186 -0.721029 0
M  V30 7227 H 661.912 -3.02206 -1.23852 0
M  V30 7228 H 660.571 -3.57273 0.821662 0
M  V30 7229 H 660.219 -4.86101 -1.29287 0
M  V30 7230 H 659.919 -5.8743 0.141309 0
M  V30 7231 H 661.443 -6.05686 -0.773072 0
M  V30 7232 H 662.857 -5.54898 1.44086 0
M  V30 7233 H 661.254 -5.57057 2.23175 0
M  V30 7234 H 662.324 -4.17625 2.46408 0
M  V30 7235 N 663.667 -0.670007 -1.42649 0
M  V30 7236 C 664.615 0.0230106 -2.32589 0
M  V30 7237 C 665.609 0.795585 -1.49555 0
M  V30 7238 O 666.815 0.70409 -1.65658 0
M  V30 7239 H 663.19 0.0262342 -0.751542 0
M  V30 7240 H 665.161 -0.753009 -2.88743 0
M  V30 7241 C 663.91 0.963872 -3.34073 0
M  V30 7242 H 663.233 0.378813 -3.98001 0
M  V30 7243 H 664.673 1.41755 -3.99602 0
M  V30 7244 C 663.132 2.06797 -2.65964 0
M  V30 7245 O 663.662 3.15383 -2.48789 0
M  V30 7246 N 661.868 1.83831 -2.25066 0
M  V30 7247 H 661.415 0.955235 -2.39234 0
M  V30 7248 H 661.373 2.57895 -1.79827 0
M  V30 7249 N 665.145 1.52092 -0.413018 0
M  V30 7250 C 666.556 1.86617 0.0556967 0
M  V30 7251 C 666.907 1.33156 1.44097 0
M  V30 7252 O 666.032 0.672417 2.05688 0
M  V30 7253 C 666.627 3.38628 0.107844 0
M  V30 7254 C 665.186 3.72778 0.520904 0
M  V30 7255 C 664.333 2.75649 -0.302109 0
M  V30 7256 H 667.284 1.45663 -0.629919 0
M  V30 7257 H 667.305 3.69152 0.922324 0
M  V30 7258 H 666.817 3.77508 -0.900506 0
M  V30 7259 H 664.918 3.39478 1.53575 0
M  V30 7260 H 665.031 4.7838 0.262591 0
M  V30 7261 H 663.395 2.53603 0.236115 0
M  V30 7262 H 664.178 3.17369 -1.30888 0
M  V30 7263 N 666.623 0.143563 1.56945 0
M  V30 7264 C 667.533 -0.810562 2.20152 0
M  V30 7265 C 668.549 -1.27431 1.1848 0
M  V30 7266 O 669.725 -1.33221 1.51044 0
M  V30 7267 C 666.79 -2.03353 2.80799 0
M  V30 7268 C 665.851 -1.61936 3.97587 0
M  V30 7269 C 665.084 -2.78403 4.55332 0
M  V30 7270 O 665.307 -3.94521 4.11958 0
M  V30 7271 O 664.241 -2.54073 5.45647 0
M  V30 7272 H 668.067 -0.30253 3.02189 0
M  V30 7273 H 665.652 -0.0832925 1.49168 0
M  V30 7274 H 667.534 -2.74932 3.19359 0
M  V30 7275 H 666.209 -2.53116 2.01777 0
M  V30 7276 H 665.116 -0.873904 3.6375 0
M  V30 7277 H 666.449 -1.16892 4.78118 0
M  V30 7278 N 668.101 -1.57061 -0.130224 0
M  V30 7279 C 669.517 -1.52103 -0.483413 0
M  V30 7280 C 669.717 -0.854752 -1.82473 0
M  V30 7281 O 668.773 -0.432342 -2.48771 0
M  V30 7282 C 670.086 -2.96872 -0.47825 0
M  V30 7283 C 671.634 -3.07902 -0.562592 0
M  V30 7284 C 672.109 -4.54211 -0.587929 0
M  V30 7285 N 673.6 -4.58621 -0.649684 0
M  V30 7286 C 674.335 -5.69227 -0.690551 0
M  V30 7287 N 673.831 -6.89358 -0.689743 0
M  V30 7288 N 675.624 -5.57304 -0.732708 0
M  V30 7289 H 667.775 -1.98764 0.748779 0
M  V30 7290 H 670.038 -0.907248 0.274965 0
M  V30 7291 H 669.744 -3.48944 0.439444 0
M  V30 7292 H 669.618 -3.53716 -1.31013 0
M  V30 7293 H 672.005 -2.5584 -1.47071 0
M  V30 7294 H 672.086 -2.54073 0.296764 0
M  V30 7295 H 671.73 -5.06915 0.316096 0
M  V30 7296 H 671.66 -5.0584 -1.46401 0
M  V30 7297 H 674.151 -3.72146 -0.656927 0
M  V30 7298 H 674.464 -7.69408 -0.723239 0
M  V30 7299 H 672.809 -6.91884 -0.657347 0
M  V30 7300 H 676 -4.62363 -0.730625 0
M  V30 7301 H 676.173 -6.43515 -0.76109 0
M  V30 7302 N 669.579 0.400081 -1.52437 0
M  V30 7303 C 670.819 1.15526 -1.68622 0
M  V30 7304 C 671.183 1.87533 -0.411744 0
M  V30 7305 O 672.384 2.6501 -0.449804 0
M  V30 7306 C 670.655 2.11618 -2.88015 0
M  V30 7307 S 672.214 2.95121 -3.24729 0
M  V30 7308 H 669.032 0.39123 -0.593683 0
M  V30 7309 H 671.634 0.441255 -1.90455 0
M  V30 7310 H 670.338 1.5742 -3.79008 0
M  V30 7311 H 669.869 2.87544 -2.68481 0
M  V30 7312 H 671.884 4.13653 -2.74055 0
M  V30 7313 N 671.057 1.43213 0.657864 0
M  V30 7314 C 671.989 1.43974 1.78337 0
M  V30 7315 C 673.002 0.336482 1.59285 0
M  V30 7316 O 674.191 0.600631 1.68091 0
M  V30 7317 C 671.291 1.23242 3.15697 0
M  V30 7318 C 670.464 2.46319 3.61449 0
M  V30 7319 C 669.523 2.2088 4.77597 0
M  V30 7320 O 668.549 2.942 4.87273 0
M  V30 7321 N 669.751 1.22251 5.67481 0
M  V30 7322 H 672.516 2.40993 1.78164 0
M  V30 7323 H 670.077 1.3831 0.841549 0
M  V30 7324 H 672.069 1.04113 3.91079 0
M  V30 7325 H 670.639 0.346849 3.1067 0
M  V30 7326 H 669.859 2.80904 2.76563 0
M  V30 7327 H 671.147 3.28239 3.88763 0
M  V30 7328 H 670.545 0.616433 5.62331 0
M  V30 7329 H 669.102 1.09107 6.42603 0
M  V30 7330 N 672.536 -0.895792 1.29666 0
M  V30 7331 C 673.766 -1.67757 1.20586 0
M  V30 7332 C 674.174 -1.87729 -0.235432 0
M  V30 7333 O 673.517 -1.41706 -1.16898 0
M  V30 7334 C 673.579 -3.08117 1.85215 0
M  V30 7335 C 673.243 -3.1136 3.3452 0
M  V30 7336 C 674.24 -2.91217 4.30684 0
M  V30 7337 C 671.925 -3.33302 3.75786 0
M  V30 7338 C 673.919 -2.92955 5.66089 0
M  V30 7339 C 671.606 -3.3467 5.11311 0
M  V30 7340 C 672.604 -3.14519 6.06273 0
M  V30 7341 O 672.292 -3.15684 7.39323 0
M  V30 7342 H 672.024 -0.530601 0.418854 0
M  V30 7343 H 674.578 -1.12831 1.71634 0
M  V30 7344 H 672.808 -3.64661 1.28683 0
M  V30 7345 H 674.497 -3.68399 1.70403 0
M  V30 7346 H 675.263 -2.74074 4.00136 0
M  V30 7347 H 671.142 -3.48025 3.02324 0
M  V30 7348 H 674.686 -2.77145 6.40185 0
M  V30 7349 H 670.583 -3.51346 5.41504 0
M  V30 7350 H 671.351 -3.31924 7.48177 0
M  V30 7351 N 674.014 -1.12206 -1.10668 0
M  V30 7352 C 675.244 -0.897332 -1.86095 0
M  V30 7353 C 675.652 0.556778 -1.80822 0
M  V30 7354 O 674.995 1.39658 -1.19337 0
M  V30 7355 C 675.057 -1.29095 -3.35522 0
M  V30 7356 C 674.721 -2.75586 -3.64556 0
M  V30 7357 C 675.718 -3.73785 -3.6136 0
M  V30 7358 C 673.403 -3.12432 -3.93309 0
M  V30 7359 C 675.397 -5.06845 -3.86506 0
M  V30 7360 C 673.084 -4.45675 -4.18111 0
M  V30 7361 C 674.082 -5.42691 -4.147 0
M  V30 7362 O 673.77 -6.73532 -4.38873 0
M  V30 7363 H 673.502 -0.320704 -0.595084 0
M  V30 7364 H 676.056 -1.49517 -1.40833 0
M  V30 7365 H 674.286 -0.636299 -3.81429 0
M  V30 7366 H 675.975 -1.04073 -3.92331 0
M  V30 7367 H 676.741 -3.46664 -3.39189 0
M  V30 7368 H 672.62 -2.3753 -3.95096 0
M  V30 7369 H 676.164 -5.82559 -3.83758 0
M  V30 7370 H 672.061 -4.72526 -4.39761 0
M  V30 7371 H 672.829 -6.79442 -4.564 0
M  V30 7372 N 675.492 1.28418 -0.913599 0
M  V30 7373 C 676.717 1.99643 -0.561899 0
M  V30 7374 C 677.142 1.67819 0.849608 0
M  V30 7375 O 676.5 0.910503 1.56779 0
M  V30 7376 C 676.548 3.52116 -0.777622 0
M  V30 7377 O 675.652 4.12076 0.163457 0
M  V30 7378 H 674.993 0.627229 -0.217898 0
M  V30 7379 H 677.523 1.63575 -1.229 0
M  V30 7380 H 677.533 4.02163 -0.687666 0
M  V30 7381 H 676.208 3.74613 -1.8066 0
M  V30 7382 H 674.785 3.72892 0.0247827 0
M  V30 7383 N 676.97 0.677563 1.42291 0
M  V30 7384 C 678.216 0.201272 2.01799 0
M  V30 7385 C 678.549 -1.19004 1.53465 0
M  V30 7386 O 677.824 -1.79953 0.738039 0
M  V30 7387 C 678.107 0.238968 3.59306 0
M  V30 7388 C 677.96 1.66594 4.17812 0
M  V30 7389 C 679.279 -0.411287 4.38174 0
M  V30 7390 H 676.398 0.0746114 0.733214 0
M  V30 7391 H 679.04 0.862872 1.69276 0
M  V30 7392 H 677.19 -0.324368 3.87144 0
M  V30 7393 H 678.862 2.28173 4.00917 0
M  V30 7394 H 677.105 2.20576 3.73536 0
M  V30 7395 H 677.776 1.64398 5.26951 0
M  V30 7396 H 680.252 0.0682804 4.16044 0
M  V30 7397 H 679.128 -0.354286 5.47755 0
M  V30 7398 H 679.389 -1.4893 4.1626 0
M  V30 7399 N 678.448 -1.51871 0.421078 0
M  V30 7400 C 679.673 -2.0684 -0.152371 0
M  V30 7401 C 680.098 -1.28802 -1.37083 0
M  V30 7402 O 679.456 -0.321482 -1.78427 0
M  V30 7403 C 679.504 -3.57532 -0.469368 0
M  V30 7404 O 678.608 -3.81818 -1.55848 0
M  V30 7405 H 677.949 -0.663939 -0.00898586 0
M  V30 7406 H 680.479 -1.95674 0.597724 0
M  V30 7407 H 680.489 -4.01515 -0.724553 0
M  V30 7408 H 679.164 -4.13761 0.421276 0
M  V30 7409 H 677.741 -3.49709 -1.29453 0
M  V30 7410 N 679.926 -0.151884 -1.56866 0
M  V30 7411 C 681.173 0.498004 -1.96281 0
M  V30 7412 C 681.501 1.64551 -1.03698 0
M  V30 7413 O 680.756 1.95585 -0.0671497 0
M  V30 7414 C 681.055 1.04074 -3.41911 0
M  V30 7415 C 680.721 0.0111688 -4.50899 0
M  V30 7416 C 679.383 -0.271844 -4.80432 0
M  V30 7417 C 681.735 -0.68869 -5.1663 0
M  V30 7418 C 679.063 -1.26044 -5.73001 0
M  V30 7419 C 681.415 -1.66613 -6.10264 0
M  V30 7420 C 680.079 -1.9568 -6.38174 0
M  V30 7421 H 679.349 0.182233 -0.718242 0
M  V30 7422 H 681.996 -0.239746 -1.89993 0
M  V30 7423 H 680.301 1.85592 -3.45055 0
M  V30 7424 H 681.998 1.55224 -3.69738 0
M  V30 7425 H 678.588 0.241932 -4.27917 0
M  V30 7426 H 682.772 -0.48324 -4.93942 0
M  V30 7427 H 678.028 -1.49202 -5.92915 0
M  V30 7428 H 682.202 -2.21392 -6.60272 0
M  V30 7429 H 679.829 -2.72434 -7.09707 0
M  V30 7430 N 681.404 1.57128 0.121893 0
M  V30 7431 C 682.629 1.89254 0.848385 0
M  V30 7432 C 683.054 0.743527 1.72781 0
M  V30 7433 O 682.412 -0.306056 1.78698 0
M  V30 7434 C 682.46 3.20113 1.66012 0
M  V30 7435 O 681.564 3.05815 2.76679 0
M  V30 7436 H 680.905 0.621103 0.234793 0
M  V30 7437 H 683.435 2.0433 0.10516 0
M  V30 7438 H 683.445 3.52761 2.04996 0
M  V30 7439 H 682.12 4.03336 1.01452 0
M  V30 7440 H 680.697 2.84627 2.40918 0
M  V30 7441 N 682.882 -0.391992 1.52647 0
M  V30 7442 C 683.829 -1.47866 1.77213 0
M  V30 7443 C 684.799 -1.54286 0.615223 0
M  V30 7444 O 685.984 -1.7059 0.854622 0
M  V30 7445 C 683.124 -2.85129 1.94411 0
M  V30 7446 C 682.237 -2.87883 3.22098 0
M  V30 7447 C 681.372 -4.16553 3.29631 0
M  V30 7448 C 680.411 -4.13348 4.51453 0
M  V30 7449 N 679.548 -5.33619 4.56284 0
M  V30 7450 H 684.388 -1.26219 2.6995 0
M  V30 7451 H 681.925 -0.612367 1.33748 0
M  V30 7452 H 683.883 -3.64833 2.02367 0
M  V30 7453 H 682.513 -3.05232 1.05038 0
M  V30 7454 H 681.565 -2.00567 3.23229 0
M  V30 7455 H 682.877 -2.81382 4.11856 0
M  V30 7456 H 682.031 -5.0466 3.36753 0
M  V30 7457 H 680.77 -4.25773 2.37842 0
M  V30 7458 H 679.775 -3.23629 4.44459 0
M  V30 7459 H 681 -4.05754 5.44555 0
M  V30 7460 H 678.946 -5.43474 3.67385 0
M  V30 7461 H 678.863 -5.29182 5.3991 0
M  V30 7462 H 680.131 -6.23632 4.67657 0
M  V30 7463 N 684.36 -1.4356 -0.65026 0
M  V30 7464 C 685.27 -1.514 -1.79207 0
M  V30 7465 C 686.286 -0.400895 -1.69319 0
M  V30 7466 O 687.462 -0.655458 -1.90436 0
M  V30 7467 C 684.527 -1.43737 -3.155 0
M  V30 7468 C 683.588 -2.65743 -3.37163 0
M  V30 7469 C 682.821 -2.58436 -4.66954 0
M  V30 7470 O 683.044 -1.63374 -5.46503 0
M  V30 7471 O 681.978 -3.48984 -4.90402 0
M  V30 7472 H 685.804 -2.47825 -1.75547 0
M  V30 7473 H 683.389 -1.25594 -0.809111 0
M  V30 7474 H 685.271 -1.41916 -3.96784 0
M  V30 7475 H 683.946 -0.504488 -3.19745 0
M  V30 7476 H 682.853 -2.73136 -2.55632 0
M  V30 7477 H 684.186 -3.58014 -3.37768 0
M  V30 7478 N 685.838 0.888903 -1.30139 0
M  V30 7479 C 686.801 1.97576 -1.16174 0
M  V30 7480 C 687.801 1.60525 -0.094086 0
M  V30 7481 O 688.991 1.70812 -0.341889 0
M  V30 7482 C 686.123 3.3188 -0.778983 0
M  V30 7483 H 687.316 2.11393 -2.12728 0
M  V30 7484 H 684.869 1.0748 -1.1348 0
M  V30 7485 H 685.604 3.23765 0.186225 0
M  V30 7486 H 685.389 3.60141 -1.55051 0
M  V30 7487 H 686.879 4.11612 -0.704631 0
M  V30 7488 N 687.317 1.12792 1.10072 0
M  V30 7489 C 688.264 0.79921 2.16521 0
M  V30 7490 C 689.234 -0.235726 1.64419 0
M  V30 7491 O 690.419 -0.109457 1.90486 0
M  V30 7492 C 687.559 0.264091 3.44088 0
M  V30 7493 C 686.672 1.35729 4.10124 0
M  V30 7494 C 685.807 0.781212 5.25424 0
M  V30 7495 C 684.846 1.85327 5.8337 0
M  V30 7496 N 683.983 1.29564 6.90042 0
M  V30 7497 H 688.823 1.71105 2.43981 0
M  V30 7498 H 686.36 0.854225 1.19756 0
M  V30 7499 H 688.318 -0.0642423 4.17151 0
M  V30 7500 H 686.948 -0.610901 3.16967 0
M  V30 7501 H 686 1.80234 3.34993 0
M  V30 7502 H 687.312 2.16782 4.4923 0
M  V30 7503 H 686.466 0.403769 6.05355 0
M  V30 7504 H 685.205 -0.0604686 4.87663 0
M  V30 7505 H 684.21 2.23986 5.02106 0
M  V30 7506 H 685.435 2.69824 6.23195 0
M  V30 7507 H 683.381 0.475844 6.54272 0
M  V30 7508 H 683.298 2.04271 7.2788 0
M  V30 7509 H 684.566 0.945545 7.73744 0
M  V30 7510 N 688.795 -1.27931 0.920396 0
M  V30 7511 C 690.025 -1.98516 0.572256 0
M  V30 7512 C 690.433 -1.68912 -0.852375 0
M  V30 7513 O 689.776 -0.94203 -1.57707 0
M  V30 7514 C 689.838 -3.5243 0.709485 0
M  V30 7515 C 689.502 -4.0564 2.10489 0
M  V30 7516 C 690.499 -4.1897 3.07831 0
M  V30 7517 C 688.184 -4.40168 2.41986 0
M  V30 7518 C 690.178 -4.66093 4.34783 0
M  V30 7519 C 687.865 -4.86983 3.69176 0
M  V30 7520 C 688.863 -4.99903 4.65388 0
M  V30 7521 O 688.551 -5.45694 5.90316 0
M  V30 7522 H 688.283 -0.64047 0.216274 0
M  V30 7523 H 690.837 -1.6393 1.23758 0
M  V30 7524 H 689.067 -3.86698 -0.0129263 0
M  V30 7525 H 690.756 -4.04233 0.367474 0
M  V30 7526 H 691.522 -3.92562 2.84816 0
M  V30 7527 H 687.401 -4.29358 1.67846 0
M  V30 7528 H 690.945 -4.76092 5.09884 0
M  V30 7529 H 686.842 -5.12832 3.92012 0
M  V30 7530 H 687.61 -5.63965 5.932 0
M  V30 7531 N 690.273 -0.685099 -1.4193 0
M  V30 7532 C 691.503 -0.220052 -2.05425 0
M  V30 7533 C 691.911 1.13185 -1.51611 0
M  V30 7534 O 691.254 1.71631 -0.654875 0
M  V30 7535 C 691.316 -0.0888364 -3.5939 0
M  V30 7536 C 690.98 -1.37109 -4.35947 0
M  V30 7537 C 691.977 -2.30675 -4.65924 0
M  V30 7538 C 689.662 -1.62155 -4.75406 0
M  V30 7539 C 691.656 -3.47556 -5.34306 0
M  V30 7540 C 689.343 -2.79324 -5.43527 0
M  V30 7541 C 690.341 -3.71848 -5.72903 0
M  V30 7542 O 690.029 -4.86966 -6.39624 0
M  V30 7543 H 689.761 -0.102165 -0.668235 0
M  V30 7544 H 692.315 -0.935194 -1.82875 0
M  V30 7545 H 690.545 0.681981 -3.80639 0
M  V30 7546 H 692.234 0.337669 -4.04493 0
M  V30 7547 H 693 -2.12579 -4.3593 0
M  V30 7548 H 688.879 -0.910053 -4.51928 0
M  V30 7549 H 692.423 -4.19794 -5.57153 0
M  V30 7550 H 688.32 -2.97342 -5.72938 0
M  V30 7551 H 689.088 -4.86644 -6.58118 0
M  V30 7552 N 691.751 1.51645 -0.429126 0
M  V30 7553 C 692.683 2.25279 0.422124 0
M  V30 7554 C 693.696 1.28986 0.993299 0
M  V30 7555 O 694.885 1.54797 0.888836 0
M  V30 7556 C 691.985 2.98666 1.60162 0
M  V30 7557 C 691.158 4.2199 1.15078 0
M  V30 7558 C 690.217 4.78028 2.19946 0
M  V30 7559 O 689.243 5.40084 1.79716 0
M  V30 7560 N 690.445 4.61342 3.5234 0
M  V30 7561 H 693.21 2.98971 -0.208931 0
M  V30 7562 H 690.771 1.59838 -0.257568 0
M  V30 7563 H 692.763 3.33044 2.29922 0
M  V30 7564 H 691.333 2.28036 2.13818 0
M  V30 7565 H 690.553 3.932 0.280552 0
M  V30 7566 H 691.841 5.02037 0.826831 0
M  V30 7567 H 691.239 4.11894 3.87763 0
M  V30 7568 H 689.796 5.00104 4.18019 0
M  V30 7569 N 693.229 0.160201 1.56784 0
M  V30 7570 C 694.159 -0.770264 2.2043 0
M  V30 7571 C 695.14 -1.24736 1.15651 0
M  V30 7572 O 696.325 -1.30253 1.44041 0
M  V30 7573 C 693.455 -2.00427 2.83631 0
M  V30 7574 C 692.409 -1.66345 3.94352 0
M  V30 7575 C 691.735 -2.97119 4.4455 0
M  V30 7576 C 693.035 -0.899972 5.14488 0
M  V30 7577 H 694.729 -0.239783 2.98438 0
M  V30 7578 H 692.275 -0.113891 1.43549 0
M  V30 7579 H 694.228 -2.66012 3.26827 0
M  V30 7580 H 692.952 -2.5587 2.02973 0
M  V30 7581 H 691.611 -1.03133 3.51794 0
M  V30 7582 H 691.259 -3.5058 3.60698 0
M  V30 7583 H 690.959 -2.75073 5.19238 0
M  V30 7584 H 692.483 -3.63753 4.90425 0
M  V30 7585 H 693.897 -1.45818 5.54446 0
M  V30 7586 H 692.294 -0.778968 5.95023 0
M  V30 7587 H 693.364 0.105827 4.84785 0
M  V30 7588 N 694.707 -1.5719 -0.113559 0
M  V30 7589 C 696.123 -1.52607 -0.467253 0
M  V30 7590 C 696.323 -0.874058 -1.81556 0
M  V30 7591 O 695.379 -0.458703 -2.48299 0
M  V30 7592 C 696.692 -2.97363 -0.446736 0
M  V30 7593 C 698.24 -3.08482 -0.529903 0
M  V30 7594 C 698.715 -4.54809 -0.539721 0
M  V30 7595 N 700.206 -4.59284 -0.601005 0
M  V30 7596 C 700.941 -5.69927 -0.630138 0
M  V30 7597 N 700.437 -6.90051 -0.616589 0
M  V30 7598 N 702.23 -5.5805 -0.673558 0
M  V30 7599 H 694.381 -1.97958 0.769819 0
M  V30 7600 H 696.644 -0.90428 0.284572 0
M  V30 7601 H 696.35 -3.48458 0.47643 0
M  V30 7602 H 696.224 -3.55086 -1.27254 0
M  V30 7603 H 698.611 -2.57386 -1.44349 0
M  V30 7604 H 698.692 -2.53744 0.323695 0
M  V30 7605 H 698.336 -5.06552 0.369843 0
M  V30 7606 H 698.266 -5.07364 -1.41028 0
M  V30 7607 H 700.757 -3.72822 -0.617419 0
M  V30 7608 H 701.07 -7.70132 -0.641592 0
M  V30 7609 H 699.415 -6.92543 -0.583927 0
M  V30 7610 H 702.606 -4.63112 -0.681544 0
M  V30 7611 H 702.779 -6.44286 -0.692794 0
M  V30 7612 N 696.185 0.383891 -1.52853 0
M  V30 7613 C 697.425 1.13731 -1.69837 0
M  V30 7614 C 697.789 1.87086 -0.431611 0
M  V30 7615 O 698.99 2.64518 -0.477886 0
M  V30 7616 C 697.261 2.08551 -2.90243 0
M  V30 7617 S 698.82 2.9166 -3.27841 0
M  V30 7618 H 695.638 0.384911 -0.5978 0
M  V30 7619 H 698.24 0.42103 -1.90913 0
M  V30 7620 H 696.944 1.53392 -3.80656 0
M  V30 7621 H 696.475 2.8468 -2.71516 0
M  V30 7622 H 698.49 4.10723 -2.78426 0
M  V30 7623 N 697.663 1.43903 0.642637 0
M  V30 7624 C 698.888 1.49758 1.43483 0
M  V30 7625 C 699.313 0.119911 1.87717 0
M  V30 7626 O 698.671 -0.888558 1.58033 0
M  V30 7627 C 698.719 2.45744 2.63898 0
M  V30 7628 O 697.823 1.95101 3.63331 0
M  V30 7629 H 697.164 0.506138 0.429791 0
M  V30 7630 H 699.694 1.88923 0.785438 0
M  V30 7631 H 699.704 2.63399 3.11584 0
M  V30 7632 H 698.379 3.45818 2.31046 0
M  V30 7633 H 696.956 1.87158 3.22531 0
M  V30 7634 N 699.141 -0.881989 1.30609 0
M  V30 7635 C 700.389 -1.63082 1.19368 0
M  V30 7636 C 700.71 -1.93376 -0.251147 0
M  V30 7637 O 699.98 -1.5723 -1.16857 0
M  V30 7638 H 698.56 -0.604542 0.438791 0
M  V30 7639 H 701.222 -1.05658 1.63776 0
M  V30 7640 H 700.318 -2.57966 1.7567 0
M  V30 7641 N 700.619 -1.13374 -1.09472 0
M  V30 7642 C 702.03 -0.90801 -1.63132 0
M  V30 7643 C 702.381 0.555576 -1.8817 0
M  V30 7644 O 701.506 1.42218 -1.63104 0
M  V30 7645 C 702.101 -1.64182 -2.96361 0
M  V30 7646 C 700.66 -1.46197 -3.46848 0
M  V30 7647 C 699.807 -1.67134 -2.21273 0
M  V30 7648 H 702.758 -1.2871 -0.928411 0
M  V30 7649 H 702.779 -1.09863 -3.64294 0
M  V30 7650 H 702.291 -2.707 -2.78106 0
M  V30 7651 H 700.392 -0.419788 -3.70228 0
M  V30 7652 H 700.505 -2.22472 -4.24315 0
M  V30 7653 H 698.869 -1.09616 -2.29905 0
M  V30 7654 H 699.652 -2.74971 -2.05538 0
M  V30 7655 N 702.098 1.27442 -0.927168 0
M  V30 7656 C 703.346 1.94007 -0.566203 0
M  V30 7657 C 703.667 1.7323 0.895345 0
M  V30 7658 O 702.937 1.07973 1.63459 0
M  V30 7659 H 701.517 0.717917 -0.206409 0
M  V30 7660 H 704.179 1.55161 -1.17945 0
M  V30 7661 H 703.275 3.02401 -0.772028 0
M  V30 7662 N 703.576 0.692616 1.41565 0
M  V30 7663 C 704.506 0.0397325 2.33466 0
M  V30 7664 C 705.487 -0.770334 1.51657 0
M  V30 7665 O 706.672 -0.723903 1.80203 0
M  V30 7666 C 703.802 -0.899495 3.3545 0
M  V30 7667 C 702.756 -0.196738 4.27548 0
M  V30 7668 C 702.082 -1.25012 5.19881 0
M  V30 7669 C 703.382 0.935158 5.1386 0
M  V30 7670 H 705.076 0.807296 2.88311 0
M  V30 7671 H 702.622 0.389665 1.38628 0
M  V30 7672 H 704.575 -1.36545 3.98665 0
M  V30 7673 H 703.299 -1.69869 2.78948 0
M  V30 7674 H 701.958 0.249158 3.65752 0
M  V30 7675 H 701.606 -2.04177 4.59696 0
M  V30 7676 H 701.306 -0.784931 5.82334 0
M  V30 7677 H 702.83 -1.71665 5.85972 0
M  V30 7678 H 704.244 0.549619 5.70659 0
M  V30 7679 H 702.641 1.32726 5.85238 0
M  V30 7680 H 703.711 1.77613 4.512 0
M  V30 7681 N 705.054 -1.51416 0.437162 0
M  V30 7682 C 706.465 -1.86682 -0.0260005 0
M  V30 7683 C 706.816 -1.35432 -1.4196 0
M  V30 7684 O 705.941 -0.705055 -2.04592 0
M  V30 7685 C 706.536 -3.38757 -0.0539577 0
M  V30 7686 C 705.095 -3.7356 -0.461532 0
M  V30 7687 C 704.242 -2.75134 0.345924 0
M  V30 7688 H 707.193 -1.44642 0.653013 0
M  V30 7689 H 707.214 -3.70573 -0.863478 0
M  V30 7690 H 706.726 -3.76028 0.96045 0
M  V30 7691 H 704.827 -3.41878 -1.48155 0
M  V30 7692 H 704.94 -4.78737 -0.186451 0
M  V30 7693 H 703.304 -2.53947 -0.195739 0
M  V30 7694 H 704.087 -3.15247 1.35921 0
M  V30 7695 N 706.532 -0.168513 -1.56696 0
M  V30 7696 C 707.462 0.758563 -2.20835 0
M  V30 7697 C 708.443 1.24121 -1.1631 0
M  V30 7698 O 709.628 1.29487 -1.4473 0
M  V30 7699 C 706.758 1.9892 -2.8469 0
M  V30 7700 C 705.712 1.64252 -3.95228 0
M  V30 7701 C 705.038 2.94757 -4.46119 0
M  V30 7702 C 706.338 0.872675 -5.14958 0
M  V30 7703 H 708.032 0.223953 -2.98561 0
M  V30 7704 H 705.578 0.106277 -1.43607 0
M  V30 7705 H 707.531 2.64275 -3.28233 0
M  V30 7706 H 706.255 2.5479 -2.04327 0
M  V30 7707 H 704.914 1.01266 -3.52336 0
M  V30 7708 H 704.562 3.48662 -3.62552 0
M  V30 7709 H 704.262 2.72316 -5.2069 0
M  V30 7710 H 705.786 3.61147 -4.92347 0
M  V30 7711 H 707.2 1.42875 -5.55211 0
M  V30 7712 H 705.597 0.747402 -5.95428 0
M  V30 7713 H 706.667 -0.131535 -4.84722 0
M  V30 7714 N 708.01 1.57248 0.105221 0
M  V30 7715 C 709.24 1.89492 0.823175 0
M  V30 7716 C 709.648 0.75934 1.73294 0
M  V30 7717 O 708.991 -0.278182 1.81581 0
M  V30 7718 C 709.053 3.16891 1.69765 0
M  V30 7719 C 708.717 4.46787 0.960769 0
M  V30 7720 C 709.714 5.19061 0.295218 0
M  V30 7721 C 707.399 4.93467 0.937854 0
M  V30 7722 C 709.393 6.36246 -0.383393 0
M  V30 7723 C 707.08 6.10566 0.255452 0
M  V30 7724 C 708.078 6.81804 -0.404003 0
M  V30 7725 O 707.766 7.96673 -1.07549 0
M  V30 7726 H 707.498 0.631512 0.24118 0
M  V30 7727 H 710.052 2.05203 0.0899655 0
M  V30 7728 H 708.282 2.973 2.47285 0
M  V30 7729 H 709.971 3.35046 2.29126 0
M  V30 7730 H 710.737 4.84044 0.304448 0
M  V30 7731 H 706.616 4.37913 1.44058 0
M  V30 7732 H 710.16 6.91787 -0.898696 0
M  V30 7733 H 706.057 6.45039 0.244032 0
M  V30 7734 H 706.825 8.12596 -0.981355 0
M  V30 7735 N 709.488 -0.375779 1.53054 0
M  V30 7736 C 710.716 -1.14036 1.72637 0
M  V30 7737 C 711.131 -1.83342 0.450687 0
M  V30 7738 O 710.488 -1.7318 -0.575749 0
M  V30 7739 C 710.539 -2.17841 2.88492 0
M  V30 7740 O 710.26 -1.51358 4.11123 0
M  V30 7741 C 711.761 -3.06924 3.19863 0
M  V30 7742 H 708.981 -0.341386 0.577665 0
M  V30 7743 H 711.525 -0.437809 1.99759 0
M  V30 7744 H 709.68 -2.8371 2.63794 0
M  V30 7745 H 710.094 -2.20439 4.75928 0
M  V30 7746 H 711.568 -3.75763 4.04359 0
M  V30 7747 H 712.045 -3.71169 2.34798 0
M  V30 7748 H 712.651 -2.46684 3.46449 0
M  V30 7749 N 710.966 -1.44241 -0.634997 0
M  V30 7750 C 711.896 -1.53632 -1.7584 0
M  V30 7751 C 712.877 -0.389603 -1.65578 0
M  V30 7752 O 714.062 -0.609219 -1.84397 0
M  V30 7753 C 711.192 -1.47644 -3.14354 0
M  V30 7754 C 710.146 -2.60752 -3.394 0
M  V30 7755 C 709.472 -2.39817 -4.77904 0
M  V30 7756 C 710.772 -4.02921 -3.32343 0
M  V30 7757 H 712.466 -2.47662 -1.68238 0
M  V30 7758 H 710.012 -1.19197 -0.807969 0
M  V30 7759 H 711.965 -1.52815 -3.92716 0
M  V30 7760 H 710.689 -0.501284 -3.2273 0
M  V30 7761 H 709.348 -2.54965 -2.63417 0
M  V30 7762 H 708.996 -1.40502 -4.82978 0
M  V30 7763 H 708.696 -3.15649 -4.9562 0
M  V30 7764 H 710.22 -2.46799 -5.585 0
M  V30 7765 H 711.634 -4.10098 -4.00615 0
M  V30 7766 H 710.031 -4.78925 -3.61595 0
M  V30 7767 H 711.101 -4.26766 -2.30215 0
M  V30 7768 N 712.444 0.87505 -1.31075 0
M  V30 7769 C 713.394 1.96933 -1.14898 0
M  V30 7770 C 714.378 1.60783 -0.0613703 0
M  V30 7771 O 715.57 1.74678 -0.285751 0
M  V30 7772 C 712.699 3.3253 -0.853166 0
M  V30 7773 C 711.785 3.74963 -1.98151 0
M  V30 7774 N 712.176 3.89403 -3.22799 0
M  V30 7775 C 710.474 4.04436 -1.8801 0
M  V30 7776 C 711.175 4.25563 -3.96574 0
M  V30 7777 N 710.151 4.3597 -3.24701 0
M  V30 7778 H 713.953 2.06201 -2.09424 0
M  V30 7779 H 711.467 1.06551 -1.22558 0
M  V30 7780 H 713.464 4.10666 -0.718266 0
M  V30 7781 H 712.124 3.24592 0.0839218 0
M  V30 7782 H 713.135 3.74266 -3.57974 0
M  V30 7783 H 709.812 4.04915 -1.01733 0
M  V30 7784 H 711.202 4.44375 -5.03965 0
M  V30 7785 N 713.922 1.13953 1.08869 0
M  V30 7786 C 715.147 0.928559 1.85452 0
M  V30 7787 C 715.572 -0.517642 1.80837 0
M  V30 7788 O 714.93 -1.36779 1.19001 0
M  V30 7789 C 714.978 1.42814 3.31114 0
M  V30 7790 O 714.082 0.617129 4.07756 0
M  V30 7791 H 713.423 0.33235 0.574839 0
M  V30 7792 H 715.953 1.5156 1.37443 0
M  V30 7793 H 715.963 1.43425 3.8196 0
M  V30 7794 H 714.638 2.48109 3.33788 0
M  V30 7795 H 713.215 0.679365 3.66659 0
M  V30 7796 N 715.4 -1.26948 0.933913 0
M  V30 7797 C 716.625 -1.98724 0.593589 0
M  V30 7798 C 717.05 -1.6915 -0.822801 0
M  V30 7799 O 716.408 -0.93533 -1.5531 0
M  V30 7800 C 716.456 -3.50834 0.833542 0
M  V30 7801 O 715.56 -4.12284 -0.0978788 0
M  V30 7802 H 714.901 -0.623683 0.227849 0
M  V30 7803 H 717.431 -1.61599 1.25486 0
M  V30 7804 H 717.441 -4.01018 0.75156 0
M  V30 7805 H 716.116 -3.71691 1.86597 0
M  V30 7806 H 714.693 -3.72884 0.0345443 0
M  V30 7807 N 716.879 -0.700114 -1.41195 0
M  V30 7808 C 718.125 -0.233351 -2.01453 0
M  V30 7809 C 718.458 1.16548 -1.55339 0
M  V30 7810 O 717.733 1.78756 -0.766575 0
M  V30 7811 C 718.016 -0.2961 -3.58881 0
M  V30 7812 C 717.869 -1.7322 -4.15108 0
M  V30 7813 C 719.188 0.341525 -4.38773 0
M  V30 7814 H 716.307 -0.0862667 -0.731934 0
M  V30 7815 H 718.949 -0.889693 -1.67882 0
M  V30 7816 H 717.099 0.262736 -3.87611 0
M  V30 7817 H 718.771 -2.34523 -3.97236 0
M  V30 7818 H 717.014 -2.2649 -3.69979 0
M  V30 7819 H 717.685 -1.7276 -5.24269 0
M  V30 7820 H 720.161 -0.134461 -4.15883 0
M  V30 7821 H 719.037 0.267098 -5.4825 0
M  V30 7822 H 719.298 1.42289 -4.18577 0
M  V30 7823 N 718.357 1.51182 -0.445186 0
M  V30 7824 C 719.305 2.29531 0.376597 0
M  V30 7825 C 720.299 1.35711 1.01385 0
M  V30 7826 O 721.505 1.53018 0.947922 0
M  V30 7827 H 717.88 0.738803 0.140267 0
M  V30 7828 H 719.851 2.96838 -0.304958 0
M  V30 7829 C 718.6 3.1552 1.4609 0
M  V30 7830 H 717.923 3.87605 0.979912 0
M  V30 7831 H 719.363 3.73384 2.009 0
M  V30 7832 C 717.822 2.31406 2.44852 0
M  V30 7833 O 718.352 1.97912 3.49562 0
M  V30 7834 N 716.558 1.94478 2.15932 0
M  V30 7835 H 716.105 2.21917 1.30808 0
M  V30 7836 H 716.063 1.38498 2.82251 0
M  V30 7837 N 719.835 0.176821 1.56605 0
M  V30 7838 C 721.112 -0.513365 1.88743 0
M  V30 7839 C 721.492 -1.80929 1.08757 0
M  V30 7840 O 720.84 -2.27765 0.183127 0
M  V30 7841 C 721.05 -0.749925 3.40848 0
M  V30 7842 C 722.398 -1.07747 4.10701 0
M  V30 7843 O 723.422 -0.838277 3.46196 0
M  V30 7844 O 722.281 -1.52901 5.24675 0
M  V30 7845 H 719.375 -0.265296 0.783292 0
M  V30 7846 H 721.921 0.215669 1.68324 0
M  V30 7847 H 720.693 0.16599 3.90948 0
M  V30 7848 H 720.316 -1.53208 3.66897 0
M  V30 7849 N 721.313 -1.57302 -0.09688 0
M  V30 7850 C 722.26 -2.01933 -1.11766 0
M  V30 7851 C 723.23 -0.895329 -1.39904 0
M  V30 7852 O 724.415 -1.16119 -1.51397 0
M  V30 7853 C 721.555 -2.44726 -2.43317 0
M  V30 7854 C 720.668 -3.70639 -2.21925 0
M  V30 7855 C 719.803 -4.02318 -3.46862 0
M  V30 7856 C 718.842 -5.21346 -3.20725 0
M  V30 7857 N 717.979 -5.48787 -4.37924 0
M  V30 7858 H 722.819 -2.88919 -0.730075 0
M  V30 7859 H 720.356 -1.42901 -0.348962 0
M  V30 7860 H 722.314 -2.6758 -3.20088 0
M  V30 7861 H 720.944 -1.60753 -2.79926 0
M  V30 7862 H 719.996 -3.55271 -1.35965 0
M  V30 7863 H 721.308 -4.57557 -1.98603 0
M  V30 7864 H 720.462 -4.25939 -4.32042 0
M  V30 7865 H 719.201 -3.13918 -3.73238 0
M  V30 7866 H 718.206 -4.97547 -2.33938 0
M  V30 7867 H 719.431 -6.11343 -2.95697 0
M  V30 7868 H 717.377 -4.63346 -4.64378 0
M  V30 7869 H 717.294 -6.30073 -4.17785 0
M  V30 7870 H 718.562 -5.76943 -5.24173 0
M  V30 7871 N 722.791 0.367657 -1.53252 0
M  V30 7872 C 724.039 1.10832 -1.68999 0
M  V30 7873 C 724.36 1.89894 -0.443306 0
M  V30 7874 O 723.63 1.88235 0.54262 0
M  V30 7875 H 722.21 0.412153 -0.623008 0
M  V30 7876 H 724.872 0.414775 -1.90435 0
M  V30 7877 H 723.968 1.7993 -2.55013 0
M  V30 7878 N 724.269 1.44576 0.627338 0
M  V30 7879 C 725.199 1.54562 1.75022 0
M  V30 7880 C 726.18 0.398378 1.65369 0
M  V30 7881 O 727.365 0.61899 1.84071 0
M  V30 7882 C 724.495 1.49309 3.13567 0
M  V30 7883 C 723.449 2.62549 3.38012 0
M  V30 7884 C 722.775 2.42348 4.76625 0
M  V30 7885 C 724.075 4.04678 3.30202 0
M  V30 7886 H 725.769 2.4855 1.66922 0
M  V30 7887 H 723.315 1.19624 0.801636 0
M  V30 7888 H 725.268 1.54895 3.919 0
M  V30 7889 H 723.992 0.518392 3.2246 0
M  V30 7890 H 722.651 2.56358 2.62061 0
M  V30 7891 H 722.299 1.43062 4.82226 0
M  V30 7892 H 721.999 3.18273 4.93939 0
M  V30 7893 H 723.523 2.49758 5.57183 0
M  V30 7894 H 724.937 4.12217 3.98435 0
M  V30 7895 H 723.334 4.80836 3.5905 0
M  V30 7896 H 724.404 4.2798 2.27949 0
M  V30 7897 N 725.747 -0.868086 1.31537 0
M  V30 7898 C 727.163 -1.15414 1.10235 0
M  V30 7899 C 727.363 -2.01106 -0.125947 0
M  V30 7900 O 726.419 -2.38994 -0.814734 0
M  V30 7901 C 727.732 -1.84445 2.37488 0
M  V30 7902 C 729.28 -1.97139 2.43116 0
M  V30 7903 C 729.755 -2.69585 3.70254 0
M  V30 7904 N 731.246 -2.77119 3.71159 0
M  V30 7905 C 731.981 -3.33791 4.6623 0
M  V30 7906 N 731.477 -3.9138 5.71659 0
M  V30 7907 N 733.27 -3.31767 4.53747 0
M  V30 7908 H 725.421 -0.297109 2.10312 0
M  V30 7909 H 727.684 -0.194227 0.92789 0
M  V30 7910 H 727.39 -1.2893 3.27215 0
M  V30 7911 H 727.264 -2.84709 2.47428 0
M  V30 7912 H 729.651 -2.51818 1.53856 0
M  V30 7913 H 729.732 -0.95912 2.37138 0
M  V30 7914 H 729.376 -2.15572 4.59881 0
M  V30 7915 H 729.306 -3.71223 3.73499 0
M  V30 7916 H 731.797 -2.3625 2.94948 0
M  V30 7917 H 732.11 -4.3274 6.40278 0
M  V30 7918 H 730.455 -3.8975 5.7543 0
M  V30 7919 H 733.646 -2.86016 3.70557 0
M  V30 7920 H 733.819 -3.75636 5.28017 0
M  V30 7921 N 727.225 -1.14528 -1.08264 0
M  V30 7922 C 728.471 -0.91576 -1.80947 0
M  V30 7923 C 728.804 0.55623 -1.86064 0
M  V30 7924 O 728.079 1.41207 -1.33756 0
M  V30 7925 C 728.362 -1.51917 -3.26486 0
M  V30 7926 C 728.215 -3.06111 -3.2957 0
M  V30 7927 C 729.534 -1.19724 -4.23502 0
M  V30 7928 H 726.653 -0.334113 -0.656915 0
M  V30 7929 H 729.295 -1.41547 -1.26746 0
M  V30 7930 H 727.445 -1.0942 -3.72773 0
M  V30 7931 H 729.117 -3.57448 -2.91597 0
M  V30 7932 H 727.36 -3.40483 -2.688 0
M  V30 7933 H 728.031 -3.43438 -4.32151 0
M  V30 7934 H 730.507 -1.56467 -3.85561 0
M  V30 7935 H 729.383 -1.64575 -5.23647 0
M  V30 7936 H 729.644 -0.112771 -4.41956 0
M  V30 7937 N 728.703 1.26451 -0.940633 0
M  V30 7938 C 729.633 2.28773 -0.467479 0
M  V30 7939 C 730.614 1.63218 0.478955 0
M  V30 7940 O 731.799 1.90427 0.380929 0
M  V30 7941 C 728.929 3.46259 0.268656 0
M  V30 7942 C 727.883 4.23898 -0.591171 0
M  V30 7943 C 727.209 5.33993 0.274891 0
M  V30 7944 C 728.509 4.87974 -1.86223 0
M  V30 7945 H 730.203 2.68601 -1.32265 0
M  V30 7946 H 727.749 1.29123 -0.637436 0
M  V30 7947 H 729.702 4.16951 0.610696 0
M  V30 7948 H 728.426 3.05383 1.15796 0
M  V30 7949 H 727.085 3.54969 -0.916098 0
M  V30 7950 H 726.733 4.89358 1.16353 0
M  V30 7951 H 726.433 5.86849 -0.297006 0
M  V30 7952 H 727.957 6.07523 0.612213 0
M  V30 7953 H 729.371 5.50883 -1.58747 0
M  V30 7954 H 727.768 5.50945 -2.37866 0
M  V30 7955 H 728.838 4.10945 -2.57394 0
M  V30 7956 N 730.181 0.707592 1.40822 0
M  V30 7957 C 731.091 0.0507246 2.34545 0
M  V30 7958 C 732.107 -0.752727 1.56876 0
M  V30 7959 O 733.283 -0.687524 1.89302 0
M  V30 7960 C 730.348 -0.865731 3.35717 0
M  V30 7961 C 729.409 -0.0531313 4.29267 0
M  V30 7962 C 728.642 -0.925939 5.25606 0
M  V30 7963 O 728.865 -2.16531 5.27703 0
M  V30 7964 O 727.799 -0.369194 6.00767 0
M  V30 7965 H 731.625 0.823587 2.9232 0
M  V30 7966 H 729.21 0.46801 1.4188 0
M  V30 7967 H 731.092 -1.39091 3.97783 0
M  V30 7968 H 729.767 -1.61788 2.80368 0
M  V30 7969 H 728.674 0.516931 3.70511 0
M  V30 7970 H 730.007 0.660617 4.87747 0
M  V30 7971 N 731.66 -1.50943 0.453197 0
M  V30 7972 C 732.937 -1.94872 -0.168633 0
M  V30 7973 C 733.317 -1.39272 -1.5864 0
M  V30 7974 O 732.665 -0.586272 -2.20851 0
M  V30 7975 C 732.875 -3.48757 -0.130217 0
M  V30 7976 C 734.223 -4.23331 -0.327975 0
M  V30 7977 O 735.247 -3.55594 -0.207619 0
M  V30 7978 O 734.106 -5.43529 -0.569077 0
M  V30 7979 H 731.2 -0.818042 -0.121394 0
M  V30 7980 H 733.746 -1.61782 0.512316 0
M  V30 7981 H 732.518 -3.81725 0.860346 0
M  V30 7982 H 732.141 -3.88333 -0.853397 0
M  V30 7983 N 733.138 -0.185124 -1.56509 0
M  V30 7984 C 734.086 0.756505 -2.19954 0
M  V30 7985 C 735.08 1.22725 -1.16769 0
M  V30 7986 O 736.286 1.1913 -1.34937 0
M  V30 7987 H 732.661 0.262279 -0.704779 0
M  V30 7988 H 734.632 0.197587 -2.97745 0
M  V30 7989 C 733.381 1.96975 -2.86524 0
M  V30 7990 H 732.704 1.61658 -3.65659 0
M  V30 7991 H 734.144 2.60719 -3.34367 0
M  V30 7992 C 732.603 2.80219 -1.87027 0
M  V30 7993 O 733.133 3.77821 -1.36433 0
M  V30 7994 N 731.339 2.4551 -1.55477 0
M  V30 7995 H 730.886 1.66199 -1.96813 0
M  V30 7996 H 730.844 3.01493 -0.891597 0
M  V30 7997 N 734.616 1.57351 0.0885366 0
M  V30 7998 C 735.841 1.91011 0.80805 0
M  V30 7999 C 736.266 0.780009 1.71165 0
M  V30 8000 O 735.624 -0.268083 1.79307 0
M  V30 8001 C 735.672 3.23562 1.59185 0
M  V30 8002 O 734.776 3.11615 2.7013 0
M  V30 8003 H 734.117 0.625943 0.221565 0
M  V30 8004 H 736.647 2.04507 0.0617954 0
M  V30 8005 H 736.657 3.5703 1.97468 0
M  V30 8006 H 735.332 4.05398 0.928741 0
M  V30 8007 H 733.909 2.89673 2.34827 0
M  V30 8008 N 736.094 -0.359525 1.53444 0
M  V30 8009 C 737.057 -1.42357 1.7963 0
M  V30 8010 C 738.057 -1.46319 0.666884 0
M  V30 8011 O 739.247 -1.46974 0.935113 0
M  V30 8012 C 736.379 -2.81425 1.92387 0
M  V30 8013 H 737.572 -1.20409 2.74666 0
M  V30 8014 H 735.125 -0.593007 1.44614 0
M  V30 8015 H 735.86 -3.08679 0.994384 0
M  V30 8016 H 735.645 -2.79947 2.74539 0
M  V30 8017 H 737.135 -3.5847 2.14218 0
M  V30 8018 N 737.572 -1.44907 -0.619662 0
M  V30 8019 C 738.502 -1.55488 -1.742 0
M  V30 8020 C 739.483 -0.407143 -1.65156 0
M  V30 8021 O 740.668 -0.628743 -1.8374 0
M  V30 8022 C 737.798 -1.5097 -3.1277 0
M  V30 8023 C 736.752 -2.64337 -3.36615 0
M  V30 8024 C 736.078 -2.44872 -4.75333 0
M  V30 8025 C 737.378 -4.06423 -3.28051 0
M  V30 8026 H 739.072 -2.49432 -1.65602 0
M  V30 8027 H 736.618 -1.20047 -0.795281 0
M  V30 8028 H 738.571 -1.56971 -3.91073 0
M  V30 8029 H 737.295 -0.535486 -3.2218 0
M  V30 8030 H 735.954 -2.57744 -2.60698 0
M  V30 8031 H 735.602 -1.45617 -4.81461 0
M  V30 8032 H 735.302 -3.20888 -4.92244 0
M  V30 8033 H 736.826 -2.52709 -5.55851 0
M  V30 8034 H 738.24 -4.14324 -3.96243 0
M  V30 8035 H 736.637 -4.82733 -3.56495 0
M  V30 8036 H 737.707 -4.29183 -2.25676 0
M  V30 8037 N 739.05 0.861098 -1.31996 0
M  V30 8038 C 740.327 1.59788 -1.12814 0
M  V30 8039 C 740.707 2.08753 0.313882 0
M  V30 8040 O 740.055 1.87258 1.30946 0
M  V30 8041 C 740.265 2.74901 -2.15012 0
M  V30 8042 C 741.613 3.44643 -2.48004 0
M  V30 8043 O 742.637 2.85119 -2.13508 0
M  V30 8044 O 741.496 4.52044 -3.07113 0
M  V30 8045 H 738.59 0.703408 -0.434909 0
M  V30 8046 H 741.136 0.905788 -1.43505 0
M  V30 8047 H 739.908 2.36198 -3.11971 0
M  V30 8048 H 739.531 3.51792 -1.85279 0
M  V30 8049 N 740.528 1.15101 1.07655 0
M  V30 8050 C 741.475 0.844958 2.14777 0
M  V30 8051 C 742.445 -0.200798 1.64882 0
M  V30 8052 O 743.63 -0.0690278 1.90675 0
M  V30 8053 C 740.77 0.337018 3.4345 0
M  V30 8054 C 739.883 1.44398 4.07153 0
M  V30 8055 C 739.018 0.892487 5.23649 0
M  V30 8056 C 738.057 1.9766 5.79307 0
M  V30 8057 N 737.194 1.44171 6.87138 0
M  V30 8058 H 742.034 1.76242 2.40297 0
M  V30 8059 H 739.571 0.879435 1.17917 0
M  V30 8060 H 741.529 0.024256 4.17193 0
M  V30 8061 H 740.159 -0.543531 3.18191 0
M  V30 8062 H 739.211 1.87299 3.31094 0
M  V30 8063 H 740.523 2.26262 4.4453 0
M  V30 8064 H 739.677 0.532083 6.04362 0
M  V30 8065 H 738.416 0.0429854 4.87681 0
M  V30 8066 H 737.421 2.34586 4.97242 0
M  V30 8067 H 738.646 2.82982 6.17331 0
M  V30 8068 H 736.592 0.614518 6.53115 0
M  V30 8069 H 736.509 2.19665 7.23383 0
M  V30 8070 H 737.777 1.10945 7.71564 0
M  V30 8071 N 742.006 -1.2595 0.947325 0
M  V30 8072 C 742.939 -2.24559 0.406009 0
M  V30 8073 C 743.917 -1.54441 -0.508598 0
M  V30 8074 O 745.101 -1.83181 -0.444644 0
M  V30 8075 C 742.228 -3.36136 -0.415987 0
M  V30 8076 C 741.274 -4.24245 0.437969 0
M  V30 8077 S 742.107 -5.01948 1.86572 0
M  V30 8078 C 743.263 -6.16997 1.05194 0
M  V30 8079 H 743.496 -2.70128 1.24171 0
M  V30 8080 H 741.029 -1.34912 0.750874 0
M  V30 8081 H 742.987 -4.00861 -0.88433 0
M  V30 8082 H 741.648 -2.89167 -1.22643 0
M  V30 8083 H 740.841 -5.03634 -0.192127 0
M  V30 8084 H 740.443 -3.64416 0.841235 0
M  V30 8085 H 742.735 -6.76848 0.297126 0
M  V30 8086 H 743.678 -6.84324 1.8195 0
M  V30 8087 H 744.086 -5.61458 0.585294 0
M  V30 8088 N 743.484 -0.715051 -1.40445 0
M  V30 8089 C 744.414 -0.0768699 -2.33373 0
M  V30 8090 C 745.395 0.746109 -1.52863 0
M  V30 8091 O 746.58 0.695142 -1.81332 0
M  V30 8092 C 743.71 0.846014 -3.36838 0
M  V30 8093 C 742.664 0.128694 -4.27806 0
M  V30 8094 C 741.99 1.16726 -5.21804 0
M  V30 8095 C 743.29 -1.01679 -5.12307 0
M  V30 8096 H 744.984 -0.853061 -2.8699 0
M  V30 8097 H 742.53 -0.41167 -1.3799 0
M  V30 8098 H 744.483 1.30185 -4.00786 0
M  V30 8099 H 743.207 1.6541 -2.81615 0
M  V30 8100 H 741.866 -0.307314 -3.6531 0
M  V30 8101 H 741.514 1.96838 -4.62887 0
M  V30 8102 H 741.214 0.692188 -5.83509 0
M  V30 8103 H 742.738 1.62321 -5.88629 0
M  V30 8104 H 744.152 -0.640337 -5.69713 0
M  V30 8105 H 742.549 -1.4202 -5.83053 0
M  V30 8106 H 743.619 -1.84769 -4.48317 0
M  V30 8107 N 744.962 1.50701 -0.461195 0
M  V30 8108 C 745.894 2.26124 0.374244 0
M  V30 8109 C 746.907 1.31064 0.965715 0
M  V30 8110 O 748.096 1.56647 0.855801 0
M  V30 8111 C 745.196 3.01996 1.5379 0
M  V30 8112 C 744.369 4.24336 1.06101 0
M  V30 8113 C 743.428 4.82585 2.09756 0
M  V30 8114 O 742.454 5.43775 1.68219 0
M  V30 8115 N 743.656 4.68712 3.42475 0
M  V30 8116 H 746.421 2.9846 -0.2723 0
M  V30 8117 H 743.982 1.59256 -0.291415 0
M  V30 8118 H 745.974 3.37846 2.22806 0
M  V30 8119 H 744.544 2.32521 2.08933 0
M  V30 8120 H 743.764 3.93707 0.197085 0
M  V30 8121 H 745.052 5.03678 0.720156 0
M  V30 8122 H 744.45 4.20026 3.78938 0
M  V30 8123 H 743.007 5.08858 4.07317 0
M  V30 8124 N 746.441 0.193421 1.56409 0
M  V30 8125 C 747.389 -0.744829 2.20352 0
M  V30 8126 C 748.383 -1.22104 1.17418 0
M  V30 8127 O 749.589 -1.18413 1.35567 0
M  V30 8128 H 745.964 -0.258538 0.70616 0
M  V30 8129 H 747.935 -0.181794 2.97846 0
M  V30 8130 C 746.684 -1.95453 2.87565 0
M  V30 8131 H 746.007 -1.59716 3.66512 0
M  V30 8132 H 747.447 -2.58942 3.35745 0
M  V30 8133 C 745.906 -2.79223 1.8851 0
M  V30 8134 O 746.436 -3.77093 1.38434 0
M  V30 8135 N 744.642 -2.44682 1.56777 0
M  V30 8136 H 744.189 -1.65153 1.97692 0
M  V30 8137 H 744.147 -3.01016 0.907573 0
M  V30 8138 N 747.919 -1.57396 -0.0801906 0
M  V30 8139 C 749.165 -1.87113 -0.782083 0
M  V30 8140 C 749.498 -0.78458 -1.77646 0
M  V30 8141 O 748.773 0.205993 -1.93406 0
M  V30 8142 C 749.056 -3.27483 -1.49756 0
M  V30 8143 C 748.909 -4.46782 -0.520171 0
M  V30 8144 C 750.228 -3.65965 -2.44454 0
M  V30 8145 H 747.347 -0.680559 -0.282858 0
M  V30 8146 H 749.989 -1.89946 -0.0454139 0
M  V30 8147 H 748.139 -3.25199 -2.12551 0
M  V30 8148 H 749.811 -4.61187 0.101919 0
M  V30 8149 H 748.054 -4.33485 0.165219 0
M  V30 8150 H 748.725 -5.41761 -1.05824 0
M  V30 8151 H 751.201 -3.69289 -1.91742 0
M  V30 8152 H 750.077 -4.65086 -2.91524 0
M  V30 8153 H 750.338 -2.95446 -3.28883 0
M  V30 8154 N 749.397 0.351382 -1.53633 0
M  V30 8155 C 750.329 1.45159 -1.77374 0
M  V30 8156 C 751.342 1.4905 -0.654826 0
M  V30 8157 O 752.531 1.52274 -0.931396 0
M  V30 8158 C 749.631 2.83858 -1.85143 0
M  V30 8159 C 748.804 3.03498 -3.14972 0
M  V30 8160 C 747.863 4.22393 -3.138 0
M  V30 8161 O 746.889 4.16885 -3.87551 0
M  V30 8162 N 748.091 5.30533 -2.35617 0
M  V30 8163 H 750.856 1.25167 -2.72311 0
M  V30 8164 H 748.417 0.54121 -1.52586 0
M  V30 8165 H 750.409 3.61557 -1.8182 0
M  V30 8166 H 748.979 2.9703 -0.974275 0
M  V30 8167 H 748.199 2.13336 -3.31484 0
M  V30 8168 H 749.487 3.13498 -4.00745 0
M  V30 8169 H 748.885 5.37875 -1.75235 0
M  V30 8170 H 747.442 6.06756 -2.38098 0
M  V30 8171 N 750.875 1.45233 0.611969 0
M  V30 8172 C 751.808 1.48056 1.73651 0
M  V30 8173 C 752.786 0.337373 1.59061 0
M  V30 8174 O 753.97 0.537222 1.80683 0
M  V30 8175 C 751.097 1.33144 3.11433 0
M  V30 8176 C 750.143 2.51272 3.44623 0
M  V30 8177 S 750.976 4.13754 3.39953 0
M  V30 8178 C 752.132 4.013 4.80322 0
M  V30 8179 H 752.365 2.43205 1.70993 0
M  V30 8180 H 749.898 1.32763 0.788246 0
M  V30 8181 H 751.856 1.25228 3.90932 0
M  V30 8182 H 750.517 0.394734 3.1161 0
M  V30 8183 H 749.71 2.36753 4.44932 0
M  V30 8184 H 749.312 2.56027 2.72629 0
M  V30 8185 H 751.604 3.66174 5.7002 0
M  V30 8186 H 752.547 5.01506 4.99897 0
M  V30 8187 H 752.955 3.3303 4.55797 0
M  V30 8188 N 752.353 -0.854086 1.3245 0
M  V30 8189 C 753.764 -1.42427 1.20712 0
M  V30 8190 C 754.115 -1.95371 -0.18013 0
M  V30 8191 O 753.24 -1.87587 -1.07889 0
M  V30 8192 C 753.835 -2.58897 2.18536 0
M  V30 8193 C 752.394 -3.11913 2.10683 0
M  V30 8194 C 751.541 -1.84661 2.06871 0
M  V30 8195 H 754.492 -0.661192 1.4427 0
M  V30 8196 H 754.513 -3.36074 1.78422 0
M  V30 8197 H 754.025 -2.20333 3.19492 0
M  V30 8198 H 752.126 -3.55059 1.12977 0
M  V30 8199 H 752.239 -3.73119 3.00532 0
M  V30 8200 H 750.603 -2.04285 1.52118 0
M  V30 8201 H 751.386 -1.48314 3.09609 0
M  V30 8202 N 753.831 -1.1567 -1.07043 0
M  V30 8203 C 755.056 -0.957946 -1.83952 0
M  V30 8204 C 755.481 0.488807 -1.81638 0
M  V30 8205 O 754.839 1.34869 -1.21162 0
M  V30 8206 C 754.887 -1.48064 -3.288 0
M  V30 8207 O 753.991 -0.681921 -4.06723 0
M  V30 8208 H 753.332 -0.341453 -0.569479 0
M  V30 8209 H 755.862 -1.53728 -1.35015 0
M  V30 8210 H 755.872 -1.49484 -3.7963 0
M  V30 8211 H 754.547 -2.53388 -3.29799 0
M  V30 8212 H 753.124 -0.737612 -3.65532 0
M  V30 8213 N 755.309 1.25446 -0.953992 0
M  V30 8214 C 756.256 2.25912 -0.472485 0
M  V30 8215 C 757.226 1.59173 0.47469 0
M  V30 8216 O 758.411 1.86812 0.388082 0
M  V30 8217 C 755.551 3.44235 0.244218 0
M  V30 8218 C 754.664 4.25613 -0.740121 0
M  V30 8219 C 753.799 5.312 -0.000922267 0
M  V30 8220 C 752.838 6.04265 -0.976236 0
M  V30 8221 N 751.975 7.01589 -0.267952 0
M  V30 8222 H 756.815 2.66469 -1.3341 0
M  V30 8223 H 754.352 1.31005 -0.669045 0
M  V30 8224 H 756.31 4.11682 0.676314 0
M  V30 8225 H 754.94 3.04554 1.06988 0
M  V30 8226 H 753.992 3.57834 -1.2907 0
M  V30 8227 H 755.304 4.762 -1.48441 0
M  V30 8228 H 754.458 6.04719 0.48984 0
M  V30 8229 H 753.197 4.81484 0.776159 0
M  V30 8230 H 752.202 5.29561 -1.478 0
M  V30 8231 H 753.427 6.5607 -1.75354 0
M  V30 8232 H 751.373 6.54164 0.490403 0
M  V30 8233 H 751.29 7.4999 -0.951344 0
M  V30 8234 H 752.558 7.7924 0.201294 0
M  V30 8235 N 756.787 0.722489 1.40064 0
M  V30 8236 C 757.734 0.0743738 2.3068 0
M  V30 8237 C 758.704 -0.743004 1.48555 0
M  V30 8238 O 759.889 -0.705536 1.77276 0
M  V30 8239 C 757.029 -0.836292 3.34814 0
M  V30 8240 C 756.142 -0.00764663 4.31999 0
M  V30 8241 C 755.277 -0.918428 5.232 0
M  V30 8242 C 754.316 -0.0842838 6.12042 0
M  V30 8243 N 753.453 -0.950316 6.95639 0
M  V30 8244 H 758.293 0.852794 2.85537 0
M  V30 8245 H 755.83 0.432222 1.40607 0
M  V30 8246 H 757.788 -1.3786 3.93765 0
M  V30 8247 H 756.418 -1.58082 2.81443 0
M  V30 8248 H 755.47 0.651928 3.74772 0
M  V30 8249 H 756.782 0.63786 4.94705 0
M  V30 8250 H 755.936 -1.52902 5.87116 0
M  V30 8251 H 754.675 -1.59774 4.60786 0
M  V30 8252 H 753.68 0.5392 5.4715 0
M  V30 8253 H 754.905 0.591628 6.76518 0
M  V30 8254 H 752.851 -1.61515 6.35806 0
M  V30 8255 H 752.768 -0.361004 7.55138 0
M  V30 8256 H 754.036 -1.54687 7.63997 0
M  V30 8257 N 758.265 -1.50454 0.469181 0
M  V30 8258 C 759.195 -2.31353 -0.31592 0
M  V30 8259 C 760.176 -1.38172 -0.992094 0
M  V30 8260 O 761.361 -1.67093 -0.989633 0
M  V30 8261 C 758.491 -3.1786 -1.39937 0
M  V30 8262 C 757.445 -4.19578 -0.844909 0
M  V30 8263 C 756.771 -4.9481 -2.0265 0
M  V30 8264 C 758.071 -5.22106 0.142499 0
M  V30 8265 H 759.765 -2.97237 0.359269 0
M  V30 8266 H 757.311 -1.42942 0.174224 0
M  V30 8267 H 759.264 -3.7325 -1.95607 0
M  V30 8268 H 757.988 -2.49858 -2.1033 0
M  V30 8269 H 756.647 -3.65285 -0.310189 0
M  V30 8270 H 756.295 -4.23282 -2.71737 0
M  V30 8271 H 755.995 -5.63613 -1.66174 0
M  V30 8272 H 757.519 -5.53035 -2.58815 0
M  V30 8273 H 758.933 -5.72378 -0.324966 0
M  V30 8274 H 757.33 -5.98618 0.421441 0
M  V30 8275 H 758.4 -4.7297 1.06901 0
M  V30 8276 N 759.743 -0.201713 -1.56304 0
M  V30 8277 C 761.02 0.483273 -1.89536 0
M  V30 8278 C 761.4 1.79176 -1.11621 0
M  V30 8279 O 760.748 2.27445 -0.219339 0
M  V30 8280 C 760.958 0.695604 -3.41998 0
M  V30 8281 C 762.306 1.012 -4.12364 0
M  V30 8282 O 763.33 0.783094 -3.47485 0
M  V30 8283 O 762.189 1.44534 -5.27041 0
M  V30 8284 H 759.283 0.252801 -0.787414 0
M  V30 8285 H 761.829 -0.24242 -1.6796 0
M  V30 8286 H 760.601 -0.228165 -3.90634 0
M  V30 8287 H 760.224 1.47351 -3.69288 0
M  V30 8288 N 761.222 1.57436 0.0718424 0
M  V30 8289 C 762.469 1.87248 0.771007 0
M  V30 8290 C 762.797 0.793441 1.7758 0
M  V30 8291 O 762.052 -0.210565 1.94564 0
M  V30 8292 C 762.351 3.23723 1.51455 0
M  V30 8293 C 762.017 4.46194 0.649736 0
M  V30 8294 C 760.679 4.79438 0.411409 0
M  V30 8295 C 763.031 5.21176 0.05004 0
M  V30 8296 C 760.359 5.85077 -0.436096 0
M  V30 8297 C 762.711 6.27712 -0.784919 0
M  V30 8298 C 761.375 6.59457 -1.03312 0
M  V30 8299 H 760.645 0.685188 0.282132 0
M  V30 8300 H 763.292 1.91474 0.0317896 0
M  V30 8301 H 761.597 3.15287 2.32597 0
M  V30 8302 H 763.294 3.44023 2.06031 0
M  V30 8303 H 759.884 4.20175 0.84562 0
M  V30 8304 H 764.068 4.95806 0.221282 0
M  V30 8305 H 759.324 6.08071 -0.637136 0
M  V30 8306 H 763.498 6.84974 -1.25635 0
M  V30 8307 H 761.125 7.4114 -1.6916 0
M  V30 8308 N 762.7 -0.34323 1.53817 0
M  V30 8309 C 763.949 -1.08086 1.70295 0
M  V30 8310 C 764.262 -1.89794 0.47302 0
M  V30 8311 O 765.468 -2.66498 0.518754 0
M  V30 8312 C 763.924 -1.97097 3.01133 0
M  V30 8313 C 763.532 -1.20594 4.31464 0
M  V30 8314 C 765.276 -2.70715 3.26976 0
M  V30 8315 C 763.183 -2.08636 5.53376 0
M  V30 8316 H 762.113 -0.407228 0.634572 0
M  V30 8317 H 764.764 -0.340328 1.80316 0
M  V30 8318 H 763.146 -2.74971 2.84969 0
M  V30 8319 H 764.32 -0.476282 4.58332 0
M  V30 8320 H 762.635 -0.587426 4.12236 0
M  V30 8321 H 765.232 -3.36857 4.15248 0
M  V30 8322 H 765.575 -3.37299 2.43998 0
M  V30 8323 H 766.108 -1.99914 3.43917 0
M  V30 8324 H 762.847 -1.46594 6.38898 0
M  V30 8325 H 762.367 -2.7939 5.30755 0
M  V30 8326 H 764.046 -2.67682 5.89029 0
M  V30 8327 N 764.178 -1.45556 -0.604258 0
M  V30 8328 C 765.427 -1.49019 -1.35928 0
M  V30 8329 C 765.74 -0.137409 -1.95117 0
M  V30 8330 O 766.946 -0.0497032 -2.71455 0
M  V30 8331 C 765.402 -2.62477 -2.46239 0
M  V30 8332 C 765.01 -4.04082 -1.93447 0
M  V30 8333 C 766.754 -2.7519 -3.23219 0
M  V30 8334 C 764.661 -5.08917 -3.0126 0
M  V30 8335 H 763.591 -0.554518 -0.510907 0
M  V30 8336 H 766.242 -1.71705 -0.647262 0
M  V30 8337 H 764.624 -2.3308 -3.2014 0
M  V30 8338 H 765.798 -4.43173 -1.26232 0
M  V30 8339 H 764.113 -3.95849 -1.29201 0
M  V30 8340 H 766.71 -3.50683 -4.0364 0
M  V30 8341 H 767.053 -1.81941 -3.74437 0
M  V30 8342 H 767.586 -3.04129 -2.56418 0
M  V30 8343 H 764.325 -6.03886 -2.54955 0
M  V30 8344 H 763.845 -4.74393 -3.67031 0
M  V30 8345 H 765.524 -5.33814 -3.65584 0
M  V30 8346 N 765.656 0.84705 -1.32902 0
M  V30 8347 C 766.586 1.97166 -1.25091 0
M  V30 8348 C 767.567 1.69578 -0.133161 0
M  V30 8349 O 768.752 1.91519 -0.321591 0
M  V30 8350 C 765.882 3.33157 -0.981006 0
M  V30 8351 C 764.836 3.75119 -2.06082 0
M  V30 8352 C 764.162 5.08826 -1.64318 0
M  V30 8353 C 765.462 3.89774 -3.47669 0
M  V30 8354 H 767.156 2.03958 -2.19184 0
M  V30 8355 H 764.702 0.979907 -1.05517 0
M  V30 8356 H 766.655 4.11393 -0.912891 0
M  V30 8357 H 765.379 3.266 -0.00445559 0
M  V30 8358 H 764.038 2.9914 -2.11921 0
M  V30 8359 H 763.686 4.98732 -0.653876 0
M  V30 8360 H 763.386 5.37873 -2.36572 0
M  V30 8361 H 764.91 5.89546 -1.58958 0
M  V30 8362 H 766.324 4.58343 -3.44376 0
M  V30 8363 H 764.721 4.30248 -4.18338 0
M  V30 8364 H 765.791 2.92463 -3.86773 0
M  V30 8365 N 767.134 1.16236 1.06428 0
M  V30 8366 C 768.082 0.863669 2.15971 0
M  V30 8367 C 769.076 -0.166723 1.68578 0
M  V30 8368 O 770.282 -0.0208425 1.79988 0
M  V30 8369 H 766.657 0.261684 0.705 0
M  V30 8370 H 768.628 1.79498 2.38376 0
M  V30 8371 C 767.377 0.379697 3.45621 0
M  V30 8372 H 766.7 1.16399 3.82481 0
M  V30 8373 H 768.14 0.209458 4.23482 0
M  V30 8374 C 766.599 -0.900499 3.24642 0
M  V30 8375 O 767.129 -1.97004 3.50074 0
M  V30 8376 N 765.335 -0.843721 2.78082 0
M  V30 8377 H 764.882 0.0268429 2.57586 0
M  V30 8378 H 764.84 -1.70078 2.64425 0
M  V30 8379 N 768.612 -1.24939 0.960631 0
M  V30 8380 C 769.522 -2.29374 0.492435 0
M  V30 8381 C 770.538 -1.68262 -0.443154 0
M  V30 8382 O 771.714 -1.98875 -0.31793 0
M  V30 8383 C 768.779 -3.46023 -0.216626 0
M  V30 8384 C 767.84 -4.22557 0.757915 0
M  V30 8385 C 767.073 -5.33636 0.0825969 0
M  V30 8386 O 767.296 -5.59084 -1.13054 0
M  V30 8387 O 766.23 -5.96939 0.771177 0
M  V30 8388 H 770.056 -2.71525 1.36044 0
M  V30 8389 H 767.641 -1.30499 0.72735 0
M  V30 8390 H 769.523 -4.16885 -0.615241 0
M  V30 8391 H 768.198 -3.05862 -1.05971 0
M  V30 8392 H 767.105 -3.54099 1.20685 0
M  V30 8393 H 768.438 -4.66516 1.5692 0
M  V30 8394 N 770.09 -0.729906 -1.39679 0
M  V30 8395 C 771.318 -0.285709 -2.04918 0
M  V30 8396 C 771.733 1.07765 -1.55023 0
M  V30 8397 O 771.09 1.67999 -0.712923 0
M  V30 8398 C 771.141 -0.272793 -3.60469 0
M  V30 8399 O 770.862 -1.58233 -4.08527 0
M  V30 8400 C 772.363 0.188199 -4.429 0
M  V30 8401 H 769.583 -0.125758 -0.65911 0
M  V30 8402 H 772.127 -0.992129 -1.78821 0
M  V30 8403 H 770.282 0.384699 -3.85485 0
M  V30 8404 H 770.696 -1.49245 -5.02818 0
M  V30 8405 H 772.17 0.14608 -5.51807 0
M  V30 8406 H 772.647 1.2326 -4.21549 0
M  V30 8407 H 773.253 -0.439541 -4.23023 0
M  V30 8408 N 771.568 1.50203 -0.477153 0
M  V30 8409 C 772.515 2.28656 0.31386 0
M  V30 8410 C 773.485 1.33977 0.981802 0
M  V30 8411 O 774.67 1.62919 0.993072 0
M  V30 8412 C 771.81 3.16027 1.38639 0
M  V30 8413 C 770.923 4.25743 0.732615 0
M  V30 8414 C 770.058 5.00363 1.78355 0
M  V30 8415 C 769.097 6.01945 1.11035 0
M  V30 8416 N 768.234 6.6982 2.10441 0
M  V30 8417 H 773.074 2.958 -0.361445 0
M  V30 8418 H 770.611 1.45867 -0.190093 0
M  V30 8419 H 772.569 3.6504 2.01994 0
M  V30 8420 H 771.199 2.50917 2.03077 0
M  V30 8421 H 770.251 3.80398 -0.0136546 0
M  V30 8422 H 771.563 4.98393 0.201513 0
M  V30 8423 H 770.717 5.53124 2.49276 0
M  V30 8424 H 769.456 4.27432 2.34847 0
M  V30 8425 H 768.461 5.48438 0.386797 0
M  V30 8426 H 769.686 6.76851 0.552248 0
M  V30 8427 H 767.632 5.99677 2.65939 0
M  V30 8428 H 767.549 7.38366 1.62332 0
M  V30 8429 H 768.817 7.27196 2.80724 0
M  V30 8430 N 773.046 0.209999 1.56195 0
M  V30 8431 C 774.293 -0.424813 1.97994 0
M  V30 8432 C 774.621 -1.60589 1.09733 0
M  V30 8433 O 773.876 -1.95201 0.139693 0
M  V30 8434 C 774.175 -0.91312 3.45539 0
M  V30 8435 C 773.841 0.156187 4.50629 0
M  V30 8436 C 772.503 0.449966 4.79092 0
M  V30 8437 C 774.855 0.879959 5.13718 0
M  V30 8438 C 772.183 1.47223 5.67928 0
M  V30 8439 C 774.535 1.89148 6.0366 0
M  V30 8440 C 773.199 2.1923 6.30472 0
M  V30 8441 H 772.469 -0.15545 0.724511 0
M  V30 8442 H 775.116 0.310095 1.88973 0
M  V30 8443 H 773.421 -1.72658 3.51705 0
M  V30 8444 H 775.118 -1.41395 3.75245 0
M  V30 8445 H 771.708 -0.0829466 4.2852 0
M  V30 8446 H 775.892 0.66623 4.91808 0
M  V30 8447 H 771.148 1.71105 5.86969 0
M  V30 8448 H 775.322 2.45745 6.516 0
M  V30 8449 H 772.949 2.98587 6.99107 0
M  V30 8450 N 774.524 -1.57472 -0.0634922 0
M  V30 8451 C 775.77 -1.88792 -0.756903 0
M  V30 8452 C 776.125 -0.804679 -1.74765 0
M  V30 8453 O 775.418 0.19033 -1.90652 0
M  V30 8454 C 775.612 -3.24521 -1.49736 0
M  V30 8455 C 775.441 -4.45946 -0.579833 0
M  V30 8456 C 774.211 -5.04848 -0.213667 0
M  V30 8457 C 776.409 -5.14143 0.12703 0
M  V30 8458 N 774.391 -6.09795 0.708712 0
M  V30 8459 C 775.762 -6.1334 0.906295 0
M  V30 8460 C 777.817 -4.97508 0.197625 0
M  V30 8461 C 776.52 -6.97697 1.74961 0
M  V30 8462 C 778.546 -5.82398 1.02794 0
M  V30 8463 C 777.908 -6.81139 1.79523 0
M  V30 8464 H 774.007 -0.740235 -0.252142 0
M  V30 8465 H 776.591 -1.94692 -0.0181026 0
M  V30 8466 H 774.762 -3.19615 -2.20683 0
M  V30 8467 H 776.494 -3.43464 -2.14044 0
M  V30 8468 H 773.249 -4.70177 -0.568357 0
M  V30 8469 H 773.673 -6.66929 1.16339 0
M  V30 8470 H 778.315 -4.21077 -0.381261 0
M  V30 8471 H 776.033 -7.73496 2.33943 0
M  V30 8472 H 779.619 -5.71581 1.08565 0
M  V30 8473 H 778.499 -7.45687 2.42736 0
M  V30 8474 N 776.003 0.335068 -1.53997 0
M  V30 8475 C 777.233 1.0926 -1.75345 0
M  V30 8476 C 777.641 1.82568 -0.496545 0
M  V30 8477 O 776.984 1.75525 0.541897 0
M  V30 8478 C 777.046 2.14473 -2.88516 0
M  V30 8479 C 776.71 1.60665 -4.27827 0
M  V30 8480 C 777.707 1.05448 -5.09094 0
M  V30 8481 C 775.392 1.65255 -4.74337 0
M  V30 8482 C 777.386 0.555372 -6.34976 0
M  V30 8483 C 775.073 1.14956 -6.0019 0
M  V30 8484 C 776.071 0.601907 -6.80343 0
M  V30 8485 O 775.759 0.106445 -8.0383 0
M  V30 8486 H 775.491 0.331329 -0.589234 0
M  V30 8487 H 778.045 0.39042 -2.01655 0
M  V30 8488 H 776.275 2.88274 -2.5775 0
M  V30 8489 H 777.964 2.75857 -2.97755 0
M  V30 8490 H 778.73 1.01218 -4.74321 0
M  V30 8491 H 774.609 2.06822 -4.12002 0
M  V30 8492 H 778.153 0.127245 -6.97484 0
M  V30 8493 H 774.05 1.18891 -6.34457 0
M  V30 8494 H 774.818 0.222944 -8.18196 0
M  V30 8495 N 777.481 1.45874 0.596531 0
M  V30 8496 C 778.413 1.51408 1.7207 0
M  V30 8497 C 779.426 0.403738 1.57714 0
M  V30 8498 O 780.615 0.671384 1.65393 0
M  V30 8499 C 777.715 1.3652 3.10186 0
M  V30 8500 C 776.888 2.61428 3.50677 0
M  V30 8501 C 775.947 2.40937 4.67799 0
M  V30 8502 O 774.973 3.14602 4.74357 0
M  V30 8503 N 776.175 1.4621 5.61785 0
M  V30 8504 H 778.94 2.48333 1.67782 0
M  V30 8505 H 776.501 1.41755 0.782129 0
M  V30 8506 H 778.493 1.20606 3.86311 0
M  V30 8507 H 777.063 0.478302 3.08919 0
M  V30 8508 H 776.283 2.92381 2.644 0
M  V30 8509 H 777.571 3.44432 3.74491 0
M  V30 8510 H 776.969 0.854382 5.59211 0
M  V30 8511 H 775.526 1.36264 6.37397 0
M  V30 8512 N 778.959 -0.83999 1.33349 0
M  V30 8513 C 779.892 -1.95415 1.17848 0
M  V30 8514 C 780.87 -1.6243 0.0742296 0
M  V30 8515 O 782.054 -1.87014 0.23626 0
M  V30 8516 C 779.181 -3.28938 0.807295 0
M  V30 8517 C 778.227 -3.80895 1.91888 0
M  V30 8518 S 779.06 -4.02709 3.52967 0
M  V30 8519 C 780.216 -5.39185 3.17853 0
M  V30 8520 H 780.449 -2.08265 2.12162 0
M  V30 8521 H 777.982 -0.993643 1.18178 0
M  V30 8522 H 779.94 -4.06093 0.599914 0
M  V30 8523 H 778.601 -3.13881 -0.117234 0
M  V30 8524 H 777.794 -4.77508 1.6125 0
M  V30 8525 H 777.396 -3.10633 2.08286 0
M  V30 8526 H 779.688 -6.21978 2.68608 0
M  V30 8527 H 780.631 -5.74795 4.13542 0
M  V30 8528 H 781.039 -5.03885 2.5448 0
M  V30 8529 N 780.437 -1.16799 -1.0581 0
M  V30 8530 C 781.686 -0.94698 -1.78088 0
M  V30 8531 C 781.999 0.526016 -1.88394 0
M  V30 8532 O 783.205 0.865061 -2.5735 0
M  V30 8533 C 781.661 -1.64508 -3.20102 0
M  V30 8534 C 781.269 -3.15618 -3.17946 0
M  V30 8535 C 783.013 -1.50622 -3.96879 0
M  V30 8536 C 780.92 -3.78144 -4.5471 0
M  V30 8537 H 779.85 -0.35067 -0.667493 0
M  V30 8538 H 782.501 -1.39985 -1.18645 0
M  V30 8539 H 780.883 -1.11993 -3.79834 0
M  V30 8540 H 782.057 -3.75016 -2.67768 0
M  V30 8541 H 780.372 -3.29444 -2.54667 0
M  V30 8542 H 782.969 -1.94713 -4.97987 0
M  V30 8543 H 783.312 -0.455864 -4.13797 0
M  V30 8544 H 783.845 -2.00319 -3.43682 0
M  V30 8545 H 780.584 -4.83149 -4.42998 0
M  V30 8546 H 780.104 -3.23532 -5.05062 0
M  V30 8547 H 781.783 -3.79986 -5.2366 0
M  V30 8548 N 781.915 1.24427 -0.967243 0
M  V30 8549 C 782.845 2.2773 -0.515899 0
M  V30 8550 C 783.826 1.64197 0.444227 0
M  V30 8551 O 785.011 1.91193 0.340451 0
M  V30 8552 C 782.141 3.46751 0.195149 0
M  V30 8553 C 781.095 4.22548 -0.680953 0
M  V30 8554 C 780.421 5.34456 0.161561 0
M  V30 8555 C 781.721 4.83914 -1.96532 0
M  V30 8556 H 783.415 2.65735 -1.37933 0
M  V30 8557 H 780.961 1.27742 -0.664681 0
M  V30 8558 H 782.914 4.18153 0.522117 0
M  V30 8559 H 781.638 3.07771 1.09292 0
M  V30 8560 H 780.297 3.52946 -0.991186 0
M  V30 8561 H 779.945 4.91716 1.05947 0
M  V30 8562 H 779.645 5.86087 -0.421418 0
M  V30 8563 H 781.169 6.08685 0.483211 0
M  V30 8564 H 782.583 5.47392 -1.70396 0
M  V30 8565 H 780.98 5.45775 -2.49499 0
M  V30 8566 H 782.05 4.05393 -2.66053 0
M  V30 8567 N 783.393 0.737304 1.3929 0
M  V30 8568 C 784.804 0.355966 1.83275 0
M  V30 8569 C 785.155 -1.11295 1.6158 0
M  V30 8570 O 784.28 -1.85871 1.10819 0
M  V30 8571 C 784.875 0.63931 3.32713 0
M  V30 8572 C 783.434 0.31144 3.75109 0
M  V30 8573 C 782.581 0.900765 2.62262 0
M  V30 8574 H 785.532 0.934763 1.28249 0
M  V30 8575 H 785.553 -0.0881293 3.80398 0
M  V30 8576 H 785.065 1.70847 3.48472 0
M  V30 8577 H 783.166 -0.751791 3.64937 0
M  V30 8578 H 783.279 0.795611 4.72448 0
M  V30 8579 H 781.643 0.327239 2.52589 0
M  V30 8580 H 782.426 1.97463 2.80826 0
M  V30 8581 N 784.871 -1.49948 0.485112 0
M  V30 8582 C 786.282 -1.8667 0.0334041 0
M  V30 8583 C 786.633 -1.3988 -1.37579 0
M  V30 8584 O 785.758 -0.769788 -2.02245 0
M  V30 8585 C 786.353 -3.38757 0.0538426 0
M  V30 8586 C 784.912 -3.74839 -0.342453 0
M  V30 8587 C 784.059 -2.73894 0.433281 0
M  V30 8588 H 787.01 -1.42492 0.698699 0
M  V30 8589 H 787.031 -3.73132 -0.745146 0
M  V30 8590 H 786.543 -3.72782 1.07959 0
M  V30 8591 H 784.644 -3.46419 -1.37203 0
M  V30 8592 H 784.757 -4.79088 -0.0340503 0
M  V30 8593 H 783.121 -2.54441 -0.114849 0
M  V30 8594 H 783.904 -3.10763 1.45881 0
M  V30 8595 N 786.349 -0.21828 -1.56081 0
M  V30 8596 C 787.299 0.706492 -2.16778 0
M  V30 8597 C 788.283 1.15987 -1.11516 0
M  V30 8598 O 789.475 1.11441 -1.37513 0
M  V30 8599 C 786.604 1.91583 -2.8487 0
M  V30 8600 C 785.69 1.48228 -3.97353 0
M  V30 8601 N 786.081 0.761113 -5.00041 0
M  V30 8602 C 784.379 1.76982 -4.09382 0
M  V30 8603 C 785.08 0.540496 -5.79184 0
M  V30 8604 N 784.056 1.09622 -5.32432 0
M  V30 8605 H 787.858 0.147038 -2.93532 0
M  V30 8606 H 785.372 -0.0194049 -1.62388 0
M  V30 8607 H 787.369 2.58906 -3.26762 0
M  V30 8608 H 786.029 2.47979 -2.09611 0
M  V30 8609 H 787.04 0.414141 -5.16241 0
M  V30 8610 H 783.717 2.34721 -3.45271 0
M  V30 8611 H 785.107 -0.0332531 -6.71892 0
M  V30 8612 N 787.827 1.57504 0.0551401 0
M  V30 8613 C 789.074 1.88055 0.751104 0
M  V30 8614 C 789.402 0.812231 1.76729 0
M  V30 8615 O 788.657 -0.189918 1.94776 0
M  V30 8616 C 788.956 3.25311 1.48013 0
M  V30 8617 C 788.622 4.46858 0.602375 0
M  V30 8618 C 787.284 4.79847 0.360536 0
M  V30 8619 C 789.636 5.212 -0.00524047 0
M  V30 8620 C 786.964 5.84582 -0.498127 0
M  V30 8621 C 789.316 6.26844 -0.851453 0
M  V30 8622 C 787.98 6.58324 -1.103 0
M  V30 8623 H 787.25 0.688142 0.274848 0
M  V30 8624 H 789.897 1.91497 0.0114795 0
M  V30 8625 H 788.202 3.17737 2.29239 0
M  V30 8626 H 789.899 3.46189 2.02371 0
M  V30 8627 H 786.489 4.21049 0.801007 0
M  V30 8628 H 790.673 4.96013 0.168682 0
M  V30 8629 H 785.929 6.07361 -0.701594 0
M  V30 8630 H 790.103 6.83603 -1.32893 0
M  V30 8631 H 787.73 7.39304 -1.77011 0
M  V30 8632 N 789.305 -0.326896 1.54172 0
M  V30 8633 C 790.582 -1.08326 1.62864 0
M  V30 8634 C 790.962 -2.06018 0.46039 0
M  V30 8635 O 790.31 -2.21889 -0.545685 0
M  V30 8636 C 790.52 -1.78816 2.9971 0
M  V30 8637 C 791.868 -2.31958 3.55641 0
M  V30 8638 O 792.892 -1.88888 3.01993 0
M  V30 8639 O 791.751 -3.10801 4.49517 0
M  V30 8640 H 788.845 -0.499131 0.659392 0
M  V30 8641 H 791.391 -0.327054 1.66519 0
M  V30 8642 H 790.163 -1.07739 3.76176 0
M  V30 8643 H 789.786 -2.61255 2.99719 0
M  V30 8644 N 790.784 -1.46188 -0.588786 0
M  V30 8645 C 791.731 -1.56292 -1.69828 0
M  V30 8646 C 792.701 -0.407581 -1.61022 0
M  V30 8647 O 793.886 -0.623532 -1.80324 0
M  V30 8648 C 791.026 -1.55341 -3.08161 0
M  V30 8649 C 790.139 -2.81564 -3.27636 0
M  V30 8650 C 789.274 -2.72158 -4.56183 0
M  V30 8651 C 788.313 -3.93348 -4.68981 0
M  V30 8652 N 787.45 -3.82365 -5.88848 0
M  V30 8653 H 792.29 -2.51066 -1.6053 0
M  V30 8654 H 789.827 -1.24562 -0.782474 0
M  V30 8655 H 791.785 -1.52776 -3.88221 0
M  V30 8656 H 790.415 -0.641034 -3.16371 0
M  V30 8657 H 789.467 -2.94136 -2.41223 0
M  V30 8658 H 790.779 -3.714 -3.32962 0
M  V30 8659 H 789.933 -2.67665 -5.44464 0
M  V30 8660 H 788.672 -1.79953 -4.53286 0
M  V30 8661 H 787.677 -3.98181 -3.7912 0
M  V30 8662 H 788.902 -4.86643 -4.73662 0
M  V30 8663 H 786.848 -2.92942 -5.86959 0
M  V30 8664 H 786.765 -4.65851 -5.95415 0
M  V30 8665 H 788.033 -3.81836 -6.79575 0
M  V30 8666 N 792.262 0.832906 -1.33792 0
M  V30 8667 C 793.487 1.62568 -1.28788 0
M  V30 8668 C 793.912 1.87599 0.137246 0
M  V30 8669 O 793.27 1.44436 1.0958 0
M  V30 8670 C 793.318 2.9495 -2.07453 0
M  V30 8671 O 792.422 3.86546 -1.43722 0
M  V30 8672 H 791.763 0.494809 -0.442787 0
M  V30 8673 H 794.293 1.03578 -1.76445 0
M  V30 8674 H 794.303 3.44599 -2.1844 0
M  V30 8675 H 792.978 2.76055 -3.11073 0
M  V30 8676 H 791.555 3.45044 -1.41417 0
M  V30 8677 N 793.74 1.17359 1.05189 0
M  V30 8678 C 794.687 0.890325 2.12936 0
M  V30 8679 C 795.657 -0.165779 1.65271 0
M  V30 8680 O 796.842 -0.0285672 1.90779 0
M  V30 8681 C 793.982 0.409793 3.42658 0
M  V30 8682 C 793.095 1.53002 4.03998 0
M  V30 8683 C 792.23 1.00336 5.21638 0
M  V30 8684 C 791.269 2.09903 5.74984 0
M  V30 8685 N 790.406 1.58714 6.83926 0
M  V30 8686 H 795.246 1.81299 2.36505 0
M  V30 8687 H 792.783 0.904249 1.16025 0
M  V30 8688 H 794.741 0.112743 4.17048 0
M  V30 8689 H 793.371 -0.475915 3.19272 0
M  V30 8690 H 792.423 1.9428 3.27047 0
M  V30 8691 H 793.735 2.3564 4.39631 0
M  V30 8692 H 792.889 0.660158 6.03098 0
M  V30 8693 H 791.628 0.14642 4.8748 0
M  V30 8694 H 790.633 2.45081 4.92154 0
M  V30 8695 H 791.858 2.96013 6.1119 0
M  V30 8696 H 789.804 0.752915 6.51665 0
M  V30 8697 H 789.721 2.34959 7.18561 0
M  V30 8698 H 790.989 1.27287 7.69037 0
M  V30 8699 N 795.218 -1.23913 0.973828 0
M  V30 8700 C 796.165 -2.25132 0.508366 0
M  V30 8701 C 797.135 -1.59908 -0.449307 0
M  V30 8702 O 798.32 -1.87405 -0.358313 0
M  V30 8703 C 795.46 -3.4458 -0.189422 0
M  V30 8704 C 794.573 -4.24381 0.807738 0
M  V30 8705 C 793.708 -5.31131 0.0854315 0
M  V30 8706 C 792.747 -6.02635 1.07225 0
M  V30 8707 N 791.884 -7.01073 0.379535 0
M  V30 8708 H 796.724 -2.64313 1.37632 0
M  V30 8709 H 794.261 -1.29924 0.689802 0
M  V30 8710 H 796.219 -4.12706 -0.610733 0
M  V30 8711 H 794.849 -3.06218 -1.02129 0
M  V30 8712 H 793.901 -3.55735 1.34747 0
M  V30 8713 H 795.213 -4.73778 1.55998 0
M  V30 8714 H 794.367 -6.05422 -0.393572 0
M  V30 8715 H 793.106 -4.82658 -0.699461 0
M  V30 8716 H 792.111 -5.27143 1.56207 0
M  V30 8717 H 793.336 -6.53197 1.85769 0
M  V30 8718 H 791.282 -6.54862 -0.386269 0
M  V30 8719 H 791.199 -7.48382 1.07054 0
M  V30 8720 H 792.467 -7.79462 -0.0772984 0
M  V30 8721 N 796.696 -0.74468 -1.38897 0
M  V30 8722 C 797.926 -0.306982 -2.04307 0
M  V30 8723 C 798.334 1.06652 -1.56275 0
M  V30 8724 O 797.677 1.68699 -0.72708 0
M  V30 8725 C 797.739 -0.241186 -3.5869 0
M  V30 8726 C 797.403 -1.55476 -4.2974 0
M  V30 8727 C 798.4 -2.50229 -4.55721 0
M  V30 8728 C 796.085 -1.82173 -4.68101 0
M  V30 8729 C 798.079 -3.69905 -5.19085 0
M  V30 8730 C 795.766 -3.02125 -5.31191 0
M  V30 8731 C 796.764 -3.95812 -5.56616 0
M  V30 8732 O 796.452 -5.13656 -6.18395 0
M  V30 8733 H 796.184 -0.130416 -0.663301 0
M  V30 8734 H 798.738 -1.01192 -1.78744 0
M  V30 8735 H 796.968 0.519925 -3.83189 0
M  V30 8736 H 798.657 0.165806 -4.05561 0
M  V30 8737 H 799.423 -2.30877 -4.26522 0
M  V30 8738 H 795.302 -1.10091 -4.47662 0
M  V30 8739 H 798.846 -4.43047 -5.38846 0
M  V30 8740 H 794.743 -3.21374 -5.59811 0
M  V30 8741 H 795.511 -5.14119 -6.36886 0
M  V30 8742 N 798.174 1.49689 -0.493057 0
M  V30 8743 C 799.585 1.8665 -0.0433032 0
M  V30 8744 C 799.936 1.40607 1.36836 0
M  V30 8745 O 799.061 0.780503 2.01834 0
M  V30 8746 C 799.656 3.38724 -0.0718069 0
M  V30 8747 C 798.215 3.75015 0.32257 0
M  V30 8748 C 797.362 2.7366 -0.4478 0
M  V30 8749 H 800.313 1.42119 -0.706246 0
M  V30 8750 H 800.334 3.73522 0.725347 0
M  V30 8751 H 799.846 3.72204 -1.09935 0
M  V30 8752 H 797.947 3.47142 1.35364 0
M  V30 8753 H 798.06 4.79099 0.00864259 0
M  V30 8754 H 796.424 2.54498 0.101354 0
M  V30 8755 H 797.207 3.09985 -1.47527 0
M  V30 8756 N 799.652 0.226554 1.55963 0
M  V30 8757 C 800.582 -0.676079 2.23498 0
M  V30 8758 C 801.563 -1.19718 1.20837 0
M  V30 8759 O 802.748 -1.24027 1.49436 0
M  V30 8760 C 799.878 -1.88217 2.91876 0
M  V30 8761 C 798.832 -1.4947 4.01052 0
M  V30 8762 C 798.158 -2.77997 4.56751 0
M  V30 8763 C 799.458 -0.680951 5.17842 0
M  V30 8764 H 801.152 -0.112989 2.99187 0
M  V30 8765 H 798.698 -0.0529046 1.43903 0
M  V30 8766 H 800.651 -2.51911 3.37815 0
M  V30 8767 H 799.375 -2.47031 2.13643 0
M  V30 8768 H 798.034 -0.881199 3.55852 0
M  V30 8769 H 797.682 -3.34966 3.75243 0
M  V30 8770 H 797.382 -2.52803 5.30438 0
M  V30 8771 H 798.906 -3.42625 5.05411 0
M  V30 8772 H 800.32 -1.22171 5.60131 0
M  V30 8773 H 798.717 -0.525898 5.97791 0
M  V30 8774 H 799.787 0.311346 4.83899 0
M  V30 8775 N 801.13 -1.57531 -0.0467866 0
M  V30 8776 C 802.06 -2.08425 -1.05268 0
M  V30 8777 C 803.041 -0.982941 -1.38825 0
M  V30 8778 O 804.226 -1.25716 -1.48018 0
M  V30 8779 C 801.356 -2.54897 -2.35891 0
M  V30 8780 C 800.31 -3.69132 -2.16623 0
M  V30 8781 C 799.636 -4.01747 -3.52851 0
M  V30 8782 C 800.936 -4.98243 -1.56689 0
M  V30 8783 H 802.63 -2.92716 -0.62908 0
M  V30 8784 H 800.176 -1.40816 -0.301156 0
M  V30 8785 H 802.129 -2.8912 -3.06574 0
M  V30 8786 H 800.853 -1.67666 -2.80278 0
M  V30 8787 H 799.512 -3.35231 -1.48377 0
M  V30 8788 H 799.16 -3.11608 -3.94853 0
M  V30 8789 H 798.86 -4.78681 -3.4079 0
M  V30 8790 H 800.384 -4.38487 -4.24925 0
M  V30 8791 H 801.798 -5.30535 -2.17268 0
M  V30 8792 H 800.195 -5.79669 -1.55255 0
M  V30 8793 H 801.265 -4.81986 -0.530827 0
M  V30 8794 N 802.608 0.318715 -1.54344 0
M  V30 8795 C 803.538 1.39751 -1.87061 0
M  V30 8796 C 804.519 1.53741 -0.727848 0
M  V30 8797 O 805.704 1.67541 -0.982016 0
M  V30 8798 C 802.834 2.76446 -2.10226 0
M  V30 8799 C 801.788 2.77239 -3.26071 0
M  V30 8800 C 801.114 4.17056 -3.34617 0
M  V30 8801 C 802.414 2.40555 -4.63606 0
M  V30 8802 H 804.108 1.12619 -2.77412 0
M  V30 8803 H 801.654 0.540318 -1.33479 0
M  V30 8804 H 803.607 3.51985 -2.31699 0
M  V30 8805 H 802.331 3.05066 -1.16629 0
M  V30 8806 H 800.99 2.04155 -3.04493 0
M  V30 8807 H 800.638 4.42824 -2.3857 0
M  V30 8808 H 800.338 4.18492 -4.12478 0
M  V30 8809 H 801.862 4.94401 -3.5833 0
M  V30 8810 H 803.276 3.05808 -4.84927 0
M  V30 8811 H 801.673 2.53234 -5.44052 0
M  V30 8812 H 802.743 1.35698 -4.65526 0
M  V30 8813 N 804.086 1.46499 0.581025 0
M  V30 8814 C 805.363 1.42372 1.34125 0
M  V30 8815 C 805.743 0.108073 2.10823 0
M  V30 8816 O 805.091 -0.910366 2.09582 0
M  V30 8817 C 805.301 2.65445 2.26583 0
M  V30 8818 C 806.649 3.11664 2.88359 0
M  V30 8819 O 807.673 2.66006 2.36896 0
M  V30 8820 O 806.532 3.90974 3.81839 0
M  V30 8821 H 803.626 0.566262 0.602724 0
M  V30 8822 H 806.172 1.58667 0.601903 0
M  V30 8823 H 804.944 3.52756 1.69348 0
M  V30 8824 H 804.567 2.51618 3.07854 0
M  V30 8825 N 805.565 -0.825799 1.34232 0
M  V30 8826 C 806.811 -1.58419 1.26614 0
M  V30 8827 C 807.144 -1.93503 -0.164341 0
M  V30 8828 O 806.419 -1.59785 -1.109 0
M  V30 8829 C 806.702 -2.8856 2.15418 0
M  V30 8830 C 806.555 -2.60075 3.66989 0
M  V30 8831 C 807.874 -3.90107 2.03726 0
M  V30 8832 H 804.993 -0.574794 0.461282 0
M  V30 8833 H 807.635 -0.951519 1.64457 0
M  V30 8834 H 805.785 -3.42553 1.83275 0
M  V30 8835 H 807.457 -2.12414 4.09485 0
M  V30 8836 H 805.7 -1.93565 3.88221 0
M  V30 8837 H 806.371 -3.52866 4.24488 0
M  V30 8838 H 808.847 -3.45459 2.31942 0
M  V30 8839 H 807.723 -4.78976 2.68092 0
M  V30 8840 H 807.984 -4.30329 1.01337 0
M  V30 8841 N 807.043 -1.17915 -1.04565 0
M  V30 8842 C 808.273 -0.994716 -1.81077 0
M  V30 8843 C 808.681 0.460146 -1.83519 0
M  V30 8844 O 808.024 1.33136 -1.26572 0
M  V30 8845 C 808.086 -1.46698 -3.28207 0
M  V30 8846 C 807.75 -2.94523 -3.49436 0
M  V30 8847 C 808.747 -3.92414 -3.41038 0
M  V30 8848 C 806.432 -3.32841 -3.76194 0
M  V30 8849 C 808.426 -5.2662 -3.59096 0
M  V30 8850 C 806.113 -4.67212 -3.93899 0
M  V30 8851 C 807.111 -5.6391 -3.8535 0
M  V30 8852 O 806.799 -6.95849 -4.02554 0
M  V30 8853 H 806.531 -0.351797 -0.577248 0
M  V30 8854 H 809.085 -1.56772 -1.32709 0
M  V30 8855 H 807.315 -0.837592 -3.7752 0
M  V30 8856 H 809.004 -1.24724 -3.86263 0
M  V30 8857 H 809.77 -3.64157 -3.20336 0
M  V30 8858 H 805.649 -2.58139 -3.81949 0
M  V30 8859 H 809.193 -6.02082 -3.52339 0
M  V30 8860 H 805.09 -4.95172 -4.14095 0
M  V30 8861 H 805.858 -7.02679 -4.19743 0
M  V30 8862 N 808.521 1.23394 -0.980386 0
M  V30 8863 C 809.484 2.23092 -0.525619 0
M  V30 8864 C 810.484 1.56129 0.384745 0
M  V30 8865 O 811.674 1.73284 0.178439 0
M  V30 8866 C 808.806 3.40074 0.23712 0
M  V30 8867 H 809.999 2.64839 -1.40714 0
M  V30 8868 H 807.552 1.36227 -0.766275 0
M  V30 8869 H 808.287 3.03783 1.13518 0
M  V30 8870 H 808.072 3.89883 -0.416356 0
M  V30 8871 H 809.562 4.14043 0.543892 0
M  V30 8872 N 809.999 0.752036 1.385 0
M  V30 8873 C 811.247 0.306895 1.99756 0
M  V30 8874 C 811.568 -1.11478 1.59992 0
M  V30 8875 O 810.838 -1.76206 0.856045 0
M  V30 8876 H 809.418 0.11048 0.738785 0
M  V30 8877 H 812.08 0.965785 1.69289 0
M  V30 8878 H 811.176 0.368797 3.09913 0
M  V30 8879 N 811.477 -1.49425 0.500989 0
M  V30 8880 C 812.888 -1.86624 0.0532011 0
M  V30 8881 C 813.239 -1.41331 -1.36088 0
M  V30 8882 O 812.364 -0.791195 -2.01418 0
M  V30 8883 C 812.959 -3.38681 0.0897693 0
M  V30 8884 C 811.518 -3.75181 -0.302677 0
M  V30 8885 C 810.665 -2.73419 0.462307 0
M  V30 8886 H 813.616 -1.41743 0.713773 0
M  V30 8887 H 813.637 -3.73902 -0.705528 0
M  V30 8888 H 813.149 -3.71616 1.11907 0
M  V30 8889 H 811.25 -3.47855 -1.33521 0
M  V30 8890 H 811.363 -4.79097 0.0167653 0
M  V30 8891 H 809.727 -2.54548 -0.0878557 0
M  V30 8892 H 810.51 -3.09198 1.49169 0
M  V30 8893 N 812.955 -0.234822 -1.55841 0
M  V30 8894 C 814.195 0.394944 -2.00548 0
M  V30 8895 C 814.559 1.56002 -1.11926 0
M  V30 8896 O 815.76 2.2567 -1.46037 0
M  V30 8897 C 814.031 0.805896 -3.48195 0
M  V30 8898 S 815.59 1.4279 -4.14918 0
M  V30 8899 H 812.408 0.124802 -0.699961 0
M  V30 8900 H 815.01 -0.347224 -1.92392 0
M  V30 8901 H 813.714 -0.0515271 -4.10368 0
M  V30 8902 H 813.245 1.58055 -3.60253 0
M  V30 8903 H 815.26 2.71699 -4.15204 0
M  V30 8904 N 814.433 1.57553 0.0384317 0
M  V30 8905 C 815.658 1.93485 0.746872 0
M  V30 8906 C 816.083 0.834069 1.68597 0
M  V30 8907 O 815.441 -0.210902 1.80069 0
M  V30 8908 C 815.489 3.28463 1.4881 0
M  V30 8909 O 814.593 3.20051 2.60079 0
M  V30 8910 H 813.934 0.632675 0.201539 0
M  V30 8911 H 816.464 2.046 -0.00329815 0
M  V30 8912 H 816.474 3.63132 1.86009 0
M  V30 8913 H 815.149 4.08147 0.799297 0
M  V30 8914 H 813.726 2.96998 2.25492 0
M  V30 8915 N 815.911 -0.310526 1.54511 0
M  V30 8916 C 816.843 -1.40405 1.8116 0
M  V30 8917 C 817.856 -1.47261 0.694114 0
M  V30 8918 O 819.045 -1.49751 0.971441 0
M  V30 8919 C 816.145 -2.78849 1.92604 0
M  V30 8920 C 815.318 -2.95041 3.22908 0
M  V30 8921 C 814.377 -4.13925 3.24889 0
M  V30 8922 O 813.403 -4.06463 3.98467 0
M  V30 8923 N 814.605 -5.24099 2.496 0
M  V30 8924 H 817.37 -1.17903 2.75534 0
M  V30 8925 H 814.931 -0.500564 1.53967 0
M  V30 8926 H 816.923 -3.5661 1.91342 0
M  V30 8927 H 815.493 -2.94342 1.05268 0
M  V30 8928 H 814.713 -2.04472 3.37023 0
M  V30 8929 H 816.001 -3.02763 4.08916 0
M  V30 8930 H 815.399 -5.33039 1.89435 0
M  V30 8931 H 813.956 -6.0023 2.54102 0
M  V30 8932 N 817.389 -1.46805 -0.573248 0
M  V30 8933 C 818.336 -1.58084 -1.68161 0
M  V30 8934 C 819.306 -0.424636 -1.6058 0
M  V30 8935 O 820.491 -0.642623 -1.79652 0
M  V30 8936 C 817.631 -1.58601 -3.06496 0
M  V30 8937 C 816.744 -2.85023 -3.24632 0
M  V30 8938 C 815.879 -2.76981 -4.53271 0
M  V30 8939 C 814.918 -3.983 -4.64783 0
M  V30 8940 N 814.055 -3.88589 -5.84759 0
M  V30 8941 H 818.895 -2.52755 -1.57858 0
M  V30 8942 H 816.432 -1.25385 -0.769218 0
M  V30 8943 H 818.39 -1.56885 -3.86579 0
M  V30 8944 H 817.02 -0.674553 -3.15673 0
M  V30 8945 H 816.072 -2.96678 -2.38089 0
M  V30 8946 H 817.384 -3.7491 -3.29004 0
M  V30 8947 H 816.538 -2.73424 -5.41594 0
M  V30 8948 H 815.277 -1.84751 -4.51352 0
M  V30 8949 H 814.282 -4.02179 -3.74876 0
M  V30 8950 H 815.507 -4.91639 -4.68474 0
M  V30 8951 H 813.453 -2.99151 -5.83819 0
M  V30 8952 H 813.37 -4.7214 -5.90441 0
M  V30 8953 H 814.638 -3.89022 -6.75486 0
M  V30 8954 N 818.867 0.818669 -1.34668 0
M  V30 8955 C 819.83 1.9114 -1.26483 0
M  V30 8956 C 820.83 1.598 -0.179044 0
M  V30 8957 O 822.02 1.6876 -0.431952 0
M  V30 8958 C 819.152 3.27285 -0.95381 0
M  V30 8959 H 820.345 1.9982 -2.23634 0
M  V30 8960 H 817.898 1.01314 -1.19018 0
M  V30 8961 H 818.633 3.24297 0.0143428 0
M  V30 8962 H 818.418 3.51416 -1.73924 0
M  V30 8963 H 819.908 4.07299 -0.921827 0
M  V30 8964 N 820.346 1.18468 1.03938 0
M  V30 8965 C 821.623 0.890435 1.74157 0
M  V30 8966 C 822.003 -0.606409 2.02203 0
M  V30 8967 O 821.351 -1.5615 1.66822 0
M  V30 8968 C 821.561 1.73906 3.02585 0
M  V30 8969 C 822.909 1.96686 3.76297 0
M  V30 8970 O 823.933 1.70969 3.12487 0
M  V30 8971 O 822.792 2.39986 4.90988 0
M  V30 8972 H 819.886 0.330889 0.757919 0
M  V30 8973 H 822.432 1.29228 1.09992 0
M  V30 8974 H 821.204 2.75369 2.78006 0
M  V30 8975 H 820.827 1.33581 3.74489 0
M  V30 8976 N 821.824 -1.22873 0.986916 0
M  V30 8977 C 823.052 -1.95487 0.677663 0
M  V30 8978 C 823.467 -1.72978 -0.756572 0
M  V30 8979 O 822.824 -1.02517 -1.50985 0
M  V30 8980 C 822.875 -3.48337 0.966638 0
M  V30 8981 O 822.596 -3.70087 2.34451 0
M  V30 8982 C 824.097 -4.38142 0.674248 0
M  V30 8983 H 821.317 -0.622211 0.251185 0
M  V30 8984 H 823.861 -1.56187 1.32007 0
M  V30 8985 H 822.016 -3.85628 0.370137 0
M  V30 8986 H 822.43 -4.64332 2.43918 0
M  V30 8987 H 823.904 -5.44165 0.926759 0
M  V30 8988 H 824.381 -4.3745 -0.391728 0
M  V30 8989 H 824.987 -4.06469 1.25152 0
M  V30 8990 N 823.302 -0.75937 -1.38099 0
M  V30 8991 C 824.548 -0.318584 -2.00282 0
M  V30 8992 C 824.881 1.09854 -1.60143 0
M  V30 8993 O 824.156 1.75344 -0.841702 0
M  V30 8994 C 824.439 -0.448047 -3.57302 0
M  V30 8995 C 824.292 -1.9067 -4.07388 0
M  V30 8996 C 825.611 0.155119 -4.39827 0
M  V30 8997 H 822.73 -0.117233 -0.727616 0
M  V30 8998 H 825.372 -0.960097 -1.63958 0
M  V30 8999 H 823.522 0.0981003 -3.88376 0
M  V30 9000 H 825.194 -2.5116 -3.86932 0
M  V30 9001 H 823.437 -2.41979 -3.6004 0
M  V30 9002 H 824.108 -1.94841 -5.1647 0
M  V30 9003 H 826.584 -0.31073 -4.14938 0
M  V30 9004 H 825.46 0.0343264 -5.48889 0
M  V30 9005 H 825.721 1.24407 -4.24235 0
M  V30 9006 N 824.78 1.49157 -0.508906 0
M  V30 9007 C 826.027 2.02473 0.0327983 0
M  V30 9008 C 826.355 1.38792 1.36261 0
M  V30 9009 O 825.61 0.515576 1.88786 0
M  V30 9010 C 825.909 3.56687 0.225717 0
M  V30 9011 C 825.575 4.39046 -1.02708 0
M  V30 9012 C 824.237 4.61271 -1.37048 0
M  V30 9013 C 826.589 4.86902 -1.85946 0
M  V30 9014 C 823.917 5.28598 -2.54562 0
M  V30 9015 C 826.269 5.55521 -3.0262 0
M  V30 9016 C 824.933 5.7599 -3.3733 0
M  V30 9017 H 824.203 0.740903 0.0120017 0
M  V30 9018 H 826.85 1.79372 -0.670665 0
M  V30 9019 H 825.155 3.78511 1.01177 0
M  V30 9020 H 826.852 3.95541 0.659433 0
M  V30 9021 H 823.442 4.21994 -0.749615 0
M  V30 9022 H 827.626 4.69553 -1.6073 0
M  V30 9023 H 822.882 5.42646 -2.81682 0
M  V30 9024 H 827.056 5.91576 -3.67438 0
M  V30 9025 H 824.683 6.27934 -4.2849 0
M  V30 9026 N 826.258 0.243083 1.55714 0
M  V30 9027 C 827.674 -0.111853 1.59208 0
M  V30 9028 C 827.874 -1.5723 1.2602 0
M  V30 9029 O 826.93 -2.31608 1.00569 0
M  V30 9030 C 828.243 0.233885 2.99789 0
M  V30 9031 C 829.791 0.177873 3.12494 0
M  V30 9032 C 830.266 0.49759 4.55289 0
M  V30 9033 N 831.757 0.447949 4.61029 0
M  V30 9034 C 832.492 0.668545 5.69489 0
M  V30 9035 N 831.988 0.952064 6.86227 0
M  V30 9036 N 833.781 0.599512 5.58894 0
M  V30 9037 H 825.932 1.19554 1.75558 0
M  V30 9038 H 828.195 0.480765 0.817049 0
M  V30 9039 H 827.901 1.24835 3.28799 0
M  V30 9040 H 827.775 -0.440846 3.74615 0
M  V30 9041 H 830.162 -0.827263 2.83267 0
M  V30 9042 H 830.243 0.886399 2.39951 0
M  V30 9043 H 829.887 1.50026 4.85237 0
M  V30 9044 H 829.817 -0.232371 5.26087 0
M  V30 9045 H 832.308 0.237388 3.77154 0
M  V30 9046 H 832.621 1.10791 7.64817 0
M  V30 9047 H 830.966 0.989496 6.8792 0
M  V30 9048 H 834.157 0.378088 4.66571 0
M  V30 9049 H 834.33 0.774828 6.43351 0
M  V30 9050 N 827.736 -1.57571 -0.0300757 0
M  V30 9051 C 828.666 -2.0953 -1.03051 0
M  V30 9052 C 829.647 -0.99761 -1.37774 0
M  V30 9053 O 830.832 -1.27279 -1.46676 0
M  V30 9054 C 827.962 -2.57385 -2.33174 0
M  V30 9055 C 826.916 -3.71409 -2.12696 0
M  V30 9056 C 826.242 -4.05467 -3.4857 0
M  V30 9057 C 827.542 -4.99877 -1.51396 0
M  V30 9058 H 829.236 -2.93367 -0.597999 0
M  V30 9059 H 826.782 -1.41127 -0.286203 0
M  V30 9060 H 828.735 -2.92355 -3.03491 0
M  V30 9061 H 827.459 -1.70629 -2.78484 0
M  V30 9062 H 826.118 -3.36786 -1.44813 0
M  V30 9063 H 825.766 -3.15779 -3.91526 0
M  V30 9064 H 825.466 -4.82269 -3.35694 0
M  V30 9065 H 826.99 -4.4297 -4.2025 0
M  V30 9066 H 828.404 -5.3281 -2.11629 0
M  V30 9067 H 826.801 -5.81283 -1.49098 0
M  V30 9068 H 827.871 -4.82522 -0.479676 0
M  V30 9069 N 829.214 0.302327 -1.54673 0
M  V30 9070 C 830.162 1.39286 -1.86285 0
M  V30 9071 C 831.156 1.52553 -0.736478 0
M  V30 9072 O 832.362 1.54686 -0.92045 0
M  V30 9073 H 828.737 0.465228 -0.590819 0
M  V30 9074 H 830.708 1.09859 -2.77441 0
M  V30 9075 C 829.457 2.75155 -2.12567 0
M  V30 9076 H 828.78 2.65728 -2.98712 0
M  V30 9077 H 830.22 3.50476 -2.38627 0
M  V30 9078 C 828.679 3.23987 -0.923813 0
M  V30 9079 O 829.209 4.01443 -0.143649 0
M  V30 9080 N 827.415 2.81293 -0.72956 0
M  V30 9081 H 826.962 2.18421 -1.36565 0
M  V30 9082 H 826.92 3.14315 0.0730351 0
M  V30 9083 N 830.692 1.47107 0.565454 0
M  V30 9084 C 831.938 1.54519 1.3227 0
M  V30 9085 C 832.293 0.201313 1.91344 0
M  V30 9086 O 831.586 -0.792058 1.74462 0
M  V30 9087 C 831.78 2.59309 2.45954 0
M  V30 9088 C 831.609 4.03756 1.98019 0
M  V30 9089 C 830.379 4.71293 1.8224 0
M  V30 9090 C 832.577 4.91029 1.52955 0
M  V30 9091 N 830.559 6.00288 1.28557 0
M  V30 9092 C 831.93 6.09986 1.10981 0
M  V30 9093 C 833.985 4.77539 1.4093 0
M  V30 9094 C 832.688 7.16943 0.581796 0
M  V30 9095 C 834.714 5.84584 0.895307 0
M  V30 9096 C 834.076 7.02725 0.485454 0
M  V30 9097 H 830.175 0.620177 0.476345 0
M  V30 9098 H 832.759 1.83814 0.641901 0
M  V30 9099 H 830.93 2.31896 3.11575 0
M  V30 9100 H 832.662 2.56614 3.1294 0
M  V30 9101 H 829.417 4.27074 2.04707 0
M  V30 9102 H 829.841 6.68991 1.03828 0
M  V30 9103 H 834.483 3.86574 1.71231 0
M  V30 9104 H 832.201 8.07661 0.266399 0
M  V30 9105 H 835.787 5.76191 0.805939 0
M  V30 9106 H 834.667 7.84144 0.0938828 0
M  V30 9107 N 832.17 -0.811516 1.35101 0
M  V30 9108 C 833.133 -1.90467 1.27495 0
M  V30 9109 C 834.133 -1.59703 0.187516 0
M  V30 9110 O 835.323 -1.68528 0.440896 0
M  V30 9111 C 832.455 -3.26774 0.971154 0
M  V30 9112 H 833.648 -1.98631 2.2469 0
M  V30 9113 H 831.201 -1.00681 1.19553 0
M  V30 9114 H 831.936 -3.243 0.0028557 0
M  V30 9115 H 831.721 -3.50488 1.75785 0
M  V30 9116 H 833.211 -4.06804 0.943414 0
M  V30 9117 N 833.648 -1.19017 -1.03309 0
M  V30 9118 C 834.876 -1.01534 -1.80273 0
M  V30 9119 C 835.291 0.43605 -1.83696 0
M  V30 9120 O 834.648 1.30288 -1.27794 0
M  V30 9121 C 834.699 -1.5722 -3.25522 0
M  V30 9122 O 834.42 -2.96677 -3.22358 0
M  V30 9123 C 835.921 -1.4446 -4.19102 0
M  V30 9124 H 833.141 -0.358094 -0.567459 0
M  V30 9125 H 835.685 -1.57738 -1.3015 0
M  V30 9126 H 833.84 -1.05174 -3.7285 0
M  V30 9127 H 834.254 -3.22795 -4.13405 0
M  V30 9128 H 835.728 -1.88209 -5.18923 0
M  V30 9129 H 836.205 -0.394471 -4.37425 0
M  V30 9130 H 836.811 -1.95616 -3.77643 0
M  V30 9131 N 835.127 1.22348 -0.993418 0
M  V30 9132 C 836.357 1.94842 -0.687023 0
M  V30 9133 C 836.765 1.73594 0.752445 0
M  V30 9134 O 836.108 1.03238 1.51946 0
M  V30 9135 C 836.17 3.47694 -0.913754 0
M  V30 9136 C 835.834 3.92678 -2.33781 0
M  V30 9137 C 836.831 4.0031 -3.31734 0
M  V30 9138 C 834.516 4.25311 -2.67237 0
M  V30 9139 C 836.51 4.39951 -4.61218 0
M  V30 9140 C 834.197 4.64631 -3.9694 0
M  V30 9141 C 835.195 4.71919 -4.93742 0
M  V30 9142 O 834.883 5.10349 -6.21127 0
M  V30 9143 H 834.615 0.626771 -0.253247 0
M  V30 9144 H 837.169 1.56436 -1.33105 0
M  V30 9145 H 835.399 3.86115 -0.212552 0
M  V30 9146 H 837.088 4.01403 -0.602528 0
M  V30 9147 H 837.854 3.75288 -3.07219 0
M  V30 9148 H 833.733 4.18842 -1.92594 0
M  V30 9149 H 837.277 4.45555 -5.36774 0
M  V30 9150 H 833.174 4.89104 -4.21245 0
M  V30 9151 H 833.942 5.2842 -6.25072 0
M  V30 9152 N 836.605 0.766683 1.37694 0
M  V30 9153 C 837.535 0.163432 2.32927 0
M  V30 9154 C 838.516 -0.688861 1.55527 0
M  V30 9155 O 839.701 -0.627363 1.83787 0
M  V30 9156 C 836.831 -0.720416 3.39746 0
M  V30 9157 C 835.785 0.0301718 4.27989 0
M  V30 9158 C 835.111 -0.972788 5.25776 0
M  V30 9159 C 836.411 1.20623 5.0818 0
M  V30 9160 H 838.105 0.958988 2.83626 0
M  V30 9161 H 835.651 0.462601 1.36367 0
M  V30 9162 H 837.604 -1.15221 4.05342 0
M  V30 9163 H 836.328 -1.54844 2.8756 0
M  V30 9164 H 834.987 0.442685 3.63917 0
M  V30 9165 H 834.635 -1.79522 4.69873 0
M  V30 9166 H 834.335 -0.475145 5.85676 0
M  V30 9167 H 835.859 -1.40362 5.94248 0
M  V30 9168 H 837.273 0.851341 5.66944 0
M  V30 9169 H 835.67 1.63561 5.7738 0
M  V30 9170 H 836.74 2.01281 4.41151 0
M  V30 9171 N 838.083 -1.48885 0.516809 0
M  V30 9172 C 839.046 -2.27916 -0.242256 0
M  V30 9173 C 840.046 -1.34601 -0.879735 0
M  V30 9174 O 841.236 -1.57616 -0.74182 0
M  V30 9175 C 838.368 -3.13067 -1.34914 0
M  V30 9176 H 839.561 -2.96483 0.451444 0
M  V30 9177 H 837.114 -1.5391 0.272294 0
M  V30 9178 H 837.849 -2.49102 -2.07651 0
M  V30 9179 H 837.634 -3.81695 -0.897313 0
M  V30 9180 H 839.124 -3.72716 -1.88341 0
M  V30 9181 N 839.561 -0.251338 -1.55583 0
M  V30 9182 C 840.786 0.379136 -2.03905 0
M  V30 9183 C 841.211 1.50428 -1.12929 0
M  V30 9184 O 840.569 1.80882 -0.123114 0
M  V30 9185 C 840.617 0.86009 -3.50193 0
M  V30 9186 O 839.721 1.96932 -3.62342 0
M  V30 9187 H 839.062 0.0820183 -0.658915 0
M  V30 9188 H 841.592 -0.378692 -2.01065 0
M  V30 9189 H 841.602 1.16214 -3.91099 0
M  V30 9190 H 840.277 0.0367559 -4.15884 0
M  V30 9191 H 838.854 1.67163 -3.33333 0
M  V30 9192 N 841.039 1.57585 0.0217189 0
M  V30 9193 C 842.267 1.93871 0.722619 0
M  V30 9194 C 842.682 0.851706 1.68498 0
M  V30 9195 O 842.039 -0.17127 1.81695 0
M  V30 9196 C 842.09 3.30114 1.47333 0
M  V30 9197 O 841.811 4.34639 0.549597 0
M  V30 9198 C 843.312 3.80727 2.27072 0
M  V30 9199 H 840.532 0.639671 0.202637 0
M  V30 9200 H 843.076 2.04487 -0.0229414 0
M  V30 9201 H 841.231 3.20872 2.17071 0
M  V30 9202 H 841.645 5.13326 1.07686 0
M  V30 9203 H 843.119 4.78547 2.75131 0
M  V30 9204 H 843.596 3.12301 3.08812 0
M  V30 9205 H 844.202 3.93075 1.62395 0
M  V30 9206 N 842.517 -0.29412 1.54831 0
M  V30 9207 C 843.427 -1.3854 1.89325 0
M  V30 9208 C 844.443 -1.55127 0.788133 0
M  V30 9209 O 845.619 -1.6966 1.08524 0
M  V30 9210 C 842.684 -2.72809 2.13954 0
M  V30 9211 C 841.745 -2.65148 3.37631 0
M  V30 9212 C 840.978 -3.93014 3.61076 0
M  V30 9213 O 841.201 -4.927 2.87406 0
M  V30 9214 O 840.135 -3.94491 4.54599 0
M  V30 9215 H 843.961 -1.12289 2.82179 0
M  V30 9216 H 841.546 -0.490793 1.41108 0
M  V30 9217 H 843.428 -3.52238 2.31315 0
M  V30 9218 H 842.103 -2.9889 1.24285 0
M  V30 9219 H 841.01 -1.84168 3.25627 0
M  V30 9220 H 842.343 -2.4402 4.27452 0
M  V30 9221 N 843.995 -1.47404 -0.557645 0
M  V30 9222 C 844.943 -1.60265 -1.68576 0
M  V30 9223 C 845.937 -0.469982 -1.6275 0
M  V30 9224 O 847.143 -0.647764 -1.67941 0
M  V30 9225 H 843.518 -0.504353 -0.557792 0
M  V30 9226 H 845.489 -2.55066 -1.54867 0
M  V30 9227 C 844.238 -1.63369 -3.0693 0
M  V30 9228 H 843.561 -2.49874 -3.12095 0
M  V30 9229 H 845.001 -1.76417 -3.85556 0
M  V30 9230 C 843.46 -0.366921 -3.34896 0
M  V30 9231 O 843.99 0.53218 -3.98159 0
M  V30 9232 N 842.196 -0.247082 -2.89548 0
M  V30 9233 H 841.743 -0.979669 -2.38244 0
M  V30 9234 H 841.701 0.599552 -3.0863 0
M  V30 9235 N 845.473 0.80434 -1.35529 0
M  V30 9236 C 846.722 1.55665 -1.28263 0
M  V30 9237 C 847.035 1.95096 0.140352 0
M  V30 9238 O 848.241 2.69422 0.335303 0
M  V30 9239 C 846.697 2.80935 -2.24952 0
M  V30 9240 C 846.305 2.48733 -3.72607 0
M  V30 9241 C 848.049 3.5894 -2.26632 0
M  V30 9242 C 845.956 3.70308 -4.61114 0
M  V30 9243 H 844.886 0.584301 -0.476559 0
M  V30 9244 H 847.537 0.88395 -1.60806 0
M  V30 9245 H 845.919 3.49927 -1.85383 0
M  V30 9246 H 847.093 1.87733 -4.20824 0
M  V30 9247 H 845.408 1.83969 -3.73557 0
M  V30 9248 H 848.005 4.49244 -2.89973 0
M  V30 9249 H 848.348 3.96433 -1.27069 0
M  V30 9250 H 848.881 2.96912 -2.64742 0
M  V30 9251 H 845.62 3.37922 -5.61684 0
M  V30 9252 H 845.14 4.30526 -4.17621 0
M  V30 9253 H 846.819 4.37511 -4.76648 0
M  V30 9254 N 846.951 1.19563 1.02676 0
M  V30 9255 C 848.2 0.993864 1.75514 0
M  V30 9256 C 848.513 -0.475882 1.89723 0
M  V30 9257 O 849.719 -0.796525 2.59553 0
M  V30 9258 C 848.175 1.72937 3.15628 0
M  V30 9259 C 847.783 3.23937 3.09466 0
M  V30 9260 C 849.527 1.61092 3.92746 0
M  V30 9261 C 847.434 3.90067 4.44524 0
M  V30 9262 H 846.364 0.368244 0.657961 0
M  V30 9263 H 849.015 1.43081 1.14891 0
M  V30 9264 H 847.397 1.22025 3.76731 0
M  V30 9265 H 848.571 3.81983 2.57731 0
M  V30 9266 H 846.886 3.3608 2.45843 0
M  V30 9267 H 849.483 2.07848 4.92649 0
M  V30 9268 H 849.826 0.565415 4.12442 0
M  V30 9269 H 850.359 2.09361 3.3825 0
M  V30 9270 H 847.098 4.94725 4.30032 0
M  V30 9271 H 846.618 3.36809 4.96306 0
M  V30 9272 H 848.297 3.93736 5.13401 0
M  V30 9273 N 848.429 -1.21819 0.999893 0
M  V30 9274 C 849.675 -1.91035 0.680701 0
M  V30 9275 C 850.008 -1.77582 -0.786021 0
M  V30 9276 O 849.283 -1.14917 -1.56921 0
M  V30 9277 C 849.566 -3.43013 1.0961 0
M  V30 9278 C 849.419 -3.65481 2.6219 0
M  V30 9279 C 850.738 -4.35204 0.654616 0
M  V30 9280 H 847.857 -0.693748 0.248763 0
M  V30 9281 H 850.499 -1.43555 1.24466 0
M  V30 9282 H 848.649 -3.83581 0.616253 0
M  V30 9283 H 850.321 -3.34273 3.17899 0
M  V30 9284 H 848.564 -3.09522 3.03938 0
M  V30 9285 H 849.235 -4.71945 2.86307 0
M  V30 9286 H 851.711 -4.0219 1.06688 0
M  V30 9287 H 850.587 -5.40198 0.973492 0
M  V30 9288 H 850.848 -4.3986 -0.444458 0
M  V30 9289 N 849.908 -0.773975 -1.37286 0
M  V30 9290 C 850.871 -0.167974 -2.28584 0
M  V30 9291 C 851.871 0.625662 -1.48129 0
M  V30 9292 O 853.061 0.448924 -1.68316 0
M  V30 9293 C 850.193 0.769364 -3.32105 0
M  V30 9294 H 851.386 -0.972806 -2.83684 0
M  V30 9295 H 848.939 -0.542335 -1.46589 0
M  V30 9296 H 849.674 1.59912 -2.82132 0
M  V30 9297 H 849.459 0.202419 -3.91577 0
M  V30 9298 H 850.949 1.18872 -4.00324 0
M  V30 9299 N 851.386 1.48609 -0.524698 0
M  V30 9300 C 852.611 2.07398 0.00952139 0
M  V30 9301 C 853.036 1.37939 1.27884 0
M  V30 9302 O 852.394 0.443633 1.75788 0
M  V30 9303 C 852.442 3.59916 0.221956 0
M  V30 9304 O 851.546 3.91647 1.29175 0
M  V30 9305 H 850.887 0.662981 -0.0367729 0
M  V30 9306 H 853.417 1.91092 -0.7311 0
M  V30 9307 H 853.427 4.05552 0.446236 0
M  V30 9308 H 852.102 4.09876 -0.705306 0
M  V30 9309 H 850.679 3.57796 1.05055 0
M  V30 9310 N 852.864 0.259585 1.55447 0
M  V30 9311 C 854.111 -0.361607 1.99245 0
M  V30 9312 C 854.439 -1.57017 1.14787 0
M  V30 9313 O 853.694 -1.94658 0.201724 0
M  V30 9314 C 853.993 -0.802727 3.48269 0
M  V30 9315 C 853.659 0.299472 4.49904 0
M  V30 9316 C 852.321 0.602157 4.77418 0
M  V30 9317 C 854.673 1.04295 5.10658 0
M  V30 9318 C 852.001 1.65217 5.62957 0
M  V30 9319 C 854.353 2.08257 5.97337 0
M  V30 9320 C 853.017 2.39177 6.23178 0
M  V30 9321 H 852.287 -0.132322 0.72909 0
M  V30 9322 H 854.934 0.370059 1.8789 0
M  V30 9323 H 853.239 -1.61381 3.5702 0
M  V30 9324 H 854.936 -1.29385 3.79553 0
M  V30 9325 H 851.526 0.0534256 4.28567 0
M  V30 9326 H 855.71 0.822358 4.89439 0
M  V30 9327 H 850.966 1.89692 5.81229 0
M  V30 9328 H 855.14 2.6635 6.43452 0
M  V30 9329 H 852.767 3.20677 6.89253 0
M  V30 9330 N 854.342 -1.57594 -0.0133615 0
M  V30 9331 C 855.619 -1.81173 -0.737273 0
M  V30 9332 C 855.999 -0.861395 -1.92726 0
M  V30 9333 O 855.347 0.0929324 -2.28311 0
M  V30 9334 C 855.557 -3.29314 -1.15557 0
M  V30 9335 C 856.905 -3.94707 -1.56498 0
M  V30 9336 O 857.929 -3.33557 -1.24973 0
M  V30 9337 O 856.788 -5.02402 -2.15069 0
M  V30 9338 H 853.882 -0.745575 -0.357837 0
M  V30 9339 H 856.428 -1.69696 0.0110674 0
M  V30 9340 H 855.2 -3.90096 -0.30677 0
M  V30 9341 H 854.823 -3.45739 -1.96343 0
M  V30 9342 N 855.82 0.285905 -1.54985 0
M  V30 9343 C 857.068 1.01718 -1.74636 0
M  V30 9344 C 857.389 1.87277 -0.543342 0
M  V30 9345 O 856.659 1.90847 0.442078 0
M  V30 9346 H 855.239 0.378549 -0.643979 0
M  V30 9347 H 857.901 0.313247 -1.92366 0
M  V30 9348 H 856.997 1.66159 -2.64192 0
M  V30 9349 N 857.298 1.47698 0.54982 0
M  V30 9350 C 858.714 1.3338 0.876468 0
M  V30 9351 C 858.914 0.329837 1.98782 0
M  V30 9352 O 857.97 -0.256022 2.51199 0
M  V30 9353 C 859.283 2.72903 1.26272 0
M  V30 9354 C 860.831 2.81243 1.37373 0
M  V30 9355 C 861.306 4.21423 1.79351 0
M  V30 9356 N 862.797 4.24 1.86489 0
M  V30 9357 C 863.532 5.29386 2.20313 0
M  V30 9358 N 863.028 6.4507 2.527 0
M  V30 9359 N 864.821 5.16768 2.2115 0
M  V30 9360 H 856.972 2.11603 -0.183781 0
M  V30 9361 H 859.235 0.947798 -0.0195601 0
M  V30 9362 H 858.941 3.47836 0.519889 0
M  V30 9363 H 858.815 3.05151 2.21727 0
M  V30 9364 H 861.202 2.06577 2.10737 0
M  V30 9365 H 861.283 2.52639 0.400882 0
M  V30 9366 H 860.927 4.96597 1.06555 0
M  V30 9367 H 860.857 4.47456 2.77652 0
M  V30 9368 H 863.348 3.40547 1.63817 0
M  V30 9369 H 863.661 7.21236 2.77557 0
M  V30 9370 H 862.006 6.48377 2.50263 0
M  V30 9371 H 865.197 4.25416 1.95293 0
M  V30 9372 H 865.37 5.99004 2.4718 0
M  V30 9373 N 858.776 -0.797141 1.35954 0
M  V30 9374 C 860.024 -1.55161 1.29497 0
M  V30 9375 C 860.345 -1.94582 -0.127659 0
M  V30 9376 O 859.615 -1.64343 -1.06622 0
M  V30 9377 H 858.195 -0.575413 0.47635 0
M  V30 9378 H 860.857 -0.950282 1.70164 0
M  V30 9379 H 859.953 -2.46272 1.9172 0
M  V30 9380 N 860.254 -1.20106 -1.0204 0
M  V30 9381 C 861.479 -1.0351 -1.79723 0
M  V30 9382 C 861.904 0.411328 -1.83548 0
M  V30 9383 O 861.262 1.29608 -1.26773 0
M  V30 9384 C 861.31 -1.61876 -3.22224 0
M  V30 9385 O 860.414 -0.853813 -4.03465 0
M  V30 9386 H 859.755 -0.365299 -0.554484 0
M  V30 9387 H 862.285 -1.59316 -1.28373 0
M  V30 9388 H 862.295 -1.65451 -3.72948 0
M  V30 9389 H 860.97 -2.67148 -3.18755 0
M  V30 9390 H 859.547 -0.891983 -3.62075 0
M  V30 9391 N 861.732 1.21287 -1.00634 0
M  V30 9392 C 862.98 1.90013 -0.688438 0
M  V30 9393 C 863.301 1.78573 0.783365 0
M  V30 9394 O 862.571 1.1815 1.56261 0
M  V30 9395 H 861.151 0.703336 -0.251648 0
M  V30 9396 H 863.813 1.47346 -1.27574 0
M  V30 9397 H 862.909 2.96879 -0.962781 0
M  V30 9398 N 863.21 0.781244 1.36873 0
M  V30 9399 C 864.44 0.361042 2.03421 0
M  V30 9400 C 864.848 -1.02471 1.59048 0
M  V30 9401 O 864.191 -1.66712 0.771552 0
M  V30 9402 C 864.253 0.336202 3.57924 0
M  V30 9403 C 863.917 1.66815 4.25467 0
M  V30 9404 C 864.914 2.62224 4.48926 0
M  V30 9405 C 862.599 1.9452 4.63106 0
M  V30 9406 C 864.593 3.83538 5.09095 0
M  V30 9407 C 862.28 3.16103 5.22994 0
M  V30 9408 C 863.278 4.10431 5.45926 0
M  V30 9409 O 862.966 5.29871 6.04559 0
M  V30 9410 H 862.698 0.147956 0.65961 0
M  V30 9411 H 865.252 1.05895 1.75998 0
M  V30 9412 H 863.482 -0.418147 3.84433 0
M  V30 9413 H 865.171 -0.0582199 4.05858 0
M  V30 9414 H 865.937 2.42104 4.20251 0
M  V30 9415 H 861.816 1.21921 4.44585 0
M  V30 9416 H 865.36 4.57178 5.2691 0
M  V30 9417 H 861.257 3.36104 5.51094 0
M  V30 9418 H 862.025 5.30825 6.23031 0
M  V30 9419 N 864.689 -1.48329 0.532571 0
M  V30 9420 C 865.621 -2.27652 -0.265931 0
M  V30 9421 C 866.634 -1.35522 -0.902083 0
M  V30 9422 O 867.823 -1.60552 -0.780088 0
M  V30 9423 C 864.923 -3.0899 -1.39207 0
M  V30 9424 C 864.096 -4.28915 -0.857349 0
M  V30 9425 C 863.155 -4.92044 -1.86493 0
M  V30 9426 O 862.181 -5.51181 -1.42084 0
M  V30 9427 N 863.383 -4.84518 -3.19723 0
M  V30 9428 H 866.148 -2.96821 0.414389 0
M  V30 9429 H 863.709 -1.57684 0.367066 0
M  V30 9430 H 865.701 -3.48091 -2.06433 0
M  V30 9431 H 864.271 -2.42224 -1.97601 0
M  V30 9432 H 863.491 -3.94199 -0.00901765 0
M  V30 9433 H 864.779 -5.0654 -0.479025 0
M  V30 9434 H 864.177 -4.37628 -3.58467 0
M  V30 9435 H 862.734 -5.27712 -3.82575 0
M  V30 9436 N 866.167 -0.267825 -1.55308 0
M  V30 9437 C 867.415 0.350343 -1.9904 0
M  V30 9438 C 867.736 1.56924 -1.15758 0
M  V30 9439 O 867.006 1.94358 -0.245336 0
M  V30 9440 H 865.586 0.132435 -0.735167 0
M  V30 9441 H 868.248 -0.371471 -1.91327 0
M  V30 9442 H 867.344 0.645203 -3.05358 0
M  V30 9443 N 867.645 1.57599 0.00500368 0
M  V30 9444 C 868.922 1.81561 0.727654 0
M  V30 9445 C 869.302 0.871604 1.92266 0
M  V30 9446 O 868.65 -0.0808232 2.28357 0
M  V30 9447 C 868.86 3.29922 1.13809 0
M  V30 9448 C 870.208 3.95531 1.54403 0
M  V30 9449 O 871.232 3.34215 1.23202 0
M  V30 9450 O 870.091 5.03535 2.12402 0
M  V30 9451 H 867.185 0.747462 0.353878 0
M  V30 9452 H 869.731 1.69688 -0.0200667 0
M  V30 9453 H 868.503 3.90253 0.286078 0
M  V30 9454 H 868.126 3.46775 1.94507 0
M  V30 9455 N 869.123 -0.277682 1.55134 0
M  V30 9456 C 870.07 -1.34313 1.87693 0
M  V30 9457 C 871.04 -1.49298 0.727973 0
M  V30 9458 O 872.225 -1.6378 0.978807 0
M  V30 9459 C 869.365 -2.69922 2.15026 0
M  V30 9460 C 868.478 -2.63197 3.42565 0
M  V30 9461 C 867.613 -3.90955 3.59622 0
M  V30 9462 C 866.652 -3.78722 4.8087 0
M  V30 9463 N 865.789 -4.98303 4.94609 0
M  V30 9464 H 870.629 -1.05847 2.78569 0
M  V30 9465 H 868.166 -0.511469 1.37922 0
M  V30 9466 H 870.124 -3.48817 2.28872 0
M  V30 9467 H 868.754 -2.966 1.2739 0
M  V30 9468 H 867.806 -1.76038 3.37216 0
M  V30 9469 H 869.118 -2.50056 4.31594 0
M  V30 9470 H 868.272 -4.78291 3.7326 0
M  V30 9471 H 867.011 -4.06957 2.6877 0
M  V30 9472 H 866.016 -2.89769 4.67241 0
M  V30 9473 H 867.241 -3.64242 5.73153 0
M  V30 9474 H 865.187 -5.14725 4.06687 0
M  V30 9475 H 865.104 -4.87675 5.77676 0
M  V30 9476 H 866.372 -5.87225 5.12628 0
M  V30 9477 N 870.601 -1.47988 -0.541979 0
M  V30 9478 C 871.85 -1.5465 -1.29485 0
M  V30 9479 C 872.163 -0.220041 -1.94358 0
M  V30 9480 O 873.369 -0.164792 -2.70999 0
M  V30 9481 C 871.825 -2.72685 -2.34885 0
M  V30 9482 C 871.433 -4.11923 -1.76134 0
M  V30 9483 C 873.177 -2.88651 -3.11257 0
M  V30 9484 C 871.084 -5.21237 -2.79404 0
M  V30 9485 H 870.014 -0.575688 -0.486928 0
M  V30 9486 H 872.665 -1.74296 -0.573853 0
M  V30 9487 H 871.047 -2.46448 -3.09966 0
M  V30 9488 H 872.221 -4.48128 -1.07322 0
M  V30 9489 H 870.536 -4.00972 -1.12295 0
M  V30 9490 H 873.133 -3.67487 -3.88404 0
M  V30 9491 H 873.476 -1.97658 -3.66384 0
M  V30 9492 H 874.009 -3.14731 -2.43288 0
M  V30 9493 H 870.748 -6.14156 -2.29113 0
M  V30 9494 H 870.268 -4.89533 -3.4658 0
M  V30 9495 H 871.947 -5.48839 -3.42615 0
M  V30 9496 N 872.079 0.78992 -1.36375 0
M  V30 9497 C 873.012 1.90907 -1.25019 0
M  V30 9498 C 873.99 1.62043 -0.134463 0
M  V30 9499 O 875.174 1.86008 -0.305506 0
M  V30 9500 C 872.301 3.25716 -0.928822 0
M  V30 9501 C 871.347 3.73511 -2.05892 0
M  V30 9502 S 872.18 3.89332 -3.6767 0
M  V30 9503 C 873.336 5.27017 -3.37645 0
M  V30 9504 H 873.569 2.00247 -2.19746 0
M  V30 9505 H 871.102 0.949097 -1.21785 0
M  V30 9506 H 873.06 4.03586 -0.750219 0
M  V30 9507 H 871.721 3.141 0.000658424 0
M  V30 9508 H 870.914 4.71195 -1.78862 0
M  V30 9509 H 870.516 3.02688 -2.19672 0
M  V30 9510 H 872.808 6.1158 -2.91507 0
M  V30 9511 H 873.751 5.5905 -4.3459 0
M  V30 9512 H 874.159 4.94093 -2.73006 0
M  V30 9513 N 873.557 1.20646 1.01402 0
M  V30 9514 C 874.507 0.925209 2.08384 0
M  V30 9515 C 875.491 -0.115994 1.60481 0
M  V30 9516 O 876.683 0.0917276 1.76762 0
M  V30 9517 C 873.812 0.48193 3.399 0
M  V30 9518 C 872.898 1.5567 3.94497 0
M  V30 9519 N 873.289 2.77971 4.2257 0
M  V30 9520 C 871.587 1.42347 4.22674 0
M  V30 9521 C 872.288 3.47317 4.66632 0
M  V30 9522 N 871.264 2.74736 4.69064 0
M  V30 9523 H 875.066 1.85452 2.28002 0
M  V30 9524 H 872.58 1.10084 1.19395 0
M  V30 9525 H 874.577 0.261835 4.16077 0
M  V30 9526 H 873.237 -0.440725 3.21695 0
M  V30 9527 H 874.248 3.14598 4.11398 0
M  V30 9528 H 870.925 0.565417 4.13654 0
M  V30 9529 H 872.315 4.51985 4.97151 0
M  V30 9530 N 875.035 -1.20752 1.01276 0
M  V30 9531 C 875.998 -2.2162 0.584583 0
M  V30 9532 C 876.998 -1.57094 -0.343215 0
M  V30 9533 O 878.188 -1.73696 -0.132433 0
M  V30 9534 C 875.32 -3.40583 -0.146872 0
M  V30 9535 H 876.513 -2.61015 1.47686 0
M  V30 9536 H 874.066 -1.34148 0.802123 0
M  V30 9537 H 874.801 -3.06686 -1.05424 0
M  V30 9538 H 874.586 -3.88642 0.51958 0
M  V30 9539 H 876.076 -4.15339 -0.433924 0
M  V30 9540 N 876.513 -0.788492 -1.36457 0
M  V30 9541 C 877.762 -0.357052 -1.98515 0
M  V30 9542 C 878.075 1.0769 -1.63285 0
M  V30 9543 O 879.281 1.61057 -2.1857 0
M  V30 9544 C 877.737 -0.587449 -3.55073 0
M  V30 9545 C 877.345 -2.03276 -3.99228 0
M  V30 9546 C 879.089 -0.220468 -4.23927 0
M  V30 9547 C 876.996 -2.20987 -5.48561 0
M  V30 9548 H 875.926 -0.129762 -0.74275 0
M  V30 9549 H 878.577 -0.969995 -1.55767 0
M  V30 9550 H 876.959 0.0951918 -3.95886 0
M  V30 9551 H 878.133 -2.75173 -3.69617 0
M  V30 9552 H 876.448 -2.3579 -3.43208 0
M  V30 9553 H 879.045 -0.331085 -5.33674 0
M  V30 9554 H 879.388 0.831306 -4.07915 0
M  V30 9555 H 879.921 -0.856309 -3.88474 0
M  V30 9556 H 876.66 -3.24543 -5.69519 0
M  V30 9557 H 876.18 -1.53594 -5.79801 0
M  V30 9558 H 877.859 -2.01656 -6.14771 0
M  V30 9559 N 877.991 1.48044 -0.54043 0
M  V30 9560 C 878.939 2.31461 0.229862 0
M  V30 9561 C 879.933 1.41884 0.925495 0
M  V30 9562 O 881.139 1.58736 0.848689 0
M  V30 9563 H 877.514 0.746227 0.0929975 0
M  V30 9564 H 879.485 2.94297 -0.493118 0
M  V30 9565 C 878.234 3.24172 1.25729 0
M  V30 9566 H 877.557 3.93052 0.731426 0
M  V30 9567 H 878.997 3.85404 1.76747 0
M  V30 9568 C 877.456 2.4651 2.2964 0
M  V30 9569 O 877.986 2.19742 3.36268 0
M  V30 9570 N 876.192 2.07817 2.03127 0
M  V30 9571 H 875.739 2.29786 1.1643 0
M  V30 9572 H 875.697 1.56168 2.72872 0
M  V30 9573 N 879.47 0.276058 1.55163 0
M  V30 9574 C 880.886 -0.0780579 1.59409 0
M  V30 9575 C 881.086 -1.54521 1.29327 0
M  V30 9576 O 880.142 -2.29422 1.05459 0
M  V30 9577 C 881.455 0.297422 2.99225 0
M  V30 9578 C 883.003 0.244117 3.12047 0
M  V30 9579 C 883.478 0.594051 4.54131 0
M  V30 9580 N 884.969 0.54564 4.59975 0
M  V30 9581 C 885.704 0.789192 5.67943 0
M  V30 9582 N 885.2 1.09741 6.84053 0
M  V30 9583 N 886.993 0.717926 5.57496 0
M  V30 9584 H 879.144 1.23251 1.72982 0
M  V30 9585 H 881.407 0.497988 0.806667 0
M  V30 9586 H 881.113 1.31782 3.26077 0
M  V30 9587 H 880.987 -0.361286 3.75466 0
M  V30 9588 H 883.374 -0.766992 2.84958 0
M  V30 9589 H 883.455 0.937097 2.38017 0
M  V30 9590 H 883.099 1.60285 4.81945 0
M  V30 9591 H 883.029 -0.120728 5.26462 0
M  V30 9592 H 885.52 0.317334 3.76565 0
M  V30 9593 H 885.833 1.26989 7.62295 0
M  V30 9594 H 884.178 1.13519 6.85666 0
M  V30 9595 H 887.369 0.47697 4.65664 0
M  V30 9596 H 887.542 0.911118 6.41563 0
M  V30 9597 N 880.948 -1.576 0.00335426 0
M  V30 9598 C 882.364 -1.55653 -0.352766 0
M  V30 9599 C 882.564 -1.00632 -1.74572 0
M  V30 9600 O 881.62 -0.641621 -2.44212 0
M  V30 9601 C 882.933 -2.99858 -0.224929 0
M  V30 9602 C 884.481 -3.11563 -0.299619 0
M  V30 9603 C 884.956 -4.57559 -0.200868 0
M  V30 9604 N 886.447 -4.62477 -0.258663 0
M  V30 9605 C 887.182 -5.73031 -0.205644 0
M  V30 9606 N 886.678 -6.92723 -0.103027 0
M  V30 9607 N 888.471 -5.61509 -0.257754 0
M  V30 9608 H 880.622 -1.91703 0.914539 0
M  V30 9609 H 882.885 -0.88068 0.350865 0
M  V30 9610 H 882.591 -3.43964 0.733595 0
M  V30 9611 H 882.465 -3.63547 -1.00564 0
M  V30 9612 H 884.852 -2.67384 -1.24859 0
M  V30 9613 H 884.933 -2.50644 0.511025 0
M  V30 9614 H 884.577 -5.02413 0.744572 0
M  V30 9615 H 884.507 -5.16428 -1.03004 0
M  V30 9616 H 886.998 -3.76375 -0.339168 0
M  V30 9617 H 887.311 -7.7277 -0.0685593 0
M  V30 9618 H 885.656 -6.94966 -0.0686069 0
M  V30 9619 H 888.847 -4.66892 -0.336142 0
M  V30 9620 H 889.02 -6.4765 -0.21297 0
M  V30 9621 N 882.426 0.269451 -1.5528 0
M  V30 9622 C 883.356 1.33729 -1.91413 0
M  V30 9623 C 884.337 1.51348 -0.776391 0
M  V30 9624 O 885.522 1.64332 -1.03482 0
M  V30 9625 C 882.652 2.69618 -2.18914 0
M  V30 9626 C 881.606 2.66725 -3.34726 0
M  V30 9627 C 880.932 4.06199 -3.47716 0
M  V30 9628 C 882.232 2.25684 -4.71025 0
M  V30 9629 H 883.926 1.03736 -2.80854 0
M  V30 9630 H 881.472 0.497579 -1.3513 0
M  V30 9631 H 883.425 3.44436 -2.42779 0
M  V30 9632 H 882.149 3.01201 -1.26275 0
M  V30 9633 H 880.808 1.94365 -3.10834 0
M  V30 9634 H 880.456 4.3501 -2.52537 0
M  V30 9635 H 880.156 4.05157 -4.25583 0
M  V30 9636 H 881.68 4.8275 -3.73877 0
M  V30 9637 H 883.094 2.90225 -4.94411 0
M  V30 9638 H 881.491 2.35797 -5.51833 0
M  V30 9639 H 882.561 1.20819 -4.69607 0
M  V30 9640 N 883.904 1.48273 0.534124 0
M  V30 9641 C 885.152 1.55771 1.28762 0
M  V30 9642 C 885.473 0.231575 1.9362 0
M  V30 9643 O 884.743 -0.746533 1.81118 0
M  V30 9644 H 883.323 0.573851 0.47823 0
M  V30 9645 H 885.985 1.84712 0.621888 0
M  V30 9646 H 885.081 2.33657 2.06908 0
M  V30 9647 N 885.382 -0.782676 1.36792 0
M  V30 9648 C 886.61 -1.57162 1.34565 0
M  V30 9649 C 887.025 -1.88664 -0.0715501 0
M  V30 9650 O 886.382 -1.50633 -1.03033 0
M  V30 9651 C 886.433 -2.88854 2.1736 0
M  V30 9652 O 886.154 -2.58707 3.53557 0
M  V30 9653 C 887.655 -3.83132 2.2299 0
M  V30 9654 H 884.875 -0.487245 0.461338 0
M  V30 9655 H 887.419 -0.970905 1.79982 0
M  V30 9656 H 885.574 -3.45377 1.7548 0
M  V30 9657 H 885.988 -3.42961 3.96835 0
M  V30 9658 H 887.462 -4.72575 2.85266 0
M  V30 9659 H 887.939 -4.21472 1.23524 0
M  V30 9660 H 888.545 -3.32541 2.65135 0
M  V30 9661 N 886.86 -1.21182 -1.00761 0
M  V30 9662 C 888.107 -1.02746 -1.74498 0
M  V30 9663 C 888.435 0.439344 -1.89473 0
M  V30 9664 O 887.69 1.34232 -1.42409 0
M  V30 9665 C 887.989 -1.6667 -3.16158 0
M  V30 9666 C 887.655 -3.16515 -3.21137 0
M  V30 9667 C 886.317 -3.57405 -3.22203 0
M  V30 9668 C 888.669 -4.12495 -3.18587 0
M  V30 9669 C 885.997 -4.92786 -3.18401 0
M  V30 9670 C 888.349 -5.47833 -3.16326 0
M  V30 9671 C 887.013 -5.88124 -3.157 0
M  V30 9672 H 886.283 -0.375974 -0.638533 0
M  V30 9673 H 888.93 -1.50736 -1.18114 0
M  V30 9674 H 887.235 -1.10966 -3.75758 0
M  V30 9675 H 888.932 -1.49911 -3.71924 0
M  V30 9676 H 885.522 -2.83947 -3.21048 0
M  V30 9677 H 889.706 -3.81932 -3.16925 0
M  V30 9678 H 884.962 -5.23253 -3.16253 0
M  V30 9679 H 889.136 -6.21942 -3.13306 0
M  V30 9680 H 886.763 -6.92995 -3.12508 0
M  V30 9681 N 888.338 1.20213 -1.01915 0
M  V30 9682 C 889.248 2.26763 -0.601311 0
M  V30 9683 C 890.264 1.70185 0.362369 0
M  V30 9684 O 891.44 2.00165 0.222682 0
M  V30 9685 C 888.505 3.46662 0.0512879 0
M  V30 9686 C 887.566 4.18459 -0.958659 0
M  V30 9687 C 886.799 5.32634 -0.337107 0
M  V30 9688 O 887.022 5.63841 0.86251 0
M  V30 9689 O 885.956 5.9258 -1.05511 0
M  V30 9690 H 889.782 2.64725 -1.48844 0
M  V30 9691 H 887.367 1.2688 -0.788784 0
M  V30 9692 H 889.249 4.19345 0.41564 0
M  V30 9693 H 887.924 3.1057 0.912572 0
M  V30 9694 H 886.831 3.47937 -1.37442 0
M  V30 9695 H 888.164 4.58498 -1.78999 0
M  V30 9696 N 889.816 0.795718 1.36037 0
M  V30 9697 C 891.062 0.371574 1.99367 0
M  V30 9698 C 891.395 -1.0557 1.62999 0
M  V30 9699 O 890.67 -1.73051 0.887895 0
M  V30 9700 C 890.953 0.542622 3.55988 0
M  V30 9701 C 890.806 2.01404 4.0219 0
M  V30 9702 C 892.125 -0.0384527 4.40083 0
M  V30 9703 H 889.244 0.136483 0.724252 0
M  V30 9704 H 891.886 1.00323 1.61355 0
M  V30 9705 H 890.036 0.0049053 3.885 0
M  V30 9706 H 891.708 2.6133 3.80137 0
M  V30 9707 H 889.951 2.51439 3.53498 0
M  V30 9708 H 890.622 2.08466 5.11122 0
M  V30 9709 H 893.098 0.420634 4.13968 0
M  V30 9710 H 891.974 0.111214 5.48787 0
M  V30 9711 H 892.235 -1.13116 4.27384 0
M  V30 9712 N 891.294 -1.47756 0.548274 0
M  V30 9713 C 892.204 -2.33678 -0.207773 0
M  V30 9714 C 893.22 -1.47636 -0.920843 0
M  V30 9715 O 894.396 -1.80583 -0.89173 0
M  V30 9716 C 891.461 -3.24147 -1.23003 0
M  V30 9717 C 890.522 -4.26073 -0.52535 0
M  V30 9718 C 889.755 -5.12219 -1.4989 0
M  V30 9719 O 889.978 -5.0066 -2.73305 0
M  V30 9720 O 888.912 -5.93051 -1.02828 0
M  V30 9721 H 892.738 -2.99609 0.496794 0
M  V30 9722 H 890.323 -1.4617 0.308982 0
M  V30 9723 H 892.205 -3.80055 -1.82034 0
M  V30 9724 H 890.88 -2.60855 -1.91668 0
M  V30 9725 H 889.787 -3.7395 0.105927 0
M  V30 9726 H 891.12 -4.92054 0.119686 0
M  V30 9727 N 892.772 -0.284283 -1.55015 0
M  V30 9728 C 894.049 0.382125 -1.91831 0
M  V30 9729 C 894.429 1.73007 -1.20962 0
M  V30 9730 O 893.777 2.25962 -0.339594 0
M  V30 9731 C 893.987 0.513341 -3.45204 0
M  V30 9732 C 895.335 0.791989 -4.17148 0
M  V30 9733 O 896.359 0.597799 -3.51148 0
M  V30 9734 O 895.218 1.16394 -5.33961 0
M  V30 9735 H 892.312 0.210707 -0.799707 0
M  V30 9736 H 894.858 -0.331111 -1.66438 0
M  V30 9737 H 893.63 -0.434911 -3.88876 0
M  V30 9738 H 893.253 1.27569 -3.76579 0
M  V30 9739 N 894.251 1.57596 -0.0117121 0
M  V30 9740 C 895.183 2.06025 1.0043 0
M  V30 9741 C 896.196 0.980348 1.29973 0
M  V30 9742 O 897.385 1.25691 1.26744 0
M  V30 9743 C 894.485 2.45514 2.33615 0
M  V30 9744 C 893.658 3.76378 2.22842 0
M  V30 9745 C 892.717 4.02606 3.38814 0
M  V30 9746 O 891.743 4.73108 3.16477 0
M  V30 9747 N 892.945 3.51416 4.62047 0
M  V30 9748 H 895.71 2.93811 0.591206 0
M  V30 9749 H 893.271 1.60947 0.175427 0
M  V30 9750 H 895.263 2.60166 3.09993 0
M  V30 9751 H 893.833 1.63186 2.66625 0
M  V30 9752 H 893.053 3.71691 1.313 0
M  V30 9753 H 894.341 4.62149 2.12829 0
M  V30 9754 H 893.739 2.94346 4.83091 0
M  V30 9755 H 892.296 3.71377 5.35651 0
M  V30 9756 N 895.729 -0.261212 1.5542 0
M  V30 9757 C 896.978 -0.989072 1.75785 0
M  V30 9758 C 897.291 -1.8702 0.572961 0
M  V30 9759 O 898.497 -2.63374 0.659289 0
M  V30 9760 C 896.953 -1.80857 3.11157 0
M  V30 9761 C 896.561 -0.975535 4.3725 0
M  V30 9762 C 898.305 -2.53003 3.40866 0
M  V30 9763 C 896.212 -1.7901 5.63657 0
M  V30 9764 H 895.142 -0.373019 0.655266 0
M  V30 9765 H 897.793 -0.244267 1.81867 0
M  V30 9766 H 896.175 -2.59479 2.99144 0
M  V30 9767 H 897.349 -0.232661 4.60212 0
M  V30 9768 H 895.664 -0.368083 4.1477 0
M  V30 9769 H 898.261 -3.14372 4.32521 0
M  V30 9770 H 898.604 -3.23891 2.61535 0
M  V30 9771 H 899.137 -1.81403 3.54031 0
M  V30 9772 H 895.876 -1.12522 6.4577 0
M  V30 9773 H 895.396 -2.50863 5.44819 0
M  V30 9774 H 897.075 -2.36082 6.0239 0
M  V30 9775 N 897.207 -1.48554 -0.526253 0
M  V30 9776 C 898.117 -1.66044 -1.65731 0
M  V30 9777 C 899.133 -0.542951 -1.65312 0
M  V30 9778 O 900.309 -0.814495 -1.84195 0
M  V30 9779 C 897.374 -1.69959 -3.02184 0
M  V30 9780 C 896.435 -2.93362 -3.13428 0
M  V30 9781 C 895.668 -2.97081 -4.43372 0
M  V30 9782 O 895.891 -2.09103 -5.3069 0
M  V30 9783 O 894.825 -3.8929 -4.59061 0
M  V30 9784 H 898.651 -2.61811 -1.53912 0
M  V30 9785 H 896.236 -1.31999 -0.699759 0
M  V30 9786 H 898.118 -1.75033 -3.83329 0
M  V30 9787 H 896.793 -0.773658 -3.14319 0
M  V30 9788 H 895.7 -2.93818 -2.31564 0
M  V30 9789 H 897.033 -3.85352 -3.06211 0
M  V30 9790 N 898.685 0.775411 -1.37205 0
M  V30 9791 C 899.648 1.8702 -1.325 0
M  V30 9792 C 900.648 1.5915 -0.229793 0
M  V30 9793 O 901.838 1.673 -0.485423 0
M  V30 9794 C 898.97 3.24085 -1.05745 0
M  V30 9795 H 900.163 1.92604 -2.29878 0
M  V30 9796 H 897.716 0.97476 -1.22181 0
M  V30 9797 H 898.451 3.24178 -0.0888371 0
M  V30 9798 H 898.236 3.45705 -1.85016 0
M  V30 9799 H 899.726 4.0416 -1.05094 0
M  V30 9800 N 900.163 1.21714 1.00117 0
M  V30 9801 C 901.126 0.981338 2.07129 0
M  V30 9802 C 902.126 -0.0491116 1.60725 0
M  V30 9803 O 903.316 0.188555 1.73177 0
M  V30 9804 C 900.448 0.480608 3.37495 0
M  V30 9805 H 901.641 1.93075 2.29482 0
M  V30 9806 H 899.194 1.03467 1.17151 0
M  V30 9807 H 899.929 -0.473552 3.20824 0
M  V30 9808 H 899.714 1.22393 3.72508 0
M  V30 9809 H 901.204 0.33561 4.16249 0
M  V30 9810 N 901.641 -1.19671 1.02551 0
M  V30 9811 C 903.057 -1.41305 0.741963 0
M  V30 9812 C 903.257 -1.89865 -0.674807 0
M  V30 9813 O 902.313 -2.07323 -1.44129 0
M  V30 9814 C 903.626 -2.42706 1.77522 0
M  V30 9815 C 905.174 -2.56458 1.79438 0
M  V30 9816 C 905.649 -3.61111 2.81715 0
M  V30 9817 N 907.14 -3.68603 2.8051 0
M  V30 9818 C 907.875 -4.49262 3.56302 0
M  V30 9819 N 907.371 -5.33653 4.41799 0
M  V30 9820 N 909.164 -4.43879 3.44859 0
M  V30 9821 H 901.315 -0.8647 1.94002 0
M  V30 9822 H 903.578 -0.442206 0.838545 0
M  V30 9823 H 903.284 -2.14042 2.79068 0
M  V30 9824 H 903.158 -3.41831 1.59472 0
M  V30 9825 H 905.545 -2.84447 0.78573 0
M  V30 9826 H 905.626 -1.57499 2.01563 0
M  V30 9827 H 905.27 -3.33864 3.82749 0
M  V30 9828 H 905.2 -4.59713 2.56849 0
M  V30 9829 H 907.691 -3.08329 2.18498 0
M  V30 9830 H 908.004 -5.92308 4.96378 0
M  V30 9831 H 906.349 -5.33125 4.45873 0
M  V30 9832 H 909.54 -3.7699 2.77482 0
M  V30 9833 H 909.713 -5.06501 4.04179 0
M  V30 9834 N 903.119 -0.802921 -1.35613 0
M  V30 9835 C 904.051 -0.168461 -2.2858 0
M  V30 9836 C 905.064 0.630123 -1.50111 0
M  V30 9837 O 906.253 0.463086 -1.72388 0
M  V30 9838 C 903.353 0.783943 -3.29708 0
M  V30 9839 C 902.526 0.0325165 -4.37388 0
M  V30 9840 C 901.585 0.902859 -5.18396 0
M  V30 9841 O 900.611 0.355144 -5.68091 0
M  V30 9842 N 901.813 2.22542 -5.36149 0
M  V30 9843 H 904.578 -0.96709 -2.83668 0
M  V30 9844 H 902.139 -0.658043 -1.47924 0
M  V30 9845 H 904.131 1.37034 -3.80794 0
M  V30 9846 H 902.701 1.48339 -2.75162 0
M  V30 9847 H 901.921 -0.735057 -3.87286 0
M  V30 9848 H 903.209 -0.485499 -5.06478 0
M  V30 9849 H 902.607 2.69439 -4.97412 0
M  V30 9850 H 901.164 2.76113 -5.90428 0
M  V30 9851 N 904.597 1.47463 -0.556102 0
M  V30 9852 C 905.844 2.02475 -0.0316337 0
M  V30 9853 C 906.172 1.43057 1.31777 0
M  V30 9854 O 905.427 0.575376 1.87051 0
M  V30 9855 C 905.726 3.57224 0.112126 0
M  V30 9856 C 905.392 4.35557 -1.16624 0
M  V30 9857 C 904.054 4.56678 -1.51654 0
M  V30 9858 C 906.406 4.8074 -2.01342 0
M  V30 9859 C 903.734 5.20231 -2.7125 0
M  V30 9860 C 906.086 5.45613 -3.2014 0
M  V30 9861 C 904.75 5.64967 -3.55484 0
M  V30 9862 H 904.02 0.74091 -0.0115756 0
M  V30 9863 H 906.667 1.77148 -0.727392 0
M  V30 9864 H 904.972 3.81538 0.890842 0
M  V30 9865 H 906.669 3.97438 0.533261 0
M  V30 9866 H 903.259 4.19395 -0.883489 0
M  V30 9867 H 907.443 4.64201 -1.75587 0
M  V30 9868 H 902.699 5.3341 -2.98804 0
M  V30 9869 H 906.873 5.79587 -3.86073 0
M  V30 9870 H 904.5 6.13984 -4.4825 0
M  V30 9871 N 906.075 0.2925 1.54862 0
M  V30 9872 C 907.3 -0.32494 2.04839 0
M  V30 9873 C 907.725 -1.47381 1.16877 0
M  V30 9874 O 907.083 -1.80492 0.171028 0
M  V30 9875 C 907.131 -0.76694 3.5235 0
M  V30 9876 O 906.235 -1.87256 3.67436 0
M  V30 9877 H 905.576 -0.0645195 0.660858 0
M  V30 9878 H 908.106 0.431867 1.9999 0
M  V30 9879 H 908.116 -1.05804 3.94043 0
M  V30 9880 H 906.791 0.0735212 4.15835 0
M  V30 9881 H 905.368 -1.58266 3.37648 0
M  V30 9882 N 907.553 -1.57587 0.0200696 0
M  V30 9883 C 908.5 -2.09667 -0.964791 0
M  V30 9884 C 909.47 -0.99664 -1.32877 0
M  V30 9885 O 910.655 -1.2703 -1.42366 0
M  V30 9886 C 907.795 -2.62101 -2.24493 0
M  V30 9887 C 906.908 -3.8608 -1.93821 0
M  V30 9888 C 906.043 -4.26939 -3.16064 0
M  V30 9889 C 905.082 -5.43701 -2.81169 0
M  V30 9890 N 904.219 -5.79759 -3.9601 0
M  V30 9891 H 909.059 -2.93538 -0.513751 0
M  V30 9892 H 906.596 -1.45096 -0.242 0
M  V30 9893 H 908.554 -2.90587 -2.99358 0
M  V30 9894 H 907.184 -1.81074 -2.6723 0
M  V30 9895 H 906.236 -3.64378 -1.09237 0
M  V30 9896 H 907.548 -4.71028 -1.64115 0
M  V30 9897 H 906.702 -4.56814 -3.99257 0
M  V30 9898 H 905.441 -3.40739 -3.48924 0
M  V30 9899 H 904.446 -5.13529 -1.96387 0
M  V30 9900 H 905.671 -6.31593 -2.49535 0
M  V30 9901 H 903.617 -4.96516 -4.28729 0
M  V30 9902 H 903.534 -6.59327 -3.69896 0
M  V30 9903 H 904.802 -6.14235 -4.79933 0
M  V30 9904 N 909.032 0.252966 -1.55557 0
M  V30 9905 C 909.965 1.33928 -1.84766 0
M  V30 9906 C 910.943 1.46653 -0.702254 0
M  V30 9907 O 912.127 1.62963 -0.947375 0
M  V30 9908 C 909.254 2.71348 -2.02701 0
M  V30 9909 C 908.3 2.75804 -3.25322 0
M  V30 9910 S 909.133 2.33025 -4.82141 0
M  V30 9911 C 910.289 3.72382 -5.03073 0
M  V30 9912 H 910.522 1.08951 -2.76617 0
M  V30 9913 H 908.055 0.45364 -1.47585 0
M  V30 9914 H 910.013 3.50478 -2.13718 0
M  V30 9915 H 908.674 2.93566 -1.11703 0
M  V30 9916 H 907.867 3.76713 -3.34819 0
M  V30 9917 H 907.469 2.04713 -3.12999 0
M  V30 9918 H 909.761 4.67828 -4.90044 0
M  V30 9919 H 910.704 3.67824 -6.05071 0
M  V30 9920 H 911.112 3.64614 -4.30949 0
M  V30 9921 N 910.51 1.48831 0.518367 0
M  V30 9922 C 911.758 1.57128 1.27103 0
M  V30 9923 C 912.079 0.252098 1.93364 0
M  V30 9924 O 911.349 -0.727281 1.819 0
M  V30 9925 H 909.929 0.578891 0.472116 0
M  V30 9926 H 912.591 1.85361 0.602262 0
M  V30 9927 H 911.687 2.35838 2.04418 0
M  V30 9928 N 911.988 -0.768124 1.37614 0
M  V30 9929 C 913.235 -1.5268 1.33022 0
M  V30 9930 C 913.563 -1.94318 -0.0841918 0
M  V30 9931 O 912.818 -1.64623 -1.0582 0
M  V30 9932 C 913.117 -2.80204 2.21856 0
M  V30 9933 C 912.783 -2.57602 3.7007 0
M  V30 9934 C 911.445 -2.51146 4.10462 0
M  V30 9935 C 913.797 -2.37482 4.63952 0
M  V30 9936 C 911.125 -2.22566 5.42846 0
M  V30 9937 C 913.477 -2.10425 5.96577 0
M  V30 9938 C 912.141 -2.02416 6.36069 0
M  V30 9939 H 911.411 -0.558697 0.486763 0
M  V30 9940 H 914.058 -0.88447 1.69851 0
M  V30 9941 H 912.363 -3.49014 1.78034 0
M  V30 9942 H 914.06 -3.38099 2.15615 0
M  V30 9943 H 910.65 -2.63491 3.38039 0
M  V30 9944 H 914.834 -2.41457 4.33604 0
M  V30 9945 H 910.09 -2.14863 5.72402 0
M  V30 9946 H 914.264 -1.93857 6.68874 0
M  V30 9947 H 911.891 -1.80034 7.38574 0
M  V30 9948 N 913.466 -1.22244 -0.994698 0
M  V30 9949 C 914.712 -1.04746 -1.73655 0
M  V30 9950 C 915.045 0.41668 -1.89677 0
M  V30 9951 O 914.32 1.30897 -1.43862 0
M  V30 9952 C 914.603 -1.75716 -3.14318 0
M  V30 9953 C 914.456 -3.29714 -3.05955 0
M  V30 9954 C 915.775 -1.50809 -4.13455 0
M  V30 9955 H 912.894 -0.381921 -0.630322 0
M  V30 9956 H 915.536 -1.50559 -1.15897 0
M  V30 9957 H 913.686 -1.3677 -3.63629 0
M  V30 9958 H 915.358 -3.78093 -2.64279 0
M  V30 9959 H 913.601 -3.59484 -2.42804 0
M  V30 9960 H 914.272 -3.74547 -4.05485 0
M  V30 9961 H 916.748 -1.84636 -3.72892 0
M  V30 9962 H 915.624 -2.02964 -5.09997 0
M  V30 9963 H 915.885 -0.440292 -4.39902 0
M  V30 9964 N 914.944 1.19125 -1.03184 0
M  V30 9965 C 916.221 1.84674 -0.644574 0
M  V30 9966 C 916.601 1.92042 0.876534 0
M  V30 9967 O 915.949 1.43965 1.77444 0
M  V30 9968 C 916.159 3.23477 -1.3101 0
M  V30 9969 C 917.507 3.99608 -1.43524 0
M  V30 9970 O 918.531 3.32886 -1.2675 0
M  V30 9971 O 917.39 5.19132 -1.70776 0
M  V30 9972 H 914.484 0.795968 -0.22442 0
M  V30 9973 H 917.03 1.2659 -1.13018 0
M  V30 9974 H 915.802 3.12967 -2.34878 0
M  V30 9975 H 915.425 3.89209 -0.812547 0
M  V30 9976 N 916.422 0.810101 1.35185 0
M  V30 9977 C 917.37 0.211071 2.3164 0
M  V30 9978 C 918.364 -0.641109 1.568 0
M  V30 9979 O 919.57 -0.533881 1.719 0
M  V30 9980 H 915.945 0.0494978 0.750369 0
M  V30 9981 H 917.916 1.03964 2.79703 0
M  V30 9982 C 916.665 -0.622933 3.42074 0
M  V30 9983 H 915.988 0.0234648 3.99793 0
M  V30 9984 H 917.428 -1.0084 4.11834 0
M  V30 9985 C 915.887 -1.78994 2.85417 0
M  V30 9986 O 916.417 -2.88758 2.79252 0
M  V30 9987 N 914.623 -1.60259 2.42416 0
M  V30 9988 H 914.17 -0.70974 2.4763 0
M  V30 9989 H 914.128 -2.38498 2.04857 0
M  V30 9990 N 917.9 -1.47166 0.563914 0
M  V30 9991 C 918.847 -2.30097 -0.180013 0
M  V30 9992 C 919.817 -1.39473 -0.902019 0
M  V30 9993 O 921.002 -1.68432 -0.896396 0
M  V30 9994 C 918.142 -3.23573 -1.19978 0
M  V30 9995 C 917.255 -4.2929 -0.483149 0
M  V30 9996 C 916.39 -5.0991 -1.48879 0
M  V30 9997 C 915.429 -6.07395 -0.757513 0
M  V30 9998 N 914.566 -6.8095 -1.71031 0
M  V30 9999 H 919.406 -2.93189 0.53329 0
M  V30 10000 H 916.943 -1.4451 0.274814 0
M  V30 10001 H 918.901 -3.76196 -1.80368 0
M  V30 10002 H 917.531 -2.6233 -1.88103 0
M  V30 10003 H 916.583 -3.79671 0.235414 0
M  V30 10004 H 917.895 -4.9872 0.0894075 0
M  V30 10005 H 917.049 -5.66717 -2.16603 0
M  V30 10006 H 915.788 -4.40397 -2.09527 0
M  V30 10007 H 914.793 -5.4976 -0.0663841 0
M  V30 10008 H 916.018 -6.78919 -0.156685 0
M  V30 10009 H 913.964 -6.14162 -2.30524 0
M  V30 10010 H 913.881 -7.46574 -1.19007 0
M  V30 10011 H 915.149 -7.42326 -2.37849 0
M  V30 10012 N 919.378 -0.300708 -1.54705 0
M  V30 10013 C 920.794 0.0526874 -1.59513 0
M  V30 10014 C 920.994 1.52444 -1.31769 0
M  V30 10015 O 920.05 2.27716 -1.09096 0
M  V30 10016 C 921.363 -0.344989 -2.98714 0
M  V30 10017 C 922.911 -0.29373 -3.11619 0
M  V30 10018 C 923.386 -0.666225 -4.53129 0
M  V30 10019 N 924.877 -0.618749 -4.59049 0
M  V30 10020 C 925.612 -0.879447 -5.66616 0
M  V30 10021 N 925.108 -1.2061 -6.82221 0
M  V30 10022 N 926.901 -0.806528 -5.56284 0
M  V30 10023 H 919.052 -1.25988 -1.71 0
M  V30 10024 H 921.315 -0.510758 -0.798643 0
M  V30 10025 H 921.021 -1.36953 -3.2394 0
M  V30 10026 H 920.895 0.301507 -3.75993 0
M  V30 10027 H 923.282 0.72156 -2.86142 0
M  V30 10028 H 923.363 -0.974844 -2.36496 0
M  V30 10029 H 923.007 -1.67932 -4.79334 0
M  V30 10030 H 922.937 0.0369575 -5.26587 0
M  V30 10031 H 925.428 -0.377202 -3.76013 0
M  V30 10032 H 925.741 -1.391 -7.60178 0
M  V30 10033 H 924.086 -1.24413 -6.83774 0
M  V30 10034 H 927.277 -0.550993 -4.64846 0
M  V30 10035 H 927.45 -1.01307 -6.40032 0
M  V30 10036 N 920.856 1.57574 -0.0284266 0
M  V30 10037 C 922.105 1.9095 0.649704 0
M  V30 10038 C 922.418 0.906421 1.7333 0
M  V30 10039 O 923.624 1.1314 2.46803 0
M  V30 10040 C 922.08 3.39061 1.20687 0
M  V30 10041 C 921.688 4.47726 0.156597 0
M  V30 10042 C 923.432 3.81505 1.86156 0
M  V30 10043 C 921.339 5.86935 0.725365 0
M  V30 10044 H 920.269 0.712589 0.24644 0
M  V30 10045 H 922.92 1.83261 -0.0936143 0
M  V30 10046 H 921.302 3.41679 2.00178 0
M  V30 10047 H 922.476 4.56667 -0.6158 0
M  V30 10048 H 920.791 4.14481 -0.399288 0
M  V30 10049 H 923.388 4.82865 2.29665 0
M  V30 10050 H 923.731 3.16529 2.70398 0
M  V30 10051 H 924.264 3.81307 1.13356 0
M  V30 10052 H 921.003 6.55453 -0.0789081 0
M  V30 10053 H 920.523 5.81602 1.46627 0
M  V30 10054 H 922.202 6.35483 1.21532 0
M  V30 10055 N 922.334 -0.244713 1.55689 0
M  V30 10056 C 923.297 -1.2864 1.89695 0
M  V30 10057 C 924.297 -1.40969 0.773583 0
M  V30 10058 O 925.487 -1.39632 1.04156 0
M  V30 10059 C 922.619 -2.66379 2.12732 0
M  V30 10060 H 923.812 -0.997033 2.82841 0
M  V30 10061 H 921.365 -0.484103 1.48614 0
M  V30 10062 H 922.1 -3.00452 1.22062 0
M  V30 10063 H 921.885 -2.58812 2.94549 0
M  V30 10064 H 923.375 -3.41592 2.40218 0
M  V30 10065 N 923.813 -1.49104 -0.510467 0
M  V30 10066 C 925.062 -1.57362 -1.26175 0
M  V30 10067 C 925.375 -0.261218 -1.93848 0
M  V30 10068 O 926.581 -0.222238 -2.70589 0
M  V30 10069 C 925.037 -2.77606 -2.29048 0
M  V30 10070 C 924.645 -4.15567 -1.67357 0
M  V30 10071 C 926.389 -2.95188 -3.05064 0
M  V30 10072 C 924.296 -5.27046 -2.68285 0
M  V30 10073 H 923.226 -0.585887 -0.474608 0
M  V30 10074 H 925.877 -1.75474 -0.536753 0
M  V30 10075 H 924.259 -2.52968 -3.04669 0
M  V30 10076 H 925.433 -4.50304 -0.977924 0
M  V30 10077 H 923.748 -4.03264 -1.03765 0
M  V30 10078 H 926.345 -3.75643 -3.80521 0
M  V30 10079 H 926.688 -2.05385 -3.62108 0
M  V30 10080 H 927.221 -3.19821 -2.36558 0
M  V30 10081 H 923.96 -6.18878 -2.16034 0
M  V30 10082 H 923.48 -4.96774 -3.36118 0
M  V30 10083 H 925.159 -5.55983 -3.30896 0
M  V30 10084 N 925.291 0.760815 -1.38019 0
M  V30 10085 C 926.537 1.52109 -1.35034 0
M  V30 10086 C 926.892 1.92302 0.0615509 0
M  V30 10087 O 926.185 1.62028 1.02261 0
M  V30 10088 C 926.379 2.79024 -2.23339 0
M  V30 10089 C 926.208 2.51238 -3.72974 0
M  V30 10090 C 924.978 2.44818 -4.42032 0
M  V30 10091 C 927.176 2.18499 -4.65578 0
M  V30 10092 N 925.158 2.09232 -5.77144 0
M  V30 10093 C 926.529 1.93143 -5.89148 0
M  V30 10094 C 928.584 2.04747 -4.53854 0
M  V30 10095 C 927.287 1.55423 -7.02308 0
M  V30 10096 C 929.313 1.68428 -5.66909 0
M  V30 10097 C 928.675 1.43939 -6.89537 0
M  V30 10098 H 924.774 0.556482 -0.54941 0
M  V30 10099 H 927.358 0.886614 -1.73341 0
M  V30 10100 H 925.529 3.40292 -1.87232 0
M  V30 10101 H 927.261 3.45016 -2.11533 0
M  V30 10102 H 924.016 2.61045 -3.95161 0
M  V30 10103 H 924.44 1.94104 -6.48577 0
M  V30 10104 H 929.082 2.22358 -3.59607 0
M  V30 10105 H 926.8 1.36551 -7.96479 0
M  V30 10106 H 930.386 1.5843 -5.59814 0
M  V30 10107 H 929.266 1.16253 -7.75535 0
M  V30 10108 N 926.769 1.22769 0.988202 0
M  V30 10109 C 928.017 1.05301 1.725 0
M  V30 10110 C 928.338 -0.412103 1.90596 0
M  V30 10111 O 927.608 -1.29606 1.46898 0
M  V30 10112 H 926.188 0.386658 0.639144 0
M  V30 10113 H 928.85 1.54359 1.18993 0
M  V30 10114 H 927.946 1.53465 2.71763 0
M  V30 10115 N 928.247 -1.18576 1.03814 0
M  V30 10116 C 929.493 -1.89032 0.750892 0
M  V30 10117 C 929.848 -1.78683 -0.713444 0
M  V30 10118 O 929.141 -1.1746 -1.51373 0
M  V30 10119 C 929.335 -3.38448 1.14837 0
M  V30 10120 C 929.164 -3.63339 2.64981 0
M  V30 10121 C 927.934 -3.80847 3.3209 0
M  V30 10122 C 930.132 -3.64131 3.63198 0
M  V30 10123 N 928.114 -3.93453 4.71241 0
M  V30 10124 C 929.485 -3.82421 4.88011 0
M  V30 10125 C 931.54 -3.47206 3.56865 0
M  V30 10126 C 930.243 -3.85538 6.0725 0
M  V30 10127 C 932.269 -3.51605 4.75529 0
M  V30 10128 C 931.631 -3.70388 5.99159 0
M  V30 10129 H 927.73 -0.710447 0.326786 0
M  V30 10130 H 930.314 -1.42444 1.32732 0
M  V30 10131 H 928.485 -3.83737 0.600058 0
M  V30 10132 H 930.217 -3.96462 0.812406 0
M  V30 10133 H 926.972 -3.80122 2.82496 0
M  V30 10134 H 927.396 -4.03584 5.43552 0
M  V30 10135 H 932.038 -3.31632 2.6226 0
M  V30 10136 H 929.756 -3.99901 7.02214 0
M  V30 10137 H 933.342 -3.39787 4.72267 0
M  V30 10138 H 932.222 -3.73679 6.89445 0
M  V30 10139 N 929.725 -0.817259 -1.34754 0
M  V30 10140 C 930.95 -0.414423 -2.03217 0
M  V30 10141 C 931.375 0.970037 -1.61158 0
M  V30 10142 O 930.733 1.63016 -0.793436 0
M  V30 10143 C 930.781 -0.518087 -3.56859 0
M  V30 10144 O 929.885 0.464314 -4.09778 0
M  V30 10145 H 929.226 -0.171454 -0.641482 0
M  V30 10146 H 931.756 -1.10611 -1.72123 0
M  V30 10147 H 931.766 -0.391779 -4.06115 0
M  V30 10148 H 930.441 -1.52786 -3.86819 0
M  V30 10149 H 929.018 0.297361 -3.71712 0
M  V30 10150 N 931.203 1.46865 -0.571711 0
M  V30 10151 C 932.433 2.06518 -0.0583129 0
M  V30 10152 C 932.841 1.4227 1.24723 0
M  V30 10153 O 932.184 0.518293 1.76237 0
M  V30 10154 C 932.246 3.5898 0.193214 0
M  V30 10155 C 931.91 4.45355 -1.02507 0
M  V30 10156 C 932.907 4.82575 -1.93435 0
M  V30 10157 C 930.592 4.86656 -1.24382 0
M  V30 10158 C 932.586 5.59912 -3.04595 0
M  V30 10159 C 930.273 5.63754 -2.35849 0
M  V30 10160 C 931.271 6.00294 -3.25785 0
M  V30 10161 O 930.959 6.75836 -4.35318 0
M  V30 10162 H 930.691 0.674188 -0.0494584 0
M  V30 10163 H 933.245 1.89644 -0.788934 0
M  V30 10164 H 931.475 3.7412 0.978319 0
M  V30 10165 H 933.164 4.006 0.653769 0
M  V30 10166 H 933.93 4.51256 -1.77745 0
M  V30 10167 H 929.809 4.57672 -0.55292 0
M  V30 10168 H 933.353 5.88351 -3.74818 0
M  V30 10169 H 929.25 5.94487 -2.51506 0
M  V30 10170 H 930.018 6.94247 -4.33547 0
M  V30 10171 N 932.681 0.308908 1.54543 0
M  V30 10172 C 933.929 -0.297447 1.99899 0
M  V30 10173 C 934.25 -1.53799 1.19878 0
M  V30 10174 O 933.52 -1.93639 0.29678 0
M  V30 10175 H 932.1 -0.112897 0.738419 0
M  V30 10176 H 934.762 0.422067 1.90275 0
M  V30 10177 H 933.858 -0.564016 3.06961 0
M  V30 10178 N 934.159 -1.57557 0.0367827 0
M  V30 10179 C 935.407 -1.91735 -0.63892 0
M  V30 10180 C 935.728 -0.914515 -1.72226 0
M  V30 10181 O 934.998 0.0428248 -1.95853 0
M  V30 10182 H 933.578 -0.707738 -0.23899 0
M  V30 10183 H 936.24 -1.94708 0.0863931 0
M  V30 10184 H 935.336 -2.92568 -1.08676 0
M  V30 10185 N 935.637 0.236453 -1.55816 0
M  V30 10186 C 936.867 0.978873 -1.81939 0
M  V30 10187 C 937.275 1.79041 -0.611647 0
M  V30 10188 O 936.618 1.78616 0.429172 0
M  V30 10189 C 936.68 1.9569 -3.01572 0
M  V30 10190 C 936.344 1.33131 -4.37178 0
M  V30 10191 C 937.341 0.728585 -5.1477 0
M  V30 10192 C 935.026 1.34755 -4.83887 0
M  V30 10193 C 937.02 0.150427 -6.37222 0
M  V30 10194 C 934.707 0.765539 -6.06286 0
M  V30 10195 C 935.705 0.168017 -6.82793 0
M  V30 10196 O 935.393 -0.404976 -8.02879 0
M  V30 10197 H 935.125 0.293186 -0.609113 0
M  V30 10198 H 937.679 0.261384 -2.0373 0
M  V30 10199 H 935.909 2.71298 -2.75562 0
M  V30 10200 H 937.598 2.56362 -3.14695 0
M  V30 10201 H 938.364 0.708477 -4.79797 0
M  V30 10202 H 934.243 1.80202 -4.24321 0
M  V30 10203 H 937.787 -0.316586 -6.96881 0
M  V30 10204 H 933.684 0.78301 -6.40733 0
M  V30 10205 H 934.452 -0.29785 -8.17958 0
M  V30 10206 N 937.115 1.49373 0.502552 0
M  V30 10207 C 938.361 1.59016 1.25864 0
M  V30 10208 C 938.694 0.27532 1.92238 0
M  V30 10209 O 937.969 -0.720988 1.80643 0
M  V30 10210 C 938.252 2.74828 2.32683 0
M  V30 10211 C 938.105 4.16102 1.7082 0
M  V30 10212 C 939.424 2.86288 3.34256 0
M  V30 10213 H 936.543 0.578798 0.456248 0
M  V30 10214 H 939.185 1.81651 0.557032 0
M  V30 10215 H 937.335 2.5566 2.92524 0
M  V30 10216 H 939.007 4.46782 1.14818 0
M  V30 10217 H 937.25 4.21822 1.01238 0
M  V30 10218 H 937.921 4.93006 2.48292 0
M  V30 10219 H 940.397 3.03733 2.84404 0
M  V30 10220 H 939.273 3.69001 4.06362 0
M  V30 10221 H 939.534 1.95576 3.96488 0
M  V30 10222 N 938.594 -0.753485 1.38421 0
M  V30 10223 C 939.822 -1.54272 1.37868 0
M  V30 10224 C 940.237 -1.88774 -0.0315155 0
M  V30 10225 O 939.594 -1.52785 -0.998148 0
M  V30 10226 C 939.645 -2.84179 2.23438 0
M  V30 10227 O 939.366 -2.51149 3.58965 0
M  V30 10228 C 940.867 -3.78316 2.31067 0
M  V30 10229 H 938.087 -0.47735 0.47157 0
M  V30 10230 H 940.631 -0.932509 1.82001 0
M  V30 10231 H 938.786 -3.41577 1.82767 0
M  V30 10232 H 939.2 -3.34466 4.04021 0
M  V30 10233 H 940.674 -4.66418 2.95226 0
M  V30 10234 H 941.151 -4.18757 1.32436 0
M  V30 10235 H 941.757 -3.26842 2.72129 0
M  V30 10236 N 940.072 -1.23292 -0.981677 0
M  V30 10237 C 941.297 -1.09176 -1.76339 0
M  V30 10238 C 941.722 0.352726 -1.84763 0
M  V30 10239 O 941.08 1.25509 -1.30832 0
M  V30 10240 C 941.128 -1.72046 -3.16911 0
M  V30 10241 O 940.232 -0.98174 -4.00544 0
M  V30 10242 H 939.573 -0.382755 -0.542581 0
M  V30 10243 H 942.103 -1.63319 -1.23239 0
M  V30 10244 H 942.113 -1.77232 -3.67495 0
M  V30 10245 H 940.788 -2.77154 -3.10095 0
M  V30 10246 H 939.365 -1.00672 -3.59054 0
M  V30 10247 N 941.55 1.18024 -1.04442 0
M  V30 10248 C 942.483 2.20623 -0.583171 0
M  V30 10249 C 943.461 1.57994 0.384262 0
M  V30 10250 O 944.645 1.86135 0.297673 0
M  V30 10251 C 941.772 3.38378 0.147561 0
M  V30 10252 C 940.818 4.19423 -0.773711 0
M  V30 10253 S 941.651 4.85534 -2.25869 0
M  V30 10254 C 942.807 6.06686 -1.53891 0
M  V30 10255 H 943.04 2.59406 -1.45244 0
M  V30 10256 H 940.573 1.28518 -0.855708 0
M  V30 10257 H 942.531 4.06621 0.562988 0
M  V30 10258 H 941.192 2.97998 0.992765 0
M  V30 10259 H 940.385 5.03568 -0.208694 0
M  V30 10260 H 939.987 3.56579 -1.12816 0
M  V30 10261 H 942.279 6.72347 -0.834045 0
M  V30 10262 H 943.222 6.67702 -2.35755 0
M  V30 10263 H 943.63 5.55031 -1.02961 0
M  V30 10264 N 943.028 0.824394 1.34319 0
M  V30 10265 C 944.274 0.413779 1.98534 0
M  V30 10266 C 944.607 -1.02089 1.65201 0
M  V30 10267 O 943.882 -1.71129 0.924402 0
M  V30 10268 C 944.165 0.61801 3.54757 0
M  V30 10269 C 944.018 2.0989 3.97827 0
M  V30 10270 C 945.337 0.0549041 4.40066 0
M  V30 10271 H 942.456 0.151815 0.721194 0
M  V30 10272 H 945.098 1.03723 1.5919 0
M  V30 10273 H 943.248 0.0873107 3.88402 0
M  V30 10274 H 944.92 2.69335 3.74508 0
M  V30 10275 H 943.163 2.58881 3.48085 0
M  V30 10276 H 943.834 2.1926 5.06586 0
M  V30 10277 H 946.31 0.508348 4.12983 0
M  V30 10278 H 945.186 0.227595 5.48428 0
M  V30 10279 H 945.447 -1.04025 4.29687 0
M  V30 10280 N 944.506 -1.46559 0.579492 0
M  V30 10281 C 945.436 -2.33059 -0.143437 0
M  V30 10282 C 946.417 -1.4515 -0.886868 0
M  V30 10283 O 947.602 -1.73973 -0.862961 0
M  V30 10284 C 944.732 -3.27364 -1.15973 0
M  V30 10285 C 943.686 -4.24689 -0.531348 0
M  V30 10286 C 943.012 -5.08479 -1.65388 0
M  V30 10287 C 944.312 -5.1961 0.529391 0
M  V30 10288 H 946.006 -2.93753 0.578762 0
M  V30 10289 H 943.552 -1.41256 0.279775 0
M  V30 10290 H 945.505 -3.86732 -1.67382 0
M  V30 10291 H 944.229 -2.64771 -1.91217 0
M  V30 10292 H 942.888 -3.6658 -0.0383749 0
M  V30 10293 H 942.536 -4.42273 -2.3959 0
M  V30 10294 H 942.236 -5.74387 -1.23909 0
M  V30 10295 H 943.76 -5.70709 -2.17079 0
M  V30 10296 H 945.174 -5.73212 0.100506 0
M  V30 10297 H 943.571 -5.93843 0.86432 0
M  V30 10298 H 944.641 -4.63737 1.4169 0
M  V30 10299 N 945.984 -0.3171 -1.54377 0
M  V30 10300 C 947.232 0.286842 -2.00054 0
M  V30 10301 C 947.553 1.53161 -1.20692 0
M  V30 10302 O 946.823 1.93479 -0.307045 0
M  V30 10303 H 945.403 0.108979 -0.739008 0
M  V30 10304 H 948.065 -0.432152 -1.90049 0
M  V30 10305 H 947.161 0.547729 -3.07256 0
M  V30 10306 N 947.462 1.57535 -0.0451378 0
M  V30 10307 C 948.687 1.97172 0.64326 0
M  V30 10308 C 949.112 0.922266 1.63939 0
M  V30 10309 O 948.47 -0.115155 1.80934 0
M  V30 10310 C 948.518 3.35889 1.3119 0
M  V30 10311 O 947.622 3.33387 2.42748 0
M  V30 10312 H 946.963 0.642469 0.167719 0
M  V30 10313 H 949.493 2.04295 -0.111747 0
M  V30 10314 H 949.503 3.72481 1.66499 0
M  V30 10315 H 948.178 4.1181 0.581823 0
M  V30 10316 H 946.755 3.08533 2.09432 0
M  V30 10317 N 948.94 -0.228186 1.55939 0
M  V30 10318 C 950.188 -0.951668 1.78291 0
M  V30 10319 C 950.509 -1.85132 0.612474 0
M  V30 10320 O 949.779 -1.92356 -0.370942 0
M  V30 10321 H 948.359 -0.354388 0.657585 0
M  V30 10322 H 951.021 -0.241635 1.93396 0
M  V30 10323 H 950.117 -1.56239 2.70177 0
M  V30 10324 N 950.418 -1.49637 -0.494624 0
M  V30 10325 C 951.643 -1.63431 -1.27691 0
M  V30 10326 C 952.068 -0.30813 -1.85559 0
M  V30 10327 O 951.426 0.725083 -1.66169 0
M  V30 10328 C 951.474 -2.71043 -2.3784 0
M  V30 10329 O 950.578 -2.3066 -3.41862 0
M  V30 10330 H 949.919 -0.546804 -0.376698 0
M  V30 10331 H 952.449 -1.95866 -0.591413 0
M  V30 10332 H 952.459 -2.93406 -2.83508 0
M  V30 10333 H 951.134 -3.67306 -1.95088 0
M  V30 10334 H 949.711 -2.18652 -3.02069 0
M  V30 10335 N 951.896 0.746133 -1.38819 0
M  V30 10336 C 953.144 1.50247 -1.35167 0
M  V30 10337 C 953.465 1.94921 0.0553531 0
M  V30 10338 O 952.735 1.68187 1.00449 0
M  V30 10339 H 951.315 0.557337 -0.497377 0
M  V30 10340 H 953.977 0.886472 -1.73573 0
M  V30 10341 H 953.073 2.38986 -2.00728 0
M  V30 10342 N 953.375 1.23811 0.975125 0
M  V30 10343 C 954.621 1.07495 1.71967 0
M  V30 10344 C 954.954 -0.386451 1.90316 0
M  V30 10345 O 954.229 -1.28591 1.45927 0
M  V30 10346 C 954.512 1.80694 3.11483 0
M  V30 10347 C 954.365 3.3454 3.00671 0
M  V30 10348 C 955.684 1.57367 4.11003 0
M  V30 10349 H 952.803 0.3919 0.624166 0
M  V30 10350 H 955.445 1.52383 1.13487 0
M  V30 10351 H 953.595 1.42538 3.61407 0
M  V30 10352 H 955.267 3.8225 2.5823 0
M  V30 10353 H 953.51 3.63301 2.37054 0
M  V30 10354 H 954.181 3.80951 3.99475 0
M  V30 10355 H 956.657 1.90545 3.69908 0
M  V30 10356 H 955.533 2.11052 5.06703 0
M  V30 10357 H 955.794 0.510221 4.39146 0
M  V30 10358 N 954.853 -1.17469 1.05066 0
M  V30 10359 C 956.1 -1.87698 0.759987 0
M  V30 10360 C 956.428 -1.80964 -0.712902 0
M  V30 10361 O 955.683 -1.21146 -1.53695 0
M  V30 10362 C 955.982 -3.37211 1.18421 0
M  V30 10363 C 955.648 -3.64148 2.65909 0
M  V30 10364 C 954.31 -3.71209 3.06199 0
M  V30 10365 C 956.662 -3.75724 3.61222 0
M  V30 10366 C 953.99 -3.87334 4.40669 0
M  V30 10367 C 956.342 -3.93368 4.95424 0
M  V30 10368 C 955.006 -3.98667 5.3537 0
M  V30 10369 H 954.276 -0.686835 0.278099 0
M  V30 10370 H 956.923 -1.38975 1.31751 0
M  V30 10371 H 955.228 -3.87982 0.545654 0
M  V30 10372 H 956.925 -3.89911 0.936518 0
M  V30 10373 H 953.515 -3.59276 2.33707 0
M  V30 10374 H 957.699 -3.69591 3.31235 0
M  V30 10375 H 952.955 -3.89685 4.71122 0
M  V30 10376 H 957.129 -4.01267 5.69173 0
M  V30 10377 H 954.756 -4.10915 6.39572 0
M  V30 10378 N 956.331 -0.831506 -1.3388 0
M  V30 10379 C 957.278 -0.257449 -2.2936 0
M  V30 10380 C 958.248 0.622604 -1.5399 0
M  V30 10381 O 959.433 0.562432 -1.82322 0
M  V30 10382 C 956.573 0.567587 -3.404 0
M  V30 10383 C 955.686 -0.335666 -4.30694 0
M  V30 10384 C 954.821 0.499762 -5.28844 0
M  V30 10385 C 953.86 -0.402343 -6.10776 0
M  V30 10386 N 952.997 0.39452 -7.00991 0
M  V30 10387 H 957.837 -1.077 -2.77857 0
M  V30 10388 H 955.374 -0.542589 -1.36727 0
M  V30 10389 H 957.332 1.06133 -4.03474 0
M  V30 10390 H 955.962 1.35217 -2.93115 0
M  V30 10391 H 955.014 -0.94768 -3.68406 0
M  V30 10392 H 956.326 -1.02896 -4.88072 0
M  V30 10393 H 955.48 1.05763 -5.9741 0
M  V30 10394 H 954.219 1.22652 -4.72025 0
M  V30 10395 H 953.224 -0.972288 -5.41135 0
M  V30 10396 H 954.449 -1.12735 -6.69677 0
M  V30 10397 H 952.395 1.1048 -6.4663 0
M  V30 10398 H 952.312 -0.240209 -7.55618 0
M  V30 10399 H 953.58 0.934867 -7.73874 0
M  V30 10400 N 957.809 1.4625 -0.587256 0
M  V30 10401 C 959.049 2.04254 -0.0773169 0
M  V30 10402 C 959.413 1.44831 1.26047 0
M  V30 10403 O 960.614 1.94063 1.85992 0
M  V30 10404 C 958.885 3.57396 -0.0172813 0
M  V30 10405 S 960.444 4.36644 0.434422 0
M  V30 10406 H 957.262 0.709892 -0.0396783 0
M  V30 10407 H 959.864 1.79232 -0.780779 0
M  V30 10408 H 958.568 3.98161 -0.994795 0
M  V30 10409 H 958.099 3.86962 0.70881 0
M  V30 10410 H 960.114 4.66597 1.68824 0
M  V30 10411 N 959.287 0.325282 1.54207 0
M  V30 10412 C 960.535 -0.276229 2.00203 0
M  V30 10413 C 960.856 -1.52519 1.21503 0
M  V30 10414 O 960.126 -1.93313 0.317302 0
M  V30 10415 H 958.706 -0.105059 0.739575 0
M  V30 10416 H 961.368 0.442225 1.89817 0
M  V30 10417 H 960.464 -0.531427 3.07542 0
M  V30 10418 N 960.765 -1.57509 0.0534917 0
M  V30 10419 C 962.014 -1.91959 -0.619244 0
M  V30 10420 C 962.327 -0.933882 -1.71866 0
M  V30 10421 O 963.533 -1.17052 -2.44972 0
M  V30 10422 C 961.989 -3.40938 -1.15278 0
M  V30 10423 C 961.597 -4.47919 -0.085348 0
M  V30 10424 C 963.341 -3.84419 -1.80063 0
M  V30 10425 C 961.248 -5.88014 -0.631897 0
M  V30 10426 H 960.178 -0.71642 -0.235072 0
M  V30 10427 H 962.829 -1.83089 0.122758 0
M  V30 10428 H 961.211 -3.44821 -1.94717 0
M  V30 10429 H 962.385 -4.55629 0.688374 0
M  V30 10430 H 960.7 -4.13793 0.465178 0
M  V30 10431 H 963.297 -4.86457 -2.21954 0
M  V30 10432 H 963.64 -3.20791 -2.65328 0
M  V30 10433 H 964.173 -3.83062 -1.07275 0
M  V30 10434 H 960.912 -6.55244 0.183175 0
M  V30 10435 H 960.432 -5.83861 -1.37355 0
M  V30 10436 H 962.111 -6.37336 -1.11407 0
M  V30 10437 N 962.243 0.219913 -1.56058 0
M  V30 10438 C 963.206 1.25606 -1.91718 0
M  V30 10439 C 964.206 1.39721 -0.795912 0
M  V30 10440 O 965.396 1.37958 -1.06364 0
M  V30 10441 C 962.528 2.62961 -2.16943 0
M  V30 10442 H 963.721 0.951909 -2.84392 0
M  V30 10443 H 961.274 0.460398 -1.49365 0
M  V30 10444 H 962.009 2.98472 -1.26826 0
M  V30 10445 H 961.794 2.54093 -2.98629 0
M  V30 10446 H 963.284 3.37727 -2.45622 0
M  V30 10447 N 963.721 1.49897 0.486681 0
M  V30 10448 C 964.967 1.60342 1.2417 0
M  V30 10449 C 965.3 0.295694 1.91936 0
M  V30 10450 O 964.575 -0.701788 1.81398 0
M  V30 10451 C 964.858 2.77281 2.29755 0
M  V30 10452 C 964.711 4.1789 1.66397 0
M  V30 10453 C 966.03 2.89817 3.31201 0
M  V30 10454 H 963.149 0.583605 0.450083 0
M  V30 10455 H 965.791 1.82232 0.537734 0
M  V30 10456 H 963.941 2.58748 2.89796 0
M  V30 10457 H 965.613 4.47975 1.10073 0
M  V30 10458 H 963.856 4.22872 0.967579 0
M  V30 10459 H 964.527 4.95612 2.43049 0
M  V30 10460 H 967.003 3.06732 2.81167 0
M  V30 10461 H 965.879 3.7329 4.02425 0
M  V30 10462 H 966.14 1.9977 3.94391 0
M  V30 10463 N 965.199 -0.738761 1.39212 0
M  V30 10464 C 966.162 -1.83441 1.37412 0
M  V30 10465 C 967.162 -1.58484 0.271908 0
M  V30 10466 O 968.352 -1.65954 0.529609 0
M  V30 10467 C 965.484 -3.21167 1.143 0
M  V30 10468 H 966.677 -1.86441 2.34904 0
M  V30 10469 H 964.23 -0.942023 1.24722 0
M  V30 10470 H 964.965 -3.23829 0.174756 0
M  V30 10471 H 964.75 -3.40678 1.94116 0
M  V30 10472 H 966.24 -4.01231 1.15773 0
M  V30 10473 N 966.677 -1.24326 -0.968545 0
M  V30 10474 C 968.088 -1.07561 -1.52603 0
M  V30 10475 C 968.439 0.353245 -1.92994 0
M  V30 10476 O 967.564 1.24151 -1.77244 0
M  V30 10477 C 968.159 -1.94634 -2.77314 0
M  V30 10478 C 966.718 -1.82095 -3.29421 0
M  V30 10479 C 965.865 -1.8962 -2.02335 0
M  V30 10480 H 968.816 -1.37815 -0.786932 0
M  V30 10481 H 968.837 -1.47812 -3.50616 0
M  V30 10482 H 968.349 -2.98621 -2.47885 0
M  V30 10483 H 966.45 -0.809376 -3.63703 0
M  V30 10484 H 966.563 -2.66142 -3.98378 0
M  V30 10485 H 964.927 -1.33339 -2.17009 0
M  V30 10486 H 965.71 -2.95185 -1.75273 0
M  V30 10487 N 968.156 1.1691 -1.05688 0
M  V30 10488 C 969.402 1.8757 -0.771071 0
M  V30 10489 C 969.735 1.8113 0.700399 0
M  V30 10490 O 969.01 1.22273 1.5126 0
M  V30 10491 C 969.293 3.37392 -1.25851 0
M  V30 10492 C 969.146 3.52556 -2.79329 0
M  V30 10493 C 970.465 4.31585 -0.861512 0
M  V30 10494 H 967.584 0.681089 -0.281579 0
M  V30 10495 H 970.226 1.37453 -1.31174 0
M  V30 10496 H 968.376 3.80204 -0.798563 0
M  V30 10497 H 970.048 3.18725 -3.33485 0
M  V30 10498 H 968.291 2.94668 -3.1836 0
M  V30 10499 H 968.962 4.57748 -3.08498 0
M  V30 10500 H 971.438 3.96642 -1.25756 0
M  V30 10501 H 970.314 5.34939 -1.23012 0
M  V30 10502 H 970.575 4.4148 0.234089 0
M  V30 10503 N 969.634 0.838594 1.33437 0
M  V30 10504 C 970.859 0.446701 2.02532 0
M  V30 10505 C 971.284 -0.944275 1.62681 0
M  V30 10506 O 970.642 -1.61733 0.81927 0
M  V30 10507 C 970.69 0.574794 3.55989 0
M  V30 10508 O 969.794 -0.399063 4.10465 0
M  V30 10509 H 969.135 0.181637 0.638674 0
M  V30 10510 H 971.665 1.13335 1.70342 0
M  V30 10511 H 971.675 0.456339 4.0544 0
M  V30 10512 H 970.35 1.58921 3.8434 0
M  V30 10513 H 968.927 -0.238187 3.72139 0
M  V30 10514 N 971.112 -1.45937 0.595003 0
M  V30 10515 C 972.528 -1.57507 0.257641 0
M  V30 10516 C 972.728 -1.58829 -1.23998 0
M  V30 10517 O 971.784 -1.51183 -2.02237 0
M  V30 10518 C 973.097 -2.86354 0.917708 0
M  V30 10519 C 974.645 -3.00007 0.892446 0
M  V30 10520 C 975.12 -4.31607 1.53229 0
M  V30 10521 N 976.611 -4.38336 1.49719 0
M  V30 10522 C 977.346 -5.38805 1.96154 0
M  V30 10523 N 976.842 -6.45882 2.50617 0
M  V30 10524 N 978.635 -5.30084 1.86997 0
M  V30 10525 H 970.786 -1.43322 1.56756 0
M  V30 10526 H 973.049 -0.684436 0.655936 0
M  V30 10527 H 972.755 -2.91233 1.97171 0
M  V30 10528 H 972.629 -3.74703 0.433344 0
M  V30 10529 H 975.016 -2.94703 -0.152975 0
M  V30 10530 H 975.097 -2.13103 1.41495 0
M  V30 10531 H 974.741 -4.3767 2.57697 0
M  V30 10532 H 974.671 -5.17308 0.984903 0
M  V30 10533 H 977.162 -3.6156 1.09921 0
M  V30 10534 H 977.475 -7.18774 2.83874 0
M  V30 10535 H 975.82 -6.46668 2.54649 0
M  V30 10536 H 979.011 -4.45337 1.44196 0
M  V30 10537 H 979.184 -6.08237 2.23499 0
M  V30 10538 N 972.59 -0.333456 -1.54032 0
M  V30 10539 C 973.836 0.259248 -2.01741 0
M  V30 10540 C 974.191 1.48999 -1.21725 0
M  V30 10541 O 973.484 1.89333 -0.293882 0
M  V30 10542 C 973.678 0.63565 -3.51702 0
M  V30 10543 C 973.507 -0.55707 -4.46236 0
M  V30 10544 C 972.277 -1.05925 -4.94073 0
M  V30 10545 C 974.475 -1.41237 -4.94527 0
M  V30 10546 N 972.457 -2.21535 -5.72534 0
M  V30 10547 C 973.828 -2.41551 -5.71011 0
M  V30 10548 C 975.883 -1.43899 -4.76652 0
M  V30 10549 C 974.586 -3.44342 -6.31523 0
M  V30 10550 C 976.612 -2.45567 -5.38006 0
M  V30 10551 C 975.974 -3.44606 -6.1435 0
M  V30 10552 H 972.073 0.0584431 -0.779813 0
M  V30 10553 H 974.657 -0.470736 -1.88924 0
M  V30 10554 H 972.828 1.33475 -3.64745 0
M  V30 10555 H 974.56 1.21067 -3.86167 0
M  V30 10556 H 971.315 -0.628947 -4.69405 0
M  V30 10557 H 971.739 -2.79878 -6.16439 0
M  V30 10558 H 976.381 -0.686929 -4.17182 0
M  V30 10559 H 974.099 -4.20449 -6.90107 0
M  V30 10560 H 977.685 -2.4844 -5.26088 0
M  V30 10561 H 976.565 -4.21987 -6.60982 0
M  V30 10562 N 974.068 1.57479 -0.061844 0
M  V30 10563 C 974.978 2.15645 0.923826 0
M  V30 10564 C 975.994 1.117 1.33413 0
M  V30 10565 O 977.17 1.4392 1.40887 0
M  V30 10566 C 974.235 2.69857 2.17665 0
M  V30 10567 C 973.296 3.88638 1.8237 0
M  V30 10568 C 972.529 4.40256 3.01679 0
M  V30 10569 O 972.752 3.90908 4.15388 0
M  V30 10570 O 971.686 5.31713 2.82073 0
M  V30 10571 H 975.512 3.0021 0.459094 0
M  V30 10572 H 973.097 1.48534 0.160665 0
M  V30 10573 H 974.979 3.04647 2.9115 0
M  V30 10574 H 973.654 1.88357 2.63255 0
M  V30 10575 H 972.561 3.58719 1.06167 0
M  V30 10576 H 973.894 4.71401 1.4157 0
M  V30 10577 N 975.546 -0.211634 1.56173 0
M  V30 10578 C 976.776 -0.949805 1.83473 0
M  V30 10579 C 977.184 -1.78045 0.640053 0
M  V30 10580 O 976.527 -1.79277 -0.400702 0
M  V30 10581 C 976.589 -1.90868 3.04647 0
M  V30 10582 C 976.253 -1.26159 4.39241 0
M  V30 10583 C 977.25 -0.646597 5.15863 0
M  V30 10584 C 974.935 -1.27039 4.85969 0
M  V30 10585 C 976.929 -0.0490313 6.37381 0
M  V30 10586 C 974.616 -0.668987 6.07427 0
M  V30 10587 C 975.614 -0.0593687 6.82974 0
M  V30 10588 O 975.302 0.532656 8.02133 0
M  V30 10589 H 975.034 -0.283458 0.6137 0
M  V30 10590 H 977.588 -0.22894 2.0412 0
M  V30 10591 H 975.818 -2.6688 2.79843 0
M  V30 10592 H 977.507 -2.51323 3.18734 0
M  V30 10593 H 978.273 -0.632056 4.80864 0
M  V30 10594 H 974.152 -1.73429 4.27134 0
M  V30 10595 H 977.696 0.427414 6.96289 0
M  V30 10596 H 973.593 -0.680975 6.41898 0
M  V30 10597 H 974.361 0.427942 8.17381 0
M  V30 10598 N 977.024 -1.50153 -0.478725 0
M  V30 10599 C 978.254 -1.64266 -1.253 0
M  V30 10600 C 978.662 -0.322256 -1.86435 0
M  V30 10601 O 978.005 0.704925 -1.69636 0
M  V30 10602 C 978.067 -2.67017 -2.40712 0
M  V30 10603 C 977.731 -4.10779 -2.00274 0
M  V30 10604 C 978.728 -4.96889 -1.52963 0
M  V30 10605 C 976.413 -4.5665 -2.09228 0
M  V30 10606 C 978.407 -6.26914 -1.15139 0
M  V30 10607 C 976.094 -5.86683 -1.71015 0
M  V30 10608 C 977.092 -6.71641 -1.24048 0
M  V30 10609 O 976.78 -7.99248 -0.863617 0
M  V30 10610 H 976.512 -0.555382 -0.385392 0
M  V30 10611 H 979.066 -1.97078 -0.578751 0
M  V30 10612 H 977.296 -2.29432 -3.11284 0
M  V30 10613 H 978.985 -2.70428 -3.02694 0
M  V30 10614 H 979.751 -4.62669 -1.45474 0
M  V30 10615 H 975.63 -3.90674 -2.44735 0
M  V30 10616 H 979.174 -6.93179 -0.784089 0
M  V30 10617 H 975.071 -6.20426 -1.78162 0
M  V30 10618 H 975.839 -8.12452 -0.993139 0
M  V30 10619 N 978.502 0.731368 -1.39602 0
M  V30 10620 C 979.779 1.48308 -1.27531 0
M  V30 10621 C 980.159 2.10795 0.113482 0
M  V30 10622 O 979.507 1.98886 1.12501 0
M  V30 10623 C 979.717 2.53156 -2.40235 0
M  V30 10624 C 981.065 3.19436 -2.79725 0
M  V30 10625 O 982.089 2.6347 -2.39712 0
M  V30 10626 O 980.948 4.20714 -3.48801 0
M  V30 10627 H 978.042 0.658753 -0.499973 0
M  V30 10628 H 980.588 0.764884 -1.51485 0
M  V30 10629 H 979.36 2.05387 -3.33064 0
M  V30 10630 H 978.983 3.3253 -2.17966 0
M  V30 10631 N 979.98 1.24838 0.961938 0
M  V30 10632 C 981.205 1.11967 1.7458 0
M  V30 10633 C 981.63 -0.323287 1.85301 0
M  V30 10634 O 980.988 -1.23412 1.32812 0
M  V30 10635 C 981.036 1.77066 3.14134 0
M  V30 10636 O 980.14 1.04534 3.98932 0
M  V30 10637 H 979.481 0.391338 0.536424 0
M  V30 10638 H 982.011 1.65259 1.20626 0
M  V30 10639 H 982.021 1.83056 3.64629 0
M  V30 10640 H 980.696 2.82052 3.05646 0
M  V30 10641 H 979.273 1.06372 3.57407 0
M  V30 10642 N 981.458 -1.16348 1.06306 0
M  V30 10643 C 982.704 -1.87158 0.781007 0
M  V30 10644 C 983.037 -1.81499 -0.690784 0
M  V30 10645 O 982.312 -1.23074 -1.50609 0
M  V30 10646 C 982.595 -3.3672 1.27639 0
M  V30 10647 C 982.448 -3.51069 2.81194 0
M  V30 10648 C 983.767 -4.31122 0.884388 0
M  V30 10649 H 980.886 -0.679586 0.285187 0
M  V30 10650 H 983.528 -1.36756 1.31901 0
M  V30 10651 H 981.678 -3.79775 0.818715 0
M  V30 10652 H 983.35 -3.16952 3.35171 0
M  V30 10653 H 981.593 -2.92976 3.19918 0
M  V30 10654 H 982.264 -4.56105 3.10921 0
M  V30 10655 H 984.74 -3.95969 1.27858 0
M  V30 10656 H 983.616 -5.34279 1.25847 0
M  V30 10657 H 983.877 -4.41598 -0.210673 0
M  V30 10658 N 982.937 -0.845659 -1.3299 0
M  V30 10659 C 984.167 -0.457686 -2.01467 0
M  V30 10660 C 984.575 0.947664 -1.63756 0
M  V30 10661 O 983.918 1.62841 -0.850213 0
M  V30 10662 C 983.98 -0.506589 -3.55913 0
M  V30 10663 C 983.644 -1.86924 -4.17023 0
M  V30 10664 C 984.641 -2.83344 -4.35904 0
M  V30 10665 C 982.326 -2.16394 -4.53298 0
M  V30 10666 C 984.32 -4.07391 -4.90216 0
M  V30 10667 C 982.007 -3.40695 -5.07316 0
M  V30 10668 C 983.005 -4.3601 -5.25722 0
M  V30 10669 O 982.693 -5.58112 -5.7859 0
M  V30 10670 H 982.425 -0.179258 -0.651799 0
M  V30 10671 H 984.979 -1.14172 -1.70745 0
M  V30 10672 H 983.209 0.234253 -3.8599 0
M  V30 10673 H 984.898 -0.135487 -4.05674 0
M  V30 10674 H 985.664 -2.61879 -4.08221 0
M  V30 10675 H 981.543 -1.42994 -4.38262 0
M  V30 10676 H 985.087 -4.81796 -5.04498 0
M  V30 10677 H 980.984 -3.62014 -5.3443 0
M  V30 10678 H 981.752 -5.59946 -5.96995 0
M  V30 10679 N 984.415 1.45619 -0.602734 0
M  V30 10680 C 985.643 2.06647 -0.102253 0
M  V30 10681 C 986.058 1.4482 1.21131 0
M  V30 10682 O 985.415 0.560621 1.73676 0
M  V30 10683 C 985.466 3.61467 0.0490113 0
M  V30 10684 O 985.187 4.20985 -1.21257 0
M  V30 10685 C 986.688 4.39469 0.581517 0
M  V30 10686 H 983.908 0.667685 -0.0666155 0
M  V30 10687 H 986.452 1.86939 -0.829091 0
M  V30 10688 H 984.607 3.80534 0.726153 0
M  V30 10689 H 985.021 5.14103 -1.03915 0
M  V30 10690 H 986.495 5.48318 0.636462 0
M  V30 10691 H 986.972 4.0891 1.60277 0
M  V30 10692 H 987.578 4.25256 -0.061419 0
M  V30 10693 N 985.893 0.34162 1.53853 0
M  V30 10694 C 986.803 -0.524555 2.2866 0
M  V30 10695 C 987.819 -1.1136 1.33697 0
M  V30 10696 O 988.995 -1.1297 1.66732 0
M  V30 10697 C 986.06 -1.66065 3.04341 0
M  V30 10698 C 985.121 -1.10158 4.14926 0
M  V30 10699 C 984.354 -2.18353 4.86988 0
M  V30 10700 O 984.577 -3.39038 4.58704 0
M  V30 10701 O 983.511 -1.82756 5.73484 0
M  V30 10702 H 987.337 0.0835014 3.03585 0
M  V30 10703 H 984.922 0.106727 1.49018 0
M  V30 10704 H 986.804 -2.3217 3.51674 0
M  V30 10705 H 985.479 -2.25456 2.32275 0
M  V30 10706 H 984.386 -0.405109 3.719 0
M  V30 10707 H 985.719 -0.552567 4.89088 0
M  V30 10708 N 987.371 -1.57444 0.0701946 0
M  V30 10709 C 988.787 -1.57009 -0.286431 0
M  V30 10710 C 988.987 -1.07946 -1.70147 0
M  V30 10711 O 988.043 -0.744622 -2.41271 0
M  V30 10712 C 989.356 -3.00542 -0.0975466 0
M  V30 10713 C 990.904 -3.12553 -0.167205 0
M  V30 10714 C 991.379 -4.58 -0.00662047 0
M  V30 10715 N 992.87 -4.63158 -0.0622778 0
M  V30 10716 C 993.605 -5.73388 0.0375831 0
M  V30 10717 N 993.101 -6.92537 0.190873 0
M  V30 10718 N 994.894 -5.62097 -0.0193672 0
M  V30 10719 H 987.045 -1.87651 0.995023 0
M  V30 10720 H 989.308 -0.865006 0.387902 0
M  V30 10721 H 989.014 -3.40543 0.878822 0
M  V30 10722 H 988.888 -3.67485 -0.850547 0
M  V30 10723 H 991.275 -2.72439 -1.13406 0
M  V30 10724 H 991.356 -2.48251 0.616871 0
M  V30 10725 H 991 -4.98803 0.956992 0
M  V30 10726 H 990.93 -5.20332 -0.810081 0
M  V30 10727 H 993.421 -3.77475 -0.179229 0
M  V30 10728 H 993.734 -7.72365 0.25926 0
M  V30 10729 H 992.079 -6.94632 0.226214 0
M  V30 10730 H 995.27 -4.67897 -0.137815 0
M  V30 10731 H 995.443 -6.4797 0.0619121 0
M  V30 10732 N 988.849 0.203349 -1.56283 0
M  V30 10733 C 990.079 0.940061 -1.83974 0
M  V30 10734 C 990.487 1.77703 -0.649486 0
M  V30 10735 O 989.83 1.79487 0.391189 0
M  V30 10736 C 989.892 1.89249 -3.05655 0
M  V30 10737 C 989.556 1.23828 -4.39904 0
M  V30 10738 C 990.553 0.619231 -5.16199 0
M  V30 10739 C 988.238 1.2446 -4.86636 0
M  V30 10740 C 990.232 0.0152287 -6.37398 0
M  V30 10741 C 987.919 0.636764 -6.07773 0
M  V30 10742 C 988.917 0.0231481 -6.82996 0
M  V30 10743 O 988.605 -0.575187 -8.0184 0
M  V30 10744 H 988.337 0.280199 -0.615194 0
M  V30 10745 H 990.891 0.218111 -2.04239 0
M  V30 10746 H 989.121 2.65392 -2.81254 0
M  V30 10747 H 990.81 2.4963 -3.20062 0
M  V30 10748 H 991.576 0.606545 -4.81192 0
M  V30 10749 H 987.455 1.71161 -4.28048 0
M  V30 10750 H 990.999 -0.464333 -6.96053 0
M  V30 10751 H 986.896 0.646924 -6.4225 0
M  V30 10752 H 987.664 -0.471284 -8.17142 0
M  V30 10753 N 990.327 1.50405 0.470755 0
M  V30 10754 C 991.26 1.63933 1.58749 0
M  V30 10755 C 992.238 0.487444 1.55122 0
M  V30 10756 O 993.422 0.706992 1.74739 0
M  V30 10757 C 990.549 1.62222 2.97324 0
M  V30 10758 C 989.595 2.82975 3.19104 0
M  V30 10759 S 990.428 4.44272 2.98969 0
M  V30 10760 C 991.584 4.45254 4.39886 0
M  V30 10761 H 991.817 2.58396 1.47034 0
M  V30 10762 H 989.35 1.39672 0.658115 0
M  V30 10763 H 991.308 1.6192 3.77217 0
M  V30 10764 H 989.969 0.689944 3.06429 0
M  V30 10765 H 989.162 2.78083 4.2034 0
M  V30 10766 H 988.764 2.80846 2.46984 0
M  V30 10767 H 991.056 4.18837 5.32524 0
M  V30 10768 H 991.999 5.4687 4.49821 0
M  V30 10769 H 992.407 3.74958 4.2198 0
M  V30 10770 N 991.805 -0.723954 1.39988 0
M  V30 10771 C 993.053 -1.48078 1.3754 0
M  V30 10772 C 993.374 -1.94985 -0.0243358 0
M  V30 10773 O 992.644 -1.69764 -0.977602 0
M  V30 10774 H 991.224 -0.549354 0.506181 0
M  V30 10775 H 993.886 -0.858746 1.74962 0
M  V30 10776 H 992.982 -2.35763 2.04505 0
M  V30 10777 N 993.283 -1.25346 -0.955304 0
M  V30 10778 C 994.213 -1.08152 -2.06943 0
M  V30 10779 C 995.194 0.00922598 -1.70097 0
M  V30 10780 O 996.379 -0.160181 -1.93538 0
M  V30 10781 C 993.509 -0.698745 -3.40198 0
M  V30 10782 C 992.463 -1.73965 -3.9105 0
M  V30 10783 C 991.789 -1.21158 -5.20792 0
M  V30 10784 C 993.089 -3.13829 -4.17503 0
M  V30 10785 H 994.783 -2.01345 -2.21586 0
M  V30 10786 H 992.329 -0.969459 -1.06478 0
M  V30 10787 H 994.282 -0.565394 -4.1759 0
M  V30 10788 H 993.006 0.268892 -3.25491 0
M  V30 10789 H 991.665 -1.86143 -3.15827 0
M  V30 10790 H 991.313 -0.234193 -5.02455 0
M  V30 10791 H 991.013 -1.90728 -5.55785 0
M  V30 10792 H 992.537 -1.09061 -6.00781 0
M  V30 10793 H 993.951 -3.04809 -4.85556 0
M  V30 10794 H 992.348 -3.80863 -4.63749 0
M  V30 10795 H 993.418 -3.6094 -3.23806 0
M  V30 10796 N 994.761 1.15782 -1.06922 0
M  V30 10797 C 996.172 1.68062 -0.813144 0
M  V30 10798 C 996.523 1.84681 0.662374 0
M  V30 10799 O 995.648 1.54696 1.51321 0
M  V30 10800 C 996.243 3.05273 -1.46949 0
M  V30 10801 C 994.802 3.54647 -1.26104 0
M  V30 10802 C 993.949 2.30477 -1.54194 0
M  V30 10803 H 996.9 1.00056 -1.23185 0
M  V30 10804 H 996.921 3.69986 -0.888308 0
M  V30 10805 H 996.433 2.93145 -2.54337 0
M  V30 10806 H 994.534 3.72024 -0.20718 0
M  V30 10807 H 994.647 4.36354 -1.97819 0
M  V30 10808 H 993.011 2.35803 -0.96276 0
M  V30 10809 H 993.794 2.2094 -2.62755 0
M  V30 10810 N 996.239 0.8527 1.3254 0
M  V30 10811 C 997.467 0.469044 2.01513 0
M  V30 10812 C 997.882 -0.933701 1.64096 0
M  V30 10813 O 997.239 -1.60898 0.861283 0
M  V30 10814 C 997.29 0.596228 3.56549 0
M  V30 10815 O 997.011 1.94371 3.92621 0
M  V30 10816 C 998.512 0.211324 4.42796 0
M  V30 10817 H 995.732 0.184589 0.645111 0
M  V30 10818 H 998.276 1.1491 1.69163 0
M  V30 10819 H 996.431 -0.0360712 3.87383 0
M  V30 10820 H 996.845 1.93909 4.87339 0
M  V30 10821 H 998.319 0.351324 5.50881 0
M  V30 10822 H 998.796 -0.848055 4.30935 0
M  V30 10823 H 999.402 0.818617 4.17347 0
M  V30 10824 N 997.718 -1.45297 0.610449 0
M  V30 10825 C 999.129 -1.85715 0.191488 0
M  V30 10826 C 999.48 -1.51036 -1.25229 0
M  V30 10827 O 998.605 -0.938422 -1.94994 0
M  V30 10828 C 999.2 -3.37082 0.340747 0
M  V30 10829 C 997.759 -3.76393 -0.0235433 0
M  V30 10830 C 996.906 -2.69237 0.663849 0
M  V30 10831 H 999.857 -1.36058 0.816948 0
M  V30 10832 H 999.878 -3.78105 -0.426233 0
M  V30 10833 H 999.39 -3.62291 1.39164 0
M  V30 10834 H 997.491 -3.56801 -1.07351 0
M  V30 10835 H 997.604 -4.77653 0.372102 0
M  V30 10836 H 995.968 -2.54499 0.101204 0
M  V30 10837 H 996.751 -2.97281 1.71694 0
M  V30 10838 N 999.196 -0.349774 -1.5367 0
M  V30 10839 C 1000.11 0.512421 -2.28935 0
M  V30 10840 C 1001.12 1.1065 -1.34286 0
M  V30 10841 O 1002.3 1.12084 -1.67329 0
M  V30 10842 C 999.363 1.64449 -3.05217 0
M  V30 10843 C 998.424 1.07956 -4.15505 0
M  V30 10844 C 997.657 2.15768 -4.88139 0
M  V30 10845 O 997.88 3.366 -4.60496 0
M  V30 10846 O 996.814 1.79712 -5.74445 0
M  V30 10847 H 1000.64 -0.0996001 -3.03537 0
M  V30 10848 H 998.225 -0.114629 -1.4896 0
M  V30 10849 H 1000.11 2.30302 -3.52901 0
M  V30 10850 H 998.782 2.24221 -2.33467 0
M  V30 10851 H 997.689 0.385381 -3.7211 0
M  V30 10852 H 999.022 0.526621 -4.89375 0
M  V30 10853 N 1000.67 1.57404 -0.0785433 0
M  V30 10854 C 1001.95 1.85163 0.630389 0
M  V30 10855 C 1002.33 0.972295 1.87376 0
M  V30 10856 O 1001.68 0.0403375 2.28464 0
M  V30 10857 C 1001.89 3.35491 0.961604 0
M  V30 10858 C 1003.24 4.0316 1.33219 0
M  V30 10859 O 1004.26 3.40276 1.05313 0
M  V30 10860 O 1003.12 5.14086 1.85412 0
M  V30 10861 H 1000.21 0.765169 0.31376 0
M  V30 10862 H 1002.76 1.69343 -0.109986 0
M  V30 10863 H 1001.53 3.91221 0.0788113 0
M  V30 10864 H 1001.15 3.56598 1.75852 0
M  V30 10865 N 1002.15 -0.195058 1.56388 0
M  V30 10866 C 1003.1 -1.26122 1.95438 0
M  V30 10867 C 1004.09 -1.47117 0.839818 0
M  V30 10868 O 1005.3 -1.47978 1.02482 0
M  V30 10869 H 1001.67 -0.423422 0.621464 0
M  V30 10870 H 1003.65 -0.904854 2.8435 0
M  V30 10871 C 1002.39 -2.59858 2.31017 0
M  V30 10872 H 1001.72 -2.44519 3.16308 0
M  V30 10873 H 1003.16 -3.33205 2.62203 0
M  V30 10874 C 1001.62 -3.16853 1.14481 0
M  V30 10875 O 1002.15 -3.995 0.419853 0
M  V30 10876 N 1000.35 -2.75599 0.921604 0
M  V30 10877 H 999.9 -2.08495 1.51287 0
M  V30 10878 H 999.858 -3.14072 0.143663 0
M  V30 10879 N 1003.63 -1.50653 -0.462772 0
M  V30 10880 C 1004.56 -1.73056 -1.5676 0
M  V30 10881 C 1005.54 -0.579699 -1.59917 0
M  V30 10882 O 1006.73 -0.819729 -1.76051 0
M  V30 10883 C 1003.86 -1.83234 -2.9503 0
M  V30 10884 C 1002.81 -2.98488 -3.06739 0
M  V30 10885 C 1002.14 -2.93818 -4.46738 0
M  V30 10886 C 1003.44 -4.38869 -2.83181 0
M  V30 10887 H 1005.13 -2.65562 -1.38265 0
M  V30 10888 H 1002.68 -1.27792 -0.663722 0
M  V30 10889 H 1004.63 -1.97491 -3.72257 0
M  V30 10890 H 1003.35 -0.873558 -3.14701 0
M  V30 10891 H 1002.01 -2.83895 -2.31946 0
M  V30 10892 H 1001.66 -1.95769 -4.63339 0
M  V30 10893 H 1001.36 -3.71197 -4.55507 0
M  V30 10894 H 1002.88 -3.10135 -5.25974 0
M  V30 10895 H 1004.3 -4.53945 -3.50153 0
M  V30 10896 H 1002.69 -5.17762 -3.03386 0
M  V30 10897 H 1003.76 -4.50663 -1.78972 0
M  V30 10898 N 1005.11 0.71652 -1.4037 0
M  V30 10899 C 1006.39 1.46947 -1.29097 0
M  V30 10900 C 1006.77 2.10903 0.0911182 0
M  V30 10901 O 1006.11 2.00068 1.10385 0
M  V30 10902 C 1006.32 2.50594 -2.42907 0
M  V30 10903 C 1007.67 3.16451 -2.83097 0
M  V30 10904 O 1008.7 2.60913 -2.42493 0
M  V30 10905 O 1007.55 4.16991 -3.53244 0
M  V30 10906 H 1004.65 0.653413 -0.506932 0
M  V30 10907 H 1007.19 0.748774 -1.52287 0
M  V30 10908 H 1005.97 2.01843 -3.35224 0
M  V30 10909 H 1005.59 3.302 -2.21481 0
M  V30 10910 N 1006.59 1.25851 0.948643 0
M  V30 10911 C 1007.54 1.03437 2.03187 0
M  V30 10912 C 1008.52 -0.0307632 1.60871 0
M  V30 10913 O 1009.71 0.185296 1.76027 0
M  V30 10914 C 1006.84 0.661426 3.36868 0
M  V30 10915 C 1005.93 1.76363 3.8569 0
M  V30 10916 N 1006.32 2.9998 4.07241 0
M  V30 10917 C 1004.62 1.64552 4.14534 0
M  V30 10918 C 1005.32 3.71564 4.47566 0
M  V30 10919 N 1004.29 2.99214 4.53841 0
M  V30 10920 H 1008.1 1.97277 2.17851 0
M  V30 10921 H 1005.61 1.16258 1.13392 0
M  V30 10922 H 1007.61 0.482021 4.14104 0
M  V30 10923 H 1006.27 -0.269582 3.23579 0
M  V30 10924 H 1007.28 3.35963 3.94143 0
M  V30 10925 H 1003.95 0.783891 4.10075 0
M  V30 10926 H 1005.34 4.77702 4.72494 0
M  V30 10927 N 1008.06 -1.15214 1.07534 0
M  V30 10928 C 1009.29 -1.89647 0.819614 0
M  V30 10929 C 1009.7 -1.78365 -0.631072 0
M  V30 10930 O 1009.05 -1.1346 -1.44474 0
M  V30 10931 C 1009.11 -3.40573 1.1511 0
M  V30 10932 C 1008.77 -3.7564 2.60276 0
M  V30 10933 C 1009.77 -3.76507 3.58523 0
M  V30 10934 C 1007.45 -4.05891 2.95901 0
M  V30 10935 C 1009.45 -4.07133 4.9043 0
M  V30 10936 C 1007.13 -4.36182 4.28005 0
M  V30 10937 C 1008.13 -4.36785 5.25079 0
M  V30 10938 O 1007.82 -4.66348 6.54809 0
M  V30 10939 H 1007.55 -0.607836 0.295822 0
M  V30 10940 H 1010.11 -1.46895 1.43565 0
M  V30 10941 H 1008.34 -3.83734 0.478033 0
M  V30 10942 H 1010.03 -3.96299 0.877615 0
M  V30 10943 H 1010.79 -3.53233 3.32342 0
M  V30 10944 H 1006.67 -4.0458 2.20989 0
M  V30 10945 H 1010.21 -4.07519 5.66193 0
M  V30 10946 H 1006.11 -4.58924 4.53937 0
M  V30 10947 H 1006.88 -4.84105 6.59988 0
M  V30 10948 N 1009.54 -0.859717 -1.32086 0
M  V30 10949 C 1010.96 -0.55025 -1.49815 0
M  V30 10950 C 1011.16 0.917966 -1.79376 0
M  V30 10951 O 1010.21 1.70073 -1.86632 0
M  V30 10952 C 1011.53 -1.44161 -2.6389 0
M  V30 10953 C 1013.08 -1.44257 -2.77775 0
M  V30 10954 C 1013.55 -2.31926 -3.94936 0
M  V30 10955 N 1015.04 -2.2975 -4.02206 0
M  V30 10956 C 1015.78 -2.9431 -4.92107 0
M  V30 10957 N 1015.27 -3.68001 -5.86981 0
M  V30 10958 N 1017.07 -2.83671 -4.8527 0
M  V30 10959 H 1009.22 -1.80987 -1.11164 0
M  V30 10960 H 1011.48 -0.773313 -0.548353 0
M  V30 10961 H 1011.19 -2.48588 -2.4879 0
M  V30 10962 H 1011.06 -1.13268 -3.59792 0
M  V30 10963 H 1013.45 -0.405923 -2.92295 0
M  V30 10964 H 1013.53 -1.79169 -1.82571 0
M  V30 10965 H 1013.17 -3.35661 -3.81174 0
M  V30 10966 H 1013.1 -1.94344 -4.89426 0
M  V30 10967 H 1015.59 -1.76177 -3.3432 0
M  V30 10968 H 1015.91 -4.14417 -6.52287 0
M  V30 10969 H 1014.25 -3.72109 -5.86992 0
M  V30 10970 H 1017.44 -2.25647 -4.10123 0
M  V30 10971 H 1017.61 -3.34267 -5.5513 0
M  V30 10972 N 1011.02 1.44971 -0.618145 0
M  V30 10973 C 1011.97 2.32354 0.106846 0
M  V30 10974 C 1012.96 1.4659 0.848984 0
M  V30 10975 O 1014.17 1.63012 0.763354 0
M  V30 10976 H 1010.54 0.750108 0.0533109 0
M  V30 10977 H 1012.51 2.9127 -0.648426 0
M  V30 10978 C 1011.26 3.30381 1.08368 0
M  V30 10979 H 1010.59 3.96377 0.52205 0
M  V30 10980 H 1012.03 3.94231 1.56069 0
M  V30 10981 C 1010.49 2.58336 2.1625 0
M  V30 10982 O 1011.02 2.37258 3.24148 0
M  V30 10983 N 1009.22 2.18292 1.91825 0
M  V30 10984 H 1008.77 2.35635 1.04086 0
M  V30 10985 H 1008.73 1.70413 2.6421 0
M  V30 10986 N 1012.5 0.357919 1.53482 0
M  V30 10987 C 1013.72 -0.237769 2.06033 0
M  V30 10988 C 1014.15 -1.42292 1.23023 0
M  V30 10989 O 1013.51 -1.79604 0.247427 0
M  V30 10990 C 1013.55 -0.616806 3.55286 0
M  V30 10991 O 1012.66 -1.71503 3.75047 0
M  V30 10992 H 1012 -0.0364322 0.663 0
M  V30 10993 H 1014.53 0.516301 1.97979 0
M  V30 10994 H 1014.54 -0.88996 3.98175 0
M  V30 10995 H 1013.21 0.249825 4.15149 0
M  V30 10996 H 1011.79 -1.43803 3.44057 0
M  V30 10997 N 1013.98 -1.5736 0.0868897 0
M  V30 10998 C 1015.2 -1.98388 -0.587349 0
M  V30 10999 C 1015.62 -0.965757 -1.6223 0
M  V30 11000 O 1014.98 0.0456981 -1.82443 0
M  V30 11001 C 1015.03 -3.39479 -1.24242 0
M  V30 11002 O 1014.75 -4.37393 -0.248878 0
M  V30 11003 C 1016.25 -3.95465 -2.00305 0
M  V30 11004 H 1013.47 -0.652111 -0.15809 0
M  V30 11005 H 1016.01 -2.03843 0.163754 0
M  V30 11006 H 1014.17 -3.35063 -1.94451 0
M  V30 11007 H 1014.58 -5.19525 -0.720678 0
M  V30 11008 H 1016.06 -4.96363 -2.41511 0
M  V30 11009 H 1016.53 -3.32832 -2.86565 0
M  V30 11010 H 1017.14 -4.03328 -1.34931 0
M  V30 11011 N 1015.45 0.186762 -1.56489 0
M  V30 11012 C 1016.7 0.907194 -1.81378 0
M  V30 11013 C 1017.03 1.82558 -0.662283 0
M  V30 11014 O 1016.31 1.91564 0.336699 0
M  V30 11015 C 1016.59 1.71624 -3.16571 0
M  V30 11016 C 1016.44 0.822009 -4.42225 0
M  V30 11017 C 1017.76 2.68713 -3.48542 0
M  V30 11018 H 1014.88 0.328366 -0.659806 0
M  V30 11019 H 1017.52 0.174142 -1.892 0
M  V30 11020 H 1015.67 2.34119 -3.10033 0
M  V30 11021 H 1017.35 0.211122 -4.60817 0
M  V30 11022 H 1015.59 0.129178 -4.33608 0
M  V30 11023 H 1016.26 1.42326 -5.33336 0
M  V30 11024 H 1018.74 2.16348 -3.55433 0
M  V30 11025 H 1017.61 3.22397 -4.44242 0
M  V30 11026 H 1017.87 3.48165 -2.72459 0
M  V30 11027 N 1016.93 1.50896 0.454776 0
M  V30 11028 C 1017.87 1.65608 1.57001 0
M  V30 11029 C 1018.84 0.50387 1.54596 0
M  V30 11030 O 1020.03 0.725485 1.7398 0
M  V30 11031 C 1017.15 1.65366 2.95587 0
M  V30 11032 C 1016.2 2.86344 3.16085 0
M  V30 11033 S 1017.03 4.47418 2.9424 0
M  V30 11034 C 1018.19 4.49895 4.35138 0
M  V30 11035 H 1018.42 2.59941 1.44285 0
M  V30 11036 H 1015.96 1.40362 0.643264 0
M  V30 11037 H 1017.91 1.65911 3.75478 0
M  V30 11038 H 1016.57 0.722407 3.0568 0
M  V30 11039 H 1015.77 2.82526 4.17367 0
M  V30 11040 H 1015.37 2.8345 2.43992 0
M  V30 11041 H 1017.66 4.24462 5.28051 0
M  V30 11042 H 1018.6 5.5161 4.43995 0
M  V30 11043 H 1019.01 3.79412 4.17979 0
M  V30 11044 N 1018.41 -0.709066 1.40748 0
M  V30 11045 C 1019.64 -1.50313 1.42901 0
M  V30 11046 C 1020.06 -1.88072 0.032213 0
M  V30 11047 O 1019.42 -1.53716 -0.96131 0
M  V30 11048 C 1019.47 -2.75074 2.33166 0
M  V30 11049 O 1018.57 -3.72036 1.7794 0
M  V30 11050 H 1017.91 -0.452934 0.485538 0
M  V30 11051 H 1020.44 -0.872712 1.85054 0
M  V30 11052 H 1020.45 -3.23532 2.48578 0
M  V30 11053 H 1019.13 -2.46927 3.34664 0
M  V30 11054 H 1017.7 -3.30911 1.71908 0
M  V30 11055 N 1019.89 -1.26353 -0.941956 0
M  V30 11056 C 1021.31 -1.03448 -1.21534 0
M  V30 11057 C 1021.51 0.240855 -2.00055 0
M  V30 11058 O 1020.56 0.950199 -2.33939 0
M  V30 11059 C 1021.87 -2.2654 -1.97737 0
M  V30 11060 C 1023.42 -2.31433 -2.10731 0
M  V30 11061 C 1023.9 -3.54216 -2.90336 0
M  V30 11062 N 1025.39 -3.54688 -2.9791 0
M  V30 11063 C 1026.12 -4.4636 -3.59931 0
M  V30 11064 N 1025.62 -5.48319 -4.2346 0
M  V30 11065 N 1027.41 -4.34013 -3.57196 0
M  V30 11066 H 1019.56 -2.08266 -0.417005 0
M  V30 11067 H 1021.83 -0.915251 -0.247021 0
M  V30 11068 H 1021.53 -3.19299 -1.47449 0
M  V30 11069 H 1021.41 -2.30726 -2.98405 0
M  V30 11070 H 1023.79 -1.3919 -2.60212 0
M  V30 11071 H 1023.87 -2.31259 -1.09329 0
M  V30 11072 H 1023.52 -4.46788 -2.41543 0
M  V30 11073 H 1023.45 -3.51637 -3.91993 0
M  V30 11074 H 1025.94 -2.80942 -2.52745 0
M  V30 11075 H 1026.25 -6.14458 -4.6868 0
M  V30 11076 H 1024.6 -5.52177 -4.22049 0
M  V30 11077 H 1027.79 -3.53578 -3.06758 0
M  V30 11078 H 1027.96 -5.0565 -4.05244 0
M  V30 11079 N 1021.37 1.14642 -1.08144 0
M  V30 11080 C 1022.33 2.17834 -0.712799 0
M  V30 11081 C 1023.33 1.58828 0.251041 0
M  V30 11082 O 1024.52 1.74173 0.0309381 0
M  V30 11083 C 1021.65 3.4086 -0.0519477 0
M  V30 11084 H 1022.85 2.51961 -1.62653 0
M  V30 11085 H 1020.4 1.29243 -0.878971 0
M  V30 11086 H 1021.13 3.12311 0.873636 0
M  V30 11087 H 1020.92 3.84952 -0.745286 0
M  V30 11088 H 1022.41 4.17163 0.191031 0
M  V30 11089 N 1022.85 0.866709 1.31628 0
M  V30 11090 C 1023.76 0.323408 2.3236 0
M  V30 11091 C 1024.77 -0.564995 1.64572 0
M  V30 11092 O 1025.95 -0.462489 1.96018 0
M  V30 11093 C 1023.01 -0.469045 3.43513 0
M  V30 11094 C 1022.07 0.446928 4.26967 0
M  V30 11095 C 1021.31 -0.307799 5.32812 0
M  V30 11096 O 1021.53 -1.5363 5.49321 0
M  V30 11097 O 1020.46 0.332653 6.0098 0
M  V30 11098 H 1024.29 1.15827 2.80745 0
M  V30 11099 H 1021.87 0.629987 1.35468 0
M  V30 11100 H 1023.76 -0.918405 4.1127 0
M  V30 11101 H 1022.43 -1.28051 2.97296 0
M  V30 11102 H 1021.34 0.944719 3.61975 0
M  V30 11103 H 1022.67 1.2239 4.76741 0
M  V30 11104 N 1024.32 -1.44642 0.625825 0
M  V30 11105 C 1025.27 -2.32408 -0.0945221 0
M  V30 11106 C 1026.27 -1.47038 -0.841198 0
M  V30 11107 O 1027.47 -1.63415 -0.754698 0
M  V30 11108 H 1023.85 -0.75038 -0.0493321 0
M  V30 11109 H 1025.82 -2.90922 0.663863 0
M  V30 11110 C 1024.57 -3.30951 -1.06615 0
M  V30 11111 H 1023.89 -3.96648 -0.501021 0
M  V30 11112 H 1025.33 -3.95054 -1.53976 0
M  V30 11113 C 1023.79 -2.59479 -2.14877 0
M  V30 11114 O 1024.32 -2.38974 -3.22885 0
M  V30 11115 N 1022.52 -2.19307 -1.90665 0
M  V30 11116 H 1022.07 -2.36184 -1.02835 0
M  V30 11117 H 1022.03 -1.71811 -2.63303 0
M  V30 11118 N 1025.8 -0.366053 -1.5329 0
M  V30 11119 C 1027.05 0.223493 -2.01263 0
M  V30 11120 C 1027.38 1.48736 -1.25331 0
M  V30 11121 O 1026.63 1.92805 -0.335341 0
M  V30 11122 C 1026.93 0.560906 -3.52971 0
M  V30 11123 C 1026.6 -0.60869 -4.46773 0
M  V30 11124 C 1025.26 -0.929609 -4.72135 0
M  V30 11125 C 1027.61 -1.39225 -5.02261 0
M  V30 11126 C 1024.94 -2.03606 -5.50238 0
M  V30 11127 C 1027.29 -2.48912 -5.81572 0
M  V30 11128 C 1025.95 -2.81538 -6.05221 0
M  V30 11129 H 1025.22 0.0817818 -0.736473 0
M  V30 11130 H 1027.87 -0.498613 -1.84895 0
M  V30 11131 H 1026.18 1.36403 -3.67289 0
M  V30 11132 H 1027.87 1.02931 -3.87564 0
M  V30 11133 H 1024.46 -0.348529 -4.27181 0
M  V30 11134 H 1028.65 -1.15757 -4.82612 0
M  V30 11135 H 1023.9 -2.29281 -5.6678 0
M  V30 11136 H 1028.08 -3.10044 -6.23575 0
M  V30 11137 H 1025.7 -3.67396 -6.65525 0
M  V30 11138 N 1027.28 1.57312 -0.0952337 0
M  V30 11139 C 1028.23 2.14032 0.863657 0
M  V30 11140 C 1029.2 1.0589 1.27971 0
M  V30 11141 O 1030.38 1.33678 1.36143 0
M  V30 11142 C 1027.52 2.72513 2.11733 0
M  V30 11143 C 1026.63 3.94887 1.7518 0
M  V30 11144 C 1025.77 4.41533 2.95334 0
M  V30 11145 C 1024.81 5.56496 2.54908 0
M  V30 11146 N 1023.95 5.97993 3.67897 0
M  V30 11147 H 1028.79 2.95655 0.373115 0
M  V30 11148 H 1026.32 1.46085 0.172497 0
M  V30 11149 H 1028.28 3.04539 2.85153 0
M  V30 11150 H 1026.91 1.93618 2.58287 0
M  V30 11151 H 1025.96 3.69175 0.917279 0
M  V30 11152 H 1027.27 4.78322 1.41455 0
M  V30 11153 H 1026.43 4.75343 3.77007 0
M  V30 11154 H 1025.17 3.56999 3.3227 0
M  V30 11155 H 1024.17 5.22314 1.71662 0
M  V30 11156 H 1025.4 6.42779 2.19117 0
M  V30 11157 H 1023.34 5.16405 4.04551 0
M  V30 11158 H 1023.26 6.76225 3.38018 0
M  V30 11159 H 1024.53 6.36434 4.5008 0
M  V30 11160 N 1028.76 -0.17846 1.56586 0
M  V30 11161 C 1029.69 -1.24547 1.92408 0
M  V30 11162 C 1030.7 -1.40849 0.816421 0
M  V30 11163 O 1031.89 -1.40979 1.09486 0
M  V30 11164 C 1028.99 -2.61523 2.15544 0
M  V30 11165 C 1028.16 -2.66613 3.46751 0
M  V30 11166 C 1027.22 -3.84901 3.588 0
M  V30 11167 O 1026.25 -3.71231 4.31482 0
M  V30 11168 N 1027.45 -5.0106 2.9312 0
M  V30 11169 H 1030.22 -0.941275 2.84535 0
M  V30 11170 H 1027.78 -0.368275 1.57656 0
M  V30 11171 H 1029.77 -3.3911 2.20876 0
M  V30 11172 H 1028.34 -2.84362 1.29835 0
M  V30 11173 H 1027.56 -1.75174 3.5314 0
M  V30 11174 H 1028.85 -2.67018 4.33104 0
M  V30 11175 H 1028.25 -5.15067 2.33928 0
M  V30 11176 H 1026.8 -5.76535 3.04057 0
M  V30 11177 N 1030.24 -1.51135 -0.446768 0
M  V30 11178 C 1031.48 -1.63578 -1.19875 0
M  V30 11179 C 1031.81 -0.346478 -1.91084 0
M  V30 11180 O 1031.09 0.653447 -1.83195 0
M  V30 11181 C 1031.37 -2.83275 -2.22323 0
M  V30 11182 C 1031.23 -4.22155 -1.55259 0
M  V30 11183 C 1032.54 -2.98496 -3.23401 0
M  V30 11184 H 1029.66 -0.595333 -0.434452 0
M  V30 11185 H 1032.31 -1.83593 -0.48923 0
M  V30 11186 H 1030.46 -2.6634 -2.82834 0
M  V30 11187 H 1032.13 -4.50736 -0.981571 0
M  V30 11188 H 1030.37 -4.25288 -0.855122 0
M  V30 11189 H 1031.04 -5.01882 -2.29823 0
M  V30 11190 H 1033.52 -3.14079 -2.72935 0
M  V30 11191 H 1032.39 -3.83828 -3.92386 0
M  V30 11192 H 1032.65 -2.10157 -3.88956 0
M  V30 11193 N 1031.71 0.701592 -1.41122 0
M  V30 11194 C 1032.62 1.84548 -1.44841 0
M  V30 11195 C 1033.64 1.70654 -0.339594 0
M  V30 11196 O 1034.82 1.92675 -0.586378 0
M  V30 11197 C 1031.88 3.20477 -1.3227 0
M  V30 11198 C 1030.94 3.46524 -2.53415 0
M  V30 11199 C 1030.17 4.75968 -2.41434 0
M  V30 11200 O 1030.4 5.52037 -1.43566 0
M  V30 11201 O 1029.33 5.02664 -3.31078 0
M  V30 11202 H 1033.16 1.84367 -2.41335 0
M  V30 11203 H 1030.74 0.853863 -1.22595 0
M  V30 11204 H 1032.62 4.01642 -1.2752 0
M  V30 11205 H 1031.3 3.21355 -0.388889 0
M  V30 11206 H 1030.21 2.65313 -2.63742 0
M  V30 11207 H 1031.54 3.50455 -3.45604 0
M  V30 11208 N 1033.19 1.2685 0.935242 0
M  V30 11209 C 1034.42 1.15371 1.71386 0
M  V30 11210 C 1034.83 -0.293048 1.86917 0
M  V30 11211 O 1034.17 -1.212 1.38044 0
M  V30 11212 C 1034.23 1.75652 3.13666 0
M  V30 11213 C 1033.9 3.24788 3.215 0
M  V30 11214 C 1034.9 4.21525 3.04323 0
M  V30 11215 C 1032.58 3.65359 3.447 0
M  V30 11216 C 1034.57 5.56812 3.10224 0
M  V30 11217 C 1032.26 5.00778 3.50235 0
M  V30 11218 C 1033.26 5.96314 3.33014 0
M  V30 11219 O 1032.95 7.29266 3.38269 0
M  V30 11220 H 1032.68 0.40234 0.54323 0
M  V30 11221 H 1035.23 1.68083 1.18056 0
M  V30 11222 H 1033.46 1.17408 3.68446 0
M  V30 11223 H 1035.15 1.58994 3.73465 0
M  V30 11224 H 1035.92 3.91519 2.86249 0
M  V30 11225 H 1031.8 2.91479 3.57157 0
M  V30 11226 H 1035.34 6.3136 2.967 0
M  V30 11227 H 1031.24 5.30444 3.67831 0
M  V30 11228 H 1032.01 7.37616 3.54774 0
M  V30 11229 N 1034.67 -1.14067 1.0875 0
M  V30 11230 C 1035.6 -2.21385 0.74236 0
M  V30 11231 C 1036.58 -1.67833 -0.276805 0
M  V30 11232 O 1037.77 -1.93647 -0.1464 0
M  V30 11233 C 1034.9 -3.46956 0.154644 0
M  V30 11234 C 1033.85 -4.13555 1.10255 0
M  V30 11235 C 1033.18 -5.3337 0.376877 0
M  V30 11236 C 1034.48 -4.6169 2.44213 0
M  V30 11237 H 1036.17 -2.50512 1.63964 0
M  V30 11238 H 1033.72 -1.20408 0.789807 0
M  V30 11239 H 1035.67 -4.21284 -0.0988419 0
M  V30 11240 H 1034.39 -3.17203 -0.777789 0
M  V30 11241 H 1033.05 -3.41186 1.34119 0
M  V30 11242 H 1032.7 -4.99879 -0.559472 0
M  V30 11243 H 1032.4 -5.78875 1.00884 0
M  V30 11244 H 1033.92 -6.10458 0.131527 0
M  V30 11245 H 1035.34 -5.27475 2.24595 0
M  V30 11246 H 1033.74 -5.17909 3.03134 0
M  V30 11247 H 1034.81 -3.76574 3.05483 0
M  V30 11248 N 1036.15 -0.873678 -1.31166 0
M  V30 11249 C 1037.08 -0.348011 -2.30892 0
M  V30 11250 C 1038.06 0.563092 -1.60509 0
M  V30 11251 O 1039.24 0.479332 -1.88192 0
M  V30 11252 C 1036.37 0.448158 -3.44396 0
M  V30 11253 C 1035.33 -0.370179 -4.26396 0
M  V30 11254 C 1034.65 0.551903 -5.31844 0
M  V30 11255 C 1035.95 -1.60624 -4.96988 0
M  V30 11256 H 1037.65 -1.18134 -2.75109 0
M  V30 11257 H 1035.19 -0.569502 -1.3226 0
M  V30 11258 H 1037.15 0.826458 -4.13216 0
M  V30 11259 H 1035.87 1.31503 -2.98956 0
M  V30 11260 H 1034.53 -0.730472 -3.59249 0
M  V30 11261 H 1034.18 1.41616 -4.82653 0
M  V30 11262 H 1033.88 0.00823478 -5.87599 0
M  V30 11263 H 1035.4 0.926965 -6.03523 0
M  V30 11264 H 1036.82 -1.29917 -5.58386 0
M  V30 11265 H 1035.21 -2.08926 -5.62557 0
M  V30 11266 H 1036.28 -2.357 -4.23761 0
M  V30 11267 N 1037.63 1.44308 -0.633487 0
M  V30 11268 C 1038.88 2.01239 -0.136356 0
M  V30 11269 C 1039.19 1.50438 1.25011 0
M  V30 11270 O 1040.39 1.99513 1.84138 0
M  V30 11271 C 1038.85 3.59382 -0.193011 0
M  V30 11272 C 1038.46 4.19178 -1.58093 0
M  V30 11273 C 1040.2 4.23778 0.247534 0
M  V30 11274 C 1038.11 5.69553 -1.59258 0
M  V30 11275 H 1037.04 0.752521 -0.0472109 0
M  V30 11276 H 1039.69 1.65498 -0.79263 0
M  V30 11277 H 1038.07 3.92432 0.530408 0
M  V30 11278 H 1039.25 3.97662 -2.32813 0
M  V30 11279 H 1037.56 3.67079 -1.96576 0
M  V30 11280 H 1040.16 5.34075 0.258401 0
M  V30 11281 H 1040.5 3.96285 1.27529 0
M  V30 11282 H 1041.03 3.9554 -0.423469 0
M  V30 11283 H 1037.77 6.01784 -2.59878 0
M  V30 11284 H 1037.29 5.93185 -0.888352 0
M  V30 11285 H 1038.97 6.33234 -1.32756 0
M  V30 11286 N 1039.1 0.374177 1.53094 0
M  V30 11287 C 1040.05 -0.484848 2.22785 0
M  V30 11288 C 1041.04 -1.04181 1.22617 0
M  V30 11289 O 1042.23 -0.97043 1.48026 0
M  V30 11290 C 1039.36 -1.61956 3.02696 0
M  V30 11291 C 1038.45 -1.07506 4.10248 0
M  V30 11292 N 1038.84 -0.254253 5.05161 0
M  V30 11293 C 1037.13 -1.34904 4.25108 0
M  V30 11294 C 1037.84 0.0448558 5.81683 0
M  V30 11295 N 1036.81 -0.555073 5.40759 0
M  V30 11296 H 1040.61 0.148976 2.93522 0
M  V30 11297 H 1038.13 0.182656 1.6137 0
M  V30 11298 H 1040.12 -2.24723 3.51148 0
M  V30 11299 H 1038.78 -2.25636 2.33492 0
M  V30 11300 H 1039.8 0.107256 5.17789 0
M  V30 11301 H 1036.47 -1.98799 3.67131 0
M  V30 11302 H 1037.86 0.708952 6.68149 0
M  V30 11303 N 1040.58 -1.57259 0.103575 0
M  V30 11304 C 1041.83 -1.94272 -0.557024 0
M  V30 11305 C 1042.15 -0.986739 -1.68192 0
M  V30 11306 O 1041.42 -0.0402818 -1.95859 0
M  V30 11307 H 1040 -0.717237 -0.208757 0
M  V30 11308 H 1042.66 -1.94167 0.168898 0
M  V30 11309 H 1041.76 -2.96914 -0.961691 0
M  V30 11310 N 1042.06 0.170153 -1.56679 0
M  V30 11311 C 1043.29 0.902134 -1.86197 0
M  V30 11312 C 1043.7 1.75775 -0.689098 0
M  V30 11313 O 1043.06 1.79271 0.341763 0
M  V30 11314 C 1043.11 1.77792 -3.14757 0
M  V30 11315 O 1042.83 0.956817 -4.27524 0
M  V30 11316 C 1044.33 2.61947 -3.57629 0
M  V30 11317 H 1041.55 0.262026 -0.617724 0
M  V30 11318 H 1044.1 0.169899 -2.03793 0
M  V30 11319 H 1042.25 2.46348 -2.98984 0
M  V30 11320 H 1042.67 1.5559 -5.00891 0
M  V30 11321 H 1044.14 3.19011 -4.50484 0
M  V30 11322 H 1044.62 3.36873 -2.81803 0
M  V30 11323 H 1045.22 1.98721 -3.76019 0
M  V30 11324 N 1043.54 1.5137 0.438746 0
M  V30 11325 C 1044.5 1.71993 1.51496 0
M  V30 11326 C 1045.5 0.589978 1.49586 0
M  V30 11327 O 1046.69 0.857505 1.51633 0
M  V30 11328 C 1043.82 1.77508 2.91039 0
M  V30 11329 H 1045.02 2.68041 1.34514 0
M  V30 11330 H 1042.57 1.41338 0.667326 0
M  V30 11331 H 1043.3 0.832698 3.13427 0
M  V30 11332 H 1043.09 2.59627 2.9383 0
M  V30 11333 H 1044.58 1.95308 3.69113 0
M  V30 11334 N 1045.02 -0.694098 1.41492 0
M  V30 11335 C 1046.29 -1.44875 1.31418 0
M  V30 11336 C 1046.67 -2.11022 -0.0575538 0
M  V30 11337 O 1046.02 -2.01799 -1.07188 0
M  V30 11338 C 1046.23 -2.46698 2.46863 0
M  V30 11339 C 1047.58 -3.11907 2.88095 0
M  V30 11340 O 1048.6 -2.57022 2.46613 0
M  V30 11341 O 1047.46 -4.11318 3.59833 0
M  V30 11342 H 1044.56 -0.645266 0.517263 0
M  V30 11343 H 1047.1 -0.724452 1.53459 0
M  V30 11344 H 1045.87 -1.96485 3.38392 0
M  V30 11345 H 1045.5 -3.26634 2.26706 0
M  V30 11346 N 1046.49 -1.27344 -0.928501 0
M  V30 11347 C 1047.77 -1.04362 -1.65433 0
M  V30 11348 C 1048.15 0.421896 -2.06841 0
M  V30 11349 O 1047.5 1.40496 -1.80203 0
M  V30 11350 C 1047.71 -2.00442 -2.85699 0
M  V30 11351 C 1049.06 -2.29767 -3.57061 0
M  V30 11352 O 1050.08 -1.98409 -2.95825 0
M  V30 11353 O 1048.94 -2.83217 -4.67387 0
M  V30 11354 H 1046.03 -0.397783 -0.72505 0
M  V30 11355 H 1048.58 -1.38606 -0.979109 0
M  V30 11356 H 1047.35 -2.99281 -2.52085 0
M  V30 11357 H 1046.98 -1.66755 -3.60941 0
M  V30 11358 N 1047.97 1.13488 -1.09353 0
M  V30 11359 C 1048.92 2.20949 -0.726923 0
M  V30 11360 C 1049.91 1.67205 0.271816 0
M  V30 11361 O 1051.12 1.79505 0.133356 0
M  V30 11362 H 1047.5 0.719985 -0.217086 0
M  V30 11363 H 1049.47 2.49134 -1.6424 0
M  V30 11364 C 1048.22 3.47319 -0.162822 0
M  V30 11365 H 1047.54 3.89011 -0.922527 0
M  V30 11366 H 1048.98 4.23963 0.0557734 0
M  V30 11367 C 1047.44 3.18376 1.10175 0
M  V30 11368 O 1047.97 3.3707 2.18511 0
M  V30 11369 N 1046.17 2.72262 1.01597 0
M  V30 11370 H 1045.72 2.5725 0.134289 0
M  V30 11371 H 1045.68 2.53272 1.86281 0
M  V30 11372 N 1049.45 0.880621 1.30701 0
M  V30 11373 C 1050.7 0.497611 1.966 0
M  V30 11374 C 1051.03 -0.949901 1.69383 0
M  V30 11375 O 1050.31 -1.67054 0.996152 0
M  V30 11376 C 1050.59 0.767919 3.51817 0
M  V30 11377 C 1050.44 2.26574 3.88567 0
M  V30 11378 C 1051.76 0.241502 4.39437 0
M  V30 11379 H 1048.88 0.182267 0.714106 0
M  V30 11380 H 1051.52 1.10382 1.54648 0
M  V30 11381 H 1049.67 0.251967 3.87682 0
M  V30 11382 H 1051.34 2.84977 3.62748 0
M  V30 11383 H 1049.59 2.73411 3.36792 0
M  V30 11384 H 1050.26 2.40549 4.9683 0
M  V30 11385 H 1052.73 0.683051 4.10455 0
M  V30 11386 H 1051.61 0.459997 5.46969 0
M  V30 11387 H 1051.87 -0.857068 4.33713 0
M  V30 11388 N 1050.93 -1.4397 0.641131 0
M  V30 11389 C 1051.88 -2.2786 -0.079879 0
M  V30 11390 C 1052.86 -1.39227 -0.80651 0
M  V30 11391 O 1054.06 -1.62956 -0.690969 0
M  V30 11392 C 1051.18 -3.26722 -1.05394 0
M  V30 11393 C 1050.27 -4.22842 -0.326411 0
M  V30 11394 N 1050.66 -5.016 0.650464 0
M  V30 11395 C 1048.96 -4.42349 -0.569507 0
M  V30 11396 C 1049.66 -5.71563 1.08121 0
M  V30 11397 N 1048.64 -5.41991 0.417932 0
M  V30 11398 H 1052.44 -2.86163 0.669906 0
M  V30 11399 H 1049.95 -1.55528 0.467433 0
M  V30 11400 H 1051.95 -3.85588 -1.58517 0
M  V30 11401 H 1050.61 -2.69979 -1.80392 0
M  V30 11402 H 1051.62 -5.07581 1.0287 0
M  V30 11403 H 1048.3 -3.96693 -1.30159 0
M  V30 11404 H 1049.69 -6.44805 1.88883 0
M  V30 11405 N 1052.41 -0.382291 -1.52893 0
M  V30 11406 C 1053.65 0.202133 -2.01489 0
M  V30 11407 C 1053.98 1.47399 -1.26901 0
M  V30 11408 O 1053.24 1.92439 -0.355771 0
M  V30 11409 C 1053.54 0.523437 -3.53546 0
M  V30 11410 C 1053.2 -0.656042 -4.46102 0
M  V30 11411 C 1051.86 -0.979633 -4.71123 0
M  V30 11412 C 1054.22 -1.44545 -5.00756 0
M  V30 11413 C 1051.54 -2.0943 -5.48047 0
M  V30 11414 C 1053.9 -2.55066 -5.78899 0
M  V30 11415 C 1052.56 -2.87942 -6.02201 0
M  V30 11416 H 1051.83 0.0739659 -0.737299 0
M  V30 11417 H 1054.48 -0.518196 -1.84356 0
M  V30 11418 H 1052.78 1.325 -3.68715 0
M  V30 11419 H 1054.48 0.988148 -3.88634 0
M  V30 11420 H 1051.07 -0.393818 -4.26787 0
M  V30 11421 H 1055.25 -1.20869 -4.81357 0
M  V30 11422 H 1050.51 -2.3528 -5.64317 0
M  V30 11423 H 1054.68 -3.1664 -6.20252 0
M  V30 11424 H 1052.31 -3.74435 -6.61591 0
M  V30 11425 N 1053.89 1.57202 -0.111913 0
M  V30 11426 C 1054.82 2.11995 0.871242 0
M  V30 11427 C 1055.83 1.06102 1.23475 0
M  V30 11428 O 1057.02 1.33497 1.18494 0
M  V30 11429 C 1054.12 2.59874 2.17528 0
M  V30 11430 C 1053.29 3.89788 1.98455 0
M  V30 11431 C 1052.35 4.23339 3.12523 0
M  V30 11432 O 1051.38 4.92277 2.85748 0
M  V30 11433 N 1052.58 3.80089 4.38762 0
M  V30 11434 H 1055.34 2.96976 0.403157 0
M  V30 11435 H 1052.91 1.61737 0.0727159 0
M  V30 11436 H 1054.9 2.79354 2.9282 0
M  V30 11437 H 1053.47 1.79812 2.55707 0
M  V30 11438 H 1052.69 3.79288 1.07396 0
M  V30 11439 H 1053.98 4.74748 1.83007 0
M  V30 11440 H 1053.37 3.24473 4.63394 0
M  V30 11441 H 1051.93 4.04691 5.10949 0
M  V30 11442 N 1055.36 -0.161842 1.56767 0
M  V30 11443 C 1056.3 -1.22499 1.93718 0
M  V30 11444 C 1057.31 -1.39975 0.831314 0
M  V30 11445 O 1058.5 -1.3981 1.10975 0
M  V30 11446 C 1055.6 -2.59222 2.18306 0
M  V30 11447 C 1054.77 -2.6292 3.4956 0
M  V30 11448 C 1053.83 -3.81074 3.62863 0
M  V30 11449 O 1052.86 -3.66633 4.35395 0
M  V30 11450 N 1054.06 -4.97923 2.98418 0
M  V30 11451 H 1056.82 -0.911043 2.85517 0
M  V30 11452 H 1054.38 -0.351533 1.58038 0
M  V30 11453 H 1056.38 -3.36749 2.24461 0
M  V30 11454 H 1054.95 -2.82969 1.32844 0
M  V30 11455 H 1054.17 -1.71418 3.54978 0
M  V30 11456 H 1055.45 -2.62409 4.35911 0
M  V30 11457 H 1054.85 -5.12557 2.39378 0
M  V30 11458 H 1053.41 -5.73277 3.10155 0
M  V30 11459 N 1056.84 -1.516 -0.430713 0
M  V30 11460 C 1058.07 -1.687 -1.20644 0
M  V30 11461 C 1058.49 -0.386555 -1.84085 0
M  V30 11462 O 1057.85 0.653952 -1.69095 0
M  V30 11463 C 1057.9 -2.80887 -2.2613 0
M  V30 11464 O 1057 -2.44952 -3.31772 0
M  V30 11465 H 1056.34 -0.562289 -0.353167 0
M  V30 11466 H 1058.87 -1.98198 -0.507807 0
M  V30 11467 H 1058.88 -3.05167 -2.70809 0
M  V30 11468 H 1057.56 -3.75249 -1.79334 0
M  V30 11469 H 1056.13 -2.31267 -2.92523 0
M  V30 11470 N 1058.32 0.686584 -1.41858 0
M  V30 11471 C 1059.28 1.78214 -1.44126 0
M  V30 11472 C 1060.28 1.57366 -0.330541 0
M  V30 11473 O 1061.47 1.63874 -0.590837 0
M  V30 11474 C 1058.6 3.16704 -1.26142 0
M  V30 11475 H 1059.8 1.77594 -2.41661 0
M  V30 11476 H 1057.35 0.895085 -1.28132 0
M  V30 11477 H 1058.09 3.22957 -0.294823 0
M  V30 11478 H 1057.87 3.33238 -2.06627 0
M  V30 11479 H 1059.36 3.96658 -1.30584 0
M  V30 11480 N 1059.8 1.27835 0.921735 0
M  V30 11481 C 1060.73 1.06874 2.02758 0
M  V30 11482 C 1061.74 0.0229418 1.62784 0
M  V30 11483 O 1062.93 0.265145 1.7652 0
M  V30 11484 C 1060.03 0.60037 3.3354 0
M  V30 11485 C 1059.2 1.71979 4.02172 0
M  V30 11486 C 1058.26 1.24615 5.11231 0
M  V30 11487 O 1057.29 1.94692 5.34868 0
M  V30 11488 N 1058.49 0.105021 5.80405 0
M  V30 11489 H 1061.26 2.02105 2.213 0
M  V30 11490 H 1058.82 1.19481 1.09251 0
M  V30 11491 H 1060.81 0.267281 4.03816 0
M  V30 11492 H 1059.38 -0.258872 3.11526 0
M  V30 11493 H 1058.6 2.22287 3.25549 0
M  V30 11494 H 1059.89 2.47092 4.44773 0
M  V30 11495 H 1059.29 -0.479745 5.63662 0
M  V30 11496 H 1057.84 -0.168846 6.51581 0
M  V30 11497 N 1061.28 -1.12907 1.09954 0
M  V30 11498 C 1062.52 -1.83661 0.833761 0
M  V30 11499 C 1062.84 -1.84736 -0.642798 0
M  V30 11500 O 1064.04 -2.51437 -1.0243 0
M  V30 11501 C 1062.5 -3.29763 1.44168 0
M  V30 11502 C 1062.11 -3.3706 2.95118 0
M  V30 11503 C 1063.85 -4.05522 1.25509 0
M  V30 11504 C 1061.76 -4.77467 3.48969 0
M  V30 11505 H 1060.69 -0.688115 0.308242 0
M  V30 11506 H 1063.34 -1.27166 1.32291 0
M  V30 11507 H 1061.72 -3.86094 0.880215 0
M  V30 11508 H 1062.9 -2.90695 3.57537 0
M  V30 11509 H 1061.21 -2.7477 3.12874 0
M  V30 11510 H 1063.81 -5.09188 1.63191 0
M  V30 11511 H 1064.15 -4.15837 0.196208 0
M  V30 11512 H 1064.68 -3.55536 1.78435 0
M  V30 11513 H 1061.42 -4.72344 4.54501 0
M  V30 11514 H 1060.94 -5.24305 2.91315 0
M  V30 11515 H 1062.62 -5.46397 3.46495 0
M  V30 11516 N 1062.75 -0.88754 -1.30232 0
M  V30 11517 C 1063.98 -0.521562 -2.00735 0
M  V30 11518 C 1064.4 0.883247 -1.66073 0
M  V30 11519 O 1063.76 1.58581 -0.878731 0
M  V30 11520 C 1063.81 -0.706521 -3.53611 0
M  V30 11521 O 1062.91 0.246447 -4.11663 0
M  V30 11522 H 1062.25 -0.205216 -0.631492 0
M  V30 11523 H 1064.78 -1.19579 -1.66018 0
M  V30 11524 H 1064.79 -0.606501 -4.03467 0
M  V30 11525 H 1063.47 -1.73076 -3.78177 0
M  V30 11526 H 1062.05 0.0999062 -3.72766 0
M  V30 11527 N 1064.23 1.43628 -0.648757 0
M  V30 11528 C 1065.18 2.30755 0.0455536 0
M  V30 11529 C 1066.15 1.44495 0.819168 0
M  V30 11530 O 1067.33 1.73372 0.79667 0
M  V30 11531 C 1064.47 3.30017 1.00908 0
M  V30 11532 C 1063.59 4.31376 0.232039 0
M  V30 11533 C 1062.72 5.17723 1.18897 0
M  V30 11534 C 1061.76 6.10778 0.402096 0
M  V30 11535 N 1060.9 6.89763 1.31038 0
M  V30 11536 H 1065.74 2.89581 -0.70332 0
M  V30 11537 H 1063.28 1.42662 -0.3586 0
M  V30 11538 H 1065.23 3.86072 1.58128 0
M  V30 11539 H 1063.86 2.72851 1.72488 0
M  V30 11540 H 1062.92 3.77652 -0.456373 0
M  V30 11541 H 1064.23 4.9735 -0.380023 0
M  V30 11542 H 1063.38 5.78381 1.83194 0
M  V30 11543 H 1062.12 4.51864 1.83494 0
M  V30 11544 H 1061.13 5.49212 -0.254255 0
M  V30 11545 H 1062.35 6.78678 -0.239411 0
M  V30 11546 H 1060.3 6.26557 1.94324 0
M  V30 11547 H 1060.21 7.52243 0.752774 0
M  V30 11548 H 1061.48 7.54931 1.94164 0
M  V30 11549 N 1065.71 0.390394 1.52688 0
M  V30 11550 C 1066.67 -0.432149 2.25089 0
M  V30 11551 C 1067.67 -0.989296 1.26766 0
M  V30 11552 O 1068.86 -0.871126 1.50854 0
M  V30 11553 C 1066 -1.60642 3.00678 0
M  V30 11554 H 1067.19 0.201734 2.99221 0
M  V30 11555 H 1064.74 0.142531 1.55649 0
M  V30 11556 H 1065.48 -2.2777 2.3085 0
M  V30 11557 H 1065.26 -1.21361 3.72846 0
M  V30 11558 H 1066.75 -2.18873 3.55647 0
M  V30 11559 N 1067.19 -1.57141 0.120249 0
M  V30 11560 C 1068.12 -2.18398 -0.826112 0
M  V30 11561 C 1069.1 -1.12439 -1.27638 0
M  V30 11562 O 1070.28 -1.40679 -1.33877 0
M  V30 11563 C 1067.41 -2.78438 -2.0758 0
M  V30 11564 C 1066.37 -3.89991 -1.76327 0
M  V30 11565 C 1065.69 -4.36844 -3.08336 0
M  V30 11566 C 1066.99 -5.12031 -1.03062 0
M  V30 11567 H 1068.69 -2.97731 -0.315656 0
M  V30 11568 H 1066.23 -1.43213 -0.150387 0
M  V30 11569 H 1068.19 -3.19951 -2.74243 0
M  V30 11570 H 1066.91 -1.96396 -2.60953 0
M  V30 11571 H 1065.57 -3.49055 -1.12053 0
M  V30 11572 H 1065.22 -3.51659 -3.59646 0
M  V30 11573 H 1064.92 -5.1207 -2.88199 0
M  V30 11574 H 1066.44 -4.81009 -3.76116 0
M  V30 11575 H 1067.86 -5.50555 -1.59881 0
M  V30 11576 H 1066.25 -5.92848 -0.930146 0
M  V30 11577 H 1067.32 -4.84897 -0.017582 0
M  V30 11578 N 1068.67 0.153526 -1.5685 0
M  V30 11579 C 1069.91 0.868517 -1.83261 0
M  V30 11580 C 1070.25 1.81112 -0.700857 0
M  V30 11581 O 1069.52 1.92235 0.295989 0
M  V30 11582 C 1069.8 1.6487 -3.2014 0
M  V30 11583 C 1069.66 0.728021 -4.43869 0
M  V30 11584 C 1070.98 2.61259 -3.54163 0
M  V30 11585 H 1068.09 0.314297 -0.666623 0
M  V30 11586 H 1070.74 0.133971 -1.89527 0
M  V30 11587 H 1068.89 2.2749 -3.1493 0
M  V30 11588 H 1070.56 0.113328 -4.61161 0
M  V30 11589 H 1068.8 0.0371744 -4.33784 0
M  V30 11590 H 1069.47 1.30981 -5.36235 0
M  V30 11591 H 1071.95 2.0876 -3.59942 0
M  V30 11592 H 1070.82 3.12902 -4.50981 0
M  V30 11593 H 1071.09 3.42307 -2.79782 0
M  V30 11594 N 1070.14 1.51827 0.422667 0
M  V30 11595 C 1071.42 1.55772 1.18299 0
M  V30 11596 C 1071.8 0.330657 2.08494 0
M  V30 11597 O 1071.15 -0.683373 2.18042 0
M  V30 11598 C 1071.36 2.87941 1.97208 0
M  V30 11599 C 1072.71 3.4044 2.53744 0
M  V30 11600 O 1073.73 2.8959 2.07403 0
M  V30 11601 O 1072.59 4.29201 3.38303 0
M  V30 11602 H 1069.68 0.626889 0.539388 0
M  V30 11603 H 1072.23 1.64147 0.430545 0
M  V30 11604 H 1071 3.68702 1.31052 0
M  V30 11605 H 1070.63 2.82795 2.79486 0
M  V30 11606 N 1071.62 -0.679052 1.4222 0
M  V30 11607 C 1072.87 -1.44125 1.42674 0
M  V30 11608 C 1073.2 -1.94156 0.041438 0
M  V30 11609 O 1072.48 -1.70628 -0.93361 0
M  V30 11610 C 1072.76 -2.64133 2.44756 0
M  V30 11611 C 1072.61 -2.19761 3.9246 0
M  V30 11612 C 1073.93 -3.66347 2.43881 0
M  V30 11613 H 1071.05 -0.522729 0.519541 0
M  V30 11614 H 1073.69 -0.772067 1.73606 0
M  V30 11615 H 1071.84 -3.21225 2.1851 0
M  V30 11616 H 1073.51 -1.67869 4.29671 0
M  V30 11617 H 1071.76 -1.51377 4.06531 0
M  V30 11618 H 1072.43 -3.05944 4.59459 0
M  V30 11619 H 1074.9 -3.18963 2.67211 0
M  V30 11620 H 1073.78 -4.47902 3.17293 0
M  V30 11621 H 1074.04 -4.17183 1.46325 0
M  V30 11622 N 1073.1 -1.28322 -0.914942 0
M  V30 11623 C 1074.35 -1.15179 -1.66067 0
M  V30 11624 C 1074.67 0.300279 -1.92674 0
M  V30 11625 O 1073.94 1.20821 -1.54205 0
M  V30 11626 H 1072.52 -0.423264 -0.615513 0
M  V30 11627 H 1075.18 -1.61034 -1.09791 0
M  V30 11628 H 1074.28 -1.69048 -2.62353 0
M  V30 11629 N 1074.58 1.12322 -1.10551 0
M  V30 11630 C 1075.82 1.8413 -0.849932 0
M  V30 11631 C 1076.16 1.83938 0.622946 0
M  V30 11632 O 1075.43 1.28579 1.45937 0
M  V30 11633 C 1075.72 3.31751 -1.40048 0
M  V30 11634 C 1075.57 3.40391 -2.9403 0
M  V30 11635 C 1076.89 4.27543 -1.04379 0
M  V30 11636 H 1074.01 0.668533 -0.310213 0
M  V30 11637 H 1076.65 1.31766 -1.36886 0
M  V30 11638 H 1074.8 3.76475 -0.959102 0
M  V30 11639 H 1076.47 3.04294 -3.46703 0
M  V30 11640 H 1074.71 2.809 -3.30571 0
M  V30 11641 H 1075.38 4.44252 -3.27635 0
M  V30 11642 H 1077.86 3.90951 -1.42466 0
M  V30 11643 H 1076.74 5.2924 -1.4559 0
M  V30 11644 H 1077 4.42075 0.0466316 0
M  V30 11645 N 1076.06 0.894434 1.2976 0
M  V30 11646 C 1077.33 0.437365 1.90648 0
M  V30 11647 C 1077.71 -1.08261 1.81226 0
M  V30 11648 O 1077.06 -1.92213 1.23557 0
M  V30 11649 C 1077.27 0.946047 3.35933 0
M  V30 11650 C 1078.62 0.986621 4.12978 0
M  V30 11651 O 1079.64 0.893356 3.44815 0
M  V30 11652 O 1078.5 1.12591 5.34776 0
M  V30 11653 H 1075.6 0.135436 0.815835 0
M  V30 11654 H 1078.14 0.983955 1.38262 0
M  V30 11655 H 1076.91 1.98998 3.3692 0
M  V30 11656 H 1076.54 0.379164 3.95788 0
M  V30 11657 N 1077.53 -1.43282 0.656365 0
M  V30 11658 C 1078.78 -2.01776 0.171039 0
M  V30 11659 C 1079.11 -1.51795 -1.21609 0
M  V30 11660 O 1078.36 -0.702864 -1.82643 0
M  V30 11661 C 1078.66 -3.57148 0.134225 0
M  V30 11662 C 1078.33 -4.26488 1.46352 0
M  V30 11663 C 1076.99 -4.45146 1.82753 0
M  V30 11664 C 1079.34 -4.65728 2.33981 0
M  V30 11665 C 1076.67 -5.0031 3.06443 0
M  V30 11666 C 1079.02 -5.22263 3.56966 0
M  V30 11667 C 1077.69 -5.39136 3.93559 0
M  V30 11668 H 1076.96 -0.738352 0.0625878 0
M  V30 11669 H 1079.6 -1.71716 0.847697 0
M  V30 11670 H 1077.91 -3.86768 -0.625892 0
M  V30 11671 H 1079.61 -4.00168 -0.258207 0
M  V30 11672 H 1076.2 -4.12313 1.1703 0
M  V30 11673 H 1080.38 -4.51003 2.07148 0
M  V30 11674 H 1075.64 -5.11559 3.34839 0
M  V30 11675 H 1079.81 -5.51614 4.25082 0
M  V30 11676 H 1077.44 -5.81646 4.89481 0
M  V30 11677 N 1079.01 -0.398486 -1.52479 0
M  V30 11678 C 1079.95 0.467426 -2.24383 0
M  V30 11679 C 1080.96 1.01908 -1.26959 0
M  V30 11680 O 1082.15 0.919843 -1.52974 0
M  V30 11681 C 1079.25 1.66146 -2.95379 0
M  V30 11682 C 1078.42 1.23557 -4.19586 0
M  V30 11683 C 1077.48 2.29532 -4.73499 0
M  V30 11684 O 1076.51 1.90561 -5.36354 0
M  V30 11685 N 1077.71 3.61564 -4.5415 0
M  V30 11686 H 1080.47 -0.148653 -2.99331 0
M  V30 11687 H 1078.03 -0.225313 -1.60325 0
M  V30 11688 H 1080.03 2.36585 -3.28344 0
M  V30 11689 H 1078.6 2.18369 -2.23682 0
M  V30 11690 H 1077.82 0.359715 -3.92555 0
M  V30 11691 H 1079.1 0.927812 -5.00269 0
M  V30 11692 H 1078.5 3.95983 -4.03998 0
M  V30 11693 H 1077.06 4.2801 -4.9158 0
M  V30 11694 N 1080.49 1.57075 -0.12858 0
M  V30 11695 C 1081.45 2.14643 0.803813 0
M  V30 11696 C 1082.45 1.08363 1.18803 0
M  V30 11697 O 1083.64 1.34093 1.11197 0
M  V30 11698 C 1080.78 2.6945 2.08829 0
M  V30 11699 H 1081.97 2.98362 0.303347 0
M  V30 11700 H 1079.52 1.55833 0.120735 0
M  V30 11701 H 1080.26 1.89345 2.63285 0
M  V30 11702 H 1080.04 3.47187 1.82218 0
M  V30 11703 H 1081.53 3.13865 2.7546 0
M  V30 11704 N 1081.97 -0.145205 1.5693 0
M  V30 11705 C 1082.9 -1.20881 1.93553 0
M  V30 11706 C 1083.88 -1.41467 0.801612 0
M  V30 11707 O 1085.06 -1.5605 1.05739 0
M  V30 11708 C 1082.19 -2.5674 2.20912 0
M  V30 11709 C 1081.24 -2.52738 3.43549 0
M  V30 11710 S 1082.07 -1.99257 4.97048 0
M  V30 11711 C 1083.23 -3.36842 5.27531 0
M  V30 11712 H 1083.46 -0.896362 2.83465 0
M  V30 11713 H 1080.99 -0.350894 1.5036 0
M  V30 11714 H 1082.95 -3.34923 2.37354 0
M  V30 11715 H 1081.61 -2.85174 1.31661 0
M  V30 11716 H 1080.8 -3.52753 3.59974 0
M  V30 11717 H 1080.41 -1.82665 3.26358 0
M  V30 11718 H 1082.7 -4.32958 5.21108 0
M  V30 11719 H 1083.64 -3.25268 6.28973 0
M  V30 11720 H 1084.05 -3.3406 4.55043 0
M  V30 11721 N 1083.45 -1.52049 -0.414609 0
M  V30 11722 C 1084.69 -1.67041 -1.16056 0
M  V30 11723 C 1085.05 -0.392768 -1.88348 0
M  V30 11724 O 1084.34 0.612547 -1.81545 0
M  V30 11725 C 1084.54 -2.82735 -2.18622 0
M  V30 11726 C 1084.36 -4.21627 -1.564 0
M  V30 11727 C 1083.13 -4.87234 -1.33907 0
M  V30 11728 C 1085.33 -5.03924 -1.02785 0
M  V30 11729 N 1083.31 -6.10175 -0.67521 0
M  V30 11730 C 1084.69 -6.18056 -0.490589 0
M  V30 11731 C 1086.74 -4.89293 -0.921791 0
M  V30 11732 C 1085.44 -7.19159 0.14234 0
M  V30 11733 C 1087.47 -5.90625 -0.302724 0
M  V30 11734 C 1086.83 -7.04044 0.223891 0
M  V30 11735 H 1082.93 -0.664947 -0.411544 0
M  V30 11736 H 1085.51 -1.89339 -0.453743 0
M  V30 11737 H 1083.69 -2.62062 -2.86668 0
M  V30 11738 H 1085.42 -2.86792 -2.85539 0
M  V30 11739 H 1082.17 -4.45499 -1.60709 0
M  V30 11740 H 1082.6 -6.76042 -0.360062 0
M  V30 11741 H 1087.24 -4.01838 -1.31477 0
M  V30 11742 H 1084.96 -8.06244 0.547392 0
M  V30 11743 H 1088.54 -5.81375 -0.222252 0
M  V30 11744 H 1087.42 -7.81111 0.695377 0
M  V30 11745 N 1084.93 0.6715 -1.42579 0
M  V30 11746 C 1086.16 1.4576 -1.46416 0
M  V30 11747 C 1086.56 1.89051 -0.0749843 0
M  V30 11748 O 1085.91 1.58927 0.921296 0
M  V30 11749 C 1085.97 2.7365 -2.33144 0
M  V30 11750 C 1085.63 2.52414 -3.80968 0
M  V30 11751 C 1086.63 2.16804 -4.72538 0
M  V30 11752 C 1084.31 2.67306 -4.25268 0
M  V30 11753 C 1086.31 1.96358 -6.06401 0
M  V30 11754 C 1084 2.46475 -5.5919 0
M  V30 11755 C 1084.99 2.11055 -6.49573 0
M  V30 11756 O 1084.68 1.90428 -7.8102 0
M  V30 11757 H 1084.41 0.454896 -0.500045 0
M  V30 11758 H 1086.97 0.832198 -1.87786 0
M  V30 11759 H 1085.2 3.38684 -1.86629 0
M  V30 11760 H 1086.89 3.35543 -2.28398 0
M  V30 11761 H 1087.65 2.04891 -4.39596 0
M  V30 11762 H 1083.53 2.93854 -3.55206 0
M  V30 11763 H 1087.08 1.68634 -6.76911 0
M  V30 11764 H 1082.97 2.57985 -5.91704 0
M  V30 11765 H 1083.74 2.05 -7.92412 0
M  V30 11766 N 1086.4 1.28806 0.908124 0
M  V30 11767 C 1087.63 1.19153 1.69146 0
M  V30 11768 C 1088.05 -0.249056 1.8715 0
M  V30 11769 O 1087.4 -1.16772 1.40251 0
M  V30 11770 C 1087.45 1.89167 3.08055 0
M  V30 11771 O 1087.18 3.27599 2.90879 0
M  V30 11772 C 1088.68 1.85886 4.02444 0
M  V30 11773 H 1085.9 0.413359 0.528559 0
M  V30 11774 H 1088.44 1.7003 1.13622 0
M  V30 11775 H 1086.6 1.42146 3.60379 0
M  V30 11776 H 1087.01 3.62743 3.78837 0
M  V30 11777 H 1088.48 2.39454 4.97359 0
M  V30 11778 H 1088.96 0.832483 4.31238 0
M  V30 11779 H 1089.57 2.32612 3.5605 0
M  V30 11780 N 1087.88 -1.11734 1.11145 0
M  V30 11781 C 1089.16 -1.79795 0.770261 0
M  V30 11782 C 1089.54 -1.97624 -0.742158 0
M  V30 11783 O 1088.89 -1.55847 -1.67105 0
M  V30 11784 C 1089.1 -3.13684 1.52982 0
M  V30 11785 C 1090.44 -3.88771 1.70711 0
M  V30 11786 O 1091.47 -3.23363 1.49381 0
M  V30 11787 O 1090.33 -5.06134 2.06132 0
M  V30 11788 H 1087.42 -0.778617 0.27872 0
M  V30 11789 H 1089.97 -1.18504 1.2147 0
M  V30 11790 H 1088.74 -2.96043 2.55879 0
M  V30 11791 H 1088.36 -3.82687 1.07873 0
M  V30 11792 N 1089.36 -0.901303 -1.29284 0
M  V30 11793 C 1090.27 -0.3849 -2.31421 0
M  V30 11794 C 1091.29 0.521163 -1.66012 0
M  V30 11795 O 1092.46 0.410356 -1.97175 0
M  V30 11796 C 1089.53 0.377804 -3.44635 0
M  V30 11797 C 1088.59 -0.559974 -4.25632 0
M  V30 11798 C 1087.82 0.166425 -5.3344 0
M  V30 11799 O 1088.04 1.39012 -5.53202 0
M  V30 11800 O 1086.98 -0.491875 -5.99887 0
M  V30 11801 H 1090.8 -1.2323 -2.77575 0
M  V30 11802 H 1088.39 -0.665683 -1.3375 0
M  V30 11803 H 1090.27 0.809041 -4.13561 0
M  V30 11804 H 1088.95 1.20124 -3.00586 0
M  V30 11805 H 1087.85 -1.04036 -3.59343 0
M  V30 11806 H 1089.19 -1.34987 -4.73328 0
M  V30 11807 N 1090.84 1.42931 -0.663954 0
M  V30 11808 C 1092.11 1.95284 -0.111174 0
M  V30 11809 C 1092.49 1.60484 1.37142 0
M  V30 11810 O 1091.84 0.895425 2.10225 0
M  V30 11811 C 1092.05 3.47046 -0.368789 0
M  V30 11812 C 1093.4 4.23679 -0.279473 0
M  V30 11813 O 1094.42 3.54918 -0.301937 0
M  V30 11814 O 1093.28 5.46087 -0.21236 0
M  V30 11815 H 1090.38 0.826993 0.00341718 0
M  V30 11816 H 1092.92 1.52816 -0.737935 0
M  V30 11817 H 1091.7 3.65541 -1.39626 0
M  V30 11818 H 1091.32 3.96537 0.290514 0
M  V30 11819 N 1092.32 0.406567 1.52266 0
M  V30 11820 C 1093.27 -0.437483 2.23763 0
M  V30 11821 C 1094.25 -1.01557 1.248 0
M  V30 11822 O 1095.44 -0.938813 1.50051 0
M  V30 11823 C 1092.57 -1.55499 3.06064 0
M  V30 11824 C 1091.66 -0.987799 4.12436 0
M  V30 11825 N 1092.05 -0.147044 5.05586 0
M  V30 11826 C 1090.35 -1.25857 4.27874 0
M  V30 11827 C 1091.05 0.168229 5.81457 0
M  V30 11828 N 1090.02 -0.440245 5.41814 0
M  V30 11829 H 1093.82 0.211203 2.9314 0
M  V30 11830 H 1091.34 0.216843 1.60946 0
M  V30 11831 H 1093.34 -2.17224 3.55836 0
M  V30 11832 H 1092 -2.20632 2.38226 0
M  V30 11833 H 1093.01 0.217062 5.17445 0
M  V30 11834 H 1089.68 -1.90967 3.71265 0
M  V30 11835 H 1091.07 0.850516 6.66495 0
M  V30 11836 N 1093.79 -1.57004 0.136909 0
M  V30 11837 C 1095.04 -1.9541 -0.51569 0
M  V30 11838 C 1095.36 -1.02219 -1.66061 0
M  V30 11839 O 1094.63 -0.0818172 -1.95729 0
M  V30 11840 H 1093.21 -0.721504 -0.193497 0
M  V30 11841 H 1095.88 -1.93765 0.210046 0
M  V30 11842 H 1094.97 -2.98887 -0.898494 0
M  V30 11843 N 1095.27 0.136881 -1.57004 0
M  V30 11844 C 1096.52 0.846257 -1.83088 0
M  V30 11845 C 1096.83 1.81876 -0.719765 0
M  V30 11846 O 1098.04 2.57302 -0.866494 0
M  V30 11847 C 1096.5 1.55559 -3.24545 0
M  V30 11848 C 1096.1 0.624989 -4.43619 0
M  V30 11849 C 1097.85 2.25115 -3.59893 0
M  V30 11850 C 1095.76 1.33653 -5.761 0
M  V30 11851 H 1094.69 0.319768 -0.682836 0
M  V30 11852 H 1097.34 0.0989741 -1.83233 0
M  V30 11853 H 1095.72 2.34887 -3.18817 0
M  V30 11854 H 1096.89 -0.133783 -4.60606 0
M  V30 11855 H 1095.21 0.0373216 -4.16383 0
M  V30 11856 H 1097.8 2.79008 -4.56134 0
M  V30 11857 H 1098.15 3.02084 -2.86446 0
M  V30 11858 H 1098.68 1.52696 -3.67327 0
M  V30 11859 H 1095.42 0.608495 -6.5267 0
M  V30 11860 H 1094.94 2.06776 -5.63031 0
M  V30 11861 H 1096.62 1.87467 -6.19246 0
M  V30 11862 N 1096.75 1.52266 0.40654 0
M  V30 11863 C 1097.71 1.75168 1.47814 0
M  V30 11864 C 1098.71 0.621575 1.48301 0
M  V30 11865 O 1099.9 0.889476 1.4978 0
M  V30 11866 C 1097.04 1.83642 2.87208 0
M  V30 11867 H 1098.23 2.70834 1.28798 0
M  V30 11868 H 1095.78 1.42722 0.637196 0
M  V30 11869 H 1096.52 0.898994 3.1159 0
M  V30 11870 H 1096.3 2.65801 2.88257 0
M  V30 11871 H 1097.79 2.03093 3.64888 0
M  V30 11872 N 1098.23 -0.663929 1.42933 0
M  V30 11873 C 1099.45 -1.45691 1.47611 0
M  V30 11874 C 1099.88 -1.87875 0.0920305 0
M  V30 11875 O 1099.24 -1.56696 -0.91192 0
M  V30 11876 C 1099.28 -2.67517 2.41799 0
M  V30 11877 O 1098.39 -3.66187 1.89686 0
M  V30 11878 H 1097.73 -0.437257 0.499702 0
M  V30 11879 H 1100.26 -0.813397 1.87737 0
M  V30 11880 H 1100.27 -3.1546 2.58745 0
M  V30 11881 H 1098.94 -2.36155 3.4235 0
M  V30 11882 H 1097.52 -3.25274 1.82349 0
M  V30 11883 N 1099.71 -1.29285 -0.901281 0
M  V30 11884 C 1100.93 -1.20169 -1.69039 0
M  V30 11885 C 1101.36 0.234509 -1.86632 0
M  V30 11886 O 1100.71 1.16935 -1.38549 0
M  V30 11887 C 1100.76 -1.91852 -3.05328 0
M  V30 11888 O 1099.87 -1.23448 -3.9349 0
M  V30 11889 H 1099.21 -0.416486 -0.517141 0
M  V30 11890 H 1101.74 -1.70826 -1.12603 0
M  V30 11891 H 1101.75 -2.00244 -3.5548 0
M  V30 11892 H 1100.42 -2.96313 -2.91841 0
M  V30 11893 H 1099 -1.23303 -3.51924 0
M  V30 11894 N 1101.18 1.11143 -1.11736 0
M  V30 11895 C 1102.41 1.86745 -0.890727 0
M  V30 11896 C 1102.83 1.80315 0.55964 0
M  V30 11897 O 1102.18 1.18663 1.38656 0
M  V30 11898 C 1102.24 3.35436 -1.34779 0
M  V30 11899 O 1101.96 3.41738 -2.74129 0
M  V30 11900 C 1103.46 4.27935 -1.15702 0
M  V30 11901 H 1100.68 0.59044 -0.318781 0
M  V30 11902 H 1103.22 1.40549 -1.48547 0
M  V30 11903 H 1101.38 3.79125 -0.796425 0
M  V30 11904 H 1101.79 4.34347 -2.94012 0
M  V30 11905 H 1103.26 5.30494 -1.52579 0
M  V30 11906 H 1103.74 4.39093 -0.0968735 0
M  V30 11907 H 1104.35 3.90042 -1.69551 0
M  V30 11908 N 1102.66 0.908147 1.28804 0
M  V30 11909 C 1103.63 0.397058 2.25735 0
M  V30 11910 C 1104.63 -0.473483 1.53671 0
M  V30 11911 O 1105.82 -0.277335 1.71978 0
M  V30 11912 C 1102.95 -0.431392 3.38159 0
M  V30 11913 H 1104.14 1.25323 2.72459 0
M  V30 11914 H 1101.69 0.687041 1.4039 0
M  V30 11915 H 1102.43 -1.3072 2.96787 0
M  V30 11916 H 1102.21 0.192502 3.91627 0
M  V30 11917 H 1103.7 -0.78 4.10251 0
M  V30 11918 N 1104.14 -1.42577 0.671525 0
M  V30 11919 C 1105.09 -2.27978 -0.0315286 0
M  V30 11920 C 1106.07 -1.40907 -0.776796 0
M  V30 11921 O 1107.27 -1.64385 -0.656248 0
M  V30 11922 C 1104.4 -3.28884 -0.9844 0
M  V30 11923 C 1103.48 -4.23439 -0.236647 0
M  V30 11924 N 1103.87 -5.00107 0.756714 0
M  V30 11925 C 1102.17 -4.43457 -0.475551 0
M  V30 11926 C 1102.87 -5.69141 1.20221 0
M  V30 11927 N 1101.85 -5.40983 0.532802 0
M  V30 11928 H 1105.65 -2.84678 0.730455 0
M  V30 11929 H 1103.16 -1.54501 0.500317 0
M  V30 11930 H 1105.16 -3.88864 -1.50302 0
M  V30 11931 H 1103.82 -2.73745 -1.74625 0
M  V30 11932 H 1104.83 -5.05285 1.13613 0
M  V30 11933 H 1101.51 -3.99364 -1.21715 0
M  V30 11934 H 1102.9 -6.40653 2.02517 0
M  V30 11935 N 1105.62 -0.414636 -1.52048 0
M  V30 11936 C 1106.55 0.443601 -2.24866 0
M  V30 11937 C 1107.56 1.00556 -1.28032 0
M  V30 11938 O 1108.75 0.903566 -1.53941 0
M  V30 11939 C 1105.85 1.63004 -2.97124 0
M  V30 11940 C 1105.03 1.191 -4.20873 0
M  V30 11941 C 1104.08 2.24497 -4.75907 0
M  V30 11942 O 1103.11 1.84861 -5.38345 0
M  V30 11943 N 1104.31 3.56727 -4.57959 0
M  V30 11944 H 1107.08 -0.180393 -2.99157 0
M  V30 11945 H 1104.64 -0.242305 -1.60077 0
M  V30 11946 H 1106.63 2.33089 -3.30835 0
M  V30 11947 H 1105.2 2.15984 -2.25986 0
M  V30 11948 H 1104.42 0.318059 -3.92915 0
M  V30 11949 H 1105.71 0.874699 -5.01225 0
M  V30 11950 H 1105.11 3.91675 -4.08175 0
M  V30 11951 H 1103.66 4.22772 -4.96092 0
M  V30 11952 N 1107.1 1.56929 -0.145233 0
M  V30 11953 C 1108.05 2.13246 0.806846 0
M  V30 11954 C 1109.03 1.05984 1.21063 0
M  V30 11955 O 1110.22 1.32165 1.17734 0
M  V30 11956 C 1107.35 2.75622 2.04663 0
M  V30 11957 C 1106.44 3.90006 1.66603 0
M  V30 11958 N 1106.83 4.95946 0.993545 0
M  V30 11959 C 1105.13 4.0068 1.95886 0
M  V30 11960 C 1105.83 5.76032 0.810087 0
M  V30 11961 N 1104.8 5.26739 1.34339 0
M  V30 11962 H 1108.61 2.92527 0.283806 0
M  V30 11963 H 1106.12 1.62302 0.0563676 0
M  V30 11964 H 1108.12 3.14329 2.73867 0
M  V30 11965 H 1106.78 1.97815 2.57487 0
M  V30 11966 H 1107.79 5.13748 0.654508 0
M  V30 11967 H 1104.46 3.33946 2.50572 0
M  V30 11968 H 1105.85 6.71315 0.280209 0
M  V30 11969 N 1108.58 -0.128553 1.57075 0
M  V30 11970 C 1109.82 -0.836536 1.83535 0
M  V30 11971 C 1110.14 -1.81491 0.7294 0
M  V30 11972 O 1111.34 -2.56838 0.880128 0
M  V30 11973 C 1109.8 -1.53836 3.25365 0
M  V30 11974 C 1109.41 -0.601454 4.43944 0
M  V30 11975 C 1111.15 -2.23204 3.61082 0
M  V30 11976 C 1109.06 -1.30596 5.768 0
M  V30 11977 H 1107.99 -0.316142 0.684522 0
M  V30 11978 H 1110.64 -0.0892555 1.83283 0
M  V30 11979 H 1109.02 -2.33192 3.20058 0
M  V30 11980 H 1110.2 0.158209 4.60528 0
M  V30 11981 H 1108.51 -0.0152393 4.16397 0
M  V30 11982 H 1111.11 -2.76585 4.57608 0
M  V30 11983 H 1111.45 -3.0056 2.88044 0
M  V30 11984 H 1111.98 -1.50746 3.68131 0
M  V30 11985 H 1108.72 -0.573874 6.52983 0
M  V30 11986 H 1108.24 -2.03787 5.6412 0
M  V30 11987 H 1109.92 -1.8418 6.20231 0
M  V30 11988 N 1110.05 -1.5248 -0.398459 0
M  V30 11989 C 1111.28 -1.70677 -1.16417 0
M  V30 11990 C 1111.69 -0.420629 -1.84465 0
M  V30 11991 O 1111.03 0.614013 -1.73135 0
M  V30 11992 C 1111.1 -2.79401 -2.2622 0
M  V30 11993 C 1110.76 -4.20817 -1.78218 0
M  V30 11994 C 1111.76 -5.04298 -1.26409 0
M  V30 11995 C 1109.44 -4.67098 -1.84728 0
M  V30 11996 C 1111.44 -6.32136 -0.817461 0
M  V30 11997 C 1109.12 -5.94923 -1.39676 0
M  V30 11998 C 1110.12 -6.77272 -0.882716 0
M  V30 11999 O 1109.81 -8.02702 -0.438739 0
M  V30 12000 H 1109.54 -0.57503 -0.355411 0
M  V30 12001 H 1112.1 -1.99868 -0.473471 0
M  V30 12002 H 1110.33 -2.4561 -2.98685 0
M  V30 12003 H 1112.01 -2.86093 -2.87933 0
M  V30 12004 H 1112.78 -4.6973 -1.20744 0
M  V30 12005 H 1108.66 -4.03097 -2.23682 0
M  V30 12006 H 1112.2 -6.96361 -0.415548 0
M  V30 12007 H 1108.1 -6.28998 -1.45024 0
M  V30 12008 H 1108.87 -8.16575 -0.561079 0
M  V30 12009 N 1111.53 0.65634 -1.43283 0
M  V30 12010 C 1112.76 1.44408 -1.48168 0
M  V30 12011 C 1113.17 1.88542 -0.0986016 0
M  V30 12012 O 1112.53 1.59298 0.890527 0
M  V30 12013 C 1112.58 2.68111 -2.42484 0
M  V30 12014 O 1112.3 2.25824 -3.75413 0
M  V30 12015 C 1113.8 3.61499 -2.56579 0
M  V30 12016 H 1111.02 0.443731 -0.503333 0
M  V30 12017 H 1113.57 0.804917 -1.87993 0
M  V30 12018 H 1111.72 3.28175 -2.05863 0
M  V30 12019 H 1112.14 3.05839 -4.26102 0
M  V30 12020 H 1113.61 4.44972 -3.26655 0
M  V30 12021 H 1114.09 4.08639 -1.60969 0
M  V30 12022 H 1114.69 3.07319 -2.93998 0
M  V30 12023 N 1113.01 1.29761 0.894412 0
M  V30 12024 C 1113.96 1.11962 1.98617 0
M  V30 12025 C 1114.94 0.0374952 1.60856 0
M  V30 12026 O 1116.14 0.259789 1.75083 0
M  V30 12027 C 1113.26 0.803708 3.3376 0
M  V30 12028 C 1112.35 1.92563 3.77863 0
M  V30 12029 N 1112.74 3.16983 3.94152 0
M  V30 12030 C 1111.04 1.81986 4.07182 0
M  V30 12031 C 1111.74 3.90212 4.31404 0
M  V30 12032 N 1110.72 3.18194 4.40742 0
M  V30 12033 H 1114.52 2.06339 2.09287 0
M  V30 12034 H 1112.03 1.20963 1.08359 0
M  V30 12035 H 1114.03 0.657223 4.11687 0
M  V30 12036 H 1112.69 -0.132098 3.24431 0
M  V30 12037 H 1113.7 3.52378 3.79539 0
M  V30 12038 H 1110.38 0.957112 4.06381 0
M  V30 12039 H 1111.77 4.97312 4.51808 0
M  V30 12040 N 1114.49 -1.10549 1.12324 0
M  V30 12041 C 1115.42 -2.16081 0.733768 0
M  V30 12042 C 1116.4 -1.60266 -0.274511 0
M  V30 12043 O 1117.58 -1.87743 -0.168742 0
M  V30 12044 C 1114.71 -3.38591 0.0858914 0
M  V30 12045 C 1113.76 -4.13097 1.0608 0
M  V30 12046 S 1114.59 -4.68821 2.5878 0
M  V30 12047 C 1115.74 -5.94644 1.95319 0
M  V30 12048 H 1115.98 -2.48784 1.62769 0
M  V30 12049 H 1113.51 -1.22318 0.942209 0
M  V30 12050 H 1115.47 -4.09533 -0.281538 0
M  V30 12051 H 1114.13 -3.04129 -0.785122 0
M  V30 12052 H 1113.32 -5.00934 0.555095 0
M  V30 12053 H 1112.92 -3.4796 1.37112 0
M  V30 12054 H 1115.22 -6.65004 1.29523 0
M  V30 12055 H 1116.16 -6.49875 2.81191 0
M  V30 12056 H 1116.57 -5.4662 1.40951 0
M  V30 12057 N 1115.97 -0.914965 -1.28321 0
M  V30 12058 C 1117.19 -0.564023 -1.99583 0
M  V30 12059 C 1117.62 0.847821 -1.6791 0
M  V30 12060 O 1116.97 1.56682 -0.912171 0
M  V30 12061 C 1117.02 -0.781368 -3.52033 0
M  V30 12062 O 1116.13 0.159072 -4.12093 0
M  V30 12063 H 1115.47 -0.218565 -0.626997 0
M  V30 12064 H 1118 -1.23074 -1.63444 0
M  V30 12065 H 1118.01 -0.691946 -4.0209 0
M  V30 12066 H 1116.68 -1.81059 -3.7442 0
M  V30 12067 H 1115.26 0.0208145 -3.72894 0
M  V30 12068 N 1117.44 1.42219 -0.679077 0
M  V30 12069 C 1118.39 2.27992 0.0194379 0
M  V30 12070 C 1119.38 1.41317 0.769313 0
M  V30 12071 O 1120.57 1.64731 0.647521 0
M  V30 12072 C 1117.7 3.29401 0.966945 0
M  V30 12073 C 1116.78 4.23559 0.214187 0
M  V30 12074 N 1117.18 4.99699 -0.783226 0
M  V30 12075 C 1115.47 4.43703 0.452026 0
M  V30 12076 C 1116.17 5.68496 -1.23237 0
M  V30 12077 N 1115.15 5.40692 -0.561484 0
M  V30 12078 H 1118.95 2.84287 -0.745542 0
M  V30 12079 H 1116.47 1.54234 -0.508504 0
M  V30 12080 H 1118.46 3.89655 1.48238 0
M  V30 12081 H 1117.12 2.74667 1.7317 0
M  V30 12082 H 1118.13 5.04675 -1.16291 0
M  V30 12083 H 1114.81 4.00004 1.19595 0
M  V30 12084 H 1116.2 6.3957 -2.05912 0
M  V30 12085 N 1118.92 0.422693 1.51826 0
M  V30 12086 C 1120.17 -0.148641 2.01954 0
M  V30 12087 C 1120.5 -1.43982 1.30765 0
M  V30 12088 O 1119.75 -1.91428 0.406668 0
M  V30 12089 C 1120.05 -0.429516 3.5481 0
M  V30 12090 C 1119.72 0.774088 4.44206 0
M  V30 12091 C 1118.38 1.1042 4.6836 0
M  V30 12092 C 1120.73 1.5777 4.96747 0
M  V30 12093 C 1118.06 2.23887 5.42302 0
M  V30 12094 C 1120.41 2.70325 5.71933 0
M  V30 12095 C 1119.07 3.03807 5.94355 0
M  V30 12096 H 1118.34 -0.0543917 0.739001 0
M  V30 12097 H 1120.99 0.566892 1.82917 0
M  V30 12098 H 1119.3 -1.22678 3.72099 0
M  V30 12099 H 1120.99 -0.884761 3.91118 0
M  V30 12100 H 1117.58 0.506834 4.25593 0
M  V30 12101 H 1121.77 1.33589 4.77983 0
M  V30 12102 H 1117.02 2.50159 5.5788 0
M  V30 12103 H 1121.2 3.32974 6.11638 0
M  V30 12104 H 1118.82 3.91844 6.51431 0
M  V30 12105 N 1120.4 -1.5685 0.153553 0
M  V30 12106 C 1121.65 -1.95509 -0.495911 0
M  V30 12107 C 1121.96 -1.04129 -1.65579 0
M  V30 12108 O 1123.17 -1.32394 -2.37032 0
M  V30 12109 C 1121.62 -3.47579 -0.933622 0
M  V30 12110 C 1121.23 -4.47555 0.199684 0
M  V30 12111 C 1122.98 -3.95092 -1.55251 0
M  V30 12112 C 1120.88 -5.90843 -0.256663 0
M  V30 12113 H 1119.81 -0.729919 -0.189035 0
M  V30 12114 H 1122.46 -1.81938 0.238947 0
M  V30 12115 H 1120.85 -3.56506 -1.72394 0
M  V30 12116 H 1122.02 -4.50329 0.976744 0
M  V30 12117 H 1120.33 -4.09997 0.727394 0
M  V30 12118 H 1122.93 -4.99588 -1.90567 0
M  V30 12119 H 1123.27 -3.37015 -2.4439 0
M  V30 12120 H 1123.81 -3.89109 -0.826969 0
M  V30 12121 H 1120.55 -6.52753 0.599515 0
M  V30 12122 H 1120.07 -5.91414 -0.999458 0
M  V30 12123 H 1121.75 -6.43131 -0.70649 0
M  V30 12124 N 1121.88 0.120221 -1.57141 0
M  V30 12125 C 1122.82 1.14751 -2.00252 0
M  V30 12126 C 1123.79 1.41217 -0.874462 0
M  V30 12127 O 1124.98 1.53104 -1.13859 0
M  V30 12128 C 1122.12 2.46923 -2.41087 0
M  V30 12129 C 1121.23 2.27403 -3.67303 0
M  V30 12130 C 1120.37 3.52797 -3.97125 0
M  V30 12131 C 1119.41 3.28429 -5.16528 0
M  V30 12132 N 1118.54 4.46022 -5.42226 0
M  V30 12133 H 1123.38 0.772884 -2.87803 0
M  V30 12134 H 1120.92 0.370137 -1.42367 0
M  V30 12135 H 1122.88 3.24025 -2.62799 0
M  V30 12136 H 1121.51 2.82281 -1.5658 0
M  V30 12137 H 1120.56 1.41224 -3.53214 0
M  V30 12138 H 1121.87 2.05373 -4.54558 0
M  V30 12139 H 1121.03 4.38318 -4.19479 0
M  V30 12140 H 1119.77 3.77857 -3.08343 0
M  V30 12141 H 1118.77 2.41299 -4.94019 0
M  V30 12142 H 1120 3.0474 -6.06886 0
M  V30 12143 H 1117.94 4.71205 -4.56401 0
M  V30 12144 H 1117.86 4.27092 -6.23802 0
M  V30 12145 H 1119.13 5.3268 -5.69098 0
M  V30 12146 N 1123.36 1.52689 0.390367 0
M  V30 12147 C 1124.29 1.73622 1.49626 0
M  V30 12148 C 1125.3 0.616682 1.50668 0
M  V30 12149 O 1126.49 0.892341 1.54595 0
M  V30 12150 C 1123.59 1.77859 2.88477 0
M  V30 12151 C 1122.76 3.07146 3.11416 0
M  V30 12152 C 1121.82 3.02949 4.30242 0
M  V30 12153 O 1120.85 3.76816 4.26613 0
M  V30 12154 N 1122.05 2.22039 5.36357 0
M  V30 12155 H 1124.82 2.69037 1.32057 0
M  V30 12156 H 1122.38 1.51159 0.579867 0
M  V30 12157 H 1124.37 1.72559 3.66067 0
M  V30 12158 H 1122.94 0.898367 2.99413 0
M  V30 12159 H 1122.16 3.25947 2.21703 0
M  V30 12160 H 1123.45 3.92637 3.23595 0
M  V30 12161 H 1122.84 1.6149 5.4216 0
M  V30 12162 H 1121.4 2.2258 6.12619 0
M  V30 12163 N 1124.83 -0.648732 1.43629 0
M  V30 12164 C 1126.07 -1.42032 1.46991 0
M  V30 12165 C 1126.44 -1.91774 0.0931841 0
M  V30 12166 O 1127.64 -2.688 0.00148504 0
M  V30 12167 C 1125.91 -2.56693 2.48684 0
M  V30 12168 S 1127.47 -3.45149 2.70956 0
M  V30 12169 H 1124.29 -0.484772 0.520113 0
M  V30 12170 H 1126.89 -0.75274 1.80427 0
M  V30 12171 H 1125.59 -2.18431 3.47442 0
M  V30 12172 H 1125.12 -3.28296 2.1676 0
M  V30 12173 H 1127.14 -4.53569 2.01221 0
M  V30 12174 N 1126.31 -1.30234 -0.887518 0
M  V30 12175 C 1127.56 -1.1891 -1.6391 0
M  V30 12176 C 1127.89 0.256749 -1.92798 0
M  V30 12177 O 1127.14 1.20047 -1.54555 0
M  V30 12178 C 1127.44 -1.96046 -2.98832 0
M  V30 12179 C 1127.11 -3.45683 -2.89507 0
M  V30 12180 C 1125.77 -3.86489 -2.8667 0
M  V30 12181 C 1128.12 -4.40983 -2.7782 0
M  V30 12182 C 1125.45 -5.2089 -2.69982 0
M  V30 12183 C 1127.8 -5.75489 -2.6267 0
M  V30 12184 C 1126.47 -6.15537 -2.58207 0
M  V30 12185 H 1125.74 -0.435123 -0.599791 0
M  V30 12186 H 1128.38 -1.61308 -1.03209 0
M  V30 12187 H 1126.69 -1.46275 -3.6347 0
M  V30 12188 H 1128.38 -1.84678 -3.55942 0
M  V30 12189 H 1124.97 -3.13255 -2.92523 0
M  V30 12190 H 1129.16 -4.10401 -2.79079 0
M  V30 12191 H 1124.41 -5.51014 -2.6494 0
M  V30 12192 H 1128.59 -6.48973 -2.526 0
M  V30 12193 H 1126.22 -7.19627 -2.45034 0
M  V30 12194 N 1127.79 1.09952 -1.12909 0
M  V30 12195 C 1129.02 1.8633 -0.910821 0
M  V30 12196 C 1129.44 1.80335 0.534874 0
M  V30 12197 O 1128.8 1.1769 1.37908 0
M  V30 12198 C 1128.85 3.32462 -1.39648 0
M  V30 12199 O 1127.95 4.08327 -0.578192 0
M  V30 12200 H 1127.29 0.577984 -0.32685 0
M  V30 12201 H 1129.82 1.38883 -1.50242 0
M  V30 12202 H 1129.83 3.83311 -1.39774 0
M  V30 12203 H 1128.51 3.36141 -2.44913 0
M  V30 12204 H 1127.08 3.67291 -0.644347 0
M  V30 12205 N 1129.27 0.921757 1.27833 0
M  V30 12206 C 1130.2 0.433466 2.29441 0
M  V30 12207 C 1131.18 -0.503133 1.62489 0
M  V30 12208 O 1132.36 -0.409156 1.89841 0
M  V30 12209 C 1129.49 -0.320029 3.45822 0
M  V30 12210 C 1128.45 0.528178 4.24728 0
M  V30 12211 C 1127.77 -0.354132 5.33526 0
M  V30 12212 C 1129.07 1.78959 4.90684 0
M  V30 12213 H 1130.77 1.28263 2.70535 0
M  V30 12214 H 1128.31 0.618197 1.30055 0
M  V30 12215 H 1130.27 -0.672526 4.15999 0
M  V30 12216 H 1128.99 -1.20317 3.0363 0
M  V30 12217 H 1127.65 0.863302 3.5629 0
M  V30 12218 H 1127.3 -1.23605 4.87576 0
M  V30 12219 H 1127 0.209855 5.87225 0
M  V30 12220 H 1128.52 -0.702333 6.06547 0
M  V30 12221 H 1129.94 1.50552 5.53179 0
M  V30 12222 H 1128.33 2.29661 5.54415 0
M  V30 12223 H 1129.4 2.51265 4.14721 0
M  V30 12224 N 1130.75 -1.41857 0.686609 0
M  V30 12225 C 1132.16 -1.84439 0.289662 0
M  V30 12226 C 1132.51 -1.57462 -1.17047 0
M  V30 12227 O 1131.63 -1.04046 -1.89745 0
M  V30 12228 C 1132.23 -3.34802 0.518948 0
M  V30 12229 C 1130.79 -3.75988 0.176007 0
M  V30 12230 C 1129.93 -2.65339 0.805632 0
M  V30 12231 H 1132.89 -1.31536 0.88792 0
M  V30 12232 H 1132.91 -3.79833 -0.225209 0
M  V30 12233 H 1132.42 -3.54405 1.58173 0
M  V30 12234 H 1130.52 -3.61989 -0.882865 0
M  V30 12235 H 1130.63 -4.75009 0.624772 0
M  V30 12236 H 1129 -2.53605 0.235966 0
M  V30 12237 H 1129.78 -2.87762 1.8721 0
M  V30 12238 O 1132.26 -0.572812 -1.51 0
M  V30 12239 H 1132.95 -0.0746995 -1.93556 0
M  V30 END ATOM
M  V30 BEGIN BOND
M  V30 END BOND
M  V30 END CTAB
M  END
$$$$
