drugbank_target|P54317 Pancreatic lipase-related protein 2 (DB02613)
 OpenBabel12092120453D

  0  0  0     0  0            999 V3000
M  V30 BEGIN CTAB
M  V30 COUNTS 7189 7280 0 0 0
M  V30 BEGIN ATOM
M  V30 1 H -0.908 1.98254 -0.117106 0
M  V30 2 N 0 1.576 0 0
M  V30 3 C 0.933 2.03868 1.02534 0
M  V30 4 C 1.911 0.928543 1.3348 0
M  V30 5 O 3.095 1.19667 1.45644 0
M  V30 6 C 0.222 2.43627 2.35294 0
M  V30 7 C -0.732 3.65373 2.2001 0
M  V30 8 S 0.101 5.13292 1.52614 0
M  V30 9 C 1.257 5.56322 2.86805 0
M  V30 10 H 1.49 2.90518 0.631377 0
M  V30 11 H -0.977 1.52953 0.210867 0
M  V30 12 H 0.981 2.67203 3.11629 0
M  V30 13 H -0.358 1.57376 2.7183 0
M  V30 14 H -1.165 3.90944 3.18086 0
M  V30 15 H -1.563 3.418 1.51819 0
M  V30 16 H 0.729 5.58782 3.83104 0
M  V30 17 H 1.672 6.56266 2.65933 0
M  V30 18 H 2.08 4.83886 2.90714 0
M  V30 19 N 1.4781 -0.272755 1.55222 0
M  V30 20 C 2.4081 -1.34136 1.91127 0
M  V30 21 C 3.3891 -1.51513 0.773168 0
M  V30 22 O 4.5741 -1.64552 1.03132 0
M  V30 23 C 1.7041 -2.70083 2.1834 0
M  V30 24 C 0.6581 -2.67437 3.34158 0
M  V30 25 C -0.0159 -4.06938 3.46851 0
M  V30 26 C 1.2841 -2.26686 4.70543 0
M  V30 27 H 2.9781 -1.04333 2.80633 0
M  V30 28 H 0.5241 -0.500454 1.35024 0
M  V30 29 H 2.4771 -3.44952 2.42046 0
M  V30 30 H 1.2011 -3.01469 1.25634 0
M  V30 31 H -0.1399 -1.95026 3.1042 0
M  V30 32 H -0.4919 -4.35547 2.51611 0
M  V30 33 H -0.7919 -4.06062 4.2472 0
M  V30 34 H 0.7321 -4.83545 3.72849 0
M  V30 35 H 2.1461 -2.91277 4.93792 0
M  V30 36 H 0.5431 -2.36971 5.5133 0
M  V30 37 H 1.6131 -1.21818 4.69349 0
M  V30 38 N 2.9562 -1.48159 -0.537278 0
M  V30 39 C 4.3672 -1.49429 -1.11928 0
M  V30 40 C 4.7182 -0.26 -1.9447 0
M  V30 41 O 3.8432 0.633489 -2.0692 0
M  V30 42 C 4.4382 -2.70758 -2.03656 0
M  V30 43 C 2.9972 -2.74923 -2.57088 0
M  V30 44 C 2.1442 -2.42835 -1.3389 0
M  V30 45 H 5.0952 -1.55381 -0.322886 0
M  V30 46 H 5.1162 -2.48861 -2.87834 0
M  V30 47 H 4.6282 -3.60575 -1.43553 0
M  V30 48 H 2.7292 -1.89296 -3.20933 0
M  V30 49 H 2.8422 -3.76157 -2.9672 0
M  V30 50 H 1.2062 -1.93836 -1.65226 0
M  V30 51 H 1.9892 -3.34884 -0.755504 0
M  V30 52 N 4.4343 0.785586 -1.36625 0
M  V30 53 C 5.8453 1.36101 -1.27803 0
M  V30 54 C 6.1963 1.96035 0.0804875 0
M  V30 55 O 5.3213 1.92834 0.982042 0
M  V30 56 C 5.9163 2.47442 -2.31426 0
M  V30 57 C 4.4753 3.00789 -2.26281 0
M  V30 58 C 3.6223 1.73896 -2.15999 0
M  V30 59 H 6.5733 0.586928 -1.47448 0
M  V30 60 H 6.5943 3.2656 -1.95291 0
M  V30 61 H 6.1063 2.03791 -3.30289 0
M  V30 62 H 4.2073 3.48851 -1.30896 0
M  V30 63 H 4.3203 3.57343 -3.19128 0
M  V30 64 H 2.6843 1.9628 -1.62316 0
M  V30 65 H 3.4673 1.32368 -3.16755 0
M  V30 66 N 5.9124 1.20967 1.01018 0
M  V30 67 C 7.1584 1.0353 1.7508 0
M  V30 68 C 7.5134 -0.42734 1.87594 0
M  V30 69 O 6.8064 -1.31298 1.3954 0
M  V30 70 C 7.0004 1.65997 3.16512 0
M  V30 71 C 6.8294 3.18184 3.17788 0
M  V30 72 C 5.5994 3.87198 3.24662 0
M  V30 73 C 7.7974 4.15334 3.03319 0
M  V30 74 N 5.7794 5.26618 3.15509 0
M  V30 75 C 7.1504 5.41472 3.02007 0
M  V30 76 C 9.2054 4.06449 2.87583 0
M  V30 77 C 7.9084 6.5975 2.86571 0
M  V30 78 C 9.9344 5.24357 2.73503 0
M  V30 79 C 9.2964 6.49404 2.72862 0
M  V30 80 H 5.3954 0.433137 0.651089 0
M  V30 81 H 7.9794 1.5324 1.20107 0
M  V30 82 H 6.1504 1.18863 3.69765 0
M  V30 83 H 7.8824 1.41816 3.79039 0
M  V30 84 H 4.6374 3.38093 3.31648 0
M  V30 85 H 5.0614 5.99626 3.14289 0
M  V30 86 H 9.7034 3.10573 2.86887 0
M  V30 87 H 7.4214 7.55792 2.86015 0
M  V30 88 H 11.0074 5.19299 2.62334 0
M  V30 89 H 9.8874 7.39105 2.62093 0
M  V30 90 N 7.3905 -1.2043 1.01659 0
M  V30 91 C 8.6185 -1.93777 0.725132 0
M  V30 92 C 9.0335 -1.74772 -0.714166 0
M  V30 93 O 8.3905 -1.06169 -1.4844 0
M  V30 94 C 8.4415 -3.45876 1.05129 0
M  V30 95 O 8.1625 -3.6426 2.43406 0
M  V30 96 C 9.6635 -4.36368 0.780891 0
M  V30 97 H 6.8835 -0.615901 0.266284 0
M  V30 98 H 9.4275 -1.52922 1.35776 0
M  V30 99 H 7.5825 -3.8461 0.464065 0
M  V30 100 H 7.9965 -4.58246 2.55169 0
M  V30 101 H 9.4705 -5.41743 1.05918 0
M  V30 102 H 9.9475 -4.38275 -0.284937 0
M  V30 103 H 10.5535 -4.03296 1.35027 0
M  V30 104 N 8.8686 -0.792821 -1.36206 0
M  V30 105 C 9.7986 -0.207853 -2.32573 0
M  V30 106 C 10.7796 0.659055 -1.56813 0
M  V30 107 O 11.9646 0.592176 -1.84951 0
M  V30 108 C 9.0946 0.655449 -3.41059 0
M  V30 109 C 8.0486 -0.111842 -4.27854 0
M  V30 110 C 7.3746 0.872274 -5.27537 0
M  V30 111 C 8.6746 -1.30299 -5.05786 0
M  V30 112 H 10.3686 -1.01294 -2.81744 0
M  V30 113 H 7.9146 -0.48854 -1.3546 0
M  V30 114 H 9.8676 1.07464 -4.07467 0
M  V30 115 H 8.5916 1.49328 -2.90463 0
M  V30 116 H 7.2506 -0.512053 -3.63006 0
M  V30 117 H 6.8986 1.70523 -4.73214 0
M  V30 118 H 6.5986 0.363291 -5.86476 0
M  V30 119 H 8.1226 1.28996 -5.96818 0
M  V30 120 H 9.5366 -0.959379 -5.65216 0
M  V30 121 H 7.9336 -1.7455 -5.74154 0
M  V30 122 H 9.0036 -2.09663 -4.37229 0
M  V30 123 N 10.3467 1.47872 -0.545128 0
M  V30 124 C 11.5947 2.02093 -0.016553 0
M  V30 125 C 11.9157 1.42305 1.3332 0
M  V30 126 O 11.1857 0.593853 1.86682 0
M  V30 127 H 9.7657 0.746993 -0.00313038 0
M  V30 128 H 12.4277 1.81414 -0.712397 0
M  V30 129 H 11.5237 3.11996 0.0805422 0
M  V30 130 N 11.8248 0.280983 1.55075 0
M  V30 131 C 12.7548 -0.597469 2.25727 0
M  V30 132 C 13.7358 -1.15417 1.24952 0
M  V30 133 O 14.9208 -1.18722 1.53684 0
M  V30 134 C 12.0508 -1.7789 2.98283 0
M  V30 135 C 11.0048 -1.35347 4.06036 0
M  V30 136 C 10.3308 -2.61846 4.66198 0
M  V30 137 C 11.6308 -0.499354 5.19907 0
M  V30 138 H 13.3248 -0.00824265 2.99399 0
M  V30 139 H 10.8708 -0.0025244 1.44 0
M  V30 140 H 12.8238 -2.39937 3.46422 0
M  V30 141 H 11.5478 -2.39405 2.22155 0
M  V30 142 H 10.2068 -0.756156 3.58717 0
M  V30 143 H 9.8548 -3.21632 3.86732 0
M  V30 144 H 9.5548 -2.3409 5.38958 0
M  V30 145 H 11.0788 -3.24732 5.1709 0
M  V30 146 H 12.4928 -1.02498 5.64063 0
M  V30 147 H 10.8898 -0.316424 5.99265 0
M  V30 148 H 11.9598 0.480459 4.82514 0
M  V30 149 N 13.3029 -1.57598 0.00835791 0
M  V30 150 C 14.2329 -2.1198 -0.979113 0
M  V30 151 C 15.2139 -1.03091 -1.35301 0
M  V30 152 O 16.3989 -1.30818 -1.43528 0
M  V30 153 C 13.5289 -2.62995 -2.26828 0
M  V30 154 C 12.4829 -3.76485 -2.03576 0
M  V30 155 C 11.8089 -4.13846 -3.38579 0
M  V30 156 C 13.1089 -5.0342 -1.39161 0
M  V30 157 H 14.8029 -2.94738 -0.526281 0
M  V30 158 H 12.3489 -1.41783 -0.251704 0
M  V30 159 H 14.3019 -2.99669 -2.96271 0
M  V30 160 H 13.0259 -1.7737 -2.7424 0
M  V30 161 H 11.6849 -3.40217 -1.36557 0
M  V30 162 H 11.3329 -3.25232 -3.83709 0
M  V30 163 H 11.0329 -4.90312 -3.23834 0
M  V30 164 H 12.5569 -4.53086 -4.09323 0
M  V30 165 H 13.9709 -5.37812 -1.98573 0
M  V30 166 H 12.3679 -5.84746 -1.34878 0
M  V30 167 H 13.4379 -4.83548 -0.361868 0
M  V30 168 N 14.781 0.264519 -1.55364 0
M  V30 169 C 15.711 1.33121 -1.91836 0
M  V30 170 C 16.692 1.51101 -0.781192 0
M  V30 171 O 17.877 1.64003 -1.04003 0
M  V30 172 C 15.007 2.68921 -2.19769 0
M  V30 173 C 13.961 2.65661 -3.35571 0
M  V30 174 C 13.287 4.05093 -3.49004 0
M  V30 175 C 14.587 2.24187 -4.71739 0
M  V30 176 H 16.281 1.02844 -2.81182 0
M  V30 177 H 13.827 0.493286 -1.35287 0
M  V30 178 H 15.78 3.43663 -2.43872 0
M  V30 179 H 14.504 3.00799 -1.27231 0
M  V30 180 H 13.163 1.93377 -3.1145 0
M  V30 181 H 12.811 4.34206 -2.53917 0
M  V30 182 H 12.511 4.03804 -4.26868 0
M  V30 183 H 14.035 4.81561 -3.75408 0
M  V30 184 H 15.449 2.88654 -4.9533 0
M  V30 185 H 13.846 2.34044 -5.52579 0
M  V30 186 H 14.916 1.19327 -4.69988 0
M  V30 187 N 16.2591 1.48442 0.529413 0
M  V30 188 C 17.1891 1.65902 1.64313 0
M  V30 189 C 18.1701 0.507897 1.6234 0
M  V30 190 O 19.3551 0.740503 1.79528 0
M  V30 191 C 16.4851 1.69911 3.02898 0
M  V30 192 C 15.4391 2.8453 3.19729 0
M  V30 193 C 14.7651 2.73629 4.59381 0
M  V30 194 C 16.0651 4.25821 3.02447 0
M  V30 195 H 17.7591 2.5914 1.49955 0
M  V30 196 H 15.3051 1.24709 0.719982 0
M  V30 197 H 17.2581 1.80715 3.80684 0
M  V30 198 H 15.9821 0.732524 3.18279 0
M  V30 199 H 14.6411 2.73283 2.44361 0
M  V30 200 H 14.2891 1.74938 4.71599 0
M  V30 201 H 13.9891 3.50541 4.71588 0
M  V30 202 H 15.5131 2.86401 5.39265 0
M  V30 203 H 16.9271 4.37898 3.70024 0
M  V30 204 H 15.3241 5.03735 3.26146 0
M  V30 205 H 16.3941 4.42244 1.98867 0
M  V30 206 N 17.7372 -0.778329 1.37039 0
M  V30 207 C 18.7002 -1.87301 1.32102 0
M  V30 208 C 19.7002 -1.59198 0.226405 0
M  V30 209 O 20.8902 -1.67403 0.481861 0
M  V30 210 C 18.0222 -3.24309 1.05055 0
M  V30 211 H 19.2152 -1.93093 2.29467 0
M  V30 212 H 16.7682 -0.977358 1.21973 0
M  V30 213 H 17.5032 -3.24196 0.0819373 0
M  V30 214 H 17.2882 -3.46098 1.84279 0
M  V30 215 H 18.7782 -4.04382 1.04234 0
M  V30 216 N 19.2153 -1.21501 -1.00376 0
M  V30 217 C 20.4433 -1.059 -1.77744 0
M  V30 218 C 20.8583 0.391125 -1.84704 0
M  V30 219 O 20.2153 1.27133 -1.30933 0
M  V30 220 C 20.2663 -1.65111 -3.21591 0
M  V30 221 O 19.9873 -3.0445 -3.15027 0
M  V30 222 C 21.4883 -1.54637 -4.15454 0
M  V30 223 H 18.7083 -0.371825 -0.558558 0
M  V30 224 H 21.2523 -1.60865 -1.26264 0
M  V30 225 H 19.4073 -1.14235 -3.70175 0
M  V30 226 H 19.8213 -3.3278 -4.0541 0
M  V30 227 H 21.2953 -2.00808 -5.14179 0
M  V30 228 H 21.7723 -0.501022 -4.36333 0
M  V30 229 H 22.3783 -2.04767 -3.72761 0
M  V30 230 N 20.6934 1.19889 -1.02296 0
M  V30 231 C 21.9394 1.89701 -0.717033 0
M  V30 232 C 22.2724 1.7905 0.751989 0
M  V30 233 O 21.5474 1.17891 1.547 0
M  V30 234 C 21.8304 3.40858 -1.16136 0
M  V30 235 C 21.6834 3.60411 -2.69117 0
M  V30 236 C 23.0024 4.33876 -0.737549 0
M  V30 237 H 20.1214 0.688874 -0.261957 0
M  V30 238 H 22.7634 1.41154 -1.27183 0
M  V30 239 H 20.9134 3.82335 -0.689342 0
M  V30 240 H 22.5854 3.28145 -3.2422 0
M  V30 241 H 20.8284 3.03665 -3.0979 0
M  V30 242 H 21.4994 4.66396 -2.95261 0
M  V30 243 H 23.9754 4.00081 -1.14344 0
M  V30 244 H 22.8514 5.38242 -1.0764 0
M  V30 245 H 23.1124 4.40628 0.360436 0
M  V30 246 N 22.1715 0.800033 1.35784 0
M  V30 247 C 23.5875 0.482977 1.52117 0
M  V30 248 C 23.7875 -0.996948 1.75109 0
M  V30 249 O 22.8435 -1.78216 1.78872 0
M  V30 250 C 24.1565 1.32264 2.70049 0
M  V30 251 C 25.7045 1.31742 2.83924 0
M  V30 252 C 26.1795 2.14106 4.04874 0
M  V30 253 N 27.6705 2.11607 4.12039 0
M  V30 254 C 28.4055 2.72099 5.04727 0
M  V30 255 N 27.9015 3.41492 6.02789 0
M  V30 256 N 29.6945 2.61776 4.97423 0
M  V30 257 H 21.8455 1.75856 1.19115 0
M  V30 258 H 24.1085 0.748122 0.582252 0
M  V30 259 H 23.8145 2.37261 2.59616 0
M  V30 260 H 23.6885 0.971303 3.6448 0
M  V30 261 H 26.0755 0.275333 2.93813 0
M  V30 262 H 26.1565 1.70859 1.9037 0
M  V30 263 H 25.8005 3.18351 3.95746 0
M  V30 264 H 25.7305 1.72353 4.97596 0
M  V30 265 H 28.2215 1.61112 3.41835 0
M  V30 266 H 28.5345 3.84953 6.70098 0
M  V30 267 H 26.8795 3.45596 6.02983 0
M  V30 268 H 30.0705 2.07157 4.19766 0
M  V30 269 H 30.2435 3.0921 5.69468 0
M  V30 270 N 23.6496 -1.47581 0.552962 0
M  V30 271 C 24.8976 -2.02082 0.0272703 0
M  V30 272 C 25.2186 -1.4301 -1.32563 0
M  V30 273 O 24.4886 -0.603745 -1.86365 0
M  V30 274 H 23.0686 -0.746966 0.00709182 0
M  V30 275 H 25.7306 -1.81033 0.722008 0
M  V30 276 H 24.8266 -3.12034 -0.0639951 0
M  V30 277 N 25.1277 -0.289203 -1.54924 0
M  V30 278 C 26.0747 0.592115 -2.23075 0
M  V30 279 C 27.0447 1.13881 -1.20915 0
M  V30 280 O 28.2297 1.18551 -1.495 0
M  V30 281 C 25.3697 1.76376 -2.96623 0
M  V30 282 C 24.4827 1.24959 -4.13533 0
M  V30 283 C 23.6177 2.38416 -4.74691 0
M  V30 284 C 22.6567 1.84072 -5.83767 0
M  V30 285 N 21.7937 2.91057 -6.38929 0
M  V30 286 H 26.6337 0.00432038 -2.98 0
M  V30 287 H 24.1707 -0.00963529 -1.47097 0
M  V30 288 H 26.1287 2.45268 -3.3749 0
M  V30 289 H 24.7587 2.32337 -2.24097 0
M  V30 290 H 23.8107 0.453307 -3.77689 0
M  V30 291 H 25.1227 0.811662 -4.92152 0
M  V30 292 H 24.2767 3.15276 -5.18349 0
M  V30 293 H 23.0157 2.8553 -3.95378 0
M  V30 294 H 22.0207 1.05697 -5.39545 0
M  V30 295 H 23.2457 1.37877 -6.64956 0
M  V30 296 H 21.1917 3.37526 -5.62505 0
M  V30 297 H 21.1087 2.51724 -7.12861 0
M  V30 298 H 22.3767 3.6785 -6.87246 0
M  V30 299 N 26.6058 1.57591 -0.0167156 0
M  V30 300 C 27.5158 2.1291 0.98521 0
M  V30 301 C 28.5318 1.07834 1.36557 0
M  V30 302 O 29.7078 1.39826 1.44951 0
M  V30 303 C 26.7728 2.63512 2.25305 0
M  V30 304 C 25.8338 3.83256 1.93426 0
M  V30 305 C 25.0668 4.31435 3.14165 0
M  V30 306 O 25.2898 3.78851 4.26413 0
M  V30 307 O 24.2238 5.23416 2.97186 0
M  V30 308 H 28.0498 2.98772 0.544888 0
M  V30 309 H 25.6348 1.48012 0.203141 0
M  V30 310 H 27.5168 2.96183 2.99756 0
M  V30 311 H 26.1918 1.8074 2.68542 0
M  V30 312 H 25.0988 3.55531 1.16398 0
M  V30 313 H 26.4318 4.67153 1.55013 0
M  V30 314 N 28.0839 -0.256276 1.55502 0
M  V30 315 C 29.3299 -0.987079 1.77157 0
M  V30 316 C 29.6629 -1.85327 0.580315 0
M  V30 317 O 28.9379 -1.89874 -0.421686 0
M  V30 318 C 29.2209 -1.85553 3.08613 0
M  V30 319 C 29.0739 -1.01816 4.38125 0
M  V30 320 C 30.3929 -2.8397 3.36228 0
M  V30 321 H 27.5119 -0.357428 0.644526 0
M  V30 322 H 30.1539 -0.258239 1.88237 0
M  V30 323 H 28.3039 -2.47695 2.99298 0
M  V30 324 H 29.9759 -0.416159 4.59419 0
M  V30 325 H 28.2189 -0.322178 4.32602 0
M  V30 326 H 28.8899 -1.65939 5.26468 0
M  V30 327 H 31.3659 -2.31964 3.45445 0
M  V30 328 H 30.2419 -3.41864 4.29442 0
M  V30 329 H 30.5029 -3.59955 2.56681 0
M  V30 330 N 29.562 -1.4872 -0.521534 0
M  V30 331 C 30.802 -1.58771 -1.28729 0
M  V30 332 C 31.166 -0.259394 -1.9024 0
M  V30 333 O 32.367 -0.234942 -2.67771 0
M  V30 334 C 30.638 -2.70039 -2.34124 0
M  V30 335 S 32.197 -2.9991 -3.20312 0
M  V30 336 H 29.015 -0.560251 -0.437767 0
M  V30 337 H 31.617 -1.86283 -0.593188 0
M  V30 338 H 30.321 -3.65101 -1.87429 0
M  V30 339 H 29.852 -2.44455 -3.08229 0
M  V30 340 H 31.867 -2.39855 -4.34378 0
M  V30 341 N 31.0401 0.771051 -1.3745 0
M  V30 342 C 32.2701 1.55789 -1.35696 0
M  V30 343 C 32.6781 1.89107 0.0594523 0
M  V30 344 O 32.0211 1.51984 1.03183 0
M  V30 345 C 32.0831 2.89515 -2.13123 0
M  V30 346 C 31.7471 2.78829 -3.62082 0
M  V30 347 C 32.7441 2.49812 -4.5595 0
M  V30 348 C 30.4291 2.9683 -4.05213 0
M  V30 349 C 32.4231 2.38923 -5.90927 0
M  V30 350 C 30.1101 2.85562 -5.40276 0
M  V30 351 C 31.1081 2.56649 -6.32946 0
M  V30 352 O 30.7961 2.45408 -7.65526 0
M  V30 353 H 30.5281 0.489257 -0.466481 0
M  V30 354 H 33.0821 0.963446 -1.81403 0
M  V30 355 H 31.3121 3.51081 -1.62107 0
M  V30 356 H 33.0011 3.50915 -2.03994 0
M  V30 357 H 33.7671 2.3559 -4.23937 0
M  V30 358 H 29.6461 3.18335 -3.33442 0
M  V30 359 H 33.1901 2.16277 -6.63227 0
M  V30 360 H 29.0871 2.99351 -5.71891 0
M  V30 361 H 29.8551 2.60753 -7.75855 0
M  V30 362 N 32.5182 1.22032 0.997298 0
M  V30 363 C 33.7662 1.04016 1.73278 0
M  V30 364 C 34.0872 -0.426255 1.90284 0
M  V30 365 O 33.3572 -1.30694 1.45931 0
M  V30 366 H 31.9372 0.381897 0.642 0
M  V30 367 H 34.5992 1.5347 1.20137 0
M  V30 368 H 33.6952 1.51441 2.72896 0
M  V30 369 N 33.9963 -1.19345 1.0293 0
M  V30 370 C 34.9283 -2.22036 0.56857 0
M  V30 371 C 35.9413 -1.58865 -0.355779 0
M  V30 372 O 37.1303 -1.77851 -0.152103 0
M  V30 373 C 34.2303 -3.38363 -0.190752 0
M  V30 374 C 33.4033 -4.31118 0.738643 0
M  V30 375 C 32.4623 -5.26194 0.0246497 0
M  V30 376 O 31.4883 -5.65461 0.651354 0
M  V30 377 N 32.6903 -5.66971 -1.24594 0
M  V30 378 H 35.4553 -2.6219 1.45177 0
M  V30 379 H 33.0163 -1.34015 0.908381 0
M  V30 380 H 35.0083 -3.98981 -0.677961 0
M  V30 381 H 33.5783 -2.96994 -0.975366 0
M  V30 382 H 32.7983 -3.68276 1.40593 0
M  V30 383 H 34.0863 -4.90001 1.37029 0
M  V30 384 H 33.4843 -5.37104 -1.77583 0
M  V30 385 H 32.0413 -6.2984 -1.67764 0
M  V30 386 N 35.4744 -0.807222 -1.35358 0
M  V30 387 C 36.4044 -0.232509 -2.3234 0
M  V30 388 C 37.3854 0.642386 -1.57504 0
M  V30 389 O 38.5704 0.572526 -1.85569 0
M  V30 390 C 35.7004 0.619238 -3.41735 0
M  V30 391 C 34.6544 -0.157215 -4.27711 0
M  V30 392 C 33.9804 0.816273 -5.28433 0
M  V30 393 C 35.2804 -1.35656 -5.04376 0
M  V30 394 H 36.9744 -1.04276 -2.80654 0
M  V30 395 H 34.5204 -0.50288 -1.34934 0
M  V30 396 H 36.4734 1.03137 -4.08584 0
M  V30 397 H 35.1974 1.46239 -2.92031 0
M  V30 398 H 33.8564 -0.550525 -3.62443 0
M  V30 399 H 33.5044 1.65494 -4.74996 0
M  V30 400 H 33.2044 0.301067 -5.86828 0
M  V30 401 H 34.7284 1.22659 -5.98153 0
M  V30 402 H 36.1424 -1.01927 -5.64166 0
M  V30 403 H 34.5394 -1.8063 -5.7227 0
M  V30 404 H 35.6094 -2.14288 -4.34981 0
M  V30 405 N 36.9525 1.47285 -0.560781 0
M  V30 406 C 38.2005 2.02064 -0.0379868 0
M  V30 407 C 38.5215 1.43711 1.31803 0
M  V30 408 O 37.7915 0.61362 1.86042 0
M  V30 409 H 36.3715 0.746918 -0.0110531 0
M  V30 410 H 39.0335 1.80648 -0.731598 0
M  V30 411 H 38.1295 3.12064 0.0474463 0
M  V30 412 N 38.4306 0.297415 1.54768 0
M  V30 413 C 39.6706 -0.313829 2.01976 0
M  V30 414 C 40.0346 -1.51366 1.1812 0
M  V30 415 O 41.2356 -2.19603 1.5501 0
M  V30 416 C 39.5066 -0.664964 3.51159 0
M  V30 417 S 41.0656 -1.25958 4.20333 0
M  V30 418 H 37.8836 -0.0965014 0.704421 0
M  V30 419 H 40.4856 0.424451 1.90837 0
M  V30 420 H 39.1896 0.21681 4.09827 0
M  V30 421 H 38.7206 -1.43413 3.66328 0
M  V30 422 H 40.7356 -2.54751 4.25813 0
M  V30 423 N 39.9087 -1.5758 0.0250728 0
M  V30 424 C 41.1557 -1.91633 -0.654444 0
M  V30 425 C 41.4837 -0.901103 -1.72367 0
M  V30 426 O 40.7387 0.0905647 -1.9549 0
M  V30 427 C 41.0377 -3.32421 -1.31268 0
M  V30 428 C 40.7037 -4.49344 -0.374223 0
M  V30 429 C 39.3657 -4.8106 -0.115911 0
M  V30 430 C 41.7177 -5.20498 0.270432 0
M  V30 431 C 39.0457 -5.8129 0.79493 0
M  V30 432 C 41.3977 -6.21699 1.1693 0
M  V30 433 C 40.0617 -6.51859 1.43655 0
M  V30 434 H 39.3317 -0.701236 -0.239478 0
M  V30 435 H 41.9787 -1.91307 0.0859734 0
M  V30 436 H 40.2837 -3.28989 -2.12775 0
M  V30 437 H 41.9807 -3.56038 -1.84494 0
M  V30 438 H 38.5707 -4.24579 -0.58573 0
M  V30 439 H 42.7547 -4.96229 0.0839194 0
M  V30 440 H 38.0107 -6.03005 1.00973 0
M  V30 441 H 42.1847 -6.75955 1.67504 0
M  V30 442 H 39.8117 -7.2934 2.144 0
M  V30 443 N 41.3868 0.248026 -1.55636 0
M  V30 444 C 42.6118 0.998028 -1.81808 0
M  V30 445 C 43.0368 1.78207 -0.601979 0
M  V30 446 O 42.3948 1.75653 0.448961 0
M  V30 447 C 42.4428 1.9125 -3.05705 0
M  V30 448 O 41.5468 3.00406 -2.82542 0
M  V30 449 H 40.8878 0.284045 -0.600179 0
M  V30 450 H 43.4178 0.269357 -2.02819 0
M  V30 451 H 43.4278 2.32737 -3.35108 0
M  V30 452 H 42.1028 1.33602 -3.93857 0
M  V30 453 H 40.6798 2.63056 -2.64303 0
M  V30 454 N 42.8649 1.48995 0.513639 0
M  V30 455 C 44.1419 1.48338 1.27495 0
M  V30 456 C 44.5219 0.204065 2.10111 0
M  V30 457 O 43.8699 -0.813881 2.13514 0
M  V30 458 C 44.0799 2.75498 2.14247 0
M  V30 459 C 45.4279 3.24484 2.73852 0
M  V30 460 O 46.4519 2.76528 2.24523 0
M  V30 461 O 45.3109 4.07974 3.6362 0
M  V30 462 H 42.4049 0.593149 0.576284 0
M  V30 463 H 44.9509 1.61246 0.528948 0
M  V30 464 H 43.7229 3.60109 1.53092 0
M  V30 465 H 43.3459 2.6539 2.96064 0
M  V30 466 N 44.343 -0.763751 1.37857 0
M  V30 467 C 45.253 -1.90817 1.36478 0
M  V30 468 C 46.269 -1.71997 0.263248 0
M  V30 469 O 47.445 -1.95095 0.499979 0
M  V30 470 C 44.51 -3.2605 1.17864 0
M  V30 471 C 43.571 -3.57467 2.3773 0
M  V30 472 C 42.804 -4.86249 2.19995 0
M  V30 473 O 43.027 -5.57884 1.18836 0
M  V30 474 O 41.961 -5.16911 3.08361 0
M  V30 475 H 45.787 -1.94933 2.32884 0
M  V30 476 H 43.372 -0.907619 1.1867 0
M  V30 477 H 45.254 -4.06924 1.09504 0
M  V30 478 H 43.929 -3.22769 0.245372 0
M  V30 479 H 42.836 -2.76796 2.51664 0
M  V30 480 H 44.169 -3.655 3.29652 0
M  V30 481 N 45.8211 -1.22559 -0.990812 0
M  V30 482 C 46.7681 -0.997519 -2.0813 0
M  V30 483 C 47.7381 0.0814702 -1.659 0
M  V30 484 O 48.9231 -0.0685424 -1.90677 0
M  V30 485 C 46.0631 -0.583615 -3.40129 0
M  V30 486 C 45.1761 -1.7336 -3.9569 0
M  V30 487 C 44.3111 -1.26748 -5.15857 0
M  V30 488 C 43.3501 -2.38888 -5.63559 0
M  V30 489 N 42.4871 -1.93308 -6.74964 0
M  V30 490 H 47.3271 -1.93099 -2.26973 0
M  V30 491 H 44.8641 -0.962114 -1.11273 0
M  V30 492 H 46.8221 -0.324801 -4.15934 0
M  V30 493 H 45.4521 0.312845 -3.2128 0
M  V30 494 H 44.5041 -2.10669 -3.16738 0
M  V30 495 H 45.8161 -2.57704 -4.27071 0
M  V30 496 H 44.9701 -0.966173 -5.98957 0
M  V30 497 H 43.7091 -0.394272 -4.86104 0
M  V30 498 H 42.7141 -2.69805 -4.79046 0
M  V30 499 H 43.9391 -3.26728 -5.95336 0
M  V30 500 H 41.8851 -1.08352 -6.4699 0
M  V30 501 H 41.8021 -2.71217 -7.05675 0
M  V30 502 H 43.0701 -1.66252 -7.61564 0
M  V30 503 N 47.2992 1.18797 -1.03562 0
M  V30 504 C 48.7102 1.70322 -0.764676 0
M  V30 505 C 49.0612 1.82708 0.714996 0
M  V30 506 O 48.1862 1.50299 1.55689 0
M  V30 507 C 48.7812 3.09356 -1.38145 0
M  V30 508 C 47.3402 3.58114 -1.15895 0
M  V30 509 C 46.4872 2.34798 -1.4753 0
M  V30 510 H 49.4382 1.03543 -1.20268 0
M  V30 511 H 49.4592 3.72378 -0.781977 0
M  V30 512 H 48.9712 3.00309 -2.45837 0
M  V30 513 H 47.0722 3.72464 -0.100544 0
M  V30 514 H 47.1852 4.4184 -1.8524 0
M  V30 515 H 45.5492 2.38464 -0.894829 0
M  V30 516 H 46.3322 2.28375 -2.56319 0
M  V30 517 N 48.7773 0.814389 1.34928 0
M  V30 518 C 50.0233 0.408167 1.99263 0
M  V30 519 C 50.3783 -1.0154 1.63424 0
M  V30 520 O 49.6713 -1.69607 0.891289 0
M  V30 521 C 49.8653 0.537781 3.53331 0
M  V30 522 C 49.6943 1.9724 4.04137 0
M  V30 523 C 48.4643 2.60245 4.33129 0
M  V30 524 C 50.6623 2.93801 4.2212 0
M  V30 525 N 48.6443 3.95036 4.69914 0
M  V30 526 C 50.0153 4.1348 4.6199 0
M  V30 527 C 52.0703 2.9053 4.04348 0
M  V30 528 C 50.7733 5.3033 4.85945 0
M  V30 529 C 52.7993 4.06589 4.29464 0
M  V30 530 C 52.1613 5.25017 4.69613 0
M  V30 531 H 48.2603 0.197289 0.756704 0
M  V30 532 H 50.8443 1.05728 1.63492 0
M  V30 533 H 49.0153 -0.0813868 3.88315 0
M  V30 534 H 50.7473 0.105389 4.04563 0
M  V30 535 H 47.5023 2.11545 4.23728 0
M  V30 536 H 47.9263 4.64455 4.92555 0
M  V30 537 H 52.5683 2.00115 3.72443 0
M  V30 538 H 50.2863 6.21309 5.16721 0
M  V30 539 H 53.8723 4.05447 4.17257 0
M  V30 540 H 52.7523 6.1333 4.88667 0
M  V30 541 N 50.2554 -1.46986 0.568584 0
M  V30 542 C 51.2184 -2.28624 -0.162366 0
M  V30 543 C 52.2184 -1.37596 -0.832103 0
M  V30 544 O 53.4084 -1.60115 -0.68622 0
M  V30 545 C 50.5404 -3.17596 -1.23878 0
M  V30 546 H 51.7334 -2.94722 0.554899 0
M  V30 547 H 49.2864 -1.52863 0.325976 0
M  V30 548 H 50.0214 -2.56214 -1.98808 0
M  V30 549 H 49.8064 -3.846 -0.763219 0
M  V30 550 H 51.2964 -3.79078 -1.75185 0
M  V30 551 N 51.7335 -0.305618 -1.54608 0
M  V30 552 C 52.9815 0.301701 -1.99835 0
M  V30 553 C 53.3025 1.54054 -1.19551 0
M  V30 554 O 52.5725 1.93702 -0.292658 0
M  V30 555 H 51.1525 0.114468 -0.738178 0
M  V30 556 H 53.8145 -0.418016 -1.90364 0
M  V30 557 H 52.9105 0.570548 -3.06841 0
M  V30 558 N 53.2116 1.57565 -0.0334293 0
M  V30 559 C 54.4396 1.9628 0.654347 0
M  V30 560 C 54.8546 0.910138 1.65414 0
M  V30 561 O 54.2116 -0.107595 1.82183 0
M  V30 562 C 54.2626 3.35067 1.35693 0
M  V30 563 O 53.9836 4.36296 0.397191 0
M  V30 564 C 55.4846 3.88439 2.13613 0
M  V30 565 H 52.7046 0.646369 0.180132 0
M  V30 566 H 55.2486 2.04282 -0.0944721 0
M  V30 567 H 53.4036 3.2827 2.05712 0
M  V30 568 H 53.8176 5.1678 0.896597 0
M  V30 569 H 55.2916 4.8788 2.58219 0
M  V30 570 H 55.7686 3.22914 2.97696 0
M  V30 571 H 56.3746 3.98516 1.48543 0
M  V30 572 N 54.6897 -0.239769 1.55765 0
M  V30 573 C 55.6197 -1.30052 1.9393 0
M  V30 574 C 56.6007 -1.49839 0.805132 0
M  V30 575 O 57.7857 -1.62328 1.06599 0
M  V30 576 C 54.9157 -2.65391 2.2402 0
M  V30 577 C 53.8697 -2.60289 3.39755 0
M  V30 578 C 53.1957 -3.99489 3.55405 0
M  V30 579 C 54.4957 -2.16654 4.75246 0
M  V30 580 H 56.1897 -0.983573 2.82783 0
M  V30 581 H 53.7357 -0.471701 1.36055 0
M  V30 582 H 55.6887 -3.3974 2.49308 0
M  V30 583 H 54.4127 -2.98736 1.32 0
M  V30 584 H 53.0717 -1.88398 3.14487 0
M  V30 585 H 52.7197 -4.30112 2.60793 0
M  V30 586 H 52.4197 -3.96962 4.33238 0
M  V30 587 H 53.9437 -4.75528 3.83022 0
M  V30 588 H 55.3577 -2.80737 4.99859 0
M  V30 589 H 53.7547 -2.25223 5.56232 0
M  V30 590 H 54.8247 -1.11835 4.71827 0
M  V30 591 N 56.1678 -1.49265 -0.50573 0
M  V30 592 C 57.0998 -1.617 -1.62437 0
M  V30 593 C 58.1128 -0.499924 -1.54934 0
M  V30 594 O 59.3018 -0.771785 -1.60953 0
M  V30 595 C 56.4018 -1.5533 -3.01207 0
M  V30 596 C 55.5748 -2.8249 -3.33943 0
M  V30 597 C 54.6338 -2.69238 -4.52103 0
M  V30 598 O 53.6598 -3.43167 -4.5412 0
M  V30 599 N 54.8618 -1.80468 -5.51735 0
M  V30 600 H 57.6268 -2.58177 -1.52199 0
M  V30 601 H 55.1878 -1.46294 -0.693511 0
M  V30 602 H 57.1798 -1.44125 -3.78167 0
M  V30 603 H 55.7498 -0.667297 -3.05395 0
M  V30 604 H 54.9698 -3.08081 -2.45926 0
M  V30 605 H 56.2578 -3.66802 -3.5261 0
M  V30 606 H 55.6558 -1.19653 -5.52901 0
M  V30 607 H 54.2128 -1.75188 -6.27816 0
M  V30 608 N 57.6459 0.756429 -1.3826 0
M  V30 609 C 59.0619 1.0591 -1.19395 0
M  V30 610 C 59.2619 2.01459 -0.0406567 0
M  V30 611 O 58.3179 2.44909 0.614467 0
M  V30 612 C 59.6309 1.64191 -2.51916 0
M  V30 613 C 61.1789 1.76376 -2.58574 0
M  V30 614 C 61.6539 2.38069 -3.91264 0
M  V30 615 N 63.1449 2.45503 -3.92788 0
M  V30 616 C 63.8799 2.94126 -4.92217 0
M  V30 617 N 63.3759 3.42805 -6.02043 0
M  V30 618 N 65.1689 2.9314 -4.7961 0
M  V30 619 H 57.3199 0.122313 -2.12048 0
M  V30 620 H 59.5829 0.116892 -0.940766 0
M  V30 621 H 59.2889 1.01451 -3.3675 0
M  V30 622 H 59.1629 2.6329 -2.70108 0
M  V30 623 H 61.5499 2.38244 -1.74137 0
M  V30 624 H 61.6309 0.759894 -2.44252 0
M  V30 625 H 61.2749 1.76835 -4.76121 0
M  V30 626 H 61.2049 3.39091 -4.02895 0
M  V30 627 H 63.6959 2.1107 -3.13461 0
M  V30 628 H 64.0089 3.78354 -6.73846 0
M  V30 629 H 62.3539 3.4087 -6.05667 0
M  V30 630 H 65.5449 2.54419 -3.92923 0
M  V30 631 H 65.7179 3.30721 -5.5725 0
M  V30 632 N 59.124 1.23083 0.984299 0
M  V30 633 C 60.535 1.05609 1.5396 0
M  V30 634 C 60.886 -0.377793 1.92528 0
M  V30 635 O 60.011 -1.26398 1.75649 0
M  V30 636 C 60.606 1.91087 2.7977 0
M  V30 637 C 59.165 1.77885 3.31713 0
M  V30 638 C 58.312 1.87028 2.04733 0
M  V30 639 H 61.263 1.36802 0.804419 0
M  V30 640 H 61.284 1.43336 3.5247 0
M  V30 641 H 60.796 2.9544 2.51668 0
M  V30 642 H 58.897 0.762995 3.64704 0
M  V30 643 H 59.01 2.61047 4.01735 0
M  V30 644 H 57.374 1.30565 2.18689 0
M  V30 645 H 58.157 2.92929 1.79017 0
M  V30 646 N 60.6021 -1.18246 1.0419 0
M  V30 647 C 61.8481 -1.88536 0.747122 0
M  V30 648 C 62.1811 -1.80223 -0.723409 0
M  V30 649 O 61.4561 -1.20337 -1.52804 0
M  V30 650 C 61.7391 -3.38968 1.21544 0
M  V30 651 C 61.5921 -3.56084 2.74816 0
M  V30 652 C 62.9111 -4.32648 0.806482 0
M  V30 653 H 60.0301 -0.684619 0.272883 0
M  V30 654 H 62.6721 -1.39113 1.29413 0
M  V30 655 H 60.8221 -3.8119 0.750081 0
M  V30 656 H 62.4941 -3.22946 3.29399 0
M  V30 657 H 60.7371 -2.98699 3.14582 0
M  V30 658 H 61.4081 -4.61639 3.02644 0
M  V30 659 H 63.8841 -3.98211 1.20695 0
M  V30 660 H 62.7601 -5.36462 1.1619 0
M  V30 661 H 63.0211 -4.41146 -0.29029 0
M  V30 662 N 62.0802 -0.821533 -1.34494 0
M  V30 663 C 63.0272 -0.240397 -2.29545 0
M  V30 664 C 63.9972 0.634031 -1.53523 0
M  V30 665 O 65.1822 0.575966 -1.81899 0
M  V30 666 C 62.3222 0.592869 -3.39969 0
M  V30 667 C 61.4352 -0.30365 -4.30932 0
M  V30 668 C 60.5702 0.539049 -5.28458 0
M  V30 669 C 59.6092 -0.356942 -6.11058 0
M  V30 670 N 58.7462 0.446603 -7.00678 0
M  V30 671 H 63.5862 -1.05632 -2.7865 0
M  V30 672 H 61.1232 -0.532413 -1.37127 0
M  V30 673 H 63.0812 1.09129 -4.02675 0
M  V30 674 H 61.7112 1.37392 -2.92102 0
M  V30 675 H 60.7632 -0.920276 -3.691 0
M  V30 676 H 62.0752 -0.992661 -4.88823 0
M  V30 677 H 61.2292 1.102 -5.96608 0
M  V30 678 H 59.9682 1.26157 -4.71101 0
M  V30 679 H 58.9732 -0.932047 -5.41842 0
M  V30 680 H 60.1982 -1.07755 -6.70497 0
M  V30 681 H 58.1442 1.15282 -6.45791 0
M  V30 682 H 58.0612 -0.184048 -7.55776 0
M  V30 683 H 59.3292 0.992352 -7.73158 0
M  V30 684 N 63.5583 1.46682 -0.576371 0
M  V30 685 C 64.4883 2.33028 0.148397 0
M  V30 686 C 65.4693 1.44961 0.889956 0
M  V30 687 O 66.6543 1.73789 0.866662 0
M  V30 688 C 63.7843 3.27117 1.1667 0
M  V30 689 C 62.7383 4.24575 0.540386 0
M  V30 690 C 62.0643 5.08126 1.6647 0
M  V30 691 C 63.3643 5.19722 -0.518331 0
M  V30 692 H 65.0583 2.93875 -0.572509 0
M  V30 693 H 62.6043 1.41315 -0.276768 0
M  V30 694 H 64.5573 3.86374 1.68204 0
M  V30 695 H 63.2813 2.64364 1.9178 0
M  V30 696 H 61.9403 3.66571 0.0461769 0
M  V30 697 H 61.5883 4.41762 2.40531 0
M  V30 698 H 61.2883 5.74122 1.25131 0
M  V30 699 H 62.8123 5.70246 2.18293 0
M  V30 700 H 64.2263 5.73232 -0.0883058 0
M  V30 701 H 62.6233 5.94026 -0.851679 0
M  V30 702 H 63.6933 4.64037 -1.40703 0
M  V30 703 N 65.0364 0.313813 1.54444 0
M  V30 704 C 65.9664 -0.549454 2.26943 0
M  V30 705 C 66.9474 -1.12741 1.27372 0
M  V30 706 O 68.1324 -1.15436 1.56167 0
M  V30 707 C 65.2624 -1.71523 3.01989 0
M  V30 708 C 64.2164 -1.26703 4.08816 0
M  V30 709 C 63.5424 -2.51898 4.71647 0
M  V30 710 C 64.8424 -0.388962 5.2085 0
M  V30 711 H 66.5364 0.0552661 2.99349 0
M  V30 712 H 64.0824 0.0280207 1.43973 0
M  V30 713 H 66.0354 -2.32535 3.51433 0
M  V30 714 H 64.7594 -2.34639 2.27183 0
M  V30 715 H 63.4184 -0.679896 3.6024 0
M  V30 716 H 63.0664 -3.13356 3.93468 0
M  V30 717 H 62.7664 -2.22605 5.43802 0
M  V30 718 H 64.2904 -3.1369 5.23861 0
M  V30 719 H 65.7044 -0.905107 5.6611 0
M  V30 720 H 64.1014 -0.18924 5.99802 0
M  V30 721 H 65.1714 0.582699 4.81386 0
M  V30 722 N 66.5145 -1.57545 0.0417849 0
M  V30 723 C 67.9255 -1.80011 -0.495259 0
M  V30 724 C 68.2765 -0.953199 -1.71489 0
M  V30 725 O 67.4015 -0.167138 -2.15754 0
M  V30 726 C 67.9965 -3.26482 -0.905265 0
M  V30 727 C 66.5555 -3.499 -1.38734 0
M  V30 728 C 65.7025 -2.74979 -0.358056 0
M  V30 729 H 68.6535 -1.56425 0.267736 0
M  V30 730 H 68.6745 -3.36887 -1.76882 0
M  V30 731 H 68.1865 -3.88096 -0.017401 0
M  V30 732 H 66.2875 -2.93553 -2.29471 0
M  V30 733 H 66.4005 -4.58615 -1.38598 0
M  V30 734 H 64.7645 -2.40834 -0.828912 0
M  V30 735 H 65.5475 -3.39315 0.521561 0
M  V30 736 N 67.9926 0.231505 -1.5589 0
M  V30 737 C 69.2386 0.954429 -1.79617 0
M  V30 738 C 69.5936 1.82367 -0.613199 0
M  V30 739 O 68.8866 1.87524 0.393094 0
M  V30 740 C 69.0806 1.83577 -3.0665 0
M  V30 741 C 68.9096 1.05334 -4.3719 0
M  V30 742 C 67.6796 0.75225 -4.99669 0
M  V30 743 C 69.8776 0.423444 -5.12554 0
M  V30 744 N 67.8596 -0.052627 -6.13877 0
M  V30 745 C 69.2306 -0.245287 -6.19515 0
M  V30 746 C 71.2856 0.335466 -4.96769 0
M  V30 747 C 69.9886 -0.993566 -7.12405 0
M  V30 748 C 72.0146 -0.399321 -5.9005 0
M  V30 749 C 71.3766 -1.05663 -6.9643 0
M  V30 750 H 67.4756 0.329846 -0.709031 0
M  V30 751 H 70.0596 0.226172 -1.93382 0
M  V30 752 H 68.2306 2.53592 -2.94186 0
M  V30 753 H 69.9626 2.49541 -3.18608 0
M  V30 754 H 66.7176 1.06783 -4.61405 0
M  V30 755 H 67.1416 -0.443609 -6.75545 0
M  V30 756 H 71.7836 0.829311 -4.14587 0
M  V30 757 H 69.5016 -1.49896 -7.94076 0
M  V30 758 H 73.0876 -0.468265 -5.79913 0
M  V30 759 H 71.9676 -1.61612 -7.67366 0
M  V30 760 N 69.4707 1.49531 0.497807 0
M  V30 761 C 70.6957 1.63159 1.28039 0
M  V30 762 C 71.1207 0.30418 1.85624 0
M  V30 763 O 70.4787 -0.728618 1.66015 0
M  V30 764 C 70.5267 2.70537 2.38416 0
M  V30 765 O 69.6307 2.29931 3.42353 0
M  V30 766 H 68.9717 0.546001 0.377861 0
M  V30 767 H 71.5017 1.9574 0.59558 0
M  V30 768 H 71.5117 2.92802 2.84132 0
M  V30 769 H 70.1867 3.6689 1.95869 0
M  V30 770 H 68.7637 2.18009 3.02533 0
M  V30 771 N 70.9488 -0.749086 1.3866 0
M  V30 772 C 72.3598 -1.32664 1.31366 0
M  V30 773 C 72.7108 -1.96179 -0.028484 0
M  V30 774 O 71.8358 -1.9537 -0.93057 0
M  V30 775 C 72.4308 -2.41219 2.37905 0
M  V30 776 C 70.9898 -2.94684 2.34176 0
M  V30 777 C 70.1368 -1.68108 2.20533 0
M  V30 778 H 73.0878 -0.547628 1.48952 0
M  V30 779 H 73.1088 -3.21268 2.0388 0
M  V30 780 H 72.6208 -1.94962 3.35576 0
M  V30 781 H 70.7218 -3.45258 1.401 0
M  V30 782 H 70.8348 -3.48757 3.2849 0
M  V30 783 H 69.1988 -1.91907 1.67463 0
M  V30 784 H 69.9818 -1.23923 3.20153 0
M  V30 785 N 72.4269 -1.23603 -0.977757 0
M  V30 786 C 73.3369 -1.03632 -2.1047 0
M  V30 787 C 74.3529 0.0199435 -1.73989 0
M  V30 788 O 75.5289 -0.176076 -2.00629 0
M  V30 789 C 72.5939 -0.63276 -3.40877 0
M  V30 790 C 71.6549 -1.76437 -3.91367 0
M  V30 791 C 70.8879 -1.37997 -5.15551 0
M  V30 792 O 71.1109 -0.265357 -5.69782 0
M  V30 793 O 70.0449 -2.20201 -5.60174 0
M  V30 794 H 73.8709 -1.98086 -2.30208 0
M  V30 795 H 71.4559 -1.02332 -1.08851 0
M  V30 796 H 73.3379 -0.418761 -4.19314 0
M  V30 797 H 72.0129 0.282754 -3.22463 0
M  V30 798 H 70.9199 -2.03304 -3.14036 0
M  V30 799 H 72.2529 -2.6583 -4.14241 0
M  V30 800 N 73.905 1.17692 -1.04816 0
M  V30 801 C 75.182 1.83768 -0.669963 0
M  V30 802 C 75.562 1.93232 0.849986 0
M  V30 803 O 74.91 1.46397 1.75443 0
M  V30 804 C 75.12 3.21641 -1.35455 0
M  V30 805 C 76.468 3.97592 -1.49017 0
M  V30 806 O 77.492 3.31107 -1.31326 0
M  V30 807 O 76.351 5.16729 -1.77914 0
M  V30 808 H 73.445 0.792799 -0.235368 0
M  V30 809 H 75.991 1.25021 -1.14751 0
M  V30 810 H 74.763 3.097 -2.39168 0
M  V30 811 H 74.386 3.88052 -0.866107 0
M  V30 812 N 75.3831 0.828654 1.34056 0
M  V30 813 C 76.6321 0.415828 1.97367 0
M  V30 814 C 76.9451 -1.02796 1.6641 0
M  V30 815 O 78.1511 -1.54497 2.23255 0
M  V30 816 C 76.6071 0.692601 3.53173 0
M  V30 817 C 76.2151 2.15038 3.93017 0
M  V30 818 C 77.9591 0.346222 4.23086 0
M  V30 819 C 75.8661 2.37174 5.41758 0
M  V30 820 H 74.7961 0.151755 0.738571 0
M  V30 821 H 77.4471 1.01581 1.52819 0
M  V30 822 H 75.8291 0.0223764 3.95994 0
M  V30 823 H 77.0031 2.86024 3.61285 0
M  V30 824 H 75.3181 2.45875 3.36057 0
M  V30 825 H 77.9151 0.48937 5.32456 0
M  V30 826 H 78.2581 -0.709842 4.10204 0
M  V30 827 H 78.7911 0.971258 3.85761 0
M  V30 828 H 75.5301 3.41308 5.59633 0
M  V30 829 H 75.0501 1.70738 5.74986 0
M  V30 830 H 76.7291 2.19818 6.08514 0
M  V30 831 N 76.8612 -1.46375 0.584142 0
M  V30 832 C 78.1382 -1.956 0.0033388 0
M  V30 833 C 78.5182 -1.52679 -1.45782 0
M  V30 834 O 77.8662 -0.77816 -2.14842 0
M  V30 835 C 78.0762 -3.48551 0.176891 0
M  V30 836 C 79.4242 -4.24576 0.0454609 0
M  V30 837 O 80.4482 -3.56043 0.105801 0
M  V30 838 O 79.3072 -5.46427 -0.0890376 0
M  V30 839 H 76.4012 -0.825547 -0.0490066 0
M  V30 840 H 78.9472 -1.56652 0.65256 0
M  V30 841 H 77.7192 -3.72683 1.1926 0
M  V30 842 H 77.3422 -3.94332 -0.508695 0
M  V30 843 N 78.3393 -0.321999 -1.54275 0
M  V30 844 C 79.5673 0.283052 -2.04955 0
M  V30 845 C 79.9823 1.45904 -1.19823 0
M  V30 846 O 79.3393 1.81063 -0.228545 0
M  V30 847 C 79.3903 0.719028 -3.54277 0
M  V30 848 O 79.1113 -0.410175 -4.36176 0
M  V30 849 C 80.6123 1.38705 -4.21041 0
M  V30 850 H 77.8323 0.0584616 -0.668448 0
M  V30 851 H 80.3763 -0.467734 -1.99079 0
M  V30 852 H 78.5313 1.41979 -3.60445 0
M  V30 853 H 78.9453 -0.0669416 -5.24457 0
M  V30 854 H 80.4193 1.64306 -5.2698 0
M  V30 855 H 80.8963 2.33385 -3.72059 0
M  V30 856 H 81.5023 0.728906 -4.19007 0
M  V30 857 N 79.8174 1.5752 -0.0501392 0
M  V30 858 C 81.2334 1.56631 0.306402 0
M  V30 859 C 81.4334 1.0577 1.71508 0
M  V30 860 O 80.4894 0.713837 2.422 0
M  V30 861 C 81.8024 3.00393 0.135811 0
M  V30 862 C 83.3504 3.12315 0.206993 0
M  V30 863 C 83.8254 4.57954 0.064944 0
M  V30 864 N 85.3164 4.63041 0.121254 0
M  V30 865 C 86.0514 5.73389 0.0354381 0
M  V30 866 N 85.5474 6.92724 -0.102666 0
M  V30 867 N 87.3404 5.62026 0.090946 0
M  V30 868 H 79.4914 1.88903 -0.971046 0
M  V30 869 H 81.7544 0.869876 -0.376855 0
M  V30 870 H 81.4604 3.41635 -0.835384 0
M  V30 871 H 81.3344 3.66373 0.897275 0
M  V30 872 H 83.7214 2.70973 1.16866 0
M  V30 873 H 83.8024 2.49016 -0.585208 0
M  V30 874 H 83.4464 4.99981 -0.893394 0
M  V30 875 H 83.3764 5.19258 0.876277 0
M  V30 876 H 85.8674 3.77216 0.227284 0
M  V30 877 H 86.1804 7.72633 -0.160882 0
M  V30 878 H 84.5254 6.94864 -0.137737 0
M  V30 879 H 87.7164 4.67684 0.197388 0
M  V30 880 H 87.8894 6.47997 0.0206089 0
M  V30 881 N 81.2955 -0.223234 1.56011 0
M  V30 882 C 82.5425 -0.947875 1.78946 0
M  V30 883 C 82.8705 -1.844 0.618608 0
M  V30 884 O 82.1255 -1.91629 -0.397093 0
M  V30 885 C 82.4245 -1.81948 3.0762 0
M  V30 886 C 82.0905 -1.07672 4.37856 0
M  V30 887 C 80.7525 -0.871544 4.73242 0
M  V30 888 C 83.1045 -0.552081 5.18268 0
M  V30 889 C 80.4325 -0.129791 5.86556 0
M  V30 890 C 82.7845 0.17632 6.32354 0
M  V30 891 C 81.4485 0.39277 6.66343 0
M  V30 892 H 80.7185 -0.346852 0.654809 0
M  V30 893 H 83.3655 -0.216171 1.90276 0
M  V30 894 H 81.6705 -2.61899 2.91404 0
M  V30 895 H 83.3675 -2.38227 3.22566 0
M  V30 896 H 79.9575 -1.24662 4.1007 0
M  V30 897 H 84.1415 -0.698076 4.91366 0
M  V30 898 H 79.3975 0.048153 6.11381 0
M  V30 899 H 83.5715 0.590367 6.93893 0
M  V30 900 H 81.1985 0.969466 7.53993 0
M  V30 901 N 82.7736 -1.49793 -0.48987 0
M  V30 902 C 83.7036 -1.70201 -1.59856 0
M  V30 903 C 84.6846 -0.55076 -1.60937 0
M  V30 904 O 85.8696 -0.787841 -1.77501 0
M  V30 905 C 82.9996 -1.77882 -2.98287 0
M  V30 906 C 81.9536 -2.92907 -3.12073 0
M  V30 907 C 81.2796 -2.85712 -4.51965 0
M  V30 908 C 82.5796 -4.3369 -2.91051 0
M  V30 909 H 84.2736 -2.63025 -1.43032 0
M  V30 910 H 81.8196 -1.26574 -0.686664 0
M  V30 911 H 83.7726 -1.90744 -3.75759 0
M  V30 912 H 82.4966 -0.816653 -3.16225 0
M  V30 913 H 81.1556 -2.79665 -2.37029 0
M  V30 914 H 80.8036 -1.8738 -4.66795 0
M  V30 915 H 80.5036 -3.62921 -4.62128 0
M  V30 916 H 82.0276 -3.00598 -5.31482 0
M  V30 917 H 83.4416 -4.47555 -3.58284 0
M  V30 918 H 81.8386 -5.12205 -3.12675 0
M  V30 919 H 82.9086 -4.47362 -1.87071 0
M  V30 920 N 84.2517 0.741722 -1.39055 0
M  V30 921 C 85.1817 1.869 -1.39966 0
M  V30 922 C 86.1627 1.6804 -0.26392 0
M  V30 923 O 87.3477 1.88458 -0.468755 0
M  V30 924 C 84.4777 3.24572 -1.23574 0
M  V30 925 C 83.4317 3.58056 -2.34477 0
M  V30 926 C 82.7577 4.94593 -2.0318 0
M  V30 927 C 84.0577 3.61716 -3.76774 0
M  V30 928 H 85.7517 1.86395 -2.34302 0
M  V30 929 H 83.2977 0.895361 -1.1278 0
M  V30 930 H 85.2507 4.031 -1.22834 0
M  V30 931 H 83.9747 3.25587 -0.257045 0
M  V30 932 H 82.6337 2.81854 -2.34423 0
M  V30 933 H 82.2817 4.92181 -1.03765 0
M  V30 934 H 81.9817 5.17964 -2.77465 0
M  V30 935 H 83.5057 5.75486 -2.04079 0
M  V30 936 H 84.9197 4.30335 -3.78794 0
M  V30 937 H 83.3167 3.96603 -4.50362 0
M  V30 938 H 84.3867 2.61672 -4.08235 0
M  V30 939 N 85.7298 1.2412 0.971189 0
M  V30 940 C 86.9598 1.10415 1.7462 0
M  V30 941 C 87.3678 -0.346462 1.86001 0
M  V30 942 O 86.7108 -1.25104 1.34517 0
M  V30 943 C 86.7728 1.66596 3.18568 0
M  V30 944 C 86.4368 3.15446 3.3067 0
M  V30 945 C 87.4338 4.12636 3.16271 0
M  V30 946 C 85.1188 3.55337 3.55022 0
M  V30 947 C 87.1128 5.47699 3.26044 0
M  V30 948 C 84.7998 4.90542 3.64434 0
M  V30 949 C 85.7978 5.86532 3.49956 0
M  V30 950 O 85.4858 7.19279 3.59017 0
M  V30 951 H 85.2178 0.386616 0.55453 0
M  V30 952 H 87.7718 1.64633 1.22821 0
M  V30 953 H 86.0018 1.06808 3.71657 0
M  V30 954 H 87.6908 1.48232 3.77865 0
M  V30 955 H 88.4568 3.8316 2.97344 0
M  V30 956 H 84.3358 2.8113 3.65359 0
M  V30 957 H 87.8798 6.22603 3.14661 0
M  V30 958 H 83.7768 5.19691 3.82873 0
M  V30 959 H 84.5448 7.27153 3.75754 0
M  V30 960 N 87.2079 -1.17134 1.05439 0
M  V30 961 C 88.4359 -1.91372 0.786414 0
M  V30 962 C 88.8509 -1.76955 -0.658202 0
M  V30 963 O 88.2079 -1.10838 -1.44987 0
M  V30 964 C 88.2589 -3.42356 1.1608 0
M  V30 965 O 87.9799 -3.56332 2.54871 0
M  V30 966 C 89.4809 -4.33663 0.919322 0
M  V30 967 H 86.7009 -0.607118 0.285743 0
M  V30 968 H 89.2449 -1.48525 1.40572 0
M  V30 969 H 87.3999 -3.82939 0.586191 0
M  V30 970 H 87.8139 -4.49896 2.69618 0
M  V30 971 H 89.2879 -5.38099 1.231 0
M  V30 972 H 89.7649 -4.38959 -0.145359 0
M  V30 973 H 90.3709 -3.98796 1.47789 0
M  V30 974 N 88.686 -0.835752 -1.33615 0
M  V30 975 C 89.634 -0.255238 -2.31195 0
M  V30 976 C 90.628 0.61107 -1.57995 0
M  V30 977 O 91.834 0.500979 -1.72888 0
M  V30 978 H 88.209 -0.0638085 -0.749288 0
M  V30 979 H 90.18 -1.09283 -2.77669 0
M  V30 980 C 88.929 0.55754 -3.43201 0
M  V30 981 H 88.252 -0.0997553 -3.99676 0
M  V30 982 H 89.692 0.929622 -4.13683 0
M  V30 983 C 88.151 1.73515 -2.88781 0
M  V30 984 O 88.681 2.83376 -2.84712 0
M  V30 985 N 86.887 1.55603 -2.4543 0
M  V30 986 H 86.434 0.662354 -2.48939 0
M  V30 987 H 86.392 2.34545 -2.09371 0
M  V30 988 N 90.1641 1.46063 -0.591896 0
M  V30 989 C 91.0741 2.34192 0.13831 0
M  V30 990 C 92.0901 1.50305 0.876608 0
M  V30 991 O 93.2661 1.8315 0.837728 0
M  V30 992 C 90.3311 3.27656 1.13326 0
M  V30 993 C 89.3921 4.27445 0.39863 0
M  V30 994 C 88.6251 5.16443 1.34618 0
M  V30 995 O 88.8481 5.08553 2.58321 0
M  V30 996 O 87.7821 5.95843 0.851768 0
M  V30 997 H 91.6081 2.98002 -0.58552 0
M  V30 998 H 89.1931 1.45188 -0.352239 0
M  V30 999 H 91.0751 3.85291 1.70671 0
M  V30 1000 H 89.7501 2.6643 1.83839 0
M  V30 1001 H 88.6571 3.73471 -0.216895 0
M  V30 1002 H 89.9901 4.91482 -0.265709 0
M  V30 1003 N 91.6422 0.330177 1.54103 0
M  V30 1004 C 92.5902 -0.548226 2.26047 0
M  V30 1005 C 93.5842 -1.11309 1.27698 0
M  V30 1006 O 94.7902 -1.06036 1.45452 0
M  V30 1007 H 91.1652 -0.195456 0.726155 0
M  V30 1008 H 93.1362 0.0807567 2.98291 0
M  V30 1009 C 91.8852 -1.69415 3.03634 0
M  V30 1010 H 91.2082 -1.26876 3.79134 0
M  V30 1011 H 92.6482 -2.28423 3.5721 0
M  V30 1012 C 91.1072 -2.61569 2.12328 0
M  V30 1013 O 91.6372 -3.63462 1.7105 0
M  V30 1014 N 89.8432 -2.29952 1.77681 0
M  V30 1015 H 89.3902 -1.47134 2.11446 0
M  V30 1016 H 89.3482 -2.91871 1.16869 0
M  V30 1017 N 93.1203 -1.57491 0.0584922 0
M  V30 1018 C 94.5313 -1.80526 -0.476138 0
M  V30 1019 C 94.8823 -0.971334 -1.70469 0
M  V30 1020 O 94.0073 -0.190012 -2.15564 0
M  V30 1021 C 94.6023 -3.27424 -0.870587 0
M  V30 1022 C 93.1613 -3.51351 -1.35015 0
M  V30 1023 C 92.3083 -2.75343 -0.32887 0
M  V30 1024 H 95.2593 -1.56133 0.284312 0
M  V30 1025 H 95.2803 -3.38745 -1.73299 0
M  V30 1026 H 94.7923 -3.88093 0.0237627 0
M  V30 1027 H 92.8933 -2.95971 -2.26345 0
M  V30 1028 H 93.0063 -4.60059 -1.33726 0
M  V30 1029 H 91.3703 -2.417 -0.803321 0
M  V30 1030 H 92.1533 -3.38743 0.557521 0
M  V30 1031 N 94.5984 0.214957 -1.56127 0
M  V30 1032 C 95.5464 1.28601 -1.93816 0
M  V30 1033 C 96.5404 1.48175 -0.821016 0
M  V30 1034 O 97.7464 1.49271 -1.0059 0
M  V30 1035 H 94.1214 0.431302 -0.616022 0
M  V30 1036 H 96.0924 0.940991 -2.83175 0
M  V30 1037 C 94.8414 2.62779 -2.27689 0
M  V30 1038 H 94.1644 2.48527 -3.13168 0
M  V30 1039 H 95.6044 3.36517 -2.57939 0
M  V30 1040 C 94.0634 3.18285 -1.10436 0
M  V30 1041 O 94.5934 4.00002 -0.368945 0
M  V30 1042 N 92.7994 2.7675 -0.886433 0
M  V30 1043 H 92.3464 2.10404 -1.48619 0
M  V30 1044 H 92.3044 3.14229 -0.103656 0
M  V30 1045 N 96.0765 1.50051 0.48192 0
M  V30 1046 C 97.0245 1.68635 1.60203 0
M  V30 1047 C 98.0185 0.552184 1.60148 0
M  V30 1048 O 99.2245 0.732377 1.64427 0
M  V30 1049 H 95.5995 0.532081 0.531407 0
M  V30 1050 H 97.5705 2.62616 1.41688 0
M  V30 1051 C 96.3195 1.78775 2.9822 0
M  V30 1052 H 95.6425 2.6543 2.98976 0
M  V30 1053 H 97.0825 1.95806 3.7608 0
M  V30 1054 C 95.5415 0.536849 3.32595 0
M  V30 1055 O 96.0715 -0.328897 4.00351 0
M  V30 1056 N 94.2775 0.394091 2.87915 0
M  V30 1057 H 93.8245 1.09962 2.32951 0
M  V30 1058 H 93.7825 -0.441737 3.11281 0
M  V30 1059 N 97.5546 -0.734337 1.39446 0
M  V30 1060 C 98.8016 -1.49391 1.36706 0
M  V30 1061 C 99.1296 -1.94465 -0.0367813 0
M  V30 1062 O 98.3846 -1.67154 -1.01774 0
M  V30 1063 C 98.6836 -2.74711 2.28623 0
M  V30 1064 C 98.3496 -2.48501 3.76242 0
M  V30 1065 C 97.0116 -2.41062 4.16464 0
M  V30 1066 C 99.3636 -2.26098 4.69606 0
M  V30 1067 C 96.6916 -2.09262 5.48112 0
M  V30 1068 C 99.0436 -1.95814 6.01531 0
M  V30 1069 C 97.7076 -1.86845 6.40816 0
M  V30 1070 H 96.9776 -0.546661 0.500243 0
M  V30 1071 H 99.6246 -0.842788 1.71957 0
M  V30 1072 H 97.9296 -3.44569 1.86492 0
M  V30 1073 H 99.6266 -3.32741 2.23796 0
M  V30 1074 H 96.2166 -2.55169 3.44364 0
M  V30 1075 H 100.401 -2.30812 4.39363 0
M  V30 1076 H 95.6566 -2.00841 5.77471 0
M  V30 1077 H 99.8306 -1.77488 6.73403 0
M  V30 1078 H 97.4576 -1.6197 7.42745 0
M  V30 1079 N 99.0327 -1.24633 -0.964593 0
M  V30 1080 C 99.9647 -0.999302 -2.06268 0
M  V30 1081 C 100.978 0.0323226 -1.62768 0
M  V30 1082 O 102.167 -0.205079 -1.77318 0
M  V30 1083 C 99.2667 -0.486816 -3.35385 0
M  V30 1084 C 98.4397 -1.5823 -4.07777 0
M  V30 1085 C 97.4987 -1.07191 -5.15166 0
M  V30 1086 O 96.5247 -1.76426 -5.41168 0
M  V30 1087 N 97.7267 0.0920373 -5.80427 0
M  V30 1088 H 100.492 -1.94477 -2.28033 0
M  V30 1089 H 98.0527 -1.15704 -1.13244 0
M  V30 1090 H 100.045 -0.130066 -4.04491 0
M  V30 1091 H 98.6147 0.364459 -3.10468 0
M  V30 1092 H 97.8347 -2.11109 -3.32906 0
M  V30 1093 H 99.1227 -2.31854 -4.52903 0
M  V30 1094 H 98.5207 0.670784 -5.61709 0
M  V30 1095 H 97.0777 0.389905 -6.50633 0
M  V30 1096 N 100.511 1.16574 -1.06058 0
M  V30 1097 C 101.441 2.23057 -0.690488 0
M  V30 1098 C 102.422 1.67141 0.315901 0
M  V30 1099 O 103.607 1.93253 0.191556 0
M  V30 1100 C 100.737 3.47222 -0.073625 0
M  V30 1101 C 99.6908 4.16016 -1.00573 0
M  V30 1102 C 99.0168 5.34104 -0.252289 0
M  V30 1103 C 100.317 4.67264 -2.33371 0
M  V30 1104 H 102.011 2.54271 -1.58072 0
M  V30 1105 H 99.5568 1.22218 -0.76149 0
M  V30 1106 H 101.51 4.20939 0.19714 0
M  V30 1107 H 100.234 3.15302 0.85161 0
M  V30 1108 H 98.8928 3.44223 -1.2612 0
M  V30 1109 H 98.5408 4.98437 0.675988 0
M  V30 1110 H 98.2408 5.81072 -0.873455 0
M  V30 1111 H 99.7648 6.10599 0.0109857 0
M  V30 1112 H 101.179 5.32573 -2.12223 0
M  V30 1113 H 99.5758 5.24843 -2.90963 0
M  V30 1114 H 100.646 3.83602 -2.96611 0
M  V30 1115 N 101.989 0.842826 1.3317 0
M  V30 1116 C 103.238 0.436738 1.96915 0
M  V30 1117 C 103.551 -1.01025 1.67491 0
M  V30 1118 O 104.757 -1.5212 2.24881 0
M  V30 1119 C 103.213 0.730021 3.52418 0
M  V30 1120 C 102.821 2.19195 3.90714 0
M  V30 1121 C 104.565 0.391076 4.22695 0
M  V30 1122 C 102.472 2.42907 5.39212 0
M  V30 1123 H 101.402 0.15958 0.736919 0
M  V30 1124 H 104.053 1.03196 1.51733 0
M  V30 1125 H 102.435 0.0643755 3.95948 0
M  V30 1126 H 103.609 2.8984 3.58231 0
M  V30 1127 H 101.924 2.49425 3.33431 0
M  V30 1128 H 104.521 0.545817 5.31907 0
M  V30 1129 H 104.864 -0.666294 4.10933 0
M  V30 1130 H 105.397 1.01212 3.84709 0
M  V30 1131 H 102.136 3.47224 5.55982 0
M  V30 1132 H 101.656 1.76827 5.73142 0
M  V30 1133 H 103.335 2.2626 6.06148 0
M  V30 1134 N 103.467 -1.45747 0.599634 0
M  V30 1135 C 104.695 -2.06668 0.0978551 0
M  V30 1136 C 105.11 -1.44562 -1.21439 0
M  V30 1137 O 104.467 -0.556923 -1.73795 0
M  V30 1138 C 104.518 -3.61456 -0.0567044 0
M  V30 1139 O 104.239 -4.21242 1.20361 0
M  V30 1140 C 105.74 -4.39345 -0.590869 0
M  V30 1141 H 102.96 -0.667825 0.0651943 0
M  V30 1142 H 105.504 -1.87115 0.82511 0
M  V30 1143 H 103.659 -3.80378 -0.734251 0
M  V30 1144 H 104.073 -5.14323 1.02821 0
M  V30 1145 H 105.547 -5.48182 -0.648131 0
M  V30 1146 H 106.024 -4.08568 -1.61147 0
M  V30 1147 H 106.63 -4.25268 0.0523679 0
M  V30 1148 N 104.945 -0.338344 -1.53925 0
M  V30 1149 C 106.193 0.259245 -2.0043 0
M  V30 1150 C 106.514 1.51484 -1.22791 0
M  V30 1151 O 105.784 1.93037 -0.33368 0
M  V30 1152 H 104.364 0.0987845 -0.740439 0
M  V30 1153 H 107.026 -0.458302 -1.89435 0
M  V30 1154 H 106.122 0.505334 -3.07982 0
M  V30 1155 N 106.423 1.57458 -0.0668435 0
M  V30 1156 C 107.651 1.97624 0.612565 0
M  V30 1157 C 108.066 0.94502 1.63447 0
M  V30 1158 O 107.423 -0.0689276 1.8237 0
M  V30 1159 C 107.474 3.37869 1.28555 0
M  V30 1160 O 107.195 4.3704 0.304557 0
M  V30 1161 C 108.696 3.92882 2.05325 0
M  V30 1162 H 105.916 0.650045 0.166381 0
M  V30 1163 H 108.46 2.04035 -0.137782 0
M  V30 1164 H 106.615 3.3256 1.98702 0
M  V30 1165 H 107.029 5.18565 0.786779 0
M  V30 1166 H 108.503 4.93247 2.47812 0
M  V30 1167 H 108.98 3.29156 2.9078 0
M  V30 1168 H 109.586 4.01577 1.40056 0
M  V30 1169 N 107.901 -0.206675 1.56239 0
M  V30 1170 C 108.811 -1.27686 1.96808 0
M  V30 1171 C 109.827 -1.50455 0.874035 0
M  V30 1172 O 111.003 -1.63295 1.17884 0
M  V30 1173 C 108.068 -2.60358 2.28942 0
M  V30 1174 C 107.129 -2.45762 3.51994 0
M  V30 1175 C 106.362 -3.72108 3.82585 0
M  V30 1176 O 106.585 -4.75776 3.14631 0
M  V30 1177 O 105.519 -3.6833 4.76043 0
M  V30 1178 H 109.345 -0.962593 2.88041 0
M  V30 1179 H 106.93 -0.410746 1.43643 0
M  V30 1180 H 108.812 -3.38687 2.50737 0
M  V30 1181 H 107.487 -2.91435 1.4088 0
M  V30 1182 H 106.394 -1.65584 3.35459 0
M  V30 1183 H 107.727 -2.19621 4.40486 0
M  V30 1184 N 109.379 -1.50304 -0.473955 0
M  V30 1185 C 110.79 -1.54042 -1.0549 0
M  V30 1186 C 111.141 -0.342248 -1.93192 0
M  V30 1187 O 110.266 0.545157 -2.09421 0
M  V30 1188 C 110.861 -2.79152 -1.91989 0
M  V30 1189 C 109.42 -2.8558 -2.45196 0
M  V30 1190 C 108.567 -2.48295 -1.2347 0
M  V30 1191 H 111.518 -1.5661 -0.256693 0
M  V30 1192 H 111.539 -2.60845 -2.7702 0
M  V30 1193 H 111.051 -3.66339 -1.28131 0
M  V30 1194 H 109.152 -2.02738 -3.12615 0
M  V30 1195 H 109.265 -3.88403 -2.80499 0
M  V30 1196 H 107.629 -2.00669 -1.56856 0
M  V30 1197 H 108.412 -3.37787 -0.612789 0
M  V30 1198 N 110.857 0.726932 -1.39834 0
M  V30 1199 C 112.134 1.47902 -1.28001 0
M  V30 1200 C 112.514 2.1083 0.106789 0
M  V30 1201 O 111.862 1.99242 1.11869 0
M  V30 1202 C 112.072 2.52392 -2.41038 0
M  V30 1203 C 113.42 3.18546 -2.80737 0
M  V30 1204 O 114.444 2.62708 -2.40547 0
M  V30 1205 O 113.303 4.19604 -3.50135 0
M  V30 1206 H 110.397 0.657163 -0.502062 0
M  V30 1207 H 112.943 0.760071 -1.51727 0
M  V30 1208 H 111.715 2.04329 -3.33715 0
M  V30 1209 H 111.338 3.31837 -2.19021 0
M  V30 1210 N 112.336 1.25143 0.95797 0
M  V30 1211 C 113.564 1.12424 1.73691 0
M  V30 1212 C 113.979 -0.322304 1.86029 0
M  V30 1213 O 113.336 -1.22186 1.35561 0
M  V30 1214 C 113.387 1.76933 3.15241 0
M  V30 1215 O 113.108 3.15932 3.03511 0
M  V30 1216 C 114.609 1.6995 4.09429 0
M  V30 1217 H 111.829 0.3923 0.544373 0
M  V30 1218 H 114.373 1.6544 1.20207 0
M  V30 1219 H 112.528 1.27895 3.6568 0
M  V30 1220 H 112.942 3.47598 3.9278 0
M  V30 1221 H 114.416 2.19753 5.06372 0
M  V30 1222 H 114.893 0.662619 4.34173 0
M  V30 1223 H 115.499 2.18461 3.64904 0
M  V30 1224 N 113.814 -1.1601 1.06675 0
M  V30 1225 C 115.063 -1.85973 0.780818 0
M  V30 1226 C 115.376 -1.82819 -0.695444 0
M  V30 1227 O 116.582 -2.484 -1.09589 0
M  V30 1228 C 115.038 -3.33757 1.34665 0
M  V30 1229 C 114.646 -3.45374 2.85343 0
M  V30 1230 C 116.39 -4.0895 1.13843 0
M  V30 1231 C 114.297 -4.87266 3.35151 0
M  V30 1232 H 113.227 -0.696661 0.288407 0
M  V30 1233 H 115.878 -1.30903 1.28595 0
M  V30 1234 H 114.26 -3.88456 0.769274 0
M  V30 1235 H 115.434 -3.00816 3.49065 0
M  V30 1236 H 113.749 -2.83619 3.04876 0
M  V30 1237 H 116.346 -5.13654 1.4854 0
M  V30 1238 H 116.689 -4.16229 0.0770282 0
M  V30 1239 H 117.222 -3.605 1.68179 0
M  V30 1240 H 113.961 -4.85168 4.40786 0
M  V30 1241 H 113.481 -5.32433 2.76179 0
M  V30 1242 H 115.16 -5.56097 3.30704 0
M  V30 1243 N 115.292 -0.849877 -1.32721 0
M  V30 1244 C 116.202 -0.293791 -2.32753 0
M  V30 1245 C 117.218 0.585906 -1.63839 0
M  V30 1246 O 118.394 0.487413 -1.95413 0
M  V30 1247 C 115.459 0.512752 -3.42887 0
M  V30 1248 C 114.52 -0.39252 -4.27502 0
M  V30 1249 C 113.753 0.375625 -5.32377 0
M  V30 1250 O 113.976 1.60613 -5.4732 0
M  V30 1251 O 112.91 -0.256094 -6.01355 0
M  V30 1252 H 116.736 -1.12242 -2.82197 0
M  V30 1253 H 114.321 -0.612685 -1.36259 0
M  V30 1254 H 116.203 0.970704 -4.10067 0
M  V30 1255 H 114.878 1.31826 -2.95641 0
M  V30 1256 H 113.785 -0.898547 -3.63149 0
M  V30 1257 H 115.118 -1.16309 -4.7826 0
M  V30 1258 N 116.77 1.45427 -0.607355 0
M  V30 1259 C 117.733 2.28974 0.101693 0
M  V30 1260 C 118.733 1.39754 0.795329 0
M  V30 1261 O 119.923 1.61878 0.643527 0
M  V30 1262 C 117.055 3.20768 1.15414 0
M  V30 1263 H 118.248 2.93147 -0.632844 0
M  V30 1264 H 115.801 1.51945 -0.366391 0
M  V30 1265 H 116.536 2.61395 1.91945 0
M  V30 1266 H 116.321 3.86489 0.66098 0
M  V30 1267 H 117.811 3.83589 1.65073 0
M  V30 1268 N 118.248 0.346503 1.53744 0
M  V30 1269 C 119.473 -0.253074 2.0585 0
M  V30 1270 C 119.898 -1.43202 1.21962 0
M  V30 1271 O 119.256 -1.79783 0.234073 0
M  V30 1272 C 119.304 -0.643193 3.54817 0
M  V30 1273 O 118.408 -1.74286 3.73762 0
M  V30 1274 H 117.749 -0.0413583 0.662711 0
M  V30 1275 H 120.279 0.501574 1.98357 0
M  V30 1276 H 120.289 -0.919526 3.97503 0
M  V30 1277 H 118.964 0.218966 4.15323 0
M  V30 1278 H 117.541 -1.46356 3.42979 0
M  V30 1279 N 119.726 -1.57421 0.075193 0
M  V30 1280 C 120.674 -2.14124 -0.908508 0
M  V30 1281 C 121.668 -1.07898 -1.30592 0
M  V30 1282 O 122.874 -1.26273 -1.28277 0
M  V30 1283 H 119.249 -0.684707 -0.310935 0
M  V30 1284 H 121.22 -2.95634 -0.405374 0
M  V30 1285 C 119.969 -2.72044 -2.16535 0
M  V30 1286 H 119.292 -3.53456 -1.86839 0
M  V30 1287 H 120.732 -3.15311 -2.83469 0
M  V30 1288 C 119.191 -1.66968 -2.92615 0
M  V30 1289 O 119.721 -1.0967 -3.86439 0
M  V30 1290 N 117.927 -1.37923 -2.55784 0
M  V30 1291 H 117.474 -1.84706 -1.79559 0
M  V30 1292 H 117.432 -0.67852 -3.06991 0
M  V30 1293 N 121.204 0.198386 -1.56346 0
M  V30 1294 C 122.451 0.919286 -1.80431 0
M  V30 1295 C 122.779 1.83393 -0.647866 0
M  V30 1296 O 122.034 1.92236 0.366556 0
M  V30 1297 C 122.333 1.77031 -3.10475 0
M  V30 1298 C 121.999 1.00693 -4.39513 0
M  V30 1299 C 120.661 0.796145 -4.74568 0
M  V30 1300 C 123.013 0.469559 -5.19081 0
M  V30 1301 C 120.341 0.0364588 -5.86689 0
M  V30 1302 C 122.693 -0.2769 -6.31994 0
M  V30 1303 C 121.357 -0.49873 -6.65634 0
M  V30 1304 H 120.627 0.336391 -0.660244 0
M  V30 1305 H 123.274 0.185872 -1.90596 0
M  V30 1306 H 121.579 2.5723 -2.95533 0
M  V30 1307 H 123.276 2.33065 -3.26315 0
M  V30 1308 H 119.866 1.18122 -4.12001 0
M  V30 1309 H 124.05 0.619816 -4.92414 0
M  V30 1310 H 119.306 -0.145412 -6.11227 0
M  V30 1311 H 123.48 -0.700684 -6.92866 0
M  V30 1312 H 121.107 -1.0893 -7.52355 0
M  V30 1313 N 122.682 1.50554 0.465978 0
M  V30 1314 C 123.614 1.65949 1.58093 0
M  V30 1315 C 124.627 0.540827 1.53554 0
M  V30 1316 O 125.816 0.814187 1.5885 0
M  V30 1317 C 122.916 1.63261 2.96983 0
M  V30 1318 C 122.089 2.91245 3.26336 0
M  V30 1319 C 121.148 2.8113 4.44806 0
M  V30 1320 O 120.174 3.55086 4.44862 0
M  V30 1321 N 121.376 1.95032 5.46756 0
M  V30 1322 H 124.141 2.62122 1.45301 0
M  V30 1323 H 121.702 1.48082 0.65448 0
M  V30 1324 H 123.694 1.54101 3.74212 0
M  V30 1325 H 122.264 0.748032 3.03518 0
M  V30 1326 H 121.484 3.14493 2.37672 0
M  V30 1327 H 122.772 3.76022 3.42761 0
M  V30 1328 H 122.17 1.3427 5.49534 0
M  V30 1329 H 120.727 1.91772 6.2295 0
M  V30 1330 N 124.16 -0.719506 1.40217 0
M  V30 1331 C 125.09 -1.8465 1.42922 0
M  V30 1332 C 126.071 -1.67599 0.29062 0
M  V30 1333 O 127.256 -1.87688 0.498677 0
M  V30 1334 C 124.386 -3.22565 1.28722 0
M  V30 1335 C 123.34 -3.54281 2.40144 0
M  V30 1336 C 122.666 -4.91298 2.11023 0
M  V30 1337 C 123.966 -3.55676 3.82481 0
M  V30 1338 H 125.66 -1.82644 2.37237 0
M  V30 1339 H 123.206 -0.877305 1.1419 0
M  V30 1340 H 125.159 -4.01095 1.29232 0
M  V30 1341 H 123.883 -3.25137 0.308811 0
M  V30 1342 H 122.542 -2.78088 2.38877 0
M  V30 1343 H 122.19 -4.90468 1.11582 0
M  V30 1344 H 121.89 -5.13485 2.8567 0
M  V30 1345 H 123.414 -5.72166 2.13209 0
M  V30 1346 H 124.828 -4.24254 3.85592 0
M  V30 1347 H 123.225 -3.89388 4.56614 0
M  V30 1348 H 124.295 -2.55144 4.12346 0
M  V30 1349 N 125.638 -1.25649 -0.95132 0
M  V30 1350 C 126.915 -1.01361 -1.67288 0
M  V30 1351 C 127.295 0.459135 -2.06046 0
M  V30 1352 O 126.643 1.43723 -1.7764 0
M  V30 1353 C 126.853 -1.95256 -2.89268 0
M  V30 1354 C 128.201 -2.23289 -3.61147 0
M  V30 1355 O 129.225 -1.93041 -2.99355 0
M  V30 1356 O 128.084 -2.74741 -4.72419 0
M  V30 1357 H 125.178 -0.38464 -0.732107 0
M  V30 1358 H 127.724 -1.36817 -1.00395 0
M  V30 1359 H 126.496 -2.94685 -2.57442 0
M  V30 1360 H 126.119 -1.60218 -3.6389 0
M  V30 1361 N 127.117 1.15442 -1.07289 0
M  V30 1362 C 128.533 1.38201 -0.798288 0
M  V30 1363 C 128.733 1.92429 0.597769 0
M  V30 1364 O 127.789 2.12962 1.3566 0
M  V30 1365 C 129.102 2.35357 -1.87156 0
M  V30 1366 C 130.65 2.49021 -1.89624 0
M  V30 1367 C 131.125 3.49468 -2.96034 0
M  V30 1368 N 132.616 3.57003 -2.95132 0
M  V30 1369 C 133.351 4.34543 -3.74112 0
M  V30 1370 N 132.847 5.15421 -4.6294 0
M  V30 1371 N 134.64 4.29625 -3.62462 0
M  V30 1372 H 126.791 0.78584 -1.97328 0
M  V30 1373 H 129.054 0.408065 -0.855679 0
M  V30 1374 H 128.76 2.02626 -2.87464 0
M  V30 1375 H 128.634 3.35129 -1.73114 0
M  V30 1376 H 131.021 2.81051 -0.899687 0
M  V30 1377 H 131.102 1.4925 -2.07745 0
M  V30 1378 H 130.746 3.18173 -3.95889 0
M  V30 1379 H 130.676 4.48992 -2.75161 0
M  V30 1380 H 133.167 2.99276 -2.30743 0
M  V30 1381 H 133.48 5.7183 -5.19837 0
M  V30 1382 H 131.825 5.14729 -4.66989 0
M  V30 1383 H 135.016 3.65505 -2.92444 0
M  V30 1384 H 135.189 4.89807 -4.24256 0
M  V30 1385 N 128.595 0.856903 1.32268 0
M  V30 1386 C 129.542 0.301172 2.28827 0
M  V30 1387 C 130.512 -0.593104 1.5515 0
M  V30 1388 O 131.697 -0.527537 1.83362 0
M  V30 1389 C 128.837 -0.502523 3.41422 0
M  V30 1390 C 127.95 0.417797 4.29975 0
M  V30 1391 C 127.085 -0.398749 5.29701 0
M  V30 1392 C 126.124 0.518827 6.09897 0
M  V30 1393 N 125.261 -0.260674 7.01616 0
M  V30 1394 H 130.101 1.12983 2.75751 0
M  V30 1395 H 127.638 0.568582 1.35667 0
M  V30 1396 H 129.596 -0.984141 4.05426 0
M  V30 1397 H 128.226 -1.29599 2.95642 0
M  V30 1398 H 127.278 1.01781 3.66531 0
M  V30 1399 H 128.59 1.12191 4.86019 0
M  V30 1400 H 127.744 -0.943435 5.9932 0
M  V30 1401 H 126.483 -1.13622 4.7428 0
M  V30 1402 H 125.488 1.07538 5.39181 0
M  V30 1403 H 126.713 1.25495 6.67404 0
M  V30 1404 H 124.659 -0.981198 6.4862 0
M  V30 1405 H 124.576 0.384364 7.55022 0
M  V30 1406 H 125.844 -0.787014 7.75517 0
M  V30 1407 N 130.073 -1.45103 0.615059 0
M  V30 1408 C 131.301 -2.06553 0.11977 0
M  V30 1409 C 131.716 -1.45842 -1.19898 0
M  V30 1410 O 131.073 -0.575325 -1.73194 0
M  V30 1411 C 131.124 -3.61495 -0.018364 0
M  V30 1412 O 130.845 -4.19942 1.24822 0
M  V30 1413 C 132.346 -4.39947 -0.544237 0
M  V30 1414 H 129.566 -0.667096 0.0722739 0
M  V30 1415 H 132.11 -1.8623 0.84491 0
M  V30 1416 H 130.265 -3.81135 -0.693865 0
M  V30 1417 H 130.679 -5.13204 1.0827 0
M  V30 1418 H 132.153 -5.48838 -0.589953 0
M  V30 1419 H 132.63 -4.10255 -1.56805 0
M  V30 1420 H 133.236 -4.25188 0.0974703 0
M  V30 1421 N 131.551 -0.354651 -1.53558 0
M  V30 1422 C 132.967 -0.00315426 -1.596 0
M  V30 1423 C 133.167 1.47741 -1.37021 0
M  V30 1424 O 132.223 2.23759 -1.16996 0
M  V30 1425 C 133.536 -0.44929 -2.97325 0
M  V30 1426 C 135.084 -0.402578 -3.104 0
M  V30 1427 C 135.559 -0.824355 -4.5052 0
M  V30 1428 N 137.05 -0.778979 -4.56603 0
M  V30 1429 C 137.785 -1.07715 -5.63192 0
M  V30 1430 N 137.281 -1.44405 -6.77583 0
M  V30 1431 N 139.074 -1.00066 -5.53121 0
M  V30 1432 H 131.225 -1.31893 -1.66487 0
M  V30 1433 H 133.488 -0.538388 -0.780284 0
M  V30 1434 H 133.194 -1.48202 -3.1895 0
M  V30 1435 H 133.068 0.169772 -3.76818 0
M  V30 1436 H 135.455 0.621004 -2.88492 0
M  V30 1437 H 135.536 -1.05699 -2.32941 0
M  V30 1438 H 135.18 -1.846 -4.73165 0
M  V30 1439 H 135.11 -0.147304 -5.26394 0
M  V30 1440 H 137.601 -0.508528 -3.74463 0
M  V30 1441 H 137.914 -1.65612 -7.54846 0
M  V30 1442 H 136.259 -1.4826 -6.79002 0
M  V30 1443 H 139.45 -0.713293 -4.62633 0
M  V30 1444 H 139.623 -1.23638 -6.36096 0
M  V30 1445 N 133.029 1.57378 -0.0835403 0
M  V30 1446 C 134.276 1.9393 0.58287 0
M  V30 1447 C 134.604 0.964455 1.68904 0
M  V30 1448 O 133.859 -0.0179474 1.95692 0
M  V30 1449 C 134.158 3.37063 1.1884 0
M  V30 1450 C 133.824 4.50424 0.207194 0
M  V30 1451 C 132.486 4.81159 -0.0627115 0
M  V30 1452 C 134.838 5.19136 -0.463426 0
M  V30 1453 C 132.166 5.77939 -1.01012 0
M  V30 1454 C 134.518 6.16931 -1.39924 0
M  V30 1455 C 133.182 6.46078 -1.67749 0
M  V30 1456 H 132.452 0.70964 0.213287 0
M  V30 1457 H 135.099 1.90856 -0.156916 0
M  V30 1458 H 133.404 3.3666 2.00418 0
M  V30 1459 H 135.101 3.6264 1.71153 0
M  V30 1460 H 131.691 4.2646 0.427747 0
M  V30 1461 H 135.875 4.95576 -0.268034 0
M  V30 1462 H 131.131 5.98842 -1.23283 0
M  V30 1463 H 135.305 6.69273 -1.92476 0
M  V30 1464 H 132.932 7.2088 -2.41321 0
M  V30 1465 N 134.507 -0.190092 1.56449 0
M  V30 1466 C 135.756 -0.907912 1.80111 0
M  V30 1467 C 136.069 -1.84214 0.657619 0
M  V30 1468 O 137.275 -2.60094 0.778663 0
M  V30 1469 C 135.731 -1.66485 3.19078 0
M  V30 1470 C 135.339 -0.7752 4.41242 0
M  V30 1471 C 137.083 -2.37201 3.52045 0
M  V30 1472 C 134.99 -1.53129 5.71231 0
M  V30 1473 H 133.92 -0.34276 0.671589 0
M  V30 1474 H 136.571 -0.161109 1.82791 0
M  V30 1475 H 134.953 -2.45572 3.10661 0
M  V30 1476 H 136.127 -0.0226298 4.60794 0
M  V30 1477 H 134.442 -0.178627 4.16017 0
M  V30 1478 H 137.039 -2.94329 4.46402 0
M  V30 1479 H 137.382 -3.11632 2.76028 0
M  V30 1480 H 137.915 -1.65075 3.61932 0
M  V30 1481 H 134.654 -0.82967 6.50228 0
M  V30 1482 H 134.174 -2.25767 5.55688 0
M  V30 1483 H 135.853 -2.08377 6.12526 0
M  V30 1484 N 135.985 -1.50799 -0.457987 0
M  V30 1485 C 137.234 -1.6168 -1.20593 0
M  V30 1486 C 137.547 -0.32888 -1.92815 0
M  V30 1487 O 138.753 -0.316773 -2.69646 0
M  V30 1488 C 137.209 -2.8545 -2.19195 0
M  V30 1489 C 136.817 -4.21168 -1.52715 0
M  V30 1490 C 138.561 -3.05681 -2.94549 0
M  V30 1491 C 136.468 -5.3611 -2.4968 0
M  V30 1492 H 135.398 -0.602134 -0.453818 0
M  V30 1493 H 138.049 -1.77245 -0.475031 0
M  V30 1494 H 136.431 -2.63472 -2.95632 0
M  V30 1495 H 137.605 -4.53449 -0.819775 0
M  V30 1496 H 135.92 -4.06648 -0.895922 0
M  V30 1497 H 138.517 -3.88727 -3.67145 0
M  V30 1498 H 138.86 -2.17929 -3.54701 0
M  V30 1499 H 139.393 -3.27901 -2.25223 0
M  V30 1500 H 136.132 -6.26057 -1.94249 0
M  V30 1501 H 135.652 -5.0823 -3.18532 0
M  V30 1502 H 137.331 -5.6722 -3.11241 0
M  V30 1503 N 137.463 0.71206 -1.40597 0
M  V30 1504 C 138.413 1.81783 -1.37619 0
M  V30 1505 C 139.397 1.58896 -0.253162 0
M  V30 1506 O 140.589 1.70009 -0.492547 0
M  V30 1507 C 137.718 3.19944 -1.24462 0
M  V30 1508 C 136.804 3.48582 -2.4156 0
M  V30 1509 N 137.195 3.48016 -3.67041 0
M  V30 1510 C 135.493 3.79056 -2.35016 0
M  V30 1511 C 136.194 3.75096 -4.44609 0
M  V30 1512 N 135.17 3.94022 -3.74497 0
M  V30 1513 H 138.972 1.79683 -2.32575 0
M  V30 1514 H 136.486 0.91134 -1.34419 0
M  V30 1515 H 138.483 3.99133 -1.20411 0
M  V30 1516 H 137.143 3.23267 -0.304762 0
M  V30 1517 H 138.154 3.28782 -4.00153 0
M  V30 1518 H 134.831 3.89848 -1.49415 0
M  V30 1519 H 136.221 3.80934 -5.53479 0
M  V30 1520 N 138.941 1.26152 0.944643 0
M  V30 1521 C 140.189 1.11271 1.6871 0
M  V30 1522 C 140.51 -0.345166 1.91921 0
M  V30 1523 O 139.78 -1.24387 1.51343 0
M  V30 1524 H 138.36 0.408783 0.625224 0
M  V30 1525 H 141.022 1.58427 1.1352 0
M  V30 1526 H 140.118 1.62879 2.66227 0
M  V30 1527 N 140.419 -1.14872 1.07899 0
M  V30 1528 C 141.666 -1.85789 0.805532 0
M  V30 1529 C 141.994 -1.82649 -0.668561 0
M  V30 1530 O 141.249 -1.24858 -1.50695 0
M  V30 1531 C 141.548 -3.34223 1.26609 0
M  V30 1532 C 141.214 -3.57555 2.74709 0
M  V30 1533 C 139.876 -3.63631 3.1516 0
M  V30 1534 C 142.228 -3.66803 3.70277 0
M  V30 1535 C 139.556 -3.76473 4.49983 0
M  V30 1536 C 141.908 -3.8117 5.04869 0
M  V30 1537 C 140.572 -3.85494 5.44932 0
M  V30 1538 H 139.842 -0.679849 0.294765 0
M  V30 1539 H 142.489 -1.3572 1.35101 0
M  V30 1540 H 140.794 -3.86536 0.640103 0
M  V30 1541 H 142.491 -3.87511 1.03132 0
M  V30 1542 H 139.081 -3.5347 2.42398 0
M  V30 1543 H 143.265 -3.61404 3.40149 0
M  V30 1544 H 138.521 -3.7808 4.80484 0
M  V30 1545 H 142.695 -3.87268 5.78789 0
M  V30 1546 H 140.322 -3.95197 6.49403 0
M  V30 1547 N 141.898 -0.863906 -1.31812 0
M  V30 1548 C 142.828 -0.330843 -2.31144 0
M  V30 1549 C 143.809 0.575005 -1.60087 0
M  V30 1550 O 144.994 0.493304 -1.8783 0
M  V30 1551 C 142.124 0.47374 -3.44054 0
M  V30 1552 C 141.078 -0.338481 -4.26659 0
M  V30 1553 C 140.404 0.591412 -5.31419 0
M  V30 1554 C 141.704 -1.56926 -4.98168 0
M  V30 1555 H 143.398 -1.16086 -2.75979 0
M  V30 1556 H 140.944 -0.559657 -1.32679 0
M  V30 1557 H 142.897 0.857143 -4.12591 0
M  V30 1558 H 141.621 1.33721 -2.9797 0
M  V30 1559 H 140.28 -0.703754 -3.59782 0
M  V30 1560 H 139.928 1.45199 -4.81587 0
M  V30 1561 H 139.628 0.0519022 -5.87577 0
M  V30 1562 H 141.152 0.97179 -6.02817 0
M  V30 1563 H 142.566 -1.25764 -5.59336 0
M  V30 1564 H 140.963 -2.04739 -5.64094 0
M  V30 1565 H 142.033 -2.32544 -4.25501 0
M  V30 1566 N 143.376 1.44774 -0.622745 0
M  V30 1567 C 144.653 1.95522 -0.0551974 0
M  V30 1568 C 145.033 1.5649 1.41683 0
M  V30 1569 O 144.381 0.834848 2.12703 0
M  V30 1570 C 144.591 3.4796 -0.269242 0
M  V30 1571 C 145.939 4.24306 -0.158014 0
M  V30 1572 O 146.963 3.55637 -0.200162 0
M  V30 1573 O 145.822 5.46471 -0.0558693 0
M  V30 1574 H 142.916 0.826556 0.0271015 0
M  V30 1575 H 145.462 1.54866 -0.693864 0
M  V30 1576 H 144.234 3.6939 -1.29099 0
M  V30 1577 H 143.857 3.95543 0.403966 0
M  V30 1578 N 144.854 0.36279 1.53368 0
M  V30 1579 C 145.801 -0.485008 2.25646 0
M  V30 1580 C 146.771 -1.07982 1.2621 0
M  V30 1581 O 147.956 -1.11284 1.54986 0
M  V30 1582 C 145.096 -1.62023 3.04701 0
M  V30 1583 C 144.209 -1.05086 4.19024 0
M  V30 1584 C 143.344 -2.15496 4.85525 0
M  V30 1585 C 142.383 -1.5601 5.91884 0
M  V30 1586 N 141.52 -2.60241 6.52088 0
M  V30 1587 H 146.36 0.137864 2.97681 0
M  V30 1588 H 143.897 0.0798061 1.46883 0
M  V30 1589 H 145.855 -2.28887 3.48807 0
M  V30 1590 H 144.485 -2.2138 2.34927 0
M  V30 1591 H 143.537 -0.27259 3.79422 0
M  V30 1592 H 144.849 -0.575926 4.95464 0
M  V30 1593 H 144.003 -2.90186 5.32801 0
M  V30 1594 H 142.742 -2.66341 4.08551 0
M  V30 1595 H 141.747 -0.798338 5.43973 0
M  V30 1596 H 142.972 -1.05994 6.70777 0
M  V30 1597 H 140.918 -3.10304 5.77968 0
M  V30 1598 H 140.835 -2.17426 7.24059 0
M  V30 1599 H 142.103 -3.34641 7.04014 0
M  V30 1600 N 146.332 -1.57332 0.0918853 0
M  V30 1601 C 147.295 -2.12708 -0.85369 0
M  V30 1602 C 148.295 -1.05561 -1.213 0
M  V30 1603 O 149.485 -1.31461 -1.14296 0
M  V30 1604 C 146.617 -2.64503 -2.15061 0
M  V30 1605 H 147.81 -2.97573 -0.3729 0
M  V30 1606 H 145.363 -1.55509 -0.157072 0
M  V30 1607 H 146.098 -1.83149 -2.67632 0
M  V30 1608 H 145.883 -3.4284 -1.90272 0
M  V30 1609 H 147.373 -3.07351 -2.82711 0
M  V30 1610 N 147.81 0.181792 -1.56548 0
M  V30 1611 C 148.72 1.24538 -1.98815 0
M  V30 1612 C 149.736 1.49045 -0.897861 0
M  V30 1613 O 150.912 1.61399 -1.20467 0
M  V30 1614 C 147.977 2.56683 -2.33055 0
M  V30 1615 C 147.038 2.40131 -3.55859 0
M  V30 1616 C 146.271 3.65975 -3.88456 0
M  V30 1617 O 146.494 4.70711 -3.22161 0
M  V30 1618 O 145.428 3.6071 -4.81842 0
M  V30 1619 H 149.254 0.916647 -2.89536 0
M  V30 1620 H 146.839 0.387842 -1.44278 0
M  V30 1621 H 148.721 3.34655 -2.56094 0
M  V30 1622 H 147.396 2.89157 -1.45498 0
M  V30 1623 H 146.303 1.60226 -3.38051 0
M  V30 1624 H 147.636 2.12585 -4.43924 0
M  V30 1625 N 149.288 1.51039 0.449983 0
M  V30 1626 C 150.565 1.53612 1.21089 0
M  V30 1627 C 150.945 0.292997 2.09057 0
M  V30 1628 O 150.293 -0.72259 2.16774 0
M  V30 1629 C 150.503 2.84337 2.0237 0
M  V30 1630 C 151.851 3.35807 2.59843 0
M  V30 1631 O 152.875 2.85802 2.12593 0
M  V30 1632 O 151.734 4.23029 3.45989 0
M  V30 1633 H 148.828 0.617057 0.550608 0
M  V30 1634 H 151.374 1.63344 0.460082 0
M  V30 1635 H 150.146 3.66278 1.37681 0
M  V30 1636 H 149.769 2.77708 2.84542 0
M  V30 1637 N 150.766 -0.704594 1.40972 0
M  V30 1638 C 151.991 -1.49858 1.43378 0
M  V30 1639 C 152.416 -1.88061 0.038184 0
M  V30 1640 O 151.774 -1.5402 -0.956425 0
M  V30 1641 C 151.822 -2.74333 2.34038 0
M  V30 1642 O 150.926 -3.7147 1.7912 0
M  V30 1643 H 150.267 -0.45139 0.486974 0
M  V30 1644 H 152.797 -0.866832 1.8533 0
M  V30 1645 H 152.807 -3.22741 2.49604 0
M  V30 1646 H 151.482 -2.45863 3.35446 0
M  V30 1647 H 150.059 -3.30363 1.72958 0
M  V30 1648 N 152.244 -1.26651 -0.937939 0
M  V30 1649 C 153.49 -1.13562 -1.68746 0
M  V30 1650 C 153.845 0.317241 -1.89767 0
M  V30 1651 O 153.138 1.22939 -1.46957 0
M  V30 1652 C 153.332 -1.84168 -3.06295 0
M  V30 1653 C 153.161 -3.36171 -2.98696 0
M  V30 1654 C 151.931 -4.05468 -3.01535 0
M  V30 1655 C 154.129 -4.32312 -2.78588 0
M  V30 1656 N 152.111 -5.44118 -2.84269 0
M  V30 1657 C 153.482 -5.58159 -2.69924 0
M  V30 1658 C 155.537 -4.22524 -2.63396 0
M  V30 1659 C 154.24 -6.75335 -2.47618 0
M  V30 1660 C 156.266 -5.39411 -2.42466 0
M  V30 1661 C 155.628 -6.64208 -2.34536 0
M  V30 1662 H 151.727 -0.470361 -0.624728 0
M  V30 1663 H 154.311 -1.59982 -1.10968 0
M  V30 1664 H 152.482 -1.40219 -3.62206 0
M  V30 1665 H 154.214 -1.63674 -3.70126 0
M  V30 1666 H 150.969 -3.56854 -3.11372 0
M  V30 1667 H 151.393 -6.1693 -2.78795 0
M  V30 1668 H 156.035 -3.26771 -2.68292 0
M  V30 1669 H 153.753 -7.71182 -2.41463 0
M  V30 1670 H 157.339 -5.33711 -2.31611 0
M  V30 1671 H 156.219 -7.53129 -2.18555 0
M  V30 1672 N 153.722 1.14298 -1.08507 0
M  V30 1673 C 155.133 1.66926 -0.836227 0
M  V30 1674 C 155.484 1.85576 0.63686 0
M  V30 1675 O 154.609 1.56767 1.49175 0
M  V30 1676 C 155.204 3.03219 -1.51142 0
M  V30 1677 C 153.763 3.52876 -1.30979 0
M  V30 1678 C 152.91 2.2833 -1.57356 0
M  V30 1679 H 155.861 0.983491 -1.24552 0
M  V30 1680 H 155.882 3.68726 -0.939211 0
M  V30 1681 H 155.394 2.89612 -2.58353 0
M  V30 1682 H 153.495 3.71703 -0.258429 0
M  V30 1683 H 153.608 4.33586 -2.03814 0
M  V30 1684 H 151.972 2.34454 -0.995164 0
M  V30 1685 H 152.755 2.17298 -2.65775 0
M  V30 1686 N 155.201 0.870884 1.31352 0
M  V30 1687 C 156.426 0.495957 2.01383 0
M  V30 1688 C 156.851 -0.904324 1.64935 0
M  V30 1689 O 156.209 -1.59687 0.858466 0
M  V30 1690 C 156.257 0.661433 3.54482 0
M  V30 1691 O 155.361 -0.298851 4.11316 0
M  V30 1692 H 154.702 0.197158 0.634054 0
M  V30 1693 H 157.232 1.17455 1.67527 0
M  V30 1694 H 157.242 0.555072 4.04207 0
M  V30 1695 H 155.917 1.68246 3.8035 0
M  V30 1696 H 154.494 -0.147368 3.72609 0
M  V30 1697 N 156.679 -1.44442 0.630414 0
M  V30 1698 C 157.956 -1.9549 0.0655657 0
M  V30 1699 C 158.336 -1.5724 -1.40851 0
M  V30 1700 O 157.684 -0.846116 -2.12257 0
M  V30 1701 C 157.894 -3.47812 0.287691 0
M  V30 1702 C 159.242 -4.24216 0.180513 0
M  V30 1703 O 160.266 -3.55526 0.219019 0
M  V30 1704 O 159.125 -5.46434 0.0848493 0
M  V30 1705 H 156.219 -0.826688 -0.0227177 0
M  V30 1706 H 158.765 -1.54496 0.702068 0
M  V30 1707 H 157.537 -3.687 1.31056 0
M  V30 1708 H 157.16 -3.95751 -0.382984 0
M  V30 1709 N 158.157 -0.370918 -1.53173 0
M  V30 1710 C 159.09 0.516727 -2.22273 0
M  V30 1711 C 160.068 1.07877 -1.21661 0
M  V30 1712 O 161.252 1.13389 -1.50583 0
M  V30 1713 C 158.379 1.71346 -2.92161 0
M  V30 1714 C 157.425 1.27838 -4.0689 0
M  V30 1715 S 158.258 0.275217 -5.34792 0
M  V30 1716 C 159.414 1.47816 -6.08195 0
M  V30 1717 H 159.647 -0.0701054 -2.97217 0
M  V30 1718 H 157.18 -0.155038 -1.5362 0
M  V30 1719 H 159.138 2.39988 -3.3304 0
M  V30 1720 H 157.799 2.27156 -2.16931 0
M  V30 1721 H 156.992 2.17141 -4.54825 0
M  V30 1722 H 156.594 0.671105 -3.6793 0
M  V30 1723 H 158.886 2.40831 -6.33251 0
M  V30 1724 H 159.829 1.04008 -7.0042 0
M  V30 1725 H 160.237 1.68663 -5.38714 0
M  V30 1726 N 159.635 1.57281 -0.100228 0
M  V30 1727 C 160.875 1.96419 0.56558 0
M  V30 1728 C 161.239 0.981265 1.65031 0
M  V30 1729 O 162.44 1.26133 2.37369 0
M  V30 1730 C 160.711 3.39996 1.10171 0
M  V30 1731 S 162.27 4.01134 1.77867 0
M  V30 1732 H 159.088 0.68667 0.184406 0
M  V30 1733 H 161.69 1.94662 -0.180851 0
M  V30 1734 H 160.394 4.09296 0.300803 0
M  V30 1735 H 159.925 3.45361 1.88385 0
M  V30 1736 H 161.94 3.90358 3.06326 0
M  V30 1737 N 161.113 -0.173488 1.56642 0
M  V30 1738 C 162.06 -1.21482 1.96242 0
M  V30 1739 C 163.03 -1.44104 0.826027 0
M  V30 1740 O 164.215 -1.5688 1.08597 0
M  V30 1741 C 161.355 -2.54964 2.32567 0
M  V30 1742 C 160.468 -2.39739 3.59373 0
M  V30 1743 C 159.603 -3.66072 3.84921 0
M  V30 1744 C 158.642 -3.45771 5.05083 0
M  V30 1745 N 157.779 -4.64169 5.26775 0
M  V30 1746 H 162.619 -0.870123 2.85014 0
M  V30 1747 H 160.156 -0.418245 1.41029 0
M  V30 1748 H 162.114 -3.32758 2.5165 0
M  V30 1749 H 160.744 -2.87433 1.46908 0
M  V30 1750 H 159.796 -1.53131 3.48217 0
M  V30 1751 H 161.108 -2.20683 4.47326 0
M  V30 1752 H 160.262 -4.52303 4.0436 0
M  V30 1753 H 159.001 -3.88105 2.9534 0
M  V30 1754 H 158.006 -2.57927 4.85545 0
M  V30 1755 H 159.231 -3.25163 5.96193 0
M  V30 1756 H 157.177 -4.86425 4.40144 0
M  V30 1757 H 157.094 -4.48019 6.08946 0
M  V30 1758 H 158.362 -5.51689 5.5069 0
M  V30 1759 N 162.591 -1.51276 -0.441967 0
M  V30 1760 C 163.538 -1.72256 -1.53612 0
M  V30 1761 C 164.508 -0.564164 -1.56225 0
M  V30 1762 O 165.693 -0.798074 -1.73307 0
M  V30 1763 C 162.833 -1.84932 -2.91366 0
M  V30 1764 C 161.946 -3.12459 -2.98317 0
M  V30 1765 C 161.081 -3.15758 -4.27166 0
M  V30 1766 C 160.12 -4.37619 -4.27967 0
M  V30 1767 N 159.257 -4.38493 -5.48333 0
M  V30 1768 H 164.097 -2.65654 -1.35026 0
M  V30 1769 H 161.634 -1.31662 -0.656009 0
M  V30 1770 H 163.592 -1.90263 -3.7129 0
M  V30 1771 H 162.222 -0.949461 -3.08521 0
M  V30 1772 H 161.274 -3.1646 -2.11086 0
M  V30 1773 H 162.586 -4.02382 -2.94771 0
M  V30 1774 H 161.74 -3.19979 -5.15459 0
M  V30 1775 H 160.479 -2.23715 -4.33362 0
M  V30 1776 H 159.484 -4.33579 -3.38067 0
M  V30 1777 H 160.709 -5.30921 -4.23438 0
M  V30 1778 H 158.655 -3.49318 -5.55259 0
M  V30 1779 H 158.572 -5.22219 -5.46647 0
M  V30 1780 H 159.84 -4.469 -6.38671 0
M  V30 1781 N 164.069 0.697108 -1.41344 0
M  V30 1782 C 165.002 1.82134 -1.37486 0
M  V30 1783 C 165.98 1.60784 -0.242351 0
M  V30 1784 O 167.164 1.83553 -0.429012 0
M  V30 1785 C 164.291 3.18788 -1.14421 0
M  V30 1786 C 163.337 3.58932 -2.3037 0
M  V30 1787 S 164.17 3.63916 -3.92843 0
M  V30 1788 C 165.326 5.03298 -3.72078 0
M  V30 1789 H 165.559 1.85129 -2.32625 0
M  V30 1790 H 163.092 0.865671 -1.2785 0
M  V30 1791 H 165.05 3.97677 -1.018 0
M  V30 1792 H 163.711 3.13404 -0.20905 0
M  V30 1793 H 162.904 4.58202 -2.09922 0
M  V30 1794 H 162.506 2.87347 -2.39391 0
M  V30 1795 H 164.798 5.90753 -3.31688 0
M  V30 1796 H 165.741 5.28788 -4.70945 0
M  V30 1797 H 166.149 4.74764 -3.05384 0
M  V30 1798 N 165.547 1.27147 0.931209 0
M  V30 1799 C 166.794 1.13278 1.67852 0
M  V30 1800 C 167.122 -0.32204 1.91815 0
M  V30 1801 O 166.377 -1.25224 1.50391 0
M  V30 1802 C 166.676 1.8579 3.05314 0
M  V30 1803 C 166.342 3.35657 3.01073 0
M  V30 1804 C 165.004 3.76536 2.99623 0
M  V30 1805 C 167.356 4.31299 2.92627 0
M  V30 1806 C 164.684 5.11426 2.87506 0
M  V30 1807 C 167.036 5.66242 2.82051 0
M  V30 1808 C 165.7 6.06418 2.7895 0
M  V30 1809 H 164.97 0.414515 0.614214 0
M  V30 1810 H 167.617 1.57712 1.08624 0
M  V30 1811 H 165.922 1.33854 3.68226 0
M  V30 1812 H 167.619 1.72491 3.62005 0
M  V30 1813 H 164.209 3.03146 3.02986 0
M  V30 1814 H 168.393 4.00692 2.92848 0
M  V30 1815 H 163.649 5.41705 2.83489 0
M  V30 1816 H 167.823 6.40026 2.74481 0
M  V30 1817 H 165.45 7.10895 2.69318 0
M  V30 1818 N 167.025 -1.13721 1.09112 0
M  V30 1819 C 167.935 -2.22638 0.73957 0
M  V30 1820 C 168.951 -1.72091 -0.257068 0
M  V30 1821 O 170.127 -2.01155 -0.0992154 0
M  V30 1822 C 167.192 -3.46322 0.16191 0
M  V30 1823 C 166.253 -4.11775 1.21408 0
M  V30 1824 C 165.486 -5.29555 0.663891 0
M  V30 1825 O 165.709 -5.68077 -0.514274 0
M  V30 1826 O 164.643 -5.84973 1.41738 0
M  V30 1827 H 168.469 -2.55074 1.64836 0
M  V30 1828 H 166.054 -1.21791 0.865289 0
M  V30 1829 H 167.936 -4.21107 -0.157073 0
M  V30 1830 H 166.611 -3.15593 -0.719932 0
M  V30 1831 H 165.518 -3.3883 1.58571 0
M  V30 1832 H 166.851 -4.46627 2.06845 0
M  V30 1833 N 168.503 -0.877838 -1.30888 0
M  V30 1834 C 169.749 -0.493426 -1.96706 0
M  V30 1835 C 170.082 0.953504 -1.6918 0
M  V30 1836 O 169.357 1.67266 -0.992594 0
M  V30 1837 C 169.64 -0.760429 -3.51979 0
M  V30 1838 C 169.493 -2.25747 -3.89048 0
M  V30 1839 C 170.812 -0.232148 -4.39487 0
M  V30 1840 H 167.931 -0.180746 -0.714493 0
M  V30 1841 H 170.573 -1.10052 -1.54882 0
M  V30 1842 H 168.723 -0.243715 -3.87735 0
M  V30 1843 H 170.395 -2.84204 -3.63354 0
M  V30 1844 H 168.638 -2.72694 -3.37373 0
M  V30 1845 H 169.309 -2.39491 -4.97341 0
M  V30 1846 H 171.785 -0.674314 -4.106 0
M  V30 1847 H 170.661 -0.448355 -5.47066 0
M  V30 1848 H 170.922 0.866297 -4.33529 0
M  V30 1849 N 169.982 1.44106 -0.638065 0
M  V30 1850 C 170.892 2.34513 0.0637334 0
M  V30 1851 C 171.908 1.53018 0.828346 0
M  V30 1852 O 173.084 1.85723 0.779036 0
M  V30 1853 C 170.149 3.31095 1.02844 0
M  V30 1854 C 169.21 4.28497 0.26244 0
M  V30 1855 C 168.443 5.20465 1.1812 0
M  V30 1856 O 168.666 5.16514 2.42011 0
M  V30 1857 O 167.6 5.98251 0.661774 0
M  V30 1858 H 171.426 2.95989 -0.68003 0
M  V30 1859 H 169.011 1.43994 -0.398252 0
M  V30 1860 H 170.893 3.90526 1.58327 0
M  V30 1861 H 169.568 2.72144 1.7527 0
M  V30 1862 H 168.475 3.72592 -0.335602 0
M  V30 1863 H 169.808 4.90388 -0.421936 0
M  V30 1864 N 171.46 0.379036 1.52974 0
M  V30 1865 C 172.407 -0.461048 2.26148 0
M  V30 1866 C 173.377 -1.06637 1.27349 0
M  V30 1867 O 174.562 -1.09633 1.56157 0
M  V30 1868 C 171.702 -1.58782 3.06402 0
M  V30 1869 C 170.815 -1.00636 4.20115 0
M  V30 1870 C 169.95 -2.10334 4.87784 0
M  V30 1871 C 168.989 -1.49724 5.93506 0
M  V30 1872 N 168.126 -2.5331 6.54812 0
M  V30 1873 H 172.966 0.169429 2.97518 0
M  V30 1874 H 170.503 0.0953806 1.4679 0
M  V30 1875 H 172.461 -2.25174 3.51215 0
M  V30 1876 H 171.091 -2.18876 2.37261 0
M  V30 1877 H 170.143 -0.232332 3.7969 0
M  V30 1878 H 171.455 -0.523343 4.96047 0
M  V30 1879 H 170.609 -2.84519 5.35849 0
M  V30 1880 H 169.348 -2.61992 4.11353 0
M  V30 1881 H 168.353 -0.740598 5.44789 0
M  V30 1882 H 169.578 -0.988732 6.71864 0
M  V30 1883 H 167.524 -3.04156 5.81227 0
M  V30 1884 H 167.441 -2.09734 7.26325 0
M  V30 1885 H 168.709 -3.27155 7.07524 0
M  V30 1886 N 172.938 -1.57226 0.108567 0
M  V30 1887 C 174.184 -1.95121 -0.552761 0
M  V30 1888 C 174.517 -0.991345 -1.66991 0
M  V30 1889 O 173.792 -0.0267211 -1.94482 0
M  V30 1890 C 174.075 -3.43039 -1.09528 0
M  V30 1891 C 173.928 -4.49797 0.0177332 0
M  V30 1892 C 175.247 -3.92567 -1.98945 0
M  V30 1893 H 172.366 -0.709496 -0.199461 0
M  V30 1894 H 175.008 -1.89126 0.182011 0
M  V30 1895 H 173.158 -3.48279 -1.72146 0
M  V30 1896 H 174.83 -4.56661 0.652584 0
M  V30 1897 H 173.073 -4.284 0.682309 0
M  V30 1898 H 173.744 -5.50528 -0.402919 0
M  V30 1899 H 176.22 -3.89565 -1.46214 0
M  V30 1900 H 175.096 -4.96605 -2.33827 0
M  V30 1901 H 175.357 -3.32648 -2.91201 0
M  V30 1902 N 174.416 0.165178 -1.56732 0
M  V30 1903 C 175.364 1.22369 -1.97809 0
M  V30 1904 C 176.358 1.45488 -0.867741 0
M  V30 1905 O 177.564 1.45995 -1.05288 0
M  V30 1906 H 173.939 0.411486 -0.629431 0
M  V30 1907 H 175.91 0.850425 -2.86025 0
M  V30 1908 C 174.659 2.55403 -2.35934 0
M  V30 1909 H 173.982 2.38438 -3.20916 0
M  V30 1910 H 175.422 3.2814 -2.68514 0
M  V30 1911 C 173.881 3.14611 -1.20506 0
M  V30 1912 O 174.411 3.98626 -0.496016 0
M  V30 1913 N 172.617 2.7379 -0.97403 0
M  V30 1914 H 172.164 2.0557 -1.55238 0
M  V30 1915 H 172.122 3.1374 -0.203573 0
M  V30 1916 N 175.894 1.51508 0.433938 0
M  V30 1917 C 177.134 1.66006 1.19253 0
M  V30 1918 C 177.498 0.369868 1.88404 0
M  V30 1919 O 178.699 0.39066 2.65946 0
M  V30 1920 C 176.97 2.83229 2.17981 0
M  V30 1921 S 178.529 3.18075 3.02281 0
M  V30 1922 H 175.347 0.584821 0.404358 0
M  V30 1923 H 177.949 1.89425 0.48357 0
M  V30 1924 H 176.653 3.75407 1.65824 0
M  V30 1925 H 176.184 2.6201 2.93453 0
M  V30 1926 H 178.199 2.64772 4.19655 0
M  V30 1927 N 177.372 -0.689602 1.41712 0
M  V30 1928 C 178.621 -1.44534 1.40686 0
M  V30 1929 C 178.934 -1.95588 0.0213352 0
M  V30 1930 O 180.14 -2.71271 -0.111534 0
M  V30 1931 C 178.596 -2.61387 2.47396 0
M  V30 1932 C 178.204 -2.17094 3.91885 0
M  V30 1933 C 179.948 -3.38986 2.55517 0
M  V30 1934 C 177.855 -3.3094 4.90135 0
M  V30 1935 H 176.785 -0.542925 0.52321 0
M  V30 1936 H 179.436 -0.748054 1.6756 0
M  V30 1937 H 177.818 -3.33412 2.13664 0
M  V30 1938 H 178.992 -1.52318 4.34897 0
M  V30 1939 H 177.307 -1.52473 3.8748 0
M  V30 1940 H 179.904 -4.23747 3.26102 0
M  V30 1941 H 180.247 -3.84578 1.59391 0
M  V30 1942 H 180.78 -2.74021 2.8837 0
M  V30 1943 H 177.519 -2.90355 5.87685 0
M  V30 1944 H 177.039 -3.94546 4.51767 0
M  V30 1945 H 178.718 -3.9663 5.11169 0
M  V30 1946 N 178.85 -1.27639 -0.924453 0
M  V30 1947 C 180.09 -1.15407 -1.68703 0
M  V30 1948 C 180.454 0.294581 -1.89727 0
M  V30 1949 O 181.655 0.539385 -2.63333 0
M  V30 1950 C 179.926 -1.9195 -3.0148 0
M  V30 1951 S 181.485 -1.95969 -3.92609 0
M  V30 1952 H 178.303 -0.411937 -0.579507 0
M  V30 1953 H 180.905 -1.61592 -1.10038 0
M  V30 1954 H 179.609 -2.96387 -2.83871 0
M  V30 1955 H 179.14 -1.46272 -3.65196 0
M  V30 1956 H 181.155 -1.05846 -4.84779 0
M  V30 1957 N 180.328 1.1314 -1.09713 0
M  V30 1958 C 181.574 1.84757 -0.836224 0
M  V30 1959 C 181.907 1.8347 0.636598 0
M  V30 1960 O 181.182 1.27491 1.46889 0
M  V30 1961 C 181.465 3.32782 -1.37578 0
M  V30 1962 C 181.318 3.42567 -2.91493 0
M  V30 1963 C 182.637 4.28307 -1.01198 0
M  V30 1964 H 179.756 0.67082 -0.305236 0
M  V30 1965 H 182.398 1.3278 -1.35903 0
M  V30 1966 H 180.548 3.77177 -0.931097 0
M  V30 1967 H 182.22 3.06862 -3.44432 0
M  V30 1968 H 180.463 2.83349 -3.28475 0
M  V30 1969 H 181.134 4.46674 -3.24324 0
M  V30 1970 H 183.61 3.91999 -1.39556 0
M  V30 1971 H 182.486 5.30307 -1.41653 0
M  V30 1972 H 182.747 4.42029 0.0794833 0
M  V30 1973 N 181.806 0.884767 1.30421 0
M  V30 1974 C 183.083 0.423185 1.90967 0
M  V30 1975 C 183.463 -1.09605 1.80416 0
M  V30 1976 O 182.811 -1.93126 1.22125 0
M  V30 1977 C 183.021 0.921056 3.36627 0
M  V30 1978 C 184.369 0.955903 4.137 0
M  V30 1979 O 185.393 0.867706 3.4547 0
M  V30 1980 O 184.252 1.08614 5.35598 0
M  V30 1981 H 181.346 0.129369 0.816819 0
M  V30 1982 H 183.892 0.973653 1.3899 0
M  V30 1983 H 182.664 1.96489 3.3839 0
M  V30 1984 H 182.287 0.349741 3.96059 0
M  V30 1985 N 183.284 -1.43765 0.645699 0
M  V30 1986 C 184.53 -2.02731 0.164844 0
M  V30 1987 C 184.885 -1.49983 -1.2051 0
M  V30 1988 O 184.178 -0.680208 -1.79119 0
M  V30 1989 C 184.372 -3.57238 0.107679 0
M  V30 1990 C 184.201 -4.24977 1.47054 0
M  V30 1991 C 182.971 -4.61356 2.06103 0
M  V30 1992 C 185.169 -4.54476 2.40741 0
M  V30 1993 N 183.151 -5.14132 3.35473 0
M  V30 1994 C 184.522 -5.08489 3.54737 0
M  V30 1995 C 186.577 -4.36438 2.39637 0
M  V30 1996 C 185.28 -5.46364 4.67845 0
M  V30 1997 C 187.306 -4.7537 3.5182 0
M  V30 1998 C 186.668 -5.2951 4.64541 0
M  V30 1999 H 182.767 -0.774976 0.104578 0
M  V30 2000 H 185.351 -1.75051 0.852367 0
M  V30 2001 H 183.522 -3.84498 -0.549165 0
M  V30 2002 H 185.254 -4.0288 -0.383351 0
M  V30 2003 H 182.009 -4.46151 1.58892 0
M  V30 2004 H 182.433 -5.4498 4.01654 0
M  V30 2005 H 187.075 -3.93861 1.53731 0
M  V30 2006 H 184.793 -5.87888 5.54448 0
M  V30 2007 H 188.379 -4.63115 3.52159 0
M  V30 2008 H 187.259 -5.59077 5.49911 0
M  V30 2009 N 184.763 -0.387143 -1.52771 0
M  V30 2010 C 186.179 -0.037007 -1.59557 0
M  V30 2011 C 186.379 1.44801 -1.40124 0
M  V30 2012 O 185.435 2.21227 -1.21716 0
M  V30 2013 C 186.748 -0.512256 -2.96305 0
M  V30 2014 C 188.296 -0.468328 -3.09476 0
M  V30 2015 C 188.771 -0.919731 -4.4867 0
M  V30 2016 N 190.262 -0.875656 -4.54848 0
M  V30 2017 C 190.997 -1.19637 -5.6078 0
M  V30 2018 N 190.493 -1.58745 -6.74368 0
M  V30 2019 N 192.286 -1.11776 -5.50874 0
M  V30 2020 H 184.437 -1.35395 -1.63652 0
M  V30 2021 H 186.7 -0.554818 -0.768688 0
M  V30 2022 H 186.406 -1.54935 -3.15734 0
M  V30 2023 H 186.28 0.089805 -3.77093 0
M  V30 2024 H 188.667 0.559671 -2.89744 0
M  V30 2025 H 188.748 -1.10616 -2.30646 0
M  V30 2026 H 188.392 -1.94595 -4.69143 0
M  V30 2027 H 188.322 -0.258927 -5.25963 0
M  V30 2028 H 190.813 -0.587843 -3.733 0
M  V30 2029 H 191.126 -1.81586 -7.51163 0
M  V30 2030 H 189.471 -1.6263 -6.75705 0
M  V30 2031 H 192.662 -0.811264 -4.61016 0
M  V30 2032 H 192.835 -1.37103 -6.3333 0
M  V30 2033 N 186.241 1.57166 -0.116904 0
M  V30 2034 C 187.191 2.11756 0.845178 0
M  V30 2035 C 188.175 1.03783 1.22955 0
M  V30 2036 O 189.367 1.3002 1.20099 0
M  V30 2037 C 186.496 2.71886 2.09602 0
M  V30 2038 C 185.582 3.86937 1.7361 0
M  V30 2039 N 185.973 4.94073 1.08284 0
M  V30 2040 C 184.271 3.97082 2.03082 0
M  V30 2041 C 184.972 5.74477 0.913855 0
M  V30 2042 N 183.948 5.2423 1.43818 0
M  V30 2043 H 187.75 2.91967 0.336523 0
M  V30 2044 H 185.264 1.62174 0.0856332 0
M  V30 2045 H 187.261 3.09338 2.79492 0
M  V30 2046 H 185.921 1.93138 2.61013 0
M  V30 2047 H 186.932 5.12483 0.747067 0
M  V30 2048 H 183.609 3.29372 2.56554 0
M  V30 2049 H 184.999 6.70701 0.40125 0
M  V30 2050 N 187.719 -0.156864 1.56817 0
M  V30 2051 C 188.967 -0.869404 1.82444 0
M  V30 2052 C 189.288 -1.82147 0.69623 0
M  V30 2053 O 188.558 -1.93847 -0.28287 0
M  V30 2054 H 187.138 -0.324043 0.673056 0
M  V30 2055 H 189.8 -0.153224 1.94297 0
M  V30 2056 H 188.896 -1.43761 2.77019 0
M  V30 2057 N 189.197 -1.51736 -0.425897 0
M  V30 2058 C 190.422 -1.69082 -1.20108 0
M  V30 2059 C 190.847 -0.392398 -1.83962 0
M  V30 2060 O 190.205 0.64858 -1.69302 0
M  V30 2061 C 190.253 -2.81604 -2.25237 0
M  V30 2062 O 189.357 -2.46004 -3.30992 0
M  V30 2063 H 188.698 -0.563408 -0.35138 0
M  V30 2064 H 191.228 -1.98358 -0.501512 0
M  V30 2065 H 191.238 -3.06025 -2.69838 0
M  V30 2066 H 189.913 -3.75817 -1.78142 0
M  V30 2067 H 188.49 -2.32195 -2.91787 0
M  V30 2068 N 190.675 0.682077 -1.42076 0
M  V30 2069 C 192.091 0.994324 -1.24841 0
M  V30 2070 C 192.291 2.0096 -0.147389 0
M  V30 2071 O 191.347 2.47822 0.483782 0
M  V30 2072 C 192.66 1.50607 -2.60265 0
M  V30 2073 C 194.208 1.62421 -2.6756 0
M  V30 2074 C 194.683 2.16994 -4.03333 0
M  V30 2075 N 196.174 2.24337 -4.0525 0
M  V30 2076 C 196.909 2.67621 -5.07116 0
M  V30 2077 N 196.405 3.1041 -6.19368 0
M  V30 2078 N 198.198 2.67305 -4.94474 0
M  V30 2079 H 190.349 0.00973908 -2.12398 0
M  V30 2080 H 192.612 0.0668593 -0.945639 0
M  V30 2081 H 192.318 0.834583 -3.41654 0
M  V30 2082 H 192.192 2.48602 -2.83684 0
M  V30 2083 H 194.579 2.28678 -1.86521 0
M  V30 2084 H 194.66 0.629352 -2.47937 0
M  V30 2085 H 194.304 1.51349 -4.84826 0
M  V30 2086 H 194.234 3.17258 -4.20304 0
M  V30 2087 H 196.725 1.94158 -3.24209 0
M  V30 2088 H 197.038 3.42103 -6.92954 0
M  V30 2089 H 195.383 3.08286 -6.22884 0
M  V30 2090 H 198.574 2.33233 -4.05857 0
M  V30 2091 H 198.747 3.00718 -5.73997 0
M  V30 2092 N 192.153 1.28127 0.917671 0
M  V30 2093 C 193.116 1.11744 2.00115 0
M  V30 2094 C 194.116 0.0583052 1.60694 0
M  V30 2095 O 195.306 0.303755 1.71531 0
M  V30 2096 C 192.438 0.704862 3.33533 0
M  V30 2097 H 193.631 2.07966 2.16079 0
M  V30 2098 H 191.184 1.11058 1.09981 0
M  V30 2099 H 191.919 -0.258299 3.2327 0
M  V30 2100 H 191.704 1.4699 3.63505 0
M  V30 2101 H 193.194 0.612768 4.1308 0
M  V30 2102 N 193.631 -1.12557 1.10312 0
M  V30 2103 C 194.564 -2.1737 0.694674 0
M  V30 2104 C 195.542 -1.59745 -0.303373 0
M  V30 2105 O 196.726 -1.87408 -0.202578 0
M  V30 2106 C 193.853 -3.38691 0.0248052 0
M  V30 2107 C 192.899 -4.14943 0.986121 0
M  V30 2108 S 193.732 -4.73413 2.50281 0
M  V30 2109 C 194.888 -5.9807 1.84562 0
M  V30 2110 H 195.121 -2.5168 1.58255 0
M  V30 2111 H 192.654 -1.23998 0.919992 0
M  V30 2112 H 194.612 -4.08959 -0.355361 0
M  V30 2113 H 193.273 -3.02664 -0.839851 0
M  V30 2114 H 192.466 -5.01854 0.464651 0
M  V30 2115 H 192.068 -3.50377 1.30813 0
M  V30 2116 H 194.36 -6.67232 1.17507 0
M  V30 2117 H 195.303 -6.54841 2.69423 0
M  V30 2118 H 195.711 -5.49073 1.31069 0
M  V30 2119 N 195.109 -0.891671 -1.2995 0
M  V30 2120 C 196.339 -0.527893 -1.99742 0
M  V30 2121 C 196.747 0.88979 -1.66971 0
M  V30 2122 O 196.09 1.59766 -0.906667 0
M  V30 2123 C 196.152 -0.630804 -3.53922 0
M  V30 2124 C 195.816 -2.01401 -4.10228 0
M  V30 2125 C 196.813 -2.98422 -4.25724 0
M  V30 2126 C 194.498 -2.32121 -4.45449 0
M  V30 2127 C 196.492 -4.24293 -4.75662 0
M  V30 2128 C 194.179 -3.58237 -4.95086 0
M  V30 2129 C 195.177 -4.54137 -5.10146 0
M  V30 2130 O 194.865 -5.78014 -5.58708 0
M  V30 2131 H 194.597 -0.201953 -0.645129 0
M  V30 2132 H 197.151 -1.20076 -1.66646 0
M  V30 2133 H 195.381 0.0990616 -3.86573 0
M  V30 2134 H 197.07 -0.277338 -4.04951 0
M  V30 2135 H 197.836 -2.76001 -3.98809 0
M  V30 2136 H 193.715 -1.5824 -4.32991 0
M  V30 2137 H 197.259 -4.99153 -4.87332 0
M  V30 2138 H 193.156 -3.80491 -5.21437 0
M  V30 2139 H 193.924 -5.8049 -5.77039 0
M  V30 2140 N 196.587 1.43421 -0.653314 0
M  V30 2141 C 197.815 2.06163 -0.174491 0
M  V30 2142 C 198.23 1.48969 1.1599 0
M  V30 2143 O 197.587 0.621042 1.71608 0
M  V30 2144 C 197.638 3.61417 -0.0774865 0
M  V30 2145 O 197.359 4.16485 -1.35912 0
M  V30 2146 C 198.86 4.41235 0.427402 0
M  V30 2147 H 196.08 0.664946 -0.0899353 0
M  V30 2148 H 198.624 1.83924 -0.893988 0
M  V30 2149 H 196.779 3.82841 0.59257 0
M  V30 2150 H 197.193 5.10153 -1.21839 0
M  V30 2151 H 198.667 5.5021 0.44423 0
M  V30 2152 H 199.144 4.14268 1.45873 0
M  V30 2153 H 199.75 4.2478 -0.210167 0
M  V30 2154 N 198.065 0.39524 1.52563 0
M  V30 2155 C 198.997 -0.472201 2.24283 0
M  V30 2156 C 200.01 -1.02178 1.26742 0
M  V30 2157 O 201.199 -0.923097 1.52778 0
M  V30 2158 C 198.299 -1.66775 2.95024 0
M  V30 2159 C 197.472 -1.2445 4.19322 0
M  V30 2160 C 196.531 -2.30539 4.7301 0
M  V30 2161 O 195.557 -1.91702 5.35947 0
M  V30 2162 N 196.759 -3.6253 4.53379 0
M  V30 2163 H 199.524 0.142282 2.99362 0
M  V30 2164 H 197.085 0.2219 1.60372 0
M  V30 2165 H 199.077 -2.37283 3.27839 0
M  V30 2166 H 197.647 -2.18845 2.23217 0
M  V30 2167 H 196.867 -0.368069 3.92478 0
M  V30 2168 H 198.155 -0.938457 5.0007 0
M  V30 2169 H 197.553 -3.96841 4.03154 0
M  V30 2170 H 196.11 -4.29055 4.90668 0
M  V30 2171 N 199.544 -1.57102 0.125237 0
M  V30 2172 C 200.507 -2.14471 -0.80838 0
M  V30 2173 C 201.507 -1.0811 -1.19033 0
M  V30 2174 O 202.697 -1.33856 -1.11482 0
M  V30 2175 C 199.829 -2.69005 -2.09402 0
M  V30 2176 H 201.022 -2.98297 -0.309696 0
M  V30 2177 H 198.575 -1.55807 -0.124051 0
M  V30 2178 H 199.31 -1.88785 -2.63687 0
M  V30 2179 H 199.095 -3.46799 -1.82957 0
M  V30 2180 H 200.585 -3.13278 -2.76128 0
M  V30 2181 N 201.022 0.148545 -1.56898 0
M  V30 2182 C 202.268 0.862694 -1.83536 0
M  V30 2183 C 202.601 1.80889 -0.706604 0
M  V30 2184 O 201.876 1.92328 0.289885 0
M  V30 2185 C 202.159 1.63853 -3.20662 0
M  V30 2186 C 202.012 0.713925 -4.44098 0
M  V30 2187 C 203.331 2.60133 -3.54991 0
M  V30 2188 H 200.45 0.312179 -0.667618 0
M  V30 2189 H 203.092 0.127953 -1.89569 0
M  V30 2190 H 201.242 2.26489 -3.1565 0
M  V30 2191 H 202.914 0.098686 -4.61194 0
M  V30 2192 H 201.157 0.0234019 -4.33794 0
M  V30 2193 H 201.828 1.29278 -5.36648 0
M  V30 2194 H 204.304 2.07616 -3.60603 0
M  V30 2195 H 203.18 3.11468 -4.51972 0
M  V30 2196 H 203.441 3.41417 -2.80868 0
M  V30 2197 N 202.5 1.5196 0.417844 0
M  V30 2198 C 203.432 1.70895 1.52733 0
M  V30 2199 C 204.445 0.589405 1.51756 0
M  V30 2200 O 205.634 0.864312 1.56179 0
M  V30 2201 C 202.734 1.72627 2.91639 0
M  V30 2202 C 201.907 3.01479 3.16905 0
M  V30 2203 C 200.966 2.95139 4.35637 0
M  V30 2204 O 199.992 3.69059 4.3334 0
M  V30 2205 N 201.194 2.12328 5.40275 0
M  V30 2206 H 203.959 2.66612 1.36888 0
M  V30 2207 H 201.52 1.50089 0.607037 0
M  V30 2208 H 203.512 1.65928 3.6912 0
M  V30 2209 H 202.082 0.844216 3.00985 0
M  V30 2210 H 201.302 3.21895 2.27546 0
M  V30 2211 H 202.59 3.86736 3.30625 0
M  V30 2212 H 201.988 1.51685 5.44985 0
M  V30 2213 H 200.545 2.11494 6.16534 0
M  V30 2214 N 203.978 -0.674533 1.42435 0
M  V30 2215 C 204.926 -1.80934 1.46169 0
M  V30 2216 C 205.92 -1.66006 0.3374 0
M  V30 2217 O 207.126 -1.72611 0.510425 0
M  V30 2218 H 203.501 -0.596594 0.457798 0
M  V30 2219 H 205.472 -1.74903 2.41767 0
M  V30 2220 C 204.221 -3.19088 1.38123 0
M  V30 2221 H 203.544 -3.31203 2.23931 0
M  V30 2222 H 204.984 -3.9851 1.44797 0
M  V30 2223 C 203.443 -3.36763 0.0960517 0
M  V30 2224 O 203.973 -3.92581 -0.851073 0
M  V30 2225 N 202.179 -2.90597 0.0131186 0
M  V30 2226 H 201.726 -2.45359 0.784639 0
M  V30 2227 H 201.684 -3.028 -0.846133 0
M  V30 2228 N 205.456 -1.28612 -0.910864 0
M  V30 2229 C 206.705 -1.15311 -1.65488 0
M  V30 2230 C 207.018 0.296999 -1.93332 0
M  V30 2231 O 208.224 0.551168 -2.65847 0
M  V30 2232 C 206.68 -2.01599 -2.98137 0
M  V30 2233 C 206.288 -3.51367 -2.7793 0
M  V30 2234 C 208.032 -1.96993 -3.76024 0
M  V30 2235 C 205.939 -4.29797 -4.06237 0
M  V30 2236 H 204.869 -0.42796 -0.620779 0
M  V30 2237 H 207.52 -1.53166 -1.01057 0
M  V30 2238 H 205.902 -1.56603 -3.63719 0
M  V30 2239 H 207.076 -4.0434 -2.21011 0
M  V30 2240 H 205.391 -3.57529 -2.13452 0
M  V30 2241 H 207.988 -2.52856 -4.71135 0
M  V30 2242 H 208.331 -0.94733 -4.05378 0
M  V30 2243 H 208.864 -2.39973 -3.17266 0
M  V30 2244 H 205.603 -5.32648 -3.82055 0
M  V30 2245 H 205.123 -3.81596 -4.62757 0
M  V30 2246 H 206.802 -4.39869 -4.74473 0
M  V30 2247 N 206.934 1.1197 -1.10907 0
M  V30 2248 C 208.35 1.35591 -0.841852 0
M  V30 2249 C 208.55 1.94233 0.536246 0
M  V30 2250 O 207.606 2.1717 1.28816 0
M  V30 2251 C 208.919 2.29284 -1.94549 0
M  V30 2252 C 210.467 2.42862 -1.97451 0
M  V30 2253 C 210.942 3.39873 -3.07002 0
M  V30 2254 N 212.433 3.47433 -3.06341 0
M  V30 2255 C 213.168 4.22421 -3.87748 0
M  V30 2256 N 212.664 5.00432 -4.79103 0
M  V30 2257 N 214.457 4.17876 -3.75946 0
M  V30 2258 H 206.608 0.722664 -1.99728 0
M  V30 2259 H 208.871 0.380635 -0.868229 0
M  V30 2260 H 208.577 1.93378 -2.93765 0
M  V30 2261 H 208.451 3.29452 -1.83688 0
M  V30 2262 H 210.838 2.78046 -0.988645 0
M  V30 2263 H 210.919 1.42566 -2.12388 0
M  V30 2264 H 210.563 3.05417 -4.05811 0
M  V30 2265 H 210.493 4.40011 -2.89306 0
M  V30 2266 H 212.984 2.91784 -2.40147 0
M  V30 2267 H 213.297 5.55002 -5.37766 0
M  V30 2268 H 211.642 4.99612 -4.83128 0
M  V30 2269 H 214.833 3.56016 -3.03924 0
M  V30 2270 H 215.006 4.76061 -4.39624 0
M  V30 2271 N 208.412 0.89855 1.29475 0
M  V30 2272 C 209.658 0.524658 1.95896 0
M  V30 2273 C 209.991 -0.926468 1.70676 0
M  V30 2274 O 209.266 -1.65665 1.01908 0
M  V30 2275 C 209.549 0.81633 3.50725 0
M  V30 2276 C 209.402 2.31907 3.85408 0
M  V30 2277 C 210.721 0.302038 4.39062 0
M  V30 2278 H 207.84 0.19209 0.711527 0
M  V30 2279 H 210.482 1.12502 1.53112 0
M  V30 2280 H 208.632 0.305369 3.87298 0
M  V30 2281 H 210.304 2.89949 3.58786 0
M  V30 2282 H 208.547 2.78027 3.32992 0
M  V30 2283 H 209.218 2.47373 4.93468 0
M  V30 2284 H 211.694 0.739551 4.09475 0
M  V30 2285 H 210.57 0.535331 5.46283 0
M  V30 2286 H 210.831 -0.797216 4.34853 0
M  V30 2287 N 209.89 -1.43072 0.660911 0
M  V30 2288 C 211.136 -2.0202 0.177708 0
M  V30 2289 C 211.469 -1.52066 -1.20787 0
M  V30 2290 O 210.744 -0.716987 -1.80802 0
M  V30 2291 C 211.027 -3.59561 0.197019 0
M  V30 2292 C 210.88 -4.19727 1.61706 0
M  V30 2293 C 212.199 -4.37664 -0.462396 0
M  V30 2294 H 209.318 -0.734034 0.0660494 0
M  V30 2295 H 211.96 -1.70272 0.843058 0
M  V30 2296 H 210.11 -3.86739 -0.369527 0
M  V30 2297 H 211.782 -4.03553 2.23479 0
M  V30 2298 H 210.025 -3.76084 2.16201 0
M  V30 2299 H 210.696 -5.28834 1.58237 0
M  V30 2300 H 213.172 -4.16095 0.0197215 0
M  V30 2301 H 212.048 -5.47305 -0.418188 0
M  V30 2302 H 212.309 -4.14493 -1.53778 0
M  V30 2303 N 211.368 -0.403325 -1.52352 0
M  V30 2304 C 212.616 0.174003 -2.0135 0
M  V30 2305 C 212.937 1.46139 -1.29106 0
M  V30 2306 O 212.207 1.91448 -0.415253 0
M  V30 2307 H 210.787 0.0672911 -0.743963 0
M  V30 2308 H 213.449 -0.538235 -1.87321 0
M  V30 2309 H 212.545 0.374254 -3.09848 0
M  V30 2310 N 212.846 1.57033 -0.133567 0
M  V30 2311 C 213.809 2.14897 0.796995 0
M  V30 2312 C 214.809 1.0874 1.18458 0
M  V30 2313 O 215.999 1.34446 1.1077 0
M  V30 2314 C 213.131 2.70112 2.07973 0
M  V30 2315 H 214.324 2.98457 0.293873 0
M  V30 2316 H 211.877 1.55871 0.115787 0
M  V30 2317 H 212.612 1.9018 2.62682 0
M  V30 2318 H 212.397 3.47764 1.81115 0
M  V30 2319 H 213.887 3.14738 2.74462 0
M  V30 2320 N 214.325 -0.140222 1.56975 0
M  V30 2321 C 215.235 -1.19223 2.02047 0
M  V30 2322 C 216.251 -1.46612 0.937062 0
M  V30 2323 O 217.427 -1.58148 1.24704 0
M  V30 2324 C 214.492 -2.50414 2.39778 0
M  V30 2325 C 213.553 -2.30612 3.621 0
M  V30 2326 C 212.786 -3.55547 3.98023 0
M  V30 2327 O 213.009 -4.62004 3.34528 0
M  V30 2328 O 211.943 -3.47808 4.91237 0
M  V30 2329 H 215.769 -0.839559 2.91865 0
M  V30 2330 H 213.354 -0.349453 1.45256 0
M  V30 2331 H 215.236 -3.27747 2.64877 0
M  V30 2332 H 213.911 -2.85198 1.53114 0
M  V30 2333 H 212.818 -1.51207 3.4218 0
M  V30 2334 H 214.151 -2.00741 4.49404 0
M  V30 2335 N 215.803 -1.52179 -0.40978 0
M  V30 2336 C 217.031 -1.70054 -1.17853 0
M  V30 2337 C 217.446 -0.409735 -1.843 0
M  V30 2338 O 216.803 0.614183 -1.71855 0
M  V30 2339 C 216.854 -2.83568 -2.24213 0
M  V30 2340 O 216.575 -4.0765 -1.60478 0
M  V30 2341 C 218.076 -3.12947 -3.13973 0
M  V30 2342 H 215.296 -0.569917 -0.354169 0
M  V30 2343 H 217.84 -1.98734 -0.482198 0
M  V30 2344 H 215.995 -2.57409 -2.89516 0
M  V30 2345 H 216.409 -4.70899 -2.30986 0
M  V30 2346 H 217.883 -3.95889 -3.84677 0
M  V30 2347 H 218.36 -2.26472 -3.76307 0
M  V30 2348 H 218.966 -3.40868 -2.5434 0
M  V30 2349 N 217.281 0.66697 -1.42791 0
M  V30 2350 C 218.244 1.76211 -1.46568 0
M  V30 2351 C 219.244 1.56896 -0.352196 0
M  V30 2352 O 220.434 1.63044 -0.613364 0
M  V30 2353 C 217.566 3.14935 -1.30494 0
M  V30 2354 H 218.759 1.74247 -2.44086 0
M  V30 2355 H 216.312 0.877342 -1.29354 0
M  V30 2356 H 217.047 3.2252 -0.339301 0
M  V30 2357 H 216.832 3.30359 -2.11199 0
M  V30 2358 H 218.322 3.94821 -1.36038 0
M  V30 2359 N 218.759 1.29093 0.90403 0
M  V30 2360 C 220.006 1.16813 1.65411 0
M  V30 2361 C 220.334 -0.28128 1.92455 0
M  V30 2362 O 219.589 -1.22006 1.53013 0
M  V30 2363 C 219.888 1.92224 3.01305 0
M  V30 2364 C 219.554 3.41968 2.93885 0
M  V30 2365 C 218.216 3.82807 2.91569 0
M  V30 2366 C 220.568 4.37409 2.83413 0
M  V30 2367 C 217.896 5.1741 2.76594 0
M  V30 2368 C 220.248 5.72097 2.69977 0
M  V30 2369 C 218.912 6.12199 2.66024 0
M  V30 2370 H 218.182 0.42745 0.605283 0
M  V30 2371 H 220.829 1.59981 1.05254 0
M  V30 2372 H 219.134 1.41635 3.65304 0
M  V30 2373 H 220.831 1.80131 3.58265 0
M  V30 2374 H 217.421 3.09504 2.96488 0
M  V30 2375 H 221.605 4.06813 2.84283 0
M  V30 2376 H 216.861 5.47596 2.71935 0
M  V30 2377 H 221.035 6.45704 2.60844 0
M  V30 2378 H 218.662 7.16448 2.54178 0
M  V30 2379 N 220.237 -1.11381 1.11499 0
M  V30 2380 C 221.167 -2.19509 0.796125 0
M  V30 2381 C 222.148 -1.68458 -0.235796 0
M  V30 2382 O 223.333 -1.93947 -0.0991344 0
M  V30 2383 C 220.463 -3.46475 0.239205 0
M  V30 2384 C 219.417 -4.10744 1.20307 0
M  V30 2385 C 218.743 -5.32293 0.50683 0
M  V30 2386 C 220.043 -4.55597 2.55399 0
M  V30 2387 H 221.737 -2.46439 1.70024 0
M  V30 2388 H 219.283 -1.18446 0.818935 0
M  V30 2389 H 221.236 -4.214 0.00392006 0
M  V30 2390 H 219.96 -3.19006 -0.700206 0
M  V30 2391 H 218.619 -3.37813 1.42399 0
M  V30 2392 H 218.267 -5.01095 -0.437408 0
M  V30 2393 H 217.967 -5.76243 1.1497 0
M  V30 2394 H 219.491 -6.09956 0.280351 0
M  V30 2395 H 220.905 -5.21841 2.37391 0
M  V30 2396 H 219.302 -5.10363 3.15673 0
M  V30 2397 H 220.372 -3.69013 3.14575 0
M  V30 2398 N 221.715 -0.905404 -1.28997 0
M  V30 2399 C 222.964 -0.530191 -1.94607 0
M  V30 2400 C 223.277 0.929185 -1.72121 0
M  V30 2401 O 224.483 1.41218 -2.31883 0
M  V30 2402 C 222.939 -0.897333 -3.48534 0
M  V30 2403 C 222.547 -2.37587 -3.79811 0
M  V30 2404 C 224.291 -0.592304 -4.20347 0
M  V30 2405 C 222.198 -2.68357 -5.27009 0
M  V30 2406 H 221.128 -0.194558 -0.728466 0
M  V30 2407 H 223.779 -1.10318 -1.46636 0
M  V30 2408 H 222.161 -0.253214 -3.9519 0
M  V30 2409 H 223.335 -3.06602 -3.43994 0
M  V30 2410 H 221.65 -2.6505 -3.2115 0
M  V30 2411 H 224.247 -0.798975 -5.28697 0
M  V30 2412 H 224.59 0.469474 -4.13644 0
M  V30 2413 H 225.123 -1.19452 -3.79442 0
M  V30 2414 H 221.862 -3.73355 -5.38782 0
M  V30 2415 H 221.382 -2.03971 -5.64053 0
M  V30 2416 H 223.061 -2.54922 -5.94663 0
M  V30 2417 N 223.193 1.4272 -0.668489 0
M  V30 2418 C 224.125 2.2914 0.052613 0
M  V30 2419 C 225.138 1.43339 0.771857 0
M  V30 2420 O 226.327 1.67123 0.627067 0
M  V30 2421 C 223.427 3.20618 1.09804 0
M  V30 2422 C 222.6 4.35039 0.45389 0
M  V30 2423 C 221.659 5.07282 1.39825 0
M  V30 2424 O 220.685 5.62024 0.900978 0
M  V30 2425 N 221.887 5.12206 2.73176 0
M  V30 2426 H 224.652 2.91668 -0.689209 0
M  V30 2427 H 222.213 1.53577 -0.512422 0
M  V30 2428 H 224.205 3.65815 1.73094 0
M  V30 2429 H 222.775 2.59585 1.74167 0
M  V30 2430 H 221.995 3.92567 -0.358396 0
M  V30 2431 H 223.283 5.088 0.00486972 0
M  V30 2432 H 222.681 4.6913 3.16122 0
M  V30 2433 H 221.238 5.61069 3.31729 0
M  V30 2434 N 224.671 0.411399 1.52136 0
M  V30 2435 C 225.634 -0.401089 2.25663 0
M  V30 2436 C 226.634 -0.971732 1.28117 0
M  V30 2437 O 227.824 -0.850254 1.52041 0
M  V30 2438 C 224.956 -1.56483 3.02863 0
M  V30 2439 H 226.149 0.24295 2.98914 0
M  V30 2440 H 223.702 0.163968 1.55438 0
M  V30 2441 H 224.437 -2.24567 2.33967 0
M  V30 2442 H 224.222 -1.16211 3.74483 0
M  V30 2443 H 225.712 -2.13951 3.58629 0
M  V30 2444 N 226.149 -1.5696 0.141893 0
M  V30 2445 C 227.079 -2.19516 -0.795936 0
M  V30 2446 C 228.06 -1.14187 -1.26077 0
M  V30 2447 O 229.245 -1.42511 -1.31925 0
M  V30 2448 C 226.375 -2.81272 -2.03723 0
M  V30 2449 C 225.329 -3.92384 -1.70936 0
M  V30 2450 C 224.655 -4.41052 -3.02287 0
M  V30 2451 C 225.955 -5.13403 -0.959954 0
M  V30 2452 H 227.649 -2.98138 -0.274596 0
M  V30 2453 H 225.195 -1.43406 -0.130636 0
M  V30 2454 H 227.148 -3.237 -2.69808 0
M  V30 2455 H 225.872 -1.99973 -2.58221 0
M  V30 2456 H 224.531 -3.50566 -1.07232 0
M  V30 2457 H 224.179 -3.56582 -3.54765 0
M  V30 2458 H 223.879 -5.15993 -2.81114 0
M  V30 2459 H 225.403 -4.86146 -3.69451 0
M  V30 2460 H 226.817 -5.52706 -1.52279 0
M  V30 2461 H 225.214 -5.94073 -0.848357 0
M  V30 2462 H 226.284 -4.84875 0.0492434 0
M  V30 2463 N 227.627 0.131896 -1.57047 0
M  V30 2464 C 228.852 0.860418 -1.8871 0
M  V30 2465 C 229.277 1.73251 -0.73251 0
M  V30 2466 O 228.635 1.785 0.317429 0
M  V30 2467 C 228.683 1.68047 -3.19049 0
M  V30 2468 O 227.787 2.7862 -3.04047 0
M  V30 2469 H 227.128 0.238743 -0.619595 0
M  V30 2470 H 229.658 0.118169 -2.04258 0
M  V30 2471 H 229.668 2.07238 -3.51449 0
M  V30 2472 H 228.343 1.04018 -4.02682 0
M  V30 2473 H 226.92 2.42726 -2.83088 0
M  V30 2474 N 229.106 1.52395 0.401703 0
M  V30 2475 C 230.334 1.70676 1.16949 0
M  V30 2476 C 230.749 0.419503 1.8408 0
M  V30 2477 O 230.106 -0.605061 1.72178 0
M  V30 2478 C 230.157 2.84753 2.22706 0
M  V30 2479 O 229.878 4.08495 1.58314 0
M  V30 2480 C 231.379 3.14608 3.12309 0
M  V30 2481 H 228.599 0.571787 0.351142 0
M  V30 2482 H 231.143 1.98987 0.471652 0
M  V30 2483 H 229.298 2.58941 2.88147 0
M  V30 2484 H 229.712 4.72117 2.28485 0
M  V30 2485 H 231.186 3.97923 3.82572 0
M  V30 2486 H 231.663 2.28464 3.75101 0
M  V30 2487 H 232.269 3.42212 2.52529 0
M  V30 2488 N 230.584 -0.659388 1.43143 0
M  V30 2489 C 231.516 -1.7849 1.43784 0
M  V30 2490 C 232.529 -1.5932 0.334787 0
M  V30 2491 O 233.718 -1.68155 0.598842 0
M  V30 2492 C 230.818 -3.15828 1.22906 0
M  V30 2493 C 229.991 -3.61711 2.45934 0
M  V30 2494 C 229.05 -4.77831 2.20371 0
M  V30 2495 O 228.076 -4.87586 2.93681 0
M  V30 2496 N 229.278 -5.67611 1.21647 0
M  V30 2497 H 232.043 -1.7842 2.40803 0
M  V30 2498 H 229.604 -0.84302 1.3822 0
M  V30 2499 H 231.596 -3.91189 1.03697 0
M  V30 2500 H 230.166 -3.10707 0.343542 0
M  V30 2501 H 229.386 -2.76861 2.80609 0
M  V30 2502 H 230.674 -3.89112 3.27825 0
M  V30 2503 H 230.072 -5.62397 0.610449 0
M  V30 2504 H 228.629 -6.42719 1.08423 0
M  V30 2505 N 232.062 -1.29571 -0.897171 0
M  V30 2506 C 232.992 -1.17473 -2.01798 0
M  V30 2507 C 233.973 -0.068323 -1.69963 0
M  V30 2508 O 235.158 -0.248239 -1.92607 0
M  V30 2509 C 232.288 -0.853099 -3.36659 0
M  V30 2510 C 231.242 -1.9161 -3.82713 0
M  V30 2511 C 230.568 -1.44773 -5.14728 0
M  V30 2512 C 231.868 -3.32535 -4.02763 0
M  V30 2513 H 233.562 -2.11237 -2.12177 0
M  V30 2514 H 231.108 -1.01699 -1.01948 0
M  V30 2515 H 233.061 -0.755165 -4.14578 0
M  V30 2516 H 231.785 0.120236 -3.26379 0
M  V30 2517 H 230.444 -2.00346 -3.07013 0
M  V30 2518 H 230.092 -0.462995 -5.00865 0
M  V30 2519 H 229.792 -2.15865 -5.46513 0
M  V30 2520 H 231.316 -1.36334 -5.95185 0
M  V30 2521 H 232.73 -3.26626 -4.71156 0
M  V30 2522 H 231.127 -4.01607 -4.45905 0
M  V30 2523 H 232.197 -3.75326 -3.07016 0
M  V30 2524 N 233.54 1.10788 -1.12088 0
M  V30 2525 C 234.788 1.8231 -0.872205 0
M  V30 2526 C 235.109 1.85419 0.603709 0
M  V30 2527 O 234.379 1.32963 1.43867 0
M  V30 2528 H 232.959 0.675137 -0.319686 0
M  V30 2529 H 235.621 1.34068 -1.41463 0
M  V30 2530 H 234.717 2.85955 -1.25045 0
M  V30 2531 N 235.018 0.912232 1.28515 0
M  V30 2532 C 236.248 0.559604 1.98877 0
M  V30 2533 C 236.656 -0.863113 1.68366 0
M  V30 2534 O 235.999 -1.58304 0.931969 0
M  V30 2535 C 236.061 0.68703 3.52874 0
M  V30 2536 C 235.725 2.07901 4.06972 0
M  V30 2537 C 236.722 3.05157 4.20922 0
M  V30 2538 C 234.407 2.39178 4.417 0
M  V30 2539 C 236.401 4.31806 4.68852 0
M  V30 2540 C 234.088 3.66068 4.89324 0
M  V30 2541 C 235.086 4.62195 5.02856 0
M  V30 2542 O 234.774 5.86829 5.49442 0
M  V30 2543 H 234.506 0.212191 0.641834 0
M  V30 2544 H 237.06 1.22712 1.64715 0
M  V30 2545 H 235.29 -0.0375486 3.86682 0
M  V30 2546 H 236.979 0.341727 4.04459 0
M  V30 2547 H 237.745 2.82311 3.94367 0
M  V30 2548 H 233.624 1.65109 4.30418 0
M  V30 2549 H 237.168 5.06842 4.79329 0
M  V30 2550 H 233.065 3.88739 5.15318 0
M  V30 2551 H 233.833 5.89597 5.6773 0
M  V30 2552 N 236.496 -1.42363 0.676048 0
M  V30 2553 C 237.721 -2.06377 0.205705 0
M  V30 2554 C 238.146 -1.50463 -1.12883 0
M  V30 2555 O 237.504 -0.623619 -1.70237 0
M  V30 2556 C 237.552 -3.60277 0.152655 0
M  V30 2557 O 236.656 -4.02935 -0.87845 0
M  V30 2558 H 235.997 -0.655588 0.105359 0
M  V30 2559 H 238.527 -1.82475 0.925412 0
M  V30 2560 H 238.537 -4.07993 -0.0230675 0
M  V30 2561 H 237.212 -4.00346 1.12675 0
M  V30 2562 H 235.789 -3.66764 -0.673668 0
M  V30 2563 N 237.974 -0.419461 -1.51915 0
M  V30 2564 C 238.904 0.391813 -2.30189 0
M  V30 2565 C 239.885 1.03699 -1.34836 0
M  V30 2566 O 241.07 1.04403 -1.63748 0
M  V30 2567 C 238.2 1.50312 -3.13087 0
M  V30 2568 C 237.154 0.9824 -4.16573 0
M  V30 2569 C 236.48 2.18809 -4.8788 0
M  V30 2570 C 237.78 0.0292356 -5.22292 0
M  V30 2571 H 239.474 -0.26135 -2.98257 0
M  V30 2572 H 237.02 -0.127134 -1.43438 0
M  V30 2573 H 238.973 2.07773 -3.66617 0
M  V30 2574 H 237.697 2.18431 -2.42807 0
M  V30 2575 H 236.356 0.430119 -3.64068 0
M  V30 2576 H 236.004 2.85507 -4.14119 0
M  V30 2577 H 235.704 1.84615 -5.57845 0
M  V30 2578 H 237.228 2.76858 -5.44226 0
M  V30 2579 H 238.642 0.512976 -5.71 0
M  V30 2580 H 237.039 -0.2244 -5.9968 0
M  V30 2581 H 238.109 -0.912931 -4.76228 0
M  V30 2582 N 239.452 1.56882 -0.150215 0
M  V30 2583 C 240.362 2.20494 0.801222 0
M  V30 2584 C 241.378 1.19019 1.26927 0
M  V30 2585 O 242.554 1.51607 1.32579 0
M  V30 2586 C 239.619 2.81659 2.02161 0
M  V30 2587 C 238.68 3.9827 1.60249 0
M  V30 2588 C 237.913 4.56508 2.7647 0
M  V30 2589 O 238.136 4.13627 3.92771 0
M  V30 2590 O 237.07 5.46719 2.51757 0
M  V30 2591 H 240.896 3.02315 0.289717 0
M  V30 2592 H 238.481 1.49202 0.0769684 0
M  V30 2593 H 240.363 3.20522 2.73576 0
M  V30 2594 H 239.038 2.02849 2.52258 0
M  V30 2595 H 237.945 3.64117 0.858477 0
M  V30 2596 H 239.278 4.78609 1.14864 0
M  V30 2597 N 240.93 -0.123565 1.57115 0
M  V30 2598 C 242.207 -0.862196 1.75572 0
M  V30 2599 C 242.587 -1.98279 0.724475 0
M  V30 2600 O 241.935 -2.27102 -0.252407 0
M  V30 2601 C 242.145 -1.38309 3.20424 0
M  V30 2602 C 243.493 -1.83724 3.82793 0
M  V30 2603 O 244.517 -1.47999 3.23998 0
M  V30 2604 O 243.376 -2.49685 4.86127 0
M  V30 2605 H 240.47 -0.409113 0.718718 0
M  V30 2606 H 243.016 -0.107661 1.69358 0
M  V30 2607 H 241.788 -0.578889 3.86994 0
M  V30 2608 H 241.411 -2.20046 3.31158 0
M  V30 2609 N 242.408 -1.52605 -0.393616 0
M  V30 2610 C 243.654 -1.67672 -1.14079 0
M  V30 2611 C 243.987 -0.413121 -1.89755 0
M  V30 2612 O 243.262 0.588952 -1.85369 0
M  V30 2613 C 243.545 -2.9088 -2.12276 0
M  V30 2614 C 243.398 -4.27329 -1.40394 0
M  V30 2615 C 244.717 -3.09628 -3.12759 0
M  V30 2616 H 241.836 -0.610168 -0.413356 0
M  V30 2617 H 244.478 -1.85193 -0.424696 0
M  V30 2618 H 242.628 -2.76073 -2.73342 0
M  V30 2619 H 244.3 -4.53894 -0.82327 0
M  V30 2620 H 242.543 -4.2802 -0.705801 0
M  V30 2621 H 243.214 -5.09615 -2.12123 0
M  V30 2622 H 245.69 -3.23436 -2.61779 0
M  V30 2623 H 244.566 -3.97322 -3.78717 0
M  V30 2624 H 244.827 -2.23637 -3.81365 0
M  V30 2625 N 243.887 0.651787 -1.4349 0
M  V30 2626 C 244.837 1.75783 -1.45205 0
M  V30 2627 C 245.821 1.57679 -0.320328 0
M  V30 2628 O 247.013 1.67767 -0.564211 0
M  V30 2629 C 244.142 3.14377 -1.3792 0
M  V30 2630 C 243.228 3.38023 -2.56127 0
M  V30 2631 N 243.619 3.32135 -3.81471 0
M  V30 2632 C 241.917 3.68747 -2.50882 0
M  V30 2633 C 242.618 3.55902 -4.60118 0
M  V30 2634 N 241.594 3.77783 -3.90872 0
M  V30 2635 H 245.396 1.69657 -2.39987 0
M  V30 2636 H 242.91 0.853508 -1.38163 0
M  V30 2637 H 244.907 3.93666 -1.37231 0
M  V30 2638 H 243.567 3.21683 -0.441596 0
M  V30 2639 H 244.578 3.11515 -4.13738 0
M  V30 2640 H 241.255 3.8316 -1.65816 0
M  V30 2641 H 242.645 3.57116 -5.69138 0
M  V30 2642 N 245.365 1.30045 0.890287 0
M  V30 2643 C 246.611 1.18737 1.64406 0
M  V30 2644 C 246.944 -0.258525 1.92472 0
M  V30 2645 O 246.219 -1.18562 1.54186 0
M  V30 2646 C 246.502 2.01087 2.98724 0
M  V30 2647 C 246.355 3.53867 2.77665 0
M  V30 2648 C 247.674 1.84457 3.9958 0
M  V30 2649 H 244.793 0.432698 0.596608 0
M  V30 2650 H 247.435 1.5962 1.0306 0
M  V30 2651 H 245.585 1.66349 3.51084 0
M  V30 2652 H 247.257 3.98637 2.32133 0
M  V30 2653 H 245.5 3.78318 2.12269 0
M  V30 2654 H 246.171 4.06772 3.7315 0
M  V30 2655 H 248.647 2.14817 3.56361 0
M  V30 2656 H 247.523 2.44411 4.91482 0
M  V30 2657 H 247.784 0.802276 4.3476 0
M  V30 2658 N 246.843 -1.10192 1.12674 0
M  V30 2659 C 248.092 -1.81573 0.8783 0
M  V30 2660 C 248.405 -1.86249 -0.597557 0
M  V30 2661 O 249.611 -2.5386 -0.962681 0
M  V30 2662 C 248.067 -3.26149 1.52167 0
M  V30 2663 C 247.675 -3.29763 3.03249 0
M  V30 2664 C 249.419 -4.0234 1.3536 0
M  V30 2665 C 247.326 -4.68815 3.60508 0
M  V30 2666 H 246.256 -0.680394 0.324931 0
M  V30 2667 H 248.907 -1.23902 1.35353 0
M  V30 2668 H 247.289 -3.83832 0.974104 0
M  V30 2669 H 248.463 -2.8189 3.6452 0
M  V30 2670 H 246.778 -2.67059 3.19481 0
M  V30 2671 H 249.375 -5.05058 1.75559 0
M  V30 2672 H 249.718 -4.15235 0.297554 0
M  V30 2673 H 250.251 -3.51079 1.87052 0
M  V30 2674 H 246.99 -4.61121 4.65884 0
M  V30 2675 H 246.51 -5.17045 3.04014 0
M  V30 2676 H 248.189 -5.37785 3.59717 0
M  V30 2677 N 248.321 -0.919034 -1.28029 0
M  V30 2678 C 249.569 -0.553838 -1.94363 0
M  V30 2679 C 249.89 0.906357 -1.72656 0
M  V30 2680 O 249.16 1.64143 -1.0693 0
M  V30 2681 H 247.74 -0.201834 -0.719216 0
M  V30 2682 H 250.402 -1.16954 -1.55909 0
M  V30 2683 H 249.498 -0.752758 -3.02886 0
M  V30 2684 N 249.799 1.42003 -0.683588 0
M  V30 2685 C 250.749 2.27997 0.0121992 0
M  V30 2686 C 251.733 1.4156 0.764822 0
M  V30 2687 O 252.925 1.64935 0.642287 0
M  V30 2688 C 250.054 3.29706 0.956482 0
M  V30 2689 C 249.14 4.23625 0.200739 0
M  V30 2690 N 249.531 4.99448 -0.799087 0
M  V30 2691 C 247.829 4.43845 0.437937 0
M  V30 2692 C 248.53 5.68102 -1.25041 0
M  V30 2693 N 247.506 5.40511 -0.578648 0
M  V30 2694 H 251.308 2.84048 -0.754564 0
M  V30 2695 H 248.822 1.54071 -0.513398 0
M  V30 2696 H 250.819 3.90124 1.47 0
M  V30 2697 H 249.479 2.75216 1.72297 0
M  V30 2698 H 250.49 5.04303 -1.17893 0
M  V30 2699 H 247.167 4.00382 1.18325 0
M  V30 2700 H 248.557 6.38913 -2.07942 0
M  V30 2701 N 251.277 0.427512 1.51691 0
M  V30 2702 C 252.502 -0.143601 2.06902 0
M  V30 2703 C 252.927 -1.36536 1.29382 0
M  V30 2704 O 252.285 -1.78289 0.329043 0
M  V30 2705 C 252.333 -0.454207 3.57728 0
M  V30 2706 O 251.437 -1.54228 3.82475 0
M  V30 2707 H 250.778 -0.00617128 0.663971 0
M  V30 2708 H 253.308 0.606014 1.95419 0
M  V30 2709 H 253.318 -0.707525 4.01818 0
M  V30 2710 H 251.993 0.438812 4.13579 0
M  V30 2711 H 250.57 -1.2797 3.50254 0
M  V30 2712 N 252.755 -1.56801 0.158532 0
M  V30 2713 C 253.685 -2.20347 -0.772609 0
M  V30 2714 C 254.666 -1.15518 -1.24859 0
M  V30 2715 O 255.851 -1.43902 -1.30406 0
M  V30 2716 C 252.981 -2.83417 -2.00729 0
M  V30 2717 C 251.935 -3.94174 -1.66765 0
M  V30 2718 C 251.261 -4.44233 -2.97592 0
M  V30 2719 C 252.561 -5.14392 -0.905447 0
M  V30 2720 H 254.255 -2.98413 -0.242959 0
M  V30 2721 H 251.801 -1.43537 -0.115419 0
M  V30 2722 H 253.754 -3.26543 -2.6636 0
M  V30 2723 H 252.478 -2.02701 -2.56086 0
M  V30 2724 H 251.137 -3.51684 -1.03508 0
M  V30 2725 H 250.785 -3.60325 -3.50963 0
M  V30 2726 H 250.485 -5.18945 -2.75626 0
M  V30 2727 H 252.009 -4.90037 -3.64274 0
M  V30 2728 H 253.423 -5.5429 -1.46408 0
M  V30 2729 H 251.82 -5.9494 -0.7853 0
M  V30 2730 H 252.89 -4.84795 0.100668 0
M  V30 2731 N 254.233 0.115231 -1.57178 0
M  V30 2732 C 255.481 0.820727 -1.84685 0
M  V30 2733 C 255.802 1.80237 -0.744279 0
M  V30 2734 O 255.072 1.94529 0.231375 0
M  V30 2735 H 253.652 0.306084 -0.681411 0
M  V30 2736 H 256.314 0.101656 -1.94635 0
M  V30 2737 H 255.41 1.36366 -2.80733 0
M  V30 2738 N 255.711 1.52812 0.385517 0
M  V30 2739 C 256.674 1.77188 1.45386 0
M  V30 2740 C 257.674 0.641953 1.4743 0
M  V30 2741 O 258.864 0.910033 1.4854 0
M  V30 2742 C 255.996 1.87582 2.8465 0
M  V30 2743 H 257.189 2.72583 1.25054 0
M  V30 2744 H 254.742 1.43586 0.617467 0
M  V30 2745 H 255.477 0.941849 3.10322 0
M  V30 2746 H 255.262 2.69748 2.84567 0
M  V30 2747 H 256.752 2.08102 3.62054 0
M  V30 2748 N 257.189 -0.644168 1.43834 0
M  V30 2749 C 258.139 -1.7501 1.46135 0
M  V30 2750 C 259.123 -1.57507 0.328685 0
M  V30 2751 O 260.315 -1.67465 0.5731 0
M  V30 2752 C 257.444 -3.13641 1.39585 0
M  V30 2753 C 256.53 -3.3666 2.57916 0
M  V30 2754 N 256.921 -3.30107 3.83227 0
M  V30 2755 C 255.219 -3.67411 2.52834 0
M  V30 2756 C 255.92 -3.53456 4.61999 0
M  V30 2757 N 254.896 -3.75705 3.9287 0
M  V30 2758 H 258.698 -1.68382 2.40883 0
M  V30 2759 H 256.212 -0.846169 1.38614 0
M  V30 2760 H 258.209 -3.92933 1.39317 0
M  V30 2761 H 256.869 -3.21444 0.45865 0
M  V30 2762 H 257.88 -3.09316 4.15384 0
M  V30 2763 H 254.557 -3.82275 1.67845 0
M  V30 2764 H 255.947 -3.54093 5.71024 0
M  V30 2765 N 258.668 -1.30515 -0.883378 0
M  V30 2766 C 259.896 -1.22359 -1.66841 0
M  V30 2767 C 260.311 0.213296 -1.87591 0
M  V30 2768 O 259.668 1.14075 -1.42454 0
M  V30 2769 C 259.719 -1.95011 -3.04389 0
M  V30 2770 O 259.44 -3.3309 -2.84575 0
M  V30 2771 C 260.941 -1.93532 -3.98824 0
M  V30 2772 H 258.161 -0.423371 -0.520575 0
M  V30 2773 H 260.705 -1.72167 -1.10357 0
M  V30 2774 H 258.86 -1.48997 -3.57601 0
M  V30 2775 H 259.274 -3.69907 -3.71846 0
M  V30 2776 H 260.748 -2.48902 -4.92699 0
M  V30 2777 H 261.225 -0.914627 -4.29571 0
M  V30 2778 H 261.831 -2.39364 -3.51547 0
M  V30 2779 N 260.146 1.09593 -1.13257 0
M  V30 2780 C 261.109 2.14359 -0.811358 0
M  V30 2781 C 262.109 1.59808 0.178377 0
M  V30 2782 O 263.299 1.74132 -0.0484911 0
M  V30 2783 C 260.431 3.40269 -0.207276 0
M  V30 2784 H 261.624 2.44284 -1.73969 0
M  V30 2785 H 259.177 1.25102 -0.936973 0
M  V30 2786 H 259.912 3.15969 0.73036 0
M  V30 2787 H 259.697 3.81154 -0.919992 0
M  V30 2788 H 261.187 4.176 0.000667944 0
M  V30 2789 N 261.624 0.925811 1.2754 0
M  V30 2790 C 262.587 0.428129 2.25166 0
M  V30 2791 C 263.587 -0.452261 1.54309 0
M  V30 2792 O 264.777 -0.253608 1.72344 0
M  V30 2793 C 261.909 -0.384749 3.38722 0
M  V30 2794 H 263.102 1.29066 2.70706 0
M  V30 2795 H 260.655 0.706323 1.3943 0
M  V30 2796 H 261.39 -1.26618 2.98561 0
M  V30 2797 H 261.175 0.246454 3.91325 0
M  V30 2798 H 262.665 -0.723389 4.11287 0
M  V30 2799 N 263.102 -1.41638 0.69111 0
M  V30 2800 C 264.012 -2.34588 0.0233487 0
M  V30 2801 C 265.028 -1.55987 -0.770984 0
M  V30 2802 O 266.204 -1.88486 -0.709569 0
M  V30 2803 C 263.269 -3.34684 -0.904851 0
M  V30 2804 C 262.33 -4.29176 -0.103225 0
M  V30 2805 C 261.563 -5.2449 -0.987216 0
M  V30 2806 O 261.786 -5.2514 -2.22674 0
M  V30 2807 O 260.72 -6.00295 -0.439281 0
M  V30 2808 H 264.546 -2.93261 0.789416 0
M  V30 2809 H 262.131 -1.42417 0.45142 0
M  V30 2810 H 264.013 -3.96133 -1.43724 0
M  V30 2811 H 262.688 -2.78461 -1.65049 0
M  V30 2812 H 261.595 -3.71089 0.473655 0
M  V30 2813 H 262.928 -4.88484 0.60365 0
M  V30 2814 N 264.58 -0.43555 -1.51462 0
M  V30 2815 C 265.543 0.365137 -2.26273 0
M  V30 2816 C 266.543 0.951227 -1.29647 0
M  V30 2817 O 267.733 0.825958 -1.53374 0
M  V30 2818 C 264.865 1.51645 -3.05314 0
M  V30 2819 H 266.058 -0.290474 -2.9849 0
M  V30 2820 H 263.611 -0.188676 -1.55157 0
M  V30 2821 H 264.346 2.20816 -2.3751 0
M  V30 2822 H 264.131 1.10238 -3.76284 0
M  V30 2823 H 265.621 2.08218 -3.61987 0
M  V30 2824 N 266.058 1.56714 -0.166846 0
M  V30 2825 C 267.306 1.96358 0.478305 0
M  V30 2826 C 267.627 1.0537 1.6408 0
M  V30 2827 O 266.897 0.119154 1.95537 0
M  V30 2828 H 265.477 0.725065 0.179692 0
M  V30 2829 H 268.139 1.93329 -0.246985 0
M  V30 2830 H 267.235 3.00547 0.841292 0
M  V30 2831 N 267.536 -0.106894 1.57237 0
M  V30 2832 C 268.952 -0.46078 1.52804 0
M  V30 2833 C 269.152 -1.81184 0.881746 0
M  V30 2834 O 268.208 -2.48102 0.469224 0
M  V30 2835 C 269.521 -0.434127 2.9755 0
M  V30 2836 C 271.069 -0.516821 3.08704 0
M  V30 2837 C 271.544 -0.520436 4.55033 0
M  V30 2838 N 273.035 -0.58153 4.59535 0
M  V30 2839 C 273.77 -0.605973 5.70189 0
M  V30 2840 N 273.266 -0.587331 6.90306 0
M  V30 2841 N 275.059 -0.649895 5.5833 0
M  V30 2842 H 267.21 0.778203 1.9763 0
M  V30 2843 H 269.473 0.288403 0.903066 0
M  V30 2844 H 269.179 0.491197 3.48253 0
M  V30 2845 H 269.053 -1.25748 3.55622 0
M  V30 2846 H 271.44 -1.43256 2.57995 0
M  V30 2847 H 271.521 0.334449 2.53604 0
M  V30 2848 H 271.165 0.391313 5.0639 0
M  V30 2849 H 271.095 -1.38876 5.07958 0
M  V30 2850 H 273.586 -0.60161 3.73081 0
M  V30 2851 H 273.899 -0.60894 7.70397 0
M  V30 2852 H 272.244 -0.554564 6.92784 0
M  V30 2853 H 275.435 -0.661907 4.63397 0
M  V30 2854 H 275.608 -0.665476 6.44574 0
M  V30 2855 N 269.014 -1.53014 -0.377408 0
M  V30 2856 C 270.43 -1.42523 -0.718281 0
M  V30 2857 C 270.63 -0.55487 -1.9371 0
M  V30 2858 O 269.686 -0.0327593 -2.52479 0
M  V30 2859 C 270.999 -2.85546 -0.942539 0
M  V30 2860 C 272.547 -2.95101 -1.04329 0
M  V30 2861 C 273.022 -4.3916 -1.3001 0
M  V30 2862 N 274.513 -4.42536 -1.36806 0
M  V30 2863 C 275.248 -5.51097 -1.58364 0
M  V30 2864 N 274.744 -6.69724 -1.77317 0
M  V30 2865 N 276.537 -5.38657 -1.60638 0
M  V30 2866 H 268.688 -2.08116 0.424426 0
M  V30 2867 H 270.951 -0.939352 0.127759 0
M  V30 2868 H 270.657 -3.51499 -0.118929 0
M  V30 2869 H 270.531 -3.28493 -1.85397 0
M  V30 2870 H 272.918 -2.29309 -1.85745 0
M  V30 2871 H 272.999 -2.55566 -0.109505 0
M  V30 2872 H 272.643 -5.05521 -0.490991 0
M  V30 2873 H 272.573 -4.76258 -2.24691 0
M  V30 2874 H 275.064 -3.57039 -1.23821 0
M  V30 2875 H 275.377 -7.48233 -1.93306 0
M  V30 2876 H 273.722 -6.72732 -1.74518 0
M  V30 2877 H 276.913 -4.44948 -1.45391 0
M  V30 2878 H 277.086 -6.2333 -1.77098 0
M  V30 2879 N 270.492 0.636531 -1.44174 0
M  V30 2880 C 271.422 1.76003 -1.53444 0
M  V30 2881 C 272.403 1.65619 -0.387841 0
M  V30 2882 O 273.588 1.84461 -0.607257 0
M  V30 2883 C 270.718 3.14511 -1.4731 0
M  V30 2884 C 269.672 3.39677 -2.60391 0
M  V30 2885 C 268.998 4.78159 -2.39308 0
M  V30 2886 C 270.298 3.32772 -4.02567 0
M  V30 2887 H 271.992 1.68501 -2.47483 0
M  V30 2888 H 269.538 0.809237 -1.19111 0
M  V30 2889 H 271.491 3.92878 -1.52397 0
M  V30 2890 H 270.215 3.22783 -0.49785 0
M  V30 2891 H 268.874 2.63688 -2.54684 0
M  V30 2892 H 268.522 4.83128 -1.39988 0
M  V30 2893 H 268.222 4.95956 -3.15122 0
M  V30 2894 H 269.746 5.58762 -2.46205 0
M  V30 2895 H 271.16 4.01051 -4.09672 0
M  V30 2896 H 269.557 3.62104 -4.7854 0
M  V30 2897 H 270.627 2.30669 -4.2652 0
M  V30 2898 N 271.97 1.30982 0.876444 0
M  V30 2899 C 273.218 1.20058 1.62575 0
M  V30 2900 C 273.539 -0.242947 1.93481 0
M  V30 2901 O 272.809 -1.1619 1.57724 0
M  V30 2902 H 271.389 0.44135 0.602677 0
M  V30 2903 H 274.051 1.64222 1.04962 0
M  V30 2904 H 273.147 1.76762 2.57219 0
M  V30 2905 N 273.449 -1.08991 1.13837 0
M  V30 2906 C 274.697 -1.80899 0.901098 0
M  V30 2907 C 275.018 -1.86356 -0.574134 0
M  V30 2908 O 274.288 -1.35235 -1.41733 0
M  V30 2909 H 272.868 -0.669966 0.330386 0
M  V30 2910 H 275.53 -1.318 1.43578 0
M  V30 2911 H 274.626 -2.83929 1.29578 0
M  V30 2912 N 274.927 -0.932562 -1.27047 0
M  V30 2913 C 276.343 -0.633544 -1.46487 0
M  V30 2914 C 276.543 0.815746 -1.84249 0
M  V30 2915 O 275.599 1.59319 -1.95892 0
M  V30 2916 C 276.912 -1.58758 -2.55375 0
M  V30 2917 C 278.46 -1.59634 -2.69232 0
M  V30 2918 C 278.935 -2.53747 -3.81283 0
M  V30 2919 N 280.426 -2.51982 -3.88664 0
M  V30 2920 C 281.161 -3.21491 -4.74796 0
M  V30 2921 N 280.657 -4.00395 -5.65381 0
M  V30 2922 N 282.45 -3.10485 -4.68568 0
M  V30 2923 H 274.601 -1.86946 -1.00821 0
M  V30 2924 H 276.864 -0.802897 -0.504044 0
M  V30 2925 H 276.57 -2.62172 -2.34432 0
M  V30 2926 H 276.444 -1.33301 -3.52861 0
M  V30 2927 H 278.831 -0.569488 -2.89553 0
M  V30 2928 H 278.912 -1.89142 -1.72218 0
M  V30 2929 H 278.556 -3.56545 -3.61715 0
M  V30 2930 H 278.486 -2.21532 -4.77735 0
M  V30 2931 H 280.977 -1.94681 -3.23895 0
M  V30 2932 H 281.29 -4.50406 -6.27976 0
M  V30 2933 H 279.635 -4.04498 -5.65161 0
M  V30 2934 H 282.826 -2.48331 -3.96799 0
M  V30 2935 H 282.999 -3.64925 -5.35475 0
M  V30 2936 N 276.405 1.4127 -0.698611 0
M  V30 2937 C 277.651 2.01478 -0.231207 0
M  V30 2938 C 277.984 1.55215 1.16713 0
M  V30 2939 O 277.259 0.764672 1.78838 0
M  V30 2940 C 277.542 3.58912 -0.292281 0
M  V30 2941 C 277.395 4.15293 -1.72778 0
M  V30 2942 C 278.714 4.38736 0.346194 0
M  V30 2943 H 275.833 0.732025 -0.0854878 0
M  V30 2944 H 278.475 1.67977 -0.887906 0
M  V30 2945 H 276.625 3.87582 0.26686 0
M  V30 2946 H 278.297 3.97486 -2.341 0
M  V30 2947 H 276.54 3.7022 -2.26096 0
M  V30 2948 H 277.211 5.24452 -1.72202 0
M  V30 2949 H 279.687 4.15897 -0.130035 0
M  V30 2950 H 278.563 5.48221 0.272932 0
M  V30 2951 H 278.824 4.18425 1.42734 0
M  V30 2952 N 277.883 0.443576 1.51229 0
M  V30 2953 C 279.131 -0.120557 2.0174 0
M  V30 2954 C 279.452 -1.42665 1.32935 0
M  V30 2955 O 278.722 -1.9028 0.465866 0
M  V30 2956 H 277.302 -0.0475426 0.745486 0
M  V30 2957 H 279.964 0.587711 1.85828 0
M  V30 2958 H 279.06 -0.291972 3.10731 0
M  V30 2959 N 279.361 -1.56624 0.175154 0
M  V30 2960 C 280.777 -1.58571 -0.180966 0
M  V30 2961 C 280.977 -1.19065 -1.6256 0
M  V30 2962 O 280.033 -0.904044 -2.35761 0
M  V30 2963 C 281.346 -3.00522 0.103326 0
M  V30 2964 C 282.894 -3.12972 0.0418426 0
M  V30 2965 C 283.369 -4.57022 0.299175 0
M  V30 2966 N 284.86 -4.62541 0.247086 0
M  V30 2967 C 285.595 -5.71857 0.420318 0
M  V30 2968 N 285.091 -6.89717 0.652816 0
M  V30 2969 N 286.884 -5.60972 0.355957 0
M  V30 2970 H 279.035 -1.80589 1.11809 0
M  V30 2971 H 281.298 -0.837178 0.444788 0
M  V30 2972 H 281.004 -3.33916 1.10422 0
M  V30 2973 H 280.878 -3.72344 -0.603299 0
M  V30 2974 H 283.265 -2.79403 -0.949636 0
M  V30 2975 H 283.346 -2.43578 0.781238 0
M  V30 2976 H 282.99 -4.913 1.28788 0
M  V30 2977 H 282.92 -5.24579 -0.460876 0
M  V30 2978 H 285.411 -3.77829 0.0731895 0
M  V30 2979 H 285.724 -7.68911 0.774347 0
M  V30 2980 H 284.069 -6.91572 0.689476 0
M  V30 2981 H 287.26 -4.67773 0.174882 0
M  V30 2982 H 287.433 -6.46111 0.494388 0
M  V30 2983 N 280.839 0.0985539 -1.57292 0
M  V30 2984 C 282.088 0.801358 -1.85098 0
M  V30 2985 C 282.401 1.80066 -0.763902 0
M  V30 2986 O 283.607 2.55112 -0.928981 0
M  V30 2987 C 282.063 1.47599 -3.28242 0
M  V30 2988 C 281.671 0.516624 -4.45011 0
M  V30 2989 C 283.415 2.16272 -3.65276 0
M  V30 2990 C 281.322 1.19564 -5.79188 0
M  V30 2991 H 280.252 0.303022 -0.69043 0
M  V30 2992 H 282.903 0.0542623 -1.8342 0
M  V30 2993 H 281.285 2.27042 -3.2445 0
M  V30 2994 H 282.459 -0.246065 -4.60143 0
M  V30 2995 H 280.774 -0.064227 -4.1635 0
M  V30 2996 H 283.371 2.67802 -4.62803 0
M  V30 2997 H 283.714 2.95009 -2.93727 0
M  V30 2998 H 284.247 1.43693 -3.70941 0
M  V30 2999 H 280.986 0.449157 -6.53959 0
M  V30 3000 H 280.506 1.92984 -5.67906 0
M  V30 3001 H 282.185 1.7231 -6.23633 0
M  V30 3002 N 282.317 1.53212 0.369288 0
M  V30 3003 C 283.545 1.73119 1.13303 0
M  V30 3004 C 283.96 0.458455 1.83149 0
M  V30 3005 O 283.317 -0.568403 1.73423 0
M  V30 3006 C 283.368 2.89413 2.16616 0
M  V30 3007 O 283.089 4.11761 1.49614 0
M  V30 3008 C 284.59 3.21161 3.05566 0
M  V30 3009 H 281.81 0.579107 0.338934 0
M  V30 3010 H 284.354 1.99942 0.429338 0
M  V30 3011 H 282.509 2.64994 2.82589 0
M  V30 3012 H 282.923 4.76858 2.18419 0
M  V30 3013 H 284.397 4.05949 3.74045 0
M  V30 3014 H 284.874 2.36369 3.70171 0
M  V30 3015 H 285.48 3.47492 2.45213 0
M  V30 3016 N 283.795 -0.628877 1.44509 0
M  V30 3017 C 285.043 -1.38565 1.4712 0
M  V30 3018 C 285.364 -1.94712 0.105899 0
M  V30 3019 O 284.634 -1.75912 -0.862079 0
M  V30 3020 H 283.214 -0.514333 0.541729 0
M  V30 3021 H 285.876 -0.740018 1.80305 0
M  V30 3022 H 284.972 -2.21583 2.19789 0
M  V30 3023 N 285.273 -1.31445 -0.869486 0
M  V30 3024 C 286.203 -1.21727 -1.99261 0
M  V30 3025 C 287.184 -0.104359 -1.6978 0
M  V30 3026 O 288.369 -0.289038 -1.92037 0
M  V30 3027 C 285.499 -0.924317 -3.34774 0
M  V30 3028 C 284.453 -1.99685 -3.78563 0
M  V30 3029 C 283.779 -1.55658 -5.11541 0
M  V30 3030 C 285.079 -3.41003 -3.95619 0
M  V30 3031 H 286.773 -2.1569 -2.07649 0
M  V30 3032 H 284.319 -1.03839 -0.997675 0
M  V30 3033 H 286.272 -0.842934 -4.12883 0
M  V30 3034 H 284.996 0.0509793 -3.2656 0
M  V30 3035 H 283.655 -2.06813 -3.02694 0
M  V30 3036 H 283.303 -0.569132 -4.9977 0
M  V30 3037 H 283.003 -2.27409 -5.41811 0
M  V30 3038 H 284.527 -1.48928 -5.92159 0
M  V30 3039 H 285.941 -3.36547 -4.64122 0
M  V30 3040 H 284.338 -4.10975 -4.37286 0
M  V30 3041 H 285.408 -3.81754 -2.98985 0
M  V30 3042 N 286.751 1.08385 -1.14413 0
M  V30 3043 C 288.028 1.77429 -0.823297 0
M  V30 3044 C 288.408 1.9974 0.683163 0
M  V30 3045 O 287.756 1.60739 1.62405 0
M  V30 3046 C 287.966 3.09004 -1.62227 0
M  V30 3047 C 289.314 3.83532 -1.82177 0
M  V30 3048 O 290.338 3.18786 -1.58915 0
M  V30 3049 O 289.197 4.99792 -2.21067 0
M  V30 3050 H 286.291 0.769999 -0.301712 0
M  V30 3051 H 288.837 1.14846 -1.24934 0
M  V30 3052 H 287.609 2.88316 -2.64555 0
M  V30 3053 H 287.232 3.79316 -1.19187 0
M  V30 3054 N 288.23 0.939286 1.26551 0
M  V30 3055 C 289.641 0.628782 1.75793 0
M  V30 3056 C 289.992 -0.856046 1.7654 0
M  V30 3057 O 289.117 -1.66994 1.3763 0
M  V30 3058 C 289.712 1.13465 3.19235 0
M  V30 3059 C 288.271 0.874601 3.66098 0
M  V30 3060 C 287.418 1.28667 2.45642 0
M  V30 3061 H 290.369 1.1178 1.12654 0
M  V30 3062 H 290.39 0.487609 3.77363 0
M  V30 3063 H 289.902 2.21535 3.1866 0
M  V30 3064 H 288.003 -0.191793 3.72106 0
M  V30 3065 H 288.116 1.50028 4.55004 0
M  V30 3066 H 286.48 0.705109 2.44745 0
M  V30 3067 H 287.263 2.37625 2.47769 0
M  V30 3068 N 289.708 -1.40897 0.706093 0
M  V30 3069 C 290.671 -2.29131 0.0562841 0
M  V30 3070 C 291.671 -1.44901 -0.697166 0
M  V30 3071 O 292.861 -1.65926 -0.530484 0
M  V30 3072 C 289.993 -3.27957 -0.93043 0
M  V30 3073 H 291.186 -2.88091 0.833284 0
M  V30 3074 H 288.739 -1.4906 0.470192 0
M  V30 3075 H 289.474 -2.73997 -1.73482 0
M  V30 3076 H 289.259 -3.90124 -0.393166 0
M  V30 3077 H 290.749 -3.94049 -1.38256 0
M  V30 3078 N 291.186 -0.45159 -1.50991 0
M  V30 3079 C 292.434 0.109857 -2.01801 0
M  V30 3080 C 292.755 1.41958 -1.3369 0
M  V30 3081 O 292.025 1.9003 -0.475951 0
M  V30 3082 H 290.605 0.0435884 -0.745727 0
M  V30 3083 H 293.267 -0.597557 -1.85514 0
M  V30 3084 H 292.363 0.275489 -3.10882 0
M  V30 3085 N 292.664 1.56529 -0.183458 0
M  V30 3086 C 294.075 1.83739 0.331177 0
M  V30 3087 C 294.426 1.10373 1.62211 0
M  V30 3088 O 293.551 0.36071 2.13373 0
M  V30 3089 C 294.146 3.33306 0.607646 0
M  V30 3090 C 292.705 3.60969 1.06668 0
M  V30 3091 C 291.852 2.77086 0.109029 0
M  V30 3092 H 294.803 1.53379 -0.407484 0
M  V30 3093 H 294.824 3.51444 1.45832 0
M  V30 3094 H 294.336 3.86677 -0.332086 0
M  V30 3095 H 292.437 3.13021 2.0211 0
M  V30 3096 H 292.55 4.69231 0.967447 0
M  V30 3097 H 290.914 2.47319 0.608714 0
M  V30 3098 H 291.697 3.33241 -0.82494 0
M  V30 3099 N 294.142 -0.090211 1.57342 0
M  V30 3100 C 295.382 -0.798365 1.88163 0
M  V30 3101 C 295.746 -1.75662 0.775046 0
M  V30 3102 O 296.947 -2.50849 0.965816 0
M  V30 3103 C 295.218 -1.50376 3.24225 0
M  V30 3104 S 296.777 -2.24952 3.76752 0
M  V30 3105 H 293.595 -0.265883 0.659414 0
M  V30 3106 H 296.197 -0.055264 1.95422 0
M  V30 3107 H 294.901 -0.792286 4.0268 0
M  V30 3108 H 294.432 -2.28666 3.20118 0
M  V30 3109 H 296.447 -3.51173 3.5056 0
M  V30 3110 N 295.62 -1.53406 -0.361157 0
M  V30 3111 C 296.867 -1.69802 -1.10333 0
M  V30 3112 C 297.195 -0.452087 -1.89173 0
M  V30 3113 O 296.45 0.566017 -1.87336 0
M  V30 3114 C 296.749 -2.90211 -2.08596 0
M  V30 3115 C 296.415 -4.26539 -1.46203 0
M  V30 3116 C 295.077 -4.6361 -1.28915 0
M  V30 3117 C 297.429 -5.113 -1.01101 0
M  V30 3118 C 294.757 -5.83075 -0.651157 0
M  V30 3119 C 297.109 -6.31415 -0.387007 0
M  V30 3120 C 295.773 -6.67195 -0.201657 0
M  V30 3121 H 295.043 -0.621351 -0.403737 0
M  V30 3122 H 297.69 -1.87598 -0.384609 0
M  V30 3123 H 295.995 -2.66946 -2.86788 0
M  V30 3124 H 297.692 -3.00091 -2.65982 0
M  V30 3125 H 294.282 -3.97352 -1.60653 0
M  V30 3126 H 298.466 -4.83206 -1.13249 0
M  V30 3127 H 293.722 -6.09385 -0.496006 0
M  V30 3128 H 297.896 -6.96394 -0.0293563 0
M  V30 3129 H 295.523 -7.59628 0.294766 0
M  V30 3130 N 297.098 0.621204 -1.44841 0
M  V30 3131 C 298.03 1.74615 -1.48466 0
M  V30 3132 C 299.043 1.58377 -0.37691 0
M  V30 3133 O 300.232 1.66508 -0.643215 0
M  V30 3134 C 297.332 3.12459 -1.31236 0
M  V30 3135 C 296.505 3.55064 -2.55438 0
M  V30 3136 C 295.564 4.71821 -2.32963 0
M  V30 3137 O 294.59 4.79628 -3.06505 0
M  V30 3138 N 295.792 5.64186 -1.36654 0
M  V30 3139 H 298.557 1.71973 -2.45449 0
M  V30 3140 H 296.118 0.806077 -1.40407 0
M  V30 3141 H 298.11 3.88302 -1.14032 0
M  V30 3142 H 296.68 3.09686 -0.4258 0
M  V30 3143 H 295.9 2.69324 -2.87851 0
M  V30 3144 H 297.188 3.80284 -3.38026 0
M  V30 3145 H 296.586 5.6058 -0.759344 0
M  V30 3146 H 295.143 6.39618 -1.25425 0
M  V30 3147 N 298.576 1.31904 0.862503 0
M  V30 3148 C 299.853 1.12644 1.59908 0
M  V30 3149 C 300.233 -0.316104 2.0872 0
M  V30 3150 O 299.581 -1.31145 1.87118 0
M  V30 3151 C 299.791 2.1472 2.7513 0
M  V30 3152 C 301.139 2.47637 3.44907 0
M  V30 3153 O 302.163 2.13205 2.85346 0
M  V30 3154 O 301.022 3.06632 4.52371 0
M  V30 3155 H 298.116 0.43416 0.703871 0
M  V30 3156 H 300.662 1.43408 0.907314 0
M  V30 3157 H 299.434 3.1172 2.3653 0
M  V30 3158 H 299.057 1.84905 3.51989 0
M  V30 3159 N 300.054 -1.07777 1.14986 0
M  V30 3160 C 300.964 -2.18404 0.856546 0
M  V30 3161 C 301.98 -1.73211 -0.165485 0
M  V30 3162 O 303.156 -2.01399 0.00755219 0
M  V30 3163 C 300.221 -3.44977 0.34526 0
M  V30 3164 C 299.282 -4.0476 1.43065 0
M  V30 3165 C 298.515 -5.25291 0.943663 0
M  V30 3166 O 298.738 -5.70004 -0.212426 0
M  V30 3167 O 297.672 -5.76638 1.72547 0
M  V30 3168 H 301.498 -2.45978 1.78125 0
M  V30 3169 H 299.083 -1.17033 0.928631 0
M  V30 3170 H 300.965 -4.21348 0.0663671 0
M  V30 3171 H 299.64 -3.18965 -0.551631 0
M  V30 3172 H 298.547 -3.29949 1.76309 0
M  V30 3173 H 299.88 -4.35035 2.30229 0
M  V30 3174 N 301.532 -0.945985 -1.26051 0
M  V30 3175 C 302.943 -0.638096 -1.75457 0
M  V30 3176 C 303.294 0.846672 -1.76991 0
M  V30 3177 O 302.419 1.66262 -1.38513 0
M  V30 3178 C 303.014 -1.15157 -3.18629 0
M  V30 3179 C 301.573 -0.894004 -3.65629 0
M  V30 3180 C 300.72 -1.29967 -2.44957 0
M  V30 3181 H 303.671 -1.12376 -1.1206 0
M  V30 3182 H 303.692 -0.507615 -3.77099 0
M  V30 3183 H 303.204 -2.23222 -3.1748 0
M  V30 3184 H 301.305 0.172057 -3.72203 0
M  V30 3185 H 301.418 -1.52439 -4.54202 0
M  V30 3186 H 299.782 -0.718078 -2.44368 0
M  V30 3187 H 300.565 -2.38935 -2.46505 0
M  V30 3188 N 303.011 1.40521 -0.713556 0
M  V30 3189 C 303.921 2.34522 -0.0606667 0
M  V30 3190 C 304.937 1.57193 0.74607 0
M  V30 3191 O 306.113 1.89591 0.679493 0
M  V30 3192 C 303.178 3.36081 0.851491 0
M  V30 3193 C 302.239 4.29286 0.0349339 0
M  V30 3194 C 301.472 5.25994 0.903649 0
M  V30 3195 O 301.695 5.28616 2.14292 0
M  V30 3196 O 300.629 6.00918 0.343723 0
M  V30 3197 H 304.455 2.91968 -0.835972 0
M  V30 3198 H 302.04 1.41681 -0.47402 0
M  V30 3199 H 303.922 3.98369 1.37404 0
M  V30 3200 H 302.597 2.81052 1.60598 0
M  V30 3201 H 301.504 3.70289 -0.532633 0
M  V30 3202 H 302.837 4.87462 -0.681287 0
M  V30 3203 N 304.489 0.459591 1.5075 0
M  V30 3204 C 305.399 -0.34613 2.32033 0
M  V30 3205 C 306.415 -1.00686 1.41909 0
M  V30 3206 O 307.591 -0.997361 1.7497 0
M  V30 3207 C 304.656 -1.42029 3.16273 0
M  V30 3208 C 303.717 -0.777362 4.22203 0
M  V30 3209 C 302.95 -1.80034 5.02418 0
M  V30 3210 O 303.173 -3.02544 4.83553 0
M  V30 3211 O 302.107 -1.37853 5.85901 0
M  V30 3212 H 305.933 0.318054 3.0203 0
M  V30 3213 H 303.518 0.221663 1.47746 0
M  V30 3214 H 305.4 -2.04275 3.68578 0
M  V30 3215 H 304.075 -2.06815 2.49016 0
M  V30 3216 H 302.982 -0.116256 3.73919 0
M  V30 3217 H 304.315 -0.172634 4.91897 0
M  V30 3218 N 305.967 -1.56429 0.191757 0
M  V30 3219 C 307.213 -1.97777 -0.448554 0
M  V30 3220 C 307.546 -1.07847 -1.61501 0
M  V30 3221 O 306.821 -0.129774 -1.94067 0
M  V30 3222 C 307.104 -3.48362 -0.911906 0
M  V30 3223 C 306.957 -4.4907 0.256136 0
M  V30 3224 C 308.276 -4.02561 -1.77857 0
M  V30 3225 H 305.395 -0.719071 -0.161572 0
M  V30 3226 H 308.037 -1.87896 0.282007 0
M  V30 3227 H 306.187 -3.56914 -1.53442 0
M  V30 3228 H 307.859 -4.5256 0.893733 0
M  V30 3229 H 306.102 -4.24181 0.908436 0
M  V30 3230 H 306.773 -5.51889 -0.11053 0
M  V30 3231 H 309.249 -3.96767 -1.25359 0
M  V30 3232 H 308.125 -5.08301 -2.07174 0
M  V30 3233 H 308.386 -3.47616 -2.73158 0
M  V30 3234 N 307.445 0.0818655 -1.57387 0
M  V30 3235 C 308.861 0.436412 -1.53517 0
M  V30 3236 C 309.061 1.79758 -0.910459 0
M  V30 3237 O 308.117 2.47324 -0.508636 0
M  V30 3238 C 309.43 0.386734 -2.98203 0
M  V30 3239 C 310.978 0.467644 -3.09487 0
M  V30 3240 C 311.453 0.447978 -4.55804 0
M  V30 3241 N 312.944 0.508348 -4.60402 0
M  V30 3242 C 313.679 0.515184 -5.71081 0
M  V30 3243 N 313.175 0.477435 -6.91153 0
M  V30 3244 N 314.968 0.560988 -5.59294 0
M  V30 3245 H 307.119 -0.809546 -1.96367 0
M  V30 3246 H 309.382 -0.302733 -0.898363 0
M  V30 3247 H 309.088 -0.546539 -3.47427 0
M  V30 3248 H 308.962 1.20075 -3.57578 0
M  V30 3249 H 311.349 1.39134 -2.60242 0
M  V30 3250 H 311.43 -0.374753 -2.5304 0
M  V30 3251 H 311.074 -0.471826 -5.05704 0
M  V30 3252 H 311.004 1.30777 -5.10103 0
M  V30 3253 H 313.495 0.54218 -3.7399 0
M  V30 3254 H 313.808 0.486299 -7.71268 0
M  V30 3255 H 312.153 0.444278 -6.93579 0
M  V30 3256 H 315.344 0.5881 -4.64391 0
M  V30 3257 H 315.517 0.562846 -6.45551 0
M  V30 3258 N 308.923 1.53595 0.353017 0
M  V30 3259 C 309.853 1.83902 1.43883 0
M  V30 3260 C 310.834 0.693421 1.55324 0
M  V30 3261 O 312.019 0.944452 1.69687 0
M  V30 3262 C 309.149 2.04016 2.8106 0
M  V30 3263 C 308.103 3.19814 2.84434 0
M  V30 3264 C 307.429 3.25244 4.24406 0
M  V30 3265 C 308.729 4.58133 2.50822 0
M  V30 3266 H 310.423 2.74835 1.1877 0
M  V30 3267 H 307.969 1.32242 0.569917 0
M  V30 3268 H 309.922 2.238 3.57059 0
M  V30 3269 H 308.646 1.09804 3.07588 0
M  V30 3270 H 307.305 2.9987 2.10887 0
M  V30 3271 H 306.953 2.28646 4.48029 0
M  V30 3272 H 306.653 4.03054 4.27576 0
M  V30 3273 H 308.177 3.47228 5.0226 0
M  V30 3274 H 309.591 4.77995 3.16534 0
M  V30 3275 H 307.988 5.38276 2.6529 0
M  V30 3276 H 309.058 4.62387 1.46034 0
M  V30 3277 N 310.401 -0.613514 1.45168 0
M  V30 3278 C 311.678 -1.37263 1.39349 0
M  V30 3279 C 312.058 -2.11012 0.0610848 0
M  V30 3280 O 311.406 -2.07502 -0.956825 0
M  V30 3281 C 311.616 -2.3244 2.60332 0
M  V30 3282 C 312.964 -2.9523 3.05163 0
M  V30 3283 O 313.988 -2.42762 2.60663 0
M  V30 3284 O 312.847 -3.90454 3.82372 0
M  V30 3285 H 309.941 -0.615188 0.552696 0
M  V30 3286 H 312.487 -0.637097 1.57287 0
M  V30 3287 H 311.259 -1.77164 3.48896 0
M  V30 3288 H 310.882 -3.13383 2.44698 0
M  V30 3289 N 311.879 -1.3236 -0.855495 0
M  V30 3290 C 313.29 -1.2056 -1.42556 0
M  V30 3291 C 313.641 0.182209 -1.95352 0
M  V30 3292 O 312.766 1.08088 -1.87472 0
M  V30 3293 C 313.361 -2.1826 -2.59129 0
M  V30 3294 C 311.92 -2.10351 -3.12137 0
M  V30 3295 C 311.067 -2.06674 -1.84882 0
M  V30 3296 H 314.018 -1.442 -0.662727 0
M  V30 3297 H 314.039 -1.78064 -3.36264 0
M  V30 3298 H 313.551 -3.19257 -2.20673 0
M  V30 3299 H 311.652 -1.12599 -3.55179 0
M  V30 3300 H 311.765 -3.00135 -3.73438 0
M  V30 3301 H 310.129 -1.51901 -2.04446 0
M  V30 3302 H 310.912 -3.09451 -1.48643 0
M  V30 3303 N 313.357 1.07166 -1.15556 0
M  V30 3304 C 314.582 1.84053 -0.955988 0
M  V30 3305 C 315.007 1.81586 0.490739 0
M  V30 3306 O 314.365 1.21018 1.34997 0
M  V30 3307 C 314.413 3.28957 -1.47714 0
M  V30 3308 O 313.517 4.06795 -0.677593 0
M  V30 3309 H 312.858 0.569842 -0.340847 0
M  V30 3310 H 315.388 1.35178 -1.53584 0
M  V30 3311 H 315.398 3.79788 -1.4908 0
M  V30 3312 H 314.073 3.30068 -2.53037 0
M  V30 3313 H 312.65 3.6561 -0.733721 0
M  V30 3314 N 314.835 0.952656 1.25548 0
M  V30 3315 C 316.112 0.523818 1.88456 0
M  V30 3316 C 316.492 -0.998871 1.85973 0
M  V30 3317 O 315.84 -1.86381 1.3219 0
M  V30 3318 C 316.05 1.0982 3.31271 0
M  V30 3319 C 317.398 1.17385 4.08051 0
M  V30 3320 O 318.422 1.04961 3.40384 0
M  V30 3321 O 317.281 1.36852 5.29088 0
M  V30 3322 H 314.375 0.172485 0.808813 0
M  V30 3323 H 316.921 1.04596 1.33633 0
M  V30 3324 H 315.693 2.1415 3.27499 0
M  V30 3325 H 315.316 0.559191 3.93648 0
M  V30 3326 N 316.313 -1.40141 0.720998 0
M  V30 3327 C 317.276 -2.29058 0.0805834 0
M  V30 3328 C 318.276 -1.45632 -0.681758 0
M  V30 3329 O 319.466 -1.6648 -0.512856 0
M  V30 3330 C 316.598 -3.28925 -0.895593 0
M  V30 3331 H 317.791 -2.87191 0.863793 0
M  V30 3332 H 315.344 -1.48553 0.485975 0
M  V30 3333 H 316.079 -2.75822 -1.70566 0
M  V30 3334 H 315.864 -3.90519 -0.351766 0
M  V30 3335 H 317.354 -3.95494 -1.34069 0
M  V30 3336 N 317.792 -0.46758 -1.50504 0
M  V30 3337 C 319.038 0.0887532 -2.02606 0
M  V30 3338 C 319.371 1.39686 -1.34913 0
M  V30 3339 O 318.646 1.88644 -0.473694 0
M  V30 3340 C 318.929 0.276206 -3.59039 0
M  V30 3341 C 318.782 -1.05267 -4.37309 0
M  V30 3342 C 320.101 1.03235 -4.27821 0
M  V30 3343 H 317.22 0.0307814 -0.736357 0
M  V30 3344 H 319.862 -0.612485 -1.79857 0
M  V30 3345 H 318.012 0.8735 -3.78553 0
M  V30 3346 H 319.684 -1.68628 -4.29374 0
M  V30 3347 H 317.927 -1.65015 -4.01189 0
M  V30 3348 H 318.598 -0.875197 -5.45018 0
M  V30 3349 H 321.074 0.526111 -4.12761 0
M  V30 3350 H 319.95 1.1323 -5.37094 0
M  V30 3351 H 320.211 2.06806 -3.90748 0
M  V30 3352 N 319.27 1.56325 -0.20005 0
M  V30 3353 C 320.517 1.97719 0.437411 0
M  V30 3354 C 320.845 1.08709 1.61284 0
M  V30 3355 O 320.1 0.127261 1.95286 0
M  V30 3356 C 320.399 3.4495 0.935103 0
M  V30 3357 C 320.065 4.5072 -0.12749 0
M  V30 3358 C 318.727 4.79368 -0.419451 0
M  V30 3359 C 321.079 5.14268 -0.847231 0
M  V30 3360 C 318.407 5.68854 -1.43604 0
M  V30 3361 C 320.759 6.04852 -1.85301 0
M  V30 3362 C 319.423 6.31855 -2.15211 0
M  V30 3363 H 318.693 0.723507 0.16006 0
M  V30 3364 H 321.34 1.89166 -0.298056 0
M  V30 3365 H 319.645 3.50599 1.74894 0
M  V30 3366 H 321.342 3.74337 1.43781 0
M  V30 3367 H 317.932 4.28458 0.11023 0
M  V30 3368 H 322.116 4.92222 -0.634901 0
M  V30 3369 H 317.372 5.88047 -1.67364 0
M  V30 3370 H 321.546 6.53152 -2.41591 0
M  V30 3371 H 319.173 7.00994 -2.94129 0
M  V30 3372 N 320.748 -0.0735177 1.57428 0
M  V30 3373 C 321.994 -0.774145 1.87443 0
M  V30 3374 C 322.327 -1.77311 0.792103 0
M  V30 3375 O 321.602 -1.93492 -0.197793 0
M  V30 3376 C 321.885 -1.48367 3.28115 0
M  V30 3377 C 321.738 -0.501227 4.46999 0
M  V30 3378 C 323.057 -2.429 3.66998 0
M  V30 3379 H 320.176 -0.279971 0.681752 0
M  V30 3380 H 322.818 -0.0373616 1.89963 0
M  V30 3381 H 320.968 -2.11171 3.26097 0
M  V30 3382 H 322.64 0.121468 4.6114 0
M  V30 3383 H 320.883 0.183593 4.33411 0
M  V30 3384 H 321.554 -1.03526 5.42205 0
M  V30 3385 H 324.03 -1.90175 3.70098 0
M  V30 3386 H 322.906 -2.89549 4.66318 0
M  V30 3387 H 323.167 -3.27628 2.96837 0
M  V30 3388 N 322.226 -1.5378 -0.344866 0
M  V30 3389 C 323.503 -1.61589 -1.10219 0
M  V30 3390 C 323.883 -0.436316 -2.06542 0
M  V30 3391 O 323.231 0.571543 -2.21237 0
M  V30 3392 C 323.441 -2.97602 -1.82301 0
M  V30 3393 C 324.789 -3.5291 -2.36093 0
M  V30 3394 O 325.813 -2.99768 -1.924 0
M  V30 3395 O 324.672 -4.45859 -3.16026 0
M  V30 3396 H 321.766 -0.653522 -0.506792 0
M  V30 3397 H 324.312 -1.66126 -0.346465 0
M  V30 3398 H 323.084 -3.74893 -1.12121 0
M  V30 3399 H 322.707 -2.9665 -2.64735 0
M  V30 3400 N 323.704 0.605807 -1.45491 0
M  V30 3401 C 324.95 1.36679 -1.49823 0
M  V30 3402 C 325.283 1.93693 -0.140175 0
M  V30 3403 O 324.558 1.75158 0.845581 0
M  V30 3404 C 324.841 2.51337 -2.57879 0
M  V30 3405 C 324.694 1.99508 -4.03134 0
M  V30 3406 C 326.013 3.53463 -2.62205 0
M  V30 3407 H 323.132 0.495617 -0.545466 0
M  V30 3408 H 325.774 0.682732 -1.7731 0
M  V30 3409 H 323.924 3.09691 -2.34571 0
M  V30 3410 H 325.596 1.45789 -4.37656 0
M  V30 3411 H 323.839 1.30496 -4.13707 0
M  V30 3412 H 324.51 2.82169 -4.74431 0
M  V30 3413 H 326.986 3.04953 -2.83095 0
M  V30 3414 H 325.862 4.31178 -3.39672 0
M  V30 3415 H 326.123 4.09197 -1.67363 0
M  V30 3416 N 325.182 1.32811 0.848464 0
M  V30 3417 C 326.431 1.23075 1.59798 0
M  V30 3418 C 326.744 -0.204419 1.94529 0
M  V30 3419 O 327.95 -0.423701 2.68173 0
M  V30 3420 C 326.406 2.15594 2.88179 0
M  V30 3421 C 326.014 3.64228 2.60849 0
M  V30 3422 C 327.758 2.14709 3.66197 0
M  V30 3423 C 325.665 4.48689 3.85269 0
M  V30 3424 H 324.595 0.457091 0.599653 0
M  V30 3425 H 327.246 1.57813 0.936342 0
M  V30 3426 H 325.628 1.73778 3.55833 0
M  V30 3427 H 326.802 4.14424 2.01467 0
M  V30 3428 H 325.117 3.67306 1.96151 0
M  V30 3429 H 327.714 2.75046 4.58534 0
M  V30 3430 H 328.057 1.13966 4.00397 0
M  V30 3431 H 328.59 2.54837 3.05455 0
M  V30 3432 H 325.329 5.5027 3.56207 0
M  V30 3433 H 324.849 4.03241 4.44024 0
M  V30 3434 H 326.528 4.62006 4.52946 0
M  V30 3435 N 326.66 -1.06551 1.16123 0
M  V30 3436 C 327.61 -2.12209 0.833736 0
M  V30 3437 C 328.594 -1.59825 -0.185656 0
M  V30 3438 O 329.786 -1.76994 0.0147906 0
M  V30 3439 C 326.915 -3.41674 0.333697 0
M  V30 3440 C 326.001 -4.00892 1.38372 0
M  V30 3441 N 326.392 -4.34256 2.59337 0
M  V30 3442 C 324.69 -4.28463 1.23836 0
M  V30 3443 C 325.391 -4.81291 3.26701 0
M  V30 3444 N 324.367 -4.80565 2.54083 0
M  V30 3445 H 328.169 -2.35849 1.75364 0
M  V30 3446 H 325.683 -1.24068 1.04789 0
M  V30 3447 H 327.68 -4.16822 0.0806918 0
M  V30 3448 H 326.34 -3.19475 -0.58017 0
M  V30 3449 H 327.351 -4.24687 2.96415 0
M  V30 3450 H 324.028 -4.15721 0.38504 0
M  V30 3451 H 325.418 -5.16332 4.29943 0
M  V30 3452 N 328.138 -0.959301 -1.25041 0
M  V30 3453 C 329.366 -0.633949 -1.96948 0
M  V30 3454 C 329.781 0.794916 -1.7125 0
M  V30 3455 O 329.138 1.53231 -0.991287 0
M  V30 3456 C 329.189 -0.888805 -3.50403 0
M  V30 3457 O 328.91 -2.26149 -3.75218 0
M  V30 3458 C 330.411 -0.576482 -4.39536 0
M  V30 3459 H 327.631 -0.237263 -0.627652 0
M  V30 3460 H 330.175 -1.28495 -1.59089 0
M  V30 3461 H 328.33 -0.284145 -3.86357 0
M  V30 3462 H 328.744 -2.33514 -4.6965 0
M  V30 3463 H 330.218 -0.805314 -5.46094 0
M  V30 3464 H 330.695 0.489075 -4.36468 0
M  V30 3465 H 331.301 -1.16067 -4.09156 0
M  V30 3466 N 329.616 1.39756 -0.72842 0
M  V30 3467 C 330.893 1.94574 -0.200079 0
M  V30 3468 C 331.273 1.66569 1.29684 0
M  V30 3469 O 330.621 0.990326 2.05924 0
M  V30 3470 C 330.831 3.45004 -0.526608 0
M  V30 3471 C 332.179 4.21965 -0.472318 0
M  V30 3472 O 333.203 3.53173 -0.463413 0
M  V30 3473 O 332.062 5.44552 -0.461075 0
M  V30 3474 H 329.156 0.826289 -0.0342851 0
M  V30 3475 H 331.702 1.49293 -0.806829 0
M  V30 3476 H 330.474 3.58796 -1.56144 0
M  V30 3477 H 330.097 3.97449 0.109449 0
M  V30 3478 N 331.094 0.475555 1.50254 0
M  V30 3479 C 332.319 -0.0777042 2.07254 0
M  V30 3480 C 332.744 -1.3235 1.3366 0
M  V30 3481 O 332.102 -1.77152 0.385597 0
M  V30 3482 C 332.15 -0.340169 3.58992 0
M  V30 3483 O 331.254 -1.41982 3.87188 0
M  V30 3484 H 330.595 0.0149556 0.663832 0
M  V30 3485 H 333.125 0.667878 1.93392 0
M  V30 3486 H 333.135 -0.579332 4.03866 0
M  V30 3487 H 331.81 0.570167 4.11973 0
M  V30 3488 H 330.387 -1.16762 3.54148 0
M  V30 3489 N 332.573 -1.56217 0.208337 0
M  V30 3490 C 333.798 -2.02782 -0.435222 0
M  V30 3491 C 334.223 -1.08738 -1.53485 0
M  V30 3492 O 333.581 -0.0731855 -1.81152 0
M  V30 3493 C 333.629 -3.47687 -0.956335 0
M  V30 3494 O 332.733 -3.56773 -2.06849 0
M  V30 3495 H 332.074 -0.656403 -0.100158 0
M  V30 3496 H 334.604 -2.02033 0.3231 0
M  V30 3497 H 334.614 -3.87745 -1.26955 0
M  V30 3498 H 333.289 -4.15624 -0.15143 0
M  V30 3499 H 331.866 -3.28597 -1.76292 0
M  V30 3500 N 334.051 0.0651679 -1.57465 0
M  V30 3501 C 335.462 0.616213 -1.76238 0
M  V30 3502 C 335.813 1.7756 -0.834689 0
M  V30 3503 O 334.938 2.1639 -0.0204156 0
M  V30 3504 C 335.533 1.12462 -3.1959 0
M  V30 3505 C 334.092 1.62147 -3.39684 0
M  V30 3506 C 333.239 0.543739 -2.71917 0
M  V30 3507 H 336.19 -0.161022 -1.57881 0
M  V30 3508 H 336.211 1.99324 -3.24114 0
M  V30 3509 H 335.723 0.280592 -3.87084 0
M  V30 3510 H 333.824 2.48854 -2.77313 0
M  V30 3511 H 333.937 1.69385 -4.48158 0
M  V30 3512 H 332.301 0.990352 -2.34657 0
M  V30 3513 H 333.084 -0.290216 -3.42071 0
M  V30 3514 N 335.529 1.53961 0.336706 0
M  V30 3515 C 336.778 1.70751 1.07363 0
M  V30 3516 C 337.091 0.481061 1.89592 0
M  V30 3517 O 338.297 0.530046 2.66276 0
M  V30 3518 C 336.753 3.01965 1.95818 0
M  V30 3519 C 336.361 4.31971 1.18764 0
M  V30 3520 C 338.105 3.28121 2.69327 0
M  V30 3521 C 336.012 5.54255 2.06289 0
M  V30 3522 H 334.942 0.636292 0.404535 0
M  V30 3523 H 337.593 1.80459 0.332681 0
M  V30 3524 H 335.975 2.86132 2.7376 0
M  V30 3525 H 337.149 4.5853 0.456849 0
M  V30 3526 H 335.464 4.12481 0.569946 0
M  V30 3527 H 338.061 4.16673 3.35094 0
M  V30 3528 H 338.404 2.45426 3.36261 0
M  V30 3529 H 338.937 3.44762 1.98454 0
M  V30 3530 H 335.676 6.39513 1.43885 0
M  V30 3531 H 335.196 5.31935 2.77138 0
M  V30 3532 H 336.875 5.90159 2.65182 0
M  V30 3533 N 337.007 -0.598083 1.45811 0
M  V30 3534 C 338.253 -1.35882 1.50545 0
M  V30 3535 C 338.586 -1.93616 0.150445 0
M  V30 3536 O 337.861 -1.75604 -0.83628 0
M  V30 3537 C 338.144 -2.49966 2.59208 0
M  V30 3538 C 337.997 -1.97367 4.04186 0
M  V30 3539 C 339.316 -3.52068 2.64076 0
M  V30 3540 H 336.435 -0.492717 0.548087 0
M  V30 3541 H 339.077 -0.673319 1.77669 0
M  V30 3542 H 337.227 -3.08443 2.3621 0
M  V30 3543 H 338.899 -1.43466 4.38423 0
M  V30 3544 H 337.142 -1.283 4.14393 0
M  V30 3545 H 337.813 -2.79649 4.75921 0
M  V30 3546 H 340.289 -3.03448 2.84708 0
M  V30 3547 H 339.165 -4.2937 3.41954 0
M  V30 3548 H 339.426 -4.08304 1.69531 0
M  V30 3549 N 338.485 -1.33259 -0.841409 0
M  V30 3550 C 339.896 -1.22066 -1.41269 0
M  V30 3551 C 340.247 0.161479 -1.95534 0
M  V30 3552 O 339.372 1.06094 -1.88608 0
M  V30 3553 C 339.967 -2.20996 -2.568 0
M  V30 3554 C 338.526 -2.13649 -3.09888 0
M  V30 3555 C 337.673 -2.08623 -1.82679 0
M  V30 3556 H 340.624 -1.44895 -0.647395 0
M  V30 3557 H 340.645 -1.81621 -3.34356 0
M  V30 3558 H 340.157 -3.2158 -2.17274 0
M  V30 3559 H 338.258 -1.16359 -3.53965 0
M  V30 3560 H 338.371 -3.04079 -3.70234 0
M  V30 3561 H 336.735 -1.54061 -2.02824 0
M  V30 3562 H 337.518 -3.1101 -1.45353 0
M  V30 3563 N 339.963 1.05934 -1.16686 0
M  V30 3564 C 341.188 1.83029 -0.975455 0
M  V30 3565 C 341.613 1.82096 0.471452 0
M  V30 3566 O 340.971 1.22443 1.33706 0
M  V30 3567 C 341.019 3.27372 -1.51195 0
M  V30 3568 O 340.123 4.06054 -0.720701 0
M  V30 3569 H 339.464 0.566194 -0.346872 0
M  V30 3570 H 341.994 1.33541 -1.55009 0
M  V30 3571 H 342.004 3.78186 -1.53099 0
M  V30 3572 H 340.679 3.27366 -2.56523 0
M  V30 3573 H 339.256 3.64812 -0.772458 0
M  V30 3574 N 341.441 0.965919 1.2453 0
M  V30 3575 C 342.371 0.513476 2.27784 0
M  V30 3576 C 343.352 -0.445974 1.6415 0
M  V30 3577 O 344.537 -0.342485 1.91156 0
M  V30 3578 C 341.667 -0.198839 3.4673 0
M  V30 3579 C 340.621 0.676456 4.2262 0
M  V30 3580 C 339.947 -0.167248 5.34438 0
M  V30 3581 C 341.247 1.96017 4.84123 0
M  V30 3582 H 342.941 1.3765 2.65881 0
M  V30 3583 H 340.487 0.663321 1.27813 0
M  V30 3584 H 342.44 -0.526567 4.18097 0
M  V30 3585 H 341.164 -1.0962 3.07654 0
M  V30 3586 H 339.823 0.98743 3.53052 0
M  V30 3587 H 339.471 -1.0647 4.91603 0
M  V30 3588 H 339.171 0.415181 5.86131 0
M  V30 3589 H 340.695 -0.489688 6.08633 0
M  V30 3590 H 342.109 1.69814 5.47573 0
M  V30 3591 H 340.506 2.48918 5.4604 0
M  V30 3592 H 341.576 2.65622 4.05676 0
M  V30 3593 N 342.919 -1.39368 0.735821 0
M  V30 3594 C 344.167 -2.00101 0.283562 0
M  V30 3595 C 344.488 -1.5868 -1.13338 0
M  V30 3596 O 343.758 -0.835423 -1.77193 0
M  V30 3597 H 342.338 -0.740024 0.101851 0
M  V30 3598 H 345 -1.70404 0.945962 0
M  V30 3599 H 344.096 -3.10323 0.332604 0
M  V30 3600 N 344.397 -0.483516 -1.5 0
M  V30 3601 C 345.644 0.0671597 -2.02389 0
M  V30 3602 C 345.972 1.38597 -1.36459 0
M  V30 3603 O 345.227 1.89634 -0.483458 0
M  V30 3604 C 345.526 0.286226 -3.56252 0
M  V30 3605 C 345.192 -0.952416 -4.40726 0
M  V30 3606 C 343.854 -1.29199 -4.63531 0
M  V30 3607 C 346.206 -1.77655 -4.89988 0
M  V30 3608 C 343.534 -2.45553 -5.32842 0
M  V30 3609 C 345.886 -2.93147 -5.60578 0
M  V30 3610 C 344.55 -3.27505 -5.81633 0
M  V30 3611 H 343.82 0.0245755 -0.740592 0
M  V30 3612 H 346.467 -0.640124 -1.80485 0
M  V30 3613 H 344.772 1.07587 -3.76739 0
M  V30 3614 H 346.469 0.726473 -3.94365 0
M  V30 3615 H 343.059 -0.677881 -4.23205 0
M  V30 3616 H 347.243 -1.52737 -4.72213 0
M  V30 3617 H 342.499 -2.72431 -5.47349 0
M  V30 3618 H 346.673 -3.57344 -5.97727 0
M  V30 3619 H 344.3 -4.1777 -6.35116 0
M  V30 3620 N 345.875 1.56104 -0.216619 0
M  V30 3621 C 347.123 1.97781 0.415593 0
M  V30 3622 C 347.444 1.10536 1.60645 0
M  V30 3623 O 346.714 0.181303 1.95059 0
M  V30 3624 H 345.294 0.730415 0.156534 0
M  V30 3625 H 347.956 1.92445 -0.308366 0
M  V30 3626 H 347.052 3.03072 0.74525 0
M  V30 3627 N 347.353 -0.0568162 1.57498 0
M  V30 3628 C 348.286 -1.09817 2.00039 0
M  V30 3629 C 349.264 -1.3674 0.879819 0
M  V30 3630 O 350.448 -1.49863 1.14338 0
M  V30 3631 C 347.575 -2.43924 2.34986 0
M  V30 3632 C 346.621 -2.33039 3.57204 0
M  V30 3633 S 347.454 -1.7102 5.07457 0
M  V30 3634 C 348.61 -3.06674 5.45621 0
M  V30 3635 H 348.843 -0.735701 2.88053 0
M  V30 3636 H 346.376 -0.265871 1.52094 0
M  V30 3637 H 348.334 -3.2106 2.55795 0
M  V30 3638 H 346.995 -2.77327 1.47474 0
M  V30 3639 H 346.188 -3.31973 3.79223 0
M  V30 3640 H 345.79 -1.64043 3.36104 0
M  V30 3641 H 348.082 -4.03 5.44608 0
M  V30 3642 H 349.025 -2.8942 6.46252 0
M  V30 3643 H 349.433 -3.07969 4.73091 0
M  V30 3644 N 348.832 -1.54138 -0.328536 0
M  V30 3645 C 350.057 -1.76378 -1.09112 0
M  V30 3646 C 350.482 -0.508596 -1.81094 0
M  V30 3647 O 349.84 0.539598 -1.73084 0
M  V30 3648 C 349.888 -2.95358 -2.06872 0
M  V30 3649 O 348.992 -2.66556 -3.14677 0
M  V30 3650 H 348.333 -0.584614 -0.314838 0
M  V30 3651 H 350.863 -2.01146 -0.374348 0
M  V30 3652 H 350.873 -3.22566 -2.4983 0
M  V30 3653 H 349.548 -3.86385 -1.5388 0
M  V30 3654 H 348.125 -2.50282 -2.7643 0
M  V30 3655 N 350.31 0.590341 -1.46126 0
M  V30 3656 C 351.242 1.71427 -1.52136 0
M  V30 3657 C 352.255 1.57542 -0.41042 0
M  V30 3658 O 353.444 1.65106 -0.678389 0
M  V30 3659 C 350.544 3.09605 -1.37834 0
M  V30 3660 C 349.717 3.49566 -2.62912 0
M  V30 3661 C 348.776 4.66773 -2.42918 0
M  V30 3662 O 347.802 4.73019 -3.1661 0
M  V30 3663 N 349.004 5.61161 -1.4859 0
M  V30 3664 H 351.769 1.66728 -2.49042 0
M  V30 3665 H 349.33 0.776113 -1.42085 0
M  V30 3666 H 351.322 3.85796 -1.22243 0
M  V30 3667 H 349.892 3.08714 -0.491393 0
M  V30 3668 H 349.112 2.63158 -2.93499 0
M  V30 3669 H 350.4 3.73028 -3.46017 0
M  V30 3670 H 349.798 5.58844 -0.87808 0
M  V30 3671 H 348.355 6.36814 -1.38965 0
M  V30 3672 N 351.788 1.33704 0.83433 0
M  V30 3673 C 352.735 1.24335 1.94447 0
M  V30 3674 C 353.705 0.120991 1.65659 0
M  V30 3675 O 354.89 0.300035 1.88426 0
M  V30 3676 C 352.03 0.993124 3.30501 0
M  V30 3677 C 351.143 2.20217 3.71657 0
M  V30 3678 C 350.278 1.88572 4.96602 0
M  V30 3679 C 349.317 3.05683 5.30306 0
M  V30 3680 N 348.454 2.73997 6.46429 0
M  V30 3681 H 353.294 2.1928 2.01792 0
M  V30 3682 H 350.831 1.09035 0.987404 0
M  V30 3683 H 352.789 0.828467 4.08892 0
M  V30 3684 H 351.419 0.0803902 3.227 0
M  V30 3685 H 350.471 2.47642 2.88752 0
M  V30 3686 H 351.783 3.07752 3.92543 0
M  V30 3687 H 350.937 1.68776 5.82752 0
M  V30 3688 H 349.676 0.982799 4.77695 0
M  V30 3689 H 348.681 3.26088 4.42659 0
M  V30 3690 H 349.906 3.96737 5.51159 0
M  V30 3691 H 347.852 1.86268 6.28999 0
M  V30 3692 H 347.769 3.55064 6.67432 0
M  V30 3693 H 349.037 2.57679 7.35678 0
M  V30 3694 N 353.266 -1.05314 1.17247 0
M  V30 3695 C 354.512 -1.78557 0.961513 0
M  V30 3696 C 354.845 -1.87419 -0.508697 0
M  V30 3697 O 354.12 -1.37307 -1.37757 0
M  V30 3698 C 354.403 -3.22514 1.60176 0
M  V30 3699 C 354.256 -3.21673 3.14399 0
M  V30 3700 C 355.575 -4.20318 1.30463 0
M  V30 3701 H 352.694 -0.6482 0.350723 0
M  V30 3702 H 355.336 -1.23102 1.44727 0
M  V30 3703 H 353.486 -3.69867 1.18871 0
M  V30 3704 H 355.158 -2.82405 3.64753 0
M  V30 3705 H 353.401 -2.60048 3.47214 0
M  V30 3706 H 354.072 -4.23271 3.54324 0
M  V30 3707 H 356.548 -3.81454 1.66229 0
M  V30 3708 H 355.424 -5.19289 1.77848 0
M  V30 3709 H 355.685 -4.41526 0.22521 0
M  V30 3710 N 354.744 -0.972509 -1.24016 0
M  V30 3711 C 355.992 -0.635776 -1.91839 0
M  V30 3712 C 356.313 0.832312 -1.76345 0
M  V30 3713 O 355.583 1.5946 -1.13795 0
M  V30 3714 H 354.163 -0.232157 -0.710009 0
M  V30 3715 H 356.825 -1.23462 -1.50809 0
M  V30 3716 H 355.921 -0.880545 -2.99421 0
M  V30 3717 N 356.222 1.38976 -0.743202 0
M  V30 3718 C 357.172 2.27843 -0.084513 0
M  V30 3719 C 358.156 1.44677 0.704094 0
M  V30 3720 O 359.348 1.67511 0.571755 0
M  V30 3721 C 356.477 3.33466 0.815781 0
M  V30 3722 C 355.563 4.24095 0.0208844 0
M  V30 3723 N 355.954 4.95609 -1.0102 0
M  V30 3724 C 354.252 4.45303 0.249293 0
M  V30 3725 C 354.953 5.62287 -1.49024 0
M  V30 3726 N 353.929 5.37571 -0.807377 0
M  V30 3727 H 357.731 2.80593 -0.87436 0
M  V30 3728 H 355.245 1.51755 -0.578283 0
M  V30 3729 H 357.242 3.96008 1.30321 0
M  V30 3730 H 355.902 2.82276 1.6047 0
M  V30 3731 H 356.913 4.98849 -1.39176 0
M  V30 3732 H 353.59 4.0504 1.01237 0
M  V30 3733 H 354.98 6.29519 -2.34853 0
M  V30 3734 N 357.7 0.491464 1.49741 0
M  V30 3735 C 358.63 -0.28154 2.31796 0
M  V30 3736 C 359.611 -0.971473 1.3963 0
M  V30 3737 O 360.796 -0.964719 1.68543 0
M  V30 3738 C 357.926 -1.35203 3.19902 0
M  V30 3739 C 356.88 -0.782529 4.20786 0
M  V30 3740 C 356.206 -1.95283 4.97764 0
M  V30 3741 C 357.506 0.21999 5.21837 0
M  V30 3742 H 359.2 0.403355 2.96671 0
M  V30 3743 H 356.746 0.195425 1.42668 0
M  V30 3744 H 358.699 -1.90045 3.76113 0
M  V30 3745 H 357.423 -2.06598 2.52953 0
M  V30 3746 H 356.082 -0.255928 3.65706 0
M  V30 3747 H 355.73 -2.65423 4.2727 0
M  V30 3748 H 355.43 -1.57789 5.66018 0
M  V30 3749 H 356.954 -2.50577 5.56816 0
M  V30 3750 H 358.368 -0.23996 5.72798 0
M  V30 3751 H 356.765 0.51026 5.97927 0
M  V30 3752 H 357.835 1.13911 4.7133 0
M  V30 3753 N 359.178 -1.55987 0.224894 0
M  V30 3754 C 360.455 -1.90232 -0.455083 0
M  V30 3755 C 360.835 -1.14269 -1.77499 0
M  V30 3756 O 360.183 -0.253079 -2.27094 0
M  V30 3757 C 360.393 -3.42993 -0.644758 0
M  V30 3758 C 361.741 -4.13821 -0.950669 0
M  V30 3759 O 362.765 -3.4861 -0.731423 0
M  V30 3760 O 361.624 -5.29128 -1.36695 0
M  V30 3761 H 358.718 -0.79108 -0.241084 0
M  V30 3762 H 361.264 -1.67581 0.267327 0
M  V30 3763 H 360.036 -3.90252 0.28613 0
M  V30 3764 H 359.659 -3.71434 -1.41853 0
M  V30 3765 N 360.656 0.0484629 -1.57525 0
M  V30 3766 C 361.903 0.743125 -1.88372 0
M  V30 3767 C 362.231 1.76383 -0.819715 0
M  V30 3768 O 361.486 1.94855 0.181659 0
M  V30 3769 C 361.785 1.46632 -3.25935 0
M  V30 3770 C 361.451 0.583427 -4.4711 0
M  V30 3771 C 360.113 0.340191 -4.79996 0
M  V30 3772 C 362.465 -0.0273345 -5.21193 0
M  V30 3773 C 359.793 -0.522903 -5.84365 0
M  V30 3774 C 362.145 -0.878017 -6.26477 0
M  V30 3775 C 360.809 -1.1309 -6.5785 0
M  V30 3776 H 360.079 0.271929 -0.689301 0
M  V30 3777 H 362.726 0.00336166 -1.915 0
M  V30 3778 H 361.031 2.2789 -3.18706 0
M  V30 3779 H 362.728 2.00902 -3.47044 0
M  V30 3780 H 359.318 0.783151 -4.21384 0
M  V30 3781 H 363.502 0.147654 -4.9608 0
M  V30 3782 H 358.758 -0.727335 -6.07058 0
M  V30 3783 H 362.932 -1.35789 -6.83033 0
M  V30 3784 H 360.559 -1.80144 -7.38547 0
M  V30 3785 N 362.134 1.5431 0.320358 0
M  V30 3786 C 363.381 1.72668 1.05792 0
M  V30 3787 C 363.709 0.502084 1.87908 0
M  V30 3788 O 362.964 -0.516149 1.88771 0
M  V30 3789 C 363.263 2.95639 2.00828 0
M  V30 3790 C 362.929 4.30265 1.34843 0
M  V30 3791 C 361.591 4.66865 1.16578 0
M  V30 3792 C 363.943 5.13801 0.875095 0
M  V30 3793 C 361.271 5.84597 0.496336 0
M  V30 3794 C 363.623 6.32219 0.219463 0
M  V30 3795 C 362.287 6.67495 0.0246915 0
M  V30 3796 H 361.557 0.631837 0.387121 0
M  V30 3797 H 364.204 1.88552 0.334735 0
M  V30 3798 H 362.509 2.74456 2.79609 0
M  V30 3799 H 364.206 3.07038 2.57932 0
M  V30 3800 H 360.796 4.01472 1.50061 0
M  V30 3801 H 364.98 4.86039 1.00398 0
M  V30 3802 H 360.236 6.10486 0.334264 0
M  V30 3803 H 364.41 6.96227 -0.155291 0
M  V30 3804 H 362.037 7.5858 -0.496065 0
M  V30 3805 N 363.613 -0.582584 1.46437 0
M  V30 3806 C 365.024 -1.1647 1.45916 0
M  V30 3807 C 365.375 -1.95177 0.200077 0
M  V30 3808 O 364.5 -2.04874 -0.696819 0
M  V30 3809 C 365.095 -2.11885 2.64367 0
M  V30 3810 C 363.654 -2.65421 2.66887 0
M  V30 3811 C 362.801 -1.41294 2.38603 0
M  V30 3812 H 365.752 -0.370514 1.54314 0
M  V30 3813 H 365.773 -2.9535 2.39892 0
M  V30 3814 H 365.285 -1.54573 3.5599 0
M  V30 3815 H 363.386 -3.26602 1.79338 0
M  V30 3816 H 363.499 -3.08147 3.66854 0
M  V30 3817 H 361.863 -1.71109 1.88663 0
M  V30 3818 H 362.646 -0.858125 3.32402 0
M  V30 3819 N 365.091 -1.34144 -0.827227 0
M  V30 3820 C 366.039 -1.25364 -1.95925 0
M  V30 3821 C 367.033 -0.152608 -1.68711 0
M  V30 3822 O 368.239 -0.317311 -1.77181 0
M  V30 3823 H 364.614 -0.389342 -0.643364 0
M  V30 3824 H 366.585 -2.21045 -2.00454 0
M  V30 3825 C 365.334 -1.02158 -3.32354 0
M  V30 3826 H 364.657 -1.86111 -3.5384 0
M  V30 3827 H 366.097 -1.00048 -4.12027 0
M  V30 3828 C 364.556 0.275244 -3.35774 0
M  V30 3829 O 365.086 1.27806 -3.80826 0
M  V30 3830 N 363.292 0.306853 -2.88975 0
M  V30 3831 H 362.839 -0.509777 -2.52506 0
M  V30 3832 H 362.797 1.17432 -2.91646 0
M  V30 3833 N 366.569 1.04691 -1.17803 0
M  V30 3834 C 367.817 1.7743 -0.967617 0
M  V30 3835 C 368.138 1.88359 0.504574 0
M  V30 3836 O 367.408 1.40402 1.36617 0
M  V30 3837 H 365.988 0.657242 -0.355024 0
M  V30 3838 H 368.65 1.2638 -1.48371 0
M  V30 3839 H 367.746 2.78924 -1.40027 0
M  V30 3840 N 368.047 0.979072 1.23499 0
M  V30 3841 C 369.295 0.645941 1.91499 0
M  V30 3842 C 369.616 -0.822948 1.76784 0
M  V30 3843 O 368.886 -1.58854 1.14639 0
M  V30 3844 H 367.466 0.235919 0.708767 0
M  V30 3845 H 370.128 1.2426 1.50152 0
M  V30 3846 H 369.224 0.896411 2.9895 0
M  V30 3847 N 369.525 -1.3858 0.750561 0
M  V30 3848 C 370.472 -2.30483 0.120835 0
M  V30 3849 C 371.442 -1.50022 -0.712923 0
M  V30 3850 O 372.627 -1.78662 -0.669676 0
M  V30 3851 C 369.767 -3.36431 -0.768666 0
M  V30 3852 C 368.88 -4.31927 0.0793922 0
M  V30 3853 C 368.015 -5.24944 -0.81283 0
M  V30 3854 C 367.054 -6.12088 0.0390447 0
M  V30 3855 N 366.191 -6.97412 -0.809969 0
M  V30 3856 H 371.031 -2.83761 0.91015 0
M  V30 3857 H 368.568 -1.39707 0.460463 0
M  V30 3858 H 370.526 -3.96462 -1.29898 0
M  V30 3859 H 369.156 -2.8457 -1.5238 0
M  V30 3860 H 368.208 -3.73382 0.727303 0
M  V30 3861 H 369.52 -4.93319 0.737401 0
M  V30 3862 H 368.674 -5.90078 -1.41042 0
M  V30 3863 H 367.413 -4.63911 -1.50458 0
M  V30 3864 H 366.418 -5.45952 0.649328 0
M  V30 3865 H 367.643 -6.75189 0.727809 0
M  V30 3866 H 365.589 -6.38931 -1.48672 0
M  V30 3867 H 365.506 -7.55712 -0.208789 0
M  V30 3868 H 366.774 -7.66959 -1.39263 0
M  V30 3869 N 371.003 -0.499398 -1.49478 0
M  V30 3870 C 371.913 0.284489 -2.32869 0
M  V30 3871 C 372.929 0.968885 -1.44529 0
M  V30 3872 O 374.105 0.95062 -1.77553 0
M  V30 3873 C 371.17 1.33594 -3.19928 0
M  V30 3874 C 370.231 0.665149 -4.24116 0
M  V30 3875 C 369.464 1.6665 -5.07014 0
M  V30 3876 O 369.687 2.89618 -4.91404 0
M  V30 3877 O 368.621 1.22271 -5.8935 0
M  V30 3878 H 372.447 -0.39802 -3.01081 0
M  V30 3879 H 370.032 -0.260758 -1.47107 0
M  V30 3880 H 371.914 1.94431 -3.73864 0
M  V30 3881 H 370.589 2.0014 -2.54412 0
M  V30 3882 H 369.496 0.0170769 -3.74096 0
M  V30 3883 H 370.829 0.0421555 -4.92182 0
M  V30 3884 N 372.481 1.55866 -0.233164 0
M  V30 3885 C 373.414 2.16794 0.712442 0
M  V30 3886 C 374.392 1.1158 1.18273 0
M  V30 3887 O 375.576 1.39897 1.26337 0
M  V30 3888 C 372.703 2.75757 1.96661 0
M  V30 3889 C 371.749 3.93902 1.63533 0
M  V30 3890 S 372.582 5.30223 0.74995 0
M  V30 3891 C 373.738 5.92631 2.01343 0
M  V30 3892 H 373.971 2.96662 0.194617 0
M  V30 3893 H 371.504 1.5439 -0.0177425 0
M  V30 3894 H 373.462 3.10367 2.68668 0
M  V30 3895 H 372.123 1.9586 2.45556 0
M  V30 3896 H 371.316 4.33702 2.56747 0
M  V30 3897 H 370.918 3.60499 0.995804 0
M  V30 3898 H 373.21 6.09312 2.96219 0
M  V30 3899 H 374.153 6.88388 1.65915 0
M  V30 3900 H 374.561 5.21571 2.15925 0
M  V30 3901 N 373.959 -0.0401083 1.57549 0
M  V30 3902 C 375.37 -0.588097 1.77196 0
M  V30 3903 C 375.721 -1.76209 0.862832 0
M  V30 3904 O 374.846 -2.16331 0.0548389 0
M  V30 3905 C 375.441 -1.07363 3.21339 0
M  V30 3906 C 374 -1.56723 3.42221 0
M  V30 3907 C 373.147 -0.50041 2.72747 0
M  V30 3908 H 376.098 0.186119 1.57605 0
M  V30 3909 H 376.119 -1.94143 3.27244 0
M  V30 3910 H 375.631 -0.218975 3.87482 0
M  V30 3911 H 373.732 -2.4441 2.81237 0
M  V30 3912 H 373.845 -1.62234 4.50796 0
M  V30 3913 H 372.209 -0.952894 2.36203 0
M  V30 3914 H 372.992 0.344599 3.41566 0
M  V30 3915 N 375.437 -1.54477 -0.31217 0
M  V30 3916 C 376.685 -1.72884 -1.04668 0
M  V30 3917 C 377.006 -0.511477 -1.88173 0
M  V30 3918 O 376.276 0.474407 -1.90069 0
M  V30 3919 H 374.856 -0.637461 -0.389425 0
M  V30 3920 H 377.518 -1.91807 -0.345852 0
M  V30 3921 H 376.614 -2.61334 -1.70619 0
M  V30 3922 N 376.915 0.57481 -1.46744 0
M  V30 3923 C 378.155 1.34369 -1.54027 0
M  V30 3924 C 378.519 1.91051 -0.190642 0
M  V30 3925 O 379.72 2.68444 -0.138255 0
M  V30 3926 C 377.991 2.43706 -2.61423 0
M  V30 3927 S 379.55 3.30915 -2.88167 0
M  V30 3928 H 376.368 0.45768 -0.544105 0
M  V30 3929 H 378.97 0.659959 -1.84024 0
M  V30 3930 H 377.674 2.0047 -3.58106 0
M  V30 3931 H 377.205 3.16842 -2.33184 0
M  V30 3932 H 379.22 4.42742 -2.24039 0
M  V30 3933 N 378.394 1.34581 0.820102 0
M  V30 3934 C 379.341 1.2639 1.93117 0
M  V30 3935 C 380.311 0.138554 1.65521 0
M  V30 3936 O 381.496 0.320004 1.88097 0
M  V30 3937 C 378.636 1.02812 3.29429 0
M  V30 3938 C 377.749 2.24146 3.693 0
M  V30 3939 C 376.884 1.93829 4.94574 0
M  V30 3940 C 375.923 3.1129 5.27034 0
M  V30 3941 N 375.06 2.80838 6.43486 0
M  V30 3942 H 379.9 2.21408 1.99455 0
M  V30 3943 H 377.437 1.10077 0.975784 0
M  V30 3944 H 379.395 0.871788 4.0799 0
M  V30 3945 H 378.025 0.114612 3.22596 0
M  V30 3946 H 377.077 2.50691 2.86109 0
M  V30 3947 H 378.389 3.11899 3.89257 0
M  V30 3948 H 377.543 1.74948 5.80929 0
M  V30 3949 H 376.282 1.03341 4.76626 0
M  V30 3950 H 375.287 3.30764 4.39175 0
M  V30 3951 H 376.512 4.02561 5.4692 0
M  V30 3952 H 374.458 1.92929 6.26988 0
M  V30 3953 H 374.375 3.62123 6.63629 0
M  V30 3954 H 375.643 2.65467 7.32903 0
M  V30 3955 N 379.872 -1.04064 1.18357 0
M  V30 3956 C 380.819 -2.12077 0.910603 0
M  V30 3957 C 381.789 -1.65421 -0.15 0
M  V30 3958 O 382.974 -1.90797 -0.0103614 0
M  V30 3959 C 380.114 -3.42252 0.442472 0
M  V30 3960 C 379.227 -4.0252 1.5685 0
M  V30 3961 C 378.362 -5.20657 1.05309 0
M  V30 3962 C 377.401 -5.72955 2.1538 0
M  V30 3963 N 376.538 -6.8238 1.65233 0
M  V30 3964 H 381.378 -2.34764 1.83548 0
M  V30 3965 H 378.915 -1.15157 0.915279 0
M  V30 3966 H 380.873 -4.16921 0.152534 0
M  V30 3967 H 379.503 -3.19712 -0.445428 0
M  V30 3968 H 378.555 -3.25178 1.97391 0
M  V30 3969 H 379.867 -4.37362 2.39824 0
M  V30 3970 H 379.021 -6.0244 0.717677 0
M  V30 3971 H 377.76 -4.87318 0.19293 0
M  V30 3972 H 376.765 -4.89793 2.49766 0
M  V30 3973 H 377.99 -6.08337 3.01832 0
M  V30 3974 H 375.936 -6.50917 0.815064 0
M  V30 3975 H 375.853 -7.16286 2.41805 0
M  V30 3976 H 377.121 -7.67788 1.34619 0
M  V30 3977 N 381.35 -0.985608 -1.22978 0
M  V30 3978 C 382.298 -0.522631 -2.26652 0
M  V30 3979 C 383.292 0.422998 -1.64034 0
M  V30 3980 O 384.498 0.296319 -1.77544 0
M  V30 3981 H 380.873 -0.150597 -0.736766 0
M  V30 3982 H 382.844 -1.40863 -2.63059 0
M  V30 3983 C 381.593 0.154238 -3.47358 0
M  V30 3984 H 380.916 -0.564329 -3.95797 0
M  V30 3985 H 382.356 0.441744 -4.21693 0
M  V30 3986 C 380.815 1.38719 -3.07016 0
M  V30 3987 O 381.345 2.48307 -3.15764 0
M  V30 3988 N 379.551 1.25975 -2.61875 0
M  V30 3989 H 379.098 0.368068 -2.54957 0
M  V30 3990 H 379.056 2.08578 -2.3525 0
M  V30 3991 N 382.828 1.3818 -0.7579 0
M  V30 3992 C 384.074 2.00316 -0.316453 0
M  V30 3993 C 384.407 1.60026 1.10025 0
M  V30 3994 O 383.682 0.839835 1.75434 0
M  V30 3995 C 383.965 3.57349 -0.444245 0
M  V30 3996 C 383.818 4.07591 -1.90236 0
M  V30 3997 C 385.137 4.3981 0.1598 0
M  V30 3998 H 382.256 0.727741 -0.116459 0
M  V30 3999 H 384.898 1.6406 -0.958352 0
M  V30 4000 H 383.048 3.88365 0.102233 0
M  V30 4001 H 384.72 3.87199 -2.50748 0
M  V30 4002 H 382.963 3.60297 -2.41595 0
M  V30 4003 H 383.634 5.16677 -1.94291 0
M  V30 4004 H 386.11 4.14971 -0.306314 0
M  V30 4005 H 384.986 5.48885 0.0401675 0
M  V30 4006 H 385.247 4.24102 1.24859 0
M  V30 4007 N 384.306 0.507319 1.49211 0
M  V30 4008 C 385.236 -0.256939 2.32082 0
M  V30 4009 C 386.217 -0.956609 1.40652 0
M  V30 4010 O 387.402 -0.946788 1.69557 0
M  V30 4011 C 384.532 -1.31802 3.21318 0
M  V30 4012 C 383.486 -0.737855 4.21592 0
M  V30 4013 C 382.812 -1.89992 4.99807 0
M  V30 4014 C 384.112 0.275325 5.21574 0
M  V30 4015 H 385.806 0.434798 2.96226 0
M  V30 4016 H 383.352 0.210546 1.42452 0
M  V30 4017 H 385.305 -1.86045 3.78107 0
M  V30 4018 H 384.029 -2.03903 2.5513 0
M  V30 4019 H 382.688 -0.217126 3.65956 0
M  V30 4020 H 382.336 -2.60877 4.30061 0
M  V30 4021 H 382.036 -1.51777 5.6766 0
M  V30 4022 H 383.56 -2.44657 5.59442 0
M  V30 4023 H 384.974 -0.179193 5.7302 0
M  V30 4024 H 383.371 0.573649 5.97352 0
M  V30 4025 H 384.441 1.18903 4.70096 0
M  V30 4026 N 385.784 -1.5574 0.241426 0
M  V30 4027 C 387.009 -2.0366 -0.392111 0
M  V30 4028 C 387.434 -1.11969 -1.51144 0
M  V30 4029 O 386.792 -0.111594 -1.80956 0
M  V30 4030 C 386.84 -3.49638 -0.882371 0
M  V30 4031 O 385.944 -3.6108 -1.99235 0
M  V30 4032 H 385.285 -0.658379 -0.0862122 0
M  V30 4033 H 387.815 -2.01302 0.365881 0
M  V30 4034 H 387.825 -3.90351 -1.18702 0
M  V30 4035 H 386.5 -4.15852 -0.0632361 0
M  V30 4036 H 385.077 -3.32262 -1.69282 0
M  V30 4037 N 387.262 0.0317525 -1.57568 0
M  V30 4038 C 388.49 0.734949 -1.93407 0
M  V30 4039 C 388.905 1.69036 -0.84096 0
M  V30 4040 O 388.262 1.81582 0.182836 0
M  V30 4041 C 388.313 1.49432 -3.29169 0
M  V30 4042 O 388.034 0.577261 -4.3428 0
M  V30 4043 C 389.535 2.29492 -3.79273 0
M  V30 4044 H 386.755 0.206706 -0.638368 0
M  V30 4045 H 389.299 -0.00992046 -2.04498 0
M  V30 4046 H 387.454 2.1911 -3.19483 0
M  V30 4047 H 387.868 1.10952 -5.1263 0
M  V30 4048 H 389.342 2.78172 -4.76785 0
M  V30 4049 H 389.819 3.10794 -3.10328 0
M  V30 4050 H 390.425 1.64894 -3.92033 0
M  V30 4051 N 388.74 1.54641 0.303973 0
M  V30 4052 C 389.989 1.7299 1.03717 0
M  V30 4053 C 390.302 0.521168 1.88529 0
M  V30 4054 O 391.508 0.586408 2.65092 0
M  V30 4055 C 389.964 3.06051 1.89369 0
M  V30 4056 C 389.572 4.34393 1.09574 0
M  V30 4057 C 391.316 3.3376 2.62306 0
M  V30 4058 C 389.223 5.58506 1.94486 0
M  V30 4059 H 388.153 0.64473 0.390947 0
M  V30 4060 H 390.804 1.81124 0.294328 0
M  V30 4061 H 389.186 2.91874 2.67629 0
M  V30 4062 H 390.36 4.59396 0.359485 0
M  V30 4063 H 388.675 4.13597 0.482324 0
M  V30 4064 H 391.272 4.23687 3.26181 0
M  V30 4065 H 391.615 2.52503 3.3098 0
M  V30 4066 H 392.148 3.48894 1.91097 0
M  V30 4067 H 388.887 6.42422 1.30287 0
M  V30 4068 H 388.407 5.37694 2.65792 0
M  V30 4069 H 390.086 5.95651 2.52605 0
M  V30 4070 N 390.218 -0.567019 1.47046 0
M  V30 4071 C 391.446 -1.35027 1.56765 0
M  V30 4072 C 391.861 -1.8758 0.214316 0
M  V30 4073 O 391.218 -1.64471 -0.790919 0
M  V30 4074 C 391.269 -2.52698 2.58507 0
M  V30 4075 O 390.99 -2.0232 3.88585 0
M  V30 4076 C 392.491 -3.45043 2.78316 0
M  V30 4077 H 389.711 -0.41195 0.529658 0
M  V30 4078 H 392.255 -0.687832 1.92585 0
M  V30 4079 H 390.41 -3.149 2.25648 0
M  V30 4080 H 390.824 -2.79068 4.44096 0
M  V30 4081 H 392.298 -4.2405 3.53391 0
M  V30 4082 H 392.775 -3.97971 1.85784 0
M  V30 4083 H 393.381 -2.88665 3.12334 0
M  V30 4084 N 391.696 -1.35014 -0.812953 0
M  V30 4085 C 392.973 -1.18502 -1.55617 0
M  V30 4086 C 393.353 0.238421 -2.09749 0
M  V30 4087 O 392.701 1.2411 -1.91857 0
M  V30 4088 C 392.911 -2.24783 -2.66971 0
M  V30 4089 C 394.259 -2.60268 -3.35478 0
M  V30 4090 O 395.283 -2.23648 -2.77236 0
M  V30 4091 O 394.142 -3.2321 -4.40678 0
M  V30 4092 H 391.236 -0.459984 -0.687272 0
M  V30 4093 H 393.782 -1.46677 -0.853464 0
M  V30 4094 H 392.554 -3.20284 -2.24798 0
M  V30 4095 H 392.177 -1.97841 -3.44884 0
M  V30 4096 N 393.175 1.03435 -1.18907 0
M  V30 4097 C 394.424 1.76143 -0.982669 0
M  V30 4098 C 394.737 1.89416 0.487953 0
M  V30 4099 O 395.943 2.59041 0.813036 0
M  V30 4100 C 394.399 3.16722 -1.70924 0
M  V30 4101 C 394.007 3.11522 -3.21959 0
M  V30 4102 C 395.751 3.93764 -1.58588 0
M  V30 4103 C 393.658 4.46999 -3.87228 0
M  V30 4104 H 392.588 0.660292 -0.364047 0
M  V30 4105 H 395.239 1.158 -1.42347 0
M  V30 4106 H 393.621 3.775 -1.19623 0
M  V30 4107 H 394.795 2.60158 -3.80335 0
M  V30 4108 H 393.11 2.47978 -3.34508 0
M  V30 4109 H 395.707 4.93963 -2.04707 0
M  V30 4110 H 396.05 4.12794 -0.539142 0
M  V30 4111 H 396.583 3.39576 -2.07203 0
M  V30 4112 H 393.322 4.33174 -4.91976 0
M  V30 4113 H 392.842 4.98441 -3.33642 0
M  V30 4114 H 394.521 5.15898 -3.90459 0
M  V30 4115 N 394.653 0.992116 1.22453 0
M  V30 4116 C 395.93 0.583508 1.86694 0
M  V30 4117 C 396.31 -0.9392 1.89056 0
M  V30 4118 O 395.658 -1.82081 1.38053 0
M  V30 4119 C 395.868 1.20304 3.2761 0
M  V30 4120 C 397.216 1.30308 4.0411 0
M  V30 4121 O 398.24 1.15737 3.36873 0
M  V30 4122 O 397.099 1.53615 5.24466 0
M  V30 4123 H 394.193 0.198129 0.802916 0
M  V30 4124 H 396.739 1.08794 1.30238 0
M  V30 4125 H 395.511 2.24461 3.2052 0
M  V30 4126 H 395.134 0.684144 3.9167 0
M  V30 4127 N 396.131 -1.37776 0.765217 0
M  V30 4128 C 397.379 -1.99454 0.325943 0
M  V30 4129 C 397.7 -1.61049 -1.09947 0
M  V30 4130 O 396.97 -0.872821 -1.75381 0
M  V30 4131 H 395.55 -0.737697 0.117525 0
M  V30 4132 H 398.212 -1.68359 0.981895 0
M  V30 4133 H 397.308 -3.09547 0.398353 0
M  V30 4134 N 397.609 -0.515225 -1.4894 0
M  V30 4135 C 398.858 0.0261361 -2.01683 0
M  V30 4136 C 399.171 1.36719 -1.39883 0
M  V30 4137 O 400.377 1.99606 -1.84037 0
M  V30 4138 C 398.833 0.0970111 -3.59769 0
M  V30 4139 C 398.441 -1.23825 -4.30548 0
M  V30 4140 C 400.185 0.587981 -4.20408 0
M  V30 4141 C 398.092 -1.12877 -5.80528 0
M  V30 4142 H 397.022 0.0135398 -0.753878 0
M  V30 4143 H 399.673 -0.656787 -1.71343 0
M  V30 4144 H 398.055 0.844694 -3.86886 0
M  V30 4145 H 399.229 -2.00034 -4.15118 0
M  V30 4146 H 397.544 -1.66379 -3.81716 0
M  V30 4147 H 400.141 0.68763 -5.3026 0
M  V30 4148 H 400.484 1.59026 -3.84729 0
M  V30 4149 H 401.017 -0.103582 -3.97665 0
M  V30 4150 H 397.756 -2.10575 -6.20756 0
M  V30 4151 H 397.276 -0.407799 -5.98412 0
M  V30 4152 H 398.955 -0.813332 -6.41868 0
M  V30 4153 N 399.087 1.5561 -0.249682 0
M  V30 4154 C 400.333 2.00044 0.367952 0
M  V30 4155 C 400.688 1.1349 1.55363 0
M  V30 4156 O 399.981 0.191079 1.90645 0
M  V30 4157 C 400.175 3.4775 0.824887 0
M  V30 4158 C 400.004 4.48596 -0.314973 0
M  V30 4159 C 398.774 4.99077 -0.790555 0
M  V30 4160 C 400.972 5.0144 -1.14291 0
M  V30 4161 N 398.954 5.83675 -1.90254 0
M  V30 4162 C 400.325 5.83236 -2.10322 0
M  V30 4163 C 402.38 4.83736 -1.17916 0
M  V30 4164 C 401.083 6.49217 -3.09692 0
M  V30 4165 C 403.109 5.50497 -2.16117 0
M  V30 4166 C 402.471 6.32084 -3.10884 0
M  V30 4167 H 398.57 0.775512 0.100522 0
M  V30 4168 H 401.154 1.91193 -0.367896 0
M  V30 4169 H 399.325 3.56994 1.53002 0
M  V30 4170 H 401.057 3.79056 1.4177 0
M  V30 4171 H 397.812 4.72119 -0.374218 0
M  V30 4172 H 398.236 6.30671 -2.46137 0
M  V30 4173 H 402.878 4.20286 -0.460352 0
M  V30 4174 H 400.596 7.11832 -3.8252 0
M  V30 4175 H 404.182 5.38752 -2.19631 0
M  V30 4176 H 403.062 6.82832 -3.8563 0
M  V30 4177 N 400.565 -0.0233959 1.57583 0
M  V30 4178 C 401.475 -1.03907 2.10334 0
M  V30 4179 C 402.491 -1.39257 1.04323 0
M  V30 4180 O 403.667 -1.48462 1.36091 0
M  V30 4181 C 400.732 -2.31938 2.57693 0
M  V30 4182 C 399.793 -2.03117 3.78209 0
M  V30 4183 C 399.026 -3.25043 4.233 0
M  V30 4184 O 399.249 -4.35916 3.67876 0
M  V30 4185 O 398.183 -3.10411 5.15683 0
M  V30 4186 H 402.009 -0.620748 2.97288 0
M  V30 4187 H 399.594 -0.240743 1.47448 0
M  V30 4188 H 401.476 -3.07196 2.88458 0
M  V30 4189 H 400.151 -2.73055 1.73847 0
M  V30 4190 H 399.058 -1.25408 3.52454 0
M  V30 4191 H 400.391 -1.66852 4.63056 0
M  V30 4192 N 402.043 -1.548 -0.295768 0
M  V30 4193 C 403.291 -1.73985 -1.02828 0
M  V30 4194 C 403.612 -0.531406 -1.87619 0
M  V30 4195 O 402.882 0.454221 -1.90561 0
M  V30 4196 H 401.462 -0.641556 -0.382642 0
M  V30 4197 H 404.124 -1.92163 -0.325489 0
M  V30 4198 H 403.22 -2.63129 -1.67838 0
M  V30 4199 N 403.521 0.559213 -1.47345 0
M  V30 4200 C 404.77 1.31281 -1.53128 0
M  V30 4201 C 405.083 1.94602 -0.197344 0
M  V30 4202 O 406.289 2.71173 -0.133154 0
M  V30 4203 C 404.745 2.38051 -2.69925 0
M  V30 4204 C 404.353 1.8093 -4.0984 0
M  V30 4205 C 406.097 3.14604 -2.84999 0
M  V30 4206 C 404.004 2.85468 -5.1794 0
M  V30 4207 H 402.934 0.493614 -0.569966 0
M  V30 4208 H 405.585 0.594155 -1.73615 0
M  V30 4209 H 403.967 3.12822 -2.42814 0
M  V30 4210 H 405.141 1.12544 -4.46845 0
M  V30 4211 H 403.456 1.16967 -3.99634 0
M  V30 4212 H 406.053 3.92666 -3.62929 0
M  V30 4213 H 406.396 3.68665 -1.93369 0
M  V30 4214 H 406.929 2.46945 -3.1187 0
M  V30 4215 H 403.668 2.36264 -6.1144 0
M  V30 4216 H 403.188 3.52269 -4.85455 0
M  V30 4217 H 404.867 3.48996 -5.44803 0
M  V30 4218 N 404.999 1.35443 0.805782 0
M  V30 4219 C 406.247 1.28507 1.55982 0
M  V30 4220 C 406.568 -0.140046 1.94496 0
M  V30 4221 O 405.838 -1.07666 1.63661 0
M  V30 4222 H 404.418 0.472676 0.578434 0
M  V30 4223 H 407.08 1.69555 0.961098 0
M  V30 4224 H 406.176 1.90148 2.47488 0
M  V30 4225 N 406.477 -1.02803 1.19454 0
M  V30 4226 C 407.725 -1.75869 0.995722 0
M  V30 4227 C 408.046 -1.89138 -0.474543 0
M  V30 4228 O 407.316 -1.42558 -1.34366 0
M  V30 4229 H 405.896 -0.651511 0.365435 0
M  V30 4230 H 408.558 -1.24004 1.50363 0
M  V30 4231 H 407.654 -2.76661 1.44447 0
M  V30 4232 N 407.956 -0.998596 -1.21925 0
M  V30 4233 C 409.203 -0.677663 -1.90824 0
M  V30 4234 C 409.531 0.790905 -1.77693 0
M  V30 4235 O 408.786 1.58817 -1.14349 0
M  V30 4236 C 409.085 -1.03648 -3.42041 0
M  V30 4237 C 408.751 -2.49825 -3.75364 0
M  V30 4238 C 407.413 -2.8977 -3.8417 0
M  V30 4239 C 409.765 -3.44545 -3.91073 0
M  V30 4240 C 407.093 -4.23412 -4.06127 0
M  V30 4241 C 409.445 -4.77853 -4.14535 0
M  V30 4242 C 408.109 -5.17531 -4.21566 0
M  V30 4243 H 407.379 -0.247975 -0.698276 0
M  V30 4244 H 410.026 -1.25584 -1.44571 0
M  V30 4245 H 408.331 -0.376457 -3.89987 0
M  V30 4246 H 410.028 -0.766113 -3.93614 0
M  V30 4247 H 406.618 -2.17866 -3.69097 0
M  V30 4248 H 410.802 -3.14853 -3.83642 0
M  V30 4249 H 406.058 -4.53734 -4.09799 0
M  V30 4250 H 410.232 -5.51189 -4.25633 0
M  V30 4251 H 407.859 -6.21102 -4.38333 0
M  V30 4252 N 409.434 1.37368 -0.772513 0
M  V30 4253 C 410.68 1.99969 -0.337681 0
M  V30 4254 C 411.013 1.61184 1.08321 0
M  V30 4255 O 410.288 0.858395 1.74533 0
M  V30 4256 C 410.571 3.56858 -0.482121 0
M  V30 4257 C 410.424 4.0555 -1.94549 0
M  V30 4258 C 411.743 4.39955 0.113143 0
M  V30 4259 H 408.862 0.726464 -0.124171 0
M  V30 4260 H 411.504 1.63034 -0.975699 0
M  V30 4261 H 409.654 3.88452 0.0610361 0
M  V30 4262 H 411.326 3.84518 -2.54841 0
M  V30 4263 H 409.569 3.57715 -2.45403 0
M  V30 4264 H 410.24 5.14587 -1.9976 0
M  V30 4265 H 412.716 4.14623 -0.35031 0
M  V30 4266 H 411.592 5.48897 -0.0180514 0
M  V30 4267 H 411.853 4.25403 1.20354 0
M  V30 4268 N 410.912 0.523116 1.48665 0
M  V30 4269 C 412.137 -0.0117284 2.07397 0
M  V30 4270 C 412.562 -1.28031 1.37803 0
M  V30 4271 O 411.92 -1.75836 0.441762 0
M  V30 4272 C 411.968 -0.225786 3.59892 0
M  V30 4273 O 411.072 -1.29592 3.91509 0
M  V30 4274 H 410.413 0.0360673 0.66302 0
M  V30 4275 H 412.943 0.729066 1.9117 0
M  V30 4276 H 412.953 -0.450552 4.05505 0
M  V30 4277 H 411.628 0.700944 4.09951 0
M  V30 4278 H 410.205 -1.05436 3.57684 0
M  V30 4279 N 412.39 -1.55475 0.257931 0
M  V30 4280 C 413.63 -2.01112 -0.365129 0
M  V30 4281 C 413.994 -1.1423 -1.54323 0
M  V30 4282 O 415.195 -1.49371 -2.23477 0
M  V30 4283 C 413.466 -3.49353 -0.754117 0
M  V30 4284 S 415.025 -4.16992 -1.36614 0
M  V30 4285 H 411.843 -0.701737 -0.114397 0
M  V30 4286 H 414.445 -1.91855 0.375747 0
M  V30 4287 H 413.149 -4.10246 0.112441 0
M  V30 4288 H 412.68 -3.6256 -1.52689 0
M  V30 4289 H 414.695 -4.19191 -2.65505 0
M  V30 4290 N 413.868 0.0150385 -1.57593 0
M  V30 4291 C 414.816 1.02958 -2.08572 0
M  V30 4292 C 415.81 1.36554 -1.00246 0
M  V30 4293 O 417.016 1.35295 -1.18724 0
M  V30 4294 H 413.391 0.349619 -0.665786 0
M  V30 4295 H 415.362 0.573932 -2.92829 0
M  V30 4296 C 414.111 2.31752 -2.59203 0
M  V30 4297 H 413.434 2.06765 -3.42182 0
M  V30 4298 H 414.874 3.01053 -2.98568 0
M  V30 4299 C 413.333 3.01692 -1.49945 0
M  V30 4300 O 413.863 3.92083 -0.873704 0
M  V30 4301 N 412.069 2.6326 -1.23056 0
M  V30 4302 H 411.616 1.89838 -1.74125 0
M  V30 4303 H 411.574 3.10372 -0.501685 0
M  V30 4304 N 415.346 1.54954 0.287554 0
M  V30 4305 C 416.296 1.8322 1.357 0
M  V30 4306 C 417.28 0.690152 1.45347 0
M  V30 4307 O 418.472 0.951137 1.49273 0
M  V30 4308 C 415.601 2.09481 2.71979 0
M  V30 4309 C 414.687 3.29906 2.66502 0
M  V30 4310 N 415.078 4.50154 2.30641 0
M  V30 4311 C 413.376 3.32203 2.97585 0
M  V30 4312 C 414.077 5.32209 2.34794 0
M  V30 4313 N 413.053 4.70258 2.72688 0
M  V30 4314 H 416.855 2.73746 1.0696 0
M  V30 4315 H 414.369 1.54635 0.496167 0
M  V30 4316 H 416.366 2.27882 3.49107 0
M  V30 4317 H 415.026 1.2023 3.0162 0
M  V30 4318 H 416.037 4.76515 2.02865 0
M  V30 4319 H 412.714 2.53101 3.32034 0
M  V30 4320 H 414.104 6.38321 2.09753 0
M  V30 4321 N 416.824 -0.551391 1.4764 0
M  V30 4322 C 417.754 -1.66757 1.63445 0
M  V30 4323 C 418.735 -1.63077 0.483742 0
M  V30 4324 O 419.92 -1.80607 0.71377 0
M  V30 4325 C 417.05 -3.05387 1.65396 0
M  V30 4326 C 416.004 -3.23918 2.79752 0
M  V30 4327 C 415.33 -4.63393 2.66779 0
M  V30 4328 C 416.63 -3.08735 4.21284 0
M  V30 4329 H 418.324 -1.53786 2.56886 0
M  V30 4330 H 415.87 -0.738415 1.23626 0
M  V30 4331 H 417.823 -3.83325 1.75043 0
M  V30 4332 H 416.547 -3.19332 0.685195 0
M  V30 4333 H 415.206 -2.48391 2.69625 0
M  V30 4334 H 414.854 -4.74144 1.67918 0
M  V30 4335 H 414.554 -4.7674 3.43501 0
M  V30 4336 H 416.078 -5.43458 2.78364 0
M  V30 4337 H 417.492 -3.76484 4.32357 0
M  V30 4338 H 415.889 -3.33588 4.98838 0
M  V30 4339 H 416.959 -2.0541 4.39243 0
M  V30 4340 N 418.302 -1.35869 -0.798587 0
M  V30 4341 C 419.718 -1.16082 -1.09532 0
M  V30 4342 C 419.918 0.0213124 -2.01489 0
M  V30 4343 O 418.974 0.689488 -2.42904 0
M  V30 4344 C 420.287 -2.46748 -1.7186 0
M  V30 4345 C 421.835 -2.53028 -1.84244 0
M  V30 4346 C 422.31 -3.83758 -2.49988 0
M  V30 4347 N 423.801 -3.85053 -2.57465 0
M  V30 4348 C 424.536 -4.8294 -3.09122 0
M  V30 4349 N 424.032 -5.91217 -3.61157 0
M  V30 4350 N 425.825 -4.70369 -3.0775 0
M  V30 4351 H 417.976 -2.11571 -0.187461 0
M  V30 4352 H 420.239 -0.936726 -0.145765 0
M  V30 4353 H 419.945 -3.33471 -1.11759 0
M  V30 4354 H 419.819 -2.61883 -2.71472 0
M  V30 4355 H 422.206 -1.66729 -2.43486 0
M  V30 4356 H 422.287 -2.418 -0.834643 0
M  V30 4357 H 421.931 -4.70459 -1.91393 0
M  V30 4358 H 421.861 -3.92278 -3.5132 0
M  V30 4359 H 424.352 -3.06822 -2.20609 0
M  V30 4360 H 424.665 -6.61892 -3.98896 0
M  V30 4361 H 423.01 -5.94899 -3.59333 0
M  V30 4362 H 426.201 -3.84914 -2.66381 0
M  V30 4363 H 426.374 -5.46816 -3.47701 0
M  V30 4364 N 419.78 1.02168 -1.19998 0
M  V30 4365 C 421.005 1.79833 -1.03319 0
M  V30 4366 C 421.43 1.83504 0.413281 0
M  V30 4367 O 420.788 1.26635 1.29743 0
M  V30 4368 C 420.836 3.22396 -1.61533 0
M  V30 4369 O 419.94 4.03555 -0.849519 0
M  V30 4370 H 419.281 0.554872 -0.364709 0
M  V30 4371 H 421.811 1.28542 -1.59179 0
M  V30 4372 H 421.821 3.73124 -1.65054 0
M  V30 4373 H 420.496 3.19039 -2.66809 0
M  V30 4374 H 419.073 3.62169 -0.888129 0
M  V30 4375 N 421.258 1.00505 1.21394 0
M  V30 4376 C 422.505 0.687774 1.90462 0
M  V30 4377 C 422.833 -0.78147 1.7811 0
M  V30 4378 O 422.088 -1.58208 1.1519 0
M  V30 4379 C 422.387 1.0546 3.41486 0
M  V30 4380 C 422.053 2.51812 3.74034 0
M  V30 4381 C 420.715 2.91804 3.82628 0
M  V30 4382 C 423.067 3.46614 3.8924 0
M  V30 4383 C 420.395 4.2556 4.03876 0
M  V30 4384 C 422.747 4.80044 4.11995 0
M  V30 4385 C 421.411 5.19759 4.18816 0
M  V30 4386 H 420.681 0.251674 0.696951 0
M  V30 4387 H 423.328 1.26349 1.43903 0
M  V30 4388 H 421.633 0.397133 3.89782 0
M  V30 4389 H 423.33 0.786976 3.93202 0
M  V30 4390 H 419.92 2.1982 3.67936 0
M  V30 4391 H 424.104 3.16883 3.81967 0
M  V30 4392 H 419.36 4.55901 4.07387 0
M  V30 4393 H 423.534 5.53439 4.22704 0
M  V30 4394 H 421.161 6.23418 4.35033 0
M  V30 4395 N 422.737 -1.36956 0.779787 0
M  V30 4396 C 423.647 -2.33965 0.172491 0
M  V30 4397 C 424.663 -1.60574 -0.670222 0
M  V30 4398 O 425.839 -1.92617 -0.588263 0
M  V30 4399 C 422.904 -3.39761 -0.690173 0
M  V30 4400 C 421.965 -4.28964 0.169924 0
M  V30 4401 C 421.198 -5.29707 -0.651662 0
M  V30 4402 O 421.421 -5.38238 -1.88827 0
M  V30 4403 O 420.355 -6.01873 -0.0566264 0
M  V30 4404 H 424.181 -2.87647 0.974321 0
M  V30 4405 H 421.766 -1.39258 0.541078 0
M  V30 4406 H 423.648 -4.04471 -1.1824 0
M  V30 4407 H 422.323 -2.88394 -1.47006 0
M  V30 4408 H 421.23 -3.67326 0.708696 0
M  V30 4409 H 422.563 -4.83656 0.913085 0
M  V30 4410 N 424.215 -0.530993 -1.48385 0
M  V30 4411 C 425.445 -0.00133928 -2.066 0
M  V30 4412 C 425.853 1.28599 -1.38777 0
M  V30 4413 O 425.196 1.77599 -0.469495 0
M  V30 4414 C 425.258 0.292137 -3.58311 0
M  V30 4415 C 424.922 -0.901864 -4.48013 0
M  V30 4416 C 425.919 -1.80053 -4.87726 0
M  V30 4417 C 423.604 -1.10915 -4.89901 0
M  V30 4418 C 425.598 -2.89038 -5.68098 0
M  V30 4419 C 423.285 -2.20213 -5.70043 0
M  V30 4420 C 424.283 -3.09107 -6.0905 0
M  V30 4421 O 423.971 -4.16514 -6.87583 0
M  V30 4422 H 423.703 -0.0308475 -0.675296 0
M  V30 4423 H 426.257 -0.736335 -1.91748 0
M  V30 4424 H 424.487 1.08112 -3.7128 0
M  V30 4425 H 426.176 0.763994 -3.98645 0
M  V30 4426 H 426.942 -1.65234 -4.55986 0
M  V30 4427 H 422.821 -0.426498 -4.59023 0
M  V30 4428 H 426.365 -3.58451 -5.98464 0
M  V30 4429 H 422.262 -2.35016 -6.01197 0
M  V30 4430 H 423.03 -4.14237 -7.05939 0
M  V30 4431 N 425.693 1.55336 -0.266172 0
M  V30 4432 C 426.923 2.03506 0.356239 0
M  V30 4433 C 427.331 1.14426 1.50676 0
M  V30 4434 O 426.674 0.155043 1.83045 0
M  V30 4435 C 426.736 3.47848 0.90785 0
M  V30 4436 C 426.4 4.56861 -0.112888 0
M  V30 4437 C 427.397 5.11528 -0.929264 0
M  V30 4438 C 425.082 5.01704 -0.244546 0
M  V30 4439 C 427.076 6.09549 -1.86357 0
M  V30 4440 C 424.763 5.99553 -1.18234 0
M  V30 4441 C 425.761 6.53356 -1.99036 0
M  V30 4442 O 425.449 7.49293 -2.91231 0
M  V30 4443 H 425.181 0.670444 0.08649 0
M  V30 4444 H 427.735 2.01598 -0.39337 0
M  V30 4445 H 425.965 3.46967 1.70737 0
M  V30 4446 H 427.654 3.79407 1.44239 0
M  V30 4447 H 428.42 4.77701 -0.838237 0
M  V30 4448 H 424.299 4.59477 0.374359 0
M  V30 4449 H 427.843 6.51469 -2.49467 0
M  V30 4450 H 423.74 6.32799 -1.27421 0
M  V30 4451 H 424.508 7.66978 -2.8581 0
M  V30 4452 N 427.171 -0.0066808 1.57599 0
M  V30 4453 C 428.396 -0.707738 1.94951 0
M  V30 4454 C 428.821 -1.66882 0.867868 0
M  V30 4455 O 428.179 -1.80457 -0.17458 0
M  V30 4456 C 428.227 -1.42162 3.31394 0
M  V30 4457 O 427.331 -2.53578 3.25226 0
M  V30 4458 H 426.672 -0.188752 0.636607 0
M  V30 4459 H 429.202 0.0445193 2.04552 0
M  V30 4460 H 429.212 -1.78655 3.66806 0
M  V30 4461 H 427.887 -0.716903 4.09675 0
M  V30 4462 H 426.464 -2.19463 3.01481 0
M  V30 4463 N 428.649 -1.55105 -0.279332 0
M  V30 4464 C 429.874 -1.7976 -1.03446 0
M  V30 4465 C 430.299 -0.565952 -1.79384 0
M  V30 4466 O 429.657 0.484259 -1.74713 0
M  V30 4467 C 429.705 -3.0179 -1.97371 0
M  V30 4468 O 428.809 -2.76432 -3.06038 0
M  V30 4469 H 428.15 -0.594334 -0.29608 0
M  V30 4470 H 430.68 -2.02235 -0.310165 0
M  V30 4471 H 430.69 -3.30351 -2.39441 0
M  V30 4472 H 429.365 -3.91085 -1.4151 0
M  V30 4473 H 427.942 -2.58949 -2.68328 0
M  V30 4474 N 430.127 0.543554 -1.4793 0
M  V30 4475 C 431.352 1.32995 -1.59145 0
M  V30 4476 C 431.777 1.86472 -0.246956 0
M  V30 4477 O 431.135 1.63696 0.779324 0
M  V30 4478 C 431.183 2.46623 -2.63077 0
M  V30 4479 O 430.287 3.49261 -2.19295 0
M  V30 4480 H 429.628 0.394472 -0.534124 0
M  V30 4481 H 432.158 0.655489 -1.93816 0
M  V30 4482 H 432.168 2.93001 -2.83926 0
M  V30 4483 H 430.843 2.07059 -3.60693 0
M  V30 4484 H 429.42 3.09094 -2.08603 0
M  V30 4485 N 431.605 1.3629 0.791371 0
M  V30 4486 C 432.851 1.30605 1.55146 0
M  V30 4487 C 433.184 -0.115042 1.93859 0
M  V30 4488 O 432.459 -1.06798 1.62556 0
M  V30 4489 C 432.742 2.22692 2.82985 0
M  V30 4490 C 432.595 3.73489 2.50651 0
M  V30 4491 C 433.914 2.13588 3.84796 0
M  V30 4492 H 431.033 0.475761 0.562868 0
M  V30 4493 H 433.675 1.66825 0.909358 0
M  V30 4494 H 431.825 1.91933 3.37778 0
M  V30 4495 H 433.497 4.14758 2.01924 0
M  V30 4496 H 431.74 3.93021 1.83622 0
M  V30 4497 H 432.411 4.3333 3.41949 0
M  V30 4498 H 434.887 2.40659 3.39445 0
M  V30 4499 H 433.763 2.80195 4.71998 0
M  V30 4500 H 434.024 1.12256 4.27611 0
M  V30 4501 N 433.083 -1.0153 1.20538 0
M  V30 4502 C 434.013 -2.11972 0.979295 0
M  V30 4503 C 434.994 -1.6985 -0.0921787 0
M  V30 4504 O 436.179 -1.94089 0.0655932 0
M  V30 4505 C 433.309 -3.43201 0.531984 0
M  V30 4506 C 432.263 -3.9907 1.54685 0
M  V30 4507 C 431.589 -5.26082 0.956127 0
M  V30 4508 C 432.889 -4.32313 2.93092 0
M  V30 4509 H 434.583 -2.31143 1.90298 0
M  V30 4510 H 432.129 -1.11079 0.916372 0
M  V30 4511 H 434.082 -4.1985 0.361044 0
M  V30 4512 H 432.806 -3.23792 -0.427327 0
M  V30 4513 H 431.465 -3.2453 1.70517 0
M  V30 4514 H 431.113 -5.02999 -0.0111538 0
M  V30 4515 H 430.813 -5.64426 1.63393 0
M  V30 4516 H 432.337 -6.05386 0.796284 0
M  V30 4517 H 433.751 -4.99845 2.80763 0
M  V30 4518 H 432.148 -4.81774 3.57791 0
M  V30 4519 H 433.218 -3.41025 3.44717 0
M  V30 4520 N 434.561 -1.01147 -1.20859 0
M  V30 4521 C 435.509 -0.57059 -2.25493 0
M  V30 4522 C 436.503 0.388109 -1.64894 0
M  V30 4523 O 437.709 0.258592 -1.78133 0
M  V30 4524 H 434.084 -0.166191 -0.733406 0
M  V30 4525 H 436.055 -1.46411 -2.60012 0
M  V30 4526 C 434.804 0.0805241 -3.47607 0
M  V30 4527 H 434.127 -0.648156 -3.94511 0
M  V30 4528 H 435.567 0.352197 -4.22535 0
M  V30 4529 C 434.026 1.32175 -3.09889 0
M  V30 4530 O 434.556 2.41553 -3.20959 0
M  V30 4531 N 432.762 1.20392 -2.64488 0
M  V30 4532 H 432.309 0.313905 -2.5568 0
M  V30 4533 H 432.267 2.03541 -2.39621 0
M  V30 4534 N 436.039 1.36541 -0.78704 0
M  V30 4535 C 437.45 1.81873 -0.421807 0
M  V30 4536 C 437.801 1.65487 1.05397 0
M  V30 4537 O 436.926 1.17448 1.81755 0
M  V30 4538 C 437.521 3.30192 -0.758841 0
M  V30 4539 C 436.08 3.73743 -0.446468 0
M  V30 4540 C 435.227 2.58844 -0.994728 0
M  V30 4541 H 438.178 1.24796 -0.98039 0
M  V30 4542 H 438.199 3.80468 -0.0490648 0
M  V30 4543 H 437.711 3.42087 -1.83299 0
M  V30 4544 H 435.812 3.6741 0.619739 0
M  V30 4545 H 435.925 4.69272 -0.965415 0
M  V30 4546 H 434.289 2.51245 -0.418087 0
M  V30 4547 H 435.072 2.73525 -2.07458 0
M  V30 4548 N 437.518 0.538854 1.48102 0
M  V30 4549 C 438.795 -0.0568108 1.95517 0
M  V30 4550 C 439.175 -1.50408 1.48124 0
M  V30 4551 O 438.523 -2.17133 0.711727 0
M  V30 4552 C 438.733 0.0696262 3.48931 0
M  V30 4553 C 440.081 -0.0851202 4.24515 0
M  V30 4554 O 441.105 -0.0037347 3.562 0
M  V30 4555 O 439.964 -0.257025 5.45895 0
M  V30 4556 H 437.058 -0.0743695 0.823649 0
M  V30 4557 H 439.604 0.604081 1.58584 0
M  V30 4558 H 438.376 1.07744 3.76174 0
M  V30 4559 H 437.999 -0.629714 3.92582 0
M  V30 4560 N 438.996 -1.55193 0.274407 0
M  V30 4561 C 440.244 -1.99187 -0.341902 0
M  V30 4562 C 440.565 -1.16422 -1.56431 0
M  V30 4563 O 439.835 -0.253573 -1.94252 0
M  V30 4564 H 438.415 -0.735721 -0.129317 0
M  V30 4565 H 441.077 -1.91168 0.379578 0
M  V30 4566 H 440.173 -3.05629 -0.632253 0
M  V30 4567 N 440.474 -0.00167713 -1.576 0
M  V30 4568 C 441.721 0.68282 -1.90641 0
M  V30 4569 C 442.049 1.73686 -0.875415 0
M  V30 4570 O 441.304 1.95334 0.119575 0
M  V30 4571 C 441.603 1.36189 -3.30435 0
M  V30 4572 C 441.269 0.440887 -4.48739 0
M  V30 4573 C 439.931 0.187312 -4.80835 0
M  V30 4574 C 442.283 -0.193134 -5.20842 0
M  V30 4575 C 439.611 -0.70855 -5.82406 0
M  V30 4576 C 441.963 -1.07688 -6.23367 0
M  V30 4577 C 440.627 -1.33962 -6.53919 0
M  V30 4578 H 439.897 0.249862 -0.697603 0
M  V30 4579 H 442.544 -0.0575642 -1.91413 0
M  V30 4580 H 440.849 2.17636 -3.25794 0
M  V30 4581 H 442.546 1.89759 -3.5326 0
M  V30 4582 H 439.136 0.648694 -4.23663 0
M  V30 4583 H 443.32 -0.0102445 -4.96299 0
M  V30 4584 H 438.576 -0.920097 -6.04437 0
M  V30 4585 H 442.75 -1.57451 -6.78367 0
M  V30 4586 H 440.377 -2.03549 -7.32442 0
M  V30 4587 N 441.952 1.55251 0.271103 0
M  V30 4588 C 442.882 1.9127 1.33933 0
M  V30 4589 C 443.863 0.77478 1.5143 0
M  V30 4590 O 445.048 1.03307 1.64442 0
M  V30 4591 C 442.178 2.18627 2.69851 0
M  V30 4592 C 441.132 3.34442 2.67081 0
M  V30 4593 C 440.458 3.47284 4.06569 0
M  V30 4594 C 441.758 4.70784 2.26185 0
M  V30 4595 H 443.452 2.80744 1.04035 0
M  V30 4596 H 440.998 1.35077 0.499017 0
M  V30 4597 H 442.951 2.42413 3.44694 0
M  V30 4598 H 441.675 1.25955 3.01335 0
M  V30 4599 H 440.334 3.10627 1.94695 0
M  V30 4600 H 439.982 2.52074 4.35279 0
M  V30 4601 H 439.682 4.25152 4.0561 0
M  V30 4602 H 441.206 3.73363 4.83148 0
M  V30 4603 H 442.62 4.94102 2.90751 0
M  V30 4604 H 441.017 5.51582 2.36384 0
M  V30 4605 H 442.087 4.69478 1.21319 0
M  V30 4606 N 443.43 -0.535701 1.48216 0
M  V30 4607 C 444.678 -1.28928 1.55634 0
M  V30 4608 C 444.999 -1.93645 0.229514 0
M  V30 4609 O 444.269 -1.81038 -0.74846 0
M  V30 4610 H 442.849 -0.47884 0.573342 0
M  V30 4611 H 445.511 -0.623853 1.84646 0
M  V30 4612 H 444.607 -2.07157 2.33436 0
M  V30 4613 N 444.908 -1.36708 -0.784132 0
M  V30 4614 C 446.138 -1.34203 -1.57077 0
M  V30 4615 C 446.546 0.0774945 -1.89041 0
M  V30 4616 O 445.889 1.04628 -1.50992 0
M  V30 4617 C 445.951 -2.10351 -2.91535 0
M  V30 4618 C 445.615 -3.59405 -2.82272 0
M  V30 4619 C 446.612 -4.53545 -2.54151 0
M  V30 4620 C 444.297 -4.02362 -3.00683 0
M  V30 4621 C 446.291 -5.8862 -2.44551 0
M  V30 4622 C 443.978 -5.37526 -2.90704 0
M  V30 4623 C 444.976 -6.30468 -2.62677 0
M  V30 4624 O 444.664 -7.63149 -2.52702 0
M  V30 4625 H 444.396 -0.461791 -0.493685 0
M  V30 4626 H 446.95 -1.80475 -0.980712 0
M  V30 4627 H 445.18 -1.5875 -3.52612 0
M  V30 4628 H 446.869 -2.00636 -3.52845 0
M  V30 4629 H 447.635 -4.21669 -2.39625 0
M  V30 4630 H 443.514 -3.30389 -3.21503 0
M  V30 4631 H 447.058 -6.61133 -2.22596 0
M  V30 4632 H 442.955 -5.69008 -3.04795 0
M  V30 4633 H 443.723 -7.73331 -2.68144 0
M  V30 4634 N 446.386 1.0089 -1.21074 0
M  V30 4635 C 447.797 1.56056 -1.02486 0
M  V30 4636 C 448.148 1.91728 0.416506 0
M  V30 4637 O 447.273 1.73066 1.29912 0
M  V30 4638 C 447.868 2.83563 -1.85411 0
M  V30 4639 C 446.427 3.3523 -1.71166 0
M  V30 4640 C 445.574 2.0846 -1.82865 0
M  V30 4641 H 448.525 0.831818 -1.35154 0
M  V30 4642 H 448.546 3.55286 -1.36205 0
M  V30 4643 H 448.058 2.57569 -2.9031 0
M  V30 4644 H 446.159 3.66167 -0.689361 0
M  V30 4645 H 446.272 4.06913 -2.52901 0
M  V30 4646 H 444.636 2.21275 -1.26132 0
M  V30 4647 H 445.419 1.84883 -2.89263 0
M  V30 4648 N 447.864 1.01787 1.20321 0
M  V30 4649 C 449.104 0.716493 1.91431 0
M  V30 4650 C 449.468 -0.740352 1.77152 0
M  V30 4651 O 450.669 -1.1543 2.42754 0
M  V30 4652 C 448.94 1.14169 3.38674 0
M  V30 4653 S 450.499 0.962482 4.28114 0
M  V30 4654 H 447.317 0.261175 0.661293 0
M  V30 4655 H 449.919 1.30539 1.45533 0
M  V30 4656 H 448.623 2.19784 3.46588 0
M  V30 4657 H 448.154 0.545621 3.89598 0
M  V30 4658 H 450.169 -0.133253 4.96021 0
M  V30 4659 N 449.342 -1.36122 0.79427 0
M  V30 4660 C 450.305 -2.28309 0.201889 0
M  V30 4661 C 451.305 -1.49041 -0.603603 0
M  V30 4662 O 452.495 -1.68964 -0.423888 0
M  V30 4663 C 449.627 -3.3321 -0.719978 0
M  V30 4664 H 450.82 -2.82208 1.01481 0
M  V30 4665 H 448.373 -1.45768 0.564037 0
M  V30 4666 H 449.108 -2.84475 -1.55706 0
M  V30 4667 H 448.893 -3.91835 -0.144266 0
M  V30 4668 H 450.383 -4.02044 -1.12916 0
M  V30 4669 N 450.82 -0.546701 -1.47814 0
M  V30 4670 C 452.045 -0.021268 -2.07389 0
M  V30 4671 C 452.47 1.25822 -1.39822 0
M  V30 4672 O 451.828 1.75111 -0.46968 0
M  V30 4673 C 451.876 0.168502 -3.60206 0
M  V30 4674 O 450.98 1.23347 -3.93522 0
M  V30 4675 H 450.321 -0.0466108 -0.662362 0
M  V30 4676 H 452.851 -0.759387 -1.89985 0
M  V30 4677 H 452.861 0.385982 -4.0617 0
M  V30 4678 H 451.536 -0.766075 -4.08784 0
M  V30 4679 H 450.113 0.997319 -3.59316 0
M  V30 4680 N 452.299 1.55045 -0.282633 0
M  V30 4681 C 453.529 2.03872 0.334635 0
M  V30 4682 C 453.937 1.16018 1.49454 0
M  V30 4683 O 453.28 0.174449 1.8287 0
M  V30 4684 C 453.342 3.48791 0.870905 0
M  V30 4685 C 453.006 4.56715 -0.161338 0
M  V30 4686 C 454.003 5.10513 -0.983466 0
M  V30 4687 C 451.688 5.01417 -0.297745 0
M  V30 4688 C 453.682 6.07538 -1.92811 0
M  V30 4689 C 451.369 5.98265 -1.24586 0
M  V30 4690 C 452.367 6.51208 -2.05954 0
M  V30 4691 O 452.055 7.46162 -2.99162 0
M  V30 4692 H 451.787 0.671324 0.0793742 0
M  V30 4693 H 454.341 2.01169 -0.41473 0
M  V30 4694 H 452.571 3.48758 1.67047 0
M  V30 4695 H 454.26 3.80916 1.40207 0
M  V30 4696 H 455.026 4.76785 -0.888856 0
M  V30 4697 H 450.905 4.59849 0.325604 0
M  V30 4698 H 454.449 6.48787 -2.56363 0
M  V30 4699 H 450.346 6.31412 -1.34126 0
M  V30 4700 H 451.114 7.63903 -2.93929 0
M  V30 4701 N 453.777 0.010035 1.57597 0
M  V30 4702 C 455.054 -0.710296 1.82248 0
M  V30 4703 C 455.434 -1.91426 0.889911 0
M  V30 4704 O 454.782 -2.28424 -0.0590292 0
M  V30 4705 C 454.992 -1.10655 3.30993 0
M  V30 4706 C 456.34 -1.50621 3.96987 0
M  V30 4707 O 457.364 -1.20007 3.35375 0
M  V30 4708 O 456.223 -2.07587 5.05539 0
M  V30 4709 H 453.317 -0.34673 0.750804 0
M  V30 4710 H 455.863 0.0362578 1.69661 0
M  V30 4711 H 454.635 -0.248826 3.90508 0
M  V30 4712 H 454.258 -1.91189 3.48615 0
M  V30 4713 N 455.255 -1.55392 -0.262866 0
M  V30 4714 C 456.165 -1.92077 -1.34698 0
M  V30 4715 C 457.181 -0.819227 -1.53508 0
M  V30 4716 O 458.357 -1.11921 -1.67439 0
M  V30 4717 C 455.422 -2.19407 -2.68443 0
M  V30 4718 C 454.483 -3.42905 -2.58292 0
M  V30 4719 C 453.716 -3.68921 -3.85659 0
M  V30 4720 O 453.939 -2.97275 -4.8681 0
M  V30 4721 O 452.873 -4.62455 -3.85252 0
M  V30 4722 H 456.699 -2.84384 -1.06581 0
M  V30 4723 H 454.284 -1.42069 -0.462264 0
M  V30 4724 H 456.166 -2.38365 -3.47506 0
M  V30 4725 H 454.841 -1.30282 -2.96325 0
M  V30 4726 H 453.748 -3.29272 -1.7757 0
M  V30 4727 H 455.081 -4.32282 -2.35358 0
M  V30 4728 N 456.733 0.527833 -1.48498 0
M  V30 4729 C 457.98 1.28354 -1.56625 0
M  V30 4730 C 458.308 1.93 -0.241096 0
M  V30 4731 O 457.563 1.79967 0.768798 0
M  V30 4732 C 457.862 2.39275 -2.65485 0
M  V30 4733 C 457.528 1.92268 -4.07853 0
M  V30 4734 C 456.19 1.79166 -4.46602 0
M  V30 4735 C 458.542 1.56771 -4.97064 0
M  V30 4736 C 455.87 1.28905 -5.72364 0
M  V30 4737 C 458.222 1.07972 -6.23318 0
M  V30 4738 C 456.886 0.934887 -6.60921 0
M  V30 4739 H 456.156 0.469682 -0.573131 0
M  V30 4740 H 458.803 0.588781 -1.82224 0
M  V30 4741 H 457.108 3.1443 -2.33754 0
M  V30 4742 H 458.805 2.974 -2.68988 0
M  V30 4743 H 455.395 2.03417 -3.77252 0
M  V30 4744 H 459.579 1.65753 -4.67803 0
M  V30 4745 H 454.835 1.16381 -6.00221 0
M  V30 4746 H 459.009 0.795775 -6.91838 0
M  V30 4747 H 456.636 0.543231 -7.58257 0
M  V30 4748 N 458.211 1.37122 0.776871 0
M  V30 4749 C 459.143 1.28342 1.89897 0
M  V30 4750 C 460.156 0.200277 1.61563 0
M  V30 4751 O 461.345 0.456012 1.72577 0
M  V30 4752 C 458.445 0.960427 3.25006 0
M  V30 4753 C 457.618 2.148 3.81025 0
M  V30 4754 C 456.677 1.79608 4.94598 0
M  V30 4755 O 455.703 2.51845 5.10454 0
M  V30 4756 N 456.905 0.737171 5.758 0
M  V30 4757 H 459.67 2.25027 1.97947 0
M  V30 4758 H 457.231 1.3068 0.955739 0
M  V30 4759 H 459.223 0.705942 3.98495 0
M  V30 4760 H 457.793 0.0823066 3.12492 0
M  V30 4761 H 457.013 2.56454 2.99374 0
M  V30 4762 H 458.301 2.9411 4.15183 0
M  V30 4763 H 457.699 0.137637 5.65533 0
M  V30 4764 H 456.256 0.542534 6.49538 0
M  V30 4765 N 459.689 -1.00246 1.21608 0
M  V30 4766 C 460.599 -2.12515 0.993709 0
M  V30 4767 C 461.615 -1.73913 -0.0549939 0
M  V30 4768 O 462.791 -2.00943 0.135619 0
M  V30 4769 C 459.856 -3.42083 0.563953 0
M  V30 4770 C 458.917 -3.94843 1.68516 0
M  V30 4771 C 458.15 -5.18226 1.27582 0
M  V30 4772 O 458.373 -5.70201 0.150506 0
M  V30 4773 O 457.307 -5.64497 2.0887 0
M  V30 4774 H 461.133 -2.34152 1.93407 0
M  V30 4775 H 458.718 -1.10891 1.00118 0
M  V30 4776 H 460.6 -4.20073 0.334194 0
M  V30 4777 H 459.275 -3.21828 -0.347665 0
M  V30 4778 H 458.182 -3.18068 1.96935 0
M  V30 4779 H 459.515 -4.19512 2.5743 0
M  V30 4780 N 461.167 -1.02423 -1.1978 0
M  V30 4781 C 462.392 -0.7373 -1.93852 0
M  V30 4782 C 462.817 0.696923 -1.74713 0
M  V30 4783 O 462.175 1.48056 -1.04638 0
M  V30 4784 C 462.223 -1.08783 -3.438 0
M  V30 4785 O 461.327 -0.20383 -4.11896 0
M  V30 4786 H 460.668 -0.27284 -0.605355 0
M  V30 4787 H 463.198 -1.36966 -1.51992 0
M  V30 4788 H 463.208 -1.04276 -3.9445 0
M  V30 4789 H 461.883 -2.13274 -3.57053 0
M  V30 4790 H 460.46 -0.307091 -3.71633 0
M  V30 4791 N 462.645 1.35699 -0.801477 0
M  V30 4792 C 463.592 2.29876 -0.206294 0
M  V30 4793 C 464.562 1.52565 0.656752 0
M  V30 4794 O 465.747 1.81024 0.602906 0
M  V30 4795 C 462.887 3.39052 0.643272 0
M  V30 4796 C 462 4.31335 -0.239644 0
M  V30 4797 C 461.135 5.27599 0.61744 0
M  V30 4798 C 460.174 6.11521 -0.26619 0
M  V30 4799 N 459.311 6.99938 0.550571 0
M  V30 4800 H 464.151 2.80187 -1.01484 0
M  V30 4801 H 461.688 1.37902 -0.511997 0
M  V30 4802 H 463.646 4.0101 1.15094 0
M  V30 4803 H 462.276 2.9003 1.41713 0
M  V30 4804 H 461.328 3.70426 -0.865381 0
M  V30 4805 H 462.64 4.90243 -0.919985 0
M  V30 4806 H 461.794 5.94906 1.19045 0
M  V30 4807 H 460.533 4.69176 1.33137 0
M  V30 4808 H 459.538 5.43166 -0.851507 0
M  V30 4809 H 460.763 6.72022 -0.9779 0
M  V30 4810 H 458.709 6.44008 1.24856 0
M  V30 4811 H 458.626 7.55966 -0.071832 0
M  V30 4812 H 459.894 7.71599 1.10702 0
M  V30 4813 N 464.123 0.554532 1.47522 0
M  V30 4814 C 465.363 0.0317994 2.04375 0
M  V30 4815 C 465.727 -1.29242 1.41988 0
M  V30 4816 O 466.928 -1.90269 1.89872 0
M  V30 4817 C 465.199 -0.0623344 3.57346 0
M  V30 4818 S 466.758 -0.531578 4.35568 0
M  V30 4819 H 463.576 0.0238553 0.7106 0
M  V30 4820 H 466.178 0.74066 1.80927 0
M  V30 4821 H 464.882 0.905857 4.00278 0
M  V30 4822 H 464.413 -0.794831 3.85287 0
M  V30 4823 H 466.428 -1.79175 4.62721 0
M  V30 4824 N 465.601 -1.54893 0.290851 0
M  V30 4825 C 466.848 -1.99933 -0.321391 0
M  V30 4826 C 467.176 -1.17927 -1.54672 0
M  V30 4827 O 466.431 -0.240902 -1.94212 0
M  V30 4828 C 466.73 -3.49815 -0.732397 0
M  V30 4829 C 466.396 -4.4921 0.390056 0
M  V30 4830 C 465.058 -4.76107 0.698223 0
M  V30 4831 C 467.41 -5.08453 1.14562 0
M  V30 4832 C 464.738 -5.59514 1.76526 0
M  V30 4833 C 467.09 -5.9302 2.2025 0
M  V30 4834 C 465.754 -6.18232 2.51684 0
M  V30 4835 H 465.024 -0.731608 -0.117605 0
M  V30 4836 H 467.671 -1.87107 0.407839 0
M  V30 4837 H 465.976 -3.60199 -1.54155 0
M  V30 4838 H 467.673 -3.82083 -1.21712 0
M  V30 4839 H 464.263 -4.28372 0.13976 0
M  V30 4840 H 468.447 -4.87683 0.920801 0
M  V30 4841 H 463.703 -5.77289 2.01364 0
M  V30 4842 H 467.877 -6.37955 2.7926 0
M  V30 4843 H 465.504 -6.82653 3.34499 0
M  V30 4844 N 467.08 -0.0183926 -1.57589 0
M  V30 4845 C 468.491 0.521927 -1.79256 0
M  V30 4846 C 468.842 1.72885 -0.927636 0
M  V30 4847 O 467.967 2.15978 -0.135091 0
M  V30 4848 C 468.562 0.953632 -3.25102 0
M  V30 4849 C 467.121 1.43913 -3.47801 0
M  V30 4850 C 466.268 0.398837 -2.74417 0
M  V30 4851 H 469.219 -0.244485 -1.56805 0
M  V30 4852 H 469.24 1.81863 -3.34224 0
M  V30 4853 H 468.752 0.0750123 -3.88028 0
M  V30 4854 H 466.853 2.33804 -2.90115 0
M  V30 4855 H 466.966 1.45391 -4.56507 0
M  V30 4856 H 465.33 0.864572 -2.39577 0
M  V30 4857 H 466.113 -0.471132 -3.40052 0
M  V30 4858 N 468.558 1.5553 0.254621 0
M  V30 4859 C 469.798 1.7876 0.991179 0
M  V30 4860 C 470.162 0.586669 1.82817 0
M  V30 4861 O 471.363 0.697585 2.5959 0
M  V30 4862 C 469.634 3.06679 1.83529 0
M  V30 4863 S 471.193 3.511 2.632 0
M  V30 4864 H 468.011 0.627916 0.333531 0
M  V30 4865 H 470.613 1.93766 0.259778 0
M  V30 4866 H 469.317 3.92158 1.20996 0
M  V30 4867 H 468.848 2.94388 2.60958 0
M  V30 4868 H 470.863 3.11823 3.8598 0
M  V30 4869 N 470.036 -0.519951 1.48776 0
M  V30 4870 C 471.447 -1.10177 1.50725 0
M  V30 4871 C 471.798 -1.94153 0.282678 0
M  V30 4872 O 470.923 -2.07645 -0.609298 0
M  V30 4873 C 471.518 -2.00482 2.73116 0
M  V30 4874 C 470.077 -2.53862 2.77905 0
M  V30 4875 C 469.224 -1.31047 2.44381 0
M  V30 4876 H 472.175 -0.30473 1.55747 0
M  V30 4877 H 472.196 -2.8491 2.52203 0
M  V30 4878 H 471.708 -1.39335 3.62225 0
M  V30 4879 H 469.809 -3.18702 1.93029 0
M  V30 4880 H 469.922 -2.9231 3.79594 0
M  V30 4881 H 468.286 -1.62953 1.95751 0
M  V30 4882 H 469.069 -0.71637 3.35743 0
M  V30 4883 N 471.514 -1.37532 -0.769588 0
M  V30 4884 C 472.477 -1.33292 -1.86456 0
M  V30 4885 C 473.477 -0.236537 -1.59051 0
M  V30 4886 O 474.667 -0.492511 -1.67093 0
M  V30 4887 C 471.799 -1.07118 -3.23633 0
M  V30 4888 H 472.992 -2.30692 -1.91628 0
M  V30 4889 H 470.545 -1.22593 -0.969572 0
M  V30 4890 H 471.28 -0.102578 -3.24138 0
M  V30 4891 H 471.065 -1.86479 -3.44917 0
M  V30 4892 H 472.555 -1.06806 -4.03711 0
M  V30 4893 N 472.992 0.995999 -1.22138 0
M  V30 4894 C 473.902 2.11985 -1.00496 0
M  V30 4895 C 474.918 1.7394 0.0457701 0
M  V30 4896 O 476.094 2.00868 -0.146273 0
M  V30 4897 C 473.159 3.41779 -0.582086 0
M  V30 4898 C 472.22 3.93943 -1.70608 0
M  V30 4899 C 471.453 5.17542 -1.30328 0
M  V30 4900 O 471.676 5.70114 -0.180743 0
M  V30 4901 O 470.61 5.63382 -2.11861 0
M  V30 4902 H 474.436 2.33123 -1.94647 0
M  V30 4903 H 472.021 1.10358 -1.00705 0
M  V30 4904 H 473.903 4.1989 -0.356467 0
M  V30 4905 H 472.578 3.22007 0.330592 0
M  V30 4906 H 471.485 3.17019 -1.98619 0
M  V30 4907 H 472.818 4.18141 -2.59651 0
M  V30 4908 N 474.47 1.03057 1.19235 0
M  V30 4909 C 475.718 0.726581 1.88587 0
M  V30 4910 C 476.039 -0.747227 1.80115 0
M  V30 4911 O 475.309 -1.53849 1.21274 0
M  V30 4912 H 473.889 0.265768 0.698124 0
M  V30 4913 H 476.551 1.30516 1.44746 0
M  V30 4914 H 475.647 1.0224 2.94879 0
M  V30 4915 N 475.948 -1.35272 0.808662 0
M  V30 4916 C 477.188 -2.00534 0.395668 0
M  V30 4917 C 477.552 -1.62755 -1.01857 0
M  V30 4918 O 478.753 -2.20752 -1.53368 0
M  V30 4919 C 477.024 -3.52732 0.575771 0
M  V30 4920 S 478.583 -4.38067 0.253507 0
M  V30 4921 H 475.401 -0.694962 0.150165 0
M  V30 4922 H 478.003 -1.64823 1.05137 0
M  V30 4923 H 476.707 -3.77714 1.60499 0
M  V30 4924 H 476.238 -3.93285 -0.0951739 0
M  V30 4925 H 478.253 -4.87252 -0.938068 0
M  V30 4926 N 477.426 -0.562348 -1.47226 0
M  V30 4927 C 478.837 -0.130325 -1.86245 0
M  V30 4928 C 479.188 1.30128 -1.46838 0
M  V30 4929 O 478.313 1.97974 -0.873805 0
M  V30 4930 C 478.908 -0.229738 -3.3802 0
M  V30 4931 C 477.467 0.14728 -3.76112 0
M  V30 4932 C 476.614 -0.574971 -2.71274 0
M  V30 4933 H 479.565 -0.771773 -1.3867 0
M  V30 4934 H 479.586 0.550316 -3.76499 0
M  V30 4935 H 479.098 -1.27178 -3.66671 0
M  V30 4936 H 477.199 1.19023 -3.53078 0
M  V30 4937 H 477.312 -0.214858 -4.78618 0
M  V30 4938 H 475.676 -0.0174756 -2.54694 0
M  V30 4939 H 476.459 -1.61827 -3.02766 0
M  V30 4940 N 478.904 1.54736 -0.299062 0
M  V30 4941 C 479.851 2.23448 0.577899 0
M  V30 4942 C 480.821 1.21637 1.13109 0
M  V30 4943 O 482.006 1.50252 1.17597 0
M  V30 4944 C 479.146 2.9774 1.74484 0
M  V30 4945 C 478.259 4.1432 1.22323 0
M  V30 4946 C 477.394 4.76199 2.35388 0
M  V30 4947 C 476.433 5.84927 1.80351 0
M  V30 4948 N 475.57 6.4077 2.86982 0
M  V30 4949 H 480.41 2.97996 -0.0146545 0
M  V30 4950 H 477.947 1.47088 -0.0190013 0
M  V30 4951 H 479.905 3.39045 2.43114 0
M  V30 4952 H 478.535 2.25572 2.30905 0
M  V30 4953 H 477.587 3.7797 0.429249 0
M  V30 4954 H 478.899 4.92659 0.780309 0
M  V30 4955 H 478.053 5.20346 3.11969 0
M  V30 4956 H 476.792 3.97188 2.83006 0
M  V30 4957 H 475.797 5.40207 1.02259 0
M  V30 4958 H 477.022 6.65821 1.3364 0
M  V30 4959 H 474.968 5.64643 3.33938 0
M  V30 4960 H 474.885 7.1445 2.4718 0
M  V30 4961 H 476.153 6.89574 3.63466 0
M  V30 4962 N 480.382 0.0267497 1.57577 0
M  V30 4963 C 481.315 -0.99059 2.05579 0
M  V30 4964 C 482.293 -1.31884 0.951065 0
M  V30 4965 O 483.477 -1.43592 1.22121 0
M  V30 4966 C 480.604 -2.31125 2.47586 0
M  V30 4967 C 479.65 -2.13777 3.69055 0
M  V30 4968 S 480.483 -1.4388 5.15809 0
M  V30 4969 C 481.639 -2.77321 5.6111 0
M  V30 4970 H 481.872 -0.581976 2.91548 0
M  V30 4971 H 479.405 -0.184876 1.53289 0
M  V30 4972 H 481.363 -3.07049 2.72454 0
M  V30 4973 H 480.024 -2.6912 1.61967 0
M  V30 4974 H 479.217 -3.11405 3.96287 0
M  V30 4975 H 478.819 -1.45996 3.44327 0
M  V30 4976 H 481.111 -3.73565 5.65204 0
M  V30 4977 H 482.054 -2.54756 6.60685 0
M  V30 4978 H 482.462 -2.82459 4.88751 0
M  V30 4979 N 481.861 -1.55662 -0.24637 0
M  V30 4980 C 483.109 -1.77168 -0.972411 0
M  V30 4981 C 483.43 -0.590827 -1.85834 0
M  V30 4982 O 482.7 0.393365 -1.9191 0
M  V30 4983 H 481.28 -0.653405 -0.362038 0
M  V30 4984 H 483.942 -1.93101 -0.264189 0
M  V30 4985 H 483.038 -2.68335 -1.59382 0
M  V30 4986 N 483.339 0.512053 -1.4905 0
M  V30 4987 C 484.289 1.61142 -1.61298 0
M  V30 4988 C 485.273 1.53908 -0.46916 0
M  V30 4989 O 486.465 1.61625 -0.721547 0
M  V30 4990 C 483.594 2.998 -1.67256 0
M  V30 4991 C 482.68 3.12072 -2.87179 0
M  V30 4992 N 483.071 2.94263 -4.11391 0
M  V30 4993 C 481.369 3.43156 -2.84886 0
M  V30 4994 C 482.07 3.10426 -4.91946 0
M  V30 4995 N 481.046 3.38808 -4.251 0
M  V30 4996 H 484.848 1.46011 -2.55065 0
M  V30 4997 H 482.362 0.717934 -1.45669 0
M  V30 4998 H 484.359 3.78794 -1.74128 0
M  V30 4999 H 483.019 3.1601 -0.746195 0
M  V30 5000 H 484.03 2.70661 -4.41546 0
M  V30 5001 H 480.707 3.65611 -2.01581 0
M  V30 5002 H 482.097 3.01243 -6.00585 0
M  V30 5003 N 484.817 1.37938 0.762283 0
M  V30 5004 C 486.047 1.36685 1.54922 0
M  V30 5005 C 486.455 -0.0474099 1.89141 0
M  V30 5006 O 485.798 -1.02213 1.52638 0
M  V30 5007 C 485.86 2.14963 2.88152 0
M  V30 5008 C 485.524 3.6385 2.76518 0
M  V30 5009 C 486.521 4.57531 2.46904 0
M  V30 5010 C 484.206 4.07095 2.94243 0
M  V30 5011 C 486.2 5.92436 2.35156 0
M  V30 5012 C 483.887 5.42083 2.82116 0
M  V30 5013 C 484.885 6.34567 2.52614 0
M  V30 5014 O 484.573 7.67073 2.40529 0
M  V30 5015 H 484.305 0.469586 0.486276 0
M  V30 5016 H 486.859 1.82012 0.951876 0
M  V30 5017 H 485.089 1.6434 3.50042 0
M  V30 5018 H 486.778 2.06224 3.49609 0
M  V30 5019 H 487.544 4.25428 2.32886 0
M  V30 5020 H 483.423 3.35462 3.16206 0
M  V30 5021 H 486.967 6.64591 2.12049 0
M  V30 5022 H 482.864 5.73785 2.95704 0
M  V30 5023 H 483.632 7.77499 2.55807 0
M  V30 5024 N 486.295 -0.989507 1.22664 0
M  V30 5025 C 487.258 -2.06183 1.00106 0
M  V30 5026 C 488.258 -1.60765 -0.0337726 0
M  V30 5027 O 489.448 -1.72989 0.205072 0
M  V30 5028 C 486.58 -3.37021 0.51279 0
M  V30 5029 H 487.773 -2.27629 1.95256 0
M  V30 5030 H 485.326 -1.16158 1.0458 0
M  V30 5031 H 486.061 -3.21261 -0.442917 0
M  V30 5032 H 485.846 -3.71323 1.25942 0
M  V30 5033 H 487.336 -4.1591 0.375315 0
M  V30 5034 N 487.773 -1.03688 -1.18687 0
M  V30 5035 C 489.05 -0.652397 -1.84399 0
M  V30 5036 C 489.43 0.868386 -1.92412 0
M  V30 5037 O 488.778 1.76832 -1.44716 0
M  V30 5038 C 488.988 -1.3238 -3.22919 0
M  V30 5039 C 490.336 -1.45216 -3.98996 0
M  V30 5040 O 491.36 -1.2816 -3.32345 0
M  V30 5041 O 490.219 -1.72975 -5.18403 0
M  V30 5042 H 487.313 -0.227793 -0.795009 0
M  V30 5043 H 489.859 -1.13553 -1.2611 0
M  V30 5044 H 488.631 -2.36202 -3.11968 0
M  V30 5045 H 488.254 -0.829039 -3.88861 0
M  V30 5046 N 489.251 1.34841 -0.815825 0
M  V30 5047 C 490.183 2.28409 -0.190265 0
M  V30 5048 C 491.196 1.50705 0.615771 0
M  V30 5049 O 492.385 1.72822 0.446616 0
M  V30 5050 C 489.485 3.30441 0.752446 0
M  V30 5051 C 488.658 4.37399 -0.00922152 0
M  V30 5052 C 487.717 5.19234 0.853351 0
M  V30 5053 O 486.743 5.68404 0.300919 0
M  V30 5054 N 487.945 5.38248 2.17416 0
M  V30 5055 H 490.71 2.82732 -0.994114 0
M  V30 5056 H 488.271 1.47289 -0.672129 0
M  V30 5057 H 490.263 3.82084 1.33394 0
M  V30 5058 H 488.833 2.76565 1.45707 0
M  V30 5059 H 488.053 3.86567 -0.771979 0
M  V30 5060 H 489.341 5.05992 -0.533807 0
M  V30 5061 H 488.739 4.99961 2.6468 0
M  V30 5062 H 487.296 5.93035 2.70467 0
M  V30 5063 N 490.729 0.570148 1.46925 0
M  V30 5064 C 491.976 0.0509529 2.02436 0
M  V30 5065 C 492.304 -1.30405 1.44308 0
M  V30 5066 O 491.559 -1.86493 0.593198 0
M  V30 5067 C 491.858 -0.0780336 3.57315 0
M  V30 5068 C 491.524 1.20775 4.34424 0
M  V30 5069 C 490.186 1.56004 4.5521 0
M  V30 5070 C 492.538 2.0592 4.78797 0
M  V30 5071 C 489.866 2.76201 5.17619 0
M  V30 5072 C 492.218 3.25332 5.42533 0
M  V30 5073 C 490.882 3.60859 5.61549 0
M  V30 5074 H 490.152 0.018645 0.740765 0
M  V30 5075 H 492.799 0.744262 1.76445 0
M  V30 5076 H 491.104 -0.854394 3.82371 0
M  V30 5077 H 492.801 -0.495312 3.97929 0
M  V30 5078 H 489.391 0.923469 4.18533 0
M  V30 5079 H 493.575 1.80008 4.62505 0
M  V30 5080 H 488.831 3.0388 5.30535 0
M  V30 5081 H 493.005 3.91586 5.75876 0
M  V30 5082 H 490.632 4.54088 6.09678 0
M  V30 5083 N 492.207 -1.54576 0.307264 0
M  V30 5084 C 493.154 -2.23751 -0.56604 0
M  V30 5085 C 494.124 -1.22235 -1.12462 0
M  V30 5086 O 495.309 -1.50873 -1.16799 0
M  V30 5087 C 492.449 -2.98661 -1.72903 0
M  V30 5088 C 491.562 -4.14963 -1.20124 0
M  V30 5089 C 490.697 -4.77441 -2.3286 0
M  V30 5090 C 489.736 -5.85875 -1.77247 0
M  V30 5091 N 488.873 -6.42282 -2.8358 0
M  V30 5092 H 493.713 -2.97984 0.0304578 0
M  V30 5093 H 491.25 -1.47076 0.0268015 0
M  V30 5094 H 493.208 -3.40329 -2.41313 0
M  V30 5095 H 491.838 -2.26793 -2.29706 0
M  V30 5096 H 490.89 -3.78193 -0.409198 0
M  V30 5097 H 492.202 -4.93066 -0.754171 0
M  V30 5098 H 491.356 -5.21993 -3.09205 0
M  V30 5099 H 490.095 -3.98684 -2.80896 0
M  V30 5100 H 489.1 -5.40741 -0.993926 0
M  V30 5101 H 490.325 -6.6652 -1.30107 0
M  V30 5102 H 488.271 -5.66406 -3.30939 0
M  V30 5103 H 488.188 -7.1575 -2.43388 0
M  V30 5104 H 489.456 -6.91492 -3.59804 0
M  V30 5105 N 493.685 -0.035106 -1.57561 0
M  V30 5106 C 494.933 0.64096 -1.91667 0
M  V30 5107 C 495.254 1.72323 -0.912681 0
M  V30 5108 O 494.524 1.95849 0.0449089 0
M  V30 5109 H 493.104 0.239743 -0.707483 0
M  V30 5110 H 495.766 -0.084321 -1.94718 0
M  V30 5111 H 494.862 1.08987 -2.92452 0
M  V30 5112 N 495.163 1.55791 0.238111 0
M  V30 5113 C 496.11 1.9105 1.29493 0
M  V30 5114 C 497.08 0.765733 1.47397 0
M  V30 5115 O 498.265 1.02017 1.61236 0
M  V30 5116 C 495.405 2.21826 2.64362 0
M  V30 5117 C 494.518 3.49153 2.54394 0
M  V30 5118 C 493.653 3.69455 3.81676 0
M  V30 5119 C 492.692 4.90353 3.66361 0
M  V30 5120 N 491.829 5.07131 4.85554 0
M  V30 5121 H 496.669 2.81172 0.987233 0
M  V30 5122 H 494.206 1.39179 0.476203 0
M  V30 5123 H 496.164 2.37675 3.4288 0
M  V30 5124 H 494.794 1.34897 2.93262 0
M  V30 5125 H 493.846 3.41587 1.67399 0
M  V30 5126 H 495.158 4.37818 2.38991 0
M  V30 5127 H 494.312 3.85311 4.68636 0
M  V30 5128 H 493.051 2.7904 3.99985 0
M  V30 5129 H 492.056 4.74464 2.77784 0
M  V30 5130 H 493.281 5.82237 3.49538 0
M  V30 5131 H 491.227 4.19654 5.04209 0
M  V30 5132 H 491.144 5.89899 4.72816 0
M  V30 5133 H 492.412 5.27407 5.73988 0
M  V30 5134 N 496.642 -0.504142 1.49319 0
M  V30 5135 C 497.87 -1.28256 1.62351 0
M  V30 5136 C 498.285 -1.86502 0.293682 0
M  V30 5137 O 497.642 -1.67678 -0.720449 0
M  V30 5138 C 497.693 -2.41507 2.68992 0
M  V30 5139 O 497.414 -1.85656 3.96817 0
M  V30 5140 C 498.915 -3.32929 2.927 0
M  V30 5141 H 496.135 -0.389115 0.546654 0
M  V30 5142 H 498.679 -0.605531 1.95329 0
M  V30 5143 H 496.834 -3.05046 2.38801 0
M  V30 5144 H 497.248 -2.59981 4.55533 0
M  V30 5145 H 498.722 -4.0868 3.71058 0
M  V30 5146 H 499.199 -3.89733 2.02496 0
M  V30 5147 H 499.805 -2.75158 3.24296 0
M  V30 5148 N 498.12 -1.38341 -0.754957 0
M  V30 5149 C 499.345 -1.37882 -1.5493 0
M  V30 5150 C 499.77 0.0296385 -1.88077 0
M  V30 5151 O 499.128 1.01133 -1.50472 0
M  V30 5152 C 499.176 -2.23996 -2.82592 0
M  V30 5153 O 498.28 -1.65612 -3.77686 0
M  V30 5154 H 497.621 -0.470384 -0.468652 0
M  V30 5155 H 500.151 -1.82084 -0.933082 0
M  V30 5156 H 500.161 -2.37806 -3.3153 0
M  V30 5157 H 498.836 -3.26365 -2.57796 0
M  V30 5158 H 497.413 -1.60936 -3.36384 0
M  V30 5159 N 499.598 0.982988 -1.23187 0
M  V30 5160 C 500.561 2.05649 -1.01198 0
M  V30 5161 C 501.561 1.6078 0.0252464 0
M  V30 5162 O 502.751 1.72878 -0.214243 0
M  V30 5163 C 499.883 3.36744 -0.530656 0
M  V30 5164 H 501.076 2.2659 -1.96461 0
M  V30 5165 H 498.629 1.15602 -1.05195 0
M  V30 5166 H 499.364 3.21492 0.425873 0
M  V30 5167 H 499.149 3.7065 -1.2791 0
M  V30 5168 H 500.639 4.15705 -0.397366 0
M  V30 5169 N 501.076 1.04316 1.18135 0
M  V30 5170 C 502.322 0.749128 1.88457 0
M  V30 5171 C 502.655 -0.72149 1.803 0
M  V30 5172 O 501.93 -1.52676 1.205 0
M  V30 5173 C 502.213 1.21905 3.38838 0
M  V30 5174 C 502.066 2.75195 3.55792 0
M  V30 5175 C 503.385 0.811085 4.32561 0
M  V30 5176 H 500.504 0.273611 0.684329 0
M  V30 5177 H 503.146 1.29561 1.38975 0
M  V30 5178 H 501.296 0.754137 3.8111 0
M  V30 5179 H 502.968 3.29743 3.22595 0
M  V30 5180 H 501.211 3.14899 2.98364 0
M  V30 5181 H 501.882 3.03135 4.61317 0
M  V30 5182 H 504.358 1.21118 3.98082 0
M  V30 5183 H 503.234 1.16761 5.36338 0
M  V30 5184 H 503.495 -0.285596 4.41177 0
M  V30 5185 N 502.554 -1.34406 0.822964 0
M  V30 5186 C 503.464 -2.33298 0.246838 0
M  V30 5187 C 504.48 -1.62625 -0.618797 0
M  V30 5188 O 505.656 -1.94391 -0.526685 0
M  V30 5189 C 502.721 -3.41785 -0.581731 0
M  V30 5190 C 501.782 -4.28206 0.306309 0
M  V30 5191 C 501.015 -5.31512 -0.48281 0
M  V30 5192 O 501.238 -5.43973 -1.71607 0
M  V30 5193 O 500.172 -6.01749 0.134884 0
M  V30 5194 H 503.998 -2.84401 1.06534 0
M  V30 5195 H 501.583 -1.37466 0.585108 0
M  V30 5196 H 503.465 -4.08028 -1.05313 0
M  V30 5197 H 502.14 -2.92925 -1.37756 0
M  V30 5198 H 501.047 -3.64885 0.825199 0
M  V30 5199 H 502.38 -4.80507 1.06649 0
M  V30 5200 N 504.032 -0.577932 -1.46621 0
M  V30 5201 C 504.964 0.195801 -2.28362 0
M  V30 5202 C 505.977 0.859983 -1.38232 0
M  V30 5203 O 507.166 0.730349 -1.62875 0
M  V30 5204 C 504.266 1.29639 -3.13124 0
M  V30 5205 C 503.439 0.725049 -4.31349 0
M  V30 5206 C 502.498 1.71274 -4.97546 0
M  V30 5207 O 501.524 1.25067 -5.5529 0
M  V30 5208 N 502.726 3.04672 -4.94121 0
M  V30 5209 H 505.491 -0.505468 -2.95407 0
M  V30 5210 H 503.052 -0.415381 -1.56481 0
M  V30 5211 H 505.044 1.95631 -3.54275 0
M  V30 5212 H 503.614 1.90059 -2.48186 0
M  V30 5213 H 502.834 -0.112205 -3.9404 0
M  V30 5214 H 504.122 0.323034 -5.07774 0
M  V30 5215 H 503.52 3.4484 -4.48444 0
M  V30 5216 H 502.077 3.66166 -5.39227 0
M  V30 5217 N 505.51 1.54411 -0.315457 0
M  V30 5218 C 506.738 2.04833 0.291738 0
M  V30 5219 C 507.153 1.19203 1.46411 0
M  V30 5220 O 506.51 0.220867 1.81159 0
M  V30 5221 C 506.561 3.53969 0.73404 0
M  V30 5222 O 506.282 4.36346 -0.391682 0
M  V30 5223 C 507.783 4.2045 1.40489 0
M  V30 5224 H 505.003 0.668195 0.0612947 0
M  V30 5225 H 507.547 1.99276 -0.45929 0
M  V30 5226 H 505.702 3.5984 1.43506 0
M  V30 5227 H 506.116 5.24481 -0.0447088 0
M  V30 5228 H 507.59 5.26278 1.66539 0
M  V30 5229 H 508.067 3.71067 2.3496 0
M  V30 5230 H 508.673 4.18694 0.746662 0
M  V30 5231 N 506.988 0.0434614 1.5754 0
M  V30 5232 C 508.235 -0.632035 1.92384 0
M  V30 5233 C 508.563 -1.71304 0.921157 0
M  V30 5234 O 507.818 -1.95583 -0.067744 0
M  V30 5235 C 508.117 -1.2738 3.3393 0
M  V30 5236 C 507.783 -0.321757 4.49751 0
M  V30 5237 C 506.445 -0.0597611 4.81163 0
M  V30 5238 C 508.797 0.331158 5.20147 0
M  V30 5239 C 506.125 0.862715 5.80322 0
M  V30 5240 C 508.477 1.24178 6.20292 0
M  V30 5241 C 507.141 1.51252 6.50138 0
M  V30 5242 H 506.411 -0.231278 0.703983 0
M  V30 5243 H 509.058 0.108294 1.91194 0
M  V30 5244 H 507.363 -2.08921 3.3145 0
M  V30 5245 H 509.06 -1.80326 3.58167 0
M  V30 5246 H 505.65 -0.53614 4.25233 0
M  V30 5247 H 509.834 0.141826 4.96097 0
M  V30 5248 H 505.09 1.08003 6.01785 0
M  V30 5249 H 509.264 1.75381 6.73954 0
M  V30 5250 H 506.891 2.22897 7.26788 0
M  V30 5251 N 508.466 -1.55915 -0.229846 0
M  V30 5252 C 509.713 -1.78542 -0.955452 0
M  V30 5253 C 510.041 -0.610785 -1.84661 0
M  V30 5254 O 509.296 0.405213 -1.91459 0
M  V30 5255 C 509.595 -3.06845 -1.8325 0
M  V30 5256 C 509.261 -4.37395 -1.09528 0
M  V30 5257 C 507.923 -4.72868 -0.891598 0
M  V30 5258 C 510.275 -5.18029 -0.574046 0
M  V30 5259 C 507.603 -5.86496 -0.154655 0
M  V30 5260 C 509.955 -6.32423 0.149513 0
M  V30 5261 C 508.619 -6.66504 0.364519 0
M  V30 5262 H 507.889 -0.653333 -0.349625 0
M  V30 5263 H 510.536 -1.90183 -0.224235 0
M  V30 5264 H 508.841 -2.90291 -2.63132 0
M  V30 5265 H 510.538 -3.21553 -2.39592 0
M  V30 5266 H 507.128 -4.09538 -1.26399 0
M  V30 5267 H 511.312 -4.91066 -0.718899 0
M  V30 5268 H 506.568 -6.11396 0.0222356 0
M  V30 5269 H 510.742 -6.94137 0.560947 0
M  V30 5270 H 508.369 -7.54397 0.937495 0
M  V30 5271 N 509.944 0.496216 -1.49584 0
M  V30 5272 C 510.874 1.60576 -1.69521 0
M  V30 5273 C 511.855 1.61169 -0.543933 0
M  V30 5274 O 513.04 1.77834 -0.78031 0
M  V30 5275 C 510.17 2.99038 -1.76616 0
M  V30 5276 C 509.124 3.13312 -2.91581 0
M  V30 5277 C 508.45 4.53172 -2.83794 0
M  V30 5278 C 509.75 2.92886 -4.32452 0
M  V30 5279 H 511.444 1.44146 -2.62416 0
M  V30 5280 H 508.99 0.692024 -1.26282 0
M  V30 5281 H 510.943 3.76564 -1.8915 0
M  V30 5282 H 509.667 3.16568 -0.80324 0
M  V30 5283 H 508.326 2.38213 -2.78658 0
M  V30 5284 H 507.974 4.67585 -1.854 0
M  V30 5285 H 507.674 4.63662 -3.60958 0
M  V30 5286 H 509.198 5.32752 -2.98342 0
M  V30 5287 H 510.612 3.60178 -4.46032 0
M  V30 5288 H 509.009 3.14844 -5.10875 0
M  V30 5289 H 510.079 1.88966 -4.46565 0
M  V30 5290 N 511.423 1.38739 0.74761 0
M  V30 5291 C 512.371 1.36573 1.88283 0
M  V30 5292 C 513.365 0.250712 1.67534 0
M  V30 5293 O 514.571 0.420073 1.7503 0
M  V30 5294 H 510.946 0.42619 0.619569 0
M  V30 5295 H 512.917 2.32356 1.87226 0
M  V30 5296 C 511.666 1.21361 3.25832 0
M  V30 5297 H 510.989 2.06424 3.42388 0
M  V30 5298 H 512.429 1.23901 4.05493 0
M  V30 5299 C 510.888 -0.0790099 3.36807 0
M  V30 5300 O 511.418 -1.05385 3.8763 0
M  V30 5301 N 509.624 -0.13785 2.90273 0
M  V30 5302 H 509.171 0.656128 2.49104 0
M  V30 5303 H 509.129 -1.00228 2.97996 0
M  V30 5304 N 512.901 -0.976442 1.23707 0
M  V30 5305 C 514.129 -1.75341 1.09833 0
M  V30 5306 C 514.544 -1.8553 -0.349885 0
M  V30 5307 O 513.901 -1.33732 -1.24185 0
M  V30 5308 C 513.952 -3.17833 1.72233 0
M  V30 5309 O 513.673 -3.08167 3.11391 0
M  V30 5310 C 515.174 -4.11906 1.63853 0
M  V30 5311 H 512.394 -0.550137 0.384175 0
M  V30 5312 H 514.938 -1.2265 1.63638 0
M  V30 5313 H 513.093 -3.67538 1.22452 0
M  V30 5314 H 513.507 -3.97897 3.41729 0
M  V30 5315 H 514.981 -5.09579 2.12211 0
M  V30 5316 H 515.458 -4.35109 0.598092 0
M  V30 5317 H 516.064 -3.68107 2.13019 0
M  V30 5318 N 514.379 -1.04941 -1.1758 0
M  V30 5319 C 515.627 -0.756492 -1.87408 0
M  V30 5320 C 515.948 0.718478 -1.81281 0
M  V30 5321 O 515.218 1.519 -1.23706 0
M  V30 5322 H 513.798 -0.276841 -0.693807 0
M  V30 5323 H 516.46 -1.32803 -1.42652 0
M  V30 5324 H 515.556 -1.06918 -2.93215 0
M  V30 5325 N 515.857 1.33968 -0.830081 0
M  V30 5326 C 516.767 2.33164 -0.259207 0
M  V30 5327 C 517.783 1.62951 0.610164 0
M  V30 5328 O 518.959 1.94668 0.516369 0
M  V30 5329 C 516.024 3.42088 0.563598 0
M  V30 5330 C 515.085 4.28037 -0.329014 0
M  V30 5331 C 514.318 5.3176 0.454616 0
M  V30 5332 O 514.541 5.44876 1.6872 0
M  V30 5333 O 513.475 6.01669 -0.166794 0
M  V30 5334 H 517.301 2.83832 -1.08041 0
M  V30 5335 H 514.886 1.37154 -0.59239 0
M  V30 5336 H 516.768 4.08581 1.03147 0
M  V30 5337 H 515.443 2.93651 1.36201 0
M  V30 5338 H 514.35 3.64443 -0.844538 0
M  V30 5339 H 515.683 4.79934 -1.09196 0
M  V30 5340 N 517.335 0.585699 1.46312 0
M  V30 5341 C 518.56 0.0762461 2.0726 0
M  V30 5342 C 518.985 -1.22071 1.43109 0
M  V30 5343 O 518.343 -1.73804 0.515942 0
M  V30 5344 C 518.391 -0.0729404 3.60526 0
M  V30 5345 O 517.495 -1.1287 3.96654 0
M  V30 5346 H 516.836 0.0641558 0.660893 0
M  V30 5347 H 519.366 0.809492 1.87905 0
M  V30 5348 H 519.376 -0.278158 4.07051 0
M  V30 5349 H 518.051 0.874188 4.06609 0
M  V30 5350 H 516.628 -0.901703 3.61834 0
M  V30 5351 N 518.813 -1.54241 0.323641 0
M  V30 5352 C 520.061 -2.00174 -0.278359 0
M  V30 5353 C 520.382 -1.2134 -1.52648 0
M  V30 5354 O 519.652 -0.315244 -1.93347 0
M  V30 5355 H 518.232 -0.739463 -0.105845 0
M  V30 5356 H 520.894 -1.89864 0.440204 0
M  V30 5357 H 519.99 -3.07486 -0.5347 0
M  V30 5358 N 520.291 -0.0518155 -1.57515 0
M  V30 5359 C 521.239 0.940195 -2.12751 0
M  V30 5360 C 522.233 1.3218 -1.05948 0
M  V30 5361 O 523.439 1.30138 -1.24355 0
M  V30 5362 H 519.814 0.321066 -0.680015 0
M  V30 5363 H 521.785 0.449217 -2.94999 0
M  V30 5364 C 520.534 2.2055 -2.68799 0
M  V30 5365 H 519.857 1.92066 -3.50643 0
M  V30 5366 H 521.297 2.88119 -3.11068 0
M  V30 5367 C 519.756 2.95061 -1.62605 0
M  V30 5368 O 520.286 3.88025 -1.03921 0
M  V30 5369 N 518.492 2.57804 -1.34111 0
M  V30 5370 H 518.039 1.82281 -1.8202 0
M  V30 5371 H 517.997 3.07964 -0.632872 0
M  V30 5372 N 521.769 1.56035 0.221574 0
M  V30 5373 C 523.016 1.79047 0.94597 0
M  V30 5374 C 523.344 0.62057 1.84334 0
M  V30 5375 O 522.599 -0.395053 1.91671 0
M  V30 5376 C 522.898 3.07813 1.8162 0
M  V30 5377 C 522.564 4.3797 1.07206 0
M  V30 5378 C 521.226 4.73334 0.866508 0
M  V30 5379 C 523.578 5.18326 0.546565 0
M  V30 5380 C 520.906 5.8657 0.123549 0
M  V30 5381 C 523.258 6.32335 -0.18305 0
M  V30 5382 C 521.922 6.66301 -0.399861 0
M  V30 5383 H 521.192 0.655178 0.346155 0
M  V30 5384 H 523.839 1.90299 0.214146 0
M  V30 5385 H 522.144 2.91682 2.61589 0
M  V30 5386 H 523.841 3.2282 2.37884 0
M  V30 5387 H 520.431 4.10202 1.24226 0
M  V30 5388 H 524.615 4.9144 0.692847 0
M  V30 5389 H 519.871 6.11376 -0.0546591 0
M  V30 5390 H 524.045 6.9383 -0.59775 0
M  V30 5391 H 521.672 7.53889 -0.977489 0
M  V30 5392 N 523.247 -0.488276 1.49845 0
M  V30 5393 C 524.475 -1.26527 1.63702 0
M  V30 5394 C 524.89 -1.8618 0.313447 0
M  V30 5395 O 524.247 -1.68432 -0.702624 0
M  V30 5396 C 524.298 -2.3864 2.71538 0
M  V30 5397 O 524.019 -1.81437 3.98763 0
M  V30 5398 C 525.52 -3.29805 2.96215 0
M  V30 5399 H 522.74 -0.383295 0.55075 0
M  V30 5400 H 525.284 -0.584779 1.95961 0
M  V30 5401 H 523.439 -3.02496 2.42023 0
M  V30 5402 H 523.853 -2.55135 4.58265 0
M  V30 5403 H 525.327 -4.04722 3.75372 0
M  V30 5404 H 525.804 -3.87563 2.06619 0
M  V30 5405 H 526.41 -2.71703 3.27196 0
M  V30 5406 N 524.725 -1.39134 -0.740242 0
M  V30 5407 C 525.95 -1.39518 -1.53459 0
M  V30 5408 C 526.375 0.00968883 -1.88098 0
M  V30 5409 O 525.733 0.995312 -1.51536 0
M  V30 5410 C 525.781 -2.26981 -2.802 0
M  V30 5411 O 524.885 -1.69609 -3.75908 0
M  V30 5412 H 524.226 -0.475328 -0.463637 0
M  V30 5413 H 526.756 -1.83064 -0.913717 0
M  V30 5414 H 526.766 -2.41309 -3.28989 0
M  V30 5415 H 525.441 -3.29081 -2.5432 0
M  V30 5416 H 524.018 -1.64495 -3.34658 0
M  V30 5417 N 526.204 0.969867 -1.24223 0
M  V30 5418 C 527.45 1.71582 -1.09231 0
M  V30 5419 C 527.805 1.88898 0.365432 0
M  V30 5420 O 527.098 1.43781 1.2664 0
M  V30 5421 C 527.292 3.10883 -1.76314 0
M  V30 5422 C 527.121 3.07155 -3.2846 0
M  V30 5423 C 525.891 3.11757 -3.97663 0
M  V30 5424 C 528.089 2.895 -4.25082 0
M  V30 5425 N 526.071 2.98025 -5.36707 0
M  V30 5426 C 527.442 2.84041 -5.51109 0
M  V30 5427 C 529.497 2.74064 -4.15684 0
M  V30 5428 C 528.2 2.64725 -6.68815 0
M  V30 5429 C 530.226 2.56115 -5.33066 0
M  V30 5430 C 529.588 2.51363 -6.58024 0
M  V30 5431 H 525.687 0.636496 -0.454309 0
M  V30 5432 H 528.271 1.15004 -1.57106 0
M  V30 5433 H 526.442 3.65657 -1.30955 0
M  V30 5434 H 528.174 3.74171 -1.54201 0
M  V30 5435 H 524.929 3.20352 -3.48814 0
M  V30 5436 H 525.353 2.94405 -6.09635 0
M  V30 5437 H 529.995 2.76521 -3.19837 0
M  V30 5438 H 527.713 2.61011 -7.64787 0
M  V30 5439 H 531.299 2.45119 -5.27644 0
M  V30 5440 H 530.179 2.37651 -7.47323 0
M  V30 5441 N 527.682 1.05563 1.17022 0
M  V30 5442 C 529.098 0.777684 1.39371 0
M  V30 5443 C 529.298 -0.626269 1.91521 0
M  V30 5444 O 528.354 -1.38806 2.10924 0
M  V30 5445 C 529.667 1.83642 2.3811 0
M  V30 5446 C 531.215 1.85907 2.51809 0
M  V30 5447 C 531.69 2.90813 3.53824 0
M  V30 5448 N 533.181 2.898 3.61345 0
M  V30 5449 C 533.916 3.6762 4.40049 0
M  V30 5450 N 533.412 4.55237 5.22237 0
M  V30 5451 N 535.205 3.56044 4.34959 0
M  V30 5452 H 527.356 1.9614 0.815047 0
M  V30 5453 H 529.619 0.849527 0.420722 0
M  V30 5454 H 529.325 2.84425 2.06871 0
M  V30 5455 H 529.199 1.6812 3.37662 0
M  V30 5456 H 531.586 0.857865 2.82356 0
M  V30 5457 H 531.667 2.05506 1.52318 0
M  V30 5458 H 531.311 3.91122 3.24015 0
M  V30 5459 H 531.241 2.68465 4.53028 0
M  V30 5460 H 533.732 2.26274 3.02669 0
M  V30 5461 H 534.045 5.11291 5.79484 0
M  V30 5462 H 532.39 4.59296 5.21605 0
M  V30 5463 H 535.581 2.86986 3.69806 0
M  V30 5464 H 535.754 4.16938 4.96051 0
M  V30 5465 N 529.16 -1.33526 0.837174 0
M  V30 5466 C 530.39 -2.01754 0.444848 0
M  V30 5467 C 530.798 -1.63149 -0.958072 0
M  V30 5468 O 530.141 -0.839827 -1.63379 0
M  V30 5469 C 530.203 -3.56228 0.483917 0
M  V30 5470 C 529.867 -4.18205 1.84265 0
M  V30 5471 C 530.864 -4.37699 2.80563 0
M  V30 5472 C 528.549 -4.54667 2.13503 0
M  V30 5473 C 530.543 -4.928 4.04261 0
M  V30 5474 C 528.23 -5.09475 3.37458 0
M  V30 5475 C 529.228 -5.28488 4.32654 0
M  V30 5476 O 528.916 -5.82132 5.54417 0
M  V30 5477 H 528.648 -0.652928 0.175104 0
M  V30 5478 H 531.202 -1.71469 1.13082 0
M  V30 5479 H 529.432 -3.85833 -0.258826 0
M  V30 5480 H 531.121 -4.05752 0.109653 0
M  V30 5481 H 531.887 -4.0988 2.59274 0
M  V30 5482 H 527.766 -4.39164 1.40201 0
M  V30 5483 H 531.31 -5.07555 4.78574 0
M  V30 5484 H 527.207 -5.36725 3.58604 0
M  V30 5485 H 527.975 -6.00548 5.56133 0
M  V30 5486 N 530.638 -0.59345 -1.46 0
M  V30 5487 C 531.585 0.133618 -2.30413 0
M  V30 5488 C 532.555 0.873736 -1.41262 0
M  V30 5489 O 533.74 0.862279 -1.70204 0
M  V30 5490 C 530.88 1.13434 -3.25924 0
M  V30 5491 C 529.993 0.39656 -4.30176 0
M  V30 5492 C 529.128 1.38575 -5.12806 0
M  V30 5493 C 528.167 0.634984 -6.08797 0
M  V30 5494 N 527.304 1.57276 -6.84258 0
M  V30 5495 H 532.144 -0.592252 -2.92055 0
M  V30 5496 H 529.681 -0.303874 -1.43927 0
M  V30 5497 H 531.639 1.72752 -3.79753 0
M  V30 5498 H 530.269 1.82779 -2.66067 0
M  V30 5499 H 529.321 -0.311861 -3.79119 0
M  V30 5500 H 530.633 -0.189869 -4.98438 0
M  V30 5501 H 529.787 2.05141 -5.70966 0
M  V30 5502 H 528.526 2.00611 -4.44529 0
M  V30 5503 H 527.531 -0.0443925 -5.49782 0
M  V30 5504 H 528.756 0.0198678 -6.79097 0
M  V30 5505 H 526.702 2.18103 -6.18682 0
M  V30 5506 H 526.619 1.03941 -7.48821 0
M  V30 5507 H 527.887 2.22844 -7.46968 0
M  V30 5508 N 532.116 1.54067 -0.331816 0
M  V30 5509 C 533.362 2.01012 0.268667 0
M  V30 5510 C 533.695 1.2195 1.51136 0
M  V30 5511 O 532.97 0.303972 1.9211 0
M  V30 5512 C 533.253 3.55158 0.59456 0
M  V30 5513 C 533.106 4.4494 -0.659409 0
M  V30 5514 C 534.425 4.16939 1.4089 0
M  V30 5515 H 531.544 0.730698 0.0961756 0
M  V30 5516 H 534.186 1.84593 -0.450031 0
M  V30 5517 H 532.336 3.6928 1.20685 0
M  V30 5518 H 534.008 4.42675 -1.29756 0
M  V30 5519 H 532.251 4.1428 -1.28665 0
M  V30 5520 H 532.922 5.50643 -0.386804 0
M  V30 5521 H 535.398 4.06443 0.891272 0
M  V30 5522 H 534.274 5.24889 1.60569 0
M  V30 5523 H 534.535 3.70798 2.40752 0
M  V30 5524 N 533.594 0.0601682 1.57485 0
M  V30 5525 C 534.819 -0.624416 1.97777 0
M  V30 5526 C 535.244 -1.63051 0.937867 0
M  V30 5527 O 534.602 -1.81036 -0.0978845 0
M  V30 5528 C 534.65 -1.27979 3.37126 0
M  V30 5529 O 533.754 -2.39556 3.35688 0
M  V30 5530 H 533.095 -0.161581 0.64404 0
M  V30 5531 H 535.625 0.131237 2.04179 0
M  V30 5532 H 535.635 -1.62937 3.74053 0
M  V30 5533 H 534.31 -0.542501 4.12347 0
M  V30 5534 H 532.887 -2.06478 3.10517 0
M  V30 5535 N 535.072 -1.5615 -0.213296 0
M  V30 5536 C 536.318 -1.79812 -0.937849 0
M  V30 5537 C 536.651 -0.631201 -1.83656 0
M  V30 5538 O 535.926 0.369165 -1.90964 0
M  V30 5539 C 536.209 -3.13613 -1.76972 0
M  V30 5540 C 536.062 -4.40766 -0.89695 0
M  V30 5541 C 537.381 -3.43931 -2.7459 0
M  V30 5542 H 534.5 -0.654138 -0.339518 0
M  V30 5543 H 537.142 -1.88877 -0.20623 0
M  V30 5544 H 535.292 -3.06015 -2.39347 0
M  V30 5545 H 536.964 -4.60392 -0.289306 0
M  V30 5546 H 535.207 -4.33326 -0.202756 0
M  V30 5547 H 535.878 -5.30843 -1.51358 0
M  V30 5548 H 538.354 -3.5171 -2.22349 0
M  V30 5549 H 537.23 -4.38706 -3.29891 0
M  V30 5550 H 537.491 -2.6651 -3.52739 0
M  V30 5551 N 536.55 0.480323 -1.50102 0
M  V30 5552 C 537.778 1.25657 -1.64371 0
M  V30 5553 C 538.193 1.86011 -0.323316 0
M  V30 5554 O 537.55 1.68803 0.693682 0
M  V30 5555 C 537.601 2.37197 -2.728 0
M  V30 5556 O 537.322 1.7932 -3.9972 0
M  V30 5557 C 538.823 3.2823 -2.9796 0
M  V30 5558 H 536.043 0.380369 -0.552775 0
M  V30 5559 H 538.587 0.574379 -1.96268 0
M  V30 5560 H 536.742 3.01208 -2.43623 0
M  V30 5561 H 537.156 2.52701 -4.59611 0
M  V30 5562 H 538.63 4.02725 -3.77513 0
M  V30 5563 H 539.107 3.86462 -2.08671 0
M  V30 5564 H 539.713 2.69964 -3.28633 0
M  V30 5565 N 538.028 1.39524 0.732853 0
M  V30 5566 C 538.958 1.41153 1.86005 0
M  V30 5567 C 539.939 0.274614 1.67869 0
M  V30 5568 O 541.124 0.480745 1.88155 0
M  V30 5569 C 538.254 1.25638 3.23778 0
M  V30 5570 C 537.208 2.36752 3.56556 0
M  V30 5571 C 536.534 2.06326 4.93289 0
M  V30 5572 C 537.834 3.79069 3.5931 0
M  V30 5573 H 539.528 2.35484 1.84899 0
M  V30 5574 H 537.074 1.13348 0.888162 0
M  V30 5575 H 539.027 1.25398 4.0231 0
M  V30 5576 H 537.751 0.277772 3.25417 0
M  V30 5577 H 536.41 2.36213 2.80355 0
M  V30 5578 H 536.058 1.06897 4.9151 0
M  V30 5579 H 535.758 2.80757 5.16187 0
M  V30 5580 H 537.282 2.07739 5.74175 0
M  V30 5581 H 538.696 3.81526 4.27914 0
M  V30 5582 H 537.093 4.52878 3.93728 0
M  V30 5583 H 538.163 4.09893 2.59068 0
M  V30 5584 N 539.506 -0.963266 1.24736 0
M  V30 5585 C 540.731 -1.74699 1.11781 0
M  V30 5586 C 541.156 -1.85267 -0.325258 0
M  V30 5587 O 540.514 -1.32681 -1.23553 0
M  V30 5588 C 540.562 -3.14322 1.76731 0
M  V30 5589 O 539.666 -3.99043 1.04109 0
M  V30 5590 H 539.007 -0.53684 0.390767 0
M  V30 5591 H 541.537 -1.20801 1.65131 0
M  V30 5592 H 541.547 -3.64824 1.82668 0
M  V30 5593 H 540.222 -3.05946 2.81726 0
M  V30 5594 H 538.799 -3.5752 1.05991 0
M  V30 5595 N 540.985 -1.06182 -1.16461 0
M  V30 5596 C 542.233 -0.776326 -1.86595 0
M  V30 5597 C 542.554 0.69921 -1.82033 0
M  V30 5598 O 541.824 1.50579 -1.2531 0
M  V30 5599 H 540.404 -0.284184 -0.690832 0
M  V30 5600 H 543.066 -1.34308 -1.41235 0
M  V30 5601 H 542.162 -1.10022 -2.92064 0
M  V30 5602 N 542.463 1.3308 -0.844243 0
M  V30 5603 C 543.41 2.29104 -0.279323 0
M  V30 5604 C 544.38 1.54577 0.607882 0
M  V30 5605 O 545.565 1.8285 0.545009 0
M  V30 5606 C 542.705 3.40927 0.53508 0
M  V30 5607 C 541.818 4.30354 -0.376749 0
M  V30 5608 C 540.953 5.29297 0.449276 0
M  V30 5609 C 539.992 6.10365 -0.460606 0
M  V30 5610 N 539.129 7.01335 0.327612 0
M  V30 5611 H 543.969 2.76817 -1.10346 0
M  V30 5612 H 541.506 1.36203 -0.555611 0
M  V30 5613 H 543.464 4.04469 1.02278 0
M  V30 5614 H 542.094 2.94391 1.32414 0
M  V30 5615 H 541.146 3.67485 -0.982791 0
M  V30 5616 H 542.458 4.87067 -1.07549 0
M  V30 5617 H 541.612 5.98392 1.00058 0
M  V30 5618 H 540.351 4.73174 1.18143 0
M  V30 5619 H 539.356 5.40182 -1.02388 0
M  V30 5620 H 540.581 6.68571 -1.1912 0
M  V30 5621 H 538.527 6.47655 1.04305 0
M  V30 5622 H 538.444 7.55355 -0.3123 0
M  V30 5623 H 539.712 7.74731 0.86098 0
M  V30 5624 N 543.941 0.601185 1.45683 0
M  V30 5625 C 544.851 -0.123395 2.34275 0
M  V30 5626 C 545.867 -0.86702 1.5086 0
M  V30 5627 O 547.043 -0.826049 1.8368 0
M  V30 5628 C 544.108 -1.11237 3.2837 0
M  V30 5629 C 543.169 -0.371405 4.2769 0
M  V30 5630 C 542.402 -1.31327 5.1729 0
M  V30 5631 O 542.625 -2.55078 5.10188 0
M  V30 5632 O 541.559 -0.813811 5.96373 0
M  V30 5633 H 545.385 0.604483 2.97623 0
M  V30 5634 H 542.97 0.361477 1.44961 0
M  V30 5635 H 544.852 -1.68214 3.8637 0
M  V30 5636 H 543.527 -1.82139 2.67595 0
M  V30 5637 H 542.434 0.24067 3.73325 0
M  V30 5638 H 543.767 0.296998 4.91303 0
M  V30 5639 N 545.419 -1.53889 0.339982 0
M  V30 5640 C 546.366 -2.24902 -0.518452 0
M  V30 5641 C 547.336 -1.24593 -1.09844 0
M  V30 5642 O 548.521 -1.53317 -1.13572 0
M  V30 5643 C 545.661 -3.02262 -1.66529 0
M  V30 5644 C 544.774 -4.17418 -1.11295 0
M  V30 5645 C 543.909 -4.82273 -2.2268 0
M  V30 5646 C 542.948 -5.89503 -1.6478 0
M  V30 5647 N 542.085 -6.48153 -2.69893 0
M  V30 5648 H 546.925 -2.97853 0.0936579 0
M  V30 5649 H 544.462 -1.46986 0.0579924 0
M  V30 5650 H 546.42 -3.45371 -2.3404 0
M  V30 5651 H 545.05 -2.31614 -2.24844 0
M  V30 5652 H 544.102 -3.78976 -0.328886 0
M  V30 5653 H 545.414 -4.94554 -0.649414 0
M  V30 5654 H 544.568 -5.28435 -2.98063 0
M  V30 5655 H 543.307 -4.04552 -2.72376 0
M  V30 5656 H 542.312 -5.42728 -0.879004 0
M  V30 5657 H 543.537 -6.6913 -1.1594 0
M  V30 5658 H 541.483 -5.73298 -3.1885 0
M  V30 5659 H 541.4 -7.20752 -2.28151 0
M  V30 5660 H 542.668 -6.98968 -3.45056 0
M  V30 5661 N 546.897 -0.0685191 -1.57451 0
M  V30 5662 C 548.143 0.602239 -1.93652 0
M  V30 5663 C 548.476 1.6946 -0.948526 0
M  V30 5664 O 547.751 1.94487 0.022782 0
M  V30 5665 C 548.034 1.18223 -3.4014 0
M  V30 5666 C 547.887 0.0967431 -4.49696 0
M  V30 5667 C 549.206 2.08872 -3.87377 0
M  V30 5668 H 546.325 0.217453 -0.70419 0
M  V30 5669 H 548.967 -0.133821 -1.89528 0
M  V30 5670 H 547.117 1.80953 -3.43785 0
M  V30 5671 H 548.789 -0.536155 -4.58174 0
M  V30 5672 H 547.032 -0.573063 -4.29998 0
M  V30 5673 H 547.703 0.542894 -5.49324 0
M  V30 5674 H 550.179 1.56081 -3.85717 0
M  V30 5675 H 549.055 2.46389 -4.90493 0
M  V30 5676 H 549.316 2.99572 -3.25129 0
M  V30 5677 N 548.375 1.56261 0.205012 0
M  V30 5678 C 549.323 1.94631 1.27364 0
M  V30 5679 C 550.317 0.830434 1.47649 0
M  V30 5680 O 551.523 1.01538 1.48627 0
M  V30 5681 H 547.898 0.618755 0.427371 0
M  V30 5682 H 549.869 2.83768 0.922941 0
M  V30 5683 C 548.618 2.29358 2.61324 0
M  V30 5684 H 547.941 3.14744 2.46528 0
M  V30 5685 H 549.381 2.60076 3.34868 0
M  V30 5686 C 547.84 1.12461 3.17575 0
M  V30 5687 O 548.37 0.394407 3.99759 0
M  V30 5688 N 546.576 0.904036 2.7618 0
M  V30 5689 H 546.123 1.49956 2.09454 0
M  V30 5690 H 546.081 0.123662 3.14157 0
M  V30 5691 N 549.853 -0.472356 1.50355 0
M  V30 5692 C 551.101 -1.22211 1.60962 0
M  V30 5693 C 551.422 -1.92497 0.311439 0
M  V30 5694 O 550.692 -1.8405 -0.671002 0
M  V30 5695 H 549.272 -0.454092 0.593135 0
M  V30 5696 H 551.934 -0.544977 1.87126 0
M  V30 5697 H 551.03 -1.9707 2.42012 0
M  V30 5698 N 551.331 -1.39911 -0.725443 0
M  V30 5699 C 552.561 -1.40744 -1.51244 0
M  V30 5700 C 552.969 -0.00275403 -1.892 0
M  V30 5701 O 552.312 0.981299 -1.55294 0
M  V30 5702 C 552.374 -2.22527 -2.82351 0
M  V30 5703 C 552.038 -3.71053 -2.66774 0
M  V30 5704 C 553.035 -4.63916 -2.34686 0
M  V30 5705 C 550.72 -4.14753 -2.83347 0
M  V30 5706 C 552.714 -5.98463 -2.19366 0
M  V30 5707 C 550.401 -5.49372 -2.67644 0
M  V30 5708 C 551.399 -6.41042 -2.357 0
M  V30 5709 O 551.087 -7.73181 -2.20107 0
M  V30 5710 H 550.819 -0.482314 -0.473655 0
M  V30 5711 H 553.373 -1.84472 -0.903284 0
M  V30 5712 H 551.603 -1.73563 -3.45562 0
M  V30 5713 H 553.292 -2.15421 -3.44018 0
M  V30 5714 H 554.058 -4.31453 -2.21525 0
M  V30 5715 H 549.937 -3.43728 -3.072 0
M  V30 5716 H 553.481 -6.69979 -1.94354 0
M  V30 5717 H 549.378 -5.81424 -2.80387 0
M  V30 5718 H 550.146 -7.84008 -2.35103 0
M  V30 5719 N 552.809 0.956637 -1.25245 0
M  V30 5720 C 554.058 1.69537 -1.0927 0
M  V30 5721 C 554.371 1.92136 0.366503 0
M  V30 5722 O 555.577 2.63687 0.64665 0
M  V30 5723 C 554.033 3.05211 -1.9072 0
M  V30 5724 C 553.641 2.90416 -3.41119 0
M  V30 5725 C 555.385 3.82882 -1.83308 0
M  V30 5726 C 553.292 4.21468 -4.14872 0
M  V30 5727 H 552.222 0.635804 -0.405302 0
M  V30 5728 H 554.873 1.06513 -1.49423 0
M  V30 5729 H 553.255 3.69128 -1.43389 0
M  V30 5730 H 554.429 2.35444 -3.9611 0
M  V30 5731 H 552.744 2.26203 -3.49602 0
M  V30 5732 H 555.341 4.79944 -2.35706 0
M  V30 5733 H 555.684 4.0853 -0.800572 0
M  V30 5734 H 556.217 3.25711 -2.28379 0
M  V30 5735 H 552.956 4.01009 -5.18529 0
M  V30 5736 H 552.476 4.76213 -3.64665 0
M  V30 5737 H 554.155 4.90022 -4.22478 0
M  V30 5738 N 554.287 1.06798 1.15896 0
M  V30 5739 C 555.703 0.792423 1.38538 0
M  V30 5740 C 555.903 -0.60592 1.92174 0
M  V30 5741 O 554.959 -1.36561 2.12385 0
M  V30 5742 C 556.272 1.86157 2.36149 0
M  V30 5743 C 557.82 1.88567 2.49823 0
M  V30 5744 C 558.295 2.9455 3.5072 0
M  V30 5745 N 559.786 2.93616 3.58251 0
M  V30 5746 C 560.521 3.72267 4.36125 0
M  V30 5747 N 560.017 4.60751 5.17379 0
M  V30 5748 N 561.81 3.60637 4.31158 0
M  V30 5749 H 553.961 1.96993 0.794198 0
M  V30 5750 H 556.224 0.853942 0.411688 0
M  V30 5751 H 555.93 2.86603 2.03843 0
M  V30 5752 H 555.804 1.71692 3.3586 0
M  V30 5753 H 558.191 0.887765 2.8143 0
M  V30 5754 H 558.272 2.0711 1.5013 0
M  V30 5755 H 557.916 3.94537 3.19849 0
M  V30 5756 H 557.846 2.73255 4.50155 0
M  V30 5757 H 560.337 2.29472 3.00252 0
M  V30 5758 H 560.65 5.17408 5.74028 0
M  V30 5759 H 558.995 4.64803 5.16704 0
M  V30 5760 H 562.186 2.90892 3.66742 0
M  V30 5761 H 562.359 4.22176 4.91601 0
M  V30 5762 N 555.766 -1.3263 0.851289 0
M  V30 5763 C 557.015 -1.96633 0.449267 0
M  V30 5764 C 557.328 -1.68131 -0.999562 0
M  V30 5765 O 558.534 -2.25845 -1.50685 0
M  V30 5766 C 556.99 -3.51946 0.752446 0
M  V30 5767 C 556.598 -3.89311 2.21678 0
M  V30 5768 C 558.342 -4.22437 0.417983 0
M  V30 5769 C 556.249 -5.37655 2.46336 0
M  V30 5770 H 555.179 -0.735888 0.164269 0
M  V30 5771 H 557.83 -1.51073 1.0416 0
M  V30 5772 H 556.212 -3.95899 0.0895858 0
M  V30 5773 H 557.386 -3.56378 2.92115 0
M  V30 5774 H 555.701 -3.31836 2.51543 0
M  V30 5775 H 558.298 -5.31549 0.579674 0
M  V30 5776 H 558.641 -4.11349 -0.640115 0
M  V30 5777 H 559.174 -3.84057 1.03659 0
M  V30 5778 H 555.913 -5.5376 3.50757 0
M  V30 5779 H 555.433 -5.72005 1.80473 0
M  V30 5780 H 557.112 -6.04695 2.30115 0
M  V30 5781 N 557.244 -0.608902 -1.45362 0
M  V30 5782 C 558.207 0.0992563 -2.28985 0
M  V30 5783 C 559.207 0.793841 -1.39838 0
M  V30 5784 O 560.397 0.641804 -1.61946 0
M  V30 5785 C 557.529 1.15073 -3.20891 0
M  V30 5786 H 558.722 -0.635964 -2.93079 0
M  V30 5787 H 556.275 -0.368007 -1.51906 0
M  V30 5788 H 557.01 1.91667 -2.616 0
M  V30 5789 H 556.795 0.656867 -3.86559 0
M  V30 5790 H 558.285 1.64665 -3.83765 0
M  V30 5791 N 558.722 1.53707 -0.348139 0
M  V30 5792 C 559.652 2.28111 0.498766 0
M  V30 5793 C 560.633 1.29851 1.09876 0
M  V30 5794 O 561.818 1.587 1.11928 0
M  V30 5795 C 558.948 3.05735 1.64753 0
M  V30 5796 C 557.902 4.11537 1.17565 0
M  V30 5797 C 557.228 4.77142 2.4133 0
M  V30 5798 C 558.528 5.21587 0.272844 0
M  V30 5799 H 560.222 2.99152 -0.121934 0
M  V30 5800 H 557.768 1.43875 -0.0600842 0
M  V30 5801 H 559.721 3.56526 2.24649 0
M  V30 5802 H 558.445 2.32354 2.2952 0
M  V30 5803 H 557.104 3.61665 0.599483 0
M  V30 5804 H 556.752 4.0035 3.04514 0
M  V30 5805 H 556.452 5.48626 2.10436 0
M  V30 5806 H 557.976 5.30719 3.01943 0
M  V30 5807 H 559.39 5.67986 0.778779 0
M  V30 5808 H 557.787 6.00074 0.0555849 0
M  V30 5809 H 558.857 4.79969 -0.689785 0
M  V30 5810 N 560.2 0.0768682 1.57412 0
M  V30 5811 C 561.43 -0.5991 1.97723 0
M  V30 5812 C 561.838 -1.63378 0.954166 0
M  V30 5813 O 561.181 -1.83578 -0.0668706 0
M  V30 5814 C 561.243 -1.32078 3.34358 0
M  V30 5815 C 560.907 -0.438985 4.54887 0
M  V30 5816 C 561.904 0.305492 5.19002 0
M  V30 5817 C 559.589 -0.362378 5.00991 0
M  V30 5818 C 561.583 1.11475 6.27576 0
M  V30 5819 C 559.27 0.450543 6.09437 0
M  V30 5820 C 560.268 1.18777 6.72593 0
M  V30 5821 O 559.956 1.98727 7.7895 0
M  V30 5822 H 559.688 -0.166725 0.655117 0
M  V30 5823 H 562.242 0.147337 2.04871 0
M  V30 5824 H 560.472 -2.1134 3.2384 0
M  V30 5825 H 562.161 -1.88949 3.5924 0
M  V30 5826 H 562.927 0.25593 4.84324 0
M  V30 5827 H 558.806 -0.925832 4.51608 0
M  V30 5828 H 562.35 1.69068 6.76803 0
M  V30 5829 H 558.247 0.501651 6.43548 0
M  V30 5830 H 559.015 1.91214 7.95851 0
M  V30 5831 N 561.678 -1.56367 -0.196722 0
M  V30 5832 C 562.926 -1.80172 -0.915554 0
M  V30 5833 C 563.247 -0.649649 -1.8386 0
M  V30 5834 O 562.517 0.332111 -1.93064 0
M  V30 5835 H 561.097 -0.664592 -0.341067 0
M  V30 5836 H 563.759 -1.93844 -0.202622 0
M  V30 5837 H 562.855 -2.7327 -1.50764 0
M  V30 5838 N 563.156 0.464375 -1.50603 0
M  V30 5839 C 564.381 1.24372 -1.65971 0
M  V30 5840 C 564.806 1.84901 -0.345453 0
M  V30 5841 O 564.164 1.67596 0.691457 0
M  V30 5842 C 564.212 2.32331 -2.7578 0
M  V30 5843 O 563.316 3.37146 -2.375 0
M  V30 5844 H 562.657 0.365604 -0.554283 0
M  V30 5845 H 565.187 0.55183 -1.97018 0
M  V30 5846 H 565.197 2.77539 -2.99059 0
M  V30 5847 H 563.872 1.87648 -3.71162 0
M  V30 5848 H 562.449 2.97602 -2.24694 0
M  V30 5849 N 564.634 1.40294 0.718013 0
M  V30 5850 C 565.582 1.40536 1.85344 0
M  V30 5851 C 566.576 0.286192 1.66965 0
M  V30 5852 O 567.782 0.457105 1.74099 0
M  V30 5853 H 564.157 0.439236 0.61039 0
M  V30 5854 H 566.128 2.36275 1.82255 0
M  V30 5855 C 564.877 1.28245 3.23185 0
M  V30 5856 H 564.2 2.1364 3.37932 0
M  V30 5857 H 565.64 1.32474 4.02774 0
M  V30 5858 C 564.099 -0.0075503 3.36899 0
M  V30 5859 O 564.629 -0.971391 3.89778 0
M  V30 5860 N 562.835 -0.0762479 2.905 0
M  V30 5861 H 562.382 0.708819 2.47656 0
M  V30 5862 H 562.34 -0.938846 3.00055 0
M  V30 5863 N 566.112 -0.949982 1.2575 0
M  V30 5864 C 567.022 -2.08109 1.08295 0
M  V30 5865 C 568.038 -1.7399 0.0188181 0
M  V30 5866 O 569.214 -2.00187 0.220724 0
M  V30 5867 C 566.279 -3.39383 0.708534 0
M  V30 5868 C 565.34 -3.8734 1.85111 0
M  V30 5869 C 564.573 -5.12349 1.49447 0
M  V30 5870 O 564.796 -5.6905 0.392212 0
M  V30 5871 O 563.73 -5.5513 2.32624 0
M  V30 5872 H 567.556 -2.25738 2.03165 0
M  V30 5873 H 565.141 -1.06545 1.04731 0
M  V30 5874 H 567.023 -4.18277 0.512061 0
M  V30 5875 H 565.698 -3.23013 -0.210854 0
M  V30 5876 H 564.605 -3.09429 2.10248 0
M  V30 5877 H 565.938 -4.08216 2.74991 0
M  V30 5878 N 567.59 -1.07411 -1.15328 0
M  V30 5879 C 568.538 -0.689316 -2.22151 0
M  V30 5880 C 569.532 0.300156 -1.6672 0
M  V30 5881 O 570.738 0.163804 -1.79253 0
M  V30 5882 H 567.113 -0.204834 -0.723566 0
M  V30 5883 H 569.084 -1.59988 -2.51886 0
M  V30 5884 C 567.833 -0.103848 -3.47545 0
M  V30 5885 H 567.156 -0.856367 -3.90521 0
M  V30 5886 H 568.596 0.127725 -4.23808 0
M  V30 5887 C 567.055 1.15563 -3.1646 0
M  V30 5888 O 567.585 2.242 -3.33312 0
M  V30 5889 N 565.791 1.06203 -2.70498 0
M  V30 5890 H 565.338 0.177933 -2.56985 0
M  V30 5891 H 565.296 1.90553 -2.50074 0
M  V30 5892 N 569.068 1.32177 -0.85831 0
M  V30 5893 C 570.293 2.01847 -0.476718 0
M  V30 5894 C 570.718 1.64065 0.920021 0
M  V30 5895 O 570.076 0.843189 1.60499 0
M  V30 5896 C 570.124 3.55097 -0.627578 0
M  V30 5897 O 569.228 4.11012 0.338086 0
M  V30 5898 H 568.569 0.635907 -0.191099 0
M  V30 5899 H 571.099 1.68641 -1.15851 0
M  V30 5900 H 571.109 4.04718 -0.516476 0
M  V30 5901 H 569.784 3.81938 -1.64609 0
M  V30 5902 H 568.361 3.72451 0.182917 0
M  V30 5903 N 570.547 0.616602 1.45037 0
M  V30 5904 C 571.494 -0.0969439 2.30596 0
M  V30 5905 C 572.464 -0.851151 1.42635 0
M  V30 5906 O 573.649 -0.835092 1.71554 0
M  V30 5907 C 570.789 -1.08234 3.27688 0
M  V30 5908 C 569.902 -0.328072 4.30752 0
M  V30 5909 C 569.037 -1.30399 5.14946 0
M  V30 5910 C 568.076 -0.538049 6.09731 0
M  V30 5911 N 567.213 -1.46371 6.86673 0
M  V30 5912 H 572.053 0.63864 2.91076 0
M  V30 5913 H 569.59 0.326733 1.43425 0
M  V30 5914 H 571.548 -1.66688 3.82454 0
M  V30 5915 H 570.178 -1.78523 2.68941 0
M  V30 5916 H 569.23 0.372136 3.78575 0
M  V30 5917 H 570.542 0.269142 4.98073 0
M  V30 5918 H 569.696 -1.96032 5.74157 0
M  V30 5919 H 568.435 -1.93514 4.47665 0
M  V30 5920 H 567.44 0.131852 5.49642 0
M  V30 5921 H 568.665 0.0881732 6.79043 0
M  V30 5922 H 566.611 -2.08233 6.22073 0
M  V30 5923 H 566.528 -0.920152 7.50379 0
M  V30 5924 H 567.796 -2.10932 7.50418 0
M  V30 5925 N 572.025 -1.5352 0.356285 0
M  V30 5926 C 572.957 -2.23009 -0.529127 0
M  V30 5927 C 573.97 -1.241 -1.05371 0
M  V30 5928 O 575.159 -1.50379 -0.961679 0
M  V30 5929 C 572.259 -2.90685 -1.74229 0
M  V30 5930 C 571.432 -4.16019 -1.35081 0
M  V30 5931 C 570.491 -4.66989 -2.42502 0
M  V30 5932 O 569.517 -5.30895 -2.05279 0
M  V30 5933 N 570.719 -4.44006 -3.7395 0
M  V30 5934 H 573.484 -2.99627 0.0660501 0
M  V30 5935 H 571.045 -1.60885 0.181014 0
M  V30 5936 H 573.037 -3.21695 -2.4555 0
M  V30 5937 H 571.607 -2.17575 -2.24454 0
M  V30 5938 H 570.827 -3.91414 -0.467833 0
M  V30 5939 H 572.115 -4.9752 -1.06542 0
M  V30 5940 H 571.513 -3.92924 -4.06973 0
M  V30 5941 H 570.07 -4.7959 -4.41403 0
M  V30 5942 N 573.503 -0.0852151 -1.57369 0
M  V30 5943 C 574.733 0.588605 -1.98038 0
M  V30 5944 C 575.141 1.62869 -0.962817 0
M  V30 5945 O 574.484 1.83611 0.057134 0
M  V30 5946 C 574.546 1.30303 -3.35054 0
M  V30 5947 C 574.21 0.414855 -4.55113 0
M  V30 5948 C 575.207 -0.333011 -5.18832 0
M  V30 5949 C 572.892 0.335804 -5.01176 0
M  V30 5950 C 574.886 -1.14801 -6.26976 0
M  V30 5951 C 572.573 -0.482857 -6.09189 0
M  V30 5952 C 573.571 -1.22342 -6.71953 0
M  V30 5953 O 573.259 -2.02855 -7.77885 0
M  V30 5954 H 572.991 0.163249 -0.655992 0
M  V30 5955 H 575.545 -0.1582 -2.0479 0
M  V30 5956 H 573.775 2.0962 -3.24956 0
M  V30 5957 H 575.464 1.87041 -3.60237 0
M  V30 5958 H 576.23 -0.281611 -4.84182 0
M  V30 5959 H 572.109 0.901869 -4.52092 0
M  V30 5960 H 575.653 -1.72654 -6.75897 0
M  V30 5961 H 571.55 -0.535773 -6.43273 0
M  V30 5962 H 572.318 -1.95432 -7.94826 0
M  V30 5963 N 574.981 1.5647 0.188427 0
M  V30 5964 C 575.891 1.98285 1.2538 0
M  V30 5965 C 576.907 0.891535 1.49424 0
M  V30 5966 O 578.083 1.19782 1.61908 0
M  V30 5967 C 575.148 2.31965 2.57669 0
M  V30 5968 C 574.209 3.54838 2.41638 0
M  V30 5969 C 573.442 3.86901 3.67618 0
M  V30 5970 O 573.665 3.20163 4.72072 0
M  V30 5971 O 572.599 4.80309 3.62749 0
M  V30 5972 H 576.425 2.89145 0.928912 0
M  V30 5973 H 574.01 1.44112 0.393955 0
M  V30 5974 H 575.892 2.54673 3.35737 0
M  V30 5975 H 574.567 1.44271 2.89771 0
M  V30 5976 H 573.474 3.37369 1.61658 0
M  V30 5977 H 574.807 4.43019 2.14465 0
M  V30 5978 N 576.459 -0.456382 1.50847 0
M  V30 5979 C 577.708 -1.2042 1.61808 0
M  V30 5980 C 578.021 -1.9278 0.330932 0
M  V30 5981 O 579.227 -2.69612 0.319643 0
M  V30 5982 C 577.683 -2.18891 2.85683 0
M  V30 5983 C 577.291 -1.52267 4.2133 0
M  V30 5984 C 579.035 -2.94224 3.05994 0
M  V30 5985 C 576.942 -2.4911 5.36375 0
M  V30 5986 H 575.872 -0.453177 0.602616 0
M  V30 5987 H 578.523 -0.473144 1.77295 0
M  V30 5988 H 576.905 -2.95351 2.63787 0
M  V30 5989 H 578.079 -0.814949 4.53536 0
M  V30 5990 H 576.394 -0.891594 4.06743 0
M  V30 5991 H 578.991 -3.66732 3.89117 0
M  V30 5992 H 579.334 -3.54469 2.18306 0
M  V30 5993 H 579.867 -2.24874 3.28141 0
M  V30 5994 H 576.606 -1.93582 6.26264 0
M  V30 5995 H 576.126 -3.17991 5.08569 0
M  V30 5996 H 577.805 -3.10637 5.67551 0
M  V30 5997 N 577.937 -1.40673 -0.710563 0
M  V30 5998 C 579.184 -1.39222 -1.47049 0
M  V30 5999 C 579.512 0.0037691 -1.945 0
M  V30 6000 O 578.767 0.989224 -1.68857 0
M  V30 6001 C 579.066 -2.33253 -2.70791 0
M  V30 6002 C 578.732 -3.80406 -2.42079 0
M  V30 6003 C 577.394 -4.20496 -2.33959 0
M  V30 6004 C 579.746 -4.73375 -2.18094 0
M  V30 6005 C 577.074 -5.51584 -1.99929 0
M  V30 6006 C 579.426 -6.04768 -1.85576 0
M  V30 6007 C 578.09 -6.43895 -1.75941 0
M  V30 6008 H 577.36 -0.509449 -0.538092 0
M  V30 6009 H 580.007 -1.73363 -0.81348 0
M  V30 6010 H 578.312 -1.92314 -3.41354 0
M  V30 6011 H 580.009 -2.29412 -3.28894 0
M  V30 6012 H 576.599 -3.48645 -2.49288 0
M  V30 6013 H 580.783 -4.43217 -2.23321 0
M  V30 6014 H 576.039 -5.80797 -1.91011 0
M  V30 6015 H 580.213 -6.76318 -1.66033 0
M  V30 6016 H 577.84 -7.45387 -1.4934 0
M  V30 6017 N 579.415 0.9433 -1.26252 0
M  V30 6018 C 580.362 2.0417 -1.07625 0
M  V30 6019 C 581.332 1.6609 0.0180738 0
M  V30 6020 O 582.517 1.90276 -0.141289 0
M  V30 6021 C 579.657 3.37653 -0.713043 0
M  V30 6022 C 578.77 3.88783 -1.8834 0
M  V30 6023 C 577.905 5.10642 -1.4635 0
M  V30 6024 C 576.944 5.54028 -2.60229 0
M  V30 6025 N 576.081 6.67092 -2.18936 0
M  V30 6026 H 580.921 2.19436 -2.01623 0
M  V30 6027 H 578.458 1.07519 -1.00389 0
M  V30 6028 H 580.416 4.14391 -0.483358 0
M  V30 6029 H 579.046 3.22241 0.18996 0
M  V30 6030 H 578.098 3.08464 -2.22608 0
M  V30 6031 H 579.41 4.16922 -2.73821 0
M  V30 6032 H 578.564 5.94832 -1.19414 0
M  V30 6033 H 577.303 4.84244 -0.579568 0
M  V30 6034 H 576.308 4.68396 -2.87898 0
M  V30 6035 H 577.533 5.82429 -3.49219 0
M  V30 6036 H 575.479 6.42381 -1.32974 0
M  V30 6037 H 575.396 6.94806 -2.97961 0
M  V30 6038 H 576.664 7.54662 -1.95206 0
M  V30 6039 N 580.893 1.08022 1.14757 0
M  V30 6040 C 582.141 0.805913 1.85336 0
M  V30 6041 C 582.462 -0.670162 1.83122 0
M  V30 6042 O 581.732 -1.48567 1.2769 0
M  V30 6043 H 580.312 0.295138 0.686223 0
M  V30 6044 H 582.974 1.36538 1.3908 0
M  V30 6045 H 582.07 1.14655 2.90277 0
M  V30 6046 N 582.371 -1.3172 0.865308 0
M  V30 6047 C 583.596 -2.01591 0.487415 0
M  V30 6048 C 584.021 -1.6455 -0.911307 0
M  V30 6049 O 583.379 -0.851689 -1.6005 0
M  V30 6050 C 583.427 -3.54759 0.646401 0
M  V30 6051 O 582.531 -4.11185 -0.316284 0
M  V30 6052 H 581.872 -0.634884 0.194468 0
M  V30 6053 H 584.402 -1.68024 1.16744 0
M  V30 6054 H 584.412 -4.04438 0.537932 0
M  V30 6055 H 583.087 -3.8106 1.66632 0
M  V30 6056 H 581.664 -3.72543 -0.163162 0
M  V30 6057 N 583.85 -0.624285 -1.44708 0
M  V30 6058 C 584.779 0.0717025 -2.3339 0
M  V30 6059 C 585.76 0.841814 -1.47809 0
M  V30 6060 O 586.946 0.809056 -1.76544 0
M  V30 6061 C 584.076 1.05852 -3.30776 0
M  V30 6062 C 583.029 0.400503 -4.26122 0
M  V30 6063 C 582.356 1.49674 -5.13324 0
M  V30 6064 C 583.656 -0.688924 -5.17737 0
M  V30 6065 H 585.35 -0.668819 -2.91834 0
M  V30 6066 H 582.896 -0.32308 -1.40329 0
M  V30 6067 H 584.849 1.5541 -3.91696 0
M  V30 6068 H 583.572 1.82984 -2.70526 0
M  V30 6069 H 582.231 -0.0743687 -3.66525 0
M  V30 6070 H 581.88 2.25877 -4.49431 0
M  V30 6071 H 581.58 1.06188 -5.77926 0
M  V30 6072 H 583.104 1.99427 -5.77115 0
M  V30 6073 H 584.518 -0.276724 -5.72632 0
M  V30 6074 H 582.915 -1.04652 -5.90904 0
M  V30 6075 H 583.985 -1.55884 -4.5916 0
M  V30 6076 N 585.328 1.53329 -0.364422 0
M  V30 6077 C 586.275 2.25698 0.482607 0
M  V30 6078 C 587.245 1.26325 1.07848 0
M  V30 6079 O 588.43 1.55104 1.11119 0
M  V30 6080 C 585.57 3.04873 1.61699 0
M  V30 6081 C 584.683 4.19135 1.0464 0
M  V30 6082 C 583.818 4.85754 2.14979 0
M  V30 6083 C 582.857 5.9205 1.5538 0
M  V30 6084 N 581.994 6.52365 2.59547 0
M  V30 6085 H 586.834 2.97666 -0.141032 0
M  V30 6086 H 584.371 1.46875 -0.0813692 0
M  V30 6087 H 586.329 3.49051 2.28516 0
M  V30 6088 H 584.959 2.35162 2.2113 0
M  V30 6089 H 584.011 3.79451 0.268553 0
M  V30 6090 H 585.323 4.95525 0.570653 0
M  V30 6091 H 584.477 5.3311 2.89619 0
M  V30 6092 H 583.216 4.08834 2.65906 0
M  V30 6093 H 582.221 5.44058 0.792549 0
M  V30 6094 H 583.446 6.7089 1.0528 0
M  V30 6095 H 581.392 5.78298 3.09689 0
M  V30 6096 H 581.309 7.2429 2.16655 0
M  V30 6097 H 582.577 7.0437 3.33892 0
M  V30 6098 N 586.806 0.0935595 1.57322 0
M  V30 6099 C 588.217 -0.435807 1.81542 0
M  V30 6100 C 588.568 -1.68263 1.00907 0
M  V30 6101 O 587.693 -2.15087 0.237983 0
M  V30 6102 C 588.288 -0.797436 3.29282 0
M  V30 6103 C 586.847 -1.27155 3.54272 0
M  V30 6104 C 585.994 -0.267455 2.76007 0
M  V30 6105 H 588.945 0.31902 1.5546 0
M  V30 6106 H 588.966 -1.6571 3.42521 0
M  V30 6107 H 588.478 0.110206 3.87943 0
M  V30 6108 H 586.579 -2.19696 3.00939 0
M  V30 6109 H 586.692 -1.23445 4.62923 0
M  V30 6110 H 585.056 -0.749282 2.43429 0
M  V30 6111 H 585.839 0.632839 3.37417 0
M  V30 6112 N 588.284 -1.56567 -0.180126 0
M  V30 6113 C 589.561 -1.7235 -0.924931 0
M  V30 6114 C 589.941 -0.652523 -2.00762 0
M  V30 6115 O 589.289 0.334115 -2.26044 0
M  V30 6116 C 589.499 -3.1523 -1.49771 0
M  V30 6117 C 590.847 -3.75921 -1.97405 0
M  V30 6118 O 591.871 -3.18452 -1.59583 0
M  V30 6119 O 590.73 -4.7681 -2.67048 0
M  V30 6120 H 587.824 -0.703502 -0.434758 0
M  V30 6121 H 590.37 -1.6886 -0.168647 0
M  V30 6122 H 589.142 -3.84656 -0.718027 0
M  V30 6123 H 588.765 -3.23009 -2.31842 0
M  V30 6124 N 589.762 0.448376 -1.51087 0
M  V30 6125 C 590.725 1.52588 -1.71025 0
M  V30 6126 C 591.725 1.49958 -0.580442 0
M  V30 6127 O 592.915 1.52176 -0.847833 0
M  V30 6128 C 590.047 2.92163 -1.75652 0
M  V30 6129 H 591.24 1.36218 -2.67179 0
M  V30 6130 H 588.793 0.676313 -1.4091 0
M  V30 6131 H 589.528 3.13951 -0.812724 0
M  V30 6132 H 589.313 2.95478 -2.57751 0
M  V30 6133 H 590.803 3.70349 -1.92953 0
M  V30 6134 N 591.24 1.41047 0.703093 0
M  V30 6135 C 592.465 1.43537 1.49706 0
M  V30 6136 C 592.89 0.0401853 1.88057 0
M  V30 6137 O 592.248 -0.954785 1.54122 0
M  V30 6138 C 592.296 2.3433 2.74084 0
M  V30 6139 O 591.4 1.79515 3.71279 0
M  V30 6140 H 590.741 0.487454 0.450871 0
M  V30 6141 H 593.271 1.85422 0.86486 0
M  V30 6142 H 593.281 2.49947 3.22476 0
M  V30 6143 H 591.956 3.35708 2.45506 0
M  V30 6144 H 590.533 1.7331 3.30179 0
M  V30 6145 N 592.718 -0.936591 1.26751 0
M  V30 6146 C 593.668 -2.0219 1.05371 0
M  V30 6147 C 594.652 -1.60893 -0.0154112 0
M  V30 6148 O 595.844 -1.75843 0.202085 0
M  V30 6149 C 592.973 -3.36222 0.693541 0
M  V30 6150 C 592.059 -3.8399 1.80035 0
M  V30 6151 N 592.45 -4.0436 3.03852 0
M  V30 6152 C 590.748 -4.12945 1.685 0
M  V30 6153 C 591.449 -4.44 3.75818 0
M  V30 6154 N 590.425 -4.50966 3.03531 0
M  V30 6155 H 594.227 -2.15958 1.99347 0
M  V30 6156 H 591.741 -1.12277 1.17335 0
M  V30 6157 H 593.738 -4.13625 0.521513 0
M  V30 6158 H 592.398 -3.23821 -0.238693 0
M  V30 6159 H 593.409 -3.9092 3.39709 0
M  V30 6160 H 590.086 -4.09308 0.822986 0
M  V30 6161 H 591.476 -4.67914 4.82189 0
M  V30 6162 N 594.196 -1.08629 -1.14182 0
M  V30 6163 C 595.424 -0.838889 -1.8913 0
M  V30 6164 C 595.839 0.609153 -1.78703 0
M  V30 6165 O 595.196 1.41876 -1.14794 0
M  V30 6166 C 595.247 -1.25477 -3.39025 0
M  V30 6167 O 594.968 -2.64601 -3.49167 0
M  V30 6168 C 596.469 -1.03856 -4.30963 0
M  V30 6169 H 593.689 -0.302377 -0.599007 0
M  V30 6170 H 596.233 -1.44615 -1.44592 0
M  V30 6171 H 594.388 -0.691571 -3.81177 0
M  V30 6172 H 594.802 -2.81922 -4.42289 0
M  V30 6173 H 596.276 -1.37892 -5.345 0
M  V30 6174 H 596.753 0.0242522 -4.39193 0
M  V30 6175 H 597.359 -1.58731 -3.94569 0
M  V30 6176 N 595.674 1.31259 -0.872281 0
M  V30 6177 C 596.914 1.98418 -0.490894 0
M  V30 6178 C 597.278 1.67429 0.939755 0
M  V30 6179 O 598.479 2.27818 1.42661 0
M  V30 6180 C 596.75 3.49583 -0.743408 0
M  V30 6181 S 598.309 4.36359 -0.462226 0
M  V30 6182 H 595.127 0.687005 -0.183151 0
M  V30 6183 H 597.729 1.59619 -1.12881 0
M  V30 6184 H 596.433 3.69627 -1.78338 0
M  V30 6185 H 595.964 3.93291 -0.0925758 0
M  V30 6186 H 597.979 4.91173 0.704525 0
M  V30 6187 N 597.152 0.631951 1.44375 0
M  V30 6188 C 598.115 -0.0628142 2.29114 0
M  V30 6189 C 599.115 -0.771494 1.41084 0
M  V30 6190 O 600.305 -0.615959 1.62947 0
M  V30 6191 C 597.437 -1.09953 3.22681 0
M  V30 6192 H 598.63 0.682509 2.92031 0
M  V30 6193 H 596.183 0.392128 1.51301 0
M  V30 6194 H 596.918 -1.87481 2.64616 0
M  V30 6195 H 596.703 -0.595286 3.87555 0
M  V30 6196 H 598.193 -1.58538 3.86336 0
M  V30 6197 N 598.631 -1.53133 0.372548 0
M  V30 6198 C 599.88 -2.00539 -0.216115 0
M  V30 6199 C 600.193 -1.26374 -1.49295 0
M  V30 6200 O 601.399 -1.64404 -2.16064 0
M  V30 6201 C 599.855 -3.57253 -0.435678 0
M  V30 6202 C 599.463 -4.40302 0.82693 0
M  V30 6203 C 601.207 -4.12995 -0.981618 0
M  V30 6204 C 599.114 -5.88583 0.576567 0
M  V30 6205 H 598.044 -0.749246 -0.084536 0
M  V30 6206 H 600.695 -1.76771 0.492364 0
M  V30 6207 H 599.077 -3.77202 -1.20559 0
M  V30 6208 H 600.251 -4.32124 1.60017 0
M  V30 6209 H 598.566 -3.95699 1.29659 0
M  V30 6210 H 601.163 -5.21418 -1.18436 0
M  V30 6211 H 601.506 -3.68027 -1.94581 0
M  V30 6212 H 602.039 -3.96871 -0.271696 0
M  V30 6213 H 598.778 -6.37841 1.51128 0
M  V30 6214 H 598.298 -5.99592 -0.158047 0
M  V30 6215 H 599.977 -6.46676 0.204722 0
M  V30 6216 N 600.109 -0.101901 -1.5727 0
M  V30 6217 C 601.386 0.602832 -1.86079 0
M  V30 6218 C 601.766 1.85912 -1 0
M  V30 6219 O 601.114 2.28379 -0.0742488 0
M  V30 6220 C 601.324 0.911694 -3.36881 0
M  V30 6221 C 602.672 1.2722 -4.05093 0
M  V30 6222 O 603.696 1.0025 -3.41802 0
M  V30 6223 O 602.555 1.7776 -5.16782 0
M  V30 6224 H 599.649 0.302366 -0.769743 0
M  V30 6225 H 602.195 -0.135113 -1.69161 0
M  V30 6226 H 600.967 0.0207256 -3.91295 0
M  V30 6227 H 600.59 1.70538 -3.59169 0
M  V30 6228 N 601.587 1.56661 0.17182 0
M  V30 6229 C 602.833 1.82235 0.889845 0
M  V30 6230 C 603.166 0.679673 1.81918 0
M  V30 6231 O 602.441 -0.318404 1.91876 0
M  V30 6232 C 602.724 3.18195 1.68595 0
M  V30 6233 C 602.577 4.42989 0.779773 0
M  V30 6234 C 603.896 3.5109 2.65375 0
M  V30 6235 H 601.015 0.66291 0.322056 0
M  V30 6236 H 603.657 1.89358 0.15608 0
M  V30 6237 H 601.807 3.12253 2.3115 0
M  V30 6238 H 603.479 4.60997 0.16714 0
M  V30 6239 H 601.722 4.33711 0.0877964 0
M  V30 6240 H 602.393 5.3467 1.3723 0
M  V30 6241 H 604.869 3.57482 2.12946 0
M  V30 6242 H 603.745 4.47298 3.18144 0
M  V30 6243 H 604.006 2.75768 3.45549 0
M  V30 6244 N 603.065 -0.440357 1.51323 0
M  V30 6245 C 604.342 -1.20109 1.5438 0
M  V30 6246 C 604.722 -2.08866 0.306303 0
M  V30 6247 O 604.07 -2.1723 -0.708773 0
M  V30 6248 C 604.28 -2.00555 2.8562 0
M  V30 6249 C 605.628 -2.577 3.37455 0
M  V30 6250 O 606.652 -2.10769 2.8715 0
M  V30 6251 O 605.511 -3.43289 4.25224 0
M  V30 6252 H 602.605 -0.546668 0.620551 0
M  V30 6253 H 605.151 -0.449672 1.63634 0
M  V30 6254 H 603.923 -1.35346 3.67147 0
M  V30 6255 H 603.546 -2.82768 2.79514 0
M  V30 6256 N 604.543 -1.41418 -0.695603 0
M  V30 6257 C 605.79 -1.40774 -1.45564 0
M  V30 6258 C 606.118 -0.0168604 -1.94493 0
M  V30 6259 O 605.373 0.971259 -1.69897 0
M  V30 6260 C 605.672 -2.36112 -2.68302 0
M  V30 6261 C 605.338 -3.82952 -2.38031 0
M  V30 6262 C 604 -4.22954 -2.29486 0
M  V30 6263 C 606.352 -4.75662 -2.13061 0
M  V30 6264 C 603.68 -5.53674 -1.94067 0
M  V30 6265 C 606.032 -6.06702 -1.79151 0
M  V30 6266 C 604.696 -6.45725 -1.69102 0
M  V30 6267 H 603.966 -0.515128 -0.532658 0
M  V30 6268 H 606.613 -1.74216 -0.795047 0
M  V30 6269 H 604.918 -1.95924 -3.39295 0
M  V30 6270 H 606.615 -2.32887 -3.26442 0
M  V30 6271 H 603.205 -3.5127 -2.45576 0
M  V30 6272 H 607.389 -4.45561 -2.18608 0
M  V30 6273 H 602.645 -5.8279 -1.8484 0
M  V30 6274 H 606.819 -6.78041 -1.5885 0
M  V30 6275 H 604.446 -7.46929 -1.41426 0
M  V30 6276 N 606.021 0.929856 -1.27246 0
M  V30 6277 C 606.969 2.05151 -1.09616 0
M  V30 6278 C 607.963 1.69388 -0.0198617 0
M  V30 6279 O 609.169 1.79124 -0.177417 0
M  V30 6280 H 605.544 0.671909 -0.337701 0
M  V30 6281 H 607.515 2.17168 -2.04648 0
M  V30 6282 C 606.264 3.3934 -0.757851 0
M  V30 6283 H 605.587 3.67343 -1.57795 0
M  V30 6284 H 607.027 4.18603 -0.674358 0
M  V30 6285 C 605.486 3.32582 0.537658 0
M  V30 6286 O 606.016 3.69633 1.57271 0
M  V30 6287 N 604.222 2.8568 0.532478 0
M  V30 6288 H 603.769 2.55725 -0.310233 0
M  V30 6289 H 603.727 2.81541 1.39936 0
M  V30 6290 N 607.499 1.09233 1.13605 0
M  V30 6291 C 608.745 0.828385 1.8511 0
M  V30 6292 C 609.078 -0.64437 1.83198 0
M  V30 6293 O 608.353 -1.47428 1.26867 0
M  V30 6294 C 608.636 1.36167 3.33363 0
M  V30 6295 C 608.489 2.90038 3.438 0
M  V30 6296 C 609.808 0.993819 4.28732 0
M  V30 6297 H 606.927 0.30239 0.672108 0
M  V30 6298 H 609.569 1.35339 1.33355 0
M  V30 6299 H 607.719 0.9151 3.77569 0
M  V30 6300 H 609.391 3.43128 3.08319 0
M  V30 6301 H 607.634 3.27271 2.84739 0
M  V30 6302 H 608.305 3.22428 4.48045 0
M  V30 6303 H 610.781 1.37893 3.92587 0
M  V30 6304 H 609.657 1.39403 5.30903 0
M  V30 6305 H 609.918 -0.0982206 4.41991 0
M  V30 6306 N 608.977 -1.30795 0.87923 0
M  V30 6307 C 610.225 -1.95974 0.493809 0
M  V30 6308 C 610.546 -1.69787 -0.959021 0
M  V30 6309 O 609.816 -1.01832 -1.67353 0
M  V30 6310 H 608.396 -0.725083 0.179622 0
M  V30 6311 H 611.058 -1.59432 1.12105 0
M  V30 6312 H 610.154 -3.05058 0.659263 0
M  V30 6313 N 610.455 -0.639598 -1.44038 0
M  V30 6314 C 611.402 0.0602458 -2.30721 0
M  V30 6315 C 612.372 0.828352 -1.43971 0
M  V30 6316 O 613.557 0.807693 -1.72861 0
M  V30 6317 C 610.697 1.03008 -3.29368 0
M  V30 6318 C 609.81 0.259502 -4.3122 0
M  V30 6319 C 608.945 1.22191 -5.16955 0
M  V30 6320 C 607.984 0.440978 -6.10509 0
M  V30 6321 N 607.121 1.35428 -6.88915 0
M  V30 6322 H 611.961 -0.684867 -2.90023 0
M  V30 6323 H 609.498 -0.349509 -1.42888 0
M  V30 6324 H 611.456 1.60583 -3.85057 0
M  V30 6325 H 610.086 1.74222 -2.71747 0
M  V30 6326 H 609.138 -0.432317 -3.77935 0
M  V30 6327 H 610.45 -0.348347 -4.97582 0
M  V30 6328 H 609.604 1.86873 -5.77203 0
M  V30 6329 H 608.343 1.86367 -4.50687 0
M  V30 6330 H 607.348 -0.219279 -5.49363 0
M  V30 6331 H 608.573 -0.196192 -6.78817 0
M  V30 6332 H 606.519 1.9831 -6.25307 0
M  V30 6333 H 606.436 0.800657 -7.51748 0
M  V30 6334 H 607.704 1.98967 -7.53679 0
M  V30 6335 N 611.933 1.52934 -0.380664 0
M  V30 6336 C 613.182 2.00651 0.205477 0
M  V30 6337 C 613.495 1.27164 1.48623 0
M  V30 6338 O 614.701 1.65547 2.15189 0
M  V30 6339 C 613.157 3.57479 0.416726 0
M  V30 6340 C 612.765 4.39857 -0.850268 0
M  V30 6341 C 614.509 4.13509 0.959702 0
M  V30 6342 C 612.416 5.88269 -0.607773 0
M  V30 6343 H 611.346 0.749684 0.0805614 0
M  V30 6344 H 613.997 1.76508 -0.501732 0
M  V30 6345 H 612.379 3.77836 1.18557 0
M  V30 6346 H 613.553 4.31269 -1.62307 0
M  V30 6347 H 611.868 3.95005 -1.31756 0
M  V30 6348 H 614.465 5.22039 1.15669 0
M  V30 6349 H 614.808 3.69054 1.92626 0
M  V30 6350 H 615.341 3.9701 0.250645 0
M  V30 6351 H 612.08 6.3703 -1.54509 0
M  V30 6352 H 611.6 5.99667 0.126247 0
M  V30 6353 H 613.279 6.46558 -0.239014 0
M  V30 6354 N 613.412 0.11024 1.57214 0
M  V30 6355 C 614.344 -0.873497 2.11902 0
M  V30 6356 C 615.357 -1.23588 1.05971 0
M  V30 6357 O 616.546 -1.18636 1.33371 0
M  V30 6358 C 613.646 -2.17805 2.59643 0
M  V30 6359 C 612.819 -1.98869 3.89576 0
M  V30 6360 C 611.878 -3.12974 4.23006 0
M  V30 6361 O 610.904 -2.86272 4.91973 0
M  V30 6362 N 612.106 -4.39167 3.79622 0
M  V30 6363 H 614.871 -0.406317 2.96933 0
M  V30 6364 H 612.432 -0.074437 1.61729 0
M  V30 6365 H 614.424 -2.93117 2.79042 0
M  V30 6366 H 612.994 -2.55899 1.7954 0
M  V30 6367 H 612.214 -1.078 3.79174 0
M  V30 6368 H 613.502 -1.83512 4.74553 0
M  V30 6369 H 612.9 -4.63739 3.2398 0
M  V30 6370 H 611.457 -5.11379 4.04147 0
M  V30 6371 N 614.89 -1.56749 -0.16351 0
M  V30 6372 C 615.837 -1.97011 -1.2023 0
M  V30 6373 C 616.807 -0.835186 -1.43575 0
M  V30 6374 O 617.992 -1.09594 -1.56185 0
M  V30 6375 C 615.132 -2.34186 -2.53478 0
M  V30 6376 C 614.245 -3.60893 -2.37446 0
M  V30 6377 C 613.38 -3.87245 -3.63614 0
M  V30 6378 C 612.419 -5.07274 -3.42548 0
M  V30 6379 N 611.556 -5.29719 -4.60806 0
M  V30 6380 H 616.396 -2.85562 -0.851958 0
M  V30 6381 H 613.933 -1.41292 -0.409257 0
M  V30 6382 H 615.891 -2.53764 -3.31149 0
M  V30 6383 H 614.521 -1.48736 -2.86492 0
M  V30 6384 H 613.573 -3.49185 -1.50911 0
M  V30 6385 H 614.885 -4.48722 -2.1783 0
M  V30 6386 H 614.039 -4.07232 -4.49719 0
M  V30 6387 H 612.778 -2.97806 -3.86216 0
M  V30 6388 H 611.783 -4.87177 -2.5483 0
M  V30 6389 H 613.008 -5.98251 -3.2136 0
M  V30 6390 H 610.954 -4.43233 -4.83612 0
M  V30 6391 H 610.871 -6.11786 -4.44132 0
M  V30 6392 H 612.139 -5.54192 -5.48171 0
M  V30 6393 N 616.368 0.432326 -1.51554 0
M  V30 6394 C 617.614 1.18309 -1.64714 0
M  V30 6395 C 617.947 1.90745 -0.364696 0
M  V30 6396 O 617.222 1.8381 0.635936 0
M  V30 6397 C 617.505 2.1961 -2.85383 0
M  V30 6398 C 617.358 1.51223 -4.23617 0
M  V30 6399 C 618.677 3.20538 -3.01569 0
M  V30 6400 H 615.796 0.428751 -0.599451 0
M  V30 6401 H 618.438 0.471689 -1.84052 0
M  V30 6402 H 616.588 2.8028 -2.69027 0
M  V30 6403 H 618.26 0.938516 -4.51652 0
M  V30 6404 H 616.503 0.814501 -4.26085 0
M  V30 6405 H 617.174 2.25024 -5.04052 0
M  V30 6406 H 619.65 2.69926 -3.16669 0
M  V30 6407 H 618.526 3.88706 -3.87555 0
M  V30 6408 H 618.787 3.86933 -2.13859 0
M  V30 6409 N 617.846 1.41785 0.688094 0
M  V30 6410 C 618.793 1.44221 1.80191 0
M  V30 6411 C 619.763 0.295688 1.63447 0
M  V30 6412 O 620.948 0.49783 1.84191 0
M  V30 6413 C 618.088 1.33743 3.1813 0
M  V30 6414 C 617.201 2.58325 3.46254 0
M  V30 6415 C 616.336 2.40086 4.73848 0
M  V30 6416 C 615.375 3.60107 4.94964 0
M  V30 6417 N 614.512 3.40892 6.13789 0
M  V30 6418 H 619.352 2.39411 1.77444 0
M  V30 6419 H 616.889 1.18876 0.866423 0
M  V30 6420 H 618.847 1.25669 3.97823 0
M  V30 6421 H 617.477 0.42157 3.20035 0
M  V30 6422 H 616.529 2.7682 2.60912 0
M  V30 6423 H 617.841 3.4758 3.57756 0
M  V30 6424 H 616.995 2.29522 5.61609 0
M  V30 6425 H 615.734 1.483 4.64606 0
M  V30 6426 H 614.739 3.71118 4.05649 0
M  V30 6427 H 615.964 4.52857 5.06061 0
M  V30 6428 H 613.91 2.51812 6.05745 0
M  V30 6429 H 613.827 4.23727 6.26092 0
M  V30 6430 H 615.095 3.34114 7.04264 0
M  V30 6431 N 619.324 -0.923095 1.27737 0
M  V30 6432 C 620.571 -1.67127 1.14345 0
M  V30 6433 C 620.899 -1.92017 -0.30982 0
M  V30 6434 O 620.154 -1.51185 -1.24264 0
M  V30 6435 C 620.453 -3.04125 1.8773 0
M  V30 6436 C 620.119 -2.98929 3.37568 0
M  V30 6437 C 618.781 -2.9722 3.78436 0
M  V30 6438 C 621.133 -2.89875 4.33154 0
M  V30 6439 C 618.461 -2.84244 5.13247 0
M  V30 6440 C 620.813 -2.7844 5.68026 0
M  V30 6441 C 619.477 -2.75083 6.08182 0
M  V30 6442 H 618.747 -0.611562 0.418417 0
M  V30 6443 H 621.394 -1.07618 1.584 0
M  V30 6444 H 619.699 -3.67366 1.36196 0
M  V30 6445 H 621.396 -3.609 1.74792 0
M  V30 6446 H 617.986 -3.0105 3.05069 0
M  V30 6447 H 622.17 -2.9029 4.02548 0
M  V30 6448 H 617.426 -2.80034 5.43499 0
M  V30 6449 H 621.6 -2.70401 6.4176 0
M  V30 6450 H 619.227 -2.64786 7.12596 0
M  V30 6451 N 620.802 -1.09834 -1.13024 0
M  V30 6452 C 621.732 -0.763451 -2.20666 0
M  V30 6453 C 622.713 0.260778 -1.68089 0
M  V30 6454 O 623.898 0.127915 -1.93778 0
M  V30 6455 C 621.028 -0.187744 -3.46792 0
M  V30 6456 C 619.982 -1.14196 -4.12484 0
M  V30 6457 C 619.308 -0.427755 -5.32986 0
M  V30 6458 C 620.608 -2.48607 -4.59338 0
M  V30 6459 H 622.302 -1.66347 -2.48936 0
M  V30 6460 H 619.848 -0.801261 -1.19649 0
M  V30 6461 H 621.801 0.0586375 -4.21359 0
M  V30 6462 H 620.525 0.747485 -3.17931 0
M  V30 6463 H 619.184 -1.37369 -3.3989 0
M  V30 6464 H 618.832 0.511747 -5.0039 0
M  V30 6465 H 618.532 -1.06403 -5.77886 0
M  V30 6466 H 620.056 -0.189772 -6.10305 0
M  V30 6467 H 621.47 -2.29618 -5.25308 0
M  V30 6468 H 619.867 -3.08062 -5.14993 0
M  V30 6469 H 620.937 -3.09062 -3.73642 0
M  V30 6470 N 622.28 1.30327 -0.886154 0
M  V30 6471 C 623.526 1.96764 -0.515312 0
M  V30 6472 C 623.881 1.68675 0.925552 0
M  V30 6473 O 623.174 0.981693 1.6454 0
M  V30 6474 C 623.368 3.49906 -0.728042 0
M  V30 6475 C 623.197 3.92881 -2.18803 0
M  V30 6476 C 621.967 4.18424 -2.83284 0
M  V30 6477 C 624.165 4.05617 -3.16195 0
M  V30 6478 N 622.147 4.47867 -4.19867 0
M  V30 6479 C 623.518 4.38957 -4.37855 0
M  V30 6480 C 625.573 3.88047 -3.11968 0
M  V30 6481 C 624.276 4.56559 -5.55829 0
M  V30 6482 C 626.302 4.06851 -4.29215 0
M  V30 6483 C 625.664 4.40538 -5.49641 0
M  V30 6484 H 621.763 0.74493 -0.237916 0
M  V30 6485 H 624.347 1.57536 -1.14414 0
M  V30 6486 H 622.518 3.88187 -0.128696 0
M  V30 6487 H 624.25 4.03401 -0.323983 0
M  V30 6488 H 621.005 4.1167 -2.34146 0
M  V30 6489 H 621.429 4.66721 -4.90408 0
M  V30 6490 H 626.071 3.61078 -2.19961 0
M  V30 6491 H 623.789 4.8237 -6.4834 0
M  V30 6492 H 627.375 3.94724 -4.27416 0
M  V30 6493 H 626.255 4.54789 -6.38856 0
M  V30 6494 N 623.758 0.647228 1.43697 0
M  V30 6495 C 624.706 -0.0600105 2.32523 0
M  V30 6496 C 625.7 -0.819277 1.48271 0
M  V30 6497 O 626.906 -0.730356 1.64517 0
M  V30 6498 H 623.281 -0.0381872 0.75103 0
M  V30 6499 H 625.252 0.706978 2.89904 0
M  V30 6500 C 624.001 -1.0169 3.32497 0
M  V30 6501 H 623.324 -0.442083 3.97348 0
M  V30 6502 H 624.764 -1.48095 3.97296 0
M  V30 6503 C 623.223 -2.11002 2.6264 0
M  V30 6504 O 623.753 -3.19302 2.4374 0
M  V30 6505 N 621.959 -1.87388 2.22113 0
M  V30 6506 H 621.506 -0.993174 2.37684 0
M  V30 6507 H 621.464 -2.60723 1.75701 0
M  V30 6508 N 625.236 -1.5273 0.388769 0
M  V30 6509 C 626.183 -2.26437 -0.446639 0
M  V30 6510 C 627.153 -1.28025 -1.05824 0
M  V30 6511 O 628.338 -1.56852 -1.08637 0
M  V30 6512 C 625.478 -3.07407 -1.56828 0
M  V30 6513 C 624.591 -4.20747 -0.979589 0
M  V30 6514 C 623.726 -4.89113 -2.07224 0
M  V30 6515 C 622.765 -5.94447 -1.45942 0
M  V30 6516 N 621.902 -6.56411 -2.49135 0
M  V30 6517 H 626.742 -2.97404 0.18837 0
M  V30 6518 H 624.279 -1.46727 0.104725 0
M  V30 6519 H 626.237 -3.52642 -2.22934 0
M  V30 6520 H 624.867 -2.3865 -2.17361 0
M  V30 6521 H 623.919 -3.7983 -0.208151 0
M  V30 6522 H 625.231 -4.9637 -0.491747 0
M  V30 6523 H 624.385 -5.3765 -2.81101 0
M  V30 6524 H 623.124 -4.13013 -2.59368 0
M  V30 6525 H 622.129 -5.4525 -0.705894 0
M  V30 6526 H 623.354 -6.7248 -0.945932 0
M  V30 6527 H 621.3 -5.83152 -3.00449 0
M  V30 6528 H 621.217 -7.27645 -2.05105 0
M  V30 6529 H 622.485 -7.09592 -3.22644 0
M  V30 6530 N 626.714 -0.118576 -1.57153 0
M  V30 6531 C 628.13 0.238014 -1.57815 0
M  V30 6532 C 628.33 1.66747 -1.13127 0
M  V30 6533 O 627.386 2.38867 -0.818462 0
M  V30 6534 C 628.699 0.00508207 -3.007 0
M  V30 6535 C 630.247 0.0710139 -3.12919 0
M  V30 6536 C 630.722 -0.13422 -4.57803 0
M  V30 6537 N 632.213 -0.0801755 -4.63131 0
M  V30 6538 C 632.948 -0.213885 -5.73001 0
M  V30 6539 N 632.444 -0.403742 -6.91623 0
M  V30 6540 N 634.237 -0.15349 -5.6189 0
M  V30 6541 H 626.388 -1.05226 -1.84503 0
M  V30 6542 H 628.651 -0.414318 -0.852669 0
M  V30 6543 H 628.357 -0.983125 -3.3768 0
M  V30 6544 H 628.231 0.73714 -3.69927 0
M  V30 6545 H 630.618 1.04975 -2.75798 0
M  V30 6546 H 630.699 -0.692918 -2.46236 0
M  V30 6547 H 630.343 -1.10992 -4.95624 0
M  V30 6548 H 630.273 0.649692 -5.22577 0
M  V30 6549 H 632.764 0.0630689 -3.77847 0
M  V30 6550 H 633.077 -0.496645 -7.71202 0
M  V30 6551 H 631.422 -0.43971 -6.93608 0
M  V30 6552 H 634.613 -0.00613174 -4.681 0
M  V30 6553 H 634.786 -0.261138 -6.47474 0
M  V30 6554 N 628.193 1.56834 0.155195 0
M  V30 6555 C 629.441 1.82536 0.867462 0
M  V30 6556 C 629.762 0.698168 1.82073 0
M  V30 6557 O 629.032 -0.280807 1.93877 0
M  V30 6558 H 627.612 0.673401 0.323327 0
M  V30 6559 H 630.274 1.94313 0.151156 0
M  V30 6560 H 629.37 2.77171 1.43466 0
M  V30 6561 N 629.671 -0.424282 1.51781 0
M  V30 6562 C 630.92 -1.16961 1.64326 0
M  V30 6563 C 631.233 -1.92035 0.371749 0
M  V30 6564 O 632.439 -2.68873 0.37676 0
M  V30 6565 C 630.895 -2.12782 2.90262 0
M  V30 6566 C 630.503 -1.43295 4.24465 0
M  V30 6567 C 632.247 -2.87667 3.12166 0
M  V30 6568 C 630.154 -2.37676 5.41538 0
M  V30 6569 H 629.084 -0.440293 0.612093 0
M  V30 6570 H 631.735 -0.435431 1.78259 0
M  V30 6571 H 630.117 -2.8969 2.69992 0
M  V30 6572 H 631.291 -0.718564 4.55163 0
M  V30 6573 H 629.606 -0.805118 4.08542 0
M  V30 6574 H 632.203 -3.58395 3.96808 0
M  V30 6575 H 632.546 -3.49758 2.25776 0
M  V30 6576 H 633.079 -2.17863 3.32837 0
M  V30 6577 H 629.818 -1.80255 6.30229 0
M  V30 6578 H 629.338 -3.07132 5.15199 0
M  V30 6579 H 631.017 -2.98529 5.74012 0
M  V30 6580 N 631.149 -1.42148 -0.680565 0
M  V30 6581 C 632.097 -1.45401 -1.81552 0
M  V30 6582 C 633.091 -0.33036 -1.66147 0
M  V30 6583 O 634.297 -0.503103 -1.72826 0
M  V30 6584 H 630.672 -0.455265 -0.59853 0
M  V30 6585 H 632.643 -2.41024 -1.75926 0
M  V30 6586 C 631.392 -1.36769 -3.19671 0
M  V30 6587 H 630.715 -2.22525 -3.32149 0
M  V30 6588 H 632.155 -1.43106 -3.9912 0
M  V30 6589 C 630.614 -0.0817752 -3.36801 0
M  V30 6590 O 631.144 0.867707 -3.92216 0
M  V30 6591 N 629.35 -0.000799811 -2.906 0
M  V30 6592 H 628.897 -0.774231 -2.4569 0
M  V30 6593 H 628.855 0.858961 -3.02439 0
M  V30 6594 N 632.627 0.916307 -1.28225 0
M  V30 6595 C 633.557 2.0352 -1.14464 0
M  V30 6596 C 634.538 1.70045 -0.0430844 0
M  V30 6597 O 635.723 1.92954 -0.219619 0
M  V30 6598 C 632.853 3.37889 -0.803027 0
M  V30 6599 C 631.807 3.85516 -1.85908 0
M  V30 6600 C 631.133 5.1682 -1.37116 0
M  V30 6601 C 632.433 4.07655 -3.26519 0
M  V30 6602 H 634.127 2.1529 -2.08064 0
M  V30 6603 H 631.673 1.03446 -1.00174 0
M  V30 6604 H 633.626 4.15654 -0.693537 0
M  V30 6605 H 632.35 3.26164 0.168674 0
M  V30 6606 H 631.009 3.09953 -1.95767 0
M  V30 6607 H 630.657 5.01497 -0.38859 0
M  V30 6608 H 630.357 5.49657 -2.07728 0
M  V30 6609 H 631.881 5.97143 -1.27484 0
M  V30 6610 H 633.295 4.75953 -3.19596 0
M  V30 6611 H 631.692 4.51818 -3.94943 0
M  V30 6612 H 632.762 3.12553 -3.70727 0
M  V30 6613 N 634.105 1.10431 1.1244 0
M  V30 6614 C 635.33 0.869089 1.88313 0
M  V30 6615 C 635.755 -0.574912 1.79099 0
M  V30 6616 O 635.113 -1.40496 1.14589 0
M  V30 6617 C 635.161 1.32208 3.3549 0
M  V30 6618 O 634.265 0.487092 4.09513 0
M  V30 6619 H 633.606 0.313894 0.585121 0
M  V30 6620 H 636.136 1.47111 1.42195 0
M  V30 6621 H 636.146 1.31201 3.86329 0
M  V30 6622 H 634.821 2.37364 3.41513 0
M  V30 6623 H 633.398 0.562372 3.68635 0
M  V30 6624 N 635.583 -1.29855 0.893053 0
M  V30 6625 C 636.493 -2.31661 0.370157 0
M  V30 6626 C 637.509 -1.65677 -0.531723 0
M  V30 6627 O 638.685 -1.9691 -0.422902 0
M  V30 6628 C 635.75 -3.44388 -0.399741 0
M  V30 6629 C 634.811 -4.2598 0.532861 0
M  V30 6630 C 634.044 -5.33324 -0.200388 0
M  V30 6631 O 634.267 -5.52305 -1.42531 0
M  V30 6632 O 633.201 -6.00188 0.453668 0
M  V30 6633 H 637.027 -2.78354 1.2146 0
M  V30 6634 H 634.612 -1.34171 0.657153 0
M  V30 6635 H 636.494 -4.13037 -0.835358 0
M  V30 6636 H 635.169 -2.99815 -1.22035 0
M  V30 6637 H 634.076 -3.59998 1.01746 0
M  V30 6638 H 635.409 -4.74178 1.3197 0
M  V30 6639 N 637.061 -0.65484 -1.43351 0
M  V30 6640 C 638.472 -0.248506 -1.85039 0
M  V30 6641 C 638.823 1.20526 -1.54816 0
M  V30 6642 O 637.948 1.92016 -0.99794 0
M  V30 6643 C 638.543 -0.444241 -3.35875 0
M  V30 6644 C 637.102 -0.0922108 -3.76287 0
M  V30 6645 C 636.249 -0.746327 -2.67068 0
M  V30 6646 H 639.2 -0.8584 -1.33481 0
M  V30 6647 H 639.221 0.309762 -3.79237 0
M  V30 6648 H 638.733 -1.50239 -3.5784 0
M  V30 6649 H 636.834 0.96328 -3.59933 0
M  V30 6650 H 636.947 -0.518807 -4.76283 0
M  V30 6651 H 635.311 -0.179416 -2.54067 0
M  V30 6652 H 636.094 -1.80754 -2.91861 0
M  V30 6653 N 638.539 1.52521 -0.396863 0
M  V30 6654 C 639.486 2.26671 0.434624 0
M  V30 6655 C 640.456 1.28584 1.05144 0
M  V30 6656 O 641.641 1.57426 1.07804 0
M  V30 6657 C 638.781 3.08234 1.55196 0
M  V30 6658 C 637.894 4.21261 0.957262 0
M  V30 6659 C 637.029 4.90205 2.04627 0
M  V30 6660 C 636.068 5.95213 1.42787 0
M  V30 6661 N 635.205 6.57723 2.45651 0
M  V30 6662 H 640.045 2.973 -0.204139 0
M  V30 6663 H 637.582 1.46669 -0.112505 0
M  V30 6664 H 639.54 3.53819 2.2106 0
M  V30 6665 H 638.17 2.398 2.16092 0
M  V30 6666 H 637.222 3.79935 0.188005 0
M  V30 6667 H 638.534 4.96624 0.465416 0
M  V30 6668 H 637.688 5.39133 2.78246 0
M  V30 6669 H 636.427 4.14383 2.57174 0
M  V30 6670 H 635.432 5.45616 0.676968 0
M  V30 6671 H 636.657 6.72972 0.910255 0
M  V30 6672 H 634.603 5.84737 2.97353 0
M  V30 6673 H 634.52 7.28723 2.01243 0
M  V30 6674 H 635.788 7.11293 3.18876 0
M  V30 6675 N 640.017 0.126909 1.57088 0
M  V30 6676 C 640.947 -0.816847 2.18746 0
M  V30 6677 C 641.928 -1.27161 1.12979 0
M  V30 6678 O 643.113 -1.33279 1.41246 0
M  V30 6679 C 640.243 -2.06398 2.79315 0
M  V30 6680 C 639.197 -1.74673 3.90735 0
M  V30 6681 C 638.523 -3.06482 4.38147 0
M  V30 6682 C 639.823 -1.0089 5.12463 0
M  V30 6683 H 641.517 -0.303032 2.97863 0
M  V30 6684 H 639.063 -0.144314 1.43275 0
M  V30 6685 H 641.016 -2.72885 3.2111 0
M  V30 6686 H 639.74 -2.60118 1.975 0
M  V30 6687 H 638.399 -1.10572 3.49527 0
M  V30 6688 H 638.047 -3.58152 3.5318 0
M  V30 6689 H 637.747 -2.86025 5.13287 0
M  V30 6690 H 639.271 -3.74073 4.82599 0
M  V30 6691 H 640.685 -1.57546 5.51228 0
M  V30 6692 H 639.082 -0.905006 5.93237 0
M  V30 6693 H 640.152 0.00297335 4.849 0
M  V30 6694 N 641.495 -1.56914 -0.146875 0
M  V30 6695 C 642.743 -1.82994 -0.85777 0
M  V30 6696 C 643.064 -0.707814 -1.817 0
M  V30 6697 O 642.334 0.270521 -1.94023 0
M  V30 6698 H 640.914 -0.675106 -0.319751 0
M  V30 6699 H 643.576 -1.9439 -0.140849 0
M  V30 6700 H 642.672 -2.77928 -1.41994 0
M  V30 6701 N 642.974 0.416227 -1.52004 0
M  V30 6702 C 643.937 1.48926 -1.74223 0
M  V30 6703 C 644.937 1.48693 -0.612119 0
M  V30 6704 O 646.127 1.50343 -0.879921 0
M  V30 6705 C 643.259 2.88372 -1.81809 0
M  V30 6706 H 644.452 1.3052 -2.70008 0
M  V30 6707 H 642.005 0.646271 -1.42313 0
M  V30 6708 H 642.74 3.12157 -0.879135 0
M  V30 6709 H 642.525 2.89944 -2.6396 0
M  V30 6710 H 644.015 3.66173 -2.00766 0
M  V30 6711 N 644.452 1.42507 0.673017 0
M  V30 6712 C 645.677 1.4668 1.46627 0
M  V30 6713 C 646.102 0.080066 1.8793 0
M  V30 6714 O 645.46 -0.921879 1.56112 0
M  V30 6715 C 645.508 2.40091 2.69051 0
M  V30 6716 O 644.612 1.8735 3.67387 0
M  V30 6717 H 643.953 0.496908 0.44043 0
M  V30 6718 H 646.483 1.87215 0.825334 0
M  V30 6719 H 646.493 2.56731 3.17101 0
M  V30 6720 H 645.168 3.4084 2.3833 0
M  V30 6721 H 643.745 1.80274 3.26429 0
M  V30 6722 N 645.93 -0.909495 1.28709 0
M  V30 6723 C 646.862 -2.01729 1.08804 0
M  V30 6724 C 647.875 -1.62755 0.0384739 0
M  V30 6725 O 649.064 -1.76259 0.281977 0
M  V30 6726 C 646.164 -3.32952 0.63217 0
M  V30 6727 C 645.337 -4.00512 1.75809 0
M  V30 6728 C 644.396 -5.10019 1.29488 0
M  V30 6729 O 643.422 -5.32986 1.99787 0
M  V30 6730 N 644.624 -5.80278 0.1604 0
M  V30 6731 H 647.389 -2.19362 2.04207 0
M  V30 6732 H 644.95 -1.08106 1.20518 0
M  V30 6733 H 646.942 -4.03543 0.305802 0
M  V30 6734 H 645.512 -3.11759 -0.229134 0
M  V30 6735 H 644.732 -3.23413 2.25383 0
M  V30 6736 H 646.02 -4.42395 2.51325 0
M  V30 6737 H 645.418 -5.64094 -0.425937 0
M  V30 6738 H 643.975 -6.51713 -0.106663 0
M  V30 6739 N 647.408 -1.11026 -1.11852 0
M  V30 6740 C 648.657 -0.851249 -1.82857 0
M  V30 6741 C 648.97 0.62514 -1.85341 0
M  V30 6742 O 650.176 1.00026 -2.52403 0
M  V30 6743 C 648.632 -1.47309 -3.28372 0
M  V30 6744 C 648.24 -2.9832 -3.34229 0
M  V30 6745 C 649.984 -1.29373 -4.04306 0
M  V30 6746 C 647.891 -3.53509 -4.74115 0
M  V30 6747 H 646.821 -0.314794 -0.685143 0
M  V30 6748 H 649.472 -1.33499 -1.25898 0
M  V30 6749 H 647.854 -0.917017 -3.85236 0
M  V30 6750 H 649.028 -3.60295 -2.87271 0
M  V30 6751 H 647.343 -3.15482 -2.71772 0
M  V30 6752 H 649.94 -1.68042 -5.07608 0
M  V30 6753 H 650.283 -0.235879 -4.15631 0
M  V30 6754 H 650.816 -1.8182 -3.53817 0
M  V30 6755 H 647.555 -4.58987 -4.67986 0
M  V30 6756 H 647.075 -2.96305 -5.21501 0
M  V30 6757 H 648.754 -3.51693 -5.43066 0
M  V30 6758 N 648.886 1.2938 -0.899927 0
M  V30 6759 C 650.114 1.99691 -0.541386 0
M  V30 6760 C 650.529 1.67355 0.873936 0
M  V30 6761 O 649.886 0.918728 1.57688 0
M  V30 6762 C 649.937 3.54168 -0.72438 0
M  V30 6763 O 649.658 3.85359 -2.08399 0
M  V30 6764 C 651.159 4.41746 -0.370819 0
M  V30 6765 H 648.379 0.638037 -0.207726 0
M  V30 6766 H 650.923 1.6491 -1.20934 0
M  V30 6767 H 649.078 3.87261 -0.103607 0
M  V30 6768 H 649.492 4.80032 -2.11352 0
M  V30 6769 H 650.966 5.49256 -0.549693 0
M  V30 6770 H 651.443 4.33712 0.692148 0
M  V30 6771 H 652.049 4.14125 -0.968543 0
M  V30 6772 N 650.364 0.662433 1.43002 0
M  V30 6773 C 651.61 0.179857 2.02001 0
M  V30 6774 C 651.943 -1.20625 1.52195 0
M  V30 6775 O 651.218 -1.80726 0.718911 0
M  V30 6776 C 651.501 0.200845 3.59539 0
M  V30 6777 C 651.354 1.62153 4.19555 0
M  V30 6778 C 652.673 -0.457738 4.37713 0
M  V30 6779 H 649.792 0.0668305 0.733964 0
M  V30 6780 H 652.434 0.84487 1.70182 0
M  V30 6781 H 650.584 -0.365411 3.86778 0
M  V30 6782 H 652.256 2.23908 4.03315 0
M  V30 6783 H 650.499 2.16601 3.75854 0
M  V30 6784 H 651.17 1.58799 5.28665 0
M  V30 6785 H 653.646 0.0241495 4.16093 0
M  V30 6786 H 652.522 -0.412363 5.47349 0
M  V30 6787 H 652.783 -1.53336 4.14657 0
M  V30 6788 N 651.842 -1.52309 0.404946 0
M  V30 6789 C 652.774 -2.24579 -0.45791 0
M  V30 6790 C 653.787 -1.2739 -1.01369 0
M  V30 6791 O 654.976 -1.53363 -0.91335 0
M  V30 6792 C 652.076 -2.9608 -1.64893 0
M  V30 6793 C 651.249 -4.20106 -1.21777 0
M  V30 6794 C 650.308 -4.74468 -2.27523 0
M  V30 6795 O 649.334 -5.37157 -1.88285 0
M  V30 6796 N 650.536 -4.55678 -3.59635 0
M  V30 6797 H 653.301 -2.99265 0.161341 0
M  V30 6798 H 650.862 -1.60228 0.232107 0
M  V30 6799 H 652.854 -3.29344 -2.35191 0
M  V30 6800 H 651.424 -2.24606 -2.17419 0
M  V30 6801 H 650.644 -3.92704 -0.343071 0
M  V30 6802 H 651.932 -5.00658 -0.906596 0
M  V30 6803 H 651.33 -4.05673 -3.94266 0
M  V30 6804 H 649.887 -4.9339 -4.25922 0
M  V30 6805 N 653.32 -0.135238 -1.57019 0
M  V30 6806 C 654.545 0.529343 -2.00531 0
M  V30 6807 C 654.97 1.58391 -1.01459 0
M  V30 6808 O 654.328 1.81296 0.0113986 0
M  V30 6809 C 654.376 1.11748 -3.42848 0
M  V30 6810 O 653.48 2.23267 -3.46736 0
M  V30 6811 H 652.821 0.130669 -0.651016 0
M  V30 6812 H 655.351 -0.228503 -2.0332 0
M  V30 6813 H 655.361 1.44905 -3.81401 0
M  V30 6814 H 654.036 0.345147 -4.14465 0
M  V30 6815 H 652.613 1.91428 -3.20015 0
M  V30 6816 N 654.798 1.5699 0.138552 0
M  V30 6817 C 656.046 1.83446 0.848053 0
M  V30 6818 C 656.367 0.71744 1.81322 0
M  V30 6819 O 655.637 -0.260228 1.94164 0
M  V30 6820 H 654.217 0.676792 0.316166 0
M  V30 6821 H 656.879 1.94462 0.130538 0
M  V30 6822 H 655.975 2.78677 1.40518 0
M  V30 6823 N 656.276 -0.40816 1.52223 0
M  V30 6824 C 657.186 -1.52202 1.78526 0
M  V30 6825 C 658.202 -1.60546 0.670892 0
M  V30 6826 O 659.378 -1.77242 0.956404 0
M  V30 6827 C 656.443 -2.87928 1.93128 0
M  V30 6828 C 655.504 -2.89463 3.17033 0
M  V30 6829 C 654.737 -4.18715 3.30929 0
M  V30 6830 O 654.96 -5.12662 2.50067 0
M  V30 6831 O 653.894 -4.27125 4.24084 0
M  V30 6832 H 657.72 -1.32911 2.73072 0
M  V30 6833 H 655.305 -0.594112 1.37079 0
M  V30 6834 H 657.187 -3.68426 2.04549 0
M  V30 6835 H 655.862 -3.07285 1.01772 0
M  V30 6836 H 654.769 -2.07815 3.11069 0
M  V30 6837 H 656.102 -2.75055 4.08174 0
M  V30 6838 N 657.755 -1.42862 -0.66545 0
M  V30 6839 C 659.032 -1.3431 -1.42197 0
M  V30 6840 C 659.412 0.0150265 -2.11095 0
M  V30 6841 O 658.76 1.03101 -2.03918 0
M  V30 6842 C 658.97 -2.51783 -2.41674 0
M  V30 6843 C 660.318 -2.94321 -3.0604 0
M  V30 6844 O 661.342 -2.51741 -2.52001 0
M  V30 6845 O 660.201 -3.68047 -4.03985 0
M  V30 6846 H 657.295 -0.530159 -0.634713 0
M  V30 6847 H 659.841 -1.54888 -0.693386 0
M  V30 6848 H 658.613 -3.42282 -1.89627 0
M  V30 6849 H 658.236 -2.33241 -3.22001 0
M  V30 6850 N 659.233 0.902656 -1.29189 0
M  V30 6851 C 660.481 1.6496 -1.16758 0
M  V30 6852 C 660.802 1.92952 0.28188 0
M  V30 6853 O 660.072 1.55351 1.19344 0
M  V30 6854 H 658.652 0.611447 -0.429118 0
M  V30 6855 H 661.314 1.0825 -1.62074 0
M  V30 6856 H 660.41 2.60728 -1.71544 0
M  V30 6857 N 660.711 1.11618 1.11262 0
M  V30 6858 C 661.939 0.888739 1.8684 0
M  V30 6859 C 662.354 -0.561558 1.80255 0
M  V30 6860 O 661.711 -1.38782 1.18515 0
M  V30 6861 C 661.762 1.34422 3.35579 0
M  V30 6862 O 661.483 2.73766 3.42029 0
M  V30 6863 C 662.984 1.15246 4.28058 0
M  V30 6864 H 660.204 0.318152 0.590779 0
M  V30 6865 H 662.748 1.48398 1.40707 0
M  V30 6866 H 660.903 0.79239 3.7921 0
M  V30 6867 H 661.317 2.9355 4.34659 0
M  V30 6868 H 662.791 1.52015 5.30656 0
M  V30 6869 H 663.268 0.0922007 4.39103 0
M  V30 6870 H 663.874 1.69136 3.90222 0
M  V30 6871 N 662.189 -1.289 0.906776 0
M  V30 6872 C 663.099 -2.31256 0.394707 0
M  V30 6873 C 664.115 -1.66231 -0.514121 0
M  V30 6874 O 665.291 -1.97347 -0.401994 0
M  V30 6875 C 662.356 -3.44792 -0.363191 0
M  V30 6876 C 661.417 -4.25391 0.578012 0
M  V30 6877 C 660.65 -5.33506 -0.143811 0
M  V30 6878 O 660.873 -5.53786 -1.36665 0
M  V30 6879 O 659.807 -5.99673 0.5173 0
M  V30 6880 H 663.633 -2.77051 1.24405 0
M  V30 6881 H 661.218 -1.33466 0.671346 0
M  V30 6882 H 663.1 -4.139 -0.791503 0
M  V30 6883 H 661.775 -3.01093 -1.18848 0
M  V30 6884 H 660.682 -3.58899 1.05558 0
M  V30 6885 H 662.015 -4.72752 1.36992 0
M  V30 6886 N 663.667 -0.670007 -1.42649 0
M  V30 6887 C 664.897 -0.198252 -2.05647 0
M  V30 6888 C 665.305 1.14786 -1.50402 0
M  V30 6889 O 664.648 1.72316 -0.636634 0
M  V30 6890 C 664.71 -0.0507132 -3.59464 0
M  V30 6891 C 664.374 -1.32478 -4.37377 0
M  V30 6892 C 665.371 -2.2572 -4.68344 0
M  V30 6893 C 663.056 -1.57104 -4.77099 0
M  V30 6894 C 665.05 -3.4187 -5.37963 0
M  V30 6895 C 662.737 -2.73543 -5.46459 0
M  V30 6896 C 663.735 -3.65751 -5.76815 0
M  V30 6897 O 663.423 -4.80154 -6.44753 0
M  V30 6898 H 663.155 -0.0950721 -0.669281 0
M  V30 6899 H 665.709 -0.915745 -1.83857 0
M  V30 6900 H 663.939 0.722314 -3.79894 0
M  V30 6901 H 665.628 0.380552 -4.04112 0
M  V30 6902 H 666.394 -2.07943 -4.38161 0
M  V30 6903 H 662.273 -0.862069 -4.52868 0
M  V30 6904 H 665.817 -4.13861 -5.61574 0
M  V30 6905 H 661.714 -2.91248 -5.7606 0
M  V30 6906 H 662.482 -4.79637 -6.63243 0
M  V30 6907 N 665.145 1.52092 -0.413018 0
M  V30 6908 C 666.093 2.28681 0.425199 0
M  V30 6909 C 667.087 1.3353 1.04241 0
M  V30 6910 O 668.293 1.50973 0.980166 0
M  V30 6911 H 664.668 0.735661 0.155906 0
M  V30 6912 H 666.639 2.97418 -0.241926 0
M  V30 6913 C 665.388 3.1235 1.5275 0
M  V30 6914 H 664.711 3.85439 1.06191 0
M  V30 6915 H 666.151 3.69038 2.08774 0
M  V30 6916 C 664.61 2.26161 2.49706 0
M  V30 6917 O 665.14 1.90452 3.53682 0
M  V30 6918 N 663.346 1.89854 2.20008 0
M  V30 6919 H 662.893 2.19092 1.35486 0
M  V30 6920 H 662.851 1.3248 2.85125 0
M  V30 6921 N 666.623 0.143563 1.56945 0
M  V30 6922 C 667.87 -0.508407 1.96014 0
M  V30 6923 C 668.198 -1.65099 1.02824 0
M  V30 6924 O 667.453 -1.95618 0.0567764 0
M  V30 6925 C 667.752 -1.05885 3.41355 0
M  V30 6926 C 667.418 -0.0350809 4.50886 0
M  V30 6927 C 666.08 0.246362 4.80569 0
M  V30 6928 C 668.432 0.661282 5.16988 0
M  V30 6929 C 665.76 1.23003 5.73661 0
M  V30 6930 C 668.112 1.63375 6.11139 0
M  V30 6931 C 666.776 1.92292 6.39203 0
M  V30 6932 H 666.046 -0.186039 0.717266 0
M  V30 6933 H 668.693 0.229667 1.90118 0
M  V30 6934 H 666.998 -1.87419 3.44066 0
M  V30 6935 H 668.695 -1.57183 3.6891 0
M  V30 6936 H 665.285 -0.264622 4.27782 0
M  V30 6937 H 669.469 0.457038 4.94191 0
M  V30 6938 H 664.725 1.46056 5.93698 0
M  V30 6939 H 668.899 2.17887 6.61436 0
M  V30 6940 H 666.526 2.68666 7.11142 0
M  V30 6941 N 668.101 -1.57061 -0.130224 0
M  V30 6942 C 669.341 -1.86071 -0.845993 0
M  V30 6943 C 669.705 -0.73009 -1.77577 0
M  V30 6944 O 670.906 -0.901663 -2.53226 0
M  V30 6945 C 669.177 -3.20293 -1.58579 0
M  V30 6946 S 670.736 -3.70905 -2.34467 0
M  V30 6947 H 667.554 -0.652434 -0.282579 0
M  V30 6948 H 670.156 -1.95218 -0.10498 0
M  V30 6949 H 668.86 -4.00533 -0.894509 0
M  V30 6950 H 668.391 -3.14195 -2.36739 0
M  V30 6951 H 670.406 -3.41509 -3.59981 0
M  V30 6952 N 669.579 0.400081 -1.52437 0
M  V30 6953 C 670.804 1.17221 -1.71096 0
M  V30 6954 C 671.229 1.83269 -0.423565 0
M  V30 6955 O 670.587 1.70378 0.619751 0
M  V30 6956 C 670.635 2.20425 -2.85386 0
M  V30 6957 O 669.739 3.26769 -2.51586 0
M  V30 6958 H 669.08 0.341766 -0.569291 0
M  V30 6959 H 671.61 0.467772 -1.99181 0
M  V30 6960 H 671.62 2.64605 -3.10561 0
M  V30 6961 H 670.295 1.71737 -3.78786 0
M  V30 6962 H 668.872 2.87804 -2.37114 0
M  V30 6963 N 671.057 1.43213 0.657864 0
M  V30 6964 C 672.282 1.48227 1.45064 0
M  V30 6965 C 672.707 0.0999939 1.87834 0
M  V30 6966 O 672.065 -0.905269 1.57081 0
M  V30 6967 C 672.113 2.42931 2.6649 0
M  V30 6968 O 671.217 1.91237 3.6538 0
M  V30 6969 H 670.558 0.501551 0.435135 0
M  V30 6970 H 673.088 1.8808 0.805431 0
M  V30 6971 H 673.098 2.6008 3.1436 0
M  V30 6972 H 671.773 3.43348 2.34701 0
M  V30 6973 H 670.35 1.83726 3.24498 0
M  V30 6974 N 672.536 -0.895792 1.29666 0
M  V30 6975 C 673.813 -1.62723 1.08538 0
M  V30 6976 C 674.193 -2.07848 -0.369119 0
M  V30 6977 O 673.541 -1.8372 -1.35864 0
M  V30 6978 C 673.751 -2.80505 2.07648 0
M  V30 6979 C 675.099 -3.51098 2.3878 0
M  V30 6980 O 676.123 -2.90679 2.05874 0
M  V30 6981 O 674.982 -4.60028 2.9502 0
M  V30 6982 H 672.076 -0.714692 0.416106 0
M  V30 6983 H 674.622 -0.943517 1.41053 0
M  V30 6984 H 673.394 -2.44386 3.05599 0
M  V30 6985 H 673.017 -3.5658 1.75887 0
M  V30 6986 N 674.014 -1.12206 -1.10668 0
M  V30 6987 C 675.242 -0.898635 -1.86366 0
M  V30 6988 C 675.657 0.551991 -1.80551 0
M  V30 6989 O 675.014 1.38152 -1.19249 0
M  V30 6990 C 675.065 -1.36199 -3.34861 0
M  V30 6991 O 674.786 -2.75576 -3.40573 0
M  V30 6992 C 676.287 -1.17515 -4.2744 0
M  V30 6993 H 673.507 -0.321281 -0.589084 0
M  V30 6994 H 676.051 -1.49142 -1.39918 0
M  V30 6995 H 674.206 -0.81249 -3.78784 0
M  V30 6996 H 674.62 -2.95851 -4.33096 0
M  V30 6997 H 676.094 -1.54827 -5.29842 0
M  V30 6998 H 676.571 -0.115486 -4.39048 0
M  V30 6999 H 677.177 -1.71203 -3.89319 0
M  V30 7000 N 675.492 1.28418 -0.913599 0
M  V30 7001 C 676.738 1.9527 -0.547484 0
M  V30 7002 C 677.071 1.71745 0.906486 0
M  V30 7003 O 676.346 1.03834 1.64465 0
M  V30 7004 C 676.629 3.49748 -0.857205 0
M  V30 7005 C 676.482 3.82675 -2.3639 0
M  V30 7006 C 677.801 4.3868 -0.353258 0
M  V30 7007 H 674.92 0.709236 -0.200381 0
M  V30 7008 H 677.562 1.51789 -1.14281 0
M  V30 7009 H 675.712 3.86915 -0.350548 0
M  V30 7010 H 677.384 3.55378 -2.94116 0
M  V30 7011 H 675.627 3.29724 -2.81894 0
M  V30 7012 H 676.298 4.90547 -2.53115 0
M  V30 7013 H 678.774 4.08584 -0.787288 0
M  V30 7014 H 677.65 5.45621 -0.599049 0
M  V30 7015 H 677.911 4.35753 0.746413 0
M  V30 7016 N 676.97 0.677563 1.42291 0
M  V30 7017 C 677.88 0.000962654 2.346 0
M  V30 7018 C 678.896 -0.785833 1.55244 0
M  V30 7019 O 680.072 -0.727523 1.87801 0
M  V30 7020 C 677.137 -0.936746 3.33805 0
M  V30 7021 C 676.198 -0.144173 4.29058 0
M  V30 7022 C 675.431 -1.03722 5.23524 0
M  V30 7023 O 675.654 -2.27675 5.22992 0
M  V30 7024 O 674.588 -0.496542 5.99848 0
M  V30 7025 H 678.414 0.761397 2.94001 0
M  V30 7026 H 675.999 0.43781 1.42841 0
M  V30 7027 H 677.881 -1.47497 3.94744 0
M  V30 7028 H 676.556 -1.67698 2.76874 0
M  V30 7029 H 675.463 0.438224 3.71524 0
M  V30 7030 H 676.796 0.55701 4.89038 0
M  V30 7031 N 678.448 -1.51871 0.421078 0
M  V30 7032 C 679.358 -2.31077 -0.405069 0
M  V30 7033 C 680.374 -1.39301 -1.04265 0
M  V30 7034 O 681.55 -1.72376 -1.04157 0
M  V30 7035 C 678.615 -3.12556 -1.50032 0
M  V30 7036 C 677.676 -4.20088 -0.884559 0
M  V30 7037 C 676.909 -4.97673 -1.92762 0
M  V30 7038 O 677.132 -4.75696 -3.14753 0
M  V30 7039 O 676.066 -5.82203 -1.52719 0
M  V30 7040 H 679.892 -3.02742 0.241086 0
M  V30 7041 H 677.477 -1.48263 0.183991 0
M  V30 7042 H 679.359 -3.6326 -2.13589 0
M  V30 7043 H 678.034 -2.43672 -2.13086 0
M  V30 7044 H 676.941 -3.73502 -0.211379 0
M  V30 7045 H 678.274 -4.91298 -0.297763 0
M  V30 7046 N 679.926 -0.151884 -1.56866 0
M  V30 7047 C 680.874 0.80299 -2.183 0
M  V30 7048 C 681.868 1.25174 -1.14139 0
M  V30 7049 O 683.074 1.21966 -1.3238 0
M  V30 7050 H 679.449 0.277169 -0.699057 0
M  V30 7051 H 681.42 0.260699 -2.97259 0
M  V30 7052 C 680.169 2.03009 -2.82281 0
M  V30 7053 H 679.492 1.69377 -3.62148 0
M  V30 7054 H 680.932 2.67753 -3.28762 0
M  V30 7055 C 679.391 2.84123 -1.81041 0
M  V30 7056 O 679.921 3.8063 -1.28388 0
M  V30 7057 N 678.127 2.48753 -1.50234 0
M  V30 7058 H 677.674 1.70337 -1.93244 0
M  V30 7059 H 677.632 3.03316 -0.827445 0
M  V30 7060 N 681.404 1.57128 0.121893 0
M  V30 7061 C 682.65 1.84974 0.831418 0
M  V30 7062 C 682.983 0.737204 1.79663 0
M  V30 7063 O 682.258 -0.257199 1.92792 0
M  V30 7064 C 682.541 3.23397 1.58386 0
M  V30 7065 C 682.394 4.45246 0.638445 0
M  V30 7066 C 683.713 3.59355 2.54071 0
M  V30 7067 H 680.832 0.67282 0.300803 0
M  V30 7068 H 683.474 1.89759 0.0957587 0
M  V30 7069 H 681.624 3.19449 2.21098 0
M  V30 7070 H 683.296 4.61295 0.0203925 0
M  V30 7071 H 681.539 4.33771 -0.05023 0
M  V30 7072 H 682.21 5.38765 1.20151 0
M  V30 7073 H 684.686 3.64075 2.01465 0
M  V30 7074 H 683.562 4.57193 3.03752 0
M  V30 7075 H 683.823 2.86622 3.36601 0
M  V30 7076 N 682.882 -0.391992 1.52647 0
M  V30 7077 C 683.812 -1.48517 1.8018 0
M  V30 7078 C 684.793 -1.57039 0.653667 0
M  V30 7079 O 685.978 -1.72036 0.900962 0
M  V30 7080 C 683.108 -2.86161 1.96797 0
M  V30 7081 C 682.062 -2.92481 3.12472 0
M  V30 7082 C 681.388 -4.32546 3.14338 0
M  V30 7083 C 682.688 -2.624 4.51601 0
M  V30 7084 H 684.382 -1.25726 2.71723 0
M  V30 7085 H 681.928 -0.603387 1.30749 0
M  V30 7086 H 683.881 -3.62639 2.14641 0
M  V30 7087 H 682.605 -3.10283 1.01941 0
M  V30 7088 H 681.264 -2.18451 2.94406 0
M  V30 7089 H 680.912 -4.53703 2.1717 0
M  V30 7090 H 680.612 -4.37695 3.92042 0
M  V30 7091 H 682.136 -5.10934 3.34333 0
M  V30 7092 H 683.55 -3.28596 4.69785 0
M  V30 7093 H 681.947 -2.78903 5.3135 0
M  V30 7094 H 683.017 -1.57754 4.58521 0
M  V30 7095 N 684.36 -1.4356 -0.65026 0
M  V30 7096 C 685.292 -1.44918 -1.77571 0
M  V30 7097 C 686.305 -0.344925 -1.59104 0
M  V30 7098 O 687.494 -0.609537 -1.6777 0
M  V30 7099 C 684.594 -1.24914 -3.15039 0
M  V30 7100 C 683.767 -2.48232 -3.60138 0
M  V30 7101 C 682.826 -2.23409 -4.76419 0
M  V30 7102 O 681.852 -2.9678 -4.85706 0
M  V30 7103 N 683.054 -1.25259 -5.66825 0
M  V30 7104 H 685.819 -2.41935 -1.76883 0
M  V30 7105 H 683.38 -1.38754 -0.834202 0
M  V30 7106 H 685.372 -1.06185 -3.90521 0
M  V30 7107 H 683.942 -0.363319 -3.10481 0
M  V30 7108 H 683.162 -2.82366 -2.75069 0
M  V30 7109 H 684.45 -3.30296 -3.87017 0
M  V30 7110 H 683.848 -0.646246 -5.61997 0
M  V30 7111 H 682.405 -1.12513 -6.42016 0
M  V30 7112 N 685.838 0.888903 -1.30139 0
M  V30 7113 C 687.063 1.67884 -1.21777 0
M  V30 7114 C 687.488 1.86848 0.216689 0
M  V30 7115 O 686.846 1.39659 1.15608 0
M  V30 7116 C 686.894 3.03483 -1.94757 0
M  V30 7117 O 685.998 3.92294 -1.27198 0
M  V30 7118 H 685.339 0.513144 -0.421402 0
M  V30 7119 H 687.869 1.10968 -1.71893 0
M  V30 7120 H 687.879 3.53553 -2.03627 0
M  V30 7121 H 686.554 2.89 -2.99085 0
M  V30 7122 H 685.131 3.50732 -1.26655 0
M  V30 7123 N 687.317 1.12792 1.10072 0
M  V30 7124 C 688.247 0.821688 2.18565 0
M  V30 7125 C 689.228 -0.21612 1.68721 0
M  V30 7126 O 690.413 -0.0764932 1.94049 0
M  V30 7127 C 687.543 0.279624 3.46172 0
M  V30 7128 C 686.497 1.25092 4.09312 0
M  V30 7129 C 685.823 0.568916 5.31665 0
M  V30 7130 C 687.123 2.60699 4.52585 0
M  V30 7131 H 688.817 1.72888 2.44438 0
M  V30 7132 H 686.363 0.832702 1.17482 0
M  V30 7133 H 688.316 0.053099 4.21367 0
M  V30 7134 H 687.04 -0.662929 3.19801 0
M  V30 7135 H 685.699 1.46332 3.36129 0
M  V30 7136 H 685.347 -0.378898 5.01571 0
M  V30 7137 H 685.047 1.21687 5.74862 0
M  V30 7138 H 686.571 0.351517 6.09587 0
M  V30 7139 H 687.985 2.43465 5.19035 0
M  V30 7140 H 686.382 3.21608 5.06644 0
M  V30 7141 H 687.452 3.1886 3.65317 0
M  V30 7142 N 688.795 -1.27931 0.920396 0
M  V30 7143 C 690.025 -1.98516 0.572256 0
M  V30 7144 C 690.433 -1.68912 -0.852375 0
M  V30 7145 O 689.776 -0.94203 -1.57707 0
M  V30 7146 C 689.838 -3.5243 0.709485 0
M  V30 7147 C 689.502 -4.0564 2.10489 0
M  V30 7148 C 690.499 -4.1897 3.07831 0
M  V30 7149 C 688.184 -4.40168 2.41986 0
M  V30 7150 C 690.178 -4.66093 4.34783 0
M  V30 7151 C 687.865 -4.86983 3.69176 0
M  V30 7152 C 688.863 -4.99903 4.65388 0
M  V30 7153 O 688.551 -5.45694 5.90316 0
M  V30 7154 H 688.283 -0.64047 0.216274 0
M  V30 7155 H 690.837 -1.6393 1.23758 0
M  V30 7156 H 689.067 -3.86698 -0.0129263 0
M  V30 7157 H 690.756 -4.04233 0.367474 0
M  V30 7158 H 691.522 -3.92562 2.84816 0
M  V30 7159 H 687.401 -4.29358 1.67846 0
M  V30 7160 H 690.945 -4.76092 5.09884 0
M  V30 7161 H 686.842 -5.12832 3.92012 0
M  V30 7162 H 687.61 -5.63965 5.932 0
M  V30 7163 N 690.273 -0.685099 -1.4193 0
M  V30 7164 C 691.684 -0.287699 -1.8447 0
M  V30 7165 C 692.035 1.17215 -1.57338 0
M  V30 7166 O 691.16 1.89856 -1.03845 0
M  V30 7167 C 691.755 -0.515385 -3.34857 0
M  V30 7168 C 690.314 -0.172006 -3.76007 0
M  V30 7169 C 689.461 -0.802808 -2.65425 0
M  V30 7170 H 692.412 -0.88652 -1.3163 0
M  V30 7171 H 692.433 0.229251 -3.79809 0
M  V30 7172 H 691.945 -1.57796 -3.54573 0
M  V30 7173 H 690.046 0.886716 -3.61895 0
M  V30 7174 H 690.159 -0.619717 -4.75075 0
M  V30 7175 H 688.523 -0.233267 -2.5363 0
M  V30 7176 H 689.306 -1.86904 -2.87961 0
M  V30 7177 N 691.751 1.51645 -0.429126 0
M  V30 7178 C 692.991 2.03924 0.139354 0
M  V30 7179 C 693.355 1.30673 1.40672 0
M  V30 7180 O 694.556 1.73282 2.05491 0
M  V30 7181 C 692.827 3.5557 0.361179 0
M  V30 7182 S 694.386 4.29591 0.894241 0
M  V30 7183 H 691.204 0.710103 0.0356986 0
M  V30 7184 H 693.806 1.86491 -0.586644 0
M  V30 7185 H 692.51 4.06455 -0.567686 0
M  V30 7186 H 692.041 3.77283 1.11449 0
M  V30 7187 H 694.056 4.46102 2.17272 0
M  V30 7188 O 693.268 0.301146 1.58667 0
M  V30 7189 H 693.959 -0.263453 1.919 0
M  V30 END ATOM
M  V30 BEGIN BOND
M  V30 END BOND
M  V30 END CTAB
M  END
$$$$
