drugbank_target|P16435 NADPH--cytochrome P450 reductase (DB03147; DB03247; DB03461)
 OpenBabel12092120103D

  0  0  0     0  0            999 V3000
M  V30 BEGIN CTAB
M  V30 COUNTS 10667 10788 0 0 0
M  V30 BEGIN ATOM
M  V30 1 H -0.908 1.98254 -0.117106 0
M  V30 2 N 0 1.576 0 0
M  V30 3 C 0.933 2.03868 1.02534 0
M  V30 4 C 1.911 0.928543 1.3348 0
M  V30 5 O 3.095 1.19667 1.45644 0
M  V30 6 C 0.222 2.43627 2.35294 0
M  V30 7 C -0.732 3.65373 2.2001 0
M  V30 8 S 0.101 5.13292 1.52614 0
M  V30 9 C 1.257 5.56322 2.86805 0
M  V30 10 H 1.49 2.90518 0.631377 0
M  V30 11 H -0.977 1.52953 0.210867 0
M  V30 12 H 0.981 2.67203 3.11629 0
M  V30 13 H -0.358 1.57376 2.7183 0
M  V30 14 H -1.165 3.90944 3.18086 0
M  V30 15 H -1.563 3.418 1.51819 0
M  V30 16 H 0.729 5.58782 3.83104 0
M  V30 17 H 1.672 6.56266 2.65933 0
M  V30 18 H 2.08 4.83886 2.90714 0
M  V30 19 N 1.4781 -0.272755 1.55222 0
M  V30 20 C 2.7261 -1.00234 1.75492 0
M  V30 21 C 3.0471 -1.8681 0.5592 0
M  V30 22 O 2.3171 -1.91215 -0.425882 0
M  V30 23 H 0.8971 -0.373076 0.647166 0
M  V30 24 H 3.5591 -0.296926 1.92625 0
M  V30 25 H 2.6551 -1.63913 2.65592 0
M  V30 26 N 2.9562 -1.48159 -0.537278 0
M  V30 27 C 4.2332 -1.46291 -1.29839 0
M  V30 28 C 4.6132 -0.170613 -2.10409 0
M  V30 29 O 3.9612 0.847746 -2.12192 0
M  V30 30 C 4.1712 -2.72055 -2.18603 0
M  V30 31 C 5.5192 -3.20087 -2.7898 0
M  V30 32 O 6.5432 -2.72921 -2.28894 0
M  V30 33 O 5.4022 -4.02138 -3.70064 0
M  V30 34 H 2.4962 -0.583906 -0.585647 0
M  V30 35 H 5.0422 -1.60384 -0.554534 0
M  V30 36 H 3.8142 -3.57628 -1.58801 0
M  V30 37 H 3.4372 -2.60646 -3.00249 0
M  V30 38 N 4.4343 0.785586 -1.36625 0
M  V30 39 C 5.6593 1.57963 -1.34397 0
M  V30 40 C 6.0843 1.87964 0.071526 0
M  V30 41 O 5.4423 1.48182 1.0446 0
M  V30 42 C 5.4903 2.87511 -2.17646 0
M  V30 43 O 4.5943 3.81281 -1.57158 0
M  V30 44 H 3.9353 0.479014 -0.459828 0
M  V30 45 H 6.4653 0.973411 -1.79961 0
M  V30 46 H 6.4753 3.36745 -2.30362 0
M  V30 47 H 5.1503 2.65002 -3.20541 0
M  V30 48 H 3.7273 3.39885 -1.53403 0
M  V30 49 N 5.9124 1.20967 1.01018 0
M  V30 50 C 6.8624 0.93182 2.08089 0
M  V30 51 C 7.8464 -0.110898 1.60517 0
M  V30 52 O 9.0384 0.0973392 1.76732 0
M  V30 53 C 6.1674 0.492719 3.39746 0
M  V30 54 C 5.2534 1.56922 3.94 0
M  V30 55 N 5.6444 2.79312 4.21686 0
M  V30 56 C 3.9424 1.43688 4.2222 0
M  V30 57 C 4.6434 3.48797 4.65527 0
M  V30 58 N 3.6194 2.76224 4.68189 0
M  V30 59 H 7.4214 1.86175 2.27412 0
M  V30 60 H 4.9354 1.10463 1.19045 0
M  V30 61 H 6.9324 0.275044 4.15992 0
M  V30 62 H 5.5924 -0.430509 3.21833 0
M  V30 63 H 6.6034 3.15903 4.10397 0
M  V30 64 H 3.2804 0.578548 4.13472 0
M  V30 65 H 4.6704 4.53561 4.95714 0
M  V30 66 N 7.3905 -1.2043 1.01659 0
M  V30 67 C 8.6365 -1.90079 0.706963 0
M  V30 68 C 8.9695 -1.78648 -0.761474 0
M  V30 69 O 8.2445 -1.17069 -1.55323 0
M  V30 70 C 8.5275 -3.41469 1.14327 0
M  V30 71 C 8.3805 -3.61833 2.67201 0
M  V30 72 C 9.6995 -4.34261 0.714529 0
M  V30 73 H 6.8185 -0.690254 0.2583 0
M  V30 74 H 9.4605 -1.41826 1.26433 0
M  V30 75 H 7.6105 -3.82696 0.669056 0
M  V30 76 H 9.2825 -3.2986 3.22475 0
M  V30 77 H 7.5255 -3.05304 3.08175 0
M  V30 78 H 8.1965 -4.67955 2.92783 0
M  V30 79 H 10.6725 -4.00682 1.12221 0
M  V30 80 H 9.5485 -5.38806 1.04784 0
M  V30 81 H 9.8095 -4.40431 -0.383799 0
M  V30 82 N 8.8686 -0.792821 -1.36206 0
M  V30 83 C 10.1456 -0.290627 -1.93429 0
M  V30 84 C 10.5256 1.21773 -1.72437 0
M  V30 85 O 9.8736 2.0108 -1.08531 0
M  V30 86 C 10.0836 -0.686973 -3.42172 0
M  V30 87 C 11.4316 -0.668643 -4.19302 0
M  V30 88 O 12.4556 -0.627658 -3.50626 0
M  V30 89 O 11.3146 -0.714597 -5.41808 0
M  V30 90 H 8.4086 -0.0727927 -0.82379 0
M  V30 91 H 10.9546 -0.875593 -1.45367 0
M  V30 92 H 9.7266 -1.72711 -3.51122 0
M  V30 93 H 9.3496 -0.0760733 -3.97527 0
M  V30 94 N 10.3467 1.47872 -0.545128 0
M  V30 95 C 11.5747 2.06889 -0.021084 0
M  V30 96 C 11.9897 1.39955 1.2672 0
M  V30 97 O 11.3467 0.492036 1.75742 0
M  V30 98 C 11.3977 3.60996 0.190817 0
M  V30 99 O 11.1187 4.25419 -1.04644 0
M  V30 100 C 12.6197 4.36849 0.753521 0
M  V30 101 H 9.8397 0.669785 -0.0403635 0
M  V30 102 H 12.3837 1.90049 -0.755095 0
M  V30 103 H 10.5387 3.77391 0.87492 0
M  V30 104 H 10.9527 5.17785 -0.836611 0
M  V30 105 H 12.4267 5.45399 0.851139 0
M  V30 106 H 12.9037 4.02306 1.762 0
M  V30 107 H 13.5097 4.25169 0.105503 0
M  V30 108 N 11.8248 0.280983 1.55075 0
M  V30 109 C 13.0498 -0.340154 2.04592 0
M  V30 110 C 13.4748 -1.48246 1.15779 0
M  V30 111 O 12.8328 -1.80614 0.15761 0
M  V30 112 C 12.8808 -0.793104 3.5177 0
M  V30 113 O 11.9848 -1.89981 3.66034 0
M  V30 114 H 11.3258 -0.0694289 0.66036 0
M  V30 115 H 13.8558 0.416993 2.00306 0
M  V30 116 H 13.8658 -1.08729 3.93245 0
M  V30 117 H 12.5408 0.0426163 4.15878 0
M  V30 118 H 11.1178 -1.60771 3.36463 0
M  V30 119 N 13.3029 -1.57598 0.00835791 0
M  V30 120 C 14.5279 -1.95617 -0.689103 0
M  V30 121 C 14.9529 -0.883753 -1.66046 0
M  V30 122 O 14.3109 0.157352 -1.80616 0
M  V30 123 C 14.3589 -3.32736 -1.38994 0
M  V30 124 O 13.4629 -3.27631 -2.50463 0
M  V30 125 H 12.8039 -0.638379 -0.182668 0
M  V30 126 H 15.3339 -2.045 0.064036 0
M  V30 127 H 15.3439 -3.68494 -1.75147 0
M  V30 128 H 14.0189 -4.1034 -0.677778 0
M  V30 129 H 12.5959 -3.03561 -2.16576 0
M  V30 130 N 14.781 0.264519 -1.55364 0
M  V30 131 C 16.009 1.013 -1.80405 0
M  V30 132 C 16.424 1.79618 -0.581622 0
M  V30 133 O 15.781 1.76879 0.449468 0
M  V30 134 C 15.832 1.96487 -3.03439 0
M  V30 135 O 15.553 1.21341 -4.20961 0
M  V30 136 C 17.054 2.83079 -3.41147 0
M  V30 137 H 14.274 0.298875 -0.600762 0
M  V30 138 H 16.818 0.292736 -2.02394 0
M  V30 139 H 14.973 2.63965 -2.83551 0
M  V30 140 H 15.387 1.85573 -4.90574 0
M  V30 141 H 16.861 3.4565 -4.30384 0
M  V30 142 H 17.338 3.53286 -2.60932 0
M  V30 143 H 17.944 2.2108 -3.63323 0
M  V30 144 N 16.2591 1.48442 0.529413 0
M  V30 145 C 17.5051 1.5672 1.28711 0
M  V30 146 C 17.8381 0.2406 1.92704 0
M  V30 147 O 17.1131 -0.753454 1.79313 0
M  V30 148 C 17.3961 2.70587 2.37603 0
M  V30 149 C 17.2491 4.12953 1.78297 0
M  V30 150 C 18.5681 2.80212 3.39366 0
M  V30 151 H 15.6871 0.570474 0.466613 0
M  V30 152 H 18.3291 1.80617 0.589706 0
M  V30 153 H 16.4791 2.50342 2.97088 0
M  V30 154 H 18.1511 4.44639 1.22858 0
M  V30 155 H 16.3941 4.19927 1.0883 0
M  V30 156 H 17.0651 4.88448 2.57144 0
M  V30 157 H 19.5411 2.98553 2.89836 0
M  V30 158 H 18.4171 3.61611 4.12951 0
M  V30 159 H 18.6781 1.88393 3.99951 0
M  V30 160 N 17.7372 -0.778329 1.37039 0
M  V30 161 C 18.9622 -1.57248 1.35233 0
M  V30 162 C 19.3872 -1.87999 -0.0615568 0
M  V30 163 O 18.7452 -1.48734 -1.03672 0
M  V30 164 C 18.7932 -2.86353 2.19167 0
M  V30 165 O 17.8972 -3.80442 1.59178 0
M  V30 166 H 17.2382 -0.476569 0.462362 0
M  V30 167 H 19.7682 -0.963853 1.80474 0
M  V30 168 H 19.7782 -3.35519 2.32145 0
M  V30 169 H 18.4532 -2.63299 3.21942 0
M  V30 170 H 17.0302 -3.39067 1.55203 0
M  V30 171 N 19.2153 -1.21501 -1.00376 0
M  V30 172 C 20.1253 -0.991447 -2.12621 0
M  V30 173 C 21.1413 0.0568446 -1.73907 0
M  V30 174 O 22.3173 -0.13348 -2.00957 0
M  V30 175 C 19.3823 -0.560312 -3.42142 0
M  V30 176 C 18.4433 -1.68096 -3.95022 0
M  V30 177 C 17.6763 -1.2703 -5.18362 0
M  V30 178 O 17.8993 -0.144438 -5.70217 0
M  V30 179 O 16.8333 -2.08269 -5.64719 0
M  V30 180 H 20.6593 -1.93158 -2.34358 0
M  V30 181 H 18.2443 -0.999999 -1.10997 0
M  V30 182 H 20.1263 -0.329724 -4.20108 0
M  V30 183 H 18.8013 0.351089 -3.2179 0
M  V30 184 H 17.7083 -1.96597 -3.18278 0
M  V30 185 H 19.0413 -2.56983 -4.19786 0
M  V30 186 N 20.6934 1.19889 -1.02296 0
M  V30 187 C 21.6564 2.21116 -0.603351 0
M  V30 188 C 22.6564 1.5738 0.329884 0
M  V30 189 O 23.8464 1.73802 0.117702 0
M  V30 190 C 20.9784 3.40696 0.117992 0
M  V30 191 H 22.1714 2.59754 -1.49893 0
M  V30 192 H 19.7244 1.33463 -0.813468 0
M  V30 193 H 20.4594 3.07569 1.0282 0
M  V30 194 H 20.2444 3.88188 -0.552511 0
M  V30 195 H 21.7344 4.15692 0.398696 0
M  V30 196 N 22.1715 0.800033 1.35784 0
M  V30 197 C 23.4175 0.377901 1.99248 0
M  V30 198 C 23.7505 -1.05052 1.63333 0
M  V30 199 O 23.0255 -1.72768 0.893385 0
M  V30 200 C 23.3085 0.553922 3.55814 0
M  V30 201 C 23.1615 2.0268 4.01548 0
M  V30 202 C 24.4805 -0.0244802 4.40093 0
M  V30 203 H 21.5995 0.138782 0.723815 0
M  V30 204 H 24.2415 1.00835 1.61035 0
M  V30 205 H 22.3915 0.0172398 3.88496 0
M  V30 206 H 24.0635 2.62536 3.79305 0
M  V30 207 H 22.3065 2.5256 3.52698 0
M  V30 208 H 22.9775 2.10087 5.10458 0
M  V30 209 H 25.4535 0.433775 4.13833 0
M  V30 210 H 24.3295 0.128637 5.48749 0
M  V30 211 H 24.5905 -1.11758 4.27741 0
M  V30 212 N 23.6496 -1.47581 0.552962 0
M  V30 213 C 24.6126 -2.28439 -0.186605 0
M  V30 214 C 25.6126 -1.36706 -0.84665 0
M  V30 215 O 26.8026 -1.59378 -0.703164 0
M  V30 216 C 23.9346 -3.16264 -1.2724 0
M  V30 217 H 25.1276 -2.95294 0.523609 0
M  V30 218 H 22.6806 -1.532 0.309745 0
M  V30 219 H 23.4156 -2.54091 -2.01514 0
M  V30 220 H 23.2006 -3.83769 -0.803968 0
M  V30 221 H 24.6906 -3.77198 -1.79196 0
M  V30 222 N 25.1277 -0.289203 -1.54924 0
M  V30 223 C 26.0377 0.601863 -2.26748 0
M  V30 224 C 27.0537 1.15834 -1.2984 0
M  V30 225 O 28.2297 1.18564 -1.62802 0
M  V30 226 C 25.2947 1.76299 -2.98529 0
M  V30 227 C 24.3557 1.24178 -4.10948 0
M  V30 228 C 23.5887 2.34757 -4.79296 0
M  V30 229 O 23.8117 3.54411 -4.46933 0
M  V30 230 O 22.7457 2.02115 -5.66951 0
M  V30 231 H 26.5717 0.0195879 -3.03694 0
M  V30 232 H 24.1567 -0.0560868 -1.49295 0
M  V30 233 H 26.0387 2.43973 -3.43592 0
M  V30 234 H 24.7137 2.33209 -2.24488 0
M  V30 235 H 23.6207 0.531104 -3.70311 0
M  V30 236 H 24.9537 0.718252 -4.86931 0
M  V30 237 N 26.6058 1.57591 -0.0167156 0
M  V30 238 C 27.5158 2.1291 0.98521 0
M  V30 239 C 28.5318 1.07834 1.36557 0
M  V30 240 O 29.7078 1.39826 1.44951 0
M  V30 241 C 26.7728 2.63512 2.25305 0
M  V30 242 C 25.8338 3.83256 1.93426 0
M  V30 243 C 25.0668 4.31435 3.14165 0
M  V30 244 O 25.2898 3.78851 4.26413 0
M  V30 245 O 24.2238 5.23416 2.97186 0
M  V30 246 H 28.0498 2.98772 0.544888 0
M  V30 247 H 25.6348 1.48012 0.203141 0
M  V30 248 H 27.5168 2.96183 2.99756 0
M  V30 249 H 26.1918 1.8074 2.68542 0
M  V30 250 H 25.0988 3.55531 1.16398 0
M  V30 251 H 26.4318 4.67153 1.55013 0
M  V30 252 N 28.0839 -0.256276 1.55502 0
M  V30 253 C 29.3299 -0.987079 1.77157 0
M  V30 254 C 29.6629 -1.85327 0.580315 0
M  V30 255 O 28.9379 -1.89874 -0.421686 0
M  V30 256 C 29.2209 -1.85553 3.08613 0
M  V30 257 C 29.0739 -1.01816 4.38125 0
M  V30 258 C 30.3929 -2.8397 3.36228 0
M  V30 259 H 27.5119 -0.357428 0.644526 0
M  V30 260 H 30.1539 -0.258239 1.88237 0
M  V30 261 H 28.3039 -2.47695 2.99298 0
M  V30 262 H 29.9759 -0.416159 4.59419 0
M  V30 263 H 28.2189 -0.322178 4.32602 0
M  V30 264 H 28.8899 -1.65939 5.26468 0
M  V30 265 H 31.3659 -2.31964 3.45445 0
M  V30 266 H 30.2419 -3.41864 4.29442 0
M  V30 267 H 30.5029 -3.59955 2.56681 0
M  V30 268 N 29.562 -1.4872 -0.521534 0
M  V30 269 C 30.787 -1.61101 -1.30618 0
M  V30 270 C 31.212 -0.274611 -1.86085 0
M  V30 271 O 30.57 0.754937 -1.64834 0
M  V30 272 C 30.618 -2.66709 -2.4269 0
M  V30 273 O 29.722 -2.24456 -3.45967 0
M  V30 274 H 29.063 -0.539921 -0.386499 0
M  V30 275 H 31.593 -1.94767 -0.626645 0
M  V30 276 H 31.603 -2.88245 -2.88754 0
M  V30 277 H 30.278 -3.63727 -2.01682 0
M  V30 278 H 28.855 -2.13168 -3.05964 0
M  V30 279 N 31.0401 0.771051 -1.3745 0
M  V30 280 C 31.9701 1.89827 -1.3597 0
M  V30 281 C 32.9511 1.68562 -0.228216 0
M  V30 282 O 34.1361 1.8941 -0.428675 0
M  V30 283 C 31.2661 3.2712 -1.16662 0
M  V30 284 C 30.2201 3.6295 -2.2683 0
M  V30 285 C 29.5461 4.98791 -1.92644 0
M  V30 286 C 30.8461 3.69627 -3.69017 0
M  V30 287 H 32.5401 1.91323 -2.30295 0
M  V30 288 H 30.0861 0.919082 -1.10855 0
M  V30 289 H 32.0391 4.05615 -1.14256 0
M  V30 290 H 30.7631 3.26059 -0.187926 0
M  V30 291 H 29.4221 2.86763 -2.28392 0
M  V30 292 H 29.0701 4.94271 -0.933021 0
M  V30 293 H 28.7701 5.23733 -2.66416 0
M  V30 294 H 30.2941 5.79685 -1.91826 0
M  V30 295 H 31.7081 4.38273 -3.69581 0
M  V30 296 H 30.1051 4.06067 -4.41848 0
M  V30 297 H 31.1751 2.70273 -4.02592 0
M  V30 298 N 32.5182 1.22032 0.997298 0
M  V30 299 C 33.7652 1.04222 1.73621 0
M  V30 300 C 34.0932 -0.423264 1.89839 0
M  V30 301 O 33.3482 -1.3302 1.43542 0
M  V30 302 C 33.6472 1.69345 3.14733 0
M  V30 303 C 33.3132 3.19226 3.18442 0
M  V30 304 C 31.9752 3.60124 3.19161 0
M  V30 305 C 34.3272 4.15181 3.15078 0
M  V30 306 C 31.6552 4.95467 3.14212 0
M  V30 307 C 34.0072 5.50495 3.1167 0
M  V30 308 C 32.6712 5.90779 3.10703 0
M  V30 309 H 31.9412 0.381374 0.635323 0
M  V30 310 H 34.5882 1.51732 1.16831 0
M  V30 311 H 32.8932 1.14147 3.74803 0
M  V30 312 H 34.5902 1.53059 3.7064 0
M  V30 313 H 31.1802 2.86659 3.18629 0
M  V30 314 H 35.3642 3.84605 3.13676 0
M  V30 315 H 30.6202 5.25916 3.11805 0
M  V30 316 H 34.7942 6.24576 3.08022 0
M  V30 317 H 32.4212 6.9562 3.06622 0
M  V30 318 N 33.9963 -1.19345 1.0293 0
M  V30 319 C 35.2213 -1.93538 0.745511 0
M  V30 320 C 35.6463 -1.75007 -0.689511 0
M  V30 321 O 35.0043 -1.05265 -1.47611 0
M  V30 322 C 35.0523 -3.43336 1.10239 0
M  V30 323 O 34.1563 -4.11806 0.221289 0
M  V30 324 H 33.4973 -0.604193 0.275404 0
M  V30 325 H 36.0273 -1.5141 1.37609 0
M  V30 326 H 36.0373 -3.94004 1.05947 0
M  V30 327 H 34.7123 -3.56146 2.14786 0
M  V30 328 H 33.2893 -3.715 0.322842 0
M  V30 329 N 35.4744 -0.807222 -1.35358 0
M  V30 330 C 36.4074 -0.163572 -2.27613 0
M  V30 331 C 37.3854 0.670817 -1.48118 0
M  V30 332 O 38.5694 0.63796 -1.77376 0
M  V30 333 C 35.6964 0.773015 -3.29761 0
M  V30 334 C 34.7424 0.0181653 -4.26496 0
M  V30 335 S 35.5754 -1.31831 -5.19019 0
M  V30 336 C 36.7314 -0.38619 -6.24707 0
M  V30 337 H 36.9644 -0.945757 -2.81856 0
M  V30 338 H 34.4974 -0.602315 -1.42167 0
M  V30 339 H 36.4554 1.30788 -3.89108 0
M  V30 340 H 35.1164 1.52859 -2.74396 0
M  V30 341 H 34.3094 0.729534 -4.98692 0
M  V30 342 H 33.9114 -0.446761 -3.71322 0
M  V30 343 H 36.2034 0.428295 -6.76145 0
M  V30 344 H 37.1464 -1.07736 -6.99856 0
M  V30 345 H 37.5544 0.018398 -5.64497 0
M  V30 346 N 36.9525 1.47285 -0.560781 0
M  V30 347 C 38.1805 2.06855 -0.0430262 0
M  V30 348 C 38.5955 1.41291 1.25229 0
M  V30 349 O 37.9525 0.510648 1.7521 0
M  V30 350 C 38.0035 3.61178 0.152518 0
M  V30 351 O 37.7245 4.24285 -1.0915 0
M  V30 352 C 39.2255 4.37624 0.707145 0
M  V30 353 H 36.4455 0.669319 -0.0474652 0
M  V30 354 H 38.9895 1.89237 -0.77521 0
M  V30 355 H 37.1445 3.78298 0.834843 0
M  V30 356 H 37.5585 5.16868 -0.891482 0
M  V30 357 H 39.0325 5.46271 0.793244 0
M  V30 358 H 39.5095 4.04152 1.71923 0
M  V30 359 H 40.1155 4.25257 0.0604027 0
M  V30 360 N 38.4306 0.297415 1.54768 0
M  V30 361 C 39.7076 -0.365847 1.92148 0
M  V30 362 C 40.0876 -1.71975 1.22424 0
M  V30 363 O 39.4356 -2.25666 0.358739 0
M  V30 364 C 39.6456 -0.484056 3.45627 0
M  V30 365 C 40.9936 -0.756594 4.17805 0
M  V30 366 O 42.0176 -0.568007 3.51642 0
M  V30 367 O 40.8766 -1.11863 5.34929 0
M  V30 368 H 37.9706 -0.203919 0.801465 0
M  V30 369 H 40.5166 0.34521 1.66152 0
M  V30 370 H 39.2886 0.467865 3.88493 0
M  V30 371 H 38.9116 -1.24372 3.77647 0
M  V30 372 N 39.9087 -1.5758 0.0250728 0
M  V30 373 C 40.8417 -2.05473 -0.992777 0
M  V30 374 C 41.8197 -0.949661 -1.31986 0
M  V30 375 O 43.0037 -1.21969 -1.43722 0
M  V30 376 C 40.1307 -2.4734 -2.31389 0
M  V30 377 C 39.1767 -3.68827 -2.1417 0
M  V30 378 S 40.0097 -5.15655 -1.44429 0
M  V30 379 C 41.1657 -5.60814 -2.77918 0
M  V30 380 H 41.3987 -2.91486 -0.585078 0
M  V30 381 H 38.9317 -1.53269 -0.186507 0
M  V30 382 H 40.8897 -2.72127 -3.07339 0
M  V30 383 H 39.5507 -1.6168 -2.69292 0
M  V30 384 H 38.7437 -3.95955 -3.11826 0
M  V30 385 H 38.3457 -3.44172 -1.46362 0
M  V30 386 H 40.6377 -5.64806 -3.74166 0
M  V30 387 H 41.5807 -6.60414 -2.55459 0
M  V30 388 H 41.9887 -4.8845 -2.82979 0
M  V30 389 N 41.3868 0.248026 -1.55636 0
M  V30 390 C 42.6358 0.974134 -1.76617 0
M  V30 391 C 42.9488 1.86528 -0.588796 0
M  V30 392 O 44.1548 2.62805 -0.681594 0
M  V30 393 C 42.6108 1.78213 -3.12679 0
M  V30 394 C 42.2188 0.93843 -4.38061 0
M  V30 395 C 43.9628 2.50104 -3.42999 0
M  V30 396 C 41.8698 1.74225 -5.65155 0
M  V30 397 H 40.7998 0.36745 -0.658405 0
M  V30 398 H 43.4508 0.22884 -1.82067 0
M  V30 399 H 41.8328 2.56933 -3.01333 0
M  V30 400 H 43.0068 0.193635 -4.60393 0
M  V30 401 H 41.3218 0.332905 -4.15067 0
M  V30 402 H 43.9188 3.10694 -4.3517 0
M  V30 403 H 44.2618 3.21662 -2.64271 0
M  V30 404 H 44.7948 1.78395 -3.55556 0
M  V30 405 H 41.5338 1.07043 -6.46701 0
M  V30 406 H 41.0538 2.46235 -5.46926 0
M  V30 407 H 42.7328 2.30967 -6.0437 0
M  V30 408 N 42.8649 1.48995 0.513639 0
M  V30 409 C 43.7949 1.67636 1.62544 0
M  V30 410 C 44.7759 0.525087 1.61793 0
M  V30 411 O 45.9609 0.759502 1.78732 0
M  V30 412 C 43.0909 1.73114 3.01079 0
M  V30 413 C 42.0449 2.87905 3.16693 0
M  V30 414 C 41.3709 2.78486 4.56453 0
M  V30 415 C 42.6709 4.29005 2.97913 0
M  V30 416 H 44.3649 2.60716 1.47198 0
M  V30 417 H 41.9109 1.25465 0.706714 0
M  V30 418 H 43.8639 1.84742 3.78746 0
M  V30 419 H 42.5879 0.766241 3.17484 0
M  V30 420 H 41.2469 2.75859 2.41448 0
M  V30 421 H 40.8949 1.7993 4.69717 0
M  V30 422 H 40.5949 3.55523 4.67843 0
M  V30 423 H 42.1189 2.92104 5.36197 0
M  V30 424 H 43.5329 4.41798 3.65359 0
M  V30 425 H 41.9299 5.07166 3.20785 0
M  V30 426 H 42.9999 4.44329 1.94165 0
M  V30 427 N 44.343 -0.763751 1.37857 0
M  V30 428 C 45.59 -1.52257 1.33506 0
M  V30 429 C 45.918 -1.94343 -0.078022 0
M  V30 430 O 45.173 -1.64958 -1.05297 0
M  V30 431 C 45.472 -2.79499 2.22745 0
M  V30 432 C 45.138 -2.56426 3.70886 0
M  V30 433 C 43.8 -2.49842 4.11257 0
M  V30 434 C 46.152 -2.36008 4.64704 0
M  V30 435 C 43.48 -2.20841 5.43549 0
M  V30 436 C 45.832 -2.0853 5.97242 0
M  V30 437 C 44.496 -2.00396 6.36709 0
M  V30 438 H 43.766 -0.557149 0.488534 0
M  V30 439 H 46.413 -0.879073 1.70131 0
M  V30 440 H 44.718 -3.48447 1.79142 0
M  V30 441 H 46.415 -3.37413 2.16688 0
M  V30 442 H 43.005 -2.62416 3.38874 0
M  V30 443 H 47.189 -2.40079 4.34368 0
M  V30 444 H 42.445 -2.13045 5.73081 0
M  V30 445 H 46.619 -1.91732 6.69486 0
M  V30 446 H 44.246 -1.77688 7.39142 0
M  V30 447 N 45.8211 -1.22559 -0.990812 0
M  V30 448 C 47.0461 -1.07862 -1.77145 0
M  V30 449 C 47.4711 0.366447 -1.84496 0
M  V30 450 O 46.8291 1.26478 -1.29896 0
M  V30 451 C 46.8771 -1.69686 -3.18181 0
M  V30 452 O 45.9811 -0.951946 -4.01263 0
M  V30 453 H 45.3221 -0.378712 -0.545411 0
M  V30 454 H 47.8521 -1.62399 -1.2445 0
M  V30 455 H 47.8621 -1.74496 -3.68802 0
M  V30 456 H 46.5371 -2.74841 -3.12146 0
M  V30 457 H 45.1141 -0.980011 -3.59792 0
M  V30 458 N 47.2992 1.18797 -1.03562 0
M  V30 459 C 48.2292 2.24472 -0.643019 0
M  V30 460 C 49.2102 1.66433 0.351283 0
M  V30 461 O 50.3952 1.92803 0.232505 0
M  V30 462 C 47.5252 3.473 4.24935e-05 0
M  V30 463 C 46.4792 4.18055 -0.917257 0
M  V30 464 C 45.8052 5.34519 -0.138941 0
M  V30 465 C 47.1052 4.72109 -2.23407 0
M  V30 466 H 48.7992 2.57566 -1.52643 0
M  V30 467 H 46.3452 1.23806 -0.735394 0
M  V30 468 H 48.2982 4.20426 0.286383 0
M  V30 469 H 47.0222 3.13424 0.918299 0
M  V30 470 H 45.6812 3.46821 -1.1879 0
M  V30 471 H 45.3292 4.96891 0.781562 0
M  V30 472 H 45.0292 5.82794 -0.750005 0
M  V30 473 H 46.5532 6.10438 0.1405 0
M  V30 474 H 47.9672 5.36955 -2.00879 0
M  V30 475 H 46.3642 5.30897 -2.79765 0
M  V30 476 H 47.4342 3.89807 -2.88407 0
M  V30 477 N 48.7773 0.814389 1.34928 0
M  V30 478 C 50.0263 0.394871 1.97797 0
M  V30 479 C 50.3393 -1.04555 1.65311 0
M  V30 480 O 51.5453 -1.56856 2.21604 0
M  V30 481 C 50.0013 0.655103 3.53888 0
M  V30 482 C 49.6093 2.10858 3.95276 0
M  V30 483 C 51.3533 0.301329 4.23429 0
M  V30 484 C 49.2603 2.31415 5.44244 0
M  V30 485 H 48.1903 0.143913 0.740139 0
M  V30 486 H 50.8413 0.999544 1.53888 0
M  V30 487 H 49.2233 -0.0196253 3.95995 0
M  V30 488 H 50.3973 2.82176 3.64298 0
M  V30 489 H 48.7123 2.42297 3.38646 0
M  V30 490 H 51.3093 0.432869 5.32945 0
M  V30 491 H 51.6523 -0.75331 4.09428 0
M  V30 492 H 52.1853 0.930288 3.86769 0
M  V30 493 H 48.9243 3.35353 5.63222 0
M  V30 494 H 48.4443 1.6463 5.76764 0
M  V30 495 H 50.1233 2.13352 6.10811 0
M  V30 496 N 50.2554 -1.46986 0.568584 0
M  V30 497 C 51.5014 -2.02741 0.0488709 0
M  V30 498 C 51.8344 -1.44077 -1.30214 0
M  V30 499 O 51.1094 -0.600552 -1.84996 0
M  V30 500 C 51.3924 -3.60086 -0.032047 0
M  V30 501 C 51.2454 -4.29162 1.34686 0
M  V30 502 C 52.5644 -4.33838 -0.739798 0
M  V30 503 H 49.6834 -0.736749 0.0192338 0
M  V30 504 H 52.3254 -1.75289 0.733065 0
M  V30 505 H 50.4754 -3.83606 -0.61473 0
M  V30 506 H 52.1474 -4.16948 1.97362 0
M  V30 507 H 50.3904 -3.89073 1.91846 0
M  V30 508 H 51.0614 -5.37826 1.24285 0
M  V30 509 H 53.5374 -4.15378 -0.244939 0
M  V30 510 H 52.4134 -5.43537 -0.765406 0
M  V30 511 H 52.6744 -4.03875 -1.79827 0
M  V30 512 N 51.7335 -0.305618 -1.54608 0
M  V30 513 C 52.9815 0.301701 -1.99835 0
M  V30 514 C 53.3025 1.54054 -1.19551 0
M  V30 515 O 52.5725 1.93702 -0.292658 0
M  V30 516 H 51.1525 0.114468 -0.738178 0
M  V30 517 H 53.8145 -0.418016 -1.90364 0
M  V30 518 H 52.9105 0.570548 -3.06841 0
M  V30 519 N 53.2116 1.57565 -0.0334293 0
M  V30 520 C 54.1416 2.13511 0.945265 0
M  V30 521 C 55.1226 1.05231 1.33643 0
M  V30 522 O 56.3076 1.33084 1.41429 0
M  V30 523 C 53.4376 2.6657 2.22616 0
M  V30 524 C 52.3916 3.79676 1.97561 0
M  V30 525 C 51.7176 4.1918 3.31952 0
M  V30 526 C 53.0176 5.0557 1.31135 0
M  V30 527 H 54.7116 2.95538 0.479325 0
M  V30 528 H 52.2576 1.42166 0.229115 0
M  V30 529 H 54.2106 3.04344 2.91466 0
M  V30 530 H 52.9346 1.8171 2.71384 0
M  V30 531 H 51.5936 3.42347 1.31127 0
M  V30 532 H 51.2416 3.31296 3.78487 0
M  V30 533 H 50.9416 4.95402 3.15992 0
M  V30 534 H 52.4656 4.59541 4.02063 0
M  V30 535 H 53.8796 5.40903 1.89992 0
M  V30 536 H 52.2766 5.86818 1.25559 0
M  V30 537 H 53.3466 4.84062 0.284894 0
M  V30 538 N 54.6897 -0.239769 1.55765 0
M  V30 539 C 55.6197 -1.30052 1.9393 0
M  V30 540 C 56.6007 -1.49839 0.805132 0
M  V30 541 O 57.7857 -1.62328 1.06599 0
M  V30 542 C 54.9157 -2.65391 2.2402 0
M  V30 543 C 53.8697 -2.60289 3.39755 0
M  V30 544 C 53.1957 -3.99489 3.55405 0
M  V30 545 C 54.4957 -2.16654 4.75246 0
M  V30 546 H 56.1897 -0.983573 2.82783 0
M  V30 547 H 53.7357 -0.471701 1.36055 0
M  V30 548 H 55.6887 -3.3974 2.49308 0
M  V30 549 H 54.4127 -2.98736 1.32 0
M  V30 550 H 53.0717 -1.88398 3.14487 0
M  V30 551 H 52.7197 -4.30112 2.60793 0
M  V30 552 H 52.4197 -3.96962 4.33238 0
M  V30 553 H 53.9437 -4.75528 3.83022 0
M  V30 554 H 55.3577 -2.80737 4.99859 0
M  V30 555 H 53.7547 -2.25223 5.56232 0
M  V30 556 H 54.8247 -1.11835 4.71827 0
M  V30 557 N 56.1678 -1.49265 -0.50573 0
M  V30 558 C 57.3958 -1.62215 -1.28429 0
M  V30 559 C 57.8108 -0.291697 -1.86533 0
M  V30 560 O 57.1678 0.722233 -1.67601 0
M  V30 561 C 57.2188 -2.68735 -2.41793 0
M  V30 562 O 56.9398 -3.96619 -1.86078 0
M  V30 563 C 58.4408 -2.92346 -3.3324 0
M  V30 564 H 55.6608 -0.546239 -0.389697 0
M  V30 565 H 58.2048 -1.95265 -0.607609 0
M  V30 566 H 56.3598 -2.38476 -3.053 0
M  V30 567 H 56.7738 -4.55256 -2.60465 0
M  V30 568 H 58.2478 -3.70623 -4.09075 0
M  V30 569 H 58.7248 -2.02081 -3.89948 0
M  V30 570 H 59.3308 -3.24003 -2.75503 0
M  V30 571 N 57.6459 0.756429 -1.3826 0
M  V30 572 C 58.8759 1.54341 -1.3734 0
M  V30 573 C 59.2839 1.89159 0.0393917 0
M  V30 574 O 58.6269 1.5307 1.01565 0
M  V30 575 C 58.6889 2.87238 -2.16182 0
M  V30 576 C 58.3529 2.74973 -3.65019 0
M  V30 577 C 59.3499 2.44962 -4.58574 0
M  V30 578 C 57.0349 2.92515 -4.08338 0
M  V30 579 C 59.0289 2.32642 -5.93428 0
M  V30 580 C 56.7159 2.79815 -5.43274 0
M  V30 581 C 57.7139 2.49921 -6.35632 0
M  V30 582 O 57.4019 2.37275 -7.68086 0
M  V30 583 H 57.1339 0.484281 -0.471643 0
M  V30 584 H 59.6879 0.944152 -1.82414 0
M  V30 585 H 57.9179 3.49342 -1.65822 0
M  V30 586 H 59.6069 3.48731 -2.07705 0
M  V30 587 H 60.3729 2.31081 -4.26412 0
M  V30 588 H 56.2519 3.14781 -3.368 0
M  V30 589 H 59.7959 2.0923 -6.65484 0
M  V30 590 H 55.6929 2.93269 -5.75034 0
M  V30 591 H 56.4609 2.52509 -7.78577 0
M  V30 592 N 59.124 1.23083 0.984299 0
M  V30 593 C 60.37 1.07221 1.72845 0
M  V30 594 C 60.725 -0.387453 1.88458 0
M  V30 595 O 60.018 -1.28309 1.42293 0
M  V30 596 C 60.212 1.72673 3.1292 0
M  V30 597 C 60.041 3.24853 3.10967 0
M  V30 598 C 58.811 3.93998 3.16376 0
M  V30 599 C 61.009 4.21674 2.94441 0
M  V30 600 N 58.991 5.33192 3.04268 0
M  V30 601 C 60.362 5.47756 2.90453 0
M  V30 602 C 62.417 4.12457 2.78897 0
M  V30 603 C 61.12 6.6568 2.72512 0
M  V30 604 C 63.146 5.3004 2.62319 0
M  V30 605 C 62.508 6.55046 2.59026 0
M  V30 606 H 58.607 0.44685 0.641755 0
M  V30 607 H 61.191 1.55753 1.16829 0
M  V30 608 H 59.362 1.26679 3.67161 0
M  V30 609 H 61.094 1.49824 3.75945 0
M  V30 610 H 57.849 3.45052 3.24401 0
M  V30 611 H 58.273 6.06157 3.015 0
M  V30 612 H 62.915 3.16588 2.80235 0
M  V30 613 H 60.633 7.61689 2.69919 0
M  V30 614 H 64.219 5.24747 2.5126 0
M  V30 615 H 63.099 7.44498 2.46357 0
M  V30 616 N 60.6021 -1.18246 1.0419 0
M  V30 617 C 61.8491 -1.88257 0.746017 0
M  V30 618 C 62.1771 -1.80429 -0.726331 0
M  V30 619 O 61.4321 -1.2 -1.54591 0
M  V30 620 C 61.7311 -3.38082 1.15911 0
M  V30 621 C 61.3971 -3.66114 2.63195 0
M  V30 622 C 60.0591 -3.73474 3.03432 0
M  V30 623 C 62.4111 -3.78398 3.5842 0
M  V30 624 C 59.7391 -3.90599 4.37778 0
M  V30 625 C 62.0911 -3.97039 4.92487 0
M  V30 626 C 60.7551 -4.02635 5.32392 0
M  V30 627 H 60.0251 -0.688883 0.272987 0
M  V30 628 H 62.6721 -1.3995 1.30715 0
M  V30 629 H 60.9771 -3.88377 0.516806 0
M  V30 630 H 62.6741 -3.90596 0.907516 0
M  V30 631 H 59.2641 -3.61003 2.3103 0
M  V30 632 H 63.4481 -3.72042 3.28479 0
M  V30 633 H 58.7041 -3.93175 4.68213 0
M  V30 634 H 62.8781 -4.05486 5.66175 0
M  V30 635 H 60.5051 -4.15657 6.36501 0
M  V30 636 N 62.0802 -0.821533 -1.34494 0
M  V30 637 C 63.0102 -0.257138 -2.3208 0
M  V30 638 C 63.9912 0.625645 -1.58176 0
M  V30 639 O 65.1762 0.552811 -1.86166 0
M  V30 640 C 62.3062 0.582958 -3.42372 0
M  V30 641 C 61.2602 -0.202571 -4.2752 0
M  V30 642 C 60.5862 0.760179 -5.29269 0
M  V30 643 C 61.8862 -1.40998 -5.02908 0
M  V30 644 H 63.5802 -1.07247 -2.79532 0
M  V30 645 H 61.1262 -0.517163 -1.34393 0
M  V30 646 H 63.0792 0.987972 -4.09655 0
M  V30 647 H 61.8032 1.43133 -2.93565 0
M  V30 648 H 60.4622 -0.588936 -3.61838 0
M  V30 649 H 60.1102 1.60447 -4.76724 0
M  V30 650 H 59.8102 0.238809 -5.87115 0
M  V30 651 H 61.3342 1.16308 -5.9942 0
M  V30 652 H 62.7482 -1.07905 -5.63054 0
M  V30 653 H 61.1452 -1.86689 -5.70322 0
M  V30 654 H 62.2152 -2.1889 -4.32684 0
M  V30 655 N 63.5583 1.46682 -0.576371 0
M  V30 656 C 64.8053 2.02412 -0.0595339 0
M  V30 657 C 65.1333 1.44859 1.29793 0
M  V30 658 O 64.3883 0.601099 1.8624 0
M  V30 659 C 64.6873 3.57345 0.062886 0
M  V30 660 C 64.3533 4.33908 -1.22616 0
M  V30 661 C 63.0153 4.54544 -1.57933 0
M  V30 662 C 65.3673 4.77919 -2.07948 0
M  V30 663 C 62.6953 5.16444 -2.78393 0
M  V30 664 C 65.0473 5.41149 -3.27629 0
M  V30 665 C 63.7113 5.60014 -3.63236 0
M  V30 666 H 62.9813 0.74068 -0.021785 0
M  V30 667 H 65.6283 1.76128 -0.751735 0
M  V30 668 H 63.9333 3.82729 0.838178 0
M  V30 669 H 65.6303 3.98136 0.478439 0
M  V30 670 H 62.2203 4.18138 -0.941202 0
M  V30 671 H 66.4043 4.61738 -1.81967 0
M  V30 672 H 61.6603 5.29242 -3.06126 0
M  V30 673 H 65.8343 5.74211 -3.94023 0
M  V30 674 H 63.4613 6.07748 -4.56669 0
M  V30 675 N 65.0364 0.313813 1.54444 0
M  V30 676 C 66.4524 -0.0391619 1.59552 0
M  V30 677 C 66.6524 -1.51322 1.33056 0
M  V30 678 O 65.7084 -2.26782 1.11022 0
M  V30 679 C 67.0214 0.370302 2.98411 0
M  V30 680 C 68.5694 0.320139 3.11358 0
M  V30 681 C 69.0444 0.704617 4.52547 0
M  V30 682 N 70.5354 0.657645 4.58508 0
M  V30 683 C 71.2704 0.927453 5.6585 0
M  V30 684 N 70.7664 1.26389 6.81174 0
M  V30 685 N 72.5594 0.853662 5.5558 0
M  V30 686 H 64.7104 1.27433 1.69925 0
M  V30 687 H 66.9734 0.517511 0.794284 0
M  V30 688 H 66.6794 1.39694 3.22767 0
M  V30 689 H 66.5534 -0.269619 3.76235 0
M  V30 690 H 68.9404 -0.697275 2.86744 0
M  V30 691 H 69.0214 0.99486 2.35661 0
M  V30 692 H 68.6654 1.7199 4.77893 0
M  V30 693 H 68.5954 0.00768843 5.26599 0
M  V30 694 H 71.0864 0.409067 3.75679 0
M  V30 695 H 71.3994 1.4554 7.58972 0
M  V30 696 H 69.7444 1.30206 6.82694 0
M  V30 697 H 72.9354 0.590383 4.64362 0
M  V30 698 H 73.1084 1.0673 6.3915 0
M  V30 699 N 66.5145 -1.57545 0.0417849 0
M  V30 700 C 67.4615 -2.10977 -0.935805 0
M  V30 701 C 68.4315 -1.01486 -1.31491 0
M  V30 702 O 69.6165 -1.2898 -1.40602 0
M  V30 703 C 66.7565 -2.65169 -2.2086 0
M  V30 704 C 65.8695 -3.88714 -1.88482 0
M  V30 705 C 65.0045 -4.31254 -3.1015 0
M  V30 706 C 64.0435 -5.47524 -2.7365 0
M  V30 707 N 63.1805 -5.85162 -3.87982 0
M  V30 708 H 68.0205 -2.94218 -0.473249 0
M  V30 709 H 65.5575 -1.45415 -0.221981 0
M  V30 710 H 67.5155 -2.94685 -2.95325 0
M  V30 711 H 66.1455 -1.8474 -2.64709 0
M  V30 712 H 65.1975 -3.65849 -1.04205 0
M  V30 713 H 66.5095 -4.73245 -1.57608 0
M  V30 714 H 65.6635 -4.62273 -3.92923 0
M  V30 715 H 64.4025 -3.45516 -3.44195 0
M  V30 716 H 63.4075 -5.16187 -1.89291 0
M  V30 717 H 64.6325 -6.34971 -2.40807 0
M  V30 718 H 62.5785 -5.02377 -4.21846 0
M  V30 719 H 62.4955 -6.64362 -3.60775 0
M  V30 720 H 63.7635 -6.20791 -4.71422 0
M  V30 721 N 67.9926 0.231505 -1.5589 0
M  V30 722 C 68.9396 1.28682 -1.91598 0
M  V30 723 C 69.9096 1.47071 -0.771974 0
M  V30 724 O 71.0946 1.60802 -1.027 0
M  V30 725 C 68.2346 2.6342 -2.22944 0
M  V30 726 C 67.3476 2.52912 -3.50228 0
M  V30 727 C 66.4826 3.80106 -3.7107 0
M  V30 728 C 65.5216 3.64279 -4.91902 0
M  V30 729 N 64.6586 4.834 -5.09184 0
M  V30 730 H 69.4986 0.975305 -2.81588 0
M  V30 731 H 67.0356 0.470299 -1.39379 0
M  V30 732 H 68.9936 3.41869 -2.39126 0
M  V30 733 H 67.6236 2.92687 -1.36139 0
M  V30 734 H 66.6756 1.6595 -3.42294 0
M  V30 735 H 67.9876 2.37133 -4.38827 0
M  V30 736 H 67.1416 4.66999 -3.87295 0
M  V30 737 H 65.8806 3.98799 -2.80733 0
M  V30 738 H 64.8856 2.7577 -4.75637 0
M  V30 739 H 66.1106 3.47067 -5.83714 0
M  V30 740 H 64.0566 5.02425 -4.21788 0
M  V30 741 H 63.9736 4.70311 -5.91898 0
M  V30 742 H 65.2416 5.71747 -5.29835 0
M  V30 743 N 69.4707 1.49531 0.497807 0
M  V30 744 C 70.4177 1.66436 1.59899 0
M  V30 745 C 71.3877 0.505793 1.58212 0
M  V30 746 O 72.5727 0.733202 1.7615 0
M  V30 747 C 69.7127 1.7399 2.98029 0
M  V30 748 C 68.8257 3.01172 3.09708 0
M  V30 749 C 67.9607 2.99686 4.38591 0
M  V30 750 C 66.9997 4.21434 4.43914 0
M  V30 751 N 66.1367 4.1784 5.64229 0
M  V30 752 H 70.9767 2.60459 1.44793 0
M  V30 753 H 68.5137 1.29137 0.704423 0
M  V30 754 H 70.4717 1.76352 3.78095 0
M  V30 755 H 69.1017 0.834301 3.11832 0
M  V30 756 H 68.1537 3.08408 2.22685 0
M  V30 757 H 69.4657 3.91165 3.09502 0
M  V30 758 H 68.6197 3.00628 5.2698 0
M  V30 759 H 67.3587 2.07477 4.41367 0
M  V30 760 H 66.3637 4.20733 3.53926 0
M  V30 761 H 67.5887 5.14839 4.42851 0
M  V30 762 H 65.5347 3.28469 5.67841 0
M  V30 763 H 65.4517 5.01571 5.65652 0
M  V30 764 H 66.7197 4.22889 6.54817 0
M  V30 765 N 70.9488 -0.749086 1.3866 0
M  V30 766 C 71.8588 -1.89358 1.38494 0
M  V30 767 C 72.8748 -1.71708 0.281476 0
M  V30 768 O 74.0508 -1.94554 0.520643 0
M  V30 769 C 71.1158 -3.24782 1.21316 0
M  V30 770 C 70.1768 -3.54926 2.41508 0
M  V30 771 C 69.4098 -4.83888 2.2514 0
M  V30 772 O 69.6328 -5.56592 1.24746 0
M  V30 773 O 68.5668 -5.13612 3.13826 0
M  V30 774 H 72.3928 -1.92452 2.34938 0
M  V30 775 H 69.9778 -0.894981 1.19626 0
M  V30 776 H 71.8598 -4.05739 1.13814 0
M  V30 777 H 70.5348 -3.2249 0.279592 0
M  V30 778 H 69.4418 -2.74112 2.54585 0
M  V30 779 H 70.7748 -3.61983 3.3351 0
M  V30 780 N 72.4269 -1.23603 -0.977757 0
M  V30 781 C 73.3369 -1.03632 -2.1047 0
M  V30 782 C 74.3529 0.0199435 -1.73989 0
M  V30 783 O 75.5289 -0.176076 -2.00629 0
M  V30 784 C 72.5939 -0.63276 -3.40877 0
M  V30 785 C 71.6549 -1.76437 -3.91367 0
M  V30 786 C 70.8879 -1.37997 -5.15551 0
M  V30 787 O 71.1109 -0.265357 -5.69782 0
M  V30 788 O 70.0449 -2.20201 -5.60174 0
M  V30 789 H 73.8709 -1.98086 -2.30208 0
M  V30 790 H 71.4559 -1.02332 -1.08851 0
M  V30 791 H 73.3379 -0.418761 -4.19314 0
M  V30 792 H 72.0129 0.282754 -3.22463 0
M  V30 793 H 70.9199 -2.03304 -3.14036 0
M  V30 794 H 72.2529 -2.6583 -4.14241 0
M  V30 795 N 73.905 1.17692 -1.04816 0
M  V30 796 C 75.151 1.88137 -0.75711 0
M  V30 797 C 75.484 1.80604 0.713841 0
M  V30 798 O 74.759 1.21146 1.52164 0
M  V30 799 C 75.042 3.38318 -1.2334 0
M  V30 800 C 74.895 3.54622 -2.76701 0
M  V30 801 C 76.214 4.32214 -0.829415 0
M  V30 802 H 73.333 0.683163 -0.27651 0
M  V30 803 H 75.975 1.38424 -1.30149 0
M  V30 804 H 74.125 3.80787 -0.770286 0
M  V30 805 H 75.797 3.21194 -3.31107 0
M  V30 806 H 74.04 2.97026 -3.16161 0
M  V30 807 H 74.711 4.60028 -3.05088 0
M  V30 808 H 77.187 3.97565 -1.22805 0
M  V30 809 H 76.063 5.35838 -1.19033 0
M  V30 810 H 76.324 4.41294 0.266891 0
M  V30 811 N 75.3831 0.828654 1.34056 0
M  V30 812 C 76.7941 0.477534 1.8049 0
M  V30 813 C 77.1451 -1.00258 1.6865 0
M  V30 814 O 76.2701 -1.78057 1.22982 0
M  V30 815 C 76.8651 0.860018 3.27703 0
M  V30 816 C 75.4241 0.561185 3.72193 0
M  V30 817 C 74.5711 1.07385 2.55663 0
M  V30 818 H 77.5221 1.0183 1.21722 0
M  V30 819 H 77.5431 0.166038 3.80138 0
M  V30 820 H 77.0551 1.93731 3.36288 0
M  V30 821 H 75.1561 -0.506465 3.69142 0
M  V30 822 H 75.2691 1.10926 4.66082 0
M  V30 823 H 73.6331 0.495149 2.49841 0
M  V30 824 H 74.4161 2.15771 2.67016 0
M  V30 825 N 76.8612 -1.46375 0.584142 0
M  V30 826 C 77.7712 -2.34115 -0.150728 0
M  V30 827 C 78.7872 -1.49838 -0.884567 0
M  V30 828 O 79.9632 -1.82704 -0.847429 0
M  V30 829 C 77.0282 -3.2705 -1.15062 0
M  V30 830 C 76.0892 -4.27228 -0.421293 0
M  V30 831 C 75.3222 -5.15722 -1.37355 0
M  V30 832 O 75.5452 -5.07176 -2.61014 0
M  V30 833 O 74.4792 -5.95383 -0.883355 0
M  V30 834 H 78.3052 -2.98309 0.569708 0
M  V30 835 H 75.8902 -1.45373 0.344535 0
M  V30 836 H 77.7722 -3.84381 -1.72712 0
M  V30 837 H 76.4472 -2.65451 -1.8525 0
M  V30 838 H 75.3542 -3.7358 0.197085 0
M  V30 839 H 76.6872 -4.91616 0.239641 0
M  V30 840 N 78.3393 -0.321999 -1.54275 0
M  V30 841 C 79.5863 0.281044 -2.0054 0
M  V30 842 C 79.9143 1.52265 -1.21019 0
M  V30 843 O 79.1693 1.93687 -0.279982 0
M  V30 844 C 79.4683 0.661769 -3.5122 0
M  V30 845 C 79.1343 -0.480482 -4.48333 0
M  V30 846 C 77.7963 -0.794005 -4.74604 0
M  V30 847 C 80.1483 -1.24783 -5.06042 0
M  V30 848 C 77.4763 -1.87763 -5.55844 0
M  V30 849 C 79.8283 -2.32153 -5.88462 0
M  V30 850 C 78.4923 -2.64089 -6.13036 0
M  V30 851 H 77.7623 0.102841 -0.733829 0
M  V30 852 H 80.4093 -0.445453 -1.86247 0
M  V30 853 H 78.7143 1.46867 -3.63232 0
M  V30 854 H 80.4113 1.13989 -3.84457 0
M  V30 855 H 77.0013 -0.226039 -4.28004 0
M  V30 856 H 81.1853 -1.01887 -4.85729 0
M  V30 857 H 76.4413 -2.12954 -5.73115 0
M  V30 858 H 80.6153 -2.92057 -6.32199 0
M  V30 859 H 78.2423 -3.48185 -6.75775 0
M  V30 860 N 79.8174 1.5752 -0.0501392 0
M  V30 861 C 81.0454 1.96963 0.633492 0
M  V30 862 C 81.4604 0.927631 1.6444 0
M  V30 863 O 80.8174 -0.0882665 1.82286 0
M  V30 864 C 80.8684 3.36487 1.32132 0
M  V30 865 O 80.5894 4.36693 0.350894 0
M  V30 866 C 82.0904 3.90682 2.09481 0
M  V30 867 H 79.3104 0.648244 0.173266 0
M  V30 868 H 81.8544 2.0417 -0.116134 0
M  V30 869 H 80.0094 3.30434 2.02218 0
M  V30 870 H 80.4234 5.17702 0.841735 0
M  V30 871 H 81.8974 4.90591 2.5303 0
M  V30 872 H 82.3744 3.26053 2.94255 0
M  V30 873 H 82.9804 4.00069 1.44307 0
M  V30 874 N 81.2955 -0.223234 1.56011 0
M  V30 875 C 82.2425 -1.27664 1.92277 0
M  V30 876 C 83.2125 -1.46659 0.779763 0
M  V30 877 O 84.3975 -1.60256 1.03551 0
M  V30 878 C 81.5375 -2.62234 2.24338 0
M  V30 879 C 80.6505 -2.51051 3.51564 0
M  V30 880 C 79.7855 -3.78133 3.7308 0
M  V30 881 C 78.8245 -3.61665 4.93827 0
M  V30 882 N 77.9615 -4.80693 5.11741 0
M  V30 883 H 82.8015 -0.960358 2.82101 0
M  V30 884 H 80.3385 -0.462901 1.39627 0
M  V30 885 H 82.2965 -3.40596 2.40936 0
M  V30 886 H 80.9265 -2.91961 1.3769 0
M  V30 887 H 79.9785 -1.64132 3.43169 0
M  V30 888 H 81.2905 -2.34803 4.40079 0
M  V30 889 H 80.4445 -4.64938 3.89766 0
M  V30 890 H 79.1835 -3.97304 2.82844 0
M  V30 891 H 78.1885 -2.73244 4.77093 0
M  V30 892 H 79.4135 -3.43966 5.85546 0
M  V30 893 H 77.3595 -5.00181 4.24446 0
M  V30 894 H 77.2765 -4.67165 5.94384 0
M  V30 895 H 78.5445 -5.6893 5.3286 0
M  V30 896 N 82.7736 -1.49793 -0.48987 0
M  V30 897 C 84.0226 -1.59085 -1.23995 0
M  V30 898 C 84.3356 -0.287907 -1.9347 0
M  V30 899 O 85.5416 -0.259506 -2.70257 0
M  V30 900 C 83.9976 -2.80736 -2.252 0
M  V30 901 C 83.6056 -4.17833 -1.61614 0
M  V30 902 C 85.3496 -2.99364 -3.00967 0
M  V30 903 C 83.2566 -5.30693 -2.60996 0
M  V30 904 H 82.1866 -0.592372 -0.466488 0
M  V30 905 H 84.8376 -1.76197 -0.51252 0
M  V30 906 H 83.2196 -2.57142 -3.01154 0
M  V30 907 H 84.3936 -4.51608 -0.915774 0
M  V30 908 H 82.7086 -4.04656 -0.981977 0
M  V30 909 H 85.3056 -3.80851 -3.75308 0
M  V30 910 H 85.6486 -2.10356 -3.59244 0
M  V30 911 H 86.1816 -3.2305 -2.32128 0
M  V30 912 H 82.9206 -6.21796 -2.07485 0
M  V30 913 H 82.4406 -5.01359 -3.2924 0
M  V30 914 H 84.1196 -5.6049 -3.23202 0
M  V30 915 N 84.2517 0.741722 -1.39055 0
M  V30 916 C 85.1837 1.8657 -1.33133 0
M  V30 917 C 86.1967 1.61001 -0.241329 0
M  V30 918 O 87.3857 1.7136 -0.499784 0
M  V30 919 C 84.4857 3.22457 -1.04283 0
M  V30 920 C 83.6587 3.75435 -2.24427 0
M  V30 921 C 82.7177 4.89867 -1.92138 0
M  V30 922 O 81.7437 5.03879 -2.64754 0
M  V30 923 N 82.9457 5.73738 -0.88347 0
M  V30 924 H 85.7107 1.92156 -2.29991 0
M  V30 925 H 83.2717 0.922172 -1.3307 0
M  V30 926 H 85.2637 3.9657 -0.807128 0
M  V30 927 H 83.8337 3.12181 -0.161807 0
M  V30 928 H 83.0537 2.92751 -2.6399 0
M  V30 929 H 84.3417 4.07563 -3.04581 0
M  V30 930 H 83.7397 5.64999 -0.281517 0
M  V30 931 H 82.2967 6.47947 -0.707662 0
M  V30 932 N 85.7298 1.2412 0.971189 0
M  V30 933 C 86.9578 1.10575 1.74874 0
M  V30 934 C 87.3728 -0.342017 1.85676 0
M  V30 935 O 86.7298 -1.23617 1.34258 0
M  V30 936 C 86.7808 1.73579 3.171 0
M  V30 937 O 86.5018 3.12695 3.06844 0
M  V30 938 C 88.0028 1.65598 4.11208 0
M  V30 939 H 85.2228 0.386504 0.548503 0
M  V30 940 H 87.7668 1.64156 1.21955 0
M  V30 941 H 85.9218 1.24009 3.67016 0
M  V30 942 H 86.3358 3.43412 3.96445 0
M  V30 943 H 87.8098 2.1437 5.08674 0
M  V30 944 H 88.2868 0.616532 4.34851 0
M  V30 945 H 88.8928 2.14578 3.67201 0
M  V30 946 N 87.2079 -1.17134 1.05439 0
M  V30 947 C 88.1379 -2.2342 0.678649 0
M  V30 948 C 89.1189 -1.66971 -0.32476 0
M  V30 949 O 90.3039 -1.93149 -0.201802 0
M  V30 950 C 87.4339 -3.47256 0.0552099 0
M  V30 951 C 86.3879 -4.16543 0.98365 0
M  V30 952 C 85.7139 -5.34231 0.223961 0
M  V30 953 C 87.0139 -4.68495 2.3089 0
M  V30 954 H 88.7079 -2.55105 1.56722 0
M  V30 955 H 86.2539 -1.2262 0.754998 0
M  V30 956 H 88.2069 -4.20828 -0.21946 0
M  V30 957 H 86.9309 -3.14846 -0.868319 0
M  V30 958 H 85.5899 -3.44887 1.24293 0
M  V30 959 H 85.2379 -4.98071 -0.702412 0
M  V30 960 H 84.9379 -5.81527 0.842627 0
M  V30 961 H 86.4619 -6.10585 -0.0433671 0
M  V30 962 H 87.8759 -5.33691 2.09396 0
M  V30 963 H 86.2729 -5.26379 2.88176 0
M  V30 964 H 87.3429 -3.85169 2.94572 0
M  V30 965 N 88.686 -0.835752 -1.33615 0
M  V30 966 C 89.914 -0.443344 -2.02094 0
M  V30 967 C 90.329 0.954522 -1.62894 0
M  V30 968 O 89.686 1.61982 -0.840723 0
M  V30 969 C 89.737 -0.550775 -3.5728 0
M  V30 970 O 89.458 -1.89356 -3.95065 0
M  V30 971 C 90.959 -0.154919 -4.43029 0
M  V30 972 H 88.179 -0.176359 -0.647409 0
M  V30 973 H 90.723 -1.12746 -1.70612 0
M  V30 974 H 88.878 0.0853997 -3.87306 0
M  V30 975 H 89.292 -1.87687 -4.89769 0
M  V30 976 H 90.766 -0.281144 -5.51284 0
M  V30 977 H 91.243 0.902863 -4.2982 0
M  V30 978 H 91.849 -0.765404 -4.18356 0
M  V30 979 N 90.1641 1.46063 -0.591896 0
M  V30 980 C 91.3891 2.07226 -0.0850314 0
M  V30 981 C 91.8141 1.43625 1.21463 0
M  V30 982 O 91.1721 0.523305 1.73583 0
M  V30 983 C 91.2201 3.60554 0.0576567 0
M  V30 984 O 90.3241 3.97128 1.11188 0
M  V30 985 H 89.6651 0.660615 -0.0669568 0
M  V30 986 H 92.1951 1.8756 -0.81745 0
M  V30 987 H 92.2051 4.07165 0.2609 0
M  V30 988 H 90.8801 4.06235 -0.891416 0
M  V30 989 H 89.4571 3.62213 0.886356 0
M  V30 990 N 91.6422 0.330177 1.54103 0
M  V30 991 C 92.8672 -0.274893 2.0557 0
M  V30 992 C 93.2922 -1.44487 1.20437 0
M  V30 993 O 92.6502 -1.80021 0.214991 0
M  V30 994 C 92.6982 -0.68079 3.54115 0
M  V30 995 O 91.8022 -1.7824 3.71893 0
M  V30 996 H 91.1432 -0.0483849 0.662235 0
M  V30 997 H 93.6732 0.480508 1.98878 0
M  V30 998 H 93.6832 -0.961635 3.96505 0
M  V30 999 H 92.3582 0.174903 4.15532 0
M  V30 1000 H 90.9352 -1.49985 3.41407 0
M  V30 1001 N 93.1203 -1.57491 0.0584922 0
M  V30 1002 C 94.3663 -1.93264 -0.614558 0
M  V30 1003 C 94.6993 -0.937717 -1.7006 0
M  V30 1004 O 93.9743 0.0351652 -1.94468 0
M  V30 1005 C 94.2573 -3.3938 -1.20386 0
M  V30 1006 C 94.1103 -4.49625 -0.125375 0
M  V30 1007 C 95.4293 -3.86039 -2.11334 0
M  V30 1008 H 92.5483 -0.702791 -0.221933 0
M  V30 1009 H 95.1903 -1.8961 0.12175 0
M  V30 1010 H 93.3403 -3.42626 -1.83139 0
M  V30 1011 H 95.0123 -4.58506 0.506971 0
M  V30 1012 H 93.2553 -4.30354 0.545672 0
M  V30 1013 H 93.9263 -5.48967 -0.577861 0
M  V30 1014 H 96.4023 -3.84716 -1.58534 0
M  V30 1015 H 95.2783 -4.88914 -2.49507 0
M  V30 1016 H 95.5393 -3.23215 -3.01636 0
M  V30 1017 N 94.5984 0.214957 -1.56127 0
M  V30 1018 C 96.0144 0.564948 -1.49267 0
M  V30 1019 C 96.2144 1.86827 -0.754838 0
M  V30 1020 O 95.2704 2.50745 -0.297198 0
M  V30 1021 C 96.5834 0.638071 -2.93852 0
M  V30 1022 C 98.1314 0.728253 -3.0441 0
M  V30 1023 C 98.6064 0.832663 -4.50367 0
M  V30 1024 N 100.097 0.896712 -4.54437 0
M  V30 1025 C 100.832 0.997324 -5.6466 0
M  V30 1026 N 100.328 1.06147 -6.8462 0
M  V30 1027 N 102.121 1.03297 -5.52527 0
M  V30 1028 H 94.2724 -0.640211 -2.02522 0
M  V30 1029 H 96.5354 -0.225507 -0.920788 0
M  V30 1030 H 96.2414 -0.250126 -3.50809 0
M  V30 1031 H 96.1154 1.49947 -3.46115 0
M  V30 1032 H 98.5024 1.60689 -2.47514 0
M  V30 1033 H 98.5834 -0.158952 -2.55306 0
M  V30 1034 H 98.2274 -0.0415417 -5.07883 0
M  V30 1035 H 98.1574 1.73538 -4.97184 0
M  V30 1036 H 100.648 0.857188 -3.6805 0
M  V30 1037 H 100.961 1.1382 -7.64372 0
M  V30 1038 H 99.3064 1.03049 -6.87318 0
M  V30 1039 H 102.497 0.979558 -4.57736 0
M  V30 1040 H 102.67 1.10793 -6.38458 0
M  V30 1041 N 96.0765 1.50051 0.48192 0
M  V30 1042 C 96.9865 1.7089 1.60728 0
M  V30 1043 C 98.0025 0.591788 1.63627 0
M  V30 1044 O 99.1785 0.868817 1.81696 0
M  V30 1045 C 96.2435 1.78855 2.97005 0
M  V30 1046 C 95.3045 3.02537 3.04581 0
M  V30 1047 C 94.5375 3.10112 4.34357 0
M  V30 1048 O 94.7605 2.24765 5.24249 0
M  V30 1049 O 93.6945 4.02747 4.47301 0
M  V30 1050 H 97.5205 2.66264 1.46072 0
M  V30 1051 H 95.1055 1.34018 0.660264 0
M  V30 1052 H 96.9875 1.86336 3.77964 0
M  V30 1053 H 95.6625 0.866628 3.11883 0
M  V30 1054 H 94.5695 3.00563 2.22739 0
M  V30 1055 H 95.9025 3.94272 2.94636 0
M  V30 1056 N 97.5546 -0.734337 1.39446 0
M  V30 1057 C 98.7796 -1.52866 1.40167 0
M  V30 1058 C 99.2046 -1.881 -0.00171513 0
M  V30 1059 O 98.5626 -1.51957 -0.988879 0
M  V30 1060 C 98.6106 -2.79235 2.28167 0
M  V30 1061 O 97.7146 -3.75185 1.71201 0
M  V30 1062 H 97.0556 -0.461618 0.477289 0
M  V30 1063 H 99.5856 -0.905949 1.8345 0
M  V30 1064 H 99.5956 -3.27963 2.42702 0
M  V30 1065 H 98.2706 -2.52923 3.30156 0
M  V30 1066 H 96.8476 -3.33958 1.65912 0
M  V30 1067 N 99.0327 -1.24633 -0.964593 0
M  V30 1068 C 100.258 -1.11596 -1.74818 0
M  V30 1069 C 100.683 0.32723 -1.85232 0
M  V30 1070 O 100.041 1.23695 -1.32549 0
M  V30 1071 C 100.089 -1.76397 -3.1451 0
M  V30 1072 O 99.1927 -1.03685 -3.99153 0
M  V30 1073 H 98.5337 -0.390196 -0.537255 0
M  V30 1074 H 101.064 -1.65002 -1.20977 0
M  V30 1075 H 101.074 -1.8228 -3.65018 0
M  V30 1076 H 99.7487 -2.81401 -3.06246 0
M  V30 1077 H 98.3257 -1.05611 -3.57632 0
M  V30 1078 N 100.511 1.16574 -1.06058 0
M  V30 1079 C 101.758 1.87047 -0.775873 0
M  V30 1080 C 102.086 1.81562 0.697534 0
M  V30 1081 O 101.341 1.22445 1.52662 0
M  V30 1082 C 101.64 3.36195 -1.21275 0
M  V30 1083 C 101.306 3.6188 -2.68986 0
M  V30 1084 C 99.9678 3.68599 -3.09335 0
M  V30 1085 C 102.32 3.72648 -3.64394 0
M  V30 1086 C 99.6478 3.83584 -4.43937 0
M  V30 1087 C 102 3.89154 -4.98741 0
M  V30 1088 C 100.664 3.94114 -5.3873 0
M  V30 1089 H 99.9338 0.684452 -0.283912 0
M  V30 1090 H 102.581 1.37853 -1.32925 0
M  V30 1091 H 100.886 3.87505 -0.578528 0
M  V30 1092 H 102.583 3.89103 -0.969542 0
M  V30 1093 H 99.1728 3.57281 -2.36744 0
M  V30 1094 H 103.357 3.66769 -3.34356 0
M  V30 1095 H 98.6128 3.85677 -4.74409 0
M  V30 1096 H 102.787 3.96427 -5.72554 0
M  V30 1097 H 100.414 4.05478 -6.43033 0
M  V30 1098 N 101.989 0.842826 1.3317 0
M  V30 1099 C 103.235 0.441099 1.97945 0
M  V30 1100 C 103.568 -0.998024 1.66593 0
M  V30 1101 O 102.843 -1.69839 0.947898 0
M  V30 1102 C 103.126 0.666841 3.53872 0
M  V30 1103 C 102.979 2.15352 3.94897 0
M  V30 1104 C 104.298 0.115544 4.39948 0
M  V30 1105 H 101.417 0.161739 0.719034 0
M  V30 1106 H 104.059 1.05907 1.57746 0
M  V30 1107 H 102.209 0.140828 3.88245 0
M  V30 1108 H 103.881 2.7447 3.70761 0
M  V30 1109 H 102.124 2.63653 3.44484 0
M  V30 1110 H 102.795 2.26221 5.03516 0
M  V30 1111 H 105.271 0.565213 4.12243 0
M  V30 1112 H 104.147 0.303152 5.48062 0
M  V30 1113 H 104.408 -0.980935 4.3108 0
M  V30 1114 N 103.467 -1.45747 0.599634 0
M  V30 1115 C 104.377 -2.34262 -0.125888 0
M  V30 1116 C 105.393 -1.50768 -0.868625 0
M  V30 1117 O 106.569 -1.83592 -0.828003 0
M  V30 1118 C 103.634 -3.28252 -1.11587 0
M  V30 1119 C 102.695 -4.27651 -0.375956 0
M  V30 1120 C 101.928 -5.1715 -1.31877 0
M  V30 1121 O 102.151 -5.09916 -2.55621 0
M  V30 1122 O 101.085 -5.96286 -0.820157 0
M  V30 1123 H 104.911 -2.97688 0.601315 0
M  V30 1124 H 102.496 -1.44999 0.359934 0
M  V30 1125 H 104.378 -3.86191 -1.68626 0
M  V30 1126 H 103.053 -2.67401 -1.82424 0
M  V30 1127 H 101.96 -3.7335 0.236698 0
M  V30 1128 H 103.293 -4.91334 0.29177 0
M  V30 1129 N 104.945 -0.338344 -1.53925 0
M  V30 1130 C 105.892 0.520845 -2.24846 0
M  V30 1131 C 106.862 1.09976 -1.24477 0
M  V30 1132 O 108.047 1.13735 -1.53196 0
M  V30 1133 C 105.187 1.6685 -3.02084 0
M  V30 1134 C 104.3 1.11739 -4.17299 0
M  V30 1135 C 103.435 2.23193 -4.82036 0
M  V30 1136 C 102.474 1.65407 -5.89328 0
M  V30 1137 N 101.611 2.70582 -6.47866 0
M  V30 1138 H 106.451 -0.0904881 -2.97863 0
M  V30 1139 H 103.988 -0.0564282 -1.46992 0
M  V30 1140 H 105.946 2.34407 -3.45122 0
M  V30 1141 H 104.576 2.2509 -2.31375 0
M  V30 1142 H 103.628 0.332919 -3.7894 0
M  V30 1143 H 104.94 0.654677 -4.94485 0
M  V30 1144 H 104.094 2.98626 -5.28117 0
M  V30 1145 H 102.833 2.72807 -4.04262 0
M  V30 1146 H 101.838 0.884779 -5.42634 0
M  V30 1147 H 103.063 1.16652 -6.69006 0
M  V30 1148 H 101.009 3.1946 -5.72959 0
M  V30 1149 H 100.926 2.28917 -7.20509 0
M  V30 1150 H 102.194 3.45799 -6.98601 0
M  V30 1151 N 106.423 1.57458 -0.0668435 0
M  V30 1152 C 107.356 2.08033 0.93795 0
M  V30 1153 C 108.334 0.984321 1.29421 0
M  V30 1154 O 109.518 1.25736 1.40437 0
M  V30 1155 C 106.645 2.53388 2.24749 0
M  V30 1156 C 105.691 3.74376 2.04315 0
M  V30 1157 S 106.524 5.19303 1.30706 0
M  V30 1158 C 107.68 5.67986 2.62951 0
M  V30 1159 H 107.913 2.92935 0.50759 0
M  V30 1160 H 105.446 1.5371 0.145804 0
M  V30 1161 H 107.404 2.8018 3.00016 0
M  V30 1162 H 106.065 1.68763 2.64911 0
M  V30 1163 H 105.258 4.04083 3.01218 0
M  V30 1164 H 104.86 3.47931 1.37186 0
M  V30 1165 H 107.152 5.74528 3.5906 0
M  V30 1166 H 108.095 6.66955 2.3786 0
M  V30 1167 H 108.503 4.95781 2.69929 0
M  V30 1168 N 107.901 -0.206675 1.56239 0
M  V30 1169 C 108.848 -1.25617 1.93621 0
M  V30 1170 C 109.818 -1.45824 0.795274 0
M  V30 1171 O 111.003 -1.59148 1.05245 0
M  V30 1172 C 108.143 -2.59839 2.27107 0
M  V30 1173 C 107.256 -2.47308 3.54207 0
M  V30 1174 C 106.391 -3.74155 3.7707 0
M  V30 1175 C 105.43 -3.56407 4.97635 0
M  V30 1176 N 104.567 -4.75238 5.1681 0
M  V30 1177 H 109.407 -0.930383 2.83104 0
M  V30 1178 H 106.944 -0.448065 1.4011 0
M  V30 1179 H 108.902 -3.38021 2.44535 0
M  V30 1180 H 107.532 -2.90485 1.40778 0
M  V30 1181 H 106.584 -1.60483 3.4489 0
M  V30 1182 H 107.896 -2.30122 4.42544 0
M  V30 1183 H 107.05 -4.60778 3.94675 0
M  V30 1184 H 105.789 -3.94282 2.87042 0
M  V30 1185 H 104.794 -2.68168 4.79964 0
M  V30 1186 H 106.019 -3.37736 5.89161 0
M  V30 1187 H 103.965 -4.95651 4.29728 0
M  V30 1188 H 103.882 -4.60835 5.99306 0
M  V30 1189 H 105.15 -5.63246 5.38864 0
M  V30 1190 N 109.379 -1.50304 -0.473955 0
M  V30 1191 C 110.326 -1.68959 -1.57231 0
M  V30 1192 C 111.296 -0.530899 -1.57387 0
M  V30 1193 O 112.481 -0.761133 -1.74961 0
M  V30 1194 C 109.621 -1.7871 -2.95223 0
M  V30 1195 C 108.734 -3.06061 -3.04878 0
M  V30 1196 C 107.869 -3.06626 -4.33767 0
M  V30 1197 C 106.908 -4.28443 -4.37154 0
M  V30 1198 N 106.045 -4.26763 -5.5751 0
M  V30 1199 H 110.885 -2.6273 -1.40631 0
M  V30 1200 H 108.422 -1.30241 -0.683789 0
M  V30 1201 H 110.38 -1.82344 -3.75242 0
M  V30 1202 H 109.01 -0.883806 -3.10465 0
M  V30 1203 H 108.062 -3.11911 -2.17751 0
M  V30 1204 H 109.374 -3.96039 -3.0324 0
M  V30 1205 H 108.528 -3.08973 -5.22131 0
M  V30 1206 H 107.267 -2.14473 -4.3801 0
M  V30 1207 H 106.272 -4.2631 -3.47188 0
M  V30 1208 H 107.497 -5.2182 -4.34605 0
M  V30 1209 H 105.443 -3.37462 -5.62544 0
M  V30 1210 H 105.36 -5.10507 -5.57601 0
M  V30 1211 H 106.628 -4.33253 -6.48006 0
M  V30 1212 N 110.857 0.726932 -1.39834 0
M  V30 1213 C 112.085 1.51613 -1.40787 0
M  V30 1214 C 112.5 1.88799 -0.00451505 0
M  V30 1215 O 111.857 1.54662 0.968809 0
M  V30 1216 C 111.908 2.79863 -2.28821 0
M  V30 1217 O 111.629 2.44253 -3.63692 0
M  V30 1218 C 113.13 3.73837 -2.38245 0
M  V30 1219 H 110.35 0.468264 -0.480593 0
M  V30 1220 H 112.894 0.897607 -1.83748 0
M  V30 1221 H 111.049 3.38027 -1.89252 0
M  V30 1222 H 111.463 3.26695 -4.1033 0
M  V30 1223 H 112.937 4.60699 -3.04073 0
M  V30 1224 H 113.414 4.16153 -1.40403 0
M  V30 1225 H 114.02 3.21589 -2.78317 0
M  V30 1226 N 112.336 1.25143 0.95797 0
M  V30 1227 C 113.584 1.09476 1.69881 0
M  V30 1228 C 113.905 -0.365502 1.91544 0
M  V30 1229 O 113.175 -1.25985 1.50015 0
M  V30 1230 H 111.755 0.402128 0.629525 0
M  V30 1231 H 114.417 1.57214 1.15194 0
M  V30 1232 H 113.513 1.60046 2.6794 0
M  V30 1233 N 113.814 -1.1601 1.06675 0
M  V30 1234 C 115.23 -1.38622 0.790948 0
M  V30 1235 C 115.43 -1.92109 -0.607965 0
M  V30 1236 O 114.486 -2.12239 -1.36787 0
M  V30 1237 C 115.799 -2.36347 1.85905 0
M  V30 1238 C 117.347 -2.50023 1.88301 0
M  V30 1239 C 117.822 -3.51033 2.94176 0
M  V30 1240 N 119.313 -3.58563 2.93235 0
M  V30 1241 C 120.048 -4.36521 3.71803 0
M  V30 1242 N 119.544 -5.17869 4.602 0
M  V30 1243 N 121.337 -4.31541 3.60178 0
M  V30 1244 H 113.488 -0.796294 1.96908 0
M  V30 1245 H 115.751 -0.412597 0.853503 0
M  V30 1246 H 115.457 -2.04147 2.86386 0
M  V30 1247 H 115.331 -3.36042 1.71334 0
M  V30 1248 H 117.718 -2.81524 0.884769 0
M  V30 1249 H 117.799 -1.5035 2.06951 0
M  V30 1250 H 117.443 -3.20268 3.94196 0
M  V30 1251 H 117.373 -4.50445 2.72776 0
M  V30 1252 H 119.864 -3.00496 2.29152 0
M  V30 1253 H 120.177 -5.74578 5.16797 0
M  V30 1254 H 118.522 -5.17199 4.64253 0
M  V30 1255 H 121.713 -3.67051 2.90502 0
M  V30 1256 H 121.886 -4.9205 4.21653 0
M  V30 1257 N 115.292 -0.849877 -1.32721 0
M  V30 1258 C 116.24 -0.279745 -2.30912 0
M  V30 1259 C 117.234 0.594278 -1.58634 0
M  V30 1260 O 118.44 0.482613 -1.73409 0
M  V30 1261 H 114.815 -0.0717521 -0.748569 0
M  V30 1262 H 116.786 -1.12222 -2.76494 0
M  V30 1263 C 115.535 0.521108 -3.43773 0
M  V30 1264 H 114.858 -0.142141 -3.99547 0
M  V30 1265 H 116.298 0.885693 -4.14646 0
M  V30 1266 C 114.757 1.70442 -2.90605 0
M  V30 1267 O 115.287 2.8034 -2.87702 0
M  V30 1268 N 113.493 1.52991 -2.47067 0
M  V30 1269 H 113.04 0.635914 -2.49628 0
M  V30 1270 H 112.998 2.32311 -2.11847 0
M  V30 1271 N 116.77 1.45427 -0.607355 0
M  V30 1272 C 118.019 2.01452 -0.100036 0
M  V30 1273 C 118.332 1.48159 1.27704 0
M  V30 1274 O 119.538 1.96159 1.87707 0
M  V30 1275 C 117.994 3.59672 -0.128158 0
M  V30 1276 C 117.602 4.21962 -1.50507 0
M  V30 1277 C 119.346 4.23262 0.323932 0
M  V30 1278 C 117.253 5.72333 -1.48959 0
M  V30 1279 H 116.183 0.75325 -0.0336299 0
M  V30 1280 H 118.834 1.66901 -0.76265 0
M  V30 1281 H 117.216 3.91411 0.601105 0
M  V30 1282 H 118.39 4.01796 -2.25602 0
M  V30 1283 H 116.705 3.70565 -1.89923 0
M  V30 1284 H 119.302 5.33522 0.354691 0
M  V30 1285 H 119.645 3.93921 1.34656 0
M  V30 1286 H 120.178 3.96239 -0.352056 0
M  V30 1287 H 116.917 6.06373 -2.48981 0
M  V30 1288 H 116.437 5.94691 -0.781214 0
M  V30 1289 H 118.116 6.35525 -1.21313 0
M  V30 1290 N 118.248 0.346503 1.53744 0
M  V30 1291 C 119.497 -0.250122 2.00143 0
M  V30 1292 C 119.81 -1.51418 1.23822 0
M  V30 1293 O 121.016 -2.18823 1.60713 0
M  V30 1294 C 119.472 -0.496252 3.56462 0
M  V30 1295 C 119.08 0.752077 4.41642 0
M  V30 1296 C 120.824 -1.05157 4.11269 0
M  V30 1297 C 118.731 0.476583 5.89477 0
M  V30 1298 H 117.661 -0.0972409 0.747703 0
M  V30 1299 H 120.312 0.46229 1.77581 0
M  V30 1300 H 118.694 -1.26944 3.75102 0
M  V30 1301 H 119.868 1.5266 4.34778 0
M  V30 1302 H 118.183 1.22925 3.97842 0
M  V30 1303 H 120.78 -1.27269 5.19333 0
M  V30 1304 H 121.123 -2.00799 3.64672 0
M  V30 1305 H 121.656 -0.339019 3.96353 0
M  V30 1306 H 118.395 1.4028 6.40314 0
M  V30 1307 H 117.915 -0.259794 5.99237 0
M  V30 1308 H 119.594 0.0949315 6.4693 0
M  V30 1309 N 119.726 -1.57421 0.075193 0
M  V30 1310 C 120.972 -1.93905 -0.594025 0
M  V30 1311 C 121.305 -0.955701 -1.69056 0
M  V30 1312 O 120.58 0.0145373 -1.94495 0
M  V30 1313 C 120.863 -3.40638 -1.1678 0
M  V30 1314 C 120.716 -4.49733 -0.0776792 0
M  V30 1315 C 122.035 -3.88259 -2.07228 0
M  V30 1316 H 119.154 -0.705105 -0.214466 0
M  V30 1317 H 121.796 -1.8947 0.141854 0
M  V30 1318 H 119.946 -3.44549 -1.79494 0
M  V30 1319 H 121.618 -4.57942 0.555573 0
M  V30 1320 H 119.861 -4.29751 0.591286 0
M  V30 1321 H 120.532 -5.49549 -0.519603 0
M  V30 1322 H 123.008 -3.86376 -1.54445 0
M  V30 1323 H 121.884 -4.91533 -2.44308 0
M  V30 1324 H 122.145 -3.26396 -2.98191 0
M  V30 1325 N 121.204 0.198386 -1.56346 0
M  V30 1326 C 122.451 0.919286 -1.80431 0
M  V30 1327 C 122.779 1.83393 -0.647866 0
M  V30 1328 O 122.034 1.92236 0.366556 0
M  V30 1329 C 122.333 1.77031 -3.10475 0
M  V30 1330 C 121.999 1.00693 -4.39513 0
M  V30 1331 C 120.661 0.796145 -4.74568 0
M  V30 1332 C 123.013 0.469559 -5.19081 0
M  V30 1333 C 120.341 0.0364588 -5.86689 0
M  V30 1334 C 122.693 -0.2769 -6.31994 0
M  V30 1335 C 121.357 -0.49873 -6.65634 0
M  V30 1336 H 120.627 0.336391 -0.660244 0
M  V30 1337 H 123.274 0.185872 -1.90596 0
M  V30 1338 H 121.579 2.5723 -2.95533 0
M  V30 1339 H 123.276 2.33065 -3.26315 0
M  V30 1340 H 119.866 1.18122 -4.12001 0
M  V30 1341 H 124.05 0.619816 -4.92414 0
M  V30 1342 H 119.306 -0.145412 -6.11227 0
M  V30 1343 H 123.48 -0.700684 -6.92866 0
M  V30 1344 H 121.107 -1.0893 -7.52355 0
M  V30 1345 N 122.682 1.50554 0.465978 0
M  V30 1346 C 123.912 1.65323 1.23903 0
M  V30 1347 C 124.32 0.338051 1.86155 0
M  V30 1348 O 123.663 -0.690518 1.70228 0
M  V30 1349 C 123.725 2.69048 2.3844 0
M  V30 1350 C 123.389 4.12462 1.96784 0
M  V30 1351 C 124.386 4.98168 1.48745 0
M  V30 1352 C 122.071 4.58407 2.05349 0
M  V30 1353 C 124.065 6.27868 1.0982 0
M  V30 1354 C 121.752 5.88112 1.66035 0
M  V30 1355 C 122.75 6.72668 1.18349 0
M  V30 1356 O 122.438 7.99951 0.795825 0
M  V30 1357 H 122.17 0.558629 0.38067 0
M  V30 1358 H 124.724 1.97561 0.562022 0
M  V30 1359 H 122.954 2.32062 3.09328 0
M  V30 1360 H 124.643 2.72985 3.0039 0
M  V30 1361 H 125.409 4.63885 1.41546 0
M  V30 1362 H 121.288 3.92735 2.41414 0
M  V30 1363 H 124.832 6.93819 0.725293 0
M  V30 1364 H 120.729 6.21914 1.72895 0
M  V30 1365 H 121.497 8.13265 0.924222 0
M  V30 1366 N 124.16 -0.719506 1.40217 0
M  V30 1367 C 125.408 -1.47641 1.3801 0
M  V30 1368 C 125.729 -1.94992 -0.018145 0
M  V30 1369 O 124.999 -1.70073 -0.972207 0
M  V30 1370 H 123.579 -0.547744 0.507923 0
M  V30 1371 H 126.241 -0.853187 1.75233 0
M  V30 1372 H 125.337 -2.35112 2.05253 0
M  V30 1373 N 125.638 -1.25649 -0.95132 0
M  V30 1374 C 126.863 -1.13443 -1.73624 0
M  V30 1375 C 127.288 0.307565 -1.85568 0
M  V30 1376 O 126.646 1.22282 -1.33854 0
M  V30 1377 C 126.694 -1.79723 -3.12621 0
M  V30 1378 O 125.798 -1.07912 -3.98031 0
M  V30 1379 H 125.139 -0.395872 -0.533086 0
M  V30 1380 H 127.669 -1.66276 -1.1922 0
M  V30 1381 H 127.679 -1.86141 -3.63064 0
M  V30 1382 H 126.354 -2.84633 -3.03244 0
M  V30 1383 H 124.931 -1.09398 -3.56492 0
M  V30 1384 N 127.117 1.15442 -1.07289 0
M  V30 1385 C 128.049 2.19773 -0.650585 0
M  V30 1386 C 129.062 1.60076 0.296572 0
M  V30 1387 O 130.251 1.78293 0.0859905 0
M  V30 1388 C 127.351 3.38838 0.0650398 0
M  V30 1389 C 126.524 4.2808 -0.898141 0
M  V30 1390 C 125.583 5.2574 -0.219926 0
M  V30 1391 O 124.609 5.62654 -0.860773 0
M  V30 1392 N 125.811 5.71205 1.03466 0
M  V30 1393 H 128.576 2.56622 -1.54808 0
M  V30 1394 H 126.137 1.30551 -0.957494 0
M  V30 1395 H 128.129 4.01222 0.529415 0
M  V30 1396 H 126.699 3.00409 0.864466 0
M  V30 1397 H 125.919 3.62804 -1.54165 0
M  V30 1398 H 127.207 4.84577 -1.5512 0
M  V30 1399 H 126.605 5.43325 1.57526 0
M  V30 1400 H 125.162 6.35633 1.44272 0
M  V30 1401 N 128.595 0.856903 1.32268 0
M  V30 1402 C 129.823 0.475439 2.01363 0
M  V30 1403 C 130.238 -0.928486 1.64392 0
M  V30 1404 O 129.595 -1.60624 0.866387 0
M  V30 1405 C 129.646 0.607545 3.56358 0
M  V30 1406 O 129.367 1.95617 3.92002 0
M  V30 1407 C 130.868 0.225382 4.42727 0
M  V30 1408 H 128.088 0.186636 0.644521 0
M  V30 1409 H 130.632 1.15446 1.68797 0
M  V30 1410 H 128.787 -0.0237719 3.87393 0
M  V30 1411 H 129.201 1.95455 4.86721 0
M  V30 1412 H 130.675 0.368813 5.50767 0
M  V30 1413 H 131.152 -0.834369 4.31202 0
M  V30 1414 H 131.758 0.831864 4.17085 0
M  V30 1415 N 130.073 -1.45103 0.615059 0
M  V30 1416 C 131.321 -2.01784 0.112955 0
M  V30 1417 C 131.642 -1.48504 -1.26378 0
M  V30 1418 O 130.912 -0.682245 -1.83636 0
M  V30 1419 H 129.492 -0.745993 0.0387668 0
M  V30 1420 H 132.154 -1.77808 0.798141 0
M  V30 1421 H 131.25 -3.12025 0.0684069 0
M  V30 1422 N 131.551 -0.354651 -1.53558 0
M  V30 1423 C 132.779 0.239515 -2.05509 0
M  V30 1424 C 133.194 1.4333 -1.2289 0
M  V30 1425 O 132.551 1.80538 -0.266899 0
M  V30 1426 C 132.602 0.643719 -3.55723 0
M  V30 1427 O 132.323 -0.502602 -4.35207 0
M  V30 1428 C 133.824 1.29743 -4.23889 0
M  V30 1429 H 131.044 0.0442697 -0.669538 0
M  V30 1430 H 133.588 -0.509856 -1.98042 0
M  V30 1431 H 131.743 1.34302 -3.63376 0
M  V30 1432 H 132.157 -0.178172 -5.24197 0
M  V30 1433 H 133.631 1.53091 -5.30346 0
M  V30 1434 H 134.108 2.25441 -3.76926 0
M  V30 1435 H 134.714 0.639865 -4.20459 0
M  V30 1436 N 133.029 1.57378 -0.0835403 0
M  V30 1437 C 133.992 2.12252 0.864959 0
M  V30 1438 C 134.992 1.04916 1.21858 0
M  V30 1439 O 136.182 1.30853 1.14991 0
M  V30 1440 C 133.314 2.63358 2.16461 0
M  V30 1441 H 134.507 2.97371 0.388676 0
M  V30 1442 H 132.06 1.55423 0.165317 0
M  V30 1443 H 132.795 1.81727 2.686 0
M  V30 1444 H 132.58 3.41826 1.92087 0
M  V30 1445 H 134.07 3.05847 2.84337 0
M  V30 1446 N 134.507 -0.190092 1.56449 0
M  V30 1447 C 135.417 -1.25591 1.98152 0
M  V30 1448 C 136.433 -1.49519 0.889944 0
M  V30 1449 O 137.609 -1.62036 1.19609 0
M  V30 1450 C 134.674 -2.57916 2.3169 0
M  V30 1451 C 133.735 -2.42015 3.5458 0
M  V30 1452 C 132.968 -3.6803 3.8651 0
M  V30 1453 O 133.191 -4.72413 3.1966 0
M  V30 1454 O 132.125 -3.6326 4.79923 0
M  V30 1455 H 135.951 -0.931988 2.89046 0
M  V30 1456 H 133.536 -0.395488 1.4407 0
M  V30 1457 H 135.418 -3.36008 2.54316 0
M  V30 1458 H 134.093 -2.89925 1.43963 0
M  V30 1459 H 133 -1.62017 3.37196 0
M  V30 1460 H 134.333 -2.14937 4.4279 0
M  V30 1461 N 135.985 -1.50799 -0.457987 0
M  V30 1462 C 136.895 -1.73426 -1.57989 0
M  V30 1463 C 137.911 -0.617745 -1.62665 0
M  V30 1464 O 139.087 -0.897614 -1.80291 0
M  V30 1465 C 136.152 -1.83557 -2.94122 0
M  V30 1466 C 135.213 -3.07345 -2.99729 0
M  V30 1467 C 134.446 -3.16983 -4.29368 0
M  V30 1468 O 134.669 -2.33077 -5.20607 0
M  V30 1469 O 133.603 -4.09812 -4.40837 0
M  V30 1470 H 137.429 -2.68555 -1.41817 0
M  V30 1471 H 135.014 -1.35052 -0.638859 0
M  V30 1472 H 136.896 -1.92326 -3.74952 0
M  V30 1473 H 135.571 -0.916137 -3.10465 0
M  V30 1474 H 134.478 -3.04068 -2.1793 0
M  V30 1475 H 135.811 -3.9891 -2.88326 0
M  V30 1476 N 137.463 0.71206 -1.40597 0
M  V30 1477 C 138.71 1.47197 -1.39065 0
M  V30 1478 C 139.038 1.94499 0.00583891 0
M  V30 1479 O 138.293 1.68752 0.99102 0
M  V30 1480 C 138.592 2.71039 -2.32965 0
M  V30 1481 C 138.258 2.42484 -3.80148 0
M  V30 1482 C 136.92 2.34406 -4.20247 0
M  V30 1483 C 139.272 2.18598 -4.73143 0
M  V30 1484 C 136.6 2.00516 -5.51371 0
M  V30 1485 C 138.952 1.8622 -6.0457 0
M  V30 1486 C 137.616 1.76626 -6.43708 0
M  V30 1487 H 136.886 0.538634 -0.508876 0
M  V30 1488 H 139.533 0.815325 -1.73276 0
M  V30 1489 H 137.838 3.41558 -1.91951 0
M  V30 1490 H 139.535 3.29138 -2.29061 0
M  V30 1491 H 136.125 2.49659 -3.4838 0
M  V30 1492 H 140.309 2.23793 -4.42979 0
M  V30 1493 H 135.565 1.91628 -5.80593 0
M  V30 1494 H 139.739 1.66752 -6.76141 0
M  V30 1495 H 137.366 1.50133 -7.45228 0
M  V30 1496 N 138.941 1.26152 0.944643 0
M  V30 1497 C 139.904 1.07474 2.0244 0
M  V30 1498 C 140.904 0.0242064 1.60782 0
M  V30 1499 O 142.094 0.267302 1.72137 0
M  V30 1500 C 139.226 0.633956 3.34953 0
M  V30 1501 H 140.419 2.03336 2.20442 0
M  V30 1502 H 137.972 1.087 1.12312 0
M  V30 1503 H 138.707 -0.326811 3.22649 0
M  V30 1504 H 138.492 1.39247 3.66542 0
M  V30 1505 H 139.982 0.52501 4.14287 0
M  V30 1506 N 140.419 -1.14872 1.07899 0
M  V30 1507 C 141.367 -2.21857 0.698727 0
M  V30 1508 C 142.361 -1.66845 -0.293086 0
M  V30 1509 O 143.567 -1.79321 -0.156204 0
M  V30 1510 H 139.942 -0.722691 0.207899 0
M  V30 1511 H 141.913 -2.51205 1.61054 0
M  V30 1512 C 140.662 -3.47498 0.11858 0
M  V30 1513 H 139.985 -3.90154 0.872914 0
M  V30 1514 H 141.425 -4.23858 -0.109759 0
M  V30 1515 C 139.884 -3.16947 -1.1422 0
M  V30 1516 O 140.414 -3.3426 -2.22785 0
M  V30 1517 N 138.62 -2.70946 -1.05055 0
M  V30 1518 H 138.167 -2.57058 -0.167038 0
M  V30 1519 H 138.125 -2.50879 -1.89491 0
M  V30 1520 N 141.898 -0.863906 -1.31812 0
M  V30 1521 C 143.314 -0.555004 -1.49639 0
M  V30 1522 C 143.514 0.912266 -1.79666 0
M  V30 1523 O 142.57 1.69479 -1.87171 0
M  V30 1524 C 143.883 -1.44998 -2.63431 0
M  V30 1525 C 145.431 -1.45138 -2.77316 0
M  V30 1526 C 145.906 -2.33179 -3.94197 0
M  V30 1527 N 147.397 -2.31025 -4.01474 0
M  V30 1528 C 148.132 -2.95871 -4.9117 0
M  V30 1529 N 147.628 -3.69863 -5.8581 0
M  V30 1530 N 149.421 -2.85211 -4.84367 0
M  V30 1531 H 141.572 -1.81339 -1.10589 0
M  V30 1532 H 143.835 -0.77505 -0.545895 0
M  V30 1533 H 143.541 -2.49377 -2.48 0
M  V30 1534 H 143.415 -1.14409 -3.59431 0
M  V30 1535 H 145.802 -0.415201 -2.92164 0
M  V30 1536 H 145.883 -1.79747 -1.82001 0
M  V30 1537 H 145.527 -3.3687 -3.80107 0
M  V30 1538 H 145.457 -1.95897 -4.88807 0
M  V30 1539 H 147.948 -1.77238 -3.33759 0
M  V30 1540 H 148.261 -4.16486 -6.50968 0
M  V30 1541 H 146.606 -3.73971 -5.85808 0
M  V30 1542 H 149.797 -2.26948 -4.09405 0
M  V30 1543 H 149.97 -3.36027 -5.54066 0
M  V30 1544 N 143.376 1.44774 -0.622745 0
M  V30 1545 C 144.306 2.33382 0.0741861 0
M  V30 1546 C 145.287 1.47719 0.843387 0
M  V30 1547 O 146.472 1.76458 0.810934 0
M  V30 1548 C 143.602 3.30663 1.06204 0
M  V30 1549 C 142.556 4.26079 0.405037 0
M  V30 1550 C 141.882 5.13165 1.5022 0
M  V30 1551 C 143.182 5.1781 -0.683414 0
M  V30 1552 H 144.876 2.91905 -0.665713 0
M  V30 1553 H 142.422 1.40363 -0.321587 0
M  V30 1554 H 144.375 3.9153 1.55827 0
M  V30 1555 H 143.099 2.70331 1.83272 0
M  V30 1556 H 141.758 3.66532 -0.0704683 0
M  V30 1557 H 141.406 4.49191 2.26355 0
M  V30 1558 H 141.106 5.77812 1.06803 0
M  V30 1559 H 142.63 5.76902 2.00041 0
M  V30 1560 H 144.044 5.72661 -0.270631 0
M  V30 1561 H 142.441 5.91015 -1.04023 0
M  V30 1562 H 143.511 4.59326 -1.55395 0
M  V30 1563 N 144.854 0.36279 1.53368 0
M  V30 1564 C 146.079 -0.231226 2.06107 0
M  V30 1565 C 146.504 -1.419 1.23474 0
M  V30 1566 O 145.862 -1.79524 0.253128 0
M  V30 1567 C 145.91 -0.605523 3.5548 0
M  V30 1568 O 145.014 -1.70312 3.7559 0
M  V30 1569 H 144.355 -0.034327 0.663112 0
M  V30 1570 H 146.885 0.522584 1.97814 0
M  V30 1571 H 146.895 -0.877314 3.98456 0
M  V30 1572 H 145.57 0.263004 4.15068 0
M  V30 1573 H 144.147 -1.4271 3.44512 0
M  V30 1574 N 146.332 -1.57332 0.0918853 0
M  V30 1575 C 147.279 -2.13847 -0.868211 0
M  V30 1576 C 148.249 -1.05618 -1.28196 0
M  V30 1577 O 149.434 -1.33387 -1.36427 0
M  V30 1578 C 146.574 -2.72062 -2.12312 0
M  V30 1579 C 145.687 -3.94514 -1.7602 0
M  V30 1580 C 144.822 -4.40903 -2.96273 0
M  V30 1581 C 143.861 -5.55953 -2.56092 0
M  V30 1582 N 142.998 -5.97209 -3.69169 0
M  V30 1583 H 147.838 -2.95575 -0.379406 0
M  V30 1584 H 145.375 -1.46048 -0.175606 0
M  V30 1585 H 147.333 -3.03931 -2.858 0
M  V30 1586 H 145.963 -1.93068 -2.58698 0
M  V30 1587 H 145.015 -3.68979 -0.925135 0
M  V30 1588 H 146.327 -4.7802 -1.42472 0
M  V30 1589 H 145.481 -4.74539 -3.78018 0
M  V30 1590 H 144.22 -3.56291 -3.33029 0
M  V30 1591 H 143.225 -5.21948 -1.72773 0
M  V30 1592 H 144.45 -6.42311 -2.20484 0
M  V30 1593 H 142.396 -5.15543 -4.05649 0
M  V30 1594 H 142.313 -6.75504 -3.39456 0
M  V30 1595 H 143.581 -6.35475 -4.51434 0
M  V30 1596 N 147.81 0.181792 -1.56548 0
M  V30 1597 C 149.087 0.926765 -1.72251 0
M  V30 1598 C 149.467 2.00831 -0.650386 0
M  V30 1599 O 148.815 2.26008 0.336521 0
M  V30 1600 C 149.025 1.50106 -3.1507 0
M  V30 1601 C 150.373 1.97805 -3.75711 0
M  V30 1602 O 151.397 1.59922 -3.18282 0
M  V30 1603 O 150.256 2.67555 -4.76525 0
M  V30 1604 H 147.35 0.435506 -0.703039 0
M  V30 1605 H 149.896 0.170443 -1.68842 0
M  V30 1606 H 148.668 0.72212 -3.84579 0
M  V30 1607 H 148.291 2.32186 -3.22763 0
M  V30 1608 N 149.288 1.51039 0.449983 0
M  V30 1609 C 150.251 1.70863 1.5277 0
M  V30 1610 C 151.251 0.578846 1.5002 0
M  V30 1611 O 152.441 0.846213 1.52266 0
M  V30 1612 C 149.573 1.75341 2.9235 0
M  V30 1613 H 150.766 2.67034 1.36502 0
M  V30 1614 H 148.319 1.40838 0.677812 0
M  V30 1615 H 149.054 0.809383 3.14037 0
M  V30 1616 H 148.839 2.57436 2.95752 0
M  V30 1617 H 150.329 1.92559 3.70555 0
M  V30 1618 N 150.766 -0.704594 1.40972 0
M  V30 1619 C 151.716 -1.81051 1.38581 0
M  V30 1620 C 152.7 -1.58759 0.261585 0
M  V30 1621 O 153.892 -1.69745 0.501556 0
M  V30 1622 C 151.021 -3.19279 1.26157 0
M  V30 1623 C 150.107 -3.47296 2.43405 0
M  V30 1624 N 150.498 -3.46064 3.68881 0
M  V30 1625 C 148.796 -3.77804 2.37023 0
M  V30 1626 C 149.497 -3.72733 4.46592 0
M  V30 1627 N 148.473 -3.9203 3.76581 0
M  V30 1628 H 152.275 -1.78448 2.33525 0
M  V30 1629 H 149.789 -0.904198 1.349 0
M  V30 1630 H 151.786 -3.98488 1.22526 0
M  V30 1631 H 150.446 -3.231 0.321902 0
M  V30 1632 H 151.457 -3.26656 4.01891 0
M  V30 1633 H 148.134 -3.8905 1.51481 0
M  V30 1634 H 149.524 -3.77993 5.55492 0
M  V30 1635 N 152.244 -1.26651 -0.937939 0
M  V30 1636 C 153.66 -1.03834 -1.21205 0
M  V30 1637 C 153.86 0.234502 -2.00131 0
M  V30 1638 O 152.916 0.942767 -2.3424 0
M  V30 1639 C 154.229 -2.27167 -1.97017 0
M  V30 1640 C 155.777 -2.32101 -2.09996 0
M  V30 1641 C 156.252 -3.55136 -2.8921 0
M  V30 1642 N 157.743 -3.55632 -2.96783 0
M  V30 1643 C 158.478 -4.475 -3.58512 0
M  V30 1644 N 157.974 -5.4966 -4.21717 0
M  V30 1645 N 159.767 -4.35145 -3.55816 0
M  V30 1646 H 151.918 -2.08398 -0.410391 0
M  V30 1647 H 154.181 -0.916031 -0.244114 0
M  V30 1648 H 153.887 -3.19765 -1.46434 0
M  V30 1649 H 153.761 -2.31672 -2.97671 0
M  V30 1650 H 156.148 -1.40015 -2.59769 0
M  V30 1651 H 156.229 -2.31605 -1.08594 0
M  V30 1652 H 155.873 -4.47553 -2.40123 0
M  V30 1653 H 155.803 -3.5288 -3.90875 0
M  V30 1654 H 158.294 -2.81743 -2.51852 0
M  V30 1655 H 158.607 -6.15943 -4.66727 0
M  V30 1656 H 156.952 -5.53514 -4.20294 0
M  V30 1657 H 160.143 -3.5455 -3.05634 0
M  V30 1658 H 160.316 -5.06934 -4.03636 0
M  V30 1659 N 153.722 1.14298 -1.08507 0
M  V30 1660 C 154.952 1.88945 -0.835663 0
M  V30 1661 C 155.36 1.78894 0.615928 0
M  V30 1662 O 154.703 1.1468 1.43506 0
M  V30 1663 C 154.765 3.39585 -1.17994 0
M  V30 1664 C 154.429 3.7342 -2.63451 0
M  V30 1665 C 155.426 3.73454 -3.61702 0
M  V30 1666 C 153.111 4.03368 -2.99332 0
M  V30 1667 C 155.105 4.02961 -4.93864 0
M  V30 1668 C 152.792 4.32538 -4.31687 0
M  V30 1669 C 153.79 4.32318 -5.28763 0
M  V30 1670 O 153.478 4.6078 -6.58739 0
M  V30 1671 H 153.21 0.605307 -0.300965 0
M  V30 1672 H 155.764 1.45673 -1.44806 0
M  V30 1673 H 153.994 3.83315 -0.51055 0
M  V30 1674 H 155.683 3.9554 -0.911182 0
M  V30 1675 H 156.449 3.50403 -3.35325 0
M  V30 1676 H 152.328 4.02692 -2.24411 0
M  V30 1677 H 155.872 4.02704 -5.69627 0
M  V30 1678 H 151.769 4.55059 -4.57812 0
M  V30 1679 H 152.537 4.78492 -6.64069 0
M  V30 1680 N 155.201 0.870884 1.31352 0
M  V30 1681 C 156.449 0.48132 1.96285 0
M  V30 1682 C 156.77 -0.969813 1.69173 0
M  V30 1683 O 156.04 -1.67998 1.00764 0
M  V30 1684 H 154.62 0.175002 0.726212 0
M  V30 1685 H 157.282 1.11087 1.60143 0
M  V30 1686 H 156.378 0.639825 3.05471 0
M  V30 1687 N 156.679 -1.44442 0.630414 0
M  V30 1688 C 157.612 -2.27862 -0.124247 0
M  V30 1689 C 158.59 -1.38495 -0.851931 0
M  V30 1690 O 159.774 -1.67935 -0.856166 0
M  V30 1691 C 156.901 -3.17407 -1.18197 0
M  V30 1692 C 155.947 -4.22875 -0.554892 0
M  V30 1693 S 156.78 -5.31485 0.654489 0
M  V30 1694 C 157.936 -6.246 -0.40326 0
M  V30 1695 H 158.169 -2.91519 0.583435 0
M  V30 1696 H 155.702 -1.48618 0.418565 0
M  V30 1697 H 157.66 -3.69549 -1.78728 0
M  V30 1698 H 156.321 -2.52971 -1.86184 0
M  V30 1699 H 155.514 -4.85542 -1.35148 0
M  V30 1700 H 155.116 -3.73992 -0.0242105 0
M  V30 1701 H 157.408 -6.65375 -1.27602 0
M  V30 1702 H 158.351 -7.07851 0.187813 0
M  V30 1703 H 158.759 -5.59775 -0.728837 0
M  V30 1704 N 158.157 -0.370918 -1.53173 0
M  V30 1705 C 159.573 -0.0200818 -1.59587 0
M  V30 1706 C 159.773 1.46279 -1.38581 0
M  V30 1707 O 158.829 2.22506 -1.19363 0
M  V30 1708 C 160.142 -0.4808 -2.96831 0
M  V30 1709 C 161.69 -0.435477 -3.09956 0
M  V30 1710 C 162.165 -0.872092 -4.4962 0
M  V30 1711 N 163.656 -0.827364 -4.55751 0
M  V30 1712 C 164.391 -1.13683 -5.62018 0
M  V30 1713 N 163.887 -1.51584 -6.76014 0
M  V30 1714 N 165.68 -1.05927 -5.52029 0
M  V30 1715 H 157.831 -1.33652 -1.65079 0
M  V30 1716 H 160.094 -0.546634 -0.774529 0
M  V30 1717 H 159.8 -1.51577 -3.1736 0
M  V30 1718 H 159.674 0.129796 -3.76977 0
M  V30 1719 H 162.061 0.590371 -2.89134 0
M  V30 1720 H 162.142 -1.08164 -2.31806 0
M  V30 1721 H 161.786 -1.89608 -4.71181 0
M  V30 1722 H 161.716 -0.203127 -5.26208 0
M  V30 1723 H 164.207 -0.548216 -3.73902 0
M  V30 1724 H 164.52 -1.73609 -7.53047 0
M  V30 1725 H 162.865 -1.55454 -6.77391 0
M  V30 1726 H 166.056 -0.762321 -4.61851 0
M  V30 1727 H 166.229 -1.30378 -6.34749 0
M  V30 1728 N 159.635 1.57281 -0.100228 0
M  V30 1729 C 160.883 1.94153 0.561157 0
M  V30 1730 C 161.204 0.983157 1.68401 0
M  V30 1731 O 160.474 0.0361132 1.95867 0
M  V30 1732 H 159.054 0.716791 0.210283 0
M  V30 1733 H 161.716 1.94202 -0.164765 0
M  V30 1734 H 160.812 2.96709 0.968008 0
M  V30 1735 N 161.113 -0.173488 1.56642 0
M  V30 1736 C 162.046 -1.24353 1.91342 0
M  V30 1737 C 163.024 -1.4289 0.775965 0
M  V30 1738 O 164.208 -1.57932 1.02907 0
M  V30 1739 C 161.335 -2.60683 2.16245 0
M  V30 1740 C 160.381 -2.58894 3.38934 0
M  V30 1741 S 161.214 -2.0819 4.93373 0
M  V30 1742 C 162.37 -3.46302 5.21369 0
M  V30 1743 H 162.603 -0.947345 2.81803 0
M  V30 1744 H 160.136 -0.377958 1.49703 0
M  V30 1745 H 162.094 -3.39149 2.31275 0
M  V30 1746 H 160.755 -2.87502 1.26496 0
M  V30 1747 H 159.948 -3.59188 3.53553 0
M  V30 1748 H 159.55 -1.88522 3.2301 0
M  V30 1749 H 161.842 -4.42287 5.13214 0
M  V30 1750 H 162.785 -3.3656 6.23003 0
M  V30 1751 H 163.193 -3.42214 4.48943 0
M  V30 1752 N 162.591 -1.51276 -0.441967 0
M  V30 1753 C 163.816 -1.67799 -1.21895 0
M  V30 1754 C 164.241 -0.372864 -1.84367 0
M  V30 1755 O 163.599 0.666501 -1.68604 0
M  V30 1756 C 163.647 -2.79199 -2.28211 0
M  V30 1757 O 162.751 -2.42479 -3.33583 0
M  V30 1758 H 162.092 -0.559649 -0.357336 0
M  V30 1759 H 164.622 -1.97815 -0.522522 0
M  V30 1760 H 164.632 -3.03146 -2.73069 0
M  V30 1761 H 163.307 -3.73906 -1.82118 0
M  V30 1762 H 161.884 -2.29087 -2.94234 0
M  V30 1763 N 164.069 0.697108 -1.41344 0
M  V30 1764 C 165.032 1.79281 -1.42797 0
M  V30 1765 C 166.032 1.57607 -0.318837 0
M  V30 1766 O 167.222 1.64309 -0.578642 0
M  V30 1767 C 164.354 3.17632 -1.23785 0
M  V30 1768 H 165.547 1.79385 -2.40335 0
M  V30 1769 H 163.1 0.904582 -1.27464 0
M  V30 1770 H 163.835 3.23167 -0.270814 0
M  V30 1771 H 163.62 3.34765 -2.04144 0
M  V30 1772 H 165.11 3.97617 -1.27633 0
M  V30 1773 N 165.547 1.27147 0.931209 0
M  V30 1774 C 166.824 1.0401 1.65654 0
M  V30 1775 C 167.204 -0.426297 2.06751 0
M  V30 1776 O 166.552 -1.40879 1.79904 0
M  V30 1777 C 166.762 1.99834 2.86125 0
M  V30 1778 C 168.11 2.29007 3.57549 0
M  V30 1779 O 169.134 1.97779 2.96246 0
M  V30 1780 O 167.993 2.82222 4.67989 0
M  V30 1781 H 165.087 0.396239 0.725895 0
M  V30 1782 H 167.633 1.38397 0.982056 0
M  V30 1783 H 166.405 2.98744 2.52721 0
M  V30 1784 H 166.028 1.65987 3.61295 0
M  V30 1785 N 167.025 -1.13721 1.09112 0
M  V30 1786 C 168.436 -1.6648 0.845068 0
M  V30 1787 C 168.787 -1.85911 -0.62701 0
M  V30 1788 O 167.912 -1.57556 -1.48341 0
M  V30 1789 C 168.507 -3.02413 1.52748 0
M  V30 1790 C 167.066 -3.52176 1.32849 0
M  V30 1791 C 166.213 -2.27492 1.58564 0
M  V30 1792 H 169.164 -0.976872 1.25072 0
M  V30 1793 H 169.185 -3.68223 0.958752 0
M  V30 1794 H 168.697 -2.88238 2.59885 0
M  V30 1795 H 166.798 -3.7156 0.278137 0
M  V30 1796 H 166.911 -4.32499 2.0611 0
M  V30 1797 H 165.275 -2.33923 1.00758 0
M  V30 1798 H 166.058 -2.15886 2.66924 0
M  V30 1799 N 168.503 -0.877838 -1.30888 0
M  V30 1800 C 169.413 -0.343096 -2.32078 0
M  V30 1801 C 170.429 0.551022 -1.65045 0
M  V30 1802 O 171.605 0.445854 -1.96403 0
M  V30 1803 C 168.67 0.439905 -3.43898 0
M  V30 1804 C 167.731 -0.483111 -4.26573 0
M  V30 1805 C 166.964 0.262616 -5.33053 0
M  V30 1806 O 167.187 1.48967 -5.50604 0
M  V30 1807 O 166.121 -0.383593 -6.00676 0
M  V30 1808 H 169.947 -1.18203 -2.79753 0
M  V30 1809 H 167.532 -0.64145 -1.34929 0
M  V30 1810 H 169.414 0.883504 -4.12034 0
M  V30 1811 H 168.089 1.25526 -2.98371 0
M  V30 1812 H 166.996 -0.975374 -3.61161 0
M  V30 1813 H 168.329 -1.26427 -4.75686 0
M  V30 1814 N 169.982 1.44106 -0.638065 0
M  V30 1815 C 170.892 2.34513 0.0637334 0
M  V30 1816 C 171.908 1.53018 0.828346 0
M  V30 1817 O 173.084 1.85723 0.779036 0
M  V30 1818 C 170.149 3.31095 1.02844 0
M  V30 1819 C 169.21 4.28497 0.26244 0
M  V30 1820 C 168.443 5.20465 1.1812 0
M  V30 1821 O 168.666 5.16514 2.42011 0
M  V30 1822 O 167.6 5.98251 0.661774 0
M  V30 1823 H 171.426 2.95989 -0.68003 0
M  V30 1824 H 169.011 1.43994 -0.398252 0
M  V30 1825 H 170.893 3.90526 1.58327 0
M  V30 1826 H 169.568 2.72144 1.7527 0
M  V30 1827 H 168.475 3.72592 -0.335602 0
M  V30 1828 H 169.808 4.90388 -0.421936 0
M  V30 1829 N 171.46 0.379036 1.52974 0
M  V30 1830 C 172.69 -0.20649 2.05566 0
M  V30 1831 C 173.098 -1.41906 1.25137 0
M  V30 1832 O 172.441 -1.81421 0.288464 0
M  V30 1833 C 172.503 -0.651086 3.53555 0
M  V30 1834 C 172.167 0.446626 4.54812 0
M  V30 1835 C 173.164 1.30079 5.03364 0
M  V30 1836 C 170.849 0.610719 4.98573 0
M  V30 1837 C 172.843 2.30426 5.94292 0
M  V30 1838 C 170.53 1.61754 5.89304 0
M  V30 1839 C 171.528 2.46274 6.37054 0
M  V30 1840 O 171.216 3.45237 7.25994 0
M  V30 1841 H 170.948 -0.0372381 0.674974 0
M  V30 1842 H 173.502 0.539718 1.98182 0
M  V30 1843 H 171.732 -1.44911 3.58522 0
M  V30 1844 H 173.421 -1.16112 3.88938 0
M  V30 1845 H 174.187 1.18527 4.70294 0
M  V30 1846 H 170.066 -0.0374044 4.60985 0
M  V30 1847 H 173.61 2.96432 6.31485 0
M  V30 1848 H 169.507 1.73348 6.21788 0
M  V30 1849 H 170.275 3.41124 7.44027 0
M  V30 1850 N 172.938 -1.57226 0.108567 0
M  V30 1851 C 174.215 -1.86333 -0.594939 0
M  V30 1852 C 174.595 -1.00788 -1.85486 0
M  V30 1853 O 173.943 -0.0839293 -2.28346 0
M  V30 1854 C 174.153 -3.37265 -0.897405 0
M  V30 1855 C 175.501 -4.05629 -1.25501 0
M  V30 1856 O 176.525 -3.42224 -0.987998 0
M  V30 1857 O 175.384 -5.17531 -1.75567 0
M  V30 1858 H 172.478 -0.771018 -0.2991 0
M  V30 1859 H 175.024 -1.69102 0.142283 0
M  V30 1860 H 173.796 -3.913 -0.00413806 0
M  V30 1861 H 173.419 -3.59889 -1.69014 0
M  V30 1862 N 174.416 0.165178 -1.56732 0
M  V30 1863 C 175.346 1.20651 -1.99914 0
M  V30 1864 C 176.327 1.45827 -0.875705 0
M  V30 1865 O 177.512 1.57057 -1.14223 0
M  V30 1866 C 174.642 2.54401 -2.36427 0
M  V30 1867 C 173.596 2.43782 -3.51787 0
M  V30 1868 C 172.922 3.82078 -3.7406 0
M  V30 1869 C 174.222 1.93732 -4.85041 0
M  V30 1870 H 175.916 0.847534 -2.87154 0
M  V30 1871 H 173.462 0.40625 -1.38151 0
M  V30 1872 H 175.415 3.27458 -2.65234 0
M  V30 1873 H 174.139 2.92098 -1.46103 0
M  V30 1874 H 172.798 1.73178 -3.23117 0
M  V30 1875 H 172.446 4.17179 -2.81017 0
M  V30 1876 H 172.146 3.7584 -4.51684 0
M  V30 1877 H 173.67 4.56712 -4.05274 0
M  V30 1878 H 175.084 2.56569 -5.12684 0
M  V30 1879 H 173.481 1.98428 -5.66345 0
M  V30 1880 H 174.551 0.891962 -4.76626 0
M  V30 1881 N 175.894 1.51508 0.433938 0
M  V30 1882 C 176.857 1.72473 1.50949 0
M  V30 1883 C 177.857 0.594725 1.49398 0
M  V30 1884 O 179.047 0.862315 1.5136 0
M  V30 1885 C 176.179 1.78431 2.90474 0
M  V30 1886 H 177.372 2.68467 1.33662 0
M  V30 1887 H 174.925 1.41549 0.662836 0
M  V30 1888 H 175.66 0.842645 3.13161 0
M  V30 1889 H 175.445 2.60558 2.93005 0
M  V30 1890 H 176.935 1.96479 3.68491 0
M  V30 1891 N 177.372 -0.689602 1.41712 0
M  V30 1892 C 178.649 -1.44457 1.31877 0
M  V30 1893 C 179.029 -2.11039 -0.0508537 0
M  V30 1894 O 178.377 -2.02138 -1.06547 0
M  V30 1895 C 178.587 -2.45913 2.47645 0
M  V30 1896 C 179.935 -3.10991 2.89084 0
M  V30 1897 O 180.959 -2.56238 2.47428 0
M  V30 1898 O 179.818 -4.10174 3.61137 0
M  V30 1899 H 176.912 -0.64362 0.519309 0
M  V30 1900 H 179.458 -0.719576 1.53689 0
M  V30 1901 H 178.23 -1.95409 3.39015 0
M  V30 1902 H 177.853 -3.25913 2.27742 0
M  V30 1903 N 178.85 -1.27639 -0.924453 0
M  V30 1904 C 179.78 -1.13166 -2.04244 0
M  V30 1905 C 180.761 -0.032256 -1.70069 0
M  V30 1906 O 181.946 -0.207328 -1.9309 0
M  V30 1907 C 179.076 -0.781496 -3.38393 0
M  V30 1908 C 178.03 -1.83449 -3.86692 0
M  V30 1909 C 177.356 -1.33822 -5.17683 0
M  V30 1910 C 178.656 -3.23917 -4.09726 0
M  V30 1911 H 180.35 -2.06689 -2.1661 0
M  V30 1912 H 177.896 -0.995136 -1.04082 0
M  V30 1913 H 179.849 -0.667057 -4.16087 0
M  V30 1914 H 178.573 0.189439 -3.2605 0
M  V30 1915 H 177.232 -1.93789 -3.11193 0
M  V30 1916 H 176.88 -0.35665 -5.01734 0
M  V30 1917 H 176.58 -2.04224 -5.50968 0
M  V30 1918 H 178.104 -1.23679 -5.97943 0
M  V30 1919 H 179.518 -3.16559 -4.77978 0
M  V30 1920 H 177.915 -3.92059 -4.54324 0
M  V30 1921 H 178.985 -3.68729 -3.14908 0
M  V30 1922 N 180.328 1.1314 -1.09713 0
M  V30 1923 C 181.553 1.88862 -0.857081 0
M  V30 1924 C 181.978 1.78729 0.586304 0
M  V30 1925 O 181.336 1.13692 1.41222 0
M  V30 1926 C 181.384 3.36325 -1.30069 0
M  V30 1927 O 180.488 4.09815 -0.461007 0
M  V30 1928 H 179.829 0.587108 -0.310162 0
M  V30 1929 H 182.359 1.43129 -1.46203 0
M  V30 1930 H 182.369 3.87157 -1.28738 0
M  V30 1931 H 181.044 3.43017 -2.35185 0
M  V30 1932 H 179.621 3.68986 -0.538888 0
M  V30 1933 N 181.806 0.884767 1.30421 0
M  V30 1934 C 183.031 0.517288 2.00845 0
M  V30 1935 C 183.456 -0.886779 1.65885 0
M  V30 1936 O 182.814 -1.58768 0.875354 0
M  V30 1937 C 182.862 0.698994 3.5376 0
M  V30 1938 O 181.966 -0.255208 4.1161 0
M  V30 1939 H 181.307 0.203872 0.631927 0
M  V30 1940 H 183.837 1.19225 1.66272 0
M  V30 1941 H 183.847 0.597912 4.03595 0
M  V30 1942 H 182.522 1.72271 3.78544 0
M  V30 1943 H 181.099 -0.10784 3.72744 0
M  V30 1944 N 183.284 -1.43765 0.645699 0
M  V30 1945 C 184.214 -2.33471 -0.0370477 0
M  V30 1946 C 185.195 -1.49042 -0.819779 0
M  V30 1947 O 186.38 -1.77726 -0.782758 0
M  V30 1948 C 183.51 -3.32311 -1.0093 0
M  V30 1949 C 182.464 -4.2667 -0.337201 0
M  V30 1950 C 181.79 -5.1549 -1.42037 0
M  V30 1951 C 183.09 -5.16657 0.765706 0
M  V30 1952 H 184.784 -2.90809 0.712069 0
M  V30 1953 H 182.33 -1.39834 0.343876 0
M  V30 1954 H 184.283 -3.9396 -1.49578 0
M  V30 1955 H 183.007 -2.73213 -1.78948 0
M  V30 1956 H 181.666 -3.66374 0.128771 0
M  V30 1957 H 181.314 -4.52735 -2.1918 0
M  V30 1958 H 181.014 -5.79438 -0.975966 0
M  V30 1959 H 182.538 -5.80012 -1.90838 0
M  V30 1960 H 183.952 -5.72158 0.361702 0
M  V30 1961 H 182.349 -5.89286 1.13413 0
M  V30 1962 H 183.419 -4.56796 1.62683 0
M  V30 1963 N 184.763 -0.387143 -1.52771 0
M  V30 1964 C 186.174 0.0873634 -1.86495 0
M  V30 1965 C 186.525 1.46336 -1.30691 0
M  V30 1966 O 185.65 2.068 -0.637409 0
M  V30 1967 C 186.245 0.165305 -3.38396 0
M  V30 1968 C 184.804 0.584101 -3.7184 0
M  V30 1969 C 183.951 -0.255279 -2.76122 0
M  V30 1970 H 186.902 -0.605104 -1.46711 0
M  V30 1971 H 186.923 0.984848 -3.67534 0
M  V30 1972 H 186.435 -0.836301 -3.78982 0
M  V30 1973 H 184.536 1.59315 -3.36823 0
M  V30 1974 H 184.649 0.343749 -4.77865 0
M  V30 1975 H 183.013 0.279126 -2.53166 0
M  V30 1976 H 183.796 -1.25482 -3.19545 0
M  V30 1977 N 186.241 1.57166 -0.116904 0
M  V30 1978 C 187.151 2.18745 0.847812 0
M  V30 1979 C 188.167 1.163 1.29423 0
M  V30 1980 O 189.343 1.48761 1.35765 0
M  V30 1981 C 186.408 2.77307 2.0809 0
M  V30 1982 C 185.469 3.94781 1.68661 0
M  V30 1983 C 184.702 4.50541 2.86091 0
M  V30 1984 O 184.925 4.05202 4.01456 0
M  V30 1985 O 183.859 5.41256 2.63298 0
M  V30 1986 H 187.685 3.01632 0.353778 0
M  V30 1987 H 185.27 1.49005 0.108599 0
M  V30 1988 H 187.152 3.14647 2.80313 0
M  V30 1989 H 185.827 1.97452 2.56504 0
M  V30 1990 H 184.734 3.62214 0.935518 0
M  V30 1991 H 186.067 4.76065 1.24991 0
M  V30 1992 N 187.719 -0.156864 1.56817 0
M  V30 1993 C 188.968 -0.869504 1.81996 0
M  V30 1994 C 189.281 -1.82777 0.696545 0
M  V30 1995 O 190.487 -2.58384 0.833658 0
M  V30 1996 C 188.943 -1.59679 3.22538 0
M  V30 1997 C 188.551 -0.681431 4.42787 0
M  V30 1998 C 190.295 -2.2968 3.56997 0
M  V30 1999 C 188.202 -1.40978 5.74351 0
M  V30 2000 H 187.132 -0.328438 0.678708 0
M  V30 2001 H 189.783 -0.1223 1.83092 0
M  V30 2002 H 188.165 -2.38927 3.158 0
M  V30 2003 H 189.339 0.0751166 4.60739 0
M  V30 2004 H 187.654 -0.0903431 4.16302 0
M  V30 2005 H 190.251 -2.84794 4.52544 0
M  V30 2006 H 190.594 -3.05707 2.82576 0
M  V30 2007 H 191.127 -1.57361 3.65352 0
M  V30 2008 H 187.866 -0.691561 6.51842 0
M  V30 2009 H 187.386 -2.13929 5.60352 0
M  V30 2010 H 189.065 -1.95337 6.16808 0
M  V30 2011 N 189.197 -1.51736 -0.425897 0
M  V30 2012 C 190.474 -1.55519 -1.1863 0
M  V30 2013 C 190.854 -0.326219 -2.08564 0
M  V30 2014 O 190.202 0.688012 -2.17896 0
M  V30 2015 C 190.412 -2.87521 -1.9782 0
M  V30 2016 C 191.76 -3.39899 -2.54468 0
M  V30 2017 O 192.784 -2.89148 -2.08019 0
M  V30 2018 O 191.643 -4.2848 -3.39215 0
M  V30 2019 H 188.737 -0.625739 -0.540721 0
M  V30 2020 H 191.283 -1.64055 -0.434038 0
M  V30 2021 H 190.055 -3.68422 -1.31836 0
M  V30 2022 H 189.678 -2.822 -2.80088 0
M  V30 2023 N 190.675 0.682077 -1.42076 0
M  V30 2024 C 191.623 1.81707 -1.45208 0
M  V30 2025 C 192.617 1.66183 -0.328591 0
M  V30 2026 O 193.823 1.7288 -0.501264 0
M  V30 2027 H 190.198 0.599014 -0.454628 0
M  V30 2028 H 192.169 1.76183 -2.40836 0
M  V30 2029 C 190.918 3.19816 -1.36428 0
M  V30 2030 H 190.241 3.32385 -2.22171 0
M  V30 2031 H 191.681 3.99272 -1.42681 0
M  V30 2032 C 190.14 3.36809 -0.078191 0
M  V30 2033 O 190.67 3.92124 0.87188 0
M  V30 2034 N 188.876 2.906 0.00229266 0
M  V30 2035 H 188.423 2.45772 -0.771616 0
M  V30 2036 H 188.381 3.02347 0.862179 0
M  V30 2037 N 192.153 1.28127 0.917671 0
M  V30 2038 C 193.116 1.11744 2.00115 0
M  V30 2039 C 194.116 0.0583052 1.60694 0
M  V30 2040 O 195.306 0.303755 1.71531 0
M  V30 2041 C 192.438 0.704862 3.33533 0
M  V30 2042 H 193.631 2.07966 2.16079 0
M  V30 2043 H 191.184 1.11058 1.09981 0
M  V30 2044 H 191.919 -0.258299 3.2327 0
M  V30 2045 H 191.704 1.4699 3.63505 0
M  V30 2046 H 193.194 0.612768 4.1308 0
M  V30 2047 N 193.631 -1.12557 1.10312 0
M  V30 2048 C 194.561 -2.20341 0.772798 0
M  V30 2049 C 195.542 -1.68198 -0.25365 0
M  V30 2050 O 196.727 -1.93831 -0.119699 0
M  V30 2051 C 193.857 -3.46709 0.202443 0
M  V30 2052 C 192.811 -4.11996 1.15943 0
M  V30 2053 C 192.137 -5.328 0.450345 0
M  V30 2054 C 193.437 -4.5828 2.50552 0
M  V30 2055 H 195.131 -2.48229 1.674 0
M  V30 2056 H 192.677 -1.19308 0.806326 0
M  V30 2057 H 194.63 -4.2138 -0.0407752 0
M  V30 2058 H 193.354 -3.18245 -0.734001 0
M  V30 2059 H 192.013 -3.39305 1.38808 0
M  V30 2060 H 191.661 -5.00602 -0.490531 0
M  V30 2061 H 191.361 -5.7743 1.08851 0
M  V30 2062 H 192.885 -6.10219 0.215642 0
M  V30 2063 H 194.299 -5.2433 2.31843 0
M  V30 2064 H 192.696 -5.13683 3.10242 0
M  V30 2065 H 193.766 -3.72329 3.10643 0
M  V30 2066 N 195.109 -0.891671 -1.2995 0
M  V30 2067 C 196.355 -0.514261 -1.96171 0
M  V30 2068 C 196.688 0.935506 -1.70182 0
M  V30 2069 O 195.963 1.66204 -1.01028 0
M  V30 2070 C 196.246 -0.797719 -3.51153 0
M  V30 2071 C 196.099 -2.2986 -3.86632 0
M  V30 2072 C 197.418 -0.278749 -4.39216 0
M  V30 2073 H 194.537 -0.188314 -0.712535 0
M  V30 2074 H 197.179 -1.11689 -1.53706 0
M  V30 2075 H 195.329 -0.284826 -3.87455 0
M  V30 2076 H 197.001 -2.88042 -3.60319 0
M  V30 2077 H 195.244 -2.76257 -3.34462 0
M  V30 2078 H 195.915 -2.44753 -4.94773 0
M  V30 2079 H 198.391 -0.717825 -4.09862 0
M  V30 2080 H 197.267 -0.506353 -5.46559 0
M  V30 2081 H 197.528 0.820266 -4.34424 0
M  V30 2082 N 196.587 1.43421 -0.653314 0
M  V30 2083 C 197.833 2.02111 -0.166992 0
M  V30 2084 C 198.166 1.51423 1.21592 0
M  V30 2085 O 197.441 0.707389 1.8118 0
M  V30 2086 C 197.724 3.5966 -0.177948 0
M  V30 2087 C 197.577 4.20579 -1.59478 0
M  V30 2088 C 198.896 4.37413 0.4856 0
M  V30 2089 H 196.015 0.734374 -0.0621557 0
M  V30 2090 H 198.657 1.70717 -0.834016 0
M  V30 2091 H 196.807 3.86537 0.390032 0
M  V30 2092 H 198.479 4.04732 -2.21336 0
M  V30 2093 H 196.722 3.77226 -2.14204 0
M  V30 2094 H 197.393 5.29665 -1.5543 0
M  V30 2095 H 199.869 4.161 0.00234528 0
M  V30 2096 H 198.745 5.47075 0.447207 0
M  V30 2097 H 199.006 4.13672 1.55974 0
M  V30 2098 N 198.065 0.39524 1.52563 0
M  V30 2099 C 199.312 -0.185044 2.01653 0
M  V30 2100 C 199.64 -1.46317 1.28146 0
M  V30 2101 O 198.895 -1.9213 0.372074 0
M  V30 2102 C 199.194 -0.493444 3.53977 0
M  V30 2103 C 198.86 0.69384 4.4553 0
M  V30 2104 C 197.522 1.01954 4.70275 0
M  V30 2105 C 199.874 1.48785 4.99512 0
M  V30 2106 C 197.202 2.14069 5.46252 0
M  V30 2107 C 199.554 2.59965 5.76716 0
M  V30 2108 C 198.218 2.93037 5.99738 0
M  V30 2109 H 197.488 -0.0677123 0.7379 0
M  V30 2110 H 200.135 0.533807 1.8391 0
M  V30 2111 H 198.44 -1.29369 3.69825 0
M  V30 2112 H 200.137 -0.955163 3.89458 0
M  V30 2113 H 196.727 0.429987 4.26438 0
M  V30 2114 H 200.911 1.24946 4.80315 0
M  V30 2115 H 196.167 2.40056 5.62302 0
M  V30 2116 H 200.341 3.21887 6.17545 0
M  V30 2117 H 197.968 3.8003 6.58393 0
M  V30 2118 N 199.544 -1.57102 0.125237 0
M  V30 2119 C 200.784 -1.97294 -0.534259 0
M  V30 2120 C 201.148 -1.0074 -1.63449 0
M  V30 2121 O 202.349 -1.29893 -2.35332 0
M  V30 2122 C 200.62 -3.41705 -1.04748 0
M  V30 2123 S 202.179 -4.03913 -1.71463 0
M  V30 2124 H 198.997 -0.689517 -0.173458 0
M  V30 2125 H 201.599 -1.94349 0.211797 0
M  V30 2126 H 200.303 -4.09723 -0.235649 0
M  V30 2127 H 199.834 -3.48315 -1.82867 0
M  V30 2128 H 201.849 -3.95182 -3.00077 0
M  V30 2129 N 201.022 0.148545 -1.56898 0
M  V30 2130 C 201.955 1.21293 -1.93296 0
M  V30 2131 C 202.933 1.41637 -0.798599 0
M  V30 2132 O 204.117 1.56275 -1.05406 0
M  V30 2133 C 201.244 2.5721 -2.20365 0
M  V30 2134 C 200.29 2.53469 -3.4301 0
M  V30 2135 S 201.123 2.00315 -4.96623 0
M  V30 2136 C 202.279 3.37964 -5.26812 0
M  V30 2137 H 202.512 0.902393 -2.83274 0
M  V30 2138 H 200.045 0.354094 -1.50285 0
M  V30 2139 H 202.003 3.35427 -2.36641 0
M  V30 2140 H 200.664 2.85454 -1.31054 0
M  V30 2141 H 199.857 3.53518 -3.59223 0
M  V30 2142 H 199.459 1.83359 -3.25968 0
M  V30 2143 H 201.751 4.34066 -5.20185 0
M  V30 2144 H 202.694 3.26606 -6.28279 0
M  V30 2145 H 203.102 3.35028 -4.54331 0
M  V30 2146 N 202.5 1.5196 0.417844 0
M  V30 2147 C 203.463 1.74065 1.49111 0
M  V30 2148 C 204.463 0.610537 1.48758 0
M  V30 2149 O 205.653 0.87832 1.50437 0
M  V30 2150 C 202.785 1.81502 2.88565 0
M  V30 2151 H 203.978 2.69869 1.30807 0
M  V30 2152 H 201.531 1.42244 0.647785 0
M  V30 2153 H 202.266 0.875813 3.1225 0
M  V30 2154 H 202.051 2.63651 2.90225 0
M  V30 2155 H 203.541 2.00376 3.66387 0
M  V30 2156 N 203.978 -0.674533 1.42435 0
M  V30 2157 C 205.206 -1.46283 1.46317 0
M  V30 2158 C 205.621 -1.88653 0.0745836 0
M  V30 2159 O 204.978 -1.58151 -0.91074 0
M  V30 2160 C 205.029 -2.71178 2.3905 0
M  V30 2161 O 204.75 -2.30586 3.72507 0
M  V30 2162 C 206.251 -3.64738 2.51955 0
M  V30 2163 H 203.471 -0.450104 0.497642 0
M  V30 2164 H 206.015 -0.828792 1.86953 0
M  V30 2165 H 204.17 -3.3077 2.01667 0
M  V30 2166 H 204.584 -3.11241 4.22172 0
M  V30 2167 H 206.058 -4.49096 3.20962 0
M  V30 2168 H 206.535 -4.10656 1.55752 0
M  V30 2169 H 207.141 -3.11038 2.90061 0
M  V30 2170 N 205.456 -1.28612 -0.910864 0
M  V30 2171 C 206.686 -1.1862 -1.69153 0
M  V30 2172 C 207.094 0.257324 -1.87442 0
M  V30 2173 O 206.437 1.18543 -1.40332 0
M  V30 2174 C 206.499 -1.81606 -3.10257 0
M  V30 2175 C 206.163 -3.30864 -3.15243 0
M  V30 2176 C 207.16 -4.27256 -2.96223 0
M  V30 2177 C 204.845 -3.71871 -3.37664 0
M  V30 2178 C 206.839 -5.62631 -2.99541 0
M  V30 2179 C 204.526 -5.07371 -3.40614 0
M  V30 2180 C 205.524 -6.02561 -3.21573 0
M  V30 2181 O 205.212 -7.35589 -3.2429 0
M  V30 2182 H 204.944 -0.412633 -0.535453 0
M  V30 2183 H 207.498 -1.70306 -1.14827 0
M  V30 2184 H 205.728 -1.24418 -3.66138 0
M  V30 2185 H 207.417 -1.66092 -3.70362 0
M  V30 2186 H 208.183 -3.9691 -2.78725 0
M  V30 2187 H 204.062 -2.98241 -3.5153 0
M  V30 2188 H 207.606 -6.36907 -2.84597 0
M  V30 2189 H 203.503 -5.37366 -3.57642 0
M  V30 2190 H 204.271 -7.44252 -3.40633 0
M  V30 2191 N 206.934 1.1197 -1.10907 0
M  V30 2192 C 208.182 1.83225 -0.852819 0
M  V30 2193 C 208.503 1.84769 0.623341 0
M  V30 2194 O 207.773 1.3143 1.45269 0
M  V30 2195 H 206.353 0.67849 -0.312507 0
M  V30 2196 H 209.015 1.3556 -1.40033 0
M  V30 2197 H 208.111 2.87265 -1.22005 0
M  V30 2198 N 208.412 0.89855 1.29475 0
M  V30 2199 C 209.322 0.379974 2.31502 0
M  V30 2200 C 210.338 -0.524695 1.659 0
M  V30 2201 O 211.514 -0.414551 1.97087 0
M  V30 2202 C 208.579 -0.385138 3.44554 0
M  V30 2203 C 207.64 0.550914 4.2575 0
M  V30 2204 C 206.873 -0.177778 5.33404 0
M  V30 2205 O 207.096 -1.40189 5.52904 0
M  V30 2206 O 206.03 0.479106 5.9999 0
M  V30 2207 H 209.856 1.22639 2.77837 0
M  V30 2208 H 207.441 0.662834 1.33891 0
M  V30 2209 H 209.323 -0.817841 4.13388 0
M  V30 2210 H 207.998 -1.20763 3.0033 0
M  V30 2211 H 206.905 1.03271 3.59564 0
M  V30 2212 H 208.238 1.33979 4.73614 0
M  V30 2213 N 209.89 -1.43072 0.660911 0
M  V30 2214 C 211.138 -2.01323 0.177094 0
M  V30 2215 C 211.459 -1.5245 -1.2159 0
M  V30 2216 O 210.729 -0.740322 -1.81373 0
M  V30 2217 H 209.309 -0.744382 0.0624804 0
M  V30 2218 H 211.971 -1.75179 0.854305 0
M  V30 2219 H 211.067 -3.11649 0.167641 0
M  V30 2220 N 211.368 -0.403325 -1.52352 0
M  V30 2221 C 212.645 0.232611 -1.94212 0
M  V30 2222 C 213.025 1.63133 -1.33981 0
M  V30 2223 O 212.373 2.22659 -0.513344 0
M  V30 2224 C 212.583 0.244811 -3.4814 0
M  V30 2225 C 213.931 0.46698 -4.22024 0
M  V30 2226 O 214.955 0.324419 -3.5472 0
M  V30 2227 O 213.814 0.74747 -5.41364 0
M  V30 2228 H 210.908 0.148223 -0.813609 0
M  V30 2229 H 213.454 -0.458848 -1.63379 0
M  V30 2230 H 212.226 -0.734378 -3.84347 0
M  V30 2231 H 211.849 0.980611 -3.85318 0
M  V30 2232 N 212.846 1.57033 -0.133567 0
M  V30 2233 C 214.257 1.82593 0.389464 0
M  V30 2234 C 214.608 1.05156 1.6564 0
M  V30 2235 O 213.733 0.292644 2.14412 0
M  V30 2236 C 214.328 3.31204 0.713377 0
M  V30 2237 C 212.887 3.57393 1.18098 0
M  V30 2238 C 212.034 2.76598 0.197126 0
M  V30 2239 H 214.985 1.54598 -0.358481 0
M  V30 2240 H 215.006 3.46627 1.56939 0
M  V30 2241 H 214.518 3.87537 -0.2089 0
M  V30 2242 H 212.619 3.06433 2.11966 0
M  V30 2243 H 212.732 4.65915 1.11624 0
M  V30 2244 H 211.096 2.45257 0.687088 0
M  V30 2245 H 211.879 3.35697 -0.718504 0
M  V30 2246 N 214.325 -0.140222 1.56975 0
M  V30 2247 C 215.553 -0.866437 1.87884 0
M  V30 2248 C 215.968 -1.74428 0.722517 0
M  V30 2249 O 215.325 -1.79891 -0.30749 0
M  V30 2250 C 215.376 -1.71753 3.18093 0
M  V30 2251 O 215.097 -0.875056 4.29272 0
M  V30 2252 C 216.598 -2.55074 3.62563 0
M  V30 2253 H 213.818 -0.25019 0.622612 0
M  V30 2254 H 216.362 -0.130977 2.0408 0
M  V30 2255 H 214.517 -2.40598 3.03631 0
M  V30 2256 H 214.931 -1.46002 5.03769 0
M  V30 2257 H 216.405 -3.10356 4.5649 0
M  V30 2258 H 216.882 -3.31434 2.88181 0
M  V30 2259 H 217.488 -1.91509 3.79743 0
M  V30 2260 N 215.803 -1.52179 -0.40978 0
M  V30 2261 C 217.08 -1.56769 -1.16974 0
M  V30 2262 C 217.46 -0.348322 -2.08206 0
M  V30 2263 O 216.808 0.664862 -2.18613 0
M  V30 2264 C 217.018 -2.89603 -1.9476 0
M  V30 2265 C 218.366 -3.42579 -2.50849 0
M  V30 2266 O 219.39 -2.91338 -2.04941 0
M  V30 2267 O 218.249 -4.32054 -3.34652 0
M  V30 2268 H 215.343 -0.631439 -0.534054 0
M  V30 2269 H 217.889 -1.64507 -0.416613 0
M  V30 2270 H 216.661 -3.698 -1.27921 0
M  V30 2271 H 216.284 -2.85155 -2.77079 0
M  V30 2272 N 217.281 0.66697 -1.42791 0
M  V30 2273 C 218.229 1.80157 -1.47127 0
M  V30 2274 C 219.223 1.65825 -0.346199 0
M  V30 2275 O 220.429 1.72338 -0.519572 0
M  V30 2276 H 216.804 0.594158 -0.460956 0
M  V30 2277 H 218.775 1.73619 -2.42692 0
M  V30 2278 C 217.524 3.18351 -1.39813 0
M  V30 2279 H 216.847 3.3001 -2.25684 0
M  V30 2280 H 218.287 3.97736 -1.46908 0
M  V30 2281 C 216.746 3.36707 -0.11391 0
M  V30 2282 O 217.276 3.93027 0.830241 0
M  V30 2283 N 215.482 2.90586 -0.0285295 0
M  V30 2284 H 215.029 2.4494 -0.79764 0
M  V30 2285 H 214.987 3.03245 0.830063 0
M  V30 2286 N 218.759 1.29093 0.90403 0
M  V30 2287 C 219.722 1.1386 1.98919 0
M  V30 2288 C 220.722 0.0753457 1.60623 0
M  V30 2289 O 221.912 0.321931 1.71199 0
M  V30 2290 C 219.044 0.740198 3.32767 0
M  V30 2291 H 220.237 2.10246 2.13861 0
M  V30 2292 H 217.79 1.12218 1.08797 0
M  V30 2293 H 218.525 -0.223997 3.23525 0
M  V30 2294 H 218.31 1.50838 3.61926 0
M  V30 2295 H 219.8 0.656546 4.12407 0
M  V30 2296 N 220.237 -1.11381 1.11499 0
M  V30 2297 C 221.169 -2.17207 0.731704 0
M  V30 2298 C 222.182 -1.61066 -0.236957 0
M  V30 2299 O 223.371 -1.78489 -0.0197591 0
M  V30 2300 C 220.471 -3.38846 0.0607624 0
M  V30 2301 C 219.644 -4.24451 1.0564 0
M  V30 2302 C 218.703 -5.24562 0.4149 0
M  V30 2303 O 217.729 -5.59071 1.069 0
M  V30 2304 N 218.931 -5.74651 -0.821943 0
M  V30 2305 H 221.696 -2.50699 1.64225 0
M  V30 2306 H 219.257 -1.26908 1.00529 0
M  V30 2307 H 221.249 -4.02911 -0.380139 0
M  V30 2308 H 219.819 -3.03411 -0.752376 0
M  V30 2309 H 219.039 -3.56833 1.67524 0
M  V30 2310 H 220.327 -4.78486 1.72998 0
M  V30 2311 H 219.725 -5.48797 -1.37252 0
M  V30 2312 H 218.282 -6.40549 -1.20582 0
M  V30 2313 N 221.715 -0.905404 -1.28997 0
M  V30 2314 C 222.992 -0.453513 -1.9027 0
M  V30 2315 C 223.372 1.06721 -1.82137 0
M  V30 2316 O 222.72 1.91159 -1.25182 0
M  V30 2317 C 222.93 -0.974494 -3.35119 0
M  V30 2318 C 224.278 -1.0216 -4.12127 0
M  V30 2319 O 225.302 -0.922557 -3.44046 0
M  V30 2320 O 224.161 -1.17121 -5.33802 0
M  V30 2321 H 221.255 -0.142347 -0.814657 0
M  V30 2322 H 223.801 -0.995642 -1.37423 0
M  V30 2323 H 222.573 -2.01848 -3.35221 0
M  V30 2324 H 222.196 -0.412706 -3.95452 0
M  V30 2325 N 223.193 1.4272 -0.668489 0
M  V30 2326 C 224.44 2.01624 -0.18814 0
M  V30 2327 C 224.768 1.5282 1.20317 0
M  V30 2328 O 224.023 0.718323 1.8204 0
M  V30 2329 C 224.322 3.57021 -0.164499 0
M  V30 2330 C 223.988 4.25232 -1.49962 0
M  V30 2331 C 222.65 4.4358 -1.8652 0
M  V30 2332 C 225.002 4.63727 -2.37921 0
M  V30 2333 C 222.33 4.97694 -3.10674 0
M  V30 2334 C 224.682 5.19218 -3.6138 0
M  V30 2335 C 223.346 5.3578 -3.98115 0
M  V30 2336 H 222.616 0.737795 -0.0688454 0
M  V30 2337 H 225.263 1.70991 -0.862225 0
M  V30 2338 H 223.568 3.87285 0.593079 0
M  V30 2339 H 225.265 4.00372 0.224271 0
M  V30 2340 H 221.855 4.11306 -1.20522 0
M  V30 2341 H 226.039 4.4923 -2.10964 0
M  V30 2342 H 221.295 5.08702 -3.39164 0
M  V30 2343 H 225.469 5.4799 -4.29743 0
M  V30 2344 H 223.096 5.77475 -4.94395 0
M  V30 2345 N 224.671 0.411399 1.52136 0
M  V30 2346 C 225.901 -0.16284 2.05957 0
M  V30 2347 C 226.309 -1.3922 1.28119 0
M  V30 2348 O 225.652 -1.80768 0.326881 0
M  V30 2349 C 225.714 -0.575946 3.54856 0
M  V30 2350 C 225.378 0.542998 4.53763 0
M  V30 2351 C 226.375 1.40726 5.00492 0
M  V30 2352 C 224.06 0.716337 4.97166 0
M  V30 2353 C 226.054 2.4298 5.8927 0
M  V30 2354 C 223.741 1.74218 5.8574 0
M  V30 2355 C 224.739 2.59731 6.31687 0
M  V30 2356 O 224.427 3.60558 7.18507 0
M  V30 2357 H 224.159 -0.0229125 0.675612 0
M  V30 2358 H 226.713 0.581634 1.96993 0
M  V30 2359 H 224.943 -1.37274 3.61515 0
M  V30 2360 H 226.632 -1.07836 3.91313 0
M  V30 2361 H 227.398 1.28476 4.67674 0
M  V30 2362 H 223.277 0.0603857 4.6096 0
M  V30 2363 H 226.821 3.0976 6.25055 0
M  V30 2364 H 222.718 1.86498 6.17971 0
M  V30 2365 H 223.486 3.56829 7.36624 0
M  V30 2366 N 226.149 -1.5696 0.141893 0
M  V30 2367 C 227.426 -1.87553 -0.555281 0
M  V30 2368 C 227.806 -1.04699 -1.83306 0
M  V30 2369 O 227.154 -0.132346 -2.28116 0
M  V30 2370 C 227.364 -3.39093 -0.825664 0
M  V30 2371 C 228.712 -4.08199 -1.16869 0
M  V30 2372 O 229.736 -3.44242 -0.915185 0
M  V30 2373 O 228.595 -5.21139 -1.6455 0
M  V30 2374 H 225.689 -0.777188 -0.282679 0
M  V30 2375 H 228.235 -1.68763 0.17812 0
M  V30 2376 H 227.007 -3.91221 0.0788633 0
M  V30 2377 H 226.63 -3.63393 -1.61343 0
M  V30 2378 N 227.627 0.131896 -1.57047 0
M  V30 2379 C 228.873 0.838268 -1.85323 0
M  V30 2380 C 229.228 1.78098 -0.727937 0
M  V30 2381 O 228.521 1.89645 0.27304 0
M  V30 2382 C 228.715 1.63703 -3.17704 0
M  V30 2383 C 228.544 0.773167 -4.43004 0
M  V30 2384 C 227.314 0.432956 -5.03442 0
M  V30 2385 C 229.512 0.0966216 -5.14209 0
M  V30 2386 N 227.494 -0.442924 -6.123 0
M  V30 2387 C 228.865 -0.638778 -6.16701 0
M  V30 2388 C 230.92 0.018861 -4.97896 0
M  V30 2389 C 229.623 -1.44462 -7.04644 0
M  V30 2390 C 231.649 -0.773762 -5.86316 0
M  V30 2391 C 231.011 -1.4974 -6.883 0
M  V30 2392 H 227.11 0.284086 -0.728573 0
M  V30 2393 H 229.694 0.102731 -1.94429 0
M  V30 2394 H 227.865 2.3437 -3.09718 0
M  V30 2395 H 229.597 2.28774 -3.33833 0
M  V30 2396 H 226.352 0.772237 -4.67262 0
M  V30 2397 H 226.776 -0.872332 -6.71356 0
M  V30 2398 H 231.418 0.56397 -4.19022 0
M  V30 2399 H 229.136 -2.00093 -7.82936 0
M  V30 2400 H 232.722 -0.83612 -5.75761 0
M  V30 2401 H 231.602 -2.10087 -7.55535 0
M  V30 2402 N 229.106 1.52395 0.401703 0
M  V30 2403 C 230.036 1.79231 1.49661 0
M  V30 2404 C 231.017 0.643654 1.57452 0
M  V30 2405 O 232.202 0.889989 1.72606 0
M  V30 2406 C 229.332 1.94971 2.87409 0
M  V30 2407 C 228.286 3.10604 2.94465 0
M  V30 2408 C 227.612 3.11577 4.34538 0
M  V30 2409 C 228.912 4.49921 2.6527 0
M  V30 2410 H 230.606 2.70917 1.27454 0
M  V30 2411 H 228.152 1.30362 0.6117 0
M  V30 2412 H 230.105 2.12328 3.63999 0
M  V30 2413 H 228.829 0.999632 3.10926 0
M  V30 2414 H 227.488 2.93009 2.20321 0
M  V30 2415 H 227.136 2.14277 4.55076 0
M  V30 2416 H 226.836 3.89247 4.40183 0
M  V30 2417 H 228.36 3.31073 5.13053 0
M  V30 2418 H 229.774 4.67683 3.31581 0
M  V30 2419 H 228.171 5.29564 2.82281 0
M  V30 2420 H 229.241 4.57507 1.60671 0
M  V30 2421 N 230.584 -0.659388 1.43143 0
M  V30 2422 C 231.516 -1.7849 1.43784 0
M  V30 2423 C 232.529 -1.5932 0.334787 0
M  V30 2424 O 233.718 -1.68155 0.598842 0
M  V30 2425 C 230.818 -3.15828 1.22906 0
M  V30 2426 C 229.991 -3.61711 2.45934 0
M  V30 2427 C 229.05 -4.77831 2.20371 0
M  V30 2428 O 228.076 -4.87586 2.93681 0
M  V30 2429 N 229.278 -5.67611 1.21647 0
M  V30 2430 H 232.043 -1.7842 2.40803 0
M  V30 2431 H 229.604 -0.84302 1.3822 0
M  V30 2432 H 231.596 -3.91189 1.03697 0
M  V30 2433 H 230.166 -3.10707 0.343542 0
M  V30 2434 H 229.386 -2.76861 2.80609 0
M  V30 2435 H 230.674 -3.89112 3.27825 0
M  V30 2436 H 230.072 -5.62397 0.610449 0
M  V30 2437 H 228.629 -6.42719 1.08423 0
M  V30 2438 N 232.062 -1.29571 -0.897171 0
M  V30 2439 C 232.972 -1.16808 -2.03453 0
M  V30 2440 C 233.988 -0.0907471 -1.73763 0
M  V30 2441 O 235.164 -0.303312 -1.99103 0
M  V30 2442 C 232.229 -0.848264 -3.36163 0
M  V30 2443 C 231.29 -2.0097 -3.79354 0
M  V30 2444 C 230.523 -1.70505 -5.05731 0
M  V30 2445 O 230.746 -0.62718 -5.66941 0
M  V30 2446 O 229.68 -2.5538 -5.45036 0
M  V30 2447 H 233.506 -2.12325 -2.17144 0
M  V30 2448 H 231.091 -1.09047 -1.02123 0
M  V30 2449 H 232.973 -0.684581 -4.15802 0
M  V30 2450 H 231.648 0.0771071 -3.23608 0
M  V30 2451 H 230.555 -2.22863 -3.00471 0
M  V30 2452 H 231.888 -2.91636 -3.96496 0
M  V30 2453 N 233.54 1.10788 -1.12088 0
M  V30 2454 C 234.768 1.86461 -0.896651 0
M  V30 2455 C 235.183 1.80492 0.553912 0
M  V30 2456 O 234.54 1.19102 1.38278 0
M  V30 2457 C 234.591 3.35006 -1.35843 0
M  V30 2458 O 234.312 3.40866 -2.75213 0
M  V30 2459 C 235.813 4.27565 -1.1706 0
M  V30 2460 H 233.033 0.589425 -0.320654 0
M  V30 2461 H 235.577 1.40076 -1.48993 0
M  V30 2462 H 233.732 3.7887 -0.808458 0
M  V30 2463 H 234.146 4.33411 -2.9539 0
M  V30 2464 H 235.62 5.30007 -1.54263 0
M  V30 2465 H 236.097 4.3906 -0.110814 0
M  V30 2466 H 236.703 3.89501 -1.70789 0
M  V30 2467 N 235.018 0.912232 1.28515 0
M  V30 2468 C 236.295 0.463597 1.90027 0
M  V30 2469 C 236.675 -1.05753 1.82701 0
M  V30 2470 O 236.023 -1.90492 1.26194 0
M  V30 2471 C 236.233 0.992253 3.34597 0
M  V30 2472 C 237.581 1.04344 4.11579 0
M  V30 2473 O 238.605 0.94079 3.43551 0
M  V30 2474 O 237.464 1.1995 5.33174 0
M  V30 2475 H 234.558 0.146666 0.813891 0
M  V30 2476 H 237.104 1.00292 1.36893 0
M  V30 2477 H 235.876 2.03623 3.34146 0
M  V30 2478 H 235.499 0.433672 3.95228 0
M  V30 2479 N 236.496 -1.42363 0.676048 0
M  V30 2480 C 237.742 -2.0182 0.199125 0
M  V30 2481 C 238.075 -1.53339 -1.19168 0
M  V30 2482 O 237.35 -0.736124 -1.80032 0
M  V30 2483 C 237.633 -3.59331 0.235144 0
M  V30 2484 C 237.486 -4.17989 1.66149 0
M  V30 2485 C 238.805 -4.3813 -0.41595 0
M  V30 2486 H 235.924 -0.733293 0.0738311 0
M  V30 2487 H 238.566 -1.69368 0.86107 0
M  V30 2488 H 236.716 -3.87109 -0.328487 0
M  V30 2489 H 238.388 -4.0116 2.27747 0
M  V30 2490 H 236.631 -3.7377 2.20178 0
M  V30 2491 H 237.302 -5.27126 1.63837 0
M  V30 2492 H 239.778 -4.16051 0.0638529 0
M  V30 2493 H 238.654 -5.47717 -0.360115 0
M  V30 2494 H 238.915 -4.16101 -1.49373 0
M  V30 2495 N 237.974 -0.419461 -1.51915 0
M  V30 2496 C 239.251 0.211999 -1.94448 0
M  V30 2497 C 239.631 1.61703 -1.35703 0
M  V30 2498 O 238.979 2.22102 -0.536931 0
M  V30 2499 C 239.189 0.207872 -3.4838 0
M  V30 2500 C 240.537 0.422192 -4.22496 0
M  V30 2501 O 241.561 0.286778 -3.55044 0
M  V30 2502 O 240.42 0.690009 -5.42126 0
M  V30 2503 H 237.514 0.139586 -0.815135 0
M  V30 2504 H 240.06 -0.476151 -1.62883 0
M  V30 2505 H 238.832 -0.775102 -3.83546 0
M  V30 2506 H 238.455 0.939688 -3.86336 0
M  V30 2507 N 239.452 1.56882 -0.150215 0
M  V30 2508 C 240.382 2.19935 0.784284 0
M  V30 2509 C 241.363 1.14854 1.25469 0
M  V30 2510 O 242.548 1.43209 1.31168 0
M  V30 2511 C 239.678 2.82349 2.02229 0
M  V30 2512 C 238.632 3.93285 1.68853 0
M  V30 2513 C 237.958 4.42649 2.99944 0
M  V30 2514 C 239.258 5.13904 0.932714 0
M  V30 2515 H 240.952 2.9828 0.258781 0
M  V30 2516 H 238.498 1.43473 0.123029 0
M  V30 2517 H 240.451 3.25126 2.68088 0
M  V30 2518 H 239.175 2.0134 2.57157 0
M  V30 2519 H 237.834 3.5113 1.05371 0
M  V30 2520 H 237.482 3.58458 3.52869 0
M  V30 2521 H 237.182 5.17476 2.78374 0
M  V30 2522 H 238.706 4.88099 3.66868 0
M  V30 2523 H 240.12 5.53506 1.49345 0
M  V30 2524 H 238.517 5.94515 0.81684 0
M  V30 2525 H 239.587 4.84842 -0.0749568 0
M  V30 2526 N 240.93 -0.123565 1.57115 0
M  V30 2527 C 242.155 -0.850398 1.89164 0
M  V30 2528 C 242.58 -1.7286 0.741688 0
M  V30 2529 O 241.938 -1.78665 -0.307958 0
M  V30 2530 C 241.986 -1.66353 3.19936 0
M  V30 2531 O 241.09 -2.77004 3.0552 0
M  V30 2532 H 240.431 -0.235454 0.620852 0
M  V30 2533 H 242.961 -0.107335 2.04318 0
M  V30 2534 H 242.971 -2.05372 3.52543 0
M  V30 2535 H 241.646 -1.01881 4.03228 0
M  V30 2536 H 240.223 -2.41221 2.84371 0
M  V30 2537 N 242.408 -1.52605 -0.393616 0
M  V30 2538 C 243.656 -1.67093 -1.13685 0
M  V30 2539 C 243.977 -0.411011 -1.90619 0
M  V30 2540 O 243.247 0.574491 -1.87287 0
M  V30 2541 H 241.827 -0.615923 -0.422668 0
M  V30 2542 H 244.489 -1.89704 -0.447039 0
M  V30 2543 H 243.585 -2.51922 -1.84232 0
M  V30 2544 N 243.887 0.651787 -1.4349 0
M  V30 2545 C 245.133 1.41376 -1.45398 0
M  V30 2546 C 245.466 1.94041 -0.0784823 0
M  V30 2547 O 244.741 1.72379 0.900878 0
M  V30 2548 C 245.024 2.59414 -2.49752 0
M  V30 2549 C 244.877 2.12232 -3.96582 0
M  V30 2550 C 246.196 3.61626 -2.50827 0
M  V30 2551 H 243.315 0.512719 -0.529422 0
M  V30 2552 H 245.957 0.738796 -1.75048 0
M  V30 2553 H 244.107 3.16997 -2.246 0
M  V30 2554 H 245.779 1.59639 -4.32797 0
M  V30 2555 H 244.022 1.43592 -4.09346 0
M  V30 2556 H 244.693 2.9712 -4.65214 0
M  V30 2557 H 247.169 3.13805 -2.7325 0
M  V30 2558 H 246.045 4.41766 -3.25783 0
M  V30 2559 H 246.306 4.14314 -1.5426 0
M  V30 2560 N 245.365 1.30045 0.890287 0
M  V30 2561 C 246.312 1.15976 1.99545 0
M  V30 2562 C 247.282 0.0506202 1.66023 0
M  V30 2563 O 248.467 0.219847 1.89529 0
M  V30 2564 C 245.607 0.852054 3.34416 0
M  V30 2565 C 244.72 2.04255 3.80662 0
M  V30 2566 C 243.855 1.6734 5.04154 0
M  V30 2567 C 242.894 2.82916 5.42794 0
M  V30 2568 N 242.031 2.46333 6.57468 0
M  V30 2569 H 246.871 2.10524 2.10911 0
M  V30 2570 H 244.408 1.04749 1.03276 0
M  V30 2571 H 246.366 0.654296 4.12037 0
M  V30 2572 H 244.996 -0.0565502 3.2275 0
M  V30 2573 H 244.048 2.35172 2.98995 0
M  V30 2574 H 245.36 2.90826 4.05242 0
M  V30 2575 H 244.514 1.43908 5.89386 0
M  V30 2576 H 243.253 0.779308 4.81433 0
M  V30 2577 H 242.258 3.0702 4.56091 0
M  V30 2578 H 243.483 3.73004 5.6749 0
M  V30 2579 H 241.429 1.59423 6.36334 0
M  V30 2580 H 241.346 3.26436 6.81891 0
M  V30 2581 H 242.614 2.26244 7.45945 0
M  V30 2582 N 246.843 -1.10192 1.12674 0
M  V30 2583 C 248.09 -1.82205 0.883606 0
M  V30 2584 C 248.418 -1.8532 -0.590492 0
M  V30 2585 O 247.673 -1.31137 -1.45264 0
M  V30 2586 C 247.972 -3.28552 1.4067 0
M  V30 2587 C 247.638 -3.45582 2.89627 0
M  V30 2588 C 246.3 -3.49937 3.30299 0
M  V30 2589 C 248.652 -3.50768 3.85501 0
M  V30 2590 C 245.98 -3.57049 4.65546 0
M  V30 2591 C 248.332 -3.59414 5.20581 0
M  V30 2592 C 246.996 -3.62034 5.60792 0
M  V30 2593 H 246.266 -0.666735 0.323334 0
M  V30 2594 H 248.913 -1.29868 1.40736 0
M  V30 2595 H 247.218 -3.83473 0.80347 0
M  V30 2596 H 248.915 -3.82788 1.19475 0
M  V30 2597 H 245.505 -3.42871 2.57172 0
M  V30 2598 H 249.689 -3.46651 3.55171 0
M  V30 2599 H 244.945 -3.57361 4.96088 0
M  V30 2600 H 249.119 -3.62371 5.94693 0
M  V30 2601 H 246.746 -3.67298 6.6558 0
M  V30 2602 N 248.321 -0.919034 -1.28029 0
M  V30 2603 C 249.284 -0.416182 -2.2539 0
M  V30 2604 C 250.284 0.460438 -1.54067 0
M  V30 2605 O 251.474 0.262744 -1.72207 0
M  V30 2606 C 248.606 0.402707 -3.38513 0
M  V30 2607 H 249.799 -1.27629 -2.71387 0
M  V30 2608 H 247.352 -0.698919 -1.39803 0
M  V30 2609 H 248.087 1.282 -2.97885 0
M  V30 2610 H 247.872 -0.225698 -3.9145 0
M  V30 2611 H 249.362 0.745191 -4.10897 0
M  V30 2612 N 249.799 1.42003 -0.683588 0
M  V30 2613 C 251.045 2.01712 -0.209825 0
M  V30 2614 C 251.378 1.53968 1.18353 0
M  V30 2615 O 250.653 0.745661 1.79639 0
M  V30 2616 C 250.936 3.59202 -0.254197 0
M  V30 2617 C 250.789 4.17102 -1.68363 0
M  V30 2618 C 252.108 4.38344 0.392709 0
M  V30 2619 H 249.227 0.732891 -0.0777189 0
M  V30 2620 H 251.869 1.68909 -0.87004 0
M  V30 2621 H 250.019 3.87278 0.307954 0
M  V30 2622 H 251.691 3.99946 -2.29871 0
M  V30 2623 H 249.934 3.72597 -2.22157 0
M  V30 2624 H 250.605 5.26249 -1.6663 0
M  V30 2625 H 253.081 4.16011 -0.0859162 0
M  V30 2626 H 251.957 5.47901 0.331063 0
M  V30 2627 H 252.218 4.16887 1.47164 0
M  V30 2628 N 251.277 0.427512 1.51691 0
M  V30 2629 C 252.524 -0.142229 2.02 0
M  V30 2630 C 252.852 -1.43566 1.31221 0
M  V30 2631 O 252.107 -1.91298 0.412744 0
M  V30 2632 C 252.406 -0.418249 3.54944 0
M  V30 2633 C 252.072 0.788187 4.43958 0
M  V30 2634 C 250.734 1.11906 4.68007 0
M  V30 2635 C 253.086 1.59347 4.96244 0
M  V30 2636 C 250.414 2.25608 5.41588 0
M  V30 2637 C 252.766 2.7214 5.71072 0
M  V30 2638 C 251.43 3.05692 5.93387 0
M  V30 2639 H 250.7 -0.0520451 0.73917 0
M  V30 2640 H 253.347 0.572697 1.82736 0
M  V30 2641 H 251.652 -1.21496 3.72486 0
M  V30 2642 H 253.349 -0.872339 3.91397 0
M  V30 2643 H 249.939 0.520344 4.2543 0
M  V30 2644 H 254.123 1.35106 4.77556 0
M  V30 2645 H 249.379 2.51929 5.57083 0
M  V30 2646 H 253.553 3.34914 6.10578 0
M  V30 2647 H 251.18 3.9391 6.50184 0
M  V30 2648 N 252.755 -1.56801 0.158532 0
M  V30 2649 C 254.003 -1.96102 -0.488712 0
M  V30 2650 C 254.324 -1.04498 -1.64636 0
M  V30 2651 O 253.594 -0.108783 -1.95598 0
M  V30 2652 H 252.174 -0.724102 -0.183535 0
M  V30 2653 H 254.836 -1.93457 0.236728 0
M  V30 2654 H 253.932 -3.00097 -0.857219 0
M  V30 2655 N 254.233 0.115231 -1.57178 0
M  V30 2656 C 255.163 1.1423 -2.03651 0
M  V30 2657 C 256.144 1.42967 -0.921655 0
M  V30 2658 O 257.329 1.53343 -1.19162 0
M  V30 2659 C 254.459 2.4675 -2.44401 0
M  V30 2660 C 253.413 2.32467 -3.59365 0
M  V30 2661 C 252.739 3.69984 -3.86026 0
M  V30 2662 C 254.039 1.78203 -4.90959 0
M  V30 2663 H 255.733 0.755749 -2.89705 0
M  V30 2664 H 253.279 0.362093 -1.39373 0
M  V30 2665 H 255.232 3.18854 -2.75517 0
M  V30 2666 H 253.956 2.87302 -1.55322 0
M  V30 2667 H 252.615 1.62811 -3.28463 0
M  V30 2668 H 252.263 4.08028 -2.94147 0
M  V30 2669 H 251.963 3.61279 -4.63412 0
M  V30 2670 H 253.487 4.43587 -4.19599 0
M  V30 2671 H 254.901 2.40128 -5.20587 0
M  V30 2672 H 253.298 1.8031 -5.72371 0
M  V30 2673 H 254.368 0.739876 -4.79222 0
M  V30 2674 N 255.711 1.52812 0.385517 0
M  V30 2675 C 256.959 1.67694 1.12797 0
M  V30 2676 C 257.28 0.421115 1.90399 0
M  V30 2677 O 256.55 -0.564551 1.87589 0
M  V30 2678 H 255.13 0.618155 0.419396 0
M  V30 2679 H 257.792 1.89938 0.436972 0
M  V30 2680 H 256.888 2.52896 1.82894 0
M  V30 2681 N 257.189 -0.644168 1.43834 0
M  V30 2682 C 258.137 -1.77793 1.49974 0
M  V30 2683 C 259.131 -1.65253 0.372536 0
M  V30 2684 O 260.337 -1.7149 0.546924 0
M  V30 2685 H 256.712 -0.58675 0.47035 0
M  V30 2686 H 258.683 -1.69736 2.45423 0
M  V30 2687 C 257.432 -3.16087 1.4486 0
M  V30 2688 H 256.755 -3.26378 2.30905 0
M  V30 2689 H 258.195 -3.95349 1.53217 0
M  V30 2690 C 256.654 -3.36484 0.167463 0
M  V30 2691 O 257.184 -3.94298 -0.767609 0
M  V30 2692 N 255.39 -2.90504 0.0747556 0
M  V30 2693 H 254.937 -2.4364 0.836507 0
M  V30 2694 H 254.895 -3.04527 -0.781714 0
M  V30 2695 N 258.668 -1.30515 -0.883378 0
M  V30 2696 C 259.615 -1.17032 -1.98927 0
M  V30 2697 C 260.585 -0.0594241 -1.65994 0
M  V30 2698 O 261.77 -0.229895 -1.8941 0
M  V30 2699 C 258.91 -0.869777 -3.33959 0
M  V30 2700 C 258.023 -2.06271 -3.79574 0
M  V30 2701 C 257.158 -1.70011 -5.03259 0
M  V30 2702 C 256.197 -2.8579 -5.41286 0
M  V30 2703 N 255.334 -2.49816 -6.56153 0
M  V30 2704 H 260.174 -2.1164 -2.09792 0
M  V30 2705 H 257.711 -1.05296 -1.02719 0
M  V30 2706 H 259.669 -0.676138 -4.11685 0
M  V30 2707 H 258.299 0.0394332 -3.22776 0
M  V30 2708 H 257.351 -2.36755 -2.97744 0
M  V30 2709 H 258.663 -2.92971 -4.03694 0
M  V30 2710 H 257.817 -1.47032 -5.88614 0
M  V30 2711 H 256.556 -0.804829 -4.81013 0
M  V30 2712 H 255.561 -3.09434 -4.54456 0
M  V30 2713 H 256.786 -3.76008 -5.65504 0
M  V30 2714 H 254.732 -1.62795 -6.35479 0
M  V30 2715 H 254.649 -3.30048 -6.8015 0
M  V30 2716 H 255.917 -2.30197 -7.44735 0
M  V30 2717 N 260.146 1.09593 -1.13257 0
M  V30 2718 C 261.374 1.855 -0.916378 0
M  V30 2719 C 261.789 1.81069 0.534738 0
M  V30 2720 O 261.146 1.20562 1.37007 0
M  V30 2721 C 261.197 3.33546 -1.39388 0
M  V30 2722 O 260.918 3.37927 -2.78813 0
M  V30 2723 C 262.419 4.26299 -1.21588 0
M  V30 2724 H 259.639 0.585991 -0.326887 0
M  V30 2725 H 262.183 1.38488 -1.5047 0
M  V30 2726 H 260.338 3.77992 -0.848597 0
M  V30 2727 H 260.752 4.30254 -2.9997 0
M  V30 2728 H 262.226 5.28341 -1.59876 0
M  V30 2729 H 262.703 4.38918 -0.157376 0
M  V30 2730 H 263.309 3.87668 -1.7491 0
M  V30 2731 N 261.624 0.925811 1.2754 0
M  V30 2732 C 262.854 0.580666 1.98272 0
M  V30 2733 C 263.262 -0.845207 1.69272 0
M  V30 2734 O 262.605 -1.57306 0.948707 0
M  V30 2735 C 262.667 0.724418 3.52126 0
M  V30 2736 C 262.331 2.12206 4.04744 0
M  V30 2737 C 263.328 3.09604 4.17662 0
M  V30 2738 C 261.013 2.4385 4.39138 0
M  V30 2739 C 263.007 4.36755 4.64246 0
M  V30 2740 C 260.694 3.71237 4.85414 0
M  V30 2741 C 261.692 4.67503 4.97926 0
M  V30 2742 O 261.38 5.92624 5.43187 0
M  V30 2743 H 261.112 0.218987 0.639547 0
M  V30 2744 H 263.666 1.24452 1.63404 0
M  V30 2745 H 261.896 0.0034663 3.867 0
M  V30 2746 H 263.585 0.384607 4.04074 0
M  V30 2747 H 264.351 2.86478 3.91351 0
M  V30 2748 H 260.23 1.69665 4.28643 0
M  V30 2749 H 263.774 5.11898 4.73927 0
M  V30 2750 H 259.671 3.94182 5.11166 0
M  V30 2751 H 260.439 5.95585 5.61445 0
M  V30 2752 N 263.102 -1.41638 0.69111 0
M  V30 2753 C 264.012 -2.34588 0.0233487 0
M  V30 2754 C 265.028 -1.55987 -0.770984 0
M  V30 2755 O 266.204 -1.88486 -0.709569 0
M  V30 2756 C 263.269 -3.34684 -0.904851 0
M  V30 2757 C 262.33 -4.29176 -0.103225 0
M  V30 2758 C 261.563 -5.2449 -0.987216 0
M  V30 2759 O 261.786 -5.2514 -2.22674 0
M  V30 2760 O 260.72 -6.00295 -0.439281 0
M  V30 2761 H 264.546 -2.93261 0.789416 0
M  V30 2762 H 262.131 -1.42417 0.45142 0
M  V30 2763 H 264.013 -3.96133 -1.43724 0
M  V30 2764 H 262.688 -2.78461 -1.65049 0
M  V30 2765 H 261.595 -3.71089 0.473655 0
M  V30 2766 H 262.928 -4.88484 0.60365 0
M  V30 2767 N 264.58 -0.43555 -1.51462 0
M  V30 2768 C 265.53 0.394701 -2.24558 0
M  V30 2769 C 266.514 0.99157 -1.26715 0
M  V30 2770 O 267.706 0.910007 -1.51815 0
M  V30 2771 C 264.835 1.4963 -3.08975 0
M  V30 2772 C 263.921 0.908912 -4.14246 0
M  V30 2773 N 264.312 0.0505335 -5.05775 0
M  V30 2774 C 262.61 1.17668 -4.30198 0
M  V30 2775 C 263.311 -0.279161 -5.8103 0
M  V30 2776 N 262.287 0.336767 -5.42556 0
M  V30 2777 H 266.089 -0.267106 -2.92684 0
M  V30 2778 H 263.603 -0.247518 -1.60503 0
M  V30 2779 H 265.6 2.10394 -3.59917 0
M  V30 2780 H 264.26 2.16046 -2.42393 0
M  V30 2781 H 265.271 -0.31577 -5.16936 0
M  V30 2782 H 261.948 1.83847 -3.74842 0
M  V30 2783 H 263.338 -0.977553 -6.64751 0
M  V30 2784 N 266.058 1.56714 -0.166846 0
M  V30 2785 C 267.305 1.96747 0.479252 0
M  V30 2786 C 267.633 1.05263 1.63554 0
M  V30 2787 O 266.888 0.0858098 1.95512 0
M  V30 2788 C 267.187 3.42889 1.00806 0
M  V30 2789 C 266.853 4.50889 -0.0318574 0
M  V30 2790 C 265.515 4.8015 -0.317675 0
M  V30 2791 C 267.867 5.15949 -0.737956 0
M  V30 2792 C 265.195 5.71772 -1.31506 0
M  V30 2793 C 267.547 6.08647 -1.72429 0
M  V30 2794 C 266.211 6.36277 -2.0176 0
M  V30 2795 H 265.481 0.719949 0.175371 0
M  V30 2796 H 268.128 1.89756 -0.257864 0
M  V30 2797 H 266.433 3.4681 1.82291 0
M  V30 2798 H 268.13 3.71203 1.51689 0
M  V30 2799 H 264.72 4.28128 0.201088 0
M  V30 2800 H 268.904 4.93458 -0.530351 0
M  V30 2801 H 264.16 5.91465 -1.54853 0
M  V30 2802 H 268.334 6.58129 -2.27682 0
M  V30 2803 H 265.961 7.07075 -2.79194 0
M  V30 2804 N 267.536 -0.106894 1.57237 0
M  V30 2805 C 268.484 -1.14944 2.02215 0
M  V30 2806 C 269.478 -1.42167 0.92114 0
M  V30 2807 O 270.684 -1.41987 1.10634 0
M  V30 2808 H 267.059 -0.387841 0.64427 0
M  V30 2809 H 269.03 -0.743683 2.88984 0
M  V30 2810 C 267.779 -2.4647 2.4525 0
M  V30 2811 H 267.102 -2.26363 3.29545 0
M  V30 2812 H 268.542 -3.17948 2.80508 0
M  V30 2813 C 267.001 -3.09921 1.321 0
M  V30 2814 O 267.531 -3.9651 0.643622 0
M  V30 2815 N 265.737 -2.69986 1.07497 0
M  V30 2816 H 265.284 -1.99667 1.62761 0
M  V30 2817 H 265.242 -3.12769 0.319876 0
M  V30 2818 N 269.014 -1.53014 -0.377408 0
M  V30 2819 C 269.977 -1.77957 -1.44444 0
M  V30 2820 C 270.977 -0.649763 -1.47087 0
M  V30 2821 O 272.167 -0.917897 -1.48055 0
M  V30 2822 C 269.299 -1.89089 -2.83651 0
M  V30 2823 H 270.492 -2.73243 -1.23606 0
M  V30 2824 H 268.045 -1.43912 -0.609844 0
M  V30 2825 H 268.78 -0.958293 -3.09818 0
M  V30 2826 H 268.565 -2.71254 -2.83132 0
M  V30 2827 H 270.055 -2.1002 -3.60945 0
M  V30 2828 N 270.492 0.636531 -1.44174 0
M  V30 2829 C 271.425 1.76139 -1.45087 0
M  V30 2830 C 272.403 1.59611 -0.310326 0
M  V30 2831 O 273.587 1.81568 -0.506477 0
M  V30 2832 C 270.714 3.13648 -1.27839 0
M  V30 2833 C 269.76 3.48838 -2.45386 0
M  V30 2834 S 270.593 3.46927 -4.07924 0
M  V30 2835 C 271.749 4.87064 -3.9309 0
M  V30 2836 H 271.982 1.75096 -2.40268 0
M  V30 2837 H 269.515 0.810666 -1.31406 0
M  V30 2838 H 271.473 3.93002 -1.18575 0
M  V30 2839 H 270.134 3.12235 -0.341787 0
M  V30 2840 H 269.327 4.48886 -2.29167 0
M  V30 2841 H 268.929 2.76935 -2.51362 0
M  V30 2842 H 271.221 5.76153 -3.56446 0
M  V30 2843 H 272.164 5.08337 -4.92949 0
M  V30 2844 H 272.572 4.61384 -3.25246 0
M  V30 2845 N 271.97 1.30982 0.876444 0
M  V30 2846 C 273.218 1.20058 1.62575 0
M  V30 2847 C 273.539 -0.242947 1.93481 0
M  V30 2848 O 272.809 -1.1619 1.57724 0
M  V30 2849 H 271.389 0.44135 0.602677 0
M  V30 2850 H 274.051 1.64222 1.04962 0
M  V30 2851 H 273.147 1.76762 2.57219 0
M  V30 2852 N 273.449 -1.08991 1.13837 0
M  V30 2853 C 274.396 -2.15748 0.819835 0
M  V30 2854 C 275.366 -1.64636 -0.220026 0
M  V30 2855 O 276.551 -1.90582 -0.0912757 0
M  V30 2856 C 273.691 -3.4382 0.296913 0
M  V30 2857 C 272.804 -4.0881 1.39636 0
M  V30 2858 C 271.939 -5.24655 0.831314 0
M  V30 2859 C 270.978 -5.81575 1.90886 0
M  V30 2860 N 270.115 -6.88774 1.36142 0
M  V30 2861 H 274.955 -2.42338 1.73426 0
M  V30 2862 H 272.492 -1.18935 0.865613 0
M  V30 2863 H 274.45 -4.17193 -0.0244339 0
M  V30 2864 H 273.08 -3.17535 -0.580628 0
M  V30 2865 H 272.132 -3.33258 1.83422 0
M  V30 2866 H 273.444 -4.47141 2.21058 0
M  V30 2867 H 272.598 -6.04942 0.461515 0
M  V30 2868 H 271.337 -4.87698 -0.013932 0
M  V30 2869 H 270.342 -4.99946 2.28767 0
M  V30 2870 H 271.567 -6.20592 2.75758 0
M  V30 2871 H 269.513 -6.53788 0.538254 0
M  V30 2872 H 269.43 -7.25898 2.11208 0
M  V30 2873 H 270.698 -7.72806 1.01933 0
M  V30 2874 N 274.927 -0.932562 -1.27047 0
M  V30 2875 C 276.157 -0.591173 -1.97961 0
M  V30 2876 C 276.565 0.836219 -1.69717 0
M  V30 2877 O 275.908 1.56801 -0.957036 0
M  V30 2878 C 275.97 -0.743082 -3.51736 0
M  V30 2879 C 275.634 -2.1435 -4.03613 0
M  V30 2880 C 276.631 -3.11815 -4.16014 0
M  V30 2881 C 274.316 -2.46175 -4.37839 0
M  V30 2882 C 276.31 -4.39211 -4.61923 0
M  V30 2883 C 273.997 -3.73806 -4.83438 0
M  V30 2884 C 274.995 -4.70137 -4.95439 0
M  V30 2885 O 274.683 -5.95496 -5.40037 0
M  V30 2886 H 274.415 -0.222375 -0.638377 0
M  V30 2887 H 276.969 -1.25317 -1.62742 0
M  V30 2888 H 275.199 -0.0239739 -3.86693 0
M  V30 2889 H 276.888 -0.40603 -4.03864 0
M  V30 2890 H 277.654 -2.88549 -3.89826 0
M  V30 2891 H 273.533 -1.71936 -4.27737 0
M  V30 2892 H 277.077 -5.14404 -4.71205 0
M  V30 2893 H 272.974 -3.96888 -5.09068 0
M  V30 2894 H 273.742 -5.98554 -5.58279 0
M  V30 2895 N 276.405 1.4127 -0.698611 0
M  V30 2896 C 277.651 2.01478 -0.231207 0
M  V30 2897 C 277.984 1.55215 1.16713 0
M  V30 2898 O 277.259 0.764672 1.78838 0
M  V30 2899 C 277.542 3.58912 -0.292281 0
M  V30 2900 C 277.395 4.15293 -1.72778 0
M  V30 2901 C 278.714 4.38736 0.346194 0
M  V30 2902 H 275.833 0.732025 -0.0854878 0
M  V30 2903 H 278.475 1.67977 -0.887906 0
M  V30 2904 H 276.625 3.87582 0.26686 0
M  V30 2905 H 278.297 3.97486 -2.341 0
M  V30 2906 H 276.54 3.7022 -2.26096 0
M  V30 2907 H 277.211 5.24452 -1.72202 0
M  V30 2908 H 279.687 4.15897 -0.130035 0
M  V30 2909 H 278.563 5.48221 0.272932 0
M  V30 2910 H 278.824 4.18425 1.42734 0
M  V30 2911 N 277.883 0.443576 1.51229 0
M  V30 2912 C 279.16 -0.181038 1.9476 0
M  V30 2913 C 279.54 -1.59523 1.38259 0
M  V30 2914 O 278.888 -2.2122 0.572198 0
M  V30 2915 C 279.098 -0.152422 3.48667 0
M  V30 2916 C 280.446 -0.354923 4.23114 0
M  V30 2917 O 281.47 -0.230257 3.55455 0
M  V30 2918 O 280.329 -0.603674 5.43156 0
M  V30 2919 H 277.423 -0.1266 0.817252 0
M  V30 2920 H 279.969 0.502004 1.62105 0
M  V30 2921 H 278.741 0.836022 3.82265 0
M  V30 2922 H 278.364 -0.878107 3.87782 0
M  V30 2923 N 279.361 -1.56624 0.175154 0
M  V30 2924 C 280.308 -2.18149 -0.753634 0
M  V30 2925 C 281.278 -1.12265 -1.22417 0
M  V30 2926 O 282.463 -1.40432 -1.29165 0
M  V30 2927 C 279.603 -2.82933 -1.97592 0
M  V30 2928 C 278.716 -4.03289 -1.5486 0
M  V30 2929 C 277.851 -4.55988 -2.72485 0
M  V30 2930 C 276.89 -5.68746 -2.26262 0
M  V30 2931 N 276.027 -6.15938 -3.36994 0
M  V30 2932 H 280.867 -2.9717 -0.222195 0
M  V30 2933 H 278.404 -1.46774 -0.0979422 0
M  V30 2934 H 280.362 -3.18653 -2.69288 0
M  V30 2935 H 278.992 -2.06509 -2.481 0
M  V30 2936 H 278.044 -3.73364 -0.728246 0
M  V30 2937 H 279.356 -4.849 -1.16933 0
M  V30 2938 H 278.51 -4.9391 -3.52332 0
M  V30 2939 H 277.249 -3.73443 -3.13674 0
M  V30 2940 H 276.254 -5.30372 -1.44863 0
M  V30 2941 H 277.479 -6.53095 -1.86127 0
M  V30 2942 H 275.425 -5.36321 -3.77751 0
M  V30 2943 H 275.342 -6.92548 -3.03172 0
M  V30 2944 H 276.61 -6.58511 -4.17114 0
M  V30 2945 N 280.839 0.0985539 -1.57292 0
M  V30 2946 C 282.255 0.45267 -1.53046 0
M  V30 2947 C 282.455 1.80713 -0.891342 0
M  V30 2948 O 281.511 2.4785 -0.482375 0
M  V30 2949 C 282.824 0.418341 -2.97776 0
M  V30 2950 C 284.372 0.500443 -3.08973 0
M  V30 2951 C 284.847 0.496297 -4.55303 0
M  V30 2952 N 286.338 0.557151 -4.59837 0
M  V30 2953 C 287.073 0.575726 -5.70502 0
M  V30 2954 N 286.569 0.550714 -6.90608 0
M  V30 2955 N 288.362 0.620277 -5.58667 0
M  V30 2956 H 280.513 -0.788673 -1.97215 0
M  V30 2957 H 282.776 -0.293188 -0.901524 0
M  V30 2958 H 282.482 -0.509659 -3.47988 0
M  V30 2959 H 282.356 1.2386 -3.56284 0
M  V30 2960 H 284.743 1.41886 -2.58751 0
M  V30 2961 H 284.824 -0.347894 -2.53423 0
M  V30 2962 H 284.468 -0.418162 -5.06176 0
M  V30 2963 H 284.398 1.3618 -5.08687 0
M  V30 2964 H 286.889 0.581816 -3.73394 0
M  V30 2965 H 287.202 0.568075 -7.70709 0
M  V30 2966 H 285.547 0.517816 -6.93068 0
M  V30 2967 H 288.738 0.637322 -4.63741 0
M  V30 2968 H 288.911 0.631283 -6.44918 0
M  V30 2969 N 282.317 1.53212 0.369288 0
M  V30 2970 C 283.247 1.82365 1.45826 0
M  V30 2971 C 284.228 0.676907 1.56051 0
M  V30 2972 O 285.413 0.926401 1.70679 0
M  V30 2973 C 282.543 2.01023 2.83208 0
M  V30 2974 C 281.497 3.1678 2.8781 0
M  V30 2975 C 280.823 3.20724 4.27832 0
M  V30 2976 C 282.123 4.55447 2.55667 0
M  V30 2977 H 283.817 2.73559 1.21678 0
M  V30 2978 H 281.363 1.3163 0.583911 0
M  V30 2979 H 283.316 2.20001 3.59413 0
M  V30 2980 H 282.04 1.06536 3.08736 0
M  V30 2981 H 280.699 2.97616 2.14056 0
M  V30 2982 H 280.347 2.23882 4.50429 0
M  V30 2983 H 280.047 3.98496 4.31827 0
M  V30 2984 H 281.571 3.41881 5.05915 0
M  V30 2985 H 282.985 4.74611 3.21586 0
M  V30 2986 H 281.382 5.35432 2.70984 0
M  V30 2987 H 282.452 4.60812 1.5093 0
M  V30 2988 N 283.795 -0.628877 1.44509 0
M  V30 2989 C 284.705 -1.7694 1.54044 0
M  V30 2990 C 285.721 -1.68705 0.425987 0
M  V30 2991 O 286.897 -1.89442 0.683656 0
M  V30 2992 C 283.962 -3.13332 1.48405 0
M  V30 2993 C 283.023 -3.33181 2.70719 0
M  V30 2994 C 282.256 -4.63067 2.6534 0
M  V30 2995 O 282.479 -5.44017 1.71469 0
M  V30 2996 O 281.413 -4.85167 3.56226 0
M  V30 2997 H 285.239 -1.71848 2.50403 0
M  V30 2998 H 282.824 -0.790378 1.26781 0
M  V30 2999 H 284.706 -3.94634 1.47791 0
M  V30 3000 H 283.381 -3.1896 0.551898 0
M  V30 3001 H 282.288 -2.51549 2.769 0
M  V30 3002 H 283.621 -3.32416 3.62988 0
M  V30 3003 N 285.273 -1.31445 -0.869486 0
M  V30 3004 C 286.205 -1.14955 -1.98287 0
M  V30 3005 C 287.218 -0.0885037 -1.62559 0
M  V30 3006 O 288.407 -0.336044 -1.75308 0
M  V30 3007 C 285.507 -0.734255 -3.3085 0
M  V30 3008 C 284.68 -1.88042 -3.94917 0
M  V30 3009 C 283.739 -1.4511 -5.05796 0
M  V30 3010 O 282.765 -2.16082 -5.2659 0
M  V30 3011 N 283.967 -0.338763 -5.79511 0
M  V30 3012 H 286.732 -2.10856 -2.12979 0
M  V30 3013 H 284.293 -1.23786 -1.04349 0
M  V30 3014 H 286.285 -0.42975 -4.02412 0
M  V30 3015 H 284.855 0.133158 -3.12316 0
M  V30 3016 H 284.075 -2.35222 -3.1633 0
M  V30 3017 H 285.363 -2.6481 -4.34457 0
M  V30 3018 H 284.761 0.252274 -5.65137 0
M  V30 3019 H 283.318 -0.0937925 -6.51733 0
M  V30 3020 N 286.751 1.08385 -1.14413 0
M  V30 3021 C 287.681 2.17321 -0.854044 0
M  V30 3022 C 288.662 1.69024 0.191049 0
M  V30 3023 O 289.847 1.94141 0.0476779 0
M  V30 3024 C 286.977 3.45719 -0.330983 0
M  V30 3025 C 285.931 4.07409 -1.31155 0
M  V30 3026 C 285.257 5.30762 -0.64778 0
M  V30 3027 C 286.557 4.48665 -2.67388 0
M  V30 3028 H 288.251 2.41845 -1.76498 0
M  V30 3029 H 285.797 1.16233 -0.850051 0
M  V30 3030 H 287.75 4.21241 -0.115645 0
M  V30 3031 H 286.474 3.2075 0.615381 0
M  V30 3032 H 285.133 3.33919 -1.51306 0
M  V30 3033 H 284.781 5.02078 0.304398 0
M  V30 3034 H 284.481 5.72992 -1.30207 0
M  V30 3035 H 286.005 6.08998 -0.441972 0
M  V30 3036 H 287.419 5.15364 -2.51143 0
M  V30 3037 H 285.816 5.01814 -3.29093 0
M  V30 3038 H 286.886 3.60543 -3.24248 0
M  V30 3039 N 288.23 0.939286 1.26551 0
M  V30 3040 C 289.478 0.58469 1.93457 0
M  V30 3041 C 289.799 -0.878774 1.74076 0
M  V30 3042 O 289.069 -1.62421 1.09528 0
M  V30 3043 H 287.649 0.21325 0.715914 0
M  V30 3044 H 290.311 1.1942 1.54029 0
M  V30 3045 H 289.407 0.800849 3.0165 0
M  V30 3046 N 289.708 -1.40897 0.706093 0
M  V30 3047 C 290.671 -2.29131 0.0562841 0
M  V30 3048 C 291.671 -1.44901 -0.697166 0
M  V30 3049 O 292.861 -1.65926 -0.530484 0
M  V30 3050 C 289.993 -3.27957 -0.93043 0
M  V30 3051 H 291.186 -2.88091 0.833284 0
M  V30 3052 H 288.739 -1.4906 0.470192 0
M  V30 3053 H 289.474 -2.73997 -1.73482 0
M  V30 3054 H 289.259 -3.90124 -0.393166 0
M  V30 3055 H 290.749 -3.94049 -1.38256 0
M  V30 3056 N 291.186 -0.45159 -1.50991 0
M  V30 3057 C 292.118 0.388634 -2.25881 0
M  V30 3058 C 293.131 0.974041 -1.30446 0
M  V30 3059 O 294.32 0.865758 -1.56099 0
M  V30 3060 C 291.42 1.5571 -3.01011 0
M  V30 3061 C 290.593 1.08801 -4.23652 0
M  V30 3062 C 289.652 2.12825 -4.8124 0
M  V30 3063 O 288.678 1.71678 -5.42693 0
M  V30 3064 N 289.88 3.45453 -4.66522 0
M  V30 3065 H 292.645 -0.25329 -2.98628 0
M  V30 3066 H 290.206 -0.281268 -1.59438 0
M  V30 3067 H 292.198 2.24952 -3.3642 0
M  V30 3068 H 290.768 2.10409 -2.31186 0
M  V30 3069 H 289.988 0.22215 -3.93574 0
M  V30 3070 H 291.276 0.752213 -5.03209 0
M  V30 3071 H 290.674 3.81605 -4.17605 0
M  V30 3072 H 289.231 4.10549 -5.06254 0
M  V30 3073 N 292.664 1.56529 -0.183458 0
M  V30 3074 C 294.08 1.58664 0.172554 0
M  V30 3075 C 294.28 1.19925 1.61926 0
M  V30 3076 O 293.336 0.916534 2.35278 0
M  V30 3077 C 294.649 3.00463 -0.119262 0
M  V30 3078 C 296.197 3.12945 -0.0584396 0
M  V30 3079 C 296.672 4.56857 -0.323408 0
M  V30 3080 N 298.163 4.62403 -0.271612 0
M  V30 3081 C 298.898 5.71626 -0.450639 0
M  V30 3082 N 298.394 6.89362 -0.689384 0
M  V30 3083 N 300.187 5.60775 -0.385701 0
M  V30 3084 H 292.338 1.79994 -1.12765 0
M  V30 3085 H 294.601 0.834808 -0.449222 0
M  V30 3086 H 294.307 3.33326 -1.12192 0
M  V30 3087 H 294.181 3.72659 0.583544 0
M  V30 3088 H 296.568 2.79902 0.934805 0
M  V30 3089 H 296.649 2.4316 -0.794144 0
M  V30 3090 H 296.293 4.9061 -1.31392 0
M  V30 3091 H 296.223 5.24816 0.43305 0
M  V30 3092 H 298.714 3.77785 -0.0932256 0
M  V30 3093 H 299.027 7.68489 -0.815113 0
M  V30 3094 H 297.372 6.91196 -0.726142 0
M  V30 3095 H 300.563 4.67674 -0.199687 0
M  V30 3096 H 300.736 6.4584 -0.528646 0
M  V30 3097 N 294.142 -0.090211 1.57342 0
M  V30 3098 C 295.391 -0.791531 1.8552 0
M  V30 3099 C 295.704 -1.79659 0.773441 0
M  V30 3100 O 296.91 -2.54616 0.942497 0
M  V30 3101 C 295.366 -1.45856 3.2902 0
M  V30 3102 C 294.974 -0.493017 4.45279 0
M  V30 3103 C 296.718 -2.14332 3.66418 0
M  V30 3104 C 294.625 -1.16491 5.79814 0
M  V30 3105 H 293.555 -0.299356 0.692027 0
M  V30 3106 H 296.206 -0.0445343 1.83446 0
M  V30 3107 H 294.588 -2.25318 3.2565 0
M  V30 3108 H 295.762 0.270464 4.60006 0
M  V30 3109 H 294.077 0.0863061 4.16311 0
M  V30 3110 H 296.674 -2.65344 4.64216 0
M  V30 3111 H 297.017 -2.93447 2.95287 0
M  V30 3112 H 297.55 -1.41724 3.71698 0
M  V30 3113 H 294.289 -0.41447 6.54188 0
M  V30 3114 H 293.809 -1.8997 5.68921 0
M  V30 3115 H 295.488 -1.69001 6.24538 0
M  V30 3116 N 295.62 -1.53406 -0.361157 0
M  V30 3117 C 296.867 -1.69802 -1.10333 0
M  V30 3118 C 297.195 -0.452087 -1.89173 0
M  V30 3119 O 296.45 0.566017 -1.87336 0
M  V30 3120 C 296.749 -2.90211 -2.08596 0
M  V30 3121 C 296.415 -4.26539 -1.46203 0
M  V30 3122 C 295.077 -4.6361 -1.28915 0
M  V30 3123 C 297.429 -5.113 -1.01101 0
M  V30 3124 C 294.757 -5.83075 -0.651157 0
M  V30 3125 C 297.109 -6.31415 -0.387007 0
M  V30 3126 C 295.773 -6.67195 -0.201657 0
M  V30 3127 H 295.043 -0.621351 -0.403737 0
M  V30 3128 H 297.69 -1.87598 -0.384609 0
M  V30 3129 H 295.995 -2.66946 -2.86788 0
M  V30 3130 H 297.692 -3.00091 -2.65982 0
M  V30 3131 H 294.282 -3.97352 -1.60653 0
M  V30 3132 H 298.466 -4.83206 -1.13249 0
M  V30 3133 H 293.722 -6.09385 -0.496006 0
M  V30 3134 H 297.896 -6.96394 -0.0293563 0
M  V30 3135 H 295.523 -7.59628 0.294766 0
M  V30 3136 N 297.098 0.621204 -1.44841 0
M  V30 3137 C 298.008 1.7612 -1.5498 0
M  V30 3138 C 299.024 1.68477 -0.434927 0
M  V30 3139 O 300.2 1.89076 -0.693693 0
M  V30 3140 C 297.265 3.1254 -1.50065 0
M  V30 3141 C 296.326 3.31741 -2.72482 0
M  V30 3142 C 295.559 4.61653 -2.67792 0
M  V30 3143 O 295.782 5.431 -1.74352 0
M  V30 3144 O 294.716 4.83271 -3.58794 0
M  V30 3145 H 298.542 1.70518 -2.51311 0
M  V30 3146 H 296.127 0.783643 -1.27198 0
M  V30 3147 H 298.009 3.93844 -1.49882 0
M  V30 3148 H 296.684 3.18663 -0.568806 0
M  V30 3149 H 295.591 2.50077 -2.7823 0
M  V30 3150 H 296.924 3.30486 -3.64746 0
M  V30 3151 N 298.576 1.31904 0.862503 0
M  V30 3152 C 299.506 1.22782 1.98612 0
M  V30 3153 C 300.487 0.113362 1.69722 0
M  V30 3154 O 301.672 0.299218 1.91881 0
M  V30 3155 C 298.802 0.942058 3.34279 0
M  V30 3156 C 297.756 2.0169 3.77499 0
M  V30 3157 C 297.082 1.58369 5.10709 0
M  V30 3158 C 298.382 3.43096 3.93805 0
M  V30 3159 H 300.076 2.16788 2.06502 0
M  V30 3160 H 297.622 1.04366 0.992154 0
M  V30 3161 H 299.575 0.864818 4.1243 0
M  V30 3162 H 298.299 -0.0336603 3.26583 0
M  V30 3163 H 296.958 2.08416 3.01593 0
M  V30 3164 H 296.606 0.595628 4.99461 0
M  V30 3165 H 296.306 2.30279 5.40597 0
M  V30 3166 H 297.83 1.52067 5.91361 0
M  V30 3167 H 299.244 3.39003 4.62331 0
M  V30 3168 H 297.641 4.13288 4.35101 0
M  V30 3169 H 298.711 3.83334 2.96957 0
M  V30 3170 N 300.054 -1.07777 1.14986 0
M  V30 3171 C 301.302 -1.79934 0.920235 0
M  V30 3172 C 301.623 -1.86955 -0.554336 0
M  V30 3173 O 300.893 -1.36731 -1.40291 0
M  V30 3174 H 299.473 -0.666424 0.337473 0
M  V30 3175 H 302.135 -1.3027 1.44968 0
M  V30 3176 H 301.231 -2.82539 1.32583 0
M  V30 3177 N 301.532 -0.945985 -1.26051 0
M  V30 3178 C 302.462 -0.477172 -2.28572 0
M  V30 3179 C 303.443 0.472032 -1.63419 0
M  V30 3180 O 304.628 0.372853 -1.90587 0
M  V30 3181 C 301.758 0.253975 -3.4637 0
M  V30 3182 C 300.712 -0.609135 -4.23643 0
M  V30 3183 C 300.038 0.252252 -5.34105 0
M  V30 3184 C 301.338 -1.8829 -4.8718 0
M  V30 3185 H 303.032 -1.33402 -2.68038 0
M  V30 3186 H 300.578 -0.642904 -1.28852 0
M  V30 3187 H 302.531 0.593016 -4.17207 0
M  V30 3188 H 301.255 1.145 -3.05871 0
M  V30 3189 H 299.914 -0.931138 -3.54578 0
M  V30 3190 H 299.562 1.14278 -4.89846 0
M  V30 3191 H 299.262 -0.32188 -5.86718 0
M  V30 3192 H 300.786 0.586454 -6.07777 0
M  V30 3193 H 302.2 -1.61081 -5.50205 0
M  V30 3194 H 300.597 -2.40199 -5.49931 0
M  V30 3195 H 301.667 -2.59134 -4.09851 0
M  V30 3196 N 303.011 1.40521 -0.713556 0
M  V30 3197 C 304.259 2.00527 -0.251692 0
M  V30 3198 C 304.58 1.56857 1.15848 0
M  V30 3199 O 303.85 0.807127 1.785 0
M  V30 3200 H 302.43 0.741551 -0.0900646 0
M  V30 3201 H 305.092 1.71887 -0.918733 0
M  V30 3202 H 304.188 3.10813 -0.283192 0
M  V30 3203 N 304.489 0.459591 1.5075 0
M  V30 3204 C 305.766 -0.160371 1.94941 0
M  V30 3205 C 306.146 -1.58048 1.39943 0
M  V30 3206 O 305.494 -2.206 0.595629 0
M  V30 3207 C 305.704 -0.115432 3.48809 0
M  V30 3208 C 307.052 -0.310026 4.23467 0
M  V30 3209 O 308.076 -0.192543 3.55679 0
M  V30 3210 O 306.935 -0.546031 5.43765 0
M  V30 3211 H 304.029 -0.117925 0.818549 0
M  V30 3212 H 306.575 0.519169 1.61563 0
M  V30 3213 H 305.347 0.87652 3.81357 0
M  V30 3214 H 304.97 -0.836928 3.88692 0
M  V30 3215 N 305.967 -1.56429 0.191757 0
M  V30 3216 C 307.244 -1.89224 -0.495332 0
M  V30 3217 C 307.624 -1.10478 -1.79883 0
M  V30 3218 O 306.972 -0.204852 -2.2758 0
M  V30 3219 C 307.182 -3.41548 -0.717367 0
M  V30 3220 C 308.53 -4.11711 -1.03823 0
M  V30 3221 O 309.554 -3.4698 -0.805204 0
M  V30 3222 O 308.413 -5.2611 -1.47887 0
M  V30 3223 H 305.507 -0.785788 -0.25781 0
M  V30 3224 H 308.053 -1.68111 0.231721 0
M  V30 3225 H 306.825 -3.90772 0.203287 0
M  V30 3226 H 306.448 -3.68342 -1.497 0
M  V30 3227 N 307.445 0.0818655 -1.57387 0
M  V30 3228 C 308.722 0.815343 -1.77796 0
M  V30 3229 C 309.102 1.96289 -0.77679 0
M  V30 3230 O 308.45 2.27691 0.192106 0
M  V30 3231 C 308.66 1.29765 -3.23978 0
M  V30 3232 C 310.008 1.7351 -3.8753 0
M  V30 3233 O 311.032 1.39356 -3.27808 0
M  V30 3234 O 309.891 2.36708 -4.92576 0
M  V30 3235 H 306.985 0.389914 -0.729312 0
M  V30 3236 H 309.531 0.0627213 -1.69584 0
M  V30 3237 H 308.303 0.47608 -3.88393 0
M  V30 3238 H 307.926 2.11189 -3.36875 0
M  V30 3239 N 308.923 1.53595 0.353017 0
M  V30 3240 C 310.171 1.70049 1.09215 0
M  V30 3241 C 310.492 0.461406 1.89463 0
M  V30 3242 O 309.762 -0.524633 1.88744 0
M  V30 3243 H 308.342 0.626912 0.40619 0
M  V30 3244 H 311.004 1.90822 0.396585 0
M  V30 3245 H 310.1 2.56718 1.77488 0
M  V30 3246 N 310.401 -0.613514 1.45168 0
M  V30 3247 C 311.349 -1.74572 1.53712 0
M  V30 3248 C 312.343 -1.64426 0.407505 0
M  V30 3249 O 313.549 -1.70291 0.583176 0
M  V30 3250 H 309.924 -0.576641 0.48269 0
M  V30 3251 H 311.895 -1.64492 2.48968 0
M  V30 3252 C 310.644 -3.12943 1.51532 0
M  V30 3253 H 309.967 -3.21407 2.37776 0
M  V30 3254 H 311.407 -3.9201 1.61569 0
M  V30 3255 C 309.866 -3.36053 0.238798 0
M  V30 3256 O 310.396 -3.95837 -0.6838 0
M  V30 3257 N 308.602 -2.9028 0.136359 0
M  V30 3258 H 308.149 -2.41811 0.887999 0
M  V30 3259 H 308.107 -3.06116 -0.716944 0
M  V30 3260 N 311.879 -1.3236 -0.855495 0
M  V30 3261 C 312.809 -1.23833 -1.97958 0
M  V30 3262 C 313.79 -0.122361 -1.69659 0
M  V30 3263 O 314.975 -0.30939 -1.9172 0
M  V30 3264 C 312.105 -0.959772 -3.33775 0
M  V30 3265 C 311.059 -2.03689 -3.76424 0
M  V30 3266 C 310.385 -1.61075 -5.09862 0
M  V30 3267 C 311.685 -3.4518 -3.9198 0
M  V30 3268 H 313.379 -2.1788 -2.0535 0
M  V30 3269 H 310.925 -1.04891 -0.986605 0
M  V30 3270 H 312.878 -0.886678 -4.11966 0
M  V30 3271 H 311.602 0.0163404 -3.26596 0
M  V30 3272 H 310.261 -2.10012 -3.00484 0
M  V30 3273 H 309.909 -0.622107 -4.99138 0
M  V30 3274 H 309.609 -2.33143 -5.39368 0
M  V30 3275 H 311.133 -1.55201 -5.90546 0
M  V30 3276 H 312.547 -3.4145 -4.60526 0
M  V30 3277 H 310.944 -4.1559 -4.32903 0
M  V30 3278 H 312.014 -3.84903 -2.94919 0
M  V30 3279 N 313.357 1.07166 -1.15556 0
M  V30 3280 C 314.267 2.17947 -0.868116 0
M  V30 3281 C 315.283 1.73297 0.156297 0
M  V30 3282 O 316.459 2.01392 -0.0182327 0
M  V30 3283 C 313.524 3.44789 -0.36355 0
M  V30 3284 C 312.585 4.03996 -1.45209 0
M  V30 3285 C 311.818 5.24783 -0.971508 0
M  V30 3286 O 312.041 5.70109 0.182194 0
M  V30 3287 O 310.975 5.75715 -1.75603 0
M  V30 3288 H 314.801 2.4503 -1.79427 0
M  V30 3289 H 312.386 1.16539 -0.934824 0
M  V30 3290 H 314.268 4.21307 -0.0887113 0
M  V30 3291 H 312.943 3.19253 0.534708 0
M  V30 3292 H 311.85 3.29009 -1.78056 0
M  V30 3293 H 313.183 4.33808 -2.32533 0
M  V30 3294 N 314.835 0.952656 1.25548 0
M  V30 3295 C 315.745 0.47782 2.29682 0
M  V30 3296 C 316.761 -0.453859 1.67977 0
M  V30 3297 O 317.937 -0.330587 1.98668 0
M  V30 3298 C 315.002 -0.238655 3.45878 0
M  V30 3299 C 314.063 0.730994 4.23031 0
M  V30 3300 C 313.296 0.0486165 5.33678 0
M  V30 3301 O 313.519 -1.16612 5.58353 0
M  V30 3302 O 312.453 0.733152 5.97418 0
M  V30 3303 H 316.279 1.34312 2.72386 0
M  V30 3304 H 313.864 0.719026 1.30959 0
M  V30 3305 H 315.746 -0.641774 4.16484 0
M  V30 3306 H 314.421 -1.07916 3.05181 0
M  V30 3307 H 313.328 1.18428 3.5486 0
M  V30 3308 H 314.661 1.53946 4.67506 0
M  V30 3309 N 316.313 -1.40141 0.720998 0
M  V30 3310 C 317.59 -1.94677 0.189757 0
M  V30 3311 C 317.97 -1.65879 -1.30566 0
M  V30 3312 O 317.318 -0.979391 -2.06447 0
M  V30 3313 C 317.528 -3.45279 0.508304 0
M  V30 3314 C 318.876 -4.22209 0.449934 0
M  V30 3315 O 319.9 -3.53413 0.444677 0
M  V30 3316 O 318.759 -5.44788 0.432189 0
M  V30 3317 H 315.853 -0.826459 0.0299026 0
M  V30 3318 H 318.399 -1.49719 0.7989 0
M  V30 3319 H 317.171 -3.59619 1.54239 0
M  V30 3320 H 316.794 -3.97386 -0.130525 0
M  V30 3321 N 317.792 -0.46758 -1.50504 0
M  V30 3322 C 319.039 0.0886219 -2.02306 0
M  V30 3323 C 319.367 1.40037 -1.34981 0
M  V30 3324 O 318.622 1.90136 -0.463318 0
M  V30 3325 C 318.921 0.323995 -3.55928 0
M  V30 3326 C 318.587 -0.905618 -4.41712 0
M  V30 3327 C 317.249 -1.24275 -4.64875 0
M  V30 3328 C 319.601 -1.72448 -4.91845 0
M  V30 3329 C 316.929 -2.39888 -5.35417 0
M  V30 3330 C 319.281 -2.87185 -5.63656 0
M  V30 3331 C 317.945 -3.21317 -5.85074 0
M  V30 3332 H 317.215 0.0324291 -0.74029 0
M  V30 3333 H 319.862 -0.620945 -1.81153 0
M  V30 3334 H 318.167 1.11577 -3.75577 0
M  V30 3335 H 319.864 0.76826 -3.93572 0
M  V30 3336 H 316.454 -0.632956 -4.239 0
M  V30 3337 H 320.638 -1.4772 -4.73806 0
M  V30 3338 H 315.894 -2.66611 -5.50208 0
M  V30 3339 H 320.068 -3.50985 -6.01484 0
M  V30 3340 H 317.695 -4.1101 -6.39511 0
M  V30 3341 N 319.27 1.56325 -0.20005 0
M  V30 3342 C 320.519 1.96895 0.437652 0
M  V30 3343 C 320.832 1.08999 1.62415 0
M  V30 3344 O 322.038 1.39372 2.32997 0
M  V30 3345 C 320.494 3.50198 0.830025 0
M  V30 3346 C 320.102 4.46765 -0.332461 0
M  V30 3347 C 321.846 3.99526 1.43453 0
M  V30 3348 C 319.753 5.91344 0.0811468 0
M  V30 3349 H 318.683 0.735209 0.167282 0
M  V30 3350 H 321.334 1.81148 -0.292853 0
M  V30 3351 H 319.716 3.61467 1.61734 0
M  V30 3352 H 320.89 4.47231 -1.11 0
M  V30 3353 H 319.205 4.07657 -0.848789 0
M  V30 3354 H 321.802 5.05025 1.75652 0
M  V30 3355 H 322.145 3.44122 2.34277 0
M  V30 3356 H 322.678 3.91393 0.71109 0
M  V30 3357 H 319.417 6.50685 -0.793033 0
M  V30 3358 H 318.937 5.94121 0.823445 0
M  V30 3359 H 320.616 6.44945 0.515252 0
M  V30 3360 N 320.748 -0.0735177 1.57428 0
M  V30 3361 C 321.976 -0.785969 1.9139 0
M  V30 3362 C 322.391 -1.71207 0.795847 0
M  V30 3363 O 321.748 -1.81033 -0.230915 0
M  V30 3364 C 321.799 -1.58107 3.25091 0
M  V30 3365 O 321.52 -0.6922 4.32597 0
M  V30 3366 C 323.021 -2.39467 3.73055 0
M  V30 3367 H 320.241 -0.223558 0.632663 0
M  V30 3368 H 322.785 -0.044302 2.04452 0
M  V30 3369 H 320.94 -2.27503 3.13562 0
M  V30 3370 H 321.354 -1.24504 5.09508 0
M  V30 3371 H 322.828 -2.90716 4.69242 0
M  V30 3372 H 323.305 -3.18913 3.01979 0
M  V30 3373 H 323.911 -1.7523 3.87523 0
M  V30 3374 N 322.226 -1.5378 -0.344866 0
M  V30 3375 C 323.472 -1.72158 -1.0832 0
M  V30 3376 C 323.827 -0.478218 -1.86362 0
M  V30 3377 O 323.12 0.529152 -1.84148 0
M  V30 3378 C 323.314 -2.92407 -2.05506 0
M  V30 3379 C 323.143 -4.28318 -1.37017 0
M  V30 3380 C 321.913 -4.92832 -1.11558 0
M  V30 3381 C 324.111 -5.08086 -0.797071 0
M  V30 3382 N 322.093 -6.12619 -0.396358 0
M  V30 3383 C 323.464 -6.1965 -0.208336 0
M  V30 3384 C 325.519 -4.92986 -0.697787 0
M  V30 3385 C 324.222 -7.17763 0.470023 0
M  V30 3386 C 326.248 -5.91391 -0.033171 0
M  V30 3387 C 325.61 -7.02292 0.544599 0
M  V30 3388 H 321.709 -0.683017 -0.380805 0
M  V30 3389 H 324.293 -1.91211 -0.366961 0
M  V30 3390 H 322.464 -2.74857 -2.74423 0
M  V30 3391 H 324.196 -2.9951 -2.72169 0
M  V30 3392 H 320.951 -4.52362 -1.40234 0
M  V30 3393 H 321.375 -6.7698 -0.0515119 0
M  V30 3394 H 326.017 -4.07414 -1.13022 0
M  V30 3395 H 323.735 -8.0291 0.914351 0
M  V30 3396 H 327.321 -5.81784 0.0430009 0
M  V30 3397 H 326.201 -7.77129 1.05073 0
M  V30 3398 N 323.704 0.605807 -1.45491 0
M  V30 3399 C 325.12 0.926751 -1.29936 0
M  V30 3400 C 325.32 1.99896 -0.253706 0
M  V30 3401 O 324.376 2.50038 0.351737 0
M  V30 3402 C 325.689 1.36599 -2.67883 0
M  V30 3403 C 327.237 1.4801 -2.75793 0
M  V30 3404 C 327.712 1.95309 -4.14268 0
M  V30 3405 N 329.203 2.0254 -4.16571 0
M  V30 3406 C 329.938 2.40363 -5.20589 0
M  V30 3407 N 329.434 2.77143 -6.34952 0
M  V30 3408 N 331.227 2.40718 -5.07948 0
M  V30 3409 H 323.378 -0.102862 -2.12151 0
M  V30 3410 H 325.641 0.016639 -0.947854 0
M  V30 3411 H 325.347 0.652306 -3.45598 0
M  V30 3412 H 325.221 2.33215 -2.96463 0
M  V30 3413 H 327.608 2.1847 -1.98381 0
M  V30 3414 H 327.689 0.497041 -2.50925 0
M  V30 3415 H 327.333 1.25436 -4.92167 0
M  V30 3416 H 327.263 2.94532 -4.3653 0
M  V30 3417 H 329.754 1.76699 -3.34045 0
M  V30 3418 H 330.067 3.0489 -7.10114 0
M  V30 3419 H 328.412 2.74834 -6.3835 0
M  V30 3420 H 331.603 2.11392 -4.1765 0
M  V30 3421 H 331.776 2.69869 -5.89131 0
M  V30 3422 N 325.182 1.32811 0.848464 0
M  V30 3423 C 326.092 1.24278 1.98978 0
M  V30 3424 C 327.108 0.155176 1.73307 0
M  V30 3425 O 328.284 0.376999 1.9784 0
M  V30 3426 C 325.349 0.972444 3.32783 0
M  V30 3427 C 324.41 2.14911 3.71634 0
M  V30 3428 C 323.643 1.89157 4.99054 0
M  V30 3429 O 323.866 0.837165 5.64223 0
M  V30 3430 O 322.8 2.75433 5.35183 0
M  V30 3431 H 326.626 2.20238 2.09115 0
M  V30 3432 H 324.211 1.12762 0.980052 0
M  V30 3433 H 326.093 0.838432 4.12975 0
M  V30 3434 H 324.768 0.043051 3.23671 0
M  V30 3435 H 323.675 2.33862 2.91992 0
M  V30 3436 H 325.008 3.06151 3.85399 0
M  V30 3437 N 326.66 -1.06551 1.16123 0
M  V30 3438 C 327.592 -2.13908 0.823171 0
M  V30 3439 C 328.605 -1.61926 -0.16843 0
M  V30 3440 O 329.794 -1.78412 0.055962 0
M  V30 3441 C 326.894 -3.38283 0.204424 0
M  V30 3442 C 326.067 -4.19589 1.23548 0
M  V30 3443 C 325.126 -5.2233 0.637011 0
M  V30 3444 O 324.152 -5.54034 1.30516 0
M  V30 3445 N 325.354 -5.77621 -0.577474 0
M  V30 3446 H 328.119 -2.43508 1.74711 0
M  V30 3447 H 325.68 -1.2253 1.05821 0
M  V30 3448 H 327.672 -4.0416 -0.208909 0
M  V30 3449 H 326.242 -3.06329 -0.623012 0
M  V30 3450 H 325.462 -3.49406 1.82507 0
M  V30 3451 H 326.75 -4.70718 1.93137 0
M  V30 3452 H 326.148 -5.54125 -1.13853 0
M  V30 3453 H 324.705 -6.45087 -0.933053 0
M  V30 3454 N 328.138 -0.959301 -1.25041 0
M  V30 3455 C 329.385 -0.616611 -1.92884 0
M  V30 3456 C 329.713 0.847036 -1.75087 0
M  V30 3457 O 328.968 1.62374 -1.09239 0
M  V30 3458 C 329.267 -0.927136 -3.45165 0
M  V30 3459 C 328.933 -2.37757 -3.83122 0
M  V30 3460 C 327.595 -2.77402 -3.93194 0
M  V30 3461 C 329.947 -3.31929 -4.01836 0
M  V30 3462 C 327.275 -4.10277 -4.19392 0
M  V30 3463 C 329.627 -4.64423 -4.29528 0
M  V30 3464 C 328.291 -5.03857 -4.37818 0
M  V30 3465 H 327.561 -0.225634 -0.705812 0
M  V30 3466 H 330.208 -1.20921 -1.48493 0
M  V30 3467 H 328.513 -0.252195 -3.90987 0
M  V30 3468 H 330.21 -0.6405 -3.95852 0
M  V30 3469 H 326.8 -2.06013 -3.75841 0
M  V30 3470 H 330.984 -3.02488 -3.93465 0
M  V30 3471 H 326.24 -4.40467 -4.24027 0
M  V30 3472 H 330.414 -5.37369 -4.42953 0
M  V30 3473 H 328.041 -6.06843 -4.57871 0
M  V30 3474 N 329.616 1.39756 -0.72842 0
M  V30 3475 C 330.862 2.01425 -0.282761 0
M  V30 3476 C 331.217 1.56754 1.11561 0
M  V30 3477 O 330.51 0.783482 1.74849 0
M  V30 3478 C 330.704 3.56002 -0.315776 0
M  V30 3479 C 330.533 4.1568 -1.71582 0
M  V30 3480 C 329.303 4.48555 -2.32651 0
M  V30 3481 C 331.501 4.39667 -2.66829 0
M  V30 3482 N 329.483 4.93698 -3.64877 0
M  V30 3483 C 330.854 4.86942 -3.8378 0
M  V30 3484 C 332.909 4.21724 -2.64675 0
M  V30 3485 C 331.612 5.18158 -4.98904 0
M  V30 3486 C 333.638 4.54049 -3.78937 0
M  V30 3487 C 333 5.01525 -4.94623 0
M  V30 3488 H 329.099 0.76756 -0.149583 0
M  V30 3489 H 331.683 1.69784 -0.952976 0
M  V30 3490 H 329.854 3.87046 0.324057 0
M  V30 3491 H 331.586 4.0443 0.147808 0
M  V30 3492 H 328.341 4.36128 -1.84633 0
M  V30 3493 H 328.765 5.20635 -4.32744 0
M  V30 3494 H 333.407 3.84228 -1.76433 0
M  V30 3495 H 331.125 5.54562 -5.87781 0
M  V30 3496 H 334.711 4.41795 -3.78561 0
M  V30 3497 H 333.591 5.26065 -5.81572 0
M  V30 3498 N 331.094 0.475555 1.50254 0
M  V30 3499 C 332.505 0.0215174 1.86688 0
M  V30 3500 C 332.856 -1.38467 1.39001 0
M  V30 3501 O 331.981 -2.02732 0.756894 0
M  V30 3502 C 332.576 0.0322715 3.38785 0
M  V30 3503 C 331.135 -0.366314 3.74613 0
M  V30 3504 C 330.282 0.415832 2.74164 0
M  V30 3505 H 333.233 0.689612 1.42934 0
M  V30 3506 H 333.254 -0.76889 3.7265 0
M  V30 3507 H 332.766 1.05584 3.73462 0
M  V30 3508 H 330.867 -1.39406 3.45538 0
M  V30 3509 H 330.98 -0.064555 4.79057 0
M  V30 3510 H 329.344 -0.131048 2.54363 0
M  V30 3511 H 330.127 1.43899 3.11686 0
M  V30 3512 N 332.573 -1.56217 0.208337 0
M  V30 3513 C 333.536 -2.18455 -0.693557 0
M  V30 3514 C 334.536 -1.14268 -1.13135 0
M  V30 3515 O 335.726 -1.39577 -1.0423 0
M  V30 3516 C 332.858 -2.79727 -1.94848 0
M  V30 3517 H 334.051 -2.99519 -0.15114 0
M  V30 3518 H 331.604 -1.56245 -0.041287 0
M  V30 3519 H 332.339 -2.02497 -2.53309 0
M  V30 3520 H 332.124 -3.56009 -1.64316 0
M  V30 3521 H 333.614 -3.27475 -2.59133 0
M  V30 3522 N 334.051 0.0651679 -1.57465 0
M  V30 3523 C 335.297 0.764193 -1.87851 0
M  V30 3524 C 335.63 1.76889 -0.801495 0
M  V30 3525 O 334.905 1.93594 0.187528 0
M  V30 3526 C 335.188 1.46625 -3.28897 0
M  V30 3527 C 335.041 0.477515 -4.47258 0
M  V30 3528 C 336.36 2.4095 -3.68281 0
M  V30 3529 H 333.479 0.276351 -0.683227 0
M  V30 3530 H 336.121 0.0272868 -1.8998 0
M  V30 3531 H 334.271 2.09438 -3.27212 0
M  V30 3532 H 335.943 -0.145922 -4.61069 0
M  V30 3533 H 334.186 -0.206576 -4.33308 0
M  V30 3534 H 334.857 1.0065 -5.42746 0
M  V30 3535 H 337.333 1.88209 -3.71102 0
M  V30 3536 H 336.209 2.87072 -4.67847 0
M  V30 3537 H 336.47 3.26049 -2.98571 0
M  V30 3538 N 335.529 1.53961 0.336706 0
M  V30 3539 C 336.769 1.73254 1.08454 0
M  V30 3540 C 337.133 0.488937 1.8567 0
M  V30 3541 O 338.334 0.559001 2.62923 0
M  V30 3542 C 336.605 2.96519 1.99528 0
M  V30 3543 S 338.164 3.36655 2.81441 0
M  V30 3544 H 334.982 0.609353 0.366347 0
M  V30 3545 H 337.584 1.92117 0.362124 0
M  V30 3546 H 336.288 3.85193 1.41614 0
M  V30 3547 H 335.819 2.80142 2.76196 0
M  V30 3548 H 337.834 2.90925 4.01967 0
M  V30 3549 N 337.007 -0.598083 1.45811 0
M  V30 3550 C 337.917 -1.73632 1.57763 0
M  V30 3551 C 338.933 -1.67763 0.461676 0
M  V30 3552 O 340.109 -1.87949 0.723685 0
M  V30 3553 C 337.174 -3.10114 1.55018 0
M  V30 3554 C 336.235 -3.27364 2.77726 0
M  V30 3555 C 335.468 -4.57334 2.75102 0
M  V30 3556 O 335.691 -5.40258 1.8297 0
M  V30 3557 O 334.625 -4.77502 3.66437 0
M  V30 3558 H 338.451 -1.66498 2.53992 0
M  V30 3559 H 336.036 -0.763308 1.28429 0
M  V30 3560 H 337.918 -3.9141 1.56129 0
M  V30 3561 H 336.593 -3.17718 0.619431 0
M  V30 3562 H 335.5 -2.45619 2.82174 0
M  V30 3563 H 336.833 -3.24641 3.69958 0
M  V30 3564 N 338.485 -1.33259 -0.841409 0
M  V30 3565 C 339.435 -1.19872 -1.93945 0
M  V30 3566 C 340.419 -0.102269 -1.60575 0
M  V30 3567 O 341.611 -0.330114 -1.73894 0
M  V30 3568 C 338.74 -0.937517 -3.30251 0
M  V30 3569 C 337.826 -2.07629 -3.69799 0
M  V30 3570 N 338.217 -3.32604 -3.81062 0
M  V30 3571 C 336.515 -1.98242 -3.9952 0
M  V30 3572 C 337.216 -4.07275 -4.15333 0
M  V30 3573 N 336.192 -3.35691 -4.27566 0
M  V30 3574 H 339.994 -2.14604 -2.00805 0
M  V30 3575 H 337.508 -1.2523 -1.03398 0
M  V30 3576 H 339.505 -0.822545 -4.08705 0
M  V30 3577 H 338.165 0.00128798 -3.247 0
M  V30 3578 H 339.176 -3.67382 -3.65035 0
M  V30 3579 H 335.853 -1.12005 -4.02195 0
M  V30 3580 H 337.243 -5.1511 -4.31406 0
M  V30 3581 N 339.963 1.05934 -1.16686 0
M  V30 3582 C 341.21 1.788 -0.950622 0
M  V30 3583 C 341.538 1.87384 0.521305 0
M  V30 3584 O 340.793 1.36438 1.40297 0
M  V30 3585 C 341.092 3.23105 -1.52767 0
M  V30 3586 C 340.758 3.34594 -3.02254 0
M  V30 3587 C 339.42 3.37437 -3.43059 0
M  V30 3588 C 341.772 3.36219 -3.98254 0
M  V30 3589 C 339.1 3.39525 -4.78477 0
M  V30 3590 C 341.452 3.39845 -5.33562 0
M  V30 3591 C 340.116 3.40971 -5.73842 0
M  V30 3592 H 339.386 0.654275 -0.347857 0
M  V30 3593 H 342.033 1.24555 -1.45459 0
M  V30 3594 H 340.338 3.80227 -0.94524 0
M  V30 3595 H 342.035 3.7809 -1.336 0
M  V30 3596 H 338.625 3.3309 -2.6972 0
M  V30 3597 H 342.809 3.33231 -3.67792 0
M  V30 3598 H 338.065 3.38703 -5.09009 0
M  V30 3599 H 342.239 3.4005 -6.07733 0
M  V30 3600 H 339.866 3.42342 -6.78753 0
M  V30 3601 N 341.441 0.965919 1.2453 0
M  V30 3602 C 342.689 0.625593 1.92174 0
M  V30 3603 C 343.01 -0.841652 1.75901 0
M  V30 3604 O 342.28 -1.60061 1.12948 0
M  V30 3605 H 340.86 0.228388 0.71123 0
M  V30 3606 H 343.522 1.2266 1.51461 0
M  V30 3607 H 342.618 0.864653 2.99884 0
M  V30 3608 N 342.919 -1.39368 0.735821 0
M  V30 3609 C 344.165 -2.00794 0.284544 0
M  V30 3610 C 344.498 -1.58255 -1.12557 0
M  V30 3611 O 343.773 -0.811819 -1.76748 0
M  V30 3612 C 344.056 -3.58011 0.387337 0
M  V30 3613 C 343.909 -4.10566 1.83728 0
M  V30 3614 C 345.228 -4.395 -0.22975 0
M  V30 3615 H 342.347 -0.729501 0.104866 0
M  V30 3616 H 344.989 -1.65564 0.93213 0
M  V30 3617 H 343.139 -3.88154 -0.164006 0
M  V30 3618 H 344.811 -3.91139 2.44556 0
M  V30 3619 H 343.054 -3.64095 2.35833 0
M  V30 3620 H 343.725 -5.19702 1.86047 0
M  V30 3621 H 346.201 -4.15406 0.240257 0
M  V30 3622 H 345.077 -5.48752 -0.127485 0
M  V30 3623 H 345.338 -4.22062 -1.3159 0
M  V30 3624 N 344.397 -0.483516 -1.5 0
M  V30 3625 C 345.307 0.309172 -2.32554 0
M  V30 3626 C 346.323 0.984159 -1.43493 0
M  V30 3627 O 347.499 0.969399 -1.76535 0
M  V30 3628 C 344.564 1.36979 -3.18493 0
M  V30 3629 C 343.625 0.710095 -4.23387 0
M  V30 3630 C 342.858 1.72018 -5.05218 0
M  V30 3631 O 343.081 2.94813 -4.88305 0
M  V30 3632 O 342.015 1.28515 -5.8802 0
M  V30 3633 H 345.841 -0.366064 -3.01486 0
M  V30 3634 H 343.426 -0.24514 -1.47375 0
M  V30 3635 H 345.308 1.98385 -3.71781 0
M  V30 3636 H 343.983 2.02828 -2.52275 0
M  V30 3637 H 342.89 0.0567539 -3.74057 0
M  V30 3638 H 344.223 0.0943557 -4.9211 0
M  V30 3639 N 345.875 1.56104 -0.216619 0
M  V30 3640 C 346.838 2.18819 0.681962 0
M  V30 3641 C 347.838 1.14866 1.12528 0
M  V30 3642 O 349.028 1.40128 1.03488 0
M  V30 3643 C 346.16 2.80756 1.93362 0
M  V30 3644 H 347.353 2.99595 0.135254 0
M  V30 3645 H 344.906 1.56265 0.0330003 0
M  V30 3646 H 345.641 2.03837 2.52232 0
M  V30 3647 H 345.426 3.56876 1.62426 0
M  V30 3648 H 346.916 3.28844 2.57393 0
M  V30 3649 N 347.353 -0.0568162 1.57498 0
M  V30 3650 C 348.581 -0.765626 1.92213 0
M  V30 3651 C 348.996 -1.70353 0.813961 0
M  V30 3652 O 348.353 -1.81268 -0.211701 0
M  V30 3653 C 348.404 -1.5465 3.2675 0
M  V30 3654 O 348.125 -0.646278 4.33307 0
M  V30 3655 C 349.626 -2.35497 3.75574 0
M  V30 3656 H 346.846 -0.216835 0.634999 0
M  V30 3657 H 349.39 -0.0226146 2.04487 0
M  V30 3658 H 347.545 -2.24165 3.15957 0
M  V30 3659 H 347.959 -1.19093 5.108 0
M  V30 3660 H 349.433 -2.85722 4.72299 0
M  V30 3661 H 349.91 -3.15692 3.05344 0
M  V30 3662 H 350.516 -1.7111 3.8936 0
M  V30 3663 N 348.832 -1.54138 -0.328536 0
M  V30 3664 C 350.08 -1.71765 -1.06496 0
M  V30 3665 C 350.401 -0.49149 -1.88704 0
M  V30 3666 O 349.671 0.494539 -1.89555 0
M  V30 3667 H 348.251 -0.633295 -0.396164 0
M  V30 3668 H 350.913 -1.91429 -0.366176 0
M  V30 3669 H 350.009 -2.5951 -1.73381 0
M  V30 3670 N 350.31 0.590341 -1.46126 0
M  V30 3671 C 351.22 1.72793 -1.58681 0
M  V30 3672 C 352.236 1.67516 -0.470566 0
M  V30 3673 O 353.412 1.87562 -0.733642 0
M  V30 3674 C 350.477 3.09287 -1.5666 0
M  V30 3675 C 349.538 3.25886 -2.79458 0
M  V30 3676 C 348.771 4.55869 -2.77524 0
M  V30 3677 O 348.994 5.3928 -1.85832 0
M  V30 3678 O 347.928 4.75552 -3.68964 0
M  V30 3679 H 351.754 1.65149 -2.54872 0
M  V30 3680 H 349.339 0.756486 -1.28832 0
M  V30 3681 H 351.221 3.90577 -1.58202 0
M  V30 3682 H 349.896 3.17385 -0.636271 0
M  V30 3683 H 348.803 2.44119 -2.83472 0
M  V30 3684 H 350.136 3.22675 -3.71674 0
M  V30 3685 N 351.788 1.33704 0.83433 0
M  V30 3686 C 352.698 1.26382 1.97648 0
M  V30 3687 C 353.714 0.173548 1.73132 0
M  V30 3688 O 354.89 0.397962 1.97429 0
M  V30 3689 C 351.955 1.00769 3.31733 0
M  V30 3690 C 351.016 2.1884 3.69334 0
M  V30 3691 C 350.249 1.9444 4.9702 0
M  V30 3692 O 350.472 0.896961 5.63303 0
M  V30 3693 O 349.406 2.81093 5.32231 0
M  V30 3694 H 353.232 2.22444 2.06767 0
M  V30 3695 H 350.817 1.13795 0.968037 0
M  V30 3696 H 352.699 0.882186 4.12062 0
M  V30 3697 H 351.374 0.0773783 3.23608 0
M  V30 3698 H 350.281 2.36946 2.89495 0
M  V30 3699 H 351.614 3.10221 3.82131 0
M  V30 3700 N 353.266 -1.05314 1.17247 0
M  V30 3701 C 354.491 -1.82509 0.985148 0
M  V30 3702 C 354.916 -1.82343 -0.461788 0
M  V30 3703 O 354.274 -1.23151 -1.33055 0
M  V30 3704 C 354.322 -3.26566 1.52929 0
M  V30 3705 O 353.426 -4.05666 0.742225 0
M  V30 3706 H 352.767 -0.564347 0.349869 0
M  V30 3707 H 355.297 -1.32718 1.55715 0
M  V30 3708 H 355.307 -3.77369 1.55103 0
M  V30 3709 H 353.982 -3.26001 2.58256 0
M  V30 3710 H 352.559 -3.64397 0.791794 0
M  V30 3711 N 354.744 -0.972509 -1.24016 0
M  V30 3712 C 355.969 -0.654417 -1.96805 0
M  V30 3713 C 356.394 0.770398 -1.716 0
M  V30 3714 O 355.752 1.52361 -0.982647 0
M  V30 3715 C 355.8 -0.941031 -3.48105 0
M  V30 3716 O 354.904 -0.0289472 -4.1239 0
M  V30 3717 H 354.245 -0.24692 -0.616382 0
M  V30 3718 H 356.775 -1.30396 -1.57664 0
M  V30 3719 H 356.785 -0.87452 -3.98517 0
M  V30 3720 H 355.46 -1.97939 -3.65777 0
M  V30 3721 H 354.037 -0.149192 -3.72601 0
M  V30 3722 N 356.222 1.38976 -0.743202 0
M  V30 3723 C 357.471 1.99581 -0.291592 0
M  V30 3724 C 357.784 1.59656 1.13001 0
M  V30 3725 O 358.99 2.13157 1.68156 0
M  V30 3726 C 357.446 3.56813 -0.470391 0
M  V30 3727 C 357.054 4.05695 -1.90041 0
M  V30 3728 C 358.798 4.24423 -0.0809709 0
M  V30 3729 C 356.705 5.5553 -2.02832 0
M  V30 3730 H 355.635 0.746615 -0.105272 0
M  V30 3731 H 358.286 1.58872 -0.918258 0
M  V30 3732 H 356.668 3.95359 0.225299 0
M  V30 3733 H 357.842 3.78464 -2.62872 0
M  V30 3734 H 356.157 3.50775 -2.24379 0
M  V30 3735 H 358.754 5.34474 -0.155445 0
M  V30 3736 H 359.097 4.04962 0.96497 0
M  V30 3737 H 359.63 3.9108 -0.728124 0
M  V30 3738 H 356.369 5.79881 -3.05643 0
M  V30 3739 H 355.889 5.84537 -1.34448 0
M  V30 3740 H 357.568 6.21069 -1.81335 0
M  V30 3741 N 357.7 0.491464 1.49741 0
M  V30 3742 C 359.116 0.146835 1.58923 0
M  V30 3743 C 359.316 -1.34804 1.49767 0
M  V30 3744 O 358.372 -2.12317 1.36667 0
M  V30 3745 C 359.685 0.715157 2.92072 0
M  V30 3746 C 361.233 0.680407 3.05515 0
M  V30 3747 C 361.708 1.22663 4.41269 0
M  V30 3748 N 363.199 1.18691 4.47735 0
M  V30 3749 C 363.934 1.57984 5.51207 0
M  V30 3750 N 363.43 2.04824 6.6183 0
M  V30 3751 N 365.223 1.49459 5.41866 0
M  V30 3752 H 357.374 1.46347 1.53936 0
M  V30 3753 H 359.637 0.606453 0.728642 0
M  V30 3754 H 359.343 1.76317 3.04311 0
M  V30 3755 H 359.217 0.17018 3.76816 0
M  V30 3756 H 361.604 -0.358743 2.92911 0
M  V30 3757 H 361.685 1.26242 2.22478 0
M  V30 3758 H 361.329 2.26451 4.54623 0
M  V30 3759 H 361.259 0.620637 5.2293 0
M  V30 3760 H 363.75 0.843605 3.68364 0
M  V30 3761 H 364.063 2.32901 7.3687 0
M  V30 3762 H 362.408 2.08791 6.62896 0
M  V30 3763 H 365.599 1.12692 4.54333 0
M  V30 3764 H 365.772 1.80406 6.22381 0
M  V30 3765 N 359.178 -1.55987 0.224894 0
M  V30 3766 C 360.11 -2.17722 -0.716224 0
M  V30 3767 C 361.123 -1.14723 -1.15509 0
M  V30 3768 O 362.312 -1.41688 -1.08567 0
M  V30 3769 C 359.412 -2.74873 -1.98238 0
M  V30 3770 C 358.585 -4.03074 -1.69853 0
M  V30 3771 C 357.644 -4.44757 -2.81208 0
M  V30 3772 O 356.67 -5.11587 -2.49534 0
M  V30 3773 N 357.872 -4.10716 -4.10235 0
M  V30 3774 H 360.637 -2.99109 -0.188123 0
M  V30 3775 H 358.198 -1.6184 0.0440123 0
M  V30 3776 H 360.19 -2.99727 -2.7193 0
M  V30 3777 H 358.76 -1.9777 -2.42086 0
M  V30 3778 H 357.98 -3.86041 -0.797875 0
M  V30 3779 H 359.268 -4.86701 -1.48324 0
M  V30 3780 H 358.666 -3.57019 -4.38809 0
M  V30 3781 H 357.223 -4.40455 -4.80461 0
M  V30 3782 N 360.656 0.0484629 -1.57525 0
M  V30 3783 C 361.886 0.754326 -1.92337 0
M  V30 3784 C 362.294 1.70443 -0.82132 0
M  V30 3785 O 361.637 1.82466 0.21254 0
M  V30 3786 C 361.699 1.58231 -3.22805 0
M  V30 3787 C 361.363 0.799074 -4.4996 0
M  V30 3788 C 362.36 0.1079 -5.19788 0
M  V30 3789 C 360.045 0.759345 -4.96527 0
M  V30 3790 C 362.039 -0.612516 -6.3445 0
M  V30 3791 C 359.726 0.0351713 -6.1109 0
M  V30 3792 C 360.724 -0.649537 -6.79904 0
M  V30 3793 O 360.412 -1.36199 -7.92278 0
M  V30 3794 H 360.144 0.218257 -0.639797 0
M  V30 3795 H 362.698 0.0159295 -2.05394 0
M  V30 3796 H 360.928 2.36406 -3.06021 0
M  V30 3797 H 362.617 2.16898 -3.43089 0
M  V30 3798 H 363.383 0.129748 -4.84826 0
M  V30 3799 H 359.262 1.28177 -4.42822 0
M  V30 3800 H 362.806 -1.14751 -6.88097 0
M  V30 3801 H 358.703 0.0113314 -6.45499 0
M  V30 3802 H 359.471 -1.27366 -8.0853 0
M  V30 3803 N 362.134 1.5431 0.320358 0
M  V30 3804 C 363.044 1.86946 1.41734 0
M  V30 3805 C 364.06 0.761689 1.56443 0
M  V30 3806 O 365.236 1.05629 1.71477 0
M  V30 3807 C 362.301 2.09293 2.76401 0
M  V30 3808 C 361.362 3.33082 2.70841 0
M  V30 3809 C 360.595 3.54353 3.99086 0
M  V30 3810 O 360.818 2.79002 4.97508 0
M  V30 3811 O 359.752 4.47838 4.0215 0
M  V30 3812 H 363.578 2.80232 1.17062 0
M  V30 3813 H 361.163 1.40255 0.514673 0
M  V30 3814 H 363.045 2.25303 3.56113 0
M  V30 3815 H 361.72 1.19194 3.00956 0
M  V30 3816 H 360.627 3.22454 1.89668 0
M  V30 3817 H 361.96 4.23249 2.5124 0
M  V30 3818 N 363.613 -0.582584 1.46437 0
M  V30 3819 C 364.543 -1.70187 1.59871 0
M  V30 3820 C 365.524 -1.64066 0.449042 0
M  V30 3821 O 366.709 -1.82081 0.6753 0
M  V30 3822 C 363.839 -3.08827 1.58881 0
M  V30 3823 C 362.793 -3.29779 2.72819 0
M  V30 3824 C 362.119 -4.68947 2.5689 0
M  V30 3825 C 363.419 -3.17601 4.1464 0
M  V30 3826 H 365.113 -1.592 2.53566 0
M  V30 3827 H 362.659 -0.764472 1.22032 0
M  V30 3828 H 364.612 -3.86951 1.66873 0
M  V30 3829 H 363.336 -3.20713 0.617306 0
M  V30 3830 H 361.995 -2.54054 2.64296 0
M  V30 3831 H 361.643 -4.77599 1.57823 0
M  V30 3832 H 361.343 -4.83919 3.33312 0
M  V30 3833 H 362.867 -5.4924 2.66773 0
M  V30 3834 H 364.281 -3.8557 4.24274 0
M  V30 3835 H 362.678 -3.44094 4.9165 0
M  V30 3836 H 363.748 -2.14681 4.34788 0
M  V30 3837 N 365.091 -1.34144 -0.827227 0
M  V30 3838 C 366.337 -1.26446 -1.58554 0
M  V30 3839 C 366.67 0.1664 -1.93486 0
M  V30 3840 O 365.945 1.1107 -1.59667 0
M  V30 3841 C 366.228 -2.15111 -2.8879 0
M  V30 3842 C 366.081 -3.66712 -2.60465 0
M  V30 3843 C 367.4 -2.03311 -3.90324 0
M  V30 3844 H 364.519 -0.46067 -0.575284 0
M  V30 3845 H 367.161 -1.64356 -0.953269 0
M  V30 3846 H 365.311 -1.8291 -3.42748 0
M  V30 3847 H 366.983 -4.09259 -2.1285 0
M  V30 3848 H 365.226 -3.88014 -1.93978 0
M  V30 3849 H 365.897 -4.24112 -3.53317 0
M  V30 3850 H 368.373 -2.31574 -3.45706 0
M  V30 3851 H 367.249 -2.67582 -4.79261 0
M  V30 3852 H 367.51 -1.00879 -4.30437 0
M  V30 3853 N 366.569 1.04691 -1.17803 0
M  V30 3854 C 367.815 1.78045 -0.970969 0
M  V30 3855 C 368.148 1.87686 0.498751 0
M  V30 3856 O 367.423 1.38035 1.37027 0
M  V30 3857 C 367.706 3.2166 -1.61884 0
M  V30 3858 C 367.559 3.20001 -3.161 0
M  V30 3859 C 368.878 4.1962 -1.3269 0
M  V30 3860 H 365.997 0.64633 -0.354155 0
M  V30 3861 H 368.639 1.22333 -1.45378 0
M  V30 3862 H 366.789 3.69232 -1.20831 0
M  V30 3863 H 368.461 2.80467 -3.66246 0
M  V30 3864 H 366.704 2.58203 -3.48588 0
M  V30 3865 H 367.375 4.21386 -3.56564 0
M  V30 3866 H 369.851 3.80567 -1.68249 0
M  V30 3867 H 368.727 5.18339 -1.80599 0
M  V30 3868 H 368.988 4.414 -0.248622 0
M  V30 3869 N 368.047 0.979072 1.23499 0
M  V30 3870 C 368.997 0.489378 2.22686 0
M  V30 3871 C 369.981 -0.434871 1.54912 0
M  V30 3872 O 371.173 -0.263941 1.75021 0
M  V30 3873 C 368.302 -0.208178 3.42668 0
M  V30 3874 C 367.388 0.735563 4.17672 0
M  V30 3875 N 367.779 1.87763 4.69658 0
M  V30 3876 C 366.077 0.548625 4.42613 0
M  V30 3877 C 366.778 2.46886 5.26709 0
M  V30 3878 N 365.754 1.75287 5.14563 0
M  V30 3879 H 369.556 1.36062 2.60508 0
M  V30 3880 H 367.07 0.83958 1.39014 0
M  V30 3881 H 369.067 -0.576295 4.12898 0
M  V30 3882 H 367.727 -1.07572 3.06363 0
M  V30 3883 H 368.738 2.25885 4.66043 0
M  V30 3884 H 365.415 -0.274006 4.166 0
M  V30 3885 H 366.805 3.43326 5.77561 0
M  V30 3886 N 369.525 -1.3858 0.750561 0
M  V30 3887 C 370.753 -2.04471 0.316098 0
M  V30 3888 C 371.168 -1.56606 -1.05452 0
M  V30 3889 O 370.525 -0.737784 -1.66922 0
M  V30 3890 C 370.576 -3.60025 0.326275 0
M  V30 3891 O 370.297 -4.06133 1.6428 0
M  V30 3892 C 371.798 -4.43131 -0.122429 0
M  V30 3893 H 369.018 -0.65717 0.135528 0
M  V30 3894 H 371.562 -1.77329 1.01857 0
M  V30 3895 H 369.717 -3.86014 -0.327431 0
M  V30 3896 H 370.131 -5.00547 1.56693 0
M  V30 3897 H 371.605 -5.51963 -0.0641473 0
M  V30 3898 H 372.082 -4.23333 -1.16988 0
M  V30 3899 H 372.688 -4.22323 0.50229 0
M  V30 3900 N 371.003 -0.499398 -1.49478 0
M  V30 3901 C 372.28 0.108629 -1.95298 0
M  V30 3902 C 372.66 1.54282 -1.44084 0
M  V30 3903 O 372.008 2.18944 -0.653908 0
M  V30 3904 C 372.218 0.0229111 -3.48992 0
M  V30 3905 C 373.566 0.197643 -4.2414 0
M  V30 3906 O 374.59 0.0981735 -3.56065 0
M  V30 3907 O 373.449 0.401669 -5.45022 0
M  V30 3908 H 370.543 0.096181 -0.821388 0
M  V30 3909 H 373.089 -0.561822 -1.6013 0
M  V30 3910 H 371.861 -0.977321 -3.78899 0
M  V30 3911 H 371.484 0.733579 -3.90774 0
M  V30 3912 N 372.481 1.55866 -0.233164 0
M  V30 3913 C 373.73 1.97779 0.39579 0
M  V30 3914 C 374.043 1.12419 1.60066 0
M  V30 3915 O 375.249 1.44283 2.29988 0
M  V30 3916 C 373.705 3.5188 0.755556 0
M  V30 3917 C 373.313 4.45959 -0.427152 0
M  V30 3918 C 375.057 4.02479 1.34946 0
M  V30 3919 C 372.964 5.91383 -0.0443043 0
M  V30 3920 H 371.894 0.738592 0.15165 0
M  V30 3921 H 374.545 1.80486 -0.331212 0
M  V30 3922 H 372.927 3.64816 1.5403 0
M  V30 3923 H 374.101 4.44776 -1.20462 0
M  V30 3924 H 372.416 4.05765 -0.935068 0
M  V30 3925 H 375.013 5.08637 1.649 0
M  V30 3926 H 375.356 3.49014 2.26925 0
M  V30 3927 H 375.889 3.92813 0.62791 0
M  V30 3928 H 372.628 6.48857 -0.930874 0
M  V30 3929 H 372.148 5.95734 0.697238 0
M  V30 3930 H 373.827 6.45893 0.378334 0
M  V30 3931 N 373.959 -0.0401083 1.57549 0
M  V30 3932 C 375.236 -0.767917 1.79896 0
M  V30 3933 C 375.616 -1.9416 0.82856 0
M  V30 3934 O 374.964 -2.2812 -0.131671 0
M  V30 3935 C 375.174 -1.2113 3.27305 0
M  V30 3936 C 376.522 -1.63175 3.91994 0
M  V30 3937 O 377.546 -1.30616 3.31388 0
M  V30 3938 O 376.405 -2.23565 4.98679 0
M  V30 3939 H 373.499 -0.370441 0.739393 0
M  V30 3940 H 376.045 -0.017737 1.69691 0
M  V30 3941 H 374.817 -0.372937 3.89519 0
M  V30 3942 H 374.44 -2.02183 3.42356 0
M  V30 3943 N 375.437 -1.54477 -0.31217 0
M  V30 3944 C 376.4 -1.83923 -1.36766 0
M  V30 3945 C 377.4 -0.711563 -1.44199 0
M  V30 3946 O 378.59 -0.979866 -1.44029 0
M  V30 3947 C 375.722 -2.0095 -2.75376 0
M  V30 3948 H 376.915 -2.78239 -1.11906 0
M  V30 3949 H 374.468 -1.46369 -0.548257 0
M  V30 3950 H 375.203 -1.08883 -3.05475 0
M  V30 3951 H 374.988 -2.83018 -2.71373 0
M  V30 3952 H 376.478 -2.2514 -3.51713 0
M  V30 3953 N 376.915 0.57481 -1.46744 0
M  V30 3954 C 377.878 1.66533 -1.57478 0
M  V30 3955 C 378.878 1.54338 -0.451263 0
M  V30 3956 O 380.068 1.58814 -0.715813 0
M  V30 3957 C 377.2 3.05999 -1.50259 0
M  V30 3958 H 378.393 1.58372 -2.54673 0
M  V30 3959 H 375.946 0.793301 -1.34672 0
M  V30 3960 H 376.681 3.19709 -0.543725 0
M  V30 3961 H 376.466 3.16259 -2.31781 0
M  V30 3962 H 377.956 3.8537 -1.60872 0
M  V30 3963 N 378.394 1.34581 0.820102 0
M  V30 3964 C 379.341 1.2639 1.93117 0
M  V30 3965 C 380.311 0.138554 1.65521 0
M  V30 3966 O 381.496 0.320004 1.88097 0
M  V30 3967 C 378.636 1.02812 3.29429 0
M  V30 3968 C 377.749 2.24146 3.693 0
M  V30 3969 C 376.884 1.93829 4.94574 0
M  V30 3970 C 375.923 3.1129 5.27034 0
M  V30 3971 N 375.06 2.80838 6.43486 0
M  V30 3972 H 379.9 2.21408 1.99455 0
M  V30 3973 H 377.437 1.10077 0.975784 0
M  V30 3974 H 379.395 0.871788 4.0799 0
M  V30 3975 H 378.025 0.114612 3.22596 0
M  V30 3976 H 377.077 2.50691 2.86109 0
M  V30 3977 H 378.389 3.11899 3.89257 0
M  V30 3978 H 377.543 1.74948 5.80929 0
M  V30 3979 H 376.282 1.03341 4.76626 0
M  V30 3980 H 375.287 3.30764 4.39175 0
M  V30 3981 H 376.512 4.02561 5.4692 0
M  V30 3982 H 374.458 1.92929 6.26988 0
M  V30 3983 H 374.375 3.62123 6.63629 0
M  V30 3984 H 375.643 2.65467 7.32903 0
M  V30 3985 N 379.872 -1.04064 1.18357 0
M  V30 3986 C 381.118 -1.77528 0.980397 0
M  V30 3987 C 381.451 -1.87948 -0.48879 0
M  V30 3988 O 380.726 -1.3876 -1.36293 0
M  V30 3989 C 381.009 -3.20797 1.63588 0
M  V30 3990 C 380.862 -3.1832 3.17793 0
M  V30 3991 C 382.181 -4.18911 1.34914 0
M  V30 3992 H 379.3 -0.644443 0.357578 0
M  V30 3993 H 381.942 -1.2156 1.46024 0
M  V30 3994 H 380.092 -3.68586 1.22788 0
M  V30 3995 H 381.764 -2.78521 3.67728 0
M  V30 3996 H 380.007 -2.56351 3.49952 0
M  V30 3997 H 380.678 -4.19489 3.58794 0
M  V30 3998 H 383.154 -3.7967 1.70265 0
M  V30 3999 H 382.03 -5.17374 1.83346 0
M  V30 4000 H 382.291 -4.41262 0.272027 0
M  V30 4001 N 381.35 -0.985608 -1.22978 0
M  V30 4002 C 382.58 -0.674603 -1.95276 0
M  V30 4003 C 382.988 0.763483 -1.73111 0
M  V30 4004 O 382.331 1.52601 -1.02268 0
M  V30 4005 C 382.393 -0.891597 -3.48268 0
M  V30 4006 C 382.057 -2.31275 -3.94158 0
M  V30 4007 C 383.054 -3.29179 -4.02415 0
M  V30 4008 C 380.739 -2.64524 -4.27004 0
M  V30 4009 C 382.733 -4.58407 -4.42879 0
M  V30 4010 C 380.42 -3.93974 -4.67149 0
M  V30 4011 C 381.418 -4.90727 -4.75053 0
M  V30 4012 O 381.106 -6.17865 -5.14294 0
M  V30 4013 H 380.838 -0.249251 -0.628371 0
M  V30 4014 H 383.392 -1.32106 -1.5728 0
M  V30 4015 H 381.622 -0.187962 -3.86243 0
M  V30 4016 H 383.311 -0.576957 -4.01779 0
M  V30 4017 H 384.077 -3.04823 -3.77237 0
M  V30 4018 H 379.956 -1.89923 -4.2006 0
M  V30 4019 H 383.5 -5.33926 -4.48964 0
M  V30 4020 H 379.397 -4.18122 -4.91777 0
M  V30 4021 H 380.165 -6.21694 -5.32389 0
M  V30 4022 N 382.828 1.3818 -0.7579 0
M  V30 4023 C 383.761 2.28055 -0.0814093 0
M  V30 4024 C 384.739 1.45603 0.723779 0
M  V30 4025 O 385.923 1.74961 0.701491 0
M  V30 4026 C 383.05 3.2676 0.891394 0
M  V30 4027 C 382.096 4.26153 0.171909 0
M  V30 4028 S 382.929 5.23434 -1.13035 0
M  V30 4029 C 384.085 6.25694 -0.160727 0
M  V30 4030 H 384.318 2.85082 -0.84353 0
M  V30 4031 H 381.851 1.44246 -0.550671 0
M  V30 4032 H 383.809 3.8414 1.44731 0
M  V30 4033 H 382.47 2.68706 1.62652 0
M  V30 4034 H 381.663 4.95738 0.908843 0
M  V30 4035 H 381.265 3.72691 -0.312606 0
M  V30 4036 H 383.557 6.74161 0.671773 0
M  V30 4037 H 384.5 7.03285 -0.824353 0
M  V30 4038 H 384.908 5.64064 0.221892 0
M  V30 4039 N 384.306 0.507319 1.49211 0
M  V30 4040 C 385.554 -0.0348839 2.0207 0
M  V30 4041 C 385.875 -1.36898 1.38866 0
M  V30 4042 O 385.145 -1.88133 0.546151 0
M  V30 4043 H 383.725 -0.0158812 0.746831 0
M  V30 4044 H 386.387 0.665998 1.83168 0
M  V30 4045 H 385.483 -0.159917 3.1169 0
M  V30 4046 N 385.784 -1.5574 0.241426 0
M  V30 4047 C 386.694 -2.2479 -0.671305 0
M  V30 4048 C 387.71 -1.26217 -1.19772 0
M  V30 4049 O 388.886 -1.59079 -1.23514 0
M  V30 4050 C 385.951 -2.92966 -1.85396 0
M  V30 4051 C 385.012 -4.06935 -1.36756 0
M  V30 4052 C 384.245 -4.71851 -2.49384 0
M  V30 4053 O 384.468 -4.35823 -3.67987 0
M  V30 4054 O 383.402 -5.60467 -2.19454 0
M  V30 4055 H 387.228 -3.0349 -0.112966 0
M  V30 4056 H 384.813 -1.49397 0.0101513 0
M  V30 4057 H 386.695 -3.35927 -2.54423 0
M  V30 4058 H 385.37 -2.17211 -2.40002 0
M  V30 4059 H 384.277 -3.68503 -0.644726 0
M  V30 4060 H 385.61 -4.84492 -0.867647 0
M  V30 4061 N 387.262 0.0317525 -1.57568 0
M  V30 4062 C 388.195 1.06621 -2.0176 0
M  V30 4063 C 389.173 1.35323 -0.901462 0
M  V30 4064 O 390.357 1.48025 -1.16708 0
M  V30 4065 C 387.484 2.40155 -2.38837 0
M  V30 4066 C 386.53 2.27327 -3.60867 0
M  V30 4067 S 387.363 1.62925 -5.10113 0
M  V30 4068 C 388.519 2.97955 -5.5043 0
M  V30 4069 H 388.752 0.689781 -2.89187 0
M  V30 4070 H 386.285 0.24164 -1.52497 0
M  V30 4071 H 388.243 3.1695 -2.6087 0
M  V30 4072 H 386.904 2.74946 -1.51867 0
M  V30 4073 H 386.097 3.25898 -3.84456 0
M  V30 4074 H 385.699 1.58675 -3.38671 0
M  V30 4075 H 387.991 3.94285 -5.5095 0
M  V30 4076 H 388.934 2.79102 -6.50775 0
M  V30 4077 H 389.342 3.00404 -4.77931 0
M  V30 4078 N 388.74 1.54641 0.303973 0
M  V30 4079 C 389.988 1.73437 1.0375 0
M  V30 4080 C 390.309 0.521449 1.87899 0
M  V30 4081 O 389.579 -0.46432 1.90318 0
M  V30 4082 H 388.159 0.639518 0.386039 0
M  V30 4083 H 390.821 1.91988 0.335675 0
M  V30 4084 H 389.917 2.62235 1.69231 0
M  V30 4085 N 390.218 -0.567019 1.47046 0
M  V30 4086 C 391.634 -0.891975 1.32348 0
M  V30 4087 C 391.834 -1.99154 0.306616 0
M  V30 4088 O 390.89 -2.50883 -0.28532 0
M  V30 4089 C 392.203 -1.29449 2.7141 0
M  V30 4090 C 393.751 -1.40646 2.79621 0
M  V30 4091 C 394.226 -1.84257 4.19301 0
M  V30 4092 N 395.717 -1.91424 4.21795 0
M  V30 4093 C 396.452 -2.26476 5.26779 0
M  V30 4094 N 395.948 -2.60211 6.42077 0
M  V30 4095 N 397.741 -2.27166 5.14152 0
M  V30 4096 H 389.892 0.159074 2.11803 0
M  V30 4097 H 392.155 0.00849752 0.947962 0
M  V30 4098 H 391.861 -0.560448 3.47206 0
M  V30 4099 H 391.735 -2.25273 3.02542 0
M  V30 4100 H 394.122 -2.13133 2.04104 0
M  V30 4101 H 394.203 -0.430339 2.52154 0
M  V30 4102 H 393.847 -1.12343 4.95319 0
M  V30 4103 H 393.777 -2.82855 4.44185 0
M  V30 4104 H 396.268 -1.6778 3.38612 0
M  V30 4105 H 396.581 -2.85956 7.17948 0
M  V30 4106 H 394.926 -2.57813 6.45413 0
M  V30 4107 H 398.117 -2.00244 4.23107 0
M  V30 4108 H 398.29 -2.54154 5.96079 0
M  V30 4109 N 391.696 -1.35014 -0.812953 0
M  V30 4110 C 392.626 -1.30069 -1.93919 0
M  V30 4111 C 393.607 -0.176275 -1.69184 0
M  V30 4112 O 394.792 -0.370227 -1.90638 0
M  V30 4113 C 391.922 -1.06547 -3.30552 0
M  V30 4114 C 390.876 -2.15561 -3.69753 0
M  V30 4115 C 390.202 -1.77214 -5.04479 0
M  V30 4116 C 391.502 -3.57476 -3.808 0
M  V30 4117 H 393.196 -2.24303 -1.98314 0
M  V30 4118 H 390.742 -1.07977 -0.952736 0
M  V30 4119 H 392.695 -1.01729 -4.08937 0
M  V30 4120 H 391.419 -0.0875719 -3.26483 0
M  V30 4121 H 390.078 -2.19466 -2.9365 0
M  V30 4122 H 389.726 -0.780589 -4.96906 0
M  V30 4123 H 389.426 -2.50184 -5.31678 0
M  V30 4124 H 390.95 -1.7391 -5.8531 0
M  V30 4125 H 392.364 -3.55929 -4.4943 0
M  V30 4126 H 390.761 -4.29152 -4.19462 0
M  V30 4127 H 391.831 -3.94091 -2.82525 0
M  V30 4128 N 393.175 1.03435 -1.18907 0
M  V30 4129 C 394.122 2.11591 -0.921837 0
M  V30 4130 C 395.092 1.65499 0.141226 0
M  V30 4131 O 396.277 1.908 0.000242829 0
M  V30 4132 C 393.417 3.42012 -0.460616 0
M  V30 4133 C 392.53 4.01682 -1.58982 0
M  V30 4134 C 391.665 5.20091 -1.08069 0
M  V30 4135 C 390.704 5.71805 -2.18416 0
M  V30 4136 N 389.841 6.81494 -1.68849 0
M  V30 4137 H 394.681 2.33787 -1.8479 0
M  V30 4138 H 392.218 1.1467 -0.921373 0
M  V30 4139 H 394.176 4.16834 -0.174642 0
M  V30 4140 H 392.806 3.19944 0.428467 0
M  V30 4141 H 391.858 3.24127 -1.99113 0
M  V30 4142 H 393.17 4.36084 -2.4214 0
M  V30 4143 H 392.324 6.02051 -0.749615 0
M  V30 4144 H 391.063 4.87209 -0.218771 0
M  V30 4145 H 390.068 4.88461 -2.5236 0
M  V30 4146 H 391.293 6.06728 -3.05054 0
M  V30 4147 H 389.239 6.50475 -0.849572 0
M  V30 4148 H 389.156 7.14994 -2.45601 0
M  V30 4149 H 390.424 7.67063 -1.38689 0
M  V30 4150 N 394.653 0.992116 1.22453 0
M  V30 4151 C 395.878 0.685644 1.95739 0
M  V30 4152 C 396.303 -0.743 1.72804 0
M  V30 4153 O 395.661 -1.50778 1.00676 0
M  V30 4154 C 395.709 0.996293 3.46564 0
M  V30 4155 O 394.813 0.0945512 4.12292 0
M  V30 4156 H 394.154 0.256694 0.612376 0
M  V30 4157 H 396.684 1.32888 1.5557 0
M  V30 4158 H 396.694 0.93781 3.97076 0
M  V30 4159 H 395.369 2.03733 3.62582 0
M  V30 4160 H 393.946 0.208451 3.72317 0
M  V30 4161 N 396.131 -1.37776 0.765217 0
M  V30 4162 C 397.361 -2.03828 0.337277 0
M  V30 4163 C 397.769 -1.57841 -1.04321 0
M  V30 4164 O 397.112 -0.752043 -1.67601 0
M  V30 4165 C 397.174 -3.58292 0.294407 0
M  V30 4166 C 396.838 -4.27384 1.61838 0
M  V30 4167 C 397.835 -4.51956 2.56967 0
M  V30 4168 C 395.52 -4.65345 1.89102 0
M  V30 4169 C 397.514 -5.13536 3.77571 0
M  V30 4170 C 395.201 -5.26647 3.09978 0
M  V30 4171 C 396.199 -5.50679 4.04032 0
M  V30 4172 O 395.887 -6.10702 5.2278 0
M  V30 4173 H 395.619 -0.661292 0.140248 0
M  V30 4174 H 398.173 -1.77222 1.03834 0
M  V30 4175 H 396.403 -3.83918 -0.462983 0
M  V30 4176 H 398.092 -4.05763 -0.105581 0
M  V30 4177 H 398.858 -4.23048 2.37183 0
M  V30 4178 H 394.737 -4.45978 1.16725 0
M  V30 4179 H 398.281 -5.3221 4.50997 0
M  V30 4180 H 394.178 -5.54979 3.29649 0
M  V30 4181 H 394.946 -6.29183 5.23517 0
M  V30 4182 N 397.609 -0.515225 -1.4894 0
M  V30 4183 C 398.519 0.259774 -2.33157 0
M  V30 4184 C 399.535 0.953501 -1.45548 0
M  V30 4185 O 400.711 0.931735 -1.78552 0
M  V30 4186 C 397.776 1.30193 -3.21326 0
M  V30 4187 C 396.837 0.620129 -4.24797 0
M  V30 4188 C 396.07 1.61263 -5.08753 0
M  V30 4189 O 396.293 2.84389 -4.94448 0
M  V30 4190 O 395.227 1.16013 -5.90614 0
M  V30 4191 H 399.053 -0.429932 -3.00641 0
M  V30 4192 H 396.638 -0.276346 -1.46822 0
M  V30 4193 H 398.52 1.90455 -3.75905 0
M  V30 4194 H 397.195 1.97431 -2.56521 0
M  V30 4195 H 396.102 -0.0226019 -3.74093 0
M  V30 4196 H 397.435 -0.0100493 -4.92199 0
M  V30 4197 N 399.087 1.5561 -0.249682 0
M  V30 4198 C 400.035 2.22894 0.664906 0
M  V30 4199 C 401.029 1.21743 1.17792 0
M  V30 4200 O 402.235 1.39748 1.13449 0
M  V30 4201 H 398.61 0.715022 0.232912 0
M  V30 4202 H 400.581 2.98307 0.0742998 0
M  V30 4203 C 399.33 2.94424 1.84959 0
M  V30 4204 H 398.653 3.72031 1.46399 0
M  V30 4205 H 400.093 3.44862 2.4667 0
M  V30 4206 C 398.552 1.98454 2.72245 0
M  V30 4207 O 399.082 1.51939 3.71857 0
M  V30 4208 N 397.288 1.65496 2.38871 0
M  V30 4209 H 396.835 2.03517 1.57919 0
M  V30 4210 H 396.793 1.0155 2.97548 0
M  V30 4211 N 400.565 -0.0233959 1.57583 0
M  V30 4212 C 401.497 -1.04994 2.03737 0
M  V30 4213 C 402.51 -1.32125 0.951152 0
M  V30 4214 O 403.699 -1.29512 1.22837 0
M  V30 4215 C 400.799 -2.39026 2.40249 0
M  V30 4216 C 399.972 -2.31171 3.7132 0
M  V30 4217 C 399.031 -3.47698 3.94959 0
M  V30 4218 O 398.057 -3.26937 4.65941 0
M  V30 4219 N 399.259 -4.6976 3.41037 0
M  V30 4220 H 402.024 -0.656507 2.92421 0
M  V30 4221 H 399.585 -0.211235 1.60516 0
M  V30 4222 H 401.577 -3.15712 2.53196 0
M  V30 4223 H 400.147 -2.70194 1.57207 0
M  V30 4224 H 399.367 -1.39547 3.68674 0
M  V30 4225 H 400.655 -2.23071 4.57293 0
M  V30 4226 H 400.053 -4.89528 2.83512 0
M  V30 4227 H 398.61 -5.43791 3.59353 0
M  V30 4228 N 402.043 -1.548 -0.295768 0
M  V30 4229 C 402.99 -1.86113 -1.36494 0
M  V30 4230 C 403.96 -0.7105 -1.50137 0
M  V30 4231 O 405.145 -0.959626 -1.64912 0
M  V30 4232 C 402.285 -2.11861 -2.72413 0
M  V30 4233 C 401.398 -3.39471 -2.67177 0
M  V30 4234 C 400.533 -3.55035 -3.95125 0
M  V30 4235 C 399.572 -4.76418 -3.84308 0
M  V30 4236 N 398.709 -4.8876 -5.04042 0
M  V30 4237 H 403.549 -2.77314 -1.09091 0
M  V30 4238 H 401.086 -1.37315 -0.52753 0
M  V30 4239 H 403.044 -2.24786 -3.51464 0
M  V30 4240 H 401.674 -1.2392 -2.98066 0
M  V30 4241 H 400.726 -3.35139 -1.79962 0
M  V30 4242 H 402.038 -4.28646 -2.55076 0
M  V30 4243 H 401.192 -3.67653 -4.82614 0
M  V30 4244 H 399.931 -2.64002 -4.10066 0
M  V30 4245 H 398.936 -4.63827 -2.95202 0
M  V30 4246 H 400.161 -5.68863 -3.70906 0
M  V30 4247 H 398.107 -4.00652 -5.19436 0
M  V30 4248 H 398.024 -5.71945 -4.94384 0
M  V30 4249 H 399.292 -5.0574 -5.93167 0
M  V30 4250 N 403.521 0.559213 -1.47345 0
M  V30 4251 C 404.932 1.14134 -1.47751 0
M  V30 4252 C 405.283 1.94834 -0.231103 0
M  V30 4253 O 404.408 2.05957 0.664137 0
M  V30 4254 C 405.003 2.07653 -2.67705 0
M  V30 4255 C 403.562 2.61141 -2.71076 0
M  V30 4256 C 402.709 1.3748 -2.40821 0
M  V30 4257 H 405.66 0.345917 -1.54884 0
M  V30 4258 H 405.681 2.91497 -2.44561 0
M  V30 4259 H 405.193 1.4889 -3.58404 0
M  V30 4260 H 403.294 3.23707 -1.84511 0
M  V30 4261 H 403.407 3.02272 -3.7171 0
M  V30 4262 H 401.771 1.68086 -1.91362 0
M  V30 4263 H 402.554 0.805135 -3.33725 0
M  V30 4264 N 404.999 1.35443 0.805782 0
M  V30 4265 C 406.41 1.25768 1.37983 0
M  V30 4266 C 406.761 -0.10958 1.95894 0
M  V30 4267 O 405.886 -1.01056 1.91355 0
M  V30 4268 C 406.481 2.27727 2.5085 0
M  V30 4269 C 405.04 2.2179 3.04115 0
M  V30 4270 C 404.187 2.13393 1.77084 0
M  V30 4271 H 407.138 1.4656 0.608752 0
M  V30 4272 H 407.159 1.90422 3.29424 0
M  V30 4273 H 406.671 3.27227 2.08671 0
M  V30 4274 H 404.772 1.25703 3.50756 0
M  V30 4275 H 404.885 3.13788 3.62042 0
M  V30 4276 H 403.249 1.59384 1.98668 0
M  V30 4277 H 404.032 3.14755 1.37056 0
M  V30 4278 N 406.477 -1.02803 1.19454 0
M  V30 4279 C 407.724 -1.76217 0.997693 0
M  V30 4280 C 408.052 -1.887 -0.47144 0
M  V30 4281 O 407.307 -1.4011 -1.3663 0
M  V30 4282 C 407.606 -3.18941 1.6128 0
M  V30 4283 C 407.272 -3.26463 3.11019 0
M  V30 4284 C 405.934 -3.28223 3.51885 0
M  V30 4285 C 408.286 -3.25542 4.07028 0
M  V30 4286 C 405.614 -3.26719 4.8731 0
M  V30 4287 C 407.966 -3.25579 5.42385 0
M  V30 4288 C 406.63 -3.25637 5.82681 0
M  V30 4289 H 405.9 -0.644823 0.365082 0
M  V30 4290 H 408.547 -1.20655 1.4871 0
M  V30 4291 H 406.852 -3.77587 1.04572 0
M  V30 4292 H 408.549 -3.74415 1.43577 0
M  V30 4293 H 405.139 -3.25822 2.78457 0
M  V30 4294 H 409.323 -3.23362 3.76498 0
M  V30 4295 H 404.579 -3.25089 5.1781 0
M  V30 4296 H 408.753 -3.23817 6.16535 0
M  V30 4297 H 406.38 -3.24226 6.87591 0
M  V30 4298 N 407.956 -0.998596 -1.21925 0
M  V30 4299 C 409.233 -0.593401 -1.86382 0
M  V30 4300 C 409.613 0.92916 -1.89552 0
M  V30 4301 O 408.961 1.81347 -1.39017 0
M  V30 4302 C 409.171 -1.22039 -3.26967 0
M  V30 4303 C 410.519 -1.32449 -4.03413 0
M  V30 4304 O 411.543 -1.17522 -3.36254 0
M  V30 4305 O 410.402 -1.56395 -5.23644 0
M  V30 4306 H 407.496 -0.202385 -0.801854 0
M  V30 4307 H 410.042 -1.09484 -1.29659 0
M  V30 4308 H 408.814 -2.26158 -3.19325 0
M  V30 4309 H 408.437 -0.704906 -3.91301 0
M  V30 4310 N 409.434 1.37368 -0.772513 0
M  V30 4311 C 410.397 2.28601 -0.165541 0
M  V30 4312 C 411.397 1.48062 0.627238 0
M  V30 4313 O 412.587 1.68268 0.450715 0
M  V30 4314 C 409.719 3.32023 0.772897 0
M  V30 4315 H 410.912 2.83787 -0.969787 0
M  V30 4316 H 408.465 1.46647 -0.540775 0
M  V30 4317 H 409.2 2.81962 1.60212 0
M  V30 4318 H 408.985 3.91555 0.206585 0
M  V30 4319 H 410.475 4.00197 1.19298 0
M  V30 4320 N 410.912 0.523116 1.48665 0
M  V30 4321 C 411.859 -0.243398 2.29513 0
M  V30 4322 C 412.829 -0.940139 1.36933 0
M  V30 4323 O 414.014 -0.942503 1.65896 0
M  V30 4324 C 411.154 -1.28855 3.20141 0
M  V30 4325 C 410.267 -0.60135 4.27794 0
M  V30 4326 C 409.402 -1.62884 5.05611 0
M  V30 4327 C 408.441 -0.924726 6.05075 0
M  V30 4328 N 407.578 -1.89744 6.75975 0
M  V30 4329 H 412.418 0.452234 2.94549 0
M  V30 4330 H 409.955 0.234858 1.45213 0
M  V30 4331 H 411.913 -1.90674 3.71079 0
M  V30 4332 H 410.543 -1.95266 2.57043 0
M  V30 4333 H 409.595 0.130623 3.80176 0
M  V30 4334 H 410.907 -0.0481585 4.98777 0
M  V30 4335 H 410.061 -2.32149 5.60528 0
M  V30 4336 H 408.8 -2.21592 4.34452 0
M  V30 4337 H 407.805 -0.217966 5.49368 0
M  V30 4338 H 409.03 -0.343851 6.78229 0
M  V30 4339 H 406.976 -2.47373 6.07571 0
M  V30 4340 H 406.893 -1.3955 7.43009 0
M  V30 4341 H 408.161 -2.58229 7.35485 0
M  V30 4342 N 412.39 -1.55475 0.257931 0
M  V30 4343 C 413.338 -2.23244 -0.653076 0
M  V30 4344 C 414.332 -1.22366 -1.17144 0
M  V30 4345 O 415.538 -1.40347 -1.12706 0
M  V30 4346 H 411.913 -0.716247 -0.229117 0
M  V30 4347 H 413.884 -2.98343 -0.0584788 0
M  V30 4348 C 412.633 -2.95401 -1.83395 0
M  V30 4349 H 411.956 -3.72802 -1.44424 0
M  V30 4350 H 413.396 -3.46165 -2.44838 0
M  V30 4351 C 411.855 -1.99895 -2.71189 0
M  V30 4352 O 412.385 -1.53909 -3.71046 0
M  V30 4353 N 410.591 -1.6676 -2.3799 0
M  V30 4354 H 410.138 -2.04352 -1.56837 0
M  V30 4355 H 410.096 -1.03127 -2.97005 0
M  V30 4356 N 413.868 0.0150385 -1.57593 0
M  V30 4357 C 415.279 0.559832 -1.78109 0
M  V30 4358 C 415.63 1.74814 -0.890756 0
M  V30 4359 O 414.755 2.16216 -0.0892482 0
M  V30 4360 C 415.35 1.02238 -3.23006 0
M  V30 4361 C 413.909 1.51258 -3.44671 0
M  V30 4362 C 413.056 0.456955 -2.73509 0
M  V30 4363 H 416.007 -0.211169 -1.57289 0
M  V30 4364 H 416.028 1.88912 -3.30292 0
M  V30 4365 H 415.54 0.157302 -3.87781 0
M  V30 4366 H 413.641 2.39905 -2.8509 0
M  V30 4367 H 413.754 1.55042 -4.5332 0
M  V30 4368 H 412.118 0.915196 -2.37689 0
M  V30 4369 H 412.901 -0.398896 -3.40975 0
M  V30 4370 N 415.346 1.54954 0.287554 0
M  V30 4371 C 416.593 1.74873 1.02106 0
M  V30 4372 C 416.921 0.541829 1.86801 0
M  V30 4373 O 416.176 -0.475992 1.89823 0
M  V30 4374 C 416.475 2.99833 1.94512 0
M  V30 4375 C 416.141 4.33029 1.25686 0
M  V30 4376 C 414.803 4.69233 1.06649 0
M  V30 4377 C 417.155 5.15542 0.765913 0
M  V30 4378 C 414.483 5.85518 0.372222 0
M  V30 4379 C 416.835 6.32542 0.0853101 0
M  V30 4380 C 415.499 6.67398 -0.1169 0
M  V30 4381 H 414.769 0.639906 0.373632 0
M  V30 4382 H 417.416 1.89219 0.294665 0
M  V30 4383 H 415.721 2.80325 2.73725 0
M  V30 4384 H 417.418 3.1244 2.51361 0
M  V30 4385 H 414.008 4.04564 1.41512 0
M  V30 4386 H 418.192 4.88059 0.90066 0
M  V30 4387 H 413.448 6.11057 0.204695 0
M  V30 4388 H 417.622 6.95741 -0.302936 0
M  V30 4389 H 415.249 7.57357 -0.656859 0
M  V30 4390 N 416.824 -0.551391 1.4764 0
M  V30 4391 C 417.754 -1.66757 1.63445 0
M  V30 4392 C 418.735 -1.63077 0.483742 0
M  V30 4393 O 419.92 -1.80607 0.71377 0
M  V30 4394 C 417.05 -3.05387 1.65396 0
M  V30 4395 C 416.004 -3.23918 2.79752 0
M  V30 4396 C 415.33 -4.63393 2.66779 0
M  V30 4397 C 416.63 -3.08735 4.21284 0
M  V30 4398 H 418.324 -1.53786 2.56886 0
M  V30 4399 H 415.87 -0.738415 1.23626 0
M  V30 4400 H 417.823 -3.83325 1.75043 0
M  V30 4401 H 416.547 -3.19332 0.685195 0
M  V30 4402 H 415.206 -2.48391 2.69625 0
M  V30 4403 H 414.854 -4.74144 1.67918 0
M  V30 4404 H 414.554 -4.7674 3.43501 0
M  V30 4405 H 416.078 -5.43458 2.78364 0
M  V30 4406 H 417.492 -3.76484 4.32357 0
M  V30 4407 H 415.889 -3.33588 4.98838 0
M  V30 4408 H 416.959 -2.0541 4.39243 0
M  V30 4409 N 418.302 -1.35869 -0.798587 0
M  V30 4410 C 419.265 -1.29307 -1.89242 0
M  V30 4411 C 420.265 -0.202747 -1.59517 0
M  V30 4412 O 421.455 -0.456957 -1.681 0
M  V30 4413 C 418.587 -1.00229 -3.25833 0
M  V30 4414 H 419.78 -2.26576 -1.96478 0
M  V30 4415 H 417.333 -1.20509 -0.995358 0
M  V30 4416 H 418.068 -0.033801 -3.24282 0
M  V30 4417 H 417.853 -1.79121 -3.48795 0
M  V30 4418 H 419.343 -0.98219 -4.05885 0
M  V30 4419 N 419.78 1.02168 -1.19998 0
M  V30 4420 C 420.743 2.08765 -0.94604 0
M  V30 4421 C 421.743 1.60618 0.0763846 0
M  V30 4422 O 422.933 1.73472 -0.159135 0
M  V30 4423 C 420.065 3.38262 -0.423255 0
M  V30 4424 H 421.258 2.32726 -1.89153 0
M  V30 4425 H 418.811 1.1889 -1.01464 0
M  V30 4426 H 419.546 3.19974 0.527938 0
M  V30 4427 H 419.331 3.74532 -1.16053 0
M  V30 4428 H 420.821 4.16759 -0.264911 0
M  V30 4429 N 421.258 1.00505 1.21394 0
M  V30 4430 C 422.504 0.688793 1.90745 0
M  V30 4431 C 422.837 -0.778486 1.77914 0
M  V30 4432 O 422.112 -1.56433 1.15581 0
M  V30 4433 C 422.395 1.11063 3.42545 0
M  V30 4434 C 422.248 2.63737 3.64367 0
M  V30 4435 C 423.567 0.673059 4.34923 0
M  V30 4436 H 420.686 0.251702 0.692687 0
M  V30 4437 H 423.328 1.25074 1.43026 0
M  V30 4438 H 421.478 0.632508 3.83317 0
M  V30 4439 H 423.15 3.19313 3.32922 0
M  V30 4440 H 421.393 3.05248 3.08231 0
M  V30 4441 H 422.064 2.88305 4.70727 0
M  V30 4442 H 424.54 1.08392 4.01734 0
M  V30 4443 H 423.416 0.996383 5.39781 0
M  V30 4444 H 423.677 -0.425808 4.40045 0
M  V30 4445 N 422.737 -1.36956 0.779787 0
M  V30 4446 C 423.965 -2.03755 0.359398 0
M  V30 4447 C 424.38 -1.58807 -1.02106 0
M  V30 4448 O 423.737 -0.773024 -1.6532 0
M  V30 4449 C 423.788 -3.59251 0.402568 0
M  V30 4450 O 423.509 -4.02557 1.72858 0
M  V30 4451 C 425.01 -4.43291 -0.0284068 0
M  V30 4452 H 422.23 -0.654148 0.149437 0
M  V30 4453 H 424.774 -1.75128 1.05595 0
M  V30 4454 H 422.929 -3.86621 -0.245478 0
M  V30 4455 H 423.343 -4.97111 1.67275 0
M  V30 4456 H 424.817 -5.51975 0.0529466 0
M  V30 4457 H 425.294 -4.25719 -1.07982 0
M  V30 4458 H 425.9 -4.21163 0.591758 0
M  V30 4459 N 424.215 -0.530993 -1.48385 0
M  V30 4460 C 425.443 -0.00134122 -2.069 0
M  V30 4461 C 425.858 1.2805 -1.3874 0
M  V30 4462 O 425.215 1.76204 -0.475244 0
M  V30 4463 C 425.266 0.225256 -3.60798 0
M  V30 4464 O 424.987 -1.0058 -4.26398 0
M  V30 4465 C 426.488 0.795172 -4.3611 0
M  V30 4466 H 423.708 -0.0339704 -0.67014 0
M  V30 4467 H 426.252 -0.736926 -1.90761 0
M  V30 4468 H 424.407 0.910891 -3.76539 0
M  V30 4469 H 424.821 -0.787165 -5.1856 0
M  V30 4470 H 426.295 0.903143 -5.44562 0
M  V30 4471 H 426.772 1.80031 -4.00606 0
M  V30 4472 H 427.378 0.146069 -4.25049 0
M  V30 4473 N 425.693 1.55336 -0.266172 0
M  V30 4474 C 426.641 2.23587 0.641228 0
M  V30 4475 C 427.635 1.22986 1.16494 0
M  V30 4476 O 428.841 1.40943 1.1196 0
M  V30 4477 H 425.216 0.717452 0.225315 0
M  V30 4478 H 427.187 2.9837 0.0426561 0
M  V30 4479 C 425.936 2.96369 1.81826 0
M  V30 4480 H 425.259 3.73563 1.42445 0
M  V30 4481 H 426.699 3.47459 2.42998 0
M  V30 4482 C 425.158 2.0133 2.70125 0
M  V30 4483 O 425.688 1.55875 3.70224 0
M  V30 4484 N 423.894 1.6802 2.37102 0
M  V30 4485 H 423.441 2.05181 1.55751 0
M  V30 4486 H 423.399 1.047 2.96454 0
M  V30 4487 N 427.171 -0.0066808 1.57599 0
M  V30 4488 C 428.587 -0.36267 1.55425 0
M  V30 4489 C 428.787 -1.75209 0.995187 0
M  V30 4490 O 427.843 -2.44616 0.626058 0
M  V30 4491 C 429.156 -0.244017 2.99708 0
M  V30 4492 C 430.704 -0.319451 3.11366 0
M  V30 4493 C 431.179 -0.229998 4.57422 0
M  V30 4494 N 432.67 -0.288105 4.62303 0
M  V30 4495 C 433.405 -0.242127 5.72889 0
M  V30 4496 N 432.901 -0.147133 6.92644 0
M  V30 4497 N 434.694 -0.293502 5.61333 0
M  V30 4498 H 426.845 0.902314 1.92281 0
M  V30 4499 H 429.108 0.34525 0.882896 0
M  V30 4500 H 428.814 0.711678 3.44424 0
M  V30 4501 H 428.688 -1.02877 3.629 0
M  V30 4502 H 431.075 -1.26559 2.66584 0
M  V30 4503 H 431.156 0.495055 2.50964 0
M  V30 4504 H 430.8 0.712566 5.02877 0
M  V30 4505 H 430.73 -1.0629 5.15761 0
M  V30 4506 H 433.221 -0.363126 3.76151 0
M  V30 4507 H 433.534 -0.117763 7.7271 0
M  V30 4508 H 431.879 -0.112857 6.94908 0
M  V30 4509 H 435.07 -0.365864 4.66668 0
M  V30 4510 H 435.243 -0.254204 6.47501 0
M  V30 4511 N 428.649 -1.55105 -0.279332 0
M  V30 4512 C 429.596 -1.8755 -1.34513 0
M  V30 4513 C 430.566 -0.726384 -1.49375 0
M  V30 4514 O 431.751 -0.977063 -1.63884 0
M  V30 4515 C 428.891 -2.14738 -2.70151 0
M  V30 4516 C 428.004 -3.42285 -2.63562 0
M  V30 4517 C 427.139 -3.59206 -3.91337 0
M  V30 4518 C 426.178 -4.80467 -3.79233 0
M  V30 4519 N 425.315 -4.94079 -4.98829 0
M  V30 4520 H 430.155 -2.78456 -1.06143 0
M  V30 4521 H 427.692 -1.37867 -0.512936 0
M  V30 4522 H 429.65 -2.28501 -3.49061 0
M  V30 4523 H 428.28 -1.27075 -2.96735 0
M  V30 4524 H 427.332 -3.37029 -1.76397 0
M  V30 4525 H 428.644 -4.31328 -2.50515 0
M  V30 4526 H 427.798 -3.72751 -4.78687 0
M  V30 4527 H 426.537 -2.68337 -4.07243 0
M  V30 4528 H 425.542 -4.66932 -2.90266 0
M  V30 4529 H 426.767 -5.72765 -3.64852 0
M  V30 4530 H 424.713 -4.06139 -5.15158 0
M  V30 4531 H 424.63 -5.77156 -4.8829 0
M  V30 4532 H 425.898 -5.12003 -5.8777 0
M  V30 4533 N 430.127 0.543554 -1.4793 0
M  V30 4534 C 431.057 1.65888 -1.64327 0
M  V30 4535 C 432.038 1.62818 -0.492383 0
M  V30 4536 O 433.223 1.80226 -0.723338 0
M  V30 4537 C 430.353 3.04506 -1.67013 0
M  V30 4538 C 429.307 3.2243 -2.81466 0
M  V30 4539 C 428.633 4.61972 -2.69233 0
M  V30 4540 C 429.933 3.06496 -4.22915 0
M  V30 4541 H 431.627 1.52421 -2.57698 0
M  V30 4542 H 429.173 0.731849 -1.24016 0
M  V30 4543 H 431.126 3.82391 -1.77074 0
M  V30 4544 H 429.85 3.18964 -0.70212 0
M  V30 4545 H 428.509 2.46957 -2.70938 0
M  V30 4546 H 428.157 4.73247 -1.7043 0
M  V30 4547 H 427.857 4.74911 -3.46025 0
M  V30 4548 H 429.381 5.41974 -2.81242 0
M  V30 4549 H 430.795 3.74186 -4.34348 0
M  V30 4550 H 429.192 3.30938 -5.006 0
M  V30 4551 H 430.262 2.03077 -4.40327 0
M  V30 4552 N 431.605 1.3629 0.791371 0
M  V30 4553 C 432.553 1.30514 1.92533 0
M  V30 4554 C 433.547 0.197285 1.68247 0
M  V30 4555 O 434.753 0.364176 1.76278 0
M  V30 4556 H 431.128 0.406263 0.632815 0
M  V30 4557 H 433.099 2.26282 1.94523 0
M  V30 4558 C 431.848 1.10933 3.29529 0
M  V30 4559 H 431.171 1.95427 3.48781 0
M  V30 4560 H 432.611 1.10937 4.0923 0
M  V30 4561 C 431.07 -0.186123 3.36385 0
M  V30 4562 O 431.6 -1.17664 3.84081 0
M  V30 4563 N 429.806 -0.230128 2.89687 0
M  V30 4564 H 429.353 0.576545 2.51065 0
M  V30 4565 H 429.311 -1.09658 2.94657 0
M  V30 4566 N 433.083 -1.0153 1.20538 0
M  V30 4567 C 434.015 -2.10224 0.913155 0
M  V30 4568 C 435.028 -1.62495 -0.0995998 0
M  V30 4569 O 436.217 -1.78014 0.131582 0
M  V30 4570 C 433.317 -3.37111 0.347717 0
M  V30 4571 C 432.49 -4.13971 1.41233 0
M  V30 4572 C 431.549 -5.19158 0.857976 0
M  V30 4573 O 430.575 -5.48 1.53897 0
M  V30 4574 N 431.777 -5.7955 -0.331966 0
M  V30 4575 H 434.542 -2.35879 1.84881 0
M  V30 4576 H 432.103 -1.17931 1.10923 0
M  V30 4577 H 434.095 -4.04683 -0.0373026 0
M  V30 4578 H 432.665 -3.08696 -0.492527 0
M  V30 4579 H 431.885 -3.41351 1.97163 0
M  V30 4580 H 433.173 -4.62103 2.12928 0
M  V30 4581 H 432.571 -5.58455 -0.902478 0
M  V30 4582 H 431.128 -6.48464 -0.65861 0
M  V30 4583 N 434.561 -1.01147 -1.20859 0
M  V30 4584 C 435.809 -0.696486 -1.89719 0
M  V30 4585 C 436.13 0.775788 -1.78904 0
M  V30 4586 O 435.4 1.55759 -1.18811 0
M  V30 4587 H 433.98 -0.254628 -0.702263 0
M  V30 4588 H 436.642 -1.28197 -1.46804 0
M  V30 4589 H 435.738 -0.975357 -2.96468 0
M  V30 4590 N 436.039 1.36541 -0.78704 0
M  V30 4591 C 437.267 2.03561 -0.370199 0
M  V30 4592 C 437.682 1.59347 1.01263 0
M  V30 4593 O 437.039 0.781781 1.64907 0
M  V30 4594 C 437.09 3.59033 -0.421614 0
M  V30 4595 O 436.811 4.01634 -1.7499 0
M  V30 4596 C 438.312 4.433 0.00489763 0
M  V30 4597 H 435.532 0.653346 -0.152904 0
M  V30 4598 H 438.076 1.74566 -1.06522 0
M  V30 4599 H 436.231 3.86746 0.224971 0
M  V30 4600 H 436.645 4.96217 -1.69909 0
M  V30 4601 H 438.119 5.51939 -0.0822184 0
M  V30 4602 H 438.596 4.26285 1.05723 0
M  V30 4603 H 439.202 4.20843 -0.614085 0
M  V30 4604 N 437.518 0.538854 1.48102 0
M  V30 4605 C 438.428 -0.222648 2.33541 0
M  V30 4606 C 439.444 -0.930225 1.47047 0
M  V30 4607 O 440.62 -0.903211 1.80011 0
M  V30 4608 C 437.685 -1.25064 3.23357 0
M  V30 4609 C 436.746 -0.552469 4.2573 0
M  V30 4610 C 435.979 -1.53149 5.11254 0
M  V30 4611 O 436.202 -2.76487 4.9891 0
M  V30 4612 O 435.136 -1.06602 5.92385 0
M  V30 4613 H 438.962 0.477707 2.99919 0
M  V30 4614 H 436.547 0.299669 1.46364 0
M  V30 4615 H 438.429 -1.8445 3.78888 0
M  V30 4616 H 437.104 -1.93325 2.59629 0
M  V30 4617 H 436.011 0.082114 3.7401 0
M  V30 4618 H 437.344 0.0883526 4.92121 0
M  V30 4619 N 438.996 -1.55193 0.274407 0
M  V30 4620 C 440.412 -1.59401 -0.0797543 0
M  V30 4621 C 440.612 -1.29162 -1.54659 0
M  V30 4622 O 439.668 -1.05215 -2.29534 0
M  V30 4623 C 440.981 -2.99257 0.294238 0
M  V30 4624 C 442.529 -3.12072 0.240796 0
M  V30 4625 C 443.004 -4.54194 0.589218 0
M  V30 4626 N 444.495 -4.60033 0.540744 0
M  V30 4627 C 445.23 -5.68027 0.783147 0
M  V30 4628 N 444.726 -6.8417 1.09013 0
M  V30 4629 N 446.519 -5.57572 0.711993 0
M  V30 4630 H 438.67 -1.73113 1.23067 0
M  V30 4631 H 440.933 -0.807197 0.497129 0
M  V30 4632 H 440.639 -3.26217 1.31435 0
M  V30 4633 H 440.513 -3.75427 -0.365281 0
M  V30 4634 H 442.9 -2.84877 -0.770024 0
M  V30 4635 H 442.981 -2.38117 0.934563 0
M  V30 4636 H 442.625 -4.82115 1.59772 0
M  V30 4637 H 442.555 -5.26448 -0.126331 0
M  V30 4638 H 445.046 -3.76599 0.313327 0
M  V30 4639 H 445.359 -7.6243 1.26178 0
M  V30 4640 H 443.704 -6.85787 1.12789 0
M  V30 4641 H 446.895 -4.65714 0.472014 0
M  V30 4642 H 447.068 -6.41659 0.90429 0
M  V30 4643 N 440.474 -0.00167713 -1.576 0
M  V30 4644 C 441.424 0.997744 -2.0501 0
M  V30 4645 C 442.408 1.30214 -0.94515 0
M  V30 4646 O 443.6 1.29284 -1.20891 0
M  V30 4647 C 440.729 2.2892 -2.55833 0
M  V30 4648 C 439.815 2.01437 -3.73208 0
M  V30 4649 N 440.206 1.44119 -4.84833 0
M  V30 4650 C 438.504 2.31571 -3.8117 0
M  V30 4651 C 439.205 1.33145 -5.66257 0
M  V30 4652 N 438.181 1.81763 -5.12312 0
M  V30 4653 H 441.983 0.549098 -2.88725 0
M  V30 4654 H 439.497 0.20398 -1.61114 0
M  V30 4655 H 441.494 3.01361 -2.88075 0
M  V30 4656 H 440.154 2.74436 -1.73537 0
M  V30 4657 H 441.165 1.11978 -5.0565 0
M  V30 4658 H 437.842 2.7995 -3.09732 0
M  V30 4659 H 439.232 0.890567 -6.65972 0
M  V30 4660 N 441.952 1.55251 0.271103 0
M  V30 4661 C 442.882 1.9127 1.33933 0
M  V30 4662 C 443.863 0.77478 1.5143 0
M  V30 4663 O 445.048 1.03307 1.64442 0
M  V30 4664 C 442.178 2.18627 2.69851 0
M  V30 4665 C 441.132 3.34442 2.67081 0
M  V30 4666 C 440.458 3.47284 4.06569 0
M  V30 4667 C 441.758 4.70784 2.26185 0
M  V30 4668 H 443.452 2.80744 1.04035 0
M  V30 4669 H 440.998 1.35077 0.499017 0
M  V30 4670 H 442.951 2.42413 3.44694 0
M  V30 4671 H 441.675 1.25955 3.01335 0
M  V30 4672 H 440.334 3.10627 1.94695 0
M  V30 4673 H 439.982 2.52074 4.35279 0
M  V30 4674 H 439.682 4.25152 4.0561 0
M  V30 4675 H 441.206 3.73363 4.83148 0
M  V30 4676 H 442.62 4.94102 2.90751 0
M  V30 4677 H 441.017 5.51582 2.36384 0
M  V30 4678 H 442.087 4.69478 1.21319 0
M  V30 4679 N 443.43 -0.535701 1.48216 0
M  V30 4680 C 444.363 -1.65726 1.56876 0
M  V30 4681 C 445.341 -1.57094 0.419542 0
M  V30 4682 O 446.525 -1.77648 0.630352 0
M  V30 4683 C 443.652 -3.04096 1.49142 0
M  V30 4684 C 442.698 -3.31105 2.68834 0
M  V30 4685 S 443.531 -3.18001 4.30854 0
M  V30 4686 C 444.687 -4.58828 4.25709 0
M  V30 4687 H 444.92 -1.58129 2.51759 0
M  V30 4688 H 442.453 -0.718218 1.36678 0
M  V30 4689 H 444.411 -3.839 1.45366 0
M  V30 4690 H 443.072 -3.09139 0.556067 0
M  V30 4691 H 442.265 -4.32033 2.59545 0
M  V30 4692 H 441.867 -2.58961 2.69843 0
M  V30 4693 H 444.159 -5.5023 3.95289 0
M  V30 4694 H 445.102 -4.73172 5.26796 0
M  V30 4695 H 445.51 -4.37883 3.56257 0
M  V30 4696 N 444.908 -1.36708 -0.784132 0
M  V30 4697 C 445.858 -1.2799 -1.88686 0
M  V30 4698 C 446.842 -0.170282 -1.59996 0
M  V30 4699 O 448.034 -0.403571 -1.72338 0
M  V30 4700 C 445.163 -1.07674 -3.25977 0
M  V30 4701 C 444.249 -2.23127 -3.60659 0
M  V30 4702 N 444.64 -3.48467 -3.66612 0
M  V30 4703 C 442.938 -2.15009 -3.90752 0
M  V30 4704 C 443.639 -4.24525 -3.97685 0
M  V30 4705 N 442.615 -3.53524 -4.12943 0
M  V30 4706 H 446.417 -2.22927 -1.91522 0
M  V30 4707 H 443.931 -1.29503 -0.979933 0
M  V30 4708 H 445.928 -0.995151 -4.04849 0
M  V30 4709 H 444.588 -0.13643 -3.24413 0
M  V30 4710 H 445.599 -3.82534 -3.49125 0
M  V30 4711 H 442.276 -1.28963 -3.97083 0
M  V30 4712 H 443.666 -5.32944 -4.0917 0
M  V30 4713 N 446.386 1.0089 -1.21074 0
M  V30 4714 C 447.316 2.1145 -0.990523 0
M  V30 4715 C 448.297 1.69897 0.0831699 0
M  V30 4716 O 449.482 1.94052 -0.0758853 0
M  V30 4717 C 446.612 3.42914 -0.550177 0
M  V30 4718 C 445.566 3.98244 -1.56799 0
M  V30 4719 C 444.892 5.25568 -0.984013 0
M  V30 4720 C 446.192 4.30752 -2.95381 0
M  V30 4721 H 447.886 2.3013 -1.91521 0
M  V30 4722 H 445.432 1.10592 -0.92225 0
M  V30 4723 H 447.385 4.19653 -0.383305 0
M  V30 4724 H 446.109 3.24014 0.41015 0
M  V30 4725 H 444.768 3.23621 -1.72236 0
M  V30 4726 H 444.416 5.02998 -0.0155216 0
M  V30 4727 H 444.116 5.63551 -1.66384 0
M  V30 4728 H 445.64 6.04955 -0.828378 0
M  V30 4729 H 447.054 4.98349 -2.8341 0
M  V30 4730 H 445.451 4.79869 -3.60341 0
M  V30 4731 H 446.521 3.39192 -3.46521 0
M  V30 4732 N 447.864 1.01787 1.20321 0
M  V30 4733 C 448.774 0.598898 2.26827 0
M  V30 4734 C 449.79 -0.36418 1.70146 0
M  V30 4735 O 450.966 -0.224812 2.00141 0
M  V30 4736 C 448.031 -0.0549769 3.46656 0
M  V30 4737 C 447.092 0.954205 4.18561 0
M  V30 4738 C 446.325 0.331439 5.3267 0
M  V30 4739 O 446.548 -0.86851 5.63749 0
M  V30 4740 O 445.482 1.0488 5.92692 0
M  V30 4741 H 449.308 1.48562 2.64883 0
M  V30 4742 H 446.893 0.787434 1.26964 0
M  V30 4743 H 448.775 -0.420102 4.19301 0
M  V30 4744 H 447.45 -0.915876 3.10473 0
M  V30 4745 H 446.357 1.37072 3.48083 0
M  V30 4746 H 447.69 1.78511 4.58688 0
M  V30 4747 N 449.342 -1.36122 0.79427 0
M  V30 4748 C 450.272 -2.32551 0.210328 0
M  V30 4749 C 451.253 -1.56884 -0.657386 0
M  V30 4750 O 452.438 -1.85014 -0.590207 0
M  V30 4751 C 449.568 -3.41128 -0.651819 0
M  V30 4752 C 448.522 -4.27842 0.116395 0
M  V30 4753 C 447.848 -5.2763 -0.86666 0
M  V30 4754 C 449.148 -5.05647 1.30837 0
M  V30 4755 H 450.842 -2.81636 1.01594 0
M  V30 4756 H 448.388 -1.35407 0.489981 0
M  V30 4757 H 450.341 -4.07581 -1.07031 0
M  V30 4758 H 449.065 -2.90622 -1.49019 0
M  V30 4759 H 447.724 -3.62952 0.515915 0
M  V30 4760 H 447.372 -4.73395 -1.70019 0
M  V30 4761 H 447.072 -5.86514 -0.35705 0
M  V30 4762 H 448.596 -5.96955 -1.28361 0
M  V30 4763 H 450.01 -5.65113 0.965393 0
M  V30 4764 H 448.407 -5.73967 1.75161 0
M  V30 4765 H 449.477 -4.37006 2.10128 0
M  V30 4766 N 450.82 -0.546701 -1.47814 0
M  V30 4767 C 452.097 0.0464413 -1.95545 0
M  V30 4768 C 452.477 1.4962 -1.48919 0
M  V30 4769 O 451.825 2.16752 -0.723232 0
M  V30 4770 C 452.035 -0.0881298 -3.48889 0
M  V30 4771 C 453.383 0.0626059 -4.24554 0
M  V30 4772 O 454.407 -0.0151555 -3.56197 0
M  V30 4773 O 453.266 0.228071 -5.46024 0
M  V30 4774 H 450.36 0.0700004 -0.824032 0
M  V30 4775 H 452.906 -0.612482 -1.58262 0
M  V30 4776 H 451.678 -1.09737 -3.75597 0
M  V30 4777 H 451.301 0.608886 -3.9291 0
M  V30 4778 N 452.299 1.55045 -0.282633 0
M  V30 4779 C 453.548 1.98938 0.332667 0
M  V30 4780 C 453.861 1.17455 1.56409 0
M  V30 4781 O 455.067 1.51527 2.25282 0
M  V30 4782 C 453.523 3.54105 0.643226 0
M  V30 4783 C 453.131 4.44374 -0.568814 0
M  V30 4784 C 454.875 4.06569 1.22074 0
M  V30 4785 C 452.782 5.90943 -0.232426 0
M  V30 4786 H 451.712 0.743043 0.128075 0
M  V30 4787 H 454.363 1.79341 -0.388464 0
M  V30 4788 H 452.745 3.69532 1.42346 0
M  V30 4789 H 453.919 4.40718 -1.34551 0
M  V30 4790 H 452.234 4.02585 -1.06369 0
M  V30 4791 H 454.831 5.13626 1.48635 0
M  V30 4792 H 455.174 3.56057 2.15707 0
M  V30 4793 H 455.707 3.94612 0.502621 0
M  V30 4794 H 452.446 6.45567 -1.13683 0
M  V30 4795 H 451.966 5.9765 0.507357 0
M  V30 4796 H 453.645 6.4677 0.172657 0
M  V30 4797 N 453.777 0.010035 1.57597 0
M  V30 4798 C 455.002 -0.687021 1.95691 0
M  V30 4799 C 455.427 -1.65952 0.885519 0
M  V30 4800 O 454.785 -1.80633 -0.15543 0
M  V30 4801 C 454.833 -1.3864 3.32884 0
M  V30 4802 O 453.937 -2.50115 3.27897 0
M  V30 4803 H 453.278 -0.181989 0.638573 0
M  V30 4804 H 455.808 0.0662122 2.04493 0
M  V30 4805 H 455.818 -1.74754 3.6868 0
M  V30 4806 H 454.493 -0.673411 4.10412 0
M  V30 4807 H 453.07 -2.16253 3.03791 0
M  V30 4808 N 455.255 -1.55392 -0.262866 0
M  V30 4809 C 456.532 -1.67204 -1.01499 0
M  V30 4810 C 456.912 -0.545186 -2.03939 0
M  V30 4811 O 456.26 0.453467 -2.23955 0
M  V30 4812 C 456.47 -3.06847 -1.6627 0
M  V30 4813 C 457.818 -3.64928 -2.17054 0
M  V30 4814 O 458.842 -3.09545 -1.76239 0
M  V30 4815 O 457.701 -4.61984 -2.91947 0
M  V30 4816 H 454.795 -0.679467 -0.471438 0
M  V30 4817 H 457.341 -1.67729 -0.257918 0
M  V30 4818 H 456.113 -3.80309 -0.920915 0
M  V30 4819 H 455.736 -3.10266 -2.48638 0
M  V30 4820 N 456.733 0.527833 -1.48498 0
M  V30 4821 C 457.958 1.313 -1.60546 0
M  V30 4822 C 458.383 1.86199 -0.26672 0
M  V30 4823 O 457.741 1.64513 0.761918 0
M  V30 4824 C 457.789 2.43818 -2.65678 0
M  V30 4825 O 456.893 3.46916 -2.22987 0
M  V30 4826 H 456.234 0.388784 -0.538277 0
M  V30 4827 H 458.764 0.634896 -1.945 0
M  V30 4828 H 458.774 2.89973 -2.87018 0
M  V30 4829 H 457.449 2.03222 -3.62869 0
M  V30 4830 H 456.026 3.06864 -2.11869 0
M  V30 4831 N 458.211 1.37122 0.776871 0
M  V30 4832 C 459.158 1.3247 1.88998 0
M  V30 4833 C 460.128 0.191143 1.64997 0
M  V30 4834 O 461.313 0.379683 1.86984 0
M  V30 4835 C 458.453 1.13241 3.25992 0
M  V30 4836 C 457.566 2.35782 3.61982 0
M  V30 4837 C 456.701 2.09465 4.88158 0
M  V30 4838 C 455.74 3.279 5.16864 0
M  V30 4839 N 454.877 3.01167 6.34226 0
M  V30 4840 H 459.717 2.27642 1.9231 0
M  V30 4841 H 457.254 1.13125 0.94027 0
M  V30 4842 H 459.212 1.00115 4.0501 0
M  V30 4843 H 457.842 0.217186 3.22069 0
M  V30 4844 H 456.894 2.59666 2.77989 0
M  V30 4845 H 458.206 3.24125 3.79137 0
M  V30 4846 H 457.36 1.93341 5.75069 0
M  V30 4847 H 456.099 1.18452 4.73097 0
M  V30 4848 H 455.104 3.44569 4.2843 0
M  V30 4849 H 456.329 4.19757 5.33836 0
M  V30 4850 H 454.275 2.12779 6.20533 0
M  V30 4851 H 454.192 3.83052 6.51772 0
M  V30 4852 H 455.46 2.88649 7.24087 0
M  V30 4853 N 459.689 -1.00246 1.21608 0
M  V30 4854 C 460.938 -1.73476 1.02902 0
M  V30 4855 C 461.251 -1.90643 -0.437561 0
M  V30 4856 O 462.457 -2.61105 -0.74407 0
M  V30 4857 C 460.913 -3.12079 1.79261 0
M  V30 4858 C 460.521 -3.02877 3.30106 0
M  V30 4859 C 462.265 -3.89421 1.68972 0
M  V30 4860 C 460.172 -4.36575 3.98944 0
M  V30 4861 H 459.102 -0.650408 0.381425 0
M  V30 4862 H 461.753 -1.11985 1.45367 0
M  V30 4863 H 460.135 -3.74196 1.2959 0
M  V30 4864 H 461.309 -2.49983 3.87098 0
M  V30 4865 H 459.624 -2.39022 3.40965 0
M  V30 4866 H 462.221 -4.88362 2.17731 0
M  V30 4867 H 462.564 -4.1122 0.648397 0
M  V30 4868 H 463.097 -3.33963 2.16133 0
M  V30 4869 H 459.836 -4.19978 5.03288 0
M  V30 4870 H 459.356 -4.8942 3.4674 0
M  V30 4871 H 461.035 -5.05364 4.04 0
M  V30 4872 N 461.167 -1.02423 -1.1978 0
M  V30 4873 C 462.583 -0.740459 -1.41384 0
M  V30 4874 C 462.783 0.676827 -1.89793 0
M  V30 4875 O 461.839 1.4435 -2.0717 0
M  V30 4876 C 463.152 -1.77264 -2.42895 0
M  V30 4877 C 464.7 -1.79165 -2.56649 0
M  V30 4878 C 465.175 -2.8133 -3.6141 0
M  V30 4879 N 466.666 -2.80118 -3.68901 0
M  V30 4880 C 467.401 -3.55824 -4.49641 0
M  V30 4881 N 466.897 -4.41231 -5.34123 0
M  V30 4882 N 468.69 -3.44387 -4.44246 0
M  V30 4883 H 460.841 -1.9391 -0.866764 0
M  V30 4884 H 463.104 -0.838074 -0.443098 0
M  V30 4885 H 462.81 -2.7884 -2.14339 0
M  V30 4886 H 462.684 -1.59108 -3.42001 0
M  V30 4887 H 465.071 -0.782702 -2.84531 0
M  V30 4888 H 465.152 -2.01396 -1.57713 0
M  V30 4889 H 464.796 -3.82394 -3.34271 0
M  V30 4890 H 464.726 -2.56359 -4.59986 0
M  V30 4891 H 467.217 -2.1817 -3.08562 0
M  V30 4892 H 467.53 -4.95747 -5.92836 0
M  V30 4893 H 465.875 -4.45306 -5.33599 0
M  V30 4894 H 469.066 -2.7708 -3.77285 0
M  V30 4895 H 469.239 -4.0364 -5.06931 0
M  V30 4896 N 462.645 1.35699 -0.801477 0
M  V30 4897 C 463.875 2.02862 -0.3912 0
M  V30 4898 C 464.283 1.60552 1.00099 0
M  V30 4899 O 463.626 0.796215 1.65548 0
M  V30 4900 C 463.688 3.57386 -0.389299 0
M  V30 4901 C 463.352 4.22943 -1.73113 0
M  V30 4902 C 464.349 4.44984 -2.68859 0
M  V30 4903 C 462.034 4.60167 -2.01373 0
M  V30 4904 C 464.028 5.03345 -3.91053 0
M  V30 4905 C 461.715 5.18243 -3.23832 0
M  V30 4906 C 462.713 5.39773 -4.1849 0
M  V30 4907 O 462.401 5.96626 -5.38788 0
M  V30 4908 H 462.133 0.657341 -0.157732 0
M  V30 4909 H 464.687 1.74407 -1.08496 0
M  V30 4910 H 462.917 3.85011 0.361031 0
M  V30 4911 H 464.606 4.059 -0.0020365 0
M  V30 4912 H 465.372 4.1661 -2.48316 0
M  V30 4913 H 461.251 4.42726 -1.28508 0
M  V30 4914 H 464.795 5.20065 -4.64949 0
M  V30 4915 H 460.692 5.46044 -3.44248 0
M  V30 4916 H 461.46 6.15082 -5.40015 0
M  V30 4917 N 464.123 0.554532 1.47522 0
M  V30 4918 C 465.033 -0.197865 2.33764 0
M  V30 4919 C 466.049 -0.914576 1.48025 0
M  V30 4920 O 467.225 -0.884067 1.80959 0
M  V30 4921 C 464.29 -1.21628 3.24665 0
M  V30 4922 C 463.351 -0.507283 4.26292 0
M  V30 4923 C 462.584 -1.47718 5.1285 0
M  V30 4924 O 462.807 -2.7118 5.01814 0
M  V30 4925 O 461.741 -1.00313 5.93482 0
M  V30 4926 H 465.567 0.50949 2.99396 0
M  V30 4927 H 463.152 0.315176 1.46038 0
M  V30 4928 H 465.034 -1.80421 3.80823 0
M  V30 4929 H 463.709 -1.9056 2.61665 0
M  V30 4930 H 462.616 0.121778 3.73902 0
M  V30 4931 H 463.949 0.140544 4.91999 0
M  V30 4932 N 465.601 -1.54893 0.290851 0
M  V30 4933 C 466.826 -2.04804 -0.32712 0
M  V30 4934 C 467.251 -1.16721 -1.47506 0
M  V30 4935 O 466.609 -0.169107 -1.8051 0
M  V30 4936 C 466.657 -3.52268 -0.770689 0
M  V30 4937 O 465.761 -3.67236 -1.87647 0
M  V30 4938 H 465.102 -0.660789 -0.0652227 0
M  V30 4939 H 467.632 -2.00036 0.429739 0
M  V30 4940 H 467.642 -3.9393 -1.06223 0
M  V30 4941 H 466.317 -4.15843 0.069096 0
M  V30 4942 H 464.894 -3.37479 -1.58626 0
M  V30 4943 N 467.08 -0.0183926 -1.57589 0
M  V30 4944 C 468.328 0.661253 -1.90976 0
M  V30 4945 C 468.649 1.73281 -0.894353 0
M  V30 4946 O 467.919 1.9579 0.0656788 0
M  V30 4947 H 466.499 0.247233 -0.704901 0
M  V30 4948 H 469.161 -0.0636639 -1.94796 0
M  V30 4949 H 468.257 1.12083 -2.9128 0
M  V30 4950 N 468.558 1.5553 0.254621 0
M  V30 4951 C 469.835 1.6774 1.00611 0
M  V30 4952 C 470.215 0.555993 2.03647 0
M  V30 4953 O 469.563 -0.441583 2.24193 0
M  V30 4954 C 469.773 3.07725 1.6464 0
M  V30 4955 C 471.121 3.66074 2.15116 0
M  V30 4956 O 472.145 3.10476 1.74595 0
M  V30 4957 O 471.004 4.63526 2.89493 0
M  V30 4958 H 468.098 0.681958 0.467828 0
M  V30 4959 H 470.644 1.67863 0.24902 0
M  V30 4960 H 469.416 3.80792 0.900734 0
M  V30 4961 H 469.039 3.1158 2.46989 0
M  V30 4962 N 470.036 -0.519951 1.48776 0
M  V30 4963 C 470.986 -1.61995 1.60442 0
M  V30 4964 C 471.97 -1.54155 0.460991 0
M  V30 4965 O 473.162 -1.62006 0.712965 0
M  V30 4966 C 470.291 -3.00683 1.65664 0
M  V30 4967 C 469.377 -3.1359 2.8552 0
M  V30 4968 N 469.768 -2.96441 4.09825 0
M  V30 4969 C 468.066 -3.44662 2.83062 0
M  V30 4970 C 468.767 -3.1303 4.90293 0
M  V30 4971 N 467.743 -3.41058 4.23297 0
M  V30 4972 H 471.545 -1.47362 2.54287 0
M  V30 4973 H 469.059 -0.725649 1.45286 0
M  V30 4974 H 471.056 -3.79712 1.72117 0
M  V30 4975 H 469.716 -3.16401 0.729425 0
M  V30 4976 H 470.727 -2.72999 4.40104 0
M  V30 4977 H 467.404 -3.66675 1.9964 0
M  V30 4978 H 468.794 -3.04424 5.98979 0
M  V30 4979 N 471.514 -1.37532 -0.769588 0
M  V30 4980 C 472.76 -1.33057 -1.53048 0
M  V30 4981 C 473.093 0.0841865 -1.94017 0
M  V30 4982 O 472.368 1.04198 -1.64235 0
M  V30 4983 C 472.651 -2.27166 -2.79406 0
M  V30 4984 C 472.504 -3.77429 -2.44677 0
M  V30 4985 C 473.823 -2.19683 -3.81349 0
M  V30 4986 H 470.942 -0.484655 -0.555228 0
M  V30 4987 H 473.584 -1.68251 -0.882702 0
M  V30 4988 H 471.734 -1.97283 -3.34682 0
M  V30 4989 H 473.406 -4.17918 -1.953 0
M  V30 4990 H 471.649 -3.95892 -1.77346 0
M  V30 4991 H 472.32 -4.38716 -3.35011 0
M  V30 4992 H 474.796 -2.46029 -3.35573 0
M  V30 4993 H 473.672 -2.87668 -4.67481 0
M  V30 4994 H 473.933 -1.19045 -4.25771 0
M  V30 4995 N 472.992 0.995999 -1.22138 0
M  V30 4996 C 473.955 2.06711 -0.990109 0
M  V30 4997 C 474.955 1.60744 0.0422978 0
M  V30 4998 O 476.145 1.73095 -0.195895 0
M  V30 4999 C 473.277 3.37288 -0.49491 0
M  V30 5000 H 474.47 2.28661 -1.94047 0
M  V30 5001 H 472.023 1.16711 -1.03963 0
M  V30 5002 H 472.758 3.21022 0.459948 0
M  V30 5003 H 472.543 3.71986 -1.23971 0
M  V30 5004 H 474.033 4.16103 -0.353253 0
M  V30 5005 N 474.47 1.03057 1.19235 0
M  V30 5006 C 475.716 0.729098 1.89241 0
M  V30 5007 C 476.049 -0.740573 1.79525 0
M  V30 5008 O 475.324 -1.53946 1.18874 0
M  V30 5009 C 475.607 1.18304 3.40112 0
M  V30 5010 C 475.46 2.71406 3.5869 0
M  V30 5011 C 476.779 0.765161 4.33397 0
M  V30 5012 H 473.898 0.266338 0.687192 0
M  V30 5013 H 476.54 1.28079 1.40341 0
M  V30 5014 H 474.69 0.713672 3.81889 0
M  V30 5015 H 476.362 3.26303 3.26074 0
M  V30 5016 H 474.605 3.11717 3.01687 0
M  V30 5017 H 475.276 2.98225 4.64506 0
M  V30 5018 H 477.752 1.16889 3.99345 0
M  V30 5019 H 476.628 1.11065 5.37546 0
M  V30 5020 H 476.889 -0.332372 4.40849 0
M  V30 5021 N 475.948 -1.35272 0.808662 0
M  V30 5022 C 477.178 -2.02652 0.401953 0
M  V30 5023 C 477.586 -1.6108 -0.992462 0
M  V30 5024 O 476.929 -0.804984 -1.65123 0
M  V30 5025 C 476.991 -3.57174 0.408246 0
M  V30 5026 C 476.655 -4.22019 1.75353 0
M  V30 5027 C 477.652 -4.43552 2.71215 0
M  V30 5028 C 475.337 -4.59093 2.03811 0
M  V30 5029 C 477.331 -5.01264 3.93717 0
M  V30 5030 C 475.018 -5.16519 3.26576 0
M  V30 5031 C 476.016 -5.37546 4.21347 0
M  V30 5032 O 475.704 -5.93761 5.41944 0
M  V30 5033 H 475.436 -0.656495 0.161216 0
M  V30 5034 H 477.99 -1.73829 1.0942 0
M  V30 5035 H 476.22 -3.85197 -0.340608 0
M  V30 5036 H 477.909 -4.05893 0.0235623 0
M  V30 5037 H 478.675 -4.15288 2.50522 0
M  V30 5038 H 474.554 -4.42039 1.30854 0
M  V30 5039 H 478.098 -5.17592 4.67701 0
M  V30 5040 H 473.995 -5.4421 3.47139 0
M  V30 5041 H 474.763 -6.1221 5.43269 0
M  V30 5042 N 477.426 -0.562348 -1.47226 0
M  V30 5043 C 478.837 -0.130325 -1.86245 0
M  V30 5044 C 479.188 1.30128 -1.46838 0
M  V30 5045 O 478.313 1.97974 -0.873805 0
M  V30 5046 C 478.908 -0.229738 -3.3802 0
M  V30 5047 C 477.467 0.14728 -3.76112 0
M  V30 5048 C 476.614 -0.574971 -2.71274 0
M  V30 5049 H 479.565 -0.771773 -1.3867 0
M  V30 5050 H 479.586 0.550316 -3.76499 0
M  V30 5051 H 479.098 -1.27178 -3.66671 0
M  V30 5052 H 477.199 1.19023 -3.53078 0
M  V30 5053 H 477.312 -0.214858 -4.78618 0
M  V30 5054 H 475.676 -0.0174756 -2.54694 0
M  V30 5055 H 476.459 -1.61827 -3.02766 0
M  V30 5056 N 478.904 1.54736 -0.299062 0
M  V30 5057 C 479.867 2.22127 0.565012 0
M  V30 5058 C 480.867 1.20669 1.06281 0
M  V30 5059 O 482.057 1.45417 0.959145 0
M  V30 5060 C 479.189 2.90611 1.78208 0
M  V30 5061 H 480.382 2.99891 -0.0237448 0
M  V30 5062 H 477.935 1.5622 -0.0498788 0
M  V30 5063 H 478.67 2.16921 2.41072 0
M  V30 5064 H 478.455 3.64984 1.43281 0
M  V30 5065 H 479.945 3.42026 2.396 0
M  V30 5066 N 480.382 0.0267497 1.57577 0
M  V30 5067 C 481.33 -0.973923 2.11229 0
M  V30 5068 C 482.324 -1.33849 1.03831 0
M  V30 5069 O 483.53 -1.321 1.22269 0
M  V30 5070 H 479.905 -0.331844 0.674821 0
M  V30 5071 H 481.876 -0.496092 2.94247 0
M  V30 5072 C 480.625 -2.24798 2.65257 0
M  V30 5073 H 479.948 -1.9762 3.47543 0
M  V30 5074 H 481.388 -2.93031 3.06445 0
M  V30 5075 C 479.847 -2.97611 1.57891 0
M  V30 5076 O 480.377 -3.89629 0.97735 0
M  V30 5077 N 478.583 -2.59905 1.29992 0
M  V30 5078 H 478.13 -1.85154 1.79097 0
M  V30 5079 H 478.088 -3.08932 0.583798 0
M  V30 5080 N 481.861 -1.55662 -0.24637 0
M  V30 5081 C 483.138 -1.68272 -0.997198 0
M  V30 5082 C 483.518 -0.566785 -2.03349 0
M  V30 5083 O 482.866 0.429688 -2.24424 0
M  V30 5084 C 483.076 -3.08594 -1.63006 0
M  V30 5085 C 484.424 -3.6721 -2.13171 0
M  V30 5086 O 485.448 -3.11397 -1.72946 0
M  V30 5087 O 484.307 -4.65054 -2.87031 0
M  V30 5088 H 481.401 -0.684429 -0.464205 0
M  V30 5089 H 483.947 -1.67993 -0.240114 0
M  V30 5090 H 482.719 -3.81264 -0.880527 0
M  V30 5091 H 482.342 -3.12886 -2.45333 0
M  V30 5092 N 483.339 0.512053 -1.4905 0
M  V30 5093 C 484.564 1.2959 -1.6193 0
M  V30 5094 C 484.989 1.85906 -0.286454 0
M  V30 5095 O 484.347 1.65312 0.744426 0
M  V30 5096 C 484.395 2.40987 -2.68249 0
M  V30 5097 O 483.499 3.44531 -2.26654 0
M  V30 5098 H 482.84 0.383053 -0.542371 0
M  V30 5099 H 485.37 0.614231 -1.95162 0
M  V30 5100 H 485.38 2.86913 -2.90078 0
M  V30 5101 H 484.055 1.99361 -3.65004 0
M  V30 5102 H 482.632 3.046 -2.15112 0
M  V30 5103 N 484.817 1.37938 0.762283 0
M  V30 5104 C 485.78 1.34279 1.85747 0
M  V30 5105 C 486.78 0.244969 1.58923 0
M  V30 5106 O 487.97 0.501365 1.66829 0
M  V30 5107 C 485.102 1.08833 3.23061 0
M  V30 5108 H 486.295 2.31705 1.90401 0
M  V30 5109 H 483.848 1.23105 0.963057 0
M  V30 5110 H 484.583 0.119767 3.24079 0
M  V30 5111 H 484.368 1.88306 3.43923 0
M  V30 5112 H 485.858 1.08946 4.03138 0
M  V30 5113 N 486.295 -0.989507 1.22664 0
M  V30 5114 C 487.225 -2.09847 1.02404 0
M  V30 5115 C 488.206 -1.70007 -0.0561303 0
M  V30 5116 O 489.391 -1.93906 0.106748 0
M  V30 5117 C 486.521 -3.41996 0.604663 0
M  V30 5118 C 485.475 -3.95699 1.63115 0
M  V30 5119 C 484.801 -5.23936 1.0675 0
M  V30 5120 C 486.101 -4.25999 3.02196 0
M  V30 5121 H 487.795 -2.27054 1.95158 0
M  V30 5122 H 485.341 -1.09111 0.939727 0
M  V30 5123 H 487.294 -4.1899 0.45002 0
M  V30 5124 H 486.018 -3.24626 -0.35855 0
M  V30 5125 H 484.677 -3.2084 1.77362 0
M  V30 5126 H 484.325 -5.02909 0.0955422 0
M  V30 5127 H 484.025 -5.60833 1.75328 0
M  V30 5128 H 485.549 -6.0356 0.924516 0
M  V30 5129 H 486.963 -4.93777 2.91303 0
M  V30 5130 H 485.36 -4.74076 3.67929 0
M  V30 5131 H 486.43 -3.33636 3.51873 0
M  V30 5132 N 487.773 -1.03688 -1.18687 0
M  V30 5133 C 489.019 -0.739123 -1.88851 0
M  V30 5134 C 489.352 0.731042 -1.79915 0
M  V30 5135 O 488.627 1.53313 -1.19688 0
M  V30 5136 C 488.91 -1.20106 -3.3948 0
M  V30 5137 C 488.763 -2.73304 -3.57246 0
M  V30 5138 C 490.082 -0.788134 -4.32986 0
M  V30 5139 H 487.201 -0.269978 -0.68577 0
M  V30 5140 H 489.843 -1.28822 -1.3966 0
M  V30 5141 H 487.993 -0.733915 -3.81505 0
M  V30 5142 H 489.665 -3.28027 -3.24339 0
M  V30 5143 H 487.908 -3.13313 -3.00029 0
M  V30 5144 H 488.579 -3.00684 -4.62918 0
M  V30 5145 H 491.055 -1.19005 -3.98719 0
M  V30 5146 H 489.931 -1.13915 -5.36949 0
M  V30 5147 H 490.192 0.308988 -4.41019 0
M  V30 5148 N 489.251 1.34841 -0.815825 0
M  V30 5149 C 490.199 2.31549 -0.220888 0
M  V30 5150 C 491.193 1.5707 0.634457 0
M  V30 5151 O 492.399 1.72125 0.526589 0
M  V30 5152 H 488.774 0.750153 -0.0526782 0
M  V30 5153 H 490.745 2.7926 -1.05149 0
M  V30 5154 C 489.494 3.42335 0.608427 0
M  V30 5155 H 488.817 3.9978 -0.0404121 0
M  V30 5156 H 490.257 4.12258 0.990931 0
M  V30 5157 C 488.716 2.86173 1.77782 0
M  V30 5158 O 489.246 2.80474 2.87571 0
M  V30 5159 N 487.452 2.43093 1.59229 0
M  V30 5160 H 486.999 2.47928 0.699237 0
M  V30 5161 H 486.957 2.05866 2.37627 0
M  V30 5162 N 490.729 0.570148 1.46925 0
M  V30 5163 C 491.661 -0.207909 2.28255 0
M  V30 5164 C 492.674 -0.867301 1.37774 0
M  V30 5165 O 493.863 -0.738976 1.62485 0
M  V30 5166 C 490.963 -1.31298 3.12433 0
M  V30 5167 C 490.136 -0.747915 4.30958 0
M  V30 5168 C 489.195 -1.7391 4.9663 0
M  V30 5169 O 488.221 -1.2801 5.54619 0
M  V30 5170 N 489.423 -3.07288 4.92498 0
M  V30 5171 H 492.188 0.489794 2.95671 0
M  V30 5172 H 489.749 0.407076 1.56699 0
M  V30 5173 H 491.741 -1.97507 3.53232 0
M  V30 5174 H 490.311 -1.91373 2.47175 0
M  V30 5175 H 489.531 0.0913066 3.94094 0
M  V30 5176 H 490.819 -0.349958 5.07595 0
M  V30 5177 H 490.217 -3.47213 4.46609 0
M  V30 5178 H 488.774 -3.69021 5.37277 0
M  V30 5179 N 492.207 -1.54576 0.307264 0
M  V30 5180 C 493.137 -2.26708 -0.55907 0
M  V30 5181 C 494.118 -1.26893 -1.1328 0
M  V30 5182 O 495.303 -1.55677 -1.16097 0
M  V30 5183 C 492.433 -3.01259 -1.72801 0
M  V30 5184 C 491.387 -4.08275 -1.28435 0
M  V30 5185 C 490.713 -4.70575 -2.53895 0
M  V30 5186 C 492.013 -5.2068 -0.411038 0
M  V30 5187 H 493.707 -2.9937 0.042576 0
M  V30 5188 H 491.253 -1.43983 0.0219173 0
M  V30 5189 H 493.206 -3.50444 -2.34023 0
M  V30 5190 H 491.93 -2.26187 -2.356 0
M  V30 5191 H 490.589 -3.59949 -0.695161 0
M  V30 5192 H 490.237 -3.92136 -3.15021 0
M  V30 5193 H 489.937 -5.42854 -2.24908 0
M  V30 5194 H 491.461 -5.22527 -3.15908 0
M  V30 5195 H 492.875 -5.65721 -0.929097 0
M  V30 5196 H 491.272 -5.99716 -0.214664 0
M  V30 5197 H 492.342 -4.81629 0.562287 0
M  V30 5198 N 493.685 -0.035106 -1.57561 0
M  V30 5199 C 494.933 0.64096 -1.91667 0
M  V30 5200 C 495.254 1.72323 -0.912681 0
M  V30 5201 O 494.524 1.95849 0.0449089 0
M  V30 5202 H 493.104 0.239743 -0.707483 0
M  V30 5203 H 495.766 -0.084321 -1.94718 0
M  V30 5204 H 494.862 1.08987 -2.92452 0
M  V30 5205 N 495.163 1.55791 0.238111 0
M  V30 5206 C 496.11 1.9105 1.29493 0
M  V30 5207 C 497.08 0.765733 1.47397 0
M  V30 5208 O 498.265 1.02017 1.61236 0
M  V30 5209 C 495.405 2.21826 2.64362 0
M  V30 5210 C 494.518 3.49153 2.54394 0
M  V30 5211 C 493.653 3.69455 3.81676 0
M  V30 5212 C 492.692 4.90353 3.66361 0
M  V30 5213 N 491.829 5.07131 4.85554 0
M  V30 5214 H 496.669 2.81172 0.987233 0
M  V30 5215 H 494.206 1.39179 0.476203 0
M  V30 5216 H 496.164 2.37675 3.4288 0
M  V30 5217 H 494.794 1.34897 2.93262 0
M  V30 5218 H 493.846 3.41587 1.67399 0
M  V30 5219 H 495.158 4.37818 2.38991 0
M  V30 5220 H 494.312 3.85311 4.68636 0
M  V30 5221 H 493.051 2.7904 3.99985 0
M  V30 5222 H 492.056 4.74464 2.77784 0
M  V30 5223 H 493.281 5.82237 3.49538 0
M  V30 5224 H 491.227 4.19654 5.04209 0
M  V30 5225 H 491.144 5.89899 4.72816 0
M  V30 5226 H 492.412 5.27407 5.73988 0
M  V30 5227 N 496.642 -0.504142 1.49319 0
M  V30 5228 C 497.891 -1.25507 1.57895 0
M  V30 5229 C 498.204 -1.93735 0.269433 0
M  V30 5230 O 499.41 -2.70492 0.233706 0
M  V30 5231 C 497.866 -2.27869 2.78574 0
M  V30 5232 C 497.474 -1.65594 4.16272 0
M  V30 5233 C 499.218 -3.0381 2.96479 0
M  V30 5234 C 497.125 -2.66048 5.28178 0
M  V30 5235 H 496.055 -0.47212 0.587894 0
M  V30 5236 H 498.706 -0.52931 1.757 0
M  V30 5237 H 497.088 -3.03594 2.54257 0
M  V30 5238 H 498.262 -0.958826 4.50714 0
M  V30 5239 H 496.577 -1.02055 4.037 0
M  V30 5240 H 499.174 -3.78925 3.77253 0
M  V30 5241 H 499.517 -3.61235 2.06918 0
M  V30 5242 H 500.05 -2.352 3.20821 0
M  V30 5243 H 496.789 -2.13408 6.19788 0
M  V30 5244 H 496.309 -3.34009 4.98195 0
M  V30 5245 H 497.988 -3.28536 5.57381 0
M  V30 5246 N 498.12 -1.38341 -0.754957 0
M  V30 5247 C 499.05 -1.38176 -1.88227 0
M  V30 5248 C 500.031 -0.247873 -1.68284 0
M  V30 5249 O 501.216 -0.45075 -1.88896 0
M  V30 5250 C 498.346 -1.20471 -3.25736 0
M  V30 5251 C 497.3 -2.3105 -3.60278 0
M  V30 5252 C 496.626 -1.98452 -4.96509 0
M  V30 5253 C 497.926 -3.73305 -3.65295 0
M  V30 5254 H 499.62 -2.32512 -1.88622 0
M  V30 5255 H 497.166 -1.1192 -0.906082 0
M  V30 5256 H 499.119 -1.18982 -4.04254 0
M  V30 5257 H 497.843 -0.225965 -3.25817 0
M  V30 5258 H 496.502 -2.31723 -2.84078 0
M  V30 5259 H 496.15 -0.990641 -4.93148 0
M  V30 5260 H 495.85 -2.7251 -5.20588 0
M  V30 5261 H 497.374 -1.98578 -5.77407 0
M  V30 5262 H 498.788 -3.7467 -4.3393 0
M  V30 5263 H 497.185 -4.46557 -4.00883 0
M  V30 5264 H 498.255 -4.05719 -2.65556 0
M  V30 5265 N 499.598 0.982988 -1.23187 0
M  V30 5266 C 500.846 1.72052 -1.06031 0
M  V30 5267 C 501.167 1.90769 0.404019 0
M  V30 5268 O 500.437 1.47446 1.28982 0
M  V30 5269 H 499.017 0.637499 -0.389363 0
M  V30 5270 H 501.679 1.18338 -1.54862 0
M  V30 5271 H 500.775 2.7111 -1.54615 0
M  V30 5272 N 501.076 1.04316 1.18135 0
M  V30 5273 C 502.039 0.640794 2.2006 0
M  V30 5274 C 503.039 -0.303124 1.57917 0
M  V30 5275 O 504.229 -0.0881855 1.73977 0
M  V30 5276 C 501.361 -0.060148 3.40847 0
M  V30 5277 H 502.554 1.54281 2.57172 0
M  V30 5278 H 500.107 0.836004 1.32063 0
M  V30 5279 H 500.842 -0.975845 3.0927 0
M  V30 5280 H 500.627 0.618319 3.87194 0
M  V30 5281 H 502.117 -0.328082 4.16309 0
M  V30 5282 N 502.554 -1.34406 0.822964 0
M  V30 5283 C 503.831 -1.92733 0.333641 0
M  V30 5284 C 504.211 -1.75107 -1.17901 0
M  V30 5285 O 503.559 -1.12983 -1.98613 0
M  V30 5286 C 503.769 -3.40557 0.763023 0
M  V30 5287 C 505.117 -4.17709 0.761879 0
M  V30 5288 O 506.141 -3.49141 0.705606 0
M  V30 5289 O 505 -5.40082 0.835109 0
M  V30 5290 H 502.094 -0.821964 0.0911249 0
M  V30 5291 H 504.64 -1.4338 0.907757 0
M  V30 5292 H 503.412 -3.47187 1.8049 0
M  V30 5293 H 503.035 -3.97259 0.164605 0
M  V30 5294 N 504.032 -0.577932 -1.46621 0
M  V30 5295 C 504.962 0.145917 -2.33044 0
M  V30 5296 C 505.943 0.888412 -1.45056 0
M  V30 5297 O 507.128 0.864812 -1.73881 0
M  V30 5298 C 504.258 1.16322 -3.27241 0
M  V30 5299 C 503.212 0.535868 -4.24632 0
M  V30 5300 C 502.538 1.65929 -5.08303 0
M  V30 5301 C 503.838 -0.523861 -5.19666 0
M  V30 5302 H 505.532 -0.575636 -2.93814 0
M  V30 5303 H 503.078 -0.278272 -1.41286 0
M  V30 5304 H 505.031 1.67793 -3.86553 0
M  V30 5305 H 503.755 1.91498 -2.64567 0
M  V30 5306 H 502.414 0.0422759 -3.66576 0
M  V30 5307 H 502.062 2.40061 -4.42018 0
M  V30 5308 H 501.762 1.2452 -5.74255 0
M  V30 5309 H 503.286 2.17686 -5.70478 0
M  V30 5310 H 504.7 -0.0944059 -5.73222 0
M  V30 5311 H 503.097 -0.858 -5.93935 0
M  V30 5312 H 504.167 -1.41197 -4.63887 0
M  V30 5313 N 505.51 1.54411 -0.315457 0
M  V30 5314 C 506.787 1.92562 0.343398 0
M  V30 5315 C 507.167 1.24423 1.70535 0
M  V30 5316 O 506.515 0.385051 2.25232 0
M  V30 5317 C 506.725 3.46168 0.443687 0
M  V30 5318 C 508.073 4.18659 0.707783 0
M  V30 5319 O 509.097 3.52281 0.52693 0
M  V30 5320 O 507.956 5.36198 1.05612 0
M  V30 5321 H 505.05 0.80379 0.194552 0
M  V30 5322 H 507.596 1.65738 -0.364577 0
M  V30 5323 H 506.368 3.8792 -0.513172 0
M  V30 5324 H 505.991 3.79073 1.19956 0
M  V30 5325 N 506.988 0.0434614 1.5754 0
M  V30 5326 C 508.234 -0.632971 1.92669 0
M  V30 5327 C 508.567 -1.70947 0.921446 0
M  V30 5328 O 507.842 -1.94426 -0.0537202 0
M  V30 5329 C 508.125 -1.23619 3.38216 0
M  V30 5330 C 507.978 -0.168274 4.49485 0
M  V30 5331 C 509.297 -2.15008 3.84005 0
M  V30 5332 H 506.416 -0.228629 0.700641 0
M  V30 5333 H 509.058 0.103651 1.89717 0
M  V30 5334 H 507.208 -1.864 3.40863 0
M  V30 5335 H 508.88 0.463196 4.58969 0
M  V30 5336 H 507.123 0.504581 4.30855 0
M  V30 5337 H 507.794 -0.630218 5.48391 0
M  V30 5338 H 510.27 -1.62198 3.83185 0
M  V30 5339 H 509.146 -2.54161 4.86511 0
M  V30 5340 H 509.407 -3.04707 3.20322 0
M  V30 5341 N 508.466 -1.55915 -0.229846 0
M  V30 5342 C 509.712 -1.78807 -0.956868 0
M  V30 5343 C 510.045 -0.611687 -1.84315 0
M  V30 5344 O 509.32 0.389398 -1.90562 0
M  V30 5345 C 509.603 -3.11718 -1.80288 0
M  V30 5346 C 509.456 -4.3979 -0.943649 0
M  V30 5347 C 510.775 -3.40999 -2.78222 0
M  V30 5348 H 507.894 -0.6505 -0.346437 0
M  V30 5349 H 510.536 -1.88648 -0.226252 0
M  V30 5350 H 508.686 -3.03459 -2.42579 0
M  V30 5351 H 510.358 -4.60059 -0.338121 0
M  V30 5352 H 508.601 -4.33086 -0.248705 0
M  V30 5353 H 509.272 -5.29208 -1.5698 0
M  V30 5354 H 511.748 -3.49332 -2.26067 0
M  V30 5355 H 510.624 -4.35183 -3.34526 0
M  V30 5356 H 510.885 -2.62754 -3.55546 0
M  V30 5357 N 509.944 0.496216 -1.49584 0
M  V30 5358 C 510.877 1.61508 -1.61215 0
M  V30 5359 C 511.855 1.55927 -0.461045 0
M  V30 5360 O 513.039 1.75914 -0.677231 0
M  V30 5361 C 510.166 3.00035 -1.57152 0
M  V30 5362 C 509.212 3.23861 -2.77518 0
M  V30 5363 S 510.045 3.06466 -4.39134 0
M  V30 5364 C 511.201 4.4738 -4.37724 0
M  V30 5365 H 511.434 1.51398 -2.55863 0
M  V30 5366 H 508.967 0.681727 -1.38535 0
M  V30 5367 H 510.925 3.7991 -1.55494 0
M  V30 5368 H 509.586 3.07556 -0.637834 0
M  V30 5369 H 508.779 4.25 -2.70908 0
M  V30 5370 H 508.381 2.51716 -2.76614 0
M  V30 5371 H 510.673 5.39556 -4.09738 0
M  V30 5372 H 511.616 4.59038 -5.39156 0
M  V30 5373 H 512.024 4.28283 -3.67742 0
M  V30 5374 N 511.423 1.38739 0.74761 0
M  V30 5375 C 512.648 1.38702 1.54197 0
M  V30 5376 C 513.073 -0.019664 1.8809 0
M  V30 5377 O 512.431 -1.00333 1.51006 0
M  V30 5378 C 512.479 2.25492 2.814 0
M  V30 5379 O 511.583 1.67613 3.76802 0
M  V30 5380 H 510.924 0.472863 0.466151 0
M  V30 5381 H 513.454 1.82577 0.923413 0
M  V30 5382 H 513.464 2.39561 3.30264 0
M  V30 5383 H 512.139 3.27727 2.56062 0
M  V30 5384 H 510.716 1.62718 3.35526 0
M  V30 5385 N 512.901 -0.976442 1.23707 0
M  V30 5386 C 513.831 -2.08749 1.04624 0
M  V30 5387 C 514.812 -1.70057 -0.0380956 0
M  V30 5388 O 515.997 -1.93782 0.127308 0
M  V30 5389 C 513.127 -3.41335 0.640902 0
M  V30 5390 C 512.081 -3.93947 1.67302 0
M  V30 5391 C 511.407 -5.22774 1.12301 0
M  V30 5392 C 512.707 -4.22769 3.06697 0
M  V30 5393 H 514.401 -2.24972 1.97555 0
M  V30 5394 H 511.947 -1.08108 0.951247 0
M  V30 5395 H 513.9 -4.18489 0.494434 0
M  V30 5396 H 512.624 -3.24988 -0.324099 0
M  V30 5397 H 511.283 -3.18941 1.80755 0
M  V30 5398 H 510.931 -5.0278 0.148877 0
M  V30 5399 H 510.631 -5.58942 1.81267 0
M  V30 5400 H 512.155 -6.02546 0.988479 0
M  V30 5401 H 513.569 -4.90659 2.96524 0
M  V30 5402 H 511.966 -4.70147 3.72937 0
M  V30 5403 H 513.036 -3.29885 3.55392 0
M  V30 5404 N 514.379 -1.04941 -1.1758 0
M  V30 5405 C 515.327 -0.64204 -2.23563 0
M  V30 5406 C 516.321 0.335453 -1.66045 0
M  V30 5407 O 517.527 0.20179 -1.78865 0
M  V30 5408 H 513.902 -0.18944 -0.727748 0
M  V30 5409 H 515.873 -1.54609 -2.55223 0
M  V30 5410 C 514.622 -0.0301051 -3.47687 0
M  V30 5411 H 513.945 -0.773339 -3.92249 0
M  V30 5412 H 515.385 0.217592 -4.23441 0
M  V30 5413 C 513.844 1.2225 -3.13937 0
M  V30 5414 O 514.374 2.3122 -3.28482 0
M  V30 5415 N 512.58 1.11917 -2.68185 0
M  V30 5416 H 512.127 0.232403 -2.5655 0
M  V30 5417 H 512.085 1.95814 -2.45976 0
M  V30 5418 N 515.857 1.33968 -0.830081 0
M  V30 5419 C 516.805 2.31301 -0.245435 0
M  V30 5420 C 517.799 1.57734 0.617762 0
M  V30 5421 O 519.005 1.72674 0.508303 0
M  V30 5422 H 515.38 0.749552 -0.0606316 0
M  V30 5423 H 517.351 2.78129 -1.08105 0
M  V30 5424 C 516.1 3.42961 0.572084 0
M  V30 5425 H 515.423 3.99714 -0.0828118 0
M  V30 5426 H 516.863 4.13286 0.94715 0
M  V30 5427 C 515.322 2.88043 1.74737 0
M  V30 5428 O 515.852 2.83508 2.8458 0
M  V30 5429 N 514.058 2.44768 1.56642 0
M  V30 5430 H 513.605 2.48656 0.672901 0
M  V30 5431 H 513.563 2.08375 2.3543 0
M  V30 5432 N 517.335 0.585699 1.46312 0
M  V30 5433 C 518.265 -0.133556 2.33118 0
M  V30 5434 C 519.246 -0.880707 1.45525 0
M  V30 5435 O 520.431 -0.855579 1.74337 0
M  V30 5436 C 517.561 -1.14585 3.27853 0
M  V30 5437 C 516.515 -0.513341 4.2491 0
M  V30 5438 C 515.841 -1.63231 5.09175 0
M  V30 5439 C 517.141 0.551413 5.19381 0
M  V30 5440 H 518.835 0.59121 2.93505 0
M  V30 5441 H 516.381 0.285761 1.41136 0
M  V30 5442 H 518.334 -1.65741 3.87438 0
M  V30 5443 H 517.058 -1.90093 2.65579 0
M  V30 5444 H 515.717 -0.0228349 3.66593 0
M  V30 5445 H 515.365 -2.37713 4.43285 0
M  V30 5446 H 515.065 -1.21473 5.74907 0
M  V30 5447 H 516.589 -2.14658 5.71624 0
M  V30 5448 H 518.003 0.124804 5.73164 0
M  V30 5449 H 516.4 0.889486 5.93471 0
M  V30 5450 H 517.47 1.43655 4.63132 0
M  V30 5451 N 518.813 -1.54241 0.323641 0
M  V30 5452 C 520.09 -1.92741 -0.333181 0
M  V30 5453 C 520.47 -1.25326 -1.69872 0
M  V30 5454 O 519.818 -0.396991 -2.25025 0
M  V30 5455 C 520.028 -3.46399 -0.425322 0
M  V30 5456 C 521.376 -4.19029 -0.68557 0
M  V30 5457 O 522.4 -3.52555 -0.50824 0
M  V30 5458 O 521.259 -5.36751 -1.02767 0
M  V30 5459 H 518.353 -0.804811 -0.190286 0
M  V30 5460 H 520.899 -1.65542 0.373361 0
M  V30 5461 H 519.671 -3.87643 0.533737 0
M  V30 5462 H 519.294 -3.79704 -1.17944 0
M  V30 5463 N 520.291 -0.0518155 -1.57515 0
M  V30 5464 C 521.201 0.937539 -2.15052 0
M  V30 5465 C 522.217 1.34121 -1.10849 0
M  V30 5466 O 523.393 1.418 -1.4302 0
M  V30 5467 C 520.458 2.19379 -2.68466 0
M  V30 5468 C 519.519 1.84841 -3.87469 0
M  V30 5469 C 518.752 3.04477 -4.38326 0
M  V30 5470 O 518.975 4.17868 -3.88256 0
M  V30 5471 O 517.909 2.85453 -5.29906 0
M  V30 5472 H 521.735 0.478201 -2.99912 0
M  V30 5473 H 519.32 0.17012 -1.48428 0
M  V30 5474 H 521.202 2.93084 -3.02787 0
M  V30 5475 H 519.877 2.64449 -1.86677 0
M  V30 5476 H 518.784 1.08449 -3.58036 0
M  V30 5477 H 520.117 1.44569 -4.7049 0
M  V30 5478 N 521.769 1.56035 0.221574 0
M  V30 5479 C 522.679 1.95581 1.29558 0
M  V30 5480 C 523.695 0.859639 1.51282 0
M  V30 5481 O 524.871 1.16321 1.64413 0
M  V30 5482 C 521.936 2.26447 2.62531 0
M  V30 5483 C 520.997 3.49632 2.4911 0
M  V30 5484 C 520.23 3.79017 3.75742 0
M  V30 5485 O 520.453 3.10077 4.78757 0
M  V30 5486 O 519.387 4.72507 3.72855 0
M  V30 5487 H 523.213 2.8711 0.990035 0
M  V30 5488 H 520.798 1.43244 0.424434 0
M  V30 5489 H 522.68 2.47494 3.41064 0
M  V30 5490 H 521.355 1.38092 2.92766 0
M  V30 5491 H 520.262 3.33864 1.68777 0
M  V30 5492 H 521.595 4.3837 2.23814 0
M  V30 5493 N 523.247 -0.488276 1.49845 0
M  V30 5494 C 524.472 -1.26997 1.63971 0
M  V30 5495 C 524.897 -1.85427 0.315994 0
M  V30 5496 O 524.255 -1.66475 -0.718032 0
M  V30 5497 C 524.303 -2.36689 2.72049 0
M  V30 5498 O 523.407 -3.40882 2.32107 0
M  V30 5499 H 522.748 -0.374376 0.548396 0
M  V30 5500 H 525.278 -0.583104 1.96115 0
M  V30 5501 H 525.288 -2.82262 2.94605 0
M  V30 5502 H 523.963 -1.93529 3.68129 0
M  V30 5503 H 522.54 -3.01139 2.19931 0
M  V30 5504 N 524.725 -1.39134 -0.740242 0
M  V30 5505 C 525.673 -1.3757 -1.87556 0
M  V30 5506 C 526.667 -0.259593 -1.67399 0
M  V30 5507 O 527.873 -0.429349 -1.74804 0
M  V30 5508 H 524.248 -0.42947 -0.6173 0
M  V30 5509 H 526.219 -2.33345 -1.85991 0
M  V30 5510 C 524.968 -1.23087 -3.25184 0
M  V30 5511 H 524.291 -2.08237 -3.41288 0
M  V30 5512 H 525.731 -1.26049 -4.0483 0
M  V30 5513 C 524.19 0.0611471 -3.36845 0
M  V30 5514 O 524.72 1.03328 -3.88183 0
M  V30 5515 N 522.926 0.122454 -2.90342 0
M  V30 5516 H 522.473 -0.669329 -2.48752 0
M  V30 5517 H 522.431 0.986463 -2.98523 0
M  V30 5518 N 526.204 0.969867 -1.24223 0
M  V30 5519 C 527.151 2.06407 -1.0327 0
M  V30 5520 C 528.121 1.66014 0.0533 0
M  V30 5521 O 529.306 1.90533 -0.100896 0
M  V30 5522 C 526.446 3.3909 -0.641262 0
M  V30 5523 C 525.559 3.9269 -1.80051 0
M  V30 5524 C 524.694 5.13631 -1.35486 0
M  V30 5525 C 523.733 5.59423 -2.48419 0
M  V30 5526 N 522.87 6.71586 -2.04737 0
M  V30 5527 H 527.71 2.23663 -1.96923 0
M  V30 5528 H 525.247 1.09624 -0.980862 0
M  V30 5529 H 527.205 4.15323 -0.395351 0
M  V30 5530 H 525.835 3.21765 0.258269 0
M  V30 5531 H 524.887 3.13116 -2.16014 0
M  V30 5532 H 526.199 4.22636 -2.64916 0
M  V30 5533 H 525.353 5.97231 -1.0677 0
M  V30 5534 H 524.092 4.85364 -0.476722 0
M  V30 5535 H 523.097 4.74398 -2.77897 0
M  V30 5536 H 524.322 5.89705 -3.36786 0
M  V30 5537 H 522.268 6.45058 -1.19318 0
M  V30 5538 H 522.185 7.0097 -2.83156 0
M  V30 5539 H 523.453 7.58633 -1.79154 0
M  V30 5540 N 527.682 1.05563 1.17022 0
M  V30 5541 C 528.629 0.659893 2.21165 0
M  V30 5542 C 529.599 -0.339813 1.62587 0
M  V30 5543 O 530.784 -0.230378 1.89404 0
M  V30 5544 C 527.924 0.0447297 3.45071 0
M  V30 5545 C 527.037 1.09372 4.17926 0
M  V30 5546 C 526.172 0.445481 5.29329 0
M  V30 5547 C 525.211 1.47852 5.93975 0
M  V30 5548 N 524.348 0.854172 6.96885 0
M  V30 5549 H 529.188 1.55243 2.54369 0
M  V30 5550 H 526.725 0.776336 1.24946 0
M  V30 5551 H 528.683 -0.329404 4.15898 0
M  V30 5552 H 527.313 -0.811244 3.1244 0
M  V30 5553 H 526.365 1.58564 3.45777 0
M  V30 5554 H 527.677 1.87773 4.62107 0
M  V30 5555 H 526.831 0.0179688 6.06697 0
M  V30 5556 H 525.57 -0.370481 4.86291 0
M  V30 5557 H 524.575 1.91601 5.15334 0
M  V30 5558 H 525.8 2.29645 6.39093 0
M  V30 5559 H 523.746 0.0587882 6.55974 0
M  V30 5560 H 523.663 1.57567 7.39397 0
M  V30 5561 H 524.931 0.451559 7.78191 0
M  V30 5562 N 529.16 -1.33526 0.837174 0
M  V30 5563 C 530.11 -2.2672 0.241269 0
M  V30 5564 C 531.094 -1.49183 -0.602756 0
M  V30 5565 O 532.286 -1.71052 -0.455002 0
M  V30 5566 C 529.415 -3.38294 -0.584125 0
M  V30 5567 C 528.501 -4.23231 0.271315 0
M  V30 5568 N 528.892 -4.87473 1.34922 0
M  V30 5569 C 527.19 -4.45962 0.0580589 0
M  V30 5570 C 527.891 -5.50685 1.87405 0
M  V30 5571 N 526.867 -5.30732 1.17578 0
M  V30 5572 H 530.669 -2.73903 1.06558 0
M  V30 5573 H 528.183 -1.47411 0.68145 0
M  V30 5574 H 530.18 -4.04044 -1.02731 0
M  V30 5575 H 528.84 -2.9266 -1.40643 0
M  V30 5576 H 529.851 -4.88077 1.7321 0
M  V30 5577 H 526.528 -4.11052 -0.730938 0
M  V30 5578 H 527.918 -6.11845 2.77661 0
M  V30 5579 N 530.638 -0.59345 -1.46 0
M  V30 5580 C 532.049 -0.169801 -1.85926 0
M  V30 5581 C 532.4 1.26984 -1.49565 0
M  V30 5582 O 531.525 1.96076 -0.915602 0
M  V30 5583 C 532.12 -0.301385 -3.37457 0
M  V30 5584 C 530.679 0.0674684 -3.7634 0
M  V30 5585 C 529.826 -0.632383 -2.69993 0
M  V30 5586 H 532.777 -0.801014 -1.37002 0
M  V30 5587 H 532.798 0.470331 -3.77582 0
M  V30 5588 H 532.31 -1.34927 -3.63891 0
M  V30 5589 H 530.411 1.11507 -3.55523 0
M  V30 5590 H 530.524 -0.316332 -4.78055 0
M  V30 5591 H 528.888 -0.0714961 -2.546 0
M  V30 5592 H 529.671 -1.68212 -2.99265 0
M  V30 5593 N 532.116 1.54067 -0.331816 0
M  V30 5594 C 533.363 2.00715 0.268269 0
M  V30 5595 C 533.691 1.21986 1.51491 0
M  V30 5596 O 532.946 0.292309 1.93505 0
M  V30 5597 C 533.245 3.51634 0.639392 0
M  V30 5598 C 532.911 4.48018 -0.509019 0
M  V30 5599 C 531.573 4.74089 -0.824209 0
M  V30 5600 C 533.925 5.05237 -1.28003 0
M  V30 5601 C 531.253 5.54637 -1.91298 0
M  V30 5602 C 533.605 5.86972 -2.35895 0
M  V30 5603 C 532.269 6.11342 -2.67987 0
M  V30 5604 H 531.539 0.734469 0.0981667 0
M  V30 5605 H 534.186 1.8596 -0.457304 0
M  V30 5606 H 532.491 3.6416 1.44551 0
M  V30 5607 H 534.188 3.85175 1.11539 0
M  V30 5608 H 530.778 4.27851 -0.253287 0
M  V30 5609 H 534.962 4.8507 -1.04978 0
M  V30 5610 H 530.218 5.71747 -2.16599 0
M  V30 5611 H 534.392 6.30327 -2.96076 0
M  V30 5612 H 532.019 6.73544 -3.5248 0
M  V30 5613 N 533.594 0.0601682 1.57485 0
M  V30 5614 C 535.005 -0.474217 1.80577 0
M  V30 5615 C 535.356 -1.70365 0.973147 0
M  V30 5616 O 534.481 -2.15544 0.192306 0
M  V30 5617 C 535.076 -0.867102 3.27516 0
M  V30 5618 C 533.635 -1.34642 3.51495 0
M  V30 5619 C 532.782 -0.32594 2.75378 0
M  V30 5620 H 535.733 0.285973 1.56102 0
M  V30 5621 H 535.754 -1.72938 3.38929 0
M  V30 5622 H 535.266 0.0278927 3.8809 0
M  V30 5623 H 533.367 -2.2603 2.96212 0
M  V30 5624 H 533.48 -1.33237 4.60201 0
M  V30 5625 H 531.844 -0.800749 2.41785 0
M  V30 5626 H 532.627 0.561125 3.38683 0
M  V30 5627 N 535.072 -1.5615 -0.213296 0
M  V30 5628 C 536.312 -1.81325 -0.943435 0
M  V30 5629 C 536.676 -0.634934 -1.81198 0
M  V30 5630 O 537.877 -0.766166 -2.5765 0
M  V30 5631 C 536.148 -3.11437 -1.75334 0
M  V30 5632 S 537.707 -3.57955 -2.53799 0
M  V30 5633 H 534.525 -0.636538 -0.316766 0
M  V30 5634 H 537.127 -1.94387 -0.208313 0
M  V30 5635 H 535.831 -3.95228 -1.10556 0
M  V30 5636 H 535.362 -3.01204 -2.53061 0
M  V30 5637 H 537.377 -3.21947 -3.77577 0
M  V30 5638 N 536.55 0.480323 -1.50102 0
M  V30 5639 C 537.961 1.06142 -1.53593 0
M  V30 5640 C 538.312 1.93335 -0.334055 0
M  V30 5641 O 537.437 2.09188 0.55403 0
M  V30 5642 C 538.032 1.9317 -2.78336 0
M  V30 5643 C 536.591 2.46405 -2.84538 0
M  V30 5644 C 535.738 1.24521 -2.4777 0
M  V30 5645 H 538.689 0.26333 -1.565 0
M  V30 5646 H 538.71 2.78123 -2.59669 0
M  V30 5647 H 538.222 1.29683 -3.65792 0
M  V30 5648 H 536.323 3.13472 -2.01411 0
M  V30 5649 H 536.436 2.82143 -3.87211 0
M  V30 5650 H 534.8 1.57706 -2.00003 0
M  V30 5651 H 535.583 0.627102 -3.37524 0
M  V30 5652 N 538.028 1.39524 0.732853 0
M  V30 5653 C 539.256 1.40143 1.52209 0
M  V30 5654 C 539.671 -0.00348836 1.888 0
M  V30 5655 O 539.028 -0.975357 1.5425 0
M  V30 5656 C 539.079 2.27632 2.8083 0
M  V30 5657 O 538.8 3.62654 2.45792 0
M  V30 5658 C 540.301 2.36658 3.74844 0
M  V30 5659 H 537.521 0.478604 0.470297 0
M  V30 5660 H 540.065 1.83366 0.905388 0
M  V30 5661 H 538.22 1.87818 3.38826 0
M  V30 5662 H 538.634 4.08941 3.28431 0
M  V30 5663 H 540.108 3.02118 4.61984 0
M  V30 5664 H 540.585 1.38638 4.16745 0
M  V30 5665 H 541.191 2.76951 3.22766 0
M  V30 5666 N 539.506 -0.963266 1.24736 0
M  V30 5667 C 540.731 -1.74699 1.11781 0
M  V30 5668 C 541.156 -1.85267 -0.325258 0
M  V30 5669 O 540.514 -1.32681 -1.23553 0
M  V30 5670 C 540.562 -3.14322 1.76731 0
M  V30 5671 O 539.666 -3.99043 1.04109 0
M  V30 5672 H 539.007 -0.53684 0.390767 0
M  V30 5673 H 541.537 -1.20801 1.65131 0
M  V30 5674 H 541.547 -3.64824 1.82668 0
M  V30 5675 H 540.222 -3.05946 2.81726 0
M  V30 5676 H 538.799 -3.5752 1.05991 0
M  V30 5677 N 540.985 -1.06182 -1.16461 0
M  V30 5678 C 542.215 -0.797425 -1.9059 0
M  V30 5679 C 542.623 0.651845 -1.77616 0
M  V30 5680 O 541.966 1.45788 -1.11766 0
M  V30 5681 C 542.028 -1.11128 -3.41893 0
M  V30 5682 C 541.692 -2.55874 -3.78652 0
M  V30 5683 C 542.689 -3.54104 -3.80665 0
M  V30 5684 C 540.374 -2.91144 -4.09317 0
M  V30 5685 C 542.368 -4.85645 -4.12829 0
M  V30 5686 C 540.055 -4.22885 -4.41148 0
M  V30 5687 C 541.053 -5.19945 -4.42883 0
M  V30 5688 O 540.741 -6.49322 -4.73959 0
M  V30 5689 H 540.473 -0.288709 -0.611247 0
M  V30 5690 H 543.027 -1.41841 -1.4856 0
M  V30 5691 H 541.257 -0.433217 -3.84266 0
M  V30 5692 H 542.946 -0.831306 -3.97296 0
M  V30 5693 H 543.712 -3.28197 -3.57088 0
M  V30 5694 H 539.591 -2.16252 -4.07131 0
M  V30 5695 H 543.135 -5.61398 -4.14099 0
M  V30 5696 H 539.032 -4.48551 -4.6419 0
M  V30 5697 H 539.8 -6.54294 -4.91774 0
M  V30 5698 N 542.463 1.3308 -0.844243 0
M  V30 5699 C 543.879 1.50447 -0.532729 0
M  V30 5700 C 544.079 1.78292 0.938837 0
M  V30 5701 O 543.135 1.84635 1.72239 0
M  V30 5702 C 544.448 2.65555 -1.41072 0
M  V30 5703 C 545.996 2.7944 -1.41005 0
M  V30 5704 C 546.471 3.97616 -2.27301 0
M  V30 5705 N 547.962 4.0486 -2.2504 0
M  V30 5706 C 548.697 4.95508 -2.88547 0
M  V30 5707 N 548.193 5.91236 -3.61126 0
M  V30 5708 N 549.986 4.88548 -2.77989 0
M  V30 5709 H 542.137 1.13269 -1.79677 0
M  V30 5710 H 544.4 0.55734 -0.766861 0
M  V30 5711 H 544.106 2.51675 -2.45668 0
M  V30 5712 H 543.98 3.61089 -1.09061 0
M  V30 5713 H 546.367 2.92749 -0.371784 0
M  V30 5714 H 546.448 1.8465 -1.77026 0
M  V30 5715 H 546.092 3.85066 -3.3119 0
M  V30 5716 H 546.022 4.91661 -1.88619 0
M  V30 5717 H 548.513 3.36353 -1.72264 0
M  V30 5718 H 548.826 6.57079 -4.06776 0
M  V30 5719 H 547.171 5.91295 -3.65234 0
M  V30 5720 H 550.362 4.12729 -2.20846 0
M  V30 5721 H 550.535 5.58994 -3.27765 0
M  V30 5722 N 543.941 0.601185 1.45683 0
M  V30 5723 C 545.169 0.100054 2.06658 0
M  V30 5724 C 545.584 -1.21285 1.44691 0
M  V30 5725 O 544.941 -1.73735 0.558772 0
M  V30 5726 C 544.992 -0.0528579 3.61461 0
M  V30 5727 O 544.713 1.20809 4.21114 0
M  V30 5728 C 546.214 -0.586193 4.39407 0
M  V30 5729 H 543.434 0.065905 0.667756 0
M  V30 5730 H 545.978 0.827101 1.87028 0
M  V30 5731 H 544.133 -0.730203 3.80456 0
M  V30 5732 H 544.547 1.03368 5.14213 0
M  V30 5733 H 546.021 -0.642297 5.4825 0
M  V30 5734 H 546.498 -1.60713 4.0874 0
M  V30 5735 H 547.104 0.0568935 4.25262 0
M  V30 5736 N 545.419 -1.53889 0.339982 0
M  V30 5737 C 546.382 -2.23547 -0.50592 0
M  V30 5738 C 547.382 -1.23445 -1.03044 0
M  V30 5739 O 548.572 -1.47909 -0.920253 0
M  V30 5740 C 545.704 -2.95234 -1.7044 0
M  V30 5741 H 546.897 -2.99722 0.103247 0
M  V30 5742 H 544.45 -1.56033 0.0912804 0
M  V30 5743 H 545.185 -2.23236 -2.35236 0
M  V30 5744 H 544.97 -3.68654 -1.33553 0
M  V30 5745 H 546.46 -3.48258 -2.30447 0
M  V30 5746 N 546.897 -0.0685191 -1.57451 0
M  V30 5747 C 547.827 0.89747 -2.15564 0
M  V30 5748 C 548.808 1.31266 -1.08181 0
M  V30 5749 O 549.993 1.38429 -1.36202 0
M  V30 5750 C 547.123 2.16623 -2.71463 0
M  V30 5751 C 546.077 1.89054 -3.83982 0
M  V30 5752 C 545.403 3.22532 -4.26471 0
M  V30 5753 C 546.703 1.1984 -5.08366 0
M  V30 5754 H 548.397 0.413373 -2.96533 0
M  V30 5755 H 545.943 0.197391 -1.42641 0
M  V30 5756 H 547.896 2.84614 -3.10761 0
M  V30 5757 H 546.62 2.67269 -1.8771 0
M  V30 5758 H 545.279 1.23469 -3.45183 0
M  V30 5759 H 544.927 3.71013 -3.39644 0
M  V30 5760 H 544.627 3.04879 -5.02317 0
M  V30 5761 H 546.151 3.91727 -4.68383 0
M  V30 5762 H 547.565 1.77896 -5.45001 0
M  V30 5763 H 545.962 1.12456 -5.89469 0
M  V30 5764 H 547.032 0.176996 -4.84577 0
M  V30 5765 N 548.375 1.56261 0.205012 0
M  V30 5766 C 549.603 1.84141 0.943386 0
M  V30 5767 C 550.018 0.649772 1.77266 0
M  V30 5768 O 549.375 -0.381612 1.78466 0
M  V30 5769 C 549.426 3.10719 1.84759 0
M  V30 5770 O 549.147 4.25286 1.05181 0
M  V30 5771 C 550.648 3.51706 2.69848 0
M  V30 5772 H 547.868 0.611734 0.275721 0
M  V30 5773 H 550.412 2.03364 0.215253 0
M  V30 5774 H 548.567 2.93422 2.52947 0
M  V30 5775 H 548.981 4.97301 1.66709 0
M  V30 5776 H 550.455 4.43266 3.28967 0
M  V30 5777 H 550.932 2.7423 3.43067 0
M  V30 5778 H 551.538 3.71499 2.07047 0
M  V30 5779 N 549.853 -0.472356 1.50355 0
M  V30 5780 C 551.083 -1.24603 1.64796 0
M  V30 5781 C 551.491 -1.86297 0.330156 0
M  V30 5782 O 550.834 -1.69934 -0.697728 0
M  V30 5783 C 550.896 -2.39578 2.68035 0
M  V30 5784 C 550.56 -1.98531 4.11624 0
M  V30 5785 C 551.557 -1.50856 4.97532 0
M  V30 5786 C 549.242 -2.0729 4.57532 0
M  V30 5787 C 551.236 -1.12481 6.27397 0
M  V30 5788 C 548.923 -1.68527 5.87403 0
M  V30 5789 C 549.921 -1.212 6.7216 0
M  V30 5790 O 549.609 -0.829728 7.99607 0
M  V30 5791 H 549.341 -0.383035 0.55701 0
M  V30 5792 H 551.895 -0.570392 1.97321 0
M  V30 5793 H 550.125 -3.10309 2.30749 0
M  V30 5794 H 551.814 -3.01544 2.71709 0
M  V30 5795 H 552.58 -1.43511 4.63281 0
M  V30 5796 H 548.459 -2.43076 3.91708 0
M  V30 5797 H 552.003 -0.754698 6.93506 0
M  V30 5798 H 547.9 -1.7553 6.21176 0
M  V30 5799 H 548.668 -0.958689 8.12866 0
M  V30 5800 N 551.331 -1.39911 -0.725443 0
M  V30 5801 C 552.561 -1.40744 -1.51244 0
M  V30 5802 C 552.969 -0.00275403 -1.892 0
M  V30 5803 O 552.312 0.981299 -1.55294 0
M  V30 5804 C 552.374 -2.22527 -2.82351 0
M  V30 5805 C 552.038 -3.71053 -2.66774 0
M  V30 5806 C 553.035 -4.63916 -2.34686 0
M  V30 5807 C 550.72 -4.14753 -2.83347 0
M  V30 5808 C 552.714 -5.98463 -2.19366 0
M  V30 5809 C 550.401 -5.49372 -2.67644 0
M  V30 5810 C 551.399 -6.41042 -2.357 0
M  V30 5811 O 551.087 -7.73181 -2.20107 0
M  V30 5812 H 550.819 -0.482314 -0.473655 0
M  V30 5813 H 553.373 -1.84472 -0.903284 0
M  V30 5814 H 551.603 -1.73563 -3.45562 0
M  V30 5815 H 553.292 -2.15421 -3.44018 0
M  V30 5816 H 554.058 -4.31453 -2.21525 0
M  V30 5817 H 549.937 -3.43728 -3.072 0
M  V30 5818 H 553.481 -6.69979 -1.94354 0
M  V30 5819 H 549.378 -5.81424 -2.80387 0
M  V30 5820 H 550.146 -7.84008 -2.35103 0
M  V30 5821 N 552.809 0.956637 -1.25245 0
M  V30 5822 C 553.739 2.07058 -1.07931 0
M  V30 5823 C 554.72 1.70096 0.0110361 0
M  V30 5824 O 555.905 1.93555 -0.158121 0
M  V30 5825 C 553.035 3.40272 -0.695124 0
M  V30 5826 C 551.989 3.91235 -1.73549 0
M  V30 5827 C 551.315 5.20921 -1.20604 0
M  V30 5828 C 552.615 4.17837 -3.13385 0
M  V30 5829 H 554.309 2.218 -2.01109 0
M  V30 5830 H 551.855 1.06581 -0.968326 0
M  V30 5831 H 553.808 4.1765 -0.560949 0
M  V30 5832 H 552.532 3.25462 0.272355 0
M  V30 5833 H 551.191 3.16025 -1.85807 0
M  V30 5834 H 550.839 5.02479 -0.228846 0
M  V30 5835 H 550.539 5.55987 -1.90136 0
M  V30 5836 H 552.063 6.00897 -1.08421 0
M  V30 5837 H 553.477 4.8588 -3.04292 0
M  V30 5838 H 551.874 4.64154 -3.80369 0
M  V30 5839 H 552.944 3.2419 -3.60595 0
M  V30 5840 N 554.287 1.06798 1.15896 0
M  V30 5841 C 555.564 0.701057 1.82605 0
M  V30 5842 C 555.944 -0.817066 1.94646 0
M  V30 5843 O 555.292 -1.72933 1.49353 0
M  V30 5844 C 555.502 1.40895 3.19296 0
M  V30 5845 C 556.85 1.55744 3.95005 0
M  V30 5846 O 557.874 1.36927 3.28831 0
M  V30 5847 O 556.733 1.86658 5.13635 0
M  V30 5848 H 553.827 0.248791 0.78869 0
M  V30 5849 H 556.373 1.16857 1.23055 0
M  V30 5850 H 555.145 2.4439 3.05596 0
M  V30 5851 H 554.768 0.931847 3.86526 0
M  V30 5852 N 555.766 -1.3263 0.851289 0
M  V30 5853 C 557.015 -1.96633 0.449267 0
M  V30 5854 C 557.328 -1.68131 -0.999562 0
M  V30 5855 O 558.534 -2.25845 -1.50685 0
M  V30 5856 C 556.99 -3.51946 0.752446 0
M  V30 5857 C 556.598 -3.89311 2.21678 0
M  V30 5858 C 558.342 -4.22437 0.417983 0
M  V30 5859 C 556.249 -5.37655 2.46336 0
M  V30 5860 H 555.179 -0.735888 0.164269 0
M  V30 5861 H 557.83 -1.51073 1.0416 0
M  V30 5862 H 556.212 -3.95899 0.0895858 0
M  V30 5863 H 557.386 -3.56378 2.92115 0
M  V30 5864 H 555.701 -3.31836 2.51543 0
M  V30 5865 H 558.298 -5.31549 0.579674 0
M  V30 5866 H 558.641 -4.11349 -0.640115 0
M  V30 5867 H 559.174 -3.84057 1.03659 0
M  V30 5868 H 555.913 -5.5376 3.50757 0
M  V30 5869 H 555.433 -5.72005 1.80473 0
M  V30 5870 H 557.112 -6.04695 2.30115 0
M  V30 5871 N 557.244 -0.608902 -1.45362 0
M  V30 5872 C 558.472 -0.111013 -2.06602 0
M  V30 5873 C 558.887 1.20516 -1.45332 0
M  V30 5874 O 558.244 1.73437 -0.567978 0
M  V30 5875 C 558.295 0.033688 -3.61484 0
M  V30 5876 O 558.016 -1.23041 -4.20467 0
M  V30 5877 C 559.517 0.562882 -4.39712 0
M  V30 5878 H 556.737 -0.0694453 -0.667397 0
M  V30 5879 H 559.281 -0.837008 -1.86586 0
M  V30 5880 H 557.436 0.710016 -3.80838 0
M  V30 5881 H 557.85 -1.06094 -5.13658 0
M  V30 5882 H 559.324 0.613213 -5.48583 0
M  V30 5883 H 559.801 1.58543 -4.09586 0
M  V30 5884 H 560.407 -0.0794454 -4.25226 0
M  V30 5885 N 558.722 1.53707 -0.348139 0
M  V30 5886 C 559.67 2.26671 0.521808 0
M  V30 5887 C 560.664 1.28988 1.09811 0
M  V30 5888 O 561.87 1.4668 1.04332 0
M  V30 5889 H 558.245 0.728387 0.186968 0
M  V30 5890 H 560.216 2.98176 -0.115563 0
M  V30 5891 C 558.965 3.05591 1.6586 0
M  V30 5892 H 558.288 3.80589 1.22443 0
M  V30 5893 H 559.728 3.59851 2.24239 0
M  V30 5894 C 558.187 2.15366 2.59073 0
M  V30 5895 O 558.717 1.7528 3.61441 0
M  V30 5896 N 556.923 1.80352 2.27863 0
M  V30 5897 H 556.47 2.13149 1.44656 0
M  V30 5898 H 556.428 1.20268 2.90488 0
M  V30 5899 N 560.2 0.0768682 1.57412 0
M  V30 5900 C 561.611 -0.455037 1.8107 0
M  V30 5901 C 561.962 -1.69323 0.991162 0
M  V30 5902 O 561.087 -2.15328 0.215156 0
M  V30 5903 C 561.682 -0.832316 3.28417 0
M  V30 5904 C 560.241 -1.30906 3.52903 0
M  V30 5905 C 559.388 -0.296714 2.75708 0
M  V30 5906 H 562.339 0.302514 1.5579 0
M  V30 5907 H 562.36 -1.69333 3.40744 0
M  V30 5908 H 561.872 0.0690532 3.88039 0
M  V30 5909 H 559.973 -2.22875 2.98592 0
M  V30 5910 H 560.086 -1.28348 4.61588 0
M  V30 5911 H 558.45 -0.775059 2.42621 0
M  V30 5912 H 559.233 0.597015 3.38069 0
M  V30 5913 N 561.678 -1.56367 -0.196722 0
M  V30 5914 C 563.089 -1.70462 -0.761545 0
M  V30 5915 C 563.44 -0.683161 -1.83922 0
M  V30 5916 O 562.565 0.160753 -2.15802 0
M  V30 5917 C 563.16 -3.09057 -1.38814 0
M  V30 5918 C 561.719 -3.24922 -1.90007 0
M  V30 5919 C 560.866 -2.66412 -0.769399 0
M  V30 5920 H 563.817 -1.58675 0.0283263 0
M  V30 5921 H 563.838 -3.06296 -2.2575 0
M  V30 5922 H 563.35 -3.83378 -0.603559 0
M  V30 5923 H 561.451 -2.55514 -2.71189 0
M  V30 5924 H 561.564 -4.3241 -2.06297 0
M  V30 5925 H 559.928 -2.25546 -1.18326 0
M  V30 5926 H 560.711 -3.433 0.00291773 0
M  V30 5927 N 563.156 0.464375 -1.50603 0
M  V30 5928 C 564.572 0.798684 -1.38178 0
M  V30 5929 C 564.772 1.96568 -0.44308 0
M  V30 5930 O 563.828 2.52252 0.111814 0
M  V30 5931 C 565.141 1.10444 -2.79683 0
M  V30 5932 C 566.689 1.2105 -2.88645 0
M  V30 5933 C 567.164 1.54934 -4.30998 0
M  V30 5934 N 568.655 1.61913 -4.3398 0
M  V30 5935 C 569.39 1.8965 -5.41129 0
M  V30 5936 N 568.886 2.15361 -6.58477 0
M  V30 5937 N 570.679 1.91207 -5.28579 0
M  V30 5938 H 562.83 -0.304603 -2.10204 0
M  V30 5939 H 565.093 -0.0737804 -0.945125 0
M  V30 5940 H 564.799 0.319934 -3.50242 0
M  V30 5941 H 564.673 2.03896 -3.17342 0
M  V30 5942 H 567.06 1.98567 -2.18301 0
M  V30 5943 H 567.141 0.255613 -2.5452 0
M  V30 5944 H 566.785 0.779549 -5.01882 0
M  V30 5945 H 566.715 2.51584 -4.62615 0
M  V30 5946 H 569.206 1.44055 -3.49366 0
M  V30 5947 H 569.519 2.35818 -7.35941 0
M  V30 5948 H 567.864 2.1274 -6.6164 0
M  V30 5949 H 571.055 1.70622 -4.35897 0
M  V30 5950 H 571.228 2.12488 -6.12171 0
M  V30 5951 N 564.634 1.40294 0.718013 0
M  V30 5952 C 565.862 1.4175 1.50714 0
M  V30 5953 C 566.277 0.0165366 1.88793 0
M  V30 5954 O 565.634 -0.958942 1.55276 0
M  V30 5955 C 565.685 2.30598 2.784 0
M  V30 5956 O 565.406 3.6524 2.41932 0
M  V30 5957 C 566.907 2.4062 3.72313 0
M  V30 5958 H 564.127 0.483565 0.465194 0
M  V30 5959 H 566.671 1.84316 0.885889 0
M  V30 5960 H 564.826 1.91401 3.36815 0
M  V30 5961 H 565.24 4.12402 3.24076 0
M  V30 5962 H 566.714 3.07001 4.58753 0
M  V30 5963 H 567.191 1.4305 4.15251 0
M  V30 5964 H 567.797 2.80359 3.19811 0
M  V30 5965 N 566.112 -0.949982 1.2575 0
M  V30 5966 C 567.06 -2.06869 1.06339 0
M  V30 5967 C 568.054 -1.69399 -0.00708901 0
M  V30 5968 O 569.26 -1.79383 0.148897 0
M  V30 5969 H 565.635 -0.677197 0.326969 0
M  V30 5970 H 567.606 -2.20396 2.01167 0
M  V30 5971 C 566.355 -3.40503 0.703769 0
M  V30 5972 H 565.678 -3.69807 1.51931 0
M  V30 5973 H 567.118 -4.19623 0.607677 0
M  V30 5974 C 565.577 -3.31685 -0.5905 0
M  V30 5975 O 566.107 -3.67085 -1.63131 0
M  V30 5976 N 564.313 -2.84797 -0.577859 0
M  V30 5977 H 563.86 -2.56186 0.26951 0
M  V30 5978 H 563.818 -2.79279 -1.44398 0
M  V30 5979 N 567.59 -1.07411 -1.15328 0
M  V30 5980 C 568.836 -0.798831 -1.86404 0
M  V30 5981 C 569.169 0.673433 -1.8215 0
M  V30 5982 O 568.444 1.49428 -1.24505 0
M  V30 5983 C 568.727 -1.30846 -3.35487 0
M  V30 5984 C 568.58 -2.84532 -3.4837 0
M  V30 5985 C 569.899 -0.925486 -4.30259 0
M  V30 5986 H 567.018 -0.291659 -0.676834 0
M  V30 5987 H 569.66 -1.332 -1.35491 0
M  V30 5988 H 567.81 -0.854916 -3.78977 0
M  V30 5989 H 569.482 -3.3818 -3.13739 0
M  V30 5990 H 567.725 -3.22699 -2.8991 0
M  V30 5991 H 568.396 -3.15259 -4.53118 0
M  V30 5992 H 570.872 -1.3163 -3.94731 0
M  V30 5993 H 569.748 -1.3094 -5.33053 0
M  V30 5994 H 570.009 0.168525 -4.41779 0
M  V30 5995 N 569.068 1.32177 -0.85831 0
M  V30 5996 C 569.998 2.31282 -0.321041 0
M  V30 5997 C 570.979 1.59841 0.581786 0
M  V30 5998 O 572.164 1.87619 0.501262 0
M  V30 5999 C 569.294 3.4385 0.48832 0
M  V30 6000 C 568.248 4.26799 -0.320391 0
M  V30 6001 C 567.574 5.31164 0.613934 0
M  V30 6002 C 568.874 4.98829 -1.54813 0
M  V30 6003 H 570.568 2.76469 -1.14915 0
M  V30 6004 H 568.114 1.32916 -0.554028 0
M  V30 6005 H 570.067 4.12224 0.874626 0
M  V30 6006 H 568.791 2.97401 1.34983 0
M  V30 6007 H 567.45 3.60077 -0.688497 0
M  V30 6008 H 567.098 4.80967 1.47239 0
M  V30 6009 H 566.798 5.8755 0.0768097 0
M  V30 6010 H 568.322 6.024 0.997336 0
M  V30 6011 H 569.736 5.59864 -1.23392 0
M  V30 6012 H 568.133 5.64957 -2.02346 0
M  V30 6013 H 569.203 4.26483 -2.30739 0
M  V30 6014 N 570.547 0.616602 1.45037 0
M  V30 6015 C 571.777 0.121791 2.06241 0
M  V30 6016 C 572.185 -1.20289 1.46038 0
M  V30 6017 O 571.528 -1.7456 0.572242 0
M  V30 6018 C 571.59 -0.0827345 3.59405 0
M  V30 6019 C 571.254 1.16153 4.41993 0
M  V30 6020 C 572.251 2.08183 4.76399 0
M  V30 6021 C 569.936 1.39288 4.82601 0
M  V30 6022 C 571.93 3.21668 5.5028 0
M  V30 6023 C 569.617 2.53073 5.56235 0
M  V30 6024 C 570.615 3.44091 5.89992 0
M  V30 6025 O 570.303 4.55894 6.6213 0
M  V30 6026 H 570.035 0.0701667 0.672349 0
M  V30 6027 H 572.589 0.846877 1.87129 0
M  V30 6028 H 570.819 -0.862812 3.76952 0
M  V30 6029 H 572.508 -0.530273 4.02421 0
M  V30 6030 H 573.274 1.91538 4.45576 0
M  V30 6031 H 569.153 0.693396 4.55755 0
M  V30 6032 H 572.697 3.92733 5.76547 0
M  V30 6033 H 568.594 2.69667 5.86472 0
M  V30 6034 H 569.362 4.5469 6.80587 0
M  V30 6035 N 572.025 -1.5352 0.356285 0
M  V30 6036 C 572.935 -2.29151 -0.502712 0
M  V30 6037 C 573.951 -1.34753 -1.1008 0
M  V30 6038 O 575.127 -1.67803 -1.11374 0
M  V30 6039 C 572.192 -3.05911 -1.63154 0
M  V30 6040 C 571.253 -4.15958 -1.06194 0
M  V30 6041 C 570.486 -4.8905 -2.13696 0
M  V30 6042 O 570.709 -4.61919 -3.34645 0
M  V30 6043 O 569.643 -5.75202 -1.77275 0
M  V30 6044 H 573.469 -3.03492 0.112466 0
M  V30 6045 H 571.054 -1.4891 0.120942 0
M  V30 6046 H 572.936 -3.53874 -2.28804 0
M  V30 6047 H 571.611 -2.34415 -2.23229 0
M  V30 6048 H 570.518 -3.7227 -0.369603 0
M  V30 6049 H 571.851 -4.89593 -0.505872 0
M  V30 6050 N 573.503 -0.0852151 -1.57369 0
M  V30 6051 C 574.433 0.874556 -2.16503 0
M  V30 6052 C 575.414 1.30111 -1.09568 0
M  V30 6053 O 576.599 1.36977 -1.37662 0
M  V30 6054 C 573.729 2.13731 -2.73745 0
M  V30 6055 C 572.683 1.84971 -3.85966 0
M  V30 6056 C 572.009 3.17991 -4.29867 0
M  V30 6057 C 573.309 1.14442 -5.09608 0
M  V30 6058 H 575.003 0.381899 -2.96954 0
M  V30 6059 H 572.549 0.18225 -1.42842 0
M  V30 6060 H 574.502 2.81302 -3.13763 0
M  V30 6061 H 573.226 2.65263 -1.90534 0
M  V30 6062 H 571.885 1.19801 -3.46473 0
M  V30 6063 H 571.533 3.6739 -3.4356 0
M  V30 6064 H 571.233 2.99534 -5.05523 0
M  V30 6065 H 572.757 3.86737 -4.72511 0
M  V30 6066 H 574.171 1.72105 -5.46857 0
M  V30 6067 H 572.568 1.06197 -5.90629 0
M  V30 6068 H 573.638 0.12559 -4.84737 0
M  V30 6069 N 574.981 1.5647 0.188427 0
M  V30 6070 C 575.944 1.9421 1.21718 0
M  V30 6071 C 576.944 0.823901 1.38089 0
M  V30 6072 O 578.134 1.09122 1.35787 0
M  V30 6073 C 575.266 2.22197 2.58537 0
M  V30 6074 H 576.459 2.86252 0.894418 0
M  V30 6075 H 574.012 1.50263 0.430211 0
M  V30 6076 H 574.747 1.32814 2.95856 0
M  V30 6077 H 574.532 3.03688 2.48025 0
M  V30 6078 H 576.022 2.52376 3.3271 0
M  V30 6079 N 576.459 -0.456382 1.50847 0
M  V30 6080 C 577.391 -1.57033 1.66953 0
M  V30 6081 C 578.404 -1.53207 0.550593 0
M  V30 6082 O 579.593 -1.58328 0.824285 0
M  V30 6083 C 576.693 -2.95937 1.65149 0
M  V30 6084 C 575.866 -3.24475 2.93317 0
M  V30 6085 C 574.925 -4.43007 2.83957 0
M  V30 6086 O 573.951 -4.42592 3.57912 0
M  V30 6087 N 575.153 -5.45503 1.9851 0
M  V30 6088 H 577.918 -1.43629 2.63042 0
M  V30 6089 H 575.479 -0.645037 1.48495 0
M  V30 6090 H 577.471 -3.73224 1.56481 0
M  V30 6091 H 576.041 -3.03036 0.767343 0
M  V30 6092 H 575.261 -2.35664 3.16 0
M  V30 6093 H 576.549 -3.4036 3.78196 0
M  V30 6094 H 575.947 -5.48668 1.37766 0
M  V30 6095 H 574.504 -6.21716 1.95735 0
M  V30 6096 N 577.937 -1.40673 -0.710563 0
M  V30 6097 C 579.167 -1.4234 -1.49742 0
M  V30 6098 C 579.575 -0.022821 -1.89186 0
M  V30 6099 O 578.918 0.964773 -1.56326 0
M  V30 6100 C 578.98 -2.25509 -2.79975 0
M  V30 6101 C 578.644 -3.73862 -2.62824 0
M  V30 6102 C 579.641 -4.66379 -2.29752 0
M  V30 6103 C 577.326 -4.17735 -2.78932 0
M  V30 6104 C 579.32 -6.00756 -2.13006 0
M  V30 6105 C 577.007 -5.5218 -2.61802 0
M  V30 6106 C 578.005 -6.43505 -2.28888 0
M  V30 6107 O 577.693 -7.75472 -2.11894 0
M  V30 6108 H 577.425 -0.487311 -0.468513 0
M  V30 6109 H 579.979 -1.8542 -0.883668 0
M  V30 6110 H 578.209 -1.77218 -3.43701 0
M  V30 6111 H 579.898 -2.19058 -3.41714 0
M  V30 6112 H 580.664 -4.33778 -2.16936 0
M  V30 6113 H 576.543 -3.46967 -3.03537 0
M  V30 6114 H 580.087 -6.72003 -1.87237 0
M  V30 6115 H 575.984 -5.84365 -2.74204 0
M  V30 6116 H 576.752 -7.86458 -2.26775 0
M  V30 6117 N 579.415 0.9433 -1.26252 0
M  V30 6118 C 580.378 2.02326 -1.07689 0
M  V30 6119 C 581.378 1.60779 -0.0259174 0
M  V30 6120 O 582.568 1.72108 -0.269134 0
M  V30 6121 C 579.7 3.34886 -0.63752 0
M  V30 6122 H 580.893 2.20225 -2.0357 0
M  V30 6123 H 578.446 1.12197 -1.08819 0
M  V30 6124 H 579.181 3.22684 0.323377 0
M  V30 6125 H 578.966 3.66393 -1.39637 0
M  V30 6126 H 580.456 4.14231 -0.529418 0
M  V30 6127 N 580.893 1.08022 1.14757 0
M  V30 6128 C 582.118 0.82895 1.90114 0
M  V30 6129 C 582.543 -0.612772 1.77839 0
M  V30 6130 O 581.901 -1.42895 1.11583 0
M  V30 6131 C 581.949 1.25062 3.38219 0
M  V30 6132 O 581.053 0.400119 4.10454 0
M  V30 6133 H 580.394 0.301412 0.591648 0
M  V30 6134 H 582.924 1.44062 1.45284 0
M  V30 6135 H 582.934 1.22977 3.89025 0
M  V30 6136 H 581.609 2.30067 3.46471 0
M  V30 6137 H 580.186 0.484052 3.69745 0
M  V30 6138 N 582.371 -1.3172 0.865308 0
M  V30 6139 C 583.281 -2.32394 0.320935 0
M  V30 6140 C 584.297 -1.64511 -0.566746 0
M  V30 6141 O 585.473 -1.95969 -0.464575 0
M  V30 6142 C 582.538 -3.43462 -0.472701 0
M  V30 6143 C 581.599 -4.27015 0.442385 0
M  V30 6144 C 580.832 -5.32779 -0.313469 0
M  V30 6145 O 581.055 -5.49158 -1.54214 0
M  V30 6146 O 579.989 -6.01015 0.326257 0
M  V30 6147 H 583.815 -2.80868 1.15528 0
M  V30 6148 H 581.4 -1.35535 0.628545 0
M  V30 6149 H 583.282 -4.11172 -0.922781 0
M  V30 6150 H 581.957 -2.97159 -1.28367 0
M  V30 6151 H 580.864 -3.62075 0.940866 0
M  V30 6152 H 582.197 -4.76871 1.21882 0
M  V30 6153 N 583.85 -0.624285 -1.44708 0
M  V30 6154 C 585.26 -0.2092 -1.85524 0
M  V30 6155 C 585.611 1.23783 -1.52225 0
M  V30 6156 O 584.736 1.94089 -0.956986 0
M  V30 6157 C 585.332 -0.372897 -3.36742 0
M  V30 6158 C 583.891 -0.012374 -3.76398 0
M  V30 6159 C 583.038 -0.68951 -2.68591 0
M  V30 6160 H 585.989 -0.829894 -1.35272 0
M  V30 6161 H 586.01 0.390134 -3.78495 0
M  V30 6162 H 585.522 -1.42615 -3.60947 0
M  V30 6163 H 583.623 1.03941 -3.57809 0
M  V30 6164 H 583.736 -0.417663 -4.77276 0
M  V30 6165 H 582.1 -0.125484 -2.54391 0
M  V30 6166 H 582.883 -1.74522 -2.9563 0
M  V30 6167 N 585.328 1.53329 -0.364422 0
M  V30 6168 C 586.553 2.06132 0.229033 0
M  V30 6169 C 586.978 1.23625 1.41769 0
M  V30 6170 O 586.336 0.255038 1.79497 0
M  V30 6171 C 586.384 3.55544 0.60174 0
M  V30 6172 O 585.488 3.75771 1.69912 0
M  V30 6173 H 584.829 0.663148 0.0336213 0
M  V30 6174 H 587.359 1.97758 -0.524689 0
M  V30 6175 H 587.369 3.98549 0.873073 0
M  V30 6176 H 586.044 4.15039 -0.267421 0
M  V30 6177 H 584.621 3.44663 1.42343 0
M  V30 6178 N 586.806 0.0935595 1.57322 0
M  V30 6179 C 587.716 -0.880192 2.17462 0
M  V30 6180 C 588.732 -1.31135 1.14366 0
M  V30 6181 O 589.908 -1.37958 1.46729 0
M  V30 6182 C 586.973 -2.12184 2.74188 0
M  V30 6183 C 586.034 -1.74503 3.92234 0
M  V30 6184 C 585.267 -2.92748 4.46245 0
M  V30 6185 O 585.49 -4.07427 3.99198 0
M  V30 6186 O 584.424 -2.71303 5.37288 0
M  V30 6187 H 588.25 -0.398516 3.01074 0
M  V30 6188 H 585.835 -0.130707 1.48827 0
M  V30 6189 H 587.717 -2.84953 3.10451 0
M  V30 6190 H 586.392 -2.59407 1.93623 0
M  V30 6191 H 585.299 -0.989186 3.60785 0
M  V30 6192 H 586.632 -1.32044 4.74157 0
M  V30 6193 N 588.284 -1.56567 -0.180126 0
M  V30 6194 C 589.216 -1.92275 -1.24751 0
M  V30 6195 C 590.229 -0.814922 -1.40936 0
M  V30 6196 O 591.418 -1.09336 -1.41095 0
M  V30 6197 C 588.518 -2.15265 -2.61752 0
M  V30 6198 C 587.691 -3.46467 -2.66981 0
M  V30 6199 C 586.75 -3.58391 -3.85283 0
M  V30 6200 O 585.776 -4.31086 -3.7169 0
M  V30 6201 N 586.978 -2.92587 -5.01371 0
M  V30 6202 H 589.743 -2.84435 -0.944302 0
M  V30 6203 H 587.304 -1.57617 -0.369952 0
M  V30 6204 H 589.296 -2.20515 -3.39345 0
M  V30 6205 H 587.866 -1.29533 -2.845 0
M  V30 6206 H 587.086 -3.52953 -1.75549 0
M  V30 6207 H 588.374 -4.32819 -2.67479 0
M  V30 6208 H 587.772 -2.3338 -5.15316 0
M  V30 6209 H 586.329 -3.03444 -5.76858 0
M  V30 6210 N 589.762 0.448376 -1.51087 0
M  V30 6211 C 590.672 1.56882 -1.74428 0
M  V30 6212 C 591.688 1.62268 -0.62809 0
M  V30 6213 O 592.864 1.79716 -0.909075 0
M  V30 6214 C 589.929 2.92947 -1.85426 0
M  V30 6215 C 588.99 2.97766 -3.09247 0
M  V30 6216 C 588.223 4.27341 -3.19711 0
M  V30 6217 O 588.446 5.19112 -2.36387 0
M  V30 6218 O 587.38 4.38219 -4.12611 0
M  V30 6219 H 591.206 1.40104 -2.69452 0
M  V30 6220 H 588.791 0.630247 -1.35456 0
M  V30 6221 H 590.673 3.73719 -1.94709 0
M  V30 6222 H 589.348 3.09876 -0.935887 0
M  V30 6223 H 588.255 2.15989 -3.0545 0
M  V30 6224 H 589.588 2.8578 -4.00738 0
M  V30 6225 N 591.24 1.41047 0.703093 0
M  V30 6226 C 592.17 1.45067 1.82969 0
M  V30 6227 C 593.151 0.31016 1.67248 0
M  V30 6228 O 594.336 0.520548 1.87093 0
M  V30 6229 C 591.466 1.32478 3.2104 0
M  V30 6230 C 590.42 2.44262 3.51454 0
M  V30 6231 C 589.746 2.16742 4.88801 0
M  V30 6232 C 591.046 3.86606 3.51189 0
M  V30 6233 H 592.74 2.39353 1.79863 0
M  V30 6234 H 590.286 1.15206 0.863919 0
M  V30 6235 H 592.239 1.33904 3.99559 0
M  V30 6236 H 590.963 0.346735 3.24754 0
M  V30 6237 H 589.622 2.42107 2.75282 0
M  V30 6238 H 589.27 1.17299 4.89132 0
M  V30 6239 H 588.97 2.91643 5.10116 0
M  V30 6240 H 590.494 2.19872 5.69639 0
M  V30 6241 H 591.908 3.90517 4.19725 0
M  V30 6242 H 590.305 4.61128 3.84033 0
M  V30 6243 H 591.375 4.15296 2.50315 0
M  V30 6244 N 592.718 -0.936591 1.26751 0
M  V30 6245 C 593.648 -2.05315 1.11212 0
M  V30 6246 C 594.629 -1.70092 0.0160262 0
M  V30 6247 O 595.814 -1.93279 0.188894 0
M  V30 6248 C 592.944 -3.39123 0.749171 0
M  V30 6249 C 591.898 -3.88425 1.79751 0
M  V30 6250 C 591.224 -5.18936 1.28876 0
M  V30 6251 C 592.524 -4.12798 3.19992 0
M  V30 6252 H 594.218 -2.18573 2.04613 0
M  V30 6253 H 591.764 -1.05027 0.985159 0
M  V30 6254 H 593.717 -4.16704 0.627323 0
M  V30 6255 H 592.441 -3.25855 -0.220543 0
M  V30 6256 H 591.1 -3.13028 1.90811 0
M  V30 6257 H 590.748 -5.02051 0.308757 0
M  V30 6258 H 590.448 -5.52892 1.98958 0
M  V30 6259 H 591.972 -5.99096 1.17967 0
M  V30 6260 H 593.386 -4.80977 3.11983 0
M  V30 6261 H 591.783 -4.58044 3.87705 0
M  V30 6262 H 592.853 -3.18412 3.65707 0
M  V30 6263 N 594.196 -1.08629 -1.14182 0
M  V30 6264 C 595.612 -0.814363 -1.3726 0
M  V30 6265 C 595.812 0.575271 -1.93114 0
M  V30 6266 O 594.868 1.33165 -2.1453 0
M  V30 6267 C 596.181 -1.8989 -2.33157 0
M  V30 6268 C 597.729 -1.92518 -2.46791 0
M  V30 6269 C 598.204 -3.00092 -3.45989 0
M  V30 6270 N 599.695 -2.99279 -3.53534 0
M  V30 6271 C 600.43 -3.79158 -4.30147 0
M  V30 6272 N 599.926 -4.68923 -5.09983 0
M  V30 6273 N 601.719 -3.67451 -4.25366 0
M  V30 6274 H 593.87 -1.98232 -0.762758 0
M  V30 6275 H 596.133 -0.860383 -0.398051 0
M  V30 6276 H 595.839 -2.89809 -1.99257 0
M  V30 6277 H 595.713 -1.77013 -3.33086 0
M  V30 6278 H 598.1 -0.932425 -2.79982 0
M  V30 6279 H 598.181 -2.09473 -1.46816 0
M  V30 6280 H 597.825 -3.99575 -3.13532 0
M  V30 6281 H 597.755 -2.80382 -4.45751 0
M  V30 6282 H 600.246 -2.3422 -2.96563 0
M  V30 6283 H 600.559 -5.26475 -5.65724 0
M  V30 6284 H 598.904 -4.72964 -5.09244 0
M  V30 6285 H 602.095 -2.9669 -3.62067 0
M  V30 6286 H 602.268 -4.29944 -4.84822 0
M  V30 6287 N 595.674 1.31259 -0.872281 0
M  V30 6288 C 596.621 2.28459 -0.327857 0
M  V30 6289 C 597.591 1.55831 0.574957 0
M  V30 6290 O 598.776 1.83965 0.506101 0
M  V30 6291 C 595.916 3.41985 0.462644 0
M  V30 6292 C 595.029 4.29458 -0.467949 0
M  V30 6293 C 594.164 5.30131 0.336903 0
M  V30 6294 C 593.203 6.0925 -0.58997 0
M  V30 6295 N 592.34 7.01872 0.178775 0
M  V30 6296 H 597.18 2.74414 -1.16193 0
M  V30 6297 H 594.717 1.34994 -0.584376 0
M  V30 6298 H 596.675 4.06547 0.936759 0
M  V30 6299 H 595.305 2.97134 1.2614 0
M  V30 6300 H 594.357 3.65318 -1.06052 0
M  V30 6301 H 595.669 4.84677 -1.17856 0
M  V30 6302 H 594.823 6.0038 0.873427 0
M  V30 6303 H 593.562 4.75573 1.08079 0
M  V30 6304 H 592.567 5.37889 -1.13823 0
M  V30 6305 H 593.792 6.65894 -1.33275 0
M  V30 6306 H 591.738 6.49721 0.905435 0
M  V30 6307 H 591.655 7.54522 -0.472452 0
M  V30 6308 H 592.923 7.76382 0.696454 0
M  V30 6309 N 597.152 0.631951 1.44375 0
M  V30 6310 C 598.085 -0.121822 2.27875 0
M  V30 6311 C 599.063 -0.850457 1.38586 0
M  V30 6312 O 600.247 -0.854378 1.68026 0
M  V30 6313 C 597.374 -1.17859 3.17533 0
M  V30 6314 C 596.42 -0.550391 4.22934 0
M  V30 6315 S 597.253 0.660145 5.31415 0
M  V30 6316 C 598.409 -0.396613 6.24642 0
M  V30 6317 H 598.642 0.586537 2.91457 0
M  V30 6318 H 596.175 0.420146 1.48574 0
M  V30 6319 H 598.133 -1.78335 3.69739 0
M  V30 6320 H 596.794 -1.85915 2.53169 0
M  V30 6321 H 595.987 -1.34631 4.85685 0
M  V30 6322 H 595.589 -0.0202306 3.73995 0
M  V30 6323 H 597.881 -1.26893 6.65511 0
M  V30 6324 H 598.824 0.195345 7.0783 0
M  V30 6325 H 599.232 -0.72288 5.59852 0
M  V30 6326 N 598.631 -1.53133 0.372548 0
M  V30 6327 C 599.594 -2.24569 -0.458389 0
M  V30 6328 C 600.594 -1.25603 -1.00402 0
M  V30 6329 O 601.784 -1.49827 -0.888672 0
M  V30 6330 C 598.916 -2.98783 -1.6414 0
M  V30 6331 H 600.109 -2.99436 0.166799 0
M  V30 6332 H 597.662 -1.55805 0.124357 0
M  V30 6333 H 598.397 -2.28176 -2.30448 0
M  V30 6334 H 598.182 -3.71404 -1.25704 0
M  V30 6335 H 599.672 -3.53068 -2.23008 0
M  V30 6336 N 600.109 -0.101901 -1.5727 0
M  V30 6337 C 601.334 0.571759 -1.99363 0
M  V30 6338 C 601.759 1.60507 -0.980768 0
M  V30 6339 O 601.117 1.81231 0.0498517 0
M  V30 6340 C 601.165 1.18996 -3.404 0
M  V30 6341 O 600.269 2.30572 -3.41922 0
M  V30 6342 H 599.61 0.144449 -0.648098 0
M  V30 6343 H 602.14 -0.185325 -2.03759 0
M  V30 6344 H 602.15 1.52962 -3.78241 0
M  V30 6345 H 600.825 0.432984 -4.1364 0
M  V30 6346 H 599.402 1.98173 -3.15883 0
M  V30 6347 N 601.587 1.56661 0.17182 0
M  V30 6348 C 602.812 1.86459 0.908165 0
M  V30 6349 C 603.237 0.688181 1.75059 0
M  V30 6350 O 602.595 -0.362753 1.77634 0
M  V30 6351 C 602.643 3.14669 1.76112 0
M  V30 6352 O 601.747 2.96858 2.86268 0
M  V30 6353 H 601.088 0.613318 0.254434 0
M  V30 6354 H 603.618 2.03892 0.170113 0
M  V30 6355 H 603.628 3.46061 2.16115 0
M  V30 6356 H 602.303 3.99905 1.14233 0
M  V30 6357 H 600.88 2.76819 2.49852 0
M  V30 6358 N 603.065 -0.440357 1.51323 0
M  V30 6359 C 604.29 -1.21716 1.67928 0
M  V30 6360 C 604.715 -1.84328 0.374826 0
M  V30 6361 O 604.073 -1.68675 -0.664706 0
M  V30 6362 C 604.121 -2.27914 2.79442 0
M  V30 6363 O 603.225 -3.33325 2.42834 0
M  V30 6364 H 602.566 -0.35674 0.560029 0
M  V30 6365 H 605.096 -0.520417 1.97871 0
M  V30 6366 H 605.106 -2.72746 3.03436 0
M  V30 6367 H 603.781 -1.8172 3.741 0
M  V30 6368 H 602.358 -2.9399 2.294 0
M  V30 6369 N 604.543 -1.41418 -0.695603 0
M  V30 6370 C 605.791 -1.40496 -1.45277 0
M  V30 6371 C 606.112 -0.0149538 -1.94994 0
M  V30 6372 O 605.382 0.9432 -1.71699 0
M  V30 6373 H 603.962 -0.517147 -0.539044 0
M  V30 6374 H 606.624 -1.76656 -0.823321 0
M  V30 6375 H 605.72 -2.09214 -2.31595 0
M  V30 6376 N 606.021 0.929856 -1.27246 0
M  V30 6377 C 606.931 2.0636 -1.11592 0
M  V30 6378 C 607.947 1.73938 -0.046496 0
M  V30 6379 O 609.123 1.9981 -0.252544 0
M  V30 6380 C 606.188 3.38213 -0.762437 0
M  V30 6381 C 605.249 3.84346 -1.9125 0
M  V30 6382 C 604.482 5.09906 -1.57579 0
M  V30 6383 O 604.705 5.68354 -0.482694 0
M  V30 6384 O 603.639 5.51359 -2.41426 0
M  V30 6385 H 607.465 2.22478 -2.0673 0
M  V30 6386 H 605.05 1.04865 -1.06413 0
M  V30 6387 H 606.932 4.1741 -0.57854 0
M  V30 6388 H 605.607 3.23307 0.159439 0
M  V30 6389 H 604.514 3.06045 -2.15144 0
M  V30 6390 H 605.847 4.0379 -2.81451 0
M  V30 6391 N 607.499 1.09233 1.13605 0
M  V30 6392 C 608.747 0.825525 1.84471 0
M  V30 6393 C 609.068 -0.650702 1.83823 0
M  V30 6394 O 608.338 -1.47204 1.29259 0
M  V30 6395 H 606.918 0.3024 0.683054 0
M  V30 6396 H 609.58 1.38006 1.37624 0
M  V30 6397 H 608.676 1.17727 2.89045 0
M  V30 6398 N 608.977 -1.30795 0.87923 0
M  V30 6399 C 609.924 -2.28282 0.339968 0
M  V30 6400 C 610.894 -1.56134 -0.566685 0
M  V30 6401 O 612.079 -1.84231 -0.496338 0
M  V30 6402 C 609.219 -3.42225 -0.444501 0
M  V30 6403 C 608.332 -4.29204 0.490717 0
M  V30 6404 C 607.467 -5.30302 -0.308784 0
M  V30 6405 C 606.506 -6.08929 0.622272 0
M  V30 6406 N 605.643 -7.01957 -0.14155 0
M  V30 6407 H 610.483 -2.73794 1.17647 0
M  V30 6408 H 608.02 -1.34682 0.591527 0
M  V30 6409 H 609.978 -4.07038 -0.915186 0
M  V30 6410 H 608.608 -2.97799 -1.24562 0
M  V30 6411 H 607.66 -3.6475 1.07988 0
M  V30 6412 H 608.972 -4.84045 1.20425 0
M  V30 6413 H 608.126 -6.00835 -0.841575 0
M  V30 6414 H 606.865 -4.7614 -1.05556 0
M  V30 6415 H 605.87 -5.37278 1.16674 0
M  V30 6416 H 607.095 -6.65178 1.36804 0
M  V30 6417 H 605.041 -6.50192 -0.870966 0
M  V30 6418 H 604.958 -7.54261 0.51246 0
M  V30 6419 H 606.226 -7.76741 -0.655271 0
M  V30 6420 N 610.455 -0.639598 -1.44038 0
M  V30 6421 C 611.365 0.0612377 -2.3452 0
M  V30 6422 C 612.381 0.826717 -1.53106 0
M  V30 6423 O 613.557 0.777059 -1.85806 0
M  V30 6424 C 610.622 1.02492 -3.31204 0
M  V30 6425 C 609.683 0.25788 -4.28525 0
M  V30 6426 C 608.916 1.17566 -5.2059 0
M  V30 6427 O 609.139 2.41461 -5.16771 0
M  V30 6428 O 608.073 0.655407 -5.98321 0
M  V30 6429 H 611.899 -0.68318 -2.95916 0
M  V30 6430 H 609.484 -0.399784 -1.43952 0
M  V30 6431 H 611.366 1.57911 -3.90694 0
M  V30 6432 H 610.041 1.7498 -2.7233 0
M  V30 6433 H 608.948 -0.339566 -3.72556 0
M  V30 6434 H 610.281 -0.427154 -4.90343 0
M  V30 6435 N 611.933 1.52934 -0.380664 0
M  V30 6436 C 612.863 2.29118 0.450268 0
M  V30 6437 C 613.844 1.32153 1.07096 0
M  V30 6438 O 615.029 1.61038 1.08537 0
M  V30 6439 C 612.159 3.09161 1.58231 0
M  V30 6440 C 611.113 4.13938 1.0881 0
M  V30 6441 C 610.439 4.82153 2.31155 0
M  V30 6442 C 611.739 5.22048 0.162146 0
M  V30 6443 H 613.433 2.98826 -0.185361 0
M  V30 6444 H 610.979 1.43715 -0.0905886 0
M  V30 6445 H 612.932 3.61211 2.17036 0
M  V30 6446 H 611.656 2.3717 2.2454 0
M  V30 6447 H 610.315 3.62855 0.522633 0
M  V30 6448 H 609.963 4.06719 2.95953 0
M  V30 6449 H 609.663 5.52966 1.98752 0
M  V30 6450 H 611.187 5.37004 2.90618 0
M  V30 6451 H 612.601 5.6951 0.658126 0
M  V30 6452 H 610.998 6.00057 -0.0717122 0
M  V30 6453 H 612.068 4.78398 -0.791438 0
M  V30 6454 N 613.412 0.11024 1.57214 0
M  V30 6455 C 614.642 -0.557025 1.98949 0
M  V30 6456 C 615.05 -1.61317 0.988606 0
M  V30 6457 O 614.393 -1.83679 -0.0279159 0
M  V30 6458 C 614.455 -1.24956 3.37085 0
M  V30 6459 C 614.119 -0.342398 4.55716 0
M  V30 6460 C 615.116 0.415511 5.18237 0
M  V30 6461 C 612.801 -0.256029 5.01647 0
M  V30 6462 C 614.795 1.24761 6.25071 0
M  V30 6463 C 612.482 0.579713 6.08344 0
M  V30 6464 C 613.48 1.33017 6.69922 0
M  V30 6465 O 613.168 2.15205 7.74559 0
M  V30 6466 H 612.9 -0.152792 0.658506 0
M  V30 6467 H 615.454 0.19076 2.04512 0
M  V30 6468 H 613.684 -2.04424 3.2825 0
M  V30 6469 H 615.373 -1.81286 3.63167 0
M  V30 6470 H 616.139 0.358605 4.83672 0
M  V30 6471 H 612.018 -0.829831 4.5347 0
M  V30 6472 H 615.562 1.83386 6.73064 0
M  V30 6473 H 611.459 0.638044 6.42339 0
M  V30 6474 H 612.227 2.08052 7.91617 0
M  V30 6475 N 614.89 -1.56749 -0.16351 0
M  V30 6476 C 615.82 -2.00042 -1.20438 0
M  V30 6477 C 616.801 -0.877256 -1.45733 0
M  V30 6478 O 617.986 -1.1439 -1.56935 0
M  V30 6479 C 615.116 -2.36697 -2.54149 0
M  V30 6480 C 614.07 -3.52046 -2.43408 0
M  V30 6481 C 613.396 -3.74466 -3.81679 0
M  V30 6482 C 614.696 -4.85247 -1.93216 0
M  V30 6483 H 616.39 -2.87244 -0.844477 0
M  V30 6484 H 613.936 -1.38194 -0.40478 0
M  V30 6485 H 615.889 -2.65582 -3.27176 0
M  V30 6486 H 614.613 -1.46414 -2.91943 0
M  V30 6487 H 613.272 -3.23301 -1.72834 0
M  V30 6488 H 612.92 -2.81461 -4.1688 0
M  V30 6489 H 612.62 -4.52084 -3.75359 0
M  V30 6490 H 614.144 -4.0576 -4.5628 0
M  V30 6491 H 615.558 -5.12957 -2.56023 0
M  V30 6492 H 613.955 -5.66556 -1.97825 0
M  V30 6493 H 615.025 -4.7672 -0.88689 0
M  V30 6494 N 616.368 0.432326 -1.51554 0
M  V30 6495 C 617.593 1.20824 -1.68571 0
M  V30 6496 C 618.018 1.84126 -0.384596 0
M  V30 6497 O 617.376 1.69025 0.655751 0
M  V30 6498 C 617.424 2.26429 -2.80646 0
M  V30 6499 O 616.528 3.32032 -2.44598 0
M  V30 6500 H 615.869 0.353765 -0.561913 0
M  V30 6501 H 618.399 0.509916 -1.98144 0
M  V30 6502 H 618.409 2.71133 -3.04878 0
M  V30 6503 H 617.084 1.79733 -3.75058 0
M  V30 6504 H 615.661 2.92769 -2.30956 0
M  V30 6505 N 617.846 1.41785 0.688094 0
M  V30 6506 C 619.092 1.42753 1.4489 0
M  V30 6507 C 619.447 0.0384235 1.92362 0
M  V30 6508 O 618.74 -0.937066 1.67122 0
M  V30 6509 C 618.934 2.37532 2.67046 0
M  V30 6510 C 618.763 3.85521 2.31525 0
M  V30 6511 C 617.533 4.54152 2.21527 0
M  V30 6512 C 619.731 4.76299 1.94019 0
M  V30 6513 N 617.713 5.87233 1.78969 0
M  V30 6514 C 619.084 5.98386 1.62279 0
M  V30 6515 C 621.139 4.63877 1.80895 0
M  V30 6516 C 619.842 7.09433 1.18732 0
M  V30 6517 C 621.868 5.74893 1.38752 0
M  V30 6518 C 621.23 6.96083 1.07927 0
M  V30 6519 H 617.329 0.577575 0.527192 0
M  V30 6520 H 619.913 1.77713 0.795375 0
M  V30 6521 H 618.084 2.04656 3.30107 0
M  V30 6522 H 619.816 2.29169 3.33562 0
M  V30 6523 H 616.571 4.08188 2.40166 0
M  V30 6524 H 616.995 6.57785 1.60151 0
M  V30 6525 H 621.637 3.70671 2.03378 0
M  V30 6526 H 619.355 8.02497 0.949937 0
M  V30 6527 H 622.941 5.67287 1.29136 0
M  V30 6528 H 621.821 7.80527 0.758111 0
M  V30 6529 N 619.324 -0.923095 1.27737 0
M  V30 6530 C 620.57 -1.67375 1.14514 0
M  V30 6531 C 620.903 -1.91751 -0.307424 0
M  V30 6532 O 620.178 -1.51119 -1.22447 0
M  V30 6533 C 620.461 -3.03745 1.9342 0
M  V30 6534 C 620.314 -2.86581 3.46686 0
M  V30 6535 C 621.633 -4.04144 1.74228 0
M  V30 6536 H 618.752 -0.607427 0.417374 0
M  V30 6537 H 621.394 -1.07089 1.56946 0
M  V30 6538 H 619.544 -3.55204 1.5736 0
M  V30 6539 H 621.216 -2.42203 3.92601 0
M  V30 6540 H 619.459 -2.21829 3.72793 0
M  V30 6541 H 620.13 -3.83381 3.97143 0
M  V30 6542 H 622.606 -3.61712 2.05678 0
M  V30 6543 H 621.482 -4.97543 2.31824 0
M  V30 6544 H 621.743 -4.36661 0.691373 0
M  V30 6545 N 620.802 -1.09834 -1.13024 0
M  V30 6546 C 622.048 -0.83819 -1.84668 0
M  V30 6547 C 622.381 0.634645 -1.83537 0
M  V30 6548 O 621.656 1.46753 -1.27647 0
M  V30 6549 C 621.939 -1.37933 -3.32636 0
M  V30 6550 C 621.792 -2.91857 -3.42257 0
M  V30 6551 C 623.111 -1.01654 -4.28199 0
M  V30 6552 H 620.23 -0.30595 -0.670495 0
M  V30 6553 H 622.872 -1.36044 -1.32635 0
M  V30 6554 H 621.022 -0.935111 -3.77078 0
M  V30 6555 H 622.694 -3.44759 -3.06495 0
M  V30 6556 H 620.937 -3.28776 -2.83 0
M  V30 6557 H 621.608 -3.24799 -4.46329 0
M  V30 6558 H 624.084 -1.39973 -3.9185 0
M  V30 6559 H 622.96 -1.42217 -5.30156 0
M  V30 6560 H 623.221 0.0747794 -4.42037 0
M  V30 6561 N 622.28 1.30327 -0.886154 0
M  V30 6562 C 623.19 2.31854 -0.357866 0
M  V30 6563 C 624.206 1.65392 0.540502 0
M  V30 6564 O 625.382 1.96683 0.433339 0
M  V30 6565 C 622.447 3.44171 0.417999 0
M  V30 6566 C 621.508 4.26257 -0.510263 0
M  V30 6567 C 620.741 5.3321 0.228669 0
M  V30 6568 O 620.964 5.51542 1.45458 0
M  V30 6569 O 619.898 6.0042 -0.421832 0
M  V30 6570 H 623.724 2.78995 -1.19982 0
M  V30 6571 H 621.309 1.34518 -0.650028 0
M  V30 6572 H 623.191 4.12588 0.857251 0
M  V30 6573 H 621.866 2.99164 1.23623 0
M  V30 6574 H 620.773 3.60533 -0.99835 0
M  V30 6575 H 622.106 4.74871 -1.29454 0
M  V30 6576 N 623.758 0.647228 1.43697 0
M  V30 6577 C 624.721 -0.0385101 2.29168 0
M  V30 6578 C 625.721 -0.756487 1.41894 0
M  V30 6579 O 626.911 -0.598641 1.63591 0
M  V30 6580 C 624.043 -1.06524 3.23829 0
M  V30 6581 H 625.236 0.713445 2.9129 0
M  V30 6582 H 622.789 0.408153 1.50877 0
M  V30 6583 H 623.524 -1.84664 2.66589 0
M  V30 6584 H 623.309 -0.554147 3.88164 0
M  V30 6585 H 624.799 -1.54432 3.87996 0
M  V30 6586 N 625.236 -1.5273 0.388769 0
M  V30 6587 C 626.652 -1.59553 0.0387049 0
M  V30 6588 C 626.852 -1.40278 -1.44652 0
M  V30 6589 O 625.908 -1.21951 -2.21098 0
M  V30 6590 C 627.221 -2.9625 0.515409 0
M  V30 6591 C 628.769 -3.09426 0.471621 0
M  V30 6592 C 629.244 -4.48572 0.924505 0
M  V30 6593 N 630.735 -4.54754 0.880496 0
M  V30 6594 C 631.47 -5.60653 1.20234 0
M  V30 6595 N 630.966 -6.74198 1.59463 0
M  V30 6596 N 632.759 -5.50755 1.12363 0
M  V30 6597 H 624.91 -1.63508 1.35569 0
M  V30 6598 H 627.173 -0.768097 0.555636 0
M  V30 6599 H 626.879 -3.15569 1.5527 0
M  V30 6600 H 626.753 -3.77102 -0.085792 0
M  V30 6601 H 629.14 -2.89804 -0.556588 0
M  V30 6602 H 629.221 -2.30528 1.10862 0
M  V30 6603 H 628.865 -4.68936 1.95094 0
M  V30 6604 H 628.795 -5.25935 0.264524 0
M  V30 6605 H 631.286 -3.73237 0.591815 0
M  V30 6606 H 631.599 -7.5097 1.82385 0
M  V30 6607 H 629.944 -6.75531 1.63349 0
M  V30 6608 H 633.135 -4.6093 0.816169 0
M  V30 6609 H 633.308 -6.33184 1.37777 0
M  V30 6610 N 626.714 -0.118576 -1.57153 0
M  V30 6611 C 628.13 0.238014 -1.57815 0
M  V30 6612 C 628.33 1.66747 -1.13127 0
M  V30 6613 O 627.386 2.38867 -0.818462 0
M  V30 6614 C 628.699 0.00508207 -3.007 0
M  V30 6615 C 630.247 0.0710139 -3.12919 0
M  V30 6616 C 630.722 -0.13422 -4.57803 0
M  V30 6617 N 632.213 -0.0801755 -4.63131 0
M  V30 6618 C 632.948 -0.213885 -5.73001 0
M  V30 6619 N 632.444 -0.403742 -6.91623 0
M  V30 6620 N 634.237 -0.15349 -5.6189 0
M  V30 6621 H 626.388 -1.05226 -1.84503 0
M  V30 6622 H 628.651 -0.414318 -0.852669 0
M  V30 6623 H 628.357 -0.983125 -3.3768 0
M  V30 6624 H 628.231 0.73714 -3.69927 0
M  V30 6625 H 630.618 1.04975 -2.75798 0
M  V30 6626 H 630.699 -0.692918 -2.46236 0
M  V30 6627 H 630.343 -1.10992 -4.95624 0
M  V30 6628 H 630.273 0.649692 -5.22577 0
M  V30 6629 H 632.764 0.0630689 -3.77847 0
M  V30 6630 H 633.077 -0.496645 -7.71202 0
M  V30 6631 H 631.422 -0.43971 -6.93608 0
M  V30 6632 H 634.613 -0.00613174 -4.681 0
M  V30 6633 H 634.786 -0.261138 -6.47474 0
M  V30 6634 N 628.193 1.56834 0.155195 0
M  V30 6635 C 629.143 1.94061 1.19684 0
M  V30 6636 C 630.127 0.810851 1.38975 0
M  V30 6637 O 631.319 1.07422 1.40675 0
M  V30 6638 C 628.448 2.31778 2.53247 0
M  V30 6639 C 627.534 3.51305 2.37583 0
M  V30 6640 N 627.925 4.68081 1.9166 0
M  V30 6641 C 626.223 3.56228 2.6836 0
M  V30 6642 C 626.924 5.50193 1.88845 0
M  V30 6643 N 625.9 4.91676 2.31852 0
M  V30 6644 H 629.702 2.81826 0.833747 0
M  V30 6645 H 627.216 1.58284 0.363328 0
M  V30 6646 H 629.213 2.56649 3.28538 0
M  V30 6647 H 627.873 1.4536 2.90346 0
M  V30 6648 H 628.884 4.91993 1.6175 0
M  V30 6649 H 625.561 2.8033 3.09389 0
M  V30 6650 H 626.951 6.53801 1.54901 0
M  V30 6651 N 629.671 -0.424282 1.51781 0
M  V30 6652 C 630.92 -1.16961 1.64326 0
M  V30 6653 C 631.233 -1.92035 0.371749 0
M  V30 6654 O 632.439 -2.68873 0.37676 0
M  V30 6655 C 630.895 -2.12782 2.90262 0
M  V30 6656 C 630.503 -1.43295 4.24465 0
M  V30 6657 C 632.247 -2.87667 3.12166 0
M  V30 6658 C 630.154 -2.37676 5.41538 0
M  V30 6659 H 629.084 -0.440293 0.612093 0
M  V30 6660 H 631.735 -0.435431 1.78259 0
M  V30 6661 H 630.117 -2.8969 2.69992 0
M  V30 6662 H 631.291 -0.718564 4.55163 0
M  V30 6663 H 629.606 -0.805118 4.08542 0
M  V30 6664 H 632.203 -3.58395 3.96808 0
M  V30 6665 H 632.546 -3.49758 2.25776 0
M  V30 6666 H 633.079 -2.17863 3.32837 0
M  V30 6667 H 629.818 -1.80255 6.30229 0
M  V30 6668 H 629.338 -3.07132 5.15199 0
M  V30 6669 H 631.017 -2.98529 5.74012 0
M  V30 6670 N 631.149 -1.42148 -0.680565 0
M  V30 6671 C 632.079 -1.4796 -1.80638 0
M  V30 6672 C 633.06 -0.336728 -1.66734 0
M  V30 6673 O 634.245 -0.550247 -1.86242 0
M  V30 6674 C 631.375 -1.37569 -3.18892 0
M  V30 6675 C 630.329 -2.49823 -3.47524 0
M  V30 6676 C 629.655 -2.24491 -4.85291 0
M  V30 6677 C 630.955 -3.92144 -3.44994 0
M  V30 6678 H 632.649 -2.42184 -1.76032 0
M  V30 6679 H 630.195 -1.16566 -0.845481 0
M  V30 6680 H 632.148 -1.40243 -3.97379 0
M  V30 6681 H 630.872 -0.398357 -3.24162 0
M  V30 6682 H 629.531 -2.46455 -2.71395 0
M  V30 6683 H 629.179 -1.25066 -4.87204 0
M  V30 6684 H 628.879 -2.99722 -5.05411 0
M  V30 6685 H 630.403 -2.28906 -5.66069 0
M  V30 6686 H 631.817 -3.97145 -4.13459 0
M  V30 6687 H 630.214 -4.67179 -3.76648 0
M  V30 6688 H 631.284 -4.19225 -2.43676 0
M  V30 6689 N 632.627 0.916307 -1.28225 0
M  V30 6690 C 633.59 1.99996 -1.11957 0
M  V30 6691 C 634.59 1.60688 -0.0600152 0
M  V30 6692 O 635.78 1.71499 -0.30558 0
M  V30 6693 C 632.912 3.33458 -0.708411 0
M  V30 6694 H 634.105 2.15858 -2.08196 0
M  V30 6695 H 631.658 1.09863 -1.11175 0
M  V30 6696 H 632.393 3.23297 0.254859 0
M  V30 6697 H 632.178 3.63349 -1.47377 0
M  V30 6698 H 633.668 4.13014 -0.617164 0
M  V30 6699 N 634.105 1.10431 1.1244 0
M  V30 6700 C 635.354 0.841539 1.83306 0
M  V30 6701 C 635.667 -0.634961 1.85007 0
M  V30 6702 O 636.873 -1.01363 2.51869 0
M  V30 6703 C 635.329 1.45565 3.29149 0
M  V30 6704 C 634.937 2.96544 3.35806 0
M  V30 6705 C 636.681 1.27227 4.04986 0
M  V30 6706 C 634.588 3.5099 4.75983 0
M  V30 6707 H 633.518 0.311156 0.686803 0
M  V30 6708 H 636.169 1.32829 1.26604 0
M  V30 6709 H 634.551 0.896574 3.85717 0
M  V30 6710 H 635.725 3.58766 2.89177 0
M  V30 6711 H 634.04 3.14036 2.73442 0
M  V30 6712 H 636.637 1.65348 5.08492 0
M  V30 6713 H 636.98 0.213834 4.1575 0
M  V30 6714 H 637.513 1.79941 3.54776 0
M  V30 6715 H 634.252 4.56499 4.70413 0
M  V30 6716 H 633.772 2.93535 5.23065 0
M  V30 6717 H 635.451 3.48808 5.44924 0
M  V30 6718 N 635.583 -1.29855 0.893053 0
M  V30 6719 C 636.513 -2.3035 0.382249 0
M  V30 6720 C 637.494 -1.61328 -0.539203 0
M  V30 6721 O 638.679 -1.88882 -0.451342 0
M  V30 6722 C 635.809 -3.45024 -0.396983 0
M  V30 6723 C 634.763 -4.258 0.433437 0
M  V30 6724 C 634.089 -5.32605 -0.472889 0
M  V30 6725 C 635.389 -4.94549 1.67984 0
M  V30 6726 H 637.083 -2.73325 1.22205 0
M  V30 6727 H 634.629 -1.314 0.589073 0
M  V30 6728 H 636.582 -4.14398 -0.765024 0
M  V30 6729 H 635.306 -3.00875 -1.2705 0
M  V30 6730 H 633.965 -3.58125 0.783723 0
M  V30 6731 H 633.613 -4.84702 -1.34435 0
M  V30 6732 H 633.313 -5.87547 0.0789958 0
M  V30 6733 H 634.837 -6.04832 -0.837269 0
M  V30 6734 H 636.251 -5.56395 1.38192 0
M  V30 6735 H 634.648 -5.59393 2.17254 0
M  V30 6736 H 635.718 -4.20215 2.41965 0
M  V30 6737 N 637.061 -0.65484 -1.43351 0
M  V30 6738 C 637.993 0.0744757 -2.29079 0
M  V30 6739 C 639.006 0.7855 -1.42596 0
M  V30 6740 O 640.195 0.642986 -1.66517 0
M  V30 6741 C 637.295 1.12859 -3.19556 0
M  V30 6742 C 636.468 0.495381 -4.34586 0
M  V30 6743 C 635.527 1.44659 -5.05925 0
M  V30 6744 O 634.553 0.954567 -5.61139 0
M  V30 6745 N 635.755 2.78051 -5.09576 0
M  V30 6746 H 638.52 -0.661346 -2.92312 0
M  V30 6747 H 636.081 -0.497744 -1.54059 0
M  V30 6748 H 638.073 1.76577 -3.64147 0
M  V30 6749 H 636.643 1.76636 -2.57912 0
M  V30 6750 H 635.863 -0.32092 -3.92892 0
M  V30 6751 H 637.151 0.0534203 -5.08772 0
M  V30 6752 H 636.549 3.20584 -4.66093 0
M  V30 6753 H 635.106 3.37068 -5.57878 0
M  V30 6754 N 638.539 1.52521 -0.396863 0
M  V30 6755 C 639.816 1.94112 0.240842 0
M  V30 6756 C 640.196 1.33288 1.637 0
M  V30 6757 O 639.544 0.503901 2.22875 0
M  V30 6758 C 639.754 3.48033 0.259567 0
M  V30 6759 C 641.102 4.21822 0.484866 0
M  V30 6760 O 642.126 3.54579 0.339453 0
M  V30 6761 O 640.985 5.41042 0.770412 0
M  V30 6762 H 638.079 0.812973 0.151671 0
M  V30 6763 H 640.625 1.63572 -0.451918 0
M  V30 6764 H 639.397 3.84655 -0.718078 0
M  V30 6765 H 639.02 3.84899 0.996937 0
M  V30 6766 N 640.017 0.126909 1.57088 0
M  V30 6767 C 641.257 -0.53216 1.97351 0
M  V30 6768 C 641.621 -1.63342 1.00913 0
M  V30 6769 O 642.822 -2.35194 1.30144 0
M  V30 6770 C 641.093 -1.04385 3.41817 0
M  V30 6771 S 642.652 -1.71033 4.04095 0
M  V30 6772 H 639.47 -0.172724 0.689701 0
M  V30 6773 H 642.072 0.213865 1.94327 0
M  V30 6774 H 640.776 -0.231289 4.09748 0
M  V30 6775 H 640.307 -1.82496 3.48509 0
M  V30 6776 H 642.322 -2.99656 3.95501 0
M  V30 6777 N 641.495 -1.56914 -0.146875 0
M  V30 6778 C 642.906 -1.72799 -0.706928 0
M  V30 6779 C 643.257 -0.741329 -1.81656 0
M  V30 6780 O 642.382 0.0920162 -2.16204 0
M  V30 6781 C 642.977 -3.13317 -1.28911 0
M  V30 6782 C 641.536 -3.30803 -1.79573 0
M  V30 6783 C 640.683 -2.68725 -0.684252 0
M  V30 6784 H 643.634 -1.58504 0.0787931 0
M  V30 6785 H 643.655 -3.13323 -2.15891 0
M  V30 6786 H 643.167 -3.85104 -0.481284 0
M  V30 6787 H 641.268 -2.64012 -2.62923 0
M  V30 6788 H 641.381 -4.38754 -1.92436 0
M  V30 6789 H 639.745 -2.29196 -1.11091 0
M  V30 6790 H 640.528 -3.43117 0.112134 0
M  V30 6791 N 642.974 0.416227 -1.52004 0
M  V30 6792 C 644.199 1.19029 -1.69843 0
M  V30 6793 C 644.624 1.83708 -0.404103 0
M  V30 6794 O 643.982 1.69711 0.637787 0
M  V30 6795 C 644.03 2.23439 -2.83032 0
M  V30 6796 O 643.134 3.29419 -2.48106 0
M  V30 6797 H 642.475 0.347785 -0.565634 0
M  V30 6798 H 645.005 0.488871 -1.98674 0
M  V30 6799 H 645.015 2.67884 -3.07737 0
M  V30 6800 H 643.69 1.75745 -3.76944 0
M  V30 6801 H 642.267 2.90303 -2.34048 0
M  V30 6802 N 644.452 1.42507 0.673017 0
M  V30 6803 C 645.382 1.48916 1.79851 0
M  V30 6804 C 646.363 0.345566 1.66553 0
M  V30 6805 O 647.548 0.560116 1.85947 0
M  V30 6806 C 644.678 1.39258 3.18158 0
M  V30 6807 C 643.632 2.51662 3.46194 0
M  V30 6808 C 642.958 2.27062 4.84094 0
M  V30 6809 C 644.258 3.93968 3.42909 0
M  V30 6810 H 645.952 2.43114 1.74745 0
M  V30 6811 H 643.498 1.17013 0.839288 0
M  V30 6812 H 645.451 1.42349 3.96629 0
M  V30 6813 H 644.175 0.415542 3.23946 0
M  V30 6814 H 642.834 2.47891 2.70084 0
M  V30 6815 H 642.482 1.27648 4.86534 0
M  V30 6816 H 642.182 3.02398 5.03815 0
M  V30 6817 H 643.706 2.31905 5.64847 0
M  V30 6818 H 645.12 3.99332 4.11347 0
M  V30 6819 H 643.517 4.6917 3.74165 0
M  V30 6820 H 644.587 4.20512 2.41449 0
M  V30 6821 N 645.93 -0.909495 1.28709 0
M  V30 6822 C 647.346 -1.18862 1.06508 0
M  V30 6823 C 647.546 -2.00604 -0.189864 0
M  V30 6824 O 646.602 -2.36281 -0.890355 0
M  V30 6825 C 647.915 -1.91908 2.31499 0
M  V30 6826 C 649.463 -2.04773 2.36721 0
M  V30 6827 C 649.938 -2.81228 3.6149 0
M  V30 6828 N 651.429 -2.88787 3.62155 0
M  V30 6829 C 652.164 -3.48455 4.55375 0
M  V30 6830 N 651.66 -4.09369 5.58918 0
M  V30 6831 N 653.453 -3.46035 4.42963 0
M  V30 6832 H 645.604 -0.363867 2.0926 0
M  V30 6833 H 647.867 -0.223649 0.921241 0
M  V30 6834 H 647.573 -1.39275 3.22948 0
M  V30 6835 H 647.447 -2.92436 2.38245 0
M  V30 6836 H 649.834 -2.56585 1.45767 0
M  V30 6837 H 649.915 -1.03408 2.33967 0
M  V30 6838 H 649.559 -2.30094 4.5279 0
M  V30 6839 H 649.489 -3.82917 3.61499 0
M  V30 6840 H 651.98 -2.45514 2.87283 0
M  V30 6841 H 652.293 -4.52891 6.26187 0
M  V30 6842 H 650.638 -4.0786 5.62739 0
M  V30 6843 H 653.829 -2.9766 3.6127 0
M  V30 6844 H 654.002 -3.92244 5.15799 0
M  V30 6845 N 647.408 -1.11026 -1.11852 0
M  V30 6846 C 648.819 -0.873203 -1.65021 0
M  V30 6847 C 649.17 0.595364 -1.86949 0
M  V30 6848 O 648.295 1.45645 -1.60051 0
M  V30 6849 C 648.89 -1.57859 -2.99777 0
M  V30 6850 C 647.449 -1.38807 -3.49871 0
M  V30 6851 C 646.596 -1.62403 -2.24768 0
M  V30 6852 H 649.547 -1.26712 -0.955503 0
M  V30 6853 H 649.568 -1.02111 -3.66543 0
M  V30 6854 H 649.08 -2.6474 -2.83786 0
M  V30 6855 H 647.181 -0.341163 -3.71035 0
M  V30 6856 H 647.294 -2.13421 -4.28938 0
M  V30 6857 H 645.658 -1.04714 -2.32179 0
M  V30 6858 H 646.441 -2.70549 -2.11324 0
M  V30 6859 N 648.886 1.2938 -0.899927 0
M  V30 6860 C 650.297 1.77644 -0.574427 0
M  V30 6861 C 650.648 1.73824 0.909928 0
M  V30 6862 O 649.773 1.32429 1.71147 0
M  V30 6863 C 650.368 3.22573 -1.03595 0
M  V30 6864 C 648.927 3.68614 -0.76161 0
M  V30 6865 C 648.074 2.49483 -1.21052 0
M  V30 6866 H 651.025 1.16038 -1.08263 0
M  V30 6867 H 651.046 3.78684 -0.371337 0
M  V30 6868 H 650.558 3.25321 -2.11631 0
M  V30 6869 H 648.659 3.7134 0.306127 0
M  V30 6870 H 648.772 4.59402 -1.35965 0
M  V30 6871 H 647.136 2.46798 -0.629515 0
M  V30 6872 H 647.919 2.54959 -2.29893 0
M  V30 6873 N 650.364 0.662433 1.43002 0
M  V30 6874 C 651.613 0.176873 2.00923 0
M  V30 6875 C 651.926 -1.21954 1.52927 0
M  V30 6876 O 653.132 -1.80081 2.03182 0
M  V30 6877 C 651.588 0.265379 3.5892 0
M  V30 6878 C 651.196 1.66507 4.15908 0
M  V30 6879 C 652.94 -0.162103 4.2419 0
M  V30 6880 C 650.847 1.707 5.66229 0
M  V30 6881 H 649.777 0.0623627 0.751417 0
M  V30 6882 H 652.428 0.825813 1.63868 0
M  V30 6883 H 650.81 -0.451235 3.93421 0
M  V30 6884 H 651.984 2.40777 3.92891 0
M  V30 6885 H 650.299 2.03932 3.63044 0
M  V30 6886 H 652.896 -0.150745 5.34487 0
M  V30 6887 H 653.239 -1.19519 3.98774 0
M  V30 6888 H 653.772 0.503075 3.94606 0
M  V30 6889 H 650.511 2.7195 5.96426 0
M  V30 6890 H 650.031 1.00768 5.91275 0
M  V30 6891 H 651.71 1.45487 6.3043 0
M  V30 6892 N 651.842 -1.52309 0.404946 0
M  V30 6893 C 653.119 -1.94237 -0.230544 0
M  V30 6894 C 653.499 -1.34154 -1.6299 0
M  V30 6895 O 652.847 -0.515713 -2.22604 0
M  V30 6896 C 653.057 -3.48166 -0.241106 0
M  V30 6897 C 654.405 -4.22074 -0.462488 0
M  V30 6898 O 655.429 -3.54754 -0.320644 0
M  V30 6899 O 654.288 -5.41443 -0.741708 0
M  V30 6900 H 651.382 -0.813766 -0.147358 0
M  V30 6901 H 653.928 -1.6333 0.460587 0
M  V30 6902 H 652.7 -3.84269 0.738467 0
M  V30 6903 H 652.323 -3.85422 -0.97651 0
M  V30 6904 N 653.32 -0.135238 -1.57019 0
M  V30 6905 C 654.27 0.820408 -2.12728 0
M  V30 6906 C 655.254 1.21735 -1.05211 0
M  V30 6907 O 656.446 1.18574 -1.31413 0
M  V30 6908 C 653.575 2.06414 -2.74314 0
M  V30 6909 C 652.661 1.69083 -3.88937 0
M  V30 6910 N 653.052 1.0251 -4.95303 0
M  V30 6911 C 651.35 1.98434 -3.99425 0
M  V30 6912 C 652.051 0.846749 -5.75504 0
M  V30 6913 N 651.027 1.3769 -5.25873 0
M  V30 6914 H 654.829 0.302426 -2.9234 0
M  V30 6915 H 652.343 0.0667009 -1.62263 0
M  V30 6916 H 654.34 2.75863 -3.12579 0
M  V30 6917 H 653 2.58741 -1.96171 0
M  V30 6918 H 654.011 0.687207 -5.1332 0
M  V30 6919 H 650.688 2.52693 -3.32344 0
M  V30 6920 H 652.078 0.322949 -6.71123 0
M  V30 6921 N 654.798 1.5699 0.138552 0
M  V30 6922 C 655.728 2.01933 1.17241 0
M  V30 6923 C 656.709 0.90033 1.44319 0
M  V30 6924 O 657.894 1.16872 1.55095 0
M  V30 6925 C 655.024 2.40711 2.50351 0
M  V30 6926 C 653.978 3.55874 2.37776 0
M  V30 6927 C 653.304 3.80491 3.75674 0
M  V30 6928 C 654.604 4.8826 1.85472 0
M  V30 6929 H 656.298 2.88551 0.798672 0
M  V30 6930 H 653.844 1.3882 0.382743 0
M  V30 6931 H 655.797 2.70754 3.22909 0
M  V30 6932 H 654.521 1.5104 2.89576 0
M  V30 6933 H 653.18 3.2601 1.67669 0
M  V30 6934 H 652.828 2.88057 4.12349 0
M  V30 6935 H 652.528 4.57998 3.68119 0
M  V30 6936 H 654.052 4.12967 4.49767 0
M  V30 6937 H 655.466 5.16965 2.4783 0
M  V30 6938 H 653.863 5.69631 1.88787 0
M  V30 6939 H 654.933 4.78071 0.810935 0
M  V30 6940 N 656.276 -0.40816 1.52223 0
M  V30 6941 C 657.516 -1.16418 1.68006 0
M  V30 6942 C 657.88 -1.87749 0.401793 0
M  V30 6943 O 659.081 -2.65245 0.435743 0
M  V30 6944 C 657.352 -2.13143 2.86889 0
M  V30 6945 S 658.911 -2.96839 3.2316 0
M  V30 6946 H 655.729 -0.394373 0.5916 0
M  V30 6947 H 658.331 -0.451349 1.90219 0
M  V30 6948 H 657.035 -1.59428 3.78168 0
M  V30 6949 H 656.566 -2.88963 2.66953 0
M  V30 6950 H 658.581 -4.151 2.71857 0
M  V30 6951 N 657.755 -1.42862 -0.66545 0
M  V30 6952 C 658.665 -1.49491 -1.80803 0
M  V30 6953 C 659.681 -0.382914 -1.69734 0
M  V30 6954 O 660.857 -0.635223 -1.9112 0
M  V30 6955 C 657.922 -1.40383 -3.17007 0
M  V30 6956 C 656.983 -2.62152 -3.39963 0
M  V30 6957 C 656.216 -2.53469 -4.69669 0
M  V30 6958 O 656.439 -1.57568 -5.48205 0
M  V30 6959 O 655.373 -3.43763 -4.94075 0
M  V30 6960 H 659.199 -2.45949 -1.78165 0
M  V30 6961 H 656.784 -1.24728 -0.822387 0
M  V30 6962 H 658.666 -1.377 -3.98267 0
M  V30 6963 H 657.341 -0.470546 -3.20262 0
M  V30 6964 H 656.248 -2.70409 -2.58515 0
M  V30 6965 H 657.581 -3.54411 -3.41546 0
M  V30 6966 N 659.233 0.902656 -1.29189 0
M  V30 6967 C 660.163 2.02294 -1.16616 0
M  V30 6968 C 661.144 1.6999 -0.0611175 0
M  V30 6969 O 662.329 1.9271 -0.240072 0
M  V30 6970 C 659.459 3.37018 -0.83882 0
M  V30 6971 C 658.413 3.83522 -1.89986 0
M  V30 6972 C 657.739 5.15337 -1.42589 0
M  V30 6973 C 659.039 4.04169 -3.30824 0
M  V30 6974 H 660.733 2.13071 -2.10336 0
M  V30 6975 H 658.279 1.02378 -1.01266 0
M  V30 6976 H 660.232 4.14895 -0.737584 0
M  V30 6977 H 658.956 3.26325 0.134071 0
M  V30 6978 H 657.615 3.07859 -1.99043 0
M  V30 6979 H 657.263 5.01056 -0.441759 0
M  V30 6980 H 656.963 5.47423 -2.13547 0
M  V30 6981 H 658.487 5.95758 -1.3381 0
M  V30 6982 H 659.901 4.72537 -3.24626 0
M  V30 6983 H 658.298 4.47604 -3.99713 0
M  V30 6984 H 659.368 3.08604 -3.74021 0
M  V30 6985 N 660.711 1.11618 1.11262 0
M  V30 6986 C 661.641 0.79846 2.19424 0
M  V30 6987 C 662.622 -0.234003 1.68483 0
M  V30 6988 O 663.807 -0.0970704 1.93957 0
M  V30 6989 C 660.937 0.242892 3.4645 0
M  V30 6990 C 659.891 1.20744 4.10615 0
M  V30 6991 C 659.217 0.512494 5.32238 0
M  V30 6992 C 660.517 2.55884 4.55325 0
M  V30 6993 H 662.211 1.70286 2.46258 0
M  V30 6994 H 659.757 0.820195 1.18359 0
M  V30 6995 H 661.71 0.00840447 4.21399 0
M  V30 6996 H 660.434 -0.696811 3.1908 0
M  V30 6997 H 659.093 1.42759 3.37662 0
M  V30 6998 H 658.741 -0.432075 5.01141 0
M  V30 6999 H 658.441 1.15583 5.7612 0
M  V30 7000 H 659.965 0.286842 6.09926 0
M  V30 7001 H 661.379 2.37946 5.21588 0
M  V30 7002 H 659.776 3.16216 5.10027 0
M  V30 7003 H 660.846 3.14968 3.68678 0
M  V30 7004 N 662.189 -1.289 0.906776 0
M  V30 7005 C 663.6 -1.77336 0.58384 0
M  V30 7006 C 663.951 -1.74304 -0.900697 0
M  V30 7007 O 663.076 -1.33335 -1.70443 0
M  V30 7008 C 663.671 -3.22019 1.05304 0
M  V30 7009 C 662.23 -3.68205 0.781148 0
M  V30 7010 C 661.377 -2.48837 1.22373 0
M  V30 7011 H 664.328 -1.15462 1.08877 0
M  V30 7012 H 664.349 -3.78481 0.391414 0
M  V30 7013 H 663.861 -3.24194 2.13353 0
M  V30 7014 H 661.962 -3.71497 -0.28643 0
M  V30 7015 H 662.075 -4.58675 1.384 0
M  V30 7016 H 660.439 -2.46461 0.642594 0
M  V30 7017 H 661.222 -2.53736 2.31242 0
M  V30 7018 N 663.667 -0.670007 -1.42649 0
M  V30 7019 C 665.083 -0.33911 -1.55956 0
M  V30 7020 C 665.283 1.1558 -1.65056 0
M  V30 7021 O 664.339 1.94111 -1.61485 0
M  V30 7022 C 665.652 -1.06522 -2.812 0
M  V30 7023 C 667.2 -1.04708 -2.94966 0
M  V30 7024 C 667.675 -1.75442 -4.23065 0
M  V30 7025 N 669.166 -1.72286 -4.29967 0
M  V30 7026 C 669.901 -2.23877 -5.27889 0
M  V30 7027 N 669.397 -2.83829 -6.31991 0
M  V30 7028 N 671.19 -2.14279 -5.19654 0
M  V30 7029 H 663.341 -1.6399 -1.34986 0
M  V30 7030 H 665.604 -0.690603 -0.649439 0
M  V30 7031 H 665.31 -2.12033 -2.80597 0
M  V30 7032 H 665.184 -0.627398 -3.71946 0
M  V30 7033 H 667.571 -0.000315966 -2.951 0
M  V30 7034 H 667.652 -1.52374 -2.05465 0
M  V30 7035 H 667.296 -2.80084 -4.23693 0
M  V30 7036 H 667.226 -1.25229 -5.11493 0
M  V30 7037 H 669.717 -1.28554 -3.55362 0
M  V30 7038 H 670.03 -3.20827 -7.03057 0
M  V30 7039 H 668.375 -2.87896 -6.32567 0
M  V30 7040 H 671.566 -1.67135 -4.37245 0
M  V30 7041 H 671.739 -2.54792 -5.95806 0
M  V30 7042 N 665.145 1.52092 -0.413018 0
M  V30 7043 C 666.075 2.30021 0.401567 0
M  V30 7044 C 667.056 1.34395 1.04269 0
M  V30 7045 O 668.241 1.63304 1.05097 0
M  V30 7046 C 665.371 3.12447 1.51638 0
M  V30 7047 C 664.325 4.16153 1.00005 0
M  V30 7048 C 663.651 4.86948 2.20875 0
M  V30 7049 C 664.951 5.22275 0.0513757 0
M  V30 7050 H 666.645 2.98365 -0.248704 0
M  V30 7051 H 664.191 1.4349 -0.121052 0
M  V30 7052 H 666.144 3.65733 2.09326 0
M  V30 7053 H 664.868 2.41879 2.19458 0
M  V30 7054 H 663.527 3.63882 0.445549 0
M  V30 7055 H 663.175 4.12905 2.8726 0
M  V30 7056 H 662.875 5.57057 1.86978 0
M  V30 7057 H 664.399 5.43048 2.79162 0
M  V30 7058 H 665.813 5.70778 0.537176 0
M  V30 7059 H 664.21 5.9977 -0.198977 0
M  V30 7060 H 665.28 4.76611 -0.892736 0
M  V30 7061 N 666.623 0.143563 1.56945 0
M  V30 7062 C 667.555 -0.828353 2.13708 0
M  V30 7063 C 668.568 -1.21313 1.08568 0
M  V30 7064 O 669.757 -1.1578 1.35857 0
M  V30 7065 C 666.857 -2.12248 2.64204 0
M  V30 7066 C 666.03 -1.90561 3.93707 0
M  V30 7067 C 665.089 -3.03931 4.29549 0
M  V30 7068 O 664.115 -2.75772 4.97934 0
M  V30 7069 N 665.317 -4.31016 3.88852 0
M  V30 7070 H 668.082 -0.343242 2.97728 0
M  V30 7071 H 665.643 -0.0401152 1.6185 0
M  V30 7072 H 667.635 -2.87132 2.85197 0
M  V30 7073 H 666.205 -2.52033 1.84928 0
M  V30 7074 H 665.425 -0.997327 3.81375 0
M  V30 7075 H 666.713 -1.73405 4.78339 0
M  V30 7076 H 666.111 -4.56762 3.33743 0
M  V30 7077 H 664.668 -5.02691 4.14903 0
M  V30 7078 N 668.101 -1.57061 -0.130224 0
M  V30 7079 C 669.064 -1.98593 -1.14426 0
M  V30 7080 C 670.064 -0.874584 -1.34936 0
M  V30 7081 O 671.254 -1.14086 -1.31643 0
M  V30 7082 C 668.386 -2.31639 -2.50112 0
M  V30 7083 H 669.579 -2.89374 -0.787561 0
M  V30 7084 H 667.132 -1.51756 -0.374146 0
M  V30 7085 H 667.867 -1.43703 -2.90723 0
M  V30 7086 H 667.652 -3.12684 -2.36583 0
M  V30 7087 H 669.142 -2.64551 -3.23114 0
M  V30 7088 N 669.579 0.400081 -1.52437 0
M  V30 7089 C 670.995 0.739359 -1.41441 0
M  V30 7090 C 671.195 1.94512 -0.526053 0
M  V30 7091 O 670.251 2.525 0.00472502 0
M  V30 7092 C 671.564 0.984824 -2.84116 0
M  V30 7093 C 673.112 1.08698 -2.93519 0
M  V30 7094 C 673.587 1.36515 -4.37181 0
M  V30 7095 N 675.078 1.43361 -4.40457 0
M  V30 7096 C 675.813 1.66528 -5.48686 0
M  V30 7097 N 675.309 1.87239 -6.67018 0
M  V30 7098 N 677.102 1.68617 -5.36213 0
M  V30 7099 H 669.253 -0.393484 -2.08723 0
M  V30 7100 H 671.516 -0.1138 -0.941145 0
M  V30 7101 H 671.222 0.171096 -3.51284 0
M  V30 7102 H 671.096 1.90253 -3.25705 0
M  V30 7103 H 673.483 1.89129 -2.26526 0
M  V30 7104 H 673.564 0.147432 -2.55375 0
M  V30 7105 H 673.208 0.565982 -5.04737 0
M  V30 7106 H 673.138 2.31737 -4.7287 0
M  V30 7107 H 675.629 1.29108 -3.55161 0
M  V30 7108 H 675.942 2.04392 -7.45281 0
M  V30 7109 H 674.287 1.84486 -6.70067 0
M  V30 7110 H 677.478 1.5198 -4.42741 0
M  V30 7111 H 677.651 1.86332 -6.20632 0
M  V30 7112 N 671.057 1.43213 0.657864 0
M  V30 7113 C 672.287 1.478 1.44356 0
M  V30 7114 C 672.695 0.0930206 1.88971 0
M  V30 7115 O 672.038 -0.906089 1.59799 0
M  V30 7116 C 672.1 2.35745 2.71412 0
M  V30 7117 C 671.764 3.83359 2.48767 0
M  V30 7118 C 672.761 4.74585 2.12285 0
M  V30 7119 C 670.446 4.27799 2.63235 0
M  V30 7120 C 672.44 6.08247 1.90562 0
M  V30 7121 C 670.127 5.61516 2.41128 0
M  V30 7122 C 671.125 6.51557 2.04847 0
M  V30 7123 O 670.813 7.82802 1.82967 0
M  V30 7124 H 670.545 0.504363 0.450104 0
M  V30 7125 H 673.099 1.88572 0.814241 0
M  V30 7126 H 671.329 1.89852 3.36887 0
M  V30 7127 H 673.018 2.31589 3.33348 0
M  V30 7128 H 673.784 4.41531 2.00687 0
M  V30 7129 H 669.663 3.57993 2.90451 0
M  V30 7130 H 673.207 6.78489 1.62168 0
M  V30 7131 H 669.104 5.94139 2.52327 0
M  V30 7132 H 669.872 7.94332 1.97429 0
M  V30 7133 N 672.536 -0.895792 1.29666 0
M  V30 7134 C 673.766 -1.67757 1.20586 0
M  V30 7135 C 674.174 -1.87729 -0.235432 0
M  V30 7136 O 673.517 -1.41706 -1.16898 0
M  V30 7137 C 673.579 -3.08117 1.85215 0
M  V30 7138 C 673.243 -3.1136 3.3452 0
M  V30 7139 C 674.24 -2.91217 4.30684 0
M  V30 7140 C 671.925 -3.33302 3.75786 0
M  V30 7141 C 673.919 -2.92955 5.66089 0
M  V30 7142 C 671.606 -3.3467 5.11311 0
M  V30 7143 C 672.604 -3.14519 6.06273 0
M  V30 7144 O 672.292 -3.15684 7.39323 0
M  V30 7145 H 672.024 -0.530601 0.418854 0
M  V30 7146 H 674.578 -1.12831 1.71634 0
M  V30 7147 H 672.808 -3.64661 1.28683 0
M  V30 7148 H 674.497 -3.68399 1.70403 0
M  V30 7149 H 675.263 -2.74074 4.00136 0
M  V30 7150 H 671.142 -3.48025 3.02324 0
M  V30 7151 H 674.686 -2.77145 6.40185 0
M  V30 7152 H 670.583 -3.51346 5.41504 0
M  V30 7153 H 671.351 -3.31924 7.48177 0
M  V30 7154 N 674.014 -1.12206 -1.10668 0
M  V30 7155 C 675.239 -0.898938 -1.86906 0
M  V30 7156 C 675.664 0.546346 -1.79991 0
M  V30 7157 O 675.022 1.38655 -1.1681 0
M  V30 7158 C 675.07 -1.37529 -3.33344 0
M  V30 7159 O 674.174 -0.55218 -4.08687 0
M  V30 7160 H 673.515 -0.323163 -0.580053 0
M  V30 7161 H 676.045 -1.49355 -1.39837 0
M  V30 7162 H 676.055 -1.3733 -3.84193 0
M  V30 7163 H 674.73 -2.42767 -3.37693 0
M  V30 7164 H 673.307 -0.620947 -3.67694 0
M  V30 7165 N 675.492 1.28418 -0.913599 0
M  V30 7166 C 676.741 1.94265 -0.542572 0
M  V30 7167 C 677.054 1.72709 0.918207 0
M  V30 7168 O 678.26 2.32778 1.39738 0
M  V30 7169 C 676.716 3.47956 -0.919507 0
M  V30 7170 C 676.324 3.78291 -2.4 0
M  V30 7171 C 678.068 4.19962 -0.619057 0
M  V30 7172 C 675.975 5.2529 -2.71707 0
M  V30 7173 H 674.905 0.727213 -0.199192 0
M  V30 7174 H 677.556 1.45931 -1.11249 0
M  V30 7175 H 675.938 3.9502 -0.278372 0
M  V30 7176 H 677.112 3.42035 -3.08786 0
M  V30 7177 H 675.427 3.19456 -2.67089 0
M  V30 7178 H 678.024 5.28178 -0.832623 0
M  V30 7179 H 678.367 4.13935 0.443126 0
M  V30 7180 H 678.9 3.78674 -1.21865 0
M  V30 7181 H 675.639 5.36394 -3.76778 0
M  V30 7182 H 675.159 5.62743 -2.07559 0
M  V30 7183 H 676.838 5.93027 -2.58703 0
M  V30 7184 N 676.97 0.677563 1.42291 0
M  V30 7185 C 677.933 0.0101085 2.29198 0
M  V30 7186 C 678.933 -0.726219 1.43467 0
M  V30 7187 O 680.123 -0.563807 1.64824 0
M  V30 7188 C 677.255 -0.996316 3.26016 0
M  V30 7189 H 678.448 0.775071 2.89711 0
M  V30 7190 H 676.001 0.440065 1.49977 0
M  V30 7191 H 676.736 -1.78967 2.70446 0
M  V30 7192 H 676.521 -0.471687 3.89253 0
M  V30 7193 H 678.011 -1.46167 3.91184 0
M  V30 7194 N 678.448 -1.51871 0.421078 0
M  V30 7195 C 679.673 -2.0684 -0.152371 0
M  V30 7196 C 680.098 -1.28802 -1.37083 0
M  V30 7197 O 679.456 -0.321482 -1.78427 0
M  V30 7198 C 679.504 -3.57532 -0.469368 0
M  V30 7199 O 678.608 -3.81818 -1.55848 0
M  V30 7200 H 677.949 -0.663939 -0.00898586 0
M  V30 7201 H 680.479 -1.95674 0.597724 0
M  V30 7202 H 680.489 -4.01515 -0.724553 0
M  V30 7203 H 679.164 -4.13761 0.421276 0
M  V30 7204 H 677.741 -3.49709 -1.29453 0
M  V30 7205 N 679.926 -0.151884 -1.56866 0
M  V30 7206 C 681.151 0.508044 -2.01081 0
M  V30 7207 C 681.576 1.57306 -1.03134 0
M  V30 7208 O 680.934 1.81298 -0.0078309 0
M  V30 7209 C 680.982 1.08106 -3.44014 0
M  V30 7210 O 680.086 2.19577 -3.49084 0
M  V30 7211 H 679.427 0.123757 -0.652365 0
M  V30 7212 H 681.957 -0.250055 -2.03066 0
M  V30 7213 H 681.967 1.40851 -3.82916 0
M  V30 7214 H 680.642 0.301168 -4.14808 0
M  V30 7215 H 679.219 1.88023 -3.22027 0
M  V30 7216 N 681.404 1.57128 0.121893 0
M  V30 7217 C 682.629 1.89254 0.848385 0
M  V30 7218 C 683.054 0.743527 1.72781 0
M  V30 7219 O 682.412 -0.306056 1.78698 0
M  V30 7220 C 682.46 3.20113 1.66012 0
M  V30 7221 O 681.564 3.05815 2.76679 0
M  V30 7222 H 680.905 0.621103 0.234793 0
M  V30 7223 H 683.435 2.0433 0.10516 0
M  V30 7224 H 683.445 3.52761 2.04996 0
M  V30 7225 H 682.12 4.03336 1.01452 0
M  V30 7226 H 680.697 2.84627 2.40918 0
M  V30 7227 N 682.882 -0.391992 1.52647 0
M  V30 7228 C 683.829 -1.47866 1.77213 0
M  V30 7229 C 684.799 -1.54286 0.615223 0
M  V30 7230 O 685.984 -1.7059 0.854622 0
M  V30 7231 C 683.124 -2.85129 1.94411 0
M  V30 7232 C 682.237 -2.87883 3.22098 0
M  V30 7233 C 681.372 -4.16553 3.29631 0
M  V30 7234 C 680.411 -4.13348 4.51453 0
M  V30 7235 N 679.548 -5.33619 4.56284 0
M  V30 7236 H 684.388 -1.26219 2.6995 0
M  V30 7237 H 681.925 -0.612367 1.33748 0
M  V30 7238 H 683.883 -3.64833 2.02367 0
M  V30 7239 H 682.513 -3.05232 1.05038 0
M  V30 7240 H 681.565 -2.00567 3.23229 0
M  V30 7241 H 682.877 -2.81382 4.11856 0
M  V30 7242 H 682.031 -5.0466 3.36753 0
M  V30 7243 H 680.77 -4.25773 2.37842 0
M  V30 7244 H 679.775 -3.23629 4.44459 0
M  V30 7245 H 681 -4.05754 5.44555 0
M  V30 7246 H 678.946 -5.43474 3.67385 0
M  V30 7247 H 678.863 -5.29182 5.3991 0
M  V30 7248 H 680.131 -6.23632 4.67657 0
M  V30 7249 N 684.36 -1.4356 -0.65026 0
M  V30 7250 C 685.606 -1.45549 -1.41221 0
M  V30 7251 C 685.939 -0.0805472 -1.94033 0
M  V30 7252 O 685.214 0.899043 -1.72475 0
M  V30 7253 C 685.497 -2.50028 -2.59148 0
M  V30 7254 C 685.35 -3.96808 -2.1181 0
M  V30 7255 C 686.669 -2.51212 -3.61359 0
M  V30 7256 H 683.788 -0.529967 -0.512156 0
M  V30 7257 H 686.43 -1.75127 -0.736933 0
M  V30 7258 H 684.58 -2.24937 -3.16758 0
M  V30 7259 H 686.252 -4.32966 -1.59178 0
M  V30 7260 H 684.495 -4.09498 -1.43156 0
M  V30 7261 H 685.166 -4.6553 -2.96625 0
M  V30 7262 H 687.642 -2.73583 -3.13515 0
M  V30 7263 H 686.518 -3.26252 -4.41419 0
M  V30 7264 H 686.779 -1.54701 -4.1415 0
M  V30 7265 N 685.838 0.888903 -1.30139 0
M  V30 7266 C 686.788 1.9814 -1.12803 0
M  V30 7267 C 687.772 1.60839 -0.0443137 0
M  V30 7268 O 688.964 1.74971 -0.267208 0
M  V30 7269 C 686.093 3.33416 -0.817849 0
M  V30 7270 C 685.179 3.77043 -1.94163 0
M  V30 7271 N 685.57 3.92805 -3.18651 0
M  V30 7272 C 683.868 4.06407 -1.8371 0
M  V30 7273 C 684.569 4.29746 -3.92038 0
M  V30 7274 N 683.545 4.3939 -3.20059 0
M  V30 7275 H 687.347 2.08411 -2.07225 0
M  V30 7276 H 684.861 1.07845 -1.21421 0
M  V30 7277 H 686.858 4.11405 -0.674668 0
M  V30 7278 H 685.518 3.24484 0.118344 0
M  V30 7279 H 686.529 3.78042 -3.53984 0
M  V30 7280 H 683.206 4.05972 -0.974331 0
M  V30 7281 H 684.596 4.49695 -4.99223 0
M  V30 7282 N 687.317 1.12792 1.10072 0
M  V30 7283 C 688.728 0.899346 1.63611 0
M  V30 7284 C 689.079 -0.565547 1.87872 0
M  V30 7285 O 688.204 -1.43081 1.62348 0
M  V30 7286 C 688.799 1.62608 2.97227 0
M  V30 7287 C 687.358 1.44356 3.47618 0
M  V30 7288 C 686.505 1.65958 2.22156 0
M  V30 7289 H 689.456 1.28216 0.935223 0
M  V30 7290 H 689.477 1.0793 3.64872 0
M  V30 7291 H 688.989 2.69221 2.79538 0
M  V30 7292 H 687.09 0.400148 3.70445 0
M  V30 7293 H 687.203 2.20218 4.25489 0
M  V30 7294 H 685.567 1.08395 2.30484 0
M  V30 7295 H 686.35 2.73877 2.06993 0
M  V30 7296 N 688.795 -1.27931 0.920396 0
M  V30 7297 C 689.743 -2.29061 0.404191 0
M  V30 7298 C 690.737 -1.61615 -0.507634 0
M  V30 7299 O 691.943 -1.75765 -0.388144 0
M  V30 7300 H 688.318 -0.743594 0.112123 0
M  V30 7301 H 690.289 -2.70021 1.27008 0
M  V30 7302 C 689.038 -3.46088 -0.334466 0
M  V30 7303 H 688.361 -3.98194 0.35797 0
M  V30 7304 H 689.801 -4.18829 -0.660196 0
M  V30 7305 C 688.26 -2.99396 -1.54479 0
M  V30 7306 O 688.79 -3.02439 -2.64374 0
M  V30 7307 N 686.996 -2.54978 -1.39408 0
M  V30 7308 H 686.543 -2.52701 -0.500009 0
M  V30 7309 H 686.501 -2.24098 -2.20516 0
M  V30 7310 N 690.273 -0.685099 -1.4193 0
M  V30 7311 C 691.498 -0.218842 -2.06242 0
M  V30 7312 C 691.923 1.11923 -1.51178 0
M  V30 7313 O 691.281 1.69837 -0.634446 0
M  V30 7314 C 691.329 -0.175592 -3.60172 0
M  V30 7315 O 690.433 0.852776 -4.03487 0
M  V30 7316 H 689.774 -0.109531 -0.654904 0
M  V30 7317 H 692.304 -0.937013 -1.81882 0
M  V30 7318 H 692.314 -0.00291151 -4.08 0
M  V30 7319 H 690.989 -1.15222 -3.99621 0
M  V30 7320 H 689.566 0.650301 -3.67186 0
M  V30 7321 N 691.751 1.51645 -0.429126 0
M  V30 7322 C 692.997 2.02314 0.140286 0
M  V30 7323 C 693.33 1.31314 1.43074 0
M  V30 7324 O 692.605 0.425531 1.89788 0
M  V30 7325 C 692.888 3.5822 0.36749 0
M  V30 7326 C 692.741 4.39846 -0.941039 0
M  V30 7327 C 694.06 4.25055 1.14089 0
M  V30 7328 H 691.179 0.735335 0.0495112 0
M  V30 7329 H 693.821 1.81358 -0.566514 0
M  V30 7330 H 691.971 3.76207 0.969556 0
M  V30 7331 H 693.643 4.33527 -1.57646 0
M  V30 7332 H 691.886 4.05259 -1.54751 0
M  V30 7333 H 692.557 5.47069 -0.73621 0
M  V30 7334 H 695.033 4.11288 0.630986 0
M  V30 7335 H 693.909 5.34038 1.26863 0
M  V30 7336 H 694.17 3.85358 2.16683 0
M  V30 7337 N 693.229 0.160201 1.56784 0
M  V30 7338 C 694.179 -0.786461 2.14007 0
M  V30 7339 C 695.163 -1.20046 1.07134 0
M  V30 7340 O 696.355 -1.16468 1.33283 0
M  V30 7341 C 693.484 -2.02024 2.77563 0
M  V30 7342 C 692.57 -1.62874 3.91578 0
M  V30 7343 N 692.961 -0.946176 4.96871 0
M  V30 7344 C 691.259 -1.92054 4.02531 0
M  V30 7345 C 691.96 -0.755084 5.76778 0
M  V30 7346 N 690.936 -1.29307 5.27997 0
M  V30 7347 H 694.738 -0.255879 2.92784 0
M  V30 7348 H 692.252 -0.0408778 1.62349 0
M  V30 7349 H 694.249 -2.70855 3.16928 0
M  V30 7350 H 692.909 -2.55587 2.00263 0
M  V30 7351 H 693.92 -0.605455 5.14349 0
M  V30 7352 H 690.597 -2.47374 3.36322 0
M  V30 7353 H 691.987 -0.216138 6.71552 0
M  V30 7354 N 694.707 -1.5719 -0.113559 0
M  V30 7355 C 695.956 -1.84325 -0.818984 0
M  V30 7356 C 696.269 -0.746685 -1.80787 0
M  V30 7357 O 697.475 -0.904596 -2.55987 0
M  V30 7358 C 695.931 -3.26818 -1.50724 0
M  V30 7359 C 695.539 -4.44498 -0.559065 0
M  V30 7360 C 697.283 -3.63196 -2.19748 0
M  V30 7361 C 695.19 -5.7802 -1.25086 0
M  V30 7362 H 694.12 -0.687507 -0.309596 0
M  V30 7363 H 696.771 -1.8336 -0.0717621 0
M  V30 7364 H 695.153 -3.22269 -2.30128 0
M  V30 7365 H 696.327 -4.60356 0.202146 0
M  V30 7366 H 694.642 -4.16393 0.024495 0
M  V30 7367 H 697.239 -4.60226 -2.72206 0
M  V30 7368 H 697.582 -2.90899 -2.97798 0
M  V30 7369 H 698.115 -3.69553 -1.47226 0
M  V30 7370 H 694.854 -6.53501 -0.511539 0
M  V30 7371 H 694.374 -5.66038 -1.98395 0
M  V30 7372 H 696.053 -6.2196 -1.78253 0
M  V30 7373 N 696.185 0.383891 -1.52853 0
M  V30 7374 C 697.425 1.13731 -1.69837 0
M  V30 7375 C 697.789 1.87086 -0.431611 0
M  V30 7376 O 698.99 2.64518 -0.477886 0
M  V30 7377 C 697.261 2.08551 -2.90243 0
M  V30 7378 S 698.82 2.9166 -3.27841 0
M  V30 7379 H 695.638 0.384911 -0.5978 0
M  V30 7380 H 698.24 0.42103 -1.90913 0
M  V30 7381 H 696.944 1.53392 -3.80656 0
M  V30 7382 H 696.475 2.8468 -2.71516 0
M  V30 7383 H 698.49 4.10723 -2.78426 0
M  V30 7384 N 697.663 1.43903 0.642637 0
M  V30 7385 C 698.626 1.49538 1.73698 0
M  V30 7386 C 699.626 0.378776 1.56275 0
M  V30 7387 O 700.816 0.64095 1.6198 0
M  V30 7388 C 697.948 1.35821 3.12675 0
M  V30 7389 H 699.141 2.47008 1.70079 0
M  V30 7390 H 696.694 1.30824 0.85526 0
M  V30 7391 H 697.429 0.393994 3.21898 0
M  V30 7392 H 697.214 2.16776 3.26727 0
M  V30 7393 H 698.704 1.4272 3.92455 0
M  V30 7394 N 699.141 -0.881989 1.30609 0
M  V30 7395 C 700.387 -1.63647 1.19781 0
M  V30 7396 C 700.72 -1.92632 -0.246265 0
M  V30 7397 O 699.995 -1.54938 -1.17577 0
M  V30 7398 C 700.278 -2.97437 2.02985 0
M  V30 7399 C 700.131 -2.75406 3.55628 0
M  V30 7400 C 701.45 -3.98397 1.86997 0
M  V30 7401 H 698.569 -0.593841 0.436488 0
M  V30 7402 H 701.211 -1.02041 1.60273 0
M  V30 7403 H 699.361 -3.50018 1.68581 0
M  V30 7404 H 701.033 -2.2959 4.00107 0
M  V30 7405 H 699.276 -2.09856 3.79662 0
M  V30 7406 H 699.947 -3.70552 4.09139 0
M  V30 7407 H 702.423 -3.54986 2.17081 0
M  V30 7408 H 701.299 -4.89916 2.47536 0
M  V30 7409 H 701.56 -4.3424 0.829943 0
M  V30 7410 N 700.619 -1.13374 -1.09472 0
M  V30 7411 C 701.865 -0.896516 -1.81908 0
M  V30 7412 C 702.198 0.575933 -1.85463 0
M  V30 7413 O 701.473 1.42618 -1.32251 0
M  V30 7414 C 701.756 -1.48445 -3.28079 0
M  V30 7415 C 701.609 -3.02598 -3.32798 0
M  V30 7416 C 702.928 -1.15226 -4.24748 0
M  V30 7417 H 700.047 -0.327127 -0.660422 0
M  V30 7418 H 702.689 -1.40195 -1.2824 0
M  V30 7419 H 700.839 -1.0546 -3.73912 0
M  V30 7420 H 702.511 -3.54335 -2.95372 0
M  V30 7421 H 700.754 -3.37613 -2.72397 0
M  V30 7422 H 701.425 -3.38835 -4.3577 0
M  V30 7423 H 703.901 -1.52369 -3.87199 0
M  V30 7424 H 702.777 -1.59012 -5.25363 0
M  V30 7425 H 703.038 -0.0658891 -4.42051 0
M  V30 7426 N 702.098 1.27442 -0.927168 0
M  V30 7427 C 703.344 1.94679 -0.568164 0
M  V30 7428 C 703.677 1.72697 0.888219 0
M  V30 7429 O 702.952 1.05573 1.63354 0
M  V30 7430 C 703.235 3.4882 -0.894253 0
M  V30 7431 C 703.088 3.80146 -2.40435 0
M  V30 7432 C 704.407 4.38281 -0.399766 0
M  V30 7433 H 701.526 0.707071 -0.207892 0
M  V30 7434 H 704.168 1.50568 -1.15885 0
M  V30 7435 H 702.318 3.86522 -0.391566 0
M  V30 7436 H 703.99 3.52238 -2.97869 0
M  V30 7437 H 702.233 3.26716 -2.85375 0
M  V30 7438 H 702.904 4.87835 -2.58304 0
M  V30 7439 H 705.38 4.07726 -0.83058 0
M  V30 7440 H 704.256 5.44955 -0.656885 0
M  V30 7441 H 704.517 4.36521 0.700153 0
M  V30 7442 N 703.576 0.692616 1.41565 0
M  V30 7443 C 704.486 0.0258451 2.34586 0
M  V30 7444 C 705.502 -0.769324 1.56069 0
M  V30 7445 O 706.678 -0.707563 1.88562 0
M  V30 7446 C 703.743 -0.901289 3.3478 0
M  V30 7447 C 702.804 -0.0986579 4.29187 0
M  V30 7448 C 702.037 -0.981634 5.24595 0
M  V30 7449 O 702.26 -2.22115 5.25377 0
M  V30 7450 O 701.194 -0.432892 6.00341 0
M  V30 7451 H 705.02 0.792537 2.93177 0
M  V30 7452 H 702.605 0.452935 1.42369 0
M  V30 7453 H 704.487 -1.43302 3.96286 0
M  V30 7454 H 703.162 -1.64752 2.78637 0
M  V30 7455 H 702.069 0.477604 3.71039 0
M  V30 7456 H 703.402 0.608848 4.8842 0
M  V30 7457 N 705.054 -1.51416 0.437162 0
M  V30 7458 C 706.284 -2.06204 -0.127859 0
M  V30 7459 C 706.692 -1.30463 -1.37026 0
M  V30 7460 O 706.035 -0.357516 -1.80187 0
M  V30 7461 C 706.097 -3.55783 -0.515632 0
M  V30 7462 C 705.761 -4.52776 0.619937 0
M  V30 7463 C 706.758 -4.98031 1.49201 0
M  V30 7464 C 704.443 -4.95878 0.800618 0
M  V30 7465 C 706.437 -5.85061 2.52947 0
M  V30 7466 C 704.124 -5.82699 1.84135 0
M  V30 7467 C 705.122 -6.27188 2.70416 0
M  V30 7468 O 704.81 -7.12284 3.72702 0
M  V30 7469 H 704.542 -0.675903 -0.011442 0
M  V30 7470 H 707.096 -1.95977 0.614986 0
M  V30 7471 H 705.326 -3.63793 -1.31118 0
M  V30 7472 H 707.015 -3.93087 -1.01179 0
M  V30 7473 H 707.781 -4.65426 1.36395 0
M  V30 7474 H 703.66 -4.60792 0.138617 0
M  V30 7475 H 707.204 -6.19708 3.20325 0
M  V30 7476 H 703.101 -6.14717 1.9696 0
M  V30 7477 H 703.869 -7.30462 3.69281 0
M  V30 7478 N 706.532 -0.168513 -1.56696 0
M  V30 7479 C 707.442 0.775435 -2.21414 0
M  V30 7480 C 708.458 1.25529 -1.20492 0
M  V30 7481 O 709.634 1.30801 -1.53144 0
M  V30 7482 C 706.699 1.9886 -2.83999 0
M  V30 7483 C 705.76 1.5559 -4.00113 0
M  V30 7484 C 704.993 2.71124 -4.59704 0
M  V30 7485 O 705.216 3.87917 -4.18182 0
M  V30 7486 O 704.15 2.4536 -5.4962 0
M  V30 7487 H 707.976 0.254416 -3.02632 0
M  V30 7488 H 705.561 0.0595507 -1.49281 0
M  V30 7489 H 707.443 2.69816 -3.23693 0
M  V30 7490 H 706.118 2.49874 -2.05779 0
M  V30 7491 H 705.025 0.815924 -3.65094 0
M  V30 7492 H 706.358 1.09271 -4.79917 0
M  V30 7493 N 708.01 1.57248 0.105221 0
M  V30 7494 C 709.238 1.89768 0.82437 0
M  V30 7495 C 709.653 0.761192 1.72775 0
M  V30 7496 O 709.01 -0.267342 1.80531 0
M  V30 7497 C 709.061 3.2184 1.64625 0
M  V30 7498 O 708.782 4.31115 0.779217 0
M  V30 7499 C 710.283 3.68155 2.46935 0
M  V30 7500 H 707.503 0.628031 0.236259 0
M  V30 7501 H 710.047 2.04321 0.085485 0
M  V30 7502 H 708.202 3.08915 2.33775 0
M  V30 7503 H 708.616 5.06897 1.34745 0
M  V30 7504 H 710.09 4.6329 3.00111 0
M  V30 7505 H 710.567 2.95492 3.24932 0
M  V30 7506 H 711.173 3.83914 1.83002 0
M  V30 7507 N 709.488 -0.375779 1.53054 0
M  V30 7508 C 710.435 -1.45978 1.78771 0
M  V30 7509 C 711.405 -1.53625 0.631552 0
M  V30 7510 O 712.59 -1.69674 0.872667 0
M  V30 7511 C 709.73 -2.8305 1.97425 0
M  V30 7512 C 708.843 -2.84451 3.25134 0
M  V30 7513 C 707.978 -4.13034 3.34031 0
M  V30 7514 C 707.017 -4.08536 4.55812 0
M  V30 7515 N 706.154 -5.2875 4.61918 0
M  V30 7516 H 710.994 -1.23349 2.71273 0
M  V30 7517 H 708.531 -0.598147 1.3439 0
M  V30 7518 H 710.489 -3.62666 2.06225 0
M  V30 7519 H 709.119 -3.04101 1.0827 0
M  V30 7520 H 708.171 -1.97127 3.25338 0
M  V30 7521 H 709.483 -2.76998 4.14818 0
M  V30 7522 H 708.637 -5.0106 3.42087 0
M  V30 7523 H 707.376 -4.23226 2.42345 0
M  V30 7524 H 706.381 -3.18897 4.47867 0
M  V30 7525 H 707.606 -3.99955 5.48828 0
M  V30 7526 H 705.552 -5.39547 3.73129 0
M  V30 7527 H 705.469 -5.23426 5.45492 0
M  V30 7528 H 706.737 -6.18637 4.74245 0
M  V30 7529 N 710.966 -1.44241 -0.634997 0
M  V30 7530 C 711.929 -1.50457 -1.72903 0
M  V30 7531 C 712.929 -0.387058 -1.56072 0
M  V30 7532 O 714.119 -0.649531 -1.61638 0
M  V30 7533 C 711.251 -1.37477 -3.1195 0
M  V30 7534 H 712.444 -2.47907 -1.68767 0
M  V30 7535 H 709.997 -1.31276 -0.84831 0
M  V30 7536 H 710.732 -0.41106 -3.21684 0
M  V30 7537 H 710.517 -2.18506 -3.25573 0
M  V30 7538 H 712.007 -1.44799 -3.91692 0
M  V30 7539 N 712.444 0.87505 -1.31075 0
M  V30 7540 C 713.692 1.62447 -1.20231 0
M  V30 7541 C 714.013 1.93506 0.240888 0
M  V30 7542 O 713.283 1.57847 1.16022 0
M  V30 7543 H 711.863 0.602207 -0.441991 0
M  V30 7544 H 714.525 1.04788 -1.64334 0
M  V30 7545 H 713.621 2.57031 -1.77036 0
M  V30 7546 N 713.922 1.13953 1.08869 0
M  V30 7547 C 715.338 0.878924 1.33218 0
M  V30 7548 C 715.538 -0.482478 1.95638 0
M  V30 7549 O 714.594 -1.22778 2.2064 0
M  V30 7550 C 715.907 2.00798 2.23832 0
M  V30 7551 C 717.455 2.04073 2.37325 0
M  V30 7552 C 717.93 3.16258 3.31278 0
M  V30 7553 N 719.421 3.15805 3.38853 0
M  V30 7554 C 720.156 3.99249 4.11567 0
M  V30 7555 N 719.652 4.92721 4.87029 0
M  V30 7556 N 721.445 3.87327 4.0735 0
M  V30 7557 H 713.596 2.01645 0.66731 0
M  V30 7558 H 715.859 0.878395 0.356547 0
M  V30 7559 H 715.565 2.98986 1.85203 0
M  V30 7560 H 715.439 1.92704 3.24261 0
M  V30 7561 H 717.826 1.06495 2.75214 0
M  V30 7562 H 717.907 2.16239 1.36654 0
M  V30 7563 H 717.551 4.14079 2.9411 0
M  V30 7564 H 717.481 3.0133 4.31866 0
M  V30 7565 H 719.972 2.48102 2.8505 0
M  V30 7566 H 720.285 5.52867 5.39961 0
M  V30 7567 H 718.63 4.96723 4.86098 0
M  V30 7568 H 721.821 3.13627 3.475 0
M  V30 7569 H 721.994 4.52585 4.63757 0
M  V30 7570 N 715.4 -1.26948 0.933913 0
M  V30 7571 C 716.649 -1.93378 0.573409 0
M  V30 7572 C 716.962 -1.74148 -0.890614 0
M  V30 7573 O 718.168 -2.34971 -1.36017 0
M  V30 7574 C 716.624 -3.46449 0.974747 0
M  V30 7575 C 716.232 -3.74425 2.45988 0
M  V30 7576 C 717.976 -4.18924 0.685791 0
M  V30 7577 C 715.883 -5.209 2.8003 0
M  V30 7578 H 714.813 -0.723952 0.210736 0
M  V30 7579 H 717.464 -1.44143 1.13557 0
M  V30 7580 H 715.846 -3.94528 0.341181 0
M  V30 7581 H 717.02 -3.37079 3.14188 0
M  V30 7582 H 715.335 -3.15167 2.72138 0
M  V30 7583 H 717.932 -5.26786 0.916546 0
M  V30 7584 H 718.275 -4.14587 -0.377217 0
M  V30 7585 H 718.808 -3.76687 1.27874 0
M  V30 7586 H 715.547 -5.30332 3.85264 0
M  V30 7587 H 715.067 -5.59369 2.16485 0
M  V30 7588 H 716.746 -5.88837 2.68105 0
M  V30 7589 N 716.879 -0.700114 -1.41195 0
M  V30 7590 C 717.827 -0.0263301 -2.32585 0
M  V30 7591 C 718.821 0.763683 -1.51209 0
M  V30 7592 O 720.027 0.668793 -1.67114 0
M  V30 7593 H 716.402 0.0102869 -0.75193 0
M  V30 7594 H 718.373 -0.814087 -2.8708 0
M  V30 7595 C 717.122 0.892793 -3.36042 0
M  V30 7596 H 716.445 0.294306 -3.98715 0
M  V30 7597 H 717.885 1.33247 -4.02518 0
M  V30 7598 C 716.344 2.01109 -2.7029 0
M  V30 7599 O 716.874 3.10035 -2.55423 0
M  V30 7600 N 715.08 1.79015 -2.28915 0
M  V30 7601 H 714.627 0.904275 -2.41207 0
M  V30 7602 H 714.585 2.54022 -1.85257 0
M  V30 7603 N 718.357 1.51182 -0.445186 0
M  V30 7604 C 719.304 2.27939 0.362291 0
M  V30 7605 C 720.274 1.31864 1.01 0
M  V30 7606 O 721.459 1.60776 1.02741 0
M  V30 7607 C 718.599 3.13016 1.45311 0
M  V30 7608 C 717.712 4.24093 0.822757 0
M  V30 7609 C 716.847 4.96467 1.88928 0
M  V30 7610 C 715.886 5.99454 1.23778 0
M  V30 7611 N 715.023 6.65206 2.24602 0
M  V30 7612 H 719.863 2.965 -0.29862 0
M  V30 7613 H 717.4 1.46237 -0.15911 0
M  V30 7614 H 719.358 3.60673 2.09692 0
M  V30 7615 H 717.988 2.46553 2.08354 0
M  V30 7616 H 717.04 3.80341 0.0670364 0
M  V30 7617 H 718.352 4.97853 0.307184 0
M  V30 7618 H 717.506 5.47712 2.60953 0
M  V30 7619 H 716.245 4.22355 2.4386 0
M  V30 7620 H 715.25 5.47494 0.503042 0
M  V30 7621 H 716.475 6.75527 0.695694 0
M  V30 7622 H 714.421 5.93901 2.78599 0
M  V30 7623 H 714.338 7.34756 1.77958 0
M  V30 7624 H 715.606 7.21078 2.96085 0
M  V30 7625 N 719.835 0.176821 1.56605 0
M  V30 7626 C 721.083 -0.465793 1.96659 0
M  V30 7627 C 721.404 -1.63406 1.06412 0
M  V30 7628 O 720.674 -1.95457 0.131603 0
M  V30 7629 H 719.254 -0.175072 0.726195 0
M  V30 7630 H 721.916 0.25929 1.93168 0
M  V30 7631 H 721.012 -0.822138 3.01077 0
M  V30 7632 N 721.313 -1.57302 -0.09688 0
M  V30 7633 C 722.559 -1.86273 -0.801885 0
M  V30 7634 C 722.892 -0.765694 -1.78468 0
M  V30 7635 O 722.167 0.226495 -1.93177 0
M  V30 7636 C 722.45 -3.25876 -1.53221 0
M  V30 7637 C 722.303 -4.46205 -0.567529 0
M  V30 7638 C 723.622 -3.63352 -2.48321 0
M  V30 7639 H 720.741 -0.67752 -0.29006 0
M  V30 7640 H 723.383 -1.89887 -0.0655577 0
M  V30 7641 H 721.533 -3.22926 -2.15988 0
M  V30 7642 H 723.205 -4.6127 0.0529982 0
M  V30 7643 H 721.448 -4.33636 0.119233 0
M  V30 7644 H 722.119 -5.40608 -1.11564 0
M  V30 7645 H 724.595 -3.67234 -1.95648 0
M  V30 7646 H 723.471 -4.61968 -2.9644 0
M  V30 7647 H 723.732 -2.91941 -3.31998 0
M  V30 7648 N 722.791 0.367657 -1.53252 0
M  V30 7649 C 723.754 1.43308 -1.78873 0
M  V30 7650 C 724.754 1.46671 -0.659115 0
M  V30 7651 O 725.944 1.47468 -0.927306 0
M  V30 7652 C 723.076 2.82442 -1.90892 0
M  V30 7653 H 724.269 1.21864 -2.74024 0
M  V30 7654 H 721.822 0.600668 -1.44297 0
M  V30 7655 H 722.557 3.09202 -0.978 0
M  V30 7656 H 722.342 2.81399 -2.73051 0
M  V30 7657 H 723.832 3.59601 -2.12314 0
M  V30 7658 N 724.269 1.44576 0.627338 0
M  V30 7659 C 725.497 1.51048 1.41394 0
M  V30 7660 C 725.912 0.136568 1.88305 0
M  V30 7661 O 725.269 -0.858251 1.6106 0
M  V30 7662 C 725.32 2.47837 2.63172 0
M  V30 7663 O 725.041 3.79887 2.18215 0
M  V30 7664 C 726.542 2.63811 3.56257 0
M  V30 7665 H 723.762 0.512171 0.4335 0
M  V30 7666 H 726.306 1.89576 0.766878 0
M  V30 7667 H 724.461 2.12433 3.23961 0
M  V30 7668 H 724.875 4.32177 2.97192 0
M  V30 7669 H 726.349 3.35554 4.38301 0
M  V30 7670 H 726.826 1.69169 4.05313 0
M  V30 7671 H 727.432 3.0013 3.01333 0
M  V30 7672 N 725.747 -0.868086 1.31537 0
M  V30 7673 C 726.695 -1.99688 1.1928 0
M  V30 7674 C 727.689 -1.69101 0.100656 0
M  V30 7675 O 728.895 -1.78073 0.262677 0
M  V30 7676 H 725.27 -0.655032 0.369374 0
M  V30 7677 H 727.241 -2.07157 2.14776 0
M  V30 7678 C 725.99 -3.35338 0.918892 0
M  V30 7679 H 725.313 -3.59396 1.75142 0
M  V30 7680 H 726.753 -4.14909 0.873311 0
M  V30 7681 C 725.212 -3.34769 -0.378366 0
M  V30 7682 O 725.742 -3.76716 -1.39456 0
M  V30 7683 N 723.948 -2.87895 -0.39557 0
M  V30 7684 H 723.495 -2.53954 0.431889 0
M  V30 7685 H 723.453 -2.87897 -1.26344 0
M  V30 7686 N 727.225 -1.14528 -1.08264 0
M  V30 7687 C 728.471 -0.925721 -1.81113 0
M  V30 7688 C 728.826 0.54185 -1.84612 0
M  V30 7689 O 728.119 1.39628 -1.31205 0
M  V30 7690 C 728.313 -1.46226 -3.26117 0
M  V30 7691 C 728.142 -2.98047 -3.36746 0
M  V30 7692 C 726.912 -3.66508 -3.4785 0
M  V30 7693 C 729.11 -3.95903 -3.28277 0
M  V30 7694 N 727.092 -5.06227 -3.47285 0
M  V30 7695 C 728.463 -5.21883 -3.34721 0
M  V30 7696 C 730.518 -3.88002 -3.12024 0
M  V30 7697 C 729.221 -6.40886 -3.26585 0
M  V30 7698 C 731.247 -5.06553 -3.05219 0
M  V30 7699 C 730.609 -6.31403 -3.12266 0
M  V30 7700 H 726.708 -0.392294 -0.676483 0
M  V30 7701 H 729.292 -1.45567 -1.293 0
M  V30 7702 H 727.463 -0.959076 -3.76373 0
M  V30 7703 H 729.195 -1.18247 -3.8704 0
M  V30 7704 H 725.95 -3.17067 -3.51804 0
M  V30 7705 H 726.374 -5.79172 -3.50555 0
M  V30 7706 H 731.016 -2.9235 -3.05436 0
M  V30 7707 H 728.734 -7.36781 -3.31934 0
M  V30 7708 H 732.32 -5.02191 -2.93761 0
M  V30 7709 H 731.2 -7.21596 -3.07032 0
M  V30 7710 N 728.703 1.26451 -0.940633 0
M  V30 7711 C 729.633 2.28773 -0.467479 0
M  V30 7712 C 730.614 1.63218 0.478955 0
M  V30 7713 O 731.799 1.90427 0.380929 0
M  V30 7714 C 728.929 3.46259 0.268656 0
M  V30 7715 C 727.883 4.23898 -0.591171 0
M  V30 7716 C 727.209 5.33993 0.274891 0
M  V30 7717 C 728.509 4.87974 -1.86223 0
M  V30 7718 H 730.203 2.68601 -1.32265 0
M  V30 7719 H 727.749 1.29123 -0.637436 0
M  V30 7720 H 729.702 4.16951 0.610696 0
M  V30 7721 H 728.426 3.05383 1.15796 0
M  V30 7722 H 727.085 3.54969 -0.916098 0
M  V30 7723 H 726.733 4.89358 1.16353 0
M  V30 7724 H 726.433 5.86849 -0.297006 0
M  V30 7725 H 727.957 6.07523 0.612213 0
M  V30 7726 H 729.371 5.50883 -1.58747 0
M  V30 7727 H 727.768 5.50945 -2.37866 0
M  V30 7728 H 728.838 4.10945 -2.57394 0
M  V30 7729 N 730.181 0.707592 1.40822 0
M  V30 7730 C 731.597 0.38034 1.55002 0
M  V30 7731 C 731.797 -1.11163 1.68062 0
M  V30 7732 O 730.853 -1.89761 1.66574 0
M  V30 7733 C 732.166 1.1394 2.78277 0
M  V30 7734 C 733.714 1.12492 2.92087 0
M  V30 7735 C 734.189 1.86597 4.18265 0
M  V30 7736 N 735.68 1.83626 4.25248 0
M  V30 7737 C 736.415 2.37794 5.21768 0
M  V30 7738 N 735.911 3.00485 6.24244 0
M  V30 7739 N 737.704 2.27982 5.13791 0
M  V30 7740 H 729.855 1.67511 1.3059 0
M  V30 7741 H 732.118 0.707579 0.630901 0
M  V30 7742 H 731.824 2.19398 2.74877 0
M  V30 7743 H 731.698 0.725793 3.70151 0
M  V30 7744 H 734.085 0.0785564 2.94995 0
M  V30 7745 H 734.166 1.57768 2.01353 0
M  V30 7746 H 733.81 2.91219 4.16118 0
M  V30 7747 H 733.74 1.38746 5.07993 0
M  V30 7748 H 736.231 1.3793 3.51829 0
M  V30 7749 H 736.544 3.39355 6.94304 0
M  V30 7750 H 734.889 3.04567 6.24711 0
M  V30 7751 H 738.08 1.78669 4.3266 0
M  V30 7752 H 738.253 2.70499 5.88841 0
M  V30 7753 N 731.66 -1.50943 0.453197 0
M  V30 7754 C 732.623 -2.26684 -0.338705 0
M  V30 7755 C 733.623 -1.30748 -0.936032 0
M  V30 7756 O 734.813 -1.54327 -0.808002 0
M  V30 7757 C 731.945 -3.07063 -1.48071 0
M  V30 7758 H 733.138 -2.98131 0.325289 0
M  V30 7759 H 730.691 -1.54926 0.206771 0
M  V30 7760 H 731.426 -2.4007 -2.18029 0
M  V30 7761 H 731.211 -3.77545 -1.0584 0
M  V30 7762 H 732.701 -3.64393 -2.0398 0
M  V30 7763 N 733.138 -0.185124 -1.56509 0
M  V30 7764 C 734.085 0.739729 -2.18624 0
M  V30 7765 C 735.055 1.217 -1.13042 0
M  V30 7766 O 736.24 1.28268 -1.41251 0
M  V30 7767 C 733.38 1.95787 -2.84186 0
M  V30 7768 C 732.493 1.52289 -4.04267 0
M  V30 7769 C 731.628 2.69576 -4.57714 0
M  V30 7770 C 730.667 2.22636 -5.70175 0
M  V30 7771 N 729.804 3.33065 -6.18071 0
M  V30 7772 H 734.644 0.203269 -2.97306 0
M  V30 7773 H 732.181 0.0885946 -1.46833 0
M  V30 7774 H 734.139 2.67253 -3.20361 0
M  V30 7775 H 732.769 2.4678 -2.08085 0
M  V30 7776 H 731.821 0.704458 -3.7382 0
M  V30 7777 H 733.133 1.13843 -4.85635 0
M  V30 7778 H 732.287 3.4918 -4.96143 0
M  V30 7779 H 731.026 3.1129 -3.75433 0
M  V30 7780 H 730.031 1.41483 -5.31284 0
M  V30 7781 H 731.256 1.81964 -6.54267 0
M  V30 7782 H 729.202 3.74328 -5.38715 0
M  V30 7783 H 729.119 2.98756 -6.94464 0
M  V30 7784 H 730.387 4.12912 -6.61153 0
M  V30 7785 N 734.616 1.57351 0.0885366 0
M  V30 7786 C 735.526 2.05858 1.12516 0
M  V30 7787 C 736.542 0.984758 1.43452 0
M  V30 7788 O 737.718 1.29836 1.53963 0
M  V30 7789 C 734.783 2.47882 2.42395 0
M  V30 7790 C 733.844 3.69487 2.18582 0
M  V30 7791 C 733.077 4.09497 3.42268 0
M  V30 7792 O 733.3 3.49536 4.50755 0
M  V30 7793 O 732.234 5.02406 3.31469 0
M  V30 7794 H 736.06 2.94467 0.743146 0
M  V30 7795 H 733.645 1.46326 0.301507 0
M  V30 7796 H 735.527 2.75509 3.18862 0
M  V30 7797 H 734.202 1.62408 2.8001 0
M  V30 7798 H 733.109 3.46967 1.39875 0
M  V30 7799 H 734.442 4.55761 1.85857 0
M  V30 7800 N 736.094 -0.359525 1.53444 0
M  V30 7801 C 737.505 -0.936009 1.61542 0
M  V30 7802 C 737.856 -1.90069 0.486633 0
M  V30 7803 O 736.981 -2.12929 -0.386047 0
M  V30 7804 C 737.576 -1.70441 2.92806 0
M  V30 7805 C 736.135 -2.23015 3.03218 0
M  V30 7806 C 735.282 -1.04438 2.56881 0
M  V30 7807 H 738.233 -0.138134 1.58098 0
M  V30 7808 H 738.254 -2.56609 2.80948 0
M  V30 7809 H 737.766 -1.00205 3.74941 0
M  V30 7810 H 735.867 -2.96475 2.25684 0
M  V30 7811 H 735.98 -2.50481 4.08407 0
M  V30 7812 H 734.344 -1.41314 2.11902 0
M  V30 7813 H 735.127 -0.356905 3.4144 0
M  V30 7814 N 737.572 -1.44907 -0.619662 0
M  V30 7815 C 738.535 -1.52282 -1.71297 0
M  V30 7816 C 739.535 -0.40359 -1.55653 0
M  V30 7817 O 740.725 -0.666638 -1.6094 0
M  V30 7818 C 737.857 -1.40778 -3.10474 0
M  V30 7819 H 739.05 -2.49683 -1.66128 0
M  V30 7820 H 736.603 -1.32168 -0.834339 0
M  V30 7821 H 737.338 -0.445156 -3.2123 0
M  V30 7822 H 737.123 -2.21947 -3.23237 0
M  V30 7823 H 738.613 -1.48946 -3.90135 0
M  V30 7824 N 739.05 0.861098 -1.31996 0
M  V30 7825 C 740.298 1.61162 -1.21947 0
M  V30 7826 C 740.619 1.93751 0.220351 0
M  V30 7827 O 739.889 1.59069 1.14341 0
M  V30 7828 H 738.469 0.597485 -0.448353 0
M  V30 7829 H 741.131 1.03039 -1.65436 0
M  V30 7830 H 740.227 2.55138 -1.79752 0
M  V30 7831 N 740.528 1.15101 1.07655 0
M  V30 7832 C 741.438 0.858869 2.18313 0
M  V30 7833 C 742.454 -0.163641 1.73229 0
M  V30 7834 O 743.63 0.00969541 2.01398 0
M  V30 7835 C 740.695 0.34893 3.4494 0
M  V30 7836 C 739.756 1.43495 4.04608 0
M  V30 7837 C 738.989 0.949253 5.2519 0
M  V30 7838 O 739.212 -0.20636 5.70027 0
M  V30 7839 O 738.146 1.73161 5.76454 0
M  V30 7840 H 741.972 1.78386 2.45788 0
M  V30 7841 H 739.557 0.929876 1.16934 0
M  V30 7842 H 741.439 0.070851 4.2134 0
M  V30 7843 H 740.114 -0.548237 3.19024 0
M  V30 7844 H 739.021 1.7666 3.29761 0
M  V30 7845 H 740.354 2.30692 4.3479 0
M  V30 7846 N 742.006 -1.2595 0.947325 0
M  V30 7847 C 742.954 -2.28152 0.452687 0
M  V30 7848 C 743.948 -1.62655 -0.473239 0
M  V30 7849 O 745.154 -1.76549 -0.350774 0
M  V30 7850 H 741.529 -0.741049 0.12787 0
M  V30 7851 H 743.5 -2.67267 1.32707 0
M  V30 7852 C 742.249 -3.46719 -0.26098 0
M  V30 7853 H 741.572 -3.97345 0.442352 0
M  V30 7854 H 743.012 -4.20135 -0.571208 0
M  V30 7855 C 741.471 -3.02605 -1.48094 0
M  V30 7856 O 742.001 -3.07979 -2.57899 0
M  V30 7857 N 740.207 -2.57877 -1.33969 0
M  V30 7858 H 739.754 -2.53704 -0.446295 0
M  V30 7859 H 739.712 -2.28725 -2.15713 0
M  V30 7860 N 743.484 -0.715051 -1.40445 0
M  V30 7861 C 744.732 -0.253826 -2.005 0
M  V30 7862 C 745.053 1.15681 -1.5698 0
M  V30 7863 O 744.323 1.78414 -0.809027 0
M  V30 7864 H 742.903 -0.0908537 -0.741454 0
M  V30 7865 H 745.565 -0.920561 -1.7179 0
M  V30 7866 H 744.661 -0.286499 -3.10782 0
M  V30 7867 N 744.962 1.50701 -0.461195 0
M  V30 7868 C 746.21 2.01867 0.0970051 0
M  V30 7869 C 746.531 1.34591 1.41104 0
M  V30 7870 O 745.801 0.488041 1.89723 0
M  V30 7871 H 744.381 0.74599 0.0388392 0
M  V30 7872 H 747.043 1.85129 -0.609357 0
M  V30 7873 H 746.139 3.11051 0.255688 0
M  V30 7874 N 746.441 0.193421 1.56409 0
M  V30 7875 C 747.857 -0.162447 1.58771 0
M  V30 7876 C 748.057 -1.6116 1.20954 0
M  V30 7877 O 747.113 -2.3469 0.931497 0
M  V30 7878 C 748.426 0.138391 3.00381 0
M  V30 7879 C 749.974 0.0783649 3.12902 0
M  V30 7880 C 750.449 0.352491 4.56642 0
M  V30 7881 N 751.94 0.30105 4.62221 0
M  V30 7882 C 752.675 0.487028 5.71328 0
M  V30 7883 N 752.171 0.733265 6.88909 0
M  V30 7884 N 753.964 0.4214 5.60518 0
M  V30 7885 H 746.115 1.13909 1.79272 0
M  V30 7886 H 748.378 0.454528 0.83193 0
M  V30 7887 H 748.084 1.14312 3.32604 0
M  V30 7888 H 747.958 -0.559804 3.73023 0
M  V30 7889 H 750.345 -0.916963 2.80492 0
M  V30 7890 H 750.426 0.809611 2.4265 0
M  V30 7891 H 750.07 1.34513 4.89764 0
M  V30 7892 H 750 -0.399624 5.25081 0
M  V30 7893 H 752.491 0.117279 3.77718 0
M  V30 7894 H 752.804 0.86403 7.67955 0
M  V30 7895 H 751.149 0.770138 6.9072 0
M  V30 7896 H 754.34 0.229461 4.67537 0
M  V30 7897 H 754.513 0.569758 6.4549 0
M  V30 7898 N 747.919 -1.57396 -0.0801906 0
M  V30 7899 C 748.882 -2.02133 -1.0805 0
M  V30 7900 C 749.882 -0.91707 -1.32085 0
M  V30 7901 O 751.072 -1.18217 -1.27947 0
M  V30 7902 C 748.204 -2.39479 -2.42616 0
M  V30 7903 H 749.397 -2.91733 -0.6951 0
M  V30 7904 H 746.95 -1.52869 -0.325677 0
M  V30 7905 H 747.685 -1.52879 -2.86004 0
M  V30 7906 H 747.47 -3.20052 -2.26515 0
M  V30 7907 H 748.96 -2.74697 -3.14534 0
M  V30 7908 N 749.397 0.351382 -1.53633 0
M  V30 7909 C 750.327 1.43688 -1.84055 0
M  V30 7910 C 751.308 1.55251 -0.695073 0
M  V30 7911 O 752.493 1.69587 -0.946257 0
M  V30 7912 C 749.623 2.80843 -2.04315 0
M  V30 7913 C 748.577 2.84094 -3.20117 0
M  V30 7914 C 747.903 4.2406 -3.25696 0
M  V30 7915 C 749.203 2.50334 -4.58399 0
M  V30 7916 H 750.897 1.18478 -2.74961 0
M  V30 7917 H 748.443 0.568509 -1.32303 0
M  V30 7918 H 750.396 3.56821 -2.2418 0
M  V30 7919 H 749.12 3.07471 -1.10132 0
M  V30 7920 H 747.779 2.10568 -3.00094 0
M  V30 7921 H 747.427 4.47785 -2.29123 0
M  V30 7922 H 747.127 4.27147 -4.03509 0
M  V30 7923 H 748.651 5.0189 -3.47762 0
M  V30 7924 H 750.065 3.16025 -4.78332 0
M  V30 7925 H 748.462 2.64717 -5.38558 0
M  V30 7926 H 749.532 1.45542 -4.62543 0
M  V30 7927 N 750.875 1.45233 0.611969 0
M  V30 7928 C 752.121 1.49242 1.37312 0
M  V30 7929 C 752.454 0.131963 1.93751 0
M  V30 7930 O 751.729 -0.852999 1.74798 0
M  V30 7931 C 752.012 2.56811 2.52428 0
M  V30 7932 C 751.865 4.02284 2.01215 0
M  V30 7933 C 753.184 2.60705 3.54572 0
M  V30 7934 H 750.303 0.54336 0.497925 0
M  V30 7935 H 752.945 1.77019 0.690242 0
M  V30 7936 H 751.095 2.33256 3.10683 0
M  V30 7937 H 752.767 4.37035 1.47643 0
M  V30 7938 H 751.01 4.1315 1.32248 0
M  V30 7939 H 751.681 4.7323 2.84178 0
M  V30 7940 H 754.157 2.81799 3.06151 0
M  V30 7941 H 753.033 3.37841 4.32614 0
M  V30 7942 H 753.294 1.65627 4.09903 0
M  V30 7943 N 752.353 -0.854086 1.3245 0
M  V30 7944 C 753.764 -1.42427 1.20712 0
M  V30 7945 C 754.115 -1.95371 -0.18013 0
M  V30 7946 O 753.24 -1.87587 -1.07889 0
M  V30 7947 C 753.835 -2.58897 2.18536 0
M  V30 7948 C 752.394 -3.11913 2.10683 0
M  V30 7949 C 751.541 -1.84661 2.06871 0
M  V30 7950 H 754.492 -0.661192 1.4427 0
M  V30 7951 H 754.513 -3.36074 1.78422 0
M  V30 7952 H 754.025 -2.20333 3.19492 0
M  V30 7953 H 752.126 -3.55059 1.12977 0
M  V30 7954 H 752.239 -3.73119 3.00532 0
M  V30 7955 H 750.603 -2.04285 1.52118 0
M  V30 7956 H 751.386 -1.48314 3.09609 0
M  V30 7957 N 753.831 -1.1567 -1.07043 0
M  V30 7958 C 754.764 -0.799867 -2.13723 0
M  V30 7959 C 755.742 0.225098 -1.61034 0
M  V30 7960 O 756.926 0.11093 -1.88173 0
M  V30 7961 C 754.053 -0.18997 -3.38167 0
M  V30 7962 C 753.099 -1.18733 -4.0964 0
M  V30 7963 S 753.932 -2.73074 -4.60642 0
M  V30 7964 C 755.088 -2.13512 -5.88356 0
M  V30 7965 H 755.321 -1.70342 -2.43661 0
M  V30 7966 H 752.854 -0.979377 -1.19363 0
M  V30 7967 H 754.812 0.155471 -4.10205 0
M  V30 7968 H 753.473 0.691229 -3.064 0
M  V30 7969 H 752.666 -0.708873 -4.9899 0
M  V30 7970 H 752.268 -1.47747 -3.43579 0
M  V30 7971 H 754.56 -1.49911 -6.60706 0
M  V30 7972 H 755.503 -3.01042 -6.40921 0
M  V30 7973 H 755.911 -1.57693 -5.42027 0
M  V30 7974 N 755.309 1.25446 -0.953992 0
M  V30 7975 C 756.556 1.93143 -0.608429 0
M  V30 7976 C 756.884 1.74727 0.854451 0
M  V30 7977 O 756.139 1.0855 1.62836 0
M  V30 7978 C 756.438 3.45555 -0.912496 0
M  V30 7979 C 756.104 3.84126 -2.36131 0
M  V30 7980 C 754.766 3.94367 -2.75732 0
M  V30 7981 C 757.118 4.0324 -3.30223 0
M  V30 7982 C 754.446 4.21127 -4.08496 0
M  V30 7983 C 756.798 4.31493 -4.62598 0
M  V30 7984 C 755.462 4.3995 -5.01996 0
M  V30 7985 H 754.732 0.706762 -0.22264 0
M  V30 7986 H 757.379 1.49005 -1.20291 0
M  V30 7987 H 755.684 3.91091 -0.235618 0
M  V30 7988 H 757.381 3.9612 -0.623714 0
M  V30 7989 H 753.971 3.76711 -2.04418 0
M  V30 7990 H 758.155 3.94744 -3.00817 0
M  V30 7991 H 753.411 4.2589 -4.38665 0
M  V30 7992 H 757.585 4.45227 -5.35486 0
M  V30 7993 H 755.212 4.60439 -6.04896 0
M  V30 7994 N 756.787 0.722489 1.40064 0
M  V30 7995 C 758.033 0.265371 2.01056 0
M  V30 7996 C 758.366 -1.14062 1.57174 0
M  V30 7997 O 757.641 -1.77514 0.794916 0
M  V30 7998 C 757.924 0.353157 3.58364 0
M  V30 7999 C 757.777 1.79802 4.123 0
M  V30 8000 C 759.096 -0.271677 4.39261 0
M  V30 8001 H 756.215 0.0979002 0.730469 0
M  V30 8002 H 758.857 0.916289 1.66446 0
M  V30 8003 H 757.007 -0.201037 3.87979 0
M  V30 8004 H 758.679 2.40813 3.93455 0
M  V30 8005 H 756.922 2.32348 3.66329 0
M  V30 8006 H 757.593 1.81079 5.21454 0
M  V30 8007 H 760.069 0.200607 4.15616 0
M  V30 8008 H 758.945 -0.179843 5.48605 0
M  V30 8009 H 759.206 -1.35611 4.20787 0
M  V30 8010 N 758.265 -1.50454 0.469181 0
M  V30 8011 C 759.681 -1.59124 0.123226 0
M  V30 8012 C 759.881 -1.47749 -1.37013 0
M  V30 8013 O 758.937 -1.335 -2.14322 0
M  V30 8014 C 760.25 -2.93101 0.67172 0
M  V30 8015 C 761.798 -3.06491 0.634978 0
M  V30 8016 C 762.273 -4.43041 1.16098 0
M  V30 8017 N 763.764 -4.49448 1.12031 0
M  V30 8018 C 764.499 -5.53491 1.49784 0
M  V30 8019 N 763.995 -6.64798 1.94976 0
M  V30 8020 N 765.788 -5.44025 1.41399 0
M  V30 8021 H 757.939 -1.56091 1.44046 0
M  V30 8022 H 760.202 -0.737564 0.59557 0
M  V30 8023 H 759.908 -3.06895 1.7178 0
M  V30 8024 H 759.782 -3.77027 0.114222 0
M  V30 8025 H 762.169 -2.92346 -0.402187 0
M  V30 8026 H 762.25 -2.24328 1.22926 0
M  V30 8027 H 761.894 -4.57935 2.19677 0
M  V30 8028 H 761.824 -5.23794 0.542939 0
M  V30 8029 H 764.315 -3.69575 0.788828 0
M  V30 8030 H 764.628 -7.40246 2.21936 0
M  V30 8031 H 762.973 -6.65923 1.98927 0
M  V30 8032 H 766.164 -4.55955 1.05935 0
M  V30 8033 H 766.337 -6.2499 1.71147 0
M  V30 8034 N 759.743 -0.201713 -1.56304 0
M  V30 8035 C 760.69 0.716499 -2.19397 0
M  V30 8036 C 761.66 1.20494 -1.14326 0
M  V30 8037 O 762.845 1.26763 -1.42604 0
M  V30 8038 C 759.985 1.92762 -2.86246 0
M  V30 8039 C 759.098 1.47993 -4.0586 0
M  V30 8040 C 758.233 2.64706 -4.60547 0
M  V30 8041 C 757.272 2.16576 -5.72504 0
M  V30 8042 N 756.409 3.26491 -6.21569 0
M  V30 8043 H 761.249 0.171724 -2.97505 0
M  V30 8044 H 758.786 0.073016 -1.46919 0
M  V30 8045 H 760.744 2.6384 -3.23178 0
M  V30 8046 H 759.374 2.44559 -2.10691 0
M  V30 8047 H 758.426 0.66477 -3.74546 0
M  V30 8048 H 759.738 1.08686 -4.86815 0
M  V30 8049 H 758.892 3.43898 -4.99819 0
M  V30 8050 H 757.631 3.0729 -3.78713 0
M  V30 8051 H 756.636 1.3584 -5.32755 0
M  V30 8052 H 757.861 1.75015 -6.56161 0
M  V30 8053 H 755.807 3.68594 -5.42655 0
M  V30 8054 H 755.724 2.91374 -6.97594 0
M  V30 8055 H 756.992 4.05877 -6.65495 0
M  V30 8056 N 761.222 1.57436 0.0718424 0
M  V30 8057 C 762.447 1.91858 0.787745 0
M  V30 8058 C 762.872 0.798119 1.70328 0
M  V30 8059 O 762.23 -0.24905 1.79581 0
M  V30 8060 C 762.278 3.25232 1.55744 0
M  V30 8061 O 761.382 3.14462 2.6681 0
M  V30 8062 H 760.723 0.628258 0.214914 0
M  V30 8063 H 763.253 2.04561 0.0401012 0
M  V30 8064 H 763.263 3.59105 1.9367 0
M  V30 8065 H 761.938 4.0636 0.885691 0
M  V30 8066 H 760.515 2.92148 2.31741 0
M  V30 8067 N 762.7 -0.34323 1.53817 0
M  V30 8068 C 763.632 -1.44216 1.78141 0
M  V30 8069 C 764.645 -1.48701 0.662721 0
M  V30 8070 O 765.834 -1.51778 0.939458 0
M  V30 8071 C 762.934 -2.82872 1.86646 0
M  V30 8072 C 762.107 -3.01824 3.16577 0
M  V30 8073 C 761.166 -4.20723 3.16036 0
M  V30 8074 O 760.192 -4.14824 3.89756 0
M  V30 8075 N 761.394 -5.29276 2.38427 0
M  V30 8076 H 764.159 -1.23721 2.72971 0
M  V30 8077 H 761.72 -0.53311 1.52871 0
M  V30 8078 H 763.712 -3.60588 1.83735 0
M  V30 8079 H 762.282 -2.96509 0.990014 0
M  V30 8080 H 761.502 -2.11575 3.3261 0
M  V30 8081 H 762.79 -3.11369 4.02402 0
M  V30 8082 H 762.188 -5.36938 1.78085 0
M  V30 8083 H 760.745 -6.05484 2.41313 0
M  V30 8084 N 764.178 -1.45556 -0.604258 0
M  V30 8085 C 765.425 -1.49746 -1.36317 0
M  V30 8086 C 765.753 -0.140516 -1.93992 0
M  V30 8087 O 765.008 0.861244 -1.7573 0
M  V30 8088 C 765.307 -2.52697 -2.52743 0
M  V30 8089 C 764.973 -3.97315 -2.13195 0
M  V30 8090 C 763.635 -4.36692 -2.02123 0
M  V30 8091 C 765.987 -4.88249 -1.8238 0
M  V30 8092 C 763.315 -5.64895 -1.58463 0
M  V30 8093 C 765.667 -6.16867 -1.40205 0
M  V30 8094 C 764.331 -6.55172 -1.27694 0
M  V30 8095 H 763.601 -0.54796 -0.49882 0
M  V30 8096 H 766.248 -1.7892 -0.682643 0
M  V30 8097 H 764.553 -2.17105 -3.26148 0
M  V30 8098 H 766.25 -2.53176 -3.10971 0
M  V30 8099 H 762.84 -3.66176 -2.22739 0
M  V30 8100 H 767.024 -4.58561 -1.89829 0
M  V30 8101 H 762.28 -5.93365 -1.47402 0
M  V30 8102 H 766.454 -6.86771 -1.15408 0
M  V30 8103 H 764.081 -7.54411 -0.936375 0
M  V30 8104 N 765.656 0.84705 -1.32902 0
M  V30 8105 C 767.072 1.13645 -1.12058 0
M  V30 8106 C 767.272 2.01281 0.093937 0
M  V30 8107 O 766.328 2.4026 0.776608 0
M  V30 8108 C 767.641 1.80644 -2.40392 0
M  V30 8109 C 769.189 1.93246 -2.46221 0
M  V30 8110 C 769.664 2.6366 -3.74496 0
M  V30 8111 N 771.155 2.71179 -3.75521 0
M  V30 8112 C 771.89 3.26332 -4.71482 0
M  V30 8113 N 771.386 3.82236 -5.77813 0
M  V30 8114 N 773.179 3.24507 -4.58968 0
M  V30 8115 H 765.33 0.263612 -2.10758 0
M  V30 8116 H 767.593 0.17944 -0.930863 0
M  V30 8117 H 767.299 1.23708 -3.29225 0
M  V30 8118 H 767.173 2.80736 -2.51926 0
M  V30 8119 H 769.56 2.49338 -1.57843 0
M  V30 8120 H 769.641 0.921272 -2.38634 0
M  V30 8121 H 769.285 2.08229 -4.63253 0
M  V30 8122 H 769.215 3.65234 -3.79357 0
M  V30 8123 H 771.706 2.31527 -2.9867 0
M  V30 8124 H 772.019 4.22499 -6.47082 0
M  V30 8125 H 770.364 3.80546 -5.81558 0
M  V30 8126 H 773.555 2.80085 -3.7506 0
M  V30 8127 H 773.728 3.67188 -5.33926 0
M  V30 8128 N 767.134 1.16236 1.06428 0
M  V30 8129 C 768.064 0.890807 2.1584 0
M  V30 8130 C 769.045 -0.162333 1.69324 0
M  V30 8131 O 770.23 -0.0147191 1.94194 0
M  V30 8132 C 767.36 0.389615 3.45108 0
M  V30 8133 C 766.314 1.38051 4.05125 0
M  V30 8134 C 765.64 0.737773 5.29586 0
M  V30 8135 C 766.94 2.74965 4.44062 0
M  V30 8136 H 768.634 1.80577 2.38814 0
M  V30 8137 H 766.18 0.869657 1.14774 0
M  V30 8138 H 768.133 0.187127 4.20984 0
M  V30 8139 H 766.857 -0.560851 3.21748 0
M  V30 8140 H 765.516 1.56952 3.31303 0
M  V30 8141 H 765.164 -0.219135 5.02522 0
M  V30 8142 H 764.864 1.39914 5.70699 0
M  V30 8143 H 766.388 0.545275 6.0816 0
M  V30 8144 H 767.802 2.59855 5.11027 0
M  V30 8145 H 766.199 3.37563 4.96156 0
M  V30 8146 H 767.269 3.30321 3.54987 0
M  V30 8147 N 768.612 -1.24939 0.960631 0
M  V30 8148 C 770.023 -1.74701 0.658529 0
M  V30 8149 C 770.374 -1.77967 -0.825959 0
M  V30 8150 O 769.499 -1.40444 -1.64634 0
M  V30 8151 C 770.094 -3.17263 1.18867 0
M  V30 8152 C 768.653 -3.64561 0.936614 0
M  V30 8153 C 767.8 -2.43423 1.32817 0
M  V30 8154 H 770.751 -1.10741 1.13676 0
M  V30 8155 H 770.772 -3.76481 0.551589 0
M  V30 8156 H 770.284 -3.14854 2.26912 0
M  V30 8157 H 768.385 -3.72378 -0.128608 0
M  V30 8158 H 768.498 -4.52392 1.57729 0
M  V30 8159 H 766.862 -2.43513 0.746548 0
M  V30 8160 H 767.645 -2.437 2.41796 0
M  V30 8161 N 770.09 -0.729906 -1.39679 0
M  V30 8162 C 771.337 -0.275622 -2.00615 0
M  V30 8163 C 771.665 1.13559 -1.57907 0
M  V30 8164 O 770.92 1.78745 -0.796789 0
M  V30 8165 C 771.219 -0.319564 -3.55968 0
M  V30 8166 C 770.885 -1.68308 -4.1831 0
M  V30 8167 C 769.547 -2.05629 -4.35052 0
M  V30 8168 C 771.899 -2.57857 -4.52945 0
M  V30 8169 C 769.227 -3.32018 -4.83716 0
M  V30 8170 C 771.579 -3.83613 -5.03015 0
M  V30 8171 C 770.243 -4.21033 -5.17965 0
M  V30 8172 H 769.513 -0.100857 -0.734104 0
M  V30 8173 H 772.16 -0.93575 -1.67081 0
M  V30 8174 H 770.465 0.42414 -3.89497 0
M  V30 8175 H 772.162 0.0499905 -4.00969 0
M  V30 8176 H 768.752 -1.3829 -4.05677 0
M  V30 8177 H 772.936 -2.30295 -4.39634 0
M  V30 8178 H 768.192 -3.6096 -4.93475 0
M  V30 8179 H 772.366 -4.53162 -5.28788 0
M  V30 8180 H 769.993 -5.19034 -5.55435 0
M  V30 8181 N 771.568 1.50203 -0.477153 0
M  V30 8182 C 772.515 2.28656 0.31386 0
M  V30 8183 C 773.485 1.33977 0.981802 0
M  V30 8184 O 774.67 1.62919 0.993072 0
M  V30 8185 C 771.81 3.16027 1.38639 0
M  V30 8186 C 770.923 4.25743 0.732615 0
M  V30 8187 C 770.058 5.00363 1.78355 0
M  V30 8188 C 769.097 6.01945 1.11035 0
M  V30 8189 N 768.234 6.6982 2.10441 0
M  V30 8190 H 773.074 2.958 -0.361445 0
M  V30 8191 H 770.611 1.45867 -0.190093 0
M  V30 8192 H 772.569 3.6504 2.01994 0
M  V30 8193 H 771.199 2.50917 2.03077 0
M  V30 8194 H 770.251 3.80398 -0.0136546 0
M  V30 8195 H 771.563 4.98393 0.201513 0
M  V30 8196 H 770.717 5.53124 2.49276 0
M  V30 8197 H 769.456 4.27432 2.34847 0
M  V30 8198 H 768.461 5.48438 0.386797 0
M  V30 8199 H 769.686 6.76851 0.552248 0
M  V30 8200 H 767.632 5.99677 2.65939 0
M  V30 8201 H 767.549 7.38366 1.62332 0
M  V30 8202 H 768.817 7.27196 2.80724 0
M  V30 8203 N 773.046 0.209999 1.56195 0
M  V30 8204 C 774.009 -0.691232 2.18528 0
M  V30 8205 C 775.009 -1.13013 1.14388 0
M  V30 8206 O 776.199 -1.04081 1.39688 0
M  V30 8207 C 773.331 -1.94551 2.79934 0
M  V30 8208 H 774.524 -0.147953 2.99535 0
M  V30 8209 H 772.077 -0.0396243 1.5625 0
M  V30 8210 H 772.812 -2.53094 2.02766 0
M  V30 8211 H 772.597 -1.63938 3.56184 0
M  V30 8212 H 774.087 -2.58785 3.2775 0
M  V30 8213 N 774.524 -1.57472 -0.0634922 0
M  V30 8214 C 775.752 -1.91887 -0.773767 0
M  V30 8215 C 776.167 -0.806733 -1.70696 0
M  V30 8216 O 775.524 0.219383 -1.81177 0
M  V30 8217 C 775.575 -3.26092 -1.56034 0
M  V30 8218 O 775.296 -4.33029 -0.66464 0
M  V30 8219 C 776.797 -3.74573 -2.37087 0
M  V30 8220 H 774.017 -0.634074 -0.219525 0
M  V30 8221 H 776.561 -2.04476 -0.0312828 0
M  V30 8222 H 774.716 -3.15004 -2.25502 0
M  V30 8223 H 775.13 -5.10291 -1.21258 0
M  V30 8224 H 776.604 -4.71084 -2.87722 0
M  V30 8225 H 777.081 -3.04003 -3.16984 0
M  V30 8226 H 777.687 -3.88631 -1.72759 0
M  V30 8227 N 776.003 0.335068 -1.53997 0
M  V30 8228 C 777.231 1.09418 -1.756 0
M  V30 8229 C 777.646 1.82083 -0.499138 0
M  V30 8230 O 777.003 1.74646 0.529631 0
M  V30 8231 C 777.054 2.10115 -2.94166 0
M  V30 8232 O 776.775 1.40404 -4.14992 0
M  V30 8233 C 778.276 2.98336 -3.27888 0
M  V30 8234 H 775.496 0.32595 -0.586513 0
M  V30 8235 H 778.04 0.384693 -2.00849 0
M  V30 8236 H 776.195 2.76616 -2.71224 0
M  V30 8237 H 776.609 2.07743 -4.81605 0
M  V30 8238 H 778.083 3.6491 -4.1418 0
M  V30 8239 H 778.56 3.64814 -2.44556 0
M  V30 8240 H 779.166 2.37412 -3.52868 0
M  V30 8241 N 777.481 1.45874 0.596531 0
M  V30 8242 C 778.892 1.44798 1.17857 0
M  V30 8243 C 779.243 0.181443 1.95359 0
M  V30 8244 O 778.368 -0.716336 2.042 0
M  V30 8245 C 778.963 2.62333 2.14398 0
M  V30 8246 C 777.522 2.64342 2.67955 0
M  V30 8247 C 776.669 2.37244 1.43564 0
M  V30 8248 H 779.62 1.53954 0.385222 0
M  V30 8249 H 779.641 2.37063 2.97626 0
M  V30 8250 H 779.153 3.54499 1.57963 0
M  V30 8251 H 777.254 1.76213 3.28298 0
M  V30 8252 H 777.367 3.63897 3.11634 0
M  V30 8253 H 775.731 1.87022 1.72901 0
M  V30 8254 H 776.514 3.31568 0.889805 0
M  V30 8255 N 778.959 -0.83999 1.33349 0
M  V30 8256 C 780.205 -1.59753 1.24927 0
M  V30 8257 C 780.538 -1.93318 -0.184855 0
M  V30 8258 O 779.813 -1.586 -1.12589 0
M  V30 8259 C 780.096 -2.90829 2.12345 0
M  V30 8260 C 779.949 -2.63953 3.6421 0
M  V30 8261 C 781.268 -3.92246 1.99577 0
M  V30 8262 H 778.387 -0.579654 0.45516 0
M  V30 8263 H 781.029 -0.968909 1.63439 0
M  V30 8264 H 779.179 -3.44478 1.79631 0
M  V30 8265 H 780.851 -2.16745 4.07209 0
M  V30 8266 H 779.094 -1.97671 3.86146 0
M  V30 8267 H 779.765 -3.57348 4.20721 0
M  V30 8268 H 782.241 -3.479 2.28265 0
M  V30 8269 H 781.117 -4.81793 2.62996 0
M  V30 8270 H 781.378 -4.3138 0.967673 0
M  V30 8271 N 780.437 -1.16799 -1.0581 0
M  V30 8272 C 781.686 -0.94698 -1.78088 0
M  V30 8273 C 781.999 0.526016 -1.88394 0
M  V30 8274 O 783.205 0.865061 -2.5735 0
M  V30 8275 C 781.661 -1.64508 -3.20102 0
M  V30 8276 C 781.269 -3.15618 -3.17946 0
M  V30 8277 C 783.013 -1.50622 -3.96879 0
M  V30 8278 C 780.92 -3.78144 -4.5471 0
M  V30 8279 H 779.85 -0.35067 -0.667493 0
M  V30 8280 H 782.501 -1.39985 -1.18645 0
M  V30 8281 H 780.883 -1.11993 -3.79834 0
M  V30 8282 H 782.057 -3.75016 -2.67768 0
M  V30 8283 H 780.372 -3.29444 -2.54667 0
M  V30 8284 H 782.969 -1.94713 -4.97987 0
M  V30 8285 H 783.312 -0.455864 -4.13797 0
M  V30 8286 H 783.845 -2.00319 -3.43682 0
M  V30 8287 H 780.584 -4.83149 -4.42998 0
M  V30 8288 H 780.104 -3.23532 -5.05062 0
M  V30 8289 H 781.783 -3.79986 -5.2366 0
M  V30 8290 N 781.915 1.24427 -0.967243 0
M  V30 8291 C 782.848 2.23885 -0.441683 0
M  V30 8292 C 783.826 1.55231 0.483963 0
M  V30 8293 O 785.01 1.83865 0.415445 0
M  V30 8294 C 782.137 3.36755 0.362458 0
M  V30 8295 C 781.183 4.23495 -0.505407 0
M  V30 8296 S 782.016 4.98916 -1.94534 0
M  V30 8297 C 783.172 6.15245 -1.14997 0
M  V30 8298 H 783.405 2.68118 -1.28453 0
M  V30 8299 H 780.938 1.337 -0.772243 0
M  V30 8300 H 782.896 4.02218 0.820445 0
M  V30 8301 H 781.557 2.91081 1.18027 0
M  V30 8302 H 780.75 5.03876 0.111979 0
M  V30 8303 H 780.352 3.63032 -0.899104 0
M  V30 8304 H 782.644 6.7629 -0.404769 0
M  V30 8305 H 783.587 6.81343 -1.92814 0
M  V30 8306 H 783.995 5.60455 -0.674543 0
M  V30 8307 N 783.393 0.737304 1.3929 0
M  V30 8308 C 784.639 0.286681 2.00763 0
M  V30 8309 C 784.972 -1.12388 1.58375 0
M  V30 8310 O 784.247 -1.76661 0.813699 0
M  V30 8311 C 784.53 0.391147 3.57969 0
M  V30 8312 C 784.383 1.84165 4.1037 0
M  V30 8313 C 785.702 -0.225072 4.39524 0
M  V30 8314 H 782.821 0.105642 0.729389 0
M  V30 8315 H 785.463 0.933892 1.65464 0
M  V30 8316 H 783.613 -0.159875 3.88171 0
M  V30 8317 H 785.285 2.44972 3.90879 0
M  V30 8318 H 783.528 2.3622 3.63844 0
M  V30 8319 H 784.199 1.866 5.19504 0
M  V30 8320 H 786.675 0.244677 4.1538 0
M  V30 8321 H 785.551 -0.121646 5.48765 0
M  V30 8322 H 785.812 -1.31141 4.22202 0
M  V30 8323 N 784.871 -1.49948 0.485112 0
M  V30 8324 C 786.119 -2.01996 -0.0648775 0
M  V30 8325 C 786.44 -1.36819 -1.38945 0
M  V30 8326 O 785.71 -0.518163 -1.88923 0
M  V30 8327 H 784.29 -0.746513 -0.0269662 0
M  V30 8328 H 786.952 -1.84136 0.638733 0
M  V30 8329 H 786.048 -3.11418 -0.20617 0
M  V30 8330 N 786.349 -0.21828 -1.56081 0
M  V30 8331 C 787.76 0.290166 -1.84431 0
M  V30 8332 C 788.111 1.59712 -1.13958 0
M  V30 8333 O 787.236 2.12516 -0.40815 0
M  V30 8334 C 787.831 0.53325 -3.34577 0
M  V30 8335 C 786.39 0.986011 -3.63256 0
M  V30 8336 C 785.537 0.0472798 -2.7726 0
M  V30 8337 H 788.488 -0.441548 -1.52434 0
M  V30 8338 H 788.509 1.37967 -3.54606 0
M  V30 8339 H 788.021 -0.418137 -3.85841 0
M  V30 8340 H 786.122 1.95087 -3.17446 0
M  V30 8341 H 786.235 0.862684 -4.71269 0
M  V30 8342 H 784.599 0.553471 -2.48614 0
M  V30 8343 H 785.382 -0.898966 -3.31321 0
M  V30 8344 N 787.827 1.57504 0.0551401 0
M  V30 8345 C 789.075 1.87684 0.74962 0
M  V30 8346 C 789.396 0.812547 1.77264 0
M  V30 8347 O 788.666 -0.15694 1.9527 0
M  V30 8348 H 787.246 0.6926 0.279846 0
M  V30 8349 H 789.908 1.94881 0.0272745 0
M  V30 8350 H 789.004 2.85734 1.25548 0
M  V30 8351 N 789.305 -0.326896 1.54172 0
M  V30 8352 C 790.533 -1.08486 1.76177 0
M  V30 8353 C 790.948 -1.81815 0.508788 0
M  V30 8354 O 790.305 -1.74924 -0.520362 0
M  V30 8355 C 790.356 -2.08552 2.95276 0
M  V30 8356 O 790.077 -1.38202 4.15731 0
M  V30 8357 C 791.578 -2.96593 3.29466 0
M  V30 8358 H 788.798 -0.322835 0.588233 0
M  V30 8359 H 791.342 -0.374036 2.0105 0
M  V30 8360 H 789.497 -2.75174 2.72687 0
M  V30 8361 H 789.911 -2.05186 4.827 0
M  V30 8362 H 791.385 -3.62708 4.16109 0
M  V30 8363 H 791.862 -3.63511 2.46487 0
M  V30 8364 H 792.468 -2.35537 3.54122 0
M  V30 8365 N 790.784 -1.46188 -0.588786 0
M  V30 8366 C 792.032 -1.50885 -1.34455 0
M  V30 8367 C 792.353 -0.159555 -1.94346 0
M  V30 8368 O 791.623 0.813239 -1.78222 0
M  V30 8369 H 790.203 -0.555707 -0.499198 0
M  V30 8370 H 792.865 -1.82277 -0.690014 0
M  V30 8371 H 791.961 -2.25816 -2.15438 0
M  V30 8372 N 792.262 0.832906 -1.33792 0
M  V30 8373 C 793.508 1.59089 -1.25772 0
M  V30 8374 C 793.841 1.93414 0.174601 0
M  V30 8375 O 793.116 1.59195 1.11746 0
M  V30 8376 C 793.399 2.89699 -2.13885 0
M  V30 8377 C 793.252 2.62017 -3.65605 0
M  V30 8378 C 794.571 3.91182 -2.01654 0
M  V30 8379 H 791.69 0.577232 -0.458227 0
M  V30 8380 H 794.332 0.960227 -1.6395 0
M  V30 8381 H 792.482 3.4352 -1.81456 0
M  V30 8382 H 794.154 2.14582 -4.08353 0
M  V30 8383 H 792.397 1.95621 -3.87189 0
M  V30 8384 H 793.068 3.55112 -4.2261 0
M  V30 8385 H 795.544 3.46684 -2.30107 0
M  V30 8386 H 794.42 4.80391 -2.65548 0
M  V30 8387 H 794.681 4.30861 -0.990536 0
M  V30 8388 N 793.74 1.17359 1.05189 0
M  V30 8389 C 794.703 0.892604 2.11105 0
M  V30 8390 C 795.703 -0.117236 1.60372 0
M  V30 8391 O 796.893 0.114936 1.7382 0
M  V30 8392 C 794.025 0.337032 3.3923 0
M  V30 8393 H 795.218 1.83169 2.37464 0
M  V30 8394 H 792.771 0.984051 1.21434 0
M  V30 8395 H 793.506 -0.609198 3.18527 0
M  V30 8396 H 793.291 1.06484 3.77364 0
M  V30 8397 H 794.781 0.158763 4.17298 0
M  V30 8398 N 795.218 -1.23913 0.973828 0
M  V30 8399 C 796.629 -1.73992 0.677021 0
M  V30 8400 C 796.98 -1.78833 -0.807036 0
M  V30 8401 O 796.105 -1.42183 -1.63135 0
M  V30 8402 C 796.7 -3.15985 1.22226 0
M  V30 8403 C 795.259 -3.63547 0.975228 0
M  V30 8404 C 794.406 -2.42001 1.35392 0
M  V30 8405 H 797.357 -1.09529 1.14844 0
M  V30 8406 H 797.378 -3.75875 0.591489 0
M  V30 8407 H 796.89 -3.12429 2.30238 0
M  V30 8408 H 794.991 -3.72493 -0.0891047 0
M  V30 8409 H 795.104 -4.50693 1.62518 0
M  V30 8410 H 793.468 -2.42708 0.772334 0
M  V30 8411 H 794.251 -2.41122 2.44367 0
M  V30 8412 N 796.696 -0.74468 -1.38897 0
M  V30 8413 C 797.943 -0.296884 -2.00312 0
M  V30 8414 C 798.271 1.11878 -1.59102 0
M  V30 8415 O 797.526 1.7789 -0.815702 0
M  V30 8416 C 797.825 -0.357302 -3.55609 0
M  V30 8417 C 797.491 -1.72736 -4.16501 0
M  V30 8418 C 796.153 -2.10232 -4.32846 0
M  V30 8419 C 798.505 -2.62647 -4.50184 0
M  V30 8420 C 795.833 -3.3713 -4.80167 0
M  V30 8421 C 798.185 -3.88926 -4.98918 0
M  V30 8422 C 796.849 -4.26503 -5.1347 0
M  V30 8423 H 796.119 -0.108638 -0.732993 0
M  V30 8424 H 798.766 -0.953419 -1.66079 0
M  V30 8425 H 797.071 0.382805 -3.89925 0
M  V30 8426 H 798.768 0.0074596 -4.00999 0
M  V30 8427 H 795.358 -1.42585 -4.04187 0
M  V30 8428 H 799.542 -2.34945 -4.37166 0
M  V30 8429 H 794.798 -3.66174 -4.89619 0
M  V30 8430 H 798.972 -4.58745 -5.23952 0
M  V30 8431 H 796.599 -5.24896 -5.49898 0
M  V30 8432 N 798.174 1.49689 -0.493057 0
M  V30 8433 C 799.423 2.01622 0.0560733 0
M  V30 8434 C 799.736 1.37838 1.3878 0
M  V30 8435 O 800.942 1.81054 2.02316 0
M  V30 8436 C 799.398 3.59586 0.150409 0
M  V30 8437 C 799.006 4.32338 -1.1742 0
M  V30 8438 C 800.75 4.19489 0.650327 0
M  V30 8439 C 798.657 5.8214 -1.04246 0
M  V30 8440 H 797.587 0.753594 0.0247297 0
M  V30 8441 H 800.238 1.723 -0.631279 0
M  V30 8442 H 798.62 3.8559 0.902035 0
M  V30 8443 H 799.794 4.18042 -1.9385 0
M  V30 8444 H 798.109 3.84144 -1.60694 0
M  V30 8445 H 800.706 5.29181 0.766272 0
M  V30 8446 H 801.049 3.82326 1.6472 0
M  V30 8447 H 801.582 3.97775 -0.0445371 0
M  V30 8448 H 798.321 6.23814 -2.01336 0
M  V30 8449 H 797.841 5.98952 -0.31892 0
M  V30 8450 H 799.52 6.43004 -0.717957 0
M  V30 8451 N 799.652 0.226554 1.55963 0
M  V30 8452 C 800.9 -0.402991 1.98041 0
M  V30 8453 C 801.221 -1.59938 1.11557 0
M  V30 8454 O 800.491 -1.9494 0.193719 0
M  V30 8455 H 799.071 -0.15188 0.731397 0
M  V30 8456 H 801.733 0.320613 1.92245 0
M  V30 8457 H 800.829 -0.725937 3.0354 0
M  V30 8458 N 801.13 -1.57531 -0.0467866 0
M  V30 8459 C 802.377 -1.88451 -0.74112 0
M  V30 8460 C 802.705 -0.821592 -1.76296 0
M  V30 8461 O 801.96 0.179585 -1.94874 0
M  V30 8462 C 802.259 -3.26091 -1.46285 0
M  V30 8463 C 801.925 -4.47171 -0.578669 0
M  V30 8464 C 800.587 -4.80032 -0.335083 0
M  V30 8465 C 802.939 -5.2119 0.0328809 0
M  V30 8466 C 800.267 -5.84309 0.529121 0
M  V30 8467 C 802.619 -6.26383 0.884684 0
M  V30 8468 C 801.283 -6.57729 1.1379 0
M  V30 8469 H 800.553 -0.68959 -0.271195 0
M  V30 8470 H 803.2 -1.915 -0.00132378 0
M  V30 8471 H 801.505 -3.18948 -2.27551 0
M  V30 8472 H 803.202 -3.47258 -2.00532 0
M  V30 8473 H 799.792 -4.21467 -0.778666 0
M  V30 8474 H 803.976 -4.96096 -0.142375 0
M  V30 8475 H 799.232 -6.06981 0.733794 0
M  V30 8476 H 803.406 -6.82888 1.36516 0
M  V30 8477 H 801.033 -7.38355 1.80929 0
M  V30 8478 N 802.608 0.318715 -1.54344 0
M  V30 8479 C 803.857 1.05363 -1.71993 0
M  V30 8480 C 804.17 1.89018 -0.503155 0
M  V30 8481 O 805.376 2.65639 -0.561085 0
M  V30 8482 C 803.832 1.92281 -3.0423 0
M  V30 8483 C 803.44 1.13715 -4.33328 0
M  V30 8484 C 805.184 2.65479 -3.31242 0
M  V30 8485 C 803.091 1.99806 -5.56625 0
M  V30 8486 H 802.021 0.397081 -0.64097 0
M  V30 8487 H 804.672 0.311598 -1.80835 0
M  V30 8488 H 803.054 2.70402 -2.89307 0
M  V30 8489 H 804.228 0.403305 -4.59032 0
M  V30 8490 H 802.543 0.521769 -4.13118 0
M  V30 8491 H 805.14 3.30209 -4.20555 0
M  V30 8492 H 805.483 3.33374 -2.49334 0
M  V30 8493 H 806.016 1.94417 -3.47054 0
M  V30 8494 H 802.755 1.36411 -6.41149 0
M  V30 8495 H 802.275 2.70911 -5.35133 0
M  V30 8496 H 803.954 2.58277 -5.93213 0
M  V30 8497 N 804.086 1.46499 0.581025 0
M  V30 8498 C 805.018 1.53225 1.70455 0
M  V30 8499 C 806.031 0.420443 1.57277 0
M  V30 8500 O 807.22 0.688888 1.64671 0
M  V30 8501 C 804.32 1.39803 3.08721 0
M  V30 8502 C 803.493 2.65132 3.47884 0
M  V30 8503 C 802.552 2.45886 4.65217 0
M  V30 8504 O 801.578 3.19615 4.70993 0
M  V30 8505 N 802.78 1.5216 5.60203 0
M  V30 8506 H 805.545 2.50098 1.65139 0
M  V30 8507 H 803.106 1.42576 0.76705 0
M  V30 8508 H 805.098 1.24697 3.8501 0
M  V30 8509 H 803.668 0.51104 3.08394 0
M  V30 8510 H 802.888 2.95169 2.61284 0
M  V30 8511 H 804.176 3.48385 3.70817 0
M  V30 8512 H 803.574 0.913646 5.58273 0
M  V30 8513 H 802.131 1.43017 6.35916 0
M  V30 8514 N 805.565 -0.825799 1.34232 0
M  V30 8515 C 806.475 -1.9684 1.27638 0
M  V30 8516 C 807.491 -1.73018 0.184569 0
M  V30 8517 O 808.667 -1.97172 0.410525 0
M  V30 8518 C 805.732 -3.31084 1.02879 0
M  V30 8519 C 804.793 -3.67933 2.21188 0
M  V30 8520 C 804.026 -4.95772 1.976 0
M  V30 8521 O 804.249 -5.62721 0.93281 0
M  V30 8522 O 803.183 -5.30431 2.84477 0
M  V30 8523 H 807.009 -2.05346 2.23756 0
M  V30 8524 H 804.594 -0.960772 1.1441 0
M  V30 8525 H 806.476 -4.11492 0.908406 0
M  V30 8526 H 805.151 -3.23552 0.0979821 0
M  V30 8527 H 804.058 -2.87981 2.38784 0
M  V30 8528 H 805.391 -3.80147 3.12648 0
M  V30 8529 N 807.043 -1.17915 -1.04565 0
M  V30 8530 C 808.459 -0.927761 -1.29864 0
M  V30 8531 C 808.659 0.409536 -1.97294 0
M  V30 8532 O 807.715 1.14505 -2.25044 0
M  V30 8533 C 809.028 -2.08967 -2.16225 0
M  V30 8534 C 810.576 -2.12741 -2.29587 0
M  V30 8535 C 811.051 -3.28335 -3.19312 0
M  V30 8536 N 812.542 -3.28164 -3.26898 0
M  V30 8537 C 813.277 -4.14249 -3.96466 0
M  V30 8538 N 812.773 -5.10457 -4.68407 0
M  V30 8539 N 814.566 -4.02179 -3.92694 0
M  V30 8540 H 806.717 -2.03983 -0.592011 0
M  V30 8541 H 808.98 -0.891023 -0.323701 0
M  V30 8542 H 808.686 -3.05654 -1.73979 0
M  V30 8543 H 808.56 -2.04606 -3.16885 0
M  V30 8544 H 810.947 -1.16636 -2.71072 0
M  V30 8545 H 811.028 -2.21162 -1.28535 0
M  V30 8546 H 810.672 -4.2471 -2.78539 0
M  V30 8547 H 810.602 -3.17151 -4.20384 0
M  V30 8548 H 813.093 -2.58511 -2.75646 0
M  V30 8549 H 813.406 -5.72526 -5.1907 0
M  V30 8550 H 811.751 -5.14422 -4.67328 0
M  V30 8551 H 814.942 -3.26308 -3.3562 0
M  V30 8552 H 815.115 -4.69486 -4.4664 0
M  V30 8553 N 808.521 1.23394 -0.980386 0
M  V30 8554 C 809.484 2.23092 -0.525619 0
M  V30 8555 C 810.484 1.56129 0.384745 0
M  V30 8556 O 811.674 1.73284 0.178439 0
M  V30 8557 C 808.806 3.40074 0.23712 0
M  V30 8558 H 809.999 2.64839 -1.40714 0
M  V30 8559 H 807.552 1.36227 -0.766275 0
M  V30 8560 H 808.287 3.03783 1.13518 0
M  V30 8561 H 808.072 3.89883 -0.416356 0
M  V30 8562 H 809.562 4.14043 0.543892 0
M  V30 8563 N 809.999 0.752036 1.385 0
M  V30 8564 C 811.245 0.316909 2.00916 0
M  V30 8565 C 811.6 -1.08884 1.58625 0
M  V30 8566 O 810.893 -1.73494 0.813047 0
M  V30 8567 C 811.087 0.376155 3.55415 0
M  V30 8568 C 810.916 1.78612 4.12708 0
M  V30 8569 C 809.686 2.4023 4.44542 0
M  V30 8570 C 811.884 2.74253 4.35075 0
M  V30 8571 N 809.866 3.73204 4.87434 0
M  V30 8572 C 811.237 3.9199 4.80358 0
M  V30 8573 C 813.292 2.71795 4.17171 0
M  V30 8574 C 811.995 5.07627 5.09615 0
M  V30 8575 C 814.021 3.86589 4.47552 0
M  V30 8576 C 813.383 5.03064 4.93058 0
M  V30 8577 H 809.482 0.16259 0.764911 0
M  V30 8578 H 812.066 0.981657 1.68142 0
M  V30 8579 H 810.237 -0.258317 3.8754 0
M  V30 8580 H 811.969 -0.0791421 4.04623 0
M  V30 8581 H 808.724 1.92009 4.32931 0
M  V30 8582 H 809.148 4.41519 5.13215 0
M  V30 8583 H 813.79 1.82929 3.81178 0
M  V30 8584 H 811.508 5.97109 5.44506 0
M  V30 8585 H 815.094 3.86005 4.35306 0
M  V30 8586 H 813.974 5.90417 5.16118 0
M  V30 8587 N 811.477 -1.49425 0.500989 0
M  V30 8588 C 812.407 -2.31971 -0.266775 0
M  V30 8589 C 813.388 -1.40245 -0.962563 0
M  V30 8590 O 814.573 -1.69154 -0.953968 0
M  V30 8591 C 811.703 -3.20757 -1.33163 0
M  V30 8592 C 810.657 -4.21275 -0.75572 0
M  V30 8593 C 809.983 -4.98997 -1.92109 0
M  V30 8594 C 811.283 -5.21686 0.253213 0
M  V30 8595 H 812.977 -2.96408 0.422237 0
M  V30 8596 H 810.523 -1.4254 0.204505 0
M  V30 8597 H 812.476 -3.77315 -1.87646 0
M  V30 8598 H 811.2 -2.54263 -2.04983 0
M  V30 8599 H 809.859 -3.65861 -0.232637 0
M  V30 8600 H 809.507 -4.28951 -2.62698 0
M  V30 8601 H 809.207 -5.67011 -1.54182 0
M  V30 8602 H 810.731 -5.584 -2.47026 0
M  V30 8603 H 812.145 -5.72939 -0.203483 0
M  V30 8604 H 810.542 -5.9759 0.548322 0
M  V30 8605 H 811.612 -4.70596 1.16909 0
M  V30 8606 N 812.955 -0.234822 -1.55841 0
M  V30 8607 C 814.371 0.120295 -1.59146 0
M  V30 8608 C 814.571 1.57896 -1.25184 0
M  V30 8609 O 813.627 2.32138 -0.993393 0
M  V30 8610 C 814.94 -0.217984 -2.99909 0
M  V30 8611 C 816.488 -0.161298 -3.12584 0
M  V30 8612 C 816.963 -0.473438 -4.55546 0
M  V30 8613 N 818.454 -0.423494 -4.6126 0
M  V30 8614 C 819.189 -0.638334 -5.69836 0
M  V30 8615 N 818.685 -0.915659 -6.86722 0
M  V30 8616 N 820.478 -0.569864 -5.59204 0
M  V30 8617 H 812.629 -1.18622 -1.76189 0
M  V30 8618 H 814.892 -0.476426 -0.819587 0
M  V30 8619 H 814.598 -1.2309 -3.29457 0
M  V30 8620 H 814.472 0.460707 -3.74376 0
M  V30 8621 H 816.859 0.842274 -2.82825 0
M  V30 8622 H 816.94 -0.873661 -2.40418 0
M  V30 8623 H 816.584 -1.47451 -4.86025 0
M  V30 8624 H 816.514 0.260268 -5.25956 0
M  V30 8625 H 819.005 -0.217383 -3.77274 0
M  V30 8626 H 819.318 -1.06734 -7.65394 0
M  V30 8627 H 817.663 -0.953 -6.88435 0
M  V30 8628 H 820.854 -0.35334 -4.66765 0
M  V30 8629 H 821.027 -0.740698 -6.43753 0
M  V30 8630 N 814.433 1.57553 0.0384317 0
M  V30 8631 C 815.365 2.02726 1.06934 0
M  V30 8632 C 816.378 0.938502 1.33026 0
M  V30 8633 O 817.567 1.21595 1.30678 0
M  V30 8634 C 814.667 2.37958 2.41308 0
M  V30 8635 C 813.84 3.69098 2.34703 0
M  V30 8636 C 812.899 3.91623 3.51451 0
M  V30 8637 O 811.925 4.628 3.31368 0
M  V30 8638 N 813.127 3.36538 4.72993 0
M  V30 8639 H 815.892 2.91781 0.684381 0
M  V30 8640 H 813.453 1.60307 0.226542 0
M  V30 8641 H 815.445 2.50172 3.18113 0
M  V30 8642 H 814.015 1.54621 2.71682 0
M  V30 8643 H 813.235 3.67325 1.43059 0
M  V30 8644 H 814.523 4.55144 2.27424 0
M  V30 8645 H 813.921 2.78828 4.92211 0
M  V30 8646 H 812.478 3.54148 5.47195 0
M  V30 8647 N 815.911 -0.310526 1.54511 0
M  V30 8648 C 816.843 -1.40405 1.8116 0
M  V30 8649 C 817.856 -1.47261 0.694114 0
M  V30 8650 O 819.045 -1.49751 0.971441 0
M  V30 8651 C 816.145 -2.78849 1.92604 0
M  V30 8652 C 815.318 -2.95041 3.22908 0
M  V30 8653 C 814.377 -4.13925 3.24889 0
M  V30 8654 O 813.403 -4.06463 3.98467 0
M  V30 8655 N 814.605 -5.24099 2.496 0
M  V30 8656 H 817.37 -1.17903 2.75534 0
M  V30 8657 H 814.931 -0.500564 1.53967 0
M  V30 8658 H 816.923 -3.5661 1.91342 0
M  V30 8659 H 815.493 -2.94342 1.05268 0
M  V30 8660 H 814.713 -2.04472 3.37023 0
M  V30 8661 H 816.001 -3.02763 4.08916 0
M  V30 8662 H 815.399 -5.33039 1.89435 0
M  V30 8663 H 813.956 -6.0023 2.54102 0
M  V30 8664 N 817.389 -1.46805 -0.573248 0
M  V30 8665 C 818.637 -1.52302 -1.32847 0
M  V30 8666 C 818.958 -0.180159 -1.94166 0
M  V30 8667 O 818.228 0.794291 -1.79075 0
M  V30 8668 H 816.808 -0.56097 -0.493276 0
M  V30 8669 H 819.47 -1.82998 -0.670642 0
M  V30 8670 H 818.566 -2.28089 -2.13031 0
M  V30 8671 N 818.867 0.818669 -1.34668 0
M  V30 8672 C 819.814 1.92983 -1.26595 0
M  V30 8673 C 820.784 1.65506 -0.140315 0
M  V30 8674 O 821.969 1.88063 -0.322005 0
M  V30 8675 C 819.109 3.2932 -1.03163 0
M  V30 8676 C 818.222 3.69061 -2.24539 0
M  V30 8677 C 817.357 4.94368 -1.94355 0
M  V30 8678 C 816.396 5.26702 -3.11851 0
M  V30 8679 N 815.533 6.43187 -2.81522 0
M  V30 8680 H 820.373 1.99219 -2.2162 0
M  V30 8681 H 817.91 0.974612 -1.1018 0
M  V30 8682 H 819.868 4.07897 -0.87613 0
M  V30 8683 H 818.498 3.22584 -0.118045 0
M  V30 8684 H 817.55 2.85842 -2.50995 0
M  V30 8685 H 818.862 3.88924 -3.12313 0
M  V30 8686 H 818.016 5.80742 -1.75566 0
M  V30 8687 H 816.755 4.76515 -1.03848 0
M  V30 8688 H 815.76 4.38823 -3.31231 0
M  V30 8689 H 816.985 5.46492 -4.03142 0
M  V30 8690 H 814.931 6.26783 -1.93596 0
M  V30 8691 H 814.848 6.63243 -3.62829 0
M  V30 8692 H 816.116 7.32621 -2.66247 0
M  V30 8693 N 820.346 1.18468 1.03938 0
M  V30 8694 C 821.256 0.927889 2.1547 0
M  V30 8695 C 822.272 -0.108447 1.73662 0
M  V30 8696 O 823.448 0.0737636 2.01265 0
M  V30 8697 C 820.513 0.458494 3.43655 0
M  V30 8698 C 819.574 1.56295 3.99838 0
M  V30 8699 C 818.807 1.11586 5.21904 0
M  V30 8700 O 819.03 -0.0249057 5.70395 0
M  V30 8701 O 817.964 1.91412 5.70653 0
M  V30 8702 H 821.79 1.86116 2.39989 0
M  V30 8703 H 819.375 0.966607 1.13917 0
M  V30 8704 H 821.257 0.204861 4.20902 0
M  V30 8705 H 819.932 -0.446464 3.20606 0
M  V30 8706 H 818.839 1.87061 3.23974 0
M  V30 8707 H 820.172 2.44408 4.2723 0
M  V30 8708 N 821.824 -1.22873 0.986916 0
M  V30 8709 C 823.07 -1.91746 0.660401 0
M  V30 8710 C 823.403 -1.76738 -0.804812 0
M  V30 8711 O 822.678 -1.13246 -1.58131 0
M  V30 8712 C 822.961 -3.44156 1.05966 0
M  V30 8713 C 822.814 -3.68242 2.58298 0
M  V30 8714 C 824.133 -4.35874 0.60842 0
M  V30 8715 H 821.252 -0.696347 0.241391 0
M  V30 8716 H 823.894 -1.44867 1.22937 0
M  V30 8717 H 822.044 -3.84213 0.575534 0
M  V30 8718 H 823.716 -3.37626 3.14335 0
M  V30 8719 H 821.959 -3.12728 3.00638 0
M  V30 8720 H 822.63 -4.74956 2.81285 0
M  V30 8721 H 825.106 -4.03299 1.02417 0
M  V30 8722 H 823.982 -5.41201 0.916142 0
M  V30 8723 H 824.243 -4.39364 -0.491086 0
M  V30 8724 N 823.302 -0.75937 -1.38099 0
M  V30 8725 C 824.55 -0.317485 -1.99591 0
M  V30 8726 C 824.871 1.10628 -1.60581 0
M  V30 8727 O 824.141 1.7575 -0.865378 0
M  V30 8728 H 822.721 -0.114397 -0.738189 0
M  V30 8729 H 825.383 -0.974749 -1.68774 0
M  V30 8730 H 824.479 -0.385227 -3.09713 0
M  V30 8731 N 824.78 1.49157 -0.508906 0
M  V30 8732 C 825.69 2.33045 0.269656 0
M  V30 8733 C 826.706 1.45143 0.959662 0
M  V30 8734 O 827.882 1.78155 0.939295 0
M  V30 8735 C 824.947 3.20772 1.31554 0
M  V30 8736 C 824.008 4.24531 0.638131 0
M  V30 8737 C 823.241 5.08065 1.63418 0
M  V30 8738 O 823.464 4.93238 2.86483 0
M  V30 8739 O 822.398 5.90117 1.18516 0
M  V30 8740 H 826.224 3.00821 -0.417183 0
M  V30 8741 H 823.809 1.46938 -0.270119 0
M  V30 8742 H 825.691 3.75095 1.92047 0
M  V30 8743 H 824.366 2.55681 1.98516 0
M  V30 8744 H 823.273 3.74099 -0.00674357 0
M  V30 8745 H 824.606 4.92199 0.0108155 0
M  V30 8746 N 826.258 0.243083 1.55714 0
M  V30 8747 C 827.486 -0.386971 2.03249 0
M  V30 8748 C 827.901 -1.51812 1.12243 0
M  V30 8749 O 827.258 -1.81992 0.136119 0
M  V30 8750 C 827.309 -0.898361 3.5016 0
M  V30 8751 O 827.03 0.187708 4.37698 0
M  V30 8752 C 828.531 -1.59949 4.13438 0
M  V30 8753 H 825.751 -0.0923981 0.664608 0
M  V30 8754 H 828.295 0.365832 2.01201 0
M  V30 8755 H 826.45 -1.60136 3.52754 0
M  V30 8756 H 826.864 -0.200001 5.24119 0
M  V30 8757 H 828.338 -1.90907 5.17937 0
M  V30 8758 H 828.815 -2.52014 3.59702 0
M  V30 8759 H 829.421 -0.941163 4.14756 0
M  V30 8760 N 827.736 -1.57571 -0.0300757 0
M  V30 8761 C 828.666 -2.0953 -1.03051 0
M  V30 8762 C 829.647 -0.99761 -1.37774 0
M  V30 8763 O 830.832 -1.27279 -1.46676 0
M  V30 8764 C 827.962 -2.57385 -2.33174 0
M  V30 8765 C 826.916 -3.71409 -2.12696 0
M  V30 8766 C 826.242 -4.05467 -3.4857 0
M  V30 8767 C 827.542 -4.99877 -1.51396 0
M  V30 8768 H 829.236 -2.93367 -0.597999 0
M  V30 8769 H 826.782 -1.41127 -0.286203 0
M  V30 8770 H 828.735 -2.92355 -3.03491 0
M  V30 8771 H 827.459 -1.70629 -2.78484 0
M  V30 8772 H 826.118 -3.36786 -1.44813 0
M  V30 8773 H 825.766 -3.15779 -3.91526 0
M  V30 8774 H 825.466 -4.82269 -3.35694 0
M  V30 8775 H 826.99 -4.4297 -4.2025 0
M  V30 8776 H 828.404 -5.3281 -2.11629 0
M  V30 8777 H 826.801 -5.81283 -1.49098 0
M  V30 8778 H 827.871 -4.82522 -0.479676 0
M  V30 8779 N 829.214 0.302327 -1.54673 0
M  V30 8780 C 830.144 1.37759 -1.88533 0
M  V30 8781 C 831.125 1.52961 -0.744113 0
M  V30 8782 O 832.31 1.6649 -0.999731 0
M  V30 8783 C 829.44 2.74201 -2.13146 0
M  V30 8784 C 828.394 2.73765 -3.28993 0
M  V30 8785 C 827.72 4.13483 -3.39022 0
M  V30 8786 C 829.02 2.35624 -4.66132 0
M  V30 8787 H 830.714 1.0967 -2.78591 0
M  V30 8788 H 828.26 0.52613 -1.34044 0
M  V30 8789 H 830.213 3.49508 -2.35419 0
M  V30 8790 H 828.937 3.03812 -1.19858 0
M  V30 8791 H 827.596 2.00914 -3.06642 0
M  V30 8792 H 827.244 4.40269 -2.43253 0
M  V30 8793 H 826.944 4.14093 -4.16894 0
M  V30 8794 H 828.468 4.90572 -3.63553 0
M  V30 8795 H 829.882 3.00647 -4.88143 0
M  V30 8796 H 828.279 2.47449 -5.46707 0
M  V30 8797 H 829.349 1.30753 -4.66939 0
M  V30 8798 N 830.692 1.47107 0.565454 0
M  V30 8799 C 831.922 1.56681 1.34664 0
M  V30 8800 C 832.33 0.213011 1.87997 0
M  V30 8801 O 831.673 -0.802629 1.65238 0
M  V30 8802 C 831.735 2.52528 2.55871 0
M  V30 8803 C 831.399 3.98403 2.23883 0
M  V30 8804 C 832.396 4.87125 1.81673 0
M  V30 8805 C 830.081 4.43674 2.35496 0
M  V30 8806 C 832.075 6.19135 1.51494 0
M  V30 8807 C 829.762 5.75714 2.0493 0
M  V30 8808 C 830.76 6.63266 1.62996 0
M  V30 8809 O 830.448 7.92853 1.32813 0
M  V30 8810 H 830.18 0.531967 0.417117 0
M  V30 8811 H 832.734 1.93368 0.692669 0
M  V30 8812 H 830.964 2.10893 3.24131 0
M  V30 8813 H 832.653 2.5232 3.17945 0
M  V30 8814 H 833.419 4.534 1.72201 0
M  V30 8815 H 829.298 3.7574 2.67096 0
M  V30 8816 H 832.842 6.87429 1.1869 0
M  V30 8817 H 828.739 6.08983 2.14031 0
M  V30 8818 H 829.507 8.0528 1.46513 0
M  V30 8819 N 832.17 -0.811516 1.35101 0
M  V30 8820 C 833.4 -1.59749 1.31011 0
M  V30 8821 C 833.808 -1.88847 -0.115566 0
M  V30 8822 O 833.151 -1.48854 -1.07649 0
M  V30 8823 C 833.213 -2.95714 2.04435 0
M  V30 8824 C 832.877 -2.89456 3.53645 0
M  V30 8825 C 833.874 -2.63237 4.48333 0
M  V30 8826 C 831.559 -3.08728 3.96222 0
M  V30 8827 C 833.553 -2.56361 5.83573 0
M  V30 8828 C 831.24 -3.01475 5.3156 0
M  V30 8829 C 832.238 -2.75326 6.25048 0
M  V30 8830 O 831.926 -2.68026 7.57903 0
M  V30 8831 H 831.658 -0.502889 0.45175 0
M  V30 8832 H 834.212 -1.01687 1.78462 0
M  V30 8833 H 832.442 -3.55739 1.51613 0
M  V30 8834 H 834.131 -3.56816 1.93487 0
M  V30 8835 H 834.897 -2.48072 4.16756 0
M  V30 8836 H 830.776 -3.28094 3.23845 0
M  V30 8837 H 834.32 -2.35871 6.56514 0
M  V30 8838 H 830.217 -3.16197 5.62752 0
M  V30 8839 H 830.985 -2.8367 7.67772 0
M  V30 8840 N 833.648 -1.19017 -1.03309 0
M  V30 8841 C 834.896 -0.988258 -1.76289 0
M  V30 8842 C 835.217 0.482557 -1.88935 0
M  V30 8843 O 834.487 1.34969 -1.41987 0
M  V30 8844 H 833.067 -0.36267 -0.653054 0
M  V30 8845 H 835.729 -1.49836 -1.2464 0
M  V30 8846 H 834.825 -1.43273 -2.77271 0
M  V30 8847 N 835.127 1.22348 -0.993418 0
M  V30 8848 C 836.367 1.92835 -0.677779 0
M  V30 8849 C 836.731 1.75624 0.775893 0
M  V30 8850 O 837.932 2.40379 1.20297 0
M  V30 8851 C 836.203 3.40906 -1.07322 0
M  V30 8852 S 837.762 4.29966 -0.876032 0
M  V30 8853 H 834.58 0.666421 -0.247799 0
M  V30 8854 H 837.182 1.48133 -1.27581 0
M  V30 8855 H 835.886 3.50946 -2.12756 0
M  V30 8856 H 835.417 3.90618 -0.467015 0
M  V30 8857 H 837.432 4.95652 0.233162 0
M  V30 8858 N 836.605 0.766683 1.37694 0
M  V30 8859 C 838.021 0.445739 1.53249 0
M  V30 8860 C 838.221 -1.03935 1.72626 0
M  V30 8861 O 837.277 -1.82525 1.74473 0
M  V30 8862 C 838.59 1.2564 2.73194 0
M  V30 8863 C 840.138 1.24779 2.87053 0
M  V30 8864 C 840.613 2.04169 4.09974 0
M  V30 8865 N 842.104 2.01497 4.17077 0
M  V30 8866 C 842.839 2.5971 5.11212 0
M  V30 8867 N 842.335 3.26691 6.10938 0
M  V30 8868 N 844.128 2.49568 5.03659 0
M  V30 8869 H 836.279 1.72899 1.23368 0
M  V30 8870 H 838.542 0.733701 0.600322 0
M  V30 8871 H 838.248 2.30859 2.65324 0
M  V30 8872 H 838.122 0.882133 3.6674 0
M  V30 8873 H 840.509 0.203603 2.94397 0
M  V30 8874 H 840.59 1.66166 1.9448 0
M  V30 8875 H 840.234 3.08606 4.03392 0
M  V30 8876 H 840.164 1.60167 5.01651 0
M  V30 8877 H 842.655 1.52728 3.45662 0
M  V30 8878 H 842.968 3.68497 6.79286 0
M  V30 8879 H 841.313 3.30789 6.11231 0
M  V30 8880 H 844.504 1.96859 4.24693 0
M  V30 8881 H 844.677 2.95231 5.76839 0
M  V30 8882 N 838.083 -1.48885 0.516809 0
M  V30 8883 C 839.499 -1.58651 0.173788 0
M  V30 8884 C 839.699 -1.52033 -1.32243 0
M  V30 8885 O 838.755 -1.40251 -2.09967 0
M  V30 8886 C 840.068 -2.90816 0.764628 0
M  V30 8887 C 841.616 -3.04316 0.732164 0
M  V30 8888 C 842.091 -4.39123 1.30135 0
M  V30 8889 N 843.582 -4.45656 1.26273 0
M  V30 8890 C 844.317 -5.48446 1.67317 0
M  V30 8891 N 843.813 -6.58258 2.16028 0
M  V30 8892 N 845.606 -5.39251 1.58635 0
M  V30 8893 H 837.757 -1.5143 1.48939 0
M  V30 8894 H 840.02 -0.718243 0.618733 0
M  V30 8895 H 839.726 -3.01275 1.81456 0
M  V30 8896 H 839.6 -3.76473 0.234113 0
M  V30 8897 H 841.987 -2.93478 -0.308975 0
M  V30 8898 H 842.068 -2.20303 1.3 0
M  V30 8899 H 841.712 -4.50714 2.34135 0
M  V30 8900 H 841.642 -5.21801 0.709305 0
M  V30 8901 H 844.133 -3.66879 0.906006 0
M  V30 8902 H 844.446 -7.32811 2.45374 0
M  V30 8903 H 842.791 -6.59257 2.20013 0
M  V30 8904 H 845.982 -4.52354 1.20387 0
M  V30 8905 H 846.155 -6.19229 1.90944 0
M  V30 8906 N 839.561 -0.251338 -1.55583 0
M  V30 8907 C 840.786 0.379136 -2.03905 0
M  V30 8908 C 841.211 1.50428 -1.12929 0
M  V30 8909 O 840.569 1.80882 -0.123114 0
M  V30 8910 C 840.617 0.86009 -3.50193 0
M  V30 8911 O 839.721 1.96932 -3.62342 0
M  V30 8912 H 839.062 0.0820183 -0.658915 0
M  V30 8913 H 841.592 -0.378692 -2.01065 0
M  V30 8914 H 841.602 1.16214 -3.91099 0
M  V30 8915 H 840.277 0.0367559 -4.15884 0
M  V30 8916 H 838.854 1.67163 -3.33333 0
M  V30 8917 N 841.039 1.57585 0.0217189 0
M  V30 8918 C 842.316 1.80779 0.74687 0
M  V30 8919 C 842.696 0.851163 1.9318 0
M  V30 8920 O 842.044 -0.105039 2.28258 0
M  V30 8921 C 842.254 3.28696 1.17302 0
M  V30 8922 C 843.602 3.93871 1.58589 0
M  V30 8923 O 844.626 3.3289 1.2674 0
M  V30 8924 O 843.485 5.01254 2.1773 0
M  V30 8925 H 840.579 0.743666 0.361786 0
M  V30 8926 H 843.125 1.697 -0.00206785 0
M  V30 8927 H 841.897 3.89927 0.327453 0
M  V30 8928 H 841.52 3.44692 1.98174 0
M  V30 8929 N 842.517 -0.29412 1.54831 0
M  V30 8930 C 843.427 -1.3854 1.89325 0
M  V30 8931 C 844.443 -1.55127 0.788133 0
M  V30 8932 O 845.619 -1.6966 1.08524 0
M  V30 8933 C 842.684 -2.72809 2.13954 0
M  V30 8934 C 841.745 -2.65148 3.37631 0
M  V30 8935 C 840.978 -3.93014 3.61076 0
M  V30 8936 O 841.201 -4.927 2.87406 0
M  V30 8937 O 840.135 -3.94491 4.54599 0
M  V30 8938 H 843.961 -1.12289 2.82179 0
M  V30 8939 H 841.546 -0.490793 1.41108 0
M  V30 8940 H 843.428 -3.52238 2.31315 0
M  V30 8941 H 842.103 -2.9889 1.24285 0
M  V30 8942 H 841.01 -1.84168 3.25627 0
M  V30 8943 H 842.343 -2.4402 4.27452 0
M  V30 8944 N 843.995 -1.47404 -0.557645 0
M  V30 8945 C 845.272 -1.44488 -1.31843 0
M  V30 8946 C 845.652 -0.1416 -2.10625 0
M  V30 8947 O 845 0.876908 -2.11004 0
M  V30 8948 C 845.21 -2.69016 -2.22331 0
M  V30 8949 C 846.558 -3.16212 -2.83364 0
M  V30 8950 O 847.582 -2.69741 -2.32634 0
M  V30 8951 O 846.441 -3.96999 -3.75571 0
M  V30 8952 H 843.535 -0.57578 -0.593639 0
M  V30 8953 H 846.081 -1.59605 -0.576584 0
M  V30 8954 H 844.853 -3.55406 -1.63715 0
M  V30 8955 H 844.476 -2.56484 -3.03812 0
M  V30 8956 N 845.473 0.80434 -1.35529 0
M  V30 8957 C 846.703 1.59052 -1.31856 0
M  V30 8958 C 847.111 1.88905 0.105549 0
M  V30 8959 O 846.454 1.49422 1.06858 0
M  V30 8960 C 846.516 2.94626 -2.06 0
M  V30 8961 C 846.18 2.87576 -3.55175 0
M  V30 8962 C 847.177 2.60856 -4.49722 0
M  V30 8963 C 844.862 3.06623 -3.97854 0
M  V30 8964 C 846.856 2.53262 -5.84925 0
M  V30 8965 C 844.543 2.98652 -5.33151 0
M  V30 8966 C 845.541 2.72007 -6.26499 0
M  V30 8967 O 845.229 2.64003 -7.59314 0
M  V30 8968 H 844.961 0.500486 -0.454411 0
M  V30 8969 H 847.515 1.0074 -1.78999 0
M  V30 8970 H 845.745 3.5493 -1.53498 0
M  V30 8971 H 847.434 3.55785 -1.95376 0
M  V30 8972 H 848.2 2.45858 -4.18066 0
M  V30 8973 H 844.079 3.26372 -3.2558 0
M  V30 8974 H 847.623 2.32386 -6.57756 0
M  V30 8975 H 843.52 3.13208 -5.64421 0
M  V30 8976 H 844.288 2.79595 -7.69265 0
M  V30 8977 N 846.951 1.19563 1.02676 0
M  V30 8978 C 847.881 0.959024 2.12897 0
M  V30 8979 C 848.862 -0.108382 1.69754 0
M  V30 8980 O 850.047 0.0470698 1.94143 0
M  V30 8981 C 847.177 0.499211 3.43693 0
M  V30 8982 C 846.131 1.5087 4.00528 0
M  V30 8983 C 845.457 0.905884 5.2697 0
M  V30 8984 C 846.757 2.88954 4.3509 0
M  V30 8985 H 848.451 1.88084 2.32948 0
M  V30 8986 H 845.997 0.905731 1.11949 0
M  V30 8987 H 847.95 0.320965 4.20176 0
M  V30 8988 H 846.674 -0.458205 3.2337 0
M  V30 8989 H 845.333 1.67413 3.26142 0
M  V30 8990 H 844.981 -0.0591506 5.02965 0
M  V30 8991 H 844.681 1.58 5.65959 0
M  V30 8992 H 846.205 0.73848 6.06118 0
M  V30 8993 H 847.619 2.75981 5.02501 0
M  V30 8994 H 846.016 3.53177 4.85166 0
M  V30 8995 H 847.086 3.41447 3.44299 0
M  V30 8996 N 848.429 -1.21819 0.999893 0
M  V30 8997 C 849.659 -1.94475 0.697346 0
M  V30 8998 C 850.067 -1.73991 -0.743228 0
M  V30 8999 O 849.41 -1.04042 -1.51397 0
M  V30 9000 C 849.472 -3.47204 0.932181 0
M  V30 9001 C 849.136 -3.91432 2.3586 0
M  V30 9002 C 850.133 -3.98545 3.33853 0
M  V30 9003 C 847.818 -4.23888 2.69489 0
M  V30 9004 C 849.812 -4.37499 4.63545 0
M  V30 9005 C 847.499 -4.62519 3.99399 0
M  V30 9006 C 848.497 -4.69294 4.96238 0
M  V30 9007 O 848.185 -5.07048 6.23825 0
M  V30 9008 H 847.917 -0.625419 0.256567 0
M  V30 9009 H 850.471 -1.55728 1.33933 0
M  V30 9010 H 848.701 -3.85997 0.233025 0
M  V30 9011 H 850.39 -4.01078 0.623807 0
M  V30 9012 H 851.156 -3.73654 3.09205 0
M  V30 9013 H 847.035 -4.17815 1.94812 0
M  V30 9014 H 850.579 -4.42702 5.3913 0
M  V30 9015 H 846.476 -4.86864 4.23833 0
M  V30 9016 H 847.244 -5.25098 6.27865 0
M  V30 9017 N 849.908 -0.773975 -1.37286 0
M  V30 9018 C 851.324 -0.45386 -1.53011 0
M  V30 9019 C 851.524 1.03018 -1.73175 0
M  V30 9020 O 850.58 1.81597 -1.75438 0
M  V30 9021 C 851.893 -1.27087 -2.72524 0
M  V30 9022 C 853.441 -1.26299 -2.86387 0
M  V30 9023 C 853.916 -2.0634 -4.08886 0
M  V30 9024 N 855.407 -2.03706 -4.16003 0
M  V30 9025 C 856.142 -2.62418 -5.09828 0
M  V30 9026 N 855.638 -3.29926 -6.09197 0
M  V30 9027 N 857.431 -2.52236 -5.02328 0
M  V30 9028 H 849.582 -1.73551 -1.22449 0
M  V30 9029 H 851.845 -0.736874 -0.596423 0
M  V30 9030 H 851.551 -2.32263 -2.64096 0
M  V30 9031 H 851.425 -0.90157 -3.66267 0
M  V30 9032 H 853.812 -0.219213 -2.94285 0
M  V30 9033 H 853.893 -1.67195 -1.93596 0
M  V30 9034 H 853.537 -3.10741 -4.01749 0
M  V30 9035 H 853.467 -1.62825 -5.00795 0
M  V30 9036 H 855.958 -1.54559 -3.44848 0
M  V30 9037 H 856.271 -3.72095 -6.77322 0
M  V30 9038 H 854.616 -3.34026 -6.09469 0
M  V30 9039 H 857.807 -1.99108 -4.23643 0
M  V30 9040 H 857.98 -2.98286 -5.75265 0
M  V30 9041 N 851.386 1.48609 -0.524698 0
M  V30 9042 C 852.296 2.33318 0.244923 0
M  V30 9043 C 853.312 1.46153 0.944214 0
M  V30 9044 O 854.488 1.79141 0.920347 0
M  V30 9045 C 851.553 3.22149 1.28144 0
M  V30 9046 C 850.614 4.25184 0.593068 0
M  V30 9047 C 849.847 5.0977 1.5802 0
M  V30 9048 O 850.07 4.96249 2.81235 0
M  V30 9049 O 849.004 5.9134 1.1225 0
M  V30 9050 H 852.83 3.00362 -0.449066 0
M  V30 9051 H 850.415 1.46643 -0.285689 0
M  V30 9052 H 852.297 3.77111 1.88057 0
M  V30 9053 H 850.972 2.57772 1.95793 0
M  V30 9054 H 849.879 3.74071 -0.0464214 0
M  V30 9055 H 851.212 4.92183 -0.0413893 0
M  V30 9056 N 852.864 0.259585 1.55447 0
M  V30 9057 C 853.774 -0.645026 2.25558 0
M  V30 9058 C 854.79 -1.18291 1.27606 0
M  V30 9059 O 855.966 -1.21649 1.6051 0
M  V30 9060 C 853.031 -1.81964 2.9511 0
M  V30 9061 C 852.092 -1.31997 4.08504 0
M  V30 9062 C 851.325 -2.43861 4.74729 0
M  V30 9063 O 851.548 -3.62876 4.40088 0
M  V30 9064 O 850.482 -2.12898 5.6299 0
M  V30 9065 H 854.308 -0.0775399 3.03601 0
M  V30 9066 H 851.893 0.0275859 1.49375 0
M  V30 9067 H 853.775 -2.50485 3.38873 0
M  V30 9068 H 852.45 -2.37451 2.19997 0
M  V30 9069 H 851.357 -0.601676 3.6923 0
M  V30 9070 H 852.69 -0.811045 4.85472 0
M  V30 9071 N 854.342 -1.57594 -0.0133615 0
M  V30 9072 C 855.272 -2.10611 -1.00823 0
M  V30 9073 C 856.253 -1.01217 -1.36708 0
M  V30 9074 O 857.438 -1.28827 -1.45318 0
M  V30 9075 C 854.568 -2.59844 -2.30431 0
M  V30 9076 C 853.522 -3.73644 -2.08745 0
M  V30 9077 C 852.848 -4.09141 -3.4425 0
M  V30 9078 C 854.148 -5.01454 -1.46086 0
M  V30 9079 H 855.842 -2.93985 -0.566849 0
M  V30 9080 H 853.388 -1.41423 -0.271219 0
M  V30 9081 H 855.341 -2.95557 -3.00373 0
M  V30 9082 H 854.065 -1.73573 -2.76658 0
M  V30 9083 H 852.724 -3.38303 -1.41232 0
M  V30 9084 H 852.372 -3.19914 -3.88155 0
M  V30 9085 H 852.072 -4.85802 -3.3056 0
M  V30 9086 H 853.596 -4.47402 -4.15528 0
M  V30 9087 H 855.01 -5.35024 -2.05966 0
M  V30 9088 H 853.407 -5.82832 -1.42924 0
M  V30 9089 H 854.477 -4.83003 -0.428471 0
M  V30 9090 N 855.82 0.285905 -1.54985 0
M  V30 9091 C 856.783 1.33625 -1.86218 0
M  V30 9092 C 857.783 1.42971 -0.735936 0
M  V30 9093 O 858.973 1.42345 -1.00417 0
M  V30 9094 C 856.105 2.71926 -2.05595 0
M  V30 9095 H 857.298 1.07167 -2.80099 0
M  V30 9096 H 854.851 0.523335 -1.47278 0
M  V30 9097 H 855.586 3.03583 -1.14053 0
M  V30 9098 H 855.371 2.6653 -2.87583 0
M  V30 9099 H 856.861 3.47841 -2.31077 0
M  V30 9100 N 857.298 1.47698 0.54982 0
M  V30 9101 C 858.23 1.56806 1.67166 0
M  V30 9102 C 859.243 0.453709 1.5635 0
M  V30 9103 O 860.432 0.723663 1.63173 0
M  V30 9104 C 857.532 1.4632 3.05686 0
M  V30 9105 C 856.705 2.72452 3.42182 0
M  V30 9106 C 855.764 2.55698 4.59897 0
M  V30 9107 O 854.79 3.29534 4.64108 0
M  V30 9108 N 855.992 1.64009 5.56849 0
M  V30 9109 H 858.757 2.53545 1.59797 0
M  V30 9110 H 856.318 1.44171 0.736635 0
M  V30 9111 H 858.31 1.32835 3.82279 0
M  V30 9112 H 856.88 0.57634 3.07241 0
M  V30 9113 H 856.1 3.00644 2.54964 0
M  V30 9114 H 857.388 3.56172 3.63344 0
M  V30 9115 H 856.786 1.03186 5.5621 0
M  V30 9116 H 855.343 1.56473 6.3274 0
M  V30 9117 N 858.776 -0.797141 1.35954 0
M  V30 9118 C 860.023 -1.55468 1.29754 0
M  V30 9119 C 860.351 -1.94095 -0.125391 0
M  V30 9120 O 859.606 -1.62341 -1.09288 0
M  V30 9121 C 859.905 -2.84847 2.15863 0
M  V30 9122 C 859.571 -2.65394 3.64523 0
M  V30 9123 C 858.233 -2.59796 4.05042 0
M  V30 9124 C 860.585 -2.4727 4.58811 0
M  V30 9125 C 857.913 -2.3403 5.38002 0
M  V30 9126 C 860.265 -2.23032 5.91979 0
M  V30 9127 C 858.929 -2.15862 6.31633 0
M  V30 9128 H 858.199 -0.568897 0.474803 0
M  V30 9129 H 860.846 -0.920299 1.67937 0
M  V30 9130 H 859.151 -3.52712 1.70591 0
M  V30 9131 H 860.848 -3.42597 2.08395 0
M  V30 9132 H 857.438 -2.70602 3.32374 0
M  V30 9133 H 861.622 -2.506 4.28384 0
M  V30 9134 H 856.878 -2.26956 5.67715 0
M  V30 9135 H 861.052 -2.08001 6.64612 0
M  V30 9136 H 858.679 -1.9566 7.34589 0
M  V30 9137 N 860.254 -1.20106 -1.0204 0
M  V30 9138 C 861.204 -0.914145 -2.08872 0
M  V30 9139 C 862.188 0.124503 -1.60418 0
M  V30 9140 O 863.38 -0.0823521 -1.76808 0
M  V30 9141 C 860.509 -0.463897 -3.40151 0
M  V30 9142 C 859.595 -1.53576 -3.95317 0
M  V30 9143 N 859.986 -2.75726 -4.24038 0
M  V30 9144 C 858.284 -1.40103 -4.23423 0
M  V30 9145 C 858.985 -3.44838 -4.68468 0
M  V30 9146 N 857.961 -2.72245 -4.70514 0
M  V30 9147 H 861.763 -1.8424 -2.28982 0
M  V30 9148 H 859.277 -1.0945 -1.19977 0
M  V30 9149 H 861.274 -0.239766 -4.1621 0
M  V30 9150 H 859.934 0.457779 -3.21457 0
M  V30 9151 H 860.945 -3.12412 -4.13061 0
M  V30 9152 H 857.622 -0.543472 -4.13948 0
M  V30 9153 H 859.012 -4.49342 -4.99541 0
M  V30 9154 N 861.732 1.21287 -1.00634 0
M  V30 9155 C 863.148 1.42467 -0.719389 0
M  V30 9156 C 863.348 1.88767 0.704927 0
M  V30 9157 O 862.404 2.05004 1.47409 0
M  V30 9158 C 863.717 2.455 -1.73639 0
M  V30 9159 C 865.265 2.59281 -1.75335 0
M  V30 9160 C 865.74 3.65547 -2.75934 0
M  V30 9161 N 867.231 3.73019 -2.74611 0
M  V30 9162 C 867.966 4.54873 -3.4911 0
M  V30 9163 N 867.462 5.40614 -4.33253 0
M  V30 9164 N 869.255 4.49309 -3.37754 0
M  V30 9165 H 861.406 0.895454 -1.92602 0
M  V30 9166 H 863.669 0.455491 -0.831404 0
M  V30 9167 H 863.375 2.18455 -2.75627 0
M  V30 9168 H 863.249 3.44325 -1.54014 0
M  V30 9169 H 865.636 2.85661 -0.740377 0
M  V30 9170 H 865.717 1.60685 -1.99032 0
M  V30 9171 H 865.361 3.39911 -3.77389 0
M  V30 9172 H 865.291 4.63741 -2.49503 0
M  V30 9173 H 867.782 3.11766 -2.13565 0
M  V30 9174 H 868.095 6.0013 -4.86892 0
M  V30 9175 H 866.44 5.40151 -4.37335 0
M  V30 9176 H 869.631 3.81357 -2.71449 0
M  V30 9177 H 869.804 5.12867 -3.9607 0
M  V30 9178 N 863.21 0.781244 1.36873 0
M  V30 9179 C 864.487 0.274217 1.93668 0
M  V30 9180 C 864.867 -1.2323 1.71399 0
M  V30 9181 O 864.215 -2.01993 1.06822 0
M  V30 9182 C 864.425 0.657939 3.42742 0
M  V30 9183 C 865.773 0.63307 4.19854 0
M  V30 9184 O 866.797 0.597909 3.51146 0
M  V30 9185 O 865.656 0.668636 5.42394 0
M  V30 9186 H 862.75 0.0658059 0.824378 0
M  V30 9187 H 865.296 0.863238 1.46104 0
M  V30 9188 H 864.068 1.69728 3.52573 0
M  V30 9189 H 863.691 0.0423678 3.97577 0
M  V30 9190 N 864.689 -1.48329 0.532571 0
M  V30 9191 C 865.937 -2.021 -0.000581206 0
M  V30 9192 C 866.258 -1.4117 -1.34522 0
M  V30 9193 O 865.528 -0.578005 -1.87179 0
M  V30 9194 H 864.108 -0.746993 -0.00320281 0
M  V30 9195 H 866.77 -1.82011 0.696991 0
M  V30 9196 H 865.866 -3.11917 -0.106991 0
M  V30 9197 N 866.167 -0.267825 -1.55308 0
M  V30 9198 C 867.13 0.60965 -2.20943 0
M  V30 9199 C 868.13 1.0869 -1.18504 0
M  V30 9200 O 869.32 0.988248 -1.43455 0
M  V30 9201 C 866.452 1.84027 -2.86961 0
M  V30 9202 H 867.645 0.0366806 -2.99878 0
M  V30 9203 H 865.198 -0.0183941 -1.56289 0
M  V30 9204 H 865.933 2.45394 -2.1202 0
M  V30 9205 H 865.718 1.50605 -3.62023 0
M  V30 9206 H 867.208 2.46442 -3.37129 0
M  V30 9207 N 867.645 1.57599 0.00500368 0
M  V30 9208 C 868.575 2.11143 0.99705 0
M  V30 9209 C 869.556 1.0194 1.3617 0
M  V30 9210 O 870.741 1.29596 1.44632 0
M  V30 9211 C 867.871 2.61062 2.2905 0
M  V30 9212 C 866.825 3.74745 2.0676 0
M  V30 9213 C 866.151 4.10961 3.42075 0
M  V30 9214 C 867.451 5.02222 1.43424 0
M  V30 9215 H 869.145 2.94281 0.551251 0
M  V30 9216 H 866.691 1.41565 0.263715 0
M  V30 9217 H 868.644 2.97146 2.98801 0
M  V30 9218 H 867.368 1.75038 2.75734 0
M  V30 9219 H 866.027 3.39047 1.39436 0
M  V30 9220 H 865.675 3.21968 3.86453 0
M  V30 9221 H 865.375 4.87549 3.27979 0
M  V30 9222 H 866.899 4.49599 4.1315 0
M  V30 9223 H 868.313 5.36109 2.03125 0
M  V30 9224 H 866.71 5.83581 1.39831 0
M  V30 9225 H 867.78 4.83224 0.40285 0
M  V30 9226 N 869.123 -0.277682 1.55134 0
M  V30 9227 C 870.351 -1.02826 1.7954 0
M  V30 9228 C 870.766 -1.80105 0.566373 0
M  V30 9229 O 870.123 -1.76491 -0.464448 0
M  V30 9230 C 870.174 -1.99053 3.01762 0
M  V30 9231 O 869.895 -1.24906 4.19917 0
M  V30 9232 C 871.396 -2.85961 3.38735 0
M  V30 9233 H 868.616 -0.303958 0.598206 0
M  V30 9234 H 871.16 -0.309884 2.02138 0
M  V30 9235 H 869.315 -2.66359 2.81303 0
M  V30 9236 H 869.729 -1.89725 4.88983 0
M  V30 9237 H 871.203 -3.49286 4.27438 0
M  V30 9238 H 871.68 -3.55486 2.57928 0
M  V30 9239 H 872.286 -2.24152 3.61436 0
M  V30 9240 N 870.601 -1.47988 -0.541979 0
M  V30 9241 C 871.533 -1.5769 -1.66332 0
M  V30 9242 C 872.546 -0.461994 -1.56107 0
M  V30 9243 O 873.735 -0.732306 -1.62787 0
M  V30 9244 C 870.835 -1.47939 -3.04905 0
M  V30 9245 C 870.008 -2.74263 -3.40733 0
M  V30 9246 C 869.067 -2.58133 -4.58534 0
M  V30 9247 O 868.093 -3.31991 -4.62354 0
M  V30 9248 N 869.295 -1.6696 -5.55972 0
M  V30 9249 H 872.06 -2.54389 -1.5845 0
M  V30 9250 H 869.621 -1.4456 -0.728979 0
M  V30 9251 H 871.613 -1.34861 -3.81569 0
M  V30 9252 H 870.183 -0.592626 -3.06931 0
M  V30 9253 H 869.403 -3.01992 -2.53366 0
M  V30 9254 H 870.691 -3.58094 -3.6145 0
M  V30 9255 H 870.089 -1.06134 -5.55655 0
M  V30 9256 H 868.646 -1.59826 -6.31901 0
M  V30 9257 N 872.079 0.78992 -1.36375 0
M  V30 9258 C 873.009 1.91683 -1.33341 0
M  V30 9259 C 873.99 1.68861 -0.204965 0
M  V30 9260 O 875.175 1.89982 -0.402531 0
M  V30 9261 C 872.305 3.28696 -1.12143 0
M  V30 9262 C 871.259 3.66041 -2.21806 0
M  V30 9263 C 870.585 5.01399 -1.85751 0
M  V30 9264 C 871.885 3.74677 -3.63888 0
M  V30 9265 H 873.579 1.94478 -2.27637 0
M  V30 9266 H 871.125 0.934271 -1.09578 0
M  V30 9267 H 873.078 4.07151 -1.08656 0
M  V30 9268 H 871.802 3.26287 -0.142974 0
M  V30 9269 H 870.461 2.89883 -2.24418 0
M  V30 9270 H 870.109 4.9551 -0.864817 0
M  V30 9271 H 869.809 5.27355 -2.59173 0
M  V30 9272 H 871.333 5.82274 -1.83819 0
M  V30 9273 H 872.747 4.43324 -3.63506 0
M  V30 9274 H 871.144 4.12118 -4.3621 0
M  V30 9275 H 872.214 2.75795 -3.9883 0
M  V30 9276 N 873.557 1.20646 1.01402 0
M  V30 9277 C 874.505 0.954493 2.12114 0
M  V30 9278 C 875.499 -0.0950737 1.69133 0
M  V30 9279 O 876.705 0.0555153 1.79914 0
M  V30 9280 H 873.08 0.29135 0.693267 0
M  V30 9281 H 875.051 1.89447 2.30548 0
M  V30 9282 C 873.8 0.525944 3.43699 0
M  V30 9283 H 873.123 1.32516 3.772 0
M  V30 9284 H 874.563 0.388883 4.22213 0
M  V30 9285 C 873.022 -0.761997 3.28169 0
M  V30 9286 O 873.552 -1.81979 3.58115 0
M  V30 9287 N 871.758 -0.725017 2.8141 0
M  V30 9288 H 871.305 0.13607 2.5724 0
M  V30 9289 H 871.263 -1.5871 2.71401 0
M  V30 9290 N 875.035 -1.20752 1.01276 0
M  V30 9291 C 876.281 -1.90302 0.700924 0
M  V30 9292 C 876.614 -1.78406 -0.767142 0
M  V30 9293 O 875.889 -1.16575 -1.55694 0
M  V30 9294 C 876.172 -3.41831 1.13242 0
M  V30 9295 C 876.025 -3.6268 2.66051 0
M  V30 9296 C 877.344 -4.34486 0.700738 0
M  V30 9297 H 874.463 -0.69107 0.256107 0
M  V30 9298 H 877.105 -1.42227 1.25982 0
M  V30 9299 H 875.255 -3.82906 0.656902 0
M  V30 9300 H 876.927 -3.30882 3.21426 0
M  V30 9301 H 875.17 -3.06281 3.07204 0
M  V30 9302 H 875.841 -4.68882 2.91296 0
M  V30 9303 H 878.317 -4.01036 1.10948 0
M  V30 9304 H 877.193 -5.39136 1.03073 0
M  V30 9305 H 877.454 -4.40307 -0.39778 0
M  V30 9306 N 876.513 -0.788492 -1.36457 0
M  V30 9307 C 877.476 -0.192209 -2.28393 0
M  V30 9308 C 878.476 0.609916 -1.48784 0
M  V30 9309 O 879.666 0.431046 -1.68783 0
M  V30 9310 C 876.798 0.734096 -3.32902 0
M  V30 9311 H 877.991 -1.00284 -2.82636 0
M  V30 9312 H 875.544 -0.557852 -1.46006 0
M  V30 9313 H 876.279 1.5691 -2.83813 0
M  V30 9314 H 876.064 0.160875 -3.9177 0
M  V30 9315 H 877.554 1.1462 -4.01562 0
M  V30 9316 N 877.991 1.48044 -0.54043 0
M  V30 9317 C 879.238 2.02497 -0.0101567 0
M  V30 9318 C 879.566 1.41651 1.33286 0
M  V30 9319 O 878.821 0.555504 1.8765 0
M  V30 9320 C 879.12 3.57085 0.150008 0
M  V30 9321 C 878.786 4.36769 -1.11998 0
M  V30 9322 C 877.448 4.58261 -1.46801 0
M  V30 9323 C 879.8 4.82848 -1.96232 0
M  V30 9324 C 877.128 5.23079 -2.65717 0
M  V30 9325 C 879.48 5.48977 -3.14335 0
M  V30 9326 C 878.144 5.68705 -3.49472 0
M  V30 9327 H 877.414 0.740991 -0.00371661 0
M  V30 9328 H 880.061 1.77909 -0.708562 0
M  V30 9329 H 878.366 3.80572 0.931259 0
M  V30 9330 H 880.063 3.96851 0.575384 0
M  V30 9331 H 876.653 4.20309 -0.838957 0
M  V30 9332 H 880.837 4.66038 -1.70654 0
M  V30 9333 H 876.093 5.36549 -2.93129 0
M  V30 9334 H 880.267 5.83649 -3.79904 0
M  V30 9335 H 877.894 6.18703 -4.41713 0
M  V30 9336 N 879.47 0.276058 1.55163 0
M  V30 9337 C 880.695 -0.346648 2.04483 0
M  V30 9338 C 881.12 -1.48613 1.15308 0
M  V30 9339 O 880.478 -1.80663 0.151875 0
M  V30 9340 C 880.526 -0.804268 3.51517 0
M  V30 9341 O 879.63 -1.91143 3.65429 0
M  V30 9342 H 878.971 -0.0715251 0.660136 0
M  V30 9343 H 881.501 0.410631 2.00437 0
M  V30 9344 H 881.511 -1.09977 3.92898 0
M  V30 9345 H 880.186 0.0294123 4.1589 0
M  V30 9346 H 878.763 -1.61839 3.3595 0
M  V30 9347 N 880.948 -1.576 0.00335426 0
M  V30 9348 C 882.364 -1.55653 -0.352766 0
M  V30 9349 C 882.564 -1.00632 -1.74572 0
M  V30 9350 O 881.62 -0.641621 -2.44212 0
M  V30 9351 C 882.933 -2.99858 -0.224929 0
M  V30 9352 C 884.481 -3.11563 -0.299619 0
M  V30 9353 C 884.956 -4.57559 -0.200868 0
M  V30 9354 N 886.447 -4.62477 -0.258663 0
M  V30 9355 C 887.182 -5.73031 -0.205644 0
M  V30 9356 N 886.678 -6.92723 -0.103027 0
M  V30 9357 N 888.471 -5.61509 -0.257754 0
M  V30 9358 H 880.622 -1.91703 0.914539 0
M  V30 9359 H 882.885 -0.88068 0.350865 0
M  V30 9360 H 882.591 -3.43964 0.733595 0
M  V30 9361 H 882.465 -3.63547 -1.00564 0
M  V30 9362 H 884.852 -2.67384 -1.24859 0
M  V30 9363 H 884.933 -2.50644 0.511025 0
M  V30 9364 H 884.577 -5.02413 0.744572 0
M  V30 9365 H 884.507 -5.16428 -1.03004 0
M  V30 9366 H 886.998 -3.76375 -0.339168 0
M  V30 9367 H 887.311 -7.7277 -0.0685593 0
M  V30 9368 H 885.656 -6.94966 -0.0686069 0
M  V30 9369 H 888.847 -4.66892 -0.336142 0
M  V30 9370 H 889.02 -6.4765 -0.21297 0
M  V30 9371 N 882.426 0.269451 -1.5528 0
M  V30 9372 C 883.336 1.35511 -1.91505 0
M  V30 9373 C 884.352 1.53854 -0.812712 0
M  V30 9374 O 885.528 1.67912 -1.1121 0
M  V30 9375 C 882.593 2.6937 -2.18267 0
M  V30 9376 C 881.654 2.59743 -3.41807 0
M  V30 9377 C 880.887 3.87219 -3.67283 0
M  V30 9378 O 881.11 4.88066 -2.95208 0
M  V30 9379 O 880.044 3.87209 -4.60818 0
M  V30 9380 H 883.87 1.07785 -2.8393 0
M  V30 9381 H 881.455 0.468282 -1.41871 0
M  V30 9382 H 883.337 3.48513 -2.36889 0
M  V30 9383 H 882.012 2.96874 -1.29024 0
M  V30 9384 H 880.919 1.78964 -3.28516 0
M  V30 9385 H 882.252 2.37188 -4.3128 0
M  V30 9386 N 883.904 1.48273 0.534124 0
M  V30 9387 C 884.836 1.5857 1.65494 0
M  V30 9388 C 885.849 0.470266 1.5586 0
M  V30 9389 O 887.038 0.740928 1.62396 0
M  V30 9390 C 884.138 1.49554 3.04117 0
M  V30 9391 C 883.311 2.76066 3.39273 0
M  V30 9392 C 882.37 2.60562 4.57159 0
M  V30 9393 O 881.396 3.34438 4.60587 0
M  V30 9394 N 882.598 1.69906 5.55079 0
M  V30 9395 H 885.363 2.55226 1.57099 0
M  V30 9396 H 882.924 1.44944 0.721303 0
M  V30 9397 H 884.916 1.36882 3.80848 0
M  V30 9398 H 883.486 0.608895 3.06613 0
M  V30 9399 H 882.706 3.03332 2.51761 0
M  V30 9400 H 883.994 3.60006 3.59546 0
M  V30 9401 H 883.392 1.09079 5.55084 0
M  V30 9402 H 881.949 1.63175 6.31044 0
M  V30 9403 N 885.382 -0.782676 1.36792 0
M  V30 9404 C 886.607 -1.57676 1.34733 0
M  V30 9405 C 887.032 -1.87979 -0.0675253 0
M  V30 9406 O 886.39 -1.48404 -1.04144 0
M  V30 9407 C 886.438 -2.87047 2.18257 0
M  V30 9408 O 885.542 -3.80946 1.57969 0
M  V30 9409 H 884.883 -0.478034 0.460846 0
M  V30 9410 H 887.413 -0.969578 1.80168 0
M  V30 9411 H 887.423 -3.36254 2.31079 0
M  V30 9412 H 886.098 -2.64319 3.21104 0
M  V30 9413 H 884.675 -3.39558 1.54126 0
M  V30 9414 N 886.86 -1.21182 -1.00761 0
M  V30 9415 C 887.81 -0.936247 -2.0789 0
M  V30 9416 C 888.794 0.107482 -1.60541 0
M  V30 9417 O 889.986 -0.1011 -1.76711 0
M  V30 9418 C 887.115 -0.499949 -3.3964 0
M  V30 9419 C 886.201 -1.5776 -3.93666 0
M  V30 9420 N 886.592 -2.80208 -4.2109 0
M  V30 9421 C 884.89 -1.44586 -4.21913 0
M  V30 9422 C 885.591 -3.49787 -4.64784 0
M  V30 9423 N 884.567 -2.7722 -4.676 0
M  V30 9424 H 888.369 -1.86659 -2.27015 0
M  V30 9425 H 885.883 -1.10716 -1.1881 0
M  V30 9426 H 887.88 -0.283897 -4.15932 0
M  V30 9427 H 886.54 0.423659 -3.21924 0
M  V30 9428 H 887.551 -3.16776 -4.09724 0
M  V30 9429 H 884.228 -0.587346 -4.13348 0
M  V30 9430 H 885.618 -4.54615 -4.94747 0
M  V30 9431 N 888.338 1.20213 -1.01915 0
M  V30 9432 C 889.285 2.2309 -0.591571 0
M  V30 9433 C 890.255 1.61465 0.389649 0
M  V30 9434 O 891.44 1.88606 0.288511 0
M  V30 9435 C 888.58 3.45045 0.0614028 0
M  V30 9436 C 887.693 4.21091 -0.964688 0
M  V30 9437 C 886.828 5.30448 -0.282499 0
M  V30 9438 C 885.867 5.98241 -1.29517 0
M  V30 9439 N 885.004 6.99182 -0.639472 0
M  V30 9440 H 889.844 2.59023 -1.47347 0
M  V30 9441 H 887.381 1.27274 -0.737547 0
M  V30 9442 H 889.339 4.14688 0.45714 0
M  V30 9443 H 887.969 3.09797 0.906937 0
M  V30 9444 H 887.021 3.50489 -1.47857 0
M  V30 9445 H 888.333 4.67662 -1.73475 0
M  V30 9446 H 887.487 6.06466 0.168603 0
M  V30 9447 H 886.226 4.84922 0.519843 0
M  V30 9448 H 885.231 5.20982 -1.75663 0
M  V30 9449 H 886.456 6.45853 -2.09884 0
M  V30 9450 H 884.402 6.55844 0.142955 0
M  V30 9451 H 884.319 7.43893 -1.34756 0
M  V30 9452 H 885.587 7.79212 -0.212047 0
M  V30 9453 N 889.816 0.795718 1.36037 0
M  V30 9454 C 891.062 0.371574 1.99367 0
M  V30 9455 C 891.395 -1.0557 1.62999 0
M  V30 9456 O 890.67 -1.73051 0.887895 0
M  V30 9457 C 890.953 0.542622 3.55988 0
M  V30 9458 C 890.806 2.01404 4.0219 0
M  V30 9459 C 892.125 -0.0384527 4.40083 0
M  V30 9460 H 889.244 0.136483 0.724252 0
M  V30 9461 H 891.886 1.00323 1.61355 0
M  V30 9462 H 890.036 0.0049053 3.885 0
M  V30 9463 H 891.708 2.6133 3.80137 0
M  V30 9464 H 889.951 2.51439 3.53498 0
M  V30 9465 H 890.622 2.08466 5.11122 0
M  V30 9466 H 893.098 0.420634 4.13968 0
M  V30 9467 H 891.974 0.111214 5.48787 0
M  V30 9468 H 892.235 -1.13116 4.27384 0
M  V30 9469 N 891.294 -1.47756 0.548274 0
M  V30 9470 C 892.524 -2.06584 0.0254503 0
M  V30 9471 C 892.932 -1.40268 -1.26971 0
M  V30 9472 O 892.275 -0.49019 -1.77039 0
M  V30 9473 C 892.337 -3.58628 -0.250301 0
M  V30 9474 C 892.001 -4.4693 0.954087 0
M  V30 9475 C 892.998 -4.85592 1.85733 0
M  V30 9476 C 890.683 -4.88573 1.16624 0
M  V30 9477 C 892.677 -5.64686 2.95648 0
M  V30 9478 C 890.364 -5.67435 2.2685 0
M  V30 9479 C 891.362 -6.05401 3.16194 0
M  V30 9480 O 891.05 -6.82676 4.24511 0
M  V30 9481 H 890.782 -0.67489 0.0387264 0
M  V30 9482 H 893.336 -1.90876 0.758663 0
M  V30 9483 H 891.566 -3.72516 -1.03771 0
M  V30 9484 H 893.255 -3.9951 -0.717419 0
M  V30 9485 H 894.021 -4.54026 1.70544 0
M  V30 9486 H 889.9 -4.58494 0.480039 0
M  V30 9487 H 893.444 -5.9424 3.65411 0
M  V30 9488 H 889.341 -5.98413 2.42016 0
M  V30 9489 H 890.109 -7.01057 4.22447 0
M  V30 9490 N 892.772 -0.284283 -1.55015 0
M  V30 9491 C 894.018 0.330352 -2.00091 0
M  V30 9492 C 894.351 1.54814 -1.17244 0
M  V30 9493 O 893.626 1.92954 -0.244753 0
M  V30 9494 C 893.909 0.703492 -3.53161 0
M  V30 9495 C 893.762 -0.522275 -4.46758 0
M  V30 9496 C 895.081 1.53645 -4.12409 0
M  V30 9497 H 892.2 0.118599 -0.727395 0
M  V30 9498 H 894.842 -0.393054 -1.8589 0
M  V30 9499 H 892.992 1.31983 -3.65394 0
M  V30 9500 H 894.664 -1.16082 -4.46456 0
M  V30 9501 H 892.907 -1.15865 -4.1804 0
M  V30 9502 H 893.578 -0.217295 -5.51572 0
M  V30 9503 H 896.054 1.01583 -4.0351 0
M  V30 9504 H 894.93 1.76633 -5.19704 0
M  V30 9505 H 895.191 2.5204 -3.63219 0
M  V30 9506 N 894.251 1.57596 -0.0117121 0
M  V30 9507 C 895.183 2.06025 1.0043 0
M  V30 9508 C 896.196 0.980348 1.29973 0
M  V30 9509 O 897.385 1.25691 1.26744 0
M  V30 9510 C 894.485 2.45514 2.33615 0
M  V30 9511 C 893.658 3.76378 2.22842 0
M  V30 9512 C 892.717 4.02606 3.38814 0
M  V30 9513 O 891.743 4.73108 3.16477 0
M  V30 9514 N 892.945 3.51416 4.62047 0
M  V30 9515 H 895.71 2.93811 0.591206 0
M  V30 9516 H 893.271 1.60947 0.175427 0
M  V30 9517 H 895.263 2.60166 3.09993 0
M  V30 9518 H 893.833 1.63186 2.66625 0
M  V30 9519 H 893.053 3.71691 1.313 0
M  V30 9520 H 894.341 4.62149 2.12829 0
M  V30 9521 H 893.739 2.94346 4.83091 0
M  V30 9522 H 892.296 3.71377 5.35651 0
M  V30 9523 N 895.729 -0.261212 1.5542 0
M  V30 9524 C 896.679 -1.32571 1.85496 0
M  V30 9525 C 897.663 -1.44155 0.714722 0
M  V30 9526 O 898.855 -1.47637 0.976336 0
M  V30 9527 C 895.984 -2.68384 2.14067 0
M  V30 9528 C 895.07 -2.60864 3.34381 0
M  V30 9529 N 895.461 -2.22967 4.54004 0
M  V30 9530 C 893.759 -2.91904 3.37206 0
M  V30 9531 C 894.46 -2.25727 5.36118 0
M  V30 9532 N 893.436 -2.64667 4.74818 0
M  V30 9533 H 897.238 -1.02298 2.75522 0
M  V30 9534 H 894.752 -0.469849 1.55455 0
M  V30 9535 H 896.749 -3.45189 2.33774 0
M  V30 9536 H 895.409 -2.99536 1.25332 0
M  V30 9537 H 896.42 -1.94748 4.79889 0
M  V30 9538 H 893.097 -3.2769 2.587 0
M  V30 9539 H 894.487 -1.98889 6.41789 0
M  V30 9540 N 897.207 -1.48554 -0.526253 0
M  V30 9541 C 898.137 -1.66252 -1.63959 0
M  V30 9542 C 899.118 -0.511351 -1.62232 0
M  V30 9543 O 900.303 -0.744322 -1.7937 0
M  V30 9544 C 897.433 -1.70556 -3.02536 0
M  V30 9545 C 896.387 -2.8521 -3.19123 0
M  V30 9546 C 895.713 -2.74606 -4.58798 0
M  V30 9547 C 897.013 -4.26463 -3.0154 0
M  V30 9548 H 898.707 -2.59459 -1.49404 0
M  V30 9549 H 896.253 -1.24862 -0.717326 0
M  V30 9550 H 898.206 -1.81524 -3.80298 0
M  V30 9551 H 896.93 -0.739297 -3.18123 0
M  V30 9552 H 895.589 -2.73802 -2.43779 0
M  V30 9553 H 895.237 -1.75941 -4.71226 0
M  V30 9554 H 894.937 -3.51544 -4.70841 0
M  V30 9555 H 896.461 -2.87548 -5.38655 0
M  V30 9556 H 897.875 -4.38685 -3.69091 0
M  V30 9557 H 896.272 -5.04428 -3.25073 0
M  V30 9558 H 897.342 -4.42667 -1.97925 0
M  V30 9559 N 898.685 0.775411 -1.37205 0
M  V30 9560 C 899.615 1.90258 -1.35367 0
M  V30 9561 C 900.596 1.68634 -0.222864 0
M  V30 9562 O 901.781 1.89545 -0.422659 0
M  V30 9563 C 898.911 3.27488 -1.15623 0
M  V30 9564 C 897.865 3.63668 -2.25676 0
M  V30 9565 C 897.191 4.994 -1.91059 0
M  V30 9566 C 898.491 3.70797 -3.67841 0
M  V30 9567 H 900.185 1.92053 -2.29687 0
M  V30 9568 H 897.731 0.922597 -1.10563 0
M  V30 9569 H 899.684 4.05976 -1.12968 0
M  V30 9570 H 898.408 3.26117 -0.177573 0
M  V30 9571 H 897.067 2.87486 -2.2748 0
M  V30 9572 H 896.715 4.94565 -0.917324 0
M  V30 9573 H 896.415 5.24576 -2.64751 0
M  V30 9574 H 897.939 5.80291 -1.89985 0
M  V30 9575 H 899.353 4.39444 -3.68187 0
M  V30 9576 H 897.75 4.07468 -4.40556 0
M  V30 9577 H 898.82 2.71549 -4.01732 0
M  V30 9578 N 900.163 1.21714 1.00117 0
M  V30 9579 C 901.11 0.979837 2.08968 0
M  V30 9580 C 902.08 -0.0955324 1.65825 0
M  V30 9581 O 903.265 0.0523742 1.90728 0
M  V30 9582 C 900.405 0.554758 3.40612 0
M  V30 9583 C 899.518 1.69999 3.97145 0
M  V30 9584 C 898.653 1.2237 5.16913 0
M  V30 9585 C 897.692 2.34101 5.65564 0
M  V30 9586 N 896.829 1.87579 6.76579 0
M  V30 9587 H 901.669 1.91167 2.28602 0
M  V30 9588 H 899.206 0.952645 1.12085 0
M  V30 9589 H 901.164 0.289526 4.16194 0
M  V30 9590 H 899.794 -0.340073 3.21004 0
M  V30 9591 H 898.846 2.07976 3.18512 0
M  V30 9592 H 900.158 2.54074 4.29241 0
M  V30 9593 H 899.312 0.915358 5.99755 0
M  V30 9594 H 898.051 0.353045 4.8642 0
M  V30 9595 H 897.056 2.65734 4.81316 0
M  V30 9596 H 898.281 3.21669 5.98085 0
M  V30 9597 H 896.227 1.02863 6.47885 0
M  V30 9598 H 896.144 2.65225 7.07949 0
M  V30 9599 H 897.412 1.5979 7.62947 0
M  V30 9600 N 901.641 -1.19671 1.02551 0
M  V30 9601 C 902.573 -2.22215 0.561517 0
M  V30 9602 C 903.586 -1.58751 -0.360821 0
M  V30 9603 O 904.775 -1.77802 -0.157749 0
M  V30 9604 C 901.875 -3.383 -0.201494 0
M  V30 9605 C 901.048 -4.3135 0.724952 0
M  V30 9606 C 900.107 -5.26199 0.00794334 0
M  V30 9607 O 899.133 -5.65665 0.633398 0
M  V30 9608 N 900.335 -5.66573 -1.26394 0
M  V30 9609 H 903.1 -2.6265 1.44343 0
M  V30 9610 H 900.661 -1.34303 0.904122 0
M  V30 9611 H 902.653 -3.98764 -0.690625 0
M  V30 9612 H 901.223 -2.96683 -0.98479 0
M  V30 9613 H 900.443 -3.6872 1.39423 0
M  V30 9614 H 901.731 -4.90433 1.35472 0
M  V30 9615 H 901.129 -5.36538 -1.79287 0
M  V30 9616 H 899.686 -6.29304 -1.69763 0
M  V30 9617 N 903.119 -0.802921 -1.35613 0
M  V30 9618 C 904.396 -0.304993 -1.93208 0
M  V30 9619 C 904.776 1.20488 -1.73337 0
M  V30 9620 O 904.124 2.00268 -1.10022 0
M  V30 9621 C 904.334 -0.712383 -3.41652 0
M  V30 9622 C 905.682 -0.699785 -4.18794 0
M  V30 9623 O 906.706 -0.653698 -3.5015 0
M  V30 9624 O 905.565 -0.754842 -5.41262 0
M  V30 9625 H 902.659 -0.0789127 -0.823226 0
M  V30 9626 H 905.205 -0.886372 -1.44712 0
M  V30 9627 H 903.977 -1.75316 -3.49829 0
M  V30 9628 H 903.6 -0.105614 -3.9746 0
M  V30 9629 N 904.597 1.47463 -0.556102 0
M  V30 9630 C 906.013 1.58134 -0.21579 0
M  V30 9631 C 906.213 1.55486 1.28166 0
M  V30 9632 O 905.269 1.45768 2.06174 0
M  V30 9633 C 906.582 2.88686 -0.841464 0
M  V30 9634 C 908.13 3.02268 -0.812591 0
M  V30 9635 C 908.605 4.35518 -1.41731 0
M  V30 9636 N 910.096 4.42151 -1.38045 0
M  V30 9637 C 910.831 5.43817 -1.81799 0
M  V30 9638 N 910.327 6.52299 -2.33404 0
M  V30 9639 N 912.12 5.34855 -1.72877 0
M  V30 9640 H 904.271 1.47428 -1.52901 0
M  V30 9641 H 906.534 0.701586 -0.637559 0
M  V30 9642 H 906.24 2.96358 -1.8938 0
M  V30 9643 H 906.114 3.7572 -0.333846 0
M  V30 9644 H 908.501 2.94194 0.231056 0
M  V30 9645 H 908.582 2.16779 -1.35796 0
M  V30 9646 H 908.226 4.44348 -2.46002 0
M  V30 9647 H 908.156 5.19737 -0.847402 0
M  V30 9648 H 910.647 3.64348 -1.00296 0
M  V30 9649 H 910.96 7.26047 -2.64717 0
M  V30 9650 H 909.305 6.53192 -2.37414 0
M  V30 9651 H 912.496 4.49004 -1.32338 0
M  V30 9652 H 912.669 6.13949 -2.07294 0
M  V30 9653 N 906.075 0.2925 1.54862 0
M  V30 9654 C 906.985 -0.597036 2.26876 0
M  V30 9655 C 908.001 -1.15558 1.30086 0
M  V30 9656 O 909.177 -1.18217 1.63054 0
M  V30 9657 C 906.242 -1.75664 2.98903 0
M  V30 9658 C 905.303 -1.23303 4.11212 0
M  V30 9659 C 904.536 -2.33736 4.79795 0
M  V30 9660 O 904.759 -3.53459 4.47686 0
M  V30 9661 O 903.693 -2.00908 5.67379 0
M  V30 9662 H 907.519 -0.0131242 3.03697 0
M  V30 9663 H 905.104 0.0592642 1.49282 0
M  V30 9664 H 906.986 -2.43241 3.4411 0
M  V30 9665 H 905.661 -2.32731 2.24984 0
M  V30 9666 H 904.568 -0.523222 3.70423 0
M  V30 9667 H 905.901 -0.707887 4.87083 0
M  V30 9668 N 907.553 -1.57587 0.0200696 0
M  V30 9669 C 908.503 -2.0616 -0.973751 0
M  V30 9670 C 909.487 -0.960282 -1.29102 0
M  V30 9671 O 910.679 -1.22391 -1.27865 0
M  V30 9672 C 907.808 -2.58487 -2.25919 0
M  V30 9673 C 906.894 -3.75533 -1.97068 0
M  V30 9674 N 907.285 -4.86482 -1.38451 0
M  V30 9675 C 905.583 -3.83847 -2.27107 0
M  V30 9676 C 906.284 -5.67773 -1.26527 0
M  V30 9677 N 905.26 -5.14398 -1.75772 0
M  V30 9678 H 909.062 -2.89346 -0.515365 0
M  V30 9679 H 906.576 -1.61341 -0.185163 0
M  V30 9680 H 908.573 -2.91572 -2.97979 0
M  V30 9681 H 907.233 -1.76728 -2.72392 0
M  V30 9682 H 908.244 -5.06922 -1.06069 0
M  V30 9683 H 904.921 -3.12978 -2.76316 0
M  V30 9684 H 906.311 -6.66966 -0.812785 0
M  V30 9685 N 909.032 0.252966 -1.55557 0
M  V30 9686 C 909.962 1.31691 -1.9282 0
M  V30 9687 C 910.943 1.50516 -0.7924 0
M  V30 9688 O 912.128 1.63225 -1.05219 0
M  V30 9689 C 909.258 2.67281 -2.21762 0
M  V30 9690 C 908.212 2.6316 -3.37536 0
M  V30 9691 C 907.538 4.02488 -3.52005 0
M  V30 9692 C 908.838 2.20675 -4.73392 0
M  V30 9693 H 910.532 1.00751 -2.81939 0
M  V30 9694 H 908.078 0.483219 -1.3565 0
M  V30 9695 H 910.031 3.41842 -2.46419 0
M  V30 9696 H 908.755 2.99845 -1.29463 0
M  V30 9697 H 907.414 1.91057 -3.12878 0
M  V30 9698 H 907.062 4.32307 -2.57137 0
M  V30 9699 H 906.762 4.00621 -4.29857 0
M  V30 9700 H 908.286 4.78758 -3.78977 0
M  V30 9701 H 909.7 2.84965 -4.97461 0
M  V30 9702 H 908.097 2.29931 -5.54303 0
M  V30 9703 H 909.167 1.15831 -4.70862 0
M  V30 9704 N 910.51 1.48831 0.518367 0
M  V30 9705 C 911.756 1.58649 1.27287 0
M  V30 9706 C 912.111 0.262085 1.90607 0
M  V30 9707 O 911.404 -0.736154 1.76894 0
M  V30 9708 C 911.598 2.67003 2.3758 0
M  V30 9709 C 911.427 4.09851 1.85073 0
M  V30 9710 C 910.197 4.76852 1.67154 0
M  V30 9711 C 912.395 4.95646 1.37256 0
M  V30 9712 N 910.377 6.04075 1.09394 0
M  V30 9713 C 911.748 6.13208 0.915189 0
M  V30 9714 C 913.803 4.8178 1.25666 0
M  V30 9715 C 912.506 7.18431 0.353411 0
M  V30 9716 C 914.532 5.87136 0.708873 0
M  V30 9717 C 913.894 7.03914 0.261642 0
M  V30 9718 H 909.993 0.635017 0.456374 0
M  V30 9719 H 912.577 1.85763 0.583097 0
M  V30 9720 H 910.748 2.41691 3.04039 0
M  V30 9721 H 912.48 2.6644 3.04617 0
M  V30 9722 H 909.235 4.3337 1.91017 0
M  V30 9723 H 909.659 6.71955 0.824917 0
M  V30 9724 H 914.301 3.91826 1.58846 0
M  V30 9725 H 912.019 8.08099 0.00931313 0
M  V30 9726 H 915.605 5.78463 0.622221 0
M  V30 9727 H 914.485 7.84046 -0.155634 0
M  V30 9728 N 911.988 -0.768124 1.37614 0
M  V30 9729 C 912.935 -1.88151 1.33671 0
M  V30 9730 C 913.905 -1.64871 0.201645 0
M  V30 9731 O 915.09 -1.86739 0.391582 0
M  V30 9732 C 912.23 -3.25264 1.15314 0
M  V30 9733 C 911.343 -3.60473 2.38082 0
M  V30 9734 C 910.478 -4.86814 2.12569 0
M  V30 9735 C 909.517 -5.14765 3.31184 0
M  V30 9736 N 908.654 -6.32295 3.052 0
M  V30 9737 H 913.494 -1.90857 2.28862 0
M  V30 9738 H 911.031 -0.933048 1.13722 0
M  V30 9739 H 912.989 -4.04364 1.02691 0
M  V30 9740 H 911.619 -3.21924 0.237689 0
M  V30 9741 H 910.671 -2.7633 2.61431 0
M  V30 9742 H 911.983 -3.77065 3.26532 0
M  V30 9743 H 911.137 -5.73826 1.96999 0
M  V30 9744 H 909.876 -4.72333 1.21462 0
M  V30 9745 H 908.881 -4.26227 3.4729 0
M  V30 9746 H 910.106 -5.31153 4.23147 0
M  V30 9747 H 908.052 -6.19166 2.16726 0
M  V30 9748 H 907.969 -6.4932 3.87195 0
M  V30 9749 H 909.237 -7.22234 2.93254 0
M  V30 9750 N 913.466 -1.22244 -0.994698 0
M  V30 9751 C 914.396 -1.01513 -2.10279 0
M  V30 9752 C 915.377 0.0633365 -1.69982 0
M  V30 9753 O 916.562 -0.0985268 -1.9395 0
M  V30 9754 C 913.692 -0.59016 -3.42249 0
M  V30 9755 C 912.646 -1.61436 -3.96387 0
M  V30 9756 C 911.972 -1.04528 -5.24383 0
M  V30 9757 C 913.272 -3.00388 -4.27276 0
M  V30 9758 H 914.966 -1.94194 -2.2788 0
M  V30 9759 H 912.512 -0.935094 -1.09508 0
M  V30 9760 H 914.465 -0.432254 -4.19177 0
M  V30 9761 H 913.189 0.372308 -3.24471 0
M  V30 9762 H 911.848 -1.76001 -3.21589 0
M  V30 9763 H 911.496 -0.0742225 -5.02945 0
M  V30 9764 H 911.196 -1.72949 -5.61571 0
M  V30 9765 H 912.72 -0.898922 -6.03947 0
M  V30 9766 H 914.134 -2.89207 -4.95007 0
M  V30 9767 H 912.531 -3.65916 -4.75631 0
M  V30 9768 H 913.601 -3.50456 -3.35125 0
M  V30 9769 N 914.944 1.19125 -1.03184 0
M  V30 9770 C 916.193 1.8821 -0.725264 0
M  V30 9771 C 916.506 1.80674 0.749411 0
M  V30 9772 O 917.712 2.45037 1.16915 0
M  V30 9773 C 916.168 3.37607 -1.24697 0
M  V30 9774 C 915.776 3.53693 -2.74964 0
M  V30 9775 C 917.52 4.12149 -1.01652 0
M  V30 9776 C 915.427 4.97001 -3.20538 0
M  V30 9777 H 914.357 0.704916 -0.267599 0
M  V30 9778 H 917.008 1.34663 -1.24652 0
M  V30 9779 H 915.39 3.90569 -0.653614 0
M  V30 9780 H 916.564 3.11046 -3.39981 0
M  V30 9781 H 914.879 2.92544 -2.96322 0
M  V30 9782 H 917.476 5.17837 -1.33226 0
M  V30 9783 H 917.819 4.16274 0.0465712 0
M  V30 9784 H 918.352 3.65334 -1.57403 0
M  V30 9785 H 915.091 4.9804 -4.26189 0
M  V30 9786 H 914.611 5.40398 -2.60251 0
M  V30 9787 H 916.29 5.65669 -3.14049 0
M  V30 9788 N 916.422 0.810101 1.35185 0
M  V30 9789 C 917.332 0.224565 2.33523 0
M  V30 9790 C 918.348 -0.634287 1.62027 0
M  V30 9791 O 919.524 -0.545211 1.9388 0
M  V30 9792 C 916.589 -0.614319 3.41214 0
M  V30 9793 C 915.65 0.265435 4.28479 0
M  V30 9794 C 914.883 -0.533506 5.31027 0
M  V30 9795 O 915.106 -1.7679 5.42311 0
M  V30 9796 O 914.04 0.0774573 6.0185 0
M  V30 9797 H 917.866 1.03815 2.85405 0
M  V30 9798 H 915.451 0.571964 1.38018 0
M  V30 9799 H 917.333 -1.09201 4.07005 0
M  V30 9800 H 916.008 -1.40545 2.91597 0
M  V30 9801 H 914.915 0.790343 3.65656 0
M  V30 9802 H 916.248 1.0206 4.81503 0
M  V30 9803 N 917.9 -1.47166 0.563914 0
M  V30 9804 C 919.148 -2.02056 0.0422873 0
M  V30 9805 C 919.469 -1.43992 -1.31497 0
M  V30 9806 O 918.739 -0.617578 -1.85911 0
M  V30 9807 H 917.319 -0.746893 0.0126427 0
M  V30 9808 H 919.981 -1.80492 0.735441 0
M  V30 9809 H 919.077 -3.12073 -0.0408044 0
M  V30 9810 N 919.378 -0.300708 -1.54705 0
M  V30 9811 C 920.626 0.308044 -1.99739 0
M  V30 9812 C 920.947 1.54433 -1.19061 0
M  V30 9813 O 920.217 1.93794 -0.286507 0
M  V30 9814 H 918.797 0.116811 -0.73781 0
M  V30 9815 H 921.459 -0.41197 -1.90496 0
M  V30 9816 H 920.555 0.580287 -3.06658 0
M  V30 9817 N 920.856 1.57574 -0.0284266 0
M  V30 9818 C 921.819 2.09096 0.938691 0
M  V30 9819 C 922.819 1.00588 1.25454 0
M  V30 9820 O 924.009 1.2675 1.19499 0
M  V30 9821 C 921.141 2.55624 2.25542 0
M  V30 9822 H 922.334 2.95829 0.49248 0
M  V30 9823 H 919.887 1.5475 0.219594 0
M  V30 9824 H 920.622 1.72218 2.74793 0
M  V30 9825 H 920.407 3.34896 2.03929 0
M  V30 9826 H 921.897 2.95712 2.94863 0
M  V30 9827 N 922.334 -0.244713 1.55689 0
M  V30 9828 C 923.284 -1.30596 1.86892 0
M  V30 9829 C 924.268 -1.43388 0.729972 0
M  V30 9830 O 925.46 -1.46593 0.99194 0
M  V30 9831 C 922.589 -2.66099 2.16902 0
M  V30 9832 C 921.675 -2.57302 3.37129 0
M  V30 9833 N 922.066 -2.18139 4.56343 0
M  V30 9834 C 920.364 -2.88311 3.40283 0
M  V30 9835 C 921.065 -2.20028 5.38482 0
M  V30 9836 N 920.041 -2.59616 4.77599 0
M  V30 9837 H 923.843 -0.993699 2.76591 0
M  V30 9838 H 921.357 -0.453334 1.55944 0
M  V30 9839 H 923.354 -3.4269 2.37422 0
M  V30 9840 H 922.014 -2.9819 1.28502 0
M  V30 9841 H 923.025 -1.89647 4.81928 0
M  V30 9842 H 919.702 -3.24928 2.62161 0
M  V30 9843 H 921.092 -1.9207 6.43862 0
M  V30 9844 N 923.813 -1.49104 -0.510467 0
M  V30 9845 C 925.062 -1.57362 -1.26175 0
M  V30 9846 C 925.375 -0.261218 -1.93848 0
M  V30 9847 O 926.581 -0.222238 -2.70589 0
M  V30 9848 C 925.037 -2.77606 -2.29048 0
M  V30 9849 C 924.645 -4.15567 -1.67357 0
M  V30 9850 C 926.389 -2.95188 -3.05064 0
M  V30 9851 C 924.296 -5.27046 -2.68285 0
M  V30 9852 H 923.226 -0.585887 -0.474608 0
M  V30 9853 H 925.877 -1.75474 -0.536753 0
M  V30 9854 H 924.259 -2.52968 -3.04669 0
M  V30 9855 H 925.433 -4.50304 -0.977924 0
M  V30 9856 H 923.748 -4.03264 -1.03765 0
M  V30 9857 H 926.345 -3.75643 -3.80521 0
M  V30 9858 H 926.688 -2.05385 -3.62108 0
M  V30 9859 H 927.221 -3.19821 -2.36558 0
M  V30 9860 H 923.96 -6.18878 -2.16034 0
M  V30 9861 H 923.48 -4.96774 -3.36118 0
M  V30 9862 H 925.159 -5.55983 -3.30896 0
M  V30 9863 N 925.291 0.760815 -1.38019 0
M  V30 9864 C 926.521 1.54776 -1.3685 0
M  V30 9865 C 926.929 1.89146 0.0453971 0
M  V30 9866 O 926.272 1.52746 1.0205 0
M  V30 9867 C 926.334 2.87923 -2.15269 0
M  V30 9868 C 925.998 2.76131 -3.64144 0
M  V30 9869 C 926.995 2.46417 -4.57794 0
M  V30 9870 C 924.68 2.9381 -4.07408 0
M  V30 9871 C 926.674 2.34525 -5.92686 0
M  V30 9872 C 924.361 2.81539 -5.42383 0
M  V30 9873 C 925.359 2.51938 -6.34836 0
M  V30 9874 O 925.047 2.39713 -7.67329 0
M  V30 9875 H 924.779 0.485776 -0.470104 0
M  V30 9876 H 927.333 0.949939 -1.82113 0
M  V30 9877 H 925.563 3.49867 -1.64712 0
M  V30 9878 H 927.252 3.49389 -2.06596 0
M  V30 9879 H 928.018 2.32433 -4.25676 0
M  V30 9880 H 923.897 3.15849 -3.35799 0
M  V30 9881 H 927.441 2.11342 -6.64816 0
M  V30 9882 H 923.338 2.95093 -5.741 0
M  V30 9883 H 924.106 2.5498 -7.77771 0
M  V30 9884 N 926.769 1.22769 0.988202 0
M  V30 9885 C 928.015 1.05665 1.73097 0
M  V30 9886 C 928.348 -0.406615 1.89895 0
M  V30 9887 O 927.623 -1.30132 1.44554 0
M  V30 9888 C 927.906 1.77381 3.13382 0
M  V30 9889 C 927.759 3.31332 3.04203 0
M  V30 9890 C 929.078 1.52999 4.12649 0
M  V30 9891 H 926.197 0.385258 0.628288 0
M  V30 9892 H 928.839 1.51171 1.15097 0
M  V30 9893 H 926.989 1.38696 3.62899 0
M  V30 9894 H 928.661 3.79489 2.6227 0
M  V30 9895 H 926.904 3.60767 2.40894 0
M  V30 9896 H 927.575 3.76692 4.03493 0
M  V30 9897 H 930.051 1.86611 3.71908 0
M  V30 9898 H 928.927 2.05666 5.08913 0
M  V30 9899 H 929.188 0.463615 4.39662 0
M  V30 9900 N 928.247 -1.18576 1.03814 0
M  V30 9901 C 929.487 -1.90187 0.748882 0
M  V30 9902 C 929.851 -1.78383 -0.710177 0
M  V30 9903 O 931.052 -2.44678 -1.11293 0
M  V30 9904 C 929.323 -3.36688 1.19901 0
M  V30 9905 S 930.882 -4.26419 1.03501 0
M  V30 9906 H 927.7 -0.656765 0.272362 0
M  V30 9907 H 930.302 -1.43296 1.32991 0
M  V30 9908 H 929.006 -3.42808 2.25635 0
M  V30 9909 H 928.537 -3.88616 0.611669 0
M  V30 9910 H 930.552 -4.96176 -0.0490431 0
M  V30 9911 N 929.725 -0.817259 -1.34754 0
M  V30 9912 C 930.973 -0.401852 -1.98065 0
M  V30 9913 C 931.294 1.03718 -1.65129 0
M  V30 9914 O 930.564 1.71921 -0.939141 0
M  V30 9915 H 929.144 -0.145603 -0.732672 0
M  V30 9916 H 931.806 -1.04545 -1.64488 0
M  V30 9917 H 930.902 -0.516241 -3.07801 0
M  V30 9918 N 931.203 1.46865 -0.571711 0
M  V30 9919 C 932.48 1.95596 0.0132445 0
M  V30 9920 C 932.86 1.51438 1.47071 0
M  V30 9921 O 932.208 0.759917 2.15494 0
M  V30 9922 C 932.418 3.48689 -0.147335 0
M  V30 9923 C 933.766 4.24599 -0.00946329 0
M  V30 9924 O 934.79 3.5612 -0.0756112 0
M  V30 9925 O 933.649 5.46332 0.135361 0
M  V30 9926 H 930.743 0.825102 0.0560039 0
M  V30 9927 H 933.289 1.57199 -0.639256 0
M  V30 9928 H 932.061 3.73681 -1.16096 0
M  V30 9929 H 931.684 3.93887 0.542109 0
M  V30 9930 N 932.681 0.308908 1.54543 0
M  V30 9931 C 933.644 -0.550857 2.22482 0
M  V30 9932 C 934.644 -1.0551 1.21344 0
M  V30 9933 O 935.834 -0.949866 1.46025 0
M  V30 9934 C 932.966 -1.76354 2.9174 0
M  V30 9935 H 934.159 0.0428395 2.99869 0
M  V30 9936 H 931.712 0.059825 1.56185 0
M  V30 9937 H 932.447 -2.39686 2.18451 0
M  V30 9938 H 932.232 -1.40954 3.65889 0
M  V30 9939 H 933.722 -2.37417 3.43545 0
M  V30 9940 N 934.159 -1.57557 0.0367827 0
M  V30 9941 C 935.575 -1.56366 -0.31967 0
M  V30 9942 C 935.775 -1.04313 -1.72398 0
M  V30 9943 O 934.831 -0.693278 -2.42796 0
M  V30 9944 C 936.144 -3.00267 -0.161274 0
M  V30 9945 C 937.692 -3.12128 -0.233464 0
M  V30 9946 C 938.167 -4.57882 -0.103767 0
M  V30 9947 N 939.658 -4.62922 -0.160506 0
M  V30 9948 C 940.393 -5.73338 -0.0840493 0
M  V30 9949 N 939.889 -6.92786 0.043933 0
M  V30 9950 N 941.682 -5.61929 -0.138592 0
M  V30 9951 H 933.833 -1.8972 0.954996 0
M  V30 9952 H 936.096 -0.87304 0.369467 0
M  V30 9953 H 935.802 -3.42331 0.80639 0
M  V30 9954 H 935.676 -3.65599 -0.928304 0
M  V30 9955 H 938.063 -2.69972 -1.19159 0
M  V30 9956 H 938.144 -2.49503 0.564075 0
M  V30 9957 H 937.788 -5.0072 0.850973 0
M  V30 9958 H 937.718 -5.18496 -0.920268 0
M  V30 9959 H 940.209 -3.7701 -0.259257 0
M  V30 9960 H 940.522 -7.72741 0.095372 0
M  V30 9961 H 938.867 -6.94955 0.0788211 0
M  V30 9962 H 942.058 -4.67499 -0.237031 0
M  V30 9963 H 942.231 -6.47956 -0.075546 0
M  V30 9964 N 935.637 0.236453 -1.55816 0
M  V30 9965 C 936.585 1.31259 -1.92025 0
M  V30 9966 C 937.579 1.49292 -0.800518 0
M  V30 9967 O 938.785 1.50643 -0.985229 0
M  V30 9968 H 935.16 0.439751 -0.610019 0
M  V30 9969 H 937.131 0.979926 -2.81851 0
M  V30 9970 C 935.88 2.65892 -2.24046 0
M  V30 9971 H 935.203 2.5282 -3.09713 0
M  V30 9972 H 936.643 3.40039 -2.53277 0
M  V30 9973 C 935.102 3.19777 -1.0604 0
M  V30 9974 O 935.632 4.00473 -0.313786 0
M  V30 9975 N 933.838 2.77946 -0.848209 0
M  V30 9976 H 933.385 2.12433 -1.45706 0
M  V30 9977 H 933.343 3.14342 -0.0603424 0
M  V30 9978 N 937.115 1.49373 0.502552 0
M  V30 9979 C 938.048 1.60529 1.6219 0
M  V30 9980 C 939.026 0.454431 1.56121 0
M  V30 9981 O 940.21 0.669768 1.762 0
M  V30 9982 C 937.337 1.55879 3.00698 0
M  V30 9983 C 936.383 2.76143 3.25034 0
M  V30 9984 S 937.216 4.37831 3.08325 0
M  V30 9985 C 938.372 4.35824 4.49231 0
M  V30 9986 H 938.605 2.55219 1.52482 0
M  V30 9987 H 936.138 1.38244 0.687594 0
M  V30 9988 H 938.096 1.53882 3.80566 0
M  V30 9989 H 936.757 0.624791 3.07823 0
M  V30 9990 H 935.95 2.69104 4.26144 0
M  V30 9991 H 935.552 2.75544 2.52886 0
M  V30 9992 H 937.844 4.07447 5.41288 0
M  V30 9993 H 938.787 5.37206 4.6132 0
M  V30 9994 H 939.195 3.65923 4.29838 0
M  V30 9995 N 938.594 -0.753485 1.38421 0
M  V30 9996 C 939.557 -1.84888 1.35459 0
M  V30 9997 C 940.557 -1.58764 0.255083 0
M  V30 9998 O 941.747 -1.66507 0.511978 0
M  V30 9999 C 938.879 -3.22361 1.10888 0
M  V30 10000 H 940.072 -1.88922 2.32913 0
M  V30 10001 H 937.625 -0.955199 1.23716 0
M  V30 10002 H 938.36 -3.23996 0.1404 0
M  V30 10003 H 938.145 -3.42717 1.90492 0
M  V30 10004 H 939.635 -4.02437 1.1151 0
M  V30 10005 N 940.072 -1.23292 -0.981677 0
M  V30 10006 C 941.488 -0.995295 -1.24764 0
M  V30 10007 C 941.688 0.304379 -1.99188 0
M  V30 10008 O 940.744 1.02414 -2.30798 0
M  V30 10009 C 942.057 -2.20135 -2.04844 0
M  V30 10010 C 943.605 -2.24612 -2.17988 0
M  V30 10011 C 944.08 -3.448 -3.01458 0
M  V30 10012 N 945.571 -3.45031 -3.09044 0
M  V30 10013 C 946.306 -4.34683 -3.7395 0
M  V30 10014 N 945.802 -5.34569 -4.4069 0
M  V30 10015 N 947.595 -4.22429 -3.70823 0
M  V30 10016 H 939.746 -2.06834 -0.483052 0
M  V30 10017 H 942.009 -0.906929 -0.276014 0
M  V30 10018 H 941.715 -3.14446 -1.57532 0
M  V30 10019 H 941.589 -2.21115 -3.05594 0
M  V30 10020 H 943.976 -1.30841 -2.64508 0
M  V30 10021 H 944.057 -2.27664 -1.16631 0
M  V30 10022 H 943.701 -4.38877 -2.55635 0
M  V30 10023 H 943.631 -3.38988 -4.02982 0
M  V30 10024 H 946.122 -2.72759 -2.61555 0
M  V30 10025 H 946.435 -5.99236 -4.87991 0
M  V30 10026 H 944.78 -5.3847 -4.39403 0
M  V30 10027 H 947.971 -3.43639 -3.17851 0
M  V30 10028 H 948.144 -4.92501 -4.21126 0
M  V30 10029 N 941.55 1.18024 -1.04442 0
M  V30 10030 C 942.827 1.8398 -0.664125 0
M  V30 10031 C 943.207 1.92961 0.856116 0
M  V30 10032 O 942.555 1.45839 1.75907 0
M  V30 10033 C 942.765 3.22069 -1.34433 0
M  V30 10034 C 944.113 3.98063 -1.47754 0
M  V30 10035 O 945.137 3.31523 -1.30274 0
M  V30 10036 O 943.996 5.17291 -1.76272 0
M  V30 10037 H 941.09 0.793543 -0.23285 0
M  V30 10038 H 943.636 1.25385 -1.14354 0
M  V30 10039 H 942.408 3.10458 -2.38184 0
M  V30 10040 H 942.031 3.88325 -0.853782 0
M  V30 10041 N 943.028 0.824394 1.34319 0
M  V30 10042 C 944.274 0.413779 1.98534 0
M  V30 10043 C 944.607 -1.02089 1.65201 0
M  V30 10044 O 943.882 -1.71129 0.924402 0
M  V30 10045 C 944.165 0.61801 3.54757 0
M  V30 10046 C 944.018 2.0989 3.97827 0
M  V30 10047 C 945.337 0.0549041 4.40066 0
M  V30 10048 H 942.456 0.151815 0.721194 0
M  V30 10049 H 945.098 1.03723 1.5919 0
M  V30 10050 H 943.248 0.0873107 3.88402 0
M  V30 10051 H 944.92 2.69335 3.74508 0
M  V30 10052 H 943.163 2.58881 3.48085 0
M  V30 10053 H 943.834 2.1926 5.06586 0
M  V30 10054 H 946.31 0.508348 4.12983 0
M  V30 10055 H 945.186 0.227595 5.48428 0
M  V30 10056 H 945.447 -1.04025 4.29687 0
M  V30 10057 N 944.506 -1.46559 0.579492 0
M  V30 10058 C 945.438 -2.28383 -0.19337 0
M  V30 10059 C 946.451 -1.38324 -0.858511 0
M  V30 10060 O 947.64 -1.62952 -0.728615 0
M  V30 10061 C 944.74 -3.13262 -1.29306 0
M  V30 10062 C 943.913 -4.31426 -0.720459 0
M  V30 10063 C 942.972 -4.97728 -1.70744 0
M  V30 10064 O 941.998 -5.55423 -1.24476 0
M  V30 10065 N 943.2 -4.94445 -3.04146 0
M  V30 10066 H 945.965 -2.95353 0.508611 0
M  V30 10067 H 943.526 -1.56436 0.417046 0
M  V30 10068 H 945.518 -3.54483 -1.95254 0
M  V30 10069 H 944.088 -2.48388 -1.89795 0
M  V30 10070 H 943.308 -3.94028 0.116398 0
M  V30 10071 H 944.596 -5.07808 -0.31763 0
M  V30 10072 H 943.994 -4.4881 -3.44363 0
M  V30 10073 H 942.551 -5.39616 -3.65592 0
M  V30 10074 N 945.984 -0.3171 -1.54377 0
M  V30 10075 C 946.932 0.567371 -2.25574 0
M  V30 10076 C 947.926 1.12387 -1.2675 0
M  V30 10077 O 949.132 1.07266 -1.44548 0
M  V30 10078 H 945.507 0.201605 -0.724472 0
M  V30 10079 H 947.478 -0.0554644 -2.98348 0
M  V30 10080 C 946.227 1.71984 -3.02187 0
M  V30 10081 H 945.55 1.30086 -3.78044 0
M  V30 10082 H 946.99 2.31443 -3.5526 0
M  V30 10083 C 945.449 2.6336 -2.10103 0
M  V30 10084 O 945.979 3.64899 -1.67962 0
M  V30 10085 N 944.185 2.3145 -1.75725 0
M  V30 10086 H 943.732 1.48921 -2.10191 0
M  V30 10087 H 943.69 2.92852 -1.14391 0
M  V30 10088 N 947.462 1.57535 -0.0451378 0
M  V30 10089 C 948.69 1.96761 0.639742 0
M  V30 10090 C 949.105 0.922405 1.64734 0
M  V30 10091 O 948.462 -0.0940535 1.82257 0
M  V30 10092 C 948.513 3.36066 1.33199 0
M  V30 10093 O 948.234 4.36579 0.364757 0
M  V30 10094 C 949.735 3.90015 2.1072 0
M  V30 10095 H 946.955 0.64769 0.175324 0
M  V30 10096 H 949.499 2.04206 -0.109651 0
M  V30 10097 H 947.654 3.2979 2.03266 0
M  V30 10098 H 948.068 5.17432 0.858168 0
M  V30 10099 H 949.542 4.89785 2.54586 0
M  V30 10100 H 950.019 3.25117 2.95288 0
M  V30 10101 H 950.625 3.99609 1.45577 0
M  V30 10102 N 948.94 -0.228186 1.55939 0
M  V30 10103 C 950.187 -0.953552 1.78644 0
M  V30 10104 C 950.515 -1.84596 0.61275 0
M  V30 10105 O 949.77 -1.91502 -0.403175 0
M  V30 10106 C 950.069 -1.82924 3.0704 0
M  V30 10107 C 949.735 -1.09062 4.37511 0
M  V30 10108 C 948.397 -0.886565 4.72962 0
M  V30 10109 C 950.749 -0.568533 5.1809 0
M  V30 10110 C 948.077 -0.148413 5.86512 0
M  V30 10111 C 950.429 0.156243 6.32407 0
M  V30 10112 C 949.093 0.371612 6.66465 0
M  V30 10113 H 948.363 -0.348929 0.653704 0
M  V30 10114 H 951.01 -0.222211 1.90206 0
M  V30 10115 H 949.315 -2.62823 2.90571 0
M  V30 10116 H 951.012 -2.3925 3.21808 0
M  V30 10117 H 947.602 -1.25963 4.09672 0
M  V30 10118 H 951.786 -0.713673 4.91142 0
M  V30 10119 H 947.042 0.0287418 6.11393 0
M  V30 10120 H 951.216 0.568333 6.94077 0
M  V30 10121 H 948.843 0.945522 7.54297 0
M  V30 10122 N 950.418 -1.49637 -0.494624 0
M  V30 10123 C 951.648 -1.62928 -1.27036 0
M  V30 10124 C 952.056 -0.302464 -1.86767 0
M  V30 10125 O 951.399 0.722878 -1.68879 0
M  V30 10126 C 951.461 -2.64449 -2.43531 0
M  V30 10127 C 951.125 -4.08632 -2.0462 0
M  V30 10128 C 952.122 -4.95238 -1.58225 0
M  V30 10129 C 949.807 -4.54405 -2.1406 0
M  V30 10130 C 951.801 -6.25658 -1.21782 0
M  V30 10131 C 949.488 -5.84836 -1.77228 0
M  V30 10132 C 950.486 -6.70287 -1.31165 0
M  V30 10133 O 950.174 -7.98287 -0.948339 0
M  V30 10134 H 949.906 -0.551263 -0.391261 0
M  V30 10135 H 952.46 -1.96453 -0.599621 0
M  V30 10136 H 950.69 -2.26117 -3.137 0
M  V30 10137 H 952.379 -2.67203 -3.05545 0
M  V30 10138 H 953.145 -4.611 -1.50373 0
M  V30 10139 H 949.024 -3.88056 -2.48865 0
M  V30 10140 H 952.568 -6.92309 -0.857566 0
M  V30 10141 H 948.465 -6.18502 -1.84732 0
M  V30 10142 H 949.233 -8.11353 -1.07925 0
M  V30 10143 N 951.896 0.746133 -1.38819 0
M  V30 10144 C 953.173 1.49652 -1.25951 0
M  V30 10145 C 953.553 2.10663 0.135833 0
M  V30 10146 O 952.901 1.97682 1.14604 0
M  V30 10147 C 953.111 2.5569 -2.37537 0
M  V30 10148 C 954.459 3.22385 -2.76321 0
M  V30 10149 O 955.483 2.65998 -2.36904 0
M  V30 10150 O 954.342 4.2439 -3.44319 0
M  V30 10151 H 951.436 0.664019 -0.492958 0
M  V30 10152 H 953.982 0.780908 -1.50665 0
M  V30 10153 H 952.754 2.08908 -3.30867 0
M  V30 10154 H 952.377 3.34823 -2.14427 0
M  V30 10155 N 953.375 1.23811 0.975125 0
M  V30 10156 C 954.624 1.06741 1.71141 0
M  V30 10157 C 954.937 -0.394986 1.9157 0
M  V30 10158 O 956.143 -0.685723 2.62698 0
M  V30 10159 C 954.599 1.86168 3.08009 0
M  V30 10160 C 954.207 3.36771 2.95448 0
M  V30 10161 C 955.951 1.77604 3.85561 0
M  V30 10162 C 953.858 4.0857 4.2758 0
M  V30 10163 H 952.788 0.395819 0.64175 0
M  V30 10164 H 955.439 1.47825 1.0872 0
M  V30 10165 H 953.821 1.37893 3.71216 0
M  V30 10166 H 954.995 3.92571 2.41298 0
M  V30 10167 H 953.31 3.46205 2.31368 0
M  V30 10168 H 955.907 2.28556 4.83391 0
M  V30 10169 H 956.25 0.739837 4.09673 0
M  V30 10170 H 956.783 2.23519 3.29065 0
M  V30 10171 H 953.522 5.12518 4.08663 0
M  V30 10172 H 953.042 3.57556 4.81574 0
M  V30 10173 H 954.721 4.15157 4.9624 0
M  V30 10174 N 954.853 -1.17469 1.05066 0
M  V30 10175 C 956.099 -1.87976 0.761113 0
M  V30 10176 C 956.432 -1.80756 -0.709995 0
M  V30 10177 O 955.707 -1.21469 -1.51906 0
M  V30 10178 C 955.99 -3.38055 1.2406 0
M  V30 10179 C 955.843 -3.54032 2.77455 0
M  V30 10180 C 957.162 -4.32036 0.838612 0
M  V30 10181 H 954.281 -0.682573 0.277963 0
M  V30 10182 H 956.923 -1.38147 1.30443 0
M  V30 10183 H 955.073 -3.80622 0.778388 0
M  V30 10184 H 956.745 -3.20489 3.3179 0
M  V30 10185 H 954.988 -2.96352 3.16793 0
M  V30 10186 H 955.659 -4.59377 3.06066 0
M  V30 10187 H 958.135 -3.97303 1.23651 0
M  V30 10188 H 957.011 -5.35583 1.20173 0
M  V30 10189 H 957.272 -4.41349 -0.257498 0
M  V30 10190 N 956.331 -0.831506 -1.3388 0
M  V30 10191 C 957.294 -0.264773 -2.27666 0
M  V30 10192 C 958.294 0.562273 -1.50649 0
M  V30 10193 O 959.484 0.377131 -1.70069 0
M  V30 10194 C 956.616 0.627814 -3.35069 0
M  V30 10195 H 957.809 -1.09225 -2.79303 0
M  V30 10196 H 955.362 -0.604021 -1.44157 0
M  V30 10197 H 956.097 1.47802 -2.88661 0
M  V30 10198 H 955.882 0.0361552 -3.92083 0
M  V30 10199 H 957.372 1.01786 -4.05005 0
M  V30 10200 N 957.809 1.4625 -0.587256 0
M  V30 10201 C 958.719 2.34147 0.145744 0
M  V30 10202 C 959.735 1.50026 0.881376 0
M  V30 10203 O 960.911 1.82884 0.843539 0
M  V30 10204 C 957.976 3.27294 1.14366 0
M  V30 10205 C 957.037 4.27317 0.412199 0
M  V30 10206 C 956.27 5.16013 1.36257 0
M  V30 10207 O 956.493 5.0773 2.59934 0
M  V30 10208 O 955.427 5.95569 0.870681 0
M  V30 10209 H 959.253 2.98187 -0.576055 0
M  V30 10210 H 956.838 1.45299 -0.347628 0
M  V30 10211 H 958.72 3.84747 1.71894 0
M  V30 10212 H 957.395 2.65845 1.84684 0
M  V30 10213 H 956.302 3.73538 -0.205036 0
M  V30 10214 H 957.635 4.91564 -0.250104 0
M  V30 10215 N 959.287 0.325282 1.54207 0
M  V30 10216 C 960.217 -0.532574 2.27345 0
M  V30 10217 C 961.198 -1.11791 1.28206 0
M  V30 10218 O 962.383 -1.14272 1.57021 0
M  V30 10219 C 959.513 -1.69274 3.03255 0
M  V30 10220 C 958.467 -1.23662 4.09746 0
M  V30 10221 C 957.793 -2.48386 4.73506 0
M  V30 10222 C 959.093 -0.350244 5.21124 0
M  V30 10223 H 960.787 0.0775108 2.993 0
M  V30 10224 H 958.333 0.0387193 1.43948 0
M  V30 10225 H 960.286 -2.29917 3.53152 0
M  V30 10226 H 959.01 -2.32944 2.28921 0
M  V30 10227 H 957.669 -0.653106 3.60735 0
M  V30 10228 H 957.317 -3.10424 3.95786 0
M  V30 10229 H 957.017 -2.18558 5.45441 0
M  V30 10230 H 958.541 -3.09789 5.26178 0
M  V30 10231 H 959.955 -0.863011 5.66767 0
M  V30 10232 H 958.352 -0.14466 5.99926 0
M  V30 10233 H 959.422 0.618457 4.8094 0
M  V30 10234 N 960.765 -1.57509 0.0534917 0
M  V30 10235 C 962.013 -1.92402 -0.618548 0
M  V30 10236 C 962.334 -0.93273 -1.71246 0
M  V30 10237 O 961.604 0.0220495 -1.95888 0
M  V30 10238 H 960.184 -0.710233 -0.23147 0
M  V30 10239 H 962.846 -1.94606 0.10704 0
M  V30 10240 H 961.942 -2.93704 -1.05566 0
M  V30 10241 N 962.243 0.219913 -1.56058 0
M  V30 10242 C 963.206 1.25606 -1.91718 0
M  V30 10243 C 964.206 1.39721 -0.795912 0
M  V30 10244 O 965.396 1.37958 -1.06364 0
M  V30 10245 C 962.528 2.62961 -2.16943 0
M  V30 10246 H 963.721 0.951909 -2.84392 0
M  V30 10247 H 961.274 0.460398 -1.49365 0
M  V30 10248 H 962.009 2.98472 -1.26826 0
M  V30 10249 H 961.794 2.54093 -2.98629 0
M  V30 10250 H 963.284 3.37727 -2.45622 0
M  V30 10251 N 963.721 1.49897 0.486681 0
M  V30 10252 C 964.654 1.6224 1.60479 0
M  V30 10253 C 965.632 0.470964 1.5563 0
M  V30 10254 O 966.816 0.688418 1.75479 0
M  V30 10255 C 963.943 1.59059 2.99028 0
M  V30 10256 C 962.989 2.79575 3.22087 0
M  V30 10257 S 963.822 4.41077 3.03664 0
M  V30 10258 C 964.978 4.40564 4.44583 0
M  V30 10259 H 965.211 2.56822 1.49766 0
M  V30 10260 H 962.744 1.38966 0.672893 0
M  V30 10261 H 964.702 1.5791 3.78913 0
M  V30 10262 H 963.363 0.657405 3.07143 0
M  V30 10263 H 962.556 2.73609 4.23266 0
M  V30 10264 H 962.158 2.78211 2.49949 0
M  V30 10265 H 964.45 4.13166 5.36936 0
M  V30 10266 H 965.393 5.42068 4.55596 0
M  V30 10267 H 965.801 3.70461 4.25933 0
M  V30 10268 N 965.199 -0.738761 1.39212 0
M  V30 10269 C 966.109 -1.88324 1.39897 0
M  V30 10270 C 967.125 -1.71494 0.294229 0
M  V30 10271 O 968.301 -1.94162 0.535087 0
M  V30 10272 C 965.366 -3.23871 1.23726 0
M  V30 10273 C 964.427 -3.53121 2.44139 0
M  V30 10274 C 963.66 -4.82202 2.2873 0
M  V30 10275 O 963.883 -5.55649 1.28879 0
M  V30 10276 O 962.817 -5.11265 3.17634 0
M  V30 10277 H 966.643 -1.90701 2.36362 0
M  V30 10278 H 964.228 -0.886067 1.20288 0
M  V30 10279 H 966.11 -4.04882 1.16826 0
M  V30 10280 H 964.785 -3.22274 0.303551 0
M  V30 10281 H 963.692 -2.72212 2.56615 0
M  V30 10282 H 965.025 -3.59495 3.36191 0
M  V30 10283 N 966.677 -1.24326 -0.968545 0
M  V30 10284 C 967.627 -1.00191 -2.04807 0
M  V30 10285 C 968.611 0.0563524 -1.60801 0
M  V30 10286 O 969.803 -0.157268 -1.763 0
M  V30 10287 C 966.932 -0.607749 -3.37878 0
M  V30 10288 C 966.018 -1.70204 -3.88447 0
M  V30 10289 N 966.409 -2.93463 -4.11962 0
M  V30 10290 C 964.707 -1.57936 -4.171 0
M  V30 10291 C 965.408 -3.64397 -4.5342 0
M  V30 10292 N 964.384 -2.91956 -4.58544 0
M  V30 10293 H 968.186 -1.93786 -2.20962 0
M  V30 10294 H 965.7 -1.1444 -1.15227 0
M  V30 10295 H 967.697 -0.416079 -4.14819 0
M  V30 10296 H 966.357 0.321026 -3.23109 0
M  V30 10297 H 967.368 -3.2965 -3.99438 0
M  V30 10298 H 964.045 -0.718552 -4.1127 0
M  V30 10299 H 965.435 -4.70125 -4.80034 0
M  V30 10300 N 968.156 1.1691 -1.05688 0
M  V30 10301 C 969.119 2.19297 -0.666433 0
M  V30 10302 C 970.119 1.5826 0.284674 0
M  V30 10303 O 971.309 1.74068 0.0678757 0
M  V30 10304 C 968.441 3.40894 0.0203656 0
M  V30 10305 H 969.634 2.55354 -1.57272 0
M  V30 10306 H 967.187 1.31078 -0.851359 0
M  V30 10307 H 967.922 3.10388 0.939686 0
M  V30 10308 H 967.707 3.86446 -0.663464 0
M  V30 10309 H 969.197 4.16664 0.279475 0
M  V30 10310 N 969.634 0.838594 1.33437 0
M  V30 10311 C 970.566 0.229006 2.28053 0
M  V30 10312 C 971.579 -0.590103 1.51729 0
M  V30 10313 O 972.768 -0.417218 1.73556 0
M  V30 10314 C 969.868 -0.696251 3.31671 0
M  V30 10315 C 969.041 0.0834606 4.3732 0
M  V30 10316 C 968.1 -0.765097 5.20608 0
M  V30 10317 O 967.126 -0.2044 5.68833 0
M  V30 10318 N 968.328 -2.08249 5.4186 0
M  V30 10319 H 971.093 1.04196 2.81004 0
M  V30 10320 H 968.654 0.697031 1.46127 0
M  V30 10321 H 970.646 -1.26889 3.84293 0
M  V30 10322 H 969.216 -1.40992 2.78998 0
M  V30 10323 H 968.436 0.837481 3.85201 0
M  V30 10324 H 969.724 0.619613 5.05013 0
M  V30 10325 H 969.122 -2.56156 5.04381 0
M  V30 10326 H 967.679 -2.60362 5.97541 0
M  V30 10327 N 971.112 -1.45937 0.595003 0
M  V30 10328 C 972.075 -2.2888 -0.121102 0
M  V30 10329 C 973.075 -1.39075 -0.807149 0
M  V30 10330 O 974.265 -1.61326 -0.657228 0
M  V30 10331 C 971.397 -3.19778 -1.1813 0
M  V30 10332 H 972.59 -2.93673 0.607968 0
M  V30 10333 H 970.143 -1.5225 0.353495 0
M  V30 10334 H 970.878 -2.59759 -1.94154 0
M  V30 10335 H 970.663 -3.85914 -0.693724 0
M  V30 10336 H 972.153 -3.82176 -1.68319 0
M  V30 10337 N 972.59 -0.333456 -1.54032 0
M  V30 10338 C 973.836 0.266527 -2.01041 0
M  V30 10339 C 974.169 1.51006 -1.2211 0
M  V30 10340 O 973.444 1.92078 -0.306016 0
M  V30 10341 C 973.727 0.59078 -3.55221 0
M  V30 10342 C 973.58 -0.664143 -4.4487 0
M  V30 10343 C 974.899 1.40447 -4.17088 0
M  V30 10344 H 972.018 0.0953979 -0.7308 0
M  V30 10345 H 974.66 -0.451995 -1.84545 0
M  V30 10346 H 972.81 1.20292 -3.69408 0
M  V30 10347 H 974.482 -1.30227 -4.42537 0
M  V30 10348 H 972.725 -1.29106 -4.14143 0
M  V30 10349 H 973.396 -0.392664 -5.50602 0
M  V30 10350 H 975.872 0.886946 -4.06537 0
M  V30 10351 H 974.748 1.6001 -5.2506 0
M  V30 10352 H 975.009 2.40357 -3.71054 0
M  V30 10353 N 974.068 1.57479 -0.061844 0
M  V30 10354 C 975.345 1.84484 0.649993 0
M  V30 10355 C 975.725 0.952366 1.88396 0
M  V30 10356 O 975.073 0.0161035 2.28494 0
M  V30 10357 C 975.283 3.34452 0.997133 0
M  V30 10358 C 976.631 4.01724 1.37488 0
M  V30 10359 O 977.655 3.3914 1.08916 0
M  V30 10360 O 976.514 5.12091 1.90854 0
M  V30 10361 H 973.608 0.761798 0.321858 0
M  V30 10362 H 976.154 1.6945 -0.0920192 0
M  V30 10363 H 974.926 3.91115 0.120301 0
M  V30 10364 H 974.549 3.54713 1.79624 0
M  V30 10365 N 975.546 -0.211634 1.56173 0
M  V30 10366 C 976.776 -0.949805 1.83473 0
M  V30 10367 C 977.184 -1.78045 0.640053 0
M  V30 10368 O 976.527 -1.79277 -0.400702 0
M  V30 10369 C 976.589 -1.90868 3.04647 0
M  V30 10370 C 976.253 -1.26159 4.39241 0
M  V30 10371 C 977.25 -0.646597 5.15863 0
M  V30 10372 C 974.935 -1.27039 4.85969 0
M  V30 10373 C 976.929 -0.0490313 6.37381 0
M  V30 10374 C 974.616 -0.668987 6.07427 0
M  V30 10375 C 975.614 -0.0593687 6.82974 0
M  V30 10376 O 975.302 0.532656 8.02133 0
M  V30 10377 H 975.034 -0.283458 0.6137 0
M  V30 10378 H 977.588 -0.22894 2.0412 0
M  V30 10379 H 975.818 -2.6688 2.79843 0
M  V30 10380 H 977.507 -2.51323 3.18734 0
M  V30 10381 H 978.273 -0.632056 4.80864 0
M  V30 10382 H 974.152 -1.73429 4.27134 0
M  V30 10383 H 977.696 0.427414 6.96289 0
M  V30 10384 H 973.593 -0.680975 6.41898 0
M  V30 10385 H 974.361 0.427942 8.17381 0
M  V30 10386 N 977.024 -1.50153 -0.478725 0
M  V30 10387 C 978.273 -1.60002 -1.22809 0
M  V30 10388 C 978.586 -0.302277 -1.9325 0
M  V30 10389 O 979.792 -0.279583 -2.70057 0
M  V30 10390 C 978.248 -2.82402 -2.23108 0
M  V30 10391 C 977.856 -4.19023 -1.58505 0
M  V30 10392 C 979.6 -3.01593 -2.98734 0
M  V30 10393 C 977.507 -5.32618 -2.57045 0
M  V30 10394 H 976.437 -0.595822 -0.462073 0
M  V30 10395 H 979.088 -1.76573 -0.499412 0
M  V30 10396 H 977.47 -2.59373 -2.99235 0
M  V30 10397 H 978.644 -4.52277 -0.882187 0
M  V30 10398 H 976.959 -4.05374 -0.951877 0
M  V30 10399 H 979.556 -3.8363 -3.72468 0
M  V30 10400 H 979.899 -2.1302 -3.57671 0
M  V30 10401 H 980.432 -3.24766 -2.29721 0
M  V30 10402 H 977.171 -6.23321 -2.02858 0
M  V30 10403 H 976.691 -5.03792 -3.25505 0
M  V30 10404 H 978.37 -5.62877 -3.19028 0
M  V30 10405 N 978.502 0.731368 -1.39602 0
M  V30 10406 C 979.449 1.84541 -1.38612 0
M  V30 10407 C 980.419 1.64279 -0.245287 0
M  V30 10408 O 981.604 1.85635 -0.440954 0
M  V30 10409 C 978.744 3.22092 -1.23897 0
M  V30 10410 C 977.857 3.54034 -2.47555 0
M  V30 10411 C 976.992 4.81007 -2.25402 0
M  V30 10412 C 976.031 5.05804 -3.44716 0
M  V30 10413 N 975.168 6.23981 -3.21857 0
M  V30 10414 H 980.008 1.84722 -2.33841 0
M  V30 10415 H 977.545 0.902569 -1.16156 0
M  V30 10416 H 979.503 4.01499 -1.13376 0
M  V30 10417 H 978.133 3.2118 -0.322958 0
M  V30 10418 H 977.185 2.69301 -2.68665 0
M  V30 10419 H 978.497 3.68275 -3.36415 0
M  V30 10420 H 977.651 5.68401 -2.12143 0
M  V30 10421 H 976.39 4.68946 -1.33943 0
M  V30 10422 H 975.395 4.1687 -3.58468 0
M  V30 10423 H 976.62 5.19747 -4.37081 0
M  V30 10424 H 974.566 6.13202 -2.33065 0
M  V30 10425 H 974.483 6.38826 -4.04274 0
M  V30 10426 H 975.751 7.14205 -3.123 0
M  V30 10427 N 979.98 1.24838 0.961938 0
M  V30 10428 C 980.927 1.04582 2.05745 0
M  V30 10429 C 981.897 -0.0427281 1.66045 0
M  V30 10430 O 983.082 0.113026 1.90465 0
M  V30 10431 C 980.222 0.66284 3.38675 0
M  V30 10432 C 979.335 1.82548 3.91536 0
M  V30 10433 C 978.47 1.38753 5.12758 0
M  V30 10434 C 977.509 2.51976 5.5783 0
M  V30 10435 N 976.646 2.09009 6.70268 0
M  V30 10436 H 981.486 1.98343 2.22405 0
M  V30 10437 H 979.023 0.987822 1.08998 0
M  V30 10438 H 980.981 0.421788 4.15062 0
M  V30 10439 H 979.611 -0.237776 3.21923 0
M  V30 10440 H 978.663 2.18004 3.11735 0
M  V30 10441 H 979.975 2.67601 4.20941 0
M  V30 10442 H 979.129 1.1057 5.96539 0
M  V30 10443 H 977.868 0.507618 4.85051 0
M  V30 10444 H 976.873 2.80912 4.72619 0
M  V30 10445 H 978.098 3.40534 5.87549 0
M  V30 10446 H 976.044 1.23423 6.44285 0
M  V30 10447 H 975.961 2.87613 6.99153 0
M  V30 10448 H 977.229 1.83981 7.57477 0
M  V30 10449 N 981.458 -1.16348 1.06306 0
M  V30 10450 C 982.388 -2.2291 0.695234 0
M  V30 10451 C 983.369 -1.67208 -0.312343 0
M  V30 10452 O 984.554 -1.93293 -0.187442 0
M  V30 10453 C 981.684 -3.47205 0.0810149 0
M  V30 10454 C 980.638 -4.15801 1.01458 0
M  V30 10455 C 979.964 -5.3405 0.263656 0
M  V30 10456 C 981.264 -4.66766 2.34365 0
M  V30 10457 H 982.958 -2.53934 1.58613 0
M  V30 10458 H 980.504 -1.22056 0.76409 0
M  V30 10459 H 982.457 -4.2098 -0.18818 0
M  V30 10460 H 981.181 -3.15482 -0.844897 0
M  V30 10461 H 979.84 -3.43954 1.26852 0
M  V30 10462 H 979.488 -4.9858 -0.665378 0
M  V30 10463 H 979.188 -5.80885 0.88582 0
M  V30 10464 H 980.712 -6.106 0.00200994 0
M  V30 10465 H 982.126 -5.3212 2.13356 0
M  V30 10466 H 980.523 -5.24223 2.9208 0
M  V30 10467 H 981.593 -3.82969 2.97426 0
M  V30 10468 N 982.937 -0.845659 -1.3299 0
M  V30 10469 C 983.87 -0.228695 -2.27051 0
M  V30 10470 C 984.848 0.62812 -1.49978 0
M  V30 10471 O 986.032 0.586897 -1.79131 0
M  V30 10472 C 983.159 0.678251 -3.31839 0
M  V30 10473 C 982.205 -0.103994 -4.26373 0
M  V30 10474 S 983.038 -1.46642 -5.1503 0
M  V30 10475 C 984.194 -0.564953 -6.23345 0
M  V30 10476 H 984.427 -1.02609 -2.79032 0
M  V30 10477 H 981.96 -0.642786 -1.40384 0
M  V30 10478 H 983.918 1.1959 -3.92694 0
M  V30 10479 H 982.579 1.44937 -2.78661 0
M  V30 10480 H 981.772 0.586406 -5.00577 0
M  V30 10481 H 981.374 -0.552927 -3.6989 0
M  V30 10482 H 983.666 0.234466 -6.77094 0
M  V30 10483 H 984.609 -1.27736 -6.96483 0
M  V30 10484 H 985.017 -0.143286 -5.64318 0
M  V30 10485 N 984.415 1.45619 -0.602734 0
M  V30 10486 C 985.643 2.06647 -0.102253 0
M  V30 10487 C 986.058 1.4482 1.21131 0
M  V30 10488 O 985.415 0.560621 1.73676 0
M  V30 10489 C 985.466 3.61467 0.0490113 0
M  V30 10490 O 985.187 4.20985 -1.21257 0
M  V30 10491 C 986.688 4.39469 0.581517 0
M  V30 10492 H 983.908 0.667685 -0.0666155 0
M  V30 10493 H 986.452 1.86939 -0.829091 0
M  V30 10494 H 984.607 3.80534 0.726153 0
M  V30 10495 H 985.021 5.14103 -1.03915 0
M  V30 10496 H 986.495 5.48318 0.636462 0
M  V30 10497 H 986.972 4.0891 1.60277 0
M  V30 10498 H 987.578 4.25256 -0.061419 0
M  V30 10499 N 985.893 0.34162 1.53853 0
M  V30 10500 C 986.84 -0.516058 2.24957 0
M  V30 10501 C 987.81 -1.09711 1.2471 0
M  V30 10502 O 988.995 -1.13409 1.53438 0
M  V30 10503 C 986.135 -1.66207 3.02439 0
M  V30 10504 C 985.248 -1.10851 4.17536 0
M  V30 10505 C 984.383 -2.22167 4.82509 0
M  V30 10506 C 983.422 -1.64152 5.89678 0
M  V30 10507 N 982.559 -2.69203 6.4844 0
M  V30 10508 H 987.399 0.0968275 2.97843 0
M  V30 10509 H 984.936 0.0595565 1.46979 0
M  V30 10510 H 986.894 -2.33672 3.4562 0
M  V30 10511 H 985.524 -2.24597 2.31853 0
M  V30 10512 H 984.576 -0.324853 3.7901 0
M  V30 10513 H 985.888 -0.644151 4.94623 0
M  V30 10514 H 985.042 -2.97501 5.28751 0
M  V30 10515 H 983.781 -2.71946 4.04842 0
M  V30 10516 H 982.786 -0.873228 5.42821 0
M  V30 10517 H 984.011 -1.15228 6.69253 0
M  V30 10518 H 981.957 -3.1824 5.73637 0
M  V30 10519 H 981.874 -2.27383 7.20994 0
M  V30 10520 H 983.142 -3.44312 6.99335 0
M  V30 10521 N 987.371 -1.57444 0.0701946 0
M  V30 10522 C 988.619 -1.93047 -0.598106 0
M  V30 10523 C 988.94 -0.950841 -1.70247 0
M  V30 10524 O 988.21 0.00127177 -1.959 0
M  V30 10525 H 986.79 -0.712648 -0.223924 0
M  V30 10526 H 989.452 -1.94481 0.127674 0
M  V30 10527 H 988.548 -2.94807 -1.02445 0
M  V30 10528 N 988.849 0.203349 -1.56283 0
M  V30 10529 C 990.265 0.55384 -1.49682 0
M  V30 10530 C 990.465 1.86261 -0.768701 0
M  V30 10531 O 989.521 2.50517 -0.315824 0
M  V30 10532 C 990.834 0.616216 -2.94318 0
M  V30 10533 C 992.382 0.705611 -3.04943 0
M  V30 10534 C 992.857 0.79917 -4.50974 0
M  V30 10535 N 994.348 0.862916 -4.55091 0
M  V30 10536 C 995.083 0.955334 -5.65386 0
M  V30 10537 N 994.579 1.01057 -6.8539 0
M  V30 10538 N 996.372 0.991884 -5.53279 0
M  V30 10539 H 988.523 -0.655244 -2.0204 0
M  V30 10540 H 990.786 -0.232344 -0.919087 0
M  V30 10541 H 990.492 -0.27619 -3.50614 0
M  V30 10542 H 990.366 1.47371 -3.4722 0
M  V30 10543 H 992.753 1.58845 -2.48701 0
M  V30 10544 H 992.834 -0.177921 -2.5518 0
M  V30 10545 H 992.478 -0.0792841 -5.07838 0
M  V30 10546 H 992.408 1.69838 -4.9846 0
M  V30 10547 H 994.899 0.829812 -3.68677 0
M  V30 10548 H 995.212 1.08137 -7.65197 0
M  V30 10549 H 993.557 0.979384 -6.88065 0
M  V30 10550 H 996.748 0.945514 -4.58451 0
M  V30 10551 H 996.921 1.06045 -6.39264 0
M  V30 10552 N 990.327 1.50405 0.470755 0
M  V30 10553 C 991.557 1.64928 1.24428 0
M  V30 10554 C 991.965 0.332139 1.86262 0
M  V30 10555 O 991.308 -0.695919 1.70008 0
M  V30 10556 C 991.37 2.6829 2.39293 0
M  V30 10557 C 991.034 4.11835 1.98093 0
M  V30 10558 C 992.031 4.97693 1.50326 0
M  V30 10559 C 989.716 4.57753 2.06803 0
M  V30 10560 C 991.71 6.27516 1.11813 0
M  V30 10561 C 989.397 5.87582 1.67902 0
M  V30 10562 C 990.395 6.72289 1.20485 0
M  V30 10563 O 990.083 7.99694 0.821219 0
M  V30 10564 H 989.815 0.557418 0.382442 0
M  V30 10565 H 992.369 1.97382 0.568292 0
M  V30 10566 H 990.599 2.31079 3.10063 0
M  V30 10567 H 992.288 2.7203 3.01255 0
M  V30 10568 H 993.054 4.63434 1.43018 0
M  V30 10569 H 988.933 3.91966 2.42659 0
M  V30 10570 H 992.477 6.93586 0.747317 0
M  V30 10571 H 988.374 6.21362 1.74869 0
M  V30 10572 H 989.142 8.12968 0.950038 0
M  V30 10573 N 991.805 -0.723954 1.39988 0
M  V30 10574 C 993.03 -1.5182 1.41299 0
M  V30 10575 C 993.455 -1.88096 0.0122636 0
M  V30 10576 O 992.813 -1.52687 -0.977559 0
M  V30 10577 C 992.861 -2.77532 2.30235 0
M  V30 10578 O 991.965 -3.73903 1.73984 0
M  V30 10579 H 991.306 -0.458058 0.480707 0
M  V30 10580 H 993.836 -0.892291 1.84118 0
M  V30 10581 H 993.846 -3.2615 2.45132 0
M  V30 10582 H 992.521 -2.50462 3.32026 0
M  V30 10583 H 991.098 -3.32715 1.68389 0
M  V30 10584 N 993.283 -1.25346 -0.955304 0
M  V30 10585 C 994.213 -1.08152 -2.06943 0
M  V30 10586 C 995.194 0.00922598 -1.70097 0
M  V30 10587 O 996.379 -0.160181 -1.93538 0
M  V30 10588 C 993.509 -0.698745 -3.40198 0
M  V30 10589 C 992.463 -1.73965 -3.9105 0
M  V30 10590 C 991.789 -1.21158 -5.20792 0
M  V30 10591 C 993.089 -3.13829 -4.17503 0
M  V30 10592 H 994.783 -2.01345 -2.21586 0
M  V30 10593 H 992.329 -0.969459 -1.06478 0
M  V30 10594 H 994.282 -0.565394 -4.1759 0
M  V30 10595 H 993.006 0.268892 -3.25491 0
M  V30 10596 H 991.665 -1.86143 -3.15827 0
M  V30 10597 H 991.313 -0.234193 -5.02455 0
M  V30 10598 H 991.013 -1.90728 -5.55785 0
M  V30 10599 H 992.537 -1.09061 -6.00781 0
M  V30 10600 H 993.951 -3.04809 -4.85556 0
M  V30 10601 H 992.348 -3.80863 -4.63749 0
M  V30 10602 H 993.418 -3.6094 -3.23806 0
M  V30 10603 N 994.761 1.15782 -1.06922 0
M  V30 10604 C 996.038 1.8253 -0.703 0
M  V30 10605 C 996.418 1.94733 0.814994 0
M  V30 10606 O 995.766 1.49537 1.72774 0
M  V30 10607 C 995.976 3.19145 -1.41234 0
M  V30 10608 C 997.324 3.94839 -1.56164 0
M  V30 10609 O 998.348 3.28685 -1.37277 0
M  V30 10610 O 997.207 5.13436 -1.87205 0
M  V30 10611 H 994.301 0.788425 -0.24963 0
M  V30 10612 H 996.847 1.22931 -1.16988 0
M  V30 10613 H 995.619 3.05336 -2.44715 0
M  V30 10614 H 995.242 3.86427 -0.935959 0
M  V30 10615 N 996.239 0.8527 1.3254 0
M  V30 10616 C 997.485 0.455798 1.97612 0
M  V30 10617 C 997.818 -0.985616 1.6733 0
M  V30 10618 O 997.093 -1.69129 0.960493 0
M  V30 10619 C 997.376 0.69312 3.53366 0
M  V30 10620 C 997.229 2.18281 3.93285 0
M  V30 10621 C 998.548 0.148236 4.3985 0
M  V30 10622 H 995.667 0.167078 0.717812 0
M  V30 10623 H 998.309 1.07076 1.56954 0
M  V30 10624 H 996.459 0.169677 3.88129 0
M  V30 10625 H 998.131 2.77218 3.68711 0
M  V30 10626 H 996.374 2.66206 3.42515 0
M  V30 10627 H 997.045 2.29957 5.01821 0
M  V30 10628 H 999.521 0.595834 4.11812 0
M  V30 10629 H 998.397 0.343873 5.47822 0
M  V30 10630 H 998.658 -0.948872 4.31797 0
M  V30 10631 N 997.718 -1.45297 0.610449 0
M  V30 10632 C 998.964 -2.03073 0.115358 0
M  V30 10633 C 999.319 -1.47 -1.24132 0
M  V30 10634 O 998.612 -0.636326 -1.80725 0
M  V30 10635 C 998.806 -3.57394 0.0205329 0
M  V30 10636 C 998.635 -4.28436 1.36647 0
M  V30 10637 C 997.405 -4.66245 1.94791 0
M  V30 10638 C 999.603 -4.60211 2.29587 0
M  V30 10639 N 997.585 -5.22159 3.22835 0
M  V30 10640 C 998.956 -5.16989 3.42232 0
M  V30 10641 C 1001.01 -4.42152 2.28923 0
M  V30 10642 C 999.714 -5.5761 4.54382 0
M  V30 10643 C 1001.74 -4.83808 3.40123 0
M  V30 10644 C 1001.1 -5.40681 4.5149 0
M  V30 10645 H 997.201 -0.777296 0.0856485 0
M  V30 10646 H 999.785 -1.77077 0.809426 0
M  V30 10647 H 997.956 -3.83045 -0.642763 0
M  V30 10648 H 999.688 -4.01826 -0.481481 0
M  V30 10649 H 996.443 -4.49893 1.47965 0
M  V30 10650 H 996.867 -5.54613 3.88245 0
M  V30 10651 H 1001.51 -3.97493 1.44081 0
M  V30 10652 H 999.227 -6.01234 5.39947 0
M  V30 10653 H 1002.81 -4.71565 3.40761 0
M  V30 10654 H 1001.69 -5.72321 5.36114 0
M  V30 10655 N 999.196 -0.349774 -1.5367 0
M  V30 10656 C 1000.42 0.248692 -2.05904 0
M  V30 10657 C 1000.85 1.42942 -1.22267 0
M  V30 10658 O 1000.2 1.79732 -0.237899 0
M  V30 10659 C 1000.25 0.635639 -3.54953 0
M  V30 10660 O 999.356 1.7349 -3.74132 0
M  V30 10661 H 998.697 0.0399477 -0.662797 0
M  V30 10662 H 1001.23 -0.505795 -1.9825 0
M  V30 10663 H 1001.24 0.911064 -3.97698 0
M  V30 10664 H 999.912 -0.227805 -4.15276 0
M  V30 10665 H 998.489 1.45626 -3.43289 0
M  V30 10666 O 1000.71 1.60018 -0.21832 0
M  V30 10667 H 1001.4 1.90272 0.36278 0
M  V30 END ATOM
M  V30 BEGIN BOND
M  V30 END BOND
M  V30 END CTAB
M  END
$$$$
