drugbank_target|P11546 6-phospho-beta-galactosidase (DB02312)
 OpenBabel12092119543D

  0  0  0     0  0            999 V3000
M  V30 BEGIN CTAB
M  V30 COUNTS 7431 7551 0 0 0
M  V30 BEGIN ATOM
M  V30 1 H -0.908 1.98254 -0.117106 0
M  V30 2 N 0 1.576 0 0
M  V30 3 C 0.933 2.03868 1.02534 0
M  V30 4 C 1.911 0.928543 1.3348 0
M  V30 5 O 3.095 1.19667 1.45644 0
M  V30 6 C 0.222 2.43627 2.35294 0
M  V30 7 C -0.732 3.65373 2.2001 0
M  V30 8 S 0.101 5.13292 1.52614 0
M  V30 9 C 1.257 5.56322 2.86805 0
M  V30 10 H 1.49 2.90518 0.631377 0
M  V30 11 H -0.977 1.52953 0.210867 0
M  V30 12 H 0.981 2.67203 3.11629 0
M  V30 13 H -0.358 1.57376 2.7183 0
M  V30 14 H -1.165 3.90944 3.18086 0
M  V30 15 H -1.563 3.418 1.51819 0
M  V30 16 H 0.729 5.58782 3.83104 0
M  V30 17 H 1.672 6.56266 2.65933 0
M  V30 18 H 2.08 4.83886 2.90714 0
M  V30 19 N 1.4781 -0.272755 1.55222 0
M  V30 20 C 2.7061 -1.02255 1.79865 0
M  V30 21 C 3.1211 -1.79924 0.572088 0
M  V30 22 O 2.4781 -1.76638 -0.458842 0
M  V30 23 C 2.5291 -1.98094 3.02392 0
M  V30 24 O 2.2501 -1.23572 4.20311 0
M  V30 25 C 3.7511 -2.84884 3.39641 0
M  V30 26 H 0.9711 -0.302057 0.599168 0
M  V30 27 H 3.5151 -0.303465 2.02236 0
M  V30 28 H 1.6701 -2.65465 2.82147 0
M  V30 29 H 2.0841 -1.88172 4.89583 0
M  V30 30 H 3.5581 -3.47927 4.28545 0
M  V30 31 H 4.0351 -3.54665 2.59055 0
M  V30 32 H 4.6411 -2.23003 3.62146 0
M  V30 33 N 2.9562 -1.48159 -0.537278 0
M  V30 34 C 3.9032 -1.62138 -1.64256 0
M  V30 35 C 4.8732 -0.463668 -1.59497 0
M  V30 36 O 6.0582 -0.686241 -1.78032 0
M  V30 37 C 3.1982 -1.66028 -3.02537 0
M  V30 38 C 2.3112 -2.92855 -3.17585 0
M  V30 39 C 1.4462 -2.87952 -4.46382 0
M  V30 40 C 0.4852 -4.09516 -4.54932 0
M  V30 41 N -0.3778 -4.02733 -5.75109 0
M  V30 42 H 4.4622 -2.56529 -1.51647 0
M  V30 43 H 1.9992 -1.27224 -0.738414 0
M  V30 44 H 3.9572 -1.66265 -3.82638 0
M  V30 45 H 2.5872 -0.751331 -3.13934 0
M  V30 46 H 1.6392 -3.02395 -2.30784 0
M  V30 47 H 2.9512 -3.82822 -3.19764 0
M  V30 48 H 2.1052 -2.8655 -5.34765 0
M  V30 49 H 0.8442 -1.95702 -4.46712 0
M  V30 50 H -0.1508 -4.11201 -3.64957 0
M  V30 51 H 1.0742 -5.02917 -4.56346 0
M  V30 52 H -0.9798 -3.13299 -5.76351 0
M  V30 53 H -1.0628 -4.86397 -5.78752 0
M  V30 54 H 0.2052 -4.05379 -6.65799 0
M  V30 55 N 4.4343 0.785586 -1.36625 0
M  V30 56 C 5.6623 1.57448 -1.3423 0
M  V30 57 C 6.0773 1.88649 0.0755653 0
M  V30 58 O 5.4343 1.50414 1.03354 0
M  V30 59 C 5.4853 2.89316 -2.16745 0
M  V30 60 O 5.2063 2.59459 -3.53005 0
M  V30 61 C 6.7073 3.83606 -2.22174 0
M  V30 62 H 3.9273 0.488226 -0.4603 0
M  V30 63 H 6.4713 0.974733 -1.79775 0
M  V30 64 H 4.6263 3.4575 -1.74745 0
M  V30 65 H 5.0403 3.43804 -3.96105 0
M  V30 66 H 6.5143 4.73181 -2.8426 0
M  V30 67 H 6.9913 4.21734 -1.22627 0
M  V30 68 H 7.5973 3.33104 -2.64427 0
M  V30 69 N 5.9124 1.20967 1.01018 0
M  V30 70 C 6.8424 0.988272 2.11555 0
M  V30 71 C 7.8234 -0.0849778 1.69888 0
M  V30 72 O 9.0084 0.0738202 1.9406 0
M  V30 73 C 6.1384 0.546528 3.42973 0
M  V30 74 C 5.0924 1.56375 3.9841 0
M  V30 75 C 4.4184 0.97842 5.25672 0
M  V30 76 C 5.7184 2.94922 4.31066 0
M  V30 77 H 7.4124 1.91276 2.30334 0
M  V30 78 H 4.9584 0.921073 1.1069 0
M  V30 79 H 6.9114 0.378839 4.19694 0
M  V30 80 H 5.6354 -0.413598 3.23971 0
M  V30 81 H 4.2944 1.71891 3.23804 0
M  V30 82 H 3.9424 0.0101688 5.02999 0
M  V30 83 H 3.6424 1.65784 5.63728 0
M  V30 84 H 5.1664 0.821939 6.05043 0
M  V30 85 H 6.5804 2.8288 4.9865 0
M  V30 86 H 4.9774 3.5983 4.80253 0
M  V30 87 H 6.0474 3.4616 3.39561 0
M  V30 88 N 7.3905 -1.2043 1.01659 0
M  V30 89 C 8.8015 -1.71517 0.737482 0
M  V30 90 C 9.1525 -1.81547 -0.743973 0
M  V30 91 O 8.2775 -1.47803 -1.58061 0
M  V30 92 C 8.8725 -3.11515 1.33206 0
M  V30 93 C 7.4315 -3.59912 1.10183 0
M  V30 94 C 6.5785 -2.37116 1.43776 0
M  V30 95 H 9.5295 -1.05444 1.18606 0
M  V30 96 H 9.5505 -3.73575 0.722636 0
M  V30 97 H 9.0625 -3.04182 2.41028 0
M  V30 98 H 7.1635 -3.72577 0.0412756 0
M  V30 99 H 7.2765 -4.44731 1.78188 0
M  V30 100 H 5.6405 -2.39857 0.856778 0
M  V30 101 H 6.4235 -2.32424 2.52654 0
M  V30 102 N 8.8686 -0.792821 -1.36206 0
M  V30 103 C 9.8156 -0.191653 -2.30003 0
M  V30 104 C 10.7856 0.666453 -1.52143 0
M  V30 105 O 11.9706 0.61442 -1.80636 0
M  V30 106 C 9.1106 0.664848 -3.38635 0
M  V30 107 C 8.2236 -0.212175 -4.31479 0
M  V30 108 C 7.3586 0.651022 -5.27196 0
M  V30 109 C 6.3976 -0.227247 -6.11678 0
M  V30 110 N 5.5346 0.595127 -6.99573 0
M  V30 111 H 10.3746 -0.996978 -2.80828 0
M  V30 112 H 7.9116 -0.503206 -1.38225 0
M  V30 113 H 9.8696 1.17645 -4.00269 0
M  V30 114 H 8.4996 1.43557 -2.89122 0
M  V30 115 H 7.5516 -0.841777 -3.70969 0
M  V30 116 H 8.8636 -0.888751 -4.90818 0
M  V30 117 H 8.0176 1.2283 -5.94136 0
M  V30 118 H 6.7566 1.36121 -4.68319 0
M  V30 119 H 5.7616 -0.816904 -5.43697 0
M  V30 120 H 6.9866 -0.93509 -6.72631 0
M  V30 121 H 4.9326 1.28955 -6.432 0
M  V30 122 H 4.8496 -0.0236952 -7.55996 0
M  V30 123 H 6.1176 1.15613 -7.70879 0
M  V30 124 N 10.3467 1.47872 -0.545128 0
M  V30 125 C 11.6237 1.9554 0.0485222 0
M  V30 126 C 12.0037 1.4876 1.49779 0
M  V30 127 O 11.3517 0.720925 2.16829 0
M  V30 128 C 11.5617 3.48898 -0.084417 0
M  V30 129 C 12.9097 4.24547 0.0671239 0
M  V30 130 O 13.9337 3.56198 -0.0113649 0
M  V30 131 O 12.7927 5.45999 0.233882 0
M  V30 132 H 9.8867 0.823957 0.0708773 0
M  V30 133 H 12.4327 1.58327 -0.610798 0
M  V30 134 H 11.2047 3.75714 -1.09337 0
M  V30 135 H 10.8277 3.92845 0.613066 0
M  V30 136 N 11.8248 0.280983 1.55075 0
M  V30 137 C 13.0718 -0.334115 1.99725 0
M  V30 138 C 13.3998 -1.5542 1.1694 0
M  V30 139 O 12.6548 -1.94361 0.228531 0
M  V30 140 C 12.9538 -0.754656 3.49342 0
M  V30 141 C 12.6198 0.361445 4.49449 0
M  V30 142 C 11.2818 0.667893 4.76542 0
M  V30 143 C 13.6338 1.11322 5.09173 0
M  V30 144 C 10.9618 1.7296 5.60626 0
M  V30 145 C 13.3138 2.1647 5.9441 0
M  V30 146 C 11.9778 2.47742 6.19822 0
M  V30 147 H 11.2478 -0.122261 0.730844 0
M  V30 148 H 13.8948 0.395917 1.87363 0
M  V30 149 H 12.1998 -1.56446 3.5921 0
M  V30 150 H 13.8968 -1.24142 3.813 0
M  V30 151 H 10.4868 0.112481 4.28452 0
M  V30 152 H 14.6708 0.88973 4.8826 0
M  V30 153 H 9.9268 1.97684 5.78559 0
M  V30 154 H 14.1008 2.75193 6.3972 0
M  V30 155 H 11.7278 3.30145 6.84769 0
M  V30 156 N 13.3029 -1.57598 0.00835791 0
M  V30 157 C 14.5519 -1.90107 -0.673968 0
M  V30 158 C 14.8649 -0.884275 -1.7447 0
M  V30 159 O 16.0709 -1.09987 -2.48224 0
M  V30 160 C 14.5269 -3.37497 -1.24995 0
M  V30 161 C 14.1349 -4.47491 -0.2136 0
M  V30 162 C 15.8789 -3.79104 -1.90999 0
M  V30 163 C 13.7859 -5.85963 -0.80005 0
M  V30 164 H 12.7159 -0.709393 -0.255495 0
M  V30 165 H 15.3669 -1.83365 0.0702693 0
M  V30 166 H 13.7489 -3.39102 -2.04513 0
M  V30 167 H 14.9229 -4.57414 0.557596 0
M  V30 168 H 13.2379 -4.14956 0.346474 0
M  V30 169 H 15.8349 -4.79901 -2.35795 0
M  V30 170 H 16.1779 -3.1306 -2.74407 0
M  V30 171 H 16.7109 -3.79833 -1.18203 0
M  V30 172 H 13.4499 -6.555 -0.00456708 0
M  V30 173 H 12.9699 -5.79687 -1.54021 0
M  V30 174 H 14.6489 -6.33884 -1.29615 0
M  V30 175 N 14.781 0.264519 -1.55364 0
M  V30 176 C 16.028 0.994986 -1.7637 0
M  V30 177 C 16.356 1.85976 -0.5695 0
M  V30 178 O 15.611 1.90509 0.44776 0
M  V30 179 C 15.91 1.9004 -3.02687 0
M  V30 180 C 15.576 1.19243 -4.34847 0
M  V30 181 C 14.238 0.996709 -4.70764 0
M  V30 182 C 16.59 0.689296 -5.16622 0
M  V30 183 C 13.918 0.285261 -5.86006 0
M  V30 184 C 16.27 -0.00860079 -6.32599 0
M  V30 185 C 14.934 -0.215963 -6.67151 0
M  V30 186 H 14.204 0.364091 -0.645383 0
M  V30 187 H 16.851 0.266543 -1.89636 0
M  V30 188 H 15.156 2.69533 -2.84357 0
M  V30 189 H 16.853 2.46695 -3.16137 0
M  V30 190 H 13.443 1.3549 -4.06621 0
M  V30 191 H 17.627 0.828108 -4.89342 0
M  V30 192 H 12.883 0.113961 -6.11294 0
M  V30 193 H 17.057 -0.406186 -6.95214 0
M  V30 194 H 14.684 -0.769217 -7.56298 0
M  V30 195 N 16.2591 1.48442 0.529413 0
M  V30 196 C 17.5071 1.56179 1.28267 0
M  V30 197 C 17.8281 0.237721 1.93546 0
M  V30 198 O 17.0981 -0.740779 1.81354 0
M  V30 199 H 15.6781 0.575367 0.476405 0
M  V30 200 H 18.3401 1.84909 0.61602 0
M  V30 201 H 17.4361 2.34312 2.06165 0
M  V30 202 N 17.7372 -0.778329 1.37039 0
M  V30 203 C 18.9852 -1.53361 1.31623 0
M  V30 204 C 19.3062 -1.94739 -0.100831 0
M  V30 205 O 18.5762 -1.65797 -1.04347 0
M  V30 206 H 17.1562 -0.568794 0.484234 0
M  V30 207 H 19.8182 -0.926742 1.71457 0
M  V30 208 H 18.9142 -2.43606 1.95096 0
M  V30 209 N 19.2153 -1.21501 -1.00376 0
M  V30 210 C 20.1783 -0.976927 -2.07337 0
M  V30 211 C 21.1783 0.0525322 -1.60714 0
M  V30 212 O 22.3683 -0.184869 -1.73216 0
M  V30 213 C 19.5003 -0.473423 -3.37597 0
M  V30 214 H 20.6933 -1.92587 -2.29892 0
M  V30 215 H 18.2463 -1.03217 -1.17371 0
M  V30 216 H 18.9813 0.480379 -3.20722 0
M  V30 217 H 18.7663 -1.216 -3.72768 0
M  V30 218 H 20.2563 -0.32675 -4.1632 0
M  V30 219 N 20.6934 1.19889 -1.02296 0
M  V30 220 C 21.9214 1.9339 -0.735399 0
M  V30 221 C 22.3364 1.75148 0.704887 0
M  V30 222 O 21.6934 1.06954 1.47875 0
M  V30 223 C 21.7444 3.45313 -1.06962 0
M  V30 224 O 21.4654 3.62964 -2.45334 0
M  V30 225 C 22.9664 4.35948 -0.804021 0
M  V30 226 H 20.1864 0.61448 -0.269546 0
M  V30 227 H 22.7304 1.522 -1.36585 0
M  V30 228 H 20.8854 3.84359 -0.484455 0
M  V30 229 H 21.2994 4.56886 -2.57595 0
M  V30 230 H 22.7734 5.41174 -1.0879 0
M  V30 231 H 23.2504 4.3842 0.261691 0
M  V30 232 H 23.8564 4.02574 -1.37164 0
M  V30 233 N 22.1715 0.800033 1.35784 0
M  V30 234 C 23.1345 0.211565 2.28221 0
M  V30 235 C 24.1345 -0.59728 1.49296 0
M  V30 236 O 25.3245 -0.416721 1.69142 0
M  V30 237 C 22.4565 -0.705846 3.33513 0
M  V30 238 H 23.6495 1.02677 2.81776 0
M  V30 239 H 21.2025 0.570211 1.45528 0
M  V30 240 H 21.9375 -1.54498 2.85133 0
M  V30 241 H 21.7225 -0.127655 3.91892 0
M  V30 242 H 23.2125 -1.11211 4.02519 0
M  V30 243 N 23.6496 -1.47581 0.552962 0
M  V30 244 C 24.6126 -2.28439 -0.186605 0
M  V30 245 C 25.6126 -1.36706 -0.84665 0
M  V30 246 O 26.8026 -1.59378 -0.703164 0
M  V30 247 C 23.9346 -3.16264 -1.2724 0
M  V30 248 H 25.1276 -2.95294 0.523609 0
M  V30 249 H 22.6806 -1.532 0.309745 0
M  V30 250 H 23.4156 -2.54091 -2.01514 0
M  V30 251 H 23.2006 -3.83769 -0.803968 0
M  V30 252 H 24.6906 -3.77198 -1.79196 0
M  V30 253 N 25.1277 -0.289203 -1.54924 0
M  V30 254 C 26.3577 0.325989 -2.04012 0
M  V30 255 C 26.7657 1.48961 -1.1665 0
M  V30 256 O 26.1087 1.82794 -0.1822 0
M  V30 257 C 26.1707 0.856112 -3.49158 0
M  V30 258 C 25.8347 -0.180697 -4.56643 0
M  V30 259 C 26.8317 -1.0051 -5.10092 0
M  V30 260 C 24.5167 -0.318998 -5.01286 0
M  V30 261 C 26.5107 -1.95385 -6.06715 0
M  V30 262 C 24.1977 -1.27121 -5.97732 0
M  V30 263 C 25.1957 -2.08713 -6.50329 0
M  V30 264 O 24.8837 -3.02322 -7.44887 0
M  V30 265 H 24.6157 0.0765276 -0.671654 0
M  V30 266 H 27.1697 -0.423254 -2.00992 0
M  V30 267 H 25.3997 1.65567 -3.49463 0
M  V30 268 H 27.0887 1.38591 -3.81507 0
M  V30 269 H 27.8547 -0.90906 -4.76404 0
M  V30 270 H 23.7337 0.306108 -4.59983 0
M  V30 271 H 27.2777 -2.59111 -6.47694 0
M  V30 272 H 23.1747 -1.36801 -6.30837 0
M  V30 273 H 23.9427 -2.97165 -7.6265 0
M  V30 274 N 26.6058 1.57591 -0.0167156 0
M  V30 275 C 27.5378 2.06343 0.997753 0
M  V30 276 C 28.5508 0.984469 1.29661 0
M  V30 277 O 29.7398 1.26093 1.26344 0
M  V30 278 C 26.8398 2.46255 2.32834 0
M  V30 279 C 26.0128 3.77083 2.21646 0
M  V30 280 C 25.0718 4.0368 3.37534 0
M  V30 281 O 24.0978 4.7411 3.14973 0
M  V30 282 N 25.2998 3.52881 4.60929 0
M  V30 283 H 28.0648 2.93997 0.581875 0
M  V30 284 H 25.6258 1.61002 0.170316 0
M  V30 285 H 27.6178 2.61149 3.09166 0
M  V30 286 H 26.1878 1.64032 2.66106 0
M  V30 287 H 25.4078 3.72106 1.30119 0
M  V30 288 H 26.6958 4.62822 2.11361 0
M  V30 289 H 26.0938 2.95878 4.82154 0
M  V30 290 H 24.6508 3.73076 5.34469 0
M  V30 291 N 28.0839 -0.256276 1.55502 0
M  V30 292 C 29.0469 -1.30047 1.88734 0
M  V30 293 C 30.0469 -1.4154 0.763086 0
M  V30 294 O 31.2369 -1.40403 1.03115 0
M  V30 295 C 28.3689 -2.67953 2.10747 0
M  V30 296 H 29.5619 -1.01802 2.82093 0
M  V30 297 H 27.1149 -0.495134 1.4825 0
M  V30 298 H 27.8499 -3.01351 1.19825 0
M  V30 299 H 27.6349 -2.60993 2.92617 0
M  V30 300 H 29.1249 -3.43368 2.37673 0
M  V30 301 N 29.562 -1.4872 -0.521534 0
M  V30 302 C 30.472 -1.66569 -1.65203 0
M  V30 303 C 31.488 -0.548197 -1.65139 0
M  V30 304 O 32.664 -0.820339 -1.83936 0
M  V30 305 C 29.729 -1.70917 -3.01642 0
M  V30 306 C 28.79 -2.94356 -3.12495 0
M  V30 307 C 28.023 -2.98487 -4.42426 0
M  V30 308 O 28.246 -2.10786 -5.30024 0
M  V30 309 O 27.18 -3.90746 -4.57822 0
M  V30 310 H 31.006 -2.62298 -1.5308 0
M  V30 311 H 28.591 -1.3222 -0.695565 0
M  V30 312 H 30.473 -1.7625 -3.82771 0
M  V30 313 H 29.148 -0.783633 -3.14071 0
M  V30 314 H 28.055 -2.94552 -2.3063 0
M  V30 315 H 29.388 -3.86322 -3.04986 0
M  V30 316 N 31.0401 0.771051 -1.3745 0
M  V30 317 C 32.2881 1.52661 -1.32435 0
M  V30 318 C 32.6091 1.9479 0.0905024 0
M  V30 319 O 31.8791 1.66348 1.03466 0
M  V30 320 H 30.4591 0.566218 -0.487244 0
M  V30 321 H 33.1211 0.917636 -1.71946 0
M  V30 322 H 32.2171 2.42568 -1.96385 0
M  V30 323 N 32.5182 1.22032 0.997298 0
M  V30 324 C 33.4812 0.987909 2.06816 0
M  V30 325 C 34.4812 -0.0440084 1.6074 0
M  V30 326 O 35.6712 0.194053 1.73116 0
M  V30 327 C 32.8032 0.49132 3.37341 0
M  V30 328 H 33.9962 1.93803 2.28868 0
M  V30 329 H 31.5492 1.03838 1.16822 0
M  V30 330 H 32.2842 -0.463364 3.20973 0
M  V30 331 H 32.0692 1.23575 3.72118 0
M  V30 332 H 33.5592 0.348824 4.16141 0
M  V30 333 N 33.9963 -1.19345 1.0293 0
M  V30 334 C 35.2243 -1.92997 0.745644 0
M  V30 335 C 35.6393 -1.75519 -0.695589 0
M  V30 336 O 34.9963 -1.07737 -1.47306 0
M  V30 337 C 35.0473 -3.44741 1.08792 0
M  V30 338 O 34.7683 -3.61658 2.47256 0
M  V30 339 C 36.2693 -4.35515 0.827129 0
M  V30 340 H 33.4893 -0.613042 0.272801 0
M  V30 341 H 36.0333 -1.51473 1.3739 0
M  V30 342 H 34.1883 -3.84097 0.504832 0
M  V30 343 H 34.6023 -4.55514 2.60015 0
M  V30 344 H 36.0763 -5.40589 1.11658 0
M  V30 345 H 36.5533 -4.38552 -0.238436 0
M  V30 346 H 37.1593 -4.01841 1.39297 0
M  V30 347 N 35.4744 -0.807222 -1.35358 0
M  V30 348 C 36.4244 -0.190706 -2.27201 0
M  V30 349 C 37.4084 0.635838 -1.47804 0
M  V30 350 O 38.6004 0.492991 -1.69996 0
M  V30 351 C 35.7294 0.659337 -3.36909 0
M  V30 352 C 34.8154 -0.176971 -4.23731 0
M  V30 353 N 35.2064 -1.24029 -4.90357 0
M  V30 354 C 33.5044 0.0412953 -4.45981 0
M  V30 355 C 34.2054 -1.75092 -5.54723 0
M  V30 356 N 33.1814 -1.05727 -5.33219 0
M  V30 357 H 36.9834 -1.0043 -2.76208 0
M  V30 358 H 34.4974 -0.648445 -1.48892 0
M  V30 359 H 36.4944 1.11706 -4.01656 0
M  V30 360 H 35.1544 1.47127 -2.89454 0
M  V30 361 H 36.1654 -1.62295 -4.91814 0
M  V30 362 H 32.8424 0.82232 -4.09322 0
M  V30 363 H 34.2324 -2.63963 -6.17878 0
M  V30 364 N 36.9525 1.47285 -0.560781 0
M  V30 365 C 38.1805 2.06855 -0.0430262 0
M  V30 366 C 38.5955 1.41291 1.25229 0
M  V30 367 O 37.9525 0.510648 1.7521 0
M  V30 368 C 38.0035 3.61178 0.152518 0
M  V30 369 O 37.7245 4.24285 -1.0915 0
M  V30 370 C 39.2255 4.37624 0.707145 0
M  V30 371 H 36.4455 0.669319 -0.0474652 0
M  V30 372 H 38.9895 1.89237 -0.77521 0
M  V30 373 H 37.1445 3.78298 0.834843 0
M  V30 374 H 37.5585 5.16868 -0.891482 0
M  V30 375 H 39.0325 5.46271 0.793244 0
M  V30 376 H 39.5095 4.04152 1.71923 0
M  V30 377 H 40.1155 4.25257 0.0604027 0
M  V30 378 N 38.4306 0.297415 1.54768 0
M  V30 379 C 39.7076 -0.365847 1.92148 0
M  V30 380 C 40.0876 -1.71975 1.22424 0
M  V30 381 O 39.4356 -2.25666 0.358739 0
M  V30 382 C 39.6456 -0.484056 3.45627 0
M  V30 383 C 40.9936 -0.756594 4.17805 0
M  V30 384 O 42.0176 -0.568007 3.51642 0
M  V30 385 O 40.8766 -1.11863 5.34929 0
M  V30 386 H 37.9706 -0.203919 0.801465 0
M  V30 387 H 40.5166 0.34521 1.66152 0
M  V30 388 H 39.2886 0.467865 3.88493 0
M  V30 389 H 38.9116 -1.24372 3.77647 0
M  V30 390 N 39.9087 -1.5758 0.0250728 0
M  V30 391 C 41.1567 -1.91255 -0.653151 0
M  V30 392 C 41.4777 -0.901691 -1.729 0
M  V30 393 O 40.7477 0.0573785 -1.95816 0
M  V30 394 H 39.3277 -0.705942 -0.244243 0
M  V30 395 H 41.9897 -1.94767 0.0719209 0
M  V30 396 H 41.0857 -2.91752 -1.10847 0
M  V30 397 N 41.3868 0.248026 -1.55636 0
M  V30 398 C 42.3338 1.30707 -1.90222 0
M  V30 399 C 43.3038 1.47881 -0.756332 0
M  V30 400 O 44.4888 1.61883 -1.00988 0
M  V30 401 C 41.6288 2.65769 -2.20138 0
M  V30 402 C 40.7418 2.56612 -3.47526 0
M  V30 403 C 39.8768 3.8402 -3.67017 0
M  V30 404 C 38.9158 3.69476 -4.8801 0
M  V30 405 N 38.0528 4.88774 -5.04029 0
M  V30 406 H 42.8928 1.00512 -2.80538 0
M  V30 407 H 40.4298 0.485055 -1.38873 0
M  V30 408 H 42.3878 3.44386 -2.35487 0
M  V30 409 H 41.0178 2.94115 -1.33027 0
M  V30 410 H 40.0698 1.69571 -3.40514 0
M  V30 411 H 41.3818 2.41774 -4.36287 0
M  V30 412 H 40.5358 4.7108 -3.8232 0
M  V30 413 H 39.2748 4.01754 -2.76487 0
M  V30 414 H 38.2798 2.80799 -4.72686 0
M  V30 415 H 39.5048 3.53238 -5.8 0
M  V30 416 H 37.4508 5.0687 -4.16435 0
M  V30 417 H 37.3678 4.76562 -5.86877 0
M  V30 418 H 38.6358 5.77335 -5.23741 0
M  V30 419 N 42.8649 1.48995 0.513639 0
M  V30 420 C 44.1129 1.57531 1.26604 0
M  V30 421 C 44.4339 0.258236 1.93283 0
M  V30 422 O 43.7039 -0.721502 1.8213 0
M  V30 423 H 42.2839 0.580387 0.470276 0
M  V30 424 H 44.9459 1.85552 0.596373 0
M  V30 425 H 44.0419 2.36486 2.03669 0
M  V30 426 N 44.343 -0.763751 1.37857 0
M  V30 427 C 45.754 -1.3405 1.29952 0
M  V30 428 C 46.105 -1.96138 -0.0492898 0
M  V30 429 O 45.23 -1.94372 -0.951239 0
M  V30 430 C 45.825 -2.43729 2.35333 0
M  V30 431 C 44.384 -2.97151 2.31037 0
M  V30 432 C 43.531 -1.70438 2.18738 0
M  V30 433 H 46.482 -0.563396 1.48363 0
M  V30 434 H 46.503 -3.23412 2.00462 0
M  V30 435 H 46.015 -1.9851 3.33489 0
M  V30 436 H 44.116 -3.46724 1.3643 0
M  V30 437 H 44.229 -3.52221 3.24772 0
M  V30 438 H 42.593 -1.93673 1.65418 0
M  V30 439 H 43.376 -1.27312 3.18821 0
M  V30 440 N 45.8211 -1.22559 -0.990812 0
M  V30 441 C 47.0671 -1.05297 -1.73322 0
M  V30 442 C 47.4001 0.410655 -1.89808 0
M  V30 443 O 46.6751 1.30439 -1.44277 0
M  V30 444 C 46.9581 -1.76713 -3.13759 0
M  V30 445 C 46.8111 -3.30684 -3.04907 0
M  V30 446 C 48.1301 -1.52121 -4.12974 0
M  V30 447 H 45.2491 -0.38392 -0.629106 0
M  V30 448 H 47.8911 -1.50926 -1.15418 0
M  V30 449 H 46.0411 -1.37924 -3.63193 0
M  V30 450 H 47.7131 -3.7893 -2.63077 0
M  V30 451 H 45.9561 -3.60253 -2.41661 0
M  V30 452 H 46.6271 -3.75833 -4.04294 0
M  V30 453 H 49.1031 -1.85819 -3.72304 0
M  V30 454 H 47.9791 -2.04582 -5.0935 0
M  V30 455 H 48.2401 -0.454257 -4.3976 0
M  V30 456 N 47.2992 1.18797 -1.03562 0
M  V30 457 C 48.2622 2.20464 -0.626769 0
M  V30 458 C 49.2622 1.57721 0.313173 0
M  V30 459 O 50.4522 1.73917 0.0992615 0
M  V30 460 C 47.5842 3.40802 0.0818498 0
M  V30 461 H 48.7772 2.58149 -1.5264 0
M  V30 462 H 46.3302 1.32593 -0.827578 0
M  V30 463 H 47.0652 3.08642 0.995518 0
M  V30 464 H 46.8502 3.8758 -0.593652 0
M  V30 465 H 48.3402 4.16092 0.354584 0
M  V30 466 N 48.7773 0.814389 1.34928 0
M  V30 467 C 50.0233 0.408167 1.99263 0
M  V30 468 C 50.3783 -1.0154 1.63424 0
M  V30 469 O 49.6713 -1.69607 0.891289 0
M  V30 470 C 49.8653 0.537781 3.53331 0
M  V30 471 C 49.6943 1.9724 4.04137 0
M  V30 472 C 48.4643 2.60245 4.33129 0
M  V30 473 C 50.6623 2.93801 4.2212 0
M  V30 474 N 48.6443 3.95036 4.69914 0
M  V30 475 C 50.0153 4.1348 4.6199 0
M  V30 476 C 52.0703 2.9053 4.04348 0
M  V30 477 C 50.7733 5.3033 4.85945 0
M  V30 478 C 52.7993 4.06589 4.29464 0
M  V30 479 C 52.1613 5.25017 4.69613 0
M  V30 480 H 48.2603 0.197289 0.756704 0
M  V30 481 H 50.8443 1.05728 1.63492 0
M  V30 482 H 49.0153 -0.0813868 3.88315 0
M  V30 483 H 50.7473 0.105389 4.04563 0
M  V30 484 H 47.5023 2.11545 4.23728 0
M  V30 485 H 47.9263 4.64455 4.92555 0
M  V30 486 H 52.5683 2.00115 3.72443 0
M  V30 487 H 50.2863 6.21309 5.16721 0
M  V30 488 H 53.8723 4.05447 4.17257 0
M  V30 489 H 52.7523 6.1333 4.88667 0
M  V30 490 N 50.2554 -1.46986 0.568584 0
M  V30 491 C 51.5324 -1.95592 -0.0174074 0
M  V30 492 C 51.9124 -1.51124 -1.47393 0
M  V30 493 O 51.2604 -0.755329 -2.15655 0
M  V30 494 C 51.4704 -3.48719 0.139913 0
M  V30 495 C 52.8184 -4.246 0.000426376 0
M  V30 496 O 53.8424 -3.56135 0.0680316 0
M  V30 497 O 52.7014 -5.46302 -0.146988 0
M  V30 498 H 49.7954 -0.82498 -0.0577599 0
M  V30 499 H 52.3414 -1.57335 0.635909 0
M  V30 500 H 51.1134 -3.73927 1.15301 0
M  V30 501 H 50.7364 -3.93771 -0.550491 0
M  V30 502 N 51.7335 -0.305618 -1.54608 0
M  V30 503 C 52.6805 0.568421 -2.23691 0
M  V30 504 C 53.6505 1.12592 -1.22116 0
M  V30 505 O 54.8355 1.16959 -1.50749 0
M  V30 506 C 51.9755 1.7322 -2.98477 0
M  V30 507 C 51.0885 1.20566 -4.14835 0
M  V30 508 C 50.2235 2.33368 -4.77193 0
M  V30 509 C 49.2625 1.7787 -5.85686 0
M  V30 510 N 48.3995 2.84263 -6.4198 0
M  V30 511 H 53.2395 -0.0272867 -2.97988 0
M  V30 512 H 50.7765 -0.0252363 -1.47078 0
M  V30 513 H 52.7345 2.41675 -3.40072 0
M  V30 514 H 51.3645 2.29947 -2.26548 0
M  V30 515 H 50.4165 0.413223 -3.78149 0
M  V30 516 H 51.7285 0.759417 -4.92985 0
M  V30 517 H 50.8825 3.09761 -5.21664 0
M  V30 518 H 49.6215 2.8132 -3.98385 0
M  V30 519 H 48.6265 0.99968 -5.40635 0
M  V30 520 H 49.8515 1.30816 -6.66381 0
M  V30 521 H 47.7975 3.31541 -5.66053 0
M  V30 522 H 47.7145 2.44149 -7.15491 0
M  V30 523 H 48.9825 3.6054 -6.91109 0
M  V30 524 N 53.2116 1.57565 -0.0334293 0
M  V30 525 C 54.4416 1.95996 0.653398 0
M  V30 526 C 54.8496 0.908749 1.65947 0
M  V30 527 O 54.1926 -0.117471 1.83324 0
M  V30 528 C 54.2546 3.30589 1.41249 0
M  V30 529 C 53.9186 4.53503 0.564263 0
M  V30 530 C 54.9156 5.19647 -0.16225 0
M  V30 531 C 52.6006 4.99801 0.500398 0
M  V30 532 C 54.5946 6.30412 -0.941255 0
M  V30 533 C 52.2816 6.10448 -0.282308 0
M  V30 534 C 53.2796 6.75612 -1.00184 0
M  V30 535 O 52.9676 7.84134 -1.77171 0
M  V30 536 H 52.6996 0.65027 0.184728 0
M  V30 537 H 55.2536 2.05199 -0.0907841 0
M  V30 538 H 53.4836 3.17888 2.20191 0
M  V30 539 H 55.1726 3.53892 1.98784 0
M  V30 540 H 55.9386 4.84846 -0.12227 0
M  V30 541 H 51.8176 4.48883 1.05002 0
M  V30 542 H 55.3616 6.81208 -1.50339 0
M  V30 543 H 51.2586 6.44686 -0.323989 0
M  V30 544 H 52.0266 8.00822 -1.69194 0
M  V30 545 N 54.6897 -0.239769 1.55765 0
M  V30 546 C 55.6197 -1.30052 1.9393 0
M  V30 547 C 56.6007 -1.49839 0.805132 0
M  V30 548 O 57.7857 -1.62328 1.06599 0
M  V30 549 C 54.9157 -2.65391 2.2402 0
M  V30 550 C 53.8697 -2.60289 3.39755 0
M  V30 551 C 53.1957 -3.99489 3.55405 0
M  V30 552 C 54.4957 -2.16654 4.75246 0
M  V30 553 H 56.1897 -0.983573 2.82783 0
M  V30 554 H 53.7357 -0.471701 1.36055 0
M  V30 555 H 55.6887 -3.3974 2.49308 0
M  V30 556 H 54.4127 -2.98736 1.32 0
M  V30 557 H 53.0717 -1.88398 3.14487 0
M  V30 558 H 52.7197 -4.30112 2.60793 0
M  V30 559 H 52.4197 -3.96962 4.33238 0
M  V30 560 H 53.9437 -4.75528 3.83022 0
M  V30 561 H 55.3577 -2.80737 4.99859 0
M  V30 562 H 53.7547 -2.25223 5.56232 0
M  V30 563 H 54.8247 -1.11835 4.71827 0
M  V30 564 N 56.1678 -1.49265 -0.50573 0
M  V30 565 C 57.0778 -1.68312 -1.63427 0
M  V30 566 C 58.0938 -0.565682 -1.64548 0
M  V30 567 O 59.2698 -0.839801 -1.83055 0
M  V30 568 C 56.3348 -1.74107 -2.99813 0
M  V30 569 C 55.3958 -2.97653 -3.09356 0
M  V30 570 C 54.6288 -3.03163 -4.39236 0
M  V30 571 O 54.8518 -2.16396 -5.27758 0
M  V30 572 O 53.7858 -3.9558 -4.53652 0
M  V30 573 H 57.6118 -2.63907 -1.50289 0
M  V30 574 H 55.1968 -1.32951 -0.681502 0
M  V30 575 H 57.0788 -1.803 -3.80881 0
M  V30 576 H 55.7538 -0.816901 -3.13223 0
M  V30 577 H 54.6608 -2.96981 -2.27493 0
M  V30 578 H 55.9938 -3.89535 -3.00871 0
M  V30 579 N 57.6459 0.756429 -1.3826 0
M  V30 580 C 58.9229 1.50584 -1.24835 0
M  V30 581 C 59.3029 2.10556 0.151485 0
M  V30 582 O 58.6509 1.96825 1.1607 0
M  V30 583 C 58.8609 2.57448 -2.3563 0
M  V30 584 C 60.2089 3.24429 -2.73917 0
M  V30 585 O 61.2329 2.67751 -2.34921 0
M  V30 586 O 60.0919 4.26937 -3.41156 0
M  V30 587 H 57.1859 0.667664 -0.48801 0
M  V30 588 H 59.7319 0.792083 -1.5008 0
M  V30 589 H 58.5039 2.11362 -3.29305 0
M  V30 590 H 58.1269 3.36408 -2.11933 0
M  V30 591 N 59.124 1.23083 0.984299 0
M  V30 592 C 60.072 1.00593 2.09723 0
M  V30 593 C 61.066 -0.0538014 1.69315 0
M  V30 594 O 62.272 0.0993719 1.79725 0
M  V30 595 H 58.647 0.30817 0.685956 0
M  V30 596 H 60.618 1.95012 2.2586 0
M  V30 597 C 59.367 0.609601 3.42314 0
M  V30 598 H 58.69 1.41675 3.73856 0
M  V30 599 H 60.13 0.491726 4.21139 0
M  V30 600 C 58.589 -0.681745 3.2993 0
M  V30 601 O 59.119 -1.73192 3.62446 0
M  V30 602 N 57.325 -0.656178 2.83095 0
M  V30 603 H 56.872 0.198759 2.56832 0
M  V30 604 H 56.83 -1.52044 2.75191 0
M  V30 605 N 60.6021 -1.18246 1.0419 0
M  V30 606 C 61.8321 -1.91916 0.764961 0
M  V30 607 C 62.2401 -1.76485 -0.681898 0
M  V30 608 O 61.5831 -1.09275 -1.47664 0
M  V30 609 C 61.6451 -3.4373 1.05309 0
M  V30 610 C 61.3091 -3.8294 2.4941 0
M  V30 611 C 62.3061 -3.86621 3.47592 0
M  V30 612 C 59.9911 -4.142 2.84155 0
M  V30 613 C 61.9851 -4.21013 4.78568 0
M  V30 614 C 59.6721 -4.48262 4.15337 0
M  V30 615 C 60.6701 -4.51645 5.12353 0
M  V30 616 O 60.3581 -4.84911 6.41183 0
M  V30 617 H 60.0901 -0.61606 0.278292 0
M  V30 618 H 62.6441 -1.50947 1.39299 0
M  V30 619 H 60.8741 -3.84946 0.367933 0
M  V30 620 H 62.5631 -3.9865 0.763752 0
M  V30 621 H 63.3291 -3.62607 3.22089 0
M  V30 622 H 59.2081 -4.10743 2.09311 0
M  V30 623 H 62.7521 -4.23568 5.54289 0
M  V30 624 H 58.6491 -4.71737 4.40607 0
M  V30 625 H 59.4171 -5.02809 6.45852 0
M  V30 626 N 62.0802 -0.821533 -1.34494 0
M  V30 627 C 63.3262 -0.418729 -1.99043 0
M  V30 628 C 63.6812 1.00672 -1.6396 0
M  V30 629 O 62.9742 1.69132 -0.900271 0
M  V30 630 C 63.1682 -0.556512 -3.53041 0
M  V30 631 C 62.9972 -1.9938 -4.03085 0
M  V30 632 C 61.7672 -2.62539 -4.31742 0
M  V30 633 C 63.9652 -2.96035 -4.20556 0
M  V30 634 N 61.9472 -3.97523 -4.67813 0
M  V30 635 C 63.3182 -4.15924 -4.59791 0
M  V30 636 C 65.3732 -2.9267 -4.02801 0
M  V30 637 C 64.0762 -5.32899 -4.83126 0
M  V30 638 C 66.1022 -4.08861 -4.27302 0
M  V30 639 C 65.4642 -5.275 -4.66822 0
M  V30 640 H 61.5632 -0.201299 -0.755647 0
M  V30 641 H 64.1472 -1.06594 -1.62929 0
M  V30 642 H 62.3182 0.0607924 -3.88352 0
M  V30 643 H 64.0502 -0.126842 -4.04501 0
M  V30 644 H 60.8052 -2.13789 -4.22601 0
M  V30 645 H 61.2292 -4.67061 -4.90085 0
M  V30 646 H 65.8712 -2.02088 -3.71376 0
M  V30 647 H 63.5892 -6.24041 -5.13418 0
M  V30 648 H 67.1752 -4.07654 -4.15101 0
M  V30 649 H 66.0552 -6.15913 -4.85408 0
M  V30 650 N 63.5583 1.46682 -0.576371 0
M  V30 651 C 64.7883 2.06498 -0.0648694 0
M  V30 652 C 65.1963 1.42665 1.24271 0
M  V30 653 O 64.5393 0.523886 1.76071 0
M  V30 654 C 64.6013 3.5904 0.181816 0
M  V30 655 C 64.2653 4.45028 -1.0392 0
M  V30 656 C 65.2623 4.81959 -1.94966 0
M  V30 657 C 62.9473 4.86259 -1.25927 0
M  V30 658 C 64.9413 5.58942 -3.06371 0
M  V30 659 C 62.6283 5.63002 -2.37638 0
M  V30 660 C 63.6263 5.99257 -3.2769 0
M  V30 661 O 63.3143 6.7445 -4.37461 0
M  V30 662 H 63.0463 0.674028 -0.0515987 0
M  V30 663 H 65.6003 1.89393 -0.794951 0
M  V30 664 H 63.8303 3.74429 0.966436 0
M  V30 665 H 65.5193 4.00806 0.641047 0
M  V30 666 H 66.2853 4.50689 -1.79177 0
M  V30 667 H 62.1643 4.57494 -0.567448 0
M  V30 668 H 65.7083 5.87158 -3.76684 0
M  V30 669 H 61.6053 5.93686 -2.53392 0
M  V30 670 H 62.3733 6.92867 -4.35749 0
M  V30 671 N 65.0364 0.313813 1.54444 0
M  V30 672 C 66.2644 -0.293918 2.04802 0
M  V30 673 C 66.6794 -1.46537 1.19047 0
M  V30 674 O 66.0364 -1.81182 0.218939 0
M  V30 675 C 66.0874 -0.737806 3.53891 0
M  V30 676 O 65.8084 0.387038 4.36387 0
M  V30 677 C 67.3094 -1.40936 4.203 0
M  V30 678 H 64.5294 -0.0620057 0.668129 0
M  V30 679 H 67.0734 0.457169 1.99324 0
M  V30 680 H 65.2284 -1.43889 3.59687 0
M  V30 681 H 65.6424 0.0391274 5.24485 0
M  V30 682 H 67.1164 -1.67099 5.26101 0
M  V30 683 H 67.5934 -2.35355 3.70816 0
M  V30 684 H 68.1994 -0.751117 4.18615 0
M  V30 685 N 66.5145 -1.57545 0.0417849 0
M  V30 686 C 67.4775 -2.09885 -0.92093 0
M  V30 687 C 68.4775 -1.01648 -1.24596 0
M  V30 688 O 69.6675 -1.27759 -1.1842 0
M  V30 689 C 66.7995 -2.57527 -2.23367 0
M  V30 690 H 67.9925 -2.96236 -0.467382 0
M  V30 691 H 65.5455 -1.5493 -0.206467 0
M  V30 692 H 66.2805 -1.74542 -2.73323 0
M  V30 693 H 66.0655 -3.36613 -2.01083 0
M  V30 694 H 67.5555 -2.98201 -2.92346 0
M  V30 695 N 67.9926 0.231505 -1.5589 0
M  V30 696 C 68.9026 1.308 -1.94752 0
M  V30 697 C 69.9186 1.51826 -0.849989 0
M  V30 698 O 71.0946 1.6515 -1.15271 0
M  V30 699 C 68.1596 2.63968 -2.24771 0
M  V30 700 C 67.2206 2.51331 -3.48039 0
M  V30 701 C 66.4536 3.78148 -3.76616 0
M  V30 702 O 66.6766 4.80722 -3.07022 0
M  V30 703 O 65.6106 3.75857 -4.70123 0
M  V30 704 H 69.4366 1.0083 -2.86474 0
M  V30 705 H 67.0216 0.433547 -1.42971 0
M  V30 706 H 68.9036 3.42633 -2.45318 0
M  V30 707 H 67.5786 2.9364 -1.36225 0
M  V30 708 H 66.4856 1.709 -3.32782 0
M  V30 709 H 67.8186 2.26601 -4.36936 0
M  V30 710 N 69.4707 1.49531 0.497807 0
M  V30 711 C 70.8817 1.52344 1.07927 0
M  V30 712 C 71.2327 0.311469 1.93712 0
M  V30 713 O 70.3577 -0.578405 2.08527 0
M  V30 714 C 70.9527 2.76062 1.96405 0
M  V30 715 C 69.5117 2.81643 2.49709 0
M  V30 716 C 68.6587 2.46299 1.27404 0
M  V30 717 H 71.6097 1.56182 0.281576 0
M  V30 718 H 71.6307 2.56405 2.81135 0
M  V30 719 H 71.1427 3.64254 1.33943 0
M  V30 720 H 69.2437 1.97739 3.15801 0
M  V30 721 H 69.3567 3.83891 2.86643 0
M  V30 722 H 67.7207 1.98148 1.60029 0
M  V30 723 H 68.5037 3.36769 0.66645 0
M  V30 724 N 70.9488 -0.749086 1.3866 0
M  V30 725 C 71.9118 -1.84457 1.36045 0
M  V30 726 C 72.9118 -1.58682 0.260122 0
M  V30 727 O 74.1018 -1.66343 0.517261 0
M  V30 728 C 71.2338 -3.22008 1.11911 0
M  V30 729 H 72.4268 -1.88182 2.33512 0
M  V30 730 H 69.9798 -0.951266 1.24019 0
M  V30 731 H 70.7148 -3.2395 0.150686 0
M  V30 732 H 70.4998 -3.42111 1.91579 0
M  V30 733 H 71.9898 -4.0208 1.12788 0
M  V30 734 N 72.4269 -1.23603 -0.977757 0
M  V30 735 C 73.6519 -1.09735 -1.75991 0
M  V30 736 C 74.0769 0.346858 -1.84874 0
M  V30 737 O 73.4349 1.25093 -1.3123 0
M  V30 738 C 73.4829 -1.73051 -3.16363 0
M  V30 739 O 72.5869 -0.994452 -4.0023 0
M  V30 740 H 71.9279 -0.384476 -0.541364 0
M  V30 741 H 74.4579 -1.6371 -1.2272 0
M  V30 742 H 74.4679 -1.78398 -3.66931 0
M  V30 743 H 73.1429 -2.78137 -3.09213 0
M  V30 744 H 71.7199 -1.01812 -3.58732 0
M  V30 745 N 73.905 1.17692 -1.04816 0
M  V30 746 C 75.182 1.83768 -0.669963 0
M  V30 747 C 75.562 1.93232 0.849986 0
M  V30 748 O 74.91 1.46397 1.75443 0
M  V30 749 C 75.12 3.21641 -1.35455 0
M  V30 750 C 76.468 3.97592 -1.49017 0
M  V30 751 O 77.492 3.31107 -1.31326 0
M  V30 752 O 76.351 5.16729 -1.77914 0
M  V30 753 H 73.445 0.792799 -0.235368 0
M  V30 754 H 75.991 1.25021 -1.14751 0
M  V30 755 H 74.763 3.097 -2.39168 0
M  V30 756 H 74.386 3.88052 -0.866107 0
M  V30 757 N 75.3831 0.828654 1.34056 0
M  V30 758 C 76.6301 0.419458 1.98108 0
M  V30 759 C 76.9581 -1.01886 1.65679 0
M  V30 760 O 76.2131 -1.72539 0.923512 0
M  V30 761 C 76.5121 0.575226 3.52741 0
M  V30 762 C 76.1781 1.98012 4.05095 0
M  V30 763 C 74.8401 2.36442 4.19104 0
M  V30 764 C 77.1921 2.89824 4.33188 0
M  V30 765 C 74.5201 3.66009 4.58535 0
M  V30 766 C 76.8721 4.1886 4.74066 0
M  V30 767 C 75.5361 4.5726 4.86281 0
M  V30 768 H 74.8061 0.153491 0.724929 0
M  V30 769 H 77.4531 1.05371 1.59904 0
M  V30 770 H 75.7581 -0.142385 3.91541 0
M  V30 771 H 77.4551 0.239057 4.00287 0
M  V30 772 H 74.0451 1.67162 3.94658 0
M  V30 773 H 78.2291 2.61375 4.21897 0
M  V30 774 H 73.4851 3.95579 4.66184 0
M  V30 775 H 77.6591 4.90086 4.94761 0
M  V30 776 H 75.2861 5.57707 5.16592 0
M  V30 777 N 76.8612 -1.46375 0.584142 0
M  V30 778 C 78.0912 -2.06461 0.0758195 0
M  V30 779 C 78.4992 -1.43322 -1.23512 0
M  V30 780 O 77.8422 -0.533216 -1.75791 0
M  V30 781 C 77.9042 -3.59131 -0.162773 0
M  V30 782 C 77.5682 -4.4447 1.06279 0
M  V30 783 C 78.5652 -4.80918 1.97519 0
M  V30 784 C 76.2502 -4.85584 1.28504 0
M  V30 785 C 78.2442 -5.57309 3.09331 0
M  V30 786 C 75.9312 -5.61734 2.4062 0
M  V30 787 C 76.9292 -5.9751 3.30863 0
M  V30 788 O 76.6172 -6.72121 4.41032 0
M  V30 789 H 76.3492 -0.673745 0.0551725 0
M  V30 790 H 78.9032 -1.88969 0.804984 0
M  V30 791 H 77.1332 -3.74936 -0.946565 0
M  V30 792 H 78.8222 -4.0114 -0.619782 0
M  V30 793 H 79.5882 -4.49732 1.81565 0
M  V30 794 H 75.4672 -4.57187 0.591702 0
M  V30 795 H 79.0112 -5.85152 3.79793 0
M  V30 796 H 74.9082 -5.92334 2.56537 0
M  V30 797 H 75.6762 -6.90547 4.39417 0
M  V30 798 N 78.3393 -0.321999 -1.54275 0
M  V30 799 C 79.2893 0.560185 -2.21011 0
M  V30 800 C 80.2733 1.08283 -1.19011 0
M  V30 801 O 81.4653 1.02011 -1.44647 0
M  V30 802 C 78.5943 1.72137 -2.97025 0
M  V30 803 C 77.6803 1.21369 -4.06363 0
M  V30 804 N 78.0713 0.425566 -5.04007 0
M  V30 805 C 76.3693 1.49255 -4.20284 0
M  V30 806 C 77.0703 0.152601 -5.815 0
M  V30 807 N 76.0463 0.738294 -5.38563 0
M  V30 808 H 79.8483 -0.049265 -2.93859 0
M  V30 809 H 77.3623 -0.127779 -1.61897 0
M  V30 810 H 79.3593 2.36512 -3.43319 0
M  V30 811 H 78.0193 2.33431 -2.25699 0
M  V30 812 H 79.0303 0.068551 -5.17855 0
M  V30 813 H 75.7073 2.11145 -3.60172 0
M  V30 814 H 77.0973 -0.481764 -6.70171 0
M  V30 815 N 79.8174 1.5752 -0.0501392 0
M  V30 816 C 80.7644 2.1147 0.924603 0
M  V30 817 C 81.7344 1.02182 1.30951 0
M  V30 818 O 82.9194 1.29723 1.39916 0
M  V30 819 C 80.0594 2.66337 2.19451 0
M  V30 820 C 79.1724 3.89708 1.86418 0
M  V30 821 C 78.3074 4.32893 3.07859 0
M  V30 822 C 77.3464 5.48967 2.70742 0
M  V30 823 N 76.4834 5.87211 3.84874 0
M  V30 824 H 81.3234 2.94465 0.457639 0
M  V30 825 H 78.8604 1.45531 0.214266 0
M  V30 826 H 80.8184 2.96247 2.93758 0
M  V30 827 H 79.4484 1.86141 2.63726 0
M  V30 828 H 78.5004 3.66396 1.02264 0
M  V30 829 H 79.8124 4.74074 1.55096 0
M  V30 830 H 78.9664 4.6435 3.90466 0
M  V30 831 H 77.7054 3.47336 3.42358 0
M  V30 832 H 76.7104 5.17183 1.86551 0
M  V30 833 H 77.9354 6.3624 2.37436 0
M  V30 834 H 75.8814 5.04607 4.19175 0
M  V30 835 H 75.7984 6.66266 3.57247 0
M  V30 836 H 77.0664 6.23282 4.68123 0
M  V30 837 N 81.2955 -0.223234 1.56011 0
M  V30 838 C 82.5255 -0.963413 1.82762 0
M  V30 839 C 82.9335 -1.78516 0.626804 0
M  V30 840 O 82.2765 -1.78974 -0.414014 0
M  V30 841 C 82.3385 -1.93126 3.0322 0
M  V30 842 C 82.0025 -1.2942 4.38291 0
M  V30 843 C 82.9995 -0.684916 5.15369 0
M  V30 844 C 80.6845 -1.30647 4.85012 0
M  V30 845 C 82.6785 -0.0963971 6.37327 0
M  V30 846 C 80.3655 -0.71411 6.06913 0
M  V30 847 C 81.3635 -0.110123 6.82911 0
M  V30 848 O 81.0515 0.47303 8.02507 0
M  V30 849 H 80.7835 -0.288011 0.611576 0
M  V30 850 H 83.3375 -0.244103 2.03944 0
M  V30 851 H 81.5675 -2.68952 2.77852 0
M  V30 852 H 83.2565 -2.53685 3.16857 0
M  V30 853 H 84.0225 -0.667774 4.80381 0
M  V30 854 H 79.9015 -1.76598 4.25833 0
M  V30 855 H 83.4455 0.375657 6.96588 0
M  V30 856 H 79.3425 -0.728659 6.41374 0
M  V30 857 H 80.1105 0.367186 8.17676 0
M  V30 858 N 82.7736 -1.49793 -0.48987 0
M  V30 859 C 84.1846 -1.52914 -1.07118 0
M  V30 860 C 84.5356 -0.321738 -1.93544 0
M  V30 861 O 83.6606 0.567338 -2.08831 0
M  V30 862 C 84.2556 -2.771 -1.94938 0
M  V30 863 C 82.8146 -2.82963 -2.48212 0
M  V30 864 C 81.9616 -2.46972 -1.26096 0
M  V30 865 H 84.9126 -1.56329 -0.273289 0
M  V30 866 H 84.9336 -2.57892 -2.79771 0
M  V30 867 H 84.4456 -3.64959 -1.32009 0
M  V30 868 H 82.5466 -1.99411 -3.14748 0
M  V30 869 H 82.6596 -3.85406 -2.84603 0
M  V30 870 H 81.0236 -1.98994 -1.58976 0
M  V30 871 H 81.8066 -3.37118 -0.648581 0
M  V30 872 N 84.2517 0.741722 -1.39055 0
M  V30 873 C 85.4977 1.50336 -1.36113 0
M  V30 874 C 85.8307 1.94148 0.0450796 0
M  V30 875 O 85.1057 1.66301 1.00868 0
M  V30 876 C 85.3887 2.74773 -2.32749 0
M  V30 877 C 85.2417 2.37023 -3.82283 0
M  V30 878 C 86.5607 3.76846 -2.27322 0
M  V30 879 H 83.6797 0.545351 -0.495743 0
M  V30 880 H 86.3217 0.848624 -1.69995 0
M  V30 881 H 84.4717 3.30639 -2.03986 0
M  V30 882 H 86.1437 1.8684 -4.21768 0
M  V30 883 H 84.3867 1.69334 -3.99385 0
M  V30 884 H 85.0577 3.26104 -4.45376 0
M  V30 885 H 87.5337 3.30548 -2.5274 0
M  V30 886 H 86.4097 4.6159 -2.97028 0
M  V30 887 H 86.6707 4.23286 -1.27599 0
M  V30 888 N 85.7298 1.2412 0.971189 0
M  V30 889 C 87.0068 0.986867 1.6888 0
M  V30 890 C 87.3868 -0.491857 2.0529 0
M  V30 891 O 86.7348 -1.46531 1.75331 0
M  V30 892 C 86.9448 1.9063 2.92338 0
M  V30 893 C 88.2928 2.17515 3.64654 0
M  V30 894 O 89.3168 1.88254 3.02388 0
M  V30 895 O 88.1758 2.6719 4.7673 0
M  V30 896 H 85.2698 0.372944 0.738134 0
M  V30 897 H 87.8158 1.35203 1.02559 0
M  V30 898 H 86.5878 2.90552 2.62097 0
M  V30 899 H 86.2108 1.54408 3.66393 0
M  V30 900 N 87.2079 -1.17134 1.05439 0
M  V30 901 C 88.1379 -2.2342 0.678649 0
M  V30 902 C 89.1189 -1.66971 -0.32476 0
M  V30 903 O 90.3039 -1.93149 -0.201802 0
M  V30 904 C 87.4339 -3.47256 0.0552099 0
M  V30 905 C 86.3879 -4.16543 0.98365 0
M  V30 906 C 85.7139 -5.34231 0.223961 0
M  V30 907 C 87.0139 -4.68495 2.3089 0
M  V30 908 H 88.7079 -2.55105 1.56722 0
M  V30 909 H 86.2539 -1.2262 0.754998 0
M  V30 910 H 88.2069 -4.20828 -0.21946 0
M  V30 911 H 86.9309 -3.14846 -0.868319 0
M  V30 912 H 85.5899 -3.44887 1.24293 0
M  V30 913 H 85.2379 -4.98071 -0.702412 0
M  V30 914 H 84.9379 -5.81527 0.842627 0
M  V30 915 H 86.4619 -6.10585 -0.0433671 0
M  V30 916 H 87.8759 -5.33691 2.09396 0
M  V30 917 H 86.2729 -5.26379 2.88176 0
M  V30 918 H 87.3429 -3.85169 2.94572 0
M  V30 919 N 88.686 -0.835752 -1.33615 0
M  V30 920 C 89.596 -0.269088 -2.33052 0
M  V30 921 C 90.612 0.603251 -1.63208 0
M  V30 922 O 91.788 0.508112 -1.94885 0
M  V30 923 C 88.853 0.549091 -3.42324 0
M  V30 924 C 87.914 -0.347156 -4.27894 0
M  V30 925 C 87.147 0.43207 -5.31948 0
M  V30 926 O 87.37 1.66409 -5.45586 0
M  V30 927 O 86.304 -0.192298 -6.01593 0
M  V30 928 H 90.13 -1.09243 -2.83372 0
M  V30 929 H 87.715 -0.598198 -1.36901 0
M  V30 930 H 89.597 1.01414 -4.09015 0
M  V30 931 H 88.272 1.34955 -2.94226 0
M  V30 932 H 87.179 -0.859979 -3.64081 0
M  V30 933 H 88.512 -1.1123 -4.79467 0
M  V30 934 N 90.1641 1.46063 -0.591896 0
M  V30 935 C 91.0941 2.33172 0.123673 0
M  V30 936 C 92.0751 1.45897 0.87453 0
M  V30 937 O 93.2601 1.74698 0.848181 0
M  V30 938 C 90.3901 3.28336 1.13194 0
M  V30 939 C 89.3441 4.25124 0.495324 0
M  V30 940 C 88.6701 5.09863 1.61071 0
M  V30 941 C 89.9701 5.19143 -0.573425 0
M  V30 942 H 91.6641 2.93252 -0.603646 0
M  V30 943 H 89.2101 1.41014 -0.291741 0
M  V30 944 H 91.1631 3.88137 1.64097 0
M  V30 945 H 89.8871 2.66383 1.88965 0
M  V30 946 H 88.5461 3.66599 0.00729452 0
M  V30 947 H 88.1941 4.44288 2.35832 0
M  V30 948 H 87.8941 5.75417 1.19035 0
M  V30 949 H 89.4181 5.72529 2.12233 0
M  V30 950 H 90.8321 5.73106 -0.1491 0
M  V30 951 H 89.2291 5.93089 -0.914636 0
M  V30 952 H 90.2991 4.62519 -1.45617 0
M  V30 953 N 91.6422 0.330177 1.54103 0
M  V30 954 C 92.6052 -0.520144 2.2322 0
M  V30 955 C 93.6052 -1.03828 1.22786 0
M  V30 956 O 94.7952 -0.929652 1.4732 0
M  V30 957 C 91.9272 -1.72317 2.94142 0
M  V30 958 H 93.1202 0.0841605 2.99782 0
M  V30 959 H 90.6732 0.0813433 1.56088 0
M  V30 960 H 91.4082 -2.36653 2.21734 0
M  V30 961 H 91.1932 -1.35898 3.67796 0
M  V30 962 H 92.6832 -2.3266 3.46784 0
M  V30 963 N 93.1203 -1.57491 0.0584922 0
M  V30 964 C 94.0303 -2.15448 -0.928414 0
M  V30 965 C 95.0463 -1.11416 -1.3365 0
M  V30 966 O 96.2223 -1.4362 -1.41193 0
M  V30 967 C 93.2873 -2.69393 -2.18239 0
M  V30 968 C 92.3483 -3.88249 -1.83196 0
M  V30 969 C 91.5813 -4.39613 -3.02616 0
M  V30 970 O 91.8043 -3.90023 -4.16219 0
M  V30 971 O 90.7383 -5.31111 -2.83204 0
M  V30 972 H 94.5643 -3.00112 -0.465483 0
M  V30 973 H 92.1493 -1.48499 -0.163826 0
M  V30 974 H 94.0313 -3.04026 -2.91798 0
M  V30 975 H 92.7063 -1.87796 -2.63656 0
M  V30 976 H 91.6133 -3.58492 -1.06931 0
M  V30 977 H 92.9463 -4.71098 -1.42573 0
M  V30 978 N 94.5984 0.214957 -1.56127 0
M  V30 979 C 95.5084 1.28727 -1.96129 0
M  V30 980 C 96.5244 1.50916 -0.866044 0
M  V30 981 O 97.7004 1.63918 -1.17016 0
M  V30 982 C 94.7654 2.61569 -2.27558 0
M  V30 983 C 93.8264 2.47625 -3.50685 0
M  V30 984 C 93.0594 3.74132 -3.80606 0
M  V30 985 O 93.2824 4.77438 -3.12104 0
M  V30 986 O 92.2164 3.70849 -4.74083 0
M  V30 987 H 96.0424 0.977855 -2.87527 0
M  V30 988 H 93.6274 0.418358 -1.43423 0
M  V30 989 H 95.5094 3.40012 -2.48938 0
M  V30 990 H 94.1844 2.92178 -1.39332 0
M  V30 991 H 93.0914 1.67361 -3.34576 0
M  V30 992 H 94.4244 2.21954 -4.39315 0
M  V30 993 N 96.0765 1.50051 0.48192 0
M  V30 994 C 97.3065 1.63999 1.2565 0
M  V30 995 C 97.7145 0.318288 1.86504 0
M  V30 996 O 97.0575 -0.708534 1.69486 0
M  V30 997 C 97.1195 2.66504 2.4128 0
M  V30 998 C 96.7835 4.10352 2.01148 0
M  V30 999 C 97.7805 4.96562 1.54021 0
M  V30 1000 C 95.4655 4.56203 2.10199 0
M  V30 1001 C 97.4595 6.26668 1.16473 0
M  V30 1002 C 95.1465 5.86318 1.72264 0
M  V30 1003 C 96.1445 6.71375 1.25477 0
M  V30 1004 O 95.8325 7.99062 0.880626 0
M  V30 1005 H 95.5645 0.55456 0.386574 0
M  V30 1006 H 98.1185 1.96954 0.582944 0
M  V30 1007 H 96.3485 2.28769 3.11772 0
M  V30 1008 H 98.0375 2.69783 3.03268 0
M  V30 1009 H 98.8035 4.62358 1.46458 0
M  V30 1010 H 94.6825 3.90152 2.45566 0
M  V30 1011 H 98.2265 6.93011 0.798841 0
M  V30 1012 H 94.1235 6.20046 1.79482 0
M  V30 1013 H 94.8915 8.12239 1.01043 0
M  V30 1014 N 97.5546 -0.734337 1.39446 0
M  V30 1015 C 98.8026 -1.49096 1.36436 0
M  V30 1016 C 99.1236 -1.94961 -0.0388255 0
M  V30 1017 O 98.3936 -1.69033 -0.990191 0
M  V30 1018 H 96.9736 -0.5531 0.502085 0
M  V30 1019 H 99.6356 -0.871725 1.74319 0
M  V30 1020 H 98.7316 -2.37276 2.02747 0
M  V30 1021 N 99.0327 -1.24633 -0.964593 0
M  V30 1022 C 100.279 -1.08949 -1.71049 0
M  V30 1023 C 100.612 0.370302 -1.90637 0
M  V30 1024 O 99.8867 1.27349 -1.47011 0
M  V30 1025 C 100.17 -1.83329 -3.0994 0
M  V30 1026 C 100.023 -3.37077 -2.97824 0
M  V30 1027 C 101.342 -1.60846 -4.09654 0
M  V30 1028 H 98.4607 -0.397178 -0.620821 0
M  V30 1029 H 101.103 -1.5334 -1.12191 0
M  V30 1030 H 99.2527 -1.45597 -3.60186 0
M  V30 1031 H 100.925 -3.84425 -2.5498 0
M  V30 1032 H 99.1677 -3.65298 -2.33965 0
M  V30 1033 H 99.8387 -3.84324 -3.96231 0
M  V30 1034 H 102.315 -1.93674 -3.68279 0
M  V30 1035 H 101.191 -2.1534 -5.04896 0
M  V30 1036 H 101.452 -0.547434 -4.38698 0
M  V30 1037 N 100.511 1.16574 -1.06058 0
M  V30 1038 C 101.459 2.22941 -0.663343 0
M  V30 1039 C 102.453 1.66358 0.319593 0
M  V30 1040 O 103.659 1.7905 0.184713 0
M  V30 1041 H 100.034 0.725907 -0.196376 0
M  V30 1042 H 102.005 2.53736 -1.57037 0
M  V30 1043 C 100.754 3.47642 -0.0632808 0
M  V30 1044 H 100.077 3.91493 -0.810733 0
M  V30 1045 H 101.517 4.2363 0.177177 0
M  V30 1046 C 99.9758 3.1509 1.19248 0
M  V30 1047 O 100.506 3.30673 2.28075 0
M  V30 1048 N 98.7118 2.6924 1.09353 0
M  V30 1049 H 98.2588 2.5676 0.207912 0
M  V30 1050 H 98.2168 2.47833 1.93458 0
M  V30 1051 N 101.989 0.842826 1.3317 0
M  V30 1052 C 103.237 0.439577 1.97262 0
M  V30 1053 C 103.558 -1.00548 1.67078 0
M  V30 1054 O 102.828 -1.70098 0.971779 0
M  V30 1055 H 101.408 0.159558 0.72976 0
M  V30 1056 H 104.07 1.07665 1.62463 0
M  V30 1057 H 103.166 0.574886 3.0676 0
M  V30 1058 N 103.467 -1.45747 0.599634 0
M  V30 1059 C 104.716 -2.01502 0.0893511 0
M  V30 1060 C 105.029 -1.4748 -1.28488 0
M  V30 1061 O 106.235 -1.95161 -1.88745 0
M  V30 1062 C 104.691 -3.59735 0.109082 0
M  V30 1063 C 104.299 -4.22754 1.48267 0
M  V30 1064 C 106.043 -4.23085 -0.346374 0
M  V30 1065 C 103.95 -5.73115 1.45921 0
M  V30 1066 H 102.88 -0.753417 0.0296347 0
M  V30 1067 H 105.531 -1.67303 0.753788 0
M  V30 1068 H 103.913 -3.91087 -0.621854 0
M  V30 1069 H 105.087 -4.02987 2.23468 0
M  V30 1070 H 103.402 -3.71567 1.87955 0
M  V30 1071 H 105.999 -5.33327 -0.38298 0
M  V30 1072 H 106.342 -3.93201 -1.36743 0
M  V30 1073 H 106.875 -3.9642 0.331038 0
M  V30 1074 H 103.614 -6.07685 2.45762 0
M  V30 1075 H 103.134 -5.95097 0.749665 0
M  V30 1076 H 104.813 -6.3616 1.17941 0
M  V30 1077 N 104.945 -0.338344 -1.53925 0
M  V30 1078 C 106.361 0.0137736 -1.59594 0
M  V30 1079 C 106.561 1.49186 -1.35447 0
M  V30 1080 O 105.617 2.24987 -1.14616 0
M  V30 1081 C 106.93 -0.41773 -2.97784 0
M  V30 1082 C 108.478 -0.369633 -3.1081 0
M  V30 1083 C 108.953 -0.776524 -4.51369 0
M  V30 1084 N 110.444 -0.730506 -4.57403 0
M  V30 1085 C 111.179 -1.01736 -5.64303 0
M  V30 1086 N 110.675 -1.3721 -6.79077 0
M  V30 1087 N 112.468 -0.941942 -5.54151 0
M  V30 1088 H 104.619 -1.3012 -1.67876 0
M  V30 1089 H 106.882 -0.530082 -0.78595 0
M  V30 1090 H 106.588 -1.44811 -3.20504 0
M  V30 1091 H 106.462 0.209729 -3.76616 0
M  V30 1092 H 108.849 0.651568 -2.87817 0
M  V30 1093 H 108.93 -1.03223 -2.34049 0
M  V30 1094 H 108.574 -1.79571 -4.75096 0
M  V30 1095 H 108.504 -0.0914649 -5.26521 0
M  V30 1096 H 110.995 -0.468783 -3.74981 0
M  V30 1097 H 111.308 -1.57597 -7.5656 0
M  V30 1098 H 109.653 -1.4105 -6.80536 0
M  V30 1099 H 112.844 -0.664184 -4.63364 0
M  V30 1100 H 113.017 -1.16884 -6.37371 0
M  V30 1101 N 106.423 1.57458 -0.0668435 0
M  V30 1102 C 107.672 1.92477 0.602947 0
M  V30 1103 C 107.985 0.948419 1.71068 0
M  V30 1104 O 109.191 1.19124 2.43971 0
M  V30 1105 C 107.647 3.41903 1.12383 0
M  V30 1106 C 107.255 4.47975 0.04737 0
M  V30 1107 C 108.999 3.85931 1.76797 0
M  V30 1108 C 106.906 5.88529 0.582022 0
M  V30 1109 H 105.836 0.718387 0.22899 0
M  V30 1110 H 108.487 1.82978 -0.138276 0
M  V30 1111 H 106.869 3.46459 1.91787 0
M  V30 1112 H 108.043 4.55029 -0.726978 0
M  V30 1113 H 106.358 4.13384 -0.500243 0
M  V30 1114 H 108.955 4.88322 2.17821 0
M  V30 1115 H 109.298 3.23029 2.62599 0
M  V30 1116 H 109.831 3.83958 1.04024 0
M  V30 1117 H 106.57 6.55065 -0.238721 0
M  V30 1118 H 106.09 5.85004 1.324 0
M  V30 1119 H 107.769 6.38258 1.05999 0
M  V30 1120 N 107.901 -0.206675 1.56239 0
M  V30 1121 C 109.126 -0.949474 1.8439 0
M  V30 1122 C 109.551 -1.76549 0.649016 0
M  V30 1123 O 108.909 -1.76782 -0.402231 0
M  V30 1124 C 108.957 -1.83078 3.10668 0
M  V30 1125 O 108.061 -2.9281 2.90407 0
M  V30 1126 H 107.402 -0.268033 0.607499 0
M  V30 1127 H 109.932 -0.215488 2.03462 0
M  V30 1128 H 109.942 -2.2377 3.41161 0
M  V30 1129 H 108.617 -1.23112 3.97261 0
M  V30 1130 H 107.194 -2.55956 2.71184 0
M  V30 1131 N 109.379 -1.50304 -0.473955 0
M  V30 1132 C 110.628 -1.60392 -1.22301 0
M  V30 1133 C 110.941 -0.308411 -1.93153 0
M  V30 1134 O 112.147 -0.288156 -2.69966 0
M  V30 1135 C 110.603 -2.83109 -2.2221 0
M  V30 1136 C 110.211 -4.19524 -1.57173 0
M  V30 1137 C 111.955 -3.0254 -2.97775 0
M  V30 1138 C 109.862 -5.33431 -2.55353 0
M  V30 1139 H 108.792 -0.597286 -0.460179 0
M  V30 1140 H 111.443 -1.76731 -0.493803 0
M  V30 1141 H 109.825 -2.60322 -2.9841 0
M  V30 1142 H 110.999 -4.52554 -0.867824 0
M  V30 1143 H 109.314 -4.05674 -0.939002 0
M  V30 1144 H 111.911 -3.84811 -3.71248 0
M  V30 1145 H 112.254 -2.14154 -3.56992 0
M  V30 1146 H 112.787 -3.25494 -2.28688 0
M  V30 1147 H 109.526 -6.23962 -2.00878 0
M  V30 1148 H 109.046 -5.04823 -3.23904 0
M  V30 1149 H 110.725 -5.63887 -3.17239 0
M  V30 1150 N 110.857 0.726932 -1.39834 0
M  V30 1151 C 111.82 1.82269 -1.38962 0
M  V30 1152 C 112.82 1.58248 -0.285334 0
M  V30 1153 O 114.01 1.65499 -0.54366 0
M  V30 1154 C 111.142 3.20186 -1.17019 0
M  V30 1155 H 112.335 1.84443 -2.36476 0
M  V30 1156 H 109.888 0.931416 -1.25516 0
M  V30 1157 H 110.623 3.23669 -0.202204 0
M  V30 1158 H 110.408 3.3902 -1.96998 0
M  V30 1159 H 111.898 4.00235 -1.1917 0
M  V30 1160 N 112.336 1.25143 0.95797 0
M  V30 1161 C 113.582 1.10863 1.70531 0
M  V30 1162 C 113.937 -0.347391 1.89238 0
M  V30 1163 O 113.23 -1.25262 1.44983 0
M  V30 1164 C 113.424 1.79272 3.09187 0
M  V30 1165 C 113.253 3.31376 3.04006 0
M  V30 1166 C 112.023 4.0062 3.07948 0
M  V30 1167 C 114.221 4.27825 2.8543 0
M  V30 1168 N 112.203 5.39526 2.9289 0
M  V30 1169 C 113.574 5.53794 2.78769 0
M  V30 1170 C 115.629 4.1828 2.70085 0
M  V30 1171 C 114.332 6.7131 2.58331 0
M  V30 1172 C 116.358 5.35485 2.51017 0
M  V30 1173 C 115.72 6.60393 2.45073 0
M  V30 1174 H 111.819 0.460362 0.632132 0
M  V30 1175 H 114.403 1.58196 1.13499 0
M  V30 1176 H 112.574 1.34439 3.64391 0
M  V30 1177 H 114.306 1.57764 3.72683 0
M  V30 1178 H 111.061 3.51855 3.17009 0
M  V30 1179 H 111.485 6.12416 2.88574 0
M  V30 1180 H 116.127 3.22461 2.73457 0
M  V30 1181 H 113.845 7.67243 2.53701 0
M  V30 1182 H 117.431 5.29959 2.40073 0
M  V30 1183 H 116.311 7.49557 2.30509 0
M  V30 1184 N 113.814 -1.1601 1.06675 0
M  V30 1185 C 115.039 -1.91068 0.806706 0
M  V30 1186 C 115.464 -1.77112 -0.633485 0
M  V30 1187 O 114.822 -1.09908 -1.44187 0
M  V30 1188 C 114.87 -3.39655 1.21106 0
M  V30 1189 O 113.974 -4.10893 0.352189 0
M  V30 1190 H 113.315 -0.595125 0.294486 0
M  V30 1191 H 115.845 -1.46955 1.42356 0
M  V30 1192 H 115.855 -3.90434 1.18428 0
M  V30 1193 H 114.53 -3.49132 2.26008 0
M  V30 1194 H 113.107 -3.70285 0.440868 0
M  V30 1195 N 115.292 -0.849877 -1.32721 0
M  V30 1196 C 116.708 -0.539102 -1.50219 0
M  V30 1197 C 116.908 0.931271 -1.78689 0
M  V30 1198 O 115.964 1.71455 -1.85363 0
M  V30 1199 C 117.277 -1.42196 -2.64954 0
M  V30 1200 C 118.825 -1.42189 -2.78839 0
M  V30 1201 C 119.3 -2.28985 -3.96648 0
M  V30 1202 N 120.791 -2.26754 -4.03902 0
M  V30 1203 C 121.526 -2.90644 -4.94281 0
M  V30 1204 N 121.022 -3.63629 -5.897 0
M  V30 1205 N 122.815 -2.80057 -4.87365 0
M  V30 1206 H 114.966 -1.80156 -1.12506 0
M  V30 1207 H 117.229 -0.769217 -0.554085 0
M  V30 1208 H 116.935 -2.46733 -2.50631 0
M  V30 1209 H 116.809 -1.10591 -3.60624 0
M  V30 1210 H 119.196 -0.38419 -2.92588 0
M  V30 1211 H 119.277 -1.77807 -1.83898 0
M  V30 1212 H 118.921 -3.32819 -3.83658 0
M  V30 1213 H 118.851 -1.90702 -4.90857 0
M  V30 1214 H 121.342 -1.73688 -3.3562 0
M  V30 1215 H 121.655 -4.09558 -6.55349 0
M  V30 1216 H 120 -3.67737 -5.89741 0
M  V30 1217 H 123.191 -2.22593 -4.11789 0
M  V30 1218 H 123.364 -3.30132 -5.57599 0
M  V30 1219 N 116.77 1.45427 -0.607355 0
M  V30 1220 C 118.019 2.01452 -0.100036 0
M  V30 1221 C 118.332 1.48159 1.27704 0
M  V30 1222 O 119.538 1.96159 1.87707 0
M  V30 1223 C 117.994 3.59672 -0.128158 0
M  V30 1224 C 117.602 4.21962 -1.50507 0
M  V30 1225 C 119.346 4.23262 0.323932 0
M  V30 1226 C 117.253 5.72333 -1.48959 0
M  V30 1227 H 116.183 0.75325 -0.0336299 0
M  V30 1228 H 118.834 1.66901 -0.76265 0
M  V30 1229 H 117.216 3.91411 0.601105 0
M  V30 1230 H 118.39 4.01796 -2.25602 0
M  V30 1231 H 116.705 3.70565 -1.89923 0
M  V30 1232 H 119.302 5.33522 0.354691 0
M  V30 1233 H 119.645 3.93921 1.34656 0
M  V30 1234 H 120.178 3.96239 -0.352056 0
M  V30 1235 H 116.917 6.06373 -2.48981 0
M  V30 1236 H 116.437 5.94691 -0.781214 0
M  V30 1237 H 118.116 6.35525 -1.21313 0
M  V30 1238 N 118.248 0.346503 1.53744 0
M  V30 1239 C 119.495 -0.249104 2.00962 0
M  V30 1240 C 119.823 -1.5032 1.23426 0
M  V30 1241 O 119.078 -1.93217 0.310761 0
M  V30 1242 C 119.377 -0.605809 3.52228 0
M  V30 1243 C 119.043 0.551747 4.47512 0
M  V30 1244 C 117.705 0.86941 4.73281 0
M  V30 1245 C 120.057 1.32818 5.03993 0
M  V30 1246 C 117.385 1.96582 5.52786 0
M  V30 1247 C 119.737 2.41486 5.84694 0
M  V30 1248 C 118.401 2.73808 6.08757 0
M  V30 1249 H 117.671 -0.0911538 0.735372 0
M  V30 1250 H 120.318 0.475027 1.85515 0
M  V30 1251 H 118.623 -1.4107 3.65522 0
M  V30 1252 H 120.32 -1.07858 3.86222 0
M  V30 1253 H 116.91 0.294102 4.2759 0
M  V30 1254 H 121.094 1.09602 4.84047 0
M  V30 1255 H 116.35 2.22045 5.69654 0
M  V30 1256 H 120.524 3.02078 6.27473 0
M  V30 1257 H 118.151 3.58892 6.7015 0
M  V30 1258 N 119.726 -1.57421 0.075193 0
M  V30 1259 C 121.137 -1.81021 -0.456964 0
M  V30 1260 C 121.488 -0.98936 -1.69429 0
M  V30 1261 O 120.613 -0.212865 -2.15351 0
M  V30 1262 C 121.208 -3.28329 -0.83581 0
M  V30 1263 C 119.767 -3.52764 -1.31281 0
M  V30 1264 C 118.914 -2.75676 -0.299648 0
M  V30 1265 H 121.865 -1.55822 0.300856 0
M  V30 1266 H 121.886 -3.40564 -1.69696 0
M  V30 1267 H 121.398 -3.88046 0.0649238 0
M  V30 1268 H 119.499 -2.98355 -2.23193 0
M  V30 1269 H 119.612 -4.61451 -1.28839 0
M  V30 1270 H 117.976 -2.42538 -0.777641 0
M  V30 1271 H 118.759 -3.38132 0.593417 0
M  V30 1272 N 121.204 0.198386 -1.56346 0
M  V30 1273 C 122.432 0.935572 -1.84539 0
M  V30 1274 C 122.847 1.76989 -0.657281 0
M  V30 1275 O 122.204 1.78626 0.374043 0
M  V30 1276 C 122.255 1.8344 -3.11499 0
M  V30 1277 O 121.976 1.03377 -4.25728 0
M  V30 1278 C 123.477 2.68355 -3.52846 0
M  V30 1279 H 120.697 0.273126 -0.612897 0
M  V30 1280 H 123.241 0.20663 -2.03453 0
M  V30 1281 H 121.396 2.51701 -2.94492 0
M  V30 1282 H 121.81 1.64599 -4.98003 0
M  V30 1283 H 123.284 3.27085 -4.44657 0
M  V30 1284 H 123.761 3.41901 -2.75681 0
M  V30 1285 H 124.367 2.05471 -3.72373 0
M  V30 1286 N 122.682 1.50554 0.465978 0
M  V30 1287 C 123.93 1.61479 1.21528 0
M  V30 1288 C 124.251 0.319596 1.92363 0
M  V30 1289 O 123.521 -0.663194 1.84333 0
M  V30 1290 H 122.101 0.595055 0.451573 0
M  V30 1291 H 124.763 1.87355 0.53704 0
M  V30 1292 H 123.859 2.42846 1.96042 0
M  V30 1293 N 124.16 -0.719506 1.40217 0
M  V30 1294 C 125.39 -1.50646 1.41384 0
M  V30 1295 C 125.798 -1.89197 0.0107743 0
M  V30 1296 O 125.141 -1.55709 -0.974708 0
M  V30 1297 C 125.203 -2.81405 2.23722 0
M  V30 1298 C 124.867 -2.65199 3.72181 0
M  V30 1299 C 125.864 -2.32717 4.64907 0
M  V30 1300 C 123.549 -2.81586 4.1595 0
M  V30 1301 C 125.543 -2.16827 5.99387 0
M  V30 1302 C 123.23 -2.65313 5.50502 0
M  V30 1303 C 124.228 -2.32981 6.42035 0
M  V30 1304 O 123.916 -2.16827 7.74107 0
M  V30 1305 H 123.648 -0.471606 0.484318 0
M  V30 1306 H 126.202 -0.895456 1.84853 0
M  V30 1307 H 124.432 -3.44823 1.75026 0
M  V30 1308 H 126.121 -3.43102 2.16878 0
M  V30 1309 H 126.887 -2.19694 4.32388 0
M  V30 1310 H 122.766 -3.0574 3.45027 0
M  V30 1311 H 126.31 -1.91513 6.70797 0
M  V30 1312 H 122.207 -2.7792 5.82607 0
M  V30 1313 H 122.975 -2.31778 7.84998 0
M  V30 1314 N 125.638 -1.25649 -0.95132 0
M  V30 1315 C 126.886 -1.10375 -1.69298 0
M  V30 1316 C 127.207 0.355339 -1.91735 0
M  V30 1317 O 126.477 1.25188 -1.50681 0
M  V30 1318 H 125.057 -0.405461 -0.627384 0
M  V30 1319 H 127.719 -1.57823 -1.14358 0
M  V30 1320 H 126.815 -1.61465 -2.67087 0
M  V30 1321 N 127.117 1.15442 -1.07289 0
M  V30 1322 C 128.027 2.23786 -0.704057 0
M  V30 1323 C 129.043 1.7166 0.284413 0
M  V30 1324 O 130.219 2.00972 0.131205 0
M  V30 1325 C 127.284 3.46535 -0.106792 0
M  V30 1326 C 126.345 4.13654 -1.14842 0
M  V30 1327 C 125.578 5.30544 -0.57956 0
M  V30 1328 O 125.801 5.67187 0.604585 0
M  V30 1329 O 124.735 5.87154 -1.32414 0
M  V30 1330 H 128.561 2.57664 -1.60757 0
M  V30 1331 H 126.146 1.23152 -0.845803 0
M  V30 1332 H 128.028 4.20804 0.224048 0
M  V30 1333 H 126.703 3.14407 0.770049 0
M  V30 1334 H 125.61 3.4131 -1.5316 0
M  V30 1335 H 126.943 4.49861 -1.99714 0
M  V30 1336 N 128.595 0.856903 1.32268 0
M  V30 1337 C 129.841 0.462069 1.97466 0
M  V30 1338 C 130.174 -0.980298 1.67642 0
M  V30 1339 O 129.449 -1.68824 0.965858 0
M  V30 1340 C 129.732 0.704336 3.53145 0
M  V30 1341 C 129.585 2.19529 3.9259 0
M  V30 1342 C 130.904 0.1622 4.39801 0
M  V30 1343 H 128.023 0.169357 0.717278 0
M  V30 1344 H 130.665 1.07574 1.56614 0
M  V30 1345 H 128.815 0.181999 3.88073 0
M  V30 1346 H 130.487 2.78387 3.67829 0
M  V30 1347 H 128.73 2.67292 3.41668 0
M  V30 1348 H 129.401 2.31549 5.01088 0
M  V30 1349 H 131.877 0.608905 4.11621 0
M  V30 1350 H 130.753 0.361265 5.4771 0
M  V30 1351 H 131.014 -0.935158 4.32096 0
M  V30 1352 N 130.073 -1.45103 0.615059 0
M  V30 1353 C 131.021 -2.32331 -0.111791 0
M  V30 1354 C 132.015 -1.46409 -0.852102 0
M  V30 1355 O 133.221 -1.62849 -0.766821 0
M  V30 1356 H 129.596 -0.749993 -0.0549072 0
M  V30 1357 H 131.567 -2.91407 0.642225 0
M  V30 1358 C 130.316 -3.3015 -1.09071 0
M  V30 1359 H 129.639 -3.96265 -0.530485 0
M  V30 1360 H 131.079 -3.93898 -1.56908 0
M  V30 1361 C 129.538 -2.57875 -2.168 0
M  V30 1362 O 130.068 -2.36567 -3.24652 0
M  V30 1363 N 128.274 -2.17884 -1.92289 0
M  V30 1364 H 127.821 -2.35413 -1.04587 0
M  V30 1365 H 127.779 -1.6985 -2.64572 0
M  V30 1366 N 131.551 -0.354651 -1.53558 0
M  V30 1367 C 132.461 0.50515 -2.29097 0
M  V30 1368 C 133.477 1.10223 -1.34636 0
M  V30 1369 O 134.653 1.11553 -1.67684 0
M  V30 1370 C 131.718 1.63479 -3.05738 0
M  V30 1371 C 130.779 1.06636 -4.15845 0
M  V30 1372 C 130.012 2.14217 -4.88822 0
M  V30 1373 O 130.235 3.35137 -4.61562 0
M  V30 1374 O 129.169 1.77887 -5.75013 0
M  V30 1375 H 132.995 -0.109237 -3.03503 0
M  V30 1376 H 130.58 -0.119357 -1.48922 0
M  V30 1377 H 132.462 2.2918 -3.5363 0
M  V30 1378 H 131.137 2.23478 -2.34178 0
M  V30 1379 H 130.044 0.373565 -3.7223 0
M  V30 1380 H 131.377 0.511081 -4.89539 0
M  V30 1381 N 133.029 1.57378 -0.0835403 0
M  V30 1382 C 133.976 2.13384 0.879539 0
M  V30 1383 C 134.946 1.04936 1.28754 0
M  V30 1384 O 136.131 1.32662 1.37133 0
M  V30 1385 C 133.271 2.70932 2.13752 0
M  V30 1386 C 132.384 3.93575 1.7811 0
M  V30 1387 C 131.519 4.39326 2.98607 0
M  V30 1388 C 130.558 5.54587 2.59037 0
M  V30 1389 N 129.695 5.95243 3.72331 0
M  V30 1390 H 134.535 2.9537 0.395076 0
M  V30 1391 H 132.072 1.45953 0.183349 0
M  V30 1392 H 134.03 3.02411 2.87408 0
M  V30 1393 H 132.66 1.91693 2.59718 0
M  V30 1394 H 131.712 3.68483 0.94469 0
M  V30 1395 H 133.024 4.77258 1.45005 0
M  V30 1396 H 132.178 4.72528 3.80529 0
M  V30 1397 H 130.917 3.5452 3.34913 0
M  V30 1398 H 129.922 5.21024 1.75539 0
M  V30 1399 H 131.147 6.41133 2.23887 0
M  V30 1400 H 129.093 5.13385 4.08378 0
M  V30 1401 H 129.01 6.73694 3.43034 0
M  V30 1402 H 130.278 6.33072 4.54797 0
M  V30 1403 N 134.507 -0.190092 1.56449 0
M  V30 1404 C 135.755 -0.907908 1.80559 0
M  V30 1405 C 136.076 -1.83583 0.657438 0
M  V30 1406 O 135.346 -1.93203 -0.323924 0
M  V30 1407 H 133.926 -0.338247 0.666032 0
M  V30 1408 H 136.588 -0.194403 1.93928 0
M  V30 1409 H 135.684 -1.49604 2.73907 0
M  V30 1410 N 135.985 -1.50799 -0.457987 0
M  V30 1411 C 137.231 -1.62683 -1.21088 0
M  V30 1412 C 137.564 -0.332268 -1.91336 0
M  V30 1413 O 136.839 0.667043 -1.82704 0
M  V30 1414 C 137.122 -2.81615 -2.24422 0
M  V30 1415 C 136.975 -4.20989 -1.58392 0
M  V30 1416 C 138.294 -2.96085 -3.2561 0
M  V30 1417 H 135.413 -0.592087 -0.438864 0
M  V30 1418 H 138.055 -1.83225 -0.50286 0
M  V30 1419 H 136.205 -2.64231 -2.84806 0
M  V30 1420 H 137.877 -4.49994 -1.01504 0
M  V30 1421 H 136.12 -4.24641 -0.886704 0
M  V30 1422 H 136.791 -5.0016 -2.33547 0
M  V30 1423 H 139.267 -3.12042 -2.75262 0
M  V30 1424 H 138.143 -3.80902 -3.95228 0
M  V30 1425 H 138.404 -2.0726 -3.90507 0
M  V30 1426 N 137.463 0.71206 -1.40597 0
M  V30 1427 C 138.373 1.8562 -1.43466 0
M  V30 1428 C 139.389 1.70902 -0.326902 0
M  V30 1429 O 140.565 1.93105 -0.572043 0
M  V30 1430 C 137.63 3.21451 -1.29884 0
M  V30 1431 C 136.691 3.48398 -2.50833 0
M  V30 1432 C 135.924 4.77749 -2.3789 0
M  V30 1433 O 136.147 5.53089 -1.39459 0
M  V30 1434 O 135.081 5.05111 -3.27333 0
M  V30 1435 H 138.907 1.86155 -2.39958 0
M  V30 1436 H 136.492 0.86295 -1.21957 0
M  V30 1437 H 138.374 4.02579 -1.24531 0
M  V30 1438 H 137.049 3.21636 -0.364997 0
M  V30 1439 H 135.956 2.67265 -2.61763 0
M  V30 1440 H 137.289 3.53014 -3.4299 0
M  V30 1441 N 138.941 1.26152 0.944643 0
M  V30 1442 C 140.188 1.11492 1.69044 0
M  V30 1443 C 140.516 -0.342366 1.91463 0
M  V30 1444 O 139.771 -1.26812 1.49054 0
M  V30 1445 C 140.07 1.82541 3.07268 0
M  V30 1446 C 139.736 3.32445 3.04616 0
M  V30 1447 C 138.398 3.73337 3.036 0
M  V30 1448 C 140.75 4.28171 2.97185 0
M  V30 1449 C 138.078 5.08348 2.92915 0
M  V30 1450 C 140.43 5.63218 2.88041 0
M  V30 1451 C 139.094 6.03426 2.85366 0
M  V30 1452 H 138.364 0.407977 0.618576 0
M  V30 1453 H 141.011 1.56551 1.10291 0
M  V30 1454 H 139.316 1.29941 3.69625 0
M  V30 1455 H 141.013 1.68642 3.63815 0
M  V30 1456 H 137.603 2.99915 3.06185 0
M  V30 1457 H 141.787 3.97563 2.97081 0
M  V30 1458 H 137.043 5.38667 2.89219 0
M  V30 1459 H 141.217 6.37078 2.81254 0
M  V30 1460 H 138.844 7.07999 2.76842 0
M  V30 1461 N 140.419 -1.14872 1.07899 0
M  V30 1462 C 141.649 -1.89386 0.825631 0
M  V30 1463 C 142.057 -1.78565 -0.625406 0
M  V30 1464 O 141.4 -1.13918 -1.44113 0
M  V30 1465 C 141.462 -3.40206 1.16191 0
M  V30 1466 C 141.126 -3.74812 2.61467 0
M  V30 1467 C 142.123 -3.75367 3.59716 0
M  V30 1468 C 139.808 -4.0495 2.97189 0
M  V30 1469 C 141.802 -4.05574 4.9172 0
M  V30 1470 C 139.489 -4.34821 4.29388 0
M  V30 1471 C 140.487 -4.35116 5.26463 0
M  V30 1472 O 140.175 -4.64267 6.56286 0
M  V30 1473 H 139.907 -0.606894 0.297751 0
M  V30 1474 H 142.461 -1.46438 1.44031 0
M  V30 1475 H 140.691 -3.8358 0.490214 0
M  V30 1476 H 142.38 -3.96018 0.890193 0
M  V30 1477 H 143.146 -3.52176 3.33462 0
M  V30 1478 H 139.025 -4.03876 2.22273 0
M  V30 1479 H 142.569 -4.05719 5.67484 0
M  V30 1480 H 138.466 -4.5748 4.55392 0
M  V30 1481 H 139.234 -4.82007 6.61522 0
M  V30 1482 N 141.898 -0.863906 -1.31812 0
M  V30 1483 C 142.848 -0.286898 -2.26188 0
M  V30 1484 C 143.832 0.572577 -1.50367 0
M  V30 1485 O 145.024 0.420447 -1.71934 0
M  V30 1486 C 142.153 0.515849 -3.39402 0
M  V30 1487 C 141.239 -0.356531 -4.22599 0
M  V30 1488 N 141.63 -1.44716 -4.84656 0
M  V30 1489 C 139.928 -0.147898 -4.45755 0
M  V30 1490 C 140.629 -1.98462 -5.46798 0
M  V30 1491 N 139.605 -1.28247 -5.28255 0
M  V30 1492 H 143.407 -1.12055 -2.717 0
M  V30 1493 H 140.921 -0.711012 -1.46008 0
M  V30 1494 H 142.918 0.945701 -4.06032 0
M  V30 1495 H 141.578 1.34718 -2.95434 0
M  V30 1496 H 142.589 -1.83008 -4.84488 0
M  V30 1497 H 139.266 0.647973 -4.12441 0
M  V30 1498 H 140.656 -2.89932 -6.06126 0
M  V30 1499 N 143.376 1.44774 -0.622745 0
M  V30 1500 C 144.323 2.30635 0.0871679 0
M  V30 1501 C 145.293 1.42994 0.845097 0
M  V30 1502 O 146.478 1.71907 0.827812 0
M  V30 1503 C 143.618 3.28144 1.06844 0
M  V30 1504 C 142.731 4.30888 0.309809 0
M  V30 1505 C 141.866 5.15494 1.28215 0
M  V30 1506 C 140.905 6.09953 0.512198 0
M  V30 1507 N 140.042 6.87287 1.43458 0
M  V30 1508 H 144.882 2.90803 -0.650974 0
M  V30 1509 H 142.419 1.43286 -0.33281 0
M  V30 1510 H 144.377 3.83157 1.65066 0
M  V30 1511 H 143.007 2.69695 1.77382 0
M  V30 1512 H 142.059 3.78414 -0.388181 0
M  V30 1513 H 143.371 4.97955 -0.290254 0
M  V30 1514 H 142.525 5.74983 1.93596 0
M  V30 1515 H 141.264 4.48481 1.91614 0
M  V30 1516 H 140.269 5.49581 -0.155151 0
M  V30 1517 H 141.494 6.78999 -0.116958 0
M  V30 1518 H 139.44 6.2295 2.05594 0
M  V30 1519 H 139.357 7.50763 0.888335 0
M  V30 1520 H 140.625 7.51306 2.07749 0
M  V30 1521 N 144.854 0.36279 1.53368 0
M  V30 1522 C 145.784 -0.476976 2.28576 0
M  V30 1523 C 146.765 -1.08631 1.30894 0
M  V30 1524 O 147.95 -1.10409 1.59761 0
M  V30 1525 C 145.08 -1.61828 3.07293 0
M  V30 1526 C 144.034 -1.13633 4.1264 0
M  V30 1527 C 143.36 -2.36766 4.79423 0
M  V30 1528 C 144.66 -0.223061 5.21823 0
M  V30 1529 H 146.354 0.150474 2.99022 0
M  V30 1530 H 143.9 0.0738103 1.43811 0
M  V30 1531 H 145.853 -2.21237 3.58653 0
M  V30 1532 H 144.577 -2.27292 2.34533 0
M  V30 1533 H 143.236 -0.564945 3.62221 0
M  V30 1534 H 142.884 -3.0068 4.03238 0
M  V30 1535 H 142.584 -2.05192 5.50609 0
M  V30 1536 H 144.108 -2.96865 5.33576 0
M  V30 1537 H 145.522 -0.724545 5.68703 0
M  V30 1538 H 143.919 0.001678 6.001 0
M  V30 1539 H 144.989 0.735553 4.79289 0
M  V30 1540 N 146.332 -1.57332 0.0918853 0
M  V30 1541 C 147.579 -1.94236 -0.572577 0
M  V30 1542 C 147.907 -0.973398 -1.6839 0
M  V30 1543 O 147.162 0.00756912 -1.95699 0
M  V30 1544 C 147.461 -3.37689 -1.17051 0
M  V30 1545 C 147.127 -4.50527 -0.183304 0
M  V30 1546 C 145.789 -4.81119 0.0882276 0
M  V30 1547 C 148.141 -5.18883 0.49095 0
M  V30 1548 C 145.469 -5.77395 1.04076 0
M  V30 1549 C 147.821 -6.1618 1.43193 0
M  V30 1550 C 146.485 -6.45179 1.71173 0
M  V30 1551 H 145.755 -0.710762 -0.209521 0
M  V30 1552 H 148.402 -1.9077 0.167036 0
M  V30 1553 H 146.707 -3.37718 -1.9863 0
M  V30 1554 H 148.404 -3.63543 -1.69227 0
M  V30 1555 H 144.994 -4.26681 -0.405124 0
M  V30 1556 H 149.178 -4.95427 0.294312 0
M  V30 1557 H 144.434 -5.98179 1.26457 0
M  V30 1558 H 148.608 -6.68243 1.96023 0
M  V30 1559 H 146.235 -7.1959 2.4514 0
M  V30 1560 N 147.81 0.181792 -1.56548 0
M  V30 1561 C 148.773 1.20894 -1.94724 0
M  V30 1562 C 149.773 1.37738 -0.829747 0
M  V30 1563 O 150.963 1.35323 -1.09697 0
M  V30 1564 C 148.095 2.57593 -2.23291 0
M  V30 1565 H 149.288 0.882275 -2.86629 0
M  V30 1566 H 146.841 0.423838 -1.50444 0
M  V30 1567 H 147.576 2.95291 -1.34067 0
M  V30 1568 H 147.361 2.46735 -3.04736 0
M  V30 1569 H 148.851 3.31637 -2.53785 0
M  V30 1570 N 149.288 1.51039 0.449983 0
M  V30 1571 C 150.198 1.74261 1.57067 0
M  V30 1572 C 151.214 0.626363 1.62335 0
M  V30 1573 O 152.39 0.907162 1.79812 0
M  V30 1574 C 149.455 1.85114 2.93144 0
M  V30 1575 C 148.516 3.0893 2.98095 0
M  V30 1576 C 147.749 3.19256 4.27681 0
M  V30 1577 O 147.972 2.35835 5.19363 0
M  V30 1578 O 146.906 4.12144 4.38658 0
M  V30 1579 H 150.732 2.69303 1.40391 0
M  V30 1580 H 148.317 1.35389 0.631688 0
M  V30 1581 H 150.199 1.94311 3.73926 0
M  V30 1582 H 148.874 0.932588 3.09975 0
M  V30 1583 H 147.781 3.0522 2.16314 0
M  V30 1584 H 149.114 4.00433 2.86206 0
M  V30 1585 N 150.766 -0.704594 1.40972 0
M  V30 1586 C 152.006 -1.47691 1.41304 0
M  V30 1587 C 152.37 -1.91992 0.0178582 0
M  V30 1588 O 153.571 -2.68599 -0.103996 0
M  V30 1589 C 151.842 -2.66254 2.38419 0
M  V30 1590 S 153.401 -3.55516 2.57204 0
M  V30 1591 H 150.219 -0.504808 0.500689 0
M  V30 1592 H 152.821 -0.822962 1.77335 0
M  V30 1593 H 151.525 -2.31897 3.38603 0
M  V30 1594 H 151.056 -3.3655 2.03711 0
M  V30 1595 H 153.071 -4.61115 1.83268 0
M  V30 1596 N 152.244 -1.26651 -0.937939 0
M  V30 1597 C 153.194 -1.05156 -2.02302 0
M  V30 1598 C 154.178 0.0171233 -1.60891 0
M  V30 1599 O 155.37 -0.200213 -1.75864 0
M  V30 1600 C 152.499 -0.689962 -3.36295 0
M  V30 1601 C 151.585 -1.79626 -3.84181 0
M  V30 1602 N 151.976 -3.03422 -4.04684 0
M  V30 1603 C 150.274 -1.6806 -4.13124 0
M  V30 1604 C 150.975 -3.75345 -4.444 0
M  V30 1605 N 149.951 -3.03051 -4.51288 0
M  V30 1606 H 153.753 -1.99117 -2.1617 0
M  V30 1607 H 151.267 -1.17216 -1.12402 0
M  V30 1608 H 153.264 -0.517112 -4.13681 0
M  V30 1609 H 151.924 0.242139 -3.23796 0
M  V30 1610 H 152.935 -3.39293 -3.91281 0
M  V30 1611 H 149.612 -0.818629 -4.09396 0
M  V30 1612 H 151.002 -4.81691 -4.68427 0
M  V30 1613 N 153.722 1.14298 -1.08507 0
M  V30 1614 C 154.669 2.19414 -0.715965 0
M  V30 1615 C 155.639 1.63399 0.298326 0
M  V30 1616 O 156.824 1.89929 0.182101 0
M  V30 1617 C 153.964 3.44845 -0.132534 0
M  V30 1618 C 153.077 4.15007 -1.19973 0
M  V30 1619 C 152.212 5.28024 -0.580048 0
M  V30 1620 C 151.251 5.9002 -1.62921 0
M  V30 1621 N 150.388 6.94485 -1.03125 0
M  V30 1622 H 155.228 2.50336 -1.61666 0
M  V30 1623 H 152.765 1.2293 -0.807882 0
M  V30 1624 H 154.723 4.16601 0.223454 0
M  V30 1625 H 153.353 3.14403 0.731467 0
M  V30 1626 H 152.405 3.41629 -1.67313 0
M  V30 1627 H 153.717 4.57178 -1.99473 0
M  V30 1628 H 152.871 6.06455 -0.172364 0
M  V30 1629 H 151.61 4.87076 0.246603 0
M  V30 1630 H 150.615 5.10291 -2.04654 0
M  V30 1631 H 151.84 6.33042 -2.45835 0
M  V30 1632 H 149.786 6.55612 -0.225711 0
M  V30 1633 H 149.703 7.35148 -1.76334 0
M  V30 1634 H 150.971 7.7679 -0.649458 0
M  V30 1635 N 155.201 0.870884 1.31352 0
M  V30 1636 C 156.617 0.562932 1.49343 0
M  V30 1637 C 156.817 -0.902725 1.80148 0
M  V30 1638 O 155.873 -1.68484 1.88067 0
M  V30 1639 C 157.186 1.46393 2.62659 0
M  V30 1640 C 158.734 1.46607 2.76542 0
M  V30 1641 C 159.209 2.35266 3.92955 0
M  V30 1642 N 160.7 2.33151 4.00243 0
M  V30 1643 C 161.435 2.98471 4.89594 0
M  V30 1644 N 160.931 3.72964 5.8384 0
M  V30 1645 N 162.724 2.87775 4.82848 0
M  V30 1646 H 154.875 1.81923 1.09626 0
M  V30 1647 H 157.138 0.777934 0.541777 0
M  V30 1648 H 156.844 2.50689 2.46674 0
M  V30 1649 H 156.718 1.16314 3.58819 0
M  V30 1650 H 159.105 0.43069 2.9194 0
M  V30 1651 H 159.186 1.8071 1.81046 0
M  V30 1652 H 158.83 3.38881 3.78315 0
M  V30 1653 H 158.76 1.98487 4.87761 0
M  V30 1654 H 161.251 1.79006 3.32814 0
M  V30 1655 H 161.564 4.19932 6.4875 0
M  V30 1656 H 159.909 3.77073 5.83816 0
M  V30 1657 H 163.1 2.29116 4.08195 0
M  V30 1658 H 163.273 3.38961 5.52277 0
M  V30 1659 N 156.679 -1.44442 0.630414 0
M  V30 1660 C 157.629 -2.27794 -0.0968103 0
M  V30 1661 C 158.613 -1.38624 -0.816834 0
M  V30 1662 O 159.805 -1.62438 -0.70306 0
M  V30 1663 C 156.934 -3.25929 -1.07819 0
M  V30 1664 C 156.02 -4.22588 -0.357826 0
M  V30 1665 N 156.411 -5.0207 0.613169 0
M  V30 1666 C 154.709 -4.41914 -0.602365 0
M  V30 1667 C 155.41 -5.72351 1.03871 0
M  V30 1668 N 154.386 -5.42287 0.377642 0
M  V30 1669 H 158.188 -2.86653 0.648621 0
M  V30 1670 H 155.702 -1.55871 0.455862 0
M  V30 1671 H 157.699 -3.84399 -1.61378 0
M  V30 1672 H 156.359 -2.68631 -1.82393 0
M  V30 1673 H 157.37 -5.08331 0.990947 0
M  V30 1674 H 154.047 -3.95714 -1.33103 0
M  V30 1675 H 155.437 -6.4619 1.84086 0
M  V30 1676 N 158.157 -0.370918 -1.53173 0
M  V30 1677 C 159.403 0.217423 -2.01631 0
M  V30 1678 C 159.736 1.47983 -1.25756 0
M  V30 1679 O 159.011 1.91274 -0.352764 0
M  V30 1680 C 159.294 0.503982 -3.56556 0
M  V30 1681 C 159.147 -0.77243 -4.43118 0
M  V30 1682 C 160.466 1.30234 -4.20389 0
M  V30 1683 H 157.585 0.0775486 -0.732909 0
M  V30 1684 H 160.227 -0.496863 -1.83388 0
M  V30 1685 H 158.377 1.11248 -3.72231 0
M  V30 1686 H 160.049 -1.4098 -4.39229 0
M  V30 1687 H 158.292 -1.39167 -4.10871 0
M  V30 1688 H 158.963 -0.526815 -5.4948 0
M  V30 1689 H 161.439 0.787546 -4.08579 0
M  V30 1690 H 160.315 1.47158 -5.28806 0
M  V30 1691 H 160.576 2.31237 -3.76805 0
M  V30 1692 N 159.635 1.57281 -0.100228 0
M  V30 1693 C 160.545 2.17833 0.870965 0
M  V30 1694 C 161.561 1.14921 1.30649 0
M  V30 1695 O 162.737 1.47313 1.37335 0
M  V30 1696 C 159.802 2.75085 2.1102 0
M  V30 1697 C 158.863 3.9297 1.72838 0
M  V30 1698 C 158.096 4.47482 2.90854 0
M  V30 1699 O 158.319 4.00922 4.05731 0
M  V30 1700 O 157.253 5.38433 2.69023 0
M  V30 1701 H 161.079 3.0124 0.38575 0
M  V30 1702 H 158.664 1.48881 0.124397 0
M  V30 1703 H 160.546 3.11656 2.83634 0
M  V30 1704 H 159.221 1.94721 2.58584 0
M  V30 1705 H 158.128 3.61201 0.973883 0
M  V30 1706 H 159.461 4.74713 1.30033 0
M  V30 1707 N 161.113 -0.173488 1.56642 0
M  V30 1708 C 162.524 -0.736155 1.71574 0
M  V30 1709 C 162.875 -1.82888 0.710389 0
M  V30 1710 O 162 -2.16017 -0.1287 0
M  V30 1711 C 162.595 -1.34211 3.11083 0
M  V30 1712 C 161.154 -1.85162 3.27707 0
M  V30 1713 C 160.301 -0.729765 2.67525 0
M  V30 1714 H 163.252 0.0518786 1.58615 0
M  V30 1715 H 163.273 -2.21178 3.09613 0
M  V30 1716 H 162.785 -0.546579 3.84232 0
M  V30 1717 H 160.886 -2.67366 2.59512 0
M  V30 1718 H 160.999 -1.99855 4.35425 0
M  V30 1719 H 159.363 -1.14965 2.27278 0
M  V30 1720 H 160.146 0.0538806 3.43258 0
M  V30 1721 N 162.591 -1.51276 -0.441967 0
M  V30 1722 C 163.838 -1.63715 -1.19179 0
M  V30 1723 C 164.166 -0.351175 -1.91303 0
M  V30 1724 O 163.421 0.664524 -1.84072 0
M  V30 1725 C 163.72 -2.78746 -2.23686 0
M  V30 1726 C 163.386 -4.18189 -1.68607 0
M  V30 1727 C 162.048 -4.56125 -1.53308 0
M  V30 1728 C 164.4 -5.05222 -1.28062 0
M  V30 1729 C 161.728 -5.78804 -0.959317 0
M  V30 1730 C 164.08 -6.28476 -0.721162 0
M  V30 1731 C 162.744 -6.65188 -0.55504 0
M  V30 1732 H 162.014 -0.599076 -0.436106 0
M  V30 1733 H 164.661 -1.85296 -0.48351 0
M  V30 1734 H 162.966 -2.51369 -3.00535 0
M  V30 1735 H 164.663 -2.8557 -2.81515 0
M  V30 1736 H 161.253 -3.88277 -1.8149 0
M  V30 1737 H 165.437 -4.76524 -1.38704 0
M  V30 1738 H 160.693 -6.05899 -0.81833 0
M  V30 1739 H 164.867 -6.95259 -0.398458 0
M  V30 1740 H 162.494 -7.60123 -0.108311 0
M  V30 1741 N 164.069 0.697108 -1.41344 0
M  V30 1742 C 165.315 1.4593 -1.40827 0
M  V30 1743 C 165.648 1.94193 -0.0167098 0
M  V30 1744 O 164.923 1.69425 0.955263 0
M  V30 1745 C 165.206 2.67229 -2.41373 0
M  V30 1746 C 165.059 2.24741 -3.8963 0
M  V30 1747 C 166.378 3.69423 -2.39196 0
M  V30 1748 H 163.497 0.529303 -0.512842 0
M  V30 1749 H 166.139 0.794112 -1.72609 0
M  V30 1750 H 164.289 3.23982 -2.14401 0
M  V30 1751 H 165.961 1.73327 -4.27499 0
M  V30 1752 H 164.204 1.56542 -4.0457 0
M  V30 1753 H 164.875 3.1177 -4.55525 0
M  V30 1754 H 167.351 3.2234 -2.63128 0
M  V30 1755 H 166.227 4.51907 -3.11563 0
M  V30 1756 H 166.488 4.19012 -1.41001 0
M  V30 1757 N 165.547 1.27147 0.931209 0
M  V30 1758 C 166.775 1.16082 1.71267 0
M  V30 1759 C 167.19 -0.282772 1.8667 0
M  V30 1760 O 166.547 -1.19283 1.38122 0
M  V30 1761 C 166.598 1.8358 3.11417 0
M  V30 1762 O 166.319 3.22299 2.96741 0
M  V30 1763 C 167.82 1.78597 4.05732 0
M  V30 1764 H 165.04 0.403758 0.535929 0
M  V30 1765 H 167.584 1.67953 1.16671 0
M  V30 1766 H 165.739 1.35623 3.62885 0
M  V30 1767 H 166.153 3.55851 3.85319 0
M  V30 1768 H 167.627 2.30444 5.01597 0
M  V30 1769 H 168.104 0.754564 4.3267 0
M  V30 1770 H 168.71 2.26152 3.60188 0
M  V30 1771 N 167.025 -1.13721 1.09112 0
M  V30 1772 C 167.955 -2.21148 0.749385 0
M  V30 1773 C 168.936 -1.6792 -0.271475 0
M  V30 1774 O 170.121 -1.93693 -0.140251 0
M  V30 1775 C 167.251 -3.46905 0.165659 0
M  V30 1776 C 166.205 -4.13203 1.11567 0
M  V30 1777 C 165.531 -5.33248 0.393809 0
M  V30 1778 C 166.831 -4.60912 2.45678 0
M  V30 1779 H 168.525 -2.4999 1.64758 0
M  V30 1780 H 166.071 -1.20156 0.793626 0
M  V30 1781 H 168.024 -4.21313 -0.085466 0
M  V30 1782 H 166.748 -3.17449 -0.767714 0
M  V30 1783 H 165.407 -3.40758 1.35202 0
M  V30 1784 H 165.055 -5.00054 -0.543599 0
M  V30 1785 H 164.755 -5.78552 1.02721 0
M  V30 1786 H 166.279 -6.10413 0.150908 0
M  V30 1787 H 167.693 -5.26759 2.26269 0
M  V30 1788 H 166.09 -5.16944 3.04776 0
M  V30 1789 H 167.16 -3.75603 3.06677 0
M  V30 1790 N 168.503 -0.877838 -1.30888 0
M  V30 1791 C 169.453 -0.310872 -2.25871 0
M  V30 1792 C 170.437 0.556596 -1.50966 0
M  V30 1793 O 171.629 0.402187 -1.7237 0
M  V30 1794 C 168.758 0.479821 -3.3993 0
M  V30 1795 C 167.844 -0.401333 -4.22197 0
M  V30 1796 N 168.235 -1.49848 -4.83093 0
M  V30 1797 C 166.533 -0.195167 -4.45573 0
M  V30 1798 C 167.234 -2.0425 -5.44662 0
M  V30 1799 N 166.21 -1.33843 -5.26865 0
M  V30 1800 H 170.012 -1.1493 -2.70496 0
M  V30 1801 H 167.526 -0.726458 -1.45246 0
M  V30 1802 H 169.523 0.902582 -4.07012 0
M  V30 1803 H 168.183 1.31577 -2.96846 0
M  V30 1804 H 169.194 -1.88137 -4.82519 0
M  V30 1805 H 165.871 0.604192 -4.13105 0
M  V30 1806 H 167.261 -2.96345 -6.03017 0
M  V30 1807 N 169.982 1.44106 -0.638065 0
M  V30 1808 C 170.932 2.27843 0.0847285 0
M  V30 1809 C 171.916 1.39055 0.809471 0
M  V30 1810 O 173.108 1.62808 0.694435 0
M  V30 1811 C 170.237 3.26497 1.06089 0
M  V30 1812 C 169.323 4.22772 0.33541 0
M  V30 1813 N 169.714 5.01737 -0.639787 0
M  V30 1814 C 168.012 4.42227 0.578921 0
M  V30 1815 C 168.713 5.71792 -1.06904 0
M  V30 1816 N 167.689 5.42079 -0.406395 0
M  V30 1817 H 171.491 2.86305 -0.663814 0
M  V30 1818 H 169.005 1.55627 -0.464122 0
M  V30 1819 H 171.002 3.8525 1.59337 0
M  V30 1820 H 169.662 2.69595 1.80966 0
M  V30 1821 H 170.673 5.07799 -1.01789 0
M  V30 1822 H 167.35 3.96415 1.31003 0
M  V30 1823 H 168.74 6.45205 -1.8751 0
M  V30 1824 N 171.46 0.379036 1.52974 0
M  V30 1825 C 172.707 -0.206421 2.01445 0
M  V30 1826 C 173.035 -1.47668 1.26587 0
M  V30 1827 O 172.29 -1.92514 0.351675 0
M  V30 1828 C 172.589 -0.53096 3.53434 0
M  V30 1829 C 172.255 0.646546 4.46241 0
M  V30 1830 C 170.917 0.969604 4.7133 0
M  V30 1831 C 173.269 1.43479 5.01062 0
M  V30 1832 C 170.597 2.08263 5.48492 0
M  V30 1833 C 172.949 2.53834 5.7944 0
M  V30 1834 C 171.613 2.86659 6.02812 0
M  V30 1835 H 170.883 -0.0755349 0.73714 0
M  V30 1836 H 173.53 0.514271 1.84465 0
M  V30 1837 H 171.835 -1.33285 3.68432 0
M  V30 1838 H 173.532 -0.996417 3.88423 0
M  V30 1839 H 170.122 0.384734 4.2687 0
M  V30 1840 H 174.306 1.19844 4.81613 0
M  V30 1841 H 169.562 2.34078 5.64816 0
M  V30 1842 H 173.736 3.15319 6.20924 0
M  V30 1843 H 171.363 3.73026 6.62387 0
M  V30 1844 N 172.938 -1.57226 0.108567 0
M  V30 1845 C 174.215 -1.86333 -0.594939 0
M  V30 1846 C 174.595 -1.00788 -1.85486 0
M  V30 1847 O 173.943 -0.0839293 -2.28346 0
M  V30 1848 C 174.153 -3.37265 -0.897405 0
M  V30 1849 C 175.501 -4.05629 -1.25501 0
M  V30 1850 O 176.525 -3.42224 -0.987998 0
M  V30 1851 O 175.384 -5.17531 -1.75567 0
M  V30 1852 H 172.478 -0.771018 -0.2991 0
M  V30 1853 H 175.024 -1.69102 0.142283 0
M  V30 1854 H 173.796 -3.913 -0.00413806 0
M  V30 1855 H 173.419 -3.59889 -1.69014 0
M  V30 1856 N 174.416 0.165178 -1.56732 0
M  V30 1857 C 175.644 0.896218 -1.86482 0
M  V30 1858 C 176.059 1.75555 -0.694675 0
M  V30 1859 O 175.416 1.79379 0.33607 0
M  V30 1860 C 175.467 1.76792 -3.1532 0
M  V30 1861 O 175.188 0.943239 -4.27825 0
M  V30 1862 C 176.689 2.6081 -3.58459 0
M  V30 1863 H 173.909 0.260064 -0.618553 0
M  V30 1864 H 176.453 0.163428 -2.03846 0
M  V30 1865 H 174.608 2.45398 -2.99764 0
M  V30 1866 H 175.022 1.53998 -5.01383 0
M  V30 1867 H 176.496 3.17579 -4.51495 0
M  V30 1868 H 176.973 3.35977 -2.82872 0
M  V30 1869 H 177.579 1.97526 -3.76648 0
M  V30 1870 N 175.894 1.51508 0.433938 0
M  V30 1871 C 177.305 1.56784 1.01369 0
M  V30 1872 C 177.656 0.393349 1.92217 0
M  V30 1873 O 176.781 -0.489441 2.10792 0
M  V30 1874 C 177.376 2.84144 1.8452 0
M  V30 1875 C 175.935 2.9198 2.37539 0
M  V30 1876 C 175.082 2.51482 1.16843 0
M  V30 1877 H 178.033 1.57236 0.215081 0
M  V30 1878 H 178.054 2.68098 2.70007 0
M  V30 1879 H 177.566 3.69607 1.18373 0
M  V30 1880 H 175.667 2.10955 3.0713 0
M  V30 1881 H 175.78 3.95704 2.70103 0
M  V30 1882 H 174.144 2.04758 1.51481 0
M  V30 1883 H 174.927 3.39293 0.523015 0
M  V30 1884 N 177.372 -0.689602 1.41712 0
M  V30 1885 C 178.282 -1.83314 1.46401 0
M  V30 1886 C 179.298 -1.7036 0.35405 0
M  V30 1887 O 180.474 -1.92171 0.602692 0
M  V30 1888 C 177.539 -3.19344 1.34982 0
M  V30 1889 C 176.6 -3.44363 2.56344 0
M  V30 1890 C 175.833 -4.73904 2.45461 0
M  V30 1891 O 176.056 -5.508 1.48241 0
M  V30 1892 O 174.99 -4.99839 3.35328 0
M  V30 1893 H 178.816 -1.82314 2.42889 0
M  V30 1894 H 176.401 -0.843438 1.23315 0
M  V30 1895 H 178.283 -4.00547 1.3092 0
M  V30 1896 H 176.958 -3.21014 0.41612 0
M  V30 1897 H 175.865 -2.63067 2.65982 0
M  V30 1898 H 177.198 -3.47512 3.48563 0
M  V30 1899 N 178.85 -1.27639 -0.924453 0
M  V30 1900 C 179.813 -1.10681 -2.00705 0
M  V30 1901 C 180.813 -0.0497823 -1.60723 0
M  V30 1902 O 182.003 -0.294654 -1.7169 0
M  V30 1903 C 179.135 -0.687164 -3.33902 0
M  V30 1904 H 180.328 -2.06817 -2.17179 0
M  V30 1905 H 177.881 -1.10473 -1.10569 0
M  V30 1906 H 178.616 0.275439 -3.23128 0
M  V30 1907 H 178.401 -1.45061 -3.6428 0
M  V30 1908 H 179.891 -0.590853 -4.13399 0
M  V30 1909 N 180.328 1.1314 -1.09713 0
M  V30 1910 C 181.258 2.20748 -0.761102 0
M  V30 1911 C 182.239 1.68061 0.262566 0
M  V30 1912 O 183.424 1.93765 0.129977 0
M  V30 1913 C 180.554 3.46812 -0.184054 0
M  V30 1914 C 179.508 4.12606 -1.13757 0
M  V30 1915 C 178.834 5.33031 -0.422083 0
M  V30 1916 C 180.134 4.59603 -2.48118 0
M  V30 1917 H 181.828 2.49113 -1.66082 0
M  V30 1918 H 179.374 1.19734 -0.799987 0
M  V30 1919 H 181.327 4.21353 0.0631215 0
M  V30 1920 H 180.051 3.17851 0.750868 0
M  V30 1921 H 178.71 3.40036 -1.37007 0
M  V30 1922 H 178.358 5.00335 0.517072 0
M  V30 1923 H 178.058 5.77999 -1.05788 0
M  V30 1924 H 179.582 6.10325 -0.183277 0
M  V30 1925 H 180.996 5.25552 -2.29059 0
M  V30 1926 H 179.393 5.15321 -3.07514 0
M  V30 1927 H 180.463 3.73971 -3.08665 0
M  V30 1928 N 181.806 0.884767 1.30421 0
M  V30 1929 C 182.756 0.322846 2.25703 0
M  V30 1930 C 183.74 -0.548582 1.51259 0
M  V30 1931 O 184.932 -0.39304 1.72581 0
M  V30 1932 C 182.061 -0.461787 3.4018 0
M  V30 1933 C 181.147 0.423717 4.21978 0
M  V30 1934 N 181.538 1.52408 4.82292 0
M  V30 1935 C 179.836 0.218795 4.45463 0
M  V30 1936 C 180.537 2.07136 5.43571 0
M  V30 1937 N 179.513 1.36635 5.26148 0
M  V30 1938 H 183.315 1.16363 2.69883 0
M  V30 1939 H 180.829 0.73415 1.44859 0
M  V30 1940 H 182.826 -0.880985 4.07485 0
M  V30 1941 H 181.486 -1.30001 2.9754 0
M  V30 1942 H 182.497 1.90693 4.81515 0
M  V30 1943 H 179.174 -0.582275 4.1342 0
M  V30 1944 H 180.564 2.99538 6.01437 0
M  V30 1945 N 183.284 -1.43765 0.645699 0
M  V30 1946 C 184.509 -2.06767 0.161883 0
M  V30 1947 C 184.934 -1.48034 -1.16049 0
M  V30 1948 O 184.292 -0.587369 -1.71522 0
M  V30 1949 C 184.34 -3.60519 0.0762003 0
M  V30 1950 O 183.444 -4.00982 -0.963721 0
M  V30 1951 H 182.785 -0.657675 0.091429 0
M  V30 1952 H 185.315 -1.84397 0.886499 0
M  V30 1953 H 185.325 -4.07853 -0.109604 0
M  V30 1954 H 184 -4.02646 1.04157 0
M  V30 1955 H 182.577 -3.65253 -0.751312 0
M  V30 1956 N 184.763 -0.387143 -1.52771 0
M  V30 1957 C 185.711 0.463953 -2.27926 0
M  V30 1958 C 186.705 1.06493 -1.31741 0
M  V30 1959 O 187.911 1.00565 -1.49287 0
M  V30 1960 H 184.286 0.16837 -0.732909 0
M  V30 1961 H 186.257 -0.19141 -2.97785 0
M  V30 1962 C 185.006 1.5803 -3.09713 0
M  V30 1963 H 184.329 1.12718 -3.83581 0
M  V30 1964 H 185.769 2.15008 -3.65442 0
M  V30 1965 C 184.228 2.53509 -2.2189 0
M  V30 1966 O 184.758 3.56863 -1.84422 0
M  V30 1967 N 182.964 2.23199 -1.86093 0
M  V30 1968 H 182.511 1.39185 -2.16761 0
M  V30 1969 H 182.469 2.87333 -1.27621 0
M  V30 1970 N 186.241 1.57166 -0.116904 0
M  V30 1971 C 187.489 1.94737 0.540533 0
M  V30 1972 C 187.81 1.00096 1.67349 0
M  V30 1973 O 187.08 0.0568854 1.95817 0
M  V30 1974 H 185.66 0.718981 0.202669 0
M  V30 1975 H 188.322 1.94017 -0.185353 0
M  V30 1976 H 187.418 2.97719 0.936483 0
M  V30 1977 N 187.719 -0.156864 1.56817 0
M  V30 1978 C 188.996 -0.899244 1.73704 0
M  V30 1979 C 189.376 -1.99771 0.682254 0
M  V30 1980 O 188.724 -2.26515 -0.300522 0
M  V30 1981 C 188.934 -1.45075 3.17418 0
M  V30 1982 C 190.282 -1.91802 3.7881 0
M  V30 1983 O 191.306 -1.54838 3.20786 0
M  V30 1984 O 190.165 -2.5994 4.80722 0
M  V30 1985 H 187.259 -0.424267 0.709878 0
M  V30 1986 H 189.805 -0.143561 1.69092 0
M  V30 1987 H 188.577 -0.660846 3.85679 0
M  V30 1988 H 188.2 -2.27021 3.26416 0
M  V30 1989 N 189.197 -1.51736 -0.425897 0
M  V30 1990 C 190.444 -1.6497 -1.17436 0
M  V30 1991 C 190.772 -0.371445 -1.9092 0
M  V30 1992 O 190.027 0.644963 -1.84767 0
M  V30 1993 C 190.326 -2.81103 -2.20717 0
M  V30 1994 C 189.992 -4.19954 -1.64162 0
M  V30 1995 C 188.654 -4.57725 -1.48462 0
M  V30 1996 C 191.006 -5.06552 -1.22696 0
M  V30 1997 C 188.334 -5.79789 -0.897873 0
M  V30 1998 C 190.686 -6.29205 -0.654464 0
M  V30 1999 C 189.35 -6.6574 -0.484456 0
M  V30 2000 H 188.62 -0.603668 -0.429727 0
M  V30 2001 H 191.267 -1.85798 -0.463829 0
M  V30 2002 H 189.572 -2.54542 -2.97852 0
M  V30 2003 H 191.269 -2.8854 -2.78471 0
M  V30 2004 H 187.859 -3.90181 -1.77361 0
M  V30 2005 H 192.043 -4.77968 -1.33642 0
M  V30 2006 H 187.299 -6.06733 -0.75402 0
M  V30 2007 H 191.473 -6.95643 -0.324694 0
M  V30 2008 H 189.1 -7.60195 -0.0276833 0
M  V30 2009 N 190.675 0.682077 -1.42076 0
M  V30 2010 C 191.605 1.80796 -1.47767 0
M  V30 2011 C 192.586 1.6677 -0.334954 0
M  V30 2012 O 193.771 1.863 -0.548264 0
M  V30 2013 C 190.901 3.19038 -1.37229 0
M  V30 2014 C 189.855 3.47789 -2.49453 0
M  V30 2015 C 189.181 4.8553 -2.23975 0
M  V30 2016 C 190.481 3.45411 -3.91776 0
M  V30 2017 H 192.175 1.7629 -2.41997 0
M  V30 2018 H 189.721 0.846721 -1.16476 0
M  V30 2019 H 191.674 3.97528 -1.39821 0
M  V30 2020 H 190.398 3.24204 -0.394907 0
M  V30 2021 H 189.057 2.71657 -2.46166 0
M  V30 2022 H 188.705 4.87337 -1.24547 0
M  V30 2023 H 188.405 5.0573 -2.99184 0
M  V30 2024 H 189.929 5.66312 -2.28304 0
M  V30 2025 H 191.343 4.13882 -3.96705 0
M  V30 2026 H 189.74 3.77145 -4.66778 0
M  V30 2027 H 190.81 2.44122 -4.18966 0
M  V30 2028 N 192.153 1.28127 0.917671 0
M  V30 2029 C 193.101 1.11569 2.04096 0
M  V30 2030 C 194.095 0.0360242 1.69362 0
M  V30 2031 O 195.301 0.194501 1.78946 0
M  V30 2032 H 191.676 0.344097 0.668656 0
M  V30 2033 H 193.647 2.06711 2.15205 0
M  V30 2034 C 192.396 0.790197 3.38602 0
M  V30 2035 H 191.719 1.61293 3.6582 0
M  V30 2036 H 193.159 0.714271 4.1794 0
M  V30 2037 C 191.618 -0.505897 3.3308 0
M  V30 2038 O 192.148 -1.53736 3.71117 0
M  V30 2039 N 190.354 -0.505193 2.86175 0
M  V30 2040 H 189.901 0.334621 2.55417 0
M  V30 2041 H 189.859 -1.37243 2.82863 0
M  V30 2042 N 193.631 -1.12557 1.10312 0
M  V30 2043 C 195.047 -1.36036 0.834649 0
M  V30 2044 C 195.247 -1.93946 -0.546539 0
M  V30 2045 O 194.303 -2.16484 -1.29966 0
M  V30 2046 C 195.616 -2.30312 1.9333 0
M  V30 2047 C 197.164 -2.43906 1.9616 0
M  V30 2048 C 197.639 -3.41496 3.05195 0
M  V30 2049 N 199.13 -3.49053 3.04494 0
M  V30 2050 C 199.865 -4.24471 3.85502 0
M  V30 2051 N 199.361 -5.02966 4.76442 0
M  V30 2052 N 201.154 -4.19864 3.73725 0
M  V30 2053 H 193.305 -0.733246 1.99342 0
M  V30 2054 H 195.568 -0.385234 0.866198 0
M  V30 2055 H 195.274 -1.94933 2.92735 0
M  V30 2056 H 195.148 -3.30421 1.81939 0
M  V30 2057 H 197.535 -2.78567 0.973886 0
M  V30 2058 H 197.616 -1.4369 2.11629 0
M  V30 2059 H 197.26 -3.07565 4.04186 0
M  V30 2060 H 197.19 -4.41539 2.86968 0
M  V30 2061 H 199.681 -2.93053 2.38596 0
M  V30 2062 H 199.994 -5.57846 5.34815 0
M  V30 2063 H 198.339 -5.02167 4.80472 0
M  V30 2064 H 201.53 -3.57623 3.02032 0
M  V30 2065 H 201.703 -4.78386 4.37093 0
M  V30 2066 N 195.109 -0.891671 -1.2995 0
M  V30 2067 C 196.019 -0.367691 -2.31701 0
M  V30 2068 C 197.035 0.533486 -1.6562 0
M  V30 2069 O 198.211 0.424997 -1.96865 0
M  V30 2070 C 195.276 0.403406 -3.44345 0
M  V30 2071 C 194.337 -0.528328 -4.26037 0
M  V30 2072 C 193.57 0.206063 -5.33302 0
M  V30 2073 O 193.793 1.43119 -5.52153 0
M  V30 2074 O 192.727 -0.447281 -6.00236 0
M  V30 2075 H 196.553 -1.21163 -2.78484 0
M  V30 2076 H 194.138 -0.655725 -1.34241 0
M  V30 2077 H 196.02 0.839753 -4.12948 0
M  V30 2078 H 194.695 1.22354 -2.99685 0
M  V30 2079 H 193.602 -1.01362 -3.60106 0
M  V30 2080 H 194.935 -1.31465 -4.74318 0
M  V30 2081 N 196.587 1.43421 -0.653314 0
M  V30 2082 C 197.535 2.32546 0.0501531 0
M  V30 2083 C 198.529 1.48617 0.812985 0
M  V30 2084 O 199.735 1.64825 0.723375 0
M  V30 2085 H 196.11 0.751185 0.0350032 0
M  V30 2086 H 198.081 2.89602 -0.719261 0
M  V30 2087 C 196.83 3.32925 1.00279 0
M  V30 2088 H 196.153 3.97532 0.425236 0
M  V30 2089 H 197.593 3.9792 1.46409 0
M  V30 2090 C 196.052 2.63532 2.09886 0
M  V30 2091 O 196.582 2.45092 3.18265 0
M  V30 2092 N 194.788 2.22905 1.86445 0
M  V30 2093 H 194.335 2.38103 0.98309 0
M  V30 2094 H 194.293 1.76805 2.59976 0
M  V30 2095 N 198.065 0.39524 1.52563 0
M  V30 2096 C 199.314 -0.186321 2.00838 0
M  V30 2097 C 199.627 -1.47402 1.28577 0
M  V30 2098 O 200.833 -2.13599 1.67593 0
M  V30 2099 C 199.289 -0.382595 3.57861 0
M  V30 2100 C 198.897 0.892202 4.39026 0
M  V30 2101 C 200.641 -0.9202 4.14406 0
M  V30 2102 C 198.548 0.66388 5.87662 0
M  V30 2103 H 197.478 -0.0734041 0.750418 0
M  V30 2104 H 200.129 0.518552 1.76021 0
M  V30 2105 H 198.511 -1.14946 3.7895 0
M  V30 2106 H 199.685 1.66414 4.29701 0
M  V30 2107 H 198 1.35519 3.9373 0
M  V30 2108 H 200.597 -1.10683 5.23119 0
M  V30 2109 H 200.94 -1.89096 3.70875 0
M  V30 2110 H 201.473 -0.212751 3.97231 0
M  V30 2111 H 198.212 1.6058 6.35527 0
M  V30 2112 H 197.732 -0.0690193 5.9976 0
M  V30 2113 H 199.411 0.300699 6.46301 0
M  V30 2114 N 199.544 -1.57102 0.125237 0
M  V30 2115 C 200.454 -2.19191 -0.8362 0
M  V30 2116 C 201.47 -1.16985 -1.28805 0
M  V30 2117 O 202.646 -1.49479 -1.34974 0
M  V30 2118 C 199.711 -2.78407 -2.06617 0
M  V30 2119 C 198.772 -3.9567 -1.66565 0
M  V30 2120 C 198.005 -4.52052 -2.83698 0
M  V30 2121 O 198.228 -4.07326 -3.99302 0
M  V30 2122 O 197.162 -5.42645 -2.60423 0
M  V30 2123 H 200.988 -3.01816 -0.337776 0
M  V30 2124 H 198.573 -1.4906 -0.100695 0
M  V30 2125 H 200.455 -3.16129 -2.7864 0
M  V30 2126 H 199.13 -1.9881 -2.55453 0
M  V30 2127 H 198.037 -3.62705 -0.916296 0
M  V30 2128 H 199.37 -4.76722 -1.22464 0
M  V30 2129 N 201.022 0.148545 -1.56898 0
M  V30 2130 C 201.972 1.1886 -1.94567 0
M  V30 2131 C 202.956 1.3863 -0.816735 0
M  V30 2132 O 204.148 1.40218 -1.08018 0
M  V30 2133 C 201.277 2.52262 -2.32849 0
M  V30 2134 C 200.363 2.36092 -3.52309 0
M  V30 2135 N 200.754 1.89674 -4.6889 0
M  V30 2136 C 199.052 2.66848 -3.57363 0
M  V30 2137 C 199.753 1.86511 -5.50989 0
M  V30 2138 N 198.729 2.29766 -4.92655 0
M  V30 2139 H 202.531 0.821793 -2.82177 0
M  V30 2140 H 200.045 0.356615 -1.58436 0
M  V30 2141 H 202.042 3.27447 -2.58039 0
M  V30 2142 H 200.702 2.89727 -1.46589 0
M  V30 2143 H 201.713 1.59663 -4.92674 0
M  V30 2144 H 198.39 3.08198 -2.81639 0
M  V30 2145 H 199.78 1.52128 -6.54452 0
M  V30 2146 N 202.5 1.5196 0.417844 0
M  V30 2147 C 203.747 1.65591 1.16559 0
M  V30 2148 C 204.075 0.381565 1.90721 0
M  V30 2149 O 203.33 -0.635156 1.85106 0
M  V30 2150 C 203.629 2.82269 2.19223 0
M  V30 2151 C 203.295 4.20819 1.61933 0
M  V30 2152 C 201.957 4.58506 1.46033 0
M  V30 2153 C 204.309 5.07196 1.20008 0
M  V30 2154 C 201.637 5.80257 0.867113 0
M  V30 2155 C 203.989 6.29544 0.621086 0
M  V30 2156 C 202.653 6.65987 0.449144 0
M  V30 2157 H 201.923 0.605939 0.42652 0
M  V30 2158 H 204.57 1.86041 0.45397 0
M  V30 2159 H 202.875 2.56118 2.96498 0
M  V30 2160 H 204.572 2.90012 2.76936 0
M  V30 2161 H 201.162 3.91116 1.7529 0
M  V30 2162 H 205.346 4.7867 1.31105 0
M  V30 2163 H 200.602 6.07124 0.721833 0
M  V30 2164 H 204.776 6.95805 0.287798 0
M  V30 2165 H 202.403 7.60199 -0.012632 0
M  V30 2166 N 203.978 -0.674533 1.42435 0
M  V30 2167 C 205.227 -1.43034 1.42212 0
M  V30 2168 C 205.54 -1.95555 0.0420788 0
M  V30 2169 O 206.746 -2.71374 -0.0827558 0
M  V30 2170 C 205.202 -2.58748 2.50155 0
M  V30 2171 C 204.81 -2.12925 3.94166 0
M  V30 2172 C 206.554 -3.36257 2.59098 0
M  V30 2173 C 204.461 -3.25723 4.93618 0
M  V30 2174 H 203.391 -0.537345 0.528939 0
M  V30 2175 H 206.042 -0.73024 1.68344 0
M  V30 2176 H 204.424 -3.31128 2.17188 0
M  V30 2177 H 205.598 -1.47697 4.36488 0
M  V30 2178 H 203.913 -1.48354 3.89076 0
M  V30 2179 H 206.51 -4.20264 3.30578 0
M  V30 2180 H 206.853 -3.82866 1.63461 0
M  V30 2181 H 207.386 -2.70947 2.9126 0
M  V30 2182 H 204.125 -2.84105 5.90732 0
M  V30 2183 H 203.645 -3.89732 4.55926 0
M  V30 2184 H 205.324 -3.91186 5.15347 0
M  V30 2185 N 205.456 -1.28612 -0.910864 0
M  V30 2186 C 206.733 -1.06632 -1.63979 0
M  V30 2187 C 207.113 0.393351 -2.07403 0
M  V30 2188 O 206.461 1.37999 -1.82122 0
M  V30 2189 C 206.671 -2.0436 -2.8291 0
M  V30 2190 C 208.019 -2.34666 -3.5386 0
M  V30 2191 O 209.043 -2.02467 -2.93062 0
M  V30 2192 O 207.902 -2.89631 -4.63439 0
M  V30 2193 H 204.996 -0.407737 -0.7195 0
M  V30 2194 H 207.542 -1.39942 -0.959914 0
M  V30 2195 H 206.314 -3.02727 -2.47936 0
M  V30 2196 H 205.937 -1.71714 -3.58609 0
M  V30 2197 N 206.934 1.1197 -1.10907 0
M  V30 2198 C 208.164 1.8713 -0.875553 0
M  V30 2199 C 208.572 1.8016 0.577843 0
M  V30 2200 O 207.915 1.17699 1.41042 0
M  V30 2201 C 207.977 3.37005 -1.2517 0
M  V30 2202 C 207.641 3.67748 -2.71313 0
M  V30 2203 C 208.638 3.65698 -3.69542 0
M  V30 2204 C 206.323 3.96928 -3.07821 0
M  V30 2205 C 208.317 3.92395 -5.023 0
M  V30 2206 C 206.004 4.23284 -4.40765 0
M  V30 2207 C 207.002 4.21005 -5.37814 0
M  V30 2208 O 206.69 4.46704 -6.68364 0
M  V30 2209 H 206.422 0.598786 -0.313737 0
M  V30 2210 H 208.976 1.42568 -1.47863 0
M  V30 2211 H 207.206 3.82146 -0.591741 0
M  V30 2212 H 208.895 3.93519 -0.994877 0
M  V30 2213 H 209.661 3.43211 -3.42682 0
M  V30 2214 H 205.54 3.97841 -2.32902 0
M  V30 2215 H 209.084 3.90531 -5.78041 0
M  V30 2216 H 204.981 4.45246 -4.67361 0
M  V30 2217 H 205.749 4.64299 -6.74069 0
M  V30 2218 N 208.412 0.89855 1.29475 0
M  V30 2219 C 209.375 0.380272 2.26023 0
M  V30 2220 C 210.375 -0.484891 1.53315 0
M  V30 2221 O 211.565 -0.290108 1.71767 0
M  V30 2222 C 208.697 -0.45651 3.3783 0
M  V30 2223 H 209.89 1.23295 2.73383 0
M  V30 2224 H 207.443 0.676589 1.40897 0
M  V30 2225 H 208.178 -1.32922 2.95808 0
M  V30 2226 H 207.963 0.163393 3.91759 0
M  V30 2227 H 209.453 -0.810466 4.0966 0
M  V30 2228 N 209.89 -1.43072 0.660911 0
M  V30 2229 C 210.853 -2.29194 -0.0166406 0
M  V30 2230 C 211.853 -1.42609 -0.742912 0
M  V30 2231 O 213.043 -1.64155 -0.583004 0
M  V30 2232 C 210.175 -3.24831 -1.0343 0
M  V30 2233 H 211.368 -2.90596 0.741208 0
M  V30 2234 H 208.921 -1.5048 0.422532 0
M  V30 2235 H 209.656 -2.68339 -1.82111 0
M  V30 2236 H 209.441 -3.88676 -0.517082 0
M  V30 2237 H 210.931 -3.89451 -1.50723 0
M  V30 2238 N 211.368 -0.403325 -1.52352 0
M  V30 2239 C 212.615 0.174347 -2.01748 0
M  V30 2240 C 212.943 1.45636 -1.2892 0
M  V30 2241 O 212.198 1.9193 -0.382258 0
M  V30 2242 C 212.497 0.474665 -3.54234 0
M  V30 2243 C 212.163 -0.717458 -4.45155 0
M  V30 2244 C 210.825 -1.04447 -4.69728 0
M  V30 2245 C 213.177 -1.51432 -4.98716 0
M  V30 2246 C 210.505 -2.16963 -5.45109 0
M  V30 2247 C 212.857 -2.6302 -5.75329 0
M  V30 2248 C 211.521 -2.96213 -5.98175 0
M  V30 2249 H 210.791 0.0637981 -0.738248 0
M  V30 2250 H 213.438 -0.543553 -1.83624 0
M  V30 2251 H 211.743 1.27406 -3.70506 0
M  V30 2252 H 213.44 0.934496 -3.89959 0
M  V30 2253 H 210.03 -0.452596 -4.26204 0
M  V30 2254 H 214.214 -1.27491 -4.79645 0
M  V30 2255 H 209.47 -2.43034 -5.61021 0
M  V30 2256 H 213.644 -3.25158 -6.15829 0
M  V30 2257 H 211.271 -3.83516 -6.56368 0
M  V30 2258 N 212.846 1.57033 -0.133567 0
M  V30 2259 C 214.086 1.97575 0.523789 0
M  V30 2260 C 214.45 1.01605 1.62912 0
M  V30 2261 O 215.651 1.3114 2.3464 0
M  V30 2262 C 213.922 3.42256 1.02935 0
M  V30 2263 S 215.481 4.04817 1.69319 0
M  V30 2264 H 212.299 0.690427 0.169799 0
M  V30 2265 H 214.901 1.94234 -0.222101 0
M  V30 2266 H 213.605 4.09842 0.213917 0
M  V30 2267 H 213.136 3.4928 1.81017 0
M  V30 2268 H 215.151 3.96767 2.97977 0
M  V30 2269 N 214.325 -0.140222 1.56975 0
M  V30 2270 C 215.572 -0.851687 1.83719 0
M  V30 2271 C 215.9 -1.80862 0.715485 0
M  V30 2272 O 215.155 -1.93464 -0.294956 0
M  V30 2273 C 215.454 -1.65386 3.16832 0
M  V30 2274 C 215.12 -0.843112 4.42947 0
M  V30 2275 C 213.782 -0.619464 4.77196 0
M  V30 2276 C 216.134 -0.276582 5.20466 0
M  V30 2277 C 213.462 0.181312 5.8642 0
M  V30 2278 C 215.814 0.51127 6.30531 0
M  V30 2279 C 214.478 0.745432 6.63325 0
M  V30 2280 H 213.748 -0.311654 0.672274 0
M  V30 2281 H 216.395 -0.115006 1.91154 0
M  V30 2282 H 214.7 -2.46084 3.04877 0
M  V30 2283 H 216.397 -2.20793 3.34741 0
M  V30 2284 H 212.987 -1.0275 4.16101 0
M  V30 2285 H 217.171 -0.436632 4.94376 0
M  V30 2286 H 212.427 0.372165 6.10266 0
M  V30 2287 H 216.601 0.957354 6.89788 0
M  V30 2288 H 214.228 1.36778 7.47794 0
M  V30 2289 N 215.803 -1.52179 -0.40978 0
M  V30 2290 C 216.713 -1.78364 -1.52392 0
M  V30 2291 C 217.729 -0.669183 -1.60617 0
M  V30 2292 O 218.905 -0.954518 -1.77344 0
M  V30 2293 C 215.97 -1.92822 -2.88133 0
M  V30 2294 C 215.031 -3.16725 -2.898 0
M  V30 2295 C 214.264 -3.30483 -4.19067 0
M  V30 2296 O 214.487 -2.49522 -5.12928 0
M  V30 2297 O 213.421 -4.2363 -4.27576 0
M  V30 2298 H 217.247 -2.72931 -1.33201 0
M  V30 2299 H 214.832 -1.37016 -0.59557 0
M  V30 2300 H 216.714 -2.04157 -3.68643 0
M  V30 2301 H 215.389 -1.01444 -3.07393 0
M  V30 2302 H 214.296 -3.10848 -2.08146 0
M  V30 2303 H 215.629 -4.07881 -2.75489 0
M  V30 2304 N 217.281 0.66697 -1.42791 0
M  V30 2305 C 218.191 1.80962 -1.49299 0
M  V30 2306 C 219.207 1.69775 -0.381108 0
M  V30 2307 O 220.383 1.91188 -0.633188 0
M  V30 2308 C 217.448 3.17156 -1.40045 0
M  V30 2309 C 216.509 3.40242 -2.6179 0
M  V30 2310 C 215.742 4.69939 -2.52969 0
M  V30 2311 O 215.965 5.48372 -1.56985 0
M  V30 2312 O 214.899 4.94441 -3.43237 0
M  V30 2313 H 218.725 1.78427 -2.45759 0
M  V30 2314 H 216.31 0.823713 -1.24641 0
M  V30 2315 H 218.192 3.98413 -1.37276 0
M  V30 2316 H 216.867 3.20312 -0.467138 0
M  V30 2317 H 215.774 2.58802 -2.70134 0
M  V30 2318 H 217.107 3.41923 -3.54047 0
M  V30 2319 N 218.759 1.29093 0.90403 0
M  V30 2320 C 220.006 1.16813 1.65411 0
M  V30 2321 C 220.334 -0.28128 1.92455 0
M  V30 2322 O 219.589 -1.22006 1.53013 0
M  V30 2323 C 219.888 1.92224 3.01305 0
M  V30 2324 C 219.554 3.41968 2.93885 0
M  V30 2325 C 218.216 3.82807 2.91569 0
M  V30 2326 C 220.568 4.37409 2.83413 0
M  V30 2327 C 217.896 5.1741 2.76594 0
M  V30 2328 C 220.248 5.72097 2.69977 0
M  V30 2329 C 218.912 6.12199 2.66024 0
M  V30 2330 H 218.182 0.42745 0.605283 0
M  V30 2331 H 220.829 1.59981 1.05254 0
M  V30 2332 H 219.134 1.41635 3.65304 0
M  V30 2333 H 220.831 1.80131 3.58265 0
M  V30 2334 H 217.421 3.09504 2.96488 0
M  V30 2335 H 221.605 4.06813 2.84283 0
M  V30 2336 H 216.861 5.47596 2.71935 0
M  V30 2337 H 221.035 6.45704 2.60844 0
M  V30 2338 H 218.662 7.16448 2.54178 0
M  V30 2339 N 220.237 -1.11381 1.11499 0
M  V30 2340 C 221.648 -1.6465 0.880191 0
M  V30 2341 C 221.999 -1.87199 -0.587434 0
M  V30 2342 O 221.124 -1.60667 -1.44966 0
M  V30 2343 C 221.719 -2.99105 1.59128 0
M  V30 2344 C 220.278 -3.49279 1.40289 0
M  V30 2345 C 219.425 -2.24077 1.63354 0
M  V30 2346 H 222.376 -0.950123 1.27116 0
M  V30 2347 H 222.397 -3.66107 1.03664 0
M  V30 2348 H 221.909 -2.82661 2.65941 0
M  V30 2349 H 220.01 -3.70887 0.356888 0
M  V30 2350 H 220.123 -4.2803 2.15238 0
M  V30 2351 H 218.487 -2.31733 1.05698 0
M  V30 2352 H 219.27 -2.10175 2.71443 0
M  V30 2353 N 221.715 -0.905404 -1.28997 0
M  V30 2354 C 222.625 -0.392246 -2.31298 0
M  V30 2355 C 223.641 0.515889 -1.66176 0
M  V30 2356 O 224.817 0.404093 -1.97304 0
M  V30 2357 C 221.882 0.36686 -3.44754 0
M  V30 2358 C 220.943 -0.573485 -4.25452 0
M  V30 2359 C 220.176 0.149488 -5.33491 0
M  V30 2360 O 220.399 1.37255 -5.5364 0
M  V30 2361 O 219.333 -0.510919 -5.99728 0
M  V30 2362 H 223.159 -1.2411 -2.77183 0
M  V30 2363 H 220.744 -0.669926 -1.33538 0
M  V30 2364 H 222.626 0.795907 -4.13816 0
M  V30 2365 H 221.301 1.19169 -3.00966 0
M  V30 2366 H 220.208 -1.05176 -3.59011 0
M  V30 2367 H 221.541 -1.36489 -4.72897 0
M  V30 2368 N 223.193 1.4272 -0.668489 0
M  V30 2369 C 224.439 2.01923 -0.188419 0
M  V30 2370 C 224.772 1.52704 1.19979 0
M  V30 2371 O 224.047 0.726566 1.8042 0
M  V30 2372 C 224.33 3.59451 -0.216085 0
M  V30 2373 C 224.183 4.18864 -1.6393 0
M  V30 2374 C 225.502 4.37903 0.439179 0
M  V30 2375 H 222.621 0.733674 -0.0699412 0
M  V30 2376 H 225.263 1.69822 -0.852076 0
M  V30 2377 H 223.413 3.86929 0.349012 0
M  V30 2378 H 225.085 4.02362 -2.25616 0
M  V30 2379 H 223.328 3.74933 -2.18193 0
M  V30 2380 H 223.999 5.27987 -1.61039 0
M  V30 2381 H 226.475 4.16079 -0.0417878 0
M  V30 2382 H 225.351 5.47519 0.389157 0
M  V30 2383 H 225.612 4.15303 1.51577 0
M  V30 2384 N 224.671 0.411399 1.52136 0
M  V30 2385 C 225.619 -0.427633 2.28635 0
M  V30 2386 C 226.613 -1.04383 1.33419 0
M  V30 2387 O 227.819 -0.981772 1.50868 0
M  V30 2388 H 224.194 -0.156689 0.735495 0
M  V30 2389 H 226.165 0.238761 2.97443 0
M  V30 2390 C 224.914 -1.53082 3.12188 0
M  V30 2391 H 224.237 -1.06601 3.85326 0
M  V30 2392 H 225.677 -2.09167 3.68816 0
M  V30 2393 C 224.136 -2.49946 2.25895 0
M  V30 2394 O 224.666 -3.53884 1.90076 0
M  V30 2395 N 222.872 -2.2021 1.8962 0
M  V30 2396 H 222.419 -1.35719 2.18948 0
M  V30 2397 H 222.377 -2.85266 1.32176 0
M  V30 2398 N 226.149 -1.5696 0.141893 0
M  V30 2399 C 227.379 -2.00031 -0.516828 0
M  V30 2400 C 227.787 -1.02091 -1.59293 0
M  V30 2401 O 227.13 -0.00909657 -1.83698 0
M  V30 2402 C 227.192 -3.39534 -1.1814 0
M  V30 2403 C 226.856 -4.56313 -0.250513 0
M  V30 2404 C 227.853 -5.17295 0.519839 0
M  V30 2405 C 225.538 -5.02061 -0.154907 0
M  V30 2406 C 227.532 -6.2243 1.3733 0
M  V30 2407 C 225.219 -6.07053 0.702161 0
M  V30 2408 C 226.217 -6.67106 1.46487 0
M  V30 2409 O 225.905 -7.70066 2.30767 0
M  V30 2410 H 225.637 -0.661451 -0.139493 0
M  V30 2411 H 228.191 -2.04086 0.231926 0
M  V30 2412 H 226.421 -3.32302 -1.97769 0
M  V30 2413 H 228.11 -3.66745 -1.73933 0
M  V30 2414 H 228.876 -4.82852 0.45598 0
M  V30 2415 H 224.755 -4.5505 -0.7383 0
M  V30 2416 H 228.299 -6.69233 1.96909 0
M  V30 2417 H 224.196 -6.40923 0.76733 0
M  V30 2418 H 224.964 -7.87264 2.23959 0
M  V30 2419 N 227.627 0.131896 -1.57047 0
M  V30 2420 C 228.873 0.838268 -1.85323 0
M  V30 2421 C 229.228 1.78098 -0.727937 0
M  V30 2422 O 228.521 1.89645 0.27304 0
M  V30 2423 C 228.715 1.63703 -3.17704 0
M  V30 2424 C 228.544 0.773167 -4.43004 0
M  V30 2425 C 227.314 0.432956 -5.03442 0
M  V30 2426 C 229.512 0.0966216 -5.14209 0
M  V30 2427 N 227.494 -0.442924 -6.123 0
M  V30 2428 C 228.865 -0.638778 -6.16701 0
M  V30 2429 C 230.92 0.018861 -4.97896 0
M  V30 2430 C 229.623 -1.44462 -7.04644 0
M  V30 2431 C 231.649 -0.773762 -5.86316 0
M  V30 2432 C 231.011 -1.4974 -6.883 0
M  V30 2433 H 227.11 0.284086 -0.728573 0
M  V30 2434 H 229.694 0.102731 -1.94429 0
M  V30 2435 H 227.865 2.3437 -3.09718 0
M  V30 2436 H 229.597 2.28774 -3.33833 0
M  V30 2437 H 226.352 0.772237 -4.67262 0
M  V30 2438 H 226.776 -0.872332 -6.71356 0
M  V30 2439 H 231.418 0.56397 -4.19022 0
M  V30 2440 H 229.136 -2.00093 -7.82936 0
M  V30 2441 H 232.722 -0.83612 -5.75761 0
M  V30 2442 H 231.602 -2.10087 -7.55535 0
M  V30 2443 N 229.106 1.52395 0.401703 0
M  V30 2444 C 230.334 1.70676 1.16949 0
M  V30 2445 C 230.749 0.419503 1.8408 0
M  V30 2446 O 230.106 -0.605061 1.72178 0
M  V30 2447 C 230.157 2.84753 2.22706 0
M  V30 2448 O 229.878 4.08495 1.58314 0
M  V30 2449 C 231.379 3.14608 3.12309 0
M  V30 2450 H 228.599 0.571787 0.351142 0
M  V30 2451 H 231.143 1.98987 0.471652 0
M  V30 2452 H 229.298 2.58941 2.88147 0
M  V30 2453 H 229.712 4.72117 2.28485 0
M  V30 2454 H 231.186 3.97923 3.82572 0
M  V30 2455 H 231.663 2.28464 3.75101 0
M  V30 2456 H 232.269 3.42212 2.52529 0
M  V30 2457 N 230.584 -0.659388 1.43143 0
M  V30 2458 C 231.812 -1.44723 1.47861 0
M  V30 2459 C 232.227 -1.88563 0.0945886 0
M  V30 2460 O 231.584 -1.59108 -0.893915 0
M  V30 2461 C 231.635 -2.68627 2.41913 0
M  V30 2462 O 231.356 -2.26623 3.74932 0
M  V30 2463 C 232.857 -3.62045 2.55809 0
M  V30 2464 H 230.077 -0.444801 0.502387 0
M  V30 2465 H 232.621 -0.808916 1.87821 0
M  V30 2466 H 230.776 -3.28613 2.05164 0
M  V30 2467 H 231.19 -3.06745 4.2545 0
M  V30 2468 H 232.664 -4.45666 3.25708 0
M  V30 2469 H 233.141 -4.08981 1.60099 0
M  V30 2470 H 233.747 -3.07944 2.93344 0
M  V30 2471 N 232.062 -1.29571 -0.897171 0
M  V30 2472 C 233.309 -1.17689 -1.6479 0
M  V30 2473 C 233.637 0.27107 -1.92602 0
M  V30 2474 O 232.892 1.21193 -1.53658 0
M  V30 2475 C 233.191 -1.9382 -3.00281 0
M  V30 2476 C 232.857 -3.43522 -2.92068 0
M  V30 2477 C 231.519 -3.84348 -2.89535 0
M  V30 2478 C 233.871 -4.38906 -2.81089 0
M  V30 2479 C 231.199 -5.18869 -2.73846 0
M  V30 2480 C 233.551 -5.73521 -2.66939 0
M  V30 2481 C 232.215 -6.13601 -2.62774 0
M  V30 2482 H 231.485 -0.430654 -0.603008 0
M  V30 2483 H 234.132 -1.60536 -1.04404 0
M  V30 2484 H 232.437 -1.4357 -3.64547 0
M  V30 2485 H 234.134 -1.82028 -3.57305 0
M  V30 2486 H 230.724 -3.11072 -2.94842 0
M  V30 2487 H 234.908 -4.08315 -2.82121 0
M  V30 2488 H 230.164 -5.4903 -2.69027 0
M  V30 2489 H 234.338 -6.47078 -2.57416 0
M  V30 2490 H 231.965 -7.17786 -2.50375 0
M  V30 2491 N 233.54 1.10788 -1.12088 0
M  V30 2492 C 234.488 2.19111 -0.780587 0
M  V30 2493 C 235.482 1.67818 0.230961 0
M  V30 2494 O 236.688 1.79777 0.0895427 0
M  V30 2495 H 233.063 0.714477 -0.234578 0
M  V30 2496 H 235.034 2.45055 -1.70266 0
M  V30 2497 C 233.783 3.46818 -0.24747 0
M  V30 2498 H 233.106 3.86646 -1.01712 0
M  V30 2499 H 234.546 4.23973 -0.0476291 0
M  V30 2500 C 233.005 3.20968 1.02378 0
M  V30 2501 O 233.535 3.42298 2.10226 0
M  V30 2502 N 231.741 2.74658 0.949271 0
M  V30 2503 H 231.288 2.57501 0.0715173 0
M  V30 2504 H 231.246 2.57739 1.80049 0
M  V30 2505 N 235.018 0.912232 1.28515 0
M  V30 2506 C 235.928 0.404506 2.31086 0
M  V30 2507 C 236.944 -0.50707 1.66448 0
M  V30 2508 O 238.12 -0.393624 1.97516 0
M  V30 2509 C 235.185 -0.348572 3.44943 0
M  V30 2510 C 234.246 0.59604 4.25142 0
M  V30 2511 C 233.479 -0.121194 5.33562 0
M  V30 2512 O 233.702 -1.34317 5.5436 0
M  V30 2513 O 232.636 0.542716 5.99448 0
M  V30 2514 H 236.462 1.25579 2.76521 0
M  V30 2515 H 234.047 0.676998 1.33181 0
M  V30 2516 H 235.929 -0.77395 4.14232 0
M  V30 2517 H 234.604 -1.17571 3.01594 0
M  V30 2518 H 233.511 1.07079 3.58448 0
M  V30 2519 H 234.844 1.38995 4.72167 0
M  V30 2520 N 236.496 -1.42363 0.676048 0
M  V30 2521 C 237.745 -2.00745 0.196037 0
M  V30 2522 C 238.058 -1.54083 -1.20489 0
M  V30 2523 O 239.264 -2.04891 -1.78134 0
M  V30 2524 C 237.72 -3.58651 0.299616 0
M  V30 2525 C 237.328 -4.143 1.70468 0
M  V30 2526 C 239.072 -4.24326 -0.121619 0
M  V30 2527 C 236.979 -5.64574 1.76096 0
M  V30 2528 H 235.909 -0.750787 0.0695301 0
M  V30 2529 H 238.56 -1.63072 0.841412 0
M  V30 2530 H 236.942 -3.93833 -0.413673 0
M  V30 2531 H 238.116 -3.90575 2.44515 0
M  V30 2532 H 236.431 -3.61081 2.07387 0
M  V30 2533 H 239.028 -5.34607 -0.0997362 0
M  V30 2534 H 239.371 -3.99897 -1.15708 0
M  V30 2535 H 239.904 -3.94108 0.540706 0
M  V30 2536 H 236.643 -5.93804 2.77628 0
M  V30 2537 H 236.163 -5.90286 1.06406 0
M  V30 2538 H 237.842 -6.29013 1.51496 0
M  V30 2539 N 237.974 -0.419461 -1.51915 0
M  V30 2540 C 239.222 0.152637 -2.01523 0
M  V30 2541 C 239.543 1.44762 -1.30649 0
M  V30 2542 O 238.813 1.90997 -0.435535 0
M  V30 2543 H 237.393 0.0593966 -0.744635 0
M  V30 2544 H 240.055 -0.558073 -1.86739 0
M  V30 2545 H 239.151 0.341369 -3.10227 0
M  V30 2546 N 239.452 1.56882 -0.150215 0
M  V30 2547 C 240.863 1.82995 0.370076 0
M  V30 2548 C 241.214 1.06907 1.64515 0
M  V30 2549 O 240.339 0.315369 2.1409 0
M  V30 2550 C 240.934 3.31942 0.678208 0
M  V30 2551 C 239.493 3.58625 1.14301 0
M  V30 2552 C 238.64 2.76792 0.167778 0
M  V30 2553 H 241.591 1.54209 -0.374858 0
M  V30 2554 H 241.612 3.48272 1.53254 0
M  V30 2555 H 241.124 3.87294 -0.249991 0
M  V30 2556 H 239.225 3.08664 2.08704 0
M  V30 2557 H 239.338 4.67073 1.06676 0
M  V30 2558 H 237.702 2.45972 0.661037 0
M  V30 2559 H 238.485 3.34916 -0.754069 0
M  V30 2560 N 240.93 -0.123565 1.57115 0
M  V30 2561 C 242.179 -0.830704 1.83799 0
M  V30 2562 C 242.492 -1.81259 0.735158 0
M  V30 2563 O 243.698 -2.56558 0.888278 0
M  V30 2564 C 242.154 -1.52802 3.25852 0
M  V30 2565 C 241.762 -0.587356 4.44133 0
M  V30 2566 C 243.506 -2.22056 3.61789 0
M  V30 2567 C 241.413 -1.28764 5.77212 0
M  V30 2568 H 240.343 -0.313967 0.685522 0
M  V30 2569 H 242.994 -0.0834359 1.8331 0
M  V30 2570 H 241.376 -2.32175 3.20797 0
M  V30 2571 H 242.55 0.172829 4.60476 0
M  V30 2572 H 240.865 -0.00201892 4.164 0
M  V30 2573 H 243.462 -2.75131 4.58483 0
M  V30 2574 H 243.805 -2.99644 2.88997 0
M  V30 2575 H 244.338 -1.49576 3.68608 0
M  V30 2576 H 241.077 -0.55314 6.53162 0
M  V30 2577 H 240.597 -2.01995 5.64764 0
M  V30 2578 H 242.276 -1.8221 6.20813 0
M  V30 2579 N 242.408 -1.52605 -0.393616 0
M  V30 2580 C 243.656 -1.67093 -1.13685 0
M  V30 2581 C 243.977 -0.411011 -1.90619 0
M  V30 2582 O 243.247 0.574491 -1.87287 0
M  V30 2583 H 241.827 -0.615923 -0.422668 0
M  V30 2584 H 244.489 -1.89704 -0.447039 0
M  V30 2585 H 243.585 -2.51922 -1.84232 0
M  V30 2586 N 243.887 0.651787 -1.4349 0
M  V30 2587 C 245.164 1.40909 -1.35661 0
M  V30 2588 C 245.544 2.11099 -0.00511733 0
M  V30 2589 O 244.892 2.04892 1.0115 0
M  V30 2590 C 245.102 2.3926 -2.54078 0
M  V30 2591 C 246.45 3.03217 -2.97228 0
M  V30 2592 O 247.474 2.49588 -2.54135 0
M  V30 2593 O 246.333 4.00455 -3.71885 0
M  V30 2594 H 243.427 0.629625 -0.536191 0
M  V30 2595 H 245.973 0.678575 -1.55542 0
M  V30 2596 H 244.745 1.86352 -3.44076 0
M  V30 2597 H 244.368 3.1976 -2.36303 0
M  V30 2598 N 245.365 1.30045 0.890287 0
M  V30 2599 C 246.613 1.18327 1.63839 0
M  V30 2600 C 246.934 -0.263455 1.93212 0
M  V30 2601 O 246.204 -1.17856 1.56482 0
M  V30 2602 H 244.784 0.434933 0.607324 0
M  V30 2603 H 247.446 1.631 1.06698 0
M  V30 2604 H 246.542 1.74024 2.59079 0
M  V30 2605 N 246.843 -1.10192 1.12674 0
M  V30 2606 C 247.775 -2.16418 0.754701 0
M  V30 2607 C 248.788 -1.61309 -0.21986 0
M  V30 2608 O 249.977 -1.785 -0.000826841 0
M  V30 2609 C 247.077 -3.38762 0.096698 0
M  V30 2610 C 246.25 -4.23307 1.10136 0
M  V30 2611 C 245.309 -5.24092 0.470513 0
M  V30 2612 O 244.335 -5.57906 1.12824 0
M  V30 2613 N 245.537 -5.75491 -0.760948 0
M  V30 2614 H 248.302 -2.48943 1.66875 0
M  V30 2615 H 245.863 -1.25834 1.01869 0
M  V30 2616 H 247.855 -4.03291 -0.337384 0
M  V30 2617 H 246.425 -3.04192 -0.720153 0
M  V30 2618 H 245.645 -3.55036 1.71299 0
M  V30 2619 H 246.933 -4.76624 1.78064 0
M  V30 2620 H 246.331 -5.50222 -1.31424 0
M  V30 2621 H 244.888 -6.41792 -1.13781 0
M  V30 2622 N 248.321 -0.919034 -1.28029 0
M  V30 2623 C 249.551 -0.570143 -1.98577 0
M  V30 2624 C 249.959 0.854172 -1.68821 0
M  V30 2625 O 249.302 1.57807 -0.940351 0
M  V30 2626 C 249.364 -0.705734 -3.52505 0
M  V30 2627 C 249.028 -2.10057 -4.05863 0
M  V30 2628 C 250.025 -3.07385 -4.19298 0
M  V30 2629 C 247.71 -2.41517 -4.40426 0
M  V30 2630 C 249.704 -4.34287 -4.66555 0
M  V30 2631 C 247.391 -3.68657 -4.87376 0
M  V30 2632 C 248.389 -4.64856 -5.00398 0
M  V30 2633 O 248.077 -5.89735 -5.46322 0
M  V30 2634 H 247.809 -0.215592 -0.6407 0
M  V30 2635 H 250.363 -1.23583 -1.64062 0
M  V30 2636 H 248.593 0.0170414 -3.86696 0
M  V30 2637 H 250.282 -0.363172 -4.04272 0
M  V30 2638 H 251.048 -2.84398 -3.92865 0
M  V30 2639 H 246.927 -1.67389 -4.29537 0
M  V30 2640 H 250.471 -5.09377 -4.76635 0
M  V30 2641 H 246.368 -3.91466 -5.13249 0
M  V30 2642 H 247.136 -5.92599 -5.64596 0
M  V30 2643 N 249.799 1.42003 -0.683588 0
M  V30 2644 C 250.729 2.33487 -0.024866 0
M  V30 2645 C 251.71 1.51163 0.779975 0
M  V30 2646 O 252.895 1.79739 0.735362 0
M  V30 2647 C 250.025 3.3487 0.920836 0
M  V30 2648 C 248.979 4.27414 0.223958 0
M  V30 2649 C 248.305 5.19074 1.2832 0
M  V30 2650 C 249.605 5.14445 -0.90242 0
M  V30 2651 H 251.299 2.88819 -0.788921 0
M  V30 2652 H 248.845 1.38873 -0.38083 0
M  V30 2653 H 250.798 3.97787 1.39081 0
M  V30 2654 H 249.522 2.77861 1.71642 0
M  V30 2655 H 248.181 3.65904 -0.225864 0
M  V30 2656 H 247.829 4.58387 2.071 0
M  V30 2657 H 247.529 5.81822 0.821995 0
M  V30 2658 H 249.053 5.84867 1.75392 0
M  V30 2659 H 250.467 5.70998 -0.513272 0
M  V30 2660 H 248.864 5.86072 -1.28997 0
M  V30 2661 H 249.934 4.52322 -1.74737 0
M  V30 2662 N 251.277 0.427512 1.51691 0
M  V30 2663 C 252.523 -0.142439 2.02299 0
M  V30 2664 C 252.856 -1.43214 1.31162 0
M  V30 2665 O 252.131 -1.89833 0.423511 0
M  V30 2666 C 252.414 -0.371301 3.58181 0
M  V30 2667 C 252.267 0.936358 4.39946 0
M  V30 2668 C 253.586 -1.14542 4.24933 0
M  V30 2669 H 250.705 -0.0502937 0.735282 0
M  V30 2670 H 253.347 0.564584 1.81418 0
M  V30 2671 H 251.497 -0.973559 3.76104 0
M  V30 2672 H 253.169 1.57184 4.33694 0
M  V30 2673 H 251.412 1.5432 4.05423 0
M  V30 2674 H 252.083 0.730388 5.47147 0
M  V30 2675 H 254.559 -0.635362 4.11221 0
M  V30 2676 H 253.435 -1.27431 5.33903 0
M  V30 2677 H 253.696 -2.17093 3.85127 0
M  V30 2678 N 252.755 -1.56801 0.158532 0
M  V30 2679 C 254.003 -1.96102 -0.488712 0
M  V30 2680 C 254.324 -1.04498 -1.64636 0
M  V30 2681 O 253.594 -0.108783 -1.95598 0
M  V30 2682 H 252.174 -0.724102 -0.183535 0
M  V30 2683 H 254.836 -1.93457 0.236728 0
M  V30 2684 H 253.932 -3.00097 -0.857219 0
M  V30 2685 N 254.233 0.115231 -1.57178 0
M  V30 2686 C 255.18 1.14115 -2.00615 0
M  V30 2687 C 256.15 1.40939 -0.878941 0
M  V30 2688 O 257.335 1.52741 -1.14345 0
M  V30 2689 C 254.475 2.46156 -2.4187 0
M  V30 2690 C 253.588 2.26236 -3.68024 0
M  V30 2691 C 252.723 3.51534 -3.98243 0
M  V30 2692 C 251.762 3.26787 -5.17568 0
M  V30 2693 N 250.899 4.44298 -5.43639 0
M  V30 2694 H 255.739 0.763743 -2.88047 0
M  V30 2695 H 253.276 0.365615 -1.42484 0
M  V30 2696 H 255.234 3.23189 -2.63827 0
M  V30 2697 H 253.864 2.81783 -1.57475 0
M  V30 2698 H 252.916 1.40102 -3.5366 0
M  V30 2699 H 254.228 2.03929 -4.55208 0
M  V30 2700 H 253.382 4.36984 -4.20868 0
M  V30 2701 H 252.121 3.76876 -3.09541 0
M  V30 2702 H 251.126 2.39729 -4.94783 0
M  V30 2703 H 252.351 3.02812 -6.0785 0
M  V30 2704 H 250.297 4.69754 -4.57895 0
M  V30 2705 H 250.214 4.25109 -6.25154 0
M  V30 2706 H 251.482 5.3087 -5.70786 0
M  V30 2707 N 255.711 1.52812 0.385517 0
M  V30 2708 C 256.958 1.68026 1.1302 0
M  V30 2709 C 257.286 0.421934 1.89868 0
M  V30 2710 O 256.541 -0.595749 1.86412 0
M  V30 2711 C 256.84 2.86856 2.13187 0
M  V30 2712 C 256.506 4.24159 1.5297 0
M  V30 2713 C 255.168 4.61501 1.36274 0
M  V30 2714 C 257.52 5.09627 1.09223 0
M  V30 2715 C 254.848 5.81966 0.743837 0
M  V30 2716 C 257.2 6.30719 0.487411 0
M  V30 2717 C 255.864 6.6679 0.307777 0
M  V30 2718 H 255.134 0.614849 0.413571 0
M  V30 2719 H 257.781 1.86962 0.414405 0
M  V30 2720 H 256.086 2.6235 2.90998 0
M  V30 2721 H 257.783 2.95821 2.70722 0
M  V30 2722 H 254.373 3.94746 1.66954 0
M  V30 2723 H 258.557 4.81343 1.20922 0
M  V30 2724 H 253.813 6.08519 0.592891 0
M  V30 2725 H 257.987 6.96259 0.140143 0
M  V30 2726 H 255.614 7.60001 -0.173879 0
M  V30 2727 N 257.189 -0.644168 1.43834 0
M  V30 2728 C 258.6 -1.22554 1.40845 0
M  V30 2729 C 258.951 -1.9585 0.117115 0
M  V30 2730 O 258.076 -2.01734 -0.783086 0
M  V30 2731 C 258.671 -2.22907 2.55143 0
M  V30 2732 C 257.23 -2.76501 2.5539 0
M  V30 2733 C 256.377 -1.51287 2.32396 0
M  V30 2734 H 259.328 -0.43563 1.52604 0
M  V30 2735 H 259.349 -3.05259 2.2715 0
M  V30 2736 H 258.861 -1.69533 3.49114 0
M  V30 2737 H 256.962 -3.33914 1.65324 0
M  V30 2738 H 257.075 -3.23429 3.53455 0
M  V30 2739 H 255.439 -1.78957 1.81236 0
M  V30 2740 H 256.222 -0.998336 3.28463 0
M  V30 2741 N 258.668 -1.30515 -0.883378 0
M  V30 2742 C 260.079 -1.17509 -1.45081 0
M  V30 2743 C 260.43 0.223605 -1.94922 0
M  V30 2744 O 259.555 1.12041 -1.85137 0
M  V30 2745 C 260.15 -2.12715 -2.63701 0
M  V30 2746 C 258.709 -2.03682 -3.16529 0
M  V30 2747 C 257.856 -2.02706 -1.89224 0
M  V30 2748 H 260.807 -1.42762 -0.693165 0
M  V30 2749 H 260.828 -1.70891 -3.39965 0
M  V30 2750 H 260.34 -3.14505 -2.27395 0
M  V30 2751 H 258.441 -1.05039 -3.57488 0
M  V30 2752 H 258.554 -2.92146 -3.7972 0
M  V30 2753 H 256.918 -1.4753 -2.07622 0
M  V30 2754 H 257.701 -3.06229 -1.55174 0
M  V30 2755 N 260.146 1.09593 -1.13257 0
M  V30 2756 C 261.394 1.81375 -0.891492 0
M  V30 2757 C 261.715 1.86049 0.584009 0
M  V30 2758 O 260.985 1.34481 1.42449 0
M  V30 2759 H 259.565 0.671708 -0.326828 0
M  V30 2760 H 262.227 1.3256 -1.42877 0
M  V30 2761 H 261.323 2.84612 -1.28071 0
M  V30 2762 N 261.624 0.925811 1.2754 0
M  V30 2763 C 262.873 0.561084 1.93739 0
M  V30 2764 C 263.186 -0.901685 1.73577 0
M  V30 2765 O 264.392 -1.37511 2.34101 0
M  V30 2766 C 262.848 0.952668 3.47062 0
M  V30 2767 C 262.456 2.43599 3.75983 0
M  V30 2768 C 264.2 0.659103 4.19352 0
M  V30 2769 C 262.107 2.76707 5.22673 0
M  V30 2770 H 261.037 0.206122 0.725279 0
M  V30 2771 H 263.688 1.12637 1.44863 0
M  V30 2772 H 262.07 0.316053 3.94737 0
M  V30 2773 H 263.244 3.12035 3.39073 0
M  V30 2774 H 261.559 2.70125 3.16893 0
M  V30 2775 H 264.156 0.882985 5.27359 0
M  V30 2776 H 264.499 -0.403607 4.14339 0
M  V30 2777 H 265.032 1.25473 3.77494 0
M  V30 2778 H 261.771 3.8188 5.32774 0
M  V30 2779 H 261.291 2.12919 5.60737 0
M  V30 2780 H 262.97 2.6435 5.90532 0
M  V30 2781 N 263.102 -1.41638 0.69111 0
M  V30 2782 C 264.049 -2.30789 0.0229705 0
M  V30 2783 C 265.019 -1.46863 -0.775911 0
M  V30 2784 O 266.204 -1.75661 -0.74485 0
M  V30 2785 C 263.344 -3.32868 -0.910666 0
M  V30 2786 C 262.457 -4.31875 -0.103874 0
M  V30 2787 C 261.592 -5.21024 -1.03475 0
M  V30 2788 C 260.631 -6.11702 -0.220598 0
M  V30 2789 N 259.768 -6.93349 -1.10504 0
M  V30 2790 H 264.608 -2.87366 0.788978 0
M  V30 2791 H 262.145 -1.41535 0.400794 0
M  V30 2792 H 264.103 -3.90596 -1.46597 0
M  V30 2793 H 262.733 -2.77851 -1.64312 0
M  V30 2794 H 261.785 -3.76131 0.568285 0
M  V30 2795 H 263.097 -4.96003 0.527504 0
M  V30 2796 H 262.251 -5.83565 -1.65943 0
M  V30 2797 H 260.99 -4.57112 -1.69999 0
M  V30 2798 H 259.995 -5.48215 0.417187 0
M  V30 2799 H 261.22 -6.77668 0.440784 0
M  V30 2800 H 259.166 -6.3205 -1.75638 0
M  V30 2801 H 259.083 -7.54146 -0.529125 0
M  V30 2802 H 260.351 -7.60362 -1.71667 0
M  V30 2803 N 264.58 -0.43555 -1.51462 0
M  V30 2804 C 265.81 0.130053 -2.0619 0
M  V30 2805 C 266.218 1.37164 -1.30317 0
M  V30 2806 O 265.561 1.80225 -0.355598 0
M  V30 2807 C 265.623 0.519418 -3.55728 0
M  V30 2808 C 265.287 -0.615119 -4.52841 0
M  V30 2809 C 266.284 -1.48671 -4.9819 0
M  V30 2810 C 263.969 -0.795341 -4.95963 0
M  V30 2811 C 265.963 -2.52324 -5.8533 0
M  V30 2812 C 263.65 -1.83514 -5.82894 0
M  V30 2813 C 264.648 -2.69748 -6.27475 0
M  V30 2814 O 264.336 -3.71944 -7.1268 0
M  V30 2815 H 264.068 0.0121612 -0.675891 0
M  V30 2816 H 266.622 -0.6129 -1.96043 0
M  V30 2817 H 264.852 1.31505 -3.63653 0
M  V30 2818 H 266.541 1.01597 -3.92979 0
M  V30 2819 H 267.307 -1.359 -4.65571 0
M  V30 2820 H 263.186 -0.133713 -4.60806 0
M  V30 2821 H 266.73 -3.19665 -6.20048 0
M  V30 2822 H 262.627 -1.96306 -6.14926 0
M  V30 2823 H 263.395 -3.68503 -7.30854 0
M  V30 2824 N 266.058 1.56714 -0.166846 0
M  V30 2825 C 267.335 1.88412 0.525373 0
M  V30 2826 C 267.715 1.07602 1.81618 0
M  V30 2827 O 267.063 0.168621 2.27877 0
M  V30 2828 C 267.273 3.40363 0.771613 0
M  V30 2829 C 268.621 4.10007 1.1036 0
M  V30 2830 O 269.645 3.45655 0.860304 0
M  V30 2831 O 268.504 5.2369 1.56239 0
M  V30 2832 H 265.598 0.781587 0.270278 0
M  V30 2833 H 268.144 1.68458 -0.204946 0
M  V30 2834 H 266.916 3.91046 -0.141093 0
M  V30 2835 H 266.539 3.65914 1.55541 0
M  V30 2836 N 267.536 -0.106894 1.57237 0
M  V30 2837 C 268.466 -1.13148 2.04254 0
M  V30 2838 C 269.447 -1.42476 0.929224 0
M  V30 2839 O 270.632 -1.52709 1.19973 0
M  V30 2840 C 267.762 -2.4545 2.45706 0
M  V30 2841 C 266.716 -2.30558 3.60592 0
M  V30 2842 C 266.042 -3.67931 3.87983 0
M  V30 2843 C 267.342 -1.75597 4.91897 0
M  V30 2844 H 269.036 -0.740374 2.90101 0
M  V30 2845 H 266.582 -0.354696 1.39563 0
M  V30 2846 H 268.535 -3.17389 2.77205 0
M  V30 2847 H 267.259 -2.86475 1.56843 0
M  V30 2848 H 265.918 -1.61067 3.29322 0
M  V30 2849 H 265.566 -4.06462 2.96306 0
M  V30 2850 H 265.266 -3.58817 4.65322 0
M  V30 2851 H 266.79 -4.41356 4.21945 0
M  V30 2852 H 268.204 -2.37364 5.21854 0
M  V30 2853 H 266.601 -1.77272 5.73319 0
M  V30 2854 H 267.671 -0.714451 4.79608 0
M  V30 2855 N 269.014 -1.53014 -0.377408 0
M  V30 2856 C 269.977 -1.77957 -1.44444 0
M  V30 2857 C 270.977 -0.649763 -1.47087 0
M  V30 2858 O 272.167 -0.917897 -1.48055 0
M  V30 2859 C 269.299 -1.89089 -2.83651 0
M  V30 2860 H 270.492 -2.73243 -1.23606 0
M  V30 2861 H 268.045 -1.43912 -0.609844 0
M  V30 2862 H 268.78 -0.958293 -3.09818 0
M  V30 2863 H 268.565 -2.71254 -2.83132 0
M  V30 2864 H 270.055 -2.1002 -3.60945 0
M  V30 2865 N 270.492 0.636531 -1.44174 0
M  V30 2866 C 271.439 1.74875 -1.50624 0
M  V30 2867 C 272.409 1.62275 -0.35442 0
M  V30 2868 O 273.594 1.82276 -0.563908 0
M  V30 2869 C 270.734 3.13102 -1.45125 0
M  V30 2870 C 269.847 3.36717 -2.7064 0
M  V30 2871 C 268.982 4.64885 -2.57013 0
M  V30 2872 C 268.021 4.8166 -3.77717 0
M  V30 2873 N 267.158 6.01101 -3.62798 0
M  V30 2874 H 271.998 1.68697 -2.45653 0
M  V30 2875 H 269.535 0.823004 -1.21922 0
M  V30 2876 H 271.493 3.93034 -1.39929 0
M  V30 2877 H 270.123 3.18308 -0.536671 0
M  V30 2878 H 269.175 2.50763 -2.86046 0
M  V30 2879 H 270.487 3.44993 -3.60252 0
M  V30 2880 H 269.641 5.52969 -2.49619 0
M  V30 2881 H 268.38 4.58957 -1.64953 0
M  V30 2882 H 267.385 3.92007 -3.85501 0
M  V30 2883 H 268.61 4.89406 -4.70807 0
M  V30 2884 H 266.556 5.96273 -2.73486 0
M  V30 2885 H 266.473 6.10409 -4.46023 0
M  V30 2886 H 267.741 6.91761 -3.59286 0
M  V30 2887 N 271.97 1.30982 0.876444 0
M  V30 2888 C 273.216 1.20474 1.63138 0
M  V30 2889 C 273.549 -0.238096 1.92735 0
M  V30 2890 O 272.824 -1.1692 1.55435 0
M  V30 2891 C 273.107 2.04244 2.96574 0
M  V30 2892 C 272.96 3.56793 2.73896 0
M  V30 2893 C 274.279 1.88684 3.97601 0
M  V30 2894 H 271.398 0.439001 0.591985 0
M  V30 2895 H 274.04 1.60704 1.01361 0
M  V30 2896 H 272.19 1.70063 3.493 0
M  V30 2897 H 273.862 4.01077 2.27892 0
M  V30 2898 H 272.105 3.80548 2.08245 0
M  V30 2899 H 272.776 4.10706 3.68815 0
M  V30 2900 H 275.252 2.18584 3.54062 0
M  V30 2901 H 274.128 2.4961 4.88862 0
M  V30 2902 H 274.389 0.848343 4.33884 0
M  V30 2903 N 273.449 -1.08991 1.13837 0
M  V30 2904 C 274.696 -1.81258 0.902882 0
M  V30 2905 C 275.024 -1.85936 -0.570803 0
M  V30 2906 O 274.279 -1.3267 -1.43865 0
M  V30 2907 C 274.578 -3.27042 1.44147 0
M  V30 2908 C 274.244 -3.4249 2.93276 0
M  V30 2909 C 272.906 -3.46414 3.33992 0
M  V30 2910 C 275.258 -3.4666 3.892 0
M  V30 2911 C 272.586 -3.52091 4.69307 0
M  V30 2912 C 274.938 -3.53872 5.24364 0
M  V30 2913 C 273.602 -3.56066 5.646 0
M  V30 2914 H 272.872 -0.663268 0.330388 0
M  V30 2915 H 275.519 -1.28368 1.42105 0
M  V30 2916 H 273.824 -3.82599 0.844097 0
M  V30 2917 H 275.521 -3.81499 1.23528 0
M  V30 2918 H 272.111 -3.40124 2.60794 0
M  V30 2919 H 276.295 -3.42865 3.58828 0
M  V30 2920 H 271.551 -3.52079 4.9985 0
M  V30 2921 H 275.725 -3.56043 5.98503 0
M  V30 2922 H 273.352 -3.60218 6.69438 0
M  V30 2923 N 274.927 -0.932562 -1.27047 0
M  V30 2924 C 275.859 -0.392734 -2.2581 0
M  V30 2925 C 276.872 0.479241 -1.55586 0
M  V30 2926 O 278.061 0.291078 -1.76111 0
M  V30 2927 C 275.161 0.455456 -3.35826 0
M  V30 2928 C 274.334 -0.398355 -4.35582 0
M  V30 2929 C 273.393 0.387985 -5.24768 0
M  V30 2930 O 272.419 -0.206003 -5.68827 0
M  V30 2931 N 273.621 1.68664 -5.55457 0
M  V30 2932 H 276.386 -1.24173 -2.72766 0
M  V30 2933 H 273.947 -0.800511 -1.40725 0
M  V30 2934 H 275.939 0.988692 -3.92437 0
M  V30 2935 H 274.509 1.20522 -2.88432 0
M  V30 2936 H 273.729 -1.11286 -3.78165 0
M  V30 2937 H 275.017 -0.981889 -4.99236 0
M  V30 2938 H 274.415 2.19147 -5.21528 0
M  V30 2939 H 272.972 2.1663 -6.14748 0
M  V30 2940 N 276.405 1.4127 -0.698611 0
M  V30 2941 C 277.63 2.06024 -0.238512 0
M  V30 2942 C 278.055 1.5224 1.10475 0
M  V30 2943 O 277.413 0.650623 1.69223 0
M  V30 2944 C 277.461 3.59988 -0.209952 0
M  V30 2945 O 276.565 4.04282 0.814235 0
M  V30 2946 H 275.906 0.653829 -0.115775 0
M  V30 2947 H 278.436 1.8098 -0.954326 0
M  V30 2948 H 278.446 4.07979 -0.0418436 0
M  V30 2949 H 277.121 3.98503 -1.1903 0
M  V30 2950 H 275.698 3.6779 0.615234 0
M  V30 2951 N 277.883 0.443576 1.51229 0
M  V30 2952 C 278.833 -0.382787 2.24764 0
M  V30 2953 C 279.817 -0.984836 1.27239 0
M  V30 2954 O 281.009 -0.901943 1.52296 0
M  V30 2955 C 278.138 -1.47989 3.09765 0
M  V30 2956 C 277.224 -0.886931 4.14722 0
M  V30 2957 N 277.615 -0.0237103 5.05794 0
M  V30 2958 C 275.913 -1.15385 4.30816 0
M  V30 2959 C 276.614 0.309971 5.80874 0
M  V30 2960 N 275.59 -0.307989 5.42727 0
M  V30 2961 H 279.392 0.282624 2.92538 0
M  V30 2962 H 276.906 0.256027 1.60369 0
M  V30 2963 H 278.903 -2.08482 3.61027 0
M  V30 2964 H 277.563 -2.14758 2.43535 0
M  V30 2965 H 278.574 0.34318 5.16762 0
M  V30 2966 H 275.251 -1.81857 3.75812 0
M  V30 2967 H 276.641 1.01279 6.64223 0
M  V30 2968 N 279.361 -1.56624 0.175154 0
M  V30 2969 C 280.311 -2.14747 -0.766004 0
M  V30 2970 C 281.295 -1.08275 -1.19018 0
M  V30 2971 O 282.487 -1.34388 -1.15191 0
M  V30 2972 C 279.616 -2.79478 -1.99366 0
M  V30 2973 C 278.702 -3.93114 -1.5913 0
M  V30 2974 N 279.093 -4.97752 -0.89872 0
M  V30 2975 C 277.391 -4.04345 -1.88204 0
M  V30 2976 C 278.092 -5.77473 -0.700012 0
M  V30 2977 N 277.068 -5.29207 -1.24263 0
M  V30 2978 H 280.87 -2.93015 -0.22793 0
M  V30 2979 H 278.384 -1.6238 -0.0253843 0
M  V30 2980 H 280.381 -3.19498 -2.67818 0
M  V30 2981 H 279.041 -2.02692 -2.53665 0
M  V30 2982 H 280.052 -5.14903 -0.556347 0
M  V30 2983 H 276.729 -3.38667 -2.44153 0
M  V30 2984 H 278.119 -6.71728 -0.152047 0
M  V30 2985 N 280.839 0.0985539 -1.57292 0
M  V30 2986 C 281.787 1.1387 -2.02821 0
M  V30 2987 C 282.781 1.41676 -0.928666 0
M  V30 2988 O 283.987 1.41398 -1.11385 0
M  V30 2989 H 280.362 0.384419 -0.646317 0
M  V30 2990 H 282.333 0.728347 -2.89375 0
M  V30 2991 C 281.082 2.45166 -2.46554 0
M  V30 2992 H 280.405 2.24613 -3.3074 0
M  V30 2993 H 281.845 3.16456 -2.8219 0
M  V30 2994 C 280.304 3.09216 -1.33742 0
M  V30 2995 O 280.834 3.96163 -0.66464 0
M  V30 2996 N 279.04 2.69413 -1.08928 0
M  V30 2997 H 278.587 1.98801 -1.63817 0
M  V30 2998 H 278.545 3.12594 -0.336458 0
M  V30 2999 N 282.317 1.53212 0.369288 0
M  V30 3000 C 283.25 1.74166 1.4745 0
M  V30 3001 C 284.228 0.589923 1.51521 0
M  V30 3002 O 285.412 0.822078 1.69629 0
M  V30 3003 C 282.539 1.81711 2.8583 0
M  V30 3004 C 281.585 3.03649 2.99499 0
M  V30 3005 S 282.418 4.63242 2.6864 0
M  V30 3006 C 283.574 4.7363 4.09177 0
M  V30 3007 H 283.807 2.67636 1.29454 0
M  V30 3008 H 281.34 1.43754 0.563396 0
M  V30 3009 H 283.298 1.86743 3.65564 0
M  V30 3010 H 281.959 0.89299 3.01139 0
M  V30 3011 H 281.152 3.05526 4.00836 0
M  V30 3012 H 280.754 2.9671 2.27683 0
M  V30 3013 H 283.046 4.53456 5.03372 0
M  V30 3014 H 283.989 5.75682 4.12306 0
M  V30 3015 H 284.397 4.02295 3.96004 0
M  V30 3016 N 283.795 -0.628877 1.44509 0
M  V30 3017 C 284.728 -1.75367 1.46019 0
M  V30 3018 C 285.706 -1.59444 0.318787 0
M  V30 3019 O 286.89 -1.81297 0.516099 0
M  V30 3020 C 284.017 -3.12965 1.29501 0
M  V30 3021 C 283.063 -3.47532 2.47233 0
M  V30 3022 S 283.896 -3.44758 4.09758 0
M  V30 3023 C 285.052 -4.84973 3.95667 0
M  V30 3024 H 285.285 -1.7382 2.41193 0
M  V30 3025 H 282.818 -0.803686 1.31834 0
M  V30 3026 H 284.776 -3.92367 1.20658 0
M  V30 3027 H 283.437 -3.12049 0.358341 0
M  V30 3028 H 282.63 -4.47664 2.31544 0
M  V30 3029 H 282.232 -2.75598 2.52828 0
M  V30 3030 H 284.524 -5.74255 3.59496 0
M  V30 3031 H 285.467 -5.05716 4.95638 0
M  V30 3032 H 285.875 -4.59653 3.27688 0
M  V30 3033 N 285.273 -1.31445 -0.869486 0
M  V30 3034 C 286.519 -1.21337 -1.62496 0
M  V30 3035 C 286.852 0.227872 -1.92858 0
M  V30 3036 O 286.127 1.16094 -1.56053 0
M  V30 3037 C 286.41 -2.05814 -2.95487 0
M  V30 3038 C 286.263 -3.5824 -2.72 0
M  V30 3039 C 287.582 -1.9079 -3.96594 0
M  V30 3040 H 284.701 -0.442135 -0.589649 0
M  V30 3041 H 287.343 -1.6124 -1.00507 0
M  V30 3042 H 285.493 -1.71913 -3.48394 0
M  V30 3043 H 287.165 -4.0228 -2.25762 0
M  V30 3044 H 285.408 -3.81647 -2.06224 0
M  V30 3045 H 286.079 -4.12657 -3.66631 0
M  V30 3046 H 288.555 -2.20459 -3.52898 0
M  V30 3047 H 287.431 -2.52199 -4.87531 0
M  V30 3048 H 287.692 -0.871341 -4.33428 0
M  V30 3049 N 286.751 1.08385 -1.14413 0
M  V30 3050 C 287.976 1.85057 -0.936413 0
M  V30 3051 C 288.401 1.81055 0.509971 0
M  V30 3052 O 287.759 1.1958 1.36273 0
M  V30 3053 C 287.807 3.30505 -1.44217 0
M  V30 3054 O 286.911 4.07491 -0.634409 0
M  V30 3055 H 286.252 0.573425 -0.334784 0
M  V30 3056 H 288.782 1.36799 -1.52142 0
M  V30 3057 H 288.792 3.81348 -1.45043 0
M  V30 3058 H 287.467 3.32734 -2.49522 0
M  V30 3059 H 286.044 3.66368 -0.694902 0
M  V30 3060 N 288.23 0.939286 1.26551 0
M  V30 3061 C 289.18 0.418284 2.2413 0
M  V30 3062 C 290.164 -0.483935 1.5345 0
M  V30 3063 O 291.356 -0.319489 1.74093 0
M  V30 3064 C 288.485 -0.31709 3.41832 0
M  V30 3065 C 287.571 0.602311 4.19801 0
M  V30 3066 N 287.962 1.72726 4.75394 0
M  V30 3067 C 286.26 0.407534 4.44134 0
M  V30 3068 C 286.961 2.30004 5.34297 0
M  V30 3069 N 285.937 1.58828 5.1988 0
M  V30 3070 H 289.739 1.27705 2.64705 0
M  V30 3071 H 287.253 0.794929 1.41614 0
M  V30 3072 H 289.25 -0.707364 4.10855 0
M  V30 3073 H 287.91 -1.17264 3.02786 0
M  V30 3074 H 288.921 2.10944 4.72994 0
M  V30 3075 H 285.598 -0.406406 4.15517 0
M  V30 3076 H 286.988 3.24778 5.88191 0
M  V30 3077 N 289.708 -1.40897 0.706093 0
M  V30 3078 C 290.671 -2.29131 0.0562841 0
M  V30 3079 C 291.671 -1.44901 -0.697166 0
M  V30 3080 O 292.861 -1.65926 -0.530484 0
M  V30 3081 C 289.993 -3.27957 -0.93043 0
M  V30 3082 H 291.186 -2.88091 0.833284 0
M  V30 3083 H 288.739 -1.4906 0.470192 0
M  V30 3084 H 289.474 -2.73997 -1.73482 0
M  V30 3085 H 289.259 -3.90124 -0.393166 0
M  V30 3086 H 290.749 -3.94049 -1.38256 0
M  V30 3087 N 291.186 -0.45159 -1.50991 0
M  V30 3088 C 292.602 -0.104647 -1.59257 0
M  V30 3089 C 292.802 1.38728 -1.4614 0
M  V30 3090 O 291.858 2.15866 -1.30989 0
M  V30 3091 C 293.171 -0.637468 -2.93865 0
M  V30 3092 C 294.719 -0.599166 -3.07212 0
M  V30 3093 C 295.194 -1.1092 -4.44366 0
M  V30 3094 N 296.685 -1.06778 -4.50725 0
M  V30 3095 C 297.42 -1.43314 -5.55201 0
M  V30 3096 N 296.916 -1.87204 -6.67028 0
M  V30 3097 N 298.709 -1.3504 -5.45638 0
M  V30 3098 H 290.86 -1.42214 -1.57762 0
M  V30 3099 H 293.123 -0.586921 -0.744465 0
M  V30 3100 H 292.829 -1.68187 -3.08879 0
M  V30 3101 H 292.703 -0.0702139 -3.77135 0
M  V30 3102 H 295.09 0.436277 -2.91857 0
M  V30 3103 H 295.171 -1.20299 -2.25747 0
M  V30 3104 H 294.815 -2.14318 -4.60467 0
M  V30 3105 H 294.745 -0.481773 -5.24392 0
M  V30 3106 H 297.236 -0.745643 -3.70471 0
M  V30 3107 H 297.549 -2.13282 -7.42786 0
M  V30 3108 H 295.894 -1.91142 -6.68199 0
M  V30 3109 H 299.085 -1.00607 -4.57161 0
M  V30 3110 H 299.258 -1.63841 -6.26945 0
M  V30 3111 N 292.664 1.56529 -0.183458 0
M  V30 3112 C 293.627 2.17324 0.728223 0
M  V30 3113 C 294.627 1.12453 1.14939 0
M  V30 3114 O 295.817 1.37902 1.06437 0
M  V30 3115 C 292.949 2.76591 1.99274 0
M  V30 3116 H 294.142 2.99241 0.198772 0
M  V30 3117 H 291.695 1.5616 0.0661391 0
M  V30 3118 H 292.43 1.98441 2.56499 0
M  V30 3119 H 292.215 3.5335 1.69959 0
M  V30 3120 H 293.705 3.23311 2.6431 0
M  V30 3121 N 294.142 -0.090211 1.57342 0
M  V30 3122 C 295.388 -0.793982 1.86611 0
M  V30 3123 C 295.721 -1.78142 0.773252 0
M  V30 3124 O 294.996 -1.93271 -0.218304 0
M  V30 3125 C 295.279 -1.51839 3.26523 0
M  V30 3126 C 295.132 -0.548609 4.46442 0
M  V30 3127 C 296.451 -2.46779 3.64401 0
M  V30 3128 H 293.57 -0.287186 0.678744 0
M  V30 3129 H 296.212 -0.0575076 1.89913 0
M  V30 3130 H 294.362 -2.14617 3.23839 0
M  V30 3131 H 296.034 0.0725513 4.61243 0
M  V30 3132 H 294.277 0.137614 4.33582 0
M  V30 3133 H 294.948 -1.09271 5.41076 0
M  V30 3134 H 297.424 -1.94089 3.68061 0
M  V30 3135 H 296.3 -2.94479 4.63221 0
M  V30 3136 H 296.561 -3.30758 2.93346 0
M  V30 3137 N 295.62 -1.53406 -0.361157 0
M  V30 3138 C 296.567 -1.80156 -1.44265 0
M  V30 3139 C 297.537 -0.646183 -1.53015 0
M  V30 3140 O 298.722 -0.888818 -1.68833 0
M  V30 3141 C 295.862 -2.00116 -2.81154 0
M  V30 3142 C 294.975 -3.27833 -2.81335 0
M  V30 3143 C 294.11 -3.37957 -4.09828 0
M  V30 3144 C 293.149 -4.59689 -4.04168 0
M  V30 3145 N 292.286 -4.66942 -5.24318 0
M  V30 3146 H 297.126 -2.72438 -1.20754 0
M  V30 3147 H 294.663 -1.34954 -0.585296 0
M  V30 3148 H 296.621 -2.09677 -3.60682 0
M  V30 3149 H 295.251 -1.11167 -3.03054 0
M  V30 3150 H 294.303 -3.27204 -1.94014 0
M  V30 3151 H 295.615 -4.17442 -2.73027 0
M  V30 3152 H 294.769 -3.46853 -4.97773 0
M  V30 3153 H 293.508 -2.46372 -4.20894 0
M  V30 3154 H 292.513 -4.50889 -3.14609 0
M  V30 3155 H 293.738 -5.5262 -3.947 0
M  V30 3156 H 291.684 -3.7826 -5.35962 0
M  V30 3157 H 291.601 -5.50462 -5.18197 0
M  V30 3158 H 292.869 -4.80127 -6.14084 0
M  V30 3159 N 297.098 0.621204 -1.44841 0
M  V30 3160 C 298.028 1.74366 -1.55303 0
M  V30 3161 C 299.009 1.65199 -0.405385 0
M  V30 3162 O 300.194 1.83807 -0.626787 0
M  V30 3163 C 297.324 3.12931 -1.50637 0
M  V30 3164 C 296.278 3.36896 -2.63979 0
M  V30 3165 C 295.604 4.75594 -2.44366 0
M  V30 3166 C 296.904 3.28483 -4.06074 0
M  V30 3167 H 298.598 1.65867 -2.49256 0
M  V30 3168 H 296.144 0.796558 -1.19962 0
M  V30 3169 H 298.097 3.9124 -1.56555 0
M  V30 3170 H 296.821 3.22237 -0.532057 0
M  V30 3171 H 295.48 2.60972 -2.57467 0
M  V30 3172 H 295.128 4.81616 -1.45105 0
M  V30 3173 H 294.828 4.92586 -3.20364 0
M  V30 3174 H 296.352 5.5612 -2.52117 0
M  V30 3175 H 297.766 3.96684 -4.13902 0
M  V30 3176 H 296.163 3.57008 -4.82354 0
M  V30 3177 H 297.233 2.26133 -4.28943 0
M  V30 3178 N 298.576 1.31904 0.862503 0
M  V30 3179 C 299.806 1.24817 1.64634 0
M  V30 3180 C 300.214 -0.187579 1.88268 0
M  V30 3181 O 299.557 -1.13253 1.44635 0
M  V30 3182 C 299.619 1.92996 3.03303 0
M  V30 3183 C 299.283 3.42336 3.02746 0
M  V30 3184 C 300.28 4.37956 2.80162 0
M  V30 3185 C 297.965 3.84147 3.2363 0
M  V30 3186 C 299.959 5.73361 2.78453 0
M  V30 3187 C 297.646 5.19663 3.21549 0
M  V30 3188 C 298.644 6.14081 2.98988 0
M  V30 3189 O 298.332 7.47118 2.96766 0
M  V30 3190 H 298.064 0.432222 0.519769 0
M  V30 3191 H 300.618 1.7445 1.08427 0
M  V30 3192 H 298.848 1.37922 3.61268 0
M  V30 3193 H 300.537 1.79723 3.63943 0
M  V30 3194 H 301.303 4.06981 2.63802 0
M  V30 3195 H 297.182 3.11083 3.40218 0
M  V30 3196 H 300.726 6.4703 2.60763 0
M  V30 3197 H 296.623 5.5027 3.37451 0
M  V30 3198 H 297.391 7.56382 3.12775 0
M  V30 3199 N 300.054 -1.07777 1.14986 0
M  V30 3200 C 301.001 -2.14867 0.842672 0
M  V30 3201 C 301.971 -1.6486 -0.202552 0
M  V30 3202 O 303.156 -1.90668 -0.0710568 0
M  V30 3203 C 300.296 -3.43486 0.333363 0
M  V30 3204 C 299.409 -4.07306 1.43965 0
M  V30 3205 C 298.544 -5.23744 0.886914 0
M  V30 3206 C 297.583 -5.79517 1.97043 0
M  V30 3207 N 296.72 -6.87291 1.4344 0
M  V30 3208 H 301.56 -2.40485 1.75986 0
M  V30 3209 H 299.097 -1.1801 0.878179 0
M  V30 3210 H 301.055 -4.17195 0.0198163 0
M  V30 3211 H 299.685 -3.18133 -0.546916 0
M  V30 3212 H 298.737 -3.31293 1.86946 0
M  V30 3213 H 300.049 -4.44771 2.25788 0
M  V30 3214 H 299.203 -6.04419 0.525651 0
M  V30 3215 H 297.942 -4.87685 0.0377957 0
M  V30 3216 H 296.947 -4.97491 2.34057 0
M  V30 3217 H 298.172 -6.17632 2.82325 0
M  V30 3218 H 296.118 -6.5318 0.607567 0
M  V30 3219 H 296.035 -7.23617 2.18895 0
M  V30 3220 H 297.303 -7.71682 1.10124 0
M  V30 3221 N 301.532 -0.945985 -1.26051 0
M  V30 3222 C 302.809 -0.513816 -1.88731 0
M  V30 3223 C 303.189 1.00872 -1.8544 0
M  V30 3224 O 302.537 1.8708 -1.312 0
M  V30 3225 C 302.747 -1.08062 -3.31849 0
M  V30 3226 C 304.095 -1.1522 -4.08668 0
M  V30 3227 O 305.119 -1.03155 -3.40936 0
M  V30 3228 O 303.978 -1.34044 -5.29806 0
M  V30 3229 H 301.072 -0.168193 -0.809716 0
M  V30 3230 H 303.618 -1.03886 -1.34186 0
M  V30 3231 H 302.39 -2.1241 -3.2863 0
M  V30 3232 H 302.013 -0.538307 -3.93939 0
M  V30 3233 N 303.011 1.40521 -0.713556 0
M  V30 3234 C 303.958 2.30723 -0.059684 0
M  V30 3235 C 304.928 1.48079 0.752448 0
M  V30 3236 O 306.113 1.76823 0.71681 0
M  V30 3237 C 303.253 3.34274 0.857594 0
M  V30 3238 C 302.366 4.31986 0.0351536 0
M  V30 3239 C 301.501 5.22605 0.951724 0
M  V30 3240 C 300.54 6.11976 0.123253 0
M  V30 3241 N 299.677 6.9502 0.99459 0
M  V30 3242 H 304.517 2.86074 -0.834596 0
M  V30 3243 H 302.054 1.40879 -0.42326 0
M  V30 3244 H 304.012 3.92879 1.40364 0
M  V30 3245 H 302.642 2.8043 1.59871 0
M  V30 3246 H 301.694 3.7518 -0.628052 0
M  V30 3247 H 303.006 4.95101 -0.606347 0
M  V30 3248 H 302.16 5.86131 1.56638 0
M  V30 3249 H 300.899 4.59759 1.62705 0
M  V30 3250 H 299.904 5.47482 -0.50435 0
M  V30 3251 H 301.129 6.76881 -0.548539 0
M  V30 3252 H 299.075 6.34764 1.6556 0
M  V30 3253 H 298.992 7.54892 0.40908 0
M  V30 3254 H 300.26 7.62997 1.59549 0
M  V30 3255 N 304.489 0.459591 1.5075 0
M  V30 3256 C 305.737 -0.0991532 2.01857 0
M  V30 3257 C 306.058 -1.41247 1.34441 0
M  V30 3258 O 305.328 -1.89775 0.486022 0
M  V30 3259 H 303.908 -0.039633 0.745948 0
M  V30 3260 H 306.57 0.607387 1.85194 0
M  V30 3261 H 305.666 -0.258998 3.11023 0
M  V30 3262 N 305.967 -1.56429 0.191757 0
M  V30 3263 C 307.197 -2.01574 -0.452928 0
M  V30 3264 C 307.605 -1.07107 -1.55964 0
M  V30 3265 O 306.948 -0.067534 -1.83576 0
M  V30 3266 C 307.01 -3.43121 -1.07278 0
M  V30 3267 C 306.674 -4.56879 -0.105214 0
M  V30 3268 C 307.671 -5.15379 0.684149 0
M  V30 3269 C 305.356 -5.023 0.00489824 0
M  V30 3270 C 307.35 -6.17746 1.57062 0
M  V30 3271 C 305.037 -6.04511 0.894935 0
M  V30 3272 C 306.035 -6.62108 1.67637 0
M  V30 3273 O 305.723 -7.62335 2.55149 0
M  V30 3274 H 305.455 -0.665554 -0.118379 0
M  V30 3275 H 308.009 -2.03245 0.296737 0
M  V30 3276 H 306.239 -3.38425 -1.87097 0
M  V30 3277 H 307.928 -3.72093 -1.62177 0
M  V30 3278 H 308.694 -4.81157 0.609365 0
M  V30 3279 H 304.573 -4.57168 -0.593156 0
M  V30 3280 H 308.117 -6.6263 2.181 0
M  V30 3281 H 304.014 -6.38157 0.970847 0
M  V30 3282 H 304.782 -7.79741 2.48892 0
M  V30 3283 N 307.445 0.0818655 -1.57387 0
M  V30 3284 C 308.392 1.09834 -2.0299 0
M  V30 3285 C 309.362 1.39043 -0.908639 0
M  V30 3286 O 310.547 1.50282 -1.17559 0
M  V30 3287 C 307.687 2.40971 -2.47037 0
M  V30 3288 C 306.8 2.18379 -3.7274 0
M  V30 3289 C 305.935 3.43008 -4.0561 0
M  V30 3290 C 304.974 3.15736 -5.24383 0
M  V30 3291 N 304.111 4.32667 -5.52941 0
M  V30 3292 H 308.951 0.702472 -2.89602 0
M  V30 3293 H 306.488 0.33531 -1.43227 0
M  V30 3294 H 308.446 3.1752 -2.70623 0
M  V30 3295 H 307.076 2.78379 -1.63417 0
M  V30 3296 H 306.128 1.32569 -3.56552 0
M  V30 3297 H 307.44 1.94227 -4.59431 0
M  V30 3298 H 306.594 4.27958 -4.30043 0
M  V30 3299 H 305.333 3.70225 -3.17466 0
M  V30 3300 H 304.338 2.2918 -4.99757 0
M  V30 3301 H 305.563 2.8985 -6.14136 0
M  V30 3302 H 303.509 4.59935 -4.67756 0
M  V30 3303 H 303.426 4.11753 -6.34031 0
M  V30 3304 H 304.694 5.18644 -5.81918 0
M  V30 3305 N 308.923 1.53595 0.353017 0
M  V30 3306 C 310.171 1.70049 1.09215 0
M  V30 3307 C 310.492 0.461406 1.89463 0
M  V30 3308 O 309.762 -0.524633 1.88744 0
M  V30 3309 H 308.342 0.626912 0.40619 0
M  V30 3310 H 311.004 1.90822 0.396585 0
M  V30 3311 H 310.1 2.56718 1.77488 0
M  V30 3312 N 310.401 -0.613514 1.45168 0
M  V30 3313 C 311.311 -1.75296 1.55912 0
M  V30 3314 C 312.327 -1.68244 0.443856 0
M  V30 3315 O 313.503 -1.88706 0.70371 0
M  V30 3316 C 310.568 -3.1174 1.5172 0
M  V30 3317 C 309.629 -3.30291 2.74238 0
M  V30 3318 C 308.862 -4.60226 2.70236 0
M  V30 3319 O 309.085 -5.42168 1.77229 0
M  V30 3320 O 308.019 -4.81361 3.61352 0
M  V30 3321 H 311.845 -1.69183 2.52212 0
M  V30 3322 H 309.43 -0.776886 1.27612 0
M  V30 3323 H 311.312 -3.93044 1.51968 0
M  V30 3324 H 309.987 -3.18357 0.585697 0
M  V30 3325 H 308.894 -2.48598 2.79553 0
M  V30 3326 H 310.227 -3.28547 3.66494 0
M  V30 3327 N 311.879 -1.3236 -0.855495 0
M  V30 3328 C 313.128 -1.22226 -1.60448 0
M  V30 3329 C 313.441 0.214733 -1.94418 0
M  V30 3330 O 314.647 0.437917 -2.67945 0
M  V30 3331 C 313.103 -2.14063 -2.89318 0
M  V30 3332 C 312.711 -3.62839 -2.62777 0
M  V30 3333 C 314.455 -2.12764 -3.67331 0
M  V30 3334 C 312.362 -4.4664 -3.87643 0
M  V30 3335 H 311.292 -0.453904 -0.602069 0
M  V30 3336 H 313.943 -1.57314 -0.944698 0
M  V30 3337 H 312.325 -1.71889 -3.5675 0
M  V30 3338 H 313.499 -4.1335 -2.03662 0
M  V30 3339 H 311.814 -3.66261 -1.98096 0
M  V30 3340 H 314.411 -2.72611 -4.59987 0
M  V30 3341 H 314.754 -1.11841 -4.00995 0
M  V30 3342 H 315.287 -2.53214 -3.06802 0
M  V30 3343 H 312.026 -5.48373 -3.5912 0
M  V30 3344 H 311.546 -4.0088 -4.46156 0
M  V30 3345 H 313.225 -4.59597 -4.55389 0
M  V30 3346 N 313.357 1.07166 -1.15556 0
M  V30 3347 C 314.605 1.79443 -0.929764 0
M  V30 3348 C 314.926 1.87246 0.544414 0
M  V30 3349 O 314.196 1.37473 1.39564 0
M  V30 3350 H 312.776 0.664625 -0.341003 0
M  V30 3351 H 315.438 1.29499 -1.45657 0
M  V30 3352 H 314.534 2.81832 -1.34079 0
M  V30 3353 N 314.835 0.952656 1.25548 0
M  V30 3354 C 316.081 0.607272 1.93494 0
M  V30 3355 C 316.414 -0.853245 1.74452 0
M  V30 3356 O 315.689 -1.61194 1.08843 0
M  V30 3357 C 315.972 0.96435 3.46947 0
M  V30 3358 C 315.825 2.48045 3.75225 0
M  V30 3359 C 317.144 0.487987 4.37386 0
M  V30 3360 H 314.263 0.222096 0.702739 0
M  V30 3361 H 316.905 1.18895 1.48203 0
M  V30 3362 H 315.055 0.469361 3.85654 0
M  V30 3363 H 316.727 3.04905 3.46166 0
M  V30 3364 H 314.97 2.919 3.209 0
M  V30 3365 H 315.641 2.6808 4.82532 0
M  V30 3366 H 318.117 0.912558 4.0597 0
M  V30 3367 H 316.993 0.766547 5.43521 0
M  V30 3368 H 317.254 -0.612063 4.37843 0
M  V30 3369 N 316.313 -1.40141 0.720998 0
M  V30 3370 C 317.559 -2.01084 0.263231 0
M  V30 3371 C 317.892 -1.57052 -1.14229 0
M  V30 3372 O 317.167 -0.793027 -1.77599 0
M  V30 3373 C 317.45 -3.58401 0.349344 0
M  V30 3374 C 317.303 -4.12491 1.79363 0
M  V30 3375 C 318.622 -4.39231 -0.276351 0
M  V30 3376 H 315.741 -0.730572 0.0971228 0
M  V30 3377 H 318.383 -1.66543 0.914518 0
M  V30 3378 H 316.533 -3.87958 -0.205165 0
M  V30 3379 H 318.205 -3.93711 2.40394 0
M  V30 3380 H 316.448 -3.66576 2.31958 0
M  V30 3381 H 317.119 -5.21646 1.80524 0
M  V30 3382 H 319.595 -4.15637 0.196184 0
M  V30 3383 H 318.471 -5.48586 -0.185681 0
M  V30 3384 H 318.732 -4.20643 -1.36059 0
M  V30 3385 N 317.792 -0.46758 -1.50504 0
M  V30 3386 C 318.742 0.34698 -2.25344 0
M  V30 3387 C 319.726 0.964469 -1.2879 0
M  V30 3388 O 320.918 0.8776 -1.53711 0
M  V30 3389 C 318.047 1.43042 -3.1208 0
M  V30 3390 C 317.133 0.82084 -4.16081 0
M  V30 3391 N 317.524 -0.0567602 -5.05768 0
M  V30 3392 C 315.822 1.08517 -4.32597 0
M  V30 3393 C 316.523 -0.402343 -5.80307 0
M  V30 3394 N 315.499 0.221607 -5.43148 0
M  V30 3395 H 319.301 -0.329129 -2.92051 0
M  V30 3396 H 316.815 -0.281508 -1.59942 0
M  V30 3397 H 318.812 2.02712 -3.64299 0
M  V30 3398 H 317.472 2.10856 -2.46921 0
M  V30 3399 H 318.483 -0.425349 -5.1615 0
M  V30 3400 H 315.16 1.75855 -3.78657 0
M  V30 3401 H 316.55 -1.11834 -6.62528 0
M  V30 3402 N 319.27 1.56325 -0.20005 0
M  V30 3403 C 320.233 2.18084 0.705132 0
M  V30 3404 C 321.233 1.13666 1.1374 0
M  V30 3405 O 322.423 1.39023 1.04968 0
M  V30 3406 C 319.555 2.78689 1.96329 0
M  V30 3407 H 320.748 2.99435 0.167023 0
M  V30 3408 H 318.301 1.56221 0.0495725 0
M  V30 3409 H 319.036 2.0115 2.5438 0
M  V30 3410 H 318.821 3.55133 1.66202 0
M  V30 3411 H 320.311 3.26096 2.60866 0
M  V30 3412 N 320.748 -0.0735177 1.57428 0
M  V30 3413 C 321.678 -1.0879 2.06608 0
M  V30 3414 C 322.659 -1.40473 0.959237 0
M  V30 3415 O 323.844 -1.5013 1.23185 0
M  V30 3416 C 320.974 -2.40183 2.50857 0
M  V30 3417 C 319.928 -2.22858 3.65402 0
M  V30 3418 C 319.254 -3.59619 3.957 0
M  V30 3419 C 320.554 -1.65123 4.95511 0
M  V30 3420 H 322.248 -0.678673 2.91607 0
M  V30 3421 H 319.794 -0.325013 1.40284 0
M  V30 3422 H 321.747 -3.11437 2.83874 0
M  V30 3423 H 320.471 -2.83083 1.62885 0
M  V30 3424 H 319.13 -1.54045 3.32664 0
M  V30 3425 H 318.778 -4.00086 3.04861 0
M  V30 3426 H 318.478 -3.48866 4.72828 0
M  V30 3427 H 320.002 -4.32306 4.31212 0
M  V30 3428 H 321.416 -2.26241 5.26771 0
M  V30 3429 H 319.813 -1.65071 5.7695 0
M  V30 3430 H 320.883 -0.612559 4.81015 0
M  V30 3431 N 322.226 -1.5378 -0.344866 0
M  V30 3432 C 323.637 -1.62428 -0.920552 0
M  V30 3433 C 323.988 -0.504747 -1.89596 0
M  V30 3434 O 323.113 0.365711 -2.13287 0
M  V30 3435 C 323.708 -2.94419 -1.67639 0
M  V30 3436 C 322.267 -3.05333 -2.20111 0
M  V30 3437 C 321.414 -2.57866 -1.01982 0
M  V30 3438 H 324.365 -1.58222 -0.123042 0
M  V30 3439 H 324.386 -2.83384 -2.53917 0
M  V30 3440 H 323.898 -3.7588 -0.966224 0
M  V30 3441 H 321.999 -2.28502 -2.94308 0
M  V30 3442 H 322.112 -4.10778 -2.46573 0
M  V30 3443 H 320.476 -2.13241 -1.39285 0
M  V30 3444 H 321.259 -3.41765 -0.324308 0
M  V30 3445 N 323.704 0.605807 -1.45491 0
M  V30 3446 C 324.932 1.39136 -1.5313 0
M  V30 3447 C 325.347 1.88082 -0.164507 0
M  V30 3448 O 324.704 1.62316 0.834247 0
M  V30 3449 C 324.755 2.59463 -2.51716 0
M  V30 3450 O 324.476 2.12551 -3.83084 0
M  V30 3451 C 325.977 3.52301 -2.6907 0
M  V30 3452 H 323.197 0.425849 -0.51855 0
M  V30 3453 H 325.741 0.73865 -1.90694 0
M  V30 3454 H 323.896 3.20772 -2.17219 0
M  V30 3455 H 324.31 2.90744 -4.36541 0
M  V30 3456 H 325.784 4.33271 -3.42024 0
M  V30 3457 H 326.261 4.02757 -1.75167 0
M  V30 3458 H 326.867 2.96845 -3.04571 0
M  V30 3459 N 325.182 1.32811 0.848464 0
M  V30 3460 C 326.129 1.22265 1.95755 0
M  V30 3461 C 327.099 0.103413 1.65778 0
M  V30 3462 O 328.284 0.280033 1.88734 0
M  V30 3463 C 325.424 0.958014 3.31536 0
M  V30 3464 C 324.537 2.16262 3.73971 0
M  V30 3465 C 323.672 1.83295 4.98575 0
M  V30 3466 C 322.711 3.00041 5.33518 0
M  V30 3467 N 321.848 2.67125 6.49299 0
M  V30 3468 H 326.688 2.17128 2.04107 0
M  V30 3469 H 324.225 1.07982 0.998913 0
M  V30 3470 H 326.183 0.785052 4.09747 0
M  V30 3471 H 324.813 0.046159 3.22767 0
M  V30 3472 H 323.865 2.44565 2.91362 0
M  V30 3473 H 325.177 3.03572 3.95785 0
M  V30 3474 H 324.331 1.62586 5.84509 0
M  V30 3475 H 323.07 0.932078 4.7871 0
M  V30 3476 H 322.075 3.21374 4.46093 0
M  V30 3477 H 323.3 3.90869 5.55336 0
M  V30 3478 H 321.246 1.79586 6.3094 0
M  V30 3479 H 321.163 3.47965 6.71161 0
M  V30 3480 H 322.431 2.49861 7.3837 0
M  V30 3481 N 326.66 -1.06551 1.16123 0
M  V30 3482 C 327.89 -1.8274 0.963838 0
M  V30 3483 C 328.298 -1.82712 -0.491228 0
M  V30 3484 O 327.641 -1.24294 -1.35265 0
M  V30 3485 C 327.703 -3.3065 1.41106 0
M  V30 3486 C 327.367 -3.54384 2.88549 0
M  V30 3487 C 328.364 -3.4765 3.86569 0
M  V30 3488 C 326.049 -3.81789 3.26408 0
M  V30 3489 C 328.043 -3.67982 5.2045 0
M  V30 3490 C 325.73 -4.01772 4.60459 0
M  V30 3491 C 326.728 -3.94866 5.57288 0
M  V30 3492 O 326.416 -4.14306 6.88916 0
M  V30 3493 H 326.148 -0.583136 0.341948 0
M  V30 3494 H 328.702 -1.35351 1.54497 0
M  V30 3495 H 326.932 -3.78887 0.773394 0
M  V30 3496 H 328.621 -3.88324 1.1815 0
M  V30 3497 H 329.387 -3.2647 3.58667 0
M  V30 3498 H 325.266 -3.86276 2.51619 0
M  V30 3499 H 328.81 -3.62507 5.96015 0
M  V30 3500 H 324.707 -4.2244 4.88072 0
M  V30 3501 H 325.475 -4.31609 6.95454 0
M  V30 3502 N 328.138 -0.959301 -1.25041 0
M  V30 3503 C 329.549 -0.65667 -1.74771 0
M  V30 3504 C 329.9 0.827852 -1.77879 0
M  V30 3505 O 329.025 1.64783 -1.40269 0
M  V30 3506 C 329.62 -1.1853 -3.1739 0
M  V30 3507 C 328.179 -0.932734 -3.6466 0
M  V30 3508 C 327.326 -1.32558 -2.43564 0
M  V30 3509 H 330.277 -1.13558 -1.10862 0
M  V30 3510 H 330.298 -0.547582 -3.76539 0
M  V30 3511 H 329.81 -2.26576 -3.15095 0
M  V30 3512 H 327.911 0.13257 -3.72364 0
M  V30 3513 H 328.024 -1.57248 -4.52559 0
M  V30 3514 H 326.388 -0.743956 -2.43593 0
M  V30 3515 H 327.171 -2.41537 -2.43957 0
M  V30 3516 N 329.616 1.39756 -0.72842 0
M  V30 3517 C 330.846 2.04651 -0.283117 0
M  V30 3518 C 331.254 1.5502 1.08469 0
M  V30 3519 O 330.597 0.707343 1.69536 0
M  V30 3520 C 330.659 3.58947 -0.199309 0
M  V30 3521 C 330.323 4.31525 -1.5045 0
M  V30 3522 C 331.32 4.5861 -2.44894 0
M  V30 3523 C 329.005 4.70195 -1.76698 0
M  V30 3524 C 330.999 5.23366 -3.63822 0
M  V30 3525 C 328.686 5.3468 -2.95906 0
M  V30 3526 C 329.684 5.61198 -3.89289 0
M  V30 3527 O 329.372 6.24347 -5.06404 0
M  V30 3528 H 329.104 0.664777 -0.122666 0
M  V30 3529 H 331.658 1.79913 -0.990987 0
M  V30 3530 H 329.888 3.82556 0.56461 0
M  V30 3531 H 331.577 4.0534 0.213125 0
M  V30 3532 H 332.343 4.29187 -2.25883 0
M  V30 3533 H 328.222 4.48916 -1.04859 0
M  V30 3534 H 331.766 5.4398 -4.36728 0
M  V30 3535 H 327.663 5.63524 -3.14819 0
M  V30 3536 H 328.431 6.42842 -5.06652 0
M  V30 3537 N 331.094 0.475555 1.50254 0
M  V30 3538 C 332.371 -0.139685 1.95101 0
M  V30 3539 C 332.751 -1.56555 1.41611 0
M  V30 3540 O 332.099 -2.19956 0.618993 0
M  V30 3541 C 332.309 -0.0784298 3.48912 0
M  V30 3542 C 333.657 -0.265095 4.23772 0
M  V30 3543 O 334.681 -0.154808 3.55863 0
M  V30 3544 O 333.54 -0.488327 5.44314 0
M  V30 3545 H 330.634 -0.109236 0.819754 0
M  V30 3546 H 333.18 0.536276 1.61004 0
M  V30 3547 H 331.952 0.916918 3.80405 0
M  V30 3548 H 331.575 -0.795655 3.89558 0
M  V30 3549 N 332.573 -1.56217 0.208337 0
M  V30 3550 C 333.984 -1.84243 -0.301904 0
M  V30 3551 C 334.335 -1.12939 -1.60434 0
M  V30 3552 O 333.46 -0.39461 -2.12772 0
M  V30 3553 C 334.055 -3.34231 -0.554543 0
M  V30 3554 C 332.614 -3.62621 -1.00912 0
M  V30 3555 C 331.761 -2.77224 -0.064933 0
M  V30 3556 H 334.712 -1.52712 0.431833 0
M  V30 3557 H 334.733 -3.5372 -1.40223 0
M  V30 3558 H 334.245 -3.86099 0.393561 0
M  V30 3559 H 332.346 -3.16197 -1.97104 0
M  V30 3560 H 332.459 -4.7071 -0.892674 0
M  V30 3561 H 330.823 -2.48256 -0.56929 0
M  V30 3562 H 331.606 -3.31887 0.877851 0
M  V30 3563 N 334.051 0.0651679 -1.57465 0
M  V30 3564 C 334.961 1.09448 -2.07505 0
M  V30 3565 C 335.977 1.41974 -1.00595 0
M  V30 3566 O 337.153 1.52018 -1.32107 0
M  V30 3567 C 334.218 2.38689 -2.51453 0
M  V30 3568 C 333.279 2.13073 -3.72691 0
M  V30 3569 C 332.512 3.36152 -4.14533 0
M  V30 3570 O 332.735 4.45517 -3.56189 0
M  V30 3571 O 331.669 3.23974 -5.07272 0
M  V30 3572 H 335.495 0.69935 -2.95538 0
M  V30 3573 H 333.08 0.279752 -1.46757 0
M  V30 3574 H 334.962 3.14736 -2.80212 0
M  V30 3575 H 333.637 2.77568 -1.66546 0
M  V30 3576 H 332.544 1.34709 -3.49005 0
M  V30 3577 H 333.877 1.79071 -4.5847 0
M  V30 3578 N 335.529 1.53961 0.336706 0
M  V30 3579 C 336.477 1.83136 1.43401 0
M  V30 3580 C 337.471 0.702313 1.54156 0
M  V30 3581 O 338.677 0.885765 1.56698 0
M  V30 3582 H 335.052 0.580309 0.478273 0
M  V30 3583 H 337.023 2.74925 1.16012 0
M  V30 3584 C 335.772 2.06385 2.79822 0
M  V30 3585 H 335.095 2.92718 2.72316 0
M  V30 3586 H 336.535 2.30761 3.55704 0
M  V30 3587 C 334.994 0.851414 3.25964 0
M  V30 3588 O 335.524 0.0541904 4.01663 0
M  V30 3589 N 333.73 0.66672 2.82848 0
M  V30 3590 H 333.277 1.31665 2.21409 0
M  V30 3591 H 333.235 -0.143032 3.14074 0
M  V30 3592 N 337.007 -0.598083 1.45811 0
M  V30 3593 C 338.418 -1.18011 1.44673 0
M  V30 3594 C 338.769 -1.95378 0.179364 0
M  V30 3595 O 337.894 -2.04124 -0.718509 0
M  V30 3596 C 338.489 -2.14677 2.62105 0
M  V30 3597 C 337.048 -2.68236 2.64057 0
M  V30 3598 C 336.195 -1.43816 2.37091 0
M  V30 3599 H 339.146 -0.38686 1.53913 0
M  V30 3600 H 339.167 -2.97878 2.36746 0
M  V30 3601 H 338.679 -1.5834 3.5433 0
M  V30 3602 H 336.78 -3.28486 1.75864 0
M  V30 3603 H 336.893 -3.12021 3.63566 0
M  V30 3604 H 335.257 -1.731 1.86838 0
M  V30 3605 H 336.04 -0.893333 3.31473 0
M  V30 3606 N 338.485 -1.33259 -0.841409 0
M  V30 3607 C 339.448 -1.23221 -1.9326 0
M  V30 3608 C 340.448 -0.151895 -1.60081 0
M  V30 3609 O 341.638 -0.403246 -1.69468 0
M  V30 3610 C 338.77 -0.898123 -3.28856 0
M  V30 3611 H 339.963 -2.2021 -2.03587 0
M  V30 3612 H 337.516 -1.17281 -1.03319 0
M  V30 3613 H 338.251 0.0693841 -3.24226 0
M  V30 3614 H 338.036 -1.67934 -3.54317 0
M  V30 3615 H 339.526 -0.852563 -4.08805 0
M  V30 3616 N 339.963 1.05934 -1.16686 0
M  V30 3617 C 341.24 1.75643 -0.860747 0
M  V30 3618 C 341.62 2.01144 0.640641 0
M  V30 3619 O 340.968 1.64147 1.58959 0
M  V30 3620 C 341.178 3.05493 -1.68745 0
M  V30 3621 C 342.526 3.79581 -1.90271 0
M  V30 3622 O 343.55 3.15344 -1.65641 0
M  V30 3623 O 342.409 4.9499 -2.31618 0
M  V30 3624 H 339.503 0.763426 -0.317977 0
M  V30 3625 H 342.049 1.1217 -1.27342 0
M  V30 3626 H 340.821 2.8264 -2.70611 0
M  V30 3627 H 340.444 3.76702 -1.27206 0
M  V30 3628 N 341.441 0.965919 1.2453 0
M  V30 3629 C 342.687 0.62776 1.92839 0
M  V30 3630 C 343.02 -0.834694 1.75347 0
M  V30 3631 O 342.295 -1.60031 1.10546 0
M  V30 3632 C 342.578 1.00109 3.45905 0
M  V30 3633 C 342.431 2.52011 3.72573 0
M  V30 3634 C 343.75 0.53435 4.36844 0
M  V30 3635 H 340.869 0.229537 0.700344 0
M  V30 3636 H 343.511 1.2046 1.46933 0
M  V30 3637 H 341.661 0.510238 3.85135 0
M  V30 3638 H 343.333 3.08559 3.42912 0
M  V30 3639 H 341.576 2.95287 3.17786 0
M  V30 3640 H 342.247 2.73183 4.79661 0
M  V30 3641 H 344.723 0.955565 4.04979 0
M  V30 3642 H 343.599 0.824152 5.42678 0
M  V30 3643 H 343.86 -0.565589 4.38467 0
M  V30 3644 N 342.919 -1.39368 0.735821 0
M  V30 3645 C 344.335 -1.54204 0.411492 0
M  V30 3646 C 344.535 -1.70268 -1.07755 0
M  V30 3647 O 343.591 -1.70364 -1.86366 0
M  V30 3648 C 344.904 -2.75925 1.19523 0
M  V30 3649 C 346.452 -2.89761 1.18354 0
M  V30 3650 C 346.927 -4.14421 1.94986 0
M  V30 3651 N 348.418 -4.21462 1.92156 0
M  V30 3652 C 349.153 -5.16871 2.48258 0
M  V30 3653 N 348.649 -6.18063 3.13001 0
M  V30 3654 N 350.442 -5.09093 2.38287 0
M  V30 3655 H 342.593 -1.27189 1.70108 0
M  V30 3656 H 344.856 -0.616517 0.720147 0
M  V30 3657 H 344.562 -2.70401 2.24892 0
M  V30 3658 H 344.436 -3.68614 0.800222 0
M  V30 3659 H 346.823 -2.94777 0.137975 0
M  V30 3660 H 346.904 -1.98133 1.61793 0
M  V30 3661 H 346.548 -4.10166 2.99543 0
M  V30 3662 H 346.478 -5.05095 1.48953 0
M  V30 3663 H 348.969 -3.48979 1.44991 0
M  V30 3664 H 349.282 -6.87326 3.53275 0
M  V30 3665 H 347.627 -6.18448 3.17091 0
M  V30 3666 H 350.818 -4.28973 1.8735 0
M  V30 3667 H 350.991 -5.83272 2.82308 0
M  V30 3668 N 344.397 -0.483516 -1.5 0
M  V30 3669 C 345.36 0.292965 -2.2732 0
M  V30 3670 C 346.36 0.909499 -1.32608 0
M  V30 3671 O 347.55 0.776745 -1.55924 0
M  V30 3672 C 344.682 1.41854 -3.09984 0
M  V30 3673 H 345.875 -0.385289 -2.97415 0
M  V30 3674 H 343.428 -0.237942 -1.54478 0
M  V30 3675 H 344.163 2.13148 -2.44414 0
M  V30 3676 H 343.948 0.982114 -3.79601 0
M  V30 3677 H 345.438 1.96597 -3.68429 0
M  V30 3678 N 345.875 1.56104 -0.216619 0
M  V30 3679 C 346.838 2.18819 0.681962 0
M  V30 3680 C 347.838 1.14866 1.12528 0
M  V30 3681 O 349.028 1.40128 1.03488 0
M  V30 3682 C 346.16 2.80756 1.93362 0
M  V30 3683 H 347.353 2.99595 0.135254 0
M  V30 3684 H 344.906 1.56265 0.0330003 0
M  V30 3685 H 345.641 2.03837 2.52232 0
M  V30 3686 H 345.426 3.56876 1.62426 0
M  V30 3687 H 346.916 3.28844 2.57393 0
M  V30 3688 N 347.353 -0.0568162 1.57498 0
M  V30 3689 C 348.263 -1.08346 2.08083 0
M  V30 3690 C 349.279 -1.41439 1.01346 0
M  V30 3691 O 350.455 -1.51316 1.32912 0
M  V30 3692 C 347.52 -2.37352 2.52715 0
M  V30 3693 C 346.581 -2.11093 3.73816 0
M  V30 3694 C 345.814 -3.33949 4.1631 0
M  V30 3695 O 346.037 -4.43622 3.58547 0
M  V30 3696 O 344.971 -3.21279 5.08983 0
M  V30 3697 H 348.797 -0.683667 2.95905 0
M  V30 3698 H 346.382 -0.271965 1.46904 0
M  V30 3699 H 348.264 -3.13246 2.81877 0
M  V30 3700 H 346.939 -2.76681 1.68016 0
M  V30 3701 H 345.846 -1.32856 3.49714 0
M  V30 3702 H 347.179 -1.76637 4.59413 0
M  V30 3703 N 348.832 -1.54138 -0.328536 0
M  V30 3704 C 349.762 -1.86167 -1.40939 0
M  V30 3705 C 350.743 -0.718044 -1.54202 0
M  V30 3706 O 351.928 -0.971328 -1.68163 0
M  V30 3707 C 349.058 -2.08461 -2.77779 0
M  V30 3708 C 348.012 -3.24299 -2.7931 0
M  V30 3709 C 347.338 -3.31955 -4.19178 0
M  V30 3710 C 348.638 -4.62065 -2.43502 0
M  V30 3711 H 350.332 -2.76689 -1.14383 0
M  V30 3712 H 347.878 -1.33132 -0.548806 0
M  V30 3713 H 349.831 -2.29453 -3.53454 0
M  V30 3714 H 348.555 -1.14684 -3.05802 0
M  V30 3715 H 347.214 -3.03187 -2.0609 0
M  V30 3716 H 346.862 -2.35745 -4.44335 0
M  V30 3717 H 346.562 -4.09805 -4.2111 0
M  V30 3718 H 348.086 -3.55175 -4.96672 0
M  V30 3719 H 349.5 -4.8297 -3.08889 0
M  V30 3720 H 347.897 -5.42429 -2.56693 0
M  V30 3721 H 348.967 -4.64652 -1.38659 0
M  V30 3722 N 350.31 0.590341 -1.46126 0
M  V30 3723 C 351.22 1.72793 -1.58681 0
M  V30 3724 C 352.236 1.67516 -0.470566 0
M  V30 3725 O 353.412 1.87562 -0.733642 0
M  V30 3726 C 350.477 3.09287 -1.5666 0
M  V30 3727 C 349.538 3.25886 -2.79458 0
M  V30 3728 C 348.771 4.55869 -2.77524 0
M  V30 3729 O 348.994 5.3928 -1.85832 0
M  V30 3730 O 347.928 4.75552 -3.68964 0
M  V30 3731 H 351.754 1.65149 -2.54872 0
M  V30 3732 H 349.339 0.756486 -1.28832 0
M  V30 3733 H 351.221 3.90577 -1.58202 0
M  V30 3734 H 349.896 3.17385 -0.636271 0
M  V30 3735 H 348.803 2.44119 -2.83472 0
M  V30 3736 H 350.136 3.22675 -3.71674 0
M  V30 3737 N 351.788 1.33704 0.83433 0
M  V30 3738 C 353.065 1.16011 1.57483 0
M  V30 3739 C 353.445 -0.27176 2.09343 0
M  V30 3740 O 352.793 -1.27146 1.89858 0
M  V30 3741 C 353.003 2.20507 2.70514 0
M  V30 3742 C 354.351 2.54898 3.39577 0
M  V30 3743 O 355.375 2.19209 2.80759 0
M  V30 3744 O 354.234 3.16158 4.45765 0
M  V30 3745 H 351.328 0.448992 0.694503 0
M  V30 3746 H 353.874 1.453 0.876691 0
M  V30 3747 H 352.646 3.16667 2.29865 0
M  V30 3748 H 352.269 1.92329 3.47987 0
M  V30 3749 N 353.266 -1.05314 1.17247 0
M  V30 3750 C 354.515 -1.77685 0.954521 0
M  V30 3751 C 354.828 -1.88616 -0.518025 0
M  V30 3752 O 356.034 -2.57714 -0.854144 0
M  V30 3753 C 354.49 -3.19402 1.65863 0
M  V30 3754 C 354.098 -3.16605 3.16963 0
M  V30 3755 C 355.842 -3.96237 1.52303 0
M  V30 3756 C 353.749 -4.53103 3.80068 0
M  V30 3757 H 352.679 -0.666 0.353496 0
M  V30 3758 H 355.33 -1.1805 1.40486 0
M  V30 3759 H 353.712 -3.79355 1.13602 0
M  V30 3760 H 354.886 -2.66176 3.76148 0
M  V30 3761 H 353.201 -2.53268 3.30521 0
M  V30 3762 H 355.798 -4.97157 1.96822 0
M  V30 3763 H 356.141 -4.136 0.473401 0
M  V30 3764 H 356.674 -3.42829 2.01775 0
M  V30 3765 H 353.413 -4.40946 4.85023 0
M  V30 3766 H 352.933 -5.03686 3.2567 0
M  V30 3767 H 354.612 -5.22045 3.82202 0
M  V30 3768 N 354.744 -0.972509 -1.24016 0
M  V30 3769 C 355.993 -0.632603 -1.91523 0
M  V30 3770 C 356.306 0.836641 -1.76804 0
M  V30 3771 O 357.512 1.28728 -2.39043 0
M  V30 3772 C 355.968 -1.08082 -3.43287 0
M  V30 3773 C 355.576 -2.57386 -3.66683 0
M  V30 3774 C 357.32 -0.814288 -4.16617 0
M  V30 3775 C 355.227 -2.95915 -5.12043 0
M  V30 3776 H 354.157 -0.232898 -0.717129 0
M  V30 3777 H 356.808 -1.17936 -1.40582 0
M  V30 3778 H 355.19 -0.462339 -3.93292 0
M  V30 3779 H 356.364 -3.24405 -3.27258 0
M  V30 3780 H 354.679 -2.81701 -3.06649 0
M  V30 3781 H 357.276 -1.0781 -5.23718 0
M  V30 3782 H 357.619 0.24955 -4.15551 0
M  V30 3783 H 358.152 -1.39397 -3.72577 0
M  V30 3784 H 354.891 -4.0139 -5.18234 0
M  V30 3785 H 354.411 -2.33584 -5.52448 0
M  V30 3786 H 356.09 -2.86086 -5.80314 0
M  V30 3787 N 356.222 1.38976 -0.743202 0
M  V30 3788 C 357.172 2.27843 -0.084513 0
M  V30 3789 C 358.156 1.44677 0.704094 0
M  V30 3790 O 359.348 1.67511 0.571755 0
M  V30 3791 C 356.477 3.33466 0.815781 0
M  V30 3792 C 355.563 4.24095 0.0208844 0
M  V30 3793 N 355.954 4.95609 -1.0102 0
M  V30 3794 C 354.252 4.45303 0.249293 0
M  V30 3795 C 354.953 5.62287 -1.49024 0
M  V30 3796 N 353.929 5.37571 -0.807377 0
M  V30 3797 H 357.731 2.80593 -0.87436 0
M  V30 3798 H 355.245 1.51755 -0.578283 0
M  V30 3799 H 357.242 3.96008 1.30321 0
M  V30 3800 H 355.902 2.82276 1.6047 0
M  V30 3801 H 356.913 4.98849 -1.39176 0
M  V30 3802 H 353.59 4.0504 1.01237 0
M  V30 3803 H 354.98 6.29519 -2.34853 0
M  V30 3804 N 357.7 0.491464 1.49741 0
M  V30 3805 C 358.648 -0.305837 2.30581 0
M  V30 3806 C 359.642 -0.971642 1.38764 0
M  V30 3807 O 360.848 -0.90042 1.5586 0
M  V30 3808 H 357.223 -0.117482 0.742767 0
M  V30 3809 H 359.194 0.396093 2.95759 0
M  V30 3810 C 357.943 -1.36319 3.19863 0
M  V30 3811 H 357.266 -0.860258 3.90435 0
M  V30 3812 H 358.706 -1.89323 3.79385 0
M  V30 3813 C 357.165 -2.37621 2.38826 0
M  V30 3814 O 357.695 -3.43311 2.08567 0
M  V30 3815 N 355.901 -2.09849 2.01026 0
M  V30 3816 H 355.448 -1.23922 2.25834 0
M  V30 3817 H 355.406 -2.77859 1.47112 0
M  V30 3818 N 359.178 -1.55987 0.224894 0
M  V30 3819 C 360.125 -2.20436 -0.68385 0
M  V30 3820 C 361.095 -1.16102 -1.18783 0
M  V30 3821 O 362.28 -1.4447 -1.24632 0
M  V30 3822 C 359.42 -2.89076 -1.88491 0
M  V30 3823 C 358.533 -4.08012 -1.41951 0
M  V30 3824 C 357.668 -4.64426 -2.5784 0
M  V30 3825 C 356.707 -5.75656 -2.08053 0
M  V30 3826 N 355.844 -6.26347 -3.17227 0
M  V30 3827 H 360.684 -2.97727 -0.12754 0
M  V30 3828 H 358.221 -1.47011 -0.0511978 0
M  V30 3829 H 360.179 -3.27059 -2.59014 0
M  V30 3830 H 358.809 -2.14298 -2.41405 0
M  V30 3831 H 357.861 -3.75492 -0.609095 0
M  V30 3832 H 359.173 -4.88375 -1.01447 0
M  V30 3833 H 358.327 -5.04869 -3.3644 0
M  V30 3834 H 357.066 -3.83233 -3.01635 0
M  V30 3835 H 356.071 -5.34712 -1.27916 0
M  V30 3836 H 357.296 -6.58686 -1.65255 0
M  V30 3837 H 355.242 -5.48067 -3.60497 0
M  V30 3838 H 355.159 -7.01843 -2.80986 0
M  V30 3839 H 356.427 -6.71447 -3.95953 0
M  V30 3840 N 360.656 0.0484629 -1.57525 0
M  V30 3841 C 361.903 0.743125 -1.88372 0
M  V30 3842 C 362.231 1.76383 -0.819715 0
M  V30 3843 O 361.486 1.94855 0.181659 0
M  V30 3844 C 361.785 1.46632 -3.25935 0
M  V30 3845 C 361.451 0.583427 -4.4711 0
M  V30 3846 C 360.113 0.340191 -4.79996 0
M  V30 3847 C 362.465 -0.0273345 -5.21193 0
M  V30 3848 C 359.793 -0.522903 -5.84365 0
M  V30 3849 C 362.145 -0.878017 -6.26477 0
M  V30 3850 C 360.809 -1.1309 -6.5785 0
M  V30 3851 H 360.079 0.271929 -0.689301 0
M  V30 3852 H 362.726 0.00336166 -1.915 0
M  V30 3853 H 361.031 2.2789 -3.18706 0
M  V30 3854 H 362.728 2.00902 -3.47044 0
M  V30 3855 H 359.318 0.783151 -4.21384 0
M  V30 3856 H 363.502 0.147654 -4.9608 0
M  V30 3857 H 358.758 -0.727335 -6.07058 0
M  V30 3858 H 362.932 -1.35789 -6.83033 0
M  V30 3859 H 360.559 -1.80144 -7.38547 0
M  V30 3860 N 362.134 1.5431 0.320358 0
M  V30 3861 C 363.383 1.7188 1.05546 0
M  V30 3862 C 363.696 0.501143 1.89071 0
M  V30 3863 O 364.902 0.558258 2.65699 0
M  V30 3864 C 363.358 3.04025 1.92605 0
M  V30 3865 C 362.966 4.33207 1.14176 0
M  V30 3866 C 364.71 3.30959 2.65832 0
M  V30 3867 C 362.617 5.56412 2.00399 0
M  V30 3868 H 361.547 0.640547 0.397763 0
M  V30 3869 H 364.198 1.80802 0.313522 0
M  V30 3870 H 362.58 2.89019 2.7071 0
M  V30 3871 H 363.754 4.58989 0.40819 0
M  V30 3872 H 362.069 4.13062 0.526165 0
M  V30 3873 H 364.666 4.20203 3.30656 0
M  V30 3874 H 365.009 2.48979 3.33639 0
M  V30 3875 H 365.542 3.46847 1.94787 0
M  V30 3876 H 362.281 6.41004 1.37094 0
M  V30 3877 H 361.801 5.34844 2.7148 0
M  V30 3878 H 363.48 5.92938 2.58908 0
M  V30 3879 N 363.613 -0.582584 1.46437 0
M  V30 3880 C 364.543 -1.70187 1.59871 0
M  V30 3881 C 365.524 -1.64066 0.449042 0
M  V30 3882 O 366.709 -1.82081 0.6753 0
M  V30 3883 C 363.839 -3.08827 1.58881 0
M  V30 3884 C 362.793 -3.29779 2.72819 0
M  V30 3885 C 362.119 -4.68947 2.5689 0
M  V30 3886 C 363.419 -3.17601 4.1464 0
M  V30 3887 H 365.113 -1.592 2.53566 0
M  V30 3888 H 362.659 -0.764472 1.22032 0
M  V30 3889 H 364.612 -3.86951 1.66873 0
M  V30 3890 H 363.336 -3.20713 0.617306 0
M  V30 3891 H 361.995 -2.54054 2.64296 0
M  V30 3892 H 361.643 -4.77599 1.57823 0
M  V30 3893 H 361.343 -4.83919 3.33312 0
M  V30 3894 H 362.867 -5.4924 2.66773 0
M  V30 3895 H 364.281 -3.8557 4.24274 0
M  V30 3896 H 362.678 -3.44094 4.9165 0
M  V30 3897 H 363.748 -2.14681 4.34788 0
M  V30 3898 N 365.091 -1.34144 -0.827227 0
M  V30 3899 C 366.368 -1.16844 -1.56865 0
M  V30 3900 C 366.748 0.260654 -2.09485 0
M  V30 3901 O 366.096 1.26138 -1.9053 0
M  V30 3902 C 366.306 -2.21939 -2.6934 0
M  V30 3903 C 367.654 -2.56695 -3.3822 0
M  V30 3904 O 368.678 -2.20695 -2.79593 0
M  V30 3905 O 367.537 -3.18518 -4.44082 0
M  V30 3906 H 364.631 -0.452669 -0.692112 0
M  V30 3907 H 367.177 -1.45763 -0.868973 0
M  V30 3908 H 365.949 -3.17882 -2.28182 0
M  V30 3909 H 365.572 -1.94172 -3.46962 0
M  V30 3910 N 366.569 1.04691 -1.17803 0
M  V30 3911 C 367.532 2.10724 -0.901545 0
M  V30 3912 C 368.532 1.6042 0.110437 0
M  V30 3913 O 369.722 1.7377 -0.122303 0
M  V30 3914 C 366.854 3.39084 -0.351409 0
M  V30 3915 H 368.047 2.36686 -1.84174 0
M  V30 3916 H 365.6 1.21015 -0.98919 0
M  V30 3917 H 366.335 3.18782 0.59569 0
M  V30 3918 H 366.12 3.76909 -1.08083 0
M  V30 3919 H 367.61 4.17227 -0.176451 0
M  V30 3920 N 368.047 0.979072 1.23499 0
M  V30 3921 C 369.275 0.665202 1.95915 0
M  V30 3922 C 369.69 -0.767571 1.72493 0
M  V30 3923 O 369.047 -1.51635 1.01554 0
M  V30 3924 C 369.098 0.944438 3.48945 0
M  V30 3925 O 368.819 2.3209 3.71572 0
M  V30 3926 C 370.32 0.646336 4.38563 0
M  V30 3927 H 367.54 0.247218 0.623798 0
M  V30 3928 H 370.084 1.31009 1.57025 0
M  V30 3929 H 368.239 0.345575 3.85856 0
M  V30 3930 H 368.653 2.40957 4.65876 0
M  V30 3931 H 370.127 0.892091 5.44744 0
M  V30 3932 H 370.604 -0.419575 4.37191 0
M  V30 3933 H 371.21 1.22562 4.07258 0
M  V30 3934 N 369.525 -1.3858 0.750561 0
M  V30 3935 C 370.755 -2.04175 0.31564 0
M  V30 3936 C 371.163 -1.56726 -1.05989 0
M  V30 3937 O 370.506 -0.734225 -1.68389 0
M  V30 3938 C 370.568 -3.58585 0.256389 0
M  V30 3939 C 370.232 -4.29077 1.57296 0
M  V30 3940 C 371.229 -4.54656 2.52159 0
M  V30 3941 C 368.914 -4.67324 1.84156 0
M  V30 3942 C 370.908 -5.17512 3.72103 0
M  V30 3943 C 368.595 -5.29905 3.04374 0
M  V30 3944 C 369.593 -5.54933 3.98168 0
M  V30 3945 O 369.281 -6.16212 5.16273 0
M  V30 3946 H 369.013 -0.662742 0.133226 0
M  V30 3947 H 371.567 -1.78313 1.01948 0
M  V30 3948 H 369.797 -3.83406 -0.503677 0
M  V30 3949 H 371.486 -4.05628 -0.148612 0
M  V30 3950 H 372.252 -4.25539 2.32683 0
M  V30 3951 H 368.131 -4.47191 1.11988 0
M  V30 3952 H 371.675 -5.36963 4.45327 0
M  V30 3953 H 367.572 -5.58444 3.23745 0
M  V30 3954 H 368.34 -6.34701 5.16815 0
M  V30 3955 N 371.003 -0.499398 -1.49478 0
M  V30 3956 C 371.933 0.269244 -2.31943 0
M  V30 3957 C 372.914 0.964054 -1.40143 0
M  V30 3958 O 374.099 0.955767 -1.69052 0
M  V30 3959 C 371.229 1.33504 -3.20615 0
M  V30 3960 C 370.183 0.760202 -4.21195 0
M  V30 3961 C 369.509 1.9264 -4.98792 0
M  V30 3962 C 370.809 -0.247661 -5.21712 0
M  V30 3963 H 372.503 -0.419082 -2.96452 0
M  V30 3964 H 370.049 -0.202988 -1.42562 0
M  V30 3965 H 372.002 1.88048 -3.77115 0
M  V30 3966 H 370.726 2.05253 -2.54045 0
M  V30 3967 H 369.385 0.23653 -3.65836 0
M  V30 3968 H 369.033 2.63154 -4.28671 0
M  V30 3969 H 368.733 1.54785 -5.66847 0
M  V30 3970 H 370.257 2.4762 -5.58137 0
M  V30 3971 H 371.671 0.209579 -5.72917 0
M  V30 3972 H 370.068 -0.541962 -5.97648 0
M  V30 3973 H 371.138 -1.16409 -4.7072 0
M  V30 3974 N 372.481 1.55866 -0.233164 0
M  V30 3975 C 373.729 1.9821 0.394593 0
M  V30 3976 C 374.05 1.12234 1.59463 0
M  V30 3977 O 373.32 0.201981 1.94856 0
M  V30 3978 H 371.9 0.732034 0.148778 0
M  V30 3979 H 374.562 1.92107 -0.32876 0
M  V30 3980 H 373.658 3.03845 0.713063 0
M  V30 3981 N 373.959 -0.0401083 1.57549 0
M  V30 3982 C 374.909 -1.05175 2.02292 0
M  V30 3983 C 375.893 -1.32674 0.910294 0
M  V30 3984 O 377.085 -1.32444 1.17421 0
M  V30 3985 C 374.214 -2.35622 2.49674 0
M  V30 3986 C 373.3 -2.11261 3.67736 0
M  V30 3987 N 373.691 -1.56923 4.80842 0
M  V30 3988 C 371.989 -2.41596 3.74897 0
M  V30 3989 C 372.69 -1.48111 5.62528 0
M  V30 3990 N 371.666 -1.95282 5.07312 0
M  V30 3991 H 375.468 -0.625455 2.87168 0
M  V30 3992 H 372.982 -0.246624 1.60516 0
M  V30 3993 H 374.979 -3.08893 2.79983 0
M  V30 3994 H 373.639 -2.7894 1.662 0
M  V30 3995 H 374.65 -1.25345 5.02503 0
M  V30 3996 H 371.327 -2.88064 3.02201 0
M  V30 3997 H 372.717 -1.06683 6.63377 0
M  V30 3998 N 375.437 -1.54477 -0.31217 0
M  V30 3999 C 376.667 -1.76948 -1.06645 0
M  V30 4000 C 377.075 -0.523593 -1.81811 0
M  V30 4001 O 376.418 0.51578 -1.76311 0
M  V30 4002 C 376.48 -2.91668 -2.10166 0
M  V30 4003 C 376.144 -4.30165 -1.54296 0
M  V30 4004 C 377.141 -5.10603 -0.978793 0
M  V30 4005 C 374.826 -4.76738 -1.58196 0
M  V30 4006 C 376.82 -6.3573 -0.461048 0
M  V30 4007 C 374.507 -6.01831 -1.06034 0
M  V30 4008 C 375.505 -6.81161 -0.500844 0
M  V30 4009 O 375.193 -8.03899 0.0128958 0
M  V30 4010 H 374.925 -0.594088 -0.322546 0
M  V30 4011 H 377.479 -2.02213 -0.360441 0
M  V30 4012 H 375.709 -2.62001 -2.84416 0
M  V30 4013 H 377.398 -3.01817 -2.71406 0
M  V30 4014 H 378.164 -4.75771 -0.941651 0
M  V30 4015 H 374.043 -4.15027 -2.00683 0
M  V30 4016 H 377.587 -6.97596 -0.0236894 0
M  V30 4017 H 373.484 -6.36152 -1.09459 0
M  V30 4018 H 374.252 -8.18437 -0.101457 0
M  V30 4019 N 376.915 0.57481 -1.46744 0
M  V30 4020 C 378.14 1.36341 -1.56288 0
M  V30 4021 C 378.565 1.86954 -0.207347 0
M  V30 4022 O 377.923 1.62006 0.813871 0
M  V30 4023 C 377.971 2.52147 -2.57787 0
M  V30 4024 O 377.075 3.53834 -2.11838 0
M  V30 4025 H 376.416 0.405713 -0.525636 0
M  V30 4026 H 378.946 0.696453 -1.92382 0
M  V30 4027 H 378.956 2.98958 -2.77648 0
M  V30 4028 H 377.631 2.14663 -3.5622 0
M  V30 4029 H 376.208 3.1345 -2.01999 0
M  V30 4030 N 378.394 1.34581 0.820102 0
M  V30 4031 C 379.671 1.17675 1.56244 0
M  V30 4032 C 380.051 -0.249541 2.0962 0
M  V30 4033 O 379.399 -1.25125 1.91196 0
M  V30 4034 C 379.609 2.23364 2.6816 0
M  V30 4035 C 380.957 2.58485 3.36854 0
M  V30 4036 O 381.981 2.22175 2.78418 0
M  V30 4037 O 380.84 3.20868 4.42386 0
M  V30 4038 H 377.934 0.456333 0.689702 0
M  V30 4039 H 380.48 1.46222 0.861231 0
M  V30 4040 H 379.252 3.19087 2.26493 0
M  V30 4041 H 378.875 1.96009 3.45928 0
M  V30 4042 N 379.872 -1.04064 1.18357 0
M  V30 4043 C 380.819 -2.12077 0.910603 0
M  V30 4044 C 381.789 -1.65421 -0.15 0
M  V30 4045 O 382.974 -1.90797 -0.0103614 0
M  V30 4046 C 380.114 -3.42252 0.442472 0
M  V30 4047 C 379.227 -4.0252 1.5685 0
M  V30 4048 C 378.362 -5.20657 1.05309 0
M  V30 4049 C 377.401 -5.72955 2.1538 0
M  V30 4050 N 376.538 -6.8238 1.65233 0
M  V30 4051 H 381.378 -2.34764 1.83548 0
M  V30 4052 H 378.915 -1.15157 0.915279 0
M  V30 4053 H 380.873 -4.16921 0.152534 0
M  V30 4054 H 379.503 -3.19712 -0.445428 0
M  V30 4055 H 378.555 -3.25178 1.97391 0
M  V30 4056 H 379.867 -4.37362 2.39824 0
M  V30 4057 H 379.021 -6.0244 0.717677 0
M  V30 4058 H 377.76 -4.87318 0.19293 0
M  V30 4059 H 376.765 -4.89793 2.49766 0
M  V30 4060 H 377.99 -6.08337 3.01832 0
M  V30 4061 H 375.936 -6.50917 0.815064 0
M  V30 4062 H 375.853 -7.16286 2.41805 0
M  V30 4063 H 377.121 -7.67788 1.34619 0
M  V30 4064 N 381.35 -0.985608 -1.22978 0
M  V30 4065 C 382.578 -0.675582 -1.95559 0
M  V30 4066 C 382.993 0.758413 -1.72897 0
M  V30 4067 O 382.35 1.51094 -1.02357 0
M  V30 4068 C 382.401 -0.96293 -3.48439 0
M  V30 4069 O 382.122 -2.34057 -3.70336 0
M  V30 4070 C 383.623 -0.669585 -4.38214 0
M  V30 4071 H 380.843 -0.250523 -0.622478 0
M  V30 4072 H 383.387 -1.3184 -1.56328 0
M  V30 4073 H 381.542 -0.366033 -3.85667 0
M  V30 4074 H 381.956 -2.43424 -4.64591 0
M  V30 4075 H 383.43 -0.920967 -5.44263 0
M  V30 4076 H 383.907 0.396383 -4.37408 0
M  V30 4077 H 384.513 -1.2472 -4.06602 0
M  V30 4078 N 382.828 1.3818 -0.7579 0
M  V30 4079 C 383.761 2.28055 -0.0814093 0
M  V30 4080 C 384.739 1.45603 0.723779 0
M  V30 4081 O 385.923 1.74961 0.701491 0
M  V30 4082 C 383.05 3.2676 0.891394 0
M  V30 4083 C 382.096 4.26153 0.171909 0
M  V30 4084 S 382.929 5.23434 -1.13035 0
M  V30 4085 C 384.085 6.25694 -0.160727 0
M  V30 4086 H 384.318 2.85082 -0.84353 0
M  V30 4087 H 381.851 1.44246 -0.550671 0
M  V30 4088 H 383.809 3.8414 1.44731 0
M  V30 4089 H 382.47 2.68706 1.62652 0
M  V30 4090 H 381.663 4.95738 0.908843 0
M  V30 4091 H 381.265 3.72691 -0.312606 0
M  V30 4092 H 383.557 6.74161 0.671773 0
M  V30 4093 H 384.5 7.03285 -0.824353 0
M  V30 4094 H 384.908 5.64064 0.221892 0
M  V30 4095 N 384.306 0.507319 1.49211 0
M  V30 4096 C 385.216 -0.272136 2.33016 0
M  V30 4097 C 386.232 -0.961206 1.45041 0
M  V30 4098 O 387.408 -0.941191 1.78055 0
M  V30 4099 C 384.473 -1.31895 3.20631 0
M  V30 4100 C 383.534 -0.642648 4.24463 0
M  V30 4101 C 382.767 -1.63959 5.07891 0
M  V30 4102 O 382.99 -2.87007 4.92933 0
M  V30 4103 O 381.924 -1.19143 5.8999 0
M  V30 4104 H 385.75 0.413982 3.00865 0
M  V30 4105 H 383.335 0.268556 1.46966 0
M  V30 4106 H 385.217 -1.92446 3.7489 0
M  V30 4107 H 383.892 -1.98788 2.5547 0
M  V30 4108 H 382.799 0.00276252 3.741 0
M  V30 4109 H 384.132 -0.0160534 4.92197 0
M  V30 4110 N 385.784 -1.5574 0.241426 0
M  V30 4111 C 387.032 -1.98417 -0.384075 0
M  V30 4112 C 387.353 -1.13078 -1.58866 0
M  V30 4113 O 386.623 -0.212312 -1.94746 0
M  V30 4114 H 385.203 -0.732813 -0.144894 0
M  V30 4115 H 387.865 -1.9193 0.338943 0
M  V30 4116 H 386.961 -3.04219 -0.696939 0
M  V30 4117 N 387.262 0.0317525 -1.57568 0
M  V30 4118 C 388.508 0.724175 -1.8943 0
M  V30 4119 C 388.841 1.75149 -0.838836 0
M  V30 4120 O 388.116 1.93948 0.146422 0
M  V30 4121 C 388.399 1.39615 -3.31933 0
M  V30 4122 C 388.252 0.382537 -4.4817 0
M  V30 4123 C 389.571 2.33084 -3.73309 0
M  V30 4124 H 386.69 0.261797 -0.688935 0
M  V30 4125 H 389.332 -0.013017 -1.89996 0
M  V30 4126 H 387.482 2.02451 -3.31581 0
M  V30 4127 H 389.154 -0.243689 -4.60656 0
M  V30 4128 H 387.397 -0.29844 -4.32772 0
M  V30 4129 H 388.068 0.891145 -5.44759 0
M  V30 4130 H 390.544 1.80295 -3.7501 0
M  V30 4131 H 389.42 2.77084 -4.73831 0
M  V30 4132 H 389.681 3.19643 -3.05419 0
M  V30 4133 N 388.74 1.54641 0.303973 0
M  V30 4134 C 389.688 1.86137 1.39484 0
M  V30 4135 C 390.682 0.734854 1.52631 0
M  V30 4136 O 391.888 0.918803 1.54784 0
M  V30 4137 H 388.263 0.590324 0.465856 0
M  V30 4138 H 390.234 2.77324 1.10154 0
M  V30 4139 C 388.983 2.12274 2.75382 0
M  V30 4140 H 388.306 2.98429 2.66046 0
M  V30 4141 H 389.746 2.38254 3.5073 0
M  V30 4142 C 388.205 0.920365 3.24085 0
M  V30 4143 O 388.735 0.139377 4.01458 0
M  V30 4144 N 386.941 0.726566 2.81371 0
M  V30 4145 H 386.488 1.36332 2.18567 0
M  V30 4146 H 386.446 -0.0763799 3.14307 0
M  V30 4147 N 390.218 -0.567019 1.47046 0
M  V30 4148 C 391.168 -1.67018 1.55207 0
M  V30 4149 C 392.152 -1.55543 0.411714 0
M  V30 4150 O 393.344 -1.64192 0.661064 0
M  V30 4151 C 390.473 -3.05801 1.56014 0
M  V30 4152 C 389.559 -3.22515 2.75399 0
M  V30 4153 N 389.95 -3.09329 4.00186 0
M  V30 4154 C 388.248 -3.53493 2.71954 0
M  V30 4155 C 388.949 -3.2847 4.80086 0
M  V30 4156 N 387.925 -3.54352 4.12233 0
M  V30 4157 H 391.727 -1.55377 2.4947 0
M  V30 4158 H 389.241 -0.771503 1.42904 0
M  V30 4159 H 391.238 -3.84996 1.59949 0
M  V30 4160 H 389.898 -3.18561 0.628396 0
M  V30 4161 H 390.909 -2.86863 4.31196 0
M  V30 4162 H 387.586 -3.7284 1.87873 0
M  V30 4163 H 388.976 -3.23326 5.88991 0
M  V30 4164 N 391.696 -1.35014 -0.812953 0
M  V30 4165 C 392.945 -1.27269 -1.56479 0
M  V30 4166 C 393.258 0.152771 -1.95002 0
M  V30 4167 O 394.464 0.352451 -2.69203 0
M  V30 4168 C 392.92 -2.23159 -2.82362 0
M  V30 4169 C 392.528 -3.71016 -2.511 0
M  V30 4170 C 394.272 -2.24342 -3.60376 0
M  V30 4171 C 392.179 -4.58746 -3.73237 0
M  V30 4172 H 391.109 -0.472829 -0.587324 0
M  V30 4173 H 393.76 -1.6024 -0.894171 0
M  V30 4174 H 392.142 -1.83151 -3.51101 0
M  V30 4175 H 393.316 -4.1962 -1.90409 0
M  V30 4176 H 391.631 -3.72378 -1.86343 0
M  V30 4177 H 394.228 -2.87107 -4.51081 0
M  V30 4178 H 394.571 -1.24542 -3.97234 0
M  V30 4179 H 395.104 -2.62846 -2.98591 0
M  V30 4180 H 391.843 -5.59521 -3.41492 0
M  V30 4181 H 391.363 -4.14871 -4.33176 0
M  V30 4182 H 393.042 -4.73852 -4.40537 0
M  V30 4183 N 393.175 1.03435 -1.18907 0
M  V30 4184 C 394.105 2.13503 -0.945448 0
M  V30 4185 C 395.086 1.69682 0.119189 0
M  V30 4186 O 396.271 1.94169 -0.034707 0
M  V30 4187 C 393.401 3.44004 -0.477316 0
M  V30 4188 C 392.355 4.0148 -1.48316 0
M  V30 4189 C 391.681 5.27537 -0.872311 0
M  V30 4190 C 392.981 4.36921 -2.86177 0
M  V30 4191 H 394.675 2.34141 -1.86597 0
M  V30 4192 H 392.221 1.12523 -0.898584 0
M  V30 4193 H 394.174 4.20372 -0.294204 0
M  V30 4194 H 392.898 3.23072 0.478786 0
M  V30 4195 H 391.557 3.27201 -1.65332 0
M  V30 4196 H 391.205 5.02917 0.0911752 0
M  V30 4197 H 390.905 5.66954 -1.54393 0
M  V30 4198 H 392.429 6.06576 -0.699871 0
M  V30 4199 H 393.843 5.04248 -2.72776 0
M  V30 4200 H 392.24 4.87405 -3.50081 0
M  V30 4201 H 393.31 3.46466 -3.39248 0
M  V30 4202 N 394.653 0.992116 1.22453 0
M  V30 4203 C 395.616 0.546883 2.2258 0
M  V30 4204 C 396.616 -0.369829 1.56489 0
M  V30 4205 O 397.806 -0.161896 1.73446 0
M  V30 4206 C 394.938 -0.204659 3.40285 0
M  V30 4207 H 396.131 1.43234 2.63484 0
M  V30 4208 H 393.684 0.779239 1.3549 0
M  V30 4209 H 394.419 -1.10614 3.04853 0
M  V30 4210 H 394.204 0.45354 3.89468 0
M  V30 4211 H 395.694 -0.504358 4.14543 0
M  V30 4212 N 396.131 -1.37776 0.765217 0
M  V30 4213 C 397.041 -2.34135 0.147666 0
M  V30 4214 C 398.057 -1.59854 -0.687215 0
M  V30 4215 O 399.233 -1.91983 -0.608659 0
M  V30 4216 C 396.298 -3.3901 -0.72617 0
M  V30 4217 C 395.359 -4.2912 0.124417 0
M  V30 4218 C 394.592 -5.28986 -0.707807 0
M  V30 4219 O 394.815 -5.36205 -1.94525 0
M  V30 4220 O 393.749 -6.01779 -0.12046 0
M  V30 4221 H 397.575 -2.88664 0.943758 0
M  V30 4222 H 395.16 -1.39824 0.526277 0
M  V30 4223 H 397.042 -4.03195 -1.22524 0
M  V30 4224 H 395.717 -2.86819 -1.50056 0
M  V30 4225 H 394.624 -3.68057 0.669696 0
M  V30 4226 H 395.957 -4.84598 0.861736 0
M  V30 4227 N 397.609 -0.515225 -1.4894 0
M  V30 4228 C 398.557 0.269115 -2.31038 0
M  V30 4229 C 399.551 0.949443 -1.40292 0
M  V30 4230 O 400.757 0.87551 -1.57273 0
M  V30 4231 H 397.132 0.10565 -0.744542 0
M  V30 4232 H 399.103 -0.443096 -2.95092 0
M  V30 4233 C 397.852 1.31213 -3.21991 0
M  V30 4234 H 397.175 0.798034 -3.91754 0
M  V30 4235 H 398.615 1.83263 -3.82349 0
M  V30 4236 C 397.074 2.33791 -2.42576 0
M  V30 4237 O 397.604 3.3995 -2.14003 0
M  V30 4238 N 395.81 2.06625 -2.0434 0
M  V30 4239 H 395.357 1.20314 -2.27777 0
M  V30 4240 H 395.315 2.75483 -1.51514 0
M  V30 4241 N 399.087 1.5561 -0.249682 0
M  V30 4242 C 400.335 1.98618 0.373548 0
M  V30 4243 C 400.656 1.13919 1.58264 0
M  V30 4244 O 399.926 0.222637 1.94631 0
M  V30 4245 H 398.506 0.733571 0.141006 0
M  V30 4246 H 401.168 1.91748 -0.349117 0
M  V30 4247 H 400.264 3.04584 0.680796 0
M  V30 4248 N 400.565 -0.0233959 1.57583 0
M  V30 4249 C 401.813 -0.711654 1.89156 0
M  V30 4250 C 402.134 -1.75591 0.848096 0
M  V30 4251 O 401.404 -1.95547 -0.117566 0
M  V30 4252 H 399.984 -0.265835 0.698098 0
M  V30 4253 H 402.646 0.0119948 1.94896 0
M  V30 4254 H 401.742 -1.19766 2.88206 0
M  V30 4255 N 402.043 -1.548 -0.295768 0
M  V30 4256 C 402.953 -1.89177 -1.38742 0
M  V30 4257 C 403.969 -0.786481 -1.55211 0
M  V30 4258 O 405.145 -1.08344 -1.69775 0
M  V30 4259 C 402.21 -2.13663 -2.73036 0
M  V30 4260 C 401.271 -3.37349 -2.65508 0
M  V30 4261 C 400.504 -3.60658 -3.93398 0
M  V30 4262 O 400.727 -2.86882 -4.93006 0
M  V30 4263 O 399.661 -4.54179 -3.94975 0
M  V30 4264 H 403.487 -2.82059 -1.12589 0
M  V30 4265 H 401.072 -1.41056 -0.492295 0
M  V30 4266 H 402.954 -2.3094 -3.52484 0
M  V30 4267 H 401.629 -1.23967 -2.99022 0
M  V30 4268 H 400.536 -3.25431 -1.84514 0
M  V30 4269 H 401.869 -4.27192 -2.44474 0
M  V30 4270 N 403.521 0.559213 -1.47345 0
M  V30 4271 C 404.451 1.67622 -1.62558 0
M  V30 4272 C 405.432 1.63331 -0.475087 0
M  V30 4273 O 406.617 1.80983 -0.704182 0
M  V30 4274 C 403.747 3.0626 -1.63774 0
M  V30 4275 C 402.701 3.25397 -2.7803 0
M  V30 4276 C 402.027 4.64801 -2.64318 0
M  V30 4277 C 403.327 3.10965 -4.19641 0
M  V30 4278 H 405.021 1.55146 -2.56067 0
M  V30 4279 H 402.567 0.744961 -1.23233 0
M  V30 4280 H 404.52 3.84247 -1.73008 0
M  V30 4281 H 403.244 3.1969 -0.66825 0
M  V30 4282 H 401.903 2.49817 -2.68304 0
M  V30 4283 H 401.551 4.75028 -1.65401 0
M  V30 4284 H 401.251 4.78555 -3.40968 0
M  V30 4285 H 402.775 5.44926 -2.75478 0
M  V30 4286 H 404.189 3.78772 -4.30354 0
M  V30 4287 H 402.586 3.36229 -4.97062 0
M  V30 4288 H 403.656 2.07736 -4.38148 0
M  V30 4289 N 404.999 1.35443 0.805782 0
M  V30 4290 C 406.276 1.19325 1.54987 0
M  V30 4291 C 406.656 -0.227294 2.09873 0
M  V30 4292 O 406.004 -1.2309 1.92512 0
M  V30 4293 C 406.214 2.26196 2.65775 0
M  V30 4294 C 407.562 2.62043 3.34094 0
M  V30 4295 O 408.586 2.25115 2.76046 0
M  V30 4296 O 407.445 3.25542 4.38958 0
M  V30 4297 H 404.539 0.463623 0.684823 0
M  V30 4298 H 407.085 1.47127 0.845674 0
M  V30 4299 H 405.857 3.21471 2.23096 0
M  V30 4300 H 405.48 1.99667 3.43829 0
M  V30 4301 N 406.477 -1.02803 1.19454 0
M  V30 4302 C 407.407 -2.12999 0.956758 0
M  V30 4303 C 408.388 -1.69743 -0.110188 0
M  V30 4304 O 409.573 -1.94148 0.0450038 0
M  V30 4305 C 406.703 -3.43746 0.495553 0
M  V30 4306 C 405.657 -4.00688 1.50443 0
M  V30 4307 C 404.983 -5.27067 0.900275 0
M  V30 4308 C 406.283 -4.35397 2.8849 0
M  V30 4309 H 407.977 -2.33148 1.87836 0
M  V30 4310 H 405.523 -1.12045 0.904539 0
M  V30 4311 H 407.476 -4.2021 0.316493 0
M  V30 4312 H 406.2 -3.23321 -0.461646 0
M  V30 4313 H 404.859 -3.2632 1.67065 0
M  V30 4314 H 404.507 -5.02959 -0.064503 0
M  V30 4315 H 404.207 -5.66127 1.57397 0
M  V30 4316 H 405.731 -6.06196 0.73203 0
M  V30 4317 H 407.145 -5.02795 2.75446 0
M  V30 4318 H 405.542 -4.85541 3.52661 0
M  V30 4319 H 406.612 -3.44662 3.41081 0
M  V30 4320 N 407.956 -0.998596 -1.21925 0
M  V30 4321 C 409.372 -0.710303 -1.42923 0
M  V30 4322 C 409.572 0.716933 -1.88314 0
M  V30 4323 O 408.628 1.48712 -2.04062 0
M  V30 4324 C 409.941 -1.72072 -2.466 0
M  V30 4325 C 411.489 -1.73681 -2.60392 0
M  V30 4326 C 411.964 -2.73601 -3.67296 0
M  V30 4327 N 413.455 -2.7223 -3.7476 0
M  V30 4328 C 414.19 -3.46206 -4.57087 0
M  V30 4329 N 413.686 -4.29802 -5.43362 0
M  V30 4330 N 415.479 -3.34886 -4.51451 0
M  V30 4331 H 407.63 -1.92028 -0.9077 0
M  V30 4332 H 409.893 -0.828487 -0.460775 0
M  V30 4333 H 409.599 -2.74231 -2.20206 0
M  V30 4334 H 409.473 -1.51818 -3.45299 0
M  V30 4335 H 411.86 -0.722173 -2.86127 0
M  V30 4336 H 411.941 -1.98005 -1.61949 0
M  V30 4337 H 411.585 -3.75217 -3.42307 0
M  V30 4338 H 411.515 -2.46545 -4.65321 0
M  V30 4339 H 414.006 -2.11576 -3.1312 0
M  V30 4340 H 414.319 -4.83061 -6.03218 0
M  V30 4341 H 412.664 -4.33887 -5.42925 0
M  V30 4342 H 415.855 -2.69015 -3.83078 0
M  V30 4343 H 416.028 -3.92796 -5.15379 0
M  V30 4344 N 409.434 1.37368 -0.772513 0
M  V30 4345 C 410.711 1.93839 -0.26188 0
M  V30 4346 C 411.091 1.7061 1.24319 0
M  V30 4347 O 410.439 1.05534 2.02669 0
M  V30 4348 C 410.649 3.43154 -0.636102 0
M  V30 4349 C 411.997 4.20249 -0.606324 0
M  V30 4350 O 413.021 3.5152 -0.575538 0
M  V30 4351 O 411.88 5.42809 -0.634086 0
M  V30 4352 H 408.974 0.82478 -0.0605555 0
M  V30 4353 H 411.52 1.4665 -0.853917 0
M  V30 4354 H 410.292 3.53647 -1.6748 0
M  V30 4355 H 409.915 3.97596 -0.0170516 0
M  V30 4356 N 410.912 0.523116 1.48665 0
M  V30 4357 C 411.822 -0.247406 2.33292 0
M  V30 4358 C 412.838 -0.945769 1.46052 0
M  V30 4359 O 414.014 -0.922253 1.79043 0
M  V30 4360 C 411.079 -1.28487 3.22012 0
M  V30 4361 C 410.14 -0.597592 4.2512 0
M  V30 4362 C 409.373 -1.58563 5.09601 0
M  V30 4363 O 409.596 -2.81763 4.95949 0
M  V30 4364 O 408.53 -1.12879 5.91221 0
M  V30 4365 H 412.356 0.445869 3.00409 0
M  V30 4366 H 409.941 0.284128 1.46673 0
M  V30 4367 H 411.823 -1.88459 3.7691 0
M  V30 4368 H 410.498 -1.96068 2.57564 0
M  V30 4369 H 409.405 0.0424407 3.74076 0
M  V30 4370 H 410.738 0.0361517 4.92187 0
M  V30 4371 N 412.39 -1.55475 0.257931 0
M  V30 4372 C 413.667 -1.91155 -0.414629 0
M  V30 4373 C 414.047 -1.18008 -1.75035 0
M  V30 4374 O 413.395 -0.301193 -2.26506 0
M  V30 4375 C 413.605 -3.44283 -0.571859 0
M  V30 4376 C 414.953 -4.15744 -0.862678 0
M  V30 4377 O 415.977 -3.50083 -0.657314 0
M  V30 4378 O 414.836 -5.31909 -1.2544 0
M  V30 4379 H 411.93 -0.796016 -0.22425 0
M  V30 4380 H 414.476 -1.66976 0.302814 0
M  V30 4381 H 413.248 -3.89558 0.368844 0
M  V30 4382 H 412.871 -3.7436 -1.33943 0
M  V30 4383 N 413.868 0.0150385 -1.57593 0
M  V30 4384 C 415.115 0.703001 -1.89906 0
M  V30 4385 C 415.443 1.74604 -0.856944 0
M  V30 4386 O 414.698 1.95197 0.140287 0
M  V30 4387 C 414.997 1.39686 -3.28972 0
M  V30 4388 C 414.663 0.488457 -4.48246 0
M  V30 4389 C 413.325 0.2383 -4.8061 0
M  V30 4390 C 415.677 -0.137881 -5.21018 0
M  V30 4391 C 413.005 -0.646738 -5.83125 0
M  V30 4392 C 415.357 -1.0107 -6.24474 0
M  V30 4393 C 414.021 -1.27019 -6.55303 0
M  V30 4394 H 413.291 0.257246 -0.694914 0
M  V30 4395 H 415.938 -0.037259 -1.91464 0
M  V30 4396 H 414.243 2.21079 -3.23468 0
M  V30 4397 H 415.94 1.93495 -3.51227 0
M  V30 4398 H 412.53 0.693593 -4.22951 0
M  V30 4399 H 416.714 0.0423953 -4.96282 0
M  V30 4400 H 411.97 -0.855937 -6.05379 0
M  V30 4401 H 416.144 -1.50247 -6.79999 0
M  V30 4402 H 413.771 -1.95769 -7.3456 0
M  V30 4403 N 415.346 1.54954 0.287554 0
M  V30 4404 C 416.278 1.83224 1.37701 0
M  V30 4405 C 417.291 0.715898 1.46215 0
M  V30 4406 O 418.48 0.993565 1.48292 0
M  V30 4407 C 415.58 1.96723 2.75959 0
M  V30 4408 C 414.753 3.27253 2.90215 0
M  V30 4409 C 413.812 3.30998 4.09056 0
M  V30 4410 O 412.838 4.04457 4.00503 0
M  V30 4411 N 414.04 2.57353 5.20336 0
M  V30 4412 H 416.805 2.77254 1.138 0
M  V30 4413 H 414.366 1.54694 0.477652 0
M  V30 4414 H 416.358 1.96615 3.5373 0
M  V30 4415 H 414.928 1.09626 2.92747 0
M  V30 4416 H 414.148 3.40022 1.99447 0
M  V30 4417 H 415.436 4.13365 2.96659 0
M  V30 4418 H 414.834 1.97327 5.30169 0
M  V30 4419 H 413.391 2.62984 5.96391 0
M  V30 4420 N 416.824 -0.551391 1.4764 0
M  V30 4421 C 417.787 -1.64007 1.60107 0
M  V30 4422 C 418.787 -1.53601 0.47576 0
M  V30 4423 O 419.977 -1.57655 0.740988 0
M  V30 4424 C 417.109 -3.03569 1.55108 0
M  V30 4425 H 418.302 -1.543 2.57161 0
M  V30 4426 H 415.855 -0.771776 1.35917 0
M  V30 4427 H 416.59 -3.18804 0.594519 0
M  V30 4428 H 416.375 -3.12532 2.36783 0
M  V30 4429 H 417.865 -3.82762 1.66982 0
M  V30 4430 N 418.302 -1.35869 -0.798587 0
M  V30 4431 C 419.232 -1.32118 -1.92528 0
M  V30 4432 C 420.213 -0.194209 -1.68988 0
M  V30 4433 O 421.398 -0.390426 -1.90235 0
M  V30 4434 C 418.528 -1.10047 -3.29404 0
M  V30 4435 C 417.482 -2.19471 -3.67446 0
M  V30 4436 C 416.808 -1.82555 -5.02571 0
M  V30 4437 C 418.108 -3.61495 -3.76987 0
M  V30 4438 H 419.802 -2.26394 -1.95924 0
M  V30 4439 H 417.348 -1.08981 -0.94123 0
M  V30 4440 H 419.301 -1.06061 -4.07835 0
M  V30 4441 H 418.025 -0.122195 -3.26371 0
M  V30 4442 H 416.684 -2.22568 -2.91306 0
M  V30 4443 H 416.332 -0.833249 -4.9605 0
M  V30 4444 H 416.032 -2.5581 -5.28995 0
M  V30 4445 H 417.556 -1.80108 -5.83432 0
M  V30 4446 H 418.97 -3.60676 -4.4563 0
M  V30 4447 H 417.367 -4.33577 -4.14887 0
M  V30 4448 H 418.437 -3.97065 -2.78329 0
M  V30 4449 N 419.78 1.02168 -1.19998 0
M  V30 4450 C 421.057 1.72816 -0.916191 0
M  V30 4451 C 421.437 2.03081 0.576325 0
M  V30 4452 O 420.785 1.69122 1.53656 0
M  V30 4453 C 420.995 2.9997 -1.78378 0
M  V30 4454 C 422.343 3.73336 -2.02251 0
M  V30 4455 O 423.367 3.09914 -1.75589 0
M  V30 4456 O 422.226 4.87371 -2.47249 0
M  V30 4457 H 419.32 0.752924 -0.342103 0
M  V30 4458 H 421.866 1.08062 -1.30846 0
M  V30 4459 H 420.638 2.73888 -2.79466 0
M  V30 4460 H 420.261 3.72464 -1.39126 0
M  V30 4461 N 421.258 1.00505 1.21394 0
M  V30 4462 C 422.221 0.570459 2.21987 0
M  V30 4463 C 423.221 -0.353211 1.56873 0
M  V30 4464 O 424.411 -0.14349 1.73608 0
M  V30 4465 C 421.543 -0.168555 3.40483 0
M  V30 4466 H 422.736 1.46021 2.6195 0
M  V30 4467 H 420.289 0.793565 1.34656 0
M  V30 4468 H 421.024 -1.07374 3.06009 0
M  V30 4469 H 420.809 0.494823 3.88965 0
M  V30 4470 H 422.299 -0.460362 4.15055 0
M  V30 4471 N 422.737 -1.36956 0.779787 0
M  V30 4472 C 423.7 -2.2851 0.177662 0
M  V30 4473 C 424.7 -1.48393 -0.619377 0
M  V30 4474 O 425.89 -1.68505 -0.441785 0
M  V30 4475 C 423.022 -3.32428 -0.755279 0
M  V30 4476 H 424.215 -2.83269 0.984823 0
M  V30 4477 H 421.768 -1.46358 0.548544 0
M  V30 4478 H 422.503 -2.82808 -1.58714 0
M  V30 4479 H 422.288 -3.91659 -0.185817 0
M  V30 4480 H 423.778 -4.00824 -1.17174 0
M  V30 4481 N 424.215 -0.530993 -1.48385 0
M  V30 4482 C 425.162 0.231223 -2.29639 0
M  V30 4483 C 426.132 0.932864 -1.37429 0
M  V30 4484 O 427.317 0.933692 -1.66394 0
M  V30 4485 C 424.457 1.27155 -3.2082 0
M  V30 4486 C 423.57 0.578655 -4.28107 0
M  V30 4487 C 422.705 1.602 -5.06467 0
M  V30 4488 C 421.744 0.892625 -6.05556 0
M  V30 4489 N 420.881 1.86157 -6.76971 0
M  V30 4490 H 425.721 -0.467848 -2.94305 0
M  V30 4491 H 423.258 -0.242556 -1.45086 0
M  V30 4492 H 425.216 1.88703 -3.72085 0
M  V30 4493 H 423.846 1.939 -2.58075 0
M  V30 4494 H 422.898 -0.150782 -3.80101 0
M  V30 4495 H 424.21 0.0217065 -4.98795 0
M  V30 4496 H 423.364 2.29173 -5.61751 0
M  V30 4497 H 422.103 2.19285 -4.35621 0
M  V30 4498 H 421.108 0.188829 -5.49476 0
M  V30 4499 H 422.333 0.307878 -6.78402 0
M  V30 4500 H 420.279 2.44147 -6.08875 0
M  V30 4501 H 420.196 1.35608 -7.43738 0
M  V30 4502 H 421.464 2.54325 -7.36844 0
M  V30 4503 N 425.693 1.55336 -0.266172 0
M  V30 4504 C 426.97 1.91372 0.404486 0
M  V30 4505 C 427.35 1.18935 1.74407 0
M  V30 4506 O 426.698 0.3132 2.26343 0
M  V30 4507 C 426.908 3.44581 0.553593 0
M  V30 4508 C 428.256 4.16196 0.840618 0
M  V30 4509 O 429.28 3.50426 0.638739 0
M  V30 4510 O 428.139 5.32567 1.22618 0
M  V30 4511 H 425.233 0.797194 0.220025 0
M  V30 4512 H 427.779 1.66813 -0.311664 0
M  V30 4513 H 426.551 3.89357 -0.389498 0
M  V30 4514 H 426.174 3.75065 1.31955 0
M  V30 4515 N 427.171 -0.0066808 1.57599 0
M  V30 4516 C 428.101 -0.999296 2.11036 0
M  V30 4517 C 429.082 -1.36278 1.01795 0
M  V30 4518 O 430.267 -1.4477 1.29442 0
M  V30 4519 C 427.397 -2.29328 2.60818 0
M  V30 4520 C 426.351 -2.07159 3.74525 0
M  V30 4521 C 425.677 -3.42512 4.10596 0
M  V30 4522 C 426.977 -1.43959 5.02069 0
M  V30 4523 H 428.671 -0.554382 2.94223 0
M  V30 4524 H 426.217 -0.265221 1.41536 0
M  V30 4525 H 428.17 -2.99117 2.96828 0
M  V30 4526 H 426.894 -2.7592 1.74745 0
M  V30 4527 H 425.553 -1.39797 3.38899 0
M  V30 4528 H 425.201 -3.86795 3.21556 0
M  V30 4529 H 424.901 -3.28498 4.87199 0
M  V30 4530 H 426.425 -4.13628 4.4916 0
M  V30 4531 H 427.839 -2.03696 5.35893 0
M  V30 4532 H 426.236 -1.40452 5.83432 0
M  V30 4533 H 427.306 -0.407992 4.83181 0
M  V30 4534 N 428.649 -1.55105 -0.279332 0
M  V30 4535 C 429.597 -1.88333 -1.36505 0
M  V30 4536 C 430.591 -0.759043 -1.51443 0
M  V30 4537 O 431.797 -0.943312 -1.53302 0
M  V30 4538 H 428.172 -0.59766 -0.456406 0
M  V30 4539 H 430.143 -2.79041 -1.05728 0
M  V30 4540 C 428.892 -2.16628 -2.7197 0
M  V30 4541 H 428.215 -3.02624 -2.61264 0
M  V30 4542 H 429.655 -2.43803 -3.46895 0
M  V30 4543 C 428.114 -0.971807 -3.22579 0
M  V30 4544 O 428.644 -0.203228 -4.01186 0
M  V30 4545 N 426.85 -0.771238 -2.80179 0
M  V30 4546 H 426.397 -1.39792 -2.1637 0
M  V30 4547 H 426.355 0.0263667 -3.14389 0
M  V30 4548 N 430.127 0.543554 -1.4793 0
M  V30 4549 C 431.404 1.30458 -1.4574 0
M  V30 4550 C 431.784 2.1048 -0.161692 0
M  V30 4551 O 431.132 2.11831 0.856734 0
M  V30 4552 C 431.342 2.19754 -2.71126 0
M  V30 4553 C 432.69 2.80334 -3.18901 0
M  V30 4554 O 433.714 2.30049 -2.71948 0
M  V30 4555 O 432.573 3.71766 -4.00565 0
M  V30 4556 H 429.667 0.588117 -0.581418 0
M  V30 4557 H 432.213 0.561328 -1.60147 0
M  V30 4558 H 430.985 1.60316 -3.56952 0
M  V30 4559 H 430.608 3.01351 -2.59371 0
M  V30 4560 N 431.605 1.3629 0.791371 0
M  V30 4561 C 432.852 1.30412 1.54916 0
M  V30 4562 C 433.18 -0.117162 1.94147 0
M  V30 4563 O 432.435 -1.08599 1.62803 0
M  V30 4564 C 432.734 2.17068 2.8393 0
M  V30 4565 C 432.4 3.65645 2.63846 0
M  V30 4566 C 431.062 4.0614 2.58077 0
M  V30 4567 C 433.414 4.59855 2.45322 0
M  V30 4568 C 430.742 5.3899 2.31748 0
M  V30 4569 C 433.094 5.9292 2.2052 0
M  V30 4570 C 431.758 6.32542 2.13183 0
M  V30 4571 H 431.028 0.47721 0.566879 0
M  V30 4572 H 433.675 1.68325 0.913172 0
M  V30 4573 H 431.98 1.72085 3.51986 0
M  V30 4574 H 433.677 2.09846 3.4171 0
M  V30 4575 H 430.267 3.33518 2.69191 0
M  V30 4576 H 434.451 4.29443 2.48782 0
M  V30 4577 H 429.707 5.68672 2.24548 0
M  V30 4578 H 433.881 6.65487 2.05182 0
M  V30 4579 H 431.508 7.35412 1.92544 0
M  V30 4580 N 433.083 -1.0153 1.20538 0
M  V30 4581 C 434.013 -2.11972 0.979295 0
M  V30 4582 C 434.994 -1.6985 -0.0921787 0
M  V30 4583 O 436.179 -1.94089 0.0655932 0
M  V30 4584 C 433.309 -3.43201 0.531984 0
M  V30 4585 C 432.263 -3.9907 1.54685 0
M  V30 4586 C 431.589 -5.26082 0.956127 0
M  V30 4587 C 432.889 -4.32313 2.93092 0
M  V30 4588 H 434.583 -2.31143 1.90298 0
M  V30 4589 H 432.129 -1.11079 0.916372 0
M  V30 4590 H 434.082 -4.1985 0.361044 0
M  V30 4591 H 432.806 -3.23792 -0.427327 0
M  V30 4592 H 431.465 -3.2453 1.70517 0
M  V30 4593 H 431.113 -5.02999 -0.0111538 0
M  V30 4594 H 430.813 -5.64426 1.63393 0
M  V30 4595 H 432.337 -6.05386 0.796284 0
M  V30 4596 H 433.751 -4.99845 2.80763 0
M  V30 4597 H 432.148 -4.81774 3.57791 0
M  V30 4598 H 433.218 -3.41025 3.44717 0
M  V30 4599 N 434.561 -1.01147 -1.20859 0
M  V30 4600 C 435.809 -0.696486 -1.89719 0
M  V30 4601 C 436.13 0.775788 -1.78904 0
M  V30 4602 O 435.4 1.55759 -1.18811 0
M  V30 4603 H 433.98 -0.254628 -0.702263 0
M  V30 4604 H 436.642 -1.28197 -1.46804 0
M  V30 4605 H 435.738 -0.975357 -2.96468 0
M  V30 4606 N 436.039 1.36541 -0.78704 0
M  V30 4607 C 437.288 1.98552 -0.35494 0
M  V30 4608 C 437.601 1.63171 1.07864 0
M  V30 4609 O 438.807 2.18399 1.61289 0
M  V30 4610 C 437.263 3.55136 -0.583671 0
M  V30 4611 C 436.871 3.99444 -2.02851 0
M  V30 4612 C 438.615 4.2395 -0.215957 0
M  V30 4613 C 436.522 5.48796 -2.20403 0
M  V30 4614 H 435.452 0.742888 -0.128972 0
M  V30 4615 H 438.103 1.5587 -0.968337 0
M  V30 4616 H 436.485 3.95875 0.0994046 0
M  V30 4617 H 437.659 3.6991 -2.74779 0
M  V30 4618 H 435.974 3.43459 -2.35425 0
M  V30 4619 H 438.571 5.33709 -0.325405 0
M  V30 4620 H 438.914 4.07827 0.835646 0
M  V30 4621 H 439.447 3.88565 -0.852175 0
M  V30 4622 H 436.186 5.69864 -3.23937 0
M  V30 4623 H 435.706 5.79964 -1.52977 0
M  V30 4624 H 437.385 6.14986 -2.01002 0
M  V30 4625 N 437.518 0.538854 1.48102 0
M  V30 4626 C 438.466 -0.232325 2.31437 0
M  V30 4627 C 439.46 -0.927004 1.41785 0
M  V30 4628 O 440.666 -0.850378 1.58646 0
M  V30 4629 H 437.041 -0.0937916 0.746128 0
M  V30 4630 H 439.012 0.489986 2.9435 0
M  V30 4631 C 437.761 -1.26074 3.24038 0
M  V30 4632 H 437.084 -0.735609 3.92974 0
M  V30 4633 H 438.524 -1.77157 3.85216 0
M  V30 4634 C 436.983 -2.29902 2.46265 0
M  V30 4635 O 437.513 -3.36502 2.19384 0
M  V30 4636 N 435.719 -2.03348 2.07601 0
M  V30 4637 H 435.266 -1.16675 2.29662 0
M  V30 4638 H 435.224 -2.73038 1.55877 0
M  V30 4639 N 438.996 -1.55193 0.274407 0
M  V30 4640 C 440.226 -2.03692 -0.345442 0
M  V30 4641 C 440.634 -1.15224 -1.50067 0
M  V30 4642 O 439.977 -0.164749 -1.8296 0
M  V30 4643 C 440.039 -3.48325 -0.88939 0
M  V30 4644 C 439.703 -4.56794 0.137115 0
M  V30 4645 C 440.7 -5.11028 0.956378 0
M  V30 4646 C 438.385 -5.01568 0.27115 0
M  V30 4647 C 440.379 -6.08552 1.89587 0
M  V30 4648 C 438.066 -5.98918 1.21412 0
M  V30 4649 C 439.064 -6.52291 2.02498 0
M  V30 4650 O 438.752 -7.47738 2.952 0
M  V30 4651 H 438.484 -0.670893 -0.0829332 0
M  V30 4652 H 441.038 -2.01387 0.404056 0
M  V30 4653 H 439.268 -3.47867 -1.68895 0
M  V30 4654 H 440.957 -3.80167 -1.42225 0
M  V30 4655 H 441.723 -4.7725 0.863559 0
M  V30 4656 H 437.602 -4.5967 -0.349987 0
M  V30 4657 H 441.146 -6.50137 2.52918 0
M  V30 4658 H 437.043 -6.32114 1.30776 0
M  V30 4659 H 437.811 -7.65451 2.89874 0
M  V30 4660 N 440.474 -0.00167713 -1.576 0
M  V30 4661 C 441.704 0.692754 -1.94639 0
M  V30 4662 C 442.112 1.67744 -0.87513 0
M  V30 4663 O 441.455 1.8305 0.154382 0
M  V30 4664 C 441.517 1.47881 -3.27676 0
M  V30 4665 C 441.181 0.655518 -4.52274 0
M  V30 4666 C 442.178 -0.0575214 -5.19868 0
M  V30 4667 C 439.863 0.600994 -4.98692 0
M  V30 4668 C 441.857 -0.814052 -6.3218 0
M  V30 4669 C 439.544 -0.15926 -6.10892 0
M  V30 4670 C 440.542 -0.865515 -6.77494 0
M  V30 4671 O 440.23 -1.61336 -7.87544 0
M  V30 4672 H 439.962 0.197792 -0.646417 0
M  V30 4673 H 442.516 -0.049423 -2.05341 0
M  V30 4674 H 440.746 2.2655 -3.13388 0
M  V30 4675 H 442.435 2.05874 -3.49816 0
M  V30 4676 H 443.201 -0.0245611 -4.84994 0
M  V30 4677 H 439.08 1.14025 -4.46676 0
M  V30 4678 H 442.624 -1.36584 -6.84098 0
M  V30 4679 H 438.521 -0.194035 -6.45208 0
M  V30 4680 H 439.289 -1.53025 -8.04068 0
M  V30 4681 N 441.952 1.55251 0.271103 0
M  V30 4682 C 442.885 1.83191 1.36075 0
M  V30 4683 C 443.863 0.685091 1.47463 0
M  V30 4684 O 445.047 0.928292 1.64058 0
M  V30 4685 C 442.174 1.99521 2.73696 0
M  V30 4686 C 441.22 3.22081 2.79582 0
M  V30 4687 S 442.053 4.79388 2.38636 0
M  V30 4688 C 443.209 4.98693 3.78228 0
M  V30 4689 H 443.442 2.75327 1.12171 0
M  V30 4690 H 440.975 1.47046 0.470833 0
M  V30 4691 H 442.933 2.09613 3.52948 0
M  V30 4692 H 441.594 1.0827 2.9485 0
M  V30 4693 H 440.787 3.304 3.80594 0
M  V30 4694 H 440.389 3.10589 2.08352 0
M  V30 4695 H 442.681 4.84551 4.73515 0
M  V30 4696 H 443.624 6.00738 3.7486 0
M  V30 4697 H 444.032 4.26665 3.69618 0
M  V30 4698 N 443.43 -0.535701 1.48216 0
M  V30 4699 C 444.655 -1.32149 1.59848 0
M  V30 4700 C 445.08 -1.86338 0.256842 0
M  V30 4701 O 444.438 -1.64107 -0.770632 0
M  V30 4702 C 444.486 -2.45224 2.64381 0
M  V30 4703 O 443.59 -3.48093 2.21144 0
M  V30 4704 H 442.931 -0.391634 0.536208 0
M  V30 4705 H 445.461 -0.645202 1.94161 0
M  V30 4706 H 445.471 -2.91491 2.85476 0
M  V30 4707 H 444.146 -2.05143 3.61786 0
M  V30 4708 H 442.723 -3.07984 2.10239 0
M  V30 4709 N 444.908 -1.36708 -0.784132 0
M  V30 4710 C 446.185 -1.21776 -1.53069 0
M  V30 4711 C 446.565 0.193876 -2.10208 0
M  V30 4712 O 445.913 1.20012 -1.94446 0
M  V30 4713 C 446.123 -2.30395 -2.62143 0
M  V30 4714 C 447.471 -2.67325 -3.29882 0
M  V30 4715 O 448.495 -2.29478 -2.7243 0
M  V30 4716 O 447.354 -3.32485 -4.33724 0
M  V30 4717 H 444.448 -0.474459 -0.677361 0
M  V30 4718 H 446.994 -1.48454 -0.82216 0
M  V30 4719 H 445.766 -3.2498 -2.17953 0
M  V30 4720 H 445.389 -2.05112 -3.40609 0
M  V30 4721 N 446.386 1.0089 -1.21074 0
M  V30 4722 C 447.632 1.7497 -1.03717 0
M  V30 4723 C 447.987 1.8764 0.425344 0
M  V30 4724 O 447.28 1.39679 1.3115 0
M  V30 4725 C 447.474 3.16335 -1.66334 0
M  V30 4726 C 447.303 3.17449 -3.18522 0
M  V30 4727 C 446.073 3.2425 -3.87543 0
M  V30 4728 C 448.271 3.02877 -4.15656 0
M  V30 4729 N 446.253 3.14949 -5.26954 0
M  V30 4730 C 447.624 3.0143 -5.41793 0
M  V30 4731 C 449.679 2.8715 -4.06755 0
M  V30 4732 C 448.382 2.85869 -6.60054 0
M  V30 4733 C 450.408 2.72944 -5.24648 0
M  V30 4734 C 449.77 2.72171 -6.49694 0
M  V30 4735 H 445.869 0.650627 -0.43383 0
M  V30 4736 H 448.453 1.19944 -1.53367 0
M  V30 4737 H 446.624 3.69638 -1.19256 0
M  V30 4738 H 448.356 3.78888 -1.42219 0
M  V30 4739 H 445.111 3.31288 -3.38446 0
M  V30 4740 H 445.535 3.13651 -5.9996 0
M  V30 4741 H 450.177 2.86557 -3.10878 0
M  V30 4742 H 447.895 2.8521 -7.56096 0
M  V30 4743 H 451.481 2.61782 -5.19578 0
M  V30 4744 H 450.361 2.61307 -7.39384 0
M  V30 4745 N 447.864 1.01787 1.20321 0
M  V30 4746 C 448.797 0.533882 2.21867 0
M  V30 4747 C 449.775 -0.419361 1.57099 0
M  V30 4748 O 450.959 -0.339062 1.85426 0
M  V30 4749 C 448.086 -0.222899 3.37966 0
M  V30 4750 C 447.132 0.680091 4.21043 0
M  V30 4751 S 447.965 2.14997 4.90445 0
M  V30 4752 C 449.121 1.40339 6.09964 0
M  V30 4753 H 449.354 1.39429 2.62577 0
M  V30 4754 H 446.887 0.826867 1.30393 0
M  V30 4755 H 448.845 -0.653425 4.05266 0
M  V30 4756 H 447.506 -1.0589 2.95713 0
M  V30 4757 H 446.699 0.0964704 5.03908 0
M  V30 4758 H 446.301 1.04845 3.59004 0
M  V30 4759 H 448.593 0.68407 6.74038 0
M  V30 4760 H 449.536 2.20823 6.72787 0
M  V30 4761 H 449.944 0.905716 5.57187 0
M  V30 4762 N 449.342 -1.36122 0.79427 0
M  V30 4763 C 450.274 -2.28683 0.153903 0
M  V30 4764 C 451.287 -1.49707 -0.639669 0
M  V30 4765 O 452.476 -1.7209 -0.474054 0
M  V30 4766 C 449.576 -3.29202 -0.804921 0
M  V30 4767 C 448.749 -4.37358 -0.060366 0
M  V30 4768 C 447.808 -5.17811 -0.935849 0
M  V30 4769 O 446.834 -5.67853 -0.391309 0
M  V30 4770 N 448.036 -5.34721 -2.25951 0
M  V30 4771 H 450.801 -2.84278 0.949008 0
M  V30 4772 H 448.362 -1.4834 0.648611 0
M  V30 4773 H 450.354 -3.79914 -1.39455 0
M  V30 4774 H 448.924 -2.74212 -1.50088 0
M  V30 4775 H 448.144 -3.87746 0.710382 0
M  V30 4776 H 449.432 -5.06777 0.45324 0
M  V30 4777 H 448.83 -4.95687 -2.72601 0
M  V30 4778 H 447.387 -5.88657 -2.79867 0
M  V30 4779 N 450.82 -0.546701 -1.47814 0
M  V30 4780 C 451.783 0.196287 -2.28358 0
M  V30 4781 C 452.783 0.852437 -1.36346 0
M  V30 4782 O 453.973 0.709913 -1.59078 0
M  V30 4783 C 451.105 1.28579 -3.15722 0
M  V30 4784 H 452.298 -0.511086 -2.95513 0
M  V30 4785 H 449.851 -0.303248 -1.5333 0
M  V30 4786 H 450.586 2.0259 -2.53235 0
M  V30 4787 H 450.371 0.820229 -3.83425 0
M  V30 4788 H 451.861 1.80793 -3.76435 0
M  V30 4789 N 452.299 1.55045 -0.282633 0
M  V30 4790 C 453.546 1.9976 0.33199 0
M  V30 4791 C 453.874 1.17105 1.55295 0
M  V30 4792 O 453.129 0.230599 1.94337 0
M  V30 4793 C 453.428 3.49422 0.750938 0
M  V30 4794 C 453.094 4.4941 -0.366228 0
M  V30 4795 C 451.756 4.76471 -0.672964 0
M  V30 4796 C 454.108 5.09054 -1.11864 0
M  V30 4797 C 451.436 5.60442 -1.73556 0
M  V30 4798 C 453.788 5.9418 -2.17102 0
M  V30 4799 C 452.452 6.19558 -2.48402 0
M  V30 4800 H 451.722 0.730974 0.121484 0
M  V30 4801 H 454.369 1.8732 -0.39791 0
M  V30 4802 H 452.674 3.59377 1.56063 0
M  V30 4803 H 454.371 3.81432 1.23736 0
M  V30 4804 H 450.961 4.2844 -0.117041 0
M  V30 4805 H 455.145 4.88165 -0.894925 0
M  V30 4806 H 450.401 5.78349 -1.983 0
M  V30 4807 H 454.575 6.39427 -2.75873 0
M  V30 4808 H 452.202 6.84417 -3.30874 0
M  V30 4809 N 453.777 0.010035 1.57597 0
M  V30 4810 C 455.054 -0.710296 1.82248 0
M  V30 4811 C 455.434 -1.91426 0.889911 0
M  V30 4812 O 454.782 -2.28424 -0.0590292 0
M  V30 4813 C 454.992 -1.10655 3.30993 0
M  V30 4814 C 456.34 -1.50621 3.96987 0
M  V30 4815 O 457.364 -1.20007 3.35375 0
M  V30 4816 O 456.223 -2.07587 5.05539 0
M  V30 4817 H 453.317 -0.34673 0.750804 0
M  V30 4818 H 455.863 0.0362578 1.69661 0
M  V30 4819 H 454.635 -0.248826 3.90508 0
M  V30 4820 H 454.258 -1.91189 3.48615 0
M  V30 4821 N 455.255 -1.55392 -0.262866 0
M  V30 4822 C 456.503 -1.76127 -0.991147 0
M  V30 4823 C 456.824 -0.571083 -1.8645 0
M  V30 4824 O 456.094 0.413698 -1.91482 0
M  V30 4825 H 454.674 -0.649528 -0.368948 0
M  V30 4826 H 457.336 -1.9281 -0.284655 0
M  V30 4827 H 456.432 -2.6663 -1.62219 0
M  V30 4828 N 456.733 0.527833 -1.48498 0
M  V30 4829 C 457.643 1.65907 -1.65867 0
M  V30 4830 C 458.659 1.6537 -0.541192 0
M  V30 4831 O 459.835 1.84282 -0.812534 0
M  V30 4832 C 456.9 3.02364 -1.69637 0
M  V30 4833 C 455.961 3.1374 -2.93028 0
M  V30 4834 C 455.194 4.43688 -2.96609 0
M  V30 4835 O 455.417 5.30913 -2.08538 0
M  V30 4836 O 454.351 4.59475 -3.88802 0
M  V30 4837 H 458.177 1.5419 -2.61647 0
M  V30 4838 H 455.762 0.701163 -1.31924 0
M  V30 4839 H 457.644 3.83515 -1.74625 0
M  V30 4840 H 456.319 3.14401 -0.770312 0
M  V30 4841 H 455.226 2.31877 -2.93571 0
M  V30 4842 H 456.559 3.06621 -3.85026 0
M  V30 4843 N 458.211 1.37122 0.776871 0
M  V30 4844 C 459.439 1.3523 1.5659 0
M  V30 4845 C 459.854 -0.0635518 1.88693 0
M  V30 4846 O 459.211 -1.02394 1.51069 0
M  V30 4847 C 459.262 2.18583 2.8793 0
M  V30 4848 O 458.983 3.5465 2.57206 0
M  V30 4849 C 460.484 2.24612 3.82183 0
M  V30 4850 H 457.704 0.4634 0.485285 0
M  V30 4851 H 460.248 1.80392 0.963266 0
M  V30 4852 H 458.403 1.76943 3.4463 0
M  V30 4853 H 458.817 3.98286 3.41275 0
M  V30 4854 H 460.291 2.87267 4.71361 0
M  V30 4855 H 460.768 1.25309 4.20944 0
M  V30 4856 H 461.374 2.66543 3.31414 0
M  V30 4857 N 459.689 -1.00246 1.21608 0
M  V30 4858 C 460.599 -2.12515 0.993709 0
M  V30 4859 C 461.615 -1.73913 -0.0549939 0
M  V30 4860 O 462.791 -2.00943 0.135619 0
M  V30 4861 C 459.856 -3.42083 0.563953 0
M  V30 4862 C 458.917 -3.94843 1.68516 0
M  V30 4863 C 458.15 -5.18226 1.27582 0
M  V30 4864 O 458.373 -5.70201 0.150506 0
M  V30 4865 O 457.307 -5.64497 2.0887 0
M  V30 4866 H 461.133 -2.34152 1.93407 0
M  V30 4867 H 458.718 -1.10891 1.00118 0
M  V30 4868 H 460.6 -4.20073 0.334194 0
M  V30 4869 H 459.275 -3.21828 -0.347665 0
M  V30 4870 H 458.182 -3.18068 1.96935 0
M  V30 4871 H 459.515 -4.19512 2.5743 0
M  V30 4872 N 461.167 -1.02423 -1.1978 0
M  V30 4873 C 462.416 -0.713265 -1.88667 0
M  V30 4874 C 462.729 0.7609 -1.80193 0
M  V30 4875 O 463.935 1.18473 -2.44288 0
M  V30 4876 C 462.391 -1.22545 -3.38394 0
M  V30 4877 C 461.999 -2.72706 -3.55437 0
M  V30 4878 C 463.743 -0.990257 -4.12788 0
M  V30 4879 C 461.65 -3.17367 -4.99031 0
M  V30 4880 H 460.58 -0.263105 -0.706606 0
M  V30 4881 H 463.231 -1.23792 -1.35454 0
M  V30 4882 H 461.613 -0.628732 -3.90977 0
M  V30 4883 H 462.787 -3.37993 -3.13205 0
M  V30 4884 H 461.102 -2.94453 -2.94425 0
M  V30 4885 H 463.699 -1.29926 -5.18675 0
M  V30 4886 H 464.042 0.0730761 -4.16236 0
M  V30 4887 H 464.575 -1.55074 -3.66329 0
M  V30 4888 H 461.314 -4.23009 -5.00743 0
M  V30 4889 H 460.834 -2.56805 -5.42044 0
M  V30 4890 H 462.513 -3.10441 -5.67658 0
M  V30 4891 N 462.645 1.35699 -0.801477 0
M  V30 4892 C 463.894 1.98165 -0.375979 0
M  V30 4893 C 464.207 1.64306 1.06127 0
M  V30 4894 O 465.413 2.20097 1.58964 0
M  V30 4895 C 463.869 3.54497 -0.621305 0
M  V30 4896 C 463.477 3.9727 -2.07076 0
M  V30 4897 C 465.221 4.23697 -0.26091 0
M  V30 4898 C 463.128 5.46427 -2.26211 0
M  V30 4899 H 462.058 0.741478 -0.136844 0
M  V30 4900 H 464.709 1.54834 -0.984814 0
M  V30 4901 H 463.091 3.95958 0.0574112 0
M  V30 4902 H 464.265 3.66974 -2.78687 0
M  V30 4903 H 462.58 3.40943 -2.39054 0
M  V30 4904 H 465.177 5.33334 -0.381994 0
M  V30 4905 H 465.52 4.0869 0.792344 0
M  V30 4906 H 466.053 3.87639 -0.893339 0
M  V30 4907 H 462.792 5.66396 -3.29963 0
M  V30 4908 H 462.312 5.78309 -1.59119 0
M  V30 4909 H 463.991 6.12819 -2.07513 0
M  V30 4910 N 464.123 0.554532 1.47522 0
M  V30 4911 C 465.073 -0.215008 2.26984 0
M  V30 4912 C 466.057 -0.88774 1.34194 0
M  V30 4913 O 467.249 -0.786489 1.58567 0
M  V30 4914 C 464.378 -1.24604 3.19889 0
M  V30 4915 C 463.464 -0.576857 4.20159 0
M  V30 4916 N 463.855 0.351541 5.04577 0
M  V30 4917 C 462.153 -0.831104 4.38188 0
M  V30 4918 C 462.854 0.739995 5.76974 0
M  V30 4919 N 461.83 0.0954407 5.43516 0
M  V30 4920 H 465.632 0.498843 2.89636 0
M  V30 4921 H 463.146 0.374279 1.58028 0
M  V30 4922 H 465.143 -1.81128 3.75498 0
M  V30 4923 H 463.803 -1.96101 2.58794 0
M  V30 4924 H 464.814 0.725556 5.12792 0
M  V30 4925 H 461.491 -1.53479 3.88266 0
M  V30 4926 H 462.881 1.50271 6.5488 0
M  V30 4927 N 465.601 -1.54893 0.290851 0
M  V30 4928 C 466.549 -2.24579 -0.605576 0
M  V30 4929 C 467.543 -1.24824 -1.14522 0
M  V30 4930 O 468.749 -1.42706 -1.09704 0
M  V30 4931 H 465.124 -0.720946 -0.213872 0
M  V30 4932 H 467.095 -2.984 0.0048173 0
M  V30 4933 C 465.844 -2.99224 -1.77088 0
M  V30 4934 H 465.167 -3.75782 -1.36484 0
M  V30 4935 H 466.607 -3.51281 -2.3744 0
M  V30 4936 C 465.066 -2.05602 -2.66888 0
M  V30 4937 O 465.596 -1.61745 -3.67698 0
M  V30 4938 N 463.802 -1.71771 -2.34399 0
M  V30 4939 H 463.349 -2.07633 -1.52468 0
M  V30 4940 H 463.307 -1.09403 -2.94751 0
M  V30 4941 N 467.08 -0.0183926 -1.57589 0
M  V30 4942 C 468.328 0.661253 -1.90976 0
M  V30 4943 C 468.649 1.73281 -0.894353 0
M  V30 4944 O 467.919 1.9579 0.0656788 0
M  V30 4945 H 466.499 0.247233 -0.704901 0
M  V30 4946 H 469.161 -0.0636639 -1.94796 0
M  V30 4947 H 468.257 1.12083 -2.9128 0
M  V30 4948 N 468.558 1.5553 0.254621 0
M  V30 4949 C 469.505 1.89666 1.31512 0
M  V30 4950 C 470.475 0.750057 1.482 0
M  V30 4951 O 471.66 1.00301 1.62309 0
M  V30 4952 C 468.8 2.19009 2.667 0
M  V30 4953 C 467.913 3.46435 2.58083 0
M  V30 4954 C 467.048 3.65386 3.85573 0
M  V30 4955 C 466.087 4.8644 3.71541 0
M  V30 4956 N 465.224 5.01952 4.90906 0
M  V30 4957 H 470.064 2.80109 1.017 0
M  V30 4958 H 467.601 1.38666 0.490938 0
M  V30 4959 H 469.559 2.34025 3.45381 0
M  V30 4960 H 468.189 1.31779 2.94676 0
M  V30 4961 H 467.241 3.39792 1.71013 0
M  V30 4962 H 468.553 4.35258 2.43622 0
M  V30 4963 H 467.707 3.80319 4.72697 0
M  V30 4964 H 466.446 2.74781 4.02922 0
M  V30 4965 H 465.451 4.71491 2.82801 0
M  V30 4966 H 466.676 5.78497 3.55694 0
M  V30 4967 H 464.622 4.14283 5.08631 0
M  V30 4968 H 464.539 5.84851 4.79046 0
M  V30 4969 H 465.807 5.21289 5.7955 0
M  V30 4970 N 470.036 -0.519951 1.48776 0
M  V30 4971 C 471.284 -1.2727 1.56993 0
M  V30 4972 C 471.605 -1.9339 0.25004 0
M  V30 4973 O 470.875 -1.81822 -0.729216 0
M  V30 4974 H 469.455 -0.472732 0.578389 0
M  V30 4975 H 472.117 -0.604234 1.85297 0
M  V30 4976 H 471.213 -2.04669 2.3562 0
M  V30 4977 N 471.514 -1.37532 -0.769588 0
M  V30 4978 C 472.424 -1.35668 -1.91393 0
M  V30 4979 C 473.44 -0.255954 -1.72107 0
M  V30 4980 O 474.616 -0.491704 -1.95305 0
M  V30 4981 C 471.681 -1.16481 -3.26547 0
M  V30 4982 C 470.742 -2.36212 -3.58472 0
M  V30 4983 C 469.975 -2.17932 -4.87177 0
M  V30 4984 O 470.198 -1.1647 -5.58382 0
M  V30 4985 O 469.132 -3.06167 -5.18214 0
M  V30 4986 H 472.958 -2.32055 -1.95918 0
M  V30 4987 H 470.543 -1.18284 -0.912641 0
M  V30 4988 H 472.425 -1.07778 -4.07384 0
M  V30 4989 H 471.1 -0.231687 -3.2287 0
M  V30 4990 H 470.007 -2.50488 -2.77861 0
M  V30 4991 H 471.34 -3.281 -3.66894 0
M  V30 4992 N 472.992 0.995999 -1.22138 0
M  V30 4993 C 473.939 2.08551 -0.988687 0
M  V30 4994 C 474.909 1.65864 0.0885021 0
M  V30 4995 O 476.094 1.90704 -0.0604589 0
M  V30 4996 C 473.234 3.40374 -0.569191 0
M  V30 4997 C 472.347 3.96421 -1.71681 0
M  V30 4998 C 471.482 5.1639 -1.2456 0
M  V30 4999 C 470.521 5.64567 -2.36497 0
M  V30 5000 N 469.658 6.75777 -1.90445 0
M  V30 5001 H 474.498 2.2779 -1.92135 0
M  V30 5002 H 472.035 1.1168 -0.957388 0
M  V30 5003 H 473.993 4.16068 -0.307166 0
M  V30 5004 H 472.623 3.21145 0.326462 0
M  V30 5005 H 471.675 3.17628 -2.09324 0
M  V30 5006 H 472.987 4.2816 -2.55891 0
M  V30 5007 H 472.141 5.99362 -0.940774 0
M  V30 5008 H 470.88 4.86266 -0.373662 0
M  V30 5009 H 469.885 4.80185 -2.67772 0
M  V30 5010 H 471.11 5.96716 -3.24202 0
M  V30 5011 H 469.056 6.47443 -1.05609 0
M  V30 5012 H 468.973 7.06818 -2.68223 0
M  V30 5013 H 470.241 7.62262 -1.63022 0
M  V30 5014 N 474.47 1.03057 1.19235 0
M  V30 5015 C 475.718 0.726581 1.88587 0
M  V30 5016 C 476.039 -0.747227 1.80115 0
M  V30 5017 O 475.309 -1.53849 1.21274 0
M  V30 5018 H 473.889 0.265768 0.698124 0
M  V30 5019 H 476.551 1.30516 1.44746 0
M  V30 5020 H 475.647 1.0224 2.94879 0
M  V30 5021 N 475.948 -1.35272 0.808662 0
M  V30 5022 C 477.173 -2.03477 0.401475 0
M  V30 5023 C 477.598 -1.60537 -0.980279 0
M  V30 5024 O 476.956 -0.78304 -1.63518 0
M  V30 5025 C 477.004 -3.57181 0.495354 0
M  V30 5026 O 476.108 -4.09474 -0.490397 0
M  V30 5027 H 475.449 -0.642561 0.167366 0
M  V30 5028 H 477.979 -1.72824 1.09512 0
M  V30 5029 H 477.989 -4.06356 0.365912 0
M  V30 5030 H 476.664 -3.87784 1.5032 0
M  V30 5031 H 475.241 -3.71516 -0.321023 0
M  V30 5032 N 477.426 -0.562348 -1.47226 0
M  V30 5033 C 478.651 -0.0432632 -2.07355 0
M  V30 5034 C 479.076 1.24332 -1.41149 0
M  V30 5035 O 478.434 1.74603 -0.488226 0
M  V30 5036 C 478.482 0.130288 -3.60365 0
M  V30 5037 O 477.586 1.19166 -3.94808 0
M  V30 5038 H 476.927 -0.0536334 -0.66183 0
M  V30 5039 H 479.457 -0.779495 -1.89169 0
M  V30 5040 H 479.467 0.342881 -4.06557 0
M  V30 5041 H 478.142 -0.809389 -4.07948 0
M  V30 5042 H 476.719 0.959153 -3.60354 0
M  V30 5043 N 478.904 1.54736 -0.299062 0
M  V30 5044 C 479.851 2.23448 0.577899 0
M  V30 5045 C 480.821 1.21637 1.13109 0
M  V30 5046 O 482.006 1.50252 1.17597 0
M  V30 5047 C 479.146 2.9774 1.74484 0
M  V30 5048 C 478.259 4.1432 1.22323 0
M  V30 5049 C 477.394 4.76199 2.35388 0
M  V30 5050 C 476.433 5.84927 1.80351 0
M  V30 5051 N 475.57 6.4077 2.86982 0
M  V30 5052 H 480.41 2.97996 -0.0146545 0
M  V30 5053 H 477.947 1.47088 -0.0190013 0
M  V30 5054 H 479.905 3.39045 2.43114 0
M  V30 5055 H 478.535 2.25572 2.30905 0
M  V30 5056 H 477.587 3.7797 0.429249 0
M  V30 5057 H 478.899 4.92659 0.780309 0
M  V30 5058 H 478.053 5.20346 3.11969 0
M  V30 5059 H 476.792 3.97188 2.83006 0
M  V30 5060 H 475.797 5.40207 1.02259 0
M  V30 5061 H 477.022 6.65821 1.3364 0
M  V30 5062 H 474.968 5.64643 3.33938 0
M  V30 5063 H 474.885 7.1445 2.4718 0
M  V30 5064 H 476.153 6.89574 3.63466 0
M  V30 5065 N 480.382 0.0267497 1.57577 0
M  V30 5066 C 481.612 -0.6617 1.95717 0
M  V30 5067 C 482.02 -1.66331 0.901706 0
M  V30 5068 O 481.363 -1.83273 -0.125241 0
M  V30 5069 C 481.425 -1.42649 3.29987 0
M  V30 5070 C 481.089 -0.583482 4.5326 0
M  V30 5071 C 482.086 0.140221 5.19711 0
M  V30 5072 C 479.771 -0.521581 4.99585 0
M  V30 5073 C 481.765 0.914523 6.30805 0
M  V30 5074 C 479.452 0.256428 6.10562 0
M  V30 5075 C 480.45 0.973189 6.76031 0
M  V30 5076 O 480.138 1.73845 7.84878 0
M  V30 5077 H 479.87 -0.187483 0.649481 0
M  V30 5078 H 482.424 0.0820847 2.05236 0
M  V30 5079 H 480.654 -2.21536 3.16952 0
M  V30 5080 H 482.343 -2.00282 3.53047 0
M  V30 5081 H 483.109 0.101716 4.84893 0
M  V30 5082 H 478.988 -1.06904 4.48433 0
M  V30 5083 H 482.532 1.4745 6.81839 0
M  V30 5084 H 478.429 0.296657 6.44818 0
M  V30 5085 H 479.197 1.65797 8.01532 0
M  V30 5086 N 481.861 -1.55662 -0.24637 0
M  V30 5087 C 482.793 -1.86811 -1.32794 0
M  V30 5088 C 483.806 -0.754413 -1.44265 0
M  V30 5089 O 484.995 -1.03253 -1.45606 0
M  V30 5090 C 482.095 -2.0397 -2.70646 0
M  V30 5091 C 481.268 -3.34832 -2.81436 0
M  V30 5092 C 480.327 -3.41727 -4.00136 0
M  V30 5093 O 479.353 -4.14934 -3.89639 0
M  V30 5094 N 480.555 -2.71058 -5.1333 0
M  V30 5095 H 483.32 -2.80174 -1.06409 0
M  V30 5096 H 480.881 -1.55906 -0.43647 0
M  V30 5097 H 482.873 -2.05924 -3.48393 0
M  V30 5098 H 481.443 -1.1735 -2.89738 0
M  V30 5099 H 480.663 -3.4519 -1.90361 0
M  V30 5100 H 481.951 -4.21085 -2.85595 0
M  V30 5101 H 481.349 -2.11314 -5.2475 0
M  V30 5102 H 479.906 -2.78704 -5.89209 0
M  V30 5103 N 483.339 0.512053 -1.4905 0
M  V30 5104 C 484.588 1.26343 -1.57227 0
M  V30 5105 C 484.901 1.93876 -0.259155 0
M  V30 5106 O 486.107 2.70612 -0.219358 0
M  V30 5107 C 484.563 2.29343 -2.77362 0
M  V30 5108 C 484.171 1.67799 -4.15388 0
M  V30 5109 C 485.915 3.05378 -2.94864 0
M  V30 5110 C 483.822 2.68845 -5.2676 0
M  V30 5111 H 482.752 0.475231 -0.585382 0
M  V30 5112 H 485.403 0.53862 -1.75417 0
M  V30 5113 H 483.785 3.04938 -2.52643 0
M  V30 5114 H 484.959 0.982715 -4.50199 0
M  V30 5115 H 483.274 1.04194 -4.03153 0
M  V30 5116 H 485.871 3.80921 -3.75238 0
M  V30 5117 H 486.214 3.62327 -2.05 0
M  V30 5118 H 486.747 2.36898 -3.19569 0
M  V30 5119 H 483.486 2.16692 -6.18647 0
M  V30 5120 H 483.006 3.36647 -4.96416 0
M  V30 5121 H 484.685 3.31487 -5.5563 0
M  V30 5122 N 484.817 1.37938 0.762283 0
M  V30 5123 C 485.764 1.34467 1.87583 0
M  V30 5124 C 486.734 0.208633 1.64785 0
M  V30 5125 O 487.919 0.399494 1.86571 0
M  V30 5126 C 485.059 1.16692 3.24772 0
M  V30 5127 C 484.172 2.39608 3.59461 0
M  V30 5128 C 483.307 2.14631 4.85908 0
M  V30 5129 C 482.346 3.33364 5.13357 0
M  V30 5130 N 481.483 3.07877 6.30996 0
M  V30 5131 H 486.323 2.29669 1.89885 0
M  V30 5132 H 483.86 1.14116 0.928219 0
M  V30 5133 H 485.818 1.04405 4.03925 0
M  V30 5134 H 484.448 0.251333 3.2182 0
M  V30 5135 H 483.5 2.626 2.75219 0
M  V30 5136 H 484.812 3.28128 3.75678 0
M  V30 5137 H 483.966 1.99429 5.72986 0
M  V30 5138 H 482.705 1.23463 4.71814 0
M  V30 5139 H 481.71 3.49094 4.24751 0
M  V30 5140 H 482.935 4.25395 5.29354 0
M  V30 5141 H 480.881 2.19348 6.18241 0
M  V30 5142 H 480.798 3.89944 6.47673 0
M  V30 5143 H 482.066 2.96313 7.20985 0
M  V30 5144 N 486.295 -0.989507 1.22664 0
M  V30 5145 C 487.543 -1.72612 1.05117 0
M  V30 5146 C 487.864 -1.90552 -0.414131 0
M  V30 5147 O 487.134 -1.4676 -1.29762 0
M  V30 5148 H 485.714 -0.639555 0.385977 0
M  V30 5149 H 488.376 -1.19158 1.54232 0
M  V30 5150 H 487.472 -2.71926 1.53175 0
M  V30 5151 N 487.773 -1.03688 -1.18687 0
M  V30 5152 C 489.019 -0.739123 -1.88851 0
M  V30 5153 C 489.352 0.731042 -1.79915 0
M  V30 5154 O 488.627 1.53313 -1.19688 0
M  V30 5155 C 488.91 -1.20106 -3.3948 0
M  V30 5156 C 488.763 -2.73304 -3.57246 0
M  V30 5157 C 490.082 -0.788134 -4.32986 0
M  V30 5158 H 487.201 -0.269978 -0.68577 0
M  V30 5159 H 489.843 -1.28822 -1.3966 0
M  V30 5160 H 487.993 -0.733915 -3.81505 0
M  V30 5161 H 489.665 -3.28027 -3.24339 0
M  V30 5162 H 487.908 -3.13313 -3.00029 0
M  V30 5163 H 488.579 -3.00684 -4.62918 0
M  V30 5164 H 491.055 -1.19005 -3.98719 0
M  V30 5165 H 489.931 -1.13915 -5.36949 0
M  V30 5166 H 490.192 0.308988 -4.41019 0
M  V30 5167 N 489.251 1.34841 -0.815825 0
M  V30 5168 C 490.499 1.98107 -0.399744 0
M  V30 5169 C 490.82 1.65019 1.03894 0
M  V30 5170 O 490.09 0.937311 1.72021 0
M  V30 5171 H 488.67 0.732827 -0.144823 0
M  V30 5172 H 491.332 1.64599 -1.0437 0
M  V30 5173 H 490.428 3.07856 -0.512965 0
M  V30 5174 N 490.729 0.570148 1.46925 0
M  V30 5175 C 492.145 0.23087 1.57921 0
M  V30 5176 C 492.345 -1.26676 1.56702 0
M  V30 5177 O 491.401 -2.04774 1.47729 0
M  V30 5178 C 492.714 0.868973 2.8787 0
M  V30 5179 C 494.262 0.841397 3.01479 0
M  V30 5180 C 494.737 1.45881 4.34146 0
M  V30 5181 N 496.228 1.42258 4.40814 0
M  V30 5182 C 496.963 1.8698 5.42057 0
M  V30 5183 N 496.459 2.39618 6.50042 0
M  V30 5184 N 498.252 1.77972 5.33181 0
M  V30 5185 H 490.403 1.54301 1.45962 0
M  V30 5186 H 492.666 0.644224 0.69547 0
M  V30 5187 H 492.372 1.922 2.94537 0
M  V30 5188 H 492.246 0.369682 3.75384 0
M  V30 5189 H 494.633 -0.202973 2.94401 0
M  V30 5190 H 494.714 1.37858 2.15474 0
M  V30 5191 H 494.358 2.50231 4.4198 0
M  V30 5192 H 494.288 0.896958 5.18905 0
M  V30 5193 H 496.779 1.03768 3.63374 0
M  V30 5194 H 497.092 2.71633 7.23488 0
M  V30 5195 H 495.437 2.43636 6.50897 0
M  V30 5196 H 498.628 1.36617 4.4772 0
M  V30 5197 H 498.801 2.13143 6.11943 0
M  V30 5198 N 492.207 -1.54576 0.307264 0
M  V30 5199 C 493.623 -1.59534 -0.0459251 0
M  V30 5200 C 493.823 -1.32414 -1.51884 0
M  V30 5201 O 492.879 -1.1006 -2.27251 0
M  V30 5202 C 494.192 -2.98566 0.357649 0
M  V30 5203 C 495.74 -3.11491 0.306937 0
M  V30 5204 C 496.215 -4.52842 0.685427 0
M  V30 5205 N 497.706 -4.58782 0.638203 0
M  V30 5206 C 498.441 -5.66238 0.903458 0
M  V30 5207 N 497.937 -6.81703 1.23501 0
M  V30 5208 N 499.73 -5.55937 0.830102 0
M  V30 5209 H 491.881 -1.70464 1.26712 0
M  V30 5210 H 494.144 -0.79647 0.514139 0
M  V30 5211 H 493.85 -3.23356 1.38325 0
M  V30 5212 H 493.724 -3.76117 -0.285565 0
M  V30 5213 H 496.111 -2.86446 -0.709424 0
M  V30 5214 H 496.192 -2.36081 0.984861 0
M  V30 5215 H 495.836 -4.78618 1.69963 0
M  V30 5216 H 495.766 -5.26598 -0.0146346 0
M  V30 5217 H 498.257 -3.75849 0.393138 0
M  V30 5218 H 498.57 -7.59582 1.42322 0
M  V30 5219 H 496.915 -6.8324 1.27311 0
M  V30 5220 H 500.106 -4.64608 0.570693 0
M  V30 5221 H 500.279 -6.39597 1.04019 0
M  V30 5222 N 493.685 -0.035106 -1.57561 0
M  V30 5223 C 494.931 0.64318 -1.92331 0
M  V30 5224 C 495.264 1.71434 -0.912368 0
M  V30 5225 O 494.539 1.94395 0.0640303 0
M  V30 5226 C 494.822 1.25411 -3.37556 0
M  V30 5227 C 494.675 0.192109 -4.4939 0
M  V30 5228 C 495.994 2.17041 -3.82859 0
M  V30 5229 H 493.113 0.232341 -0.699419 0
M  V30 5230 H 495.755 -0.0935889 -1.89769 0
M  V30 5231 H 493.905 1.88205 -3.39869 0
M  V30 5232 H 495.577 -0.438849 -4.59208 0
M  V30 5233 H 493.82 -0.481725 -4.31117 0
M  V30 5234 H 494.491 0.659292 -5.48049 0
M  V30 5235 H 496.967 1.64228 -3.8232 0
M  V30 5236 H 495.843 2.56738 -4.85157 0
M  V30 5237 H 496.104 3.06401 -3.18702 0
M  V30 5238 N 495.163 1.55791 0.238111 0
M  V30 5239 C 496.126 1.90239 1.27835 0
M  V30 5240 C 497.126 0.779552 1.4064 0
M  V30 5241 O 498.316 1.04747 1.3919 0
M  V30 5242 C 495.448 2.13859 2.65475 0
M  V30 5243 H 496.641 2.83262 0.985034 0
M  V30 5244 H 494.194 1.48818 0.477799 0
M  V30 5245 H 494.929 1.23334 2.99932 0
M  V30 5246 H 494.714 2.95643 2.57561 0
M  V30 5247 H 496.204 2.41664 3.40571 0
M  V30 5248 N 496.642 -0.504142 1.49319 0
M  V30 5249 C 498.053 -1.08572 1.51885 0
M  V30 5250 C 498.404 -1.93842 0.303255 0
M  V30 5251 O 497.529 -2.0828 -0.58724 0
M  V30 5252 C 498.124 -1.97574 2.75227 0
M  V30 5253 C 496.683 -2.509 2.80581 0
M  V30 5254 C 495.83 -1.28447 2.45757 0
M  V30 5255 H 498.781 -0.288194 1.56061 0
M  V30 5256 H 498.802 -2.82219 2.55211 0
M  V30 5257 H 498.314 -1.35486 3.63683 0
M  V30 5258 H 496.415 -3.16636 1.96398 0
M  V30 5259 H 496.528 -2.88268 3.82673 0
M  V30 5260 H 494.892 -1.60868 1.97468 0
M  V30 5261 H 495.675 -0.68072 3.36483 0
M  V30 5262 N 498.12 -1.38341 -0.754957 0
M  V30 5263 C 499.397 -1.24995 -1.50451 0
M  V30 5264 C 499.777 0.149244 -2.10572 0
M  V30 5265 O 499.125 1.15861 -1.96948 0
M  V30 5266 C 499.335 -2.35904 -2.57197 0
M  V30 5267 C 500.683 -2.74262 -3.24138 0
M  V30 5268 O 501.707 -2.35205 -2.67501 0
M  V30 5269 O 500.566 -3.4161 -4.26574 0
M  V30 5270 H 497.66 -0.48872 -0.667144 0
M  V30 5271 H 500.206 -1.50165 -0.790486 0
M  V30 5272 H 498.978 -3.2953 -2.11011 0
M  V30 5273 H 498.601 -2.12291 -3.36182 0
M  V30 5274 N 499.598 0.982988 -1.23187 0
M  V30 5275 C 500.828 1.75666 -1.08743 0
M  V30 5276 C 501.236 1.85662 0.364195 0
M  V30 5277 O 500.579 1.33317 1.26382 0
M  V30 5278 C 500.641 3.20144 -1.63549 0
M  V30 5279 C 500.305 3.33665 -3.12277 0
M  V30 5280 C 501.302 3.20194 -4.096 0
M  V30 5281 C 498.987 3.58397 -3.51933 0
M  V30 5282 C 500.981 3.31256 -5.44563 0
M  V30 5283 C 498.668 3.69098 -4.87042 0
M  V30 5284 C 499.666 3.55537 -5.83166 0
M  V30 5285 O 499.354 3.65864 -7.1582 0
M  V30 5286 H 499.086 0.558194 -0.381307 0
M  V30 5287 H 501.64 1.24387 -1.63454 0
M  V30 5288 H 499.87 3.72659 -1.03256 0
M  V30 5289 H 501.559 3.79262 -1.4462 0
M  V30 5290 H 502.325 3.00987 -3.80305 0
M  V30 5291 H 498.204 3.68025 -2.77631 0
M  V30 5292 H 501.748 3.20588 -6.19572 0
M  V30 5293 H 497.645 3.87814 -5.16014 0
M  V30 5294 H 498.413 3.82675 -7.23534 0
M  V30 5295 N 501.076 1.04316 1.18135 0
M  V30 5296 C 502.322 0.749128 1.88457 0
M  V30 5297 C 502.655 -0.72149 1.803 0
M  V30 5298 O 501.93 -1.52676 1.205 0
M  V30 5299 C 502.213 1.21905 3.38838 0
M  V30 5300 C 502.066 2.75195 3.55792 0
M  V30 5301 C 503.385 0.811085 4.32561 0
M  V30 5302 H 500.504 0.273611 0.684329 0
M  V30 5303 H 503.146 1.29561 1.38975 0
M  V30 5304 H 501.296 0.754137 3.8111 0
M  V30 5305 H 502.968 3.29743 3.22595 0
M  V30 5306 H 501.211 3.14899 2.98364 0
M  V30 5307 H 501.882 3.03135 4.61317 0
M  V30 5308 H 504.358 1.21118 3.98082 0
M  V30 5309 H 503.234 1.16761 5.36338 0
M  V30 5310 H 503.495 -0.285596 4.41177 0
M  V30 5311 N 502.554 -1.34406 0.822964 0
M  V30 5312 C 503.965 -1.8069 0.469879 0
M  V30 5313 C 504.316 -1.68223 -1.00972 0
M  V30 5314 O 503.441 -1.22226 -1.78577 0
M  V30 5315 C 504.036 -3.28064 0.846118 0
M  V30 5316 C 502.595 -3.72428 0.545402 0
M  V30 5317 C 501.742 -2.56116 1.06301 0
M  V30 5318 H 504.693 -1.22153 1.01313 0
M  V30 5319 H 504.714 -3.80205 0.149922 0
M  V30 5320 H 504.226 -3.37107 1.92304 0
M  V30 5321 H 502.327 -3.68924 -0.522109 0
M  V30 5322 H 502.44 -4.66548 1.0895 0
M  V30 5323 H 500.804 -2.50048 0.484554 0
M  V30 5324 H 501.587 -2.67928 2.14638 0
M  V30 5325 N 504.032 -0.577932 -1.46621 0
M  V30 5326 C 505.448 -0.239242 -1.57797 0
M  V30 5327 C 505.648 1.25843 -1.57371 0
M  V30 5328 O 504.704 2.03988 -1.48813 0
M  V30 5329 C 506.017 -0.884227 -2.87405 0
M  V30 5330 C 507.565 -0.857373 -3.01028 0
M  V30 5331 C 508.04 -1.48181 -4.33366 0
M  V30 5332 N 509.531 -1.44593 -4.40053 0
M  V30 5333 C 510.266 -1.89852 -5.41058 0
M  V30 5334 N 509.762 -2.43062 -6.48762 0
M  V30 5335 N 511.555 -1.80797 -5.3223 0
M  V30 5336 H 503.706 -1.55073 -1.45142 0
M  V30 5337 H 505.969 -0.647903 -0.692044 0
M  V30 5338 H 505.675 -1.93759 -2.93514 0
M  V30 5339 H 505.549 -0.389585 -3.75183 0
M  V30 5340 H 507.936 0.187357 -2.94505 0
M  V30 5341 H 508.017 -1.38999 -2.14739 0
M  V30 5342 H 507.661 -2.52572 -4.40647 0
M  V30 5343 H 507.591 -0.924464 -5.18422 0
M  V30 5344 H 510.082 -1.05694 -3.62819 0
M  V30 5345 H 510.395 -2.75466 -7.22038 0
M  V30 5346 H 508.74 -2.47085 -6.49595 0
M  V30 5347 H 511.931 -1.38989 -4.46989 0
M  V30 5348 H 512.104 -2.16385 -6.10804 0
M  V30 5349 N 505.51 1.54411 -0.315457 0
M  V30 5350 C 506.738 2.04833 0.291738 0
M  V30 5351 C 507.153 1.19203 1.46411 0
M  V30 5352 O 506.51 0.220867 1.81159 0
M  V30 5353 C 506.561 3.53969 0.73404 0
M  V30 5354 O 506.282 4.36346 -0.391682 0
M  V30 5355 C 507.783 4.2045 1.40489 0
M  V30 5356 H 505.003 0.668195 0.0612947 0
M  V30 5357 H 507.547 1.99276 -0.45929 0
M  V30 5358 H 505.702 3.5984 1.43506 0
M  V30 5359 H 506.116 5.24481 -0.0447088 0
M  V30 5360 H 507.59 5.26278 1.66539 0
M  V30 5361 H 508.067 3.71067 2.3496 0
M  V30 5362 H 508.673 4.18694 0.746662 0
M  V30 5363 N 506.988 0.0434614 1.5754 0
M  V30 5364 C 508.265 -0.671479 1.83713 0
M  V30 5365 C 508.645 -1.89495 0.930315 0
M  V30 5366 O 507.993 -2.28498 -0.0105639 0
M  V30 5367 C 508.203 -1.0361 3.33266 0
M  V30 5368 C 509.551 -1.42167 4.00092 0
M  V30 5369 O 510.575 -1.12866 3.37846 0
M  V30 5370 O 509.434 -1.96817 5.09829 0
M  V30 5371 H 506.528 -0.330726 0.75799 0
M  V30 5372 H 509.074 0.0722373 1.69546 0
M  V30 5373 H 507.846 -0.165938 3.90948 0
M  V30 5374 H 507.469 -1.83751 3.52592 0
M  V30 5375 N 508.466 -1.55915 -0.229846 0
M  V30 5376 C 509.712 -1.79718 -0.952517 0
M  V30 5377 C 510.067 -0.61514 -1.82301 0
M  V30 5378 O 509.36 0.391098 -1.87566 0
M  V30 5379 C 509.554 -3.06845 -1.8325 0
M  V30 5380 C 509.383 -4.37302 -1.04868 0
M  V30 5381 C 508.153 -4.99749 -0.746932 0
M  V30 5382 C 510.351 -5.12599 -0.417989 0
M  V30 5383 N 508.333 -6.13871 0.0591596 0
M  V30 5384 C 509.704 -6.19488 0.251879 0
M  V30 5385 C 511.759 -4.96804 -0.33018 0
M  V30 5386 C 510.462 -7.12299 1.00115 0
M  V30 5387 C 512.488 -5.90007 0.4056 0
M  V30 5388 C 511.85 -6.96317 1.06404 0
M  V30 5389 H 507.949 -0.709382 -0.329091 0
M  V30 5390 H 510.533 -1.93406 -0.224114 0
M  V30 5391 H 508.704 -2.94456 -2.53279 0
M  V30 5392 H 510.436 -3.18874 -2.49202 0
M  V30 5393 H 507.191 -4.61518 -1.06292 0
M  V30 5394 H 507.615 -6.75497 0.450798 0
M  V30 5395 H 512.257 -4.14675 -0.824898 0
M  V30 5396 H 509.975 -7.93916 1.50741 0
M  V30 5397 H 513.561 -5.79862 0.474436 0
M  V30 5398 H 512.441 -7.67194 1.62429 0
M  V30 5399 N 509.944 0.496216 -1.49584 0
M  V30 5400 C 511.221 1.25755 -1.49816 0
M  V30 5401 C 511.601 2.09859 -0.228572 0
M  V30 5402 O 510.949 2.14449 0.788908 0
M  V30 5403 C 511.159 2.11017 -2.7798 0
M  V30 5404 C 512.507 2.70047 -3.27658 0
M  V30 5405 O 513.531 2.21281 -2.79129 0
M  V30 5406 O 512.39 3.58834 -4.1219 0
M  V30 5407 H 509.484 0.569322 -0.599834 0
M  V30 5408 H 512.03 0.510094 -1.61852 0
M  V30 5409 H 510.802 1.48879 -3.61871 0
M  V30 5410 H 510.425 2.92947 -2.68827 0
M  V30 5411 N 511.423 1.38739 0.74761 0
M  V30 5412 C 512.669 1.3648 1.50814 0
M  V30 5413 C 513.024 -0.0431982 1.92351 0
M  V30 5414 O 512.317 -1.0071 1.62997 0
M  V30 5415 C 512.511 2.25992 2.7688 0
M  V30 5416 C 512.34 3.75354 2.47668 0
M  V30 5417 C 511.11 4.44348 2.40589 0
M  V30 5418 C 513.308 4.67642 2.14046 0
M  V30 5419 N 511.29 5.79114 2.03715 0
M  V30 5420 C 512.661 5.90965 1.87512 0
M  V30 5421 C 514.716 4.55787 2.00407 0
M  V30 5422 C 513.419 7.03759 1.48714 0
M  V30 5423 C 515.445 5.68491 1.63011 0
M  V30 5424 C 514.807 6.90879 1.37353 0
M  V30 5425 H 510.906 0.554695 0.551214 0
M  V30 5426 H 513.49 1.7418 0.870033 0
M  V30 5427 H 511.661 1.9047 3.3849 0
M  V30 5428 H 513.393 2.14815 3.42982 0
M  V30 5429 H 510.148 3.97634 2.57262 0
M  V30 5430 H 510.572 6.504 1.87906 0
M  V30 5431 H 515.214 3.61712 2.18916 0
M  V30 5432 H 512.932 7.97746 1.28945 0
M  V30 5433 H 516.518 5.613 1.53081 0
M  V30 5434 H 515.398 7.76609 1.08848 0
M  V30 5435 N 512.901 -0.976442 1.23707 0
M  V30 5436 C 514.15 -1.71254 1.06559 0
M  V30 5437 C 514.463 -1.91528 -0.397024 0
M  V30 5438 O 515.669 -2.62625 -0.688518 0
M  V30 5439 C 514.125 -3.08207 1.8584 0
M  V30 5440 C 513.733 -2.95806 3.36456 0
M  V30 5441 C 515.477 -3.85749 1.77194 0
M  V30 5442 C 513.384 -4.28015 4.08114 0
M  V30 5443 H 512.314 -0.642171 0.395136 0
M  V30 5444 H 514.965 -1.08877 1.4771 0
M  V30 5445 H 513.347 -3.71363 1.37498 0
M  V30 5446 H 514.521 -2.41716 3.92314 0
M  V30 5447 H 512.836 -2.31736 3.45959 0
M  V30 5448 H 515.433 -4.83633 2.28041 0
M  V30 5449 H 515.776 -4.09752 0.735477 0
M  V30 5450 H 516.309 -3.29303 2.23169 0
M  V30 5451 H 513.048 -4.09208 5.12083 0
M  V30 5452 H 512.568 -4.81955 3.57043 0
M  V30 5453 H 514.247 -4.96681 4.14629 0
M  V30 5454 N 514.379 -1.04941 -1.1758 0
M  V30 5455 C 515.628 -0.753124 -1.87112 0
M  V30 5456 C 515.941 0.722507 -1.81767 0
M  V30 5457 O 517.147 1.13265 -2.46746 0
M  V30 5458 C 515.603 -1.29695 -3.35719 0
M  V30 5459 C 515.211 -2.80184 -3.49572 0
M  V30 5460 C 516.955 -1.07759 -4.10595 0
M  V30 5461 C 514.862 -3.2788 -4.92187 0
M  V30 5462 H 513.792 -0.278034 -0.700866 0
M  V30 5463 H 516.443 -1.26637 -1.32798 0
M  V30 5464 H 514.825 -0.711522 -3.89555 0
M  V30 5465 H 515.999 -3.44561 -3.05965 0
M  V30 5466 H 514.314 -3.00632 -2.88113 0
M  V30 5467 H 516.911 -1.40899 -5.15802 0
M  V30 5468 H 517.254 -0.0152302 -4.16297 0
M  V30 5469 H 517.787 -1.62809 -3.62957 0
M  V30 5470 H 514.526 -4.33535 -4.91658 0
M  V30 5471 H 514.046 -2.68245 -5.36475 0
M  V30 5472 H 515.725 -3.22412 -5.60945 0
M  V30 5473 N 515.857 1.33968 -0.830081 0
M  V30 5474 C 517.087 2.01987 -0.434142 0
M  V30 5475 C 517.495 1.62639 0.96671 0
M  V30 5476 O 516.838 0.831151 1.63822 0
M  V30 5477 C 516.9 3.5648 -0.465018 0
M  V30 5478 C 516.564 4.19176 -1.82045 0
M  V30 5479 C 517.561 4.39181 -2.78237 0
M  V30 5480 C 515.246 4.55792 -2.11089 0
M  V30 5481 C 517.24 4.94937 -4.01642 0
M  V30 5482 C 514.927 5.11258 -3.34752 0
M  V30 5483 C 515.925 5.30775 -4.29845 0
M  V30 5484 O 515.613 5.85064 -5.51322 0
M  V30 5485 H 515.345 0.653847 -0.171639 0
M  V30 5486 H 517.899 1.72066 -1.12171 0
M  V30 5487 H 516.129 3.8569 0.279284 0
M  V30 5488 H 517.818 4.05804 -0.0881334 0
M  V30 5489 H 518.584 4.11249 -2.57097 0
M  V30 5490 H 514.463 4.39901 -1.3787 0
M  V30 5491 H 518.007 5.10086 -4.75876 0
M  V30 5492 H 513.904 5.38619 -3.55753 0
M  V30 5493 H 514.672 6.03489 -5.5294 0
M  V30 5494 N 517.335 0.585699 1.46312 0
M  V30 5495 C 518.746 0.159938 1.86014 0
M  V30 5496 C 519.097 -1.27775 1.48889 0
M  V30 5497 O 518.222 -1.96559 0.90519 0
M  V30 5498 C 518.817 0.283485 3.37612 0
M  V30 5499 C 517.376 -0.0874256 3.76298 0
M  V30 5500 C 516.523 0.618055 2.70325 0
M  V30 5501 H 519.474 0.793737 1.37425 0
M  V30 5502 H 519.495 -0.490348 3.77327 0
M  V30 5503 H 519.007 1.32995 3.64601 0
M  V30 5504 H 517.108 -1.13391 3.54927 0
M  V30 5505 H 517.221 0.290975 4.78216 0
M  V30 5506 H 515.585 0.057993 2.54634 0
M  V30 5507 H 516.368 1.66623 3.00153 0
M  V30 5508 N 518.813 -1.54241 0.323641 0
M  V30 5509 C 519.723 -2.28033 -0.551205 0
M  V30 5510 C 520.739 -1.32388 -1.12913 0
M  V30 5511 O 521.915 -1.65403 -1.14908 0
M  V30 5512 C 518.98 -3.02382 -1.69606 0
M  V30 5513 C 518.041 -4.13612 -1.14993 0
M  V30 5514 C 517.274 -4.84407 -2.24022 0
M  V30 5515 O 517.497 -4.54716 -3.44368 0
M  V30 5516 O 516.431 -5.71312 -1.89436 0
M  V30 5517 H 520.257 -3.03662 0.048066 0
M  V30 5518 H 517.842 -1.49133 0.0893289 0
M  V30 5519 H 519.724 -3.48941 -2.36259 0
M  V30 5520 H 518.399 -2.29628 -2.28151 0
M  V30 5521 H 517.306 -3.71402 -0.448484 0
M  V30 5522 H 518.639 -4.8841 -0.609608 0
M  V30 5523 N 520.291 -0.0518155 -1.57515 0
M  V30 5524 C 521.539 0.620595 -1.92336 0
M  V30 5525 C 521.86 1.71345 -0.930907 0
M  V30 5526 O 521.13 1.95885 0.0241341 0
M  V30 5527 H 519.71 0.232226 -0.709986 0
M  V30 5528 H 522.372 -0.104969 -1.94617 0
M  V30 5529 H 521.468 1.05879 -2.93592 0
M  V30 5530 N 521.769 1.56035 0.221574 0
M  V30 5531 C 522.699 1.95434 1.2778 0
M  V30 5532 C 523.68 0.822564 1.48889 0
M  V30 5533 O 524.865 1.08486 1.61072 0
M  V30 5534 C 521.995 2.27102 2.62759 0
M  V30 5535 C 520.949 3.4277 2.56306 0
M  V30 5536 C 520.275 3.60043 3.95314 0
M  V30 5537 C 521.575 4.77742 2.11093 0
M  V30 5538 H 523.269 2.83912 0.950504 0
M  V30 5539 H 520.815 1.36596 0.455791 0
M  V30 5540 H 522.768 2.53256 3.36807 0
M  V30 5541 H 521.492 1.35478 2.97176 0
M  V30 5542 H 520.151 3.16664 1.84715 0
M  V30 5543 H 519.799 2.65794 4.27039 0
M  V30 5544 H 519.499 4.37841 3.91879 0
M  V30 5545 H 521.023 3.88545 4.71025 0
M  V30 5546 H 522.437 5.03102 2.74885 0
M  V30 5547 H 520.834 5.58823 2.18716 0
M  V30 5548 H 521.904 4.731 1.06321 0
M  V30 5549 N 523.247 -0.488276 1.49845 0
M  V30 5550 C 524.477 -1.26344 1.63465 0
M  V30 5551 C 524.885 -1.86637 0.310379 0
M  V30 5552 O 524.228 -1.69184 -0.715712 0
M  V30 5553 C 524.29 -2.42407 2.65479 0
M  V30 5554 C 523.954 -2.02886 4.09495 0
M  V30 5555 C 524.951 -1.56124 4.95904 0
M  V30 5556 C 522.636 -2.12131 4.55308 0
M  V30 5557 C 524.63 -1.19129 6.26169 0
M  V30 5558 C 522.317 -1.74747 5.85582 0
M  V30 5559 C 523.315 -1.28322 6.70837 0
M  V30 5560 O 523.003 -0.914491 7.98682 0
M  V30 5561 H 522.735 -0.388921 0.552916 0
M  V30 5562 H 525.289 -0.591288 1.96705 0
M  V30 5563 H 523.519 -3.12739 2.27445 0
M  V30 5564 H 525.208 -3.04409 2.68495 0
M  V30 5565 H 525.974 -1.48417 4.61733 0
M  V30 5566 H 521.853 -2.47217 3.89107 0
M  V30 5567 H 525.397 -0.828211 6.92666 0
M  V30 5568 H 521.294 -1.82109 6.19279 0
M  V30 5569 H 522.062 -1.04485 8.11804 0
M  V30 5570 N 524.725 -1.39134 -0.740242 0
M  V30 5571 C 526.002 -1.26584 -1.49117 0
M  V30 5572 C 526.382 0.126902 -2.10718 0
M  V30 5573 O 525.73 1.13765 -1.98166 0
M  V30 5574 C 525.94 -2.38619 -2.54681 0
M  V30 5575 C 527.288 -2.77685 -3.21211 0
M  V30 5576 O 528.312 -2.38029 -2.64991 0
M  V30 5577 O 527.171 -3.46115 -4.22926 0
M  V30 5578 H 524.265 -0.495769 -0.661923 0
M  V30 5579 H 526.811 -1.50995 -0.774514 0
M  V30 5580 H 525.583 -3.3175 -2.07504 0
M  V30 5581 H 525.206 -2.15845 -3.33911 0
M  V30 5582 N 526.204 0.969867 -1.24223 0
M  V30 5583 C 527.136 2.0669 -0.99055 0
M  V30 5584 C 528.149 1.62753 0.0392222 0
M  V30 5585 O 529.338 1.77403 -0.197561 0
M  V30 5586 C 526.438 3.35589 -0.472594 0
M  V30 5587 C 525.611 4.08444 -1.56499 0
M  V30 5588 C 524.67 5.15616 -1.05007 0
M  V30 5589 O 523.696 5.41911 -1.7413 0
M  V30 5590 N 524.898 5.80383 0.116641 0
M  V30 5591 H 527.663 2.28855 -1.93508 0
M  V30 5592 H 525.224 1.13733 -1.15223 0
M  V30 5593 H 527.216 4.04542 -0.112919 0
M  V30 5594 H 525.786 3.10311 0.377617 0
M  V30 5595 H 525.006 3.33798 -2.09696 0
M  V30 5596 H 526.294 4.53882 -2.29932 0
M  V30 5597 H 525.692 5.6142 0.694589 0
M  V30 5598 H 524.249 6.50462 0.417483 0
M  V30 5599 N 527.682 1.05563 1.17022 0
M  V30 5600 C 528.931 0.763036 1.8671 0
M  V30 5601 C 529.244 -0.712857 1.82147 0
M  V30 5602 O 530.45 -1.11955 2.47343 0
M  V30 5603 C 528.906 1.31474 3.35026 0
M  V30 5604 C 528.514 2.82034 3.48081 0
M  V30 5605 C 530.258 1.09935 4.10018 0
M  V30 5606 C 528.165 3.30486 4.90442 0
M  V30 5607 H 527.095 0.281747 0.699382 0
M  V30 5608 H 529.746 1.2734 1.32124 0
M  V30 5609 H 528.128 0.732171 3.89173 0
M  V30 5610 H 529.302 3.46178 3.04133 0
M  V30 5611 H 527.617 3.02156 2.86515 0
M  V30 5612 H 530.214 1.43632 5.15048 0
M  V30 5613 H 530.557 0.0373072 4.16283 0
M  V30 5614 H 531.09 1.64732 3.62089 0
M  V30 5615 H 527.829 4.36137 4.89352 0
M  V30 5616 H 527.349 2.71086 5.35044 0
M  V30 5617 H 529.028 3.25382 5.59227 0
M  V30 5618 N 529.16 -1.33526 0.837174 0
M  V30 5619 C 530.093 -2.27192 0.214233 0
M  V30 5620 C 531.071 -1.49575 -0.637657 0
M  V30 5621 O 532.255 -1.78753 -0.598291 0
M  V30 5622 C 529.382 -3.31401 -0.699367 0
M  V30 5623 C 528.428 -4.26431 0.0768429 0
M  V30 5624 S 529.261 -5.15954 1.4336 0
M  V30 5625 C 530.417 -6.23692 0.525251 0
M  V30 5626 H 530.65 -2.79679 1.00831 0
M  V30 5627 H 528.183 -1.4079 0.633834 0
M  V30 5628 H 530.141 -3.91924 -1.22088 0
M  V30 5629 H 528.802 -2.77732 -1.46709 0
M  V30 5630 H 527.995 -5.00193 -0.618268 0
M  V30 5631 H 527.597 -3.70235 0.529364 0
M  V30 5632 H 529.889 -6.76931 -0.277575 0
M  V30 5633 H 530.832 -6.97283 1.23299 0
M  V30 5634 H 531.24 -5.64398 0.107351 0
M  V30 5635 N 530.638 -0.59345 -1.46 0
M  V30 5636 C 532.054 -0.255965 -1.57534 0
M  V30 5637 C 532.254 1.24167 -1.58697 0
M  V30 5638 O 531.31 2.02398 -1.50968 0
M  V30 5639 C 532.623 -0.91466 -2.86451 0
M  V30 5640 C 534.171 -0.889253 -3.00102 0
M  V30 5641 C 534.646 -1.52769 -4.3177 0
M  V30 5642 N 536.137 -1.49253 -4.38495 0
M  V30 5643 C 536.872 -1.9558 -5.39014 0
M  V30 5644 N 536.368 -2.49929 -6.46148 0
M  V30 5645 N 538.161 -1.86432 -5.30282 0
M  V30 5646 H 530.312 -1.56604 -1.43489 0
M  V30 5647 H 532.575 -0.655207 -0.685133 0
M  V30 5648 H 532.281 -1.96861 -2.91442 0
M  V30 5649 H 532.155 -0.429356 -3.74748 0
M  V30 5650 H 534.542 0.156111 -2.94687 0
M  V30 5651 H 534.623 -1.41268 -2.13253 0
M  V30 5652 H 534.267 -2.57231 -4.37944 0
M  V30 5653 H 534.197 -0.979398 -5.17412 0
M  V30 5654 H 536.688 -1.09536 -3.61677 0
M  V30 5655 H 537.001 -2.83109 -7.19075 0
M  V30 5656 H 535.346 -2.53961 -6.46938 0
M  V30 5657 H 538.537 -1.43722 -4.4549 0
M  V30 5658 H 538.71 -2.22852 -6.08474 0
M  V30 5659 N 532.116 1.54067 -0.331816 0
M  V30 5660 C 533.362 2.01012 0.268667 0
M  V30 5661 C 533.695 1.2195 1.51136 0
M  V30 5662 O 532.97 0.303972 1.9211 0
M  V30 5663 C 533.253 3.55158 0.59456 0
M  V30 5664 C 533.106 4.4494 -0.659409 0
M  V30 5665 C 534.425 4.16939 1.4089 0
M  V30 5666 H 531.544 0.730698 0.0961756 0
M  V30 5667 H 534.186 1.84593 -0.450031 0
M  V30 5668 H 532.336 3.6928 1.20685 0
M  V30 5669 H 534.008 4.42675 -1.29756 0
M  V30 5670 H 532.251 4.1428 -1.28665 0
M  V30 5671 H 532.922 5.50643 -0.386804 0
M  V30 5672 H 535.398 4.06443 0.891272 0
M  V30 5673 H 534.274 5.24889 1.60569 0
M  V30 5674 H 534.535 3.70798 2.40752 0
M  V30 5675 N 533.594 0.0601682 1.57485 0
M  V30 5676 C 534.541 -0.91112 2.12055 0
M  V30 5677 C 535.511 -1.30298 1.03013 0
M  V30 5678 O 536.696 -1.39087 1.30612 0
M  V30 5679 C 533.836 -2.1775 2.67729 0
M  V30 5680 C 532.949 -1.83933 3.90887 0
M  V30 5681 C 532.084 -3.05096 4.34845 0
M  V30 5682 C 531.123 -2.67241 5.5068 0
M  V30 5683 N 530.26 -3.81127 5.8965 0
M  V30 5684 H 535.1 -0.43888 2.9475 0
M  V30 5685 H 532.637 -0.204995 1.45665 0
M  V30 5686 H 534.595 -2.91866 2.98111 0
M  V30 5687 H 533.225 -2.62535 1.87816 0
M  V30 5688 H 532.277 -0.999287 3.6704 0
M  V30 5689 H 533.589 -1.52074 4.75052 0
M  V30 5690 H 532.743 -3.87502 4.66827 0
M  V30 5691 H 531.482 -3.40139 3.49509 0
M  V30 5692 H 530.487 -1.83254 5.18361 0
M  V30 5693 H 531.712 -2.3338 6.37738 0
M  V30 5694 H 529.658 -4.15954 5.07266 0
M  V30 5695 H 529.575 -3.52997 6.68528 0
M  V30 5696 H 530.843 -4.64145 6.2625 0
M  V30 5697 N 535.072 -1.5615 -0.213296 0
M  V30 5698 C 536.02 -1.93953 -1.28394 0
M  V30 5699 C 537.014 -0.822592 -1.48087 0
M  V30 5700 O 538.22 -1.00748 -1.49164 0
M  V30 5701 H 534.595 -0.61648 -0.430646 0
M  V30 5702 H 536.566 -2.83275 -0.937977 0
M  V30 5703 C 535.315 -2.27969 -2.62537 0
M  V30 5704 H 534.638 -3.13432 -2.48194 0
M  V30 5705 H 536.078 -2.58297 -3.36242 0
M  V30 5706 C 534.537 -1.10775 -3.18167 0
M  V30 5707 O 535.067 -0.373201 -3.99963 0
M  V30 5708 N 533.273 -0.889377 -2.76656 0
M  V30 5709 H 532.82 -1.48843 -2.10246 0
M  V30 5710 H 532.778 -0.107 -3.14218 0
M  V30 5711 N 536.55 0.480323 -1.50102 0
M  V30 5712 C 537.827 1.24159 -1.51142 0
M  V30 5713 C 538.207 2.09605 -0.250818 0
M  V30 5714 O 537.555 2.15274 0.766118 0
M  V30 5715 C 537.765 2.08057 -2.80202 0
M  V30 5716 C 539.113 2.66556 -3.30504 0
M  V30 5717 O 540.137 2.18308 -2.81461 0
M  V30 5718 O 538.996 3.54442 -4.15973 0
M  V30 5719 H 536.09 0.562928 -0.605839 0
M  V30 5720 H 538.636 0.492899 -1.62384 0
M  V30 5721 H 537.408 1.45032 -3.6343 0
M  V30 5722 H 537.031 2.90079 -2.71919 0
M  V30 5723 N 538.028 1.39524 0.732853 0
M  V30 5724 C 539.258 1.3994 1.51988 0
M  V30 5725 C 539.666 -0.00727973 1.89199 0
M  V30 5726 O 539.009 -0.989521 1.54771 0
M  V30 5727 C 539.071 2.21026 2.83527 0
M  V30 5728 C 538.735 3.69633 2.68738 0
M  V30 5729 C 539.732 4.62665 2.37143 0
M  V30 5730 C 537.417 4.13244 2.85542 0
M  V30 5731 C 539.411 5.97291 2.22536 0
M  V30 5732 C 537.098 5.47945 2.70554 0
M  V30 5733 C 538.096 6.39783 2.39097 0
M  V30 5734 O 537.784 7.72002 2.24204 0
M  V30 5735 H 537.516 0.479795 0.476206 0
M  V30 5736 H 540.07 1.8399 0.913054 0
M  V30 5737 H 538.3 1.71728 3.46477 0
M  V30 5738 H 539.989 2.13594 3.45156 0
M  V30 5739 H 540.755 4.30272 2.2381 0
M  V30 5740 H 536.634 3.42094 3.09019 0
M  V30 5741 H 540.178 6.68939 1.97905 0
M  V30 5742 H 536.075 5.79928 2.83466 0
M  V30 5743 H 536.843 7.8275 2.39258 0
M  V30 5744 N 539.506 -0.963266 1.24736 0
M  V30 5745 C 540.917 -1.52145 1.08207 0
M  V30 5746 C 541.268 -1.93142 -0.345061 0
M  V30 5747 O 540.393 -1.77769 -1.23399 0
M  V30 5748 C 540.988 -2.76486 1.95808 0
M  V30 5749 C 539.547 -3.28646 1.8349 0
M  V30 5750 C 538.694 -2.01529 1.90476 0
M  V30 5751 H 541.645 -0.781083 1.38148 0
M  V30 5752 H 541.666 -3.49986 1.49297 0
M  V30 5753 H 541.178 -2.46617 2.99669 0
M  V30 5754 H 539.279 -3.63357 0.824787 0
M  V30 5755 H 539.392 -3.97246 2.67829 0
M  V30 5756 H 537.756 -2.16442 1.34258 0
M  V30 5757 H 538.539 -1.7402 2.95926 0
M  V30 5758 N 540.985 -1.06182 -1.16461 0
M  V30 5759 C 541.933 -0.665716 -2.2287 0
M  V30 5760 C 542.927 0.317822 -1.66392 0
M  V30 5761 O 544.133 0.182807 -1.79069 0
M  V30 5762 H 540.508 -0.197148 -0.725697 0
M  V30 5763 H 542.479 -1.57307 -2.53569 0
M  V30 5764 C 541.228 -0.0669803 -3.47635 0
M  V30 5765 H 540.551 -0.814899 -3.91407 0
M  V30 5766 H 541.991 0.172669 -4.23648 0
M  V30 5767 C 540.45 1.18913 -3.15216 0
M  V30 5768 O 540.98 2.27723 -3.30916 0
M  V30 5769 N 539.186 1.09066 -2.69357 0
M  V30 5770 H 538.733 0.20518 -2.56782 0
M  V30 5771 H 538.691 1.93195 -2.48039 0
M  V30 5772 N 542.463 1.3308 -0.844243 0
M  V30 5773 C 543.693 2.01515 -0.455541 0
M  V30 5774 C 544.101 1.63655 0.949406 0
M  V30 5775 O 543.444 0.84848 1.62931 0
M  V30 5776 C 543.506 3.55967 -0.502801 0
M  V30 5777 C 543.17 4.17222 -1.86481 0
M  V30 5778 C 544.167 4.36205 -2.8288 0
M  V30 5779 C 541.852 4.53528 -2.15911 0
M  V30 5780 C 543.846 4.90649 -4.06869 0
M  V30 5781 C 541.533 5.07679 -3.40155 0
M  V30 5782 C 542.531 5.26186 -4.35451 0
M  V30 5783 O 542.219 5.79183 -5.57496 0
M  V30 5784 H 541.951 0.65199 -0.178565 0
M  V30 5785 H 544.505 1.70867 -1.1399 0
M  V30 5786 H 542.735 3.85965 0.23836 0
M  V30 5787 H 544.424 4.05688 -0.131169 0
M  V30 5788 H 545.19 4.085 -2.61444 0
M  V30 5789 H 541.069 4.38414 -1.42528 0
M  V30 5790 H 544.613 5.0501 -4.81259 0
M  V30 5791 H 540.51 5.34815 -3.61446 0
M  V30 5792 H 541.278 5.97591 -5.5931 0
M  V30 5793 N 543.941 0.601185 1.45683 0
M  V30 5794 C 544.888 -0.121396 2.30481 0
M  V30 5795 C 545.858 -0.866232 1.41724 0
M  V30 5796 O 547.043 -0.85324 1.70659 0
M  V30 5797 C 544.183 -1.11704 3.26521 0
M  V30 5798 C 543.296 -0.373741 4.3038 0
M  V30 5799 C 542.431 -1.35854 5.13534 0
M  V30 5800 C 541.47 -0.602689 6.09126 0
M  V30 5801 N 540.607 -1.53645 6.85082 0
M  V30 5802 H 545.447 0.607732 2.91737 0
M  V30 5803 H 542.984 0.311502 1.43764 0
M  V30 5804 H 544.942 -1.70735 3.80664 0
M  V30 5805 H 543.572 -1.81366 2.67032 0
M  V30 5806 H 542.624 0.331962 3.78949 0
M  V30 5807 H 543.936 0.2163 4.98331 0
M  V30 5808 H 543.09 -2.02111 5.72046 0
M  V30 5809 H 541.829 -1.98251 4.45587 0
M  V30 5810 H 540.834 0.0735482 5.49751 0
M  V30 5811 H 542.059 0.0161467 6.79098 0
M  V30 5812 H 540.005 -2.14819 6.1983 0
M  V30 5813 H 539.922 -0.999688 7.49361 0
M  V30 5814 H 541.19 -2.1888 7.48139 0
M  V30 5815 N 545.419 -1.53889 0.339982 0
M  V30 5816 C 546.366 -2.24902 -0.518452 0
M  V30 5817 C 547.336 -1.24593 -1.09844 0
M  V30 5818 O 548.521 -1.53317 -1.13572 0
M  V30 5819 C 545.661 -3.02262 -1.66529 0
M  V30 5820 C 544.774 -4.17418 -1.11295 0
M  V30 5821 C 543.909 -4.82273 -2.2268 0
M  V30 5822 C 542.948 -5.89503 -1.6478 0
M  V30 5823 N 542.085 -6.48153 -2.69893 0
M  V30 5824 H 546.925 -2.97853 0.0936579 0
M  V30 5825 H 544.462 -1.46986 0.0579924 0
M  V30 5826 H 546.42 -3.45371 -2.3404 0
M  V30 5827 H 545.05 -2.31614 -2.24844 0
M  V30 5828 H 544.102 -3.78976 -0.328886 0
M  V30 5829 H 545.414 -4.94554 -0.649414 0
M  V30 5830 H 544.568 -5.28435 -2.98063 0
M  V30 5831 H 543.307 -4.04552 -2.72376 0
M  V30 5832 H 542.312 -5.42728 -0.879004 0
M  V30 5833 H 543.537 -6.6913 -1.1594 0
M  V30 5834 H 541.483 -5.73298 -3.1885 0
M  V30 5835 H 541.4 -7.20752 -2.28151 0
M  V30 5836 H 542.668 -6.98968 -3.45056 0
M  V30 5837 N 546.897 -0.0685191 -1.57451 0
M  V30 5838 C 548.146 0.600898 -1.92541 0
M  V30 5839 C 548.459 1.70967 -0.950239 0
M  V30 5840 O 549.665 2.43844 -1.19384 0
M  V30 5841 C 548.121 1.12019 -3.42023 0
M  V30 5842 C 547.729 0.0426028 -4.4798 0
M  V30 5843 C 549.473 1.76386 -3.86119 0
M  V30 5844 C 547.38 0.575759 -5.88591 0
M  V30 5845 H 546.31 0.228225 -0.71863 0
M  V30 5846 H 548.961 -0.140223 -1.82963 0
M  V30 5847 H 547.343 1.91418 -3.46663 0
M  V30 5848 H 548.517 -0.73182 -4.54952 0
M  V30 5849 H 546.832 -0.504642 -4.13331 0
M  V30 5850 H 549.429 2.17302 -4.88553 0
M  V30 5851 H 549.772 2.62255 -3.23308 0
M  V30 5852 H 550.305 1.03615 -3.84069 0
M  V30 5853 H 547.044 -0.245691 -6.55039 0
M  V30 5854 H 546.564 1.31778 -5.85145 0
M  V30 5855 H 548.243 1.0532 -6.3837 0
M  V30 5856 N 548.375 1.56261 0.205012 0
M  V30 5857 C 549.605 1.83874 0.942018 0
M  V30 5858 C 550.013 0.647595 1.77772 0
M  V30 5859 O 549.356 -0.393098 1.79445 0
M  V30 5860 C 549.418 3.05453 1.89575 0
M  V30 5861 C 549.082 4.39772 1.24296 0
M  V30 5862 C 550.079 5.16133 0.624724 0
M  V30 5863 C 547.764 4.86504 1.24978 0
M  V30 5864 C 549.758 6.37396 0.0220117 0
M  V30 5865 C 547.445 6.07705 0.643232 0
M  V30 5866 C 548.443 6.82993 0.0304164 0
M  V30 5867 O 548.131 8.019 -0.566654 0
M  V30 5868 H 547.863 0.614896 0.280854 0
M  V30 5869 H 550.417 2.04215 0.220285 0
M  V30 5870 H 548.647 2.80972 2.65691 0
M  V30 5871 H 550.336 3.19797 2.4997 0
M  V30 5872 H 551.102 4.81127 0.611666 0
M  V30 5873 H 546.981 4.27865 1.71616 0
M  V30 5874 H 550.525 6.96102 -0.456926 0
M  V30 5875 H 546.422 6.42181 0.653759 0
M  V30 5876 H 547.19 8.17192 -0.462588 0
M  V30 5877 N 549.853 -0.472356 1.50355 0
M  V30 5878 C 551.102 -1.2213 1.60522 0
M  V30 5879 C 551.415 -1.9312 0.310466 0
M  V30 5880 O 552.621 -2.69936 0.291029 0
M  V30 5881 C 551.077 -2.21909 2.83345 0
M  V30 5882 C 550.685 -1.56727 4.19691 0
M  V30 5883 C 552.429 -2.97453 3.02856 0
M  V30 5884 C 550.336 -2.54785 5.33703 0
M  V30 5885 H 549.266 -0.459543 0.597776 0
M  V30 5886 H 551.917 -0.491922 1.76783 0
M  V30 5887 H 550.299 -2.98133 2.60639 0
M  V30 5888 H 551.473 -0.863007 4.52646 0
M  V30 5889 H 549.788 -0.934685 4.05774 0
M  V30 5890 H 552.385 -3.70838 3.85205 0
M  V30 5891 H 552.728 -3.56764 2.14534 0
M  V30 5892 H 553.261 -2.28342 3.25737 0
M  V30 5893 H 550 -2.00214 6.24175 0
M  V30 5894 H 549.52 -3.23367 5.05167 0
M  V30 5895 H 551.199 -3.16639 5.64224 0
M  V30 5896 N 551.331 -1.39911 -0.725443 0
M  V30 5897 C 552.559 -1.40949 -1.51463 0
M  V30 5898 C 552.974 -0.0065242 -1.88799 0
M  V30 5899 O 552.331 0.967163 -1.54765 0
M  V30 5900 C 552.382 -2.29119 -2.79619 0
M  V30 5901 O 552.103 -3.63952 -2.43866 0
M  V30 5902 C 553.604 -2.38642 -3.73584 0
M  V30 5903 H 550.824 -0.481091 -0.467752 0
M  V30 5904 H 553.368 -1.83843 -0.895651 0
M  V30 5905 H 551.523 -1.89612 -3.37826 0
M  V30 5906 H 551.937 -4.10677 -3.26258 0
M  V30 5907 H 553.411 -3.04563 -4.60375 0
M  V30 5908 H 553.888 -1.40846 -4.16004 0
M  V30 5909 H 554.494 -2.78659 -3.21293 0
M  V30 5910 N 552.809 0.956637 -1.25245 0
M  V30 5911 C 553.719 2.0868 -1.0719 0
M  V30 5912 C 554.735 1.73997 -0.00959074 0
M  V30 5913 O 555.911 2.00301 -0.210104 0
M  V30 5914 C 552.976 3.39754 -0.690526 0
M  V30 5915 C 552.037 3.88316 -1.83055 0
M  V30 5916 C 551.27 5.13134 -1.46728 0
M  V30 5917 O 551.493 5.6925 -0.362029 0
M  V30 5918 O 550.427 5.56356 -2.29677 0
M  V30 5919 H 554.253 2.26813 -2.01965 0
M  V30 5920 H 551.838 1.07098 -1.04165 0
M  V30 5921 H 553.72 4.18543 -0.489871 0
M  V30 5922 H 552.395 3.22896 0.227981 0
M  V30 5923 H 551.302 3.1054 -2.08604 0
M  V30 5924 H 552.635 4.09669 -2.72822 0
M  V30 5925 N 554.287 1.06798 1.15896 0
M  V30 5926 C 555.235 0.677525 2.22514 0
M  V30 5927 C 556.229 -0.308994 1.66558 0
M  V30 5928 O 557.435 -0.173308 1.79164 0
M  V30 5929 H 553.81 0.200994 0.724642 0
M  V30 5930 H 555.781 1.5865 2.52731 0
M  V30 5931 C 554.53 0.0854153 3.47595 0
M  V30 5932 H 553.853 0.835645 3.90969 0
M  V30 5933 H 555.293 -0.150199 4.23734 0
M  V30 5934 C 553.752 -1.1724 3.15843 0
M  V30 5935 O 554.282 -2.25965 3.32119 0
M  V30 5936 N 552.488 -1.07636 2.69931 0
M  V30 5937 H 552.035 -0.191559 2.56887 0
M  V30 5938 H 551.993 -1.91876 2.4906 0
M  V30 5939 N 555.766 -1.3263 0.851289 0
M  V30 5940 C 557.014 -1.96978 0.452128 0
M  V30 5941 C 557.335 -1.67715 -0.99482 0
M  V30 5942 O 556.605 -0.98259 -1.69476 0
M  V30 5943 H 555.185 -0.72873 0.164202 0
M  V30 5944 H 557.847 -1.61774 1.08698 0
M  V30 5945 H 556.943 -3.06387 0.594407 0
M  V30 5946 N 557.244 -0.608902 -1.45362 0
M  V30 5947 C 558.174 0.0964526 -2.33301 0
M  V30 5948 C 559.155 0.857444 -1.46908 0
M  V30 5949 O 560.34 0.827735 -1.75676 0
M  V30 5950 C 557.47 1.09354 -3.29635 0
M  V30 5951 C 556.424 0.445676 -4.25673 0
M  V30 5952 C 555.75 1.5511 -5.11708 0
M  V30 5953 C 557.05 -0.633972 -5.18438 0
M  V30 5954 H 558.744 -0.637829 -2.92527 0
M  V30 5955 H 556.29 -0.308178 -1.40664 0
M  V30 5956 H 558.243 1.59556 -3.90025 0
M  V30 5957 H 556.967 1.85843 -2.6857 0
M  V30 5958 H 555.626 -0.0354897 -3.66583 0
M  V30 5959 H 555.274 2.30631 -4.4701 0
M  V30 5960 H 554.974 1.12311 -5.76767 0
M  V30 5961 H 556.498 2.05537 -5.74967 0
M  V30 5962 H 557.912 -0.215974 -5.72893 0
M  V30 5963 H 556.309 -0.983789 -5.91981 0
M  V30 5964 H 557.379 -1.51005 -4.60788 0
M  V30 5965 N 558.722 1.53707 -0.348139 0
M  V30 5966 C 559.97 2.00591 0.246478 0
M  V30 5967 C 560.291 1.23753 1.50699 0
M  V30 5968 O 559.561 0.345964 1.92821 0
M  V30 5969 H 558.141 0.741053 0.0940679 0
M  V30 5970 H 560.803 1.89139 -0.470354 0
M  V30 5971 H 559.899 3.08297 0.485714 0
M  V30 5972 N 560.2 0.0768682 1.57412 0
M  V30 5973 C 561.43 -0.5991 1.97723 0
M  V30 5974 C 561.838 -1.63378 0.954166 0
M  V30 5975 O 561.181 -1.83578 -0.0668706 0
M  V30 5976 C 561.243 -1.32078 3.34358 0
M  V30 5977 C 560.907 -0.438985 4.54887 0
M  V30 5978 C 561.904 0.305492 5.19002 0
M  V30 5979 C 559.589 -0.362378 5.00991 0
M  V30 5980 C 561.583 1.11475 6.27576 0
M  V30 5981 C 559.27 0.450543 6.09437 0
M  V30 5982 C 560.268 1.18777 6.72593 0
M  V30 5983 O 559.956 1.98727 7.7895 0
M  V30 5984 H 559.688 -0.166725 0.655117 0
M  V30 5985 H 562.242 0.147337 2.04871 0
M  V30 5986 H 560.472 -2.1134 3.2384 0
M  V30 5987 H 562.161 -1.88949 3.5924 0
M  V30 5988 H 562.927 0.25593 4.84324 0
M  V30 5989 H 558.806 -0.925832 4.51608 0
M  V30 5990 H 562.35 1.69068 6.76803 0
M  V30 5991 H 558.247 0.501651 6.43548 0
M  V30 5992 H 559.015 1.91214 7.95851 0
M  V30 5993 N 561.678 -1.56367 -0.196722 0
M  V30 5994 C 562.625 -1.94417 -1.24382 0
M  V30 5995 C 563.595 -0.804543 -1.45315 0
M  V30 5996 O 564.78 -1.06256 -1.58475 0
M  V30 5997 C 561.92 -2.28757 -2.58388 0
M  V30 5998 C 561.033 -3.55775 -2.45047 0
M  V30 5999 C 560.168 -3.79445 -3.71746 0
M  V30 6000 C 559.207 -4.99894 -3.53231 0
M  V30 6001 N 558.344 -5.19826 -4.71938 0
M  V30 6002 H 563.184 -2.83691 -0.912338 0
M  V30 6003 H 560.721 -1.40392 -0.439135 0
M  V30 6004 H 562.679 -2.46682 -3.36457 0
M  V30 6005 H 561.309 -1.42625 -2.89582 0
M  V30 6006 H 560.361 -3.45905 -1.58284 0
M  V30 6007 H 561.673 -4.44 -2.27299 0
M  V30 6008 H 560.827 -3.97601 -4.58256 0
M  V30 6009 H 559.566 -2.89546 -3.92446 0
M  V30 6010 H 558.571 -4.81662 -2.65107 0
M  V30 6011 H 559.796 -5.913 -3.33978 0
M  V30 6012 H 557.742 -4.32875 -4.92905 0
M  V30 6013 H 557.659 -6.02228 -4.57009 0
M  V30 6014 H 558.927 -5.42439 -5.59803 0
M  V30 6015 N 563.156 0.464375 -1.50603 0
M  V30 6016 C 564.433 1.22549 -1.5245 0
M  V30 6017 C 564.813 2.09327 -0.273035 0
M  V30 6018 O 564.161 2.16074 0.743242 0
M  V30 6019 C 564.371 2.05074 -2.82393 0
M  V30 6020 C 565.719 2.63036 -3.33313 0
M  V30 6021 O 566.743 2.1531 -2.8376 0
M  V30 6022 O 565.602 3.5001 -4.19709 0
M  V30 6023 H 562.696 0.556471 -0.611775 0
M  V30 6024 H 565.242 0.475648 -1.62898 0
M  V30 6025 H 564.014 1.41169 -3.64948 0
M  V30 6026 H 563.637 2.87179 -2.7498 0
M  V30 6027 N 564.634 1.40294 0.718013 0
M  V30 6028 C 565.544 1.42678 1.86226 0
M  V30 6029 C 566.56 0.319655 1.71039 0
M  V30 6030 O 567.736 0.563852 1.93346 0
M  V30 6031 C 564.801 1.2852 3.21999 0
M  V30 6032 C 563.862 2.49354 3.49458 0
M  V30 6033 C 563.095 2.35863 4.78753 0
M  V30 6034 O 563.318 1.37114 5.53675 0
M  V30 6035 O 562.252 3.25189 5.06494 0
M  V30 6036 H 566.078 2.39167 1.87171 0
M  V30 6037 H 563.663 1.2159 0.868112 0
M  V30 6038 H 565.545 1.22824 4.03103 0
M  V30 6039 H 564.22 0.351359 3.21787 0
M  V30 6040 H 563.127 2.60628 2.68373 0
M  V30 6041 H 564.46 3.41491 3.54464 0
M  V30 6042 N 566.112 -0.949982 1.2575 0
M  V30 6043 C 567.359 -1.69515 1.10774 0
M  V30 6044 C 567.687 -1.91316 -0.350479 0
M  V30 6045 O 566.942 -1.48515 -1.27443 0
M  V30 6046 C 567.241 -3.08039 1.81237 0
M  V30 6047 C 566.907 -3.06023 3.31151 0
M  V30 6048 C 565.569 -3.0518 3.72047 0
M  V30 6049 C 567.921 -2.98998 4.26907 0
M  V30 6050 C 565.249 -2.95067 5.07102 0
M  V30 6051 C 567.601 -2.90426 5.61992 0
M  V30 6052 C 566.265 -2.87922 6.0221 0
M  V30 6053 H 565.535 -0.6203 0.405351 0
M  V30 6054 H 568.182 -1.10953 1.56082 0
M  V30 6055 H 566.487 -3.70172 1.28373 0
M  V30 6056 H 568.184 -3.64526 1.67098 0
M  V30 6057 H 564.774 -3.07453 2.98614 0
M  V30 6058 H 568.958 -2.98764 3.963 0
M  V30 6059 H 564.214 -2.915 5.37436 0
M  V30 6060 H 568.388 -2.83952 6.35881 0
M  V30 6061 H 566.015 -2.79841 7.06819 0
M  V30 6062 N 567.59 -1.07411 -1.15328 0
M  V30 6063 C 568.836 -0.798831 -1.86404 0
M  V30 6064 C 569.169 0.673433 -1.8215 0
M  V30 6065 O 568.444 1.49428 -1.24505 0
M  V30 6066 C 568.727 -1.30846 -3.35487 0
M  V30 6067 C 568.58 -2.84532 -3.4837 0
M  V30 6068 C 569.899 -0.925486 -4.30259 0
M  V30 6069 H 567.018 -0.291659 -0.676834 0
M  V30 6070 H 569.66 -1.332 -1.35491 0
M  V30 6071 H 567.81 -0.854916 -3.78977 0
M  V30 6072 H 569.482 -3.3818 -3.13739 0
M  V30 6073 H 567.725 -3.22699 -2.8991 0
M  V30 6074 H 568.396 -3.15259 -4.53118 0
M  V30 6075 H 570.872 -1.3163 -3.94731 0
M  V30 6076 H 569.748 -1.3094 -5.33053 0
M  V30 6077 H 570.009 0.168525 -4.41779 0
M  V30 6078 N 569.068 1.32177 -0.85831 0
M  V30 6079 C 570.345 1.91781 -0.384624 0
M  V30 6080 C 570.725 1.78171 1.13217 0
M  V30 6081 O 570.073 1.18209 1.95548 0
M  V30 6082 C 570.283 3.38414 -0.853047 0
M  V30 6083 C 571.631 4.15542 -0.872359 0
M  V30 6084 O 572.655 3.47148 -0.797926 0
M  V30 6085 O 571.514 5.37678 -0.978009 0
M  V30 6086 H 568.608 0.819259 -0.112886 0
M  V30 6087 H 571.154 1.40923 -0.945453 0
M  V30 6088 H 569.926 3.4228 -1.89632 0
M  V30 6089 H 569.549 3.96683 -0.269874 0
M  V30 6090 N 570.547 0.616602 1.45037 0
M  V30 6091 C 571.495 -0.109318 2.32343 0
M  V30 6092 C 572.489 -0.850543 1.465 0
M  V30 6093 O 573.695 -0.765088 1.62931 0
M  V30 6094 H 570.07 -0.0541091 0.750051 0
M  V30 6095 H 572.041 0.645326 2.91338 0
M  V30 6096 C 570.79 -1.0872 3.30266 0
M  V30 6097 H 570.113 -0.526267 3.96321 0
M  V30 6098 H 571.553 -1.56489 3.94065 0
M  V30 6099 C 570.012 -2.16525 2.58105 0
M  V30 6100 O 570.542 -3.244 2.36913 0
M  V30 6101 N 568.748 -1.92057 2.18088 0
M  V30 6102 H 568.295 -1.04337 2.35524 0
M  V30 6103 H 568.253 -2.64391 1.70131 0
M  V30 6104 N 572.025 -1.5352 0.356285 0
M  V30 6105 C 573.253 -2.05534 -0.237328 0
M  V30 6106 C 573.668 -1.23043 -1.43199 0
M  V30 6107 O 573.025 -0.268821 -1.80509 0
M  V30 6108 C 573.076 -3.55791 -0.639933 0
M  V30 6109 O 572.797 -4.35154 0.507233 0
M  V30 6110 C 574.298 -4.24027 -1.29292 0
M  V30 6111 H 571.518 -0.669585 -0.0435572 0
M  V30 6112 H 574.062 -1.97988 0.511963 0
M  V30 6113 H 572.217 -3.63518 -1.33915 0
M  V30 6114 H 572.631 -5.24178 0.18375 0
M  V30 6115 H 574.105 -5.30509 -1.52527 0
M  V30 6116 H 574.582 -3.77166 -2.25039 0
M  V30 6117 H 575.188 -4.20527 -0.63539 0
M  V30 6118 N 573.503 -0.0852151 -1.57369 0
M  V30 6119 C 574.749 0.581666 -1.94279 0
M  V30 6120 C 575.082 1.68444 -0.966446 0
M  V30 6121 O 574.357 1.945 0.00215277 0
M  V30 6122 C 574.64 1.14609 -3.41375 0
M  V30 6123 C 574.493 0.0490414 -4.49773 0
M  V30 6124 C 575.812 2.04751 -3.8957 0
M  V30 6125 H 572.931 0.209972 -0.706456 0
M  V30 6126 H 575.573 -0.153915 -1.89376 0
M  V30 6127 H 573.723 1.77297 -3.45685 0
M  V30 6128 H 575.395 -0.584721 -4.57579 0
M  V30 6129 H 573.638 -0.618638 -4.29366 0
M  V30 6130 H 574.309 0.484601 -5.49869 0
M  V30 6131 H 576.785 1.51981 -3.87351 0
M  V30 6132 H 575.661 2.41173 -4.93079 0
M  V30 6133 H 575.922 2.96107 -3.28288 0
M  V30 6134 N 574.981 1.5647 0.188427 0
M  V30 6135 C 576.211 1.84863 0.922463 0
M  V30 6136 C 576.619 0.666413 1.77075 0
M  V30 6137 O 575.962 -0.374044 1.79852 0
M  V30 6138 C 576.024 3.07447 1.86324 0
M  V30 6139 C 575.688 4.41066 1.19625 0
M  V30 6140 C 576.685 5.16767 0.569946 0
M  V30 6141 C 574.37 4.87802 1.19811 0
M  V30 6142 C 576.364 6.37384 -0.045594 0
M  V30 6143 C 574.051 6.08353 0.57874 0
M  V30 6144 C 575.049 6.82987 -0.0420259 0
M  V30 6145 O 574.737 8.01254 -0.651675 0
M  V30 6146 H 574.469 0.61784 0.274316 0
M  V30 6147 H 577.023 2.04437 0.198613 0
M  V30 6148 H 575.253 2.83774 2.62696 0
M  V30 6149 H 576.942 3.2243 2.46564 0
M  V30 6150 H 577.708 4.81749 0.560601 0
M  V30 6151 H 573.587 4.29662 1.67069 0
M  V30 6152 H 577.131 6.95578 -0.530731 0
M  V30 6153 H 573.028 6.42838 0.58561 0
M  V30 6154 H 573.796 8.16655 -0.549236 0
M  V30 6155 N 576.459 -0.456382 1.50847 0
M  V30 6156 C 577.736 -1.21739 1.53098 0
M  V30 6157 C 578.116 -2.09179 0.284132 0
M  V30 6158 O 577.464 -2.16466 -0.731773 0
M  V30 6159 C 577.674 -2.03573 2.83477 0
M  V30 6160 C 579.022 -2.61264 3.34703 0
M  V30 6161 O 580.046 -2.13802 2.84898 0
M  V30 6162 O 578.905 -3.47779 4.21559 0
M  V30 6163 H 575.999 -0.553219 0.614718 0
M  V30 6164 H 578.545 -0.467003 1.63148 0
M  V30 6165 H 577.317 -1.39232 3.65691 0
M  V30 6166 H 576.94 -2.85716 2.76499 0
M  V30 6167 N 577.937 -1.40673 -0.710563 0
M  V30 6168 C 579.214 -1.29718 -1.46398 0
M  V30 6169 C 579.594 0.082177 -2.1094 0
M  V30 6170 O 578.942 1.09536 -2.00534 0
M  V30 6171 C 579.152 -2.43967 -2.49562 0
M  V30 6172 C 580.5 -2.84436 -3.15248 0
M  V30 6173 O 581.524 -2.43597 -2.59883 0
M  V30 6174 O 580.383 -3.55008 -4.1549 0
M  V30 6175 H 577.477 -0.509697 -0.651258 0
M  V30 6176 H 580.023 -1.52603 -0.742312 0
M  V30 6177 H 578.795 -3.36076 -2.0042 0
M  V30 6178 H 578.418 -2.22879 -3.29258 0
M  V30 6179 N 579.415 0.9433 -1.26252 0
M  V30 6180 C 580.663 1.68592 -1.11451 0
M  V30 6181 C 580.984 1.91957 0.343123 0
M  V30 6182 O 580.254 1.51475 1.24226 0
M  V30 6183 H 578.834 0.624789 -0.409448 0
M  V30 6184 H 581.496 1.13351 -1.58548 0
M  V30 6185 H 580.592 2.66054 -1.63162 0
M  V30 6186 N 580.893 1.08022 1.14757 0
M  V30 6187 C 582.309 0.807072 1.3769 0
M  V30 6188 C 582.509 -0.585504 1.92806 0
M  V30 6189 O 581.565 -1.34301 2.13821 0
M  V30 6190 C 582.878 1.88651 2.34161 0
M  V30 6191 C 584.426 1.91206 2.47809 0
M  V30 6192 C 584.901 2.98253 3.47576 0
M  V30 6193 N 586.392 2.974 3.55117 0
M  V30 6194 C 587.127 3.76872 4.32152 0
M  V30 6195 N 586.623 4.66212 5.12463 0
M  V30 6196 N 588.416 3.6519 4.27309 0
M  V30 6197 H 580.567 1.97824 0.77326 0
M  V30 6198 H 582.83 0.85826 0.402608 0
M  V30 6199 H 582.536 2.88749 2.00791 0
M  V30 6200 H 582.41 1.75244 3.3402 0
M  V30 6201 H 584.797 0.917564 2.80472 0
M  V30 6202 H 584.878 2.08691 1.47925 0
M  V30 6203 H 584.522 3.97907 3.15646 0
M  V30 6204 H 584.452 2.78014 4.47231 0
M  V30 6205 H 586.943 2.32643 2.97801 0
M  V30 6206 H 587.256 5.23468 5.68508 0
M  V30 6207 H 585.601 4.70257 5.11745 0
M  V30 6208 H 588.792 2.94765 3.63636 0
M  V30 6209 H 588.965 4.27366 4.87095 0
M  V30 6210 N 582.371 -1.3172 0.865308 0
M  V30 6211 C 583.62 -1.96145 0.470098 0
M  V30 6212 C 583.933 -1.69182 -0.981674 0
M  V30 6213 O 585.139 -2.27431 -1.48281 0
M  V30 6214 C 583.595 -3.51129 0.789732 0
M  V30 6215 C 583.203 -3.86938 2.25795 0
M  V30 6216 C 584.947 -4.2197 0.462765 0
M  V30 6217 C 582.854 -5.35012 2.52024 0
M  V30 6218 H 581.784 -0.734105 0.172065 0
M  V30 6219 H 584.435 -1.49959 1.05757 0
M  V30 6220 H 582.817 -3.95781 0.131571 0
M  V30 6221 H 583.991 -3.5326 2.95879 0
M  V30 6222 H 582.306 -3.29149 2.55049 0
M  V30 6223 H 584.903 -5.30904 0.636019 0
M  V30 6224 H 585.246 -4.12005 -0.59645 0
M  V30 6225 H 585.779 -3.82936 1.07727 0
M  V30 6226 H 582.518 -5.50008 3.56611 0
M  V30 6227 H 582.038 -5.70058 1.8653 0
M  V30 6228 H 583.717 -6.0222 2.36515 0
M  V30 6229 N 583.85 -0.624285 -1.44708 0
M  V30 6230 C 585.127 -0.0572781 -1.95516 0
M  V30 6231 C 585.507 1.41516 -1.56641 0
M  V30 6232 O 584.855 2.12614 -0.837111 0
M  V30 6233 C 585.065 -0.272944 -3.47931 0
M  V30 6234 C 586.413 -0.162529 -4.24289 0
M  V30 6235 O 587.437 -0.203946 -3.55616 0
M  V30 6236 O 586.296 -0.0616847 -5.46465 0
M  V30 6237 H 583.389 0.0262219 -0.826584 0
M  V30 6238 H 585.936 -0.695512 -1.54793 0
M  V30 6239 H 584.707 -1.29492 -3.69253 0
M  V30 6240 H 584.331 0.399756 -3.95585 0
M  V30 6241 N 585.328 1.53329 -0.364422 0
M  V30 6242 C 586.558 2.05359 0.226096 0
M  V30 6243 C 586.966 1.23777 1.43094 0
M  V30 6244 O 586.309 0.271139 1.81688 0
M  V30 6245 C 586.371 3.52918 0.684794 0
M  V30 6246 C 586.035 4.55218 -0.403206 0
M  V30 6247 C 587.032 5.04583 -1.2527 0
M  V30 6248 C 584.717 4.99134 -0.563117 0
M  V30 6249 C 586.711 5.96463 -2.24745 0
M  V30 6250 C 584.398 5.9082 -1.56124 0
M  V30 6251 C 585.396 6.39375 -2.40184 0
M  V30 6252 O 585.084 7.29255 -3.38293 0
M  V30 6253 H 584.816 0.674588 0.0436772 0
M  V30 6254 H 587.37 1.98688 -0.520782 0
M  V30 6255 H 585.6 3.57122 1.48326 0
M  V30 6256 H 587.289 3.87812 1.19818 0
M  V30 6257 H 588.055 4.71403 -1.14034 0
M  V30 6258 H 583.934 4.60928 0.0813909 0
M  V30 6259 H 587.478 6.34285 -2.90393 0
M  V30 6260 H 583.375 6.23414 -1.67407 0
M  V30 6261 H 584.143 7.47249 -3.34009 0
M  V30 6262 N 586.806 0.0935595 1.57322 0
M  V30 6263 C 588.052 -0.571355 1.94585 0
M  V30 6264 C 588.385 -1.67929 0.975366 0
M  V30 6265 O 587.66 -1.94498 0.00816206 0
M  V30 6266 C 587.943 -1.12797 3.41978 0
M  V30 6267 C 587.796 -0.0251881 4.49793 0
M  V30 6268 C 589.115 -2.02682 3.90651 0
M  V30 6269 H 586.234 -0.206223 0.70756 0
M  V30 6270 H 588.876 0.163956 1.89291 0
M  V30 6271 H 587.026 -1.75461 3.4662 0
M  V30 6272 H 588.698 0.608979 4.57263 0
M  V30 6273 H 586.941 0.641399 4.29032 0
M  V30 6274 H 587.612 -0.455433 5.50118 0
M  V30 6275 H 590.088 -1.49925 3.88152 0
M  V30 6276 H 588.964 -2.38555 4.94351 0
M  V30 6277 H 589.225 -2.94362 3.29854 0
M  V30 6278 N 588.284 -1.56567 -0.180126 0
M  V30 6279 C 589.231 -1.95725 -1.22313 0
M  V30 6280 C 590.201 -0.819911 -1.44453 0
M  V30 6281 O 591.386 -1.07931 -1.57339 0
M  V30 6282 C 588.526 -2.31484 -2.55947 0
M  V30 6283 C 587.639 -3.58354 -2.4126 0
M  V30 6284 C 586.774 -3.83366 -3.67701 0
M  V30 6285 C 585.813 -5.03612 -3.47909 0
M  V30 6286 N 584.95 -5.24802 -4.66398 0
M  V30 6287 H 589.79 -2.84642 -0.882198 0
M  V30 6288 H 587.327 -1.4085 -0.42422 0
M  V30 6289 H 589.285 -2.50237 -3.33822 0
M  V30 6290 H 587.915 -1.45689 -2.88053 0
M  V30 6291 H 586.967 -3.47565 -1.54606 0
M  V30 6292 H 588.279 -4.46386 -2.22577 0
M  V30 6293 H 587.433 -4.02439 -4.54013 0
M  V30 6294 H 586.172 -2.93692 -3.89353 0
M  V30 6295 H 585.177 -4.84447 -2.59983 0
M  V30 6296 H 586.402 -5.94809 -3.27688 0
M  V30 6297 H 584.348 -4.38079 -4.88286 0
M  V30 6298 H 584.265 -6.07041 -4.50596 0
M  V30 6299 H 585.533 -5.48346 -5.54019 0
M  V30 6300 N 589.762 0.448376 -1.51087 0
M  V30 6301 C 590.694 1.56146 -1.67783 0
M  V30 6302 C 591.707 1.52913 -0.55871 0
M  V30 6303 O 592.896 1.57889 -0.83267 0
M  V30 6304 C 589.996 2.95057 -1.66716 0
M  V30 6305 C 589.169 3.22915 -2.95033 0
M  V30 6306 C 588.228 4.41495 -2.86302 0
M  V30 6307 O 587.254 4.40688 -3.60254 0
M  V30 6308 N 588.456 5.44443 -2.014 0
M  V30 6309 H 591.221 1.42232 -2.638 0
M  V30 6310 H 588.782 0.637153 -1.48835 0
M  V30 6311 H 590.774 3.72388 -1.58458 0
M  V30 6312 H 589.344 3.02624 -0.783403 0
M  V30 6313 H 588.564 2.33985 -3.17245 0
M  V30 6314 H 589.852 3.38349 -3.79996 0
M  V30 6315 H 589.25 5.4793 -1.40674 0
M  V30 6316 H 587.807 6.2067 -1.99029 0
M  V30 6317 N 591.24 1.41047 0.703093 0
M  V30 6318 C 592.19 1.38774 1.80903 0
M  V30 6319 C 593.174 0.263275 1.58731 0
M  V30 6320 O 594.366 0.503362 1.69692 0
M  V30 6321 C 591.495 1.26497 3.19145 0
M  V30 6322 C 590.581 2.43775 3.47037 0
M  V30 6323 N 590.972 3.69249 3.45672 0
M  V30 6324 C 589.27 2.37425 3.77552 0
M  V30 6325 C 589.971 4.46989 3.72258 0
M  V30 6326 N 588.947 3.76998 3.91629 0
M  V30 6327 H 592.749 2.33714 1.78199 0
M  V30 6328 H 590.263 1.34996 0.902762 0
M  V30 6329 H 592.26 1.2295 3.98358 0
M  V30 6330 H 590.92 0.32534 3.23066 0
M  V30 6331 H 591.931 4.02239 3.26228 0
M  V30 6332 H 588.608 1.51895 3.88888 0
M  V30 6333 H 589.998 5.55894 3.77402 0
M  V30 6334 N 592.718 -0.936591 1.26751 0
M  V30 6335 C 593.648 -2.05315 1.11212 0
M  V30 6336 C 594.629 -1.70092 0.0160262 0
M  V30 6337 O 595.814 -1.93279 0.188894 0
M  V30 6338 C 592.944 -3.39123 0.749171 0
M  V30 6339 C 591.898 -3.88425 1.79751 0
M  V30 6340 C 591.224 -5.18936 1.28876 0
M  V30 6341 C 592.524 -4.12798 3.19992 0
M  V30 6342 H 594.218 -2.18573 2.04613 0
M  V30 6343 H 591.764 -1.05027 0.985159 0
M  V30 6344 H 593.717 -4.16704 0.627323 0
M  V30 6345 H 592.441 -3.25855 -0.220543 0
M  V30 6346 H 591.1 -3.13028 1.90811 0
M  V30 6347 H 590.748 -5.02051 0.308757 0
M  V30 6348 H 590.448 -5.52892 1.98958 0
M  V30 6349 H 591.972 -5.99096 1.17967 0
M  V30 6350 H 593.386 -4.80977 3.11983 0
M  V30 6351 H 591.783 -4.58044 3.87705 0
M  V30 6352 H 592.853 -3.18412 3.65707 0
M  V30 6353 N 594.196 -1.08629 -1.14182 0
M  V30 6354 C 595.106 -0.730126 -2.22949 0
M  V30 6355 C 596.122 0.26436 -1.7198 0
M  V30 6356 O 597.298 0.107742 -2.01112 0
M  V30 6357 C 594.363 -0.147227 -3.46387 0
M  V30 6358 C 593.424 -1.19662 -4.12286 0
M  V30 6359 C 592.657 -0.641437 -5.29831 0
M  V30 6360 O 592.88 0.538351 -5.67854 0
M  V30 6361 O 591.814 -1.39257 -5.85569 0
M  V30 6362 H 595.64 -1.63753 -2.55771 0
M  V30 6363 H 593.225 -0.860118 -1.22157 0
M  V30 6364 H 595.107 0.174923 -4.21037 0
M  V30 6365 H 593.782 0.733304 -3.15285 0
M  V30 6366 H 592.689 -1.57133 -3.395 0
M  V30 6367 H 594.022 -2.0495 -4.475 0
M  V30 6368 N 595.674 1.31259 -0.872281 0
M  V30 6369 C 596.92 1.96913 -0.485083 0
M  V30 6370 C 597.253 1.68774 0.960667 0
M  V30 6371 O 596.528 0.985495 1.67685 0
M  V30 6372 C 596.811 3.52299 -0.745502 0
M  V30 6373 C 596.664 3.90002 -2.24095 0
M  V30 6374 C 597.983 4.39582 -0.213516 0
M  V30 6375 H 595.102 0.715252 -0.177716 0
M  V30 6376 H 597.744 1.55347 -1.09395 0
M  V30 6377 H 595.894 3.87835 -0.227276 0
M  V30 6378 H 597.566 3.64555 -2.82661 0
M  V30 6379 H 595.809 3.38526 -2.71261 0
M  V30 6380 H 596.48 4.98352 -2.37381 0
M  V30 6381 H 598.956 4.10882 -0.656902 0
M  V30 6382 H 597.832 5.47251 -0.42516 0
M  V30 6383 H 598.093 4.33158 0.884666 0
M  V30 6384 N 597.152 0.631951 1.44375 0
M  V30 6385 C 598.082 -0.0593243 2.33425 0
M  V30 6386 C 599.063 -0.833964 1.48253 0
M  V30 6387 O 600.248 -0.799682 1.76971 0
M  V30 6388 C 597.378 -1.04096 3.31333 0
M  V30 6389 C 596.332 -0.377899 4.26328 0
M  V30 6390 C 595.658 -1.4695 5.14111 0
M  V30 6391 C 596.958 0.716371 5.17364 0
M  V30 6392 H 598.652 0.684287 2.91475 0
M  V30 6393 H 596.198 0.330518 1.40156 0
M  V30 6394 H 598.151 -1.53331 3.92514 0
M  V30 6395 H 596.875 -1.81547 2.71493 0
M  V30 6396 H 595.534 0.0938054 3.6648 0
M  V30 6397 H 595.182 -2.2349 4.50623 0
M  V30 6398 H 594.882 -1.03121 5.78481 0
M  V30 6399 H 596.406 -1.96363 5.78164 0
M  V30 6400 H 597.82 0.307089 5.72477 0
M  V30 6401 H 596.217 1.07784 5.90341 0
M  V30 6402 H 597.287 1.58316 4.58327 0
M  V30 6403 N 598.631 -1.53133 0.372548 0
M  V30 6404 C 599.856 -2.0625 -0.218098 0
M  V30 6405 C 600.281 -1.24375 -1.41111 0
M  V30 6406 O 599.639 -0.264554 -1.79359 0
M  V30 6407 C 599.687 -3.55858 -0.582876 0
M  V30 6408 O 598.791 -3.76667 -1.67917 0
M  V30 6409 H 598.132 -0.663317 -0.030104 0
M  V30 6410 H 600.662 -1.97477 0.535169 0
M  V30 6411 H 600.672 -3.99007 -0.851925 0
M  V30 6412 H 599.347 -4.14892 0.289428 0
M  V30 6413 H 597.924 -3.45413 -1.40513 0
M  V30 6414 N 600.109 -0.101901 -1.5727 0
M  V30 6415 C 601.386 0.602832 -1.86079 0
M  V30 6416 C 601.766 1.85912 -1 0
M  V30 6417 O 601.114 2.28379 -0.0742488 0
M  V30 6418 C 601.324 0.911694 -3.36881 0
M  V30 6419 C 602.672 1.2722 -4.05093 0
M  V30 6420 O 603.696 1.0025 -3.41802 0
M  V30 6421 O 602.555 1.7776 -5.16782 0
M  V30 6422 H 599.649 0.302366 -0.769743 0
M  V30 6423 H 602.195 -0.135113 -1.69161 0
M  V30 6424 H 600.967 0.0207256 -3.91295 0
M  V30 6425 H 600.59 1.70538 -3.59169 0
M  V30 6426 N 601.587 1.56661 0.17182 0
M  V30 6427 C 602.55 1.9549 1.19651 0
M  V30 6428 C 603.55 0.838501 1.37207 0
M  V30 6429 O 604.74 1.10556 1.34622 0
M  V30 6430 C 601.872 2.24927 2.56166 0
M  V30 6431 H 603.065 2.87184 0.864007 0
M  V30 6432 H 600.618 1.50711 0.41425 0
M  V30 6433 H 601.353 1.35944 2.94431 0
M  V30 6434 H 601.138 3.06301 2.4479 0
M  V30 6435 H 602.628 2.55891 3.30014 0
M  V30 6436 N 603.065 -0.440357 1.51323 0
M  V30 6437 C 604.314 -1.18697 1.63076 0
M  V30 6438 C 604.627 -1.92418 0.35136 0
M  V30 6439 O 605.833 -2.69258 0.348221 0
M  V30 6440 C 604.289 -2.15849 2.87988 0
M  V30 6441 C 603.897 -1.47789 4.22921 0
M  V30 6442 C 605.641 -2.90962 3.09098 0
M  V30 6443 C 603.548 -2.43407 5.38987 0
M  V30 6444 H 602.478 -0.44676 0.607389 0
M  V30 6445 H 605.129 -0.454313 1.77787 0
M  V30 6446 H 603.511 -2.92537 2.66905 0
M  V30 6447 H 604.685 -0.7668 4.54375 0
M  V30 6448 H 603 -0.848404 4.07665 0
M  V30 6449 H 605.597 -3.62584 3.92985 0
M  V30 6450 H 605.94 -3.52133 2.22053 0
M  V30 6451 H 606.473 -2.21381 3.30507 0
M  V30 6452 H 603.212 -1.86929 6.28282 0
M  V30 6453 H 602.732 -3.12579 5.11913 0
M  V30 6454 H 604.411 -3.046 5.70813 0
M  V30 6455 N 604.543 -1.41418 -0.695603 0
M  V30 6456 C 605.506 -1.42988 -1.79129 0
M  V30 6457 C 606.506 -0.320514 -1.57573 0
M  V30 6458 O 607.696 -0.58039 -1.64247 0
M  V30 6459 C 604.828 -1.24122 -3.175 0
M  V30 6460 H 606.021 -2.40526 -1.7913 0
M  V30 6461 H 603.574 -1.2756 -0.903225 0
M  V30 6462 H 604.309 -0.274253 -3.23138 0
M  V30 6463 H 604.094 -2.045 -3.34547 0
M  V30 6464 H 605.584 -1.28056 -3.97481 0
M  V30 6465 N 606.021 0.929856 -1.27246 0
M  V30 6466 C 607.298 1.65544 -1.04186 0
M  V30 6467 C 607.678 2.06796 0.424097 0
M  V30 6468 O 607.026 1.80053 1.40688 0
M  V30 6469 C 607.236 2.85912 -2.00138 0
M  V30 6470 C 608.584 3.57305 -2.29387 0
M  V30 6471 O 609.608 2.96036 -1.98094 0
M  V30 6472 O 608.467 4.67688 -2.82719 0
M  V30 6473 H 605.561 0.725473 -0.397011 0
M  V30 6474 H 608.107 0.980583 -1.38501 0
M  V30 6475 H 606.879 2.52403 -2.99013 0
M  V30 6476 H 606.502 3.61118 -1.66371 0
M  V30 6477 N 607.499 1.09233 1.13605 0
M  V30 6478 C 608.747 0.825525 1.84471 0
M  V30 6479 C 609.068 -0.650702 1.83823 0
M  V30 6480 O 608.338 -1.47204 1.29259 0
M  V30 6481 H 606.918 0.3024 0.683054 0
M  V30 6482 H 609.58 1.38006 1.37624 0
M  V30 6483 H 608.676 1.17727 2.89045 0
M  V30 6484 N 608.977 -1.30795 0.87923 0
M  V30 6485 C 609.94 -2.26563 0.346676 0
M  V30 6486 C 610.94 -1.52578 -0.507597 0
M  V30 6487 O 612.13 -1.71318 -0.315575 0
M  V30 6488 C 609.262 -3.37115 -0.506611 0
M  V30 6489 H 610.455 -2.75183 1.19223 0
M  V30 6490 H 608.008 -1.41886 0.655598 0
M  V30 6491 H 608.743 -2.93802 -1.37299 0
M  V30 6492 H 608.528 -3.91959 0.105218 0
M  V30 6493 H 610.018 -4.08412 -0.871192 0
M  V30 6494 N 610.455 -0.639598 -1.44038 0
M  V30 6495 C 611.403 0.0723409 -2.32487 0
M  V30 6496 C 612.397 0.827129 -1.47834 0
M  V30 6497 O 613.603 0.73907 -1.64127 0
M  V30 6498 H 609.978 0.0421696 -0.750817 0
M  V30 6499 H 611.949 -0.691593 -2.90275 0
M  V30 6500 C 610.698 1.03452 -3.31953 0
M  V30 6501 H 610.021 0.46315 -3.97108 0
M  V30 6502 H 611.461 1.502 -3.96505 0
M  V30 6503 C 609.92 2.12392 -2.61518 0
M  V30 6504 O 610.45 3.2059 -2.42044 0
M  V30 6505 N 608.656 1.88563 -2.21116 0
M  V30 6506 H 608.203 1.00577 -2.37154 0
M  V30 6507 H 608.161 2.61651 -1.74316 0
M  V30 6508 N 611.933 1.52934 -0.380664 0
M  V30 6509 C 613.179 2.01765 0.20458 0
M  V30 6510 C 613.512 1.26696 1.47179 0
M  V30 6511 O 612.787 0.364936 1.91046 0
M  V30 6512 C 613.07 3.56869 0.481269 0
M  V30 6513 C 612.923 4.42617 -0.800629 0
M  V30 6514 C 614.242 4.2121 1.27554 0
M  V30 6515 H 611.361 0.733388 0.0728803 0
M  V30 6516 H 614.003 1.83068 -0.50853 0
M  V30 6517 H 612.153 3.72932 1.08875 0
M  V30 6518 H 613.825 4.38323 -1.43773 0
M  V30 6519 H 612.068 4.09977 -1.4178 0
M  V30 6520 H 612.739 5.49134 -0.561791 0
M  V30 6521 H 615.215 4.09072 0.761514 0
M  V30 6522 H 614.091 5.29732 1.43788 0
M  V30 6523 H 614.352 3.78269 2.28833 0
M  V30 6524 N 613.412 0.11024 1.57214 0
M  V30 6525 C 614.359 -0.843195 2.14846 0
M  V30 6526 C 615.329 -1.26954 1.07107 0
M  V30 6527 O 616.514 -1.34861 1.34971 0
M  V30 6528 C 613.654 -2.09123 2.74521 0
M  V30 6529 C 612.767 -1.71404 3.96541 0
M  V30 6530 C 611.902 -2.91107 4.44331 0
M  V30 6531 C 610.941 -2.49586 5.58903 0
M  V30 6532 N 610.078 -3.62175 6.01477 0
M  V30 6533 H 614.918 -0.344886 2.95998 0
M  V30 6534 H 612.455 -0.15855 1.46243 0
M  V30 6535 H 614.413 -2.82234 3.07246 0
M  V30 6536 H 613.043 -2.56427 1.96074 0
M  V30 6537 H 612.095 -0.88201 3.70033 0
M  V30 6538 H 613.407 -1.36884 4.7965 0
M  V30 6539 H 612.561 -3.72454 4.78919 0
M  V30 6540 H 611.3 -3.28848 3.60153 0
M  V30 6541 H 610.305 -1.6667 5.23929 0
M  V30 6542 H 611.53 -2.12973 6.4484 0
M  V30 6543 H 609.476 -3.99605 5.20242 0
M  V30 6544 H 609.393 -3.3155 6.79419 0
M  V30 6545 H 610.661 -4.43987 6.407 0
M  V30 6546 N 614.89 -1.56749 -0.16351 0
M  V30 6547 C 616.138 -1.82074 -0.87713 0
M  V30 6548 C 616.459 -0.688503 -1.82441 0
M  V30 6549 O 615.729 0.291085 -1.93725 0
M  V30 6550 H 614.309 -0.671677 -0.326893 0
M  V30 6551 H 616.971 -1.9423 -0.161459 0
M  V30 6552 H 616.067 -2.76407 -1.44934 0
M  V30 6553 N 616.368 0.432326 -1.51554 0
M  V30 6554 C 617.598 1.2019 -1.68042 0
M  V30 6555 C 618.006 1.85356 -0.379434 0
M  V30 6556 O 617.349 1.71724 0.652427 0
M  V30 6557 C 617.411 2.32387 -2.74292 0
M  V30 6558 C 617.075 1.87548 -4.16743 0
M  V30 6559 C 618.072 1.37611 -5.01357 0
M  V30 6560 C 615.757 1.95087 -4.62868 0
M  V30 6561 C 617.751 0.958069 -6.30159 0
M  V30 6562 C 615.438 1.52894 -5.91664 0
M  V30 6563 C 616.436 1.03336 -6.75137 0
M  V30 6564 O 616.124 0.617435 -8.01525 0
M  V30 6565 H 615.856 0.368132 -0.56697 0
M  V30 6566 H 618.41 0.517875 -1.98764 0
M  V30 6567 H 616.64 3.04082 -2.38895 0
M  V30 6568 H 618.329 2.94235 -2.79608 0
M  V30 6569 H 619.095 1.31178 -4.66923 0
M  V30 6570 H 614.974 2.32606 -3.98015 0
M  V30 6571 H 618.518 0.570562 -6.95263 0
M  V30 6572 H 614.415 1.58999 -6.25611 0
M  V30 6573 H 615.183 0.742835 -8.15122 0
M  V30 6574 N 617.846 1.41785 0.688094 0
M  V30 6575 C 619.093 1.41544 1.44816 0
M  V30 6576 C 619.421 0.0271746 1.94481 0
M  V30 6577 O 618.676 -0.962235 1.7041 0
M  V30 6578 C 618.975 2.37532 2.67046 0
M  V30 6579 C 618.641 3.84209 2.35996 0
M  V30 6580 C 617.303 4.24165 2.27239 0
M  V30 6581 C 619.655 4.76785 2.10536 0
M  V30 6582 C 616.983 5.54695 1.91128 0
M  V30 6583 C 619.335 6.07644 1.75931 0
M  V30 6584 C 617.999 6.46613 1.65675 0
M  V30 6585 H 617.269 0.517945 0.529919 0
M  V30 6586 H 619.916 1.74635 0.785797 0
M  V30 6587 H 618.221 1.9772 3.38251 0
M  V30 6588 H 619.918 2.34615 3.25203 0
M  V30 6589 H 616.508 3.52567 2.4371 0
M  V30 6590 H 620.692 4.46714 2.16242 0
M  V30 6591 H 615.948 5.83762 1.81746 0
M  V30 6592 H 620.122 6.78874 1.55252 0
M  V30 6593 H 617.749 7.47668 1.37463 0
M  V30 6594 N 619.324 -0.923095 1.27737 0
M  V30 6595 C 620.573 -1.66581 1.13727 0
M  V30 6596 C 620.886 -1.9304 -0.315433 0
M  V30 6597 O 622.092 -2.65309 -0.57651 0
M  V30 6598 C 620.548 -3.00047 1.98745 0
M  V30 6599 C 620.156 -2.8127 3.48699 0
M  V30 6600 C 621.9 -3.77887 1.93395 0
M  V30 6601 C 619.807 -4.1032 4.25901 0
M  V30 6602 H 618.737 -0.624834 0.422017 0
M  V30 6603 H 621.388 -1.02514 1.52194 0
M  V30 6604 H 619.77 -3.65197 1.53125 0
M  V30 6605 H 620.944 -2.24859 4.02213 0
M  V30 6606 H 619.259 -2.16854 3.55476 0
M  V30 6607 H 621.856 -4.73526 2.48348 0
M  V30 6608 H 622.199 -4.06264 0.908605 0
M  V30 6609 H 622.732 -3.19541 2.36935 0
M  V30 6610 H 619.471 -3.8712 5.28978 0
M  V30 6611 H 618.991 -4.66377 3.77163 0
M  V30 6612 H 620.67 -4.78648 4.35321 0
M  V30 6613 N 620.802 -1.09834 -1.13024 0
M  V30 6614 C 622.048 -0.848072 -1.84876 0
M  V30 6615 C 622.403 0.619663 -1.82148 0
M  V30 6616 O 621.696 1.45067 -1.25164 0
M  V30 6617 C 621.89 -1.32263 -3.32026 0
M  V30 6618 C 621.719 -2.83497 -3.49084 0
M  V30 6619 C 620.489 -3.51425 -3.63082 0
M  V30 6620 C 622.687 -3.81623 -3.44773 0
M  V30 6621 N 620.669 -4.91042 -3.68443 0
M  V30 6622 C 622.04 -5.07217 -3.56555 0
M  V30 6623 C 624.095 -3.74419 -3.282 0
M  V30 6624 C 622.798 -6.26457 -3.53474 0
M  V30 6625 C 624.824 -4.93151 -3.26429 0
M  V30 6626 C 624.186 -6.1759 -3.38765 0
M  V30 6627 H 620.285 -0.363249 -0.692513 0
M  V30 6628 H 622.869 -1.39952 -1.35357 0
M  V30 6629 H 621.04 -0.79858 -3.80102 0
M  V30 6630 H 622.772 -1.01725 -3.91707 0
M  V30 6631 H 619.527 -3.0186 -3.64935 0
M  V30 6632 H 619.951 -5.63782 -3.74805 0
M  V30 6633 H 624.593 -2.79132 -3.17561 0
M  V30 6634 H 622.311 -7.22039 -3.62884 0
M  V30 6635 H 625.897 -4.8928 -3.14796 0
M  V30 6636 H 624.777 -7.07925 -3.37361 0
M  V30 6637 N 622.28 1.30327 -0.886154 0
M  V30 6638 C 623.505 2.0079 -0.519425 0
M  V30 6639 C 623.93 1.65979 0.885013 0
M  V30 6640 O 623.288 0.877043 1.58675 0
M  V30 6641 C 623.336 3.53686 -0.702758 0
M  V30 6642 O 622.44 4.11637 0.250828 0
M  V30 6643 H 621.781 0.63171 -0.204544 0
M  V30 6644 H 624.311 1.66145 -1.19402 0
M  V30 6645 H 624.321 4.03531 -0.602207 0
M  V30 6646 H 622.996 3.78361 -1.72673 0
M  V30 6647 H 621.573 3.72755 0.103873 0
M  V30 6648 N 623.758 0.647228 1.43697 0
M  V30 6649 C 624.688 -0.0345631 2.33474 0
M  V30 6650 C 625.669 -0.818193 1.4913 0
M  V30 6651 O 626.854 -0.780867 1.77809 0
M  V30 6652 C 623.984 -1.00576 3.32418 0
M  V30 6653 C 622.938 -0.33266 4.26705 0
M  V30 6654 C 622.264 -1.41489 5.1564 0
M  V30 6655 C 623.564 0.771204 5.16575 0
M  V30 6656 H 625.258 0.715163 2.90733 0
M  V30 6657 H 622.804 0.345364 1.39797 0
M  V30 6658 H 624.757 -1.49159 3.94119 0
M  V30 6659 H 623.481 -1.78657 2.73403 0
M  V30 6660 H 622.14 0.13267 3.6636 0
M  V30 6661 H 621.788 -2.18698 4.52968 0
M  V30 6662 H 621.488 -0.969799 5.79542 0
M  V30 6663 H 623.012 -1.9022 5.80214 0
M  V30 6664 H 624.426 0.36779 5.72119 0
M  V30 6665 H 622.823 1.1404 5.89165 0
M  V30 6666 H 623.893 1.63169 4.56622 0
M  V30 6667 N 625.236 -1.5273 0.388769 0
M  V30 6668 C 626.169 -2.22861 -0.490752 0
M  V30 6669 C 627.147 -1.22912 -1.06449 0
M  V30 6670 O 628.331 -1.51896 -1.11624 0
M  V30 6671 C 625.458 -2.94141 -1.67925 0
M  V30 6672 C 624.504 -4.08355 -1.23081 0
M  V30 6673 S 625.337 -5.35077 -0.212786 0
M  V30 6674 C 626.493 -6.09879 -1.40708 0
M  V30 6675 H 626.726 -2.97115 0.104787 0
M  V30 6676 H 624.259 -1.53428 0.172956 0
M  V30 6677 H 626.217 -3.35818 -2.36085 0
M  V30 6678 H 624.878 -2.19568 -2.24608 0
M  V30 6679 H 624.071 -4.57328 -2.11818 0
M  V30 6680 H 623.673 -3.68688 -0.628121 0
M  V30 6681 H 625.965 -6.36018 -2.33424 0
M  V30 6682 H 626.908 -7.01586 -0.958271 0
M  V30 6683 H 627.316 -5.40646 -1.62364 0
M  V30 6684 N 626.714 -0.118576 -1.57153 0
M  V30 6685 C 627.991 0.583062 -1.86708 0
M  V30 6686 C 628.371 1.84841 -1.01967 0
M  V30 6687 O 627.719 2.28288 -0.0984673 0
M  V30 6688 C 627.929 0.875912 -3.3783 0
M  V30 6689 C 629.277 1.22916 -4.0642 0
M  V30 6690 O 630.301 0.966188 -3.42846 0
M  V30 6691 O 629.16 1.72269 -5.18638 0
M  V30 6692 H 626.254 0.294185 -0.772906 0
M  V30 6693 H 628.8 -0.153048 -1.69008 0
M  V30 6694 H 627.572 -0.0207776 -3.91294 0
M  V30 6695 H 627.195 1.66719 -3.60958 0
M  V30 6696 N 628.193 1.56834 0.155195 0
M  V30 6697 C 629.439 1.83169 0.870467 0
M  V30 6698 C 629.772 0.698929 1.81187 0
M  V30 6699 O 629.047 -0.298035 1.92203 0
M  V30 6700 C 629.33 3.19965 1.65211 0
M  V30 6701 C 629.183 4.43792 0.732744 0
M  V30 6702 C 630.502 3.53885 2.61636 0
M  V30 6703 H 627.621 0.666288 0.315006 0
M  V30 6704 H 630.263 1.89513 0.135988 0
M  V30 6705 H 628.413 3.14687 2.27825 0
M  V30 6706 H 630.085 4.61148 0.118236 0
M  V30 6707 H 628.328 4.3378 0.0417906 0
M  V30 6708 H 628.999 5.36095 1.31552 0
M  V30 6709 H 631.475 3.5972 2.09143 0
M  V30 6710 H 630.351 4.50648 3.13381 0
M  V30 6711 H 630.612 2.79418 3.42605 0
M  V30 6712 N 629.671 -0.424282 1.51781 0
M  V30 6713 C 630.918 -1.1726 1.65095 0
M  V30 6714 C 631.246 -1.90881 0.373477 0
M  V30 6715 O 630.501 -1.84835 -0.642997 0
M  V30 6716 C 630.8 -2.20418 2.81337 0
M  V30 6717 C 630.466 -1.63715 4.20129 0
M  V30 6718 C 629.128 -1.47975 4.57883 0
M  V30 6719 C 631.48 -1.22157 5.06682 0
M  V30 6720 C 628.808 -0.891703 5.79884 0
M  V30 6721 C 631.16 -0.647767 6.29275 0
M  V30 6722 C 629.824 -0.477371 6.65791 0
M  V30 6723 H 629.094 -0.429085 0.604125 0
M  V30 6724 H 631.741 -0.461852 1.85847 0
M  V30 6725 H 630.046 -2.97581 2.54859 0
M  V30 6726 H 631.743 -2.78163 2.88836 0
M  V30 6727 H 628.333 -1.76946 3.90369 0
M  V30 6728 H 632.517 -1.33133 4.7811 0
M  V30 6729 H 627.773 -0.747563 6.06813 0
M  V30 6730 H 631.947 -0.317291 6.95677 0
M  V30 6731 H 629.574 -0.0195936 7.60197 0
M  V30 6732 N 631.149 -1.42148 -0.680565 0
M  V30 6733 C 632.374 -1.45901 -1.47403 0
M  V30 6734 C 632.799 -0.0700985 -1.87969 0
M  V30 6735 O 632.157 0.930145 -1.55621 0
M  V30 6736 C 632.205 -2.38661 -2.70321 0
M  V30 6737 O 631.309 -1.85399 -3.68376 0
M  V30 6738 H 630.65 -0.494565 -0.443059 0
M  V30 6739 H 633.18 -1.86774 -0.835251 0
M  V30 6740 H 633.19 -2.55046 -3.18458 0
M  V30 6741 H 631.865 -3.39571 -2.40134 0
M  V30 6742 H 630.442 -1.78541 -3.2738 0
M  V30 6743 N 632.627 0.916307 -1.28225 0
M  V30 6744 C 633.873 1.66794 -1.1641 0
M  V30 6745 C 634.228 1.90278 0.284986 0
M  V30 6746 O 633.521 1.49023 1.20427 0
M  V30 6747 C 633.715 3.03125 -1.8934 0
M  V30 6748 C 633.544 2.92947 -3.41192 0
M  V30 6749 C 632.314 2.9461 -4.10528 0
M  V30 6750 C 634.512 2.7121 -4.36978 0
M  V30 6751 N 632.494 2.74993 -5.48864 0
M  V30 6752 C 633.865 2.60411 -5.6266 0
M  V30 6753 C 635.92 2.56187 -4.26934 0
M  V30 6754 C 634.623 2.3612 -6.79441 0
M  V30 6755 C 636.649 2.33275 -5.43449 0
M  V30 6756 C 636.011 2.23228 -6.68093 0
M  V30 6757 H 632.11 0.616654 -0.480896 0
M  V30 6758 H 634.694 1.08237 -1.61842 0
M  V30 6759 H 632.865 3.59774 -1.46346 0
M  V30 6760 H 634.597 3.67294 -1.69932 0
M  V30 6761 H 631.352 3.0527 -3.62087 0
M  V30 6762 H 631.776 2.68284 -6.21573 0
M  V30 6763 H 636.418 2.62707 -3.31278 0
M  V30 6764 H 634.136 2.28339 -7.75169 0
M  V30 6765 H 637.722 2.22519 -5.37565 0
M  V30 6766 H 636.602 2.05741 -7.5673 0
M  V30 6767 N 634.105 1.10431 1.1244 0
M  V30 6768 C 635.33 0.869089 1.88313 0
M  V30 6769 C 635.755 -0.574912 1.79099 0
M  V30 6770 O 635.113 -1.40496 1.14589 0
M  V30 6771 C 635.161 1.32208 3.3549 0
M  V30 6772 O 634.265 0.487092 4.09513 0
M  V30 6773 H 633.606 0.313894 0.585121 0
M  V30 6774 H 636.136 1.47111 1.42195 0
M  V30 6775 H 636.146 1.31201 3.86329 0
M  V30 6776 H 634.821 2.37364 3.41513 0
M  V30 6777 H 633.398 0.562372 3.68635 0
M  V30 6778 N 635.583 -1.29855 0.893053 0
M  V30 6779 C 636.531 -2.29867 0.355512 0
M  V30 6780 C 637.525 -1.60502 -0.541801 0
M  V30 6781 O 638.731 -1.74902 -0.425339 0
M  V30 6782 H 635.106 -0.745805 0.0963247 0
M  V30 6783 H 637.077 -2.72655 1.21252 0
M  V30 6784 C 635.826 -3.453 -0.407801 0
M  V30 6785 H 635.149 -3.98864 0.273426 0
M  V30 6786 H 636.589 -4.17334 -0.748887 0
M  V30 6787 C 635.048 -2.96051 -1.60795 0
M  V30 6788 O 635.578 -2.96763 -2.7073 0
M  V30 6789 N 633.784 -2.51963 -1.44786 0
M  V30 6790 H 633.331 -2.51583 -0.553498 0
M  V30 6791 H 633.289 -2.1937 -2.2522 0
M  V30 6792 N 637.061 -0.65484 -1.43351 0
M  V30 6793 C 638.309 -0.168559 -2.01396 0
M  V30 6794 C 638.63 1.22235 -1.51933 0
M  V30 6795 O 637.9 1.81685 -0.732627 0
M  V30 6796 H 636.48 -0.0593244 -0.744641 0
M  V30 6797 H 639.142 -0.846871 -1.75539 0
M  V30 6798 H 638.238 -0.154428 -3.11718 0
M  V30 6799 N 638.539 1.52521 -0.396863 0
M  V30 6800 C 639.769 2.05792 0.182485 0
M  V30 6801 C 640.177 1.26784 1.40436 0
M  V30 6802 O 639.52 0.309617 1.81072 0
M  V30 6803 C 639.582 3.54291 0.609781 0
M  V30 6804 C 639.246 4.5426 -0.499674 0
M  V30 6805 C 640.243 5.01812 -1.35944 0
M  V30 6806 C 637.928 4.97827 -0.668864 0
M  V30 6807 C 639.922 5.91562 -2.37346 0
M  V30 6808 C 637.609 5.87376 -1.68621 0
M  V30 6809 C 638.607 6.34137 -2.53692 0
M  V30 6810 O 638.295 7.21915 -3.53686 0
M  V30 6811 H 638.027 0.675362 0.0293583 0
M  V30 6812 H 640.581 1.97539 -0.56281 0
M  V30 6813 H 638.811 3.60188 1.40717 0
M  V30 6814 H 640.5 3.90267 1.11565 0
M  V30 6815 H 641.266 4.68879 -1.24008 0
M  V30 6816 H 637.145 4.60997 -0.0163971 0
M  V30 6817 H 640.689 6.27983 -3.03782 0
M  V30 6818 H 636.586 6.19723 -1.80593 0
M  V30 6819 H 637.354 7.39996 -3.49784 0
M  V30 6820 N 640.017 0.126909 1.57088 0
M  V30 6821 C 640.927 -0.833867 2.1928 0
M  V30 6822 C 641.943 -1.2868 1.17122 0
M  V30 6823 O 643.119 -1.34815 1.49622 0
M  V30 6824 C 640.184 -2.0632 2.78627 0
M  V30 6825 C 639.245 -1.66143 3.95847 0
M  V30 6826 C 638.478 -2.83217 4.52354 0
M  V30 6827 O 638.701 -3.98868 4.0775 0
M  V30 6828 O 637.635 -2.59846 5.42922 0
M  V30 6829 H 641.461 -0.334564 3.01852 0
M  V30 6830 H 639.046 -0.0991091 1.49071 0
M  V30 6831 H 640.928 -2.78304 3.16425 0
M  V30 6832 H 639.603 -2.55242 1.99082 0
M  V30 6833 H 638.51 -0.912435 3.62802 0
M  V30 6834 H 639.843 -1.21957 4.76852 0
M  V30 6835 N 641.495 -1.56914 -0.146875 0
M  V30 6836 C 642.442 -1.98275 -1.18134 0
M  V30 6837 C 643.412 -0.850367 -1.42681 0
M  V30 6838 O 644.597 -1.11244 -1.55014 0
M  V30 6839 C 641.737 -2.36861 -2.5098 0
M  V30 6840 C 640.85 -3.63391 -2.33605 0
M  V30 6841 C 639.985 -3.91079 -3.59486 0
M  V30 6842 C 639.024 -5.10879 -3.37149 0
M  V30 6843 N 638.161 -5.34577 -4.55161 0
M  V30 6844 H 643.001 -2.8645 -0.821622 0
M  V30 6845 H 640.538 -1.41718 -0.394248 0
M  V30 6846 H 642.496 -2.57262 -3.28439 0
M  V30 6847 H 641.126 -1.51766 -2.84898 0
M  V30 6848 H 640.178 -3.50766 -1.47199 0
M  V30 6849 H 641.49 -4.51007 -2.13059 0
M  V30 6850 H 640.644 -4.11979 -4.45374 0
M  V30 6851 H 639.383 -3.01885 -3.83036 0
M  V30 6852 H 638.388 -4.89853 -2.49649 0
M  V30 6853 H 639.613 -6.01626 -3.14997 0
M  V30 6854 H 637.559 -4.48337 -4.78884 0
M  V30 6855 H 637.476 -6.16463 -4.37618 0
M  V30 6856 H 638.744 -5.59975 -5.42263 0
M  V30 6857 N 642.974 0.416227 -1.52004 0
M  V30 6858 C 644.39 0.754319 -1.40649 0
M  V30 6859 C 644.59 1.95059 -0.505392 0
M  V30 6860 O 643.646 2.5248 0.0315057 0
M  V30 6861 C 644.959 1.0149 -2.83055 0
M  V30 6862 C 646.507 1.11805 -2.9235 0
M  V30 6863 C 646.982 1.41144 -4.35709 0
M  V30 6864 N 648.473 1.48024 -4.38911 0
M  V30 6865 C 649.208 1.72338 -5.46889 0
M  V30 6866 N 648.704 1.94303 -6.64995 0
M  V30 6867 N 650.497 1.74294 -5.34395 0
M  V30 6868 H 642.648 -0.371324 -2.09129 0
M  V30 6869 H 644.911 -0.103811 -0.942299 0
M  V30 6870 H 644.617 0.208345 -3.51082 0
M  V30 6871 H 644.491 1.93697 -3.23668 0
M  V30 6872 H 646.878 1.91521 -2.24508 0
M  V30 6873 H 646.959 0.17451 -2.55204 0
M  V30 6874 H 646.603 0.619484 -5.04108 0
M  V30 6875 H 646.533 2.36739 -4.70385 0
M  V30 6876 H 649.024 1.32868 -3.53772 0
M  V30 6877 H 649.337 2.12286 -7.43071 0
M  V30 6878 H 647.682 1.91582 -6.68073 0
M  V30 6879 H 650.873 1.56667 -4.41104 0
M  V30 6880 H 651.046 1.92904 -6.18621 0
M  V30 6881 N 644.452 1.42507 0.673017 0
M  V30 6882 C 645.682 1.46261 1.45916 0
M  V30 6883 C 646.09 0.0729724 1.89059 0
M  V30 6884 O 645.433 -0.922987 1.58829 0
M  V30 6885 C 645.495 2.32853 2.73898 0
M  V30 6886 C 645.159 3.80699 2.52819 0
M  V30 6887 C 646.156 4.72307 2.17306 0
M  V30 6888 C 643.841 4.24983 2.67758 0
M  V30 6889 C 645.835 6.06192 1.97003 0
M  V30 6890 C 643.522 5.58927 2.4707 0
M  V30 6891 C 644.52 6.49348 2.11746 0
M  V30 6892 O 644.208 7.80817 1.91259 0
M  V30 6893 H 643.94 0.499561 0.455428 0
M  V30 6894 H 646.494 1.87697 0.834196 0
M  V30 6895 H 644.724 1.86268 3.38882 0
M  V30 6896 H 646.413 2.28041 3.35786 0
M  V30 6897 H 647.179 4.39378 2.05359 0
M  V30 6898 H 643.058 3.54893 2.94231 0
M  V30 6899 H 646.602 6.76731 1.69355 0
M  V30 6900 H 642.499 5.91429 2.58615 0
M  V30 6901 H 643.267 7.92194 2.05843 0
M  V30 6902 N 645.93 -0.909495 1.28709 0
M  V30 6903 C 647.178 -1.65577 1.15882 0
M  V30 6904 C 647.499 -1.928 -0.292108 0
M  V30 6905 O 646.769 -1.54716 -1.20166 0
M  V30 6906 H 645.349 -0.613714 0.425869 0
M  V30 6907 H 648.011 -1.09108 1.61498 0
M  V30 6908 H 647.107 -2.61634 1.70159 0
M  V30 6909 N 647.408 -1.11026 -1.11852 0
M  V30 6910 C 648.338 -0.786812 -2.19844 0
M  V30 6911 C 649.319 0.242935 -1.68356 0
M  V30 6912 O 650.504 0.107355 -1.93903 0
M  V30 6913 C 647.634 -0.224516 -3.46574 0
M  V30 6914 C 646.588 -1.18564 -4.1125 0
M  V30 6915 C 645.914 -0.484261 -5.32503 0
M  V30 6916 C 647.214 -2.53465 -4.56676 0
M  V30 6917 H 648.908 -1.68978 -2.47158 0
M  V30 6918 H 646.454 -0.813906 -1.18792 0
M  V30 6919 H 648.407 0.0139435 -4.21398 0
M  V30 6920 H 647.131 0.713722 -3.18706 0
M  V30 6921 H 645.79 -1.40966 -3.38414 0
M  V30 6922 H 645.438 0.458646 -5.00905 0
M  V30 6923 H 645.138 -1.12526 -5.76725 0
M  V30 6924 H 646.662 -0.254492 -6.10069 0
M  V30 6925 H 648.076 -2.35177 -5.22843 0
M  V30 6926 H 646.473 -3.13507 -5.11697 0
M  V30 6927 H 647.543 -3.13008 -3.70343 0
M  V30 6928 N 648.886 1.2938 -0.899927 0
M  V30 6929 C 650.133 1.9555 -0.525963 0
M  V30 6930 C 650.461 1.70945 0.927789 0
M  V30 6931 O 649.716 1.01545 1.67293 0
M  V30 6932 C 650.015 3.49114 -0.765113 0
M  V30 6933 C 649.681 3.93796 -2.19626 0
M  V30 6934 C 648.343 4.05707 -2.58758 0
M  V30 6935 C 650.695 4.16883 -3.12823 0
M  V30 6936 C 648.023 4.38074 -3.90267 0
M  V30 6937 C 650.375 4.50725 -4.4388 0
M  V30 6938 C 649.039 4.60845 -4.82885 0
M  V30 6939 H 648.309 0.715569 -0.192463 0
M  V30 6940 H 650.956 1.53972 -1.13863 0
M  V30 6941 H 649.261 3.91738 -0.069531 0
M  V30 6942 H 650.958 3.98409 -0.455144 0
M  V30 6943 H 647.548 3.85042 -1.88256 0
M  V30 6944 H 651.732 4.07147 -2.83804 0
M  V30 6945 H 646.988 4.44112 -4.20207 0
M  V30 6946 H 651.162 4.67538 -5.16121 0
M  V30 6947 H 648.789 4.85681 -5.84823 0
M  V30 6948 N 650.364 0.662433 1.43002 0
M  V30 6949 C 651.594 0.187343 2.05749 0
M  V30 6950 C 652.002 -1.15582 1.49791 0
M  V30 6951 O 651.345 -1.72651 0.627487 0
M  V30 6952 C 651.407 0.0316493 3.59486 0
M  V30 6953 C 651.071 1.30156 4.38073 0
M  V30 6954 C 652.068 2.23234 4.69535 0
M  V30 6955 C 649.753 1.54572 4.77926 0
M  V30 6956 C 651.747 3.39012 5.39768 0
M  V30 6957 C 649.434 2.70641 5.47902 0
M  V30 6958 C 650.432 3.62687 5.78746 0
M  V30 6959 O 650.12 4.76728 6.47291 0
M  V30 6960 H 649.852 0.0915214 0.669776 0
M  V30 6961 H 652.406 0.905982 1.8434 0
M  V30 6962 H 650.636 -0.742451 3.79506 0
M  V30 6963 H 652.325 -0.401977 4.03905 0
M  V30 6964 H 653.091 2.05616 4.39257 0
M  V30 6965 H 648.97 0.83804 4.53319 0
M  V30 6966 H 652.514 4.10877 5.63761 0
M  V30 6967 H 648.411 2.88189 5.77596 0
M  V30 6968 H 649.179 4.76113 6.65777 0
M  V30 6969 N 651.842 -1.52309 0.404946 0
M  V30 6970 C 653.088 -2.02065 -0.172455 0
M  V30 6971 C 653.421 -1.29022 -1.45145 0
M  V30 6972 O 652.696 -0.395284 -1.90441 0
M  V30 6973 C 652.979 -3.5759 -0.424433 0
M  V30 6974 C 652.832 -4.41287 0.870945 0
M  V30 6975 C 654.151 -4.23186 -1.20837 0
M  V30 6976 H 651.27 -0.734454 -0.0612035 0
M  V30 6977 H 653.912 -1.82236 0.53759 0
M  V30 6978 H 652.062 -3.74617 -1.02929 0
M  V30 6979 H 653.734 -4.3598 1.50729 0
M  V30 6980 H 651.977 -4.07669 1.48284 0
M  V30 6981 H 652.648 -5.48171 0.649083 0
M  V30 6982 H 655.124 -4.10232 -0.696338 0
M  V30 6983 H 654 -5.31953 -1.35343 0
M  V30 6984 H 654.261 -3.81862 -2.22786 0
M  V30 6985 N 653.32 -0.135238 -1.57019 0
M  V30 6986 C 654.597 0.563227 -1.87316 0
M  V30 6987 C 654.977 1.83749 -1.03921 0
M  V30 6988 O 654.325 2.2817 -0.122675 0
M  V30 6989 C 654.535 0.840031 -3.3874 0
M  V30 6990 C 655.883 1.18598 -4.077 0
M  V30 6991 O 656.907 0.92977 -3.43851 0
M  V30 6992 O 655.766 1.66758 -5.20436 0
M  V30 6993 H 652.86 0.285971 -0.775983 0
M  V30 6994 H 655.406 -0.170965 -1.68837 0
M  V30 6995 H 654.178 -0.0622785 -3.9125 0
M  V30 6996 H 653.801 1.62882 -3.62706 0
M  V30 6997 N 654.798 1.5699 0.138552 0
M  V30 6998 C 656.045 1.83809 0.849732 0
M  V30 6999 C 656.373 0.717409 1.80786 0
M  V30 7000 O 655.628 -0.292897 1.93496 0
M  V30 7001 C 655.927 3.17007 1.65049 0
M  V30 7002 C 655.593 4.43037 0.838398 0
M  V30 7003 C 654.255 4.77262 0.614385 0
M  V30 7004 C 656.607 5.20495 0.271044 0
M  V30 7005 C 653.935 5.864 -0.187552 0
M  V30 7006 C 656.287 6.30476 -0.517979 0
M  V30 7007 C 654.951 6.63245 -0.75249 0
M  V30 7008 H 654.221 0.672605 0.310939 0
M  V30 7009 H 656.868 1.91166 0.112971 0
M  V30 7010 H 655.173 3.05138 2.4576 0
M  V30 7011 H 656.87 3.34975 2.20437 0
M  V30 7012 H 653.46 4.16211 1.02307 0
M  V30 7013 H 657.644 4.94422 0.431371 0
M  V30 7014 H 652.9 6.10226 -0.378659 0
M  V30 7015 H 657.074 6.89686 -0.964694 0
M  V30 7016 H 654.701 7.47648 -1.37573 0
M  V30 7017 N 656.276 -0.40816 1.52223 0
M  V30 7018 C 657.553 -1.16807 1.56893 0
M  V30 7019 C 657.933 -2.08169 0.350537 0
M  V30 7020 O 657.281 -2.18684 -0.662536 0
M  V30 7021 C 657.491 -1.94451 2.8981 0
M  V30 7022 C 658.839 -2.50484 3.42845 0
M  V30 7023 O 659.863 -2.0463 2.91556 0
M  V30 7024 O 658.722 -3.34192 4.3241 0
M  V30 7025 H 655.816 -0.533382 0.632007 0
M  V30 7026 H 658.362 -0.414862 1.64551 0
M  V30 7027 H 657.134 -1.27527 3.69936 0
M  V30 7028 H 656.757 -2.76775 2.85449 0
M  V30 7029 N 657.755 -1.42862 -0.66545 0
M  V30 7030 C 658.983 -1.47246 -1.45349 0
M  V30 7031 C 659.398 -0.0865944 -1.88601 0
M  V30 7032 O 658.755 0.900652 -1.58728 0
M  V30 7033 C 658.806 -2.40772 -2.6965 0
M  V30 7034 O 658.527 -3.73968 -2.2821 0
M  V30 7035 C 660.028 -2.54272 -3.63126 0
M  V30 7036 H 657.248 -0.500497 -0.446927 0
M  V30 7037 H 659.792 -1.87477 -0.816871 0
M  V30 7038 H 657.947 -2.0377 -3.29479 0
M  V30 7039 H 658.361 -4.24146 -3.08546 0
M  V30 7040 H 659.835 -3.23815 -4.47043 0
M  V30 7041 H 660.312 -1.58364 -4.09656 0
M  V30 7042 H 660.918 -2.92036 -3.09185 0
M  V30 7043 N 659.233 0.902656 -1.29189 0
M  V30 7044 C 660.165 2.01149 -1.09872 0
M  V30 7045 C 661.178 1.62732 -0.0471046 0
M  V30 7046 O 662.367 1.76107 -0.29132 0
M  V30 7047 C 659.467 3.32612 -0.649818 0
M  V30 7048 C 658.64 3.99574 -1.7793 0
M  V30 7049 C 657.699 5.09325 -1.32191 0
M  V30 7050 O 656.725 5.31919 -2.02611 0
M  V30 7051 N 657.927 5.80185 -0.191171 0
M  V30 7052 H 660.692 2.18276 -2.05368 0
M  V30 7053 H 658.253 1.07466 -1.2109 0
M  V30 7054 H 660.245 4.03375 -0.327199 0
M  V30 7055 H 658.815 3.11876 0.212597 0
M  V30 7056 H 658.035 3.22213 -2.27095 0
M  V30 7057 H 659.323 4.41056 -2.53668 0
M  V30 7058 H 658.721 5.64312 0.396016 0
M  V30 7059 H 657.278 6.5176 0.0721001 0
M  V30 7060 N 660.711 1.11618 1.11262 0
M  V30 7061 C 661.621 0.78898 2.20935 0
M  V30 7062 C 662.637 -0.21867 1.7262 0
M  V30 7063 O 663.813 -0.0543826 2.01327 0
M  V30 7064 C 660.878 0.239014 3.45875 0
M  V30 7065 C 659.939 1.3055 4.08968 0
M  V30 7066 C 659.172 0.781687 5.27944 0
M  V30 7067 O 659.395 -0.387605 5.69082 0
M  V30 7068 O 658.329 1.54734 5.81671 0
M  V30 7069 H 662.155 1.70477 2.51339 0
M  V30 7070 H 659.74 0.892203 1.19834 0
M  V30 7071 H 661.622 -0.0632312 4.21353 0
M  V30 7072 H 660.297 -0.649454 3.17118 0
M  V30 7073 H 659.204 1.66079 3.35214 0
M  V30 7074 H 660.537 2.16743 4.41909 0
M  V30 7075 N 662.189 -1.289 0.906776 0
M  V30 7076 C 663.605 -1.47733 0.603902 0
M  V30 7077 C 663.805 -1.82568 -0.852702 0
M  V30 7078 O 662.861 -1.92642 -1.63234 0
M  V30 7079 C 664.174 -2.58522 1.53581 0
M  V30 7080 C 665.722 -2.72394 1.54177 0
M  V30 7081 C 666.197 -3.86318 2.46013 0
M  V30 7082 N 667.688 -3.93661 2.441 0
M  V30 7083 C 668.423 -4.81177 3.11859 0
M  V30 7084 N 667.919 -5.73333 3.88923 0
M  V30 7085 N 669.712 -4.74728 3.00981 0
M  V30 7086 H 661.863 -1.04567 1.84877 0
M  V30 7087 H 664.126 -0.520118 0.792579 0
M  V30 7088 H 663.832 -2.39667 2.57396 0
M  V30 7089 H 663.706 -3.55475 1.26165 0
M  V30 7090 H 666.093 -2.90641 0.511034 0
M  V30 7091 H 666.174 -1.75993 1.85634 0
M  V30 7092 H 665.818 -3.68826 3.49185 0
M  V30 7093 H 665.748 -4.82102 2.11862 0
M  V30 7094 H 668.239 -3.27751 1.88115 0
M  V30 7095 H 668.552 -6.36923 4.37663 0
M  V30 7096 H 666.897 -5.73196 3.93029 0
M  V30 7097 H 670.088 -4.01722 2.40286 0
M  V30 7098 H 670.261 -5.42719 3.54062 0
M  V30 7099 N 663.667 -0.670007 -1.42649 0
M  V30 7100 C 664.897 -0.198252 -2.05647 0
M  V30 7101 C 665.305 1.14786 -1.50402 0
M  V30 7102 O 664.648 1.72316 -0.636634 0
M  V30 7103 C 664.71 -0.0507132 -3.59464 0
M  V30 7104 C 664.374 -1.32478 -4.37377 0
M  V30 7105 C 665.371 -2.2572 -4.68344 0
M  V30 7106 C 663.056 -1.57104 -4.77099 0
M  V30 7107 C 665.05 -3.4187 -5.37963 0
M  V30 7108 C 662.737 -2.73543 -5.46459 0
M  V30 7109 C 663.735 -3.65751 -5.76815 0
M  V30 7110 O 663.423 -4.80154 -6.44753 0
M  V30 7111 H 663.155 -0.0950721 -0.669281 0
M  V30 7112 H 665.709 -0.915745 -1.83857 0
M  V30 7113 H 663.939 0.722314 -3.79894 0
M  V30 7114 H 665.628 0.380552 -4.04112 0
M  V30 7115 H 666.394 -2.07943 -4.38161 0
M  V30 7116 H 662.273 -0.862069 -4.52868 0
M  V30 7117 H 665.817 -4.13861 -5.61574 0
M  V30 7118 H 661.714 -2.91248 -5.7606 0
M  V30 7119 H 662.482 -4.79637 -6.63243 0
M  V30 7120 N 665.145 1.52092 -0.413018 0
M  V30 7121 C 666.556 1.86617 0.0556967 0
M  V30 7122 C 666.907 1.33156 1.44097 0
M  V30 7123 O 666.032 0.672417 2.05688 0
M  V30 7124 C 666.627 3.38628 0.107844 0
M  V30 7125 C 665.186 3.72778 0.520904 0
M  V30 7126 C 664.333 2.75649 -0.302109 0
M  V30 7127 H 667.284 1.45663 -0.629919 0
M  V30 7128 H 667.305 3.69152 0.922324 0
M  V30 7129 H 666.817 3.77508 -0.900506 0
M  V30 7130 H 664.918 3.39478 1.53575 0
M  V30 7131 H 665.031 4.7838 0.262591 0
M  V30 7132 H 663.395 2.53603 0.236115 0
M  V30 7133 H 664.178 3.17369 -1.30888 0
M  V30 7134 N 666.623 0.143563 1.56945 0
M  V30 7135 C 667.57 -0.797433 2.16586 0
M  V30 7136 C 668.54 -1.24654 1.09775 0
M  V30 7137 O 669.725 -1.31968 1.37801 0
M  V30 7138 C 666.865 -2.03253 2.78895 0
M  V30 7139 C 665.978 -1.62954 4.00087 0
M  V30 7140 C 665.113 -2.81617 4.50406 0
M  V30 7141 C 664.152 -2.37675 5.64072 0
M  V30 7142 N 663.289 -3.49335 6.09023 0
M  V30 7143 H 668.129 -0.282023 2.96662 0
M  V30 7144 H 665.666 -0.127494 1.46546 0
M  V30 7145 H 667.624 -2.75653 3.13163 0
M  V30 7146 H 666.254 -2.52211 2.01469 0
M  V30 7147 H 665.306 -0.803322 3.71821 0
M  V30 7148 H 666.618 -1.26679 4.82446 0
M  V30 7149 H 665.772 -3.62212 4.86711 0
M  V30 7150 H 664.511 -3.21134 3.67048 0
M  V30 7151 H 663.516 -1.55519 5.27346 0
M  V30 7152 H 664.741 -1.99247 6.49213 0
M  V30 7153 H 662.687 -3.8848 5.28601 0
M  V30 7154 H 662.604 -3.17064 6.86299 0
M  V30 7155 H 663.872 -4.30297 6.49973 0
M  V30 7156 N 668.101 -1.57061 -0.130224 0
M  V30 7157 C 669.048 -1.99517 -1.16024 0
M  V30 7158 C 670.018 -0.865452 -1.41771 0
M  V30 7159 O 671.203 -1.12882 -1.53826 0
M  V30 7160 C 668.343 -2.3951 -2.48453 0
M  V30 7161 C 667.456 -3.65848 -2.29737 0
M  V30 7162 C 666.591 -3.9487 -3.55318 0
M  V30 7163 C 665.63 -5.14426 -3.31711 0
M  V30 7164 N 664.767 -5.39375 -4.49466 0
M  V30 7165 H 669.607 -2.87305 -0.791194 0
M  V30 7166 H 667.144 -1.42129 -0.379195 0
M  V30 7167 H 669.102 -2.60731 -3.25692 0
M  V30 7168 H 667.732 -1.54779 -2.83272 0
M  V30 7169 H 666.784 -3.52307 -1.4347 0
M  V30 7170 H 668.096 -4.53241 -2.08263 0
M  V30 7171 H 667.25 -4.16679 -4.4098 0
M  V30 7172 H 665.989 -3.05931 -3.79813 0
M  V30 7173 H 664.994 -4.92473 -2.44439 0
M  V30 7174 H 666.219 -6.04933 -3.08598 0
M  V30 7175 H 664.165 -4.53391 -4.74102 0
M  V30 7176 H 664.082 -6.21069 -4.31055 0
M  V30 7177 H 665.35 -5.65694 -5.36293 0
M  V30 7178 N 669.579 0.400081 -1.52437 0
M  V30 7179 C 670.804 1.17221 -1.71096 0
M  V30 7180 C 671.229 1.83269 -0.423565 0
M  V30 7181 O 670.587 1.70378 0.619751 0
M  V30 7182 C 670.635 2.20425 -2.85386 0
M  V30 7183 O 669.739 3.26769 -2.51586 0
M  V30 7184 H 669.08 0.341766 -0.569291 0
M  V30 7185 H 671.61 0.467772 -1.99181 0
M  V30 7186 H 671.62 2.64605 -3.10561 0
M  V30 7187 H 670.295 1.71737 -3.78786 0
M  V30 7188 H 668.872 2.87804 -2.37114 0
M  V30 7189 N 671.057 1.43213 0.657864 0
M  V30 7190 C 672.02 1.47687 1.75275 0
M  V30 7191 C 673.02 0.362179 1.56668 0
M  V30 7192 O 674.21 0.623734 1.62651 0
M  V30 7193 C 671.342 1.32497 3.14098 0
M  V30 7194 H 672.535 2.4519 1.7269 0
M  V30 7195 H 670.088 1.2991 0.869087 0
M  V30 7196 H 670.823 0.359831 3.22298 0
M  V30 7197 H 670.608 2.13299 3.29008 0
M  V30 7198 H 672.098 1.38549 3.93946 0
M  V30 7199 N 672.536 -0.895792 1.29666 0
M  V30 7200 C 673.486 -1.98736 1.1175 0
M  V30 7201 C 674.47 -1.6086 0.0357834 0
M  V30 7202 O 675.662 -1.75111 0.257926 0
M  V30 7203 C 672.791 -3.33845 0.800156 0
M  V30 7204 C 671.877 -3.78068 1.9216 0
M  V30 7205 N 672.268 -3.94489 3.16563 0
M  V30 7206 C 670.566 -4.07376 1.81552 0
M  V30 7207 C 671.267 -4.31819 3.89753 0
M  V30 7208 N 670.243 -4.41081 3.17724 0
M  V30 7209 H 674.045 -2.09507 2.06117 0
M  V30 7210 H 671.559 -1.08488 1.20848 0
M  V30 7211 H 673.556 -4.11757 0.652841 0
M  V30 7212 H 672.216 -3.24417 -0.135551 0
M  V30 7213 H 673.227 -3.79914 3.51974 0
M  V30 7214 H 669.904 -4.06483 0.952787 0
M  V30 7215 H 671.294 -4.52337 4.96831 0
M  V30 7216 N 674.014 -1.12206 -1.10668 0
M  V30 7217 C 675.26 -0.887096 -1.83036 0
M  V30 7218 C 675.615 0.580887 -1.83422 0
M  V30 7219 O 674.908 1.42379 -1.28213 0
M  V30 7220 C 675.102 -1.39276 -3.29146 0
M  V30 7221 C 674.931 -2.90837 -3.42992 0
M  V30 7222 C 673.701 -3.59047 -3.55546 0
M  V30 7223 C 675.899 -3.8885 -3.36601 0
M  V30 7224 N 673.881 -4.98747 -3.57945 0
M  V30 7225 C 675.252 -5.14666 -3.45716 0
M  V30 7226 C 677.307 -3.81296 -3.20184 0
M  V30 7227 C 676.01 -6.33814 -3.40106 0
M  V30 7228 C 678.036 -4.99965 -3.15895 0
M  V30 7229 C 677.398 -6.24637 -3.25589 0
M  V30 7230 H 673.497 -0.377857 -0.684652 0
M  V30 7231 H 676.081 -1.42791 -1.32358 0
M  V30 7232 H 674.252 -0.879026 -3.78322 0
M  V30 7233 H 675.984 -1.10011 -3.89461 0
M  V30 7234 H 672.739 -3.09533 -3.5845 0
M  V30 7235 H 673.163 -5.71606 -3.62762 0
M  V30 7236 H 677.805 -2.85806 -3.11569 0
M  V30 7237 H 675.523 -7.29574 -3.47487 0
M  V30 7238 H 679.109 -4.95847 -3.04347 0
M  V30 7239 H 677.989 -7.14921 -3.22269 0
M  V30 7240 N 675.492 1.28418 -0.913599 0
M  V30 7241 C 676.722 1.98817 -0.56172 0
M  V30 7242 C 677.13 1.68457 0.861321 0
M  V30 7243 O 676.473 0.933653 1.58204 0
M  V30 7244 C 676.535 3.52801 -0.690785 0
M  V30 7245 C 676.199 4.0675 -2.08334 0
M  V30 7246 C 677.196 4.20597 -3.05604 0
M  V30 7247 C 674.881 4.41445 -2.39648 0
M  V30 7248 C 676.875 4.68392 -4.32305 0
M  V30 7249 C 674.562 4.88934 -3.66588 0
M  V30 7250 C 675.56 5.02364 -4.6273 0
M  V30 7251 O 675.248 5.48817 -5.87414 0
M  V30 7252 H 674.98 0.641608 -0.212874 0
M  V30 7253 H 677.534 1.64584 -1.22887 0
M  V30 7254 H 675.764 3.86686 0.0334336 0
M  V30 7255 H 677.453 4.04422 -0.346031 0
M  V30 7256 H 678.219 3.94067 -2.8273 0
M  V30 7257 H 674.098 4.30242 -1.65567 0
M  V30 7258 H 677.642 4.7879 -5.07352 0
M  V30 7259 H 673.539 5.14904 -3.89287 0
M  V30 7260 H 674.307 5.67103 -5.90201 0
M  V30 7261 N 676.97 0.677563 1.42291 0
M  V30 7262 C 677.917 0.000947061 2.308 0
M  V30 7263 C 678.887 -0.789889 1.46116 0
M  V30 7264 O 680.072 -0.761578 1.74942 0
M  V30 7265 C 677.212 -0.942387 3.31984 0
M  V30 7266 C 676.325 -0.14508 4.31756 0
M  V30 7267 C 675.46 -1.08442 5.20013 0
M  V30 7268 C 674.499 -0.278958 6.11464 0
M  V30 7269 N 673.636 -1.17115 6.92263 0
M  V30 7270 H 678.476 0.761521 2.88106 0
M  V30 7271 H 676.013 0.38727 1.41911 0
M  V30 7272 H 677.971 -1.50317 3.89179 0
M  V30 7273 H 676.601 -1.66956 2.76271 0
M  V30 7274 H 675.653 0.532368 3.76656 0
M  V30 7275 H 676.965 0.48015 4.96484 0
M  V30 7276 H 676.119 -1.71504 5.81955 0
M  V30 7277 H 674.858 -1.74353 4.55469 0
M  V30 7278 H 673.863 0.364856 5.48588 0
M  V30 7279 H 675.088 0.376099 6.78058 0
M  V30 7280 H 673.034 -1.81661 6.30345 0
M  V30 7281 H 672.951 -0.601063 7.53607 0
M  V30 7282 H 674.219 -1.78915 7.58689 0
M  V30 7283 N 678.448 -1.51871 0.421078 0
M  V30 7284 C 679.395 -2.27334 -0.398508 0
M  V30 7285 C 680.365 -1.30241 -1.03085 0
M  V30 7286 O 681.55 -1.59121 -1.05285 0
M  V30 7287 C 678.69 -3.10664 -1.50272 0
M  V30 7288 C 677.803 -4.2273 -0.890122 0
M  V30 7289 C 676.938 -4.93399 -1.96803 0
M  V30 7290 C 675.977 -5.97409 -1.333 0
M  V30 7291 N 675.114 -6.61548 -2.35156 0
M  V30 7292 H 679.954 -2.96938 0.251411 0
M  V30 7293 H 677.491 -1.46472 0.135825 0
M  V30 7294 H 679.449 -3.57292 -2.15403 0
M  V30 7295 H 678.079 -2.43207 -2.1225 0
M  V30 7296 H 677.131 -3.80186 -0.127537 0
M  V30 7297 H 678.443 -4.97302 -0.386349 0
M  V30 7298 H 677.597 -5.43491 -2.69633 0
M  V30 7299 H 676.336 -4.18421 -2.50549 0
M  V30 7300 H 675.341 -5.46624 -0.59008 0
M  V30 7301 H 676.566 -6.74335 -0.803076 0
M  V30 7302 H 674.512 -5.89394 -2.88012 0
M  V30 7303 H 674.429 -7.31832 -1.89624 0
M  V30 7304 H 675.697 -7.16276 -3.0752 0
M  V30 7305 N 679.926 -0.151884 -1.56866 0
M  V30 7306 C 680.856 0.781943 -2.20018 0
M  V30 7307 C 681.837 1.25347 -1.14987 0
M  V30 7308 O 683.022 1.31015 -1.43348 0
M  V30 7309 C 680.152 2.01928 -2.82564 0
M  V30 7310 C 679.106 1.68434 -3.93464 0
M  V30 7311 C 678.432 2.99472 -4.42968 0
M  V30 7312 C 679.732 0.927244 -5.14003 0
M  V30 7313 H 681.426 0.255607 -2.98307 0
M  V30 7314 H 678.972 0.121502 -1.43486 0
M  V30 7315 H 680.925 2.67741 -3.25411 0
M  V30 7316 H 679.649 2.56943 -2.01614 0
M  V30 7317 H 678.308 1.04998 -3.51242 0
M  V30 7318 H 677.956 3.52488 -3.58834 0
M  V30 7319 H 677.656 2.77823 -5.17772 0
M  V30 7320 H 679.18 3.66348 -4.88489 0
M  V30 7321 H 680.594 1.48756 -5.53665 0
M  V30 7322 H 678.991 0.810513 -5.94601 0
M  V30 7323 H 680.061 -0.0801163 -4.84834 0
M  V30 7324 N 681.404 1.57128 0.121893 0
M  V30 7325 C 682.367 1.99197 1.13372 0
M  V30 7326 C 683.367 0.881728 1.3447 0
M  V30 7327 O 684.557 1.14783 1.31036 0
M  V30 7328 C 681.689 2.32963 2.4888 0
M  V30 7329 H 682.882 2.89788 0.772204 0
M  V30 7330 H 680.435 1.51952 0.366093 0
M  V30 7331 H 681.17 1.45243 2.89957 0
M  V30 7332 H 680.955 3.13934 2.34921 0
M  V30 7333 H 682.445 2.66261 3.21706 0
M  V30 7334 N 682.882 -0.391992 1.52647 0
M  V30 7335 C 683.792 -1.503 1.80131 0
M  V30 7336 C 684.808 -1.59825 0.687882 0
M  V30 7337 O 685.984 -1.76218 0.975149 0
M  V30 7338 C 683.049 -2.85863 1.96171 0
M  V30 7339 C 682.11 -2.86084 3.20085 0
M  V30 7340 C 681.343 -4.15181 3.35351 0
M  V30 7341 O 681.566 -5.09981 2.55491 0
M  V30 7342 O 680.5 -4.22603 4.28591 0
M  V30 7343 H 684.326 -1.30007 2.74466 0
M  V30 7344 H 681.911 -0.579539 1.37701 0
M  V30 7345 H 683.793 -3.66236 2.08445 0
M  V30 7346 H 682.468 -3.06189 1.05025 0
M  V30 7347 H 681.375 -2.04504 3.13256 0
M  V30 7348 H 682.708 -2.7071 4.11068 0
M  V30 7349 N 684.36 -1.4356 -0.65026 0
M  V30 7350 C 685.588 -1.48779 -1.43779 0
M  V30 7351 C 686.003 -0.106593 -1.88499 0
M  V30 7352 O 685.36 0.883766 -1.59674 0
M  V30 7353 C 685.411 -2.43618 -2.67081 0
M  V30 7354 O 685.132 -3.76367 -2.24231 0
M  V30 7355 C 686.633 -2.5811 -3.60409 0
M  V30 7356 H 683.853 -0.50521 -0.441593 0
M  V30 7357 H 686.397 -1.88332 -0.796941 0
M  V30 7358 H 684.552 -2.07253 -3.273 0
M  V30 7359 H 684.966 -4.27394 -3.0403 0
M  V30 7360 H 686.44 -3.28539 -4.43583 0
M  V30 7361 H 686.917 -1.627 -4.07953 0
M  V30 7362 H 687.523 -2.95298 -3.0607 0
M  V30 7363 N 685.838 0.888903 -1.30139 0
M  V30 7364 C 686.77 1.99972 -1.11999 0
M  V30 7365 C 687.783 1.62673 -0.0643619 0
M  V30 7366 O 688.972 1.75788 -0.309983 0
M  V30 7367 C 686.072 3.31904 -0.685059 0
M  V30 7368 C 685.245 3.97665 -1.82158 0
M  V30 7369 C 684.304 5.07894 -1.37585 0
M  V30 7370 O 683.33 5.2974 -2.08241 0
M  V30 7371 N 684.532 5.7995 -0.252697 0
M  V30 7372 H 687.297 2.16085 -2.07671 0
M  V30 7373 H 684.858 1.06175 -1.22223 0
M  V30 7374 H 686.85 4.03005 -0.369964 0
M  V30 7375 H 685.42 3.12084 0.179507 0
M  V30 7376 H 684.64 3.19787 -2.305 0
M  V30 7377 H 685.928 4.3834 -2.58332 0
M  V30 7378 H 685.326 5.647 0.336141 0
M  V30 7379 H 683.883 6.518 0.00296813 0
M  V30 7380 N 687.317 1.12792 1.10072 0
M  V30 7381 C 688.563 0.886857 1.82381 0
M  V30 7382 C 688.896 -0.58576 1.85155 0
M  V30 7383 O 688.171 -1.43317 1.31493 0
M  V30 7384 C 688.454 1.46703 3.28862 0
M  V30 7385 C 688.307 3.00829 3.34398 0
M  V30 7386 C 689.626 1.12971 4.25353 0
M  V30 7387 H 686.745 0.32362 0.662148 0
M  V30 7388 H 689.387 1.39513 1.28982 0
M  V30 7389 H 687.537 1.03476 3.74466 0
M  V30 7390 H 689.209 3.52764 2.97247 0
M  V30 7391 H 687.452 3.36164 2.74183 0
M  V30 7392 H 688.123 3.36519 4.3756 0
M  V30 7393 H 690.599 1.50313 3.88001 0
M  V30 7394 H 689.475 1.56223 5.26199 0
M  V30 7395 H 689.736 0.0424452 4.4208 0
M  V30 7396 N 688.795 -1.27931 0.920396 0
M  V30 7397 C 690.044 -1.93975 0.552867 0
M  V30 7398 C 690.357 -1.73193 -0.909035 0
M  V30 7399 O 691.563 -2.33515 -1.38502 0
M  V30 7400 C 690.019 -3.47463 0.937947 0
M  V30 7401 C 689.627 -3.77013 2.42003 0
M  V30 7402 C 691.371 -4.19628 0.64132 0
M  V30 7403 C 689.278 -5.23841 2.74489 0
M  V30 7404 H 688.208 -0.726146 0.203046 0
M  V30 7405 H 690.859 -1.45339 1.12022 0
M  V30 7406 H 689.241 -3.94867 0.299317 0
M  V30 7407 H 690.415 -3.40393 3.10595 0
M  V30 7408 H 688.73 -3.18035 2.6878 0
M  V30 7409 H 691.327 -5.27729 0.860622 0
M  V30 7410 H 691.67 -4.14164 -0.421168 0
M  V30 7411 H 692.203 -3.78022 1.23872 0
M  V30 7412 H 688.942 -5.34388 3.79618 0
M  V30 7413 H 688.462 -5.61634 2.1054 0
M  V30 7414 H 690.141 -5.91647 2.61845 0
M  V30 7415 N 690.273 -0.685099 -1.4193 0
M  V30 7416 C 691.183 -0.013404 -2.34596 0
M  V30 7417 C 692.199 0.777589 -1.55658 0
M  V30 7418 O 693.375 0.717553 -1.88184 0
M  V30 7419 C 690.44 0.919031 -3.34297 0
M  V30 7420 C 689.501 0.121417 -4.29128 0
M  V30 7421 C 688.734 1.00944 -5.24067 0
M  V30 7422 O 688.957 2.24898 -5.24192 0
M  V30 7423 O 687.891 0.464724 -6.00103 0
M  V30 7424 H 691.717 -0.776978 -2.93593 0
M  V30 7425 H 689.302 -0.445379 -1.42607 0
M  V30 7426 H 691.184 1.45402 -3.9552 0
M  V30 7427 H 689.859 1.66228 -2.77759 0
M  V30 7428 H 688.766 -0.45792 -3.71287 0
M  V30 7429 H 690.099 -0.582937 -4.88736 0
M  V30 7430 O 691.79 1.51061 -0.571204 0
M  V30 7431 H 692.481 1.93564 -0.0726397 0
M  V30 END ATOM
M  V30 BEGIN BOND
M  V30 END BOND
M  V30 END CTAB
M  END
$$$$
