drugbank_target|Q9Y3R4 Sialidase-2 (DB00198; DB00558; DB03991; DB07960)
 OpenBabel12092120283D

  0  0  0     0  0            999 V3000
M  V30 BEGIN CTAB
M  V30 COUNTS 5873 5959 0 0 0
M  V30 BEGIN ATOM
M  V30 1 H -0.908 1.98254 -0.117106 0
M  V30 2 N 0 1.576 0 0
M  V30 3 C 0.933 2.03868 1.02534 0
M  V30 4 C 1.911 0.928543 1.3348 0
M  V30 5 O 3.095 1.19667 1.45644 0
M  V30 6 C 0.222 2.43627 2.35294 0
M  V30 7 C -0.732 3.65373 2.2001 0
M  V30 8 S 0.101 5.13292 1.52614 0
M  V30 9 C 1.257 5.56322 2.86805 0
M  V30 10 H 1.49 2.90518 0.631377 0
M  V30 11 H -0.977 1.52953 0.210867 0
M  V30 12 H 0.981 2.67203 3.11629 0
M  V30 13 H -0.358 1.57376 2.7183 0
M  V30 14 H -1.165 3.90944 3.18086 0
M  V30 15 H -1.563 3.418 1.51819 0
M  V30 16 H 0.729 5.58782 3.83104 0
M  V30 17 H 1.672 6.56266 2.65933 0
M  V30 18 H 2.08 4.83886 2.90714 0
M  V30 19 N 1.4781 -0.272755 1.55222 0
M  V30 20 C 2.4411 -1.32041 1.87344 0
M  V30 21 C 3.4411 -1.42342 0.74803 0
M  V30 22 O 4.6311 -1.41488 1.0162 0
M  V30 23 C 1.7631 -2.70173 2.07893 0
M  V30 24 H 2.9561 -1.04789 2.80997 0
M  V30 25 H 0.5091 -0.51083 1.47717 0
M  V30 26 H 1.2441 -3.02605 1.16622 0
M  V30 27 H 1.0291 -2.64082 2.89833 0
M  V30 28 H 2.5191 -3.45869 2.34017 0
M  V30 29 N 2.9562 -1.48159 -0.537278 0
M  V30 30 C 4.1812 -1.59707 -1.32319 0
M  V30 31 C 4.6062 -0.254859 -1.86365 0
M  V30 32 O 3.9642 0.772378 -1.64024 0
M  V30 33 C 4.0122 -2.6412 -2.45505 0
M  V30 34 O 3.1162 -2.20774 -3.48328 0
M  V30 35 H 2.4572 -0.535791 -0.392204 0
M  V30 36 H 4.9872 -1.94092 -0.647268 0
M  V30 37 H 4.9972 -2.85166 -2.91795 0
M  V30 38 H 3.6722 -3.61567 -2.05528 0
M  V30 39 H 2.2492 -2.09911 -3.08207 0
M  V30 40 N 4.4343 0.785586 -1.36625 0
M  V30 41 C 5.3643 1.91259 -1.33949 0
M  V30 42 C 6.3453 1.68795 -0.210325 0
M  V30 43 O 7.5303 1.89854 -0.408561 0
M  V30 44 C 4.6603 3.28339 -1.13186 0
M  V30 45 C 3.6143 3.65335 -2.22967 0
M  V30 46 C 2.9403 5.00806 -1.87342 0
M  V30 47 C 4.2403 3.7352 -3.65075 0
M  V30 48 H 5.9343 1.93755 -2.28253 0
M  V30 49 H 3.4803 0.930788 -1.09874 0
M  V30 50 H 5.4333 4.06804 -1.09948 0
M  V30 51 H 4.1573 3.2624 -0.153332 0
M  V30 52 H 2.8163 2.89169 -2.25337 0
M  V30 53 H 2.4643 4.95233 -0.880545 0
M  V30 54 H 2.1643 5.26529 -2.60846 0
M  V30 55 H 3.6883 5.81687 -1.85667 0
M  V30 56 H 5.1023 4.42168 -3.64911 0
M  V30 57 H 3.4993 4.10731 -4.37516 0
M  V30 58 H 4.5693 2.74527 -3.99703 0
M  V30 59 N 5.9124 1.20967 1.01018 0
M  V30 60 C 7.3234 1.02319 1.56165 0
M  V30 61 C 7.6744 -0.418546 1.91684 0
M  V30 62 O 6.7994 -1.30096 1.72928 0
M  V30 63 C 7.3944 1.85109 2.8376 0
M  V30 64 C 5.9534 1.70809 3.35412 0
M  V30 65 C 5.1004 1.82643 2.08655 0
M  V30 66 H 8.0514 1.35065 0.833255 0
M  V30 67 H 8.0724 1.35827 3.55431 0
M  V30 68 H 7.5844 2.90035 2.57878 0
M  V30 69 H 5.6854 0.685464 3.66241 0
M  V30 70 H 5.7984 2.52467 4.07182 0
M  V30 71 H 4.1624 1.25896 2.21409 0
M  V30 72 H 4.9454 2.89066 1.85191 0
M  V30 73 N 7.3905 -1.2043 1.01659 0
M  V30 74 C 8.6365 -1.90079 0.706963 0
M  V30 75 C 8.9695 -1.78648 -0.761474 0
M  V30 76 O 8.2445 -1.17069 -1.55323 0
M  V30 77 C 8.5275 -3.41469 1.14327 0
M  V30 78 C 8.3805 -3.61833 2.67201 0
M  V30 79 C 9.6995 -4.34261 0.714529 0
M  V30 80 H 6.8185 -0.690254 0.2583 0
M  V30 81 H 9.4605 -1.41826 1.26433 0
M  V30 82 H 7.6105 -3.82696 0.669056 0
M  V30 83 H 9.2825 -3.2986 3.22475 0
M  V30 84 H 7.5255 -3.05304 3.08175 0
M  V30 85 H 8.1965 -4.67955 2.92783 0
M  V30 86 H 10.6725 -4.00682 1.12221 0
M  V30 87 H 9.5485 -5.38806 1.04784 0
M  V30 88 H 9.8095 -4.40431 -0.383799 0
M  V30 89 N 8.8686 -0.792821 -1.36206 0
M  V30 90 C 9.7986 -0.207853 -2.32573 0
M  V30 91 C 10.7796 0.659055 -1.56813 0
M  V30 92 O 11.9646 0.592176 -1.84951 0
M  V30 93 C 9.0946 0.655449 -3.41059 0
M  V30 94 C 8.0486 -0.111842 -4.27854 0
M  V30 95 C 7.3746 0.872274 -5.27537 0
M  V30 96 C 8.6746 -1.30299 -5.05786 0
M  V30 97 H 10.3686 -1.01294 -2.81744 0
M  V30 98 H 7.9146 -0.48854 -1.3546 0
M  V30 99 H 9.8676 1.07464 -4.07467 0
M  V30 100 H 8.5916 1.49328 -2.90463 0
M  V30 101 H 7.2506 -0.512053 -3.63006 0
M  V30 102 H 6.8986 1.70523 -4.73214 0
M  V30 103 H 6.5986 0.363291 -5.86476 0
M  V30 104 H 8.1226 1.28996 -5.96818 0
M  V30 105 H 9.5366 -0.959379 -5.65216 0
M  V30 106 H 7.9336 -1.7455 -5.74154 0
M  V30 107 H 9.0036 -2.09663 -4.37229 0
M  V30 108 N 10.3467 1.47872 -0.545128 0
M  V30 109 C 11.2787 2.27869 0.246621 0
M  V30 110 C 12.2917 1.36282 0.890561 0
M  V30 111 O 13.4807 1.61207 0.766449 0
M  V30 112 C 10.5807 3.10159 1.36582 0
M  V30 113 C 9.7537 4.29627 0.820954 0
M  V30 114 C 8.8127 4.93607 1.82314 0
M  V30 115 O 7.8387 5.52366 1.37406 0
M  V30 116 N 9.0407 4.87211 3.15603 0
M  V30 117 H 11.8057 2.96459 -0.439539 0
M  V30 118 H 9.3667 1.57367 -0.380421 0
M  V30 119 H 11.3587 3.49829 2.03474 0
M  V30 120 H 9.9287 2.43891 1.9554 0
M  V30 121 H 9.1487 3.94192 -0.0244032 0
M  V30 122 H 10.4367 5.06928 0.436063 0
M  V30 123 H 9.8347 4.40651 3.54744 0
M  V30 124 H 8.3917 5.30937 3.78087 0
M  V30 125 N 11.8248 0.280983 1.55075 0
M  V30 126 C 12.7718 -0.603937 2.22758 0
M  V30 127 C 13.7418 -1.1452 1.20309 0
M  V30 128 O 14.9268 -1.19343 1.48869 0
M  V30 129 C 12.0668 -1.77947 2.95684 0
M  V30 130 C 11.1798 -1.2715 4.12864 0
M  V30 131 C 10.3148 -2.4093 4.7342 0
M  V30 132 C 9.3538 -1.87165 5.82783 0
M  V30 133 N 8.4908 -2.94441 6.37377 0
M  V30 134 H 13.3308 -0.020124 2.97993 0
M  V30 135 H 10.8678 0.00183425 1.471 0
M  V30 136 H 12.8258 -2.47055 3.36184 0
M  V30 137 H 11.4558 -2.33522 2.22861 0
M  V30 138 H 10.5078 -0.473331 3.77444 0
M  V30 139 H 11.8198 -0.837751 4.91715 0
M  V30 140 H 10.9738 -3.18021 5.1667 0
M  V30 141 H 9.7128 -2.87623 3.93859 0
M  V30 142 H 8.7178 -1.08556 5.38976 0
M  V30 143 H 9.9428 -1.41401 6.64216 0
M  V30 144 H 7.8888 -3.40505 5.60707 0
M  V30 145 H 7.8058 -2.55501 7.11516 0
M  V30 146 H 9.0738 -3.71489 6.85285 0
M  V30 147 N 13.3029 -1.57598 0.00835791 0
M  V30 148 C 14.2129 -2.12385 -0.996487 0
M  V30 149 C 15.2289 -1.07108 -1.37127 0
M  V30 150 O 16.4049 -1.39055 -1.4569 0
M  V30 151 C 13.4699 -2.62314 -2.26699 0
M  V30 152 C 12.5309 -3.82225 -1.95456 0
M  V30 153 C 11.7639 -4.29763 -3.16449 0
M  V30 154 O 11.9869 -3.76584 -4.28416 0
M  V30 155 O 10.9209 -5.21832 -2.99958 0
M  V30 156 H 14.7469 -2.98479 -0.560725 0
M  V30 157 H 12.3319 -1.47903 -0.210987 0
M  V30 158 H 14.2139 -2.94589 -3.01322 0
M  V30 159 H 12.8889 -1.79313 -2.69497 0
M  V30 160 H 11.7959 -3.54909 -1.18282 0
M  V30 161 H 13.1289 -4.66324 -1.57489 0
M  V30 162 N 14.781 0.264519 -1.55364 0
M  V30 163 C 16.006 1.01726 -1.80739 0
M  V30 164 C 16.431 1.78836 -0.583044 0
M  V30 165 O 15.789 1.75167 0.467566 0
M  V30 166 C 15.837 1.94482 -3.03659 0
M  V30 167 O 14.941 3.03386 -2.7934 0
M  V30 168 H 14.282 0.290395 -0.597132 0
M  V30 169 H 16.812 0.290854 -2.02522 0
M  V30 170 H 16.822 2.36278 -3.32621 0
M  V30 171 H 15.497 1.37772 -3.92418 0
M  V30 172 H 14.074 2.65844 -2.61498 0
M  V30 173 N 16.2591 1.48442 0.529413 0
M  V30 174 C 17.5051 1.5672 1.28711 0
M  V30 175 C 17.8381 0.2406 1.92704 0
M  V30 176 O 17.1131 -0.753454 1.79313 0
M  V30 177 C 17.3961 2.70587 2.37603 0
M  V30 178 C 17.2491 4.12953 1.78297 0
M  V30 179 C 18.5681 2.80212 3.39366 0
M  V30 180 H 15.6871 0.570474 0.466613 0
M  V30 181 H 18.3291 1.80617 0.589706 0
M  V30 182 H 16.4791 2.50342 2.97088 0
M  V30 183 H 18.1511 4.44639 1.22858 0
M  V30 184 H 16.3941 4.19927 1.0883 0
M  V30 185 H 17.0651 4.88448 2.57144 0
M  V30 186 H 19.5411 2.98553 2.89836 0
M  V30 187 H 18.4171 3.61611 4.12951 0
M  V30 188 H 18.6781 1.88393 3.99951 0
M  V30 189 N 17.7372 -0.778329 1.37039 0
M  V30 190 C 18.9842 -1.53665 1.31884 0
M  V30 191 C 19.3122 -1.9425 -0.0986303 0
M  V30 192 O 18.5672 -1.63832 -1.07041 0
M  V30 193 C 18.8662 -2.81845 2.19768 0
M  V30 194 C 18.5322 -2.60345 3.68146 0
M  V30 195 C 17.1942 -2.5419 4.08584 0
M  V30 196 C 19.5462 -2.40923 4.62175 0
M  V30 197 C 16.8742 -2.26594 5.41177 0
M  V30 198 C 19.2262 -2.14852 5.94997 0
M  V30 199 C 17.8902 -2.07137 6.34547 0
M  V30 200 H 17.1602 -0.562299 0.482598 0
M  V30 201 H 19.8072 -0.897069 1.69189 0
M  V30 202 H 18.1122 -3.50328 1.75436 0
M  V30 203 H 19.8092 -3.39692 2.13097 0
M  V30 204 H 16.3992 -2.65996 3.36072 0
M  V30 205 H 20.5832 -2.44673 4.31797 0
M  V30 206 H 15.8392 -2.19111 5.70789 0
M  V30 207 H 20.0132 -1.98822 6.67415 0
M  V30 208 H 17.6402 -1.85518 7.37216 0
M  V30 209 N 19.2153 -1.21501 -1.00376 0
M  V30 210 C 20.1473 -0.933174 -2.09343 0
M  V30 211 C 21.1603 0.0840896 -1.62583 0
M  V30 212 O 22.3493 -0.148563 -1.77881 0
M  V30 213 C 19.4493 -0.379869 -3.36764 0
M  V30 214 C 18.6223 -1.45176 -4.12605 0
M  V30 215 C 17.6813 -0.907476 -5.18316 0
M  V30 216 O 16.7073 -1.5912 -5.46507 0
M  V30 217 N 17.9093 0.276649 -5.7984 0
M  V30 218 H 20.6743 -1.87124 -2.34104 0
M  V30 219 H 18.2353 -1.12043 -1.16867 0
M  V30 220 H 20.2273 -0.00131488 -4.047 0
M  V30 221 H 18.7973 0.463048 -3.09151 0
M  V30 222 H 18.0173 -2.00411 -3.39454 0
M  V30 223 H 19.3053 -2.17328 -4.6005 0
M  V30 224 H 18.7033 0.849147 -5.59291 0
M  V30 225 H 17.2603 0.596702 -6.49063 0
M  V30 226 N 20.6934 1.19889 -1.02296 0
M  V30 227 C 21.9184 1.9393 -0.735237 0
M  V30 228 C 22.3434 1.74639 0.698782 0
M  V30 229 O 21.7014 1.04481 1.48167 0
M  V30 230 C 21.7494 3.43916 -1.08417 0
M  V30 231 O 20.8534 4.11917 -0.199446 0
M  V30 232 H 20.1944 0.605645 -0.272196 0
M  V30 233 H 22.7244 1.52137 -1.36804 0
M  V30 234 H 22.7344 3.9456 -1.03856 0
M  V30 235 H 21.4094 3.5728 -2.12894 0
M  V30 236 H 19.9864 3.71666 -0.303136 0
M  V30 237 N 22.1715 0.800033 1.35784 0
M  V30 238 C 23.4195 0.376597 1.9856 0
M  V30 239 C 23.7405 -1.05812 1.63795 0
M  V30 240 O 23.0105 -1.73103 0.917171 0
M  V30 241 H 21.5905 0.136261 0.734467 0
M  V30 242 H 24.2525 1.02442 1.65806 0
M  V30 243 H 23.3485 0.477002 3.08433 0
M  V30 244 N 23.6496 -1.47581 0.552962 0
M  V30 245 C 24.6126 -2.28439 -0.186605 0
M  V30 246 C 25.6126 -1.36706 -0.84665 0
M  V30 247 O 26.8026 -1.59378 -0.703164 0
M  V30 248 C 23.9346 -3.16264 -1.2724 0
M  V30 249 H 25.1276 -2.95294 0.523609 0
M  V30 250 H 22.6806 -1.532 0.309745 0
M  V30 251 H 23.4156 -2.54091 -2.01514 0
M  V30 252 H 23.2006 -3.83769 -0.803968 0
M  V30 253 H 24.6906 -3.77198 -1.79196 0
M  V30 254 N 25.1277 -0.289203 -1.54924 0
M  V30 255 C 26.0777 0.606939 -2.19773 0
M  V30 256 C 27.0617 1.10783 -1.16687 0
M  V30 257 O 28.2537 1.05057 -1.4245 0
M  V30 258 C 25.3827 1.78398 -2.93307 0
M  V30 259 C 24.4687 1.29961 -4.03697 0
M  V30 260 N 24.8597 0.532377 -5.0299 0
M  V30 261 C 23.1577 1.58136 -4.17024 0
M  V30 262 C 23.8587 0.275912 -5.81045 0
M  V30 263 N 22.8347 0.852365 -5.36876 0
M  V30 264 H 26.6367 0.0130779 -2.93897 0
M  V30 265 H 24.1507 -0.09341 -1.62131 0
M  V30 266 H 26.1477 2.43741 -3.38225 0
M  V30 267 H 24.8077 2.38166 -2.20697 0
M  V30 268 H 25.8187 0.17838 -5.17593 0
M  V30 269 H 22.4957 2.18738 -3.55612 0
M  V30 270 H 23.8857 -0.339502 -6.71042 0
M  V30 271 N 26.6058 1.57591 -0.0167156 0
M  V30 272 C 27.5688 2.08393 0.954204 0
M  V30 273 C 28.5688 0.996531 1.26198 0
M  V30 274 O 29.7588 1.25858 1.20438 0
M  V30 275 C 26.8908 2.5394 2.27436 0
M  V30 276 H 28.0838 2.95455 0.514451 0
M  V30 277 H 25.6368 1.54582 0.231089 0
M  V30 278 H 26.3718 1.70171 2.76066 0
M  V30 279 H 26.1568 3.33371 2.06412 0
M  V30 280 H 27.6468 2.93512 2.97053 0
M  V30 281 N 28.0839 -0.256276 1.55502 0
M  V30 282 C 29.3139 -1.00196 1.80677 0
M  V30 283 C 29.7219 -1.79805 0.588797 0
M  V30 284 O 29.0649 -1.78055 -0.451883 0
M  V30 285 C 29.1269 -1.99515 2.99055 0
M  V30 286 C 28.7909 -1.38688 4.35448 0
M  V30 287 C 29.7879 -0.794079 5.138 0
M  V30 288 C 27.4729 -1.40906 4.82132 0
M  V30 289 C 29.4669 -0.231562 6.36979 0
M  V30 290 C 27.1539 -0.842684 6.05262 0
M  V30 291 C 28.1519 -0.254953 6.82524 0
M  V30 292 O 27.8399 0.3027 8.0333 0
M  V30 293 H 27.5719 -0.300919 0.60533 0
M  V30 294 H 30.1259 -0.287307 2.03381 0
M  V30 295 H 28.3559 -2.74785 2.72084 0
M  V30 296 H 30.0449 -2.60349 3.11405 0
M  V30 297 H 30.8109 -0.769519 4.78856 0
M  V30 298 H 26.6899 -1.85591 4.21992 0
M  V30 299 H 30.2339 0.227816 6.97228 0
M  V30 300 H 26.1309 -0.86454 6.39684 0
M  V30 301 H 26.8989 0.193662 8.18271 0
M  V30 302 N 29.562 -1.4872 -0.521534 0
M  V30 303 C 30.978 -1.35028 -0.850855 0
M  V30 304 C 31.178 -0.367712 -1.98116 0
M  V30 305 O 30.234 0.208037 -2.51642 0
M  V30 306 C 31.547 -2.75263 -1.21041 0
M  V30 307 C 33.095 -2.83813 -1.31981 0
M  V30 308 C 33.57 -4.24769 -1.71276 0
M  V30 309 N 35.061 -4.27482 -1.78363 0
M  V30 310 C 35.796 -5.33494 -2.1017 0
M  V30 311 N 35.292 -6.49775 -2.40343 0
M  V30 312 N 37.085 -5.20894 -2.11248 0
M  V30 313 H 29.236 -2.11214 0.22413 0
M  V30 314 H 31.499 -0.947252 0.0376439 0
M  V30 315 H 31.205 -3.48765 -0.453415 0
M  V30 316 H 31.079 -3.09327 -2.15863 0
M  V30 317 H 33.466 -2.10561 -2.06756 0
M  V30 318 H 33.547 -2.53358 -0.352596 0
M  V30 319 H 33.191 -4.9854 -0.970588 0
M  V30 320 H 33.121 -4.52673 -2.69062 0
M  V30 321 H 35.612 -3.43611 -1.57288 0
M  V30 322 H 35.925 -7.26402 -2.63743 0
M  V30 323 H 34.27 -6.53035 -2.37844 0
M  V30 324 H 37.461 -4.29065 -1.87139 0
M  V30 325 H 37.634 -6.03612 -2.35704 0
M  V30 326 N 31.0401 0.771051 -1.3745 0
M  V30 327 C 32.2891 1.52491 -1.3202 0
M  V30 328 C 32.6021 1.9538 0.0927347 0
M  V30 329 O 33.8081 2.70159 0.269503 0
M  V30 330 C 32.2641 2.75366 -2.31736 0
M  V30 331 C 31.8721 2.39573 -3.78562 0
M  V30 332 C 33.6161 3.53307 -2.35318 0
M  V30 333 C 31.5231 3.58954 -4.70007 0
M  V30 334 H 30.4531 0.572506 -0.490666 0
M  V30 335 H 33.1041 0.844474 -1.62914 0
M  V30 336 H 31.4861 3.45303 -1.93861 0
M  V30 337 H 32.6601 1.77415 -4.25277 0
M  V30 338 H 30.9751 1.74805 -3.77932 0
M  V30 339 H 33.5721 4.42039 -3.00842 0
M  V30 340 H 33.9151 3.93217 -1.36698 0
M  V30 341 H 34.4481 2.90367 -2.71904 0
M  V30 342 H 31.1871 3.24125 -5.69757 0
M  V30 343 H 30.7071 4.20214 -4.27996 0
M  V30 344 H 32.3861 4.25758 -4.87175 0
M  V30 345 N 32.5182 1.22032 0.997298 0
M  V30 346 C 33.9292 1.0397 1.55071 0
M  V30 347 C 34.2802 -0.398192 1.92117 0
M  V30 348 O 33.4052 -1.28254 1.74298 0
M  V30 349 C 34.0002 1.88109 2.81781 0
M  V30 350 C 32.5592 1.74357 3.33581 0
M  V30 351 C 31.7062 1.84846 2.06706 0
M  V30 352 H 34.6572 1.35941 0.818883 0
M  V30 353 H 34.6782 1.39589 3.53971 0
M  V30 354 H 34.1902 2.92754 2.54787 0
M  V30 355 H 32.2912 0.72427 3.65493 0
M  V30 356 H 32.4042 2.56772 4.04481 0
M  V30 357 H 30.7682 1.28238 2.20062 0
M  V30 358 H 31.5512 2.91014 1.82114 0
M  V30 359 N 33.9963 -1.19345 1.0293 0
M  V30 360 C 34.9593 -2.20793 0.615069 0
M  V30 361 C 35.9593 -1.57553 -0.321533 0
M  V30 362 O 37.1493 -1.73862 -0.108483 0
M  V30 363 C 34.2813 -3.40754 -0.0999222 0
M  V30 364 H 35.4743 -2.58955 1.51269 0
M  V30 365 H 33.0273 -1.3303 0.820534 0
M  V30 366 H 33.7623 -3.0811 -1.01187 0
M  V30 367 H 33.5473 -3.87889 0.57309 0
M  V30 368 H 35.0373 -4.15898 -0.376645 0
M  V30 369 N 35.4744 -0.807222 -1.35358 0
M  V30 370 C 36.4044 -0.232509 -2.3234 0
M  V30 371 C 37.3854 0.642386 -1.57504 0
M  V30 372 O 38.5704 0.572526 -1.85569 0
M  V30 373 C 35.7004 0.619238 -3.41735 0
M  V30 374 C 34.6544 -0.157215 -4.27711 0
M  V30 375 C 33.9804 0.816273 -5.28433 0
M  V30 376 C 35.2804 -1.35656 -5.04376 0
M  V30 377 H 36.9744 -1.04276 -2.80654 0
M  V30 378 H 34.5204 -0.50288 -1.34934 0
M  V30 379 H 36.4734 1.03137 -4.08584 0
M  V30 380 H 35.1974 1.46239 -2.92031 0
M  V30 381 H 33.8564 -0.550525 -3.62443 0
M  V30 382 H 33.5044 1.65494 -4.74996 0
M  V30 383 H 33.2044 0.301067 -5.86828 0
M  V30 384 H 34.7284 1.22659 -5.98153 0
M  V30 385 H 36.1424 -1.01927 -5.64166 0
M  V30 386 H 34.5394 -1.8063 -5.7227 0
M  V30 387 H 35.6094 -2.14288 -4.34981 0
M  V30 388 N 36.9525 1.47285 -0.560781 0
M  V30 389 C 37.8825 2.32857 0.173105 0
M  V30 390 C 38.8635 1.44009 0.905281 0
M  V30 391 O 40.0485 1.7286 0.885046 0
M  V30 392 C 37.1785 3.25861 1.20133 0
M  V30 393 C 36.1325 4.23978 0.585388 0
M  V30 394 C 35.4585 5.06332 1.7185 0
M  V30 395 C 36.7585 5.20242 -0.463178 0
M  V30 396 H 38.4525 2.94466 -0.541307 0
M  V30 397 H 35.9985 1.41601 -0.261764 0
M  V30 398 H 37.9515 3.84569 1.72293 0
M  V30 399 H 36.6755 2.62315 1.94573 0
M  V30 400 H 35.3345 3.66501 0.085054 0
M  V30 401 H 34.9825 4.39186 2.45203 0
M  V30 402 H 34.6825 5.72762 1.31213 0
M  V30 403 H 36.2065 5.67899 2.24329 0
M  V30 404 H 37.6205 5.73293 -0.027502 0
M  V30 405 H 36.0175 5.94896 -0.788627 0
M  V30 406 H 37.0875 4.65504 -1.35773 0
M  V30 407 N 38.4306 0.297415 1.54768 0
M  V30 408 C 39.6606 -0.315165 2.04182 0
M  V30 409 C 40.0686 -1.4834 1.17439 0
M  V30 410 O 39.4116 -1.82695 0.191891 0
M  V30 411 C 39.4736 -0.837583 3.49607 0
M  V30 412 C 39.1376 0.204912 4.5654 0
M  V30 413 C 40.1346 1.03214 5.09552 0
M  V30 414 C 37.8196 0.345578 5.0111 0
M  V30 415 C 39.8136 1.986 6.05671 0
M  V30 416 C 37.5006 1.30289 5.97049 0
M  V30 417 C 38.4986 2.12159 6.49213 0
M  V30 418 O 38.1866 3.06268 7.43273 0
M  V30 419 H 37.9186 -0.0729646 0.672051 0
M  V30 420 H 40.4726 0.433907 2.00765 0
M  V30 421 H 38.7026 -1.63712 3.50336 0
M  V30 422 H 40.3916 -1.36566 3.82236 0
M  V30 423 H 41.1576 0.934312 4.75916 0
M  V30 424 H 37.0366 -0.28171 4.60138 0
M  V30 425 H 40.5806 2.62542 6.46311 0
M  V30 426 H 36.4776 1.40145 6.30103 0
M  V30 427 H 37.2456 3.01205 7.61064 0
M  V30 428 N 39.9087 -1.5758 0.0250728 0
M  V30 429 C 40.8387 -2.13007 -0.956575 0
M  V30 430 C 41.8197 -1.0452 -1.342 0
M  V30 431 O 43.0047 -1.32332 -1.42133 0
M  V30 432 C 40.1347 -2.65386 -2.24026 0
M  V30 433 C 39.0887 -3.78623 -1.99571 0
M  V30 434 C 38.4147 -4.17414 -3.3417 0
M  V30 435 C 39.7147 -5.04867 -1.33814 0
M  V30 436 H 41.4087 -2.9528 -0.494991 0
M  V30 437 H 38.9547 -1.42042 -0.236651 0
M  V30 438 H 40.9077 -3.02794 -2.93076 0
M  V30 439 H 39.6317 -1.80268 -2.72343 0
M  V30 440 H 38.2907 -3.41646 -1.32941 0
M  V30 441 H 37.9387 -3.29284 -3.80238 0
M  V30 442 H 37.6387 -4.93719 -3.18615 0
M  V30 443 H 39.1627 -4.57402 -4.04495 0
M  V30 444 H 40.5767 -5.39888 -1.92857 0
M  V30 445 H 38.9737 -5.86144 -1.28669 0
M  V30 446 H 40.0437 -4.83904 -0.310561 0
M  V30 447 N 41.3868 0.248026 -1.55636 0
M  V30 448 C 42.7978 0.817177 -1.67866 0
M  V30 449 C 43.1488 1.86069 -0.622322 0
M  V30 450 O 42.2738 2.15157 0.231618 0
M  V30 451 C 42.8688 1.489 -3.04326 0
M  V30 452 C 41.4278 2.00587 -3.185 0
M  V30 453 C 40.5748 0.856573 -2.63739 0
M  V30 454 H 43.5258 0.0238579 -1.58682 0
M  V30 455 H 43.5468 2.35698 -2.98708 0
M  V30 456 H 43.0588 0.729279 -3.81186 0
M  V30 457 H 41.1598 2.79443 -2.4646 0
M  V30 458 H 41.2728 2.20402 -4.25393 0
M  V30 459 H 39.6368 1.25678 -2.21534 0
M  V30 460 H 40.4198 0.109953 -3.43124 0
M  V30 461 N 42.8649 1.48995 0.513639 0
M  V30 462 C 44.1129 1.57531 1.26604 0
M  V30 463 C 44.4339 0.258236 1.93283 0
M  V30 464 O 43.7039 -0.721502 1.8213 0
M  V30 465 H 42.2839 0.580387 0.470276 0
M  V30 466 H 44.9459 1.85552 0.596373 0
M  V30 467 H 44.0419 2.36486 2.03669 0
M  V30 468 N 44.343 -0.763751 1.37857 0
M  V30 469 C 45.275 -1.88664 1.30148 0
M  V30 470 C 46.288 -1.61365 0.215685 0
M  V30 471 O 47.477 -1.72134 0.472459 0
M  V30 472 C 44.577 -3.24075 0.991396 0
M  V30 473 C 43.75 -3.78958 2.18426 0
M  V30 474 C 42.809 -4.92862 1.8432 0
M  V30 475 O 41.835 -5.08027 2.56704 0
M  V30 476 N 43.037 -5.75071 0.792081 0
M  V30 477 H 45.802 -1.95791 2.26905 0
M  V30 478 H 43.363 -0.943226 1.31586 0
M  V30 479 H 45.355 -3.97804 0.743935 0
M  V30 480 H 43.925 -3.12399 0.112122 0
M  V30 481 H 43.145 -2.96913 2.59299 0
M  V30 482 H 44.433 -4.12357 2.98058 0
M  V30 483 H 43.831 -5.65375 0.191595 0
M  V30 484 H 42.388 -6.48991 0.60449 0
M  V30 485 N 45.8211 -1.22559 -0.990812 0
M  V30 486 C 46.7531 -0.955325 -2.08342 0
M  V30 487 C 47.7661 0.0668408 -1.62663 0
M  V30 488 O 48.9551 -0.167421 -1.77713 0
M  V30 489 C 46.0551 -0.415566 -3.36342 0
M  V30 490 C 45.2281 -1.49544 -4.11042 0
M  V30 491 C 44.2871 -0.962399 -5.17324 0
M  V30 492 O 43.3131 -1.64907 -5.44788 0
M  V30 493 N 44.5151 0.215134 -5.80101 0
M  V30 494 H 47.2801 -1.89596 -2.32106 0
M  V30 495 H 44.8411 -1.13276 -1.15673 0
M  V30 496 H 46.8331 -0.0442386 -4.04676 0
M  V30 497 H 45.4031 0.430232 -3.09625 0
M  V30 498 H 44.6231 -2.04 -3.37309 0
M  V30 499 H 45.9111 -2.22195 -4.57719 0
M  V30 500 H 45.3091 0.789779 -5.6016 0
M  V30 501 H 43.8661 0.527826 -6.49659 0
M  V30 502 N 47.2992 1.18797 -1.03562 0
M  V30 503 C 48.5242 1.9314 -0.755764 0
M  V30 504 C 48.9492 1.7537 0.68022 0
M  V30 505 O 48.3072 1.06046 1.47051 0
M  V30 506 C 48.3552 3.42747 -1.12058 0
M  V30 507 O 47.4592 4.11683 -0.243124 0
M  V30 508 H 46.8002 0.602724 -0.278604 0
M  V30 509 H 49.3302 1.50678 -1.3841 0
M  V30 510 H 49.3402 3.93437 -1.08035 0
M  V30 511 H 48.0152 3.55002 -2.16672 0
M  V30 512 H 46.5922 3.71323 -0.342539 0
M  V30 513 N 48.7773 0.814389 1.34928 0
M  V30 514 C 49.7073 0.244827 2.32213 0
M  V30 515 C 50.6883 -0.634024 1.57842 0
M  V30 516 O 51.8733 -0.562676 1.8587 0
M  V30 517 C 49.0033 -0.601106 3.42058 0
M  V30 518 C 47.9573 0.179896 4.27622 0
M  V30 519 C 47.2833 -0.788237 5.28858 0
M  V30 520 C 48.5833 1.38329 5.03649 0
M  V30 521 H 50.2773 1.05763 2.80097 0
M  V30 522 H 47.8233 0.510029 1.34665 0
M  V30 523 H 49.7763 -1.00968 4.09125 0
M  V30 524 H 48.5003 -1.44688 2.92802 0
M  V30 525 H 47.1593 0.569739 3.62146 0
M  V30 526 H 46.8073 -1.62973 4.75866 0
M  V30 527 H 46.5073 -0.269942 5.8698 0
M  V30 528 H 48.0313 -1.19485 5.98795 0
M  V30 529 H 49.4453 1.04918 5.63618 0
M  V30 530 H 47.8423 1.83662 5.71304 0
M  V30 531 H 48.9123 2.16592 4.33839 0
M  V30 532 N 50.2554 -1.46986 0.568584 0
M  V30 533 C 51.1854 -2.32946 -0.160753 0
M  V30 534 C 52.1664 -1.44487 -0.897631 0
M  V30 535 O 53.3514 -1.73327 -0.875867 0
M  V30 536 C 50.4814 -3.26494 -1.18403 0
M  V30 537 C 49.4354 -4.24282 -0.562895 0
M  V30 538 C 48.7614 -5.07236 -1.69163 0
M  V30 539 C 50.0614 -5.19989 0.490761 0
M  V30 540 H 51.7554 -2.94175 0.556916 0
M  V30 541 H 49.3014 -1.4146 0.26927 0
M  V30 542 H 51.2544 -3.85477 -1.70251 0
M  V30 543 H 49.9784 -2.63343 -1.93179 0
M  V30 544 H 48.6374 -3.66541 -0.0656164 0
M  V30 545 H 48.2854 -4.4048 -2.42871 0
M  V30 546 H 47.9854 -5.7345 -1.28174 0
M  V30 547 H 49.5094 -5.6908 -2.21314 0
M  V30 548 H 50.9234 -5.73271 0.0579047 0
M  V30 549 H 49.3204 -5.94469 0.820165 0
M  V30 550 H 50.3904 -4.64777 1.3824 0
M  V30 551 N 51.7335 -0.305618 -1.54608 0
M  V30 552 C 52.6965 0.555591 -2.22364 0
M  V30 553 C 53.6965 1.05768 -1.21119 0
M  V30 554 O 54.8865 0.952972 -1.45822 0
M  V30 555 C 52.0185 1.76974 -2.91364 0
M  V30 556 H 53.2115 -0.0364572 -2.99878 0
M  V30 557 H 50.7645 -0.0565007 -1.56198 0
M  V30 558 H 51.4995 2.40151 -2.17941 0
M  V30 559 H 51.2845 1.41732 -3.65588 0
M  V30 560 H 52.7745 2.38148 -3.43038 0
M  V30 561 N 53.2116 1.57565 -0.0334293 0
M  V30 562 C 54.4586 1.91978 0.644272 0
M  V30 563 C 54.7866 0.910231 1.71887 0
M  V30 564 O 54.0416 -0.0801961 1.95536 0
M  V30 565 C 54.3406 3.33112 1.29504 0
M  V30 566 C 54.0066 4.49537 0.350388 0
M  V30 567 C 52.6686 4.81115 0.0903974 0
M  V30 568 C 55.0206 5.20347 -0.298032 0
M  V30 569 C 52.3486 5.8086 -0.825746 0
M  V30 570 C 54.7006 6.2107 -1.20226 0
M  V30 571 C 53.3646 6.51088 -1.4711 0
M  V30 572 H 52.6346 0.702496 0.235756 0
M  V30 573 H 55.2816 1.91259 -0.0961176 0
M  V30 574 H 53.5866 3.30113 2.11028 0
M  V30 575 H 55.2836 3.57011 1.82603 0
M  V30 576 H 51.8736 4.24883 0.563205 0
M  V30 577 H 56.0576 4.96178 -0.110234 0
M  V30 578 H 51.3136 6.02461 -1.04169 0
M  V30 579 H 55.4876 6.75057 -1.71086 0
M  V30 580 H 53.1146 7.28193 -2.18264 0
M  V30 581 N 54.6897 -0.239769 1.55765 0
M  V30 582 C 55.6527 -1.28038 1.90103 0
M  V30 583 C 56.6527 -1.40723 0.778055 0
M  V30 584 O 57.8427 -1.39301 1.04599 0
M  V30 585 C 54.9747 -2.65702 2.13577 0
M  V30 586 H 56.1677 -0.988048 2.83157 0
M  V30 587 H 53.7207 -0.479382 1.48767 0
M  V30 588 H 54.4557 -3.00063 1.23015 0
M  V30 589 H 54.2407 -2.57875 2.95369 0
M  V30 590 H 55.7307 -3.40828 2.41301 0
M  V30 591 N 56.1678 -1.49265 -0.50573 0
M  V30 592 C 57.0778 -1.68312 -1.63427 0
M  V30 593 C 58.0938 -0.565682 -1.64548 0
M  V30 594 O 59.2698 -0.839801 -1.83055 0
M  V30 595 C 56.3348 -1.74107 -2.99813 0
M  V30 596 C 55.3958 -2.97653 -3.09356 0
M  V30 597 C 54.6288 -3.03163 -4.39236 0
M  V30 598 O 54.8518 -2.16396 -5.27758 0
M  V30 599 O 53.7858 -3.9558 -4.53652 0
M  V30 600 H 57.6118 -2.63907 -1.50289 0
M  V30 601 H 55.1968 -1.32951 -0.681502 0
M  V30 602 H 57.0788 -1.803 -3.80881 0
M  V30 603 H 55.7538 -0.816901 -3.13223 0
M  V30 604 H 54.6608 -2.96981 -2.27493 0
M  V30 605 H 55.9938 -3.89535 -3.00871 0
M  V30 606 N 57.6459 0.756429 -1.3826 0
M  V30 607 C 58.5779 1.87971 -1.31147 0
M  V30 608 C 59.5909 1.61248 -0.224239 0
M  V30 609 O 60.7799 1.71881 -0.481581 0
M  V30 610 C 57.8799 3.23545 -1.00857 0
M  V30 611 C 57.0529 3.77794 -2.20432 0
M  V30 612 C 56.1119 4.91877 -1.86931 0
M  V30 613 O 55.1379 5.06659 -2.59395 0
M  V30 614 N 56.3399 5.74643 -0.822568 0
M  V30 615 H 59.1049 1.94585 -2.2794 0
M  V30 616 H 56.6659 0.936234 -1.32084 0
M  V30 617 H 58.6579 3.97403 -0.765021 0
M  V30 618 H 57.2279 3.12335 -0.128687 0
M  V30 619 H 56.4479 2.95534 -2.6087 0
M  V30 620 H 57.7359 4.10771 -3.00241 0
M  V30 621 H 57.1339 5.65266 -0.221575 0
M  V30 622 H 55.6909 6.48661 -0.638899 0
M  V30 623 N 59.124 1.23083 0.984299 0
M  V30 624 C 60.54 0.992637 1.24975 0
M  V30 625 C 60.74 -0.308618 1.99123 0
M  V30 626 O 59.796 -1.02905 2.30579 0
M  V30 627 C 61.109 2.19698 2.05312 0
M  V30 628 C 62.657 2.24147 2.18465 0
M  V30 629 C 63.132 3.44157 3.02192 0
M  V30 630 N 64.623 3.44372 3.09777 0
M  V30 631 C 65.358 4.33886 3.74874 0
M  V30 632 N 64.854 5.3363 4.41827 0
M  V30 633 N 66.647 4.21639 3.71721 0
M  V30 634 H 58.798 2.06731 0.487453 0
M  V30 635 H 61.061 0.906339 0.277944 0
M  V30 636 H 60.767 3.1411 1.58201 0
M  V30 637 H 60.641 2.20465 3.06064 0
M  V30 638 H 63.028 1.30277 2.64786 0
M  V30 639 H 63.109 2.27415 1.17115 0
M  V30 640 H 62.753 4.38332 2.56568 0
M  V30 641 H 62.683 3.3813 4.03702 0
M  V30 642 H 65.174 2.72201 2.62135 0
M  V30 643 H 65.487 5.98196 4.89266 0
M  V30 644 H 63.832 5.37534 4.40548 0
M  V30 645 H 67.023 3.42962 3.18582 0
M  V30 646 H 67.196 4.91604 4.22173 0
M  V30 647 N 60.6021 -1.18246 1.0419 0
M  V30 648 C 61.5651 -2.20128 0.638452 0
M  V30 649 C 62.5651 -1.57885 -0.304805 0
M  V30 650 O 63.7551 -1.73967 -0.0900369 0
M  V30 651 C 60.8871 -3.4084 -0.0637751 0
M  V30 652 H 62.0801 -2.57336 1.54007 0
M  V30 653 H 59.6331 -1.32152 0.834598 0
M  V30 654 H 60.3681 -3.09166 -0.979136 0
M  V30 655 H 60.1531 -3.8726 0.614198 0
M  V30 656 H 61.6431 -4.16274 -0.332512 0
M  V30 657 N 62.0802 -0.821533 -1.34494 0
M  V30 658 C 63.3052 -0.420873 -2.03085 0
M  V30 659 C 63.7302 0.964915 -1.61465 0
M  V30 660 O 63.0882 1.62763 -0.798607 0
M  V30 661 C 63.1362 -0.529414 -3.56693 0
M  V30 662 O 62.2402 0.451302 -4.09923 0
M  V30 663 H 61.5812 -0.173489 -0.640935 0
M  V30 664 H 64.1112 -1.11157 -1.71771 0
M  V30 665 H 64.1212 -0.404671 -4.05988 0
M  V30 666 H 62.7962 -1.54014 -3.86332 0
M  V30 667 H 61.3732 0.285558 -3.71805 0
M  V30 668 N 63.5583 1.46682 -0.576371 0
M  V30 669 C 64.5053 2.30241 0.160499 0
M  V30 670 C 65.4753 1.40233 0.890162 0
M  V30 671 O 66.6603 1.69186 0.882084 0
M  V30 672 C 63.8003 3.24578 1.1723 0
M  V30 673 C 62.9133 4.29684 0.446736 0
M  V30 674 C 62.0483 5.11154 1.44551 0
M  V30 675 C 61.0873 6.08015 0.70599 0
M  V30 676 N 60.2243 6.82376 1.65251 0
M  V30 677 H 65.0643 2.92727 -0.558127 0
M  V30 678 H 62.6013 1.44272 -0.287056 0
M  V30 679 H 64.5593 3.77711 1.77172 0
M  V30 680 H 63.1893 2.63916 1.85872 0
M  V30 681 H 62.2413 3.79458 -0.267594 0
M  V30 682 H 63.5533 4.98626 -0.131686 0
M  V30 683 H 62.7073 5.68533 2.11791 0
M  V30 684 H 61.4463 4.42158 2.05786 0
M  V30 685 H 60.4513 5.49796 0.0197725 0
M  V30 686 H 61.6763 6.79028 0.09912 0
M  V30 687 H 59.6223 6.16094 2.25308 0
M  V30 688 H 59.5393 7.47556 1.12673 0
M  V30 689 H 60.8073 7.44316 2.31546 0
M  V30 690 N 65.0364 0.313813 1.54444 0
M  V30 691 C 65.9834 -0.55655 2.23989 0
M  V30 692 C 66.9534 -1.11943 1.22711 0
M  V30 693 O 68.1384 -1.16158 1.51367 0
M  V30 694 C 65.2784 -1.71635 2.99392 0
M  V30 695 C 64.3914 -1.18364 4.15468 0
M  V30 696 C 63.5264 -2.30834 4.78424 0
M  V30 697 C 62.5654 -1.74762 5.86622 0
M  V30 698 N 61.7024 -2.80855 6.43479 0
M  V30 699 H 66.5424 0.0430893 2.97969 0
M  V30 700 H 64.0794 0.0330359 1.47063 0
M  V30 701 H 66.0374 -2.39868 3.41349 0
M  V30 702 H 64.6674 -2.28742 2.27765 0
M  V30 703 H 63.7194 -0.393163 3.78363 0
M  V30 704 H 65.0314 -0.733262 4.93381 0
M  V30 705 H 64.1854 -3.0699 5.23299 0
M  V30 706 H 62.9244 -2.79204 3.99871 0
M  V30 707 H 61.9294 -0.970995 5.41158 0
M  V30 708 H 63.1544 -1.2728 6.67066 0
M  V30 709 H 61.1004 -3.28535 5.67804 0
M  V30 710 H 61.0174 -2.40351 7.16776 0
M  V30 711 H 62.2854 -3.5687 6.93011 0
M  V30 712 N 66.5145 -1.57545 0.0417849 0
M  V30 713 C 67.7915 -1.83642 -0.673433 0
M  V30 714 C 68.1715 -0.928298 -1.89594 0
M  V30 715 O 67.5195 0.0129955 -2.28496 0
M  V30 716 C 67.7295 -3.33155 -1.03964 0
M  V30 717 C 69.0775 -3.99941 -1.42592 0
M  V30 718 O 70.1015 -3.37725 -1.13226 0
M  V30 719 O 68.9605 -5.09619 -1.9736 0
M  V30 720 H 66.0545 -0.757638 -0.331533 0
M  V30 721 H 68.6005 -1.69554 0.070433 0
M  V30 722 H 67.3725 -3.9093 -0.170098 0
M  V30 723 H 66.9955 -3.52396 -1.84126 0
M  V30 724 N 67.9926 0.231505 -1.5589 0
M  V30 725 C 68.9026 1.308 -1.94752 0
M  V30 726 C 69.9186 1.51826 -0.849989 0
M  V30 727 O 71.0946 1.6515 -1.15271 0
M  V30 728 C 68.1596 2.63968 -2.24771 0
M  V30 729 C 67.2206 2.51331 -3.48039 0
M  V30 730 C 66.4536 3.78148 -3.76616 0
M  V30 731 O 66.6766 4.80722 -3.07022 0
M  V30 732 O 65.6106 3.75857 -4.70123 0
M  V30 733 H 69.4366 1.0083 -2.86474 0
M  V30 734 H 67.0216 0.433547 -1.42971 0
M  V30 735 H 68.9036 3.42633 -2.45318 0
M  V30 736 H 67.5786 2.9364 -1.36225 0
M  V30 737 H 66.4856 1.709 -3.32782 0
M  V30 738 H 67.8186 2.26601 -4.36936 0
M  V30 739 N 69.4707 1.49531 0.497807 0
M  V30 740 C 70.4207 1.62829 1.59596 0
M  V30 741 C 71.4047 0.483824 1.53453 0
M  V30 742 O 72.5967 0.736937 1.60929 0
M  V30 743 C 69.7257 1.7011 2.98191 0
M  V30 744 C 68.8117 2.90144 3.09317 0
M  V30 745 N 69.2027 4.1418 2.90324 0
M  V30 746 C 67.5007 2.88148 3.40422 0
M  V30 747 C 68.2017 4.94886 3.05717 0
M  V30 748 N 67.1777 4.28314 3.34736 0
M  V30 749 H 70.9797 2.56446 1.4357 0
M  V30 750 H 68.4937 1.46347 0.704001 0
M  V30 751 H 70.4907 1.77735 3.77115 0
M  V30 752 H 69.1507 0.776315 3.15283 0
M  V30 753 H 70.1617 4.44109 2.66436 0
M  V30 754 H 66.8387 2.05061 3.63671 0
M  V30 755 H 68.2287 6.03432 2.95499 0
M  V30 756 N 70.9488 -0.749086 1.3866 0
M  V30 757 C 71.9118 -1.84457 1.36045 0
M  V30 758 C 72.9118 -1.58682 0.260122 0
M  V30 759 O 74.1018 -1.66343 0.517261 0
M  V30 760 C 71.2338 -3.22008 1.11911 0
M  V30 761 H 72.4268 -1.88182 2.33512 0
M  V30 762 H 69.9798 -0.951266 1.24019 0
M  V30 763 H 70.7148 -3.2395 0.150686 0
M  V30 764 H 70.4998 -3.42111 1.91579 0
M  V30 765 H 71.9898 -4.0208 1.12788 0
M  V30 766 N 72.4269 -1.23603 -0.977757 0
M  V30 767 C 73.3369 -1.03632 -2.1047 0
M  V30 768 C 74.3529 0.0199435 -1.73989 0
M  V30 769 O 75.5289 -0.176076 -2.00629 0
M  V30 770 C 72.5939 -0.63276 -3.40877 0
M  V30 771 C 71.6549 -1.76437 -3.91367 0
M  V30 772 C 70.8879 -1.37997 -5.15551 0
M  V30 773 O 71.1109 -0.265357 -5.69782 0
M  V30 774 O 70.0449 -2.20201 -5.60174 0
M  V30 775 H 73.8709 -1.98086 -2.30208 0
M  V30 776 H 71.4559 -1.02332 -1.08851 0
M  V30 777 H 73.3379 -0.418761 -4.19314 0
M  V30 778 H 72.0129 0.282754 -3.22463 0
M  V30 779 H 70.9199 -2.03304 -3.14036 0
M  V30 780 H 72.2529 -2.6583 -4.14241 0
M  V30 781 N 73.905 1.17692 -1.04816 0
M  V30 782 C 74.835 2.23777 -0.666791 0
M  V30 783 C 75.816 1.66796 0.33361 0
M  V30 784 O 77.001 1.93039 0.212042 0
M  V30 785 C 74.131 3.47281 -0.0367933 0
M  V30 786 C 73.085 4.17059 -0.961546 0
M  V30 787 C 72.411 5.34342 -0.195626 0
M  V30 788 C 73.711 4.69713 -2.28402 0
M  V30 789 H 75.405 2.55933 -1.55367 0
M  V30 790 H 72.951 1.23019 -0.748484 0
M  V30 791 H 74.904 4.20706 0.241775 0
M  V30 792 H 73.628 3.14381 0.885004 0
M  V30 793 H 72.287 3.45541 -1.22462 0
M  V30 794 H 71.935 4.97692 0.728816 0
M  V30 795 H 71.635 5.81966 -0.811775 0
M  V30 796 H 73.159 6.10553 0.0757473 0
M  V30 797 H 74.573 5.34794 -2.06563 0
M  V30 798 H 72.97 5.279 -2.8538 0
M  V30 799 H 74.04 3.86726 -2.92525 0
M  V30 800 N 75.3831 0.828654 1.34056 0
M  V30 801 C 76.6321 0.415828 1.97367 0
M  V30 802 C 76.9451 -1.02796 1.6641 0
M  V30 803 O 78.1511 -1.54497 2.23255 0
M  V30 804 C 76.6071 0.692601 3.53173 0
M  V30 805 C 76.2151 2.15038 3.93017 0
M  V30 806 C 77.9591 0.346222 4.23086 0
M  V30 807 C 75.8661 2.37174 5.41758 0
M  V30 808 H 74.7961 0.151755 0.738571 0
M  V30 809 H 77.4471 1.01581 1.52819 0
M  V30 810 H 75.8291 0.0223764 3.95994 0
M  V30 811 H 77.0031 2.86024 3.61285 0
M  V30 812 H 75.3181 2.45875 3.36057 0
M  V30 813 H 77.9151 0.48937 5.32456 0
M  V30 814 H 78.2581 -0.709842 4.10204 0
M  V30 815 H 78.7911 0.971258 3.85761 0
M  V30 816 H 75.5301 3.41308 5.59633 0
M  V30 817 H 75.0501 1.70738 5.74986 0
M  V30 818 H 76.7291 2.19818 6.08514 0
M  V30 819 N 76.8612 -1.46375 0.584142 0
M  V30 820 C 78.1072 -2.02678 0.0703716 0
M  V30 821 C 78.4402 -1.4545 -1.28678 0
M  V30 822 O 77.7152 -0.62014 -1.84349 0
M  V30 823 C 77.9982 -3.60099 0.00614674 0
M  V30 824 C 77.8512 -4.27709 1.3923 0
M  V30 825 C 79.1702 -4.34598 -0.693742 0
M  V30 826 H 76.2892 -0.736504 0.027047 0
M  V30 827 H 78.9312 -1.74501 0.751615 0
M  V30 828 H 77.0812 -3.84236 -0.574009 0
M  V30 829 H 78.7532 -4.14832 2.01773 0
M  V30 830 H 76.9962 -3.87016 1.95962 0
M  V30 831 H 77.6672 -5.36478 1.29982 0
M  V30 832 H 80.1432 -4.15615 -0.200869 0
M  V30 833 H 79.0192 -5.44318 -0.707714 0
M  V30 834 H 79.2802 -4.05759 -1.75533 0
M  V30 835 N 78.3393 -0.321999 -1.54275 0
M  V30 836 C 79.2693 0.537411 -2.27231 0
M  V30 837 C 80.2503 1.12064 -1.27968 0
M  V30 838 O 81.4353 1.14606 -1.56777 0
M  V30 839 C 78.5653 1.69919 -3.02894 0
M  V30 840 C 77.5193 1.24534 -4.09482 0
M  V30 841 C 76.8453 2.49394 -4.72977 0
M  V30 842 C 78.1453 0.361335 -5.21049 0
M  V30 843 H 79.8393 -0.0711406 -2.99315 0
M  V30 844 H 77.3853 -0.0356555 -1.43956 0
M  V30 845 H 79.3383 2.30668 -3.52662 0
M  V30 846 H 78.0623 2.33431 -2.28424 0
M  V30 847 H 76.7213 0.660782 -3.60596 0
M  V30 848 H 76.3693 3.11265 -3.95124 0
M  V30 849 H 76.0693 2.19718 -5.44975 0
M  V30 850 H 77.5933 3.10908 -5.25517 0
M  V30 851 H 79.0073 0.875072 -5.66582 0
M  V30 852 H 77.4043 0.157428 -5.99893 0
M  V30 853 H 78.4743 -0.60822 -4.8107 0
M  V30 854 N 79.8174 1.5752 -0.0501392 0
M  V30 855 C 81.2334 1.56631 0.306402 0
M  V30 856 C 81.4334 1.0577 1.71508 0
M  V30 857 O 80.4894 0.713837 2.422 0
M  V30 858 C 81.8024 3.00393 0.135811 0
M  V30 859 C 83.3504 3.12315 0.206993 0
M  V30 860 C 83.8254 4.57954 0.064944 0
M  V30 861 N 85.3164 4.63041 0.121254 0
M  V30 862 C 86.0514 5.73389 0.0354381 0
M  V30 863 N 85.5474 6.92724 -0.102666 0
M  V30 864 N 87.3404 5.62026 0.090946 0
M  V30 865 H 79.4914 1.88903 -0.971046 0
M  V30 866 H 81.7544 0.869876 -0.376855 0
M  V30 867 H 81.4604 3.41635 -0.835384 0
M  V30 868 H 81.3344 3.66373 0.897275 0
M  V30 869 H 83.7214 2.70973 1.16866 0
M  V30 870 H 83.8024 2.49016 -0.585208 0
M  V30 871 H 83.4464 4.99981 -0.893394 0
M  V30 872 H 83.3764 5.19258 0.876277 0
M  V30 873 H 85.8674 3.77216 0.227284 0
M  V30 874 H 86.1804 7.72633 -0.160882 0
M  V30 875 H 84.5254 6.94864 -0.137737 0
M  V30 876 H 87.7164 4.67684 0.197388 0
M  V30 877 H 87.8894 6.47997 0.0206089 0
M  V30 878 N 81.2955 -0.223234 1.56011 0
M  V30 879 C 82.7115 -0.572856 1.48965 0
M  V30 880 C 82.9115 -1.87225 0.74492 0
M  V30 881 O 81.9675 -2.50899 0.283896 0
M  V30 882 C 83.2805 -0.653646 2.9351 0
M  V30 883 C 84.8285 -0.744386 3.0402 0
M  V30 884 C 85.3035 -0.856535 4.49919 0
M  V30 885 N 86.7945 -0.9208 4.53955 0
M  V30 886 C 87.5295 -1.02726 5.64123 0
M  V30 887 N 87.0255 -1.09777 6.84047 0
M  V30 888 N 88.8185 -1.06226 5.51971 0
M  V30 889 H 80.9695 0.629462 2.02858 0
M  V30 890 H 83.2325 0.220621 0.921971 0
M  V30 891 H 82.9385 0.231518 3.50937 0
M  V30 892 H 82.8125 -1.51781 3.45315 0
M  V30 893 H 85.1995 -1.61999 2.46658 0
M  V30 894 H 85.2805 0.14541 2.55386 0
M  V30 895 H 84.9245 0.0146069 5.07898 0
M  V30 896 H 84.8545 -1.76172 4.96257 0
M  V30 897 H 87.3455 -0.876694 3.6759 0
M  V30 898 H 87.6585 -1.17872 7.63758 0
M  V30 899 H 86.0035 -1.06693 6.86762 0
M  V30 900 H 89.1945 -1.00382 4.5721 0
M  V30 901 H 89.3675 -1.14177 6.37862 0
M  V30 902 N 82.7736 -1.49793 -0.48987 0
M  V30 903 C 84.0216 -1.59525 -1.24081 0
M  V30 904 C 84.3426 -0.288953 -1.92847 0
M  V30 905 O 83.6126 0.692436 -1.83254 0
M  V30 906 H 82.1926 -0.587796 -0.460983 0
M  V30 907 H 84.8546 -1.86477 -0.566778 0
M  V30 908 H 83.9506 -2.39696 -1.99881 0
M  V30 909 N 84.2517 0.741722 -1.39055 0
M  V30 910 C 85.5287 1.49252 -1.26425 0
M  V30 911 C 85.9087 2.10705 0.129144 0
M  V30 912 O 85.2567 1.98045 1.13976 0
M  V30 913 C 85.4667 2.54934 -2.38347 0
M  V30 914 C 86.8147 3.21506 -2.77343 0
M  V30 915 O 87.8387 2.65245 -2.37747 0
M  V30 916 O 86.6977 4.23294 -3.45665 0
M  V30 917 H 83.7917 0.662451 -0.495064 0
M  V30 918 H 86.3377 0.776121 -1.50912 0
M  V30 919 H 85.1097 2.07857 -3.31529 0
M  V30 920 H 84.7327 3.34141 -2.15489 0
M  V30 921 N 85.7298 1.2412 0.971189 0
M  V30 922 C 86.9598 1.10415 1.7462 0
M  V30 923 C 87.3678 -0.346462 1.86001 0
M  V30 924 O 86.7108 -1.25104 1.34517 0
M  V30 925 C 86.7728 1.66596 3.18568 0
M  V30 926 C 86.4368 3.15446 3.3067 0
M  V30 927 C 87.4338 4.12636 3.16271 0
M  V30 928 C 85.1188 3.55337 3.55022 0
M  V30 929 C 87.1128 5.47699 3.26044 0
M  V30 930 C 84.7998 4.90542 3.64434 0
M  V30 931 C 85.7978 5.86532 3.49956 0
M  V30 932 O 85.4858 7.19279 3.59017 0
M  V30 933 H 85.2178 0.386616 0.55453 0
M  V30 934 H 87.7718 1.64633 1.22821 0
M  V30 935 H 86.0018 1.06808 3.71657 0
M  V30 936 H 87.6908 1.48232 3.77865 0
M  V30 937 H 88.4568 3.8316 2.97344 0
M  V30 938 H 84.3358 2.8113 3.65359 0
M  V30 939 H 87.8798 6.22603 3.14661 0
M  V30 940 H 83.7768 5.19691 3.82873 0
M  V30 941 H 84.5448 7.27153 3.75754 0
M  V30 942 N 87.2079 -1.17134 1.05439 0
M  V30 943 C 88.4849 -1.83411 0.679699 0
M  V30 944 C 88.8649 -1.9368 -0.839726 0
M  V30 945 O 88.2129 -1.47325 -1.74664 0
M  V30 946 C 88.4229 -3.20918 1.37159 0
M  V30 947 C 89.7709 -3.96796 1.51123 0
M  V30 948 O 90.7949 -3.30406 1.3308 0
M  V30 949 O 89.6539 -5.15778 1.80651 0
M  V30 950 H 86.7479 -0.79154 0.239569 0
M  V30 951 H 89.2939 -1.24411 1.15413 0
M  V30 952 H 88.0659 -3.08428 2.40807 0
M  V30 953 H 87.6889 -3.87587 0.886674 0
M  V30 954 N 88.686 -0.835752 -1.33615 0
M  V30 955 C 89.649 -0.272 -2.2758 0
M  V30 956 C 90.649 0.557487 -1.50827 0
M  V30 957 O 91.839 0.37173 -1.70188 0
M  V30 958 C 88.971 0.617173 -3.35267 0
M  V30 959 H 90.164 -1.10111 -2.78954 0
M  V30 960 H 87.717 -0.608594 -1.43965 0
M  V30 961 H 88.452 1.46884 -2.89129 0
M  V30 962 H 88.237 0.0237066 -3.92093 0
M  V30 963 H 89.727 1.005 -4.05326 0
M  V30 964 N 90.1641 1.46063 -0.591896 0
M  V30 965 C 91.5751 1.85944 -0.167822 0
M  V30 966 C 91.9261 1.49429 1.27143 0
M  V30 967 O 91.0511 0.913515 1.96173 0
M  V30 968 C 91.6461 3.37489 -0.297794 0
M  V30 969 C 90.2051 3.76332 0.0714732 0
M  V30 970 C 89.3521 2.7006 -0.629509 0
M  V30 971 H 92.3031 1.37087 -0.799555 0
M  V30 972 H 92.3241 3.77532 0.474349 0
M  V30 973 H 91.8361 3.64034 -1.3454 0
M  V30 974 H 89.9371 3.55405 1.11886 0
M  V30 975 H 90.0501 4.78088 -0.311245 0
M  V30 976 H 88.4141 2.54607 -0.0687867 0
M  V30 977 H 89.1971 2.99444 -1.67894 0
M  V30 978 N 91.6422 0.330177 1.54103 0
M  V30 979 C 92.8702 -0.272179 2.05102 0
M  V30 980 C 93.2852 -1.45267 1.20595 0
M  V30 981 O 92.6422 -1.8094 0.238144 0
M  V30 982 C 92.6932 -0.70023 3.54653 0
M  V30 983 O 92.4142 0.433301 4.35952 0
M  V30 984 C 93.9152 -1.3647 4.21771 0
M  V30 985 H 91.1352 -0.0549159 0.668749 0
M  V30 986 H 93.6792 0.478285 1.98828 0
M  V30 987 H 91.8342 -1.40066 3.61193 0
M  V30 988 H 92.2482 0.0947539 5.24414 0
M  V30 989 H 93.7222 -1.61509 5.27843 0
M  V30 990 H 94.1992 -2.31409 3.73292 0
M  V30 991 H 94.8052 -0.706675 4.19388 0
M  V30 992 N 93.1203 -1.57491 0.0584922 0
M  V30 993 C 94.0703 -2.08474 -0.923188 0
M  V30 994 C 95.0543 -0.991479 -1.26722 0
M  V30 995 O 96.2463 -1.25473 -1.24842 0
M  V30 996 C 93.3753 -2.6392 -2.19548 0
M  V30 997 C 92.4613 -3.80227 -1.87852 0
M  V30 998 N 92.8523 -4.89714 -1.26546 0
M  V30 999 C 91.1503 -3.89271 -2.17679 0
M  V30 1000 C 91.8513 -5.70689 -1.12644 0
M  V30 1001 N 90.8273 -5.18531 -1.63176 0
M  V30 1002 H 94.6293 -2.90517 -0.444653 0
M  V30 1003 H 92.1433 -1.61745 -0.145764 0
M  V30 1004 H 94.1403 -2.98752 -2.9078 0
M  V30 1005 H 92.8003 -1.83318 -2.68001 0
M  V30 1006 H 93.8113 -5.09358 -0.936757 0
M  V30 1007 H 90.4883 -3.19623 -2.68602 0
M  V30 1008 H 91.8783 -6.6875 -0.6499 0
M  V30 1009 N 94.5984 0.214957 -1.56127 0
M  V30 1010 C 95.5304 1.29004 -1.89448 0
M  V30 1011 C 96.5434 1.42716 -0.783326 0
M  V30 1012 O 97.7324 1.43496 -1.06166 0
M  V30 1013 C 94.8324 2.66482 -2.09381 0
M  V30 1014 C 94.0054 2.74633 -3.40434 0
M  V30 1015 C 93.0644 3.9317 -3.49719 0
M  V30 1016 O 92.0904 3.812 -4.227 0
M  V30 1017 N 93.2924 5.07765 -2.81346 0
M  V30 1018 H 96.0574 1.00743 -2.82261 0
M  V30 1019 H 93.6184 0.40497 -1.56753 0
M  V30 1020 H 95.6104 3.44173 -2.12901 0
M  V30 1021 H 94.1804 2.87314 -1.23163 0
M  V30 1022 H 93.4004 1.83368 -3.48955 0
M  V30 1023 H 94.6884 2.77054 -4.26754 0
M  V30 1024 H 94.0864 5.20386 -2.21843 0
M  V30 1025 H 92.6434 5.83474 -2.90519 0
M  V30 1026 N 96.0765 1.50051 0.48192 0
M  V30 1027 C 97.3225 1.60736 1.2366 0
M  V30 1028 C 97.6555 0.301786 1.91841 0
M  V30 1029 O 96.9305 -0.696025 1.8162 0
M  V30 1030 C 97.2135 2.78009 2.28874 0
M  V30 1031 C 97.0665 4.18416 1.65069 0
M  V30 1032 C 98.3855 2.90867 3.30279 0
M  V30 1033 H 95.5045 0.585031 0.448228 0
M  V30 1034 H 98.1465 1.82402 0.531946 0
M  V30 1035 H 96.2965 2.59667 2.88973 0
M  V30 1036 H 97.9685 4.48322 1.0865 0
M  V30 1037 H 96.2115 4.23177 0.954148 0
M  V30 1038 H 96.8825 4.96381 2.41474 0
M  V30 1039 H 99.3585 3.07623 2.80191 0
M  V30 1040 H 98.2345 3.74566 4.01238 0
M  V30 1041 H 98.4955 2.01021 3.93755 0
M  V30 1042 N 97.5546 -0.734337 1.39446 0
M  V30 1043 C 98.4866 -1.85861 1.34121 0
M  V30 1044 C 99.4996 -1.60871 0.249864 0
M  V30 1045 O 100.689 -1.71093 0.508865 0
M  V30 1046 C 97.7886 -3.21899 1.05991 0
M  V30 1047 C 96.9616 -3.74239 2.26415 0
M  V30 1048 C 96.0206 -4.88841 1.94733 0
M  V30 1049 O 95.0466 -5.02468 2.67422 0
M  V30 1050 N 96.2486 -5.73261 0.913884 0
M  V30 1051 H 99.0136 -1.90934 2.31007 0
M  V30 1052 H 96.5746 -0.915102 1.33557 0
M  V30 1053 H 98.5666 -3.96136 0.828147 0
M  V30 1054 H 97.1366 -3.12091 0.178361 0
M  V30 1055 H 96.3566 -2.91347 2.65539 0
M  V30 1056 H 97.6446 -4.05942 3.06738 0
M  V30 1057 H 97.0426 -5.64842 0.311476 0
M  V30 1058 H 95.5996 -6.47563 0.742015 0
M  V30 1059 N 99.0327 -1.24633 -0.964593 0
M  V30 1060 C 100.279 -1.09957 -1.71117 0
M  V30 1061 C 100.634 0.357422 -1.89051 0
M  V30 1062 O 99.9267 1.26029 -1.44317 0
M  V30 1063 C 100.121 -1.7763 -3.10133 0
M  V30 1064 C 99.9497 -3.29759 -3.05759 0
M  V30 1065 C 98.7197 -3.98981 -3.10068 0
M  V30 1066 C 100.918 -4.26305 -2.87695 0
M  V30 1067 N 98.8997 -5.37966 -2.95747 0
M  V30 1068 C 100.271 -5.52308 -2.81702 0
M  V30 1069 C 102.326 -4.16842 -2.72299 0
M  V30 1070 C 101.029 -6.69931 -2.61887 0
M  V30 1071 C 103.055 -5.34147 -2.53853 0
M  V30 1072 C 102.417 -6.59084 -2.48572 0
M  V30 1073 H 98.5157 -0.457003 -0.634564 0
M  V30 1074 H 101.1 -1.57592 -1.14337 0
M  V30 1075 H 99.2707 -1.32504 -3.65099 0
M  V30 1076 H 101.003 -1.55786 -3.73514 0
M  V30 1077 H 97.7577 -3.50169 -3.18871 0
M  V30 1078 H 98.1817 -6.10877 -2.91818 0
M  V30 1079 H 102.824 -3.21007 -2.75163 0
M  V30 1080 H 100.542 -7.65886 -2.57767 0
M  V30 1081 H 104.128 -5.28678 -2.4288 0
M  V30 1082 H 103.008 -7.48324 -2.34481 0
M  V30 1083 N 100.511 1.16574 -1.06058 0
M  V30 1084 C 101.443 2.2045 -0.627239 0
M  V30 1085 C 102.456 1.59752 0.313534 0
M  V30 1086 O 103.645 1.78192 0.104896 0
M  V30 1087 C 100.745 3.3875 0.100974 0
M  V30 1088 C 99.9178 4.29008 -0.852687 0
M  V30 1089 C 98.9768 5.25944 -0.164152 0
M  V30 1090 O 98.0028 5.63535 -0.801047 0
M  V30 1091 N 99.2048 5.70075 1.09518 0
M  V30 1092 H 101.97 2.58249 -1.52077 0
M  V30 1093 H 99.5308 1.3156 -0.943594 0
M  V30 1094 H 101.523 4.00638 0.57194 0
M  V30 1095 H 100.093 2.99476 0.89628 0
M  V30 1096 H 99.3128 3.64419 -1.50308 0
M  V30 1097 H 100.601 4.86195 -1.49972 0
M  V30 1098 H 99.9988 5.41624 1.6328 0
M  V30 1099 H 98.5558 6.34067 1.51006 0
M  V30 1100 N 101.989 0.842826 1.3317 0
M  V30 1101 C 102.952 0.284065 2.27433 0
M  V30 1102 C 103.952 -0.54948 1.5112 0
M  V30 1103 O 105.142 -0.362699 1.70382 0
M  V30 1104 C 102.274 -0.599384 3.35589 0
M  V30 1105 H 103.467 1.11589 2.78366 0
M  V30 1106 H 101.02 0.616221 1.4364 0
M  V30 1107 H 101.755 -1.45349 2.89904 0
M  V30 1108 H 101.54 -0.00291266 3.921 0
M  V30 1109 H 103.03 -0.983488 4.05854 0
M  V30 1110 N 103.467 -1.45747 0.599634 0
M  V30 1111 C 104.399 -2.28628 -0.161879 0
M  V30 1112 C 105.412 -1.39494 -0.839367 0
M  V30 1113 O 106.601 -1.63941 -0.706089 0
M  V30 1114 C 103.701 -3.15014 -1.24976 0
M  V30 1115 C 102.874 -4.32378 -0.660935 0
M  V30 1116 C 101.933 -5.00033 -1.63869 0
M  V30 1117 O 100.959 -5.57085 -1.1681 0
M  V30 1118 N 102.161 -4.98589 -2.97303 0
M  V30 1119 H 104.926 -2.94624 0.549265 0
M  V30 1120 H 102.487 -1.55847 0.438565 0
M  V30 1121 H 104.479 -3.5714 -1.9035 0
M  V30 1122 H 103.049 -2.5098 -1.86354 0
M  V30 1123 H 102.269 -3.9383 0.170688 0
M  V30 1124 H 103.557 -5.08197 -0.247619 0
M  V30 1125 H 102.955 -4.53514 -3.38145 0
M  V30 1126 H 101.512 -5.44603 -3.58121 0
M  V30 1127 N 104.945 -0.338344 -1.53925 0
M  V30 1128 C 105.855 0.529421 -2.28548 0
M  V30 1129 C 106.871 1.11645 -1.3346 0
M  V30 1130 O 108.047 1.13325 -1.66492 0
M  V30 1131 C 105.112 1.66713 -3.03987 0
M  V30 1132 C 104.173 1.11041 -4.14691 0
M  V30 1133 C 103.406 2.19389 -4.86522 0
M  V30 1134 O 103.629 3.40013 -4.57982 0
M  V30 1135 O 102.563 1.83976 -5.73094 0
M  V30 1136 H 106.389 -0.0770399 -3.03602 0
M  V30 1137 H 103.974 -0.103555 -1.49041 0
M  V30 1138 H 105.856 2.32918 -3.5118 0
M  V30 1139 H 104.531 2.25949 -2.31794 0
M  V30 1140 H 103.438 0.413024 -3.71813 0
M  V30 1141 H 104.771 0.562975 -4.8897 0
M  V30 1142 N 106.423 1.57458 -0.0668435 0
M  V30 1143 C 107.669 1.93587 0.6043 0
M  V30 1144 C 108.002 0.946722 1.69561 0
M  V30 1145 O 107.277 -0.0248516 1.94484 0
M  V30 1146 C 107.56 3.40014 1.18585 0
M  V30 1147 C 107.413 4.49685 0.101529 0
M  V30 1148 C 108.732 3.87154 2.09284 0
M  V30 1149 H 105.851 0.703958 0.218202 0
M  V30 1150 H 108.493 1.89542 -0.131804 0
M  V30 1151 H 106.643 3.43592 1.81319 0
M  V30 1152 H 108.315 4.5823 -0.531279 0
M  V30 1153 H 106.558 4.30059 -0.568487 0
M  V30 1154 H 107.229 5.49266 0.54874 0
M  V30 1155 H 109.705 3.85551 1.56491 0
M  V30 1156 H 108.581 4.90231 2.46911 0
M  V30 1157 H 108.842 3.2481 2.99918 0
M  V30 1158 N 107.901 -0.206675 1.56239 0
M  V30 1159 C 109.147 -0.930218 1.80208 0
M  V30 1160 C 109.48 -1.83387 0.638981 0
M  V30 1161 O 108.755 -1.91119 -0.361066 0
M  V30 1162 C 109.038 -1.75641 3.1436 0
M  V30 1163 C 108.891 -0.878257 4.41142 0
M  V30 1164 C 110.21 -2.73129 3.45092 0
M  V30 1165 H 107.329 -0.336742 0.655571 0
M  V30 1166 H 109.971 -0.198222 1.88963 0
M  V30 1167 H 108.121 -2.38048 3.07027 0
M  V30 1168 H 109.793 -0.269787 4.6051 0
M  V30 1169 H 108.036 -0.184385 4.33408 0
M  V30 1170 H 108.707 -1.49106 5.3148 0
M  V30 1171 H 111.183 -2.20856 3.52649 0
M  V30 1172 H 110.059 -3.28028 4.40101 0
M  V30 1173 H 110.32 -3.51606 2.68003 0
M  V30 1174 N 109.379 -1.50304 -0.473955 0
M  V30 1175 C 110.342 -1.6841 -1.55469 0
M  V30 1176 C 111.342 -0.554905 -1.50922 0
M  V30 1177 O 112.532 -0.821882 -1.53593 0
M  V30 1178 C 109.664 -1.70667 -2.95102 0
M  V30 1179 H 110.857 -2.64828 -1.40733 0
M  V30 1180 H 108.41 -1.39742 -0.700132 0
M  V30 1181 H 109.145 -0.75932 -3.15285 0
M  V30 1182 H 108.93 -2.52698 -2.9981 0
M  V30 1183 H 110.42 -1.8664 -3.73571 0
M  V30 1184 N 110.857 0.726932 -1.39834 0
M  V30 1185 C 111.789 1.85147 -1.35104 0
M  V30 1186 C 112.802 1.60736 -0.258392 0
M  V30 1187 O 113.991 1.70821 -0.517931 0
M  V30 1188 C 111.091 3.21332 -1.07697 0
M  V30 1189 C 110.264 3.73033 -2.28396 0
M  V30 1190 C 109.323 4.87802 -1.97322 0
M  V30 1191 O 108.349 5.01043 -2.70083 0
M  V30 1192 N 109.551 5.72768 -0.944273 0
M  V30 1193 H 112.316 1.89706 -2.32017 0
M  V30 1194 H 109.877 0.908006 -1.3404 0
M  V30 1195 H 111.869 3.95691 -0.849144 0
M  V30 1196 H 110.439 3.11992 -0.194909 0
M  V30 1197 H 109.659 2.89934 -2.6708 0
M  V30 1198 H 110.947 4.0431 -3.08887 0
M  V30 1199 H 110.345 5.64669 -0.341427 0
M  V30 1200 H 108.902 6.4716 -0.776346 0
M  V30 1201 N 112.336 1.25143 0.95797 0
M  V30 1202 C 113.299 1.05321 2.03569 0
M  V30 1203 C 114.299 0.007152 1.60798 0
M  V30 1204 O 115.489 0.24903 1.72411 0
M  V30 1205 C 112.621 0.598394 3.35607 0
M  V30 1206 H 113.814 2.00986 2.22586 0
M  V30 1207 H 111.367 1.07502 1.13459 0
M  V30 1208 H 112.102 -0.361014 3.22284 0
M  V30 1209 H 111.887 1.35351 3.67998 0
M  V30 1210 H 113.377 0.48104 4.1482 0
M  V30 1211 N 113.814 -1.1601 1.06675 0
M  V30 1212 C 115.23 -1.38622 0.790948 0
M  V30 1213 C 115.43 -1.92109 -0.607965 0
M  V30 1214 O 114.486 -2.12239 -1.36787 0
M  V30 1215 C 115.799 -2.36347 1.85905 0
M  V30 1216 C 117.347 -2.50023 1.88301 0
M  V30 1217 C 117.822 -3.51033 2.94176 0
M  V30 1218 N 119.313 -3.58563 2.93235 0
M  V30 1219 C 120.048 -4.36521 3.71803 0
M  V30 1220 N 119.544 -5.17869 4.602 0
M  V30 1221 N 121.337 -4.31541 3.60178 0
M  V30 1222 H 113.488 -0.796294 1.96908 0
M  V30 1223 H 115.751 -0.412597 0.853503 0
M  V30 1224 H 115.457 -2.04147 2.86386 0
M  V30 1225 H 115.331 -3.36042 1.71334 0
M  V30 1226 H 117.718 -2.81524 0.884769 0
M  V30 1227 H 117.799 -1.5035 2.06951 0
M  V30 1228 H 117.443 -3.20268 3.94196 0
M  V30 1229 H 117.373 -4.50445 2.72776 0
M  V30 1230 H 119.864 -3.00496 2.29152 0
M  V30 1231 H 120.177 -5.74578 5.16797 0
M  V30 1232 H 118.522 -5.17199 4.64253 0
M  V30 1233 H 121.713 -3.67051 2.90502 0
M  V30 1234 H 121.886 -4.9205 4.21653 0
M  V30 1235 N 115.292 -0.849877 -1.32721 0
M  V30 1236 C 116.222 -0.306308 -2.31482 0
M  V30 1237 C 117.203 0.591952 -1.59468 0
M  V30 1238 O 118.388 0.513199 -1.87296 0
M  V30 1239 C 115.518 0.510204 -3.43532 0
M  V30 1240 C 114.472 -0.293209 -4.26994 0
M  V30 1241 C 113.798 0.647743 -5.30762 0
M  V30 1242 C 115.098 -1.51634 -4.99804 0
M  V30 1243 H 116.792 -1.13153 -2.77195 0
M  V30 1244 H 114.338 -0.545553 -1.33266 0
M  V30 1245 H 116.291 0.900856 -4.11658 0
M  V30 1246 H 115.015 1.36874 -2.96535 0
M  V30 1247 H 113.674 -0.665555 -3.60508 0
M  V30 1248 H 113.322 1.50299 -4.8002 0
M  V30 1249 H 113.022 0.11422 -5.87489 0
M  V30 1250 H 114.546 1.03567 -6.01753 0
M  V30 1251 H 115.96 -1.19824 -5.60638 0
M  V30 1252 H 114.357 -1.98745 -5.66234 0
M  V30 1253 H 115.427 -2.28018 -4.27943 0
M  V30 1254 N 116.77 1.45427 -0.607355 0
M  V30 1255 C 118.047 1.9557 -0.0344566 0
M  V30 1256 C 118.427 1.54979 1.43334 0
M  V30 1257 O 117.775 0.812241 2.13576 0
M  V30 1258 C 117.985 3.48226 -0.232321 0
M  V30 1259 C 119.333 4.2445 -0.113001 0
M  V30 1260 O 120.357 3.55829 -0.162431 0
M  V30 1261 O 119.216 5.465 0.00209442 0
M  V30 1262 H 116.31 0.826222 0.0358667 0
M  V30 1263 H 118.856 1.55594 -0.6774 0
M  V30 1264 H 117.628 3.70739 -1.25174 0
M  V30 1265 H 117.251 3.95092 0.445896 0
M  V30 1266 N 118.248 0.346503 1.53744 0
M  V30 1267 C 119.496 -0.248612 2.00565 0
M  V30 1268 C 119.817 -1.5083 1.23593 0
M  V30 1269 O 119.087 -1.92858 0.343912 0
M  V30 1270 H 117.667 -0.0948564 0.740953 0
M  V30 1271 H 120.329 0.468341 1.89189 0
M  V30 1272 H 119.425 -0.488994 3.08245 0
M  V30 1273 N 119.726 -1.57421 0.075193 0
M  V30 1274 C 120.676 -2.09441 -0.901025 0
M  V30 1275 C 121.66 -1.00486 -1.25663 0
M  V30 1276 O 122.852 -1.2679 -1.23504 0
M  V30 1277 C 119.981 -2.66233 -2.16737 0
M  V30 1278 C 119.067 -3.82198 -1.83808 0
M  V30 1279 N 119.458 -4.91028 -1.21345 0
M  V30 1280 C 117.756 -3.91558 -2.13538 0
M  V30 1281 C 118.457 -5.71852 -1.06585 0
M  V30 1282 N 117.433 -5.20233 -1.57667 0
M  V30 1283 H 121.235 -2.90972 -0.413815 0
M  V30 1284 H 118.749 -1.6189 -0.128601 0
M  V30 1285 H 120.746 -3.01819 -2.87595 0
M  V30 1286 H 119.406 -1.8615 -2.66042 0
M  V30 1287 H 120.417 -5.10323 -0.88268 0
M  V30 1288 H 117.094 -3.22454 -2.65197 0
M  V30 1289 H 118.484 -6.69401 -0.578933 0
M  V30 1290 N 121.204 0.198386 -1.56346 0
M  V30 1291 C 122.62 0.549085 -1.49857 0
M  V30 1292 C 122.82 1.86016 -0.774611 0
M  V30 1293 O 121.876 2.50416 -0.323776 0
M  V30 1294 C 123.189 0.606868 -2.94512 0
M  V30 1295 C 124.737 0.695925 -3.05165 0
M  V30 1296 C 125.212 0.784848 -4.51225 0
M  V30 1297 N 126.703 0.848463 -4.55363 0
M  V30 1298 C 127.438 0.937378 -5.65686 0
M  V30 1299 N 126.934 0.9888 -6.85707 0
M  V30 1300 N 128.727 0.974312 -5.53592 0
M  V30 1301 H 120.878 -0.661655 -2.01831 0
M  V30 1302 H 123.141 -0.235261 -0.918344 0
M  V30 1303 H 122.847 -0.28732 -3.50524 0
M  V30 1304 H 122.721 1.46268 -3.47686 0
M  V30 1305 H 125.108 1.58055 -2.49204 0
M  V30 1306 H 125.189 -0.186022 -2.55123 0
M  V30 1307 H 124.833 -0.0954072 -5.0781 0
M  V30 1308 H 124.763 1.68255 -4.98997 0
M  V30 1309 H 127.254 0.818103 -3.68938 0
M  V30 1310 H 127.567 1.05707 -7.65536 0
M  V30 1311 H 125.912 0.957534 -6.88372 0
M  V30 1312 H 129.103 0.930954 -4.58749 0
M  V30 1313 H 129.276 1.04015 -6.39597 0
M  V30 1314 N 122.682 1.50554 0.465978 0
M  V30 1315 C 123.907 1.65838 1.24549 0
M  V30 1316 C 124.332 0.343486 1.84937 0
M  V30 1317 O 123.69 -0.69324 1.67523 0
M  V30 1318 C 123.738 2.75533 2.32624 0
M  V30 1319 O 122.842 2.37142 3.37398 0
M  V30 1320 H 122.183 0.553893 0.366194 0
M  V30 1321 H 124.713 1.96959 0.553927 0
M  V30 1322 H 124.723 2.98763 2.77857 0
M  V30 1323 H 123.398 3.70962 1.88043 0
M  V30 1324 H 121.975 2.24377 2.97841 0
M  V30 1325 N 124.16 -0.719506 1.40217 0
M  V30 1326 C 125.093 -1.84298 1.34571 0
M  V30 1327 C 126.071 -1.61149 0.216741 0
M  V30 1328 O 127.255 -1.84212 0.399756 0
M  V30 1329 C 124.382 -3.20568 1.09335 0
M  V30 1330 C 123.428 -3.62551 2.24631 0
M  V30 1331 S 124.261 -3.7012 3.87004 0
M  V30 1332 C 125.417 -5.09154 3.64024 0
M  V30 1333 H 125.65 -1.88807 2.2965 0
M  V30 1334 H 123.183 -0.885901 1.26456 0
M  V30 1335 H 125.141 -3.99246 0.954602 0
M  V30 1336 H 123.802 -3.13696 0.159164 0
M  V30 1337 H 122.995 -4.61483 2.02606 0
M  V30 1338 H 122.597 -2.91119 2.34789 0
M  V30 1339 H 124.889 -5.95955 3.22248 0
M  V30 1340 H 125.832 -5.36213 4.62473 0
M  V30 1341 H 126.24 -4.79562 2.97793 0
M  V30 1342 N 125.638 -1.25649 -0.95132 0
M  V30 1343 C 126.586 -1.06118 -2.06982 0
M  V30 1344 C 127.58 0.00889169 -1.69398 0
M  V30 1345 O 128.786 -0.146988 -1.79399 0
M  V30 1346 H 125.161 -0.326248 -0.677544 0
M  V30 1347 H 127.132 -2.00932 -2.2061 0
M  V30 1348 C 125.881 -0.700145 -3.40578 0
M  V30 1349 H 125.204 -1.51537 -3.69968 0
M  V30 1350 H 126.644 -0.603211 -4.19687 0
M  V30 1351 C 125.103 0.59403 -3.31622 0
M  V30 1352 O 125.633 1.63522 -3.66911 0
M  V30 1353 N 123.839 0.58089 -2.84735 0
M  V30 1354 H 123.386 -0.266783 -2.56215 0
M  V30 1355 H 123.344 1.44695 -2.79125 0
M  V30 1356 N 127.117 1.15442 -1.07289 0
M  V30 1357 C 128.528 1.67803 -0.818475 0
M  V30 1358 C 128.879 1.8489 0.656507 0
M  V30 1359 O 128.004 1.55176 1.50829 0
M  V30 1360 C 128.599 3.04805 -1.47917 0
M  V30 1361 C 127.158 3.54245 -1.27229 0
M  V30 1362 C 126.305 2.29986 -1.54925 0
M  V30 1363 H 129.256 0.996646 -1.23502 0
M  V30 1364 H 129.277 3.69702 -0.90005 0
M  V30 1365 H 128.789 2.92336 -2.55267 0
M  V30 1366 H 126.89 3.71956 -0.21899 0
M  V30 1367 H 127.003 4.35723 -1.99203 0
M  V30 1368 H 125.367 2.35496 -0.970242 0
M  V30 1369 H 126.15 2.20105 -2.63455 0
M  V30 1370 N 128.595 0.856903 1.32268 0
M  V30 1371 C 129.835 0.467705 1.98977 0
M  V30 1372 C 130.199 -0.959231 1.66321 0
M  V30 1373 O 131.4 -1.4531 2.26138 0
M  V30 1374 C 129.671 0.70256 3.50427 0
M  V30 1375 S 131.23 0.411269 4.36868 0
M  V30 1376 H 128.048 0.175121 0.689096 0
M  V30 1377 H 130.65 1.1101 1.60925 0
M  V30 1378 H 129.354 1.74012 3.71683 0
M  V30 1379 H 128.885 0.0466707 3.93372 0
M  V30 1380 H 130.9 -0.761799 4.90317 0
M  V30 1381 N 130.073 -1.45103 0.615059 0
M  V30 1382 C 131.484 -1.85654 0.197383 0
M  V30 1383 C 131.835 -1.51433 -1.24749 0
M  V30 1384 O 130.96 -0.944608 -1.94695 0
M  V30 1385 C 131.555 -3.36972 0.351448 0
M  V30 1386 C 130.114 -3.76398 -0.011593 0
M  V30 1387 C 129.261 -2.69024 0.672394 0
M  V30 1388 H 132.212 -1.35797 0.821263 0
M  V30 1389 H 132.233 -3.78239 -0.414227 0
M  V30 1390 H 131.745 -3.61847 1.40314 0
M  V30 1391 H 129.846 -3.5714 -1.06217 0
M  V30 1392 H 129.959 -4.77532 0.387265 0
M  V30 1393 H 128.323 -2.54465 0.109284 0
M  V30 1394 H 129.106 -2.96735 1.72636 0
M  V30 1395 N 131.551 -0.354651 -1.53558 0
M  V30 1396 C 132.481 0.489091 -2.2832 0
M  V30 1397 C 133.462 1.09324 -1.30316 0
M  V30 1398 O 134.647 1.11255 -1.59173 0
M  V30 1399 C 131.777 1.63456 -3.0643 0
M  V30 1400 C 130.731 1.1582 -4.12031 0
M  V30 1401 C 130.057 2.39305 -4.7816 0
M  V30 1402 C 131.357 0.250731 -5.21698 0
M  V30 1403 H 133.051 -0.134614 -2.99097 0
M  V30 1404 H 130.597 -0.0661826 -1.43848 0
M  V30 1405 H 132.55 2.23136 -3.57475 0
M  V30 1406 H 131.274 2.28533 -2.33325 0
M  V30 1407 H 129.933 0.584146 -3.61916 0
M  V30 1408 H 129.581 3.02814 -4.01637 0
M  V30 1409 H 129.281 2.08109 -5.49513 0
M  V30 1410 H 130.805 2.99691 -5.31994 0
M  V30 1411 H 132.219 0.754695 -5.68311 0
M  V30 1412 H 130.616 0.0301468 -6.00092 0
M  V30 1413 H 131.686 -0.710125 -4.79672 0
M  V30 1414 N 133.029 1.57378 -0.0835403 0
M  V30 1415 C 134.259 1.97975 0.590713 0
M  V30 1416 C 134.667 0.961083 1.62972 0
M  V30 1417 O 134.01 -0.0590879 1.83605 0
M  V30 1418 C 134.072 3.34915 1.3066 0
M  V30 1419 C 133.736 4.55069 0.419698 0
M  V30 1420 C 134.733 5.18868 -0.32749 0
M  V30 1421 C 132.418 5.0114 0.341137 0
M  V30 1422 C 134.412 6.27098 -1.14134 0
M  V30 1423 C 132.099 6.0924 -0.476374 0
M  V30 1424 C 133.097 6.72083 -1.21627 0
M  V30 1425 O 132.785 7.781 -2.02028 0
M  V30 1426 H 132.517 0.655818 0.163947 0
M  V30 1427 H 135.071 2.04807 -0.156021 0
M  V30 1428 H 133.301 3.24733 2.09966 0
M  V30 1429 H 134.99 3.60037 1.87424 0
M  V30 1430 H 135.756 4.84211 -0.276459 0
M  V30 1431 H 131.635 4.51996 0.90668 0
M  V30 1432 H 135.179 6.7608 -1.71935 0
M  V30 1433 H 131.076 6.43329 -0.528927 0
M  V30 1434 H 131.844 7.95034 -1.94586 0
M  V30 1435 N 134.507 -0.190092 1.56449 0
M  V30 1436 C 135.784 -0.935886 1.71757 0
M  V30 1437 C 136.164 -2.01173 0.639726 0
M  V30 1438 O 135.512 -2.25827 -0.348502 0
M  V30 1439 C 135.722 -1.51775 3.1427 0
M  V30 1440 C 137.07 -1.99794 3.74656 0
M  V30 1441 O 138.094 -1.61607 3.1743 0
M  V30 1442 O 136.953 -2.70079 4.751 0
M  V30 1443 H 134.047 -0.439229 0.700719 0
M  V30 1444 H 136.593 -0.179395 1.68749 0
M  V30 1445 H 135.365 -0.742505 3.84191 0
M  V30 1446 H 134.988 -2.33894 3.21527 0
M  V30 1447 N 135.985 -1.50799 -0.457987 0
M  V30 1448 C 136.948 -1.7005 -1.53674 0
M  V30 1449 C 137.948 -0.570881 -1.50325 0
M  V30 1450 O 139.138 -0.838126 -1.52712 0
M  V30 1451 C 136.27 -1.73788 -2.93276 0
M  V30 1452 H 137.463 -2.66306 -1.37917 0
M  V30 1453 H 135.016 -1.40477 -0.685271 0
M  V30 1454 H 135.751 -0.792717 -3.14462 0
M  V30 1455 H 135.536 -2.55864 -2.97113 0
M  V30 1456 H 137.026 -1.90591 -3.71571 0
M  V30 1457 N 137.463 0.71206 -1.40597 0
M  V30 1458 C 138.395 1.83704 -1.37061 0
M  V30 1459 C 139.408 1.60453 -0.275426 0
M  V30 1460 O 140.597 1.70262 -0.53602 0
M  V30 1461 C 137.697 3.20172 -1.11099 0
M  V30 1462 C 136.87 3.7059 -2.3234 0
M  V30 1463 C 135.929 4.85681 -2.02485 0
M  V30 1464 O 134.955 4.9815 -2.75382 0
M  V30 1465 N 136.157 5.71735 -1.00497 0
M  V30 1466 H 138.922 1.87235 -2.34016 0
M  V30 1467 H 136.483 0.893739 -1.34996 0
M  V30 1468 H 138.475 3.94768 -0.891064 0
M  V30 1469 H 137.045 3.11767 -0.227989 0
M  V30 1470 H 136.265 2.87085 -2.7014 0
M  V30 1471 H 137.553 4.01011 -3.13157 0
M  V30 1472 H 136.951 5.64275 -0.401298 0
M  V30 1473 H 135.508 6.463 -0.844942 0
M  V30 1474 N 138.941 1.26152 0.944643 0
M  V30 1475 C 140.169 1.14259 1.72489 0
M  V30 1476 C 140.584 -0.302555 1.8636 0
M  V30 1477 O 139.941 -1.20741 1.36849 0
M  V30 1478 C 139.992 1.80266 3.13347 0
M  V30 1479 O 139.713 3.19133 3.00143 0
M  V30 1480 C 141.214 1.74283 4.07603 0
M  V30 1481 H 138.434 0.398051 0.540181 0
M  V30 1482 H 140.978 1.66706 1.18446 0
M  V30 1483 H 139.133 1.31766 3.64303 0
M  V30 1484 H 139.547 3.51744 3.89071 0
M  V30 1485 H 141.021 2.25111 5.04013 0
M  V30 1486 H 141.498 0.708631 4.33446 0
M  V30 1487 H 142.104 2.22319 3.62567 0
M  V30 1488 N 140.419 -1.14872 1.07899 0
M  V30 1489 C 141.667 -1.85422 0.803941 0
M  V30 1490 C 141.988 -1.83051 -0.67211 0
M  V30 1491 O 141.258 -1.27532 -1.48703 0
M  V30 1492 H 139.838 -0.686537 0.294408 0
M  V30 1493 H 142.5 -1.39226 1.3639 0
M  V30 1494 H 141.596 -2.90399 1.14346 0
M  V30 1495 N 141.898 -0.863906 -1.31812 0
M  V30 1496 C 143.126 -0.486111 -2.01108 0
M  V30 1497 C 143.541 0.919755 -1.64882 0
M  V30 1498 O 142.898 1.60162 -0.874893 0
M  V30 1499 C 142.949 -0.626435 -3.56031 0
M  V30 1500 O 142.67 -1.97693 -3.90959 0
M  V30 1501 C 144.171 -0.248857 -4.42601 0
M  V30 1502 H 141.391 -0.190052 -0.643523 0
M  V30 1503 H 143.935 -1.1634 -1.68182 0
M  V30 1504 H 142.09 0.00322717 -3.874 0
M  V30 1505 H 142.504 -1.98034 -4.85678 0
M  V30 1506 H 143.978 -0.398016 -5.50563 0
M  V30 1507 H 144.455 0.811489 -4.31638 0
M  V30 1508 H 145.061 -0.853971 -4.16638 0
M  V30 1509 N 143.376 1.44774 -0.622745 0
M  V30 1510 C 144.306 2.33382 0.0741861 0
M  V30 1511 C 145.287 1.47719 0.843387 0
M  V30 1512 O 146.472 1.76458 0.810934 0
M  V30 1513 C 143.602 3.30663 1.06204 0
M  V30 1514 C 142.556 4.26079 0.405037 0
M  V30 1515 C 141.882 5.13165 1.5022 0
M  V30 1516 C 143.182 5.1781 -0.683414 0
M  V30 1517 H 144.876 2.91905 -0.665713 0
M  V30 1518 H 142.422 1.40363 -0.321587 0
M  V30 1519 H 144.375 3.9153 1.55827 0
M  V30 1520 H 143.099 2.70331 1.83272 0
M  V30 1521 H 141.758 3.66532 -0.0704683 0
M  V30 1522 H 141.406 4.49191 2.26355 0
M  V30 1523 H 141.106 5.77812 1.06803 0
M  V30 1524 H 142.63 5.76902 2.00041 0
M  V30 1525 H 144.044 5.72661 -0.270631 0
M  V30 1526 H 142.441 5.91015 -1.04023 0
M  V30 1527 H 143.511 4.59326 -1.55395 0
M  V30 1528 N 144.854 0.36279 1.53368 0
M  V30 1529 C 146.101 -0.227776 2.01215 0
M  V30 1530 C 146.429 -1.49003 1.25014 0
M  V30 1531 O 145.684 -1.92876 0.331236 0
M  V30 1532 C 145.983 -0.568417 3.52851 0
M  V30 1533 C 145.649 0.59918 4.46901 0
M  V30 1534 C 144.311 0.919559 4.72332 0
M  V30 1535 C 146.663 1.38156 5.02556 0
M  V30 1536 C 143.991 2.02434 5.5067 0
M  V30 1537 C 146.343 2.47674 5.821 0
M  V30 1538 C 145.007 2.8025 6.05819 0
M  V30 1539 H 144.277 -0.083349 0.736297 0
M  V30 1540 H 146.924 0.494677 1.85001 0
M  V30 1541 H 145.229 -1.37185 3.66998 0
M  V30 1542 H 146.926 -1.03756 3.87344 0
M  V30 1543 H 143.516 0.339437 4.27254 0
M  V30 1544 H 147.7 1.14729 4.82857 0
M  V30 1545 H 142.956 2.28075 5.67267 0
M  V30 1546 H 147.13 3.08716 6.24234 0
M  V30 1547 H 144.757 3.65979 6.66306 0
M  V30 1548 N 146.332 -1.57332 0.0918853 0
M  V30 1549 C 147.262 -2.16872 -0.865371 0
M  V30 1550 C 148.243 -1.10118 -1.29646 0
M  V30 1551 O 149.428 -1.38242 -1.36392 0
M  V30 1552 C 146.558 -2.74649 -2.12569 0
M  V30 1553 C 145.512 -3.86747 -1.83333 0
M  V30 1554 C 144.838 -4.31212 -3.16166 0
M  V30 1555 C 146.138 -5.10089 -1.1228 0
M  V30 1556 H 147.832 -2.97114 -0.369307 0
M  V30 1557 H 145.378 -1.42918 -0.176194 0
M  V30 1558 H 147.331 -3.14952 -2.7997 0
M  V30 1559 H 146.055 -1.91657 -2.64452 0
M  V30 1560 H 144.714 -3.46978 -1.18331 0
M  V30 1561 H 144.362 -3.45115 -3.6593 0
M  V30 1562 H 144.062 -5.06788 -2.97388 0
M  V30 1563 H 145.586 -4.74146 -3.84731 0
M  V30 1564 H 147 -5.47582 -1.69785 0
M  V30 1565 H 145.397 -5.91073 -1.03693 0
M  V30 1566 H 146.467 -4.84786 -0.105041 0
M  V30 1567 N 147.81 0.181792 -1.56548 0
M  V30 1568 C 149.057 0.900097 -1.81396 0
M  V30 1569 C 149.385 1.82695 -0.667281 0
M  V30 1570 O 148.64 1.92614 0.346146 0
M  V30 1571 C 148.939 1.73728 -3.12335 0
M  V30 1572 C 148.605 0.960255 -4.40556 0
M  V30 1573 C 147.267 0.745766 -4.75386 0
M  V30 1574 C 149.619 0.414477 -5.19549 0
M  V30 1575 C 146.947 -0.0257694 -5.86694 0
M  V30 1576 C 149.299 -0.343916 -6.31664 0
M  V30 1577 C 147.963 -0.569301 -6.65068 0
M  V30 1578 H 147.233 0.329369 -0.663775 0
M  V30 1579 H 149.88 0.165647 -1.90782 0
M  V30 1580 H 148.185 2.54081 -2.98245 0
M  V30 1581 H 149.882 2.29591 -3.28769 0
M  V30 1582 H 146.472 1.13746 -4.13231 0
M  V30 1583 H 150.656 0.567554 -4.93044 0
M  V30 1584 H 145.912 -0.210233 -6.11038 0
M  V30 1585 H 150.086 -0.774133 -6.92084 0
M  V30 1586 H 147.713 -1.16903 -7.51158 0
M  V30 1587 N 149.288 1.51039 0.449983 0
M  V30 1588 C 150.535 1.63081 1.20045 0
M  V30 1589 C 150.863 0.341024 1.91487 0
M  V30 1590 O 150.118 -0.674276 1.83717 0
M  V30 1591 C 150.417 2.77556 2.25161 0
M  V30 1592 C 150.083 4.17289 1.70823 0
M  V30 1593 C 148.745 4.55305 1.55725 0
M  V30 1594 C 151.097 5.04536 1.3074 0
M  V30 1595 C 148.425 5.78287 0.989999 0
M  V30 1596 C 150.777 6.28085 0.754482 0
M  V30 1597 C 149.441 6.64885 0.590308 0
M  V30 1598 H 148.711 0.596755 0.439277 0
M  V30 1599 H 151.358 1.85037 0.49333 0
M  V30 1600 H 149.663 2.49771 3.01863 0
M  V30 1601 H 151.36 2.84073 2.83026 0
M  V30 1602 H 147.95 3.8731 1.83546 0
M  V30 1603 H 152.134 4.75782 1.41229 0
M  V30 1604 H 147.39 6.05456 0.850451 0
M  V30 1605 H 151.564 6.95038 0.435324 0
M  V30 1606 H 149.191 7.60055 0.14862 0
M  V30 1607 N 150.766 -0.704594 1.40972 0
M  V30 1608 C 152.015 -1.46018 1.39146 0
M  V30 1609 C 152.328 -1.956 0.000589254 0
M  V30 1610 O 153.534 -2.71137 -0.1403 0
M  V30 1611 C 151.99 -2.63996 2.4461 0
M  V30 1612 C 151.598 -2.21238 3.89561 0
M  V30 1613 C 153.342 -3.41677 2.51907 0
M  V30 1614 C 151.249 -3.3612 4.86598 0
M  V30 1615 H 150.179 -0.548444 0.517422 0
M  V30 1616 H 152.83 -0.765784 1.66757 0
M  V30 1617 H 151.212 -3.3566 2.10115 0
M  V30 1618 H 152.386 -1.56923 4.33257 0
M  V30 1619 H 150.701 -1.56574 3.85841 0
M  V30 1620 H 153.298 -4.27182 3.2159 0
M  V30 1621 H 153.641 -3.86247 1.55303 0
M  V30 1622 H 154.174 -2.77064 2.85448 0
M  V30 1623 H 150.913 -2.96572 5.84573 0
M  V30 1624 H 150.433 -3.99315 4.47557 0
M  V30 1625 H 152.112 -4.02029 5.06934 0
M  V30 1626 N 152.244 -1.26651 -0.937939 0
M  V30 1627 C 153.207 -1.08546 -2.01867 0
M  V30 1628 C 154.207 -0.0327327 -1.60767 0
M  V30 1629 O 155.397 -0.276427 -1.71993 0
M  V30 1630 C 152.529 -0.651711 -3.34613 0
M  V30 1631 H 153.722 -2.04502 -2.1936 0
M  V30 1632 H 151.275 -1.09294 -1.11734 0
M  V30 1633 H 152.01 0.309696 -3.22818 0
M  V30 1634 H 151.795 -1.41189 -3.65798 0
M  V30 1635 H 153.285 -0.546973 -4.14002 0
M  V30 1636 N 153.722 1.14298 -1.08507 0
M  V30 1637 C 154.971 1.84708 -0.810305 0
M  V30 1638 C 155.284 1.83903 0.666271 0
M  V30 1639 O 156.49 2.50112 1.05624 0
M  V30 1640 C 154.946 3.31572 -1.39957 0
M  V30 1641 C 154.554 3.40791 -2.90801 0
M  V30 1642 C 156.298 4.07087 -1.20334 0
M  V30 1643 C 154.205 4.81872 -3.4286 0
M  V30 1644 H 153.135 0.691985 -0.299454 0
M  V30 1645 H 155.786 1.28841 -1.30661 0
M  V30 1646 H 154.168 3.87183 -0.830976 0
M  V30 1647 H 155.342 2.95225 -3.53806 0
M  V30 1648 H 153.657 2.78732 -3.0935 0
M  V30 1649 H 156.254 5.11225 -1.56693 0
M  V30 1650 H 156.597 4.16054 -0.143237 0
M  V30 1651 H 157.13 3.57779 -1.73893 0
M  V30 1652 H 153.869 4.78094 -4.48449 0
M  V30 1653 H 153.389 5.27972 -2.84615 0
M  V30 1654 H 155.068 5.50765 -3.39509 0
M  V30 1655 N 155.201 0.870884 1.31352 0
M  V30 1656 C 156.612 0.534714 1.78879 0
M  V30 1657 C 156.963 -0.948423 1.71754 0
M  V30 1658 O 156.088 -1.74055 1.28584 0
M  V30 1659 C 156.683 0.963839 3.24801 0
M  V30 1660 C 155.242 0.679311 3.70219 0
M  V30 1661 C 154.389 1.15465 2.52117 0
M  V30 1662 H 157.34 1.05651 1.18421 0
M  V30 1663 H 157.361 0.286892 3.79417 0
M  V30 1664 H 156.873 2.04332 3.29955 0
M  V30 1665 H 154.974 -0.388769 3.70566 0
M  V30 1666 H 155.087 1.25698 4.62317 0
M  V30 1667 H 153.451 0.574383 2.48139 0
M  V30 1668 H 154.234 2.24157 2.60016 0
M  V30 1669 N 156.679 -1.44442 0.630414 0
M  V30 1670 C 157.927 -2.01653 0.134351 0
M  V30 1671 C 158.248 -1.49836 -1.24796 0
M  V30 1672 O 157.518 -0.701684 -1.82902 0
M  V30 1673 H 156.098 -0.74554 0.0466769 0
M  V30 1674 H 158.76 -1.76952 0.816955 0
M  V30 1675 H 157.856 -3.11935 0.101498 0
M  V30 1676 N 158.157 -0.370918 -1.53173 0
M  V30 1677 C 159.089 0.507823 -2.23503 0
M  V30 1678 C 160.102 1.04182 -1.251 0
M  V30 1679 O 161.291 0.947286 -1.5129 0
M  V30 1680 C 158.391 1.71447 -2.92334 0
M  V30 1681 C 157.564 1.31105 -4.17289 0
M  V30 1682 C 156.623 2.38035 -4.69282 0
M  V30 1683 O 155.649 2.00204 -5.32829 0
M  V30 1684 N 156.851 3.69697 -4.47554 0
M  V30 1685 H 159.616 -0.0946382 -2.99551 0
M  V30 1686 H 157.177 -0.196358 -1.60705 0
M  V30 1687 H 159.169 2.42469 -3.24023 0
M  V30 1688 H 157.739 2.22368 -2.19707 0
M  V30 1689 H 156.959 0.430462 -3.91843 0
M  V30 1690 H 158.247 1.0179 -4.98514 0
M  V30 1691 H 157.645 4.03205 -3.9679 0
M  V30 1692 H 156.202 4.36807 -4.8378 0
M  V30 1693 N 159.635 1.57281 -0.100228 0
M  V30 1694 C 160.881 1.94826 0.563101 0
M  V30 1695 C 161.214 0.982475 1.67514 0
M  V30 1696 O 160.489 0.0164069 1.94493 0
M  V30 1697 C 160.772 3.42453 1.11346 0
M  V30 1698 C 160.625 4.498 0.00612081 0
M  V30 1699 C 161.944 3.91506 2.01024 0
M  V30 1700 H 159.063 0.708428 0.203221 0
M  V30 1701 H 161.705 1.8922 -0.171979 0
M  V30 1702 H 159.855 3.47361 1.7399 0
M  V30 1703 H 161.527 4.57 -0.628357 0
M  V30 1704 H 159.77 4.28756 -0.659581 0
M  V30 1705 H 160.441 5.50306 0.432109 0
M  V30 1706 H 162.917 3.88784 1.48278 0
M  V30 1707 H 161.793 4.95358 2.36457 0
M  V30 1708 H 162.054 3.31099 2.92961 0
M  V30 1709 N 161.113 -0.173488 1.56642 0
M  V30 1710 C 162.341 -0.906095 1.86004 0
M  V30 1711 C 162.756 -1.75921 0.685355 0
M  V30 1712 O 162.113 -1.79198 -0.345578 0
M  V30 1713 C 162.164 -1.78462 3.14378 0
M  V30 1714 O 161.885 -0.965914 4.27319 0
M  V30 1715 C 163.386 -2.62707 3.57071 0
M  V30 1716 H 160.606 -0.263341 0.617165 0
M  V30 1717 H 163.15 -0.174236 2.03756 0
M  V30 1718 H 161.305 -2.46984 2.98459 0
M  V30 1719 H 161.719 -1.56655 5.00559 0
M  V30 1720 H 163.193 -3.19969 4.49804 0
M  V30 1721 H 163.67 -3.37472 2.81086 0
M  V30 1722 H 164.276 -1.99521 3.75595 0
M  V30 1723 N 162.591 -1.51276 -0.441967 0
M  V30 1724 C 163.501 -1.75092 -1.56141 0
M  V30 1725 C 164.517 -0.634963 -1.62001 0
M  V30 1726 O 165.693 -0.916686 -1.79329 0
M  V30 1727 C 162.758 -1.86666 -2.92158 0
M  V30 1728 C 161.819 -3.10506 -2.96453 0
M  V30 1729 C 161.052 -3.21519 -4.25982 0
M  V30 1730 O 161.275 -2.38586 -5.18105 0
M  V30 1731 O 160.209 -4.14465 -4.36466 0
M  V30 1732 H 164.035 -2.70044 -1.38961 0
M  V30 1733 H 161.62 -1.35722 -0.624499 0
M  V30 1734 H 163.502 -1.96292 -3.72891 0
M  V30 1735 H 162.177 -0.949014 -3.09476 0
M  V30 1736 H 161.084 -3.06363 -2.14692 0
M  V30 1737 H 162.417 -4.01945 -2.84079 0
M  V30 1738 N 164.069 0.697108 -1.41344 0
M  V30 1739 C 165.001 1.8224 -1.39001 0
M  V30 1740 C 166.014 1.60152 -0.292428 0
M  V30 1741 O 167.203 1.69684 -0.554048 0
M  V30 1742 C 164.303 3.18976 -1.14489 0
M  V30 1743 C 163.476 3.68105 -2.36258 0
M  V30 1744 C 162.535 4.83506 -2.07625 0
M  V30 1745 O 161.561 4.95201 -2.8065 0
M  V30 1746 N 162.763 5.70637 -1.06555 0
M  V30 1747 H 165.528 1.84742 -2.35988 0
M  V30 1748 H 163.089 0.87937 -1.35936 0
M  V30 1749 H 165.081 3.93801 -0.932885 0
M  V30 1750 H 163.651 3.11508 -0.261043 0
M  V30 1751 H 162.871 2.84204 -2.7317 0
M  V30 1752 H 164.159 3.97667 -3.17393 0
M  V30 1753 H 163.557 5.63817 -0.461125 0
M  V30 1754 H 162.114 6.45368 -0.913444 0
M  V30 1755 N 165.547 1.27147 0.931209 0
M  V30 1756 C 166.479 1.05364 2.03546 0
M  V30 1757 C 167.492 0.0108438 1.62796 0
M  V30 1758 O 168.681 0.25202 1.76712 0
M  V30 1759 C 165.781 0.575566 3.33977 0
M  V30 1760 C 164.954 1.68985 4.03439 0
M  V30 1761 C 164.013 1.20813 5.12143 0
M  V30 1762 O 163.039 1.90712 5.363 0
M  V30 1763 N 164.241 0.0618851 5.80467 0
M  V30 1764 H 167.006 2.00454 2.22796 0
M  V30 1765 H 164.567 1.18666 1.10136 0
M  V30 1766 H 166.559 0.237264 4.04004 0
M  V30 1767 H 165.129 -0.282016 3.11325 0
M  V30 1768 H 164.349 2.19861 3.27192 0
M  V30 1769 H 165.637 2.4378 4.46597 0
M  V30 1770 H 165.035 -0.521621 5.6329 0
M  V30 1771 H 163.592 -0.217264 6.51438 0
M  V30 1772 N 167.025 -1.13721 1.09112 0
M  V30 1773 C 167.957 -2.1871 0.685467 0
M  V30 1774 C 168.97 -1.60527 -0.271068 0
M  V30 1775 O 170.159 -1.78407 -0.0576148 0
M  V30 1776 C 167.259 -3.38898 -0.0111255 0
M  V30 1777 C 166.432 -4.26597 0.966131 0
M  V30 1778 C 165.491 -5.25324 0.303539 0
M  V30 1779 O 164.517 -5.61213 0.950177 0
M  V30 1780 N 165.719 -5.72779 -0.943651 0
M  V30 1781 H 168.484 -2.54126 1.58871 0
M  V30 1782 H 166.045 -1.29012 0.978143 0
M  V30 1783 H 168.037 -4.02014 -0.465517 0
M  V30 1784 H 166.607 -3.01747 -0.816565 0
M  V30 1785 H 165.827 -3.60306 1.59917 0
M  V30 1786 H 167.115 -4.82048 1.6281 0
M  V30 1787 H 166.513 -5.45762 -1.48862 0
M  V30 1788 H 165.07 -6.37847 -1.34142 0
M  V30 1789 N 168.503 -0.877838 -1.30888 0
M  V30 1790 C 169.433 -0.35534 -2.3078 0
M  V30 1791 C 170.414 0.557994 -1.60687 0
M  V30 1792 O 171.599 0.473355 -1.88343 0
M  V30 1793 C 168.729 0.437221 -3.44537 0
M  V30 1794 C 167.683 -0.383715 -4.26276 0
M  V30 1795 C 167.009 0.535014 -5.32017 0
M  V30 1796 C 168.309 -1.62201 -4.96476 0
M  V30 1797 H 170.003 -1.19007 -2.74732 0
M  V30 1798 H 167.549 -0.573698 -1.32078 0
M  V30 1799 H 169.502 0.813334 -4.13477 0
M  V30 1800 H 168.226 1.30553 -2.99372 0
M  V30 1801 H 166.885 -0.741874 -3.59015 0
M  V30 1802 H 166.533 1.40083 -4.831 0
M  V30 1803 H 166.233 -0.0104211 -5.87599 0
M  V30 1804 H 167.757 0.907799 -6.03814 0
M  V30 1805 H 169.171 -1.31689 -5.5797 0
M  V30 1806 H 167.568 -2.10711 -5.61891 0
M  V30 1807 H 168.638 -2.37044 -4.23011 0
M  V30 1808 N 169.982 1.44106 -0.638065 0
M  V30 1809 C 170.914 2.28976 0.101205 0
M  V30 1810 C 171.927 1.4167 0.802088 0
M  V30 1811 O 173.116 1.65755 0.662375 0
M  V30 1812 C 170.216 3.18217 1.16581 0
M  V30 1813 C 169.389 4.33978 0.546066 0
M  V30 1814 C 168.448 5.04202 1.50554 0
M  V30 1815 O 167.474 5.59986 1.01999 0
M  V30 1816 N 168.676 5.06296 2.8398 0
M  V30 1817 H 171.441 2.93064 -0.627186 0
M  V30 1818 H 169.002 1.54629 -0.479731 0
M  V30 1819 H 170.994 3.62061 1.80815 0
M  V30 1820 H 169.564 2.55833 1.79634 0
M  V30 1821 H 168.784 3.93239 -0.275046 0
M  V30 1822 H 170.072 5.08675 0.112793 0
M  V30 1823 H 169.47 4.62319 3.26002 0
M  V30 1824 H 168.027 5.53907 3.43556 0
M  V30 1825 N 171.46 0.379036 1.52974 0
M  V30 1826 C 172.688 -0.20679 2.05864 0
M  V30 1827 C 173.103 -1.41356 1.25155 0
M  V30 1828 O 172.46 -1.8009 0.295588 0
M  V30 1829 C 172.511 -0.587045 3.56702 0
M  V30 1830 O 172.232 0.571776 4.34353 0
M  V30 1831 C 173.733 -1.22983 4.25899 0
M  V30 1832 H 170.953 -0.0336123 0.670158 0
M  V30 1833 H 173.497 0.541298 1.97206 0
M  V30 1834 H 171.652 -1.28504 3.65466 0
M  V30 1835 H 172.066 0.261544 5.23847 0
M  V30 1836 H 173.54 -1.44635 5.32715 0
M  V30 1837 H 174.017 -2.19416 3.80465 0
M  V30 1838 H 174.623 -0.572892 4.21424 0
M  V30 1839 N 172.938 -1.57226 0.108567 0
M  V30 1840 C 174.354 -1.5766 -0.248058 0
M  V30 1841 C 174.554 -1.12063 -1.67464 0
M  V30 1842 O 173.61 -0.803236 -2.39383 0
M  V30 1843 C 174.923 -3.0069 -0.0242287 0
M  V30 1844 C 176.471 -3.12868 -0.0909372 0
M  V30 1845 C 176.946 -4.57879 0.105067 0
M  V30 1846 N 178.437 -4.63172 0.0506846 0
M  V30 1847 C 179.172 -5.73126 0.177396 0
M  V30 1848 N 178.668 -6.91866 0.359696 0
M  V30 1849 N 180.461 -5.61977 0.117709 0
M  V30 1850 H 172.612 -1.85169 1.04049 0
M  V30 1851 H 174.875 -0.85529 0.40888 0
M  V30 1852 H 174.581 -3.38299 0.961604 0
M  V30 1853 H 174.455 -3.6945 -0.76068 0
M  V30 1854 H 176.842 -2.75124 -1.06729 0
M  V30 1855 H 176.923 -2.46672 0.677225 0
M  V30 1856 H 176.567 -4.96321 1.07834 0
M  V30 1857 H 176.497 -5.22153 -0.682954 0
M  V30 1858 H 178.988 -3.778 -0.0871266 0
M  V30 1859 H 179.301 -7.71503 0.447529 0
M  V30 1860 H 177.646 -6.93874 0.395536 0
M  V30 1861 H 180.837 -4.68094 -0.0236741 0
M  V30 1862 H 181.01 -6.47627 0.219905 0
M  V30 1863 N 174.416 0.165178 -1.56732 0
M  V30 1864 C 175.379 1.18822 -1.95995 0
M  V30 1865 C 176.379 1.3685 -0.84431 0
M  V30 1866 O 177.569 1.34152 -1.11126 0
M  V30 1867 C 174.701 2.5521 -2.26011 0
M  V30 1868 H 175.894 0.851825 -2.87548 0
M  V30 1869 H 173.447 0.407857 -1.50885 0
M  V30 1870 H 174.182 2.93852 -1.37191 0
M  V30 1871 H 173.967 2.43489 -3.07336 0
M  V30 1872 H 175.457 3.28927 -2.57288 0
M  V30 1873 N 175.894 1.51508 0.433938 0
M  V30 1874 C 176.842 1.73646 1.54757 0
M  V30 1875 C 177.836 0.602854 1.5831 0
M  V30 1876 O 179.042 0.784318 1.62014 0
M  V30 1877 H 175.417 0.548718 0.51421 0
M  V30 1878 H 177.388 2.66991 1.33261 0
M  V30 1879 C 176.137 1.88172 2.92381 0
M  V30 1880 H 175.46 2.74808 2.90381 0
M  V30 1881 H 176.9 2.07672 3.6966 0
M  V30 1882 C 175.359 0.64239 3.30719 0
M  V30 1883 O 175.889 -0.201362 4.01195 0
M  V30 1884 N 174.095 0.485489 2.86516 0
M  V30 1885 H 173.642 1.17318 2.29334 0
M  V30 1886 H 173.6 -0.342482 3.12529 0
M  V30 1887 N 177.372 -0.689602 1.41712 0
M  V30 1888 C 178.618 -1.45181 1.41599 0
M  V30 1889 C 178.951 -1.94181 0.0270081 0
M  V30 1890 O 178.226 -1.6993 -0.946265 0
M  V30 1891 C 178.509 -2.65945 2.42787 0
M  V30 1892 C 178.362 -2.22672 3.90816 0
M  V30 1893 C 179.681 -3.68149 2.41151 0
M  V30 1894 H 176.8 -0.526576 0.515642 0
M  V30 1895 H 179.442 -0.784947 1.73028 0
M  V30 1896 H 177.592 -3.2284 2.16116 0
M  V30 1897 H 179.264 -1.71058 4.28412 0
M  V30 1898 H 177.507 -1.54394 4.05395 0
M  V30 1899 H 178.178 -3.0935 4.57172 0
M  V30 1900 H 180.654 -3.2094 2.64834 0
M  V30 1901 H 179.53 -4.50248 3.13955 0
M  V30 1902 H 179.791 -4.18259 1.43221 0
M  V30 1903 N 178.85 -1.27639 -0.924453 0
M  V30 1904 C 180.078 -1.16989 -1.70649 0
M  V30 1905 C 180.493 0.272869 -1.86818 0
M  V30 1906 O 179.85 1.18549 -1.38753 0
M  V30 1907 C 179.901 -1.85229 -3.10439 0
M  V30 1908 O 179.622 -3.23868 -2.95028 0
M  V30 1909 C 181.123 -1.80746 -4.04779 0
M  V30 1910 H 178.343 -0.406595 -0.53378 0
M  V30 1911 H 180.887 -1.68569 -1.15778 0
M  V30 1912 H 179.042 -1.37545 -3.6216 0
M  V30 1913 H 179.456 -3.57889 -3.83426 0
M  V30 1914 H 180.93 -2.33101 -5.00368 0
M  V30 1915 H 181.407 -0.777499 -4.32263 0
M  V30 1916 H 182.013 -2.28059 -3.58984 0
M  V30 1917 N 180.328 1.1314 -1.09713 0
M  V30 1918 C 181.744 1.36477 -0.827423 0
M  V30 1919 C 181.944 1.93654 0.556817 0
M  V30 1920 O 181 2.15791 1.31112 0
M  V30 1921 C 182.313 2.31334 -1.92106 0
M  V30 1922 C 183.861 2.44943 -1.94864 0
M  V30 1923 C 184.336 3.4311 -3.0338 0
M  V30 1924 N 185.827 3.50662 -3.02639 0
M  V30 1925 C 186.562 4.2651 -3.83246 0
M  V30 1926 N 186.058 5.05485 -4.73768 0
M  V30 1927 N 187.851 4.2184 -3.71493 0
M  V30 1928 H 180.002 0.743807 -1.9895 0
M  V30 1929 H 182.265 0.389823 -0.864143 0
M  V30 1930 H 181.971 1.96483 -2.91698 0
M  V30 1931 H 181.845 3.31381 -1.80184 0
M  V30 1932 H 184.232 2.79079 -0.959099 0
M  V30 1933 H 184.313 1.4481 -2.10864 0
M  V30 1934 H 183.957 3.09704 -4.02549 0
M  V30 1935 H 183.887 4.43055 -2.84622 0
M  V30 1936 H 186.378 2.94315 -2.37039 0
M  V30 1937 H 186.691 5.60675 -5.3185 0
M  V30 1938 H 185.036 5.04708 -4.77802 0
M  V30 1939 H 188.227 3.5922 -3.00131 0
M  V30 1940 H 188.4 4.80697 -4.3455 0
M  V30 1941 N 181.806 0.884767 1.30421 0
M  V30 1942 C 182.736 0.367574 2.30589 0
M  V30 1943 C 183.717 -0.549464 1.60981 0
M  V30 1944 O 184.902 -0.46336 1.88591 0
M  V30 1945 C 182.032 -0.418944 3.44764 0
M  V30 1946 C 180.986 0.406316 4.26067 0
M  V30 1947 C 180.312 -0.506793 5.32293 0
M  V30 1948 C 181.612 1.64832 4.95608 0
M  V30 1949 H 183.306 1.20462 2.74097 0
M  V30 1950 H 180.852 0.580695 1.31772 0
M  V30 1951 H 182.805 -0.791395 4.13902 0
M  V30 1952 H 181.529 -1.28964 3.0006 0
M  V30 1953 H 180.188 0.760903 3.58617 0
M  V30 1954 H 179.836 -1.37519 4.83836 0
M  V30 1955 H 179.536 0.0415828 5.87585 0
M  V30 1956 H 181.06 -0.875764 6.04287 0
M  V30 1957 H 182.474 1.34646 5.57264 0
M  V30 1958 H 180.871 2.13688 5.60765 0
M  V30 1959 H 181.941 2.39284 4.21748 0
M  V30 1960 N 183.284 -1.43765 0.645699 0
M  V30 1961 C 184.524 -2.03776 0.159542 0
M  V30 1962 C 184.888 -1.49792 -1.2011 0
M  V30 1963 O 186.089 -2.01398 -1.78023 0
M  V30 1964 C 184.36 -3.57036 0.161251 0
M  V30 1965 S 185.919 -4.3804 -0.258159 0
M  V30 1966 H 182.737 -0.707717 0.0682454 0
M  V30 1967 H 185.339 -1.75941 0.852352 0
M  V30 1968 H 184.043 -3.9383 1.15439 0
M  V30 1969 H 183.574 -3.89503 -0.552339 0
M  V30 1970 H 185.589 -4.7302 -1.49889 0
M  V30 1971 N 184.763 -0.387143 -1.52771 0
M  V30 1972 C 185.695 0.484089 -2.2403 0
M  V30 1973 C 186.708 1.02849 -1.26198 0
M  V30 1974 O 187.897 0.931186 -1.52286 0
M  V30 1975 C 184.997 1.68337 -2.94136 0
M  V30 1976 C 184.17 1.26672 -4.18656 0
M  V30 1977 C 183.229 2.33045 -4.7178 0
M  V30 1978 O 182.255 1.94541 -5.34923 0
M  V30 1979 N 183.457 3.64929 -4.5145 0
M  V30 1980 H 186.222 -0.126404 -2.99433 0
M  V30 1981 H 183.783 -0.213392 -1.60488 0
M  V30 1982 H 185.775 2.39019 -3.26577 0
M  V30 1983 H 184.345 2.20025 -2.22053 0
M  V30 1984 H 183.565 0.388878 -3.92277 0
M  V30 1985 H 184.853 0.964964 -4.99566 0
M  V30 1986 H 184.251 3.98974 -4.01044 0
M  V30 1987 H 182.808 4.31651 -4.88386 0
M  V30 1988 N 186.241 1.57166 -0.116904 0
M  V30 1989 C 187.487 1.95412 0.542405 0
M  V30 1990 C 187.82 1.00019 1.66463 0
M  V30 1991 O 187.095 0.0370346 1.94465 0
M  V30 1992 C 187.378 3.43615 1.07708 0
M  V30 1993 C 187.231 4.49781 -0.0415868 0
M  V30 1994 C 188.55 3.93616 1.96861 0
M  V30 1995 H 185.669 0.710543 0.195696 0
M  V30 1996 H 188.311 1.89027 -0.192038 0
M  V30 1997 H 186.461 3.49187 1.70296 0
M  V30 1998 H 188.133 4.56308 -0.676793 0
M  V30 1999 H 186.376 4.28033 -0.705019 0
M  V30 2000 H 187.047 5.50733 0.373717 0
M  V30 2001 H 189.523 3.90335 1.44146 0
M  V30 2002 H 188.399 4.97838 2.3119 0
M  V30 2003 H 188.66 3.34188 2.89432 0
M  V30 2004 N 187.719 -0.156864 1.56817 0
M  V30 2005 C 188.947 -0.886316 1.86955 0
M  V30 2006 C 189.362 -1.75185 0.703975 0
M  V30 2007 O 188.719 -1.79555 -0.326552 0
M  V30 2008 C 188.77 -1.75117 3.16253 0
M  V30 2009 O 188.491 -0.920537 4.2832 0
M  V30 2010 C 189.992 -2.58905 3.59837 0
M  V30 2011 H 187.212 -0.25678 0.619923 0
M  V30 2012 H 189.756 -0.152615 2.0393 0
M  V30 2013 H 187.911 -2.43805 3.01062 0
M  V30 2014 H 188.325 -1.51337 5.02192 0
M  V30 2015 H 189.799 -3.1518 4.53172 0
M  V30 2016 H 190.276 -3.34472 2.84649 0
M  V30 2017 H 190.882 -1.95526 3.7769 0
M  V30 2018 N 189.197 -1.51736 -0.425897 0
M  V30 2019 C 190.422 -1.69082 -1.20108 0
M  V30 2020 C 190.847 -0.392398 -1.83962 0
M  V30 2021 O 190.205 0.64858 -1.69302 0
M  V30 2022 C 190.253 -2.81604 -2.25237 0
M  V30 2023 O 189.357 -2.46004 -3.30992 0
M  V30 2024 H 188.698 -0.563408 -0.35138 0
M  V30 2025 H 191.228 -1.98358 -0.501512 0
M  V30 2026 H 191.238 -3.06025 -2.69838 0
M  V30 2027 H 189.913 -3.75817 -1.78142 0
M  V30 2028 H 188.49 -2.32195 -2.91787 0
M  V30 2029 N 190.675 0.682077 -1.42076 0
M  V30 2030 C 191.903 1.47057 -1.4554 0
M  V30 2031 C 192.318 1.8869 -0.0645779 0
M  V30 2032 O 191.675 1.57666 0.919115 0
M  V30 2033 C 191.726 2.72442 -2.37609 0
M  V30 2034 O 191.447 2.32559 -3.71279 0
M  V30 2035 C 192.948 3.66069 -2.50017 0
M  V30 2036 H 190.168 0.452737 -0.495248 0
M  V30 2037 H 192.712 0.838695 -1.8651 0
M  V30 2038 H 190.867 3.31835 -1.9991 0
M  V30 2039 H 191.281 3.13475 -4.20516 0
M  V30 2040 H 192.755 4.50792 -3.18576 0
M  V30 2041 H 193.232 4.11476 -1.53572 0
M  V30 2042 H 193.838 3.12572 -2.88407 0
M  V30 2043 N 192.153 1.28127 0.917671 0
M  V30 2044 C 193.43 1.05761 1.64542 0
M  V30 2045 C 193.81 -0.404344 2.07191 0
M  V30 2046 O 193.158 -1.38963 1.81388 0
M  V30 2047 C 193.368 2.02857 2.83989 0
M  V30 2048 C 194.716 2.32786 3.551 0
M  V30 2049 O 195.74 2.0091 2.94132 0
M  V30 2050 O 194.599 2.87169 4.64969 0
M  V30 2051 H 191.693 0.403916 0.721652 0
M  V30 2052 H 194.239 1.39431 0.967322 0
M  V30 2053 H 193.011 3.01407 2.49538 0
M  V30 2054 H 192.634 1.69809 3.59514 0
M  V30 2055 N 193.631 -1.12557 1.10312 0
M  V30 2056 C 194.581 -2.16331 0.720076 0
M  V30 2057 C 195.565 -1.58616 -0.270115 0
M  V30 2058 O 196.757 -1.76823 -0.0790507 0
M  V30 2059 C 193.886 -3.42963 0.152113 0
M  V30 2060 C 192.972 -4.07663 1.16927 0
M  V30 2061 N 193.363 -4.47392 2.35953 0
M  V30 2062 C 191.661 -4.34425 1.0095 0
M  V30 2063 C 192.362 -4.97932 3.0073 0
M  V30 2064 N 191.338 -4.93358 2.28252 0
M  V30 2065 H 195.14 -2.44813 1.62616 0
M  V30 2066 H 192.654 -1.29449 0.980654 0
M  V30 2067 H 194.651 -4.16664 -0.14037 0
M  V30 2068 H 193.311 -3.1595 -0.748701 0
M  V30 2069 H 194.322 -4.39802 2.73486 0
M  V30 2070 H 190.999 -4.17177 0.164134 0
M  V30 2071 H 192.389 -5.38397 4.01969 0
M  V30 2072 N 195.109 -0.891671 -1.2995 0
M  V30 2073 C 196.357 -0.512486 -1.95494 0
M  V30 2074 C 196.678 0.942776 -1.70695 0
M  V30 2075 O 195.948 1.66374 -1.03424 0
M  V30 2076 H 194.528 -0.186533 -0.723336 0
M  V30 2077 H 197.19 -1.13621 -1.58355 0
M  V30 2078 H 196.286 -0.688342 -3.04415 0
M  V30 2079 N 196.587 1.43421 -0.653314 0
M  V30 2080 C 198.003 1.56341 -0.320886 0
M  V30 2081 C 198.203 1.63696 1.17499 0
M  V30 2082 O 197.259 1.59208 1.95982 0
M  V30 2083 C 198.572 2.82424 -1.03233 0
M  V30 2084 C 200.12 2.96168 -1.01259 0
M  V30 2085 C 200.595 4.25084 -1.70492 0
M  V30 2086 N 202.086 4.31948 -1.67257 0
M  V30 2087 C 202.821 5.30466 -2.17701 0
M  V30 2088 N 202.317 6.35261 -2.76434 0
M  V30 2089 N 204.11 5.2212 -2.082 0
M  V30 2090 H 196.261 1.3689 -1.62403 0
M  V30 2091 H 198.524 0.657455 -0.682977 0
M  V30 2092 H 198.23 2.83053 -2.08744 0
M  V30 2093 H 198.104 3.72653 -0.583948 0
M  V30 2094 H 200.491 2.9508 0.0341235 0
M  V30 2095 H 200.572 2.07229 -1.49966 0
M  V30 2096 H 200.216 4.26932 -2.7512 0
M  V30 2097 H 200.146 5.1292 -1.19251 0
M  V30 2098 H 202.637 3.56838 -1.24398 0
M  V30 2099 H 202.95 7.06754 -3.12601 0
M  V30 2100 H 201.295 6.35884 -2.80495 0
M  V30 2101 H 204.486 4.39166 -1.62021 0
M  V30 2102 H 204.659 5.98739 -2.47822 0
M  V30 2103 N 198.065 0.39524 1.52563 0
M  V30 2104 C 199.293 -0.184943 2.06072 0
M  V30 2105 C 199.708 -1.40021 1.26647 0
M  V30 2106 O 199.065 -1.79767 0.314672 0
M  V30 2107 C 199.116 -0.549179 3.57304 0
M  V30 2108 O 198.837 0.617813 4.33722 0
M  V30 2109 C 200.338 -1.18459 4.2718 0
M  V30 2110 H 197.558 -0.0265025 0.670476 0
M  V30 2111 H 200.102 0.562184 1.96621 0
M  V30 2112 H 198.257 -1.2462 3.66809 0
M  V30 2113 H 198.671 0.317091 5.23541 0
M  V30 2114 H 200.145 -1.38976 5.34219 0
M  V30 2115 H 200.622 -2.15368 3.82771 0
M  V30 2116 H 201.228 -0.528163 4.22008 0
M  V30 2117 N 199.544 -1.57102 0.125237 0
M  V30 2118 C 200.79 -1.96488 -0.525753 0
M  V30 2119 C 201.145 -1.00786 -1.6389 0
M  V30 2120 O 200.438 -0.038979 -1.9156 0
M  V30 2121 C 200.632 -3.40096 -1.09862 0
M  V30 2122 C 200.461 -4.4968 -0.0425004 0
M  V30 2123 C 199.231 -5.03781 0.391463 0
M  V30 2124 C 201.429 -5.08936 0.740829 0
M  V30 2125 N 199.411 -5.96948 1.4327 0
M  V30 2126 C 200.782 -5.98105 1.6331 0
M  V30 2127 C 202.837 -4.91576 0.791029 0
M  V30 2128 C 201.54 -6.71774 2.57122 0
M  V30 2129 C 203.566 -5.6593 1.71688 0
M  V30 2130 C 202.928 -6.5479 2.59672 0
M  V30 2131 H 199.027 -0.765072 -0.161831 0
M  V30 2132 H 201.611 -1.93511 0.214801 0
M  V30 2133 H 199.782 -3.43707 -1.80887 0
M  V30 2134 H 201.514 -3.66591 -1.71444 0
M  V30 2135 H 198.269 -4.736 -0.00213584 0
M  V30 2136 H 198.693 -6.48236 1.95243 0
M  V30 2137 H 203.335 -4.22615 0.124915 0
M  V30 2138 H 201.053 -7.39977 3.24744 0
M  V30 2139 H 204.639 -5.54501 1.76125 0
M  V30 2140 H 203.519 -7.11316 3.30149 0
M  V30 2141 N 201.022 0.148545 -1.56898 0
M  V30 2142 C 202.247 0.880385 -1.87787 0
M  V30 2143 C 202.672 1.74018 -0.714093 0
M  V30 2144 O 202.03 1.78153 0.336343 0
M  V30 2145 C 202.078 1.71422 -3.17249 0
M  V30 2146 O 201.182 2.8183 -3.01074 0
M  V30 2147 H 200.523 0.245301 -0.617028 0
M  V30 2148 H 203.053 0.139826 -2.04122 0
M  V30 2149 H 203.063 2.10954 -3.49231 0
M  V30 2150 H 201.738 1.08284 -4.01556 0
M  V30 2151 H 200.315 2.45715 -2.80497 0
M  V30 2152 N 202.5 1.5196 0.417844 0
M  V30 2153 C 203.725 1.69717 1.1921 0
M  V30 2154 C 204.15 0.402148 1.83751 0
M  V30 2155 O 203.508 -0.639593 1.69643 0
M  V30 2156 C 203.556 2.82794 2.2374 0
M  V30 2157 O 202.66 2.47756 3.29683 0
M  V30 2158 H 202.001 0.565263 0.348387 0
M  V30 2159 H 204.531 1.98621 0.490985 0
M  V30 2160 H 204.541 3.07452 2.68212 0
M  V30 2161 H 203.216 3.76756 1.76146 0
M  V30 2162 H 201.793 2.33739 2.90552 0
M  V30 2163 N 203.978 -0.674533 1.42435 0
M  V30 2164 C 205.389 -1.25514 1.38214 0
M  V30 2165 C 205.74 -1.96055 0.0755464 0
M  V30 2166 O 204.865 -2.00028 -0.8257 0
M  V30 2167 C 205.46 -2.28269 2.50357 0
M  V30 2168 C 204.019 -2.81856 2.49467 0
M  V30 2169 C 203.166 -1.56182 2.29134 0
M  V30 2170 H 206.117 -0.467902 1.51646 0
M  V30 2171 H 206.138 -3.10009 2.20624 0
M  V30 2172 H 205.65 -1.769 3.45439 0
M  V30 2173 H 203.751 -3.37346 1.58204 0
M  V30 2174 H 203.864 -3.30854 3.46515 0
M  V30 2175 H 202.228 -1.82761 1.774 0
M  V30 2176 H 203.011 -1.06778 3.26272 0
M  V30 2177 N 205.456 -1.28612 -0.910864 0
M  V30 2178 C 206.872 -1.06381 -1.18976 0
M  V30 2179 C 207.072 0.191998 -2.00583 0
M  V30 2180 O 206.128 0.892869 -2.36187 0
M  V30 2181 C 207.441 -2.31295 -1.92154 0
M  V30 2182 C 208.989 -2.36503 -2.05025 0
M  V30 2183 C 209.464 -3.61191 -2.81612 0
M  V30 2184 N 210.955 -3.61847 -2.89172 0
M  V30 2185 C 211.69 -4.55004 -3.4894 0
M  V30 2186 N 211.186 -5.58482 -4.09963 0
M  V30 2187 N 212.979 -4.42594 -3.46506 0
M  V30 2188 H 205.13 -2.09221 -0.366094 0
M  V30 2189 H 207.393 -0.921003 -0.224629 0
M  V30 2190 H 207.099 -3.228 -1.39618 0
M  V30 2191 H 206.973 -2.37934 -2.9269 0
M  V30 2192 H 209.36 -1.45494 -2.5674 0
M  V30 2193 H 209.441 -2.33857 -1.03657 0
M  V30 2194 H 209.085 -4.52545 -2.30576 0
M  V30 2195 H 209.015 -3.61092 -3.83302 0
M  V30 2196 H 211.506 -2.87022 -2.45819 0
M  V30 2197 H 211.819 -6.25704 -4.53557 0
M  V30 2198 H 210.164 -5.62305 -4.08459 0
M  V30 2199 H 213.355 -3.60953 -2.98045 0
M  V30 2200 H 213.528 -5.15381 -3.92793 0
M  V30 2201 N 206.934 1.1197 -1.10907 0
M  V30 2202 C 208.211 1.79959 -0.766432 0
M  V30 2203 C 208.591 1.97466 0.746363 0
M  V30 2204 O 207.939 1.55491 1.67436 0
M  V30 2205 C 208.149 3.14009 -1.52314 0
M  V30 2206 C 209.497 3.89134 -1.69883 0
M  V30 2207 O 210.521 3.2368 -1.48692 0
M  V30 2208 O 209.38 5.06572 -2.05054 0
M  V30 2209 H 206.474 0.779208 -0.277062 0
M  V30 2210 H 209.02 1.18762 -1.21217 0
M  V30 2211 H 207.792 2.96587 -2.55249 0
M  V30 2212 H 207.415 3.82915 -1.07059 0
M  V30 2213 N 208.412 0.89855 1.29475 0
M  V30 2214 C 209.342 0.39201 2.30186 0
M  V30 2215 C 210.323 -0.532359 1.61555 0
M  V30 2216 O 211.508 -0.443331 1.89072 0
M  V30 2217 C 208.638 -0.382353 3.45189 0
M  V30 2218 C 207.592 0.451483 4.25612 0
M  V30 2219 C 206.918 -0.450307 5.328 0
M  V30 2220 C 208.218 1.70079 4.93832 0
M  V30 2221 H 209.912 1.23362 2.72804 0
M  V30 2222 H 207.458 0.594638 1.31149 0
M  V30 2223 H 209.411 -0.747451 4.14718 0
M  V30 2224 H 208.135 -1.25774 3.01411 0
M  V30 2225 H 206.794 0.798897 3.57789 0
M  V30 2226 H 206.442 -1.32379 4.85268 0
M  V30 2227 H 206.142 0.103902 5.87508 0
M  V30 2228 H 207.666 -0.811623 6.05182 0
M  V30 2229 H 209.08 1.40549 5.55805 0
M  V30 2230 H 207.477 2.19623 5.58467 0
M  V30 2231 H 208.547 2.43744 4.19186 0
M  V30 2232 N 209.89 -1.43072 0.660911 0
M  V30 2233 C 211.118 -2.06067 0.185422 0
M  V30 2234 C 211.533 -1.49582 -1.15198 0
M  V30 2235 O 210.89 -0.630134 -1.71276 0
M  V30 2236 C 210.941 -3.61371 0.0966523 0
M  V30 2237 O 210.662 -4.15758 1.38119 0
M  V30 2238 C 212.163 -4.41455 -0.403996 0
M  V30 2239 H 209.383 -0.664459 0.0934604 0
M  V30 2240 H 211.927 -1.83447 0.90373 0
M  V30 2241 H 210.082 -3.8315 -0.572259 0
M  V30 2242 H 210.496 -5.09499 1.24542 0
M  V30 2243 H 211.97 -5.50437 -0.415045 0
M  V30 2244 H 212.447 -4.15036 -1.43674 0
M  V30 2245 H 213.053 -4.24663 0.232691 0
M  V30 2246 N 211.368 -0.403325 -1.52352 0
M  V30 2247 C 212.645 0.232611 -1.94212 0
M  V30 2248 C 213.025 1.63133 -1.33981 0
M  V30 2249 O 212.373 2.22659 -0.513344 0
M  V30 2250 C 212.583 0.244811 -3.4814 0
M  V30 2251 C 213.931 0.46698 -4.22024 0
M  V30 2252 O 214.955 0.324419 -3.5472 0
M  V30 2253 O 213.814 0.74747 -5.41364 0
M  V30 2254 H 210.908 0.148223 -0.813609 0
M  V30 2255 H 213.454 -0.458848 -1.63379 0
M  V30 2256 H 212.226 -0.734378 -3.84347 0
M  V30 2257 H 211.849 0.980611 -3.85318 0
M  V30 2258 N 212.846 1.57033 -0.133567 0
M  V30 2259 C 213.809 2.14897 0.796995 0
M  V30 2260 C 214.809 1.0874 1.18458 0
M  V30 2261 O 215.999 1.34446 1.1077 0
M  V30 2262 C 213.131 2.70112 2.07973 0
M  V30 2263 H 214.324 2.98457 0.293873 0
M  V30 2264 H 211.877 1.55871 0.115787 0
M  V30 2265 H 212.612 1.9018 2.62682 0
M  V30 2266 H 212.397 3.47764 1.81115 0
M  V30 2267 H 213.887 3.14738 2.74462 0
M  V30 2268 N 214.325 -0.140222 1.56975 0
M  V30 2269 C 215.288 -1.15689 1.97861 0
M  V30 2270 C 216.288 -1.3549 0.865974 0
M  V30 2271 O 217.478 -1.32367 1.13246 0
M  V30 2272 C 214.61 -2.51582 2.30042 0
M  V30 2273 H 215.803 -0.805971 2.88867 0
M  V30 2274 H 213.356 -0.383801 1.51515 0
M  V30 2275 H 214.091 -2.91632 1.41849 0
M  V30 2276 H 213.876 -2.38569 3.11171 0
M  V30 2277 H 215.366 -3.24792 2.62488 0
M  V30 2278 N 215.803 -1.52179 -0.40978 0
M  V30 2279 C 217.052 -1.65434 -1.15388 0
M  V30 2280 C 217.365 -0.390056 -1.91671 0
M  V30 2281 O 218.571 -0.402399 -2.68501 0
M  V30 2282 C 217.027 -2.92279 -2.10003 0
M  V30 2283 C 216.635 -4.25813 -1.39239 0
M  V30 2284 C 218.379 -3.14897 -2.84675 0
M  V30 2285 C 216.286 -5.43782 -2.32498 0
M  V30 2286 H 215.216 -0.616267 -0.434432 0
M  V30 2287 H 217.867 -1.78666 -0.418401 0
M  V30 2288 H 216.249 -2.72744 -2.871 0
M  V30 2289 H 217.423 -4.55828 -0.675099 0
M  V30 2290 H 215.738 -4.09292 -0.766097 0
M  V30 2291 H 218.335 -4.0021 -3.54593 0
M  V30 2292 H 218.678 -2.29103 -3.47588 0
M  V30 2293 H 219.211 -3.34901 -2.14677 0
M  V30 2294 H 215.95 -6.3192 -1.74233 0
M  V30 2295 H 215.47 -5.18106 -3.02201 0
M  V30 2296 H 217.149 -5.76834 -2.93038 0
M  V30 2297 N 217.281 0.66697 -1.42791 0
M  V30 2298 C 218.529 1.42417 -1.43394 0
M  V30 2299 C 218.85 1.94925 -0.0542373 0
M  V30 2300 O 218.12 1.73564 0.908415 0
M  V30 2301 H 216.7 0.528515 -0.527902 0
M  V30 2302 H 219.362 0.787562 -1.78279 0
M  V30 2303 H 218.458 2.27333 -2.13837 0
M  V30 2304 N 218.759 1.29093 0.90403 0
M  V30 2305 C 220.17 1.15186 1.46932 0
M  V30 2306 C 220.521 -0.254587 1.94541 0
M  V30 2307 O 219.646 -1.14972 1.83332 0
M  V30 2308 C 220.241 2.08492 2.67051 0
M  V30 2309 C 218.8 1.98621 3.19729 0
M  V30 2310 C 217.947 1.9967 1.92425 0
M  V30 2311 H 220.898 1.41641 0.715789 0
M  V30 2312 H 220.919 1.65461 3.42641 0
M  V30 2313 H 220.431 3.10847 2.3237 0
M  V30 2314 H 218.532 0.993389 3.59114 0
M  V30 2315 H 218.645 2.86068 3.8432 0
M  V30 2316 H 217.009 1.44208 2.09943 0
M  V30 2317 H 217.792 3.03721 1.60026 0
M  V30 2318 N 220.237 -1.11381 1.11499 0
M  V30 2319 C 221.2 -2.15622 0.777153 0
M  V30 2320 C 222.2 -1.59504 -0.203779 0
M  V30 2321 O 223.39 -1.74188 0.020782 0
M  V30 2322 C 220.522 -3.40556 0.153116 0
M  V30 2323 H 221.715 -2.47021 1.70061 0
M  V30 2324 H 219.268 -1.26577 0.916952 0
M  V30 2325 H 220.003 -3.14767 -0.780536 0
M  V30 2326 H 219.788 -3.8257 0.859238 0
M  V30 2327 H 221.278 -4.17546 -0.0671044 0
M  V30 2328 N 221.715 -0.905404 -1.28997 0
M  V30 2329 C 222.945 -0.549049 -1.99171 0
M  V30 2330 C 223.353 0.87203 -1.67906 0
M  V30 2331 O 222.696 1.58796 -0.923561 0
M  V30 2332 C 222.758 -0.668306 -3.53234 0
M  V30 2333 C 222.422 -2.0574 -4.08069 0
M  V30 2334 C 223.419 -3.0292 -4.22534 0
M  V30 2335 C 221.104 -2.36833 -4.42962 0
M  V30 2336 C 223.098 -4.29314 -4.71135 0
M  V30 2337 C 220.785 -3.63467 -4.91258 0
M  V30 2338 C 221.783 -4.59522 -5.053 0
M  V30 2339 O 221.471 -5.83907 -5.52546 0
M  V30 2340 H 221.203 -0.208784 -0.64295 0
M  V30 2341 H 223.757 -1.21836 -1.65363 0
M  V30 2342 H 221.987 0.0580547 -3.86656 0
M  V30 2343 H 223.676 -0.320273 -4.04634 0
M  V30 2344 H 224.442 -2.80216 -3.95859 0
M  V30 2345 H 220.321 -1.62824 -4.31288 0
M  V30 2346 H 223.865 -5.04293 -4.8201 0
M  V30 2347 H 219.762 -3.86 -5.17372 0
M  V30 2348 H 220.53 -5.86578 -5.70849 0
M  V30 2349 N 223.193 1.4272 -0.668489 0
M  V30 2350 C 224.609 1.55992 -0.33745 0
M  V30 2351 C 224.809 1.64933 1.15756 0
M  V30 2352 O 223.865 1.61278 1.94282 0
M  V30 2353 C 225.178 2.81314 -1.06222 0
M  V30 2354 C 226.726 2.95078 -1.04394 0
M  V30 2355 C 227.201 4.23252 -1.74991 0
M  V30 2356 N 228.692 4.3015 -1.71829 0
M  V30 2357 C 229.427 5.28127 -2.23315 0
M  V30 2358 N 228.923 6.32293 -2.83156 0
M  V30 2359 N 230.716 5.19882 -2.13726 0
M  V30 2360 H 222.867 1.3516 -1.63846 0
M  V30 2361 H 225.13 0.650174 -0.689912 0
M  V30 2362 H 224.836 2.80823 -2.11734 0
M  V30 2363 H 224.71 3.72012 -0.62344 0
M  V30 2364 H 227.097 2.951 0.0028244 0
M  V30 2365 H 227.178 2.05627 -1.52155 0
M  V30 2366 H 226.822 4.2399 -2.79633 0
M  V30 2367 H 226.752 5.11626 -1.24685 0
M  V30 2368 H 229.243 3.55499 -1.28175 0
M  V30 2369 H 229.556 7.03398 -3.20079 0
M  V30 2370 H 227.901 6.32873 -2.87223 0
M  V30 2371 H 231.092 4.37423 -1.66669 0
M  V30 2372 H 231.265 5.96077 -2.54158 0
M  V30 2373 N 224.671 0.411399 1.52136 0
M  V30 2374 C 225.581 -0.419774 2.30814 0
M  V30 2375 C 226.597 -1.0515 1.38634 0
M  V30 2376 O 227.773 -1.05252 1.71709 0
M  V30 2377 C 224.838 -1.52019 3.11594 0
M  V30 2378 C 223.899 -0.91129 4.19516 0
M  V30 2379 C 223.132 -1.95927 4.96436 0
M  V30 2380 O 223.355 -3.17775 4.73683 0
M  V30 2381 O 222.289 -1.56423 5.81219 0
M  V30 2382 H 226.115 0.221805 3.02889 0
M  V30 2383 H 223.7 0.174547 1.48377 0
M  V30 2384 H 225.582 -2.15898 3.61892 0
M  V30 2385 H 224.257 -2.14633 2.42311 0
M  V30 2386 H 223.164 -0.235157 3.7336 0
M  V30 2387 H 224.497 -0.32904 4.91099 0
M  V30 2388 N 226.149 -1.5696 0.141893 0
M  V30 2389 C 227.395 -1.97034 -0.504884 0
M  V30 2390 C 227.75 -1.02518 -1.62812 0
M  V30 2391 O 227.043 -0.0592943 -1.91508 0
M  V30 2392 C 227.237 -3.41242 -1.06249 0
M  V30 2393 C 227.066 -4.497 0.00519653 0
M  V30 2394 C 225.836 -5.03338 0.444873 0
M  V30 2395 C 228.034 -5.08122 0.794767 0
M  V30 2396 N 226.016 -5.95395 1.49593 0
M  V30 2397 C 227.387 -5.96339 1.69645 0
M  V30 2398 C 229.442 -4.9071 0.843122 0
M  V30 2399 C 228.145 -6.69009 2.64233 0
M  V30 2400 C 230.171 -5.64077 1.77681 0
M  V30 2401 C 229.533 -6.51999 2.66603 0
M  V30 2402 H 225.632 -0.766745 -0.153707 0
M  V30 2403 H 228.216 -1.93273 0.235313 0
M  V30 2404 H 226.387 -3.45606 -1.77231 0
M  V30 2405 H 228.119 -3.68389 -1.67546 0
M  V30 2406 H 224.874 -4.73576 0.0480959 0
M  V30 2407 H 225.298 -6.46128 2.02107 0
M  V30 2408 H 229.94 -4.22459 0.169732 0
M  V30 2409 H 227.658 -7.36492 3.32575 0
M  V30 2410 H 231.244 -5.52602 1.81996 0
M  V30 2411 H 230.124 -7.07775 3.37675 0
M  V30 2412 N 227.627 0.131896 -1.57047 0
M  V30 2413 C 228.852 0.860418 -1.8871 0
M  V30 2414 C 229.277 1.73251 -0.73251 0
M  V30 2415 O 228.635 1.785 0.317429 0
M  V30 2416 C 228.683 1.68047 -3.19049 0
M  V30 2417 O 227.787 2.7862 -3.04047 0
M  V30 2418 H 227.128 0.238743 -0.619595 0
M  V30 2419 H 229.658 0.118169 -2.04258 0
M  V30 2420 H 229.668 2.07238 -3.51449 0
M  V30 2421 H 228.343 1.04018 -4.02682 0
M  V30 2422 H 226.92 2.42726 -2.83088 0
M  V30 2423 N 229.106 1.52395 0.401703 0
M  V30 2424 C 230.334 1.70676 1.16949 0
M  V30 2425 C 230.749 0.419503 1.8408 0
M  V30 2426 O 230.106 -0.605061 1.72178 0
M  V30 2427 C 230.157 2.84753 2.22706 0
M  V30 2428 O 229.878 4.08495 1.58314 0
M  V30 2429 C 231.379 3.14608 3.12309 0
M  V30 2430 H 228.599 0.571787 0.351142 0
M  V30 2431 H 231.143 1.98987 0.471652 0
M  V30 2432 H 229.298 2.58941 2.88147 0
M  V30 2433 H 229.712 4.72117 2.28485 0
M  V30 2434 H 231.186 3.97923 3.82572 0
M  V30 2435 H 231.663 2.28464 3.75101 0
M  V30 2436 H 232.269 3.42212 2.52529 0
M  V30 2437 N 230.584 -0.659388 1.43143 0
M  V30 2438 C 231.831 -1.41935 1.44433 0
M  V30 2439 C 232.159 -1.94387 0.0663522 0
M  V30 2440 O 231.414 -1.72314 -0.927706 0
M  V30 2441 C 231.713 -2.62206 2.42864 0
M  V30 2442 C 231.379 -2.28208 3.88886 0
M  V30 2443 C 230.041 -2.18647 4.28657 0
M  V30 2444 C 232.393 -2.00887 4.8093 0
M  V30 2445 C 229.721 -1.79914 5.58433 0
M  V30 2446 C 232.073 -1.63653 6.11065 0
M  V30 2447 C 230.737 -1.52614 6.49819 0
M  V30 2448 H 230.007 -0.519376 0.528517 0
M  V30 2449 H 232.654 -0.750453 1.76183 0
M  V30 2450 H 230.959 -3.34199 2.04495 0
M  V30 2451 H 232.656 -3.2041 2.41119 0
M  V30 2452 H 229.246 -2.36557 3.57406 0
M  V30 2453 H 233.43 -2.07198 4.5098 0
M  V30 2454 H 228.686 -1.69948 5.87305 0
M  V30 2455 H 232.86 -1.41543 6.81864 0
M  V30 2456 H 230.487 -1.22371 7.50286 0
M  V30 2457 N 232.062 -1.29571 -0.897171 0
M  V30 2458 C 233.025 -1.14913 -1.98312 0
M  V30 2459 C 234.025 -0.0838629 -1.60581 0
M  V30 2460 O 235.215 -0.331006 -1.71026 0
M  V30 2461 C 232.347 -0.757835 -3.3237 0
M  V30 2462 H 233.54 -2.11377 -2.12743 0
M  V30 2463 H 231.093 -1.12793 -1.08201 0
M  V30 2464 H 231.828 0.206837 -3.2364 0
M  V30 2465 H 231.613 -1.52755 -3.61121 0
M  V30 2466 H 233.103 -0.678408 -4.12053 0
M  V30 2467 N 233.54 1.10788 -1.12088 0
M  V30 2468 C 234.786 1.82942 -0.875226 0
M  V30 2469 C 235.119 1.84779 0.597538 0
M  V30 2470 O 234.394 1.30578 1.44152 0
M  V30 2471 C 234.677 3.29789 -1.44606 0
M  V30 2472 C 234.53 3.36307 -2.98693 0
M  V30 2473 C 235.849 4.26064 -1.10261 0
M  V30 2474 H 232.968 0.664195 -0.319397 0
M  V30 2475 H 235.61 1.29867 -1.38689 0
M  V30 2476 H 233.76 3.75118 -1.01089 0
M  V30 2477 H 235.432 2.99487 -3.50864 0
M  V30 2478 H 233.675 2.76318 -3.34411 0
M  V30 2479 H 234.346 4.39694 -3.33726 0
M  V30 2480 H 236.822 3.88951 -1.4784 0
M  V30 2481 H 235.698 5.27183 -1.52869 0
M  V30 2482 H 235.959 4.42098 -0.0142953 0
M  V30 2483 N 235.018 0.912232 1.28515 0
M  V30 2484 C 236.266 0.543523 1.94654 0
M  V30 2485 C 236.587 -0.9155 1.72173 0
M  V30 2486 O 235.857 -1.64708 1.06058 0
M  V30 2487 H 234.437 0.198017 0.720277 0
M  V30 2488 H 237.099 1.16126 1.56527 0
M  V30 2489 H 236.195 0.736684 3.03281 0
M  V30 2490 N 236.496 -1.42363 0.676048 0
M  V30 2491 C 237.907 -1.84649 0.275948 0
M  V30 2492 C 238.258 -1.56588 -1.18214 0
M  V30 2493 O 237.383 -1.02634 -1.90513 0
M  V30 2494 C 237.978 -3.35178 0.494053 0
M  V30 2495 C 236.537 -3.76109 0.148061 0
M  V30 2496 C 235.684 -2.65931 0.785891 0
M  V30 2497 H 238.635 -1.32192 0.878121 0
M  V30 2498 H 238.656 -3.79655 -0.25343 0
M  V30 2499 H 238.168 -3.55571 1.55535 0
M  V30 2500 H 236.269 -3.61323 -0.909742 0
M  V30 2501 H 236.382 -4.7546 0.589454 0
M  V30 2502 H 234.746 -2.53773 0.217113 0
M  V30 2503 H 235.529 -2.89146 1.85067 0
M  V30 2504 N 237.974 -0.419461 -1.51915 0
M  V30 2505 C 239.222 0.152637 -2.01523 0
M  V30 2506 C 239.543 1.44762 -1.30649 0
M  V30 2507 O 238.813 1.90997 -0.435535 0
M  V30 2508 H 237.393 0.0593966 -0.744635 0
M  V30 2509 H 240.055 -0.558073 -1.86739 0
M  V30 2510 H 239.151 0.341369 -3.10227 0
M  V30 2511 N 239.452 1.56882 -0.150215 0
M  V30 2512 C 240.402 2.13501 0.800071 0
M  V30 2513 C 241.386 1.06368 1.20726 0
M  V30 2514 O 242.578 1.32538 1.17314 0
M  V30 2515 C 239.707 2.76271 2.03787 0
M  V30 2516 C 238.793 3.90533 1.65364 0
M  V30 2517 N 239.184 4.96259 0.977794 0
M  V30 2518 C 237.482 4.013 1.94613 0
M  V30 2519 C 238.183 5.76286 0.791794 0
M  V30 2520 N 237.159 5.27163 1.32666 0
M  V30 2521 H 240.961 2.92615 0.274517 0
M  V30 2522 H 238.475 1.62319 0.0512144 0
M  V30 2523 H 240.472 3.15197 2.72867 0
M  V30 2524 H 239.132 1.98631 2.56857 0
M  V30 2525 H 240.143 5.13953 0.638193 0
M  V30 2526 H 236.82 3.3474 2.4951 0
M  V30 2527 H 238.21 6.71401 0.258894 0
M  V30 2528 N 240.93 -0.123565 1.57115 0
M  V30 2529 C 242.17 -0.838097 1.86428 0
M  V30 2530 C 242.534 -1.77266 0.737611 0
M  V30 2531 O 243.735 -2.52842 0.912389 0
M  V30 2532 C 242.006 -1.57219 3.20962 0
M  V30 2533 S 243.565 -2.32893 3.71896 0
M  V30 2534 H 240.383 -0.279811 0.653626 0
M  V30 2535 H 242.985 -0.0967034 1.95261 0
M  V30 2536 H 241.689 -0.877522 4.00909 0
M  V30 2537 H 241.22 -2.35405 3.15195 0
M  V30 2538 H 243.235 -3.5853 3.43032 0
M  V30 2539 N 242.408 -1.52605 -0.393616 0
M  V30 2540 C 243.338 -1.80022 -1.48709 0
M  V30 2541 C 244.319 -0.651995 -1.57108 0
M  V30 2542 O 245.504 -0.89913 -1.72132 0
M  V30 2543 C 242.634 -1.96492 -2.86371 0
M  V30 2544 C 241.588 -3.12161 -2.92813 0
M  V30 2545 C 240.914 -3.13877 -4.3288 0
M  V30 2546 C 242.214 -4.51322 -2.6288 0
M  V30 2547 H 243.908 -2.71589 -1.26015 0
M  V30 2548 H 241.454 -1.30684 -0.604778 0
M  V30 2549 H 243.407 -2.14255 -3.62867 0
M  V30 2550 H 242.131 -1.01611 -3.10391 0
M  V30 2551 H 240.79 -2.94173 -2.18764 0
M  V30 2552 H 240.438 -2.16687 -4.53933 0
M  V30 2553 H 240.138 -3.91576 -4.38112 0
M  V30 2554 H 241.662 -3.33789 -5.1129 0
M  V30 2555 H 243.076 -4.69435 -3.29096 0
M  V30 2556 H 241.473 -5.31053 -2.79468 0
M  V30 2557 H 242.543 -4.58353 -1.58242 0
M  V30 2558 N 243.887 0.651787 -1.4349 0
M  V30 2559 C 244.819 1.77725 -1.44729 0
M  V30 2560 C 245.832 1.59141 -0.343231 0
M  V30 2561 O 247.021 1.67835 -0.607751 0
M  V30 2562 C 244.121 3.15172 -1.24579 0
M  V30 2563 C 243.294 3.60402 -2.47849 0
M  V30 2564 C 242.353 4.76656 -2.22902 0
M  V30 2565 O 241.379 4.86022 -2.96263 0
M  V30 2566 N 242.581 5.66958 -1.24656 0
M  V30 2567 H 245.346 1.77141 -2.41746 0
M  V30 2568 H 242.907 0.835678 -1.38665 0
M  V30 2569 H 244.899 3.90634 -1.0577 0
M  V30 2570 H 243.469 3.1052 -0.360015 0
M  V30 2571 H 242.689 2.75369 -2.82073 0
M  V30 2572 H 243.977 3.87368 -3.29884 0
M  V30 2573 H 243.375 5.62065 -0.640265 0
M  V30 2574 H 241.932 6.42135 -1.1183 0
M  V30 2575 N 245.365 1.30045 0.890287 0
M  V30 2576 C 246.295 1.18541 2.01172 0
M  V30 2577 C 247.276 0.0773356 1.69924 0
M  V30 2578 O 248.461 0.25845 1.92473 0
M  V30 2579 C 245.591 0.870941 3.36202 0
M  V30 2580 C 244.545 1.93637 3.81692 0
M  V30 2581 C 243.871 1.475 5.13953 0
M  V30 2582 C 245.171 3.34666 4.00994 0
M  V30 2583 H 246.865 2.12359 2.11054 0
M  V30 2584 H 244.411 1.02238 1.01407 0
M  V30 2585 H 246.364 0.777141 4.14172 0
M  V30 2586 H 245.088 -0.102926 3.26438 0
M  V30 2587 H 243.747 2.01972 3.05946 0
M  V30 2588 H 243.395 0.489551 5.00612 0
M  V30 2589 H 243.095 2.1876 5.4536 0
M  V30 2590 H 244.619 1.39489 5.94454 0
M  V30 2591 H 246.033 3.2912 4.69417 0
M  V30 2592 H 244.43 4.03966 4.43769 0
M  V30 2593 H 245.5 3.76949 3.05021 0
M  V30 2594 N 246.843 -1.10192 1.12674 0
M  V30 2595 C 247.793 -2.14754 0.765801 0
M  V30 2596 C 248.777 -1.59154 -0.236409 0
M  V30 2597 O 249.969 -1.76951 -0.0415261 0
M  V30 2598 C 247.098 -3.42563 0.224827 0
M  V30 2599 C 246.184 -4.05091 1.25548 0
M  V30 2600 N 246.575 -4.42287 2.4539 0
M  V30 2601 C 244.873 -4.32186 1.10142 0
M  V30 2602 C 245.574 -4.91441 3.11224 0
M  V30 2603 N 244.55 -4.88405 2.38666 0
M  V30 2604 H 248.352 -2.41309 1.67772 0
M  V30 2605 H 245.866 -1.27339 1.00789 0
M  V30 2606 H 247.863 -4.16868 -0.0519578 0
M  V30 2607 H 246.523 -3.17467 -0.681515 0
M  V30 2608 H 247.534 -4.33902 2.82754 0
M  V30 2609 H 244.211 -4.16735 0.252587 0
M  V30 2610 H 245.601 -5.29749 4.13298 0
M  V30 2611 N 248.321 -0.919034 -1.28029 0
M  V30 2612 C 249.598 -0.473668 -1.89778 0
M  V30 2613 C 249.978 1.04783 -1.83259 0
M  V30 2614 O 249.326 1.8982 -1.27202 0
M  V30 2615 C 249.536 -1.00998 -3.34066 0
M  V30 2616 C 250.884 -1.06525 -4.1102 0
M  V30 2617 O 251.908 -0.958996 -3.43048 0
M  V30 2618 O 250.767 -1.22776 -5.3253 0
M  V30 2619 H 247.861 -0.15098 -0.813101 0
M  V30 2620 H 250.407 -1.01016 -1.36359 0
M  V30 2621 H 249.179 -2.05392 -3.33061 0
M  V30 2622 H 248.802 -0.454626 -3.94992 0
M  V30 2623 N 249.799 1.42003 -0.683588 0
M  V30 2624 C 251.215 1.55625 -0.353976 0
M  V30 2625 C 251.415 1.66151 1.14 0
M  V30 2626 O 250.471 1.63329 1.92561 0
M  V30 2627 C 251.784 2.80171 -1.092 0
M  V30 2628 C 253.332 2.93954 -1.07518 0
M  V30 2629 C 253.807 4.21372 -1.79471 0
M  V30 2630 N 255.298 4.28303 -1.76381 0
M  V30 2631 C 256.033 5.25729 -2.28904 0
M  V30 2632 N 255.529 6.29254 -2.89846 0
M  V30 2633 N 257.322 5.17586 -2.19228 0
M  V30 2634 H 249.473 1.33415 -1.6527 0
M  V30 2635 H 251.736 0.64282 -0.696769 0
M  V30 2636 H 251.442 2.78561 -2.14701 0
M  V30 2637 H 251.316 3.7133 -0.662862 0
M  V30 2638 H 253.703 2.95086 -0.028475 0
M  V30 2639 H 253.784 2.04002 -1.54328 0
M  V30 2640 H 253.428 4.21001 -2.84114 0
M  V30 2641 H 253.358 5.10275 -1.30104 0
M  V30 2642 H 255.849 3.54119 -1.31939 0
M  V30 2643 H 256.162 6.99964 -3.27522 0
M  V30 2644 H 254.507 6.29791 -2.93919 0
M  V30 2645 H 257.698 4.35631 -1.71299 0
M  V30 2646 H 257.871 5.93348 -2.60466 0
M  V30 2647 N 251.277 0.427512 1.51691 0
M  V30 2648 C 252.24 -0.377132 2.26076 0
M  V30 2649 C 253.24 -0.958089 1.29141 0
M  V30 2650 O 254.43 -0.83408 1.52934 0
M  V30 2651 C 251.562 -1.53262 3.04506 0
M  V30 2652 H 252.755 0.27464 2.9864 0
M  V30 2653 H 250.308 0.180445 1.55255 0
M  V30 2654 H 251.043 -2.22072 2.36335 0
M  V30 2655 H 250.828 -1.12232 3.75694 0
M  V30 2656 H 252.318 -2.10135 3.60878 0
M  V30 2657 N 252.755 -1.56801 0.158532 0
M  V30 2658 C 254.171 -1.5837 -0.197774 0
M  V30 2659 C 254.371 -1.17334 -1.63814 0
M  V30 2660 O 253.427 -0.878988 -2.36707 0
M  V30 2661 C 254.74 -3.00615 0.0714459 0
M  V30 2662 C 256.288 -3.12999 0.00864533 0
M  V30 2663 C 256.763 -4.57313 0.250685 0
M  V30 2664 N 258.254 -4.62777 0.198014 0
M  V30 2665 C 258.989 -5.72271 0.359642 0
M  V30 2666 N 258.485 -6.90371 0.579625 0
M  V30 2667 N 260.278 -5.61318 0.296438 0
M  V30 2668 H 252.429 -1.81765 1.09887 0
M  V30 2669 H 254.692 -0.841849 0.435884 0
M  V30 2670 H 254.398 -3.35068 1.06874 0
M  V30 2671 H 254.272 -3.71683 -0.642757 0
M  V30 2672 H 256.659 -2.7838 -0.979217 0
M  V30 2673 H 256.74 -2.44393 0.755359 0
M  V30 2674 H 256.384 -4.92639 1.2357 0
M  V30 2675 H 256.314 -5.24061 -0.516489 0
M  V30 2676 H 258.805 -3.77885 0.0331115 0
M  V30 2677 H 259.118 -7.69689 0.69275 0
M  V30 2678 H 257.463 -6.92264 0.616087 0
M  V30 2679 H 260.654 -4.67932 0.125258 0
M  V30 2680 H 260.827 -6.46599 0.425831 0
M  V30 2681 N 254.233 0.115231 -1.57178 0
M  V30 2682 C 255.458 0.840354 -1.89612 0
M  V30 2683 C 255.883 1.72464 -0.750845 0
M  V30 2684 O 255.241 1.78826 0.298478 0
M  V30 2685 C 255.289 1.64654 -3.20814 0
M  V30 2686 O 254.393 2.7538 -3.06985 0
M  V30 2687 H 253.734 0.232158 -0.622092 0
M  V30 2688 H 256.264 0.0964977 -2.04372 0
M  V30 2689 H 256.274 2.03499 -3.53627 0
M  V30 2690 H 254.949 0.997416 -4.03763 0
M  V30 2691 H 253.526 2.3971 -2.85646 0
M  V30 2692 N 255.711 1.52812 0.385517 0
M  V30 2693 C 256.641 1.80808 1.47752 0
M  V30 2694 C 257.622 0.660318 1.5676 0
M  V30 2695 O 258.807 0.908246 1.71652 0
M  V30 2696 C 255.937 1.98008 2.85324 0
M  V30 2697 C 254.891 3.13709 2.91154 0
M  V30 2698 C 254.217 3.16169 4.31209 0
M  V30 2699 C 255.517 4.52709 2.60483 0
M  V30 2700 H 257.211 2.72253 1.24573 0
M  V30 2701 H 254.757 1.31003 0.597839 0
M  V30 2702 H 256.71 2.16176 3.61726 0
M  V30 2703 H 255.434 1.03255 3.09848 0
M  V30 2704 H 254.093 2.95329 2.17201 0
M  V30 2705 H 253.741 2.19092 4.52778 0
M  V30 2706 H 253.441 3.93894 4.36029 0
M  V30 2707 H 254.965 3.36496 5.09512 0
M  V30 2708 H 256.379 4.71173 3.26602 0
M  V30 2709 H 254.776 5.32528 2.76648 0
M  V30 2710 H 255.846 4.59186 1.55809 0
M  V30 2711 N 257.189 -0.644168 1.43834 0
M  V30 2712 C 258.435 -1.40603 1.46146 0
M  V30 2713 C 258.768 -1.93997 0.0887717 0
M  V30 2714 O 258.043 -1.72854 -0.891724 0
M  V30 2715 C 258.326 -2.58086 2.51124 0
M  V30 2716 C 258.179 -2.10126 3.97702 0
M  V30 2717 C 259.498 -3.60291 2.52742 0
M  V30 2718 H 256.617 -0.509905 0.532134 0
M  V30 2719 H 259.259 -0.729502 1.75437 0
M  V30 2720 H 257.409 -3.15801 2.26278 0
M  V30 2721 H 259.081 -1.57342 4.33637 0
M  V30 2722 H 257.324 -1.41419 4.10101 0
M  V30 2723 H 257.995 -2.94649 4.66783 0
M  V30 2724 H 260.471 -3.12352 2.7491 0
M  V30 2725 H 259.347 -4.40032 3.28121 0
M  V30 2726 H 259.608 -4.1349 1.56455 0
M  V30 2727 N 258.668 -1.30515 -0.883378 0
M  V30 2728 C 259.914 -1.19607 -1.63774 0
M  V30 2729 C 260.247 0.248314 -1.92606 0
M  V30 2730 O 259.522 1.17742 -1.54813 0
M  V30 2731 C 259.805 -2.02669 -2.97653 0
M  V30 2732 C 259.658 -3.55335 -2.75784 0
M  V30 2733 C 260.977 -1.86573 -3.98596 0
M  V30 2734 H 258.096 -0.435856 -0.594305 0
M  V30 2735 H 260.738 -1.60165 -1.02212 0
M  V30 2736 H 258.888 -1.68208 -3.50197 0
M  V30 2737 H 260.56 -3.99863 -2.30016 0
M  V30 2738 H 258.803 -3.79438 -2.1026 0
M  V30 2739 H 259.474 -4.08745 -3.70988 0
M  V30 2740 H 261.95 -2.16703 -3.55217 0
M  V30 2741 H 260.826 -2.47014 -4.90179 0
M  V30 2742 H 261.087 -0.825321 -4.34328 0
M  V30 2743 N 260.146 1.09593 -1.13257 0
M  V30 2744 C 261.557 1.63229 -0.906274 0
M  V30 2745 C 261.908 1.8811 0.557578 0
M  V30 2746 O 261.033 1.62953 1.42391 0
M  V30 2747 C 261.628 2.96535 -1.63867 0
M  V30 2748 C 260.187 3.47003 -1.45828 0
M  V30 2749 C 259.334 2.2145 -1.66898 0
M  V30 2750 H 262.285 0.92978 -1.28611 0
M  V30 2751 H 262.306 3.64411 -1.09476 0
M  V30 2752 H 261.818 2.78394 -2.70404 0
M  V30 2753 H 259.919 3.70272 -0.415848 0
M  V30 2754 H 260.032 4.24551 -2.2202 0
M  V30 2755 H 258.396 2.30022 -1.09371 0
M  V30 2756 H 259.179 2.0583 -2.74752 0
M  V30 2757 N 261.624 0.925811 1.2754 0
M  V30 2758 C 262.587 0.428129 2.25166 0
M  V30 2759 C 263.587 -0.452261 1.54309 0
M  V30 2760 O 264.777 -0.253608 1.72344 0
M  V30 2761 C 261.909 -0.384749 3.38722 0
M  V30 2762 H 263.102 1.29066 2.70706 0
M  V30 2763 H 260.655 0.706323 1.3943 0
M  V30 2764 H 261.39 -1.26618 2.98561 0
M  V30 2765 H 261.175 0.246454 3.91325 0
M  V30 2766 H 262.665 -0.723389 4.11287 0
M  V30 2767 N 263.102 -1.41638 0.69111 0
M  V30 2768 C 264.332 -2.0533 0.228758 0
M  V30 2769 C 264.74 -1.52089 -1.12541 0
M  V30 2770 O 264.083 -0.662145 -1.71351 0
M  V30 2771 C 264.145 -3.59349 0.10407 0
M  V30 2772 C 263.809 -4.35362 1.38956 0
M  V30 2773 C 264.806 -4.64942 2.32648 0
M  V30 2774 C 262.491 -4.74714 1.64169 0
M  V30 2775 C 264.485 -5.32828 3.49818 0
M  V30 2776 C 262.172 -5.42338 2.81625 0
M  V30 2777 C 263.17 -5.71322 3.74273 0
M  V30 2778 O 262.858 -6.37554 4.89673 0
M  V30 2779 H 262.59 -0.667796 0.104997 0
M  V30 2780 H 265.144 -1.82477 0.942938 0
M  V30 2781 H 263.374 -3.80924 -0.665839 0
M  V30 2782 H 265.063 -4.04633 -0.320519 0
M  V30 2783 H 265.829 -4.35025 2.14425 0
M  V30 2784 H 261.708 -4.51538 0.929202 0
M  V30 2785 H 265.252 -5.55368 4.22152 0
M  V30 2786 H 261.149 -5.71673 2.99768 0
M  V30 2787 H 261.917 -6.56049 4.8943 0
M  V30 2788 N 264.58 -0.43555 -1.51462 0
M  V30 2789 C 265.543 0.365137 -2.26273 0
M  V30 2790 C 266.543 0.951227 -1.29647 0
M  V30 2791 O 267.733 0.825958 -1.53374 0
M  V30 2792 C 264.865 1.51645 -3.05314 0
M  V30 2793 H 266.058 -0.290474 -2.9849 0
M  V30 2794 H 263.611 -0.188676 -1.55157 0
M  V30 2795 H 264.346 2.20816 -2.3751 0
M  V30 2796 H 264.131 1.10238 -3.76284 0
M  V30 2797 H 265.621 2.08218 -3.61987 0
M  V30 2798 N 266.058 1.56714 -0.166846 0
M  V30 2799 C 267.288 2.00828 0.48494 0
M  V30 2800 C 267.696 1.04612 1.57648 0
M  V30 2801 O 267.039 0.0383201 1.8366 0
M  V30 2802 C 267.101 3.4137 1.12723 0
M  V30 2803 C 266.765 4.56654 0.177886 0
M  V30 2804 C 267.762 5.16402 -0.60207 0
M  V30 2805 C 265.447 5.02244 0.0750139 0
M  V30 2806 C 267.441 6.20167 -1.47215 0
M  V30 2807 C 265.128 6.05859 -0.798649 0
M  V30 2808 C 266.126 6.64691 -1.57082 0
M  V30 2809 O 265.814 7.66297 -2.42989 0
M  V30 2810 H 265.546 0.663587 0.128953 0
M  V30 2811 H 268.1 2.03692 -0.264365 0
M  V30 2812 H 266.33 3.35406 1.92457 0
M  V30 2813 H 268.019 3.69466 1.68076 0
M  V30 2814 H 268.785 4.82065 -0.53274 0
M  V30 2815 H 264.664 4.56167 0.665812 0
M  V30 2816 H 268.208 6.66016 -2.07531 0
M  V30 2817 H 264.105 6.39621 -0.869199 0
M  V30 2818 H 264.873 7.83601 -2.36455 0
M  V30 2819 N 267.536 -0.106894 1.57237 0
M  V30 2820 C 268.952 -0.46078 1.52804 0
M  V30 2821 C 269.152 -1.81184 0.881746 0
M  V30 2822 O 268.208 -2.48102 0.469224 0
M  V30 2823 C 269.521 -0.434127 2.9755 0
M  V30 2824 C 271.069 -0.516821 3.08704 0
M  V30 2825 C 271.544 -0.520436 4.55033 0
M  V30 2826 N 273.035 -0.58153 4.59535 0
M  V30 2827 C 273.77 -0.605973 5.70189 0
M  V30 2828 N 273.266 -0.587331 6.90306 0
M  V30 2829 N 275.059 -0.649895 5.5833 0
M  V30 2830 H 267.21 0.778203 1.9763 0
M  V30 2831 H 269.473 0.288403 0.903066 0
M  V30 2832 H 269.179 0.491197 3.48253 0
M  V30 2833 H 269.053 -1.25748 3.55622 0
M  V30 2834 H 271.44 -1.43256 2.57995 0
M  V30 2835 H 271.521 0.334449 2.53604 0
M  V30 2836 H 271.165 0.391313 5.0639 0
M  V30 2837 H 271.095 -1.38876 5.07958 0
M  V30 2838 H 273.586 -0.60161 3.73081 0
M  V30 2839 H 273.899 -0.60894 7.70397 0
M  V30 2840 H 272.244 -0.554564 6.92784 0
M  V30 2841 H 275.435 -0.661907 4.63397 0
M  V30 2842 H 275.608 -0.665476 6.44574 0
M  V30 2843 N 269.014 -1.53014 -0.377408 0
M  V30 2844 C 269.961 -1.78616 -1.46168 0
M  V30 2845 C 270.931 -0.629917 -1.53692 0
M  V30 2846 O 272.116 -0.870861 -1.69766 0
M  V30 2847 C 269.256 -1.97123 -2.8326 0
M  V30 2848 C 268.369 -3.24831 -2.84796 0
M  V30 2849 C 267.504 -3.33591 -4.13389 0
M  V30 2850 C 266.543 -4.55377 -4.09021 0
M  V30 2851 N 265.68 -4.61355 -5.29241 0
M  V30 2852 H 270.52 -2.71142 -1.23637 0
M  V30 2853 H 268.057 -1.34326 -0.599577 0
M  V30 2854 H 270.015 -2.05839 -3.62886 0
M  V30 2855 H 268.645 -1.07946 -3.04216 0
M  V30 2856 H 267.697 -3.25128 -1.97474 0
M  V30 2857 H 269.009 -4.14523 -2.77439 0
M  V30 2858 H 268.163 -3.41554 -5.01424 0
M  V30 2859 H 266.902 -2.41894 -4.23484 0
M  V30 2860 H 265.907 -4.47527 -3.19373 0
M  V30 2861 H 267.132 -5.48402 -4.00539 0
M  V30 2862 H 265.078 -3.72554 -5.39944 0
M  V30 2863 H 264.995 -5.44935 -5.24006 0
M  V30 2864 H 266.263 -4.73586 -6.19141 0
M  V30 2865 N 270.492 0.636531 -1.44174 0
M  V30 2866 C 271.422 1.76003 -1.53444 0
M  V30 2867 C 272.403 1.65619 -0.387841 0
M  V30 2868 O 273.588 1.84461 -0.607257 0
M  V30 2869 C 270.718 3.14511 -1.4731 0
M  V30 2870 C 269.672 3.39677 -2.60391 0
M  V30 2871 C 268.998 4.78159 -2.39308 0
M  V30 2872 C 270.298 3.32772 -4.02567 0
M  V30 2873 H 271.992 1.68501 -2.47483 0
M  V30 2874 H 269.538 0.809237 -1.19111 0
M  V30 2875 H 271.491 3.92878 -1.52397 0
M  V30 2876 H 270.215 3.22783 -0.49785 0
M  V30 2877 H 268.874 2.63688 -2.54684 0
M  V30 2878 H 268.522 4.83128 -1.39988 0
M  V30 2879 H 268.222 4.95956 -3.15122 0
M  V30 2880 H 269.746 5.58762 -2.46205 0
M  V30 2881 H 271.16 4.01051 -4.09672 0
M  V30 2882 H 269.557 3.62104 -4.7854 0
M  V30 2883 H 270.627 2.30669 -4.2652 0
M  V30 2884 N 271.97 1.30982 0.876444 0
M  V30 2885 C 272.92 1.14688 1.97055 0
M  V30 2886 C 273.904 0.0596593 1.60789 0
M  V30 2887 O 275.096 0.283892 1.74708 0
M  V30 2888 C 272.225 0.849627 3.3262 0
M  V30 2889 C 271.311 1.97752 3.75173 0
M  V30 2890 N 271.702 3.22384 3.89746 0
M  V30 2891 C 270 1.8758 4.04635 0
M  V30 2892 C 270.701 3.96121 4.25985 0
M  V30 2893 N 269.677 3.24237 4.36315 0
M  V30 2894 H 273.479 2.09204 2.06424 0
M  V30 2895 H 270.993 1.22445 1.06682 0
M  V30 2896 H 272.99 0.713895 4.10742 0
M  V30 2897 H 271.65 -0.087376 3.24582 0
M  V30 2898 H 272.661 3.57575 3.74647 0
M  V30 2899 H 269.338 1.01303 4.05024 0
M  V30 2900 H 270.728 5.03491 4.44911 0
M  V30 2901 N 273.449 -1.08991 1.13837 0
M  V30 2902 C 274.86 -1.62746 0.914917 0
M  V30 2903 C 275.211 -1.88403 -0.547594 0
M  V30 2904 O 274.336 -1.63706 -1.41525 0
M  V30 2905 C 274.931 -2.95662 1.65437 0
M  V30 2906 C 273.49 -3.46225 1.47666 0
M  V30 2907 C 272.637 -2.20562 1.6807 0
M  V30 2908 H 275.588 -0.922946 1.29102 0
M  V30 2909 H 275.609 -3.63825 1.11407 0
M  V30 2910 H 275.121 -2.76956 2.71877 0
M  V30 2911 H 273.222 -3.70046 0.435478 0
M  V30 2912 H 273.335 -4.23368 2.24268 0
M  V30 2913 H 271.699 -2.29439 1.10589 0
M  V30 2914 H 272.482 -2.0437 2.7584 0
M  V30 2915 N 274.927 -0.932562 -1.27047 0
M  V30 2916 C 276.176 -0.571351 -1.93439 0
M  V30 2917 C 276.489 0.892467 -1.74053 0
M  V30 2918 O 277.695 1.36267 -2.34826 0
M  V30 2919 C 276.151 -0.97106 -3.46552 0
M  V30 2920 C 275.759 -2.4559 -3.74686 0
M  V30 2921 C 277.503 -0.681333 -4.18997 0
M  V30 2922 C 275.41 -2.79475 -5.21198 0
M  V30 2923 H 274.34 -0.209966 -0.724176 0
M  V30 2924 H 276.991 -1.13403 -1.44263 0
M  V30 2925 H 275.373 -0.336983 -3.94564 0
M  V30 2926 H 276.547 -3.13829 -3.37414 0
M  V30 2927 H 274.862 -2.71802 -3.15456 0
M  V30 2928 H 277.459 -0.910939 -5.26883 0
M  V30 2929 H 277.802 0.381628 -4.14547 0
M  V30 2930 H 278.335 -1.27473 -3.76823 0
M  V30 2931 H 275.074 -3.847 -5.30741 0
M  V30 2932 H 274.594 -2.1589 -5.596 0
M  V30 2933 H 276.273 -2.67478 -5.89122 0
M  V30 2934 N 276.405 1.4127 -0.698611 0
M  V30 2935 C 277.337 2.292 0.00399731 0
M  V30 2936 C 278.35 1.44944 0.741279 0
M  V30 2937 O 279.539 1.68416 0.591477 0
M  V30 2938 C 276.639 3.22875 1.02979 0
M  V30 2939 C 275.812 4.35904 0.36151 0
M  V30 2940 C 274.871 5.10134 1.29033 0
M  V30 2941 O 273.897 5.63809 0.781562 0
M  V30 2942 N 275.099 5.17885 2.6225 0
M  V30 2943 H 277.864 2.9014 -0.750921 0
M  V30 2944 H 275.425 1.52455 -0.544882 0
M  V30 2945 H 277.417 3.69404 1.65296 0
M  V30 2946 H 275.987 2.63221 1.68622 0
M  V30 2947 H 275.207 3.91719 -0.441584 0
M  V30 2948 H 276.495 5.08696 -0.103055 0
M  V30 2949 H 275.893 4.7573 3.061 0
M  V30 2950 H 274.45 5.6798 3.19754 0
M  V30 2951 N 277.883 0.443576 1.51229 0
M  V30 2952 C 279.299 0.0962001 1.5931 0
M  V30 2953 C 279.499 -1.39501 1.45402 0
M  V30 2954 O 278.555 -2.16557 1.29843 0
M  V30 2955 C 279.868 0.621875 2.94199 0
M  V30 2956 C 281.416 0.582865 3.07525 0
M  V30 2957 C 281.891 1.08562 4.44948 0
M  V30 2958 N 283.382 1.04387 4.51284 0
M  V30 2959 C 284.117 1.40368 5.55954 0
M  V30 2960 N 283.613 1.83664 6.68011 0
M  V30 2961 N 285.406 1.32145 5.46346 0
M  V30 2962 H 277.557 1.41376 1.58514 0
M  V30 2963 H 279.82 0.582965 0.747567 0
M  V30 2964 H 279.526 1.66546 3.09767 0
M  V30 2965 H 279.4 0.0502125 3.77167 0
M  V30 2966 H 281.787 -0.451749 2.91622 0
M  V30 2967 H 281.868 1.191 2.26382 0
M  V30 2968 H 281.512 2.11873 4.61598 0
M  V30 2969 H 281.442 0.453956 5.2464 0
M  V30 2970 H 283.933 0.725986 3.70861 0
M  V30 2971 H 284.246 2.0934 7.43906 0
M  V30 2972 H 282.591 1.87596 6.69203 0
M  V30 2973 H 285.782 0.981808 4.57688 0
M  V30 2974 H 285.955 1.60514 6.27805 0
M  V30 2975 N 279.361 -1.56624 0.175154 0
M  V30 2976 C 280.772 -1.83561 -0.340916 0
M  V30 2977 C 281.123 -1.09511 -1.62794 0
M  V30 2978 O 280.248 -0.349389 -2.13561 0
M  V30 2979 C 280.843 -3.32979 -0.625313 0
M  V30 2980 C 279.402 -3.60399 -1.08581 0
M  V30 2981 C 278.549 -2.77024 -0.123722 0
M  V30 2982 H 281.5 -1.53593 0.399344 0
M  V30 2983 H 281.521 -3.50666 -1.47694 0
M  V30 2984 H 281.033 -3.86847 0.311575 0
M  V30 2985 H 279.134 -3.11945 -2.03767 0
M  V30 2986 H 279.247 -4.68711 -0.992317 0
M  V30 2987 H 277.611 -2.46993 -0.621821 0
M  V30 2988 H 278.394 -3.33674 0.807256 0
M  V30 2989 N 280.839 0.0985539 -1.57292 0
M  V30 2990 C 282.088 0.801358 -1.85098 0
M  V30 2991 C 282.401 1.80066 -0.763902 0
M  V30 2992 O 283.607 2.55112 -0.928981 0
M  V30 2993 C 282.063 1.47599 -3.28242 0
M  V30 2994 C 281.671 0.516624 -4.45011 0
M  V30 2995 C 283.415 2.16272 -3.65276 0
M  V30 2996 C 281.322 1.19564 -5.79188 0
M  V30 2997 H 280.252 0.303022 -0.69043 0
M  V30 2998 H 282.903 0.0542623 -1.8342 0
M  V30 2999 H 281.285 2.27042 -3.2445 0
M  V30 3000 H 282.459 -0.246065 -4.60143 0
M  V30 3001 H 280.774 -0.064227 -4.1635 0
M  V30 3002 H 283.371 2.67802 -4.62803 0
M  V30 3003 H 283.714 2.95009 -2.93727 0
M  V30 3004 H 284.247 1.43693 -3.70941 0
M  V30 3005 H 280.986 0.449157 -6.53959 0
M  V30 3006 H 280.506 1.92984 -5.67906 0
M  V30 3007 H 282.185 1.7231 -6.23633 0
M  V30 3008 N 282.317 1.53212 0.369288 0
M  V30 3009 C 283.728 1.60943 0.946276 0
M  V30 3010 C 284.079 0.47452 1.90375 0
M  V30 3011 O 283.204 -0.399597 2.12679 0
M  V30 3012 C 283.799 2.91715 1.72302 0
M  V30 3013 C 282.358 3.01792 2.24941 0
M  V30 3014 C 281.505 2.56211 1.06072 0
M  V30 3015 H 284.456 1.58007 0.148198 0
M  V30 3016 H 284.477 2.79309 2.58393 0
M  V30 3017 H 283.989 3.74295 1.0259 0
M  V30 3018 H 282.09 2.23791 2.97906 0
M  V30 3019 H 282.203 4.06803 2.53077 0
M  V30 3020 H 280.567 2.10998 1.4266 0
M  V30 3021 H 281.35 3.41206 0.378639 0
M  V30 3022 N 283.795 -0.628877 1.44509 0
M  V30 3023 C 285.02 -1.42048 1.5112 0
M  V30 3024 C 285.445 -1.87594 0.137818 0
M  V30 3025 O 284.803 -1.58873 -0.873437 0
M  V30 3026 C 284.851 -2.61541 2.48251 0
M  V30 3027 O 283.955 -3.61453 1.98559 0
M  V30 3028 H 283.296 -0.424942 0.510216 0
M  V30 3029 H 285.826 -0.767374 1.89664 0
M  V30 3030 H 285.836 -3.09057 2.66361 0
M  V30 3031 H 284.511 -2.27736 3.48007 0
M  V30 3032 H 283.088 -3.20731 1.90227 0
M  V30 3033 N 285.273 -1.31445 -0.869486 0
M  V30 3034 C 286.236 -1.19094 -1.9583 0
M  V30 3035 C 287.236 -0.117906 -1.60367 0
M  V30 3036 O 288.426 -0.367208 -1.70286 0
M  V30 3037 C 285.558 -0.828165 -3.30688 0
M  V30 3038 H 286.751 -2.15842 -2.08212 0
M  V30 3039 H 284.304 -1.15063 -1.05784 0
M  V30 3040 H 285.039 0.138142 -3.24006 0
M  V30 3041 H 284.824 -1.6038 -3.578 0
M  V30 3042 H 286.314 -0.765658 -4.10521 0
M  V30 3043 N 286.751 1.08385 -1.14413 0
M  V30 3044 C 287.998 1.80776 -0.912482 0
M  V30 3045 C 288.326 1.86236 0.560934 0
M  V30 3046 O 287.581 1.33431 1.43159 0
M  V30 3047 C 287.88 3.26273 -1.45879 0
M  V30 3048 C 287.546 3.4093 -2.95089 0
M  V30 3049 C 286.208 3.44638 -3.35824 0
M  V30 3050 C 288.56 3.44591 -3.91033 0
M  V30 3051 C 285.888 3.49597 -4.71167 0
M  V30 3052 C 288.24 3.51086 -5.26233 0
M  V30 3053 C 286.904 3.53067 -5.6648 0
M  V30 3054 H 286.174 0.661507 -0.333901 0
M  V30 3055 H 288.821 1.27613 -1.42784 0
M  V30 3056 H 287.126 3.82146 -0.864376 0
M  V30 3057 H 288.823 3.80839 -1.2555 0
M  V30 3058 H 285.413 3.38736 -2.62594 0
M  V30 3059 H 289.597 3.40957 -3.60641 0
M  V30 3060 H 284.853 3.49424 -5.0171 0
M  V30 3061 H 289.027 3.52864 -6.00383 0
M  V30 3062 H 286.654 3.56662 -6.71339 0
M  V30 3063 N 288.23 0.939286 1.26551 0
M  V30 3064 C 289.47 0.5933 1.956 0
M  V30 3065 C 289.834 -0.851515 1.72085 0
M  V30 3066 O 291.035 -1.30634 2.34921 0
M  V30 3067 C 289.306 0.923996 3.45249 0
M  V30 3068 S 290.865 0.688269 4.33369 0
M  V30 3069 H 287.683 0.218591 0.676564 0
M  V30 3070 H 290.285 1.2102 1.5354 0
M  V30 3071 H 288.989 1.97297 3.59864 0
M  V30 3072 H 288.52 0.296746 3.92279 0
M  V30 3073 H 290.535 -0.448434 4.9417 0
M  V30 3074 N 289.708 -1.40897 0.706093 0
M  V30 3075 C 290.955 -2.01054 0.241531 0
M  V30 3076 C 291.283 -1.55956 -1.16223 0
M  V30 3077 O 290.538 -0.766336 -1.80072 0
M  V30 3078 C 290.837 -3.5646 0.259099 0
M  V30 3079 C 290.503 -4.21106 1.61184 0
M  V30 3080 C 289.165 -4.38479 1.98216 0
M  V30 3081 C 291.517 -4.57256 2.50132 0
M  V30 3082 C 288.845 -4.89282 3.2376 0
M  V30 3083 C 291.197 -5.09454 3.7502 0
M  V30 3084 C 289.861 -5.25037 4.12181 0
M  V30 3085 H 289.131 -0.73571 0.0883825 0
M  V30 3086 H 291.778 -1.68645 0.907257 0
M  V30 3087 H 290.083 -3.88721 -0.490189 0
M  V30 3088 H 291.78 -4.00826 -0.11804 0
M  V30 3089 H 288.37 -4.07966 1.31384 0
M  V30 3090 H 292.554 -4.43479 2.228 0
M  V30 3091 H 287.81 -4.99531 3.52532 0
M  V30 3092 H 291.984 -5.36404 4.44121 0
M  V30 3093 H 289.611 -5.64164 5.09532 0
M  V30 3094 N 291.186 -0.45159 -1.50991 0
M  V30 3095 C 292.116 0.342898 -2.30969 0
M  V30 3096 C 293.097 1.00815 -1.37005 0
M  V30 3097 O 294.282 1.00907 -1.65926 0
M  V30 3098 C 291.412 1.43637 -3.16205 0
M  V30 3099 C 290.366 0.893818 -4.18563 0
M  V30 3100 C 289.692 2.08411 -4.92411 0
M  V30 3101 C 290.992 -0.0815568 -5.22236 0
M  V30 3102 H 292.686 -0.324556 -2.97636 0
M  V30 3103 H 290.232 -0.157531 -1.43136 0
M  V30 3104 H 292.185 1.9995 -3.70942 0
M  V30 3105 H 290.909 2.13232 -2.47386 0
M  V30 3106 H 289.568 0.352798 -3.64898 0
M  V30 3107 H 289.216 2.76658 -4.20082 0
M  V30 3108 H 288.916 1.72741 -5.61636 0
M  V30 3109 H 290.44 2.65251 -5.49976 0
M  V30 3110 H 291.854 0.391742 -5.7196 0
M  V30 3111 H 290.251 -0.351551 -5.99069 0
M  V30 3112 H 291.321 -1.01374 -4.74185 0
M  V30 3113 N 292.664 1.56529 -0.183458 0
M  V30 3114 C 293.889 2.02064 0.467428 0
M  V30 3115 C 294.314 1.06282 1.55196 0
M  V30 3116 O 293.672 0.0443565 1.81246 0
M  V30 3117 C 293.72 3.46122 1.01153 0
M  V30 3118 O 292.824 3.53437 2.12499 0
M  V30 3119 H 292.165 0.654726 0.110588 0
M  V30 3120 H 294.695 2.02521 -0.290917 0
M  V30 3121 H 294.705 3.85676 1.33108 0
M  V30 3122 H 293.38 4.15331 0.217533 0
M  V30 3123 H 291.957 3.2575 1.81497 0
M  V30 3124 N 294.142 -0.090211 1.57342 0
M  V30 3125 C 295.092 -1.11557 1.98844 0
M  V30 3126 C 296.076 -1.35503 0.867624 0
M  V30 3127 O 297.268 -1.36113 1.13148 0
M  V30 3128 C 294.397 -2.43446 2.42051 0
M  V30 3129 C 293.483 -2.22853 3.60828 0
M  V30 3130 N 293.874 -1.72141 4.75606 0
M  V30 3131 C 292.172 -2.53401 3.67021 0
M  V30 3132 C 292.873 -1.65932 5.57531 0
M  V30 3133 N 291.849 -2.11323 5.00843 0
M  V30 3134 H 295.651 -0.716499 2.85032 0
M  V30 3135 H 293.165 -0.297567 1.59651 0
M  V30 3136 H 295.162 -3.17644 2.70014 0
M  V30 3137 H 293.822 -2.84087 1.57241 0
M  V30 3138 H 294.833 -1.41268 4.98261 0
M  V30 3139 H 291.51 -2.97532 2.92884 0
M  V30 3140 H 292.9 -1.27733 6.59647 0
M  V30 3141 N 295.62 -1.53406 -0.361157 0
M  V30 3142 C 296.897 -1.60411 -1.11927 0
M  V30 3143 C 297.277 -0.414385 -2.06993 0
M  V30 3144 O 296.625 0.594976 -2.20618 0
M  V30 3145 C 296.835 -2.95652 -1.85448 0
M  V30 3146 C 298.183 -3.50386 -2.39823 0
M  V30 3147 O 299.207 -2.97711 -1.95568 0
M  V30 3148 O 298.066 -4.42482 -3.20737 0
M  V30 3149 H 295.16 -0.64811 -0.513695 0
M  V30 3150 H 297.706 -1.65749 -0.364065 0
M  V30 3151 H 296.478 -3.73682 -1.16091 0
M  V30 3152 H 296.101 -2.93825 -2.67866 0
M  V30 3153 N 297.098 0.621204 -1.44841 0
M  V30 3154 C 298.048 1.72663 -1.48901 0
M  V30 3155 C 299.032 1.56964 -0.353702 0
M  V30 3156 O 300.224 1.66532 -0.599669 0
M  V30 3157 C 297.353 3.11381 -1.44557 0
M  V30 3158 C 296.439 3.32514 -2.6324 0
M  V30 3159 N 296.83 3.23969 -3.8843 0
M  V30 3160 C 295.128 3.63343 -2.58647 0
M  V30 3161 C 295.829 3.46062 -4.67564 0
M  V30 3162 N 294.805 3.69407 -3.98797 0
M  V30 3163 H 298.607 1.64529 -2.43531 0
M  V30 3164 H 296.121 0.82401 -1.39942 0
M  V30 3165 H 298.118 3.90667 -1.4555 0
M  V30 3166 H 296.778 3.20674 -0.509731 0
M  V30 3167 H 297.789 3.02669 -4.20252 0
M  V30 3168 H 294.466 3.79556 -1.73906 0
M  V30 3169 H 295.856 3.44963 -5.76585 0
M  V30 3170 N 298.576 1.31904 0.862503 0
M  V30 3171 C 299.824 1.21776 1.61292 0
M  V30 3172 C 300.145 -0.222413 1.93727 0
M  V30 3173 O 299.415 -1.1451 1.58947 0
M  V30 3174 H 297.995 0.447717 0.597962 0
M  V30 3175 H 300.657 1.65326 1.03215 0
M  V30 3176 H 299.753 1.7948 2.5533 0
M  V30 3177 N 300.054 -1.07777 1.14986 0
M  V30 3178 C 301.47 -1.32373 0.891596 0
M  V30 3179 C 301.67 -1.9609 -0.463788 0
M  V30 3180 O 300.726 -2.21801 -1.20667 0
M  V30 3181 C 302.039 -2.21905 2.02925 0
M  V30 3182 C 303.587 -2.35367 2.06329 0
M  V30 3183 C 304.062 -3.28245 3.19405 0
M  V30 3184 N 305.553 -3.35824 3.19024 0
M  V30 3185 C 306.288 -4.07739 4.03158 0
M  V30 3186 N 305.784 -4.82306 4.97346 0
M  V30 3187 N 307.577 -4.03635 3.91197 0
M  V30 3188 H 299.728 -0.648039 2.02273 0
M  V30 3189 H 301.991 -0.348149 0.881757 0
M  V30 3190 H 301.697 -1.82342 3.0074 0
M  V30 3191 H 301.571 -3.22407 1.95789 0
M  V30 3192 H 303.958 -2.74186 1.09116 0
M  V30 3193 H 304.039 -1.34585 2.17533 0
M  V30 3194 H 303.683 -2.90146 4.16867 0
M  V30 3195 H 303.613 -4.28971 3.05437 0
M  V30 3196 H 306.104 -2.8267 2.50811 0
M  V30 3197 H 306.417 -5.34661 5.57994 0
M  V30 3198 H 304.762 -4.81337 5.01338 0
M  V30 3199 H 307.953 -3.44491 3.16928 0
M  V30 3200 H 308.126 -4.59417 4.5699 0
M  V30 3201 N 301.532 -0.945985 -1.26051 0
M  V30 3202 C 302.76 -0.613025 -1.9761 0
M  V30 3203 C 303.175 0.813035 -1.70397 0
M  V30 3204 O 302.532 1.54274 -0.974979 0
M  V30 3205 C 302.583 -0.85159 -3.51326 0
M  V30 3206 O 302.304 -2.22157 -3.77595 0
M  V30 3207 C 303.805 -0.529831 -4.40122 0
M  V30 3208 H 301.025 -0.230593 -0.630133 0
M  V30 3209 H 303.569 -1.268 -1.60443 0
M  V30 3210 H 301.724 -0.243151 -3.86636 0
M  V30 3211 H 302.138 -2.2852 -4.721 0
M  V30 3212 H 303.612 -0.747348 -5.46917 0
M  V30 3213 H 304.089 0.535341 -4.35925 0
M  V30 3214 H 304.695 -1.11721 -4.10364 0
M  V30 3215 N 303.011 1.40521 -0.713556 0
M  V30 3216 C 304.257 2.01714 -0.261382 0
M  V30 3217 C 304.612 1.55562 1.13217 0
M  V30 3218 O 303.905 0.764893 1.7567 0
M  V30 3219 C 304.099 3.56317 -0.278 0
M  V30 3220 C 303.928 4.17476 -1.67163 0
M  V30 3221 C 302.698 4.50998 -2.2788 0
M  V30 3222 C 304.896 4.42472 -2.6215 0
M  V30 3223 N 302.878 4.9754 -3.5962 0
M  V30 3224 C 304.249 4.90985 -3.78594 0
M  V30 3225 C 306.304 4.24508 -2.60188 0
M  V30 3226 C 305.007 5.2342 -4.9338 0
M  V30 3227 C 307.033 4.58043 -3.741 0
M  V30 3228 C 306.395 5.06743 -4.89276 0
M  V30 3229 H 302.494 0.769104 -0.141434 0
M  V30 3230 H 305.078 1.70785 -0.934915 0
M  V30 3231 H 303.249 3.8668 0.36509 0
M  V30 3232 H 304.981 4.0425 0.190695 0
M  V30 3233 H 301.736 4.38062 -1.79997 0
M  V30 3234 H 302.16 5.25196 -4.27198 0
M  V30 3235 H 306.802 3.86078 -1.72348 0
M  V30 3236 H 304.52 5.60765 -5.81866 0
M  V30 3237 H 308.106 4.45785 -3.73854 0
M  V30 3238 H 306.986 5.32204 -5.75959 0
M  V30 3239 N 304.489 0.459591 1.5075 0
M  V30 3240 C 305.452 -0.329093 2.26825 0
M  V30 3241 C 306.452 -0.930481 1.31144 0
M  V30 3242 O 307.642 -0.801453 1.54669 0
M  V30 3243 C 304.774 -1.46768 3.07688 0
M  V30 3244 H 305.967 0.337924 2.9799 0
M  V30 3245 H 303.52 0.213336 1.54837 0
M  V30 3246 H 304.255 -2.17009 2.40993 0
M  V30 3247 H 304.04 -1.04238 3.77991 0
M  V30 3248 H 305.53 -2.02433 3.65254 0
M  V30 3249 N 305.967 -1.56429 0.191757 0
M  V30 3250 C 307.383 -1.58754 -0.164137 0
M  V30 3251 C 307.583 -1.20782 -1.61288 0
M  V30 3252 O 306.639 -0.928999 -2.34789 0
M  V30 3253 C 307.952 -3.00396 0.135195 0
M  V30 3254 C 309.5 -3.1291 0.0750351 0
M  V30 3255 C 309.975 -4.56679 0.347632 0
M  V30 3256 N 311.466 -4.62252 0.296131 0
M  V30 3257 C 312.201 -5.71379 0.480948 0
M  V30 3258 N 311.697 -6.88986 0.725933 0
M  V30 3259 N 313.49 -5.60563 0.415435 0
M  V30 3260 H 305.641 -1.79393 1.13718 0
M  V30 3261 H 307.904 -0.832414 0.453643 0
M  V30 3262 H 307.61 -3.32726 1.13958 0
M  V30 3263 H 307.484 -3.72963 -0.563773 0
M  V30 3264 H 309.871 -2.80394 -0.919948 0
M  V30 3265 H 309.952 -2.42736 0.807029 0
M  V30 3266 H 309.596 -4.89907 1.33992 0
M  V30 3267 H 309.526 -5.25039 -0.405212 0
M  V30 3268 H 312.017 -3.7773 0.113259 0
M  V30 3269 H 312.33 -7.68046 0.855857 0
M  V30 3270 H 310.675 -6.90801 0.762788 0
M  V30 3271 H 313.866 -4.67561 0.224486 0
M  V30 3272 H 314.039 -6.45551 0.562889 0
M  V30 3273 N 307.445 0.0818655 -1.57387 0
M  V30 3274 C 308.693 0.781368 -1.86384 0
M  V30 3275 C 309.014 1.78618 -0.782342 0
M  V30 3276 O 308.284 1.94976 0.190061 0
M  V30 3277 H 306.864 0.291562 -0.687751 0
M  V30 3278 H 309.526 0.060348 -1.94807 0
M  V30 3279 H 308.622 1.3038 -2.83562 0
M  V30 3280 N 308.923 1.53595 0.353017 0
M  V30 3281 C 309.873 1.77299 1.43349 0
M  V30 3282 C 310.857 0.627884 1.48143 0
M  V30 3283 O 312.049 0.88697 1.53173 0
M  V30 3284 C 309.178 1.97757 2.80619 0
M  V30 3285 C 308.264 3.18305 2.80254 0
M  V30 3286 N 308.655 4.39967 2.49526 0
M  V30 3287 C 306.953 3.19283 3.11407 0
M  V30 3288 C 307.654 5.21772 2.57156 0
M  V30 3289 N 306.63 4.58269 2.92388 0
M  V30 3290 H 310.432 2.68963 1.18474 0
M  V30 3291 H 307.946 1.52391 0.561306 0
M  V30 3292 H 309.943 2.1287 3.58458 0
M  V30 3293 H 308.603 1.07329 3.06448 0
M  V30 3294 H 309.614 4.67482 2.22893 0
M  V30 3295 H 306.291 2.3879 3.4247 0
M  V30 3296 H 307.681 6.2885 2.36638 0
M  V30 3297 N 310.401 -0.613514 1.45168 0
M  V30 3298 C 311.648 -1.37268 1.48875 0
M  V30 3299 C 311.976 -1.94077 0.128161 0
M  V30 3300 O 311.231 -1.75178 -0.872416 0
M  V30 3301 C 311.53 -2.54347 2.51083 0
M  V30 3302 C 311.196 -2.1572 3.95949 0
M  V30 3303 C 309.858 -2.04899 4.35396 0
M  V30 3304 C 312.21 -1.85485 4.87078 0
M  V30 3305 C 309.538 -1.62057 5.63875 0
M  V30 3306 C 311.89 -1.4413 6.15962 0
M  V30 3307 C 310.554 -1.31863 6.54346 0
M  V30 3308 H 309.824 -0.502299 0.544773 0
M  V30 3309 H 312.471 -0.694021 1.78481 0
M  V30 3310 H 310.776 -3.27524 2.15024 0
M  V30 3311 H 312.473 -3.12577 2.51191 0
M  V30 3312 H 309.063 -2.25066 3.64751 0
M  V30 3313 H 313.247 -1.92745 4.57343 0
M  V30 3314 H 308.503 -1.51177 5.92415 0
M  V30 3315 H 312.677 -1.19778 6.86022 0
M  V30 3316 H 310.304 -0.984392 7.538 0
M  V30 3317 N 311.879 -1.3236 -0.855495 0
M  V30 3318 C 313.125 -1.23054 -1.612 0
M  V30 3319 C 313.458 0.207404 -1.93089 0
M  V30 3320 O 312.733 1.14432 -1.57275 0
M  V30 3321 C 313.016 -2.08937 -2.93287 0
M  V30 3322 C 312.869 -3.61105 -2.68185 0
M  V30 3323 C 314.188 -1.94986 -3.94549 0
M  V30 3324 H 311.307 -0.448364 -0.584926 0
M  V30 3325 H 313.949 -1.62297 -0.987917 0
M  V30 3326 H 312.099 -1.75599 -3.46551 0
M  V30 3327 H 313.771 -4.04652 -2.21483 0
M  V30 3328 H 312.014 -3.83813 -2.02164 0
M  V30 3329 H 312.685 -4.16522 -3.62234 0
M  V30 3330 H 315.161 -2.24189 -3.5054 0
M  V30 3331 H 314.037 -2.57356 -4.84829 0
M  V30 3332 H 314.298 -0.917263 -4.3248 0
M  V30 3333 N 313.357 1.07166 -1.15556 0
M  V30 3334 C 314.32 2.12589 -0.856644 0
M  V30 3335 C 315.32 1.6015 0.14444 0
M  V30 3336 O 316.51 1.7399 -0.0854163 0
M  V30 3337 C 313.642 3.39753 -0.279405 0
M  V30 3338 H 314.835 2.40539 -1.79112 0
M  V30 3339 H 312.388 1.23086 -0.963298 0
M  V30 3340 H 313.123 3.17447 0.663174 0
M  V30 3341 H 312.908 3.79117 -1.00063 0
M  V30 3342 H 314.398 4.17507 -0.0879113 0
M  V30 3343 N 314.835 0.952656 1.25548 0
M  V30 3344 C 315.767 0.428609 2.25157 0
M  V30 3345 C 316.78 -0.454428 1.56329 0
M  V30 3346 O 317.969 -0.263023 1.76552 0
M  V30 3347 C 315.069 -0.401972 3.36508 0
M  V30 3348 C 314.242 0.467601 4.34893 0
M  V30 3349 C 313.301 -0.30445 5.25319 0
M  V30 3350 O 312.327 0.296473 5.68427 0
M  V30 3351 N 313.529 -1.59805 5.5807 0
M  V30 3352 H 316.294 1.28497 2.70756 0
M  V30 3353 H 313.855 0.822798 1.39433 0
M  V30 3354 H 315.847 -0.926134 3.9396 0
M  V30 3355 H 314.417 -1.15918 2.90313 0
M  V30 3356 H 313.637 1.17288 3.76347 0
M  V30 3357 H 314.925 1.06119 4.97611 0
M  V30 3358 H 314.323 -2.10823 5.24948 0
M  V30 3359 H 312.88 -2.06822 6.18116 0
M  V30 3360 N 316.313 -1.40141 0.720998 0
M  V30 3361 C 317.59 -1.94677 0.189757 0
M  V30 3362 C 317.97 -1.65879 -1.30566 0
M  V30 3363 O 317.318 -0.979391 -2.06447 0
M  V30 3364 C 317.528 -3.45279 0.508304 0
M  V30 3365 C 318.876 -4.22209 0.449934 0
M  V30 3366 O 319.9 -3.53413 0.444677 0
M  V30 3367 O 318.759 -5.44788 0.432189 0
M  V30 3368 H 315.853 -0.826459 0.0299026 0
M  V30 3369 H 318.399 -1.49719 0.7989 0
M  V30 3370 H 317.171 -3.59619 1.54239 0
M  V30 3371 H 316.794 -3.97386 -0.130525 0
M  V30 3372 N 317.792 -0.46758 -1.50504 0
M  V30 3373 C 319.02 0.0864133 -2.06719 0
M  V30 3374 C 319.435 1.33819 -1.33184 0
M  V30 3375 O 318.792 1.78061 -0.400083 0
M  V30 3376 C 318.843 0.378079 -3.59517 0
M  V30 3377 O 318.564 -0.824044 -4.3028 0
M  V30 3378 C 320.065 0.979426 -4.32345 0
M  V30 3379 H 317.285 -0.00551697 -0.670977 0
M  V30 3380 H 319.829 -0.655354 -1.93715 0
M  V30 3381 H 317.984 1.06977 -3.72337 0
M  V30 3382 H 318.398 -0.566518 -5.21432 0
M  V30 3383 H 319.872 1.1333 -5.40241 0
M  V30 3384 H 320.349 1.9686 -3.9261 0
M  V30 3385 H 320.955 0.326216 -4.24047 0
M  V30 3386 N 319.27 1.56325 -0.20005 0
M  V30 3387 C 320.2 2.22318 0.713916 0
M  V30 3388 C 321.181 1.18788 1.21752 0
M  V30 3389 O 322.366 1.47309 1.26545 0
M  V30 3390 C 319.496 2.88639 1.93144 0
M  V30 3391 C 318.45 3.98457 1.56255 0
M  V30 3392 C 317.776 4.51967 2.85709 0
M  V30 3393 C 319.076 5.16612 0.768747 0
M  V30 3394 H 320.77 2.98952 0.163755 0
M  V30 3395 H 318.316 1.43792 0.0773219 0
M  V30 3396 H 320.269 3.33491 2.57608 0
M  V30 3397 H 318.993 2.09419 2.50621 0
M  V30 3398 H 317.652 3.54305 0.941471 0
M  V30 3399 H 317.3 3.69503 3.41287 0
M  V30 3400 H 317 5.26071 2.6177 0
M  V30 3401 H 318.524 4.99523 3.51154 0
M  V30 3402 H 319.938 5.57977 1.3166 0
M  V30 3403 H 318.335 5.96812 0.627286 0
M  V30 3404 H 319.405 4.84358 -0.229168 0
M  V30 3405 N 320.748 -0.0735177 1.57428 0
M  V30 3406 C 321.658 -1.10547 2.06922 0
M  V30 3407 C 322.674 -1.42506 0.998402 0
M  V30 3408 O 323.85 -1.52717 1.31299 0
M  V30 3409 C 320.915 -2.40019 2.50184 0
M  V30 3410 C 319.976 -2.15046 3.71556 0
M  V30 3411 C 319.209 -3.38345 4.12745 0
M  V30 3412 O 319.432 -4.47399 3.53822 0
M  V30 3413 O 318.366 -3.2666 5.05546 0
M  V30 3414 H 322.192 -0.715013 2.95163 0
M  V30 3415 H 319.777 -0.287531 1.46607 0
M  V30 3416 H 321.659 -3.16218 2.78539 0
M  V30 3417 H 320.334 -2.78447 1.65072 0
M  V30 3418 H 319.241 -1.36558 3.48285 0
M  V30 3419 H 320.574 -1.81499 4.57514 0
M  V30 3420 N 322.226 -1.5378 -0.344866 0
M  V30 3421 C 323.466 -1.72677 -1.09371 0
M  V30 3422 C 323.83 -0.479084 -1.85927 0
M  V30 3423 O 325.031 -0.54505 -2.63216 0
M  V30 3424 C 323.302 -2.95457 -2.01097 0
M  V30 3425 S 324.861 -3.35158 -2.83222 0
M  V30 3426 H 321.679 -0.607402 -0.369573 0
M  V30 3427 H 324.281 -1.91922 -0.372307 0
M  V30 3428 H 322.985 -3.84437 -1.43655 0
M  V30 3429 H 322.516 -2.78673 -2.77678 0
M  V30 3430 H 324.531 -2.88789 -4.03504 0
M  V30 3431 N 323.704 0.605807 -1.45491 0
M  V30 3432 C 324.636 1.73031 -1.5031 0
M  V30 3433 C 325.649 1.57968 -0.393687 0
M  V30 3434 O 326.838 1.65817 -0.660839 0
M  V30 3435 C 323.938 3.11049 -1.34543 0
M  V30 3436 C 323.111 3.52334 -2.59189 0
M  V30 3437 C 322.17 4.69323 -2.37954 0
M  V30 3438 O 321.196 4.7635 -3.11575 0
M  V30 3439 N 322.398 5.62705 -1.4263 0
M  V30 3440 H 325.163 1.6936 -2.4726 0
M  V30 3441 H 322.724 0.79114 -1.41254 0
M  V30 3442 H 324.716 3.87071 -1.18144 0
M  V30 3443 H 323.286 3.09217 -0.458623 0
M  V30 3444 H 322.506 2.66256 -2.90691 0
M  V30 3445 H 323.794 3.76677 -3.42041 0
M  V30 3446 H 323.192 5.59744 -0.818758 0
M  V30 3447 H 321.749 6.38252 -1.32202 0
M  V30 3448 N 325.182 1.32811 0.848464 0
M  V30 3449 C 326.428 1.23907 1.60546 0
M  V30 3450 C 326.761 -0.197161 1.93197 0
M  V30 3451 O 326.036 -1.13596 1.5788 0
M  V30 3452 C 326.319 2.10489 2.92175 0
M  V30 3453 C 326.172 3.62522 2.66266 0
M  V30 3454 C 327.491 1.97075 3.93509 0
M  V30 3455 H 324.61 0.451459 0.58254 0
M  V30 3456 H 327.252 1.62818 0.979296 0
M  V30 3457 H 325.402 1.77434 3.45614 0
M  V30 3458 H 327.074 4.05821 2.19334 0
M  V30 3459 H 325.317 3.84879 2.00126 0
M  V30 3460 H 325.988 4.18437 3.6002 0
M  V30 3461 H 328.464 2.26045 3.49346 0
M  V30 3462 H 327.34 2.59923 4.83457 0
M  V30 3463 H 327.601 0.940186 4.31987 0
M  V30 3464 N 326.66 -1.06551 1.16123 0
M  V30 3465 C 327.623 -2.12132 0.867906 0
M  V30 3466 C 328.623 -1.60224 -0.135944 0
M  V30 3467 O 329.813 -1.73943 0.0946422 0
M  V30 3468 C 326.945 -3.396 0.297419 0
M  V30 3469 H 328.138 -2.39586 1.80385 0
M  V30 3470 H 325.691 -1.22574 0.969812 0
M  V30 3471 H 326.426 -3.17794 -0.64633 0
M  V30 3472 H 326.211 -3.78581 1.02073 0
M  V30 3473 H 327.701 -4.17455 0.110052 0
M  V30 3474 N 328.138 -0.959301 -1.25041 0
M  V30 3475 C 329.048 -0.489994 -2.29426 0
M  V30 3476 C 330.064 0.444944 -1.68215 0
M  V30 3477 O 331.24 0.320046 -1.98841 0
M  V30 3478 C 328.305 0.220309 -3.45999 0
M  V30 3479 C 327.366 -0.753418 -4.22637 0
M  V30 3480 C 326.599 -0.076918 -5.33645 0
M  V30 3481 O 326.822 1.13649 -5.58963 0
M  V30 3482 O 325.756 -0.764824 -5.97021 0
M  V30 3483 H 329.582 -1.35755 -2.71669 0
M  V30 3484 H 327.167 -0.725961 -1.30576 0
M  V30 3485 H 329.049 0.619677 -4.16819 0
M  V30 3486 H 327.724 1.06296 -3.0575 0
M  V30 3487 H 326.631 -1.20308 -3.54227 0
M  V30 3488 H 327.964 -1.56423 -4.66683 0
M  V30 3489 N 329.616 1.39756 -0.72842 0
M  V30 3490 C 330.862 2.00942 -0.273892 0
M  V30 3491 C 331.195 1.57656 1.13394 0
M  V30 3492 O 330.47 0.802434 1.77176 0
M  V30 3493 C 330.753 3.58211 -0.368346 0
M  V30 3494 C 330.606 4.11534 -1.81548 0
M  V30 3495 C 331.925 4.39372 0.253054 0
M  V30 3496 H 329.044 0.730047 -0.100996 0
M  V30 3497 H 331.686 1.66056 -0.923337 0
M  V30 3498 H 329.836 3.88061 0.184588 0
M  V30 3499 H 331.508 3.92431 -2.42478 0
M  V30 3500 H 329.751 3.65341 -2.33898 0
M  V30 3501 H 330.422 5.20682 -1.83288 0
M  V30 3502 H 332.898 4.15527 -0.218224 0
M  V30 3503 H 331.774 5.48677 0.156585 0
M  V30 3504 H 332.035 4.21358 1.33826 0
M  V30 3505 N 331.094 0.475555 1.50254 0
M  V30 3506 C 332.004 -0.321501 2.32387 0
M  V30 3507 C 333.02 -0.991755 1.42969 0
M  V30 3508 O 334.196 -0.978747 1.76018 0
M  V30 3509 C 331.261 -1.38667 3.17762 0
M  V30 3510 C 330.322 -0.732538 4.23004 0
M  V30 3511 C 329.555 -1.74695 5.04299 0
M  V30 3512 O 329.778 -2.97399 4.86734 0
M  V30 3513 O 328.712 -1.31631 5.8733 0
M  V30 3514 H 332.538 0.350071 3.01676 0
M  V30 3515 H 330.123 0.237321 1.47503 0
M  V30 3516 H 332.005 -2.00354 3.70724 0
M  V30 3517 H 330.68 -2.04163 2.51196 0
M  V30 3518 H 329.587 -0.0765902 3.74022 0
M  V30 3519 H 330.92 -0.120452 4.92053 0
M  V30 3520 N 332.573 -1.56217 0.208337 0
M  V30 3521 C 333.801 -2.02337 -0.43215 0
M  V30 3522 C 334.216 -1.08834 -1.54275 0
M  V30 3523 O 333.573 -0.0955462 -1.8225 0
M  V30 3524 C 333.624 -3.48072 -0.976138 0
M  V30 3525 O 333.345 -4.38007 0.0901621 0
M  V30 3526 C 334.846 -4.09773 -1.69119 0
M  V30 3527 H 332.066 -0.662385 -0.10718 0
M  V30 3528 H 334.61 -2.01966 0.320923 0
M  V30 3529 H 332.765 -3.49099 -1.67954 0
M  V30 3530 H 333.179 -5.23543 -0.316701 0
M  V30 3531 H 334.653 -5.13556 -2.02397 0
M  V30 3532 H 335.13 -3.53999 -2.59964 0
M  V30 3533 H 335.736 -4.12556 -1.03332 0
M  V30 3534 N 334.051 0.0651679 -1.57465 0
M  V30 3535 C 335.299 0.761555 -1.87202 0
M  V30 3536 C 335.62 1.77778 -0.801243 0
M  V30 3537 O 334.89 1.95166 0.16937 0
M  V30 3538 H 333.47 0.284251 -0.690804 0
M  V30 3539 H 336.132 0.0396827 -1.9486 0
M  V30 3540 H 335.228 1.27365 -2.84929 0
M  V30 3541 N 335.529 1.53961 0.336706 0
M  V30 3542 C 336.439 1.85432 1.43708 0
M  V30 3543 C 337.455 0.745053 1.57242 0
M  V30 3544 O 338.631 1.03804 1.72588 0
M  V30 3545 C 335.696 2.06349 2.78605 0
M  V30 3546 C 334.757 3.30191 2.74358 0
M  V30 3547 C 333.99 3.50101 4.02822 0
M  V30 3548 O 334.213 2.7371 5.00439 0
M  V30 3549 O 333.147 4.43547 4.06878 0
M  V30 3550 H 336.973 2.78975 1.20028 0
M  V30 3551 H 334.558 1.39701 0.52952 0
M  V30 3552 H 336.44 2.21513 3.58483 0
M  V30 3553 H 335.115 1.15995 3.02203 0
M  V30 3554 H 334.022 3.20425 1.93078 0
M  V30 3555 H 335.355 4.2056 2.55715 0
M  V30 3556 N 337.007 -0.598083 1.45811 0
M  V30 3557 C 337.939 -1.72231 1.51225 0
M  V30 3558 C 338.952 -1.57757 0.402059 0
M  V30 3559 O 340.141 -1.65464 0.669624 0
M  V30 3560 C 337.241 -3.10331 1.3619 0
M  V30 3561 C 336.414 -3.50955 2.61054 0
M  V30 3562 C 335.473 -4.68055 2.40439 0
M  V30 3563 O 334.499 -4.74691 3.14097 0
M  V30 3564 N 335.701 -5.61941 1.45612 0
M  V30 3565 H 338.466 -1.68046 2.48154 0
M  V30 3566 H 336.027 -0.783637 1.41671 0
M  V30 3567 H 338.019 -3.86439 1.20195 0
M  V30 3568 H 336.589 -3.0897 0.475015 0
M  V30 3569 H 335.809 -2.64711 2.92099 0
M  V30 3570 H 337.097 -3.74858 3.44034 0
M  V30 3571 H 336.495 -5.59301 0.848431 0
M  V30 3572 H 335.052 -6.37542 1.35585 0
M  V30 3573 N 338.485 -1.33259 -0.841409 0
M  V30 3574 C 339.901 -1.12538 -1.13169 0
M  V30 3575 C 340.101 0.0854037 -2.01319 0
M  V30 3576 O 339.157 0.766417 -2.40587 0
M  V30 3577 C 340.47 -2.41156 -1.79623 0
M  V30 3578 C 342.018 -2.47038 -1.922 0
M  V30 3579 C 342.493 -3.7561 -2.6207 0
M  V30 3580 N 343.984 -3.76667 -2.69585 0
M  V30 3581 C 344.719 -4.72861 -3.2433 0
M  V30 3582 N 344.215 -5.79428 -3.79783 0
M  V30 3583 N 346.008 -4.6034 -3.22558 0
M  V30 3584 H 338.159 -2.10868 -0.254676 0
M  V30 3585 H 340.422 -0.931615 -0.175493 0
M  V30 3586 H 340.128 -3.29747 -1.22311 0
M  V30 3587 H 340.002 -2.53114 -2.79666 0
M  V30 3588 H 342.389 -1.58898 -2.48667 0
M  V30 3589 H 342.47 -2.39022 -0.911148 0
M  V30 3590 H 342.114 -4.64131 -2.06263 0
M  V30 3591 H 342.044 -3.80902 -3.63622 0
M  V30 3592 H 344.535 -2.99648 -2.30259 0
M  V30 3593 H 344.848 -6.48867 -4.19752 0
M  V30 3594 H 343.193 -5.83166 -3.78078 0
M  V30 3595 H 346.384 -3.76244 -2.78492 0
M  V30 3596 H 346.557 -5.35478 -3.64921 0
M  V30 3597 N 339.963 1.05934 -1.16686 0
M  V30 3598 C 341.209 1.79065 -0.95203 0
M  V30 3599 C 341.542 1.87147 0.518629 0
M  V30 3600 O 340.817 1.36574 1.38484 0
M  V30 3601 C 341.1 3.23359 -1.58464 0
M  V30 3602 C 340.953 3.23336 -3.12689 0
M  V30 3603 C 342.272 4.21004 -1.28232 0
M  V30 3604 H 339.391 0.65005 -0.34728 0
M  V30 3605 H 342.033 1.23868 -1.44072 0
M  V30 3606 H 340.183 3.70493 -1.16908 0
M  V30 3607 H 341.855 2.84336 -3.6325 0
M  V30 3608 H 340.098 2.61886 -3.4583 0
M  V30 3609 H 340.769 4.25144 -3.52075 0
M  V30 3610 H 343.245 3.8233 -1.64203 0
M  V30 3611 H 342.121 5.20225 -1.75092 0
M  V30 3612 H 342.382 4.41639 -0.201791 0
M  V30 3613 N 341.441 0.965919 1.2453 0
M  V30 3614 C 342.687 0.62776 1.92839 0
M  V30 3615 C 343.02 -0.834694 1.75347 0
M  V30 3616 O 342.295 -1.60031 1.10546 0
M  V30 3617 C 342.578 1.00109 3.45905 0
M  V30 3618 C 342.431 2.52011 3.72573 0
M  V30 3619 C 343.75 0.53435 4.36844 0
M  V30 3620 H 340.869 0.229537 0.700344 0
M  V30 3621 H 343.511 1.2046 1.46933 0
M  V30 3622 H 341.661 0.510238 3.85135 0
M  V30 3623 H 343.333 3.08559 3.42912 0
M  V30 3624 H 341.576 2.95287 3.17786 0
M  V30 3625 H 342.247 2.73183 4.79661 0
M  V30 3626 H 344.723 0.955565 4.04979 0
M  V30 3627 H 343.599 0.824152 5.42678 0
M  V30 3628 H 343.86 -0.565589 4.38467 0
M  V30 3629 N 342.919 -1.39368 0.735821 0
M  V30 3630 C 344.147 -2.04795 0.294393 0
M  V30 3631 C 344.562 -1.55478 -1.07107 0
M  V30 3632 O 343.919 -0.720038 -1.67695 0
M  V30 3633 C 343.97 -3.6035 0.288071 0
M  V30 3634 O 343.691 -4.07852 1.59963 0
M  V30 3635 C 345.192 -4.42976 -0.169422 0
M  V30 3636 H 342.412 -0.658571 0.128551 0
M  V30 3637 H 344.956 -1.78399 0.999701 0
M  V30 3638 H 343.111 -3.85645 -0.368355 0
M  V30 3639 H 343.525 -5.02181 1.51375 0
M  V30 3640 H 344.999 -5.51864 -0.122687 0
M  V30 3641 H 345.476 -4.22068 -1.21472 0
M  V30 3642 H 346.082 -4.22832 0.457469 0
M  V30 3643 N 344.397 -0.483516 -1.5 0
M  V30 3644 C 345.327 0.293829 -2.31644 0
M  V30 3645 C 346.308 0.978864 -1.39112 0
M  V30 3646 O 347.493 0.973644 -1.68029 0
M  V30 3647 C 344.623 1.36897 -3.19181 0
M  V30 3648 C 343.577 0.804833 -4.20365 0
M  V30 3649 C 342.903 1.9792 -4.96721 0
M  V30 3650 C 344.203 -0.192313 -5.21946 0
M  V30 3651 H 345.897 -0.387616 -2.9688 0
M  V30 3652 H 343.443 -0.187856 -1.42769 0
M  V30 3653 H 345.396 1.92037 -3.751 0
M  V30 3654 H 344.12 2.07936 -2.51853 0
M  V30 3655 H 342.779 0.275319 -3.65565 0
M  V30 3656 H 342.427 2.67686 -4.25856 0
M  V30 3657 H 342.127 1.60789 -5.65173 0
M  V30 3658 H 343.651 2.53526 -5.55479 0
M  V30 3659 H 345.065 0.270333 -5.72662 0
M  V30 3660 H 343.462 -0.478543 -5.98189 0
M  V30 3661 H 344.532 -1.11409 -4.71928 0
M  V30 3662 N 345.875 1.56104 -0.216619 0
M  V30 3663 C 346.823 2.21434 0.712036 0
M  V30 3664 C 347.817 1.19218 1.20348 0
M  V30 3665 O 349.023 1.3731 1.16387 0
M  V30 3666 H 345.398 0.70992 0.248026 0
M  V30 3667 H 347.369 2.98083 0.137558 0
M  V30 3668 C 346.118 2.90434 1.91163 0
M  V30 3669 H 345.441 3.68842 1.54258 0
M  V30 3670 H 346.881 3.39552 2.5393 0
M  V30 3671 C 345.34 1.92635 2.76394 0
M  V30 3672 O 345.87 1.44017 3.74996 0
M  V30 3673 N 344.076 1.60392 2.42328 0
M  V30 3674 H 343.623 2.00122 1.622 0
M  V30 3675 H 343.581 0.952159 2.99635 0
M  V30 3676 N 347.353 -0.0568162 1.57498 0
M  V30 3677 C 348.316 -1.05038 2.03715 0
M  V30 3678 C 349.316 -1.30709 0.936577 0
M  V30 3679 O 350.506 -1.26178 1.20103 0
M  V30 3680 C 347.638 -2.39034 2.43055 0
M  V30 3681 H 348.831 -0.651715 2.92733 0
M  V30 3682 H 346.384 -0.302947 1.53336 0
M  V30 3683 H 347.119 -2.83703 1.57108 0
M  V30 3684 H 346.904 -2.21739 3.2338 0
M  V30 3685 H 348.394 -3.10421 2.79336 0
M  V30 3686 N 348.832 -1.54138 -0.328536 0
M  V30 3687 C 350.248 -1.44736 -0.672574 0
M  V30 3688 C 350.448 -0.616217 -1.91846 0
M  V30 3689 O 349.504 -0.113067 -2.52247 0
M  V30 3690 C 350.817 -2.884 -0.851217 0
M  V30 3691 C 352.365 -2.98271 -0.948877 0
M  V30 3692 C 352.84 -4.43074 -1.15973 0
M  V30 3693 N 354.331 -4.46665 -1.22658 0
M  V30 3694 C 355.066 -5.55857 -1.40751 0
M  V30 3695 N 354.562 -6.75026 -1.5592 0
M  V30 3696 N 356.355 -5.43495 -1.4342 0
M  V30 3697 H 348.506 -2.06661 0.490421 0
M  V30 3698 H 350.769 -0.934812 0.157579 0
M  V30 3699 H 350.475 -3.51699 -0.00704236 0
M  V30 3700 H 350.349 -3.34225 -1.74853 0
M  V30 3701 H 352.736 -2.35102 -1.78356 0
M  V30 3702 H 352.817 -2.55785 -0.0281435 0
M  V30 3703 H 352.461 -5.06827 -0.329915 0
M  V30 3704 H 352.391 -4.83165 -2.09426 0
M  V30 3705 H 354.882 -3.60797 -1.124 0
M  V30 3706 H 355.195 -7.54004 -1.69404 0
M  V30 3707 H 353.54 -6.77944 -1.53027 0
M  V30 3708 H 356.731 -4.49349 -1.31162 0
M  V30 3709 H 356.904 -6.28649 -1.57178 0
M  V30 3710 N 350.31 0.590341 -1.46126 0
M  V30 3711 C 351.535 1.37991 -1.54833 0
M  V30 3712 C 351.96 1.87163 -0.187506 0
M  V30 3713 O 351.318 1.61133 0.831008 0
M  V30 3714 C 351.366 2.54867 -2.55098 0
M  V30 3715 O 350.47 3.56061 -2.08073 0
M  V30 3716 H 349.811 0.411265 -0.521303 0
M  V30 3717 H 352.341 0.716819 -1.91632 0
M  V30 3718 H 352.351 3.01886 -2.74461 0
M  V30 3719 H 351.026 2.18429 -3.53923 0
M  V30 3720 H 349.603 3.15574 -1.98664 0
M  V30 3721 N 351.788 1.33704 0.83433 0
M  V30 3722 C 352.738 1.20899 1.93306 0
M  V30 3723 C 353.722 0.110783 1.60518 0
M  V30 3724 O 354.914 0.339331 1.73717 0
M  V30 3725 C 352.043 0.955018 3.29749 0
M  V30 3726 C 351.129 2.09587 3.68692 0
M  V30 3727 N 351.52 3.34621 3.79292 0
M  V30 3728 C 349.818 2.00358 3.98463 0
M  V30 3729 C 350.519 4.09472 4.13167 0
M  V30 3730 N 349.495 3.37954 4.25779 0
M  V30 3731 H 353.297 2.15665 1.99664 0
M  V30 3732 H 350.811 1.25777 1.02732 0
M  V30 3733 H 352.808 0.844208 4.08263 0
M  V30 3734 H 351.468 0.0159317 3.24696 0
M  V30 3735 H 352.479 3.69313 3.63082 0
M  V30 3736 H 349.156 1.14137 4.01596 0
M  V30 3737 H 350.546 5.17391 4.28668 0
M  V30 3738 N 353.266 -1.05314 1.17247 0
M  V30 3739 C 354.196 -2.1498 0.911362 0
M  V30 3740 C 355.177 -1.69471 -0.146169 0
M  V30 3741 O 356.362 -1.942 0.003812 0
M  V30 3742 C 353.492 -3.4472 0.422528 0
M  V30 3743 C 352.446 -4.03789 1.4191 0
M  V30 3744 C 351.772 -5.28858 0.788274 0
M  V30 3745 C 353.072 -4.41418 2.7919 0
M  V30 3746 H 354.766 -2.3708 1.82848 0
M  V30 3747 H 352.312 -1.13938 0.880569 0
M  V30 3748 H 354.265 -4.20787 0.227289 0
M  V30 3749 H 352.989 -3.22269 -0.530123 0
M  V30 3750 H 351.648 -3.2979 1.60106 0
M  V30 3751 H 351.296 -5.02709 -0.171173 0
M  V30 3752 H 350.996 -5.69338 1.45353 0
M  V30 3753 H 352.52 -6.07612 0.603282 0
M  V30 3754 H 353.934 -5.08524 2.64719 0
M  V30 3755 H 352.331 -4.92913 3.42282 0
M  V30 3756 H 353.401 -3.51819 3.33693 0
M  V30 3757 N 354.744 -0.972509 -1.24016 0
M  V30 3758 C 356.16 -0.679827 -1.44397 0
M  V30 3759 C 356.36 0.756716 -1.86751 0
M  V30 3760 O 355.416 1.53007 -2.00861 0
M  V30 3761 C 356.729 -1.66803 -2.50195 0
M  V30 3762 C 358.277 -1.68119 -2.64017 0
M  V30 3763 C 358.752 -2.65748 -3.73017 0
M  V30 3764 N 360.243 -2.64219 -3.8045 0
M  V30 3765 C 360.978 -3.36433 -4.64328 0
M  V30 3766 N 360.474 -4.1818 -5.52356 0
M  V30 3767 N 362.267 -3.25235 -4.58453 0
M  V30 3768 H 354.418 -1.90059 -0.948228 0
M  V30 3769 H 356.681 -0.818527 -0.478245 0
M  V30 3770 H 356.387 -2.69498 -2.25973 0
M  V30 3771 H 356.261 -1.4446 -3.48441 0
M  V30 3772 H 358.648 -0.661319 -2.87594 0
M  V30 3773 H 358.729 -1.94525 -1.66113 0
M  V30 3774 H 358.373 -3.67872 -3.50189 0
M  V30 3775 H 358.303 -2.36619 -4.70446 0
M  V30 3776 H 360.794 -2.04887 -3.17537 0
M  V30 3777 H 361.107 -4.70157 -6.13329 0
M  V30 3778 H 359.452 -4.22273 -5.52006 0
M  V30 3779 H 362.643 -2.60829 -3.88698 0
M  V30 3780 H 362.816 -3.81776 -5.23594 0
M  V30 3781 N 356.222 1.38976 -0.743202 0
M  V30 3782 C 357.185 2.28901 -0.117014 0
M  V30 3783 C 358.185 1.46698 0.658503 0
M  V30 3784 O 359.375 1.67274 0.486305 0
M  V30 3785 C 356.507 3.30309 0.84315 0
M  V30 3786 H 357.7 2.8578 -0.909373 0
M  V30 3787 H 355.253 1.47761 -0.509547 0
M  V30 3788 H 355.988 2.785 1.66157 0
M  V30 3789 H 355.773 3.91029 0.289594 0
M  V30 3790 H 357.263 3.97577 1.2776 0
M  V30 3791 N 357.7 0.491464 1.49741 0
M  V30 3792 C 359.116 0.146835 1.58923 0
M  V30 3793 C 359.316 -1.34804 1.49767 0
M  V30 3794 O 358.372 -2.12317 1.36667 0
M  V30 3795 C 359.685 0.715157 2.92072 0
M  V30 3796 C 361.233 0.680407 3.05515 0
M  V30 3797 C 361.708 1.22663 4.41269 0
M  V30 3798 N 363.199 1.18691 4.47735 0
M  V30 3799 C 363.934 1.57984 5.51207 0
M  V30 3800 N 363.43 2.04824 6.6183 0
M  V30 3801 N 365.223 1.49459 5.41866 0
M  V30 3802 H 357.374 1.46347 1.53936 0
M  V30 3803 H 359.637 0.606453 0.728642 0
M  V30 3804 H 359.343 1.76317 3.04311 0
M  V30 3805 H 359.217 0.17018 3.76816 0
M  V30 3806 H 361.604 -0.358743 2.92911 0
M  V30 3807 H 361.685 1.26242 2.22478 0
M  V30 3808 H 361.329 2.26451 4.54623 0
M  V30 3809 H 361.259 0.620637 5.2293 0
M  V30 3810 H 363.75 0.843605 3.68364 0
M  V30 3811 H 364.063 2.32901 7.3687 0
M  V30 3812 H 362.408 2.08791 6.62896 0
M  V30 3813 H 365.599 1.12692 4.54333 0
M  V30 3814 H 365.772 1.80406 6.22381 0
M  V30 3815 N 359.178 -1.55987 0.224894 0
M  V30 3816 C 360.424 -1.98684 -0.406502 0
M  V30 3817 C 360.757 -1.11248 -1.59177 0
M  V30 3818 O 360.032 -0.170909 -1.93748 0
M  V30 3819 C 360.315 -3.50218 -0.837808 0
M  V30 3820 C 360.168 -4.48426 0.351332 0
M  V30 3821 C 361.487 -4.06243 -1.69278 0
M  V30 3822 H 358.606 -0.722337 -0.146283 0
M  V30 3823 H 361.248 -1.87255 0.321799 0
M  V30 3824 H 359.398 -3.60089 -1.45837 0
M  V30 3825 H 361.07 -4.50562 0.989526 0
M  V30 3826 H 359.313 -4.22159 0.998207 0
M  V30 3827 H 359.984 -5.52 0.00655905 0
M  V30 3828 H 362.46 -3.99337 -1.16914 0
M  V30 3829 H 361.336 -5.12581 -1.96346 0
M  V30 3830 H 361.597 -3.53332 -2.65723 0
M  V30 3831 N 360.656 0.0484629 -1.57525 0
M  V30 3832 C 361.588 1.08222 -2.02041 0
M  V30 3833 C 362.601 1.33621 -0.930012 0
M  V30 3834 O 363.79 1.3145 -1.20761 0
M  V30 3835 C 360.89 2.42818 -2.36416 0
M  V30 3836 C 360.063 2.37049 -3.67596 0
M  V30 3837 C 359.122 3.53937 -3.89378 0
M  V30 3838 O 358.148 3.34308 -4.60681 0
M  V30 3839 N 359.35 4.75126 -3.3352 0
M  V30 3840 H 362.115 0.702946 -2.9134 0
M  V30 3841 H 359.676 0.236745 -1.6016 0
M  V30 3842 H 361.668 3.197 -2.48141 0
M  V30 3843 H 360.238 2.72661 -1.52888 0
M  V30 3844 H 359.458 1.45395 -3.66407 0
M  V30 3845 H 360.746 2.30318 -4.53686 0
M  V30 3846 H 360.144 4.93976 -2.75688 0
M  V30 3847 H 358.701 5.49439 -3.50656 0
M  V30 3848 N 362.134 1.5431 0.320358 0
M  V30 3849 C 363.097 1.83195 1.3774 0
M  V30 3850 C 364.097 0.703906 1.44575 0
M  V30 3851 O 365.287 0.972214 1.44546 0
M  V30 3852 C 362.419 1.99487 2.76438 0
M  V30 3853 H 363.612 2.77642 1.1338 0
M  V30 3854 H 361.165 1.46076 0.556012 0
M  V30 3855 H 361.9 1.07262 3.06048 0
M  V30 3856 H 361.685 2.81575 2.7287 0
M  V30 3857 H 363.175 2.23271 3.52902 0
M  V30 3858 N 363.613 -0.582584 1.46437 0
M  V30 3859 C 364.545 -1.70618 1.53043 0
M  V30 3860 C 365.558 -1.57322 0.418769 0
M  V30 3861 O 366.747 -1.64744 0.687136 0
M  V30 3862 C 363.847 -3.08869 1.39474 0
M  V30 3863 C 363.02 -3.48166 2.64762 0
M  V30 3864 C 362.079 -4.65478 2.4539 0
M  V30 3865 O 361.105 -4.71333 3.19114 0
M  V30 3866 N 362.307 -5.60365 1.51564 0
M  V30 3867 H 365.072 -1.65405 2.49923 0
M  V30 3868 H 362.633 -0.768567 1.42494 0
M  V30 3869 H 364.625 -3.85143 1.24287 0
M  V30 3870 H 363.195 -3.08449 0.507758 0
M  V30 3871 H 362.415 -2.61598 2.9489 0
M  V30 3872 H 363.703 -3.71188 3.4799 0
M  V30 3873 H 363.101 -5.5837 0.907705 0
M  V30 3874 H 361.658 -6.36068 1.4234 0
M  V30 3875 N 365.091 -1.34144 -0.827227 0
M  V30 3876 C 366.316 -1.29476 -1.62021 0
M  V30 3877 C 366.741 0.129292 -1.87655 0
M  V30 3878 O 366.099 1.08967 -1.449 0
M  V30 3879 C 366.147 -2.08702 -2.94068 0
M  V30 3880 O 365.251 -1.45359 -3.85933 0
M  V30 3881 H 364.592 -0.444881 -0.492927 0
M  V30 3882 H 367.122 -1.76882 -1.02829 0
M  V30 3883 H 367.132 -2.19898 -3.43669 0
M  V30 3884 H 365.807 -3.12241 -2.74734 0
M  V30 3885 H 364.384 -1.42879 -3.44442 0
M  V30 3886 N 366.569 1.04691 -1.17803 0
M  V30 3887 C 367.797 1.81446 -0.99423 0
M  V30 3888 C 368.212 1.83174 0.457459 0
M  V30 3889 O 367.569 1.26265 1.31771 0
M  V30 3890 C 367.62 3.27334 -1.5341 0
M  V30 3891 O 367.341 3.25798 -2.92895 0
M  V30 3892 C 368.842 4.20759 -1.39559 0
M  V30 3893 H 366.062 0.571599 -0.351447 0
M  V30 3894 H 368.606 1.31982 -1.56208 0
M  V30 3895 H 366.761 3.74052 -1.00815 0
M  V30 3896 H 367.175 4.17144 -3.17949 0
M  V30 3897 H 368.649 5.21084 -1.82141 0
M  V30 3898 H 369.126 4.37856 -0.343394 0
M  V30 3899 H 369.732 3.79901 -1.91195 0
M  V30 3900 N 368.047 0.979072 1.23499 0
M  V30 3901 C 368.995 0.510604 2.26926 0
M  V30 3902 C 369.989 -0.431691 1.63807 0
M  V30 3903 O 371.195 -0.30573 1.77385 0
M  V30 3904 H 367.57 0.146688 0.737554 0
M  V30 3905 H 369.541 1.39466 2.63803 0
M  V30 3906 C 368.29 -0.172658 3.47271 0
M  V30 3907 H 367.613 0.543331 3.96091 0
M  V30 3908 H 369.053 -0.464101 4.21452 0
M  V30 3909 C 367.512 -1.40345 3.06276 0
M  V30 3910 O 368.042 -2.49978 3.14442 0
M  V30 3911 N 366.248 -1.27362 2.61203 0
M  V30 3912 H 365.795 -0.381584 2.54758 0
M  V30 3913 H 365.753 -2.09822 2.34141 0
M  V30 3914 N 369.525 -1.3858 0.750561 0
M  V30 3915 C 370.802 -1.94231 0.231009 0
M  V30 3916 C 371.182 -1.68611 -1.27018 0
M  V30 3917 O 370.53 -1.02296 -2.04323 0
M  V30 3918 C 370.74 -3.44123 0.581428 0
M  V30 3919 C 372.088 -4.2116 0.539389 0
M  V30 3920 O 373.112 -3.52391 0.519541 0
M  V30 3921 O 371.971 -5.43749 0.54765 0
M  V30 3922 H 369.065 -0.825639 0.0474263 0
M  V30 3923 H 371.611 -1.4799 0.830478 0
M  V30 3924 H 370.383 -3.56267 1.61833 0
M  V30 3925 H 370.006 -3.97573 -0.0462047 0
M  V30 3926 N 371.003 -0.499398 -1.49478 0
M  V30 3927 C 372.251 0.0455996 -2.02049 0
M  V30 3928 C 372.572 1.37633 -1.38138 0
M  V30 3929 O 371.842 1.8842 -0.536166 0
M  V30 3930 H 370.422 0.0198416 -0.746736 0
M  V30 3931 H 373.084 -0.656274 -1.83519 0
M  V30 3932 H 372.18 0.176445 -3.11601 0
M  V30 3933 N 372.481 1.55866 -0.233164 0
M  V30 3934 C 373.411 2.23783 0.666599 0
M  V30 3935 C 374.392 1.21343 1.19205 0
M  V30 3936 O 375.577 1.4996 1.23392 0
M  V30 3937 C 372.707 2.92671 1.86978 0
M  V30 3938 C 371.661 4.01682 1.47768 0
M  V30 3939 C 370.987 4.57926 2.76058 0
M  V30 3940 C 372.287 5.18126 0.658993 0
M  V30 3941 H 373.981 2.99232 0.100306 0
M  V30 3942 H 371.527 1.43924 0.046804 0
M  V30 3943 H 373.48 3.3888 2.50476 0
M  V30 3944 H 372.204 2.14688 2.46123 0
M  V30 3945 H 370.863 3.56222 0.866106 0
M  V30 3946 H 370.511 3.76659 3.33372 0
M  V30 3947 H 370.211 5.31505 2.50552 0
M  V30 3948 H 371.735 5.06859 3.40479 0
M  V30 3949 H 373.149 5.60644 1.19795 0
M  V30 3950 H 371.546 5.98009 0.500552 0
M  V30 3951 H 372.616 4.83763 -0.331856 0
M  V30 3952 N 373.959 -0.0401083 1.57549 0
M  V30 3953 C 375.236 -0.767917 1.79896 0
M  V30 3954 C 375.616 -1.9416 0.82856 0
M  V30 3955 O 374.964 -2.2812 -0.131671 0
M  V30 3956 C 375.174 -1.2113 3.27305 0
M  V30 3957 C 376.522 -1.63175 3.91994 0
M  V30 3958 O 377.546 -1.30616 3.31388 0
M  V30 3959 O 376.405 -2.23565 4.98679 0
M  V30 3960 H 373.499 -0.370441 0.739393 0
M  V30 3961 H 376.045 -0.017737 1.69691 0
M  V30 3962 H 374.817 -0.372937 3.89519 0
M  V30 3963 H 374.44 -2.02183 3.42356 0
M  V30 3964 N 375.437 -1.54477 -0.31217 0
M  V30 3965 C 376.684 -1.73227 -1.04875 0
M  V30 3966 C 377.012 -0.512042 -1.87639 0
M  V30 3967 O 376.267 0.506131 -1.89042 0
M  V30 3968 C 376.566 -2.967 -1.99258 0
M  V30 3969 C 376.232 -4.30974 -1.32559 0
M  V30 3970 C 374.894 -4.67477 -1.141 0
M  V30 3971 C 377.246 -5.14258 -0.847835 0
M  V30 3972 C 374.574 -5.84852 -0.465326 0
M  V30 3973 C 376.926 -6.32327 -0.185931 0
M  V30 3974 C 375.59 -6.67499 0.0107077 0
M  V30 3975 H 374.86 -0.633881 -0.383765 0
M  V30 3976 H 377.507 -1.88727 -0.324731 0
M  V30 3977 H 375.812 -2.75935 -2.7815 0
M  V30 3978 H 377.509 -3.08401 -2.563 0
M  V30 3979 H 374.099 -4.02262 -1.4793 0
M  V30 3980 H 378.283 -4.86565 -0.978192 0
M  V30 3981 H 373.539 -6.10654 -0.301883 0
M  V30 3982 H 377.713 -6.96135 0.192211 0
M  V30 3983 H 375.34 -7.58306 0.536287 0
M  V30 3984 N 376.915 0.57481 -1.46744 0
M  V30 3985 C 377.847 1.69804 -1.53946 0
M  V30 3986 C 378.86 1.57098 -0.427106 0
M  V30 3987 O 380.049 1.64378 -0.695863 0
M  V30 3988 C 377.149 3.08125 -1.4111 0
M  V30 3989 C 376.322 3.46757 -2.66605 0
M  V30 3990 C 375.381 4.6417 -2.47855 0
M  V30 3991 O 374.407 4.69634 -3.21609 0
M  V30 3992 N 375.609 5.59553 -1.54534 0
M  V30 3993 H 378.374 1.64077 -2.50796 0
M  V30 3994 H 375.935 0.761 -1.429 0
M  V30 3995 H 377.927 3.84478 -1.26328 0
M  V30 3996 H 376.497 3.08175 -0.524109 0
M  V30 3997 H 375.717 2.6003 -2.96274 0
M  V30 3998 H 377.005 3.69337 -3.49954 0
M  V30 3999 H 376.403 5.57881 -0.937304 0
M  V30 4000 H 374.96 6.35304 -1.45711 0
M  V30 4001 N 378.394 1.34581 0.820102 0
M  V30 4002 C 379.304 1.28471 1.96297 0
M  V30 4003 C 380.32 0.191902 1.72939 0
M  V30 4004 O 381.496 0.418879 1.96996 0
M  V30 4005 C 378.561 1.04281 3.30645 0
M  V30 4006 C 377.622 2.22745 3.66992 0
M  V30 4007 C 376.855 1.997 4.9493 0
M  V30 4008 O 377.078 0.956656 5.6232 0
M  V30 4009 O 376.012 2.86723 5.2922 0
M  V30 4010 H 379.838 2.24624 2.04396 0
M  V30 4011 H 377.423 1.14816 0.955913 0
M  V30 4012 H 379.305 0.925841 4.11104 0
M  V30 4013 H 377.98 0.111697 3.23507 0
M  V30 4014 H 376.887 2.40003 2.86966 0
M  V30 4015 H 378.22 3.14257 3.78819 0
M  V30 4016 N 379.872 -1.04064 1.18357 0
M  V30 4017 C 381.097 -1.81454 1.00445 0
M  V30 4018 C 381.522 -1.82823 -0.442423 0
M  V30 4019 O 380.88 -1.24555 -1.31741 0
M  V30 4020 C 380.928 -3.24925 1.56384 0
M  V30 4021 O 380.032 -4.04856 0.785209 0
M  V30 4022 H 379.373 -0.560604 0.355835 0
M  V30 4023 H 381.903 -1.31059 1.57114 0
M  V30 4024 H 381.913 -3.75702 1.59097 0
M  V30 4025 H 380.588 -3.23244 2.61699 0
M  V30 4026 H 379.165 -3.63537 0.830399 0
M  V30 4027 N 381.35 -0.985608 -1.22978 0
M  V30 4028 C 382.282 -0.488154 -2.23941 0
M  V30 4029 C 383.295 0.41282 -1.57479 0
M  V30 4030 O 384.484 0.216121 -1.77187 0
M  V30 4031 C 381.584 0.312611 -3.37455 0
M  V30 4032 C 380.757 -0.582741 -4.33501 0
M  V30 4033 C 379.816 0.165064 -5.25941 0
M  V30 4034 O 378.842 -0.447077 -5.67442 0
M  V30 4035 N 380.044 1.44953 -5.62111 0
M  V30 4036 H 382.809 -1.3563 -2.67254 0
M  V30 4037 H 380.37 -0.859477 -1.37203 0
M  V30 4038 H 382.362 0.821357 -3.96277 0
M  V30 4039 H 380.932 1.0818 -2.93285 0
M  V30 4040 H 380.152 -1.27225 -3.73105 0
M  V30 4041 H 381.44 -1.19275 -4.94622 0
M  V30 4042 H 380.838 1.9683 -5.30353 0
M  V30 4043 H 379.395 1.90361 -6.23383 0
M  V30 4044 N 382.828 1.3818 -0.7579 0
M  V30 4045 C 383.758 2.33027 -0.148597 0
M  V30 4046 C 384.739 1.55085 0.69875 0
M  V30 4047 O 385.924 1.83384 0.639053 0
M  V30 4048 C 383.054 3.3928 0.742034 0
M  V30 4049 C 382.008 4.28 -0.00291946 0
M  V30 4050 C 381.334 5.25146 1.00625 0
M  V30 4051 C 382.634 5.08938 -1.17385 0
M  V30 4052 H 384.328 2.84231 -0.940909 0
M  V30 4053 H 381.874 1.36659 -0.453908 0
M  V30 4054 H 383.827 4.046 1.17799 0
M  V30 4055 H 382.551 2.86569 1.56671 0
M  V30 4056 H 381.21 3.64192 -0.419504 0
M  V30 4057 H 380.858 4.68721 1.8251 0
M  V30 4058 H 380.558 5.85361 0.512428 0
M  V30 4059 H 382.082 5.93342 1.44143 0
M  V30 4060 H 383.496 5.67474 -0.815224 0
M  V30 4061 H 381.893 5.7841 -1.59882 0
M  V30 4062 H 382.963 4.42424 -1.98468 0
M  V30 4063 N 384.306 0.507319 1.49211 0
M  V30 4064 C 385.552 -0.0350047 2.0277 0
M  V30 4065 C 385.885 -1.3606 1.38569 0
M  V30 4066 O 385.16 -1.87321 0.523542 0
M  V30 4067 C 385.443 -0.180916 3.59645 0
M  V30 4068 C 385.296 1.16825 4.34364 0
M  V30 4069 C 386.615 -0.918558 4.30407 0
M  V30 4070 H 383.734 -0.0112473 0.736914 0
M  V30 4071 H 386.376 0.659956 1.7817 0
M  V30 4072 H 384.526 -0.772826 3.80736 0
M  V30 4073 H 386.198 1.79952 4.24753 0
M  V30 4074 H 384.441 1.75594 3.96673 0
M  V30 4075 H 385.112 1.01939 5.42506 0
M  V30 4076 H 387.588 -0.41649 4.1401 0
M  V30 4077 H 386.464 -0.989505 5.39907 0
M  V30 4078 H 386.725 -1.96373 3.96093 0
M  V30 4079 N 385.784 -1.5574 0.241426 0
M  V30 4080 C 386.731 -2.21149 -0.660432 0
M  V30 4081 C 387.701 -1.17356 -1.17545 0
M  V30 4082 O 388.886 -1.45784 -1.23093 0
M  V30 4083 C 386.026 -2.91059 -1.85414 0
M  V30 4084 C 385.139 -4.09495 -1.37616 0
M  V30 4085 C 384.274 -4.67135 -2.529 0
M  V30 4086 C 383.313 -5.77831 -2.01936 0
M  V30 4087 N 382.45 -6.29677 -3.10566 0
M  V30 4088 H 387.29 -2.97845 -0.095955 0
M  V30 4089 H 384.827 -1.47057 -0.0356024 0
M  V30 4090 H 386.785 -3.29788 -2.5553 0
M  V30 4091 H 385.415 -2.16846 -2.39118 0
M  V30 4092 H 384.467 -3.76117 -0.569235 0
M  V30 4093 H 385.779 -4.89423 -0.962618 0
M  V30 4094 H 384.933 -5.08409 -3.31067 0
M  V30 4095 H 383.672 -3.86411 -2.97553 0
M  V30 4096 H 382.677 -5.36039 -1.22238 0
M  V30 4097 H 383.902 -6.60402 -1.58259 0
M  V30 4098 H 381.848 -5.5186 -3.54664 0
M  V30 4099 H 381.765 -7.04783 -2.73526 0
M  V30 4100 H 383.033 -6.75609 -3.88809 0
M  V30 4101 N 387.262 0.0317525 -1.57568 0
M  V30 4102 C 388.209 1.0332 -2.06382 0
M  V30 4103 C 389.179 1.36082 -0.952414 0
M  V30 4104 O 390.364 1.46466 -1.2228 0
M  V30 4105 C 387.504 2.32989 -2.54578 0
M  V30 4106 C 386.617 2.0641 -3.79498 0
M  V30 4107 C 385.752 3.2993 -4.16317 0
M  V30 4108 C 384.791 2.98893 -5.34162 0
M  V30 4109 N 383.928 4.14857 -5.66426 0
M  V30 4110 H 388.768 0.609982 -2.9169 0
M  V30 4111 H 386.305 0.289573 -1.44222 0
M  V30 4112 H 388.263 3.0875 -2.80587 0
M  V30 4113 H 386.893 2.73039 -1.7219 0
M  V30 4114 H 385.945 1.21158 -3.6059 0
M  V30 4115 H 387.257 1.79513 -4.65378 0
M  V30 4116 H 386.411 4.1406 -4.4344 0
M  V30 4117 H 385.15 3.59938 -3.29083 0
M  V30 4118 H 384.155 2.13164 -5.06795 0
M  V30 4119 H 385.38 2.70165 -6.23047 0
M  V30 4120 H 383.326 4.44821 -4.82151 0
M  V30 4121 H 383.243 3.91374 -6.4681 0
M  V30 4122 H 384.511 4.99868 -5.98124 0
M  V30 4123 N 388.74 1.54641 0.303973 0
M  V30 4124 C 389.67 1.88386 1.3796 0
M  V30 4125 C 390.651 0.742485 1.5304 0
M  V30 4126 O 391.836 0.997959 1.66597 0
M  V30 4127 C 388.966 2.12854 2.74427 0
M  V30 4128 C 387.92 3.28702 2.74115 0
M  V30 4129 C 387.246 3.38582 4.13844 0
M  V30 4130 C 388.546 4.65881 2.3612 0
M  V30 4131 H 390.24 2.78474 1.09966 0
M  V30 4132 H 387.786 1.33988 0.527556 0
M  V30 4133 H 389.739 2.35047 3.49758 0
M  V30 4134 H 388.463 1.19535 3.03939 0
M  V30 4135 H 387.122 3.06428 2.0124 0
M  V30 4136 H 386.77 2.42784 4.40528 0
M  V30 4137 H 386.47 4.16453 4.14537 0
M  V30 4138 H 387.994 3.63031 4.90959 0
M  V30 4139 H 389.408 4.87823 3.01167 0
M  V30 4140 H 387.805 5.46444 2.48031 0
M  V30 4141 H 388.875 4.66799 1.3125 0
M  V30 4142 N 390.218 -0.567019 1.47046 0
M  V30 4143 C 391.464 -1.32658 1.53394 0
M  V30 4144 C 391.797 -1.93254 0.19148 0
M  V30 4145 O 391.072 -1.77338 -0.798844 0
M  V30 4146 C 391.355 -2.44412 2.64452 0
M  V30 4147 C 391.208 -1.88749 4.08282 0
M  V30 4148 C 392.527 -3.46387 2.71485 0
M  V30 4149 H 389.646 -0.48098 0.558415 0
M  V30 4150 H 392.288 -0.635481 1.79058 0
M  V30 4151 H 390.438 -3.03363 2.427 0
M  V30 4152 H 392.11 -1.34134 4.41368 0
M  V30 4153 H 390.353 -1.19481 4.17021 0
M  V30 4154 H 391.024 -2.69491 4.81745 0
M  V30 4155 H 393.5 -2.9734 2.91081 0
M  V30 4156 H 392.376 -4.2202 3.50985 0
M  V30 4157 H 392.637 -4.04616 1.78153 0
M  V30 4158 N 391.696 -1.35014 -0.812953 0
M  V30 4159 C 392.606 -1.2951 -1.95613 0
M  V30 4160 C 393.622 -0.20107 -1.72834 0
M  V30 4161 O 394.798 -0.42932 -1.96771 0
M  V30 4162 C 391.863 -1.06033 -3.30088 0
M  V30 4163 C 390.924 -2.24688 -3.65805 0
M  V30 4164 C 390.157 -2.02322 -4.93864 0
M  V30 4165 O 390.38 -0.986464 -5.61805 0
M  V30 4166 O 389.314 -2.89525 -5.27692 0
M  V30 4167 H 393.14 -2.25705 -2.03202 0
M  V30 4168 H 390.725 -1.15321 -0.949811 0
M  V30 4169 H 392.607 -0.94763 -4.10607 0
M  V30 4170 H 391.282 -0.128852 -3.23443 0
M  V30 4171 H 390.189 -2.41521 -2.85689 0
M  V30 4172 H 391.522 -3.16261 -3.77147 0
M  V30 4173 N 393.175 1.03435 -1.18907 0
M  V30 4174 C 394.586 1.58195 -0.991523 0
M  V30 4175 C 394.937 1.90801 0.457081 0
M  V30 4176 O 394.062 1.70272 1.33553 0
M  V30 4177 C 394.657 2.87432 -1.79355 0
M  V30 4178 C 393.216 3.38785 -1.64017 0
M  V30 4179 C 392.363 2.12292 -1.78402 0
M  V30 4180 H 395.314 0.860299 -1.33359 0
M  V30 4181 H 395.335 3.58096 -1.28638 0
M  V30 4182 H 394.847 2.63669 -2.84781 0
M  V30 4183 H 392.948 3.67547 -0.611536 0
M  V30 4184 H 393.061 4.12186 -2.44212 0
M  V30 4185 H 391.425 2.23901 -1.2141 0
M  V30 4186 H 392.208 1.90977 -2.85277 0
M  V30 4187 N 394.653 0.992116 1.22453 0
M  V30 4188 C 396.064 0.702776 1.72968 0
M  V30 4189 C 396.415 -0.780399 1.80012 0
M  V30 4190 O 395.54 -1.61007 1.44589 0
M  V30 4191 C 396.135 1.26903 3.14135 0
M  V30 4192 C 394.694 1.02909 3.62059 0
M  V30 4193 C 393.841 1.38969 2.39964 0
M  V30 4194 H 396.792 1.16457 1.07812 0
M  V30 4195 H 396.813 0.647223 3.74955 0
M  V30 4196 H 396.325 2.34851 3.08977 0
M  V30 4197 H 394.426 -0.0337979 3.72585 0
M  V30 4198 H 394.539 1.69191 4.48231 0
M  V30 4199 H 392.903 0.808279 2.41535 0
M  V30 4200 H 393.686 2.4792 2.37467 0
M  V30 4201 N 396.131 -1.37776 0.765217 0
M  V30 4202 C 397.542 -1.82521 0.392819 0
M  V30 4203 C 397.893 -1.63789 -1.08017 0
M  V30 4204 O 397.018 -1.14542 -1.83601 0
M  V30 4205 C 397.613 -3.31358 0.706214 0
M  V30 4206 C 396.172 -3.74406 0.386952 0
M  V30 4207 C 395.319 -2.60394 0.953422 0
M  V30 4208 H 398.27 -1.2634 0.960412 0
M  V30 4209 H 398.291 -3.80498 -0.0114706 0
M  V30 4210 H 397.803 -3.44959 1.77833 0
M  V30 4211 H 395.904 -3.66377 -0.678112 0
M  V30 4212 H 396.017 -4.70749 0.890636 0
M  V30 4213 H 394.381 -2.51878 0.378064 0
M  V30 4214 H 395.164 -2.76791 2.03081 0
M  V30 4215 N 397.609 -0.515225 -1.4894 0
M  V30 4216 C 398.541 0.292481 -2.27326 0
M  V30 4217 C 399.554 0.917838 -1.3446 0
M  V30 4218 O 400.743 0.798772 -1.5963 0
M  V30 4219 C 397.843 1.42803 -3.07344 0
M  V30 4220 C 397.016 0.907347 -4.27885 0
M  V30 4221 C 396.075 1.92222 -4.89834 0
M  V30 4222 O 395.101 1.48506 -5.49486 0
M  V30 4223 N 396.303 3.25355 -4.80754 0
M  V30 4224 H 399.068 -0.379721 -2.97285 0
M  V30 4225 H 396.629 -0.348638 -1.58102 0
M  V30 4226 H 398.621 2.10481 -3.45658 0
M  V30 4227 H 397.191 2.00414 -2.39902 0
M  V30 4228 H 396.411 0.0550218 -3.94162 0
M  V30 4229 H 397.699 0.538108 -5.05946 0
M  V30 4230 H 397.097 3.6355 -4.33414 0
M  V30 4231 H 395.654 3.88707 -5.23211 0
M  V30 4232 N 399.087 1.5561 -0.249682 0
M  V30 4233 C 400.335 1.98618 0.373548 0
M  V30 4234 C 400.656 1.13919 1.58264 0
M  V30 4235 O 399.926 0.222637 1.94631 0
M  V30 4236 H 398.506 0.733571 0.141006 0
M  V30 4237 H 401.168 1.91748 -0.349117 0
M  V30 4238 H 400.264 3.04584 0.680796 0
M  V30 4239 N 400.565 -0.0233959 1.57583 0
M  V30 4240 C 401.805 -0.71784 1.9138 0
M  V30 4241 C 402.169 -1.72216 0.848853 0
M  V30 4242 O 403.37 -2.46527 1.07134 0
M  V30 4243 C 401.641 -1.36489 3.30311 0
M  V30 4244 S 403.2 -2.0877 3.85954 0
M  V30 4245 H 400.018 -0.237676 0.670098 0
M  V30 4246 H 402.62 0.0276709 1.9548 0
M  V30 4247 H 401.324 -0.620782 4.05678 0
M  V30 4248 H 400.855 -2.14883 3.29528 0
M  V30 4249 H 402.87 -3.35988 3.65139 0
M  V30 4250 N 402.043 -1.548 -0.295768 0
M  V30 4251 C 402.975 -1.82492 -1.3867 0
M  V30 4252 C 403.988 -0.708134 -1.46592 0
M  V30 4253 O 405.177 -0.985686 -1.48817 0
M  V30 4254 C 402.277 -1.95256 -2.76999 0
M  V30 4255 C 401.45 -3.25709 -2.91946 0
M  V30 4256 C 400.509 -3.28824 -4.10806 0
M  V30 4257 O 399.535 -4.02328 -4.02643 0
M  V30 4258 N 400.737 -2.5459 -5.21694 0
M  V30 4259 H 403.502 -2.76646 -1.15269 0
M  V30 4260 H 401.063 -1.54438 -0.485849 0
M  V30 4261 H 403.055 -1.94736 -3.54768 0
M  V30 4262 H 401.625 -1.08072 -2.93324 0
M  V30 4263 H 400.845 -3.38959 -2.01247 0
M  V30 4264 H 402.133 -4.11786 -2.98847 0
M  V30 4265 H 401.531 -1.94512 -5.31208 0
M  V30 4266 H 400.088 -2.59818 -5.97778 0
M  V30 4267 N 403.521 0.559213 -1.47345 0
M  V30 4268 C 404.769 1.31388 -1.53563 0
M  V30 4269 C 405.09 1.93985 -0.198678 0
M  V30 4270 O 404.36 1.79825 0.777167 0
M  V30 4271 H 402.94 0.487901 -0.565652 0
M  V30 4272 H 405.602 0.65315 -1.8363 0
M  V30 4273 H 404.698 2.10844 -2.30111 0
M  V30 4274 N 404.999 1.35443 0.805782 0
M  V30 4275 C 406.224 1.32037 1.59941 0
M  V30 4276 C 406.649 -0.0994215 1.87837 0
M  V30 4277 O 406.007 -1.06648 1.46615 0
M  V30 4278 C 406.055 2.13354 2.90711 0
M  V30 4279 O 405.159 1.5148 3.83572 0
M  V30 4280 H 404.5 0.452666 0.485787 0
M  V30 4281 H 407.03 1.78496 1.00002 0
M  V30 4282 H 407.04 2.25338 3.40128 0
M  V30 4283 H 405.715 3.16572 2.69732 0
M  V30 4284 H 404.292 1.4834 3.42125 0
M  V30 4285 N 406.477 -1.02803 1.19454 0
M  V30 4286 C 407.723 -1.76478 0.999171 0
M  V30 4287 C 408.056 -1.88456 -0.468828 0
M  V30 4288 O 407.331 -1.40198 -1.34814 0
M  V30 4289 C 407.614 -3.19044 1.66981 0
M  V30 4290 C 407.467 -3.14932 3.21151 0
M  V30 4291 C 408.786 -4.17456 1.39349 0
M  V30 4292 H 405.905 -0.640614 0.364393 0
M  V30 4293 H 408.547 -1.20005 1.47305 0
M  V30 4294 H 406.697 -3.67263 1.2669 0
M  V30 4295 H 408.369 -2.74605 3.70661 0
M  V30 4296 H 406.612 -2.52625 3.52652 0
M  V30 4297 H 407.283 -4.1566 3.63223 0
M  V30 4298 H 409.759 -3.77842 1.74283 0
M  V30 4299 H 408.635 -5.154 1.88823 0
M  V30 4300 H 408.896 -4.40949 0.318813 0
M  V30 4301 N 407.956 -0.998596 -1.21925 0
M  V30 4302 C 409.205 -0.673085 -1.90138 0
M  V30 4303 C 409.518 0.79895 -1.78539 0
M  V30 4304 O 410.724 1.23628 -2.4172 0
M  V30 4305 C 409.18 -1.15339 -3.40918 0
M  V30 4306 C 408.788 -2.65106 -3.61141 0
M  V30 4307 C 410.532 -0.902476 -4.14796 0
M  V30 4308 C 408.439 -3.0671 -5.05651 0
M  V30 4309 H 407.369 -0.248057 -0.712028 0
M  V30 4310 H 410.02 -1.20891 -1.38049 0
M  V30 4311 H 408.402 -0.545658 -3.92223 0
M  V30 4312 H 409.576 -3.31274 -3.20304 0
M  V30 4313 H 407.891 -2.88142 -3.00605 0
M  V30 4314 H 410.488 -1.18895 -5.21314 0
M  V30 4315 H 410.831 0.161349 -4.15987 0
M  V30 4316 H 411.364 -1.47269 -3.69536 0
M  V30 4317 H 408.103 -4.12292 -5.09603 0
M  V30 4318 H 407.623 -2.45249 -5.47369 0
M  V30 4319 H 409.302 -2.9833 -5.74115 0
M  V30 4320 N 409.434 1.37368 -0.772513 0
M  V30 4321 C 410.659 2.0447 -0.347386 0
M  V30 4322 C 411.084 1.57882 1.0225 0
M  V30 4323 O 410.442 0.73941 1.65537 0
M  V30 4324 C 410.49 3.58369 -0.400479 0
M  V30 4325 O 409.594 4.0803 0.598789 0
M  V30 4326 H 408.935 0.646773 -0.15027 0
M  V30 4327 H 411.465 1.75667 -1.04892 0
M  V30 4328 H 411.475 4.07183 -0.258045 0
M  V30 4329 H 410.15 3.91633 -1.39986 0
M  V30 4330 H 408.727 3.70534 0.419411 0
M  V30 4331 N 410.912 0.523116 1.48665 0
M  V30 4332 C 412.159 -0.0134763 2.02496 0
M  V30 4333 C 412.487 -1.3493 1.40086 0
M  V30 4334 O 411.742 -1.88286 0.533567 0
M  V30 4335 C 412.041 -0.191671 3.56886 0
M  V30 4336 C 411.707 1.06893 4.38046 0
M  V30 4337 C 410.369 1.41443 4.59943 0
M  V30 4338 C 412.721 1.90584 4.85106 0
M  V30 4339 C 410.049 2.59594 5.26144 0
M  V30 4340 C 412.401 3.07907 5.52609 0
M  V30 4341 C 411.065 3.42811 5.72745 0
M  V30 4342 H 410.335 -0.00493133 0.740984 0
M  V30 4343 H 412.982 0.687751 1.78724 0
M  V30 4344 H 411.287 -0.97561 3.79459 0
M  V30 4345 H 412.984 -0.621659 3.96152 0
M  V30 4346 H 409.574 0.789848 4.21259 0
M  V30 4347 H 413.758 1.65203 4.67997 0
M  V30 4348 H 409.014 2.86847 5.39934 0
M  V30 4349 H 413.188 3.73066 5.88043 0
M  V30 4350 H 410.815 4.34462 6.23816 0
M  V30 4351 N 412.39 -1.55475 0.257931 0
M  V30 4352 C 413.801 -1.8511 -0.243135 0
M  V30 4353 C 414.152 -1.17986 -1.5676 0
M  V30 4354 O 413.277 -0.462102 -2.11409 0
M  V30 4355 C 413.872 -3.35826 -0.447929 0
M  V30 4356 C 412.431 -3.65647 -0.893245 0
M  V30 4357 C 411.578 -2.7729 0.0232965 0
M  V30 4358 H 414.529 -1.51261 0.480199 0
M  V30 4359 H 414.55 -3.58002 -1.28898 0
M  V30 4360 H 414.062 -3.84652 0.516196 0
M  V30 4361 H 412.163 -3.22308 -1.86945 0
M  V30 4362 H 412.276 -4.73312 -0.742469 0
M  V30 4363 H 410.64 -2.49942 -0.490021 0
M  V30 4364 H 411.423 -3.28926 0.982994 0
M  V30 4365 N 413.868 0.0150385 -1.57593 0
M  V30 4366 C 415.093 0.718067 -1.94573 0
M  V30 4367 C 415.518 1.6734 -0.859005 0
M  V30 4368 O 414.876 1.80362 0.184147 0
M  V30 4369 C 414.924 1.43918 -3.30636 0
M  V30 4370 O 414.028 2.55299 -3.23876 0
M  V30 4371 H 413.369 0.192125 -0.635597 0
M  V30 4372 H 415.899 -0.0336708 -2.04572 0
M  V30 4373 H 415.909 1.80598 -3.65853 0
M  V30 4374 H 414.584 0.738619 -4.09289 0
M  V30 4375 H 413.161 2.21058 -3.00312 0
M  V30 4376 N 415.346 1.54954 0.287554 0
M  V30 4377 C 416.757 1.65732 0.859634 0
M  V30 4378 C 417.108 0.574767 1.87592 0
M  V30 4379 O 416.233 -0.286299 2.14498 0
M  V30 4380 C 416.828 3.00438 1.56597 0
M  V30 4381 C 415.387 3.13292 2.08627 0
M  V30 4382 C 414.534 2.61473 0.923416 0
M  V30 4383 H 417.485 1.5857 0.0642338 0
M  V30 4384 H 417.506 2.92613 2.43224 0
M  V30 4385 H 417.018 3.79207 0.826053 0
M  V30 4386 H 415.119 2.39268 2.85625 0
M  V30 4387 H 415.232 4.19647 2.31157 0
M  V30 4388 H 413.596 2.18264 1.31275 0
M  V30 4389 H 414.379 3.42733 0.197241 0
M  V30 4390 N 416.824 -0.551391 1.4764 0
M  V30 4391 C 418.24 -0.877887 1.33287 0
M  V30 4392 C 418.44 -1.98817 0.327721 0
M  V30 4393 O 417.496 -2.51171 -0.258695 0
M  V30 4394 C 418.809 -1.26563 2.72768 0
M  V30 4395 C 420.357 -1.37673 2.81097 0
M  V30 4396 C 420.832 -1.79799 4.21232 0
M  V30 4397 N 422.323 -1.8694 4.23802 0
M  V30 4398 C 423.058 -2.20876 5.29151 0
M  V30 4399 N 422.554 -2.53386 6.448 0
M  V30 4400 N 424.347 -2.217 5.16532 0
M  V30 4401 H 416.498 0.18153 2.11623 0
M  V30 4402 H 418.761 0.0185514 0.947818 0
M  V30 4403 H 418.467 -0.523591 3.47781 0
M  V30 4404 H 418.341 -2.22052 3.04915 0
M  V30 4405 H 420.728 -2.10956 2.06353 0
M  V30 4406 H 420.809 -0.40357 2.52596 0
M  V30 4407 H 420.453 -1.07083 4.96483 0
M  V30 4408 H 420.383 -2.78128 4.4716 0
M  V30 4409 H 422.874 -1.64179 3.40373 0
M  V30 4410 H 423.187 -2.78325 7.20941 0
M  V30 4411 H 421.532 -2.50953 6.48111 0
M  V30 4412 H 424.723 -1.95745 4.25207 0
M  V30 4413 H 424.896 -2.47818 5.98741 0
M  V30 4414 N 418.302 -1.35869 -0.798587 0
M  V30 4415 C 419.527 -1.32883 -1.59238 0
M  V30 4416 C 419.952 0.0894587 -1.87887 0
M  V30 4417 O 419.31 1.05869 -1.47178 0
M  V30 4418 C 419.358 -2.14892 -2.89575 0
M  V30 4419 O 418.462 -1.53512 -3.82763 0
M  V30 4420 H 417.803 -0.455236 -0.48338 0
M  V30 4421 H 420.333 -1.79024 -0.990539 0
M  V30 4422 H 420.343 -2.27139 -3.38928 0
M  V30 4423 H 419.018 -3.17998 -2.68049 0
M  V30 4424 H 417.595 -1.50153 -3.41334 0
M  V30 4425 N 419.78 1.02168 -1.19998 0
M  V30 4426 C 421.028 1.75338 -1.00504 0
M  V30 4427 C 421.349 1.89387 0.464506 0
M  V30 4428 O 420.619 1.43268 1.33608 0
M  V30 4429 H 419.199 0.649564 -0.368885 0
M  V30 4430 H 421.861 1.23205 -1.51018 0
M  V30 4431 H 420.957 2.75892 -1.45912 0
M  V30 4432 N 421.258 1.00505 1.21394 0
M  V30 4433 C 422.669 0.721082 1.72213 0
M  V30 4434 C 423.02 -0.761263 1.80829 0
M  V30 4435 O 422.145 -1.59464 1.46288 0
M  V30 4436 C 422.74 1.30228 3.12772 0
M  V30 4437 C 421.299 1.06743 3.60947 0
M  V30 4438 C 420.446 1.41507 2.38477 0
M  V30 4439 H 423.397 1.17594 1.06571 0
M  V30 4440 H 423.418 0.686955 3.74247 0
M  V30 4441 H 422.93 2.38115 3.06468 0
M  V30 4442 H 421.031 0.00572162 3.726 0
M  V30 4443 H 421.144 1.73936 4.46411 0
M  V30 4444 H 419.508 0.833852 2.40664 0
M  V30 4445 H 420.291 2.50424 2.34824 0
M  V30 4446 N 422.737 -1.36956 0.779787 0
M  V30 4447 C 423.985 -1.99097 0.347079 0
M  V30 4448 C 424.306 -1.62206 -1.08232 0
M  V30 4449 O 423.576 -0.891373 -1.74446 0
M  V30 4450 H 422.156 -0.736409 0.125342 0
M  V30 4451 H 424.818 -1.67308 0.999696 0
M  V30 4452 H 423.914 -3.09107 0.431162 0
M  V30 4453 N 424.215 -0.530993 -1.48385 0
M  V30 4454 C 425.44 0.000729535 -2.074 0
M  V30 4455 C 425.865 1.27298 -1.3848 0
M  V30 4456 O 425.223 1.75599 -0.451081 0
M  V30 4457 C 425.271 0.206697 -3.60007 0
M  V30 4458 O 424.375 1.27514 -3.92191 0
M  V30 4459 H 423.716 -0.039583 -0.662819 0
M  V30 4460 H 426.246 -0.739194 -1.9078 0
M  V30 4461 H 426.256 0.42904 -4.05738 0
M  V30 4462 H 424.931 -0.722675 -4.09573 0
M  V30 4463 H 423.508 1.03537 -3.58238 0
M  V30 4464 N 425.693 1.55336 -0.266172 0
M  V30 4465 C 427.104 1.85236 0.233315 0
M  V30 4466 C 427.455 1.18816 1.56132 0
M  V30 4467 O 426.58 0.473307 2.11161 0
M  V30 4468 C 427.175 3.36059 0.430113 0
M  V30 4469 C 425.734 3.66116 0.873842 0
M  V30 4470 C 424.881 2.77274 -0.0380016 0
M  V30 4471 H 427.832 1.51004 -0.488214 0
M  V30 4472 H 427.853 3.58681 1.26998 0
M  V30 4473 H 427.365 3.84373 -0.536588 0
M  V30 4474 H 425.466 3.23295 1.85233 0
M  V30 4475 H 425.579 4.73699 0.717358 0
M  V30 4476 H 423.943 2.50198 0.476759 0
M  V30 4477 H 424.726 3.284 -1.00042 0
M  V30 4478 N 427.171 -0.0066808 1.57599 0
M  V30 4479 C 428.134 -0.985035 2.06953 0
M  V30 4480 C 429.134 -1.27663 0.977687 0
M  V30 4481 O 430.324 -1.22293 1.24057 0
M  V30 4482 C 427.456 -2.3118 2.50536 0
M  V30 4483 H 428.649 -0.558255 2.94658 0
M  V30 4484 H 426.202 -0.254011 1.54222 0
M  V30 4485 H 426.937 -2.78561 1.66054 0
M  V30 4486 H 426.722 -2.11338 3.3027 0
M  V30 4487 H 428.212 -3.01377 2.8907 0
M  V30 4488 N 428.649 -1.55105 -0.279332 0
M  V30 4489 C 429.581 -1.83952 -1.36727 0
M  V30 4490 C 430.594 -0.723642 -1.45833 0
M  V30 4491 O 431.783 -1.00141 -1.47763 0
M  V30 4492 C 428.883 -1.98183 -2.74912 0
M  V30 4493 C 428.056 -3.28787 -2.88475 0
M  V30 4494 C 427.115 -3.33162 -4.07295 0
M  V30 4495 O 426.141 -4.06576 -3.98353 0
M  V30 4496 N 427.343 -2.60109 -5.18964 0
M  V30 4497 H 430.108 -2.77853 -1.12328 0
M  V30 4498 H 427.669 -1.54945 -0.469442 0
M  V30 4499 H 429.661 -1.98488 -3.52682 0
M  V30 4500 H 428.231 -1.11177 -2.92162 0
M  V30 4501 H 427.451 -3.41075 -1.97641 0
M  V30 4502 H 428.739 -4.14933 -2.94463 0
M  V30 4503 H 428.137 -2.00136 -5.29115 0
M  V30 4504 H 426.694 -2.66143 -5.94988 0
M  V30 4505 N 430.127 0.543554 -1.4793 0
M  V30 4506 C 431.373 1.29961 -1.56466 0
M  V30 4507 C 431.728 1.91024 -0.229696 0
M  V30 4508 O 431.021 1.75619 0.766072 0
M  V30 4509 C 431.215 2.42078 -2.62932 0
M  V30 4510 C 431.044 1.92003 -4.06651 0
M  V30 4511 C 429.814 1.75223 -4.73946 0
M  V30 4512 C 432.012 1.45648 -4.93245 0
M  V30 4513 N 429.994 1.19632 -6.02131 0
M  V30 4514 C 431.365 1.01914 -6.11566 0
M  V30 4515 C 433.42 1.33826 -4.79578 0
M  V30 4516 C 432.123 0.475301 -7.17728 0
M  V30 4517 C 434.149 0.808427 -5.85848 0
M  V30 4518 C 433.511 0.381081 -7.03368 0
M  V30 4519 H 429.61 0.467086 -0.62718 0
M  V30 4520 H 432.194 0.614543 -1.84747 0
M  V30 4521 H 430.365 3.08098 -2.36496 0
M  V30 4522 H 432.097 3.09096 -2.61231 0
M  V30 4523 H 428.852 1.98345 -4.30065 0
M  V30 4524 H 429.276 0.93885 -6.70458 0
M  V30 4525 H 433.918 1.65474 -3.89074 0
M  V30 4526 H 431.636 0.146472 -8.07967 0
M  V30 4527 H 435.222 0.720315 -5.77324 0
M  V30 4528 H 434.102 -0.0225344 -7.84197 0
M  V30 4529 N 431.605 1.3629 0.791371 0
M  V30 4530 C 432.535 1.33137 1.91825 0
M  V30 4531 C 433.516 0.203168 1.68882 0
M  V30 4532 O 434.701 0.400509 1.90025 0
M  V30 4533 C 431.831 1.11793 3.28816 0
M  V30 4534 C 430.785 2.21417 3.66277 0
M  V30 4535 C 430.111 1.85218 5.01596 0
M  V30 4536 C 431.411 3.63489 3.75064 0
M  V30 4537 H 433.105 2.2743 1.9472 0
M  V30 4538 H 430.651 1.09479 0.935437 0
M  V30 4539 H 432.604 1.08222 4.07266 0
M  V30 4540 H 431.328 0.139501 3.26302 0
M  V30 4541 H 429.987 2.2411 2.90121 0
M  V30 4542 H 429.635 0.859544 4.95602 0
M  V30 4543 H 429.335 2.58611 5.27631 0
M  V30 4544 H 430.859 1.832 5.82469 0
M  V30 4545 H 432.273 3.63034 4.43711 0
M  V30 4546 H 430.67 4.35771 4.12582 0
M  V30 4547 H 431.74 3.98536 2.76219 0
M  V30 4548 N 433.083 -1.0153 1.20538 0
M  V30 4549 C 434.013 -2.11972 0.979295 0
M  V30 4550 C 434.994 -1.6985 -0.0921787 0
M  V30 4551 O 436.179 -1.94089 0.0655932 0
M  V30 4552 C 433.309 -3.43201 0.531984 0
M  V30 4553 C 432.263 -3.9907 1.54685 0
M  V30 4554 C 431.589 -5.26082 0.956127 0
M  V30 4555 C 432.889 -4.32313 2.93092 0
M  V30 4556 H 434.583 -2.31143 1.90298 0
M  V30 4557 H 432.129 -1.11079 0.916372 0
M  V30 4558 H 434.082 -4.1985 0.361044 0
M  V30 4559 H 432.806 -3.23792 -0.427327 0
M  V30 4560 H 431.465 -3.2453 1.70517 0
M  V30 4561 H 431.113 -5.02999 -0.0111538 0
M  V30 4562 H 430.813 -5.64426 1.63393 0
M  V30 4563 H 432.337 -6.05386 0.796284 0
M  V30 4564 H 433.751 -4.99845 2.80763 0
M  V30 4565 H 432.148 -4.81774 3.57791 0
M  V30 4566 H 433.218 -3.41025 3.44717 0
M  V30 4567 N 434.561 -1.01147 -1.20859 0
M  V30 4568 C 435.791 -0.715872 -1.93801 0
M  V30 4569 C 436.199 0.726592 -1.74692 0
M  V30 4570 O 435.542 1.50397 -1.05482 0
M  V30 4571 C 435.604 -0.965269 -3.46299 0
M  V30 4572 C 435.268 -2.39584 -3.89164 0
M  V30 4573 C 436.265 -3.3764 -3.95342 0
M  V30 4574 C 433.95 -2.73522 -4.21297 0
M  V30 4575 C 435.944 -4.67698 -4.33056 0
M  V30 4576 C 433.631 -4.03794 -4.58687 0
M  V30 4577 C 434.629 -5.00693 -4.64538 0
M  V30 4578 O 434.317 -6.28635 -5.01072 0
M  V30 4579 H 434.049 -0.262524 -0.622942 0
M  V30 4580 H 436.603 -1.35413 -1.54443 0
M  V30 4581 H 434.833 -0.269847 -3.85757 0
M  V30 4582 H 436.522 -0.662051 -4.00464 0
M  V30 4583 H 437.288 -3.12757 -3.70686 0
M  V30 4584 H 433.167 -1.9879 -4.15937 0
M  V30 4585 H 436.711 -5.4333 -4.37537 0
M  V30 4586 H 432.608 -4.28459 -4.82797 0
M  V30 4587 H 433.376 -6.32847 -5.19083 0
M  V30 4588 N 436.039 1.36541 -0.78704 0
M  V30 4589 C 437.267 2.03561 -0.370199 0
M  V30 4590 C 437.682 1.59347 1.01263 0
M  V30 4591 O 437.039 0.781781 1.64907 0
M  V30 4592 C 437.09 3.59033 -0.421614 0
M  V30 4593 O 436.811 4.01634 -1.7499 0
M  V30 4594 C 438.312 4.433 0.00489763 0
M  V30 4595 H 435.532 0.653346 -0.152904 0
M  V30 4596 H 438.076 1.74566 -1.06522 0
M  V30 4597 H 436.231 3.86746 0.224971 0
M  V30 4598 H 436.645 4.96217 -1.69909 0
M  V30 4599 H 438.119 5.51939 -0.0822184 0
M  V30 4600 H 438.596 4.26285 1.05723 0
M  V30 4601 H 439.202 4.20843 -0.614085 0
M  V30 4602 N 437.518 0.538854 1.48102 0
M  V30 4603 C 438.468 -0.23907 2.26743 0
M  V30 4604 C 439.452 -0.901923 1.33245 0
M  V30 4605 O 440.644 -0.803263 1.57723 0
M  V30 4606 C 437.773 -1.2799 3.18549 0
M  V30 4607 C 436.859 -0.621388 4.19523 0
M  V30 4608 N 437.25 0.298004 5.04921 0
M  V30 4609 C 435.548 -0.877533 4.37282 0
M  V30 4610 C 436.249 0.678757 5.77726 0
M  V30 4611 N 435.225 0.0377881 5.43587 0
M  V30 4612 H 439.027 0.468096 2.90148 0
M  V30 4613 H 436.541 0.357497 1.58416 0
M  V30 4614 H 438.538 -1.851 3.73555 0
M  V30 4615 H 437.198 -1.98835 2.567 0
M  V30 4616 H 438.209 0.671126 5.13533 0
M  V30 4617 H 434.886 -1.57588 3.86616 0
M  V30 4618 H 436.276 1.43316 6.56437 0
M  V30 4619 N 438.996 -1.55193 0.274407 0
M  V30 4620 C 440.407 -1.85358 -0.223488 0
M  V30 4621 C 440.758 -1.19642 -1.555 0
M  V30 4622 O 439.883 -0.484498 -2.10907 0
M  V30 4623 C 440.478 -3.36282 -0.412285 0
M  V30 4624 C 439.037 -3.66574 -0.854413 0
M  V30 4625 C 438.184 -2.7725 0.0527056 0
M  V30 4626 H 441.135 -1.50743 0.496215 0
M  V30 4627 H 441.156 -3.59349 -1.25094 0
M  V30 4628 H 440.668 -3.84083 0.556965 0
M  V30 4629 H 438.769 -3.24273 -1.83516 0
M  V30 4630 H 438.882 -4.74073 -0.692226 0
M  V30 4631 H 437.246 -2.50447 -0.463484 0
M  V30 4632 H 438.029 -3.27865 1.01783 0
M  V30 4633 N 440.474 -0.00167713 -1.576 0
M  V30 4634 C 441.702 0.693759 -1.94922 0
M  V30 4635 C 442.117 1.67215 -0.876626 0
M  V30 4636 O 441.474 1.81929 0.144279 0
M  V30 4637 C 441.525 1.42416 -3.32265 0
M  V30 4638 O 441.246 0.485014 -4.35407 0
M  V30 4639 C 442.747 2.21395 -3.84056 0
M  V30 4640 H 439.967 0.193118 -0.642609 0
M  V30 4641 H 442.511 -0.0532952 -2.04431 0
M  V30 4642 H 440.666 2.12284 -3.24059 0
M  V30 4643 H 441.08 1.00053 -5.14868 0
M  V30 4644 H 442.554 2.67996 -4.82578 0
M  V30 4645 H 443.031 3.04142 -3.16851 0
M  V30 4646 H 443.637 1.56542 -3.95443 0
M  V30 4647 N 441.952 1.55251 0.271103 0
M  V30 4648 C 442.902 1.84649 1.33749 0
M  V30 4649 C 443.886 0.705529 1.44607 0
M  V30 4650 O 445.078 0.966916 1.48256 0
M  V30 4651 C 442.207 2.12354 2.69742 0
M  V30 4652 C 441.293 3.32714 2.62988 0
M  V30 4653 N 441.684 4.52575 2.25853 0
M  V30 4654 C 439.982 3.35341 2.94045 0
M  V30 4655 C 440.683 5.34669 2.29136 0
M  V30 4656 N 439.659 4.73123 2.67685 0
M  V30 4657 H 443.461 2.74865 1.0405 0
M  V30 4658 H 440.975 1.55152 0.479738 0
M  V30 4659 H 442.972 2.31572 3.4667 0
M  V30 4660 H 441.632 1.23422 3.00328 0
M  V30 4661 H 442.643 4.78639 1.978 0
M  V30 4662 H 439.32 2.56608 3.2933 0
M  V30 4663 H 440.71 6.40509 2.02971 0
M  V30 4664 N 443.43 -0.535701 1.48216 0
M  V30 4665 C 444.655 -1.32149 1.59848 0
M  V30 4666 C 445.08 -1.86338 0.256842 0
M  V30 4667 O 444.438 -1.64107 -0.770632 0
M  V30 4668 C 444.486 -2.45224 2.64381 0
M  V30 4669 O 443.59 -3.48093 2.21144 0
M  V30 4670 H 442.931 -0.391634 0.536208 0
M  V30 4671 H 445.461 -0.645202 1.94161 0
M  V30 4672 H 445.471 -2.91491 2.85476 0
M  V30 4673 H 444.146 -2.05143 3.61786 0
M  V30 4674 H 442.723 -3.07984 2.10239 0
M  V30 4675 N 444.908 -1.36708 -0.784132 0
M  V30 4676 C 446.154 -1.32433 -1.54379 0
M  V30 4677 C 446.509 0.0941816 -1.92169 0
M  V30 4678 O 445.802 1.04997 -1.60269 0
M  V30 4679 C 445.996 -2.18571 -2.82774 0
M  V30 4680 C 445.825 -3.68656 -2.57533 0
M  V30 4681 C 444.595 -4.37813 -2.52286 0
M  V30 4682 C 446.793 -4.61802 -2.2637 0
M  V30 4683 N 444.775 -5.7351 -2.18997 0
M  V30 4684 C 446.146 -5.85785 -2.03115 0
M  V30 4685 C 448.201 -4.50313 -2.12421 0
M  V30 4686 C 446.904 -6.99569 -1.67321 0
M  V30 4687 C 448.93 -5.63969 -1.78026 0
M  V30 4688 C 448.292 -6.86994 -1.55622 0
M  V30 4689 H 444.391 -0.539886 -0.565727 0
M  V30 4690 H 446.975 -1.71812 -0.915908 0
M  V30 4691 H 445.146 -1.81429 -3.43421 0
M  V30 4692 H 446.878 -2.05646 -3.48557 0
M  V30 4693 H 443.633 -3.90674 -2.67714 0
M  V30 4694 H 444.057 -6.45189 -2.05084 0
M  V30 4695 H 448.699 -3.55781 -2.28429 0
M  V30 4696 H 446.417 -7.94047 -1.5005 0
M  V30 4697 H 450.003 -5.57044 -1.67909 0
M  V30 4698 H 448.883 -7.7345 -1.294 0
M  V30 4699 N 446.386 1.0089 -1.21074 0
M  V30 4700 C 447.318 2.09737 -0.924291 0
M  V30 4701 C 448.331 1.62546 0.0909809 0
M  V30 4702 O 449.52 1.77942 -0.141021 0
M  V30 4703 C 446.62 3.36922 -0.36559 0
M  V30 4704 C 445.793 4.13216 -1.43426 0
M  V30 4705 C 444.852 5.18696 -0.885496 0
M  V30 4706 O 443.878 5.47176 -1.56801 0
M  V30 4707 N 445.08 5.79718 0.301227 0
M  V30 4708 H 447.845 2.34895 -1.8613 0
M  V30 4709 H 445.406 1.17341 -1.11546 0
M  V30 4710 H 447.398 4.04697 0.0158407 0
M  V30 4711 H 445.968 3.08952 0.476149 0
M  V30 4712 H 445.188 3.40301 -1.9897 0
M  V30 4713 H 446.476 4.60967 -2.15376 0
M  V30 4714 H 445.874 5.58926 0.872849 0
M  V30 4715 H 444.431 6.48804 0.624211 0
M  V30 4716 N 447.864 1.01787 1.20321 0
M  V30 4717 C 449.28 0.732951 1.41774 0
M  V30 4718 C 449.48 -0.686883 1.89431 0
M  V30 4719 O 448.536 -1.45446 2.06402 0
M  V30 4720 C 449.849 1.75973 2.43832 0
M  V30 4721 C 451.397 1.77802 2.57596 0
M  V30 4722 C 451.872 2.7941 3.62897 0
M  V30 4723 N 453.363 2.78157 3.70382 0
M  V30 4724 C 454.098 3.53434 4.51521 0
M  V30 4725 N 453.594 4.38392 5.36455 0
M  V30 4726 N 455.387 3.42026 4.46066 0
M  V30 4727 H 447.538 1.93447 0.877035 0
M  V30 4728 H 449.801 0.835712 0.447536 0
M  V30 4729 H 449.507 2.77699 2.15815 0
M  V30 4730 H 449.381 1.57292 3.4284 0
M  V30 4731 H 451.768 0.767602 2.84942 0
M  V30 4732 H 451.849 2.00557 1.58779 0
M  V30 4733 H 451.493 3.80616 3.36295 0
M  V30 4734 H 451.423 2.53916 4.61339 0
M  V30 4735 H 453.914 2.16531 3.09714 0
M  V30 4736 H 454.227 4.92596 5.95457 0
M  V30 4737 H 452.572 4.4247 5.35953 0
M  V30 4738 H 455.763 2.75075 3.78749 0
M  V30 4739 H 455.936 4.00946 5.09064 0
M  V30 4740 N 449.342 -1.36122 0.79427 0
M  V30 4741 C 450.305 -2.28309 0.201889 0
M  V30 4742 C 451.305 -1.49041 -0.603603 0
M  V30 4743 O 452.495 -1.68964 -0.423888 0
M  V30 4744 C 449.627 -3.3321 -0.719978 0
M  V30 4745 H 450.82 -2.82208 1.01481 0
M  V30 4746 H 448.373 -1.45768 0.564037 0
M  V30 4747 H 449.108 -2.84475 -1.55706 0
M  V30 4748 H 448.893 -3.91835 -0.144266 0
M  V30 4749 H 450.383 -4.02044 -1.12916 0
M  V30 4750 N 450.82 -0.546701 -1.47814 0
M  V30 4751 C 452.097 0.0464413 -1.95545 0
M  V30 4752 C 452.477 1.4962 -1.48919 0
M  V30 4753 O 451.825 2.16752 -0.723232 0
M  V30 4754 C 452.035 -0.0881298 -3.48889 0
M  V30 4755 C 453.383 0.0626059 -4.24554 0
M  V30 4756 O 454.407 -0.0151555 -3.56197 0
M  V30 4757 O 453.266 0.228071 -5.46024 0
M  V30 4758 H 450.36 0.0700004 -0.824032 0
M  V30 4759 H 452.906 -0.612482 -1.58262 0
M  V30 4760 H 451.678 -1.09737 -3.75597 0
M  V30 4761 H 451.301 0.608886 -3.9291 0
M  V30 4762 N 452.299 1.55045 -0.282633 0
M  V30 4763 C 453.229 2.2579 0.595066 0
M  V30 4764 C 454.21 1.25074 1.15284 0
M  V30 4765 O 455.395 1.5381 1.18559 0
M  V30 4766 C 452.525 2.98472 1.77572 0
M  V30 4767 C 451.479 4.0618 1.34914 0
M  V30 4768 C 450.805 4.66477 2.6135 0
M  V30 4769 C 452.105 5.1996 0.493821 0
M  V30 4770 H 453.799 2.994 0.00505653 0
M  V30 4771 H 451.345 1.44 0.000992001 0
M  V30 4772 H 453.298 3.46677 2.39568 0
M  V30 4773 H 452.022 2.2241 2.39168 0
M  V30 4774 H 450.681 3.58797 0.752338 0
M  V30 4775 H 450.329 3.87074 3.2122 0
M  V30 4776 H 450.029 5.39207 2.33516 0
M  V30 4777 H 451.553 5.17435 3.24181 0
M  V30 4778 H 452.967 5.64172 1.01898 0
M  V30 4779 H 451.364 5.99299 0.310047 0
M  V30 4780 H 452.434 4.82462 -0.485593 0
M  V30 4781 N 453.777 0.010035 1.57597 0
M  V30 4782 C 455.025 -0.671371 1.90623 0
M  V30 4783 C 455.346 -1.73753 0.885151 0
M  V30 4784 O 454.616 -1.95752 -0.0760611 0
M  V30 4785 H 453.196 -0.250968 0.703579 0
M  V30 4786 H 455.858 0.0533325 1.94827 0
M  V30 4787 H 454.954 -1.13626 2.90681 0
M  V30 4788 N 455.255 -1.55392 -0.262866 0
M  V30 4789 C 456.218 -1.88181 -1.30846 0
M  V30 4790 C 457.218 -0.757079 -1.41862 0
M  V30 4791 O 458.408 -1.02519 -1.40838 0
M  V30 4792 C 455.54 -2.09609 -2.68844 0
M  V30 4793 H 456.733 -2.81659 -1.02997 0
M  V30 4794 H 454.286 -1.48039 -0.501414 0
M  V30 4795 H 455.021 -1.18547 -3.01856 0
M  V30 4796 H 454.806 -2.91508 -2.62231 0
M  V30 4797 H 456.296 -2.36215 -3.44372 0
M  V30 4798 N 456.733 0.527833 -1.48498 0
M  V30 4799 C 457.963 1.30633 -1.60058 0
M  V30 4800 C 458.371 1.87394 -0.260786 0
M  V30 4801 O 457.714 1.67227 0.760317 0
M  V30 4802 C 457.776 2.49361 -2.58958 0
M  V30 4803 C 457.44 2.13671 -4.03972 0
M  V30 4804 C 458.437 1.69217 -4.91591 0
M  V30 4805 C 456.122 2.24129 -4.49524 0
M  V30 4806 C 458.116 1.35689 -6.2279 0
M  V30 4807 C 455.803 1.90212 -5.80743 0
M  V30 4808 C 456.801 1.46063 -6.67199 0
M  V30 4809 O 456.489 1.12593 -7.95976 0
M  V30 4810 H 456.221 0.403444 -0.54241 0
M  V30 4811 H 458.775 0.643233 -1.95068 0
M  V30 4812 H 457.005 3.18659 -2.19073 0
M  V30 4813 H 458.694 3.11421 -2.6033 0
M  V30 4814 H 459.46 1.60607 -4.57636 0
M  V30 4815 H 455.339 2.57447 -3.82416 0
M  V30 4816 H 458.883 1.01157 -6.90227 0
M  V30 4817 H 454.78 1.98464 -6.14233 0
M  V30 4818 H 455.548 1.25972 -8.08748 0
M  V30 4819 N 458.211 1.37122 0.776871 0
M  V30 4820 C 459.141 1.35164 1.90402 0
M  V30 4821 C 460.122 0.221069 1.68657 0
M  V30 4822 O 461.307 0.420642 1.8959 0
M  V30 4823 C 458.437 1.15274 3.27611 0
M  V30 4824 C 457.391 2.25289 3.63908 0
M  V30 4825 C 456.717 1.90527 4.99603 0
M  V30 4826 C 458.017 3.67446 3.71188 0
M  V30 4827 H 459.711 2.29482 1.92297 0
M  V30 4828 H 457.257 1.10465 0.923773 0
M  V30 4829 H 459.21 1.12536 4.06096 0
M  V30 4830 H 457.934 0.174102 3.26136 0
M  V30 4831 H 456.593 2.27174 2.87728 0
M  V30 4832 H 456.241 0.91206 4.94662 0
M  V30 4833 H 455.941 2.64193 5.24858 0
M  V30 4834 H 457.465 1.89367 5.80493 0
M  V30 4835 H 458.879 3.67719 4.39836 0
M  V30 4836 H 457.276 4.40123 4.07936 0
M  V30 4837 H 458.346 4.01443 2.71977 0
M  V30 4838 N 459.689 -1.00246 1.21608 0
M  V30 4839 C 460.637 -2.11193 0.97469 0
M  V30 4840 C 461.631 -1.69216 -0.0789303 0
M  V30 4841 O 462.837 -1.79853 0.0726806 0
M  V30 4842 H 459.212 -0.690455 0.297953 0
M  V30 4843 H 461.183 -2.2873 1.91638 0
M  V30 4844 C 459.932 -3.43182 0.558717 0
M  V30 4845 H 459.255 -3.75918 1.3611 0
M  V30 4846 H 460.695 -4.21823 0.429154 0
M  V30 4847 C 459.154 -3.28882 -0.730648 0
M  V30 4848 O 459.684 -3.59835 -1.78554 0
M  V30 4849 N 457.89 -2.8209 -0.698131 0
M  V30 4850 H 457.437 -2.57099 0.16061 0
M  V30 4851 H 457.395 -2.72903 -1.56113 0
M  V30 4852 N 461.167 -1.02423 -1.1978 0
M  V30 4853 C 462.578 -0.748389 -1.71044 0
M  V30 4854 C 462.929 0.732398 -1.82017 0
M  V30 4855 O 462.054 1.57116 -1.48807 0
M  V30 4856 C 462.649 -1.35187 -3.1066 0
M  V30 4857 C 461.208 -1.12472 -3.59203 0
M  V30 4858 C 460.355 -1.45283 -2.36195 0
M  V30 4859 H 463.306 -1.19275 -1.04686 0
M  V30 4860 H 463.327 -0.746408 -3.73107 0
M  V30 4861 H 462.839 -2.4296 -3.02642 0
M  V30 4862 H 460.94 -0.0649983 -3.72543 0
M  V30 4863 H 461.053 -1.81016 -4.43588 0
M  V30 4864 H 459.417 -0.872034 -2.39307 0
M  V30 4865 H 460.2 -2.54129 -2.30811 0
M  V30 4866 N 462.645 1.35699 -0.801477 0
M  V30 4867 C 464.061 1.52065 -0.484596 0
M  V30 4868 C 464.261 1.75215 0.995084 0
M  V30 4869 O 463.317 1.79061 1.78026 0
M  V30 4870 C 464.63 2.69908 -1.32552 0
M  V30 4871 C 466.178 2.83784 -1.32044 0
M  V30 4872 C 466.653 4.04646 -2.14536 0
M  V30 4873 N 468.144 4.11814 -2.12046 0
M  V30 4874 C 468.879 5.04437 -2.72636 0
M  V30 4875 N 468.375 6.02426 -3.42133 0
M  V30 4876 N 470.168 4.97144 -2.62305 0
M  V30 4877 H 462.319 1.18928 -1.75983 0
M  V30 4878 H 464.582 0.581455 -0.748741 0
M  V30 4879 H 464.288 2.59363 -2.37537 0
M  V30 4880 H 464.162 3.64376 -0.975181 0
M  V30 4881 H 466.549 2.93783 -0.27846 0
M  V30 4882 H 466.63 1.90188 -1.71062 0
M  V30 4883 H 466.274 3.95407 -3.18772 0
M  V30 4884 H 466.204 4.97413 -1.72882 0
M  V30 4885 H 468.695 3.41664 -1.61476 0
M  V30 4886 H 469.008 6.69688 -3.85666 0
M  V30 4887 H 467.353 6.02615 -3.46237 0
M  V30 4888 H 470.544 4.19546 -2.07603 0
M  V30 4889 H 470.717 5.69138 -3.09815 0
M  V30 4890 N 464.123 0.554532 1.47522 0
M  V30 4891 C 465.534 0.120446 1.86311 0
M  V30 4892 C 465.885 -1.30904 1.46145 0
M  V30 4893 O 465.01 -1.98434 0.863294 0
M  V30 4894 C 465.605 0.211808 3.38137 0
M  V30 4895 C 464.164 -0.167224 3.76028 0
M  V30 4896 C 463.311 0.560576 2.71575 0
M  V30 4897 H 466.262 0.764408 1.39077 0
M  V30 4898 H 466.283 -0.570275 3.76202 0
M  V30 4899 H 465.795 1.25232 3.6734 0
M  V30 4900 H 463.896 -1.20894 3.52442 0
M  V30 4901 H 464.009 0.189473 4.78725 0
M  V30 4902 H 462.373 0.00396836 2.547 0
M  V30 4903 H 463.156 1.60219 3.0362 0
M  V30 4904 N 465.601 -1.54893 0.290851 0
M  V30 4905 C 467.012 -1.85584 -0.203816 0
M  V30 4906 C 467.363 -1.21285 -1.54222 0
M  V30 4907 O 466.488 -0.506841 -2.10381 0
M  V30 4908 C 467.083 -3.367 -0.376595 0
M  V30 4909 C 465.642 -3.6746 -0.815485 0
M  V30 4910 C 464.789 -2.77178 0.0821087 0
M  V30 4911 H 467.74 -1.50208 0.512175 0
M  V30 4912 H 467.761 -3.60656 -1.21275 0
M  V30 4913 H 467.273 -3.8347 0.59767 0
M  V30 4914 H 465.374 -3.26201 -1.80066 0
M  V30 4915 H 465.487 -4.7478 -0.641905 0
M  V30 4916 H 463.851 -2.50925 -0.436895 0
M  V30 4917 H 464.634 -3.26767 1.05254 0
M  V30 4918 N 467.08 -0.0183926 -1.57589 0
M  V30 4919 C 468.043 0.951986 -2.08494 0
M  V30 4920 C 469.043 1.26092 -0.997874 0
M  V30 4921 O 470.233 1.20304 -1.25987 0
M  V30 4922 C 467.365 2.27165 -2.54182 0
M  V30 4923 H 468.558 0.511307 -2.95509 0
M  V30 4924 H 466.111 0.229444 -1.54607 0
M  V30 4925 H 466.846 2.75884 -1.70465 0
M  V30 4926 H 466.631 2.06057 -3.33591 0
M  V30 4927 H 468.121 2.9674 -2.93828 0
M  V30 4928 N 468.558 1.5553 0.254621 0
M  V30 4929 C 469.969 1.67518 0.824286 0
M  V30 4930 C 470.32 0.614429 1.86331 0
M  V30 4931 O 469.445 -0.240736 2.15057 0
M  V30 4932 C 470.04 3.03692 1.50189 0
M  V30 4933 C 468.599 3.17646 2.01935 0
M  V30 4934 C 467.746 2.63373 0.867746 0
M  V30 4935 H 470.697 1.58671 0.0305843 0
M  V30 4936 H 470.718 2.97706 2.36962 0
M  V30 4937 H 470.23 3.80874 0.745431 0
M  V30 4938 H 468.331 2.45273 2.80485 0
M  V30 4939 H 468.444 4.24455 2.22204 0
M  V30 4940 H 466.808 2.20999 1.26616 0
M  V30 4941 H 467.591 3.43074 0.124498 0
M  V30 4942 N 470.036 -0.519951 1.48776 0
M  V30 4943 C 470.946 -1.65025 1.66745 0
M  V30 4944 C 471.962 -1.6508 0.549954 0
M  V30 4945 O 473.138 -1.83848 0.822295 0
M  V30 4946 C 470.203 -3.0146 1.71238 0
M  V30 4947 C 469.264 -3.12182 2.94688 0
M  V30 4948 C 468.497 -4.42109 2.98958 0
M  V30 4949 O 468.72 -5.29799 2.1135 0
M  V30 4950 O 467.654 -4.57406 3.91233 0
M  V30 4951 H 471.48 -1.52801 2.62461 0
M  V30 4952 H 469.065 -0.694157 1.32294 0
M  V30 4953 H 470.947 -3.82584 1.76657 0
M  V30 4954 H 469.622 -3.13988 0.786975 0
M  V30 4955 H 468.529 -2.30316 2.94797 0
M  V30 4956 H 469.862 -3.04574 3.86646 0
M  V30 4957 N 471.514 -1.37532 -0.769588 0
M  V30 4958 C 472.477 -1.33292 -1.86456 0
M  V30 4959 C 473.477 -0.236537 -1.59051 0
M  V30 4960 O 474.667 -0.492511 -1.67093 0
M  V30 4961 C 471.799 -1.07118 -3.23633 0
M  V30 4962 H 472.992 -2.30692 -1.91628 0
M  V30 4963 H 470.545 -1.22593 -0.969572 0
M  V30 4964 H 471.28 -0.102578 -3.24138 0
M  V30 4965 H 471.065 -1.86479 -3.44917 0
M  V30 4966 H 472.555 -1.06806 -4.03711 0
M  V30 4967 N 472.992 0.995999 -1.22138 0
M  V30 4968 C 474.238 1.7386 -1.05567 0
M  V30 4969 C 474.593 1.8808 0.405418 0
M  V30 4970 O 473.886 1.41062 1.29661 0
M  V30 4971 C 474.08 3.14553 -1.6968 0
M  V30 4972 C 473.909 3.14053 -3.21871 0
M  V30 4973 C 472.679 3.20121 -3.90961 0
M  V30 4974 C 474.877 2.98451 -4.18845 0
M  V30 4975 N 472.859 3.09342 -5.30265 0
M  V30 4976 C 474.23 2.95667 -5.4496 0
M  V30 4977 C 476.285 2.8282 -4.09777 0
M  V30 4978 C 474.988 2.78852 -6.63049 0
M  V30 4979 C 477.014 2.67364 -5.27513 0
M  V30 4980 C 476.376 2.65264 -6.52544 0
M  V30 4981 H 472.475 0.645989 -0.440706 0
M  V30 4982 H 475.059 1.1831 -1.54631 0
M  V30 4983 H 473.23 3.68353 -1.2317 0
M  V30 4984 H 474.962 3.77358 -1.4623 0
M  V30 4985 H 471.717 3.27679 -3.4194 0
M  V30 4986 H 472.141 3.0727 -6.03253 0
M  V30 4987 H 476.783 2.83243 -3.139 0
M  V30 4988 H 474.501 2.77175 -7.59078 0
M  V30 4989 H 478.087 2.56256 -5.22326 0
M  V30 4990 H 476.967 2.5345 -7.42114 0
M  V30 4991 N 474.47 1.03057 1.19235 0
M  V30 4992 C 475.695 0.74757 1.93458 0
M  V30 4993 C 476.12 -0.687648 1.7508 0
M  V30 4994 O 475.478 -1.47499 1.05422 0
M  V30 4995 C 475.526 1.10604 3.43219 0
M  V30 4996 O 474.63 0.225671 4.11782 0
M  V30 4997 H 473.971 0.276047 0.603899 0
M  V30 4998 H 476.501 1.3777 1.51263 0
M  V30 4999 H 476.511 1.06366 3.93891 0
M  V30 5000 H 475.186 2.15165 3.55917 0
M  V30 5001 H 473.763 0.326795 3.71465 0
M  V30 5002 N 475.948 -1.35272 0.808662 0
M  V30 5003 C 476.858 -2.33546 0.222079 0
M  V30 5004 C 477.874 -1.6196 -0.636011 0
M  V30 5005 O 479.05 -1.93822 -0.547274 0
M  V30 5006 C 476.115 -3.41148 -0.61795 0
M  V30 5007 C 475.176 -4.28507 0.260875 0
M  V30 5008 C 474.409 -5.3097 -0.539156 0
M  V30 5009 O 474.632 -5.42123 -1.77367 0
M  V30 5010 O 473.566 -6.01858 0.0710526 0
M  V30 5011 H 477.392 -2.85515 1.03512 0
M  V30 5012 H 474.977 -1.38079 0.570495 0
M  V30 5013 H 476.859 -4.06889 -1.09634 0
M  V30 5014 H 475.534 -2.91447 -1.40855 0
M  V30 5015 H 474.441 -3.6574 0.786451 0
M  V30 5016 H 475.774 -4.81611 1.01547 0
M  V30 5017 N 477.426 -0.562348 -1.47226 0
M  V30 5018 C 478.837 -0.130325 -1.86245 0
M  V30 5019 C 479.188 1.30128 -1.46838 0
M  V30 5020 O 478.313 1.97974 -0.873805 0
M  V30 5021 C 478.908 -0.229738 -3.3802 0
M  V30 5022 C 477.467 0.14728 -3.76112 0
M  V30 5023 C 476.614 -0.574971 -2.71274 0
M  V30 5024 H 479.565 -0.771773 -1.3867 0
M  V30 5025 H 479.586 0.550316 -3.76499 0
M  V30 5026 H 479.098 -1.27178 -3.66671 0
M  V30 5027 H 477.199 1.19023 -3.53078 0
M  V30 5028 H 477.312 -0.214858 -4.78618 0
M  V30 5029 H 475.676 -0.0174756 -2.54694 0
M  V30 5030 H 476.459 -1.61827 -3.02766 0
M  V30 5031 N 478.904 1.54736 -0.299062 0
M  V30 5032 C 480.15 2.00397 0.311244 0
M  V30 5033 C 480.483 1.18716 1.53688 0
M  V30 5034 O 479.758 0.263154 1.92712 0
M  V30 5035 C 480.041 3.53817 0.669761 0
M  V30 5036 C 479.894 4.46239 -0.564882 0
M  V30 5037 C 481.213 4.13856 1.49702 0
M  V30 5038 H 478.332 0.728493 0.111653 0
M  V30 5039 H 480.974 1.85506 -0.410774 0
M  V30 5040 H 479.124 3.66637 1.28491 0
M  V30 5041 H 480.796 4.45328 -1.20337 0
M  V30 5042 H 479.039 4.16916 -1.19849 0
M  V30 5043 H 479.71 5.5134 -0.269918 0
M  V30 5044 H 482.186 4.04461 0.977284 0
M  V30 5045 H 481.062 5.21365 1.71666 0
M  V30 5046 H 481.323 3.65608 2.48563 0
M  V30 5047 N 480.382 0.0267497 1.57577 0
M  V30 5048 C 481.312 -0.954308 2.13108 0
M  V30 5049 C 482.293 -1.34088 1.04663 0
M  V30 5050 O 483.478 -1.41992 1.32484 0
M  V30 5051 C 480.608 -2.23744 2.65624 0
M  V30 5052 C 479.562 -1.99168 3.78835 0
M  V30 5053 C 478.888 -3.33726 4.17769 0
M  V30 5054 C 480.188 -1.33277 5.0501 0
M  V30 5055 H 481.882 -0.491848 2.95332 0
M  V30 5056 H 479.428 -0.23514 1.42067 0
M  V30 5057 H 481.381 -2.92754 3.03106 0
M  V30 5058 H 480.105 -2.72151 1.80558 0
M  V30 5059 H 478.764 -1.32577 3.41788 0
M  V30 5060 H 478.412 -3.79888 3.29688 0
M  V30 5061 H 478.112 -3.18089 4.94058 0
M  V30 5062 H 479.636 -4.04008 4.57832 0
M  V30 5063 H 481.05 -1.92283 5.40093 0
M  V30 5064 H 479.447 -1.28045 5.8628 0
M  V30 5065 H 480.517 -0.305411 4.83937 0
M  V30 5066 N 481.861 -1.55662 -0.24637 0
M  V30 5067 C 482.791 -1.93377 -1.30873 0
M  V30 5068 C 483.772 -0.798773 -1.50179 0
M  V30 5069 O 484.957 -1.0591 -1.62778 0
M  V30 5070 C 482.087 -2.22893 -2.66338 0
M  V30 5071 C 481.041 -3.38649 -2.61727 0
M  V30 5072 C 480.367 -3.53708 -4.00992 0
M  V30 5073 C 481.667 -4.74323 -2.18666 0
M  V30 5074 H 483.361 -2.82363 -0.995552 0
M  V30 5075 H 480.907 -1.35854 -0.477464 0
M  V30 5076 H 482.86 -2.47866 -3.40794 0
M  V30 5077 H 481.584 -1.30733 -2.99293 0
M  V30 5078 H 480.243 -3.13685 -1.89729 0
M  V30 5079 H 479.891 -2.58967 -4.31214 0
M  V30 5080 H 479.591 -4.31551 -3.98795 0
M  V30 5081 H 481.115 -3.81003 -4.77147 0
M  V30 5082 H 482.529 -4.98665 -2.82854 0
M  V30 5083 H 480.926 -5.55273 -2.27579 0
M  V30 5084 H 481.996 -4.71349 -1.13834 0
M  V30 5085 N 483.339 0.512053 -1.4905 0
M  V30 5086 C 484.302 1.59704 -1.64399 0
M  V30 5087 C 485.302 1.52285 -0.516317 0
M  V30 5088 O 486.492 1.55635 -0.782527 0
M  V30 5089 C 483.624 2.9935 -1.63102 0
M  V30 5090 H 484.817 1.47428 -2.61161 0
M  V30 5091 H 482.37 0.735469 -1.37915 0
M  V30 5092 H 483.105 3.17116 -0.678836 0
M  V30 5093 H 482.89 3.06144 -2.44986 0
M  V30 5094 H 484.38 3.782 -1.77072 0
M  V30 5095 N 484.817 1.37938 0.762283 0
M  V30 5096 C 485.764 1.34467 1.87583 0
M  V30 5097 C 486.734 0.208633 1.64785 0
M  V30 5098 O 487.919 0.399494 1.86571 0
M  V30 5099 C 485.059 1.16692 3.24772 0
M  V30 5100 C 484.172 2.39608 3.59461 0
M  V30 5101 C 483.307 2.14631 4.85908 0
M  V30 5102 C 482.346 3.33364 5.13357 0
M  V30 5103 N 481.483 3.07877 6.30996 0
M  V30 5104 H 486.323 2.29669 1.89885 0
M  V30 5105 H 483.86 1.14116 0.928219 0
M  V30 5106 H 485.818 1.04405 4.03925 0
M  V30 5107 H 484.448 0.251333 3.2182 0
M  V30 5108 H 483.5 2.626 2.75219 0
M  V30 5109 H 484.812 3.28128 3.75678 0
M  V30 5110 H 483.966 1.99429 5.72986 0
M  V30 5111 H 482.705 1.23463 4.71814 0
M  V30 5112 H 481.71 3.49094 4.24751 0
M  V30 5113 H 482.935 4.25395 5.29354 0
M  V30 5114 H 480.881 2.19348 6.18241 0
M  V30 5115 H 480.798 3.89944 6.47673 0
M  V30 5116 H 482.066 2.96313 7.20985 0
M  V30 5117 N 486.295 -0.989507 1.22664 0
M  V30 5118 C 487.543 -1.72612 1.05117 0
M  V30 5119 C 487.864 -1.90552 -0.414131 0
M  V30 5120 O 487.134 -1.4676 -1.29762 0
M  V30 5121 H 485.714 -0.639555 0.385977 0
M  V30 5122 H 488.376 -1.19158 1.54232 0
M  V30 5123 H 487.472 -2.71926 1.53175 0
M  V30 5124 N 487.773 -1.03688 -1.18687 0
M  V30 5125 C 488.998 -0.757819 -1.93059 0
M  V30 5126 C 489.423 0.678353 -1.75442 0
M  V30 5127 O 488.781 1.46938 -1.06203 0
M  V30 5128 C 488.829 -1.12423 -3.42627 0
M  V30 5129 O 487.933 -0.247505 -4.11657 0
M  V30 5130 H 487.274 -0.279245 -0.602427 0
M  V30 5131 H 489.804 -1.3857 -1.5053 0
M  V30 5132 H 489.814 -1.08454 -3.93322 0
M  V30 5133 H 488.489 -2.17049 -3.54771 0
M  V30 5134 H 487.066 -0.34649 -3.71287 0
M  V30 5135 N 489.251 1.34841 -0.815825 0
M  V30 5136 C 490.491 2.00321 -0.406297 0
M  V30 5137 C 490.855 1.63293 1.00992 0
M  V30 5138 O 492.056 2.21563 1.52195 0
M  V30 5139 C 490.327 3.52421 -0.594469 0
M  V30 5140 S 491.886 4.37926 -0.276735 0
M  V30 5141 H 488.704 0.694155 -0.153848 0
M  V30 5142 H 491.306 1.64263 -1.06009 0
M  V30 5143 H 490.01 3.76858 -1.625 0
M  V30 5144 H 489.541 3.9333 0.0743157 0
M  V30 5145 H 491.556 4.87743 0.912215 0
M  V30 5146 N 490.729 0.570148 1.46925 0
M  V30 5147 C 491.692 -0.159933 2.28641 0
M  V30 5148 C 492.692 -0.830638 1.37685 0
M  V30 5149 O 493.882 -0.684516 1.60187 0
M  V30 5150 C 491.014 -1.2354 3.17727 0
M  V30 5151 H 492.207 0.558035 2.94662 0
M  V30 5152 H 489.76 0.327603 1.52828 0
M  V30 5153 H 490.495 -1.98535 2.56426 0
M  V30 5154 H 490.28 -0.759125 3.84681 0
M  V30 5155 H 491.77 -1.74782 3.79264 0
M  V30 5156 N 492.207 -1.54576 0.307264 0
M  V30 5157 C 493.437 -2.04378 -0.302158 0
M  V30 5158 C 493.845 -1.18381 -1.47589 0
M  V30 5159 O 493.188 -0.20352 -1.82569 0
M  V30 5160 C 493.25 -3.50133 -0.815305 0
M  V30 5161 C 492.914 -4.56401 0.233977 0
M  V30 5162 C 493.911 -5.08884 1.06456 0
M  V30 5163 C 491.596 -5.0088 0.377478 0
M  V30 5164 C 493.59 -6.04394 2.02452 0
M  V30 5165 C 491.277 -5.96208 1.34088 0
M  V30 5166 C 492.275 -6.47849 2.16288 0
M  V30 5167 O 491.963 -7.41308 3.10994 0
M  V30 5168 H 491.695 -0.672502 -0.0686839 0
M  V30 5169 H 494.249 -2.00484 0.446682 0
M  V30 5170 H 492.479 -3.51371 -1.61478 0
M  V30 5171 H 494.168 -3.83098 -1.34129 0
M  V30 5172 H 494.934 -4.75311 0.964596 0
M  V30 5173 H 490.813 -4.60309 -0.252405 0
M  V30 5174 H 494.357 -6.44626 2.66652 0
M  V30 5175 H 490.254 -6.29198 1.44154 0
M  V30 5176 H 491.022 -7.5913 3.06045 0
M  V30 5177 N 493.685 -0.035106 -1.57561 0
M  V30 5178 C 494.91 0.655802 -1.96759 0
M  V30 5179 C 495.335 1.64523 -0.911809 0
M  V30 5180 O 494.693 1.80857 0.126673 0
M  V30 5181 C 494.741 1.33326 -3.35047 0
M  V30 5182 O 493.845 2.44866 -3.31835 0
M  V30 5183 H 493.186 0.171807 -0.641388 0
M  V30 5184 H 495.716 -0.0987369 -2.04362 0
M  V30 5185 H 495.726 1.68867 -3.71413 0
M  V30 5186 H 494.401 0.608033 -4.11431 0
M  V30 5187 H 492.978 2.11392 -3.07193 0
M  V30 5188 N 495.163 1.55791 0.238111 0
M  V30 5189 C 496.44 1.68798 0.98826 0
M  V30 5190 C 496.82 0.577562 2.03045 0
M  V30 5191 O 496.168 -0.41778 2.24648 0
M  V30 5192 C 496.378 3.09454 1.61367 0
M  V30 5193 C 497.726 3.68335 2.11221 0
M  V30 5194 O 498.75 3.1231 1.71292 0
M  V30 5195 O 497.609 4.6657 2.84561 0
M  V30 5196 H 494.703 0.686881 0.460568 0
M  V30 5197 H 497.249 1.68118 0.231202 0
M  V30 5198 H 496.021 3.81726 0.860295 0
M  V30 5199 H 495.644 3.14182 2.4367 0
M  V30 5200 N 496.642 -0.504142 1.49319 0
M  V30 5201 C 497.572 -1.61473 1.68667 0
M  V30 5202 C 498.553 -1.61455 0.535378 0
M  V30 5203 O 499.738 -1.78245 0.770868 0
M  V30 5204 C 496.868 -2.99971 1.75028 0
M  V30 5205 C 495.822 -3.14854 2.89916 0
M  V30 5206 C 495.148 -4.54671 2.81387 0
M  V30 5207 C 496.448 -2.95176 4.30893 0
M  V30 5208 H 498.142 -1.45535 2.61648 0
M  V30 5209 H 495.688 -0.698711 1.25913 0
M  V30 5210 H 497.641 -3.77562 1.8715 0
M  V30 5211 H 496.365 -3.1699 0.786441 0
M  V30 5212 H 495.024 -2.39687 2.77391 0
M  V30 5213 H 494.672 -4.68562 1.82917 0
M  V30 5214 H 494.372 -4.6557 3.58494 0
M  V30 5215 H 495.896 -5.34327 2.95512 0
M  V30 5216 H 497.31 -3.62538 4.44116 0
M  V30 5217 H 495.707 -3.17549 5.09198 0
M  V30 5218 H 496.777 -1.91332 4.45556 0
M  V30 5219 N 498.12 -1.38341 -0.754957 0
M  V30 5220 C 499.052 -1.31347 -1.87831 0
M  V30 5221 C 500.065 -0.225955 -1.61224 0
M  V30 5222 O 501.254 -0.48341 -1.7183 0
M  V30 5223 C 498.354 -1.01201 -3.23437 0
M  V30 5224 C 497.527 -2.20834 -3.77559 0
M  V30 5225 C 496.586 -1.87454 -4.91678 0
M  V30 5226 O 495.612 -2.59934 -5.06382 0
M  V30 5227 N 496.814 -0.828682 -5.74555 0
M  V30 5228 H 499.579 -2.28147 -1.94342 0
M  V30 5229 H 497.14 -1.32184 -0.934828 0
M  V30 5230 H 499.132 -0.769249 -3.97322 0
M  V30 5231 H 497.702 -0.132011 -3.12321 0
M  V30 5232 H 496.922 -2.61184 -2.95256 0
M  V30 5233 H 498.21 -3.00678 -4.10451 0
M  V30 5234 H 497.608 -0.227591 -5.65242 0
M  V30 5235 H 496.165 -0.645802 -6.48593 0
M  V30 5236 N 499.598 0.982988 -1.23187 0
M  V30 5237 C 500.823 1.76455 -1.08988 0
M  V30 5238 C 501.248 1.84726 0.354691 0
M  V30 5239 O 500.606 1.30699 1.25649 0
M  V30 5240 C 500.654 3.17094 -1.71708 0
M  V30 5241 O 499.758 4.00648 -0.977477 0
M  V30 5242 H 499.099 0.542988 -0.382177 0
M  V30 5243 H 501.629 1.23413 -1.63188 0
M  V30 5244 H 501.639 3.67684 -1.76841 0
M  V30 5245 H 500.314 3.10389 -2.76823 0
M  V30 5246 H 498.891 3.59161 -1.0029 0
M  V30 5247 N 501.076 1.04316 1.18135 0
M  V30 5248 C 502.009 0.580823 2.20685 0
M  V30 5249 C 502.987 -0.385943 1.57953 0
M  V30 5250 O 504.171 -0.299654 1.86103 0
M  V30 5251 C 501.298 -0.151162 3.38363 0
M  V30 5252 C 500.344 0.769247 4.19505 0
M  V30 5253 S 501.177 2.25352 4.85774 0
M  V30 5254 C 502.333 1.53246 6.0685 0
M  V30 5255 H 502.566 1.44968 2.5956 0
M  V30 5256 H 500.099 0.85434 1.28609 0
M  V30 5257 H 502.057 -0.567315 4.06561 0
M  V30 5258 H 500.718 -0.995936 2.97892 0
M  V30 5259 H 499.911 0.203335 5.0359 0
M  V30 5260 H 499.513 1.12436 3.56699 0
M  V30 5261 H 501.805 0.82689 6.72435 0
M  V30 5262 H 502.748 2.35044 6.67952 0
M  V30 5263 H 503.156 1.0237 5.5514 0
M  V30 5264 N 502.554 -1.34406 0.822964 0
M  V30 5265 C 503.802 -1.97892 0.410245 0
M  V30 5266 C 504.123 -1.65567 -1.03017 0
M  V30 5267 O 503.393 -0.94642 -1.71522 0
M  V30 5268 H 501.973 -0.732049 0.148707 0
M  V30 5269 H 504.635 -1.64043 1.05242 0
M  V30 5270 H 503.731 -3.07579 0.529284 0
M  V30 5271 N 504.032 -0.577932 -1.46621 0
M  V30 5272 C 505.26 -0.0671642 -2.06791 0
M  V30 5273 C 505.675 1.23571 -1.42743 0
M  V30 5274 O 505.032 1.74602 -0.531062 0
M  V30 5275 C 505.083 0.110357 -3.61332 0
M  V30 5276 O 504.804 -1.14095 -4.22982 0
M  V30 5277 C 506.305 0.656025 -4.38419 0
M  V30 5278 H 503.525 -0.0552732 -0.66872 0
M  V30 5279 H 506.069 -0.797242 -1.8832 0
M  V30 5280 H 504.224 0.790637 -3.79246 0
M  V30 5281 H 504.638 -0.951742 -5.15793 0
M  V30 5282 H 506.112 0.729438 -5.47159 0
M  V30 5283 H 506.589 1.67195 -4.06131 0
M  V30 5284 H 507.195 0.0107692 -4.25299 0
M  V30 5285 N 505.51 1.54411 -0.315457 0
M  V30 5286 C 506.758 2.00023 0.288971 0
M  V30 5287 C 507.079 1.20529 1.5329 0
M  V30 5288 O 506.349 0.304986 1.93511 0
M  V30 5289 H 504.929 0.738891 0.109766 0
M  V30 5290 H 507.591 1.90094 -0.430129 0
M  V30 5291 H 506.687 3.07198 0.550999 0
M  V30 5292 N 506.988 0.0434614 1.5754 0
M  V30 5293 C 508.399 -0.493343 1.80064 0
M  V30 5294 C 508.75 -1.71388 0.955023 0
M  V30 5295 O 507.875 -2.15736 0.169434 0
M  V30 5296 C 508.47 -0.90179 3.26578 0
M  V30 5297 C 507.029 -1.38362 3.50047 0
M  V30 5298 C 506.176 -0.355129 2.75017 0
M  V30 5299 H 509.127 0.2694 1.56397 0
M  V30 5300 H 509.148 -1.76523 3.37075 0
M  V30 5301 H 508.66 -0.013271 3.88098 0
M  V30 5302 H 506.761 -2.29159 2.93798 0
M  V30 5303 H 506.874 -1.3811 4.58762 0
M  V30 5304 H 505.238 -0.826348 2.40922 0
M  V30 5305 H 506.021 0.525172 3.39259 0
M  V30 5306 N 508.466 -1.55915 -0.229846 0
M  V30 5307 C 509.743 -1.6932 -0.979295 0
M  V30 5308 C 510.123 -0.588321 -2.02736 0
M  V30 5309 O 509.471 0.40586 -2.24867 0
M  V30 5310 C 509.681 -3.10305 -1.59724 0
M  V30 5311 C 511.029 -3.6945 -2.09264 0
M  V30 5312 O 512.053 -3.13214 -1.69633 0
M  V30 5313 O 510.912 -4.68072 -2.82082 0
M  V30 5314 H 508.006 -0.689314 -0.456919 0
M  V30 5315 H 510.552 -1.68238 -0.222283 0
M  V30 5316 H 509.324 -3.82177 -0.840039 0
M  V30 5317 H 508.947 -3.1547 -2.42001 0
M  V30 5318 N 509.944 0.496216 -1.49584 0
M  V30 5319 C 511.192 1.24756 -1.58998 0
M  V30 5320 C 511.513 1.92968 -0.280775 0
M  V30 5321 O 510.783 1.82959 0.700198 0
M  V30 5322 H 509.363 0.463471 -0.585836 0
M  V30 5323 H 512.025 0.574678 -1.86235 0
M  V30 5324 H 511.121 2.00895 -2.38847 0
M  V30 5325 N 511.423 1.38739 0.74761 0
M  V30 5326 C 512.648 1.38702 1.54197 0
M  V30 5327 C 513.073 -0.019664 1.8809 0
M  V30 5328 O 512.431 -1.00333 1.51006 0
M  V30 5329 C 512.479 2.25492 2.814 0
M  V30 5330 O 511.583 1.67613 3.76802 0
M  V30 5331 H 510.924 0.472863 0.466151 0
M  V30 5332 H 513.454 1.82577 0.923413 0
M  V30 5333 H 513.464 2.39561 3.30264 0
M  V30 5334 H 512.139 3.27727 2.56062 0
M  V30 5335 H 510.716 1.62718 3.35526 0
M  V30 5336 N 512.901 -0.976442 1.23707 0
M  V30 5337 C 514.312 -1.53284 1.06587 0
M  V30 5338 C 514.663 -1.92765 -0.365526 0
M  V30 5339 O 513.788 -1.7645 -1.25277 0
M  V30 5340 C 514.383 -2.78548 1.92864 0
M  V30 5341 C 512.942 -3.30574 1.79994 0
M  V30 5342 C 512.089 -2.03538 1.88328 0
M  V30 5343 H 515.04 -0.795692 1.37311 0
M  V30 5344 H 515.061 -3.5155 1.45577 0
M  V30 5345 H 514.573 -2.49782 2.97037 0
M  V30 5346 H 512.674 -3.64211 0.786202 0
M  V30 5347 H 512.787 -4.00065 2.636 0
M  V30 5348 H 511.151 -2.17853 1.31954 0
M  V30 5349 H 511.934 -1.77149 2.94063 0
M  V30 5350 N 514.379 -1.04941 -1.1758 0
M  V30 5351 C 515.309 -0.669172 -2.23706 0
M  V30 5352 C 516.29 0.331835 -1.66832 0
M  V30 5353 O 517.475 0.209988 -1.93061 0
M  V30 5354 C 514.605 -0.0404889 -3.47276 0
M  V30 5355 C 513.559 -0.965983 -4.16957 0
M  V30 5356 C 512.885 -0.201312 -5.34321 0
M  V30 5357 C 514.185 -2.28902 -4.69469 0
M  V30 5358 H 515.879 -1.55639 -2.55767 0
M  V30 5359 H 513.425 -0.749793 -1.22939 0
M  V30 5360 H 515.378 0.237298 -4.20731 0
M  V30 5361 H 514.102 0.881658 -3.14475 0
M  V30 5362 H 512.761 -1.22829 -3.45411 0
M  V30 5363 H 512.409 0.723519 -4.97769 0
M  V30 5364 H 512.109 -0.817968 -5.81879 0
M  V30 5365 H 513.633 0.0692499 -6.10561 0
M  V30 5366 H 515.047 -2.07132 -5.34574 0
M  V30 5367 H 513.444 -2.85942 -5.27596 0
M  V30 5368 H 514.514 -2.92937 -3.86414 0
M  V30 5369 N 515.857 1.33968 -0.830081 0
M  V30 5370 C 517.104 1.98063 -0.421566 0
M  V30 5371 C 517.432 1.65787 1.0171 0
M  V30 5372 O 516.687 0.925348 1.72441 0
M  V30 5373 C 516.986 3.52679 -0.57898 0
M  V30 5374 C 516.652 4.04884 -1.98443 0
M  V30 5375 C 515.314 4.18852 -2.36888 0
M  V30 5376 C 517.666 4.32879 -2.90285 0
M  V30 5377 C 514.994 4.58145 -3.66497 0
M  V30 5378 C 517.346 4.7362 -4.19364 0
M  V30 5379 C 516.01 4.85794 -4.57778 0
M  V30 5380 H 515.28 0.724765 -0.154262 0
M  V30 5381 H 517.927 1.59792 -1.05541 0
M  V30 5382 H 516.232 3.91556 0.138219 0
M  V30 5383 H 517.929 4.00261 -0.243317 0
M  V30 5384 H 514.519 3.9448 -1.67581 0
M  V30 5385 H 518.703 4.21619 -2.61823 0
M  V30 5386 H 513.959 4.65762 -3.96075 0
M  V30 5387 H 518.133 4.9424 -4.90612 0
M  V30 5388 H 515.76 5.15998 -5.58256 0
M  V30 5389 N 517.335 0.585699 1.46312 0
M  V30 5390 C 518.583 0.072278 2.01971 0
M  V30 5391 C 518.904 -1.29345 1.45928 0
M  V30 5392 O 518.174 -1.84973 0.645109 0
M  V30 5393 H 516.754 0.023729 0.746623 0
M  V30 5394 H 519.416 0.762155 1.7938 0
M  V30 5395 H 518.512 0.00552767 3.121 0
M  V30 5396 N 518.813 -1.54241 0.323641 0
M  V30 5397 C 520.053 -2.0248 -0.279502 0
M  V30 5398 C 520.417 -1.20672 -1.49339 0
M  V30 5399 O 521.618 -1.58715 -2.1694 0
M  V30 5400 C 519.889 -3.52238 -0.605266 0
M  V30 5401 S 521.448 -4.22411 -1.18805 0
M  V30 5402 H 518.266 -0.705957 -0.0845313 0
M  V30 5403 H 520.868 -1.90089 0.456781 0
M  V30 5404 H 519.572 -4.094 0.286339 0
M  V30 5405 H 519.103 -3.6871 -1.37174 0
M  V30 5406 H 521.118 -4.30075 -2.47487 0
M  V30 5407 N 520.291 -0.0518155 -1.57515 0
M  V30 5408 C 521.221 0.920283 -2.146 0
M  V30 5409 C 522.202 1.32406 -1.06783 0
M  V30 5410 O 523.387 1.39866 -1.34726 0
M  V30 5411 C 520.517 2.1949 -2.6915 0
M  V30 5412 C 519.471 1.93116 -3.81956 0
M  V30 5413 C 518.797 3.27037 -4.23026 0
M  V30 5414 C 520.097 1.25225 -5.07066 0
M  V30 5415 H 521.791 0.444801 -2.96077 0
M  V30 5416 H 519.337 0.212508 -1.42423 0
M  V30 5417 H 521.29 2.87894 -3.07725 0
M  V30 5418 H 520.014 2.69244 -1.84865 0
M  V30 5419 H 518.673 1.27123 -3.43854 0
M  V30 5420 H 518.321 3.74595 -3.3569 0
M  V30 5421 H 518.021 3.10189 -4.99056 0
M  V30 5422 H 519.545 3.96673 -4.64202 0
M  V30 5423 H 520.959 1.83666 -5.43083 0
M  V30 5424 H 519.356 1.18702 -5.88243 0
M  V30 5425 H 520.426 0.228382 -4.84362 0
M  V30 5426 N 521.769 1.56035 0.221574 0
M  V30 5427 C 522.999 1.82864 0.961468 0
M  V30 5428 C 523.407 0.628703 1.78449 0
M  V30 5429 O 522.75 -0.412109 1.79018 0
M  V30 5430 C 522.812 3.03425 1.92804 0
M  V30 5431 C 522.476 4.38429 1.28954 0
M  V30 5432 C 523.473 5.15441 0.679431 0
M  V30 5433 C 521.158 4.85151 1.30131 0
M  V30 5434 C 523.152 6.37337 0.0896148 0
M  V30 5435 C 520.839 6.06989 0.707651 0
M  V30 5436 C 521.837 6.82923 0.102855 0
M  V30 5437 O 521.525 8.02456 -0.48157 0
M  V30 5438 H 521.257 0.611883 0.28736 0
M  V30 5439 H 523.811 2.0397 0.241932 0
M  V30 5440 H 522.041 2.78138 2.68656 0
M  V30 5441 H 523.73 3.17127 2.53348 0
M  V30 5442 H 524.496 4.80452 0.662661 0
M  V30 5443 H 520.375 4.26021 1.76145 0
M  V30 5444 H 523.919 6.96547 -0.383069 0
M  V30 5445 H 519.816 6.41451 0.721834 0
M  V30 5446 H 520.584 8.17636 -0.375887 0
M  V30 5447 N 523.247 -0.488276 1.49845 0
M  V30 5448 C 524.157 -1.61451 1.70207 0
M  V30 5449 C 525.173 -1.63877 0.584846 0
M  V30 5450 O 526.349 -1.82063 0.861107 0
M  V30 5451 C 523.414 -2.9776 1.77594 0
M  V30 5452 C 522.475 -3.05861 3.01243 0
M  V30 5453 C 521.708 -4.35668 3.08268 0
M  V30 5454 O 521.931 -5.25197 2.22541 0
M  V30 5455 O 520.865 -4.49005 4.00847 0
M  V30 5456 H 524.691 -1.47199 2.65643 0
M  V30 5457 H 522.276 -0.665939 1.33737 0
M  V30 5458 H 524.158 -3.7875 1.84732 0
M  V30 5459 H 522.833 -3.12248 0.8534 0
M  V30 5460 H 521.74 -2.24012 2.99616 0
M  V30 5461 H 523.073 -2.96304 3.9302 0
M  V30 5462 N 524.725 -1.39134 -0.740242 0
M  V30 5463 C 525.688 -1.37217 -1.83587 0
M  V30 5464 C 526.688 -0.270221 -1.58513 0
M  V30 5465 O 527.878 -0.527843 -1.6601 0
M  V30 5466 C 525.01 -1.13959 -3.21288 0
M  V30 5467 H 526.203 -2.34705 -1.86691 0
M  V30 5468 H 523.756 -1.24622 -0.94335 0
M  V30 5469 H 524.491 -0.17131 -3.23847 0
M  V30 5470 H 524.276 -1.93754 -3.40884 0
M  V30 5471 H 525.766 -1.15346 -4.01354 0
M  V30 5472 N 526.204 0.969867 -1.24223 0
M  V30 5473 C 527.152 2.08535 -1.03034 0
M  V30 5474 C 528.146 1.69366 0.0340379 0
M  V30 5475 O 529.352 1.79597 -0.12034 0
M  V30 5476 H 525.727 0.682313 -0.316154 0
M  V30 5477 H 527.698 2.23569 -1.97635 0
M  V30 5478 C 526.447 3.4158 -0.649509 0
M  V30 5479 H 525.77 3.72177 -1.46028 0
M  V30 5480 H 527.21 4.20536 -0.540841 0
M  V30 5481 C 525.669 3.30703 0.643194 0
M  V30 5482 O 526.199 3.64443 1.68951 0
M  V30 5483 N 524.405 2.83841 0.623095 0
M  V30 5484 H 523.952 2.56583 -0.228719 0
M  V30 5485 H 523.91 2.76946 1.48823 0
M  V30 5486 N 527.682 1.05563 1.17022 0
M  V30 5487 C 528.959 0.68165 1.83338 0
M  V30 5488 C 529.339 -0.837665 1.93769 0
M  V30 5489 O 528.687 -1.74507 1.47511 0
M  V30 5490 C 528.897 1.375 3.20772 0
M  V30 5491 C 530.245 1.51545 3.96635 0
M  V30 5492 O 531.269 1.33431 3.30264 0
M  V30 5493 O 530.128 1.812 5.15586 0
M  V30 5494 H 527.222 0.240412 0.791285 0
M  V30 5495 H 529.768 1.15545 1.24288 0
M  V30 5496 H 528.54 2.41135 3.08171 0
M  V30 5497 H 528.163 0.890798 3.87493 0
M  V30 5498 N 529.16 -1.33526 0.837174 0
M  V30 5499 C 530.39 -2.01754 0.444848 0
M  V30 5500 C 530.798 -1.63149 -0.958072 0
M  V30 5501 O 530.141 -0.839827 -1.63379 0
M  V30 5502 C 530.203 -3.56228 0.483917 0
M  V30 5503 C 529.867 -4.18205 1.84265 0
M  V30 5504 C 530.864 -4.37699 2.80563 0
M  V30 5505 C 528.549 -4.54667 2.13503 0
M  V30 5506 C 530.543 -4.928 4.04261 0
M  V30 5507 C 528.23 -5.09475 3.37458 0
M  V30 5508 C 529.228 -5.28488 4.32654 0
M  V30 5509 O 528.916 -5.82132 5.54417 0
M  V30 5510 H 528.648 -0.652928 0.175104 0
M  V30 5511 H 531.202 -1.71469 1.13082 0
M  V30 5512 H 529.432 -3.85833 -0.258826 0
M  V30 5513 H 531.121 -4.05752 0.109653 0
M  V30 5514 H 531.887 -4.0988 2.59274 0
M  V30 5515 H 527.766 -4.39164 1.40201 0
M  V30 5516 H 531.31 -5.07555 4.78574 0
M  V30 5517 H 527.207 -5.36725 3.58604 0
M  V30 5518 H 527.975 -6.00548 5.56133 0
M  V30 5519 N 530.638 -0.59345 -1.46 0
M  V30 5520 C 531.548 0.135817 -2.34207 0
M  V30 5521 C 532.564 0.875008 -1.50398 0
M  V30 5522 O 533.74 0.835778 -1.83239 0
M  V30 5523 C 530.805 1.12977 -3.27776 0
M  V30 5524 C 529.866 0.394081 -4.27487 0
M  V30 5525 C 529.099 1.34068 -5.16586 0
M  V30 5526 O 529.322 2.5778 -5.08828 0
M  V30 5527 O 528.256 0.845426 -5.95933 0
M  V30 5528 H 532.082 -0.588691 -2.9794 0
M  V30 5529 H 529.667 -0.353784 -1.45151 0
M  V30 5530 H 531.549 1.70261 -3.85473 0
M  V30 5531 H 530.224 1.83556 -2.66625 0
M  V30 5532 H 529.131 -0.220869 -3.73447 0
M  V30 5533 H 530.464 -0.270939 -4.91454 0
M  V30 5534 N 532.116 1.54067 -0.331816 0
M  V30 5535 C 533.026 2.28322 0.539104 0
M  V30 5536 C 534.042 1.32985 1.1221 0
M  V30 5537 O 535.218 1.6601 1.1403 0
M  V30 5538 C 532.283 3.03277 1.68 0
M  V30 5539 C 531.344 4.14216 1.12798 0
M  V30 5540 C 530.577 4.85588 2.2145 0
M  V30 5541 O 530.8 4.56536 3.41952 0
M  V30 5542 O 529.734 5.72309 1.86404 0
M  V30 5543 H 533.56 3.03632 -0.0641692 0
M  V30 5544 H 531.145 1.49083 -0.0972365 0
M  V30 5545 H 533.027 3.50189 2.34405 0
M  V30 5546 H 531.702 2.30834 2.2693 0
M  V30 5547 H 530.609 3.71635 0.428782 0
M  V30 5548 H 531.942 4.88727 0.583698 0
M  V30 5549 N 533.594 0.0601682 1.57485 0
M  V30 5550 C 534.843 -0.611101 1.9222 0
M  V30 5551 C 535.156 -1.71469 0.941159 0
M  V30 5552 O 536.362 -2.44473 1.18089 0
M  V30 5553 C 534.818 -1.13832 3.41424 0
M  V30 5554 C 534.426 -0.0663596 4.47951 0
M  V30 5555 C 536.17 -1.78432 3.85178 0
M  V30 5556 C 534.077 -0.606965 5.88277 0
M  V30 5557 H 533.007 -0.232033 0.71741 0
M  V30 5558 H 535.658 0.130518 1.83035 0
M  V30 5559 H 534.04 -1.93254 3.45643 0
M  V30 5560 H 535.214 0.707682 4.55333 0
M  V30 5561 H 533.529 0.482715 4.13593 0
M  V30 5562 H 536.126 -2.1989 4.87394 0
M  V30 5563 H 536.469 -2.63966 3.21913 0
M  V30 5564 H 537.002 -1.05651 3.83514 0
M  V30 5565 H 533.741 0.21095 6.5516 0
M  V30 5566 H 533.261 -1.34879 5.84438 0
M  V30 5567 H 534.94 -1.08704 6.37803 0
M  V30 5568 N 535.072 -1.5615 -0.213296 0
M  V30 5569 C 536.318 -1.79812 -0.937849 0
M  V30 5570 C 536.651 -0.631201 -1.83656 0
M  V30 5571 O 535.926 0.369165 -1.90964 0
M  V30 5572 C 536.209 -3.13613 -1.76972 0
M  V30 5573 C 536.062 -4.40766 -0.89695 0
M  V30 5574 C 537.381 -3.43931 -2.7459 0
M  V30 5575 H 534.5 -0.654138 -0.339518 0
M  V30 5576 H 537.142 -1.88877 -0.20623 0
M  V30 5577 H 535.292 -3.06015 -2.39347 0
M  V30 5578 H 536.964 -4.60392 -0.289306 0
M  V30 5579 H 535.207 -4.33326 -0.202756 0
M  V30 5580 H 535.878 -5.30843 -1.51358 0
M  V30 5581 H 538.354 -3.5171 -2.22349 0
M  V30 5582 H 537.23 -4.38706 -3.29891 0
M  V30 5583 H 537.491 -2.6651 -3.52739 0
M  V30 5584 N 536.55 0.480323 -1.50102 0
M  V30 5585 C 537.797 1.23307 -1.60629 0
M  V30 5586 C 538.125 1.92135 -0.302375 0
M  V30 5587 O 537.38 1.82321 0.711154 0
M  V30 5588 C 537.679 2.30708 -2.72963 0
M  V30 5589 C 537.345 1.79195 -4.13763 0
M  V30 5590 C 536.007 1.64867 -4.52076 0
M  V30 5591 C 538.359 1.40878 -5.018 0
M  V30 5592 C 535.687 1.10631 -5.76175 0
M  V30 5593 C 538.039 0.880872 -6.26437 0
M  V30 5594 C 536.703 0.724146 -6.6356 0
M  V30 5595 H 535.973 0.451211 -0.587784 0
M  V30 5596 H 538.62 0.53051 -1.84005 0
M  V30 5597 H 536.925 3.06834 -2.43639 0
M  V30 5598 H 538.622 2.88692 -2.78313 0
M  V30 5599 H 535.212 1.91313 -3.83533 0
M  V30 5600 H 539.396 1.50786 -4.7284 0
M  V30 5601 H 534.652 0.972263 -6.0362 0
M  V30 5602 H 538.826 0.575269 -6.9402 0
M  V30 5603 H 536.453 0.301722 -7.59601 0
M  V30 5604 N 538.028 1.39524 0.732853 0
M  V30 5605 C 538.958 1.41153 1.86005 0
M  V30 5606 C 539.939 0.274614 1.67869 0
M  V30 5607 O 541.124 0.480745 1.88155 0
M  V30 5608 C 538.254 1.25638 3.23778 0
M  V30 5609 C 537.208 2.36752 3.56556 0
M  V30 5610 C 536.534 2.06326 4.93289 0
M  V30 5611 C 537.834 3.79069 3.5931 0
M  V30 5612 H 539.528 2.35484 1.84899 0
M  V30 5613 H 537.074 1.13348 0.888162 0
M  V30 5614 H 539.027 1.25398 4.0231 0
M  V30 5615 H 537.751 0.277772 3.25417 0
M  V30 5616 H 536.41 2.36213 2.80355 0
M  V30 5617 H 536.058 1.06897 4.9151 0
M  V30 5618 H 535.758 2.80757 5.16187 0
M  V30 5619 H 537.282 2.07739 5.74175 0
M  V30 5620 H 538.696 3.81526 4.27914 0
M  V30 5621 H 537.093 4.52878 3.93728 0
M  V30 5622 H 538.163 4.09893 2.59068 0
M  V30 5623 N 539.506 -0.963266 1.24736 0
M  V30 5624 C 540.439 -2.05758 0.986852 0
M  V30 5625 C 541.417 -1.62398 -0.0809272 0
M  V30 5626 O 542.601 -1.88414 0.0569347 0
M  V30 5627 C 539.728 -3.35135 0.490095 0
M  V30 5628 C 538.774 -3.97451 1.54709 0
M  V30 5629 S 539.607 -4.34519 3.12976 0
M  V30 5630 C 540.763 -5.67026 2.65014 0
M  V30 5631 H 540.996 -2.27539 1.91346 0
M  V30 5632 H 538.529 -1.10176 1.08169 0
M  V30 5633 H 540.487 -4.09962 0.21012 0
M  V30 5634 H 539.148 -3.11335 -0.415873 0
M  V30 5635 H 538.341 -4.90704 1.15003 0
M  V30 5636 H 537.943 -3.29071 1.77731 0
M  V30 5637 H 540.235 -6.44748 2.08102 0
M  V30 5638 H 541.178 -6.11594 3.56873 0
M  V30 5639 H 541.586 -5.25847 2.05294 0
M  V30 5640 N 540.985 -1.06182 -1.16461 0
M  V30 5641 C 542.232 -0.777863 -1.86964 0
M  V30 5642 C 542.56 0.695602 -1.81636 0
M  V30 5643 O 541.815 1.52532 -1.22607 0
M  V30 5644 C 542.114 -1.21633 -3.36066 0
M  V30 5645 C 541.78 -2.69371 -3.61594 0
M  V30 5646 C 540.442 -3.09727 -3.6827 0
M  V30 5647 C 542.794 -3.64791 -3.7226 0
M  V30 5648 C 540.122 -4.44345 -3.83112 0
M  V30 5649 C 542.474 -4.99155 -3.88623 0
M  V30 5650 C 541.138 -5.39149 -3.93541 0
M  V30 5651 H 540.408 -0.28464 -0.68415 0
M  V30 5652 H 543.055 -1.33071 -1.37711 0
M  V30 5653 H 541.36 -0.582651 -3.87443 0
M  V30 5654 H 543.057 -0.973682 -3.88999 0
M  V30 5655 H 539.647 -2.37124 -3.57029 0
M  V30 5656 H 543.831 -3.34746 -3.66413 0
M  V30 5657 H 539.087 -4.74819 -3.85172 0
M  V30 5658 H 543.261 -5.72976 -3.95817 0
M  V30 5659 H 540.888 -6.43464 -4.04794 0
M  V30 5660 N 542.463 1.3308 -0.844243 0
M  V30 5661 C 543.691 2.01808 -0.456203 0
M  V30 5662 C 544.106 1.63498 0.944131 0
M  V30 5663 O 543.463 0.85102 1.61443 0
M  V30 5664 C 543.514 3.56922 -0.573513 0
M  V30 5665 O 543.235 3.93851 -1.91868 0
M  V30 5666 C 544.736 4.42922 -0.183125 0
M  V30 5667 H 541.956 0.646273 -0.180477 0
M  V30 5668 H 544.5 1.69891 -1.1383 0
M  V30 5669 H 542.655 3.87352 0.0607367 0
M  V30 5670 H 543.069 4.88564 -1.90802 0
M  V30 5671 H 544.543 5.51093 -0.316241 0
M  V30 5672 H 545.02 4.30386 0.875477 0
M  V30 5673 H 545.626 4.1786 -0.792027 0
M  V30 5674 N 543.941 0.601185 1.45683 0
M  V30 5675 C 544.871 -0.108824 2.33246 0
M  V30 5676 C 545.852 -0.865223 1.46451 0
M  V30 5677 O 547.037 -0.83704 1.75235 0
M  V30 5678 C 544.167 -1.11101 3.2905 0
M  V30 5679 C 543.121 -0.468244 4.25431 0
M  V30 5680 C 542.447 -1.57822 5.10878 0
M  V30 5681 C 543.747 0.606469 5.18767 0
M  V30 5682 H 545.441 0.622306 2.92861 0
M  V30 5683 H 542.987 0.300714 1.40825 0
M  V30 5684 H 544.94 -1.61622 3.89174 0
M  V30 5685 H 543.664 -1.87265 2.67581 0
M  V30 5686 H 542.323 0.0160484 3.66596 0
M  V30 5687 H 541.971 -2.32998 4.45781 0
M  V30 5688 H 541.671 -1.15369 5.76163 0
M  V30 5689 H 543.195 -2.08583 5.73869 0
M  V30 5690 H 544.609 0.185589 5.73 0
M  V30 5691 H 543.006 0.952381 5.92494 0
M  V30 5692 H 544.076 1.48559 4.61582 0
M  V30 5693 N 545.419 -1.53889 0.339982 0
M  V30 5694 C 546.366 -2.24902 -0.518452 0
M  V30 5695 C 547.336 -1.24593 -1.09844 0
M  V30 5696 O 548.521 -1.53317 -1.13572 0
M  V30 5697 C 545.661 -3.02262 -1.66529 0
M  V30 5698 C 544.774 -4.17418 -1.11295 0
M  V30 5699 C 543.909 -4.82273 -2.2268 0
M  V30 5700 C 542.948 -5.89503 -1.6478 0
M  V30 5701 N 542.085 -6.48153 -2.69893 0
M  V30 5702 H 546.925 -2.97853 0.0936579 0
M  V30 5703 H 544.462 -1.46986 0.0579924 0
M  V30 5704 H 546.42 -3.45371 -2.3404 0
M  V30 5705 H 545.05 -2.31614 -2.24844 0
M  V30 5706 H 544.102 -3.78976 -0.328886 0
M  V30 5707 H 545.414 -4.94554 -0.649414 0
M  V30 5708 H 544.568 -5.28435 -2.98063 0
M  V30 5709 H 543.307 -4.04552 -2.72376 0
M  V30 5710 H 542.312 -5.42728 -0.879004 0
M  V30 5711 H 543.537 -6.6913 -1.1594 0
M  V30 5712 H 541.483 -5.73298 -3.1885 0
M  V30 5713 H 541.4 -7.20752 -2.28151 0
M  V30 5714 H 542.668 -6.98968 -3.45056 0
M  V30 5715 N 546.897 -0.0685191 -1.57451 0
M  V30 5716 C 547.829 0.929372 -2.09512 0
M  V30 5717 C 548.842 1.26354 -1.02657 0
M  V30 5718 O 550.031 1.2213 -1.30179 0
M  V30 5719 C 547.131 2.24612 -2.53777 0
M  V30 5720 C 546.304 2.09128 -3.84167 0
M  V30 5721 C 545.363 3.24079 -4.14559 0
M  V30 5722 O 544.389 2.99215 -4.8421 0
M  V30 5723 N 545.591 4.49077 -3.67845 0
M  V30 5724 H 548.356 0.484901 -2.95751 0
M  V30 5725 H 545.917 0.11729 -1.61475 0
M  V30 5726 H 547.909 3.00412 -2.71172 0
M  V30 5727 H 546.479 2.60569 -1.72692 0
M  V30 5728 H 545.699 1.17815 -3.76182 0
M  V30 5729 H 546.987 1.9603 -4.69521 0
M  V30 5730 H 546.385 4.72165 -3.11571 0
M  V30 5731 H 544.942 5.21915 -3.90446 0
M  V30 5732 N 548.375 1.56261 0.205012 0
M  V30 5733 C 549.338 1.92908 1.23771 0
M  V30 5734 C 550.338 0.809208 1.38955 0
M  V30 5735 O 551.528 1.07676 1.36936 0
M  V30 5736 C 548.66 2.19442 2.60879 0
M  V30 5737 H 549.853 2.85287 0.924728 0
M  V30 5738 H 547.406 1.49798 0.446125 0
M  V30 5739 H 548.141 1.29668 2.97248 0
M  V30 5740 H 547.926 3.0104 2.51232 0
M  V30 5741 H 549.416 2.48833 3.35368 0
M  V30 5742 N 549.853 -0.472356 1.50355 0
M  V30 5743 C 551.1 -1.22453 1.61281 0
M  V30 5744 C 551.428 -1.91972 0.31256 0
M  V30 5745 O 550.683 -1.82696 -0.701475 0
M  V30 5746 C 550.982 -2.29257 2.74182 0
M  V30 5747 C 550.648 -1.76999 4.14708 0
M  V30 5748 C 549.31 -1.62467 4.52944 0
M  V30 5749 C 551.662 -1.38215 5.0254 0
M  V30 5750 C 548.99 -1.07574 5.76754 0
M  V30 5751 C 551.342 -0.847638 6.26895 0
M  V30 5752 C 550.006 -0.688946 6.63935 0
M  V30 5753 H 549.276 -0.448087 0.590168 0
M  V30 5754 H 551.923 -0.520744 1.84284 0
M  V30 5755 H 550.228 -3.05538 2.45263 0
M  V30 5756 H 551.925 -2.87212 2.7984 0
M  V30 5757 H 548.515 -1.89276 3.84542 0
M  V30 5758 H 552.699 -1.48276 4.73633 0
M  V30 5759 H 547.955 -0.940237 6.04127 0
M  V30 5760 H 552.129 -0.538455 6.94315 0
M  V30 5761 H 549.756 -0.261435 7.5975 0
M  V30 5762 N 551.331 -1.39911 -0.725443 0
M  V30 5763 C 552.742 -1.33599 -1.30415 0
M  V30 5764 C 553.093 -0.00481792 -1.96199 0
M  V30 5765 O 552.218 0.897275 -1.96921 0
M  V30 5766 C 552.813 -2.41965 -2.37146 0
M  V30 5767 C 551.372 -2.39144 -2.90667 0
M  V30 5768 C 550.519 -2.23355 -1.64341 0
M  V30 5769 H 553.47 -1.4986 -0.522267 0
M  V30 5770 H 553.491 -2.09304 -3.17761 0
M  V30 5771 H 553.003 -3.38837 -1.89238 0
M  V30 5772 H 551.104 -1.4594 -3.4283 0
M  V30 5773 H 551.217 -3.34362 -3.43131 0
M  V30 5774 H 549.581 -1.70696 -1.89037 0
M  V30 5775 H 550.364 -3.2221 -1.18471 0
M  V30 5776 N 552.809 0.956637 -1.25245 0
M  V30 5777 C 553.772 2.03457 -1.05537 0
M  V30 5778 C 554.772 1.60798 -0.00886317 0
M  V30 5779 O 555.962 1.72384 -0.250865 0
M  V30 5780 C 553.094 3.35543 -0.601965 0
M  V30 5781 H 554.287 2.22372 -2.01223 0
M  V30 5782 H 551.84 1.13344 -1.07623 0
M  V30 5783 H 552.575 3.22323 0.357584 0
M  V30 5784 H 552.36 3.67854 -1.35743 0
M  V30 5785 H 553.85 4.14769 -0.485454 0
M  V30 5786 N 554.287 1.06798 1.15896 0
M  V30 5787 C 555.197 0.694564 2.24083 0
M  V30 5788 C 556.213 -0.291687 1.71538 0
M  V30 5789 O 557.389 -0.139723 2.00915 0
M  V30 5790 C 554.454 0.0921014 3.46578 0
M  V30 5791 C 553.515 1.13087 4.14137 0
M  V30 5792 C 552.748 0.557064 5.30785 0
M  V30 5793 O 552.971 -0.628623 5.66925 0
M  V30 5794 O 551.905 1.29924 5.8771 0
M  V30 5795 H 555.731 1.59663 2.58344 0
M  V30 5796 H 553.316 0.840575 1.2351 0
M  V30 5797 H 555.198 -0.241884 4.20705 0
M  V30 5798 H 553.873 -0.78337 3.14078 0
M  V30 5799 H 552.78 1.51712 3.41957 0
M  V30 5800 H 554.113 1.97805 4.50704 0
M  V30 5801 N 555.766 -1.3263 0.851289 0
M  V30 5802 C 556.996 -2.01271 0.466222 0
M  V30 5803 C 557.404 -1.64156 -0.940714 0
M  V30 5804 O 556.747 -0.857109 -1.62479 0
M  V30 5805 C 556.809 -3.55695 0.521672 0
M  V30 5806 C 556.473 -4.16227 1.88691 0
M  V30 5807 C 557.47 -4.34699 2.85189 0
M  V30 5808 C 555.155 -4.52377 2.18313 0
M  V30 5809 C 557.149 -4.88484 4.09465 0
M  V30 5810 C 554.836 -5.05868 3.42843 0
M  V30 5811 C 555.834 -5.23869 4.38235 0
M  V30 5812 O 555.522 -5.76218 5.6056 0
M  V30 5813 H 555.254 -0.651034 0.18202 0
M  V30 5814 H 557.808 -1.7026 1.14894 0
M  V30 5815 H 556.038 -3.86086 -0.217888 0
M  V30 5816 H 557.727 -4.05613 0.152682 0
M  V30 5817 H 558.493 -4.07107 2.63607 0
M  V30 5818 H 554.372 -4.37652 1.44851 0
M  V30 5819 H 557.916 -5.02451 4.83931 0
M  V30 5820 H 553.813 -5.32891 3.64277 0
M  V30 5821 H 554.581 -5.94616 5.62471 0
M  V30 5822 N 557.244 -0.608902 -1.45362 0
M  V30 5823 C 558.174 0.0964526 -2.33301 0
M  V30 5824 C 559.155 0.857444 -1.46908 0
M  V30 5825 O 560.34 0.827735 -1.75676 0
M  V30 5826 C 557.47 1.09354 -3.29635 0
M  V30 5827 C 556.424 0.445676 -4.25673 0
M  V30 5828 C 555.75 1.5511 -5.11708 0
M  V30 5829 C 557.05 -0.633972 -5.18438 0
M  V30 5830 H 558.744 -0.637829 -2.92527 0
M  V30 5831 H 556.29 -0.308178 -1.40664 0
M  V30 5832 H 558.243 1.59556 -3.90025 0
M  V30 5833 H 556.967 1.85843 -2.6857 0
M  V30 5834 H 555.626 -0.0354897 -3.66583 0
M  V30 5835 H 555.274 2.30631 -4.4701 0
M  V30 5836 H 554.974 1.12311 -5.76767 0
M  V30 5837 H 556.498 2.05537 -5.74967 0
M  V30 5838 H 557.912 -0.215974 -5.72893 0
M  V30 5839 H 556.309 -0.983789 -5.91981 0
M  V30 5840 H 557.379 -1.51005 -4.60788 0
M  V30 5841 N 558.722 1.53707 -0.348139 0
M  V30 5842 C 560.133 1.86213 0.134797 0
M  V30 5843 C 560.484 1.26925 1.49614 0
M  V30 5844 O 559.609 0.584573 2.08355 0
M  V30 5845 C 560.204 3.37866 0.251371 0
M  V30 5846 C 558.763 3.70233 0.678543 0
M  V30 5847 C 557.91 2.76683 -0.184925 0
M  V30 5848 H 560.861 1.48204 -0.567571 0
M  V30 5849 H 560.882 3.64908 1.07806 0
M  V30 5850 H 560.394 3.80988 -0.739581 0
M  V30 5851 H 558.495 3.32659 1.67835 0
M  V30 5852 H 558.608 4.76836 0.465251 0
M  V30 5853 H 556.972 2.52374 0.343465 0
M  V30 5854 H 557.755 3.22635 -1.1731 0
M  V30 5855 N 560.2 0.0768682 1.57412 0
M  V30 5856 C 561.132 -0.918248 2.10002 0
M  V30 5857 C 562.145 -1.25808 1.03325 0
M  V30 5858 O 563.334 -1.21438 1.30824 0
M  V30 5859 C 560.434 -2.23263 2.54964 0
M  V30 5860 C 559.607 -2.07088 3.8527 0
M  V30 5861 C 558.666 -3.21876 4.16272 0
M  V30 5862 O 557.692 -2.96643 4.8579 0
M  V30 5863 N 558.894 -4.4712 3.70221 0
M  V30 5864 H 561.659 -0.469209 2.96004 0
M  V30 5865 H 559.22 -0.108725 1.61535 0
M  V30 5866 H 561.212 -2.9897 2.72762 0
M  V30 5867 H 559.782 -2.59649 1.74072 0
M  V30 5868 H 559.002 -1.15818 3.76802 0
M  V30 5869 H 560.29 -1.93537 4.70554 0
M  V30 5870 H 559.688 -4.70506 3.1407 0
M  V30 5871 H 558.245 -5.19837 3.93209 0
M  V30 5872 O 561.717 -1.61375 -0.0636308 0
M  V30 5873 H 562.408 -1.81049 -0.688533 0
M  V30 END ATOM
M  V30 BEGIN BOND
M  V30 END BOND
M  V30 END CTAB
M  END
$$$$
