drugbank_target|Q6ZN16 Mitogen-activated protein kinase kinase kinase 15 (DB12010)
 OpenBabel12092121163D

  0  0  0     0  0            999 V3000
M  V30 BEGIN CTAB
M  V30 COUNTS 20582 20797 0 0 0
M  V30 BEGIN ATOM
M  V30 1 H -0.908 1.98254 -0.117106 0
M  V30 2 N 0 1.576 0 0
M  V30 3 C 0.933 2.03868 1.02534 0
M  V30 4 C 1.911 0.928543 1.3348 0
M  V30 5 O 3.095 1.19667 1.45644 0
M  V30 6 C 0.222 2.43627 2.35294 0
M  V30 7 C -0.732 3.65373 2.2001 0
M  V30 8 S 0.101 5.13292 1.52614 0
M  V30 9 C 1.257 5.56322 2.86805 0
M  V30 10 H 1.49 2.90518 0.631377 0
M  V30 11 H -0.977 1.52953 0.210867 0
M  V30 12 H 0.981 2.67203 3.11629 0
M  V30 13 H -0.358 1.57376 2.7183 0
M  V30 14 H -1.165 3.90944 3.18086 0
M  V30 15 H -1.563 3.418 1.51819 0
M  V30 16 H 0.729 5.58782 3.83104 0
M  V30 17 H 1.672 6.56266 2.65933 0
M  V30 18 H 2.08 4.83886 2.90714 0
M  V30 19 N 1.4781 -0.272755 1.55222 0
M  V30 20 C 2.3881 -1.35918 1.91216 0
M  V30 21 C 3.4041 -1.54026 0.809436 0
M  V30 22 O 4.5801 -1.68148 1.10852 0
M  V30 23 C 1.6451 -2.69834 2.17693 0
M  V30 24 C 0.7061 -2.6047 3.41253 0
M  V30 25 C -0.0609 -3.88 3.66458 0
M  V30 26 O 0.1621 -4.88693 2.94169 0
M  V30 27 O -0.9039 -3.88189 4.59992 0
M  V30 28 H 2.9221 -1.0839 2.83699 0
M  V30 29 H 0.5071 -0.471301 1.41771 0
M  V30 30 H 2.3891 -3.49017 2.36147 0
M  V30 31 H 1.0641 -2.97148 1.28392 0
M  V30 32 H -0.0289 -1.79663 3.28134 0
M  V30 33 H 1.3041 -2.38106 4.30774 0
M  V30 34 N 2.9562 -1.48159 -0.537278 0
M  V30 35 C 4.1812 -1.59707 -1.32319 0
M  V30 36 C 4.6062 -0.254859 -1.86365 0
M  V30 37 O 3.9642 0.772378 -1.64024 0
M  V30 38 C 4.0122 -2.6412 -2.45505 0
M  V30 39 O 3.1162 -2.20774 -3.48328 0
M  V30 40 H 2.4572 -0.535791 -0.392204 0
M  V30 41 H 4.9872 -1.94092 -0.647268 0
M  V30 42 H 4.9972 -2.85166 -2.91795 0
M  V30 43 H 3.6722 -3.61567 -2.05528 0
M  V30 44 H 2.2492 -2.09911 -3.08207 0
M  V30 45 N 4.4343 0.785586 -1.36625 0
M  V30 46 C 5.6823 1.54057 -1.30808 0
M  V30 47 C 6.0033 1.94683 0.111157 0
M  V30 48 O 5.2733 1.65241 1.05224 0
M  V30 49 H 3.8533 0.571354 -0.481211 0
M  V30 50 H 6.5153 0.935821 -1.70963 0
M  V30 51 H 5.6113 2.44637 -1.93801 0
M  V30 52 N 5.9124 1.20967 1.01018 0
M  V30 53 C 7.1604 1.02172 1.74371 0
M  V30 54 C 7.4814 -0.446414 1.89821 0
M  V30 55 O 6.7514 -1.32234 1.44537 0
M  V30 56 H 5.3314 0.375066 0.646014 0
M  V30 57 H 7.9934 1.52187 1.21758 0
M  V30 58 H 7.0894 1.48538 2.74487 0
M  V30 59 N 7.3905 -1.2043 1.01659 0
M  V30 60 C 8.6385 -1.89423 0.704522 0
M  V30 61 C 8.9595 -1.79231 -0.768197 0
M  V30 62 O 8.2295 -1.1947 -1.55254 0
M  V30 63 H 6.8095 -0.701178 0.257602 0
M  V30 64 H 9.4715 -1.4626 1.28818 0
M  V30 65 H 8.5675 -2.96052 0.987916 0
M  V30 66 N 8.8686 -0.792821 -1.36206 0
M  V30 67 C 9.8166 -0.181555 -2.3189 0
M  V30 68 C 10.8106 0.661025 -1.55971 0
M  V30 69 O 12.0166 0.555728 -1.71206 0
M  V30 70 H 8.3916 -0.0399382 -0.750939 0
M  V30 71 H 10.3626 -1.00394 -2.81005 0
M  V30 72 C 9.1116 0.666444 -3.41253 0
M  V30 73 H 8.4346 0.0274489 -3.99791 0
M  V30 74 H 9.8746 1.06076 -4.10517 0
M  V30 75 C 8.3336 1.82614 -2.83114 0
M  V30 76 O 8.8636 2.9229 -2.75553 0
M  V30 77 N 7.0696 1.63333 -2.40356 0
M  V30 78 H 6.6166 0.741217 -2.46706 0
M  V30 79 H 6.5746 2.41087 -2.01803 0
M  V30 80 N 10.3467 1.47872 -0.545128 0
M  V30 81 C 11.3097 2.28337 0.198717 0
M  V30 82 C 12.3097 1.36255 0.853888 0
M  V30 83 O 13.4997 1.59003 0.711606 0
M  V30 84 C 10.6317 3.15585 1.28915 0
M  V30 85 H 11.8247 2.95567 -0.507941 0
M  V30 86 H 9.3777 1.53362 -0.301616 0
M  V30 87 H 10.1127 2.53019 2.02859 0
M  V30 88 H 9.8977 3.83337 0.824309 0
M  V30 89 H 11.3877 3.76243 1.81194 0
M  V30 90 N 11.8248 0.280983 1.55075 0
M  V30 91 C 13.2358 -0.215629 1.85451 0
M  V30 92 C 13.5868 -1.54991 1.203 0
M  V30 93 O 12.7118 -2.10699 0.493435 0
M  V30 94 C 13.3068 -0.398026 3.36454 0
M  V30 95 C 11.8658 -0.838866 3.66933 0
M  V30 96 C 11.0128 0.064458 2.77225 0
M  V30 97 H 13.9638 0.502601 1.50531 0
M  V30 98 H 13.9848 -1.23569 3.59876 0
M  V30 99 H 13.4968 0.573241 3.83843 0
M  V30 100 H 11.5978 -1.8214 3.25048 0
M  V30 101 H 11.7108 -0.672123 4.74362 0
M  V30 102 H 10.0748 -0.452863 2.50642 0
M  V30 103 H 10.8578 1.03172 3.2743 0
M  V30 104 N 13.3029 -1.57598 0.00835791 0
M  V30 105 C 14.2659 -2.07884 -0.965242 0
M  V30 106 C 15.2659 -0.989825 -1.26725 0
M  V30 107 O 16.4559 -1.25218 -1.21104 0
M  V30 108 C 13.5879 -2.52731 -2.28779 0
M  V30 109 H 14.7809 -2.95178 -0.530112 0
M  V30 110 H 12.3339 -1.54458 -0.239283 0
M  V30 111 H 13.0689 -1.68705 -2.76964 0
M  V30 112 H 12.8539 -3.32272 -2.08177 0
M  V30 113 H 14.3439 -2.91933 -2.98605 0
M  V30 114 N 14.781 0.264519 -1.55364 0
M  V30 115 C 16.029 0.993021 -1.76021 0
M  V30 116 C 16.35 1.86511 -0.569099 0
M  V30 117 O 15.62 1.91438 0.415735 0
M  V30 118 H 14.2 0.369639 -0.649135 0
M  V30 119 H 16.862 0.286707 -1.9278 0
M  V30 120 H 15.958 1.62502 -2.66457 0
M  V30 121 N 16.2591 1.48442 0.529413 0
M  V30 122 C 17.2221 1.62524 1.61612 0
M  V30 123 C 18.2221 0.498509 1.52877 0
M  V30 124 O 19.4121 0.76431 1.56537 0
M  V30 125 C 16.5441 1.59597 3.01233 0
M  V30 126 H 17.7371 2.59423 1.50465 0
M  V30 127 H 15.2901 1.37047 0.751514 0
M  V30 128 H 16.0251 0.641781 3.17886 0
M  V30 129 H 15.8101 2.41397 3.08982 0
M  V30 130 H 17.3001 1.72646 3.80241 0
M  V30 131 N 17.7372 -0.778329 1.37039 0
M  V30 132 C 18.6672 -1.90546 1.34962 0
M  V30 133 C 19.6482 -1.68681 0.219274 0
M  V30 134 O 20.8332 -1.89634 0.418624 0
M  V30 135 C 17.9632 -3.27734 1.14925 0
M  V30 136 C 16.9172 -3.64147 2.24902 0
M  V30 137 C 16.2432 -4.99806 1.89996 0
M  V30 138 C 17.5432 -3.71579 3.67051 0
M  V30 139 H 19.2372 -1.92541 2.29277 0
M  V30 140 H 16.7832 -0.924948 1.10366 0
M  V30 141 H 18.7362 -4.06215 1.12104 0
M  V30 142 H 17.4602 -3.26154 0.170631 0
M  V30 143 H 16.1192 -2.8797 2.26868 0
M  V30 144 H 15.7672 -4.94759 0.906796 0
M  V30 145 H 15.4672 -5.25139 2.63634 0
M  V30 146 H 16.9912 -5.80694 1.88749 0
M  V30 147 H 18.4052 -4.40227 3.67251 0
M  V30 148 H 16.8022 -4.08405 4.39688 0
M  V30 149 H 17.8722 -2.72404 4.01154 0
M  V30 150 N 19.2153 -1.21501 -1.00376 0
M  V30 151 C 20.4633 -1.03095 -1.73827 0
M  V30 152 C 20.7843 0.436341 -1.90055 0
M  V30 153 O 20.0543 1.31466 -1.45236 0
M  V30 154 H 18.6343 -0.378487 -0.644016 0
M  V30 155 H 21.2963 -1.52831 -1.20949 0
M  V30 156 H 20.3923 -1.49991 -2.73695 0
M  V30 157 N 20.6934 1.19889 -1.02296 0
M  V30 158 C 21.6564 2.21116 -0.603351 0
M  V30 159 C 22.6564 1.5738 0.329884 0
M  V30 160 O 23.8464 1.73802 0.117702 0
M  V30 161 C 20.9784 3.40696 0.117992 0
M  V30 162 H 22.1714 2.59754 -1.49893 0
M  V30 163 H 19.7244 1.33463 -0.813468 0
M  V30 164 H 20.4594 3.07569 1.0282 0
M  V30 165 H 20.2444 3.88188 -0.552511 0
M  V30 166 H 21.7344 4.15692 0.398696 0
M  V30 167 N 22.1715 0.800033 1.35784 0
M  V30 168 C 23.1345 0.211565 2.28221 0
M  V30 169 C 24.1345 -0.59728 1.49296 0
M  V30 170 O 25.3245 -0.416721 1.69142 0
M  V30 171 C 22.4565 -0.705846 3.33513 0
M  V30 172 H 23.6495 1.02677 2.81776 0
M  V30 173 H 21.2025 0.570211 1.45528 0
M  V30 174 H 21.9375 -1.54498 2.85133 0
M  V30 175 H 21.7225 -0.127655 3.91892 0
M  V30 176 H 23.2125 -1.11211 4.02519 0
M  V30 177 N 23.6496 -1.47581 0.552962 0
M  V30 178 C 24.8746 -2.07378 0.0300593 0
M  V30 179 C 25.2996 -1.40355 -1.25229 0
M  V30 180 O 24.6576 -0.477099 -1.7491 0
M  V30 181 C 24.7056 -3.60274 -0.153231 0
M  V30 182 O 23.8096 -3.94041 -1.21678 0
M  V30 183 H 23.1506 -0.662158 0.0494182 0
M  V30 184 H 25.6806 -1.89662 0.767434 0
M  V30 185 H 25.6906 -4.0633 -0.368761 0
M  V30 186 H 24.3656 -4.08455 0.783397 0
M  V30 187 H 22.9426 -3.59735 -0.982079 0
M  V30 188 N 25.1277 -0.289203 -1.54924 0
M  V30 189 C 26.0377 0.601863 -2.26748 0
M  V30 190 C 27.0537 1.15834 -1.2984 0
M  V30 191 O 28.2297 1.18564 -1.62802 0
M  V30 192 C 25.2947 1.76299 -2.98529 0
M  V30 193 C 24.3557 1.24178 -4.10948 0
M  V30 194 C 23.5887 2.34757 -4.79296 0
M  V30 195 O 23.8117 3.54411 -4.46933 0
M  V30 196 O 22.7457 2.02115 -5.66951 0
M  V30 197 H 26.5717 0.0195879 -3.03694 0
M  V30 198 H 24.1567 -0.0560868 -1.49295 0
M  V30 199 H 26.0387 2.43973 -3.43592 0
M  V30 200 H 24.7137 2.33209 -2.24488 0
M  V30 201 H 23.6207 0.531104 -3.70311 0
M  V30 202 H 24.9537 0.718252 -4.86931 0
M  V30 203 N 26.6058 1.57591 -0.0167156 0
M  V30 204 C 27.8308 1.9598 0.67872 0
M  V30 205 C 28.2558 0.892546 1.65575 0
M  V30 206 O 27.6138 -0.147772 1.80697 0
M  V30 207 C 27.6618 3.33468 1.37227 0
M  V30 208 O 26.7658 3.28954 2.48722 0
M  V30 209 H 26.1068 0.639339 0.17928 0
M  V30 210 H 28.6368 2.04463 -0.0748802 0
M  V30 211 H 28.6468 3.69417 1.7319 0
M  V30 212 H 27.3218 4.10694 0.656007 0
M  V30 213 H 25.8988 3.04705 2.14963 0
M  V30 214 N 28.0839 -0.256276 1.55502 0
M  V30 215 C 29.4949 -0.826068 1.67431 0
M  V30 216 C 29.8459 -1.86396 0.612446 0
M  V30 217 O 28.9709 -2.15031 -0.243025 0
M  V30 218 C 29.5659 -1.50512 3.03532 0
M  V30 219 C 28.1249 -2.02273 3.17431 0
M  V30 220 C 27.2719 -0.870548 2.63281 0
M  V30 221 H 30.2229 -0.0322728 1.58667 0
M  V30 222 H 30.2439 -2.37279 2.97454 0
M  V30 223 H 29.7559 -0.749484 3.80794 0
M  V30 224 H 27.8569 -2.80746 2.44974 0
M  V30 225 H 27.9699 -2.22655 4.24219 0
M  V30 226 H 26.3339 -1.26851 2.20864 0
M  V30 227 H 27.1169 -0.128149 3.43061 0
M  V30 228 N 29.562 -1.4872 -0.521534 0
M  V30 229 C 30.494 -1.59968 -1.64143 0
M  V30 230 C 31.507 -0.483463 -1.55456 0
M  V30 231 O 32.696 -0.75467 -1.61762 0
M  V30 232 C 29.796 -1.52127 -3.02838 0
M  V30 233 C 28.969 -2.78932 -3.36921 0
M  V30 234 C 28.028 -2.64428 -4.54933 0
M  V30 235 O 27.054 -3.38331 -4.57735 0
M  V30 236 N 28.256 -1.74606 -5.53618 0
M  V30 237 H 31.021 -2.56548 -1.54929 0
M  V30 238 H 28.582 -1.45551 -0.708988 0
M  V30 239 H 30.574 -1.40106 -3.79674 0
M  V30 240 H 29.144 -0.634868 -3.06085 0
M  V30 241 H 28.364 -3.05455 -2.4918 0
M  V30 242 H 29.652 -3.63041 -3.56481 0
M  V30 243 H 29.05 -1.13782 -5.54139 0
M  V30 244 H 27.607 -1.6852 -6.29638 0
M  V30 245 N 31.0401 0.771051 -1.3745 0
M  V30 246 C 32.2801 1.54264 -1.34096 0
M  V30 247 C 32.6441 1.91858 0.0737639 0
M  V30 248 O 33.8451 2.67797 0.23203 0
M  V30 249 C 32.1161 2.77326 -2.25445 0
M  V30 250 S 33.6751 3.67383 -2.39948 0
M  V30 251 H 30.4931 0.528122 -0.476034 0
M  V30 252 H 33.0951 0.906633 -1.73206 0
M  V30 253 H 31.7991 2.47788 -3.27153 0
M  V30 254 H 31.3301 3.45886 -1.87421 0
M  V30 255 H 33.3451 4.69334 -1.61059 0
M  V30 256 N 32.5182 1.22032 0.997298 0
M  V30 257 C 33.9292 1.0397 1.55071 0
M  V30 258 C 34.2802 -0.398192 1.92117 0
M  V30 259 O 33.4052 -1.28254 1.74298 0
M  V30 260 C 34.0002 1.88109 2.81781 0
M  V30 261 C 32.5592 1.74357 3.33581 0
M  V30 262 C 31.7062 1.84846 2.06706 0
M  V30 263 H 34.6572 1.35941 0.818883 0
M  V30 264 H 34.6782 1.39589 3.53971 0
M  V30 265 H 34.1902 2.92754 2.54787 0
M  V30 266 H 32.2912 0.72427 3.65493 0
M  V30 267 H 32.4042 2.56772 4.04481 0
M  V30 268 H 30.7682 1.28238 2.20062 0
M  V30 269 H 31.5512 2.91014 1.82114 0
M  V30 270 N 33.9963 -1.19345 1.0293 0
M  V30 271 C 35.4073 -1.70725 0.755633 0
M  V30 272 C 35.7583 -1.82326 -0.724676 0
M  V30 273 O 34.8833 -1.49471 -1.56484 0
M  V30 274 C 35.4783 -3.10084 1.36503 0
M  V30 275 C 34.0373 -3.58723 1.13994 0
M  V30 276 C 33.1843 -2.35577 1.46283 0
M  V30 277 H 36.1353 -1.0418 1.19718 0
M  V30 278 H 36.1563 -3.72787 0.762217 0
M  V30 279 H 35.6683 -3.01609 2.44241 0
M  V30 280 H 33.7693 -3.72512 0.0807901 0
M  V30 281 H 33.8823 -4.42816 1.82894 0
M  V30 282 H 32.2463 -2.38935 0.88217 0
M  V30 283 H 33.0293 -2.29731 2.55105 0
M  V30 284 N 35.4744 -0.807222 -1.35358 0
M  V30 285 C 36.8854 -0.44876 -1.81226 0
M  V30 286 C 37.2364 1.02929 -1.67033 0
M  V30 287 O 36.3614 1.79991 -1.20133 0
M  V30 288 C 36.9564 -0.807774 -3.2903 0
M  V30 289 C 35.5154 -0.501901 -3.73039 0
M  V30 290 C 34.6624 -1.03304 -2.57339 0
M  V30 291 H 37.6134 -0.998808 -1.23327 0
M  V30 292 H 37.6344 -0.10554 -3.80354 0
M  V30 293 H 37.1464 -1.88357 -3.39328 0
M  V30 294 H 35.2474 0.565128 -3.68289 0
M  V30 295 H 35.3604 -1.03497 -4.67787 0
M  V30 296 H 33.7244 -0.455339 -2.50597 0
M  V30 297 H 34.5074 -2.11496 -2.70415 0
M  V30 298 N 36.9525 1.47285 -0.560781 0
M  V30 299 C 38.3635 1.86258 -0.128343 0
M  V30 300 C 38.7145 1.46699 1.30284 0
M  V30 301 O 37.8395 0.871698 1.98067 0
M  V30 302 C 38.4345 3.38044 -0.22614 0
M  V30 303 C 36.9935 3.76096 0.151283 0
M  V30 304 C 36.1405 2.71335 -0.572084 0
M  V30 305 H 39.0915 1.38752 -0.770297 0
M  V30 306 H 39.1125 3.76441 0.554322 0
M  V30 307 H 38.6245 3.66806 -1.26788 0
M  V30 308 H 36.7255 3.52951 1.19399 0
M  V30 309 H 36.8385 4.78641 -0.209765 0
M  V30 310 H 35.2025 2.54696 -0.0147653 0
M  V30 311 H 35.9855 3.02938 -1.61504 0
M  V30 312 N 38.4306 0.297415 1.54768 0
M  V30 313 C 39.6786 -0.312295 1.99673 0
M  V30 314 C 39.9996 -1.54686 1.18732 0
M  V30 315 O 39.2696 -1.93854 0.282382 0
M  V30 316 H 37.8496 -0.118381 0.73756 0
M  V30 317 H 40.5116 0.407915 1.90583 0
M  V30 318 H 39.6076 -0.586813 3.06534 0
M  V30 319 N 39.9087 -1.5758 0.0250728 0
M  V30 320 C 41.1547 -1.91917 -0.655413 0
M  V30 321 C 41.4877 -0.901433 -1.72011 0
M  V30 322 O 40.7627 0.0764069 -1.9435 0
M  V30 323 C 41.0457 -3.36751 -1.27558 0
M  V30 324 C 40.8987 -4.49258 -0.220719 0
M  V30 325 C 42.2177 -3.81469 -2.19475 0
M  V30 326 H 39.3367 -0.697925 -0.23679 0
M  V30 327 H 41.9787 -1.89825 0.0815036 0
M  V30 328 H 40.1287 -3.38664 -1.90365 0
M  V30 329 H 41.8007 -4.59478 0.409601 0
M  V30 330 H 40.0437 -4.31415 0.454264 0
M  V30 331 H 40.7147 -5.47618 -0.694175 0
M  V30 332 H 43.1907 -3.81266 -1.66659 0
M  V30 333 H 42.0667 -4.83512 -2.59822 0
M  V30 334 H 42.3277 -3.16744 -3.08424 0
M  V30 335 N 41.3868 0.248026 -1.55636 0
M  V30 336 C 42.2968 1.32859 -1.93354 0
M  V30 337 C 43.3128 1.52719 -0.833838 0
M  V30 338 O 44.4888 1.66363 -1.13513 0
M  V30 339 C 41.5538 2.66337 -2.21958 0
M  V30 340 C 40.6148 2.55008 -3.45354 0
M  V30 341 C 39.8478 3.82121 -3.72584 0
M  V30 342 O 40.0708 4.83951 -3.01907 0
M  V30 343 O 39.0048 3.80822 -4.6611 0
M  V30 344 H 42.8308 1.03862 -2.85388 0
M  V30 345 H 40.4158 0.448686 -1.42503 0
M  V30 346 H 42.2978 3.45216 -2.4167 0
M  V30 347 H 40.9728 2.95068 -1.33103 0
M  V30 348 H 39.8798 1.7442 -3.30951 0
M  V30 349 H 41.2128 2.31222 -4.34508 0
M  V30 350 N 42.8649 1.48995 0.513639 0
M  V30 351 C 44.1129 1.57531 1.26604 0
M  V30 352 C 44.4339 0.258236 1.93283 0
M  V30 353 O 43.7039 -0.721502 1.8213 0
M  V30 354 H 42.2839 0.580387 0.470276 0
M  V30 355 H 44.9459 1.85552 0.596373 0
M  V30 356 H 44.0419 2.36486 2.03669 0
M  V30 357 N 44.343 -0.763751 1.37857 0
M  V30 358 C 45.306 -1.85889 1.34081 0
M  V30 359 C 46.306 -1.58949 0.243277 0
M  V30 360 O 47.496 -1.66882 0.499589 0
M  V30 361 C 44.628 -3.23176 1.08489 0
M  V30 362 H 45.821 -1.90648 2.31502 0
M  V30 363 H 43.374 -0.964367 1.23003 0
M  V30 364 H 44.109 -3.24091 0.116318 0
M  V30 365 H 43.894 -3.44124 1.8794 0
M  V30 366 H 45.384 -4.03254 1.08517 0
M  V30 367 N 45.8211 -1.22559 -0.990812 0
M  V30 368 C 46.7841 -0.998863 -2.0629 0
M  V30 369 C 47.7841 0.0354834 -1.60761 0
M  V30 370 O 48.9741 -0.203231 -1.7301 0
M  V30 371 C 46.1061 -0.509203 -3.37076 0
M  V30 372 H 47.2991 -1.95014 -2.27837 0
M  V30 373 H 44.8521 -1.04456 -1.16269 0
M  V30 374 H 45.5871 0.446335 -3.21214 0
M  V30 375 H 45.3721 -1.25547 -3.71457 0
M  V30 376 H 46.8621 -0.370888 -4.1595 0
M  V30 377 N 47.2992 1.18797 -1.03562 0
M  V30 378 C 48.5472 1.88278 -0.734569 0
M  V30 379 C 48.8682 1.8043 0.739586 0
M  V30 380 O 48.1382 1.21925 1.53333 0
M  V30 381 H 46.7182 0.696991 -0.268725 0
M  V30 382 H 49.3802 1.44192 -1.31129 0
M  V30 383 H 48.4762 2.94443 -1.03489 0
M  V30 384 N 48.7773 0.814389 1.34928 0
M  V30 385 C 50.1883 0.458364 1.80986 0
M  V30 386 C 50.5393 -1.02042 1.67577 0
M  V30 387 O 49.6643 -1.79352 1.21086 0
M  V30 388 C 50.2593 0.825212 3.28597 0
M  V30 389 C 48.8183 0.521677 3.72767 0
M  V30 390 C 47.9653 1.04668 2.56788 0
M  V30 391 H 50.9163 1.00533 1.22795 0
M  V30 392 H 50.9373 0.12571 3.80292 0
M  V30 393 H 50.4493 1.90154 3.38324 0
M  V30 394 H 48.5503 -0.545589 3.68584 0
M  V30 395 H 48.6633 1.05977 4.67232 0
M  V30 396 H 47.0273 0.468622 2.50352 0
M  V30 397 H 47.8103 2.12927 2.6929 0
M  V30 398 N 50.2554 -1.46986 0.568584 0
M  V30 399 C 51.2184 -2.28624 -0.162366 0
M  V30 400 C 52.2184 -1.37596 -0.832103 0
M  V30 401 O 53.4084 -1.60115 -0.68622 0
M  V30 402 C 50.5404 -3.17596 -1.23878 0
M  V30 403 H 51.7334 -2.94722 0.554899 0
M  V30 404 H 49.2864 -1.52863 0.325976 0
M  V30 405 H 50.0214 -2.56214 -1.98808 0
M  V30 406 H 49.8064 -3.846 -0.763219 0
M  V30 407 H 51.2964 -3.79078 -1.75185 0
M  V30 408 N 51.7335 -0.305618 -1.54608 0
M  V30 409 C 52.6435 0.57778 -2.27374 0
M  V30 410 C 53.6595 1.14451 -1.31061 0
M  V30 411 O 54.8355 1.16831 -1.6405 0
M  V30 412 C 51.9005 1.73123 -3.00382 0
M  V30 413 C 50.9615 1.19812 -4.12242 0
M  V30 414 C 50.1945 2.2966 -4.81759 0
M  V30 415 O 50.4175 3.49651 -4.50666 0
M  V30 416 O 49.3515 1.96091 -5.69062 0
M  V30 417 H 53.1775 -0.012624 -3.03697 0
M  V30 418 H 50.7625 -0.0719184 -1.49227 0
M  V30 419 H 52.6445 2.40315 -3.4616 0
M  V30 420 H 51.3195 2.30815 -2.26949 0
M  V30 421 H 50.2265 0.491798 -3.70853 0
M  V30 422 H 51.5595 0.666566 -4.87666 0
M  V30 423 N 53.2116 1.57565 -0.0334293 0
M  V30 424 C 54.6226 1.79746 0.504798 0
M  V30 425 C 54.9736 0.944091 1.71992 0
M  V30 426 O 54.0986 0.155694 2.15839 0
M  V30 427 C 54.6936 3.25997 0.922567 0
M  V30 428 C 53.2526 3.49159 1.40588 0
M  V30 429 C 52.3996 2.74785 0.372633 0
M  V30 430 H 55.3506 1.56565 -0.259436 0
M  V30 431 H 55.3716 3.35945 1.78666 0
M  V30 432 H 54.8836 3.88081 0.0379825 0
M  V30 433 H 52.9846 2.92332 2.31025 0
M  V30 434 H 53.0976 4.57873 1.41028 0
M  V30 435 H 51.4616 2.40391 0.841672 0
M  V30 436 H 52.2446 3.39587 -0.503559 0
M  V30 437 N 54.6897 -0.239769 1.55765 0
M  V30 438 C 55.9667 -0.990056 1.68693 0
M  V30 439 C 56.3467 -2.03107 0.5754 0
M  V30 440 O 55.6947 -2.24604 -0.42017 0
M  V30 441 C 55.9047 -1.61696 3.09282 0
M  V30 442 C 57.2527 -2.11613 3.6811 0
M  V30 443 O 58.2767 -1.71624 3.12127 0
M  V30 444 O 57.1357 -2.85057 4.66267 0
M  V30 445 H 54.2297 -0.461299 0.686391 0
M  V30 446 H 56.7757 -0.232991 1.68093 0
M  V30 447 H 55.5477 -0.864357 3.81634 0
M  V30 448 H 55.1707 -2.44005 3.13923 0
M  V30 449 N 56.1678 -1.49265 -0.50573 0
M  V30 450 C 57.4158 -1.582 -1.25766 0
M  V30 451 C 57.7368 -0.268482 -1.93143 0
M  V30 452 O 57.0068 0.711833 -1.8251 0
M  V30 453 H 55.5868 -0.582873 -0.467191 0
M  V30 454 H 58.2488 -1.85865 -0.586525 0
M  V30 455 H 57.3448 -2.37563 -2.02412 0
M  V30 456 N 57.6459 0.756429 -1.3826 0
M  V30 457 C 58.6089 1.85176 -1.35065 0
M  V30 458 C 59.6089 1.58818 -0.251703 0
M  V30 459 O 60.7989 1.66615 -0.508433 0
M  V30 460 C 57.9309 3.22596 -1.10201 0
M  V30 461 H 59.1239 1.89417 -2.3251 0
M  V30 462 H 56.6769 0.95783 -1.23512 0
M  V30 463 H 57.4119 3.24025 -0.133504 0
M  V30 464 H 57.1969 3.43122 -1.89762 0
M  V30 465 H 58.6869 4.02673 -1.10654 0
M  V30 466 N 59.124 1.23083 0.984299 0
M  V30 467 C 60.087 1.00979 2.05757 0
M  V30 468 C 61.087 -0.0269573 1.60777 0
M  V30 469 O 62.277 0.212403 1.729 0
M  V30 470 C 59.409 0.527072 3.36801 0
M  V30 471 H 60.602 1.9622 2.26799 0
M  V30 472 H 58.155 1.05072 1.15714 0
M  V30 473 H 58.89 -0.429294 3.21446 0
M  V30 474 H 58.675 1.27515 3.70786 0
M  V30 475 H 60.165 0.392942 4.15747 0
M  V30 476 N 60.6021 -1.18246 1.0419 0
M  V30 477 C 61.5121 -2.25574 0.644476 0
M  V30 478 C 62.5281 -1.70845 -0.329826 0
M  V30 479 O 63.7041 -2.00554 -0.184443 0
M  V30 480 C 60.7691 -3.46697 0.014877 0
M  V30 481 C 59.8301 -4.16554 1.03834 0
M  V30 482 C 59.0631 -5.31894 0.438692 0
M  V30 483 O 59.2861 -5.65385 -0.754752 0
M  V30 484 O 58.2201 -5.90459 1.168 0
M  V30 485 H 62.0461 -2.61836 1.53869 0
M  V30 486 H 59.6311 -1.25352 0.812854 0
M  V30 487 H 61.5131 -4.20062 -0.335538 0
M  V30 488 H 60.1881 -3.12255 -0.853138 0
M  V30 489 H 59.0951 -3.45251 1.44057 0
M  V30 490 H 60.4281 -4.54998 1.87716 0
M  V30 491 N 62.0802 -0.821533 -1.34494 0
M  V30 492 C 63.3282 -0.408139 -1.97936 0
M  V30 493 C 63.6492 1.03193 -1.65457 0
M  V30 494 O 62.9192 1.71622 -0.944595 0
M  V30 495 H 61.4992 -0.147928 -0.732206 0
M  V30 496 H 64.1612 -1.05067 -1.64155 0
M  V30 497 H 63.2572 -0.52601 -3.07635 0
M  V30 498 N 63.5583 1.46682 -0.576371 0
M  V30 499 C 64.5213 2.28707 0.150239 0
M  V30 500 C 65.5213 1.38035 0.824794 0
M  V30 501 O 66.7113 1.60476 0.677719 0
M  V30 502 C 63.8433 3.18248 1.22192 0
M  V30 503 H 65.0363 2.94423 -0.570521 0
M  V30 504 H 62.5893 1.52688 -0.334078 0
M  V30 505 H 63.3243 2.57265 1.97447 0
M  V30 506 H 63.1093 3.85 0.742812 0
M  V30 507 H 64.5993 3.80001 1.73172 0
M  V30 508 N 65.0364 0.313813 1.54444 0
M  V30 509 C 65.9994 -0.54379 2.22656 0
M  V30 510 C 66.9994 -1.05124 1.21678 0
M  V30 511 O 68.1894 -0.945225 1.46325 0
M  V30 512 C 65.3214 -1.75427 2.92298 0
M  V30 513 H 66.5144 0.0523599 2.99854 0
M  V30 514 H 64.0674 0.0647834 1.56166 0
M  V30 515 H 64.8024 -2.38991 2.19211 0
M  V30 516 H 64.5874 -1.39791 3.66334 0
M  V30 517 H 66.0774 -2.36325 3.44297 0
M  V30 518 N 66.5145 -1.57545 0.0417849 0
M  V30 519 C 67.7625 -1.91937 -0.632829 0
M  V30 520 C 68.0835 -0.919978 -1.71934 0
M  V30 521 O 67.3535 0.0366064 -1.95866 0
M  V30 522 H 65.9335 -0.708493 -0.236742 0
M  V30 523 H 68.5955 -1.9468 0.0925745 0
M  V30 524 H 67.6915 -2.92912 -1.07746 0
M  V30 525 N 67.9926 0.231505 -1.5589 0
M  V30 526 C 69.2406 0.955461 -1.78088 0
M  V30 527 C 69.5616 1.85262 -0.608533 0
M  V30 528 O 68.8316 1.92277 0.375035 0
M  V30 529 H 67.4116 0.355787 -0.656829 0
M  V30 530 H 70.0736 0.245751 -1.93344 0
M  V30 531 H 69.1696 1.56814 -2.69844 0
M  V30 532 N 69.4707 1.49531 0.497807 0
M  V30 533 C 70.6957 1.63159 1.28039 0
M  V30 534 C 71.1207 0.30418 1.85624 0
M  V30 535 O 70.4787 -0.728618 1.66015 0
M  V30 536 C 70.5267 2.70537 2.38416 0
M  V30 537 O 69.6307 2.29931 3.42353 0
M  V30 538 H 68.9717 0.546001 0.377861 0
M  V30 539 H 71.5017 1.9574 0.59558 0
M  V30 540 H 71.5117 2.92802 2.84132 0
M  V30 541 H 70.1867 3.6689 1.95869 0
M  V30 542 H 68.7637 2.18009 3.02533 0
M  V30 543 N 70.9488 -0.749086 1.3866 0
M  V30 544 C 72.1968 -1.50535 1.34847 0
M  V30 545 C 72.5178 -1.94909 -0.0595016 0
M  V30 546 O 71.7878 -1.67973 -1.00806 0
M  V30 547 H 70.3678 -0.558395 0.49619 0
M  V30 548 H 73.0298 -0.890165 1.73384 0
M  V30 549 H 72.1258 -2.39413 2.00219 0
M  V30 550 N 72.4269 -1.23603 -0.977757 0
M  V30 551 C 73.3369 -1.03632 -2.1047 0
M  V30 552 C 74.3529 0.0199435 -1.73989 0
M  V30 553 O 75.5289 -0.176076 -2.00629 0
M  V30 554 C 72.5939 -0.63276 -3.40877 0
M  V30 555 C 71.6549 -1.76437 -3.91367 0
M  V30 556 C 70.8879 -1.37997 -5.15551 0
M  V30 557 O 71.1109 -0.265357 -5.69782 0
M  V30 558 O 70.0449 -2.20201 -5.60174 0
M  V30 559 H 73.8709 -1.98086 -2.30208 0
M  V30 560 H 71.4559 -1.02332 -1.08851 0
M  V30 561 H 73.3379 -0.418761 -4.19314 0
M  V30 562 H 72.0129 0.282754 -3.22463 0
M  V30 563 H 70.9199 -2.03304 -3.14036 0
M  V30 564 H 72.2529 -2.6583 -4.14241 0
M  V30 565 N 73.905 1.17692 -1.04816 0
M  V30 566 C 75.153 1.87488 -0.754497 0
M  V30 567 C 75.474 1.81205 0.720407 0
M  V30 568 O 74.744 1.23544 1.52032 0
M  V30 569 H 73.324 0.694101 -0.276102 0
M  V30 570 H 75.986 1.42793 -1.32651 0
M  V30 571 H 75.082 2.93328 -1.06606 0
M  V30 572 N 75.3831 0.828654 1.34056 0
M  V30 573 C 76.2931 0.256725 2.33191 0
M  V30 574 C 77.3091 -0.611898 1.62886 0
M  V30 575 O 78.4851 -0.51844 1.94613 0
M  V30 576 C 75.5501 -0.567238 3.42028 0
M  V30 577 C 74.6111 0.324458 4.28072 0
M  V30 578 C 73.8441 -0.460274 5.31712 0
M  V30 579 O 74.0671 -1.693 5.44696 0
M  V30 580 O 73.0011 0.160391 6.01686 0
M  V30 581 H 76.8271 1.07739 2.83947 0
M  V30 582 H 74.4121 0.59093 1.37217 0
M  V30 583 H 76.2941 -1.03582 4.08471 0
M  V30 584 H 74.9691 -1.36513 2.93506 0
M  V30 585 H 73.8761 0.840659 3.64532 0
M  V30 586 H 75.2091 1.08685 4.8005 0
M  V30 587 N 76.8612 -1.46375 0.584142 0
M  V30 588 C 78.0862 -2.07268 0.0740405 0
M  V30 589 C 78.5112 -1.42979 -1.22223 0
M  V30 590 O 77.8692 -0.514092 -1.73859 0
M  V30 591 C 77.9172 -3.60518 -0.0767769 0
M  V30 592 O 77.0212 -3.96533 -1.13292 0
M  V30 593 H 76.3622 -0.660961 0.0634524 0
M  V30 594 H 78.8922 -1.87991 0.807492 0
M  V30 595 H 78.9022 -4.07021 -0.282489 0
M  V30 596 H 77.5772 -4.06702 0.86986 0
M  V30 597 H 76.1542 -3.61738 -0.905553 0
M  V30 598 N 78.3393 -0.321999 -1.54275 0
M  V30 599 C 79.5873 0.280489 -2.00144 0
M  V30 600 C 79.9083 1.52777 -1.21178 0
M  V30 601 O 79.1783 1.9338 -0.313187 0
M  V30 602 H 77.7583 0.106632 -0.73935 0
M  V30 603 H 80.4203 -0.438184 -1.8991 0
M  V30 604 H 79.5163 0.537972 -3.07428 0
M  V30 605 N 79.8174 1.5752 -0.0501392 0
M  V30 606 C 81.0654 1.9227 0.622642 0
M  V30 607 C 81.3864 0.929083 1.71444 0
M  V30 608 O 80.6564 -0.0262186 1.95882 0
M  V30 609 H 79.2364 0.709739 0.232981 0
M  V30 610 H 81.8984 1.94628 -0.102898 0
M  V30 611 H 80.9944 2.93479 1.06191 0
M  V30 612 N 81.2955 -0.223234 1.56011 0
M  V30 613 C 82.5435 -0.946003 1.78592 0
M  V30 614 C 82.8645 -1.84936 0.618349 0
M  V30 615 O 82.1345 -1.92473 -0.364833 0
M  V30 616 H 80.7145 -0.352298 0.658707 0
M  V30 617 H 83.3765 -0.235494 1.93472 0
M  V30 618 H 82.4725 -1.55381 2.70672 0
M  V30 619 N 82.7736 -1.49793 -0.48987 0
M  V30 620 C 84.1846 -1.52914 -1.07118 0
M  V30 621 C 84.5356 -0.321738 -1.93544 0
M  V30 622 O 83.6606 0.567338 -2.08831 0
M  V30 623 C 84.2556 -2.771 -1.94938 0
M  V30 624 C 82.8146 -2.82963 -2.48212 0
M  V30 625 C 81.9616 -2.46972 -1.26096 0
M  V30 626 H 84.9126 -1.56329 -0.273289 0
M  V30 627 H 84.9336 -2.57892 -2.79771 0
M  V30 628 H 84.4456 -3.64959 -1.32009 0
M  V30 629 H 82.5466 -1.99411 -3.14748 0
M  V30 630 H 82.6596 -3.85406 -2.84603 0
M  V30 631 H 81.0236 -1.98994 -1.58976 0
M  V30 632 H 81.8066 -3.37118 -0.648581 0
M  V30 633 N 84.2517 0.741722 -1.39055 0
M  V30 634 C 85.6677 1.04638 -1.20512 0
M  V30 635 C 85.8677 2.01405 -0.0620218 0
M  V30 636 O 84.9237 2.45547 0.588457 0
M  V30 637 C 86.2367 1.6151 -2.53643 0
M  V30 638 C 87.7847 1.73623 -2.6043 0
M  V30 639 C 88.2597 2.33906 -3.93767 0
M  V30 640 N 89.7507 2.41323 -3.9537 0
M  V30 641 C 90.4857 2.88888 -4.95309 0
M  V30 642 N 89.9817 3.36401 -6.05645 0
M  V30 643 N 91.7747 2.88037 -4.82692 0
M  V30 644 H 83.9257 0.0998155 -2.12165 0
M  V30 645 H 86.1887 0.106907 -0.941953 0
M  V30 646 H 85.8947 0.978739 -3.37807 0
M  V30 647 H 85.7687 2.60411 -2.72885 0
M  V30 648 H 88.1557 2.36384 -1.76655 0
M  V30 649 H 88.2367 0.733945 -2.45045 0
M  V30 650 H 87.8807 1.71776 -4.7797 0
M  V30 651 H 87.8107 3.34799 -4.06469 0
M  V30 652 H 90.3017 2.07734 -3.15682 0
M  V30 653 H 90.6147 3.71186 -6.77821 0
M  V30 654 H 88.9597 3.34427 -6.09248 0
M  V30 655 H 92.1507 2.50237 -3.95599 0
M  V30 656 H 92.3237 3.24792 -5.60726 0
M  V30 657 N 85.7298 1.2412 0.971189 0
M  V30 658 C 87.1458 1.00584 1.23916 0
M  V30 659 C 87.3458 -0.287481 1.99439 0
M  V30 660 O 86.4018 -1.00454 2.31658 0
M  V30 661 C 87.7148 2.21864 2.0297 0
M  V30 662 C 89.2628 2.26452 2.16076 0
M  V30 663 C 89.7378 3.47343 2.98524 0
M  V30 664 N 91.2288 3.47639 3.06107 0
M  V30 665 C 91.9638 4.37837 3.70251 0
M  V30 666 N 91.4598 5.38286 4.36142 0
M  V30 667 N 93.2528 4.25558 3.67228 0
M  V30 668 H 85.4038 2.07236 0.465499 0
M  V30 669 H 87.6668 0.909236 0.268315 0
M  V30 670 H 87.3728 3.15771 1.54861 0
M  V30 671 H 87.2468 2.23698 3.03709 0
M  V30 672 H 89.6338 1.33078 2.6339 0
M  V30 673 H 89.7148 2.28645 1.14696 0
M  V30 674 H 89.3588 4.41029 2.51905 0
M  V30 675 H 89.2888 3.42393 4.00093 0
M  V30 676 H 91.7798 2.74966 2.59233 0
M  V30 677 H 92.0928 6.03352 4.82894 0
M  V30 678 H 90.4378 5.42176 4.34822 0
M  V30 679 H 93.6288 3.46322 3.14927 0
M  V30 680 H 93.8018 4.96054 4.16935 0
M  V30 681 N 87.2079 -1.17134 1.05439 0
M  V30 682 C 88.1709 -2.19439 0.661764 0
M  V30 683 C 89.1709 -1.58199 -0.288042 0
M  V30 684 O 90.3609 -1.74053 -0.0715803 0
M  V30 685 C 87.4929 -3.40889 -0.0276209 0
M  V30 686 H 88.6859 -2.55688 1.56728 0
M  V30 687 H 86.2389 -1.31259 0.848567 0
M  V30 688 H 86.9739 -3.10187 -0.94629 0
M  V30 689 H 86.7589 -3.86586 0.655238 0
M  V30 690 H 88.2489 -4.16603 -0.288342 0
M  V30 691 N 88.686 -0.835752 -1.33615 0
M  V30 692 C 89.616 -0.281739 -2.31794 0
M  V30 693 C 90.597 0.608833 -1.58831 0
M  V30 694 O 91.782 0.533035 -1.86741 0
M  V30 695 C 88.912 0.546612 -3.42971 0
M  V30 696 C 87.866 -0.247904 -4.27281 0
M  V30 697 C 87.192 0.704001 -5.30045 0
M  V30 698 C 88.492 -1.46324 -5.01385 0
M  V30 699 H 90.186 -1.10206 -2.78379 0
M  V30 700 H 87.732 -0.531388 -1.33837 0
M  V30 701 H 89.685 0.944467 -4.1068 0
M  V30 702 H 88.409 1.40011 -2.95067 0
M  V30 703 H 87.068 -0.627281 -3.61194 0
M  V30 704 H 86.716 1.55381 -4.78399 0
M  V30 705 H 86.416 0.176524 -5.87335 0
M  V30 706 H 87.94 1.09944 -6.0062 0
M  V30 707 H 89.354 -1.13871 -5.61877 0
M  V30 708 H 87.751 -1.92728 -5.6831 0
M  V30 709 H 88.821 -2.23467 -4.30338 0
M  V30 710 N 90.1641 1.46063 -0.591896 0
M  V30 711 C 91.5801 1.57561 -0.254288 0
M  V30 712 C 91.7801 1.58565 1.24336 0
M  V30 713 O 90.8361 1.50753 2.02558 0
M  V30 714 C 92.1491 2.86549 -0.911611 0
M  V30 715 C 93.6971 3.00197 -0.886059 0
M  V30 716 C 94.1721 4.31933 -1.5231 0
M  V30 717 N 95.6631 4.38654 -1.48786 0
M  V30 718 C 96.3981 5.39222 -1.95006 0
M  V30 719 N 95.8941 6.46414 -2.49241 0
M  V30 720 N 97.6871 5.3048 -1.85868 0
M  V30 721 H 89.8381 1.43655 -1.56451 0
M  V30 722 H 92.1011 0.68583 -0.654478 0
M  V30 723 H 91.8071 2.91651 -1.96551 0
M  V30 724 H 91.6811 3.74794 -0.425368 0
M  V30 725 H 94.0681 2.9467 0.159246 0
M  V30 726 H 94.1491 2.13403 -1.41041 0
M  V30 727 H 93.7931 4.38217 -2.56765 0
M  V30 728 H 93.7231 5.17516 -0.973891 0
M  V30 729 H 96.2141 3.61793 -1.09151 0
M  V30 730 H 96.5271 7.19376 -2.82344 0
M  V30 731 H 94.8721 6.47208 -2.53272 0
M  V30 732 H 98.0631 4.45643 -1.43248 0
M  V30 733 H 98.2361 6.08711 -2.22204 0
M  V30 734 N 91.6422 0.330177 1.54103 0
M  V30 735 C 92.6052 -0.520144 2.2322 0
M  V30 736 C 93.6052 -1.03828 1.22786 0
M  V30 737 O 94.7952 -0.929652 1.4732 0
M  V30 738 C 91.9272 -1.72317 2.94142 0
M  V30 739 H 93.1202 0.0841605 2.99782 0
M  V30 740 H 90.6732 0.0813433 1.56088 0
M  V30 741 H 91.4082 -2.36653 2.21734 0
M  V30 742 H 91.1932 -1.35898 3.67796 0
M  V30 743 H 92.6832 -2.3266 3.46784 0
M  V30 744 N 93.1203 -1.57491 0.0584922 0
M  V30 745 C 94.3663 -1.93264 -0.614558 0
M  V30 746 C 94.6993 -0.937717 -1.7006 0
M  V30 747 O 93.9743 0.0351652 -1.94468 0
M  V30 748 C 94.2573 -3.3938 -1.20386 0
M  V30 749 C 94.1103 -4.49625 -0.125375 0
M  V30 750 C 95.4293 -3.86039 -2.11334 0
M  V30 751 H 92.5483 -0.702791 -0.221933 0
M  V30 752 H 95.1903 -1.8961 0.12175 0
M  V30 753 H 93.3403 -3.42626 -1.83139 0
M  V30 754 H 95.0123 -4.58506 0.506971 0
M  V30 755 H 93.2553 -4.30354 0.545672 0
M  V30 756 H 93.9263 -5.48967 -0.577861 0
M  V30 757 H 96.4023 -3.84716 -1.58534 0
M  V30 758 H 95.2783 -4.88914 -2.49507 0
M  V30 759 H 95.5393 -3.23215 -3.01636 0
M  V30 760 N 94.5984 0.214957 -1.56127 0
M  V30 761 C 95.8284 0.953707 -1.8327 0
M  V30 762 C 96.2364 1.78181 -0.636262 0
M  V30 763 O 95.5794 1.79191 0.404516 0
M  V30 764 C 95.6414 1.91516 -3.0424 0
M  V30 765 C 95.3054 1.27094 -4.38972 0
M  V30 766 C 96.3024 0.657575 -5.15725 0
M  V30 767 C 93.9874 1.28073 -4.85698 0
M  V30 768 C 95.9814 0.0625968 -6.37369 0
M  V30 769 C 93.6684 0.681914 -6.07283 0
M  V30 770 C 94.6664 0.0739046 -6.8296 0
M  V30 771 O 94.3544 -0.515582 -8.02245 0
M  V30 772 H 94.0864 0.284764 -0.613095 0
M  V30 773 H 96.6404 0.233283 -2.04071 0
M  V30 774 H 94.8704 2.67475 -2.79274 0
M  V30 775 H 96.5594 2.52001 -3.18198 0
M  V30 776 H 97.3254 0.642288 -4.80728 0
M  V30 777 H 93.2044 1.74337 -4.26764 0
M  V30 778 H 96.7484 -0.412593 -6.96379 0
M  V30 779 H 92.6454 0.694636 -6.41752 0
M  V30 780 H 93.4134 -0.410544 -8.1747 0
M  V30 781 N 96.0765 1.50051 0.48192 0
M  V30 782 C 97.3225 1.60736 1.2366 0
M  V30 783 C 97.6555 0.301786 1.91841 0
M  V30 784 O 96.9305 -0.696025 1.8162 0
M  V30 785 C 97.2135 2.78009 2.28874 0
M  V30 786 C 97.0665 4.18416 1.65069 0
M  V30 787 C 98.3855 2.90867 3.30279 0
M  V30 788 H 95.5045 0.585031 0.448228 0
M  V30 789 H 98.1465 1.82402 0.531946 0
M  V30 790 H 96.2965 2.59667 2.88973 0
M  V30 791 H 97.9685 4.48322 1.0865 0
M  V30 792 H 96.2115 4.23177 0.954148 0
M  V30 793 H 96.8825 4.96381 2.41474 0
M  V30 794 H 99.3585 3.07623 2.80191 0
M  V30 795 H 98.2345 3.74566 4.01238 0
M  V30 796 H 98.4955 2.01021 3.93755 0
M  V30 797 N 97.5546 -0.734337 1.39446 0
M  V30 798 C 98.9706 -1.03997 1.21065 0
M  V30 799 C 99.1706 -2.01369 0.0727019 0
M  V30 800 O 98.2266 -2.45856 -0.575426 0
M  V30 801 C 99.5396 -1.60163 2.54496 0
M  V30 802 C 101.088 -1.7224 2.61347 0
M  V30 803 C 101.563 -2.31814 3.95002 0
M  V30 804 N 103.054 -2.39223 3.96644 0
M  V30 805 C 103.789 -2.86258 4.96834 0
M  V30 806 N 103.285 -3.33184 6.07421 0
M  V30 807 N 105.078 -2.85473 4.84213 0
M  V30 808 H 97.2286 -0.0885624 2.12215 0
M  V30 809 H 99.4916 -0.10191 0.942506 0
M  V30 810 H 99.1976 -0.960811 3.38321 0
M  V30 811 H 99.0716 -2.5896 2.74262 0
M  V30 812 H 101.459 -2.35443 1.77906 0
M  V30 813 H 101.54 -0.720939 2.4543 0
M  V30 814 H 101.184 -1.69238 4.78875 0
M  V30 815 H 101.114 -3.32638 4.08239 0
M  V30 816 H 103.605 -2.06057 3.16779 0
M  V30 817 H 103.918 -3.67586 6.7978 0
M  V30 818 H 102.263 -3.31191 6.11013 0
M  V30 819 H 105.454 -2.48136 3.96921 0
M  V30 820 H 105.627 -3.21814 5.62441 0
M  V30 821 N 99.0327 -1.24633 -0.964593 0
M  V30 822 C 100.258 -1.11596 -1.74818 0
M  V30 823 C 100.683 0.32723 -1.85232 0
M  V30 824 O 100.041 1.23695 -1.32549 0
M  V30 825 C 100.089 -1.76397 -3.1451 0
M  V30 826 O 99.1927 -1.03685 -3.99153 0
M  V30 827 H 98.5337 -0.390196 -0.537255 0
M  V30 828 H 101.064 -1.65002 -1.20977 0
M  V30 829 H 101.074 -1.8228 -3.65018 0
M  V30 830 H 99.7487 -2.81401 -3.06246 0
M  V30 831 H 98.3257 -1.05611 -3.57632 0
M  V30 832 N 100.511 1.16574 -1.06058 0
M  V30 833 C 101.421 2.2452 -0.680282 0
M  V30 834 C 102.437 1.71348 0.302604 0
M  V30 835 O 103.613 2.00822 0.152513 0
M  V30 836 C 100.678 3.46629 -0.0700315 0
M  V30 837 C 99.7388 4.14849 -1.10448 0
M  V30 838 C 98.9718 5.31129 -0.523256 0
M  V30 839 O 99.1948 5.66514 0.664709 0
M  V30 840 O 98.1288 5.88526 -1.26179 0
M  V30 841 H 101.955 2.59355 -1.58015 0
M  V30 842 H 99.5398 1.24043 -0.832694 0
M  V30 843 H 101.422 4.20543 0.268667 0
M  V30 844 H 100.097 3.13573 0.803353 0
M  V30 845 H 99.0038 3.42916 -1.49532 0
M  V30 846 H 100.337 4.51954 -1.94931 0
M  V30 847 N 101.989 0.842826 1.3317 0
M  V30 848 C 103.214 0.453129 2.02389 0
M  V30 849 C 103.639 -0.939105 1.6298 0
M  V30 850 O 102.997 -1.61472 0.8244 0
M  V30 851 C 103.045 0.586094 3.55805 0
M  V30 852 O 102.149 -0.386029 4.10589 0
M  V30 853 H 101.49 0.183664 0.638094 0
M  V30 854 H 104.02 1.13875 1.69981 0
M  V30 855 H 104.03 0.469209 4.05293 0
M  V30 856 H 102.705 1.6014 3.83833 0
M  V30 857 H 101.282 -0.226371 3.72212 0
M  V30 858 N 103.467 -1.45747 0.599634 0
M  V30 859 C 104.692 -2.07178 0.0960198 0
M  V30 860 C 105.117 -1.44268 -1.207 0
M  V30 861 O 104.475 -0.532503 -1.73303 0
M  V30 862 C 104.523 -3.60579 -0.0385348 0
M  V30 863 O 103.627 -3.97713 -1.0908 0
M  V30 864 H 102.968 -0.660251 0.0704593 0
M  V30 865 H 105.498 -1.87124 0.827385 0
M  V30 866 H 105.508 -4.07298 -0.239304 0
M  V30 867 H 104.183 -4.05756 0.912947 0
M  V30 868 H 102.76 -3.62678 -0.867135 0
M  V30 869 N 104.945 -0.338344 -1.53925 0
M  V30 870 C 105.877 0.555117 -2.22376 0
M  V30 871 C 106.89 1.06812 -1.22862 0
M  V30 872 O 108.079 0.979163 -1.49247 0
M  V30 873 C 105.179 1.77609 -2.88631 0
M  V30 874 C 104.352 1.39927 -4.14414 0
M  V30 875 C 103.411 2.47936 -4.64127 0
M  V30 876 O 102.437 2.11461 -5.28463 0
M  V30 877 N 103.639 3.79107 -4.39612 0
M  V30 878 H 106.404 -0.0310778 -2.99684 0
M  V30 879 H 103.965 -0.162226 -1.61085 0
M  V30 880 H 105.957 2.49287 -3.18807 0
M  V30 881 H 104.527 2.26978 -2.14941 0
M  V30 882 H 103.747 0.513481 -3.90841 0
M  V30 883 H 105.035 1.12341 -4.96243 0
M  V30 884 H 104.433 4.11531 -3.88148 0
M  V30 885 H 102.99 4.4697 -4.74406 0
M  V30 886 N 106.423 1.57458 -0.0668435 0
M  V30 887 C 107.671 1.92919 0.602214 0
M  V30 888 C 107.992 0.947215 1.70449 0
M  V30 889 O 107.262 -0.00544117 1.95899 0
M  V30 890 H 105.842 0.71217 0.22544 0
M  V30 891 H 108.504 1.94508 -0.123535 0
M  V30 892 H 107.6 2.94589 1.03073 0
M  V30 893 N 107.901 -0.206675 1.56239 0
M  V30 894 C 109.149 -0.927007 1.79586 0
M  V30 895 C 109.47 -1.8427 0.637929 0
M  V30 896 O 108.74 -1.92849 -0.344398 0
M  V30 897 H 107.32 -0.345292 0.662407 0
M  V30 898 H 109.982 -0.21496 1.93711 0
M  V30 899 H 109.078 -1.52501 2.72305 0
M  V30 900 N 109.379 -1.50304 -0.473955 0
M  V30 901 C 110.342 -1.6841 -1.55469 0
M  V30 902 C 111.342 -0.554905 -1.50922 0
M  V30 903 O 112.532 -0.821882 -1.53593 0
M  V30 904 C 109.664 -1.70667 -2.95102 0
M  V30 905 H 110.857 -2.64828 -1.40733 0
M  V30 906 H 108.41 -1.39742 -0.700132 0
M  V30 907 H 109.145 -0.75932 -3.15285 0
M  V30 908 H 108.93 -2.52698 -2.9981 0
M  V30 909 H 110.42 -1.8664 -3.73571 0
M  V30 910 N 110.857 0.726932 -1.39834 0
M  V30 911 C 111.82 1.82269 -1.38962 0
M  V30 912 C 112.82 1.58248 -0.285334 0
M  V30 913 O 114.01 1.65499 -0.54366 0
M  V30 914 C 111.142 3.20186 -1.17019 0
M  V30 915 H 112.335 1.84443 -2.36476 0
M  V30 916 H 109.888 0.931416 -1.25516 0
M  V30 917 H 110.623 3.23669 -0.202204 0
M  V30 918 H 110.408 3.3902 -1.96998 0
M  V30 919 H 111.898 4.00235 -1.1917 0
M  V30 920 N 112.336 1.25143 0.95797 0
M  V30 921 C 113.584 1.09476 1.69881 0
M  V30 922 C 113.905 -0.365502 1.91544 0
M  V30 923 O 113.175 -1.25985 1.50015 0
M  V30 924 H 111.755 0.402128 0.629525 0
M  V30 925 H 114.417 1.57214 1.15194 0
M  V30 926 H 113.513 1.60046 2.6794 0
M  V30 927 N 113.814 -1.1601 1.06675 0
M  V30 928 C 115.062 -1.86264 0.784229 0
M  V30 929 C 115.383 -1.82328 -0.691488 0
M  V30 930 O 114.653 -1.25947 -1.50047 0
M  V30 931 H 113.233 -0.689621 0.28711 0
M  V30 932 H 115.895 -1.40664 1.34906 0
M  V30 933 H 114.991 -2.91595 1.11259 0
M  V30 934 N 115.292 -0.849877 -1.32721 0
M  V30 935 C 116.703 -0.506188 -1.79707 0
M  V30 936 C 117.054 0.975627 -1.70223 0
M  V30 937 O 116.179 1.76078 -1.25799 0
M  V30 938 C 116.774 -0.912044 -3.26293 0
M  V30 939 C 115.333 -0.620326 -3.71253 0
M  V30 940 C 114.48 -1.11439 -2.53922 0
M  V30 941 H 117.431 -1.03754 -1.20087 0
M  V30 942 H 117.452 -0.226493 -3.79825 0
M  V30 943 H 116.964 -1.99057 -3.33164 0
M  V30 944 H 115.065 0.447674 -3.69901 0
M  V30 945 H 115.178 -1.18327 -4.64258 0
M  V30 946 H 113.542 -0.534834 -2.49021 0
M  V30 947 H 114.325 -2.19992 -2.6355 0
M  V30 948 N 116.77 1.45427 -0.607355 0
M  V30 949 C 117.68 2.34325 0.113463 0
M  V30 950 C 118.696 1.51226 0.860617 0
M  V30 951 O 119.872 1.84029 0.818255 0
M  V30 952 C 116.937 3.28839 1.09844 0
M  V30 953 C 115.998 4.27844 0.353271 0
M  V30 954 C 115.231 5.17842 1.29133 0
M  V30 955 O 115.454 5.11264 2.52913 0
M  V30 956 O 114.388 5.96713 0.788523 0
M  V30 957 H 118.214 2.97364 -0.617094 0
M  V30 958 H 115.799 1.44807 -0.367619 0
M  V30 959 H 117.681 3.8708 1.66575 0
M  V30 960 H 116.356 2.68365 1.81003 0
M  V30 961 H 115.263 3.7322 -0.256494 0
M  V30 962 H 116.596 4.91173 -0.317822 0
M  V30 963 N 118.248 0.346503 1.53744 0
M  V30 964 C 119.211 -0.496439 2.23759 0
M  V30 965 C 120.211 -1.0252 1.2388 0
M  V30 966 O 121.401 -0.913974 1.48297 0
M  V30 967 C 118.533 -1.69187 2.95954 0
M  V30 968 H 119.726 0.115952 2.99676 0
M  V30 969 H 117.279 0.0978939 1.55993 0
M  V30 970 H 118.014 -2.34288 2.24231 0
M  V30 971 H 117.799 -1.31989 3.69217 0
M  V30 972 H 119.289 -2.28969 3.49232 0
M  V30 973 N 119.726 -1.57421 0.075193 0
M  V30 974 C 120.974 -1.93236 -0.591974 0
M  V30 975 C 121.295 -0.956241 -1.69944 0
M  V30 976 O 120.565 -0.00494792 -1.95899 0
M  V30 977 H 119.145 -0.713355 -0.22166 0
M  V30 978 H 121.807 -1.9444 0.133848 0
M  V30 979 H 120.903 -2.95131 -1.01509 0
M  V30 980 N 121.204 0.198386 -1.56346 0
M  V30 981 C 122.167 1.22952 -1.93431 0
M  V30 982 C 123.167 1.38611 -0.815092 0
M  V30 983 O 124.357 1.36479 -1.08255 0
M  V30 984 C 121.489 2.59946 -2.20546 0
M  V30 985 H 122.682 0.912626 -2.85677 0
M  V30 986 H 120.235 0.43977 -1.49986 0
M  V30 987 H 120.97 2.96696 -1.30927 0
M  V30 988 H 120.755 2.49953 -3.02102 0
M  V30 989 H 122.245 3.3431 -2.50253 0
M  V30 990 N 122.682 1.50554 0.465978 0
M  V30 991 C 124.098 1.38093 0.800154 0
M  V30 992 C 124.298 0.440988 1.96615 0
M  V30 993 O 123.354 -0.114499 2.5224 0
M  V30 994 C 124.667 2.79565 1.10742 0
M  V30 995 C 126.215 2.88516 1.21357 0
M  V30 996 C 126.69 4.30833 1.55393 0
M  V30 997 N 128.181 4.33807 1.62375 0
M  V30 998 C 128.916 5.40927 1.90225 0
M  V30 999 N 128.412 6.58247 2.16062 0
M  V30 1000 N 130.205 5.28376 1.9177 0
M  V30 1001 H 122.356 2.10237 -0.302366 0
M  V30 1002 H 124.619 0.945203 -0.0727746 0
M  V30 1003 H 124.325 3.50208 0.323661 0
M  V30 1004 H 124.199 3.17125 2.04234 0
M  V30 1005 H 126.586 2.1809 1.98799 0
M  V30 1006 H 126.667 2.54492 0.258321 0
M  V30 1007 H 126.311 5.01799 0.784889 0
M  V30 1008 H 126.241 4.62347 2.52076 0
M  V30 1009 H 128.732 3.49212 1.44427 0
M  V30 1010 H 129.045 7.3569 2.36601 0
M  V30 1011 H 127.39 6.61413 2.13444 0
M  V30 1012 H 130.581 4.35715 1.71085 0
M  V30 1013 H 130.754 6.11944 2.13139 0
M  V30 1014 N 124.16 -0.719506 1.40217 0
M  V30 1015 C 125.092 -1.84428 1.36084 0
M  V30 1016 C 126.105 -1.60597 0.266913 0
M  V30 1017 O 127.294 -1.70544 0.526983 0
M  V30 1018 C 124.394 -3.20757 1.094 0
M  V30 1019 C 123.567 -3.71817 2.30372 0
M  V30 1020 C 122.626 -4.86748 1.99907 0
M  V30 1021 O 121.652 -4.99603 2.72737 0
M  V30 1022 N 122.854 -5.7226 0.974635 0
M  V30 1023 H 125.619 -1.88473 2.33019 0
M  V30 1024 H 123.18 -0.900885 1.3452 0
M  V30 1025 H 125.172 -3.95235 0.870116 0
M  V30 1026 H 123.742 -3.11884 0.211452 0
M  V30 1027 H 122.962 -2.88514 2.68614 0
M  V30 1028 H 124.25 -4.02666 3.11026 0
M  V30 1029 H 123.648 -5.6448 0.371368 0
M  V30 1030 H 122.205 -6.46739 0.810656 0
M  V30 1031 N 125.638 -1.25649 -0.95132 0
M  V30 1032 C 126.878 -1.11802 -1.71113 0
M  V30 1033 C 127.242 0.334758 -1.89059 0
M  V30 1034 O 128.443 0.595121 -2.62129 0
M  V30 1035 C 126.714 -1.85512 -3.05483 0
M  V30 1036 S 128.273 -1.87597 -3.96677 0
M  V30 1037 H 125.091 -0.399552 -0.588115 0
M  V30 1038 H 127.693 -1.59222 -1.1344 0
M  V30 1039 H 126.397 -2.90299 -2.90094 0
M  V30 1040 H 125.928 -1.38493 -3.68216 0
M  V30 1041 H 127.943 -0.955389 -4.86916 0
M  V30 1042 N 127.117 1.15442 -1.07289 0
M  V30 1043 C 128.047 2.22312 -0.714107 0
M  V30 1044 C 129.028 1.67467 0.298155 0
M  V30 1045 O 130.213 1.93445 0.171048 0
M  V30 1046 C 127.343 3.47124 -0.110448 0
M  V30 1047 C 126.297 4.14926 -1.04979 0
M  V30 1048 C 125.623 5.33807 -0.308924 0
M  V30 1049 C 126.923 4.64762 -2.38314 0
M  V30 1050 H 128.617 2.5258 -1.6076 0
M  V30 1051 H 126.163 1.21404 -0.77441 0
M  V30 1052 H 128.116 4.21124 0.152482 0
M  V30 1053 H 126.84 3.16187 0.81812 0
M  V30 1054 H 125.499 3.42866 -1.29764 0
M  V30 1055 H 125.147 4.99126 0.623084 0
M  V30 1056 H 124.847 5.80113 -0.935036 0
M  V30 1057 H 126.371 6.10576 -0.0537771 0
M  V30 1058 H 127.785 5.30292 -2.1786 0
M  V30 1059 H 126.182 5.21728 -2.96514 0
M  V30 1060 H 127.252 3.80434 -3.00663 0
M  V30 1061 N 128.595 0.856903 1.32268 0
M  V30 1062 C 129.525 0.31858 2.31316 0
M  V30 1063 C 130.506 -0.583487 1.59779 0
M  V30 1064 O 131.691 -0.503259 1.87566 0
M  V30 1065 C 128.821 -0.491979 3.43798 0
M  V30 1066 C 127.775 0.315849 4.26833 0
M  V30 1067 C 127.101 -0.619586 5.31098 0
M  V30 1068 C 128.401 1.54282 4.98993 0
M  V30 1069 H 130.095 1.14621 2.76591 0
M  V30 1070 H 127.641 0.552613 1.32974 0
M  V30 1071 H 129.594 -0.879012 4.1213 0
M  V30 1072 H 128.318 -1.35299 2.97257 0
M  V30 1073 H 126.977 0.684664 3.6015 0
M  V30 1074 H 126.625 -1.47751 4.8081 0
M  V30 1075 H 126.325 -0.0830621 5.87541 0
M  V30 1076 H 127.849 -1.00375 6.02293 0
M  V30 1077 H 129.263 1.22796 5.59995 0
M  V30 1078 H 127.66 2.01745 5.65172 0
M  V30 1079 H 128.73 2.30285 4.26728 0
M  V30 1080 N 130.073 -1.45103 0.615059 0
M  V30 1081 C 131.489 -1.57137 0.279322 0
M  V30 1082 C 131.689 -1.60523 -1.21797 0
M  V30 1083 O 130.745 -1.53956 -2.00134 0
M  V30 1084 C 132.058 -2.85062 0.957083 0
M  V30 1085 C 133.606 -2.98749 0.933706 0
M  V30 1086 C 134.081 -4.29455 1.59162 0
M  V30 1087 N 135.572 -4.36231 1.55746 0
M  V30 1088 C 136.307 -5.36051 2.0356 0
M  V30 1089 N 135.803 -6.42367 2.59494 0
M  V30 1090 N 137.596 -5.27456 1.94284 0
M  V30 1091 H 129.747 -1.41148 1.58717 0
M  V30 1092 H 132.01 -0.675331 0.665306 0
M  V30 1093 H 131.716 -2.88488 2.01166 0
M  V30 1094 H 131.59 -3.7407 0.48494 0
M  V30 1095 H 133.977 -2.94886 -0.112347 0
M  V30 1096 H 134.058 -2.11132 1.44419 0
M  V30 1097 H 133.702 -4.34077 2.63704 0
M  V30 1098 H 133.632 -5.15901 1.0561 0
M  V30 1099 H 136.123 -3.60011 1.14893 0
M  V30 1100 H 136.436 -7.14793 2.93752 0
M  V30 1101 H 134.781 -6.43097 2.63537 0
M  V30 1102 H 137.972 -4.43308 1.5032 0
M  V30 1103 H 138.145 -6.05099 2.3186 0
M  V30 1104 N 131.551 -0.354651 -1.53558 0
M  V30 1105 C 132.514 0.484566 -2.24019 0
M  V30 1106 C 133.514 1.01861 -1.24422 0
M  V30 1107 O 134.704 0.906097 -1.4878 0
M  V30 1108 C 131.836 1.67615 -2.96847 0
M  V30 1109 H 133.029 -0.131843 -2.9961 0
M  V30 1110 H 130.582 -0.106165 -1.55939 0
M  V30 1111 H 131.317 2.33095 -2.25471 0
M  V30 1112 H 131.102 1.30029 -3.69912 0
M  V30 1113 H 132.592 2.27114 -3.50441 0
M  V30 1114 N 133.029 1.57378 -0.0835403 0
M  V30 1115 C 134.269 1.95808 0.586381 0
M  V30 1116 C 134.633 0.963706 1.66062 0
M  V30 1117 O 135.834 1.23608 2.38693 0
M  V30 1118 C 134.105 3.38808 1.13771 0
M  V30 1119 S 135.664 3.99225 1.82112 0
M  V30 1120 H 132.482 0.684675 0.191679 0
M  V30 1121 H 135.084 1.94843 -0.160194 0
M  V30 1122 H 133.788 4.08954 0.344197 0
M  V30 1123 H 133.319 3.43344 1.92038 0
M  V30 1124 H 135.334 3.87087 3.10449 0
M  V30 1125 N 134.507 -0.190092 1.56449 0
M  V30 1126 C 135.417 -1.25591 1.98152 0
M  V30 1127 C 136.433 -1.49519 0.889944 0
M  V30 1128 O 137.609 -1.62036 1.19609 0
M  V30 1129 C 134.674 -2.57916 2.3169 0
M  V30 1130 C 133.735 -2.42015 3.5458 0
M  V30 1131 C 132.968 -3.6803 3.8651 0
M  V30 1132 O 133.191 -4.72413 3.1966 0
M  V30 1133 O 132.125 -3.6326 4.79923 0
M  V30 1134 H 135.951 -0.931988 2.89046 0
M  V30 1135 H 133.536 -0.395488 1.4407 0
M  V30 1136 H 135.418 -3.36008 2.54316 0
M  V30 1137 H 134.093 -2.89925 1.43963 0
M  V30 1138 H 133 -1.62017 3.37196 0
M  V30 1139 H 134.333 -2.14937 4.4279 0
M  V30 1140 N 135.985 -1.50799 -0.457987 0
M  V30 1141 C 136.948 -1.7005 -1.53674 0
M  V30 1142 C 137.948 -0.570881 -1.50325 0
M  V30 1143 O 139.138 -0.838126 -1.52712 0
M  V30 1144 C 136.27 -1.73788 -2.93276 0
M  V30 1145 H 137.463 -2.66306 -1.37917 0
M  V30 1146 H 135.016 -1.40477 -0.685271 0
M  V30 1147 H 135.751 -0.792717 -3.14462 0
M  V30 1148 H 135.536 -2.55864 -2.97113 0
M  V30 1149 H 137.026 -1.90591 -3.71571 0
M  V30 1150 N 137.463 0.71206 -1.40597 0
M  V30 1151 C 138.373 1.8562 -1.43466 0
M  V30 1152 C 139.389 1.70902 -0.326902 0
M  V30 1153 O 140.565 1.93105 -0.572043 0
M  V30 1154 C 137.63 3.21451 -1.29884 0
M  V30 1155 C 136.691 3.48398 -2.50833 0
M  V30 1156 C 135.924 4.77749 -2.3789 0
M  V30 1157 O 136.147 5.53089 -1.39459 0
M  V30 1158 O 135.081 5.05111 -3.27333 0
M  V30 1159 H 138.907 1.86155 -2.39958 0
M  V30 1160 H 136.492 0.86295 -1.21957 0
M  V30 1161 H 138.374 4.02579 -1.24531 0
M  V30 1162 H 137.049 3.21636 -0.364997 0
M  V30 1163 H 135.956 2.67265 -2.61763 0
M  V30 1164 H 137.289 3.53014 -3.4299 0
M  V30 1165 N 138.941 1.26152 0.944643 0
M  V30 1166 C 140.189 1.11271 1.6871 0
M  V30 1167 C 140.51 -0.345166 1.91921 0
M  V30 1168 O 139.78 -1.24387 1.51343 0
M  V30 1169 H 138.36 0.408783 0.625224 0
M  V30 1170 H 141.022 1.58427 1.1352 0
M  V30 1171 H 140.118 1.62879 2.66227 0
M  V30 1172 N 140.419 -1.14872 1.07899 0
M  V30 1173 C 141.382 -2.17986 0.708161 0
M  V30 1174 C 142.382 -1.58775 -0.25442 0
M  V30 1175 O 143.572 -1.74166 -0.034645 0
M  V30 1176 C 140.704 -3.40871 0.0446929 0
M  V30 1177 H 141.897 -2.52306 1.62116 0
M  V30 1178 H 139.45 -1.2943 0.876218 0
M  V30 1179 H 140.185 -3.12124 -0.880281 0
M  V30 1180 H 139.97 -3.8511 0.737091 0
M  V30 1181 H 141.46 -4.17121 -0.19991 0
M  V30 1182 N 141.898 -0.863906 -1.31812 0
M  V30 1183 C 142.848 -0.286898 -2.26188 0
M  V30 1184 C 143.832 0.572577 -1.50367 0
M  V30 1185 O 145.024 0.420447 -1.71934 0
M  V30 1186 C 142.153 0.515849 -3.39402 0
M  V30 1187 C 141.239 -0.356531 -4.22599 0
M  V30 1188 N 141.63 -1.44716 -4.84656 0
M  V30 1189 C 139.928 -0.147898 -4.45755 0
M  V30 1190 C 140.629 -1.98462 -5.46798 0
M  V30 1191 N 139.605 -1.28247 -5.28255 0
M  V30 1192 H 143.407 -1.12055 -2.717 0
M  V30 1193 H 140.921 -0.711012 -1.46008 0
M  V30 1194 H 142.918 0.945701 -4.06032 0
M  V30 1195 H 141.578 1.34718 -2.95434 0
M  V30 1196 H 142.589 -1.83008 -4.84488 0
M  V30 1197 H 139.266 0.647973 -4.12441 0
M  V30 1198 H 140.656 -2.89932 -6.06126 0
M  V30 1199 N 143.376 1.44774 -0.622745 0
M  V30 1200 C 144.306 2.33382 0.0741861 0
M  V30 1201 C 145.287 1.47719 0.843387 0
M  V30 1202 O 146.472 1.76458 0.810934 0
M  V30 1203 C 143.602 3.30663 1.06204 0
M  V30 1204 C 142.556 4.26079 0.405037 0
M  V30 1205 C 141.882 5.13165 1.5022 0
M  V30 1206 C 143.182 5.1781 -0.683414 0
M  V30 1207 H 144.876 2.91905 -0.665713 0
M  V30 1208 H 142.422 1.40363 -0.321587 0
M  V30 1209 H 144.375 3.9153 1.55827 0
M  V30 1210 H 143.099 2.70331 1.83272 0
M  V30 1211 H 141.758 3.66532 -0.0704683 0
M  V30 1212 H 141.406 4.49191 2.26355 0
M  V30 1213 H 141.106 5.77812 1.06803 0
M  V30 1214 H 142.63 5.76902 2.00041 0
M  V30 1215 H 144.044 5.72661 -0.270631 0
M  V30 1216 H 142.441 5.91015 -1.04023 0
M  V30 1217 H 143.511 4.59326 -1.55395 0
M  V30 1218 N 144.854 0.36279 1.53368 0
M  V30 1219 C 146.082 -0.228613 2.05633 0
M  V30 1220 C 146.497 -1.42676 1.23649 0
M  V30 1221 O 145.854 -1.80394 0.27647 0
M  V30 1222 C 145.905 -0.624845 3.56059 0
M  V30 1223 O 145.626 0.525675 4.34935 0
M  V30 1224 C 147.127 -1.27493 4.24571 0
M  V30 1225 H 144.347 -0.0407183 0.669763 0
M  V30 1226 H 146.891 0.520352 1.97769 0
M  V30 1227 H 145.046 -1.32373 3.64083 0
M  V30 1228 H 145.46 0.205969 5.24095 0
M  V30 1229 H 146.934 -1.50277 5.31151 0
M  V30 1230 H 147.411 -2.23439 3.78116 0
M  V30 1231 H 148.017 -0.617558 4.20792 0
M  V30 1232 N 146.332 -1.57332 0.0918853 0
M  V30 1233 C 147.557 -1.98995 -0.584442 0
M  V30 1234 C 147.982 -0.970528 -1.61128 0
M  V30 1235 O 147.34 0.0613904 -1.81196 0
M  V30 1236 C 147.388 -3.39636 -1.21161 0
M  V30 1237 O 146.492 -3.40447 -2.32744 0
M  V30 1238 H 145.833 -0.647165 -0.148572 0
M  V30 1239 H 148.363 -2.03873 0.172347 0
M  V30 1240 H 148.373 -3.7726 -1.55367 0
M  V30 1241 H 147.048 -4.13356 -0.459313 0
M  V30 1242 H 145.625 -3.14614 -2.0018 0
M  V30 1243 N 147.81 0.181792 -1.56548 0
M  V30 1244 C 149.056 0.901431 -1.81665 0
M  V30 1245 C 149.389 1.82347 -0.668075 0
M  V30 1246 O 148.664 1.91669 0.330615 0
M  V30 1247 C 148.947 1.70618 -3.17115 0
M  V30 1248 C 148.8 0.807964 -4.42484 0
M  V30 1249 C 150.119 2.67605 -3.49393 0
M  V30 1250 H 147.238 0.32627 -0.660846 0
M  V30 1251 H 149.88 0.168134 -1.89255 0
M  V30 1252 H 148.03 2.33133 -3.10775 0
M  V30 1253 H 149.702 0.19649 -4.60881 0
M  V30 1254 H 147.945 0.115411 -4.33646 0
M  V30 1255 H 148.616 1.40632 -5.33785 0
M  V30 1256 H 151.092 2.15218 -3.56118 0
M  V30 1257 H 149.968 3.20985 -4.45264 0
M  V30 1258 H 150.229 3.47298 -2.73563 0
M  V30 1259 N 149.288 1.51039 0.449983 0
M  V30 1260 C 150.699 1.557 1.03026 0
M  V30 1261 C 151.05 0.372939 1.92623 0
M  V30 1262 O 150.175 -0.511771 2.10261 0
M  V30 1263 C 150.77 2.82171 1.87523 0
M  V30 1264 C 149.329 2.89444 2.40622 0
M  V30 1265 C 148.476 2.50228 1.19504 0
M  V30 1266 H 151.427 1.56999 0.231745 0
M  V30 1267 H 151.448 2.65219 2.72835 0
M  V30 1268 H 150.96 3.68331 1.22286 0
M  V30 1269 H 149.061 2.07685 3.0935 0
M  V30 1270 H 149.174 3.92816 2.74285 0
M  V30 1271 H 147.538 2.03139 1.53644 0
M  V30 1272 H 148.321 3.38719 0.558972 0
M  V30 1273 N 150.766 -0.704594 1.40972 0
M  V30 1274 C 152.013 -1.46458 1.39844 0
M  V30 1275 C 152.341 -1.94499 0.00447594 0
M  V30 1276 O 151.596 -1.69275 -0.982057 0
M  V30 1277 C 151.895 -2.698 2.34399 0
M  V30 1278 C 151.561 -2.40464 3.81429 0
M  V30 1279 C 150.223 -2.32174 4.21484 0
M  V30 1280 C 152.575 -2.16086 4.74296 0
M  V30 1281 C 149.903 -1.97589 5.52427 0
M  V30 1282 C 152.255 -1.83011 6.05549 0
M  V30 1283 C 150.919 -1.7321 6.44635 0
M  V30 1284 H 150.189 -0.535927 0.511725 0
M  V30 1285 H 152.836 -0.806124 1.73706 0
M  V30 1286 H 151.141 -3.40536 1.93759 0
M  V30 1287 H 152.838 -3.27919 2.30804 0
M  V30 1288 H 149.428 -2.47808 3.49699 0
M  V30 1289 H 153.612 -2.2144 4.4416 0
M  V30 1290 H 148.868 -1.88547 5.81601 0
M  V30 1291 H 153.042 -1.63164 6.77016 0
M  V30 1292 H 150.669 -1.46179 7.46013 0
M  V30 1293 N 152.244 -1.26651 -0.937939 0
M  V30 1294 C 153.492 -1.12165 -1.68118 0
M  V30 1295 C 153.813 0.334983 -1.92101 0
M  V30 1296 O 153.083 1.23583 -1.52 0
M  V30 1297 H 151.663 -0.412093 -0.623048 0
M  V30 1298 H 154.325 -1.59027 -1.12678 0
M  V30 1299 H 153.421 -1.64289 -2.6536 0
M  V30 1300 N 153.722 1.14298 -1.08507 0
M  V30 1301 C 154.632 2.23027 -0.727753 0
M  V30 1302 C 155.648 1.71952 0.26619 0
M  V30 1303 O 156.824 2.011 0.109882 0
M  V30 1304 C 153.889 3.46403 -0.143541 0
M  V30 1305 C 152.95 4.12413 -1.19223 0
M  V30 1306 C 152.183 5.29899 -0.635798 0
M  V30 1307 O 152.406 5.67796 0.544393 0
M  V30 1308 O 151.34 5.85717 -1.38634 0
M  V30 1309 H 155.166 2.55945 -1.63481 0
M  V30 1310 H 152.751 1.22248 -0.858817 0
M  V30 1311 H 154.633 4.21018 0.179404 0
M  V30 1312 H 153.308 3.15206 0.736659 0
M  V30 1313 H 152.215 3.39667 -1.56772 0
M  V30 1314 H 153.548 4.47718 -2.04474 0
M  V30 1315 N 155.201 0.870884 1.31352 0
M  V30 1316 C 156.131 0.343096 2.30966 0
M  V30 1317 C 157.112 -0.566507 1.60389 0
M  V30 1318 O 158.297 -0.483336 1.88089 0
M  V30 1319 C 155.427 -0.455487 3.443 0
M  V30 1320 C 154.381 0.361103 4.26474 0
M  V30 1321 C 153.707 -0.563221 5.31725 0
M  V30 1322 C 155.007 1.59566 4.97329 0
M  V30 1323 H 156.701 1.17548 2.75359 0
M  V30 1324 H 154.247 0.566686 1.32381 0
M  V30 1325 H 156.2 -0.83525 4.13039 0
M  V30 1326 H 154.924 -1.32139 2.98675 0
M  V30 1327 H 153.583 0.722825 3.59403 0
M  V30 1328 H 153.231 -1.42643 4.82351 0
M  V30 1329 H 152.931 -0.0207409 5.87596 0
M  V30 1330 H 154.455 -0.939808 6.03324 0
M  V30 1331 H 155.869 1.28728 5.58661 0
M  V30 1332 H 154.266 2.07728 5.63 0
M  V30 1333 H 155.336 2.34798 4.24262 0
M  V30 1334 N 156.679 -1.44442 0.630414 0
M  V30 1335 C 157.956 -1.9549 0.0655657 0
M  V30 1336 C 158.336 -1.5724 -1.40851 0
M  V30 1337 O 157.684 -0.846116 -2.12257 0
M  V30 1338 C 157.894 -3.47812 0.287691 0
M  V30 1339 C 159.242 -4.24216 0.180513 0
M  V30 1340 O 160.266 -3.55526 0.219019 0
M  V30 1341 O 159.125 -5.46434 0.0848493 0
M  V30 1342 H 156.219 -0.826688 -0.0227177 0
M  V30 1343 H 158.765 -1.54496 0.702068 0
M  V30 1344 H 157.537 -3.687 1.31056 0
M  V30 1345 H 157.16 -3.95751 -0.382984 0
M  V30 1346 N 158.157 -0.370918 -1.53173 0
M  V30 1347 C 159.404 0.217102 -2.01333 0
M  V30 1348 C 159.732 1.48338 -1.25802 0
M  V30 1349 O 158.987 1.92698 -0.34146 0
M  V30 1350 C 159.286 0.549696 -3.53147 0
M  V30 1351 C 158.952 -0.622872 -4.46577 0
M  V30 1352 C 157.614 -0.944595 -4.71838 0
M  V30 1353 C 159.966 -1.40819 -5.01816 0
M  V30 1354 C 157.294 -2.05351 -5.49589 0
M  V30 1355 C 159.646 -2.50757 -5.80778 0
M  V30 1356 C 158.31 -2.83458 -6.04324 0
M  V30 1357 H 157.58 0.0794431 -0.736729 0
M  V30 1358 H 160.227 -0.504481 -1.84736 0
M  V30 1359 H 158.532 1.35237 -3.6772 0
M  V30 1360 H 160.229 1.017 -3.87889 0
M  V30 1361 H 156.819 -0.36209 -4.27068 0
M  V30 1362 H 161.003 -1.17289 -4.82242 0
M  V30 1363 H 156.259 -2.3108 -5.6605 0
M  V30 1364 H 160.433 -3.12022 -6.22588 0
M  V30 1365 H 158.06 -3.69508 -6.64355 0
M  V30 1366 N 159.635 1.57281 -0.100228 0
M  V30 1367 C 160.883 1.94153 0.561157 0
M  V30 1368 C 161.204 0.983157 1.68401 0
M  V30 1369 O 160.474 0.0361132 1.95867 0
M  V30 1370 H 159.054 0.716791 0.210283 0
M  V30 1371 H 161.716 1.94202 -0.164765 0
M  V30 1372 H 160.812 2.96709 0.968008 0
M  V30 1373 N 161.113 -0.173488 1.56642 0
M  V30 1374 C 162.023 -1.23482 1.99473 0
M  V30 1375 C 163.039 -1.48567 0.905752 0
M  V30 1376 O 164.215 -1.60758 1.21321 0
M  V30 1377 C 161.28 -2.55444 2.34413 0
M  V30 1378 C 160.341 -2.38241 3.57127 0
M  V30 1379 C 159.574 -3.63909 3.90392 0
M  V30 1380 O 159.797 -4.68996 3.24653 0
M  V30 1381 O 158.731 -3.58149 4.83749 0
M  V30 1382 H 162.557 -0.901279 2.90018 0
M  V30 1383 H 160.142 -0.380185 1.44482 0
M  V30 1384 H 162.024 -3.33292 2.57865 0
M  V30 1385 H 160.699 -2.88382 1.4703 0
M  V30 1386 H 159.606 -1.58431 3.38896 0
M  V30 1387 H 160.939 -2.10228 4.45045 0
M  V30 1388 N 162.591 -1.51276 -0.441967 0
M  V30 1389 C 163.819 -1.67516 -1.21434 0
M  V30 1390 C 164.234 -0.37055 -1.85128 0
M  V30 1391 O 163.591 0.650498 -1.70513 0
M  V30 1392 C 163.642 -2.78748 -2.30177 0
M  V30 1393 O 163.363 -4.04154 -1.69089 0
M  V30 1394 C 164.864 -3.06217 -3.20541 0
M  V30 1395 H 162.084 -0.562276 -0.366178 0
M  V30 1396 H 164.628 -1.97666 -0.524244 0
M  V30 1397 H 162.783 -2.5121 -2.94911 0
M  V30 1398 H 163.197 -4.65894 -2.40922 0
M  V30 1399 H 164.671 -3.8764 -3.92987 0
M  V30 1400 H 165.148 -2.18439 -3.81026 0
M  V30 1401 H 165.754 -3.35397 -2.61513 0
M  V30 1402 N 164.069 0.697108 -1.41344 0
M  V30 1403 C 165.032 1.79281 -1.42797 0
M  V30 1404 C 166.032 1.57607 -0.318837 0
M  V30 1405 O 167.222 1.64309 -0.578642 0
M  V30 1406 C 164.354 3.17632 -1.23785 0
M  V30 1407 H 165.547 1.79385 -2.40335 0
M  V30 1408 H 163.1 0.904582 -1.27464 0
M  V30 1409 H 163.835 3.23167 -0.270814 0
M  V30 1410 H 163.62 3.34765 -2.04144 0
M  V30 1411 H 165.11 3.97617 -1.27633 0
M  V30 1412 N 165.547 1.27147 0.931209 0
M  V30 1413 C 166.793 1.13446 1.68101 0
M  V30 1414 C 167.126 -0.319628 1.91552 0
M  V30 1415 O 166.401 -1.23407 1.50336 0
M  V30 1416 C 166.684 1.91482 3.0497 0
M  V30 1417 C 166.537 3.44855 2.88782 0
M  V30 1418 C 167.856 1.71651 4.05246 0
M  V30 1419 H 164.975 0.413498 0.610072 0
M  V30 1420 H 167.617 1.56261 1.08086 0
M  V30 1421 H 165.767 1.55095 3.56199 0
M  V30 1422 H 167.439 3.9105 2.44698 0
M  V30 1423 H 165.682 3.71373 2.24198 0
M  V30 1424 H 166.353 3.94694 3.85902 0
M  V30 1425 H 168.829 2.0337 3.63015 0
M  V30 1426 H 167.705 2.28651 4.99009 0
M  V30 1427 H 167.966 0.663555 4.37092 0
M  V30 1428 N 167.025 -1.13721 1.09112 0
M  V30 1429 C 167.955 -2.21148 0.749385 0
M  V30 1430 C 168.936 -1.6792 -0.271475 0
M  V30 1431 O 170.121 -1.93693 -0.140251 0
M  V30 1432 C 167.251 -3.46905 0.165659 0
M  V30 1433 C 166.205 -4.13203 1.11567 0
M  V30 1434 C 165.531 -5.33248 0.393809 0
M  V30 1435 C 166.831 -4.60912 2.45678 0
M  V30 1436 H 168.525 -2.4999 1.64758 0
M  V30 1437 H 166.071 -1.20156 0.793626 0
M  V30 1438 H 168.024 -4.21313 -0.085466 0
M  V30 1439 H 166.748 -3.17449 -0.767714 0
M  V30 1440 H 165.407 -3.40758 1.35202 0
M  V30 1441 H 165.055 -5.00054 -0.543599 0
M  V30 1442 H 164.755 -5.78552 1.02721 0
M  V30 1443 H 166.279 -6.10413 0.150908 0
M  V30 1444 H 167.693 -5.26759 2.26269 0
M  V30 1445 H 166.09 -5.16944 3.04776 0
M  V30 1446 H 167.16 -3.75603 3.06677 0
M  V30 1447 N 168.503 -0.877838 -1.30888 0
M  V30 1448 C 169.78 -0.413052 -1.91189 0
M  V30 1449 C 170.16 1.1056 -1.79832 0
M  V30 1450 O 169.508 1.93771 -1.21099 0
M  V30 1451 C 169.718 -0.903191 -3.3711 0
M  V30 1452 C 171.066 -0.93395 -4.14201 0
M  V30 1453 O 172.09 -0.849373 -3.45925 0
M  V30 1454 O 170.949 -1.05772 -5.36167 0
M  V30 1455 H 168.043 -0.125035 -0.817493 0
M  V30 1456 H 170.589 -0.966269 -1.39504 0
M  V30 1457 H 169.361 -1.94692 -3.39427 0
M  V30 1458 H 168.984 -0.328732 -3.96239 0
M  V30 1459 N 169.982 1.44106 -0.638065 0
M  V30 1460 C 170.945 2.29138 0.0531013 0
M  V30 1461 C 171.945 1.41409 0.765506 0
M  V30 1462 O 173.135 1.63206 0.609046 0
M  V30 1463 C 170.267 3.23144 1.08584 0
M  V30 1464 H 171.46 2.91739 -0.694883 0
M  V30 1465 H 169.013 1.51134 -0.398538 0
M  V30 1466 H 169.748 2.65408 1.86357 0
M  V30 1467 H 169.533 3.87804 0.578852 0
M  V30 1468 H 171.023 3.87004 1.56899 0
M  V30 1469 N 171.46 0.379036 1.52974 0
M  V30 1470 C 172.707 -0.206421 2.01445 0
M  V30 1471 C 173.035 -1.47668 1.26587 0
M  V30 1472 O 172.29 -1.92514 0.351675 0
M  V30 1473 C 172.589 -0.53096 3.53434 0
M  V30 1474 C 172.255 0.646546 4.46241 0
M  V30 1475 C 170.917 0.969604 4.7133 0
M  V30 1476 C 173.269 1.43479 5.01062 0
M  V30 1477 C 170.597 2.08263 5.48492 0
M  V30 1478 C 172.949 2.53834 5.7944 0
M  V30 1479 C 171.613 2.86659 6.02812 0
M  V30 1480 H 170.883 -0.0755349 0.73714 0
M  V30 1481 H 173.53 0.514271 1.84465 0
M  V30 1482 H 171.835 -1.33285 3.68432 0
M  V30 1483 H 173.532 -0.996417 3.88423 0
M  V30 1484 H 170.122 0.384734 4.2687 0
M  V30 1485 H 174.306 1.19844 4.81613 0
M  V30 1486 H 169.562 2.34078 5.64816 0
M  V30 1487 H 173.736 3.15319 6.20924 0
M  V30 1488 H 171.363 3.73026 6.62387 0
M  V30 1489 N 172.938 -1.57226 0.108567 0
M  V30 1490 C 174.168 -1.9889 -0.559142 0
M  V30 1491 C 174.576 -0.986889 -1.61422 0
M  V30 1492 O 173.919 0.0298705 -1.83676 0
M  V30 1493 C 173.981 -3.36952 -1.25315 0
M  V30 1494 C 173.645 -4.55679 -0.347248 0
M  V30 1495 C 174.642 -5.18281 0.409996 0
M  V30 1496 C 172.327 -5.0162 -0.261367 0
M  V30 1497 C 174.321 -6.25203 1.24096 0
M  V30 1498 C 172.008 -6.08405 0.573238 0
M  V30 1499 C 173.006 -6.70063 1.32304 0
M  V30 1500 O 172.694 -7.74788 2.14381 0
M  V30 1501 H 172.426 -0.658343 -0.153492 0
M  V30 1502 H 174.98 -2.04532 0.188584 0
M  V30 1503 H 173.21 -3.28032 -2.04773 0
M  V30 1504 H 174.899 -3.62974 -1.81673 0
M  V30 1505 H 175.665 -4.8371 0.353457 0
M  V30 1506 H 171.544 -4.53381 -0.834656 0
M  V30 1507 H 175.088 -6.73259 1.82669 0
M  V30 1508 H 170.985 -6.42406 0.631208 0
M  V30 1509 H 171.753 -7.91837 2.07209 0
M  V30 1510 N 174.416 0.165178 -1.56732 0
M  V30 1511 C 175.693 0.908443 -1.73224 0
M  V30 1512 C 176.073 2.0013 -0.67165 0
M  V30 1513 O 175.421 2.26353 0.31253 0
M  V30 1514 C 175.631 1.46756 -3.16644 0
M  V30 1515 C 176.979 1.93809 -3.77787 0
M  V30 1516 O 178.003 1.56537 -3.1996 0
M  V30 1517 O 176.862 2.62486 -4.79336 0
M  V30 1518 H 173.956 0.428025 -0.707618 0
M  V30 1519 H 176.502 0.152526 -1.69013 0
M  V30 1520 H 175.274 0.68129 -3.85323 0
M  V30 1521 H 174.897 2.28749 -3.25207 0
M  V30 1522 N 175.894 1.51508 0.433938 0
M  V30 1523 C 176.857 1.72473 1.50949 0
M  V30 1524 C 177.857 0.594725 1.49398 0
M  V30 1525 O 179.047 0.862315 1.5136 0
M  V30 1526 C 176.179 1.78431 2.90474 0
M  V30 1527 H 177.372 2.68467 1.33662 0
M  V30 1528 H 174.925 1.41549 0.662836 0
M  V30 1529 H 175.66 0.842645 3.13161 0
M  V30 1530 H 175.445 2.60558 2.93005 0
M  V30 1531 H 176.935 1.96479 3.68491 0
M  V30 1532 N 177.372 -0.689602 1.41712 0
M  V30 1533 C 178.649 -1.44457 1.31877 0
M  V30 1534 C 179.029 -2.11039 -0.0508537 0
M  V30 1535 O 178.377 -2.02138 -1.06547 0
M  V30 1536 C 178.587 -2.45913 2.47645 0
M  V30 1537 C 179.935 -3.10991 2.89084 0
M  V30 1538 O 180.959 -2.56238 2.47428 0
M  V30 1539 O 179.818 -4.10174 3.61137 0
M  V30 1540 H 176.912 -0.64362 0.519309 0
M  V30 1541 H 179.458 -0.719576 1.53689 0
M  V30 1542 H 178.23 -1.95409 3.39015 0
M  V30 1543 H 177.853 -3.25913 2.27742 0
M  V30 1544 N 178.85 -1.27639 -0.924453 0
M  V30 1545 C 180.096 -1.14336 -1.67497 0
M  V30 1546 C 180.429 0.309465 -1.91718 0
M  V30 1547 O 179.704 1.22608 -1.50989 0
M  V30 1548 C 179.987 -1.93096 -3.0395 0
M  V30 1549 C 179.84 -3.46381 -2.8695 0
M  V30 1550 C 181.159 -1.73798 -4.0433 0
M  V30 1551 H 178.278 -0.416728 -0.607871 0
M  V30 1552 H 180.92 -1.56832 -1.07256 0
M  V30 1553 H 179.07 -1.56982 -3.55372 0
M  V30 1554 H 180.742 -3.92343 -2.42621 0
M  V30 1555 H 178.985 -3.72557 -2.22225 0
M  V30 1556 H 179.656 -3.96735 -3.83804 0
M  V30 1557 H 182.132 -2.05293 -3.61931 0
M  V30 1558 H 181.008 -2.31294 -4.97789 0
M  V30 1559 H 181.269 -0.686725 -4.36734 0
M  V30 1560 N 180.328 1.1314 -1.09713 0
M  V30 1561 C 181.291 2.16831 -0.742751 0
M  V30 1562 C 182.291 1.59159 0.229129 0
M  V30 1563 O 183.481 1.74199 0.00693237 0
M  V30 1564 C 180.613 3.40756 -0.0989168 0
M  V30 1565 H 181.806 2.49695 -1.66109 0
M  V30 1566 H 179.359 1.2802 -0.896699 0
M  V30 1567 H 180.094 3.13485 0.830514 0
M  V30 1568 H 179.879 3.83888 -0.798265 0
M  V30 1569 H 181.369 4.17386 0.133524 0
M  V30 1570 N 181.806 0.884767 1.30421 0
M  V30 1571 C 183.052 0.503851 1.96441 0
M  V30 1572 C 183.385 -0.944518 1.69684 0
M  V30 1573 O 182.66 -1.66737 1.00145 0
M  V30 1574 C 182.943 0.779085 3.51571 0
M  V30 1575 C 182.796 2.27807 3.87846 0
M  V30 1576 C 184.115 0.255452 4.39358 0
M  V30 1577 H 181.234 0.184533 0.713524 0
M  V30 1578 H 183.876 1.10872 1.54297 0
M  V30 1579 H 182.026 0.264274 3.876 0
M  V30 1580 H 183.698 2.86127 3.61841 0
M  V30 1581 H 181.941 2.74479 3.35922 0
M  V30 1582 H 182.612 2.42125 4.96064 0
M  V30 1583 H 185.088 0.696079 4.10236 0
M  V30 1584 H 183.964 0.477361 5.4682 0
M  V30 1585 H 184.225 -0.843293 4.33983 0
M  V30 1586 N 183.284 -1.43765 0.645699 0
M  V30 1587 C 184.53 -2.02197 0.156271 0
M  V30 1588 C 184.863 -1.50776 -1.22393 0
M  V30 1589 O 184.138 -0.697771 -1.81553 0
M  V30 1590 C 184.421 -3.59749 0.158872 0
M  V30 1591 C 184.274 -4.21419 1.57245 0
M  V30 1592 C 185.593 -4.37149 -0.50879 0
M  V30 1593 H 182.712 -0.734694 0.0582602 0
M  V30 1594 H 185.354 -1.71157 0.824951 0
M  V30 1595 H 183.504 -3.86325 -0.410525 0
M  V30 1596 H 185.176 -4.059 2.19186 0
M  V30 1597 H 183.419 -3.78356 2.122 0
M  V30 1598 H 184.09 -5.30482 1.52619 0
M  V30 1599 H 186.566 -4.16093 -0.024412 0
M  V30 1600 H 185.442 -5.4683 -0.476213 0
M  V30 1601 H 185.703 -4.12839 -1.58165 0
M  V30 1602 N 184.763 -0.387143 -1.52771 0
M  V30 1603 C 186.04 0.253197 -1.93954 0
M  V30 1604 C 186.42 1.64545 -1.32243 0
M  V30 1605 O 185.768 2.23191 -0.489699 0
M  V30 1606 C 185.978 0.281722 -3.47861 0
M  V30 1607 C 187.326 0.511715 -4.21505 0
M  V30 1608 O 188.35 0.362023 -3.54356 0
M  V30 1609 O 187.209 0.804847 -5.40541 0
M  V30 1610 H 184.303 0.156845 -0.811991 0
M  V30 1611 H 186.849 -0.441494 -1.63856 0
M  V30 1612 H 185.621 -0.693571 -3.85104 0
M  V30 1613 H 185.244 1.02142 -3.84256 0
M  V30 1614 N 186.241 1.57166 -0.116904 0
M  V30 1615 C 187.174 2.10912 0.871291 0
M  V30 1616 C 188.152 1.025 1.26224 0
M  V30 1617 O 189.336 1.3014 1.36366 0
M  V30 1618 C 186.463 2.6041 2.16574 0
M  V30 1619 C 185.509 3.80687 1.92302 0
M  V30 1620 S 186.342 5.23199 1.14119 0
M  V30 1621 C 187.498 5.76064 2.44748 0
M  V30 1622 H 187.731 2.94401 0.414138 0
M  V30 1623 H 185.264 1.54096 0.096829 0
M  V30 1624 H 187.222 2.89583 2.9095 0
M  V30 1625 H 185.883 1.77106 2.59408 0
M  V30 1626 H 185.076 4.13462 2.8821 0
M  V30 1627 H 184.678 3.5212 1.26047 0
M  V30 1628 H 186.97 5.8566 3.406 0
M  V30 1629 H 187.913 6.74184 2.16521 0
M  V30 1630 H 188.321 5.04117 2.54019 0
M  V30 1631 N 187.719 -0.156864 1.56817 0
M  V30 1632 C 188.944 -0.890331 1.87318 0
M  V30 1633 C 189.369 -1.74394 0.704855 0
M  V30 1634 O 188.727 -1.77972 -0.345786 0
M  V30 1635 C 188.775 -1.73102 3.16336 0
M  V30 1636 O 187.879 -2.83422 2.99576 0
M  V30 1637 H 187.22 -0.24857 0.615718 0
M  V30 1638 H 189.75 -0.150649 2.04045 0
M  V30 1639 H 189.76 -2.12803 3.48107 0
M  V30 1640 H 188.435 -1.10412 4.00976 0
M  V30 1641 H 187.012 -2.47199 2.7919 0
M  V30 1642 N 189.197 -1.51736 -0.425897 0
M  V30 1643 C 190.474 -1.55519 -1.1863 0
M  V30 1644 C 190.854 -0.326219 -2.08564 0
M  V30 1645 O 190.202 0.688012 -2.17896 0
M  V30 1646 C 190.412 -2.87521 -1.9782 0
M  V30 1647 C 191.76 -3.39899 -2.54468 0
M  V30 1648 O 192.784 -2.89148 -2.08019 0
M  V30 1649 O 191.643 -4.2848 -3.39215 0
M  V30 1650 H 188.737 -0.625739 -0.540721 0
M  V30 1651 H 191.283 -1.64055 -0.434038 0
M  V30 1652 H 190.055 -3.68422 -1.31836 0
M  V30 1653 H 189.678 -2.822 -2.80088 0
M  V30 1654 N 190.675 0.682077 -1.42076 0
M  V30 1655 C 191.921 1.44428 -1.42367 0
M  V30 1656 C 192.254 1.94164 -0.0373056 0
M  V30 1657 O 191.529 1.70429 0.937239 0
M  V30 1658 C 191.812 2.64654 -2.44194 0
M  V30 1659 C 191.665 2.20596 -3.91991 0
M  V30 1660 C 192.984 3.66865 -2.431 0
M  V30 1661 H 190.103 0.523834 -0.518428 0
M  V30 1662 H 192.745 0.77576 -1.73442 0
M  V30 1663 H 190.895 3.2169 -2.17826 0
M  V30 1664 H 192.567 1.68783 -4.29313 0
M  V30 1665 H 190.81 1.52242 -4.06208 0
M  V30 1666 H 191.481 3.06921 -4.58807 0
M  V30 1667 H 193.957 3.19531 -2.66532 0
M  V30 1668 H 192.833 4.48577 -3.16339 0
M  V30 1669 H 193.094 4.17493 -1.45437 0
M  V30 1670 N 192.153 1.28127 0.917671 0
M  V30 1671 C 193.378 1.18007 1.70555 0
M  V30 1672 C 193.803 -0.258257 1.86319 0
M  V30 1673 O 193.161 -1.1869 1.37049 0
M  V30 1674 C 193.209 1.87948 3.07746 0
M  V30 1675 O 192.313 1.18427 3.9503 0
M  V30 1676 H 191.654 0.409867 0.522403 0
M  V30 1677 H 194.184 1.69379 1.1477 0
M  V30 1678 H 194.194 1.95701 3.58001 0
M  V30 1679 H 192.869 2.92573 2.95591 0
M  V30 1680 H 191.446 1.18811 3.53466 0
M  V30 1681 N 193.631 -1.12557 1.10312 0
M  V30 1682 C 195.047 -1.36036 0.834649 0
M  V30 1683 C 195.247 -1.93946 -0.546539 0
M  V30 1684 O 194.303 -2.16484 -1.29966 0
M  V30 1685 C 195.616 -2.30312 1.9333 0
M  V30 1686 C 197.164 -2.43906 1.9616 0
M  V30 1687 C 197.639 -3.41496 3.05195 0
M  V30 1688 N 199.13 -3.49053 3.04494 0
M  V30 1689 C 199.865 -4.24471 3.85502 0
M  V30 1690 N 199.361 -5.02966 4.76442 0
M  V30 1691 N 201.154 -4.19864 3.73725 0
M  V30 1692 H 193.305 -0.733246 1.99342 0
M  V30 1693 H 195.568 -0.385234 0.866198 0
M  V30 1694 H 195.274 -1.94933 2.92735 0
M  V30 1695 H 195.148 -3.30421 1.81939 0
M  V30 1696 H 197.535 -2.78567 0.973886 0
M  V30 1697 H 197.616 -1.4369 2.11629 0
M  V30 1698 H 197.26 -3.07565 4.04186 0
M  V30 1699 H 197.19 -4.41539 2.86968 0
M  V30 1700 H 199.681 -2.93053 2.38596 0
M  V30 1701 H 199.994 -5.57846 5.34815 0
M  V30 1702 H 198.339 -5.02167 4.80472 0
M  V30 1703 H 201.53 -3.57623 3.02032 0
M  V30 1704 H 201.703 -4.78386 4.37093 0
M  V30 1705 N 195.109 -0.891671 -1.2995 0
M  V30 1706 C 196.041 -0.320695 -2.26945 0
M  V30 1707 C 197.054 0.528497 -1.53983 0
M  V30 1708 O 198.243 0.346959 -1.75096 0
M  V30 1709 C 195.343 0.562066 -3.34207 0
M  V30 1710 C 194.516 -0.259576 -4.36629 0
M  V30 1711 C 193.575 0.554739 -5.23268 0
M  V30 1712 O 192.601 -0.0249311 -5.69195 0
M  V30 1713 N 193.803 1.8625 -5.4981 0
M  V30 1714 H 196.568 -1.15432 -2.76578 0
M  V30 1715 H 194.129 -0.755336 -1.432 0
M  V30 1716 H 196.121 1.11304 -3.89093 0
M  V30 1717 H 194.691 1.29637 -2.84452 0
M  V30 1718 H 193.911 -0.991986 -3.81514 0
M  V30 1719 H 195.199 -0.822564 -5.02107 0
M  V30 1720 H 194.597 2.35628 -5.14292 0
M  V30 1721 H 193.154 2.36078 -6.07545 0
M  V30 1722 N 196.587 1.43421 -0.653314 0
M  V30 1723 C 197.998 1.85065 -0.246537 0
M  V30 1724 C 198.349 1.54688 1.2069 0
M  V30 1725 O 197.474 0.995896 1.92122 0
M  V30 1726 C 198.069 3.35922 -0.440666 0
M  V30 1727 C 196.628 3.76297 -0.0882064 0
M  V30 1728 C 195.775 2.67147 -0.743484 0
M  V30 1729 H 198.726 1.33572 -0.856979 0
M  V30 1730 H 198.747 3.79204 0.313798 0
M  V30 1731 H 198.259 3.58 -1.49858 0
M  V30 1732 H 196.36 3.5983 0.96711 0
M  V30 1733 H 196.473 4.76338 -0.513738 0
M  V30 1734 H 194.837 2.54086 -0.176712 0
M  V30 1735 H 195.62 2.92053 -1.80443 0
M  V30 1736 N 198.065 0.39524 1.52563 0
M  V30 1737 C 199.29 -0.187456 2.06551 0
M  V30 1738 C 199.715 -1.39249 1.26457 0
M  V30 1739 O 199.073 -1.78947 0.291151 0
M  V30 1740 C 199.121 -0.529985 3.56684 0
M  V30 1741 O 198.225 -1.62307 3.79118 0
M  V30 1742 H 197.566 -0.0202537 0.663691 0
M  V30 1743 H 200.096 0.564426 1.96661 0
M  V30 1744 H 200.106 -0.792598 4.00227 0
M  V30 1745 H 198.781 0.350987 4.14416 0
M  V30 1746 H 197.358 -1.3537 3.47461 0
M  V30 1747 N 199.544 -1.57102 0.125237 0
M  V30 1748 C 200.474 -2.18659 -0.819174 0
M  V30 1749 C 201.455 -1.12843 -1.27281 0
M  V30 1750 O 202.64 -1.41104 -1.33429 0
M  V30 1751 C 199.77 -2.79096 -2.06695 0
M  V30 1752 C 198.724 -3.90548 -1.75088 0
M  V30 1753 C 198.05 -4.37821 -3.06948 0
M  V30 1754 C 199.35 -5.12356 -1.01435 0
M  V30 1755 H 201.044 -2.9783 -0.306202 0
M  V30 1756 H 198.59 -1.4326 -0.145839 0
M  V30 1757 H 200.543 -3.2082 -2.73226 0
M  V30 1758 H 199.267 -1.97223 -2.60328 0
M  V30 1759 H 197.926 -3.49409 -1.10944 0
M  V30 1760 H 197.574 -3.52799 -3.58527 0
M  V30 1761 H 197.274 -5.12982 -2.86571 0
M  V30 1762 H 198.798 -4.822 -3.74587 0
M  V30 1763 H 200.212 -5.5106 -1.58132 0
M  V30 1764 H 198.609 -5.9314 -0.911319 0
M  V30 1765 H 199.679 -4.849 -0.00218681 0
M  V30 1766 N 201.022 0.148545 -1.56898 0
M  V30 1767 C 202.269 0.861418 -1.83264 0
M  V30 1768 C 202.597 1.81239 -0.705883 0
M  V30 1769 O 201.852 1.93305 0.305212 0
M  V30 1770 C 202.151 1.67064 -3.1595 0
M  V30 1771 C 201.817 0.866591 -4.42494 0
M  V30 1772 C 200.479 0.644762 -4.76861 0
M  V30 1773 C 202.831 0.30418 -5.20312 0
M  V30 1774 C 200.159 -0.15021 -5.86508 0
M  V30 1775 C 202.511 -0.477824 -6.30793 0
M  V30 1776 C 201.175 -0.710244 -6.63711 0
M  V30 1777 H 200.445 0.315215 -0.670612 0
M  V30 1778 H 203.092 0.125142 -1.91091 0
M  V30 1779 H 201.397 2.47698 -3.03567 0
M  V30 1780 H 203.094 2.22566 -3.33565 0
M  V30 1781 H 199.684 1.04955 -4.15551 0
M  V30 1782 H 203.868 0.462844 -4.94137 0
M  V30 1783 H 199.124 -0.339796 -6.10455 0
M  V30 1784 H 203.298 -0.92076 -6.90286 0
M  V30 1785 H 200.925 -1.3281 -7.48509 0
M  V30 1786 N 202.5 1.5196 0.417844 0
M  V30 1787 C 203.73 1.69181 1.18581 0
M  V30 1788 C 204.138 0.397104 1.84986 0
M  V30 1789 O 203.481 -0.636011 1.72339 0
M  V30 1790 C 203.543 2.76497 2.29759 0
M  V30 1791 C 203.207 4.18514 1.83563 0
M  V30 1792 C 204.204 5.02648 1.32821 0
M  V30 1793 C 201.889 4.64708 1.90661 0
M  V30 1794 C 203.883 6.31044 0.897894 0
M  V30 1795 C 201.57 5.93096 1.47241 0
M  V30 1796 C 202.568 6.76093 0.968891 0
M  V30 1797 O 202.256 8.02078 0.540924 0
M  V30 1798 H 201.988 0.570457 0.362705 0
M  V30 1799 H 204.542 1.99249 0.498885 0
M  V30 1800 H 202.772 2.41786 3.01789 0
M  V30 1801 H 204.461 2.82403 2.91553 0
M  V30 1802 H 205.227 4.68154 1.26716 0
M  V30 1803 H 201.106 4.00216 2.28797 0
M  V30 1804 H 204.65 6.95776 0.504192 0
M  V30 1805 H 200.547 6.271 1.53022 0
M  V30 1806 H 201.315 8.15794 0.66502 0
M  V30 1807 N 203.978 -0.674533 1.42435 0
M  V30 1808 C 204.928 -1.7807 1.4239 0
M  V30 1809 C 205.912 -1.58169 0.295202 0
M  V30 1810 O 207.104 -1.68643 0.537449 0
M  V30 1811 C 204.233 -3.16532 1.32901 0
M  V30 1812 C 203.319 -3.42055 2.50717 0
M  V30 1813 N 203.71 -3.38162 3.76139 0
M  V30 1814 C 202.008 -3.72692 2.44983 0
M  V30 1815 C 202.709 -3.63177 4.54398 0
M  V30 1816 N 201.685 -3.83954 3.84812 0
M  V30 1817 H 205.487 -1.73454 2.37257 0
M  V30 1818 H 203.001 -0.875381 1.36788 0
M  V30 1819 H 204.998 -3.958 1.30951 0
M  V30 1820 H 203.658 -3.22345 0.390363 0
M  V30 1821 H 204.669 -3.18057 4.0873 0
M  V30 1822 H 201.346 -3.85749 1.59699 0
M  V30 1823 H 202.736 -3.66125 5.63384 0
M  V30 1824 N 205.456 -1.28612 -0.910864 0
M  V30 1825 C 206.386 -1.15326 -2.03032 0
M  V30 1826 C 207.367 -0.0502924 -1.70026 0
M  V30 1827 O 208.552 -0.227797 -1.92859 0
M  V30 1828 C 205.682 -0.817343 -3.37545 0
M  V30 1829 C 204.636 -1.8754 -3.84724 0
M  V30 1830 C 203.962 -1.39305 -5.16235 0
M  V30 1831 C 205.262 -3.28244 -4.06267 0
M  V30 1832 H 206.956 -2.08975 -2.14406 0
M  V30 1833 H 204.502 -1.00612 -1.03021 0
M  V30 1834 H 206.455 -0.711151 -4.15356 0
M  V30 1835 H 205.179 0.154846 -3.26233 0
M  V30 1836 H 203.838 -1.97079 -3.09121 0
M  V30 1837 H 203.486 -0.409846 -5.01328 0
M  V30 1838 H 203.186 -2.10057 -5.48771 0
M  V30 1839 H 204.71 -1.30014 -5.96598 0
M  V30 1840 H 206.124 -3.21611 -4.74594 0
M  V30 1841 H 204.521 -3.96855 -4.5014 0
M  V30 1842 H 205.591 -3.72048 -3.10979 0
M  V30 1843 N 206.934 1.1197 -1.10907 0
M  V30 1844 C 208.182 1.83225 -0.852819 0
M  V30 1845 C 208.503 1.84769 0.623341 0
M  V30 1846 O 207.773 1.3143 1.45269 0
M  V30 1847 H 206.353 0.67849 -0.312507 0
M  V30 1848 H 209.015 1.3556 -1.40033 0
M  V30 1849 H 208.111 2.87265 -1.22005 0
M  V30 1850 N 208.412 0.89855 1.29475 0
M  V30 1851 C 209.658 0.524658 1.95896 0
M  V30 1852 C 209.991 -0.926468 1.70676 0
M  V30 1853 O 209.266 -1.65665 1.01908 0
M  V30 1854 C 209.549 0.81633 3.50725 0
M  V30 1855 C 209.402 2.31907 3.85408 0
M  V30 1856 C 210.721 0.302038 4.39062 0
M  V30 1857 H 207.84 0.19209 0.711527 0
M  V30 1858 H 210.482 1.12502 1.53112 0
M  V30 1859 H 208.632 0.305369 3.87298 0
M  V30 1860 H 210.304 2.89949 3.58786 0
M  V30 1861 H 208.547 2.78027 3.32992 0
M  V30 1862 H 209.218 2.47373 4.93468 0
M  V30 1863 H 211.694 0.739551 4.09475 0
M  V30 1864 H 210.57 0.535331 5.46283 0
M  V30 1865 H 210.831 -0.797216 4.34853 0
M  V30 1866 N 209.89 -1.43072 0.660911 0
M  V30 1867 C 211.306 -1.56169 0.329173 0
M  V30 1868 C 211.506 -1.64317 -1.16629 0
M  V30 1869 O 210.562 -1.60245 -1.95135 0
M  V30 1870 C 211.875 -2.81873 1.04729 0
M  V30 1871 C 213.423 -2.95627 1.02828 0
M  V30 1872 C 213.898 -4.24174 1.72744 0
M  V30 1873 N 215.389 -4.31055 1.69545 0
M  V30 1874 C 216.124 -5.29304 2.20511 0
M  V30 1875 N 215.62 -6.33786 2.79799 0
M  V30 1876 N 217.413 -5.21008 2.10966 0
M  V30 1877 H 209.564 -1.36027 1.63127 0
M  V30 1878 H 211.827 -0.653823 0.686454 0
M  V30 1879 H 211.533 -2.81942 2.10242 0
M  V30 1880 H 211.407 -3.72338 0.603702 0
M  V30 1881 H 213.794 -2.95094 -0.0184742 0
M  V30 1882 H 213.875 -2.06431 1.51063 0
M  V30 1883 H 213.519 -4.25467 2.7738 0
M  V30 1884 H 213.449 -5.1228 1.2197 0
M  V30 1885 H 215.94 -3.56174 1.26288 0
M  V30 1886 H 216.253 -7.05086 3.16344 0
M  V30 1887 H 214.598 -6.34387 2.83863 0
M  V30 1888 H 217.789 -4.38301 1.64347 0
M  V30 1889 H 217.962 -5.97416 2.50993 0
M  V30 1890 N 211.368 -0.403325 -1.52352 0
M  V30 1891 C 212.278 0.432009 -2.30588 0
M  V30 1892 C 213.294 1.05884 -1.38075 0
M  V30 1893 O 214.47 1.06161 -1.71148 0
M  V30 1894 C 211.535 1.53669 -3.10784 0
M  V30 1895 C 210.596 0.933525 -4.19027 0
M  V30 1896 C 209.829 1.98557 -4.9539 0
M  V30 1897 O 210.052 3.20283 -4.71991 0
M  V30 1898 O 208.986 1.59504 -5.80381 0
M  V30 1899 H 212.812 -0.205739 -3.03002 0
M  V30 1900 H 210.397 -0.166675 -1.48467 0
M  V30 1901 H 212.279 2.17814 -3.60742 0
M  V30 1902 H 210.954 2.15915 -2.41169 0
M  V30 1903 H 209.861 0.254954 -3.7323 0
M  V30 1904 H 211.194 0.35508 -4.90918 0
M  V30 1905 N 212.846 1.57033 -0.133567 0
M  V30 1906 C 214.071 2.00475 0.531477 0
M  V30 1907 C 214.496 1.01291 1.58499 0
M  V30 1908 O 213.854 -0.0133279 1.81295 0
M  V30 1909 C 213.902 3.42729 1.12113 0
M  V30 1910 O 213.006 3.46498 2.23636 0
M  V30 1911 H 212.347 0.650876 0.131362 0
M  V30 1912 H 214.877 2.03344 -0.22634 0
M  V30 1913 H 214.887 3.81246 1.4531 0
M  V30 1914 H 213.562 4.14428 0.349557 0
M  V30 1915 H 212.139 3.19811 1.91769 0
M  V30 1916 N 214.325 -0.140222 1.56975 0
M  V30 1917 C 215.572 -0.851687 1.83719 0
M  V30 1918 C 215.9 -1.80862 0.715485 0
M  V30 1919 O 215.155 -1.93464 -0.294956 0
M  V30 1920 C 215.454 -1.65386 3.16832 0
M  V30 1921 C 215.12 -0.843112 4.42947 0
M  V30 1922 C 213.782 -0.619464 4.77196 0
M  V30 1923 C 216.134 -0.276582 5.20466 0
M  V30 1924 C 213.462 0.181312 5.8642 0
M  V30 1925 C 215.814 0.51127 6.30531 0
M  V30 1926 C 214.478 0.745432 6.63325 0
M  V30 1927 H 213.748 -0.311654 0.672274 0
M  V30 1928 H 216.395 -0.115006 1.91154 0
M  V30 1929 H 214.7 -2.46084 3.04877 0
M  V30 1930 H 216.397 -2.20793 3.34741 0
M  V30 1931 H 212.987 -1.0275 4.16101 0
M  V30 1932 H 217.171 -0.436632 4.94376 0
M  V30 1933 H 212.427 0.372165 6.10266 0
M  V30 1934 H 216.601 0.957354 6.89788 0
M  V30 1935 H 214.228 1.36778 7.47794 0
M  V30 1936 N 215.803 -1.52179 -0.40978 0
M  V30 1937 C 217.08 -1.56769 -1.16974 0
M  V30 1938 C 217.46 -0.348322 -2.08206 0
M  V30 1939 O 216.808 0.664862 -2.18613 0
M  V30 1940 C 217.018 -2.89603 -1.9476 0
M  V30 1941 C 218.366 -3.42579 -2.50849 0
M  V30 1942 O 219.39 -2.91338 -2.04941 0
M  V30 1943 O 218.249 -4.32054 -3.34652 0
M  V30 1944 H 215.343 -0.631439 -0.534054 0
M  V30 1945 H 217.889 -1.64507 -0.416613 0
M  V30 1946 H 216.661 -3.698 -1.27921 0
M  V30 1947 H 216.284 -2.85155 -2.77079 0
M  V30 1948 N 217.281 0.66697 -1.42791 0
M  V30 1949 C 218.214 1.79177 -1.41318 0
M  V30 1950 C 219.192 1.60234 -0.276401 0
M  V30 1951 O 220.376 1.82602 -0.46785 0
M  V30 1952 C 217.503 3.16289 -1.21157 0
M  V30 1953 C 216.549 3.53964 -2.37932 0
M  V30 1954 S 217.382 3.55501 -4.00474 0
M  V30 1955 C 218.538 4.95292 -3.8267 0
M  V30 1956 H 218.771 1.80153 -2.365 0
M  V30 1957 H 216.304 0.838357 -1.29657 0
M  V30 1958 H 218.262 3.95428 -1.10212 0
M  V30 1959 H 216.923 3.1289 -0.275481 0
M  V30 1960 H 216.116 4.53646 -2.19594 0
M  V30 1961 H 215.718 2.82204 -2.45432 0
M  V30 1962 H 218.01 5.83584 -3.44145 0
M  V30 1963 H 218.953 5.18679 -4.82055 0
M  V30 1964 H 219.361 4.68179 -3.15386 0
M  V30 1965 N 218.759 1.29093 0.90403 0
M  V30 1966 C 219.722 1.1386 1.98919 0
M  V30 1967 C 220.722 0.0753457 1.60623 0
M  V30 1968 O 221.912 0.321931 1.71199 0
M  V30 1969 C 219.044 0.740198 3.32767 0
M  V30 1970 H 220.237 2.10246 2.13861 0
M  V30 1971 H 217.79 1.12218 1.08797 0
M  V30 1972 H 218.525 -0.223997 3.23525 0
M  V30 1973 H 218.31 1.50838 3.61926 0
M  V30 1974 H 219.8 0.656546 4.12407 0
M  V30 1975 N 220.237 -1.11381 1.11499 0
M  V30 1976 C 221.185 -2.19522 0.768956 0
M  V30 1977 C 222.179 -1.67693 -0.239857 0
M  V30 1978 O 223.385 -1.79727 -0.0990755 0
M  V30 1979 H 219.76 -0.715711 0.230786 0
M  V30 1980 H 221.731 -2.45954 1.68964 0
M  V30 1981 C 220.48 -3.46945 0.229073 0
M  V30 1982 H 219.803 -3.8718 0.996596 0
M  V30 1983 H 221.243 -4.23993 0.0251441 0
M  V30 1984 C 219.702 -3.2042 -1.04079 0
M  V30 1985 O 220.232 -3.41178 -2.12038 0
M  V30 1986 N 218.438 -2.74151 -0.963823 0
M  V30 1987 H 217.985 -2.57459 -0.0851722 0
M  V30 1988 H 217.943 -2.56781 -1.81414 0
M  V30 1989 N 221.715 -0.905404 -1.28997 0
M  V30 1990 C 222.663 -0.377431 -2.29517 0
M  V30 1991 C 223.657 0.526461 -1.61012 0
M  V30 1992 O 224.863 0.40863 -1.753 0
M  V30 1993 H 221.238 -0.103437 -0.744852 0
M  V30 1994 H 223.209 -1.23848 -2.71485 0
M  V30 1995 C 221.958 0.374833 -3.45674 0
M  V30 1996 H 221.281 -0.311474 -3.98585 0
M  V30 1997 H 222.721 0.70903 -4.1803 0
M  V30 1998 C 221.18 1.57963 -2.97572 0
M  V30 1999 O 221.71 2.67886 -2.99333 0
M  V30 2000 N 219.916 1.42375 -2.53333 0
M  V30 2001 H 219.463 0.529466 -2.521 0
M  V30 2002 H 219.421 2.23117 -2.21509 0
M  V30 2003 N 223.193 1.4272 -0.668489 0
M  V30 2004 C 224.439 2.01923 -0.188419 0
M  V30 2005 C 224.772 1.52704 1.19979 0
M  V30 2006 O 224.047 0.726566 1.8042 0
M  V30 2007 C 224.33 3.59451 -0.216085 0
M  V30 2008 C 224.183 4.18864 -1.6393 0
M  V30 2009 C 225.502 4.37903 0.439179 0
M  V30 2010 H 222.621 0.733674 -0.0699412 0
M  V30 2011 H 225.263 1.69822 -0.852076 0
M  V30 2012 H 223.413 3.86929 0.349012 0
M  V30 2013 H 225.085 4.02362 -2.25616 0
M  V30 2014 H 223.328 3.74933 -2.18193 0
M  V30 2015 H 223.999 5.27987 -1.61039 0
M  V30 2016 H 226.475 4.16079 -0.0417878 0
M  V30 2017 H 225.351 5.47519 0.389157 0
M  V30 2018 H 225.612 4.15303 1.51577 0
M  V30 2019 N 224.671 0.411399 1.52136 0
M  V30 2020 C 225.92 -0.165009 2.01024 0
M  V30 2021 C 226.233 -1.4603 1.30133 0
M  V30 2022 O 227.439 -2.1181 1.69849 0
M  V30 2023 C 225.895 -0.344618 3.58246 0
M  V30 2024 C 225.503 0.938716 4.38055 0
M  V30 2025 C 227.247 -0.876195 4.15359 0
M  V30 2026 C 225.154 0.726172 5.86925 0
M  V30 2027 H 224.084 -0.0654407 0.751155 0
M  V30 2028 H 226.735 0.537192 1.75461 0
M  V30 2029 H 225.117 -1.10921 3.80148 0
M  V30 2030 H 226.291 1.70963 4.27912 0
M  V30 2031 H 224.606 1.39688 3.92271 0
M  V30 2032 H 227.203 -1.05128 5.24263 0
M  V30 2033 H 227.546 -1.85152 3.7286 0
M  V30 2034 H 228.079 -0.170607 3.97434 0
M  V30 2035 H 224.818 1.67312 6.33788 0
M  V30 2036 H 224.338 -0.00540283 5.998 0
M  V30 2037 H 226.017 0.369231 6.45946 0
M  V30 2038 N 226.149 -1.5696 0.141893 0
M  V30 2039 C 227.079 -2.19516 -0.795936 0
M  V30 2040 C 228.06 -1.14187 -1.26077 0
M  V30 2041 O 229.245 -1.42511 -1.31925 0
M  V30 2042 C 226.375 -2.81272 -2.03723 0
M  V30 2043 C 225.329 -3.92384 -1.70936 0
M  V30 2044 C 224.655 -4.41052 -3.02287 0
M  V30 2045 C 225.955 -5.13403 -0.959954 0
M  V30 2046 H 227.649 -2.98138 -0.274596 0
M  V30 2047 H 225.195 -1.43406 -0.130636 0
M  V30 2048 H 227.148 -3.237 -2.69808 0
M  V30 2049 H 225.872 -1.99973 -2.58221 0
M  V30 2050 H 224.531 -3.50566 -1.07232 0
M  V30 2051 H 224.179 -3.56582 -3.54765 0
M  V30 2052 H 223.879 -5.15993 -2.81114 0
M  V30 2053 H 225.403 -4.86146 -3.69451 0
M  V30 2054 H 226.817 -5.52706 -1.52279 0
M  V30 2055 H 225.214 -5.94073 -0.848357 0
M  V30 2056 H 226.284 -4.84875 0.0492434 0
M  V30 2057 N 227.627 0.131896 -1.57047 0
M  V30 2058 C 228.857 0.855219 -1.88068 0
M  V30 2059 C 229.265 1.74557 -0.729817 0
M  V30 2060 O 228.608 1.81083 0.308962 0
M  V30 2061 C 228.67 1.75119 -3.13964 0
M  V30 2062 C 228.334 1.03646 -4.45091 0
M  V30 2063 C 229.331 0.383276 -5.18485 0
M  V30 2064 C 227.016 1.02148 -4.91804 0
M  V30 2065 C 229.01 -0.275347 -6.36805 0
M  V30 2066 C 226.697 0.359047 -6.10044 0
M  V30 2067 C 227.695 -0.288222 -6.82392 0
M  V30 2068 O 227.383 -0.94011 -7.98384 0
M  V30 2069 H 227.115 0.251864 -0.627328 0
M  V30 2070 H 229.669 0.124782 -2.05021 0
M  V30 2071 H 227.899 2.52295 -2.9306 0
M  V30 2072 H 229.588 2.3478 -3.31109 0
M  V30 2073 H 230.354 0.386562 -4.83457 0
M  V30 2074 H 226.233 1.5147 -4.35405 0
M  V30 2075 H 229.777 -0.781148 -6.93213 0
M  V30 2076 H 225.674 0.35348 -6.44531 0
M  V30 2077 H 226.442 -0.84329 -8.14144 0
M  V30 2078 N 229.106 1.52395 0.401703 0
M  V30 2079 C 230.056 1.72649 1.48917 0
M  V30 2080 C 231.04 0.580436 1.50066 0
M  V30 2081 O 232.232 0.83779 1.55917 0
M  V30 2082 C 229.361 1.88729 2.86769 0
M  V30 2083 C 228.447 3.09228 2.90239 0
M  V30 2084 N 228.838 4.31805 2.63396 0
M  V30 2085 C 227.136 3.09214 3.21408 0
M  V30 2086 C 227.837 5.13326 2.73625 0
M  V30 2087 N 226.813 4.48735 3.06819 0
M  V30 2088 H 230.615 2.65058 1.26971 0
M  V30 2089 H 228.129 1.50528 0.609504 0
M  V30 2090 H 230.126 2.01358 3.65049 0
M  V30 2091 H 228.786 0.975252 3.09708 0
M  V30 2092 H 229.797 4.60154 2.37653 0
M  V30 2093 H 226.474 2.27774 3.49893 0
M  V30 2094 H 227.864 6.21003 2.56524 0
M  V30 2095 N 230.584 -0.659388 1.43143 0
M  V30 2096 C 231.861 -1.41627 1.34912 0
M  V30 2097 C 232.241 -2.11099 -0.00607785 0
M  V30 2098 O 231.589 -2.04353 -1.02236 0
M  V30 2099 C 231.799 -2.40604 2.52805 0
M  V30 2100 C 233.147 -3.04789 2.95616 0
M  V30 2101 O 234.171 -2.50932 2.52807 0
M  V30 2102 O 233.03 -4.02421 3.69756 0
M  V30 2103 H 230.124 -0.63246 0.532844 0
M  V30 2104 H 232.67 -0.686814 1.5518 0
M  V30 2105 H 231.442 -1.88174 3.43083 0
M  V30 2106 H 231.065 -3.21009 2.34604 0
M  V30 2107 N 232.062 -1.29571 -0.897171 0
M  V30 2108 C 233.29 -1.20583 -1.68129 0
M  V30 2109 C 233.705 0.233181 -1.87354 0
M  V30 2110 O 233.062 1.15579 -1.41236 0
M  V30 2111 C 233.113 -1.91772 -3.06441 0
M  V30 2112 O 232.834 -3.30053 -2.88091 0
M  V30 2113 C 234.335 -1.89291 -4.00854 0
M  V30 2114 H 231.555 -0.417826 -0.525036 0
M  V30 2115 H 234.099 -1.70987 -1.12177 0
M  V30 2116 H 232.254 -1.45196 -3.59161 0
M  V30 2117 H 232.668 -3.65942 -3.75748 0
M  V30 2118 H 234.142 -2.43662 -4.95311 0
M  V30 2119 H 234.619 -0.869014 -4.30517 0
M  V30 2120 H 235.225 -2.35622 -3.54066 0
M  V30 2121 N 233.54 1.10788 -1.12088 0
M  V30 2122 C 234.817 1.79136 -0.785476 0
M  V30 2123 C 235.197 1.98246 0.725377 0
M  V30 2124 O 234.545 1.57258 1.65778 0
M  V30 2125 C 234.755 3.12375 -1.55636 0
M  V30 2126 C 236.103 3.8731 -1.74001 0
M  V30 2127 O 237.127 3.22085 -1.52117 0
M  V30 2128 O 235.986 5.04369 -2.10415 0
M  V30 2129 H 233.08 0.776226 -0.285311 0
M  V30 2130 H 235.626 1.1747 -1.2247 0
M  V30 2131 H 234.398 2.93863 -2.5838 0
M  V30 2132 H 234.021 3.81758 -1.11114 0
M  V30 2133 N 235.018 0.912232 1.28515 0
M  V30 2134 C 235.981 0.404223 2.25607 0
M  V30 2135 C 236.981 -0.468602 1.53821 0
M  V30 2136 O 238.171 -0.271873 1.72065 0
M  V30 2137 C 235.303 -0.420653 3.38295 0
M  V30 2138 H 236.496 1.26188 2.7206 0
M  V30 2139 H 234.049 0.691495 1.40171 0
M  V30 2140 H 234.784 -1.29777 2.97201 0
M  V30 2141 H 234.569 0.204935 3.91564 0
M  V30 2142 H 236.059 -0.766971 4.10496 0
M  V30 2143 N 236.496 -1.42363 0.676048 0
M  V30 2144 C 237.773 -1.95183 0.127726 0
M  V30 2145 C 238.153 -1.61641 -1.35777 0
M  V30 2146 O 237.501 -0.913216 -2.09458 0
M  V30 2147 C 237.711 -3.46721 0.398199 0
M  V30 2148 C 239.059 -4.23427 0.315383 0
M  V30 2149 O 240.083 -3.54649 0.332016 0
M  V30 2150 O 238.942 -5.45888 0.25865 0
M  V30 2151 H 236.036 -0.826992 0.00359427 0
M  V30 2152 H 238.582 -1.52184 0.750864 0
M  V30 2153 H 237.354 -3.64344 1.4272 0
M  V30 2154 H 236.977 -3.96769 -0.256885 0
M  V30 2155 N 237.974 -0.419461 -1.51915 0
M  V30 2156 C 239.202 0.152136 -2.0634 0
M  V30 2157 C 239.617 1.37988 -1.28859 0
M  V30 2158 O 238.974 1.79243 -0.343232 0
M  V30 2159 C 239.025 0.492266 -3.58133 0
M  V30 2160 O 238.746 -0.686736 -4.32684 0
M  V30 2161 C 240.247 1.11648 -4.2901 0
M  V30 2162 H 237.467 0.0158325 -0.670813 0
M  V30 2163 H 240.011 -0.593394 -1.95702 0
M  V30 2164 H 238.166 1.18769 -3.68745 0
M  V30 2165 H 238.58 -0.400341 -5.2297 0
M  V30 2166 H 240.054 1.3046 -5.36362 0
M  V30 2167 H 240.531 2.09251 -3.86148 0
M  V30 2168 H 241.137 0.460958 -4.22795 0
M  V30 2169 N 239.452 1.56882 -0.150215 0
M  V30 2170 C 240.415 2.1573 0.774157 0
M  V30 2171 C 241.415 1.0999 1.17298 0
M  V30 2172 O 242.605 1.35613 1.09338 0
M  V30 2173 C 239.737 2.72302 2.05096 0
M  V30 2174 H 240.93 2.98752 0.262201 0
M  V30 2175 H 238.483 1.55985 0.099248 0
M  V30 2176 H 239.218 1.92956 2.6065 0
M  V30 2177 H 239.003 3.49665 1.77416 0
M  V30 2178 H 240.493 3.17632 2.71109 0
M  V30 2179 N 240.93 -0.123565 1.57115 0
M  V30 2180 C 241.86 -1.15309 2.03042 0
M  V30 2181 C 242.841 -1.43454 0.914061 0
M  V30 2182 O 244.026 -1.53973 1.18347 0
M  V30 2183 C 241.156 -2.48043 2.43089 0
M  V30 2184 C 240.11 -2.3437 3.58127 0
M  V30 2185 C 239.436 -3.72026 3.84059 0
M  V30 2186 C 240.736 -1.80804 4.90007 0
M  V30 2187 H 242.43 -0.771102 2.893 0
M  V30 2188 H 239.976 -0.369479 1.39179 0
M  V30 2189 H 241.929 -3.20311 2.73823 0
M  V30 2190 H 240.653 -2.88122 1.53796 0
M  V30 2191 H 239.312 -1.64551 3.27595 0
M  V30 2192 H 238.96 -4.09582 2.91979 0
M  V30 2193 H 238.66 -3.63732 4.6149 0
M  V30 2194 H 240.184 -4.45806 4.1724 0
M  V30 2195 H 241.598 -2.42886 5.19307 0
M  V30 2196 H 239.995 -1.83343 5.71407 0
M  V30 2197 H 241.065 -0.76528 4.78823 0
M  V30 2198 N 242.408 -1.52605 -0.393616 0
M  V30 2199 C 243.633 -1.71592 -1.16495 0
M  V30 2200 C 244.058 -0.43133 -1.83088 0
M  V30 2201 O 243.416 0.612523 -1.7064 0
M  V30 2202 C 243.464 -2.86318 -2.19213 0
M  V30 2203 O 242.568 -2.52969 -3.257 0
M  V30 2204 H 241.909 -0.570734 -0.33935 0
M  V30 2205 H 244.439 -1.99377 -0.459324 0
M  V30 2206 H 244.449 -3.1168 -2.63286 0
M  V30 2207 H 243.124 -3.79511 -1.7013 0
M  V30 2208 H 241.701 -2.38332 -2.86797 0
M  V30 2209 N 243.887 0.651787 -1.4349 0
M  V30 2210 C 244.817 1.77621 -1.51569 0
M  V30 2211 C 245.798 1.66022 -0.370253 0
M  V30 2212 O 246.983 1.85095 -0.587658 0
M  V30 2213 C 244.113 3.16056 -1.43966 0
M  V30 2214 C 243.067 3.4242 -2.56774 0
M  V30 2215 C 242.393 4.8067 -2.34223 0
M  V30 2216 C 243.693 3.37023 -3.99015 0
M  V30 2217 H 245.387 1.71117 -2.45681 0
M  V30 2218 H 242.933 0.821825 -1.18246 0
M  V30 2219 H 244.886 3.94472 -1.48221 0
M  V30 2220 H 243.61 3.23293 -0.463586 0
M  V30 2221 H 242.269 2.66375 -2.51873 0
M  V30 2222 H 241.917 4.84585 -1.34856 0
M  V30 2223 H 241.617 4.9927 -3.09844 0
M  V30 2224 H 243.141 5.61342 -2.40265 0
M  V30 2225 H 244.555 4.05374 -4.05395 0
M  V30 2226 H 242.952 3.67159 -4.74673 0
M  V30 2227 H 244.022 2.3518 -4.2405 0
M  V30 2228 N 245.365 1.30045 0.890287 0
M  V30 2229 C 246.312 1.15976 1.99545 0
M  V30 2230 C 247.282 0.0506202 1.66023 0
M  V30 2231 O 248.467 0.219847 1.89529 0
M  V30 2232 C 245.607 0.852054 3.34416 0
M  V30 2233 C 244.72 2.04255 3.80662 0
M  V30 2234 C 243.855 1.6734 5.04154 0
M  V30 2235 C 242.894 2.82916 5.42794 0
M  V30 2236 N 242.031 2.46333 6.57468 0
M  V30 2237 H 246.871 2.10524 2.10911 0
M  V30 2238 H 244.408 1.04749 1.03276 0
M  V30 2239 H 246.366 0.654296 4.12037 0
M  V30 2240 H 244.996 -0.0565502 3.2275 0
M  V30 2241 H 244.048 2.35172 2.98995 0
M  V30 2242 H 245.36 2.90826 4.05242 0
M  V30 2243 H 244.514 1.43908 5.89386 0
M  V30 2244 H 243.253 0.779308 4.81433 0
M  V30 2245 H 242.258 3.0702 4.56091 0
M  V30 2246 H 243.483 3.73004 5.6749 0
M  V30 2247 H 241.429 1.59423 6.36334 0
M  V30 2248 H 241.346 3.26436 6.81891 0
M  V30 2249 H 242.614 2.26244 7.45945 0
M  V30 2250 N 246.843 -1.10192 1.12674 0
M  V30 2251 C 248.12 -1.78717 0.794965 0
M  V30 2252 C 248.5 -1.98628 -0.714853 0
M  V30 2253 O 247.848 -1.58135 -1.64941 0
M  V30 2254 C 248.058 -3.11546 1.5729 0
M  V30 2255 C 249.406 -3.86382 1.76052 0
M  V30 2256 O 250.43 -3.21274 1.53823 0
M  V30 2257 O 249.289 -5.03246 2.13087 0
M  V30 2258 H 246.383 -0.774702 0.289423 0
M  V30 2259 H 248.929 -1.16819 1.23091 0
M  V30 2260 H 247.701 -2.92489 2.59935 0
M  V30 2261 H 247.324 -3.81164 1.13137 0
M  V30 2262 N 248.321 -0.919034 -1.28029 0
M  V30 2263 C 249.254 -0.355887 -2.25408 0
M  V30 2264 C 250.232 0.542874 -1.5327 0
M  V30 2265 O 251.416 0.485338 -1.82145 0
M  V30 2266 C 248.543 0.490759 -3.35126 0
M  V30 2267 C 247.589 -0.343358 -4.25116 0
M  V30 2268 S 248.422 -1.75344 -5.05979 0
M  V30 2269 C 249.578 -0.914244 -6.19187 0
M  V30 2270 H 249.811 -1.18123 -2.72826 0
M  V30 2271 H 247.344 -0.720636 -1.36551 0
M  V30 2272 H 249.302 0.973404 -3.98792 0
M  V30 2273 H 247.963 1.29054 -2.86363 0
M  V30 2274 H 247.156 0.304266 -5.03081 0
M  V30 2275 H 246.758 -0.759851 -3.662 0
M  V30 2276 H 249.05 -0.146282 -6.77342 0
M  V30 2277 H 249.993 -1.66661 -6.88208 0
M  V30 2278 H 250.401 -0.460082 -5.62622 0
M  V30 2279 N 249.799 1.42003 -0.683588 0
M  V30 2280 C 251.045 2.01712 -0.209825 0
M  V30 2281 C 251.378 1.53968 1.18353 0
M  V30 2282 O 250.653 0.745661 1.79639 0
M  V30 2283 C 250.936 3.59202 -0.254197 0
M  V30 2284 C 250.789 4.17102 -1.68363 0
M  V30 2285 C 252.108 4.38344 0.392709 0
M  V30 2286 H 249.227 0.732891 -0.0777189 0
M  V30 2287 H 251.869 1.68909 -0.87004 0
M  V30 2288 H 250.019 3.87278 0.307954 0
M  V30 2289 H 251.691 3.99946 -2.29871 0
M  V30 2290 H 249.934 3.72597 -2.22157 0
M  V30 2291 H 250.605 5.26249 -1.6663 0
M  V30 2292 H 253.081 4.16011 -0.0859162 0
M  V30 2293 H 251.957 5.47901 0.331063 0
M  V30 2294 H 252.218 4.16887 1.47164 0
M  V30 2295 N 251.277 0.427512 1.51691 0
M  V30 2296 C 252.505 -0.141191 2.06418 0
M  V30 2297 C 252.92 -1.37303 1.29589 0
M  V30 2298 O 252.277 -1.79059 0.352732 0
M  V30 2299 C 252.328 -0.473266 3.58389 0
M  V30 2300 O 252.049 0.709673 4.32314 0
M  V30 2301 C 253.55 -1.09371 4.29596 0
M  V30 2302 H 250.77 -0.0122747 0.670888 0
M  V30 2303 H 253.314 0.603764 1.95384 0
M  V30 2304 H 251.469 -1.16812 3.69369 0
M  V30 2305 H 251.883 0.42807 5.2275 0
M  V30 2306 H 253.357 -1.27613 5.37046 0
M  V30 2307 H 253.834 -2.072 3.87253 0
M  V30 2308 H 254.44 -0.43853 4.23033 0
M  V30 2309 N 252.755 -1.56801 0.158532 0
M  V30 2310 C 253.687 -2.14488 -0.807923 0
M  V30 2311 C 254.7 -1.09721 -1.20271 0
M  V30 2312 O 255.889 -1.36956 -1.14478 0
M  V30 2313 C 252.989 -2.66217 -2.09718 0
M  V30 2314 C 252.162 -3.95507 -1.86796 0
M  V30 2315 C 251.221 -4.3243 -2.99818 0
M  V30 2316 O 250.247 -5.00543 -2.71008 0
M  V30 2317 N 251.449 -3.92947 -4.27285 0
M  V30 2318 H 254.214 -2.98042 -0.314816 0
M  V30 2319 H 251.775 -1.61881 -0.0246692 0
M  V30 2320 H 253.767 -2.87924 -2.84398 0
M  V30 2321 H 252.337 -1.87324 -2.50257 0
M  V30 2322 H 251.557 -3.82309 -0.96089 0
M  V30 2323 H 252.845 -4.79972 -1.68833 0
M  V30 2324 H 252.243 -3.38087 -4.53557 0
M  V30 2325 H 250.8 -4.19681 -4.9871 0
M  V30 2326 N 254.233 0.115231 -1.57178 0
M  V30 2327 C 255.18 1.14115 -2.00615 0
M  V30 2328 C 256.15 1.40939 -0.878941 0
M  V30 2329 O 257.335 1.52741 -1.14345 0
M  V30 2330 C 254.475 2.46156 -2.4187 0
M  V30 2331 C 253.588 2.26236 -3.68024 0
M  V30 2332 C 252.723 3.51534 -3.98243 0
M  V30 2333 C 251.762 3.26787 -5.17568 0
M  V30 2334 N 250.899 4.44298 -5.43639 0
M  V30 2335 H 255.739 0.763743 -2.88047 0
M  V30 2336 H 253.276 0.365615 -1.42484 0
M  V30 2337 H 255.234 3.23189 -2.63827 0
M  V30 2338 H 253.864 2.81783 -1.57475 0
M  V30 2339 H 252.916 1.40102 -3.5366 0
M  V30 2340 H 254.228 2.03929 -4.55208 0
M  V30 2341 H 253.382 4.36984 -4.20868 0
M  V30 2342 H 252.121 3.76876 -3.09541 0
M  V30 2343 H 251.126 2.39729 -4.94783 0
M  V30 2344 H 252.351 3.02812 -6.0785 0
M  V30 2345 H 250.297 4.69754 -4.57895 0
M  V30 2346 H 250.214 4.25109 -6.25154 0
M  V30 2347 H 251.482 5.3087 -5.70786 0
M  V30 2348 N 255.711 1.52812 0.385517 0
M  V30 2349 C 256.659 1.78482 1.49155 0
M  V30 2350 C 257.653 0.652914 1.56312 0
M  V30 2351 O 258.859 0.835464 1.59436 0
M  V30 2352 H 255.234 0.5648 0.496493 0
M  V30 2353 H 257.205 2.71095 1.24699 0
M  V30 2354 C 255.954 1.97378 2.86247 0
M  V30 2355 H 255.277 2.83907 2.81491 0
M  V30 2356 H 256.717 2.19327 3.62866 0
M  V30 2357 C 255.176 0.74728 3.28508 0
M  V30 2358 O 255.706 -0.0736232 4.01633 0
M  V30 2359 N 253.912 0.576396 2.84826 0
M  V30 2360 H 253.459 1.24555 2.25486 0
M  V30 2361 H 253.417 -0.24288 3.1346 0
M  V30 2362 N 257.189 -0.644168 1.43834 0
M  V30 2363 C 258.417 -1.43147 1.49387 0
M  V30 2364 C 258.832 -1.88452 0.114583 0
M  V30 2365 O 258.189 -1.60047 -0.876989 0
M  V30 2366 C 258.24 -2.66046 2.44748 0
M  V30 2367 O 257.961 -2.22633 3.77314 0
M  V30 2368 C 259.462 -3.59311 2.59635 0
M  V30 2369 H 256.682 -0.439447 0.507077 0
M  V30 2370 H 259.226 -0.78895 1.88669 0
M  V30 2371 H 257.381 -3.26418 2.08638 0
M  V30 2372 H 257.795 -3.02216 4.28679 0
M  V30 2373 H 259.269 -4.42187 3.30416 0
M  V30 2374 H 259.746 -4.07259 1.64427 0
M  V30 2375 H 260.352 -3.04816 2.96593 0
M  V30 2376 N 258.668 -1.30515 -0.883378 0
M  V30 2377 C 259.631 -1.1701 -1.97082 0
M  V30 2378 C 260.631 -0.10089 -1.60483 0
M  V30 2379 O 261.821 -0.349127 -1.70666 0
M  V30 2380 C 258.953 -0.793045 -3.31547 0
M  V30 2381 H 260.146 -2.13622 -2.10489 0
M  V30 2382 H 257.699 -1.13935 -1.06998 0
M  V30 2383 H 258.434 0.172499 -3.23841 0
M  V30 2384 H 258.219 -1.56576 -3.5948 0
M  V30 2385 H 259.709 -0.722073 -4.1131 0
M  V30 2386 N 260.146 1.09593 -1.13257 0
M  V30 2387 C 261.371 1.8604 -0.916732 0
M  V30 2388 C 261.796 1.80504 0.529146 0
M  V30 2389 O 261.154 1.18127 1.37534 0
M  V30 2390 C 261.202 3.32017 -1.40703 0
M  V30 2391 O 260.306 4.08141 -0.591153 0
M  V30 2392 H 259.647 0.576943 -0.328683 0
M  V30 2393 H 262.177 1.38405 -1.50682 0
M  V30 2394 H 262.187 3.82865 -1.4099 0
M  V30 2395 H 260.862 3.35361 -2.45979 0
M  V30 2396 H 259.439 3.67084 -0.656005 0
M  V30 2397 N 261.624 0.925811 1.2754 0
M  V30 2398 C 262.849 0.580924 1.99098 0
M  V30 2399 C 263.274 -0.833555 1.68622 0
M  V30 2400 O 262.632 -1.55903 0.925422 0
M  V30 2401 C 262.68 0.811186 3.51358 0
M  V30 2402 O 261.784 -0.124129 4.12213 0
M  V30 2403 H 261.125 0.223873 0.625122 0
M  V30 2404 H 263.655 1.24455 1.62395 0
M  V30 2405 H 263.665 0.72601 4.01489 0
M  V30 2406 H 262.34 1.84227 3.72872 0
M  V30 2407 H 260.917 0.0108006 3.72898 0
M  V30 2408 N 263.102 -1.41638 0.69111 0
M  V30 2409 C 264.35 -2.00902 0.219758 0
M  V30 2410 C 264.671 -1.54994 -1.18329 0
M  V30 2411 O 263.941 -0.778628 -1.79762 0
M  V30 2412 H 262.521 -0.74289 0.0782558 0
M  V30 2413 H 265.183 -1.73327 0.891271 0
M  V30 2414 H 264.279 -3.11224 0.233708 0
M  V30 2415 N 264.58 -0.43555 -1.51462 0
M  V30 2416 C 265.528 0.391205 -2.29287 0
M  V30 2417 C 266.522 1.02247 -1.35062 0
M  V30 2418 O 267.728 0.957646 -1.52411 0
M  V30 2419 H 264.103 0.144968 -0.737895 0
M  V30 2420 H 266.074 -0.286051 -2.97026 0
M  V30 2421 C 264.823 1.48096 -3.14583 0
M  V30 2422 H 264.146 1.00457 -3.86973 0
M  V30 2423 H 265.586 2.03273 -3.72097 0
M  V30 2424 C 264.045 2.46321 -2.29843 0
M  V30 2425 O 264.575 3.50815 -1.95682 0
M  V30 2426 N 262.781 2.17166 -1.931 0
M  V30 2427 H 262.328 1.32218 -2.21079 0
M  V30 2428 H 262.286 2.83127 -1.36698 0
M  V30 2429 N 266.058 1.56714 -0.166846 0
M  V30 2430 C 267.288 2.00828 0.48494 0
M  V30 2431 C 267.696 1.04612 1.57648 0
M  V30 2432 O 267.039 0.0383201 1.8366 0
M  V30 2433 C 267.101 3.4137 1.12723 0
M  V30 2434 C 266.765 4.56654 0.177886 0
M  V30 2435 C 267.762 5.16402 -0.60207 0
M  V30 2436 C 265.447 5.02244 0.0750139 0
M  V30 2437 C 267.441 6.20167 -1.47215 0
M  V30 2438 C 265.128 6.05859 -0.798649 0
M  V30 2439 C 266.126 6.64691 -1.57082 0
M  V30 2440 O 265.814 7.66297 -2.42989 0
M  V30 2441 H 265.546 0.663587 0.128953 0
M  V30 2442 H 268.1 2.03692 -0.264365 0
M  V30 2443 H 266.33 3.35406 1.92457 0
M  V30 2444 H 268.019 3.69466 1.68076 0
M  V30 2445 H 268.785 4.82065 -0.53274 0
M  V30 2446 H 264.664 4.56167 0.665812 0
M  V30 2447 H 268.208 6.66016 -2.07531 0
M  V30 2448 H 264.105 6.39621 -0.869199 0
M  V30 2449 H 264.873 7.83601 -2.36455 0
M  V30 2450 N 267.536 -0.106894 1.57237 0
M  V30 2451 C 268.766 -0.825191 1.89405 0
M  V30 2452 C 269.174 -1.73374 0.757496 0
M  V30 2453 O 268.517 -1.81552 -0.280115 0
M  V30 2454 C 268.579 -1.70102 3.1671 0
M  V30 2455 C 268.243 -0.965523 4.46684 0
M  V30 2456 C 269.24 -0.300741 5.19029 0
M  V30 2457 C 266.925 -0.943105 4.93367 0
M  V30 2458 C 268.919 0.376622 6.36286 0
M  V30 2459 C 266.606 -0.261949 6.10538 0
M  V30 2460 C 267.604 0.396748 6.81847 0
M  V30 2461 O 267.292 1.06701 7.96787 0
M  V30 2462 H 267.024 -0.241852 0.631255 0
M  V30 2463 H 269.578 -0.0921491 2.05193 0
M  V30 2464 H 267.808 -2.47601 2.97036 0
M  V30 2465 H 269.497 -2.29483 3.34802 0
M  V30 2466 H 270.263 -0.309599 4.84011 0
M  V30 2467 H 266.142 -1.44524 4.3776 0
M  V30 2468 H 269.686 0.891334 6.91882 0
M  V30 2469 H 265.583 -0.250896 6.45012 0
M  V30 2470 H 266.351 0.972707 8.127 0
M  V30 2471 N 269.014 -1.53014 -0.377408 0
M  V30 2472 C 270.261 -1.68623 -1.12128 0
M  V30 2473 C 270.589 -0.431997 -1.89642 0
M  V30 2474 O 269.844 0.585855 -1.86725 0
M  V30 2475 C 270.143 -2.87982 -2.11663 0
M  V30 2476 C 269.809 -4.24964 -1.50719 0
M  V30 2477 C 268.471 -4.62217 -1.33825 0
M  V30 2478 C 270.823 -5.10199 -1.06519 0
M  V30 2479 C 268.151 -5.82352 -0.712963 0
M  V30 2480 C 270.503 -6.30969 -0.453955 0
M  V30 2481 C 269.167 -6.66944 -0.272411 0
M  V30 2482 H 268.437 -0.617034 -0.410305 0
M  V30 2483 H 271.084 -1.8718 -0.404484 0
M  V30 2484 H 269.389 -2.63889 -2.89603 0
M  V30 2485 H 271.086 -2.97253 -2.6915 0
M  V30 2486 H 267.676 -3.95626 -1.64858 0
M  V30 2487 H 271.86 -4.81978 -1.18368 0
M  V30 2488 H 267.116 -6.08824 -0.560611 0
M  V30 2489 H 271.29 -6.96324 -0.103217 0
M  V30 2490 H 268.917 -7.59898 0.214181 0
M  V30 2491 N 270.492 0.636531 -1.44174 0
M  V30 2492 C 271.741 1.39213 -1.45954 0
M  V30 2493 C 272.054 1.95374 -0.0939119 0
M  V30 2494 O 273.26 2.71498 0.0107767 0
M  V30 2495 C 271.716 2.52025 -2.56927 0
M  V30 2496 C 271.324 2.024 -3.99673 0
M  V30 2497 C 273.068 3.29269 -2.67922 0
M  V30 2498 C 270.975 3.12521 -5.0208 0
M  V30 2499 H 269.905 0.523132 -0.542999 0
M  V30 2500 H 272.556 0.685349 -1.70221 0
M  V30 2501 H 270.938 3.25253 -2.25891 0
M  V30 2502 H 272.112 1.36073 -4.40251 0
M  V30 2503 H 270.427 1.37987 -3.92872 0
M  V30 2504 H 273.024 4.11352 -3.41605 0
M  V30 2505 H 273.367 3.78397 -1.73555 0
M  V30 2506 H 273.9 2.63129 -2.98342 0
M  V30 2507 H 270.639 2.68343 -5.98057 0
M  V30 2508 H 270.159 3.77507 -4.66099 0
M  V30 2509 H 271.838 3.77385 -5.25538 0
M  V30 2510 N 271.97 1.30982 0.876444 0
M  V30 2511 C 273.381 1.18277 1.44456 0
M  V30 2512 C 273.732 -0.213265 1.95037 0
M  V30 2513 O 272.857 -1.11057 1.85729 0
M  V30 2514 C 273.452 2.1411 2.62569 0
M  V30 2515 C 272.011 2.05358 3.15444 0
M  V30 2516 C 271.158 2.03706 1.88146 0
M  V30 2517 H 274.109 1.43127 0.685584 0
M  V30 2518 H 274.13 1.72692 3.39054 0
M  V30 2519 H 273.642 3.15706 2.25724 0
M  V30 2520 H 271.743 1.06934 3.56926 0
M  V30 2521 H 271.856 2.94156 3.78166 0
M  V30 2522 H 270.22 1.48629 2.06837 0
M  V30 2523 H 271.003 3.07047 1.53547 0
M  V30 2524 N 273.449 -1.08991 1.13837 0
M  V30 2525 C 274.679 -1.84743 0.924859 0
M  V30 2526 C 275.087 -1.81629 -0.529874 0
M  V30 2527 O 274.43 -1.21397 -1.37872 0
M  V30 2528 C 274.492 -3.33568 1.34061 0
M  V30 2529 C 274.156 -3.60425 2.80968 0
M  V30 2530 C 275.153 -3.55771 3.79108 0
M  V30 2531 C 272.838 -3.88627 3.18236 0
M  V30 2532 C 274.832 -3.78939 5.12527 0
M  V30 2533 C 272.519 -4.11449 4.51833 0
M  V30 2534 C 273.517 -4.06598 5.48787 0
M  V30 2535 O 273.205 -4.28826 6.79973 0
M  V30 2536 H 272.937 -0.590258 0.329502 0
M  V30 2537 H 275.491 -1.38598 1.51591 0
M  V30 2538 H 273.721 -3.80442 0.692853 0
M  V30 2539 H 275.41 -3.90743 1.09886 0
M  V30 2540 H 276.176 -3.34005 3.51661 0
M  V30 2541 H 272.055 -3.91526 2.43369 0
M  V30 2542 H 275.599 -3.75068 5.88192 0
M  V30 2543 H 271.496 -4.32698 4.79002 0
M  V30 2544 H 272.264 -4.46264 6.86142 0
M  V30 2545 N 274.927 -0.932562 -1.27047 0
M  V30 2546 C 276.176 -0.571351 -1.93439 0
M  V30 2547 C 276.489 0.892467 -1.74053 0
M  V30 2548 O 277.695 1.36267 -2.34826 0
M  V30 2549 C 276.151 -0.97106 -3.46552 0
M  V30 2550 C 275.759 -2.4559 -3.74686 0
M  V30 2551 C 277.503 -0.681333 -4.18997 0
M  V30 2552 C 275.41 -2.79475 -5.21198 0
M  V30 2553 H 274.34 -0.209966 -0.724176 0
M  V30 2554 H 276.991 -1.13403 -1.44263 0
M  V30 2555 H 275.373 -0.336983 -3.94564 0
M  V30 2556 H 276.547 -3.13829 -3.37414 0
M  V30 2557 H 274.862 -2.71802 -3.15456 0
M  V30 2558 H 277.459 -0.910939 -5.26883 0
M  V30 2559 H 277.802 0.381628 -4.14547 0
M  V30 2560 H 278.335 -1.27473 -3.76823 0
M  V30 2561 H 275.074 -3.847 -5.30741 0
M  V30 2562 H 274.594 -2.1589 -5.596 0
M  V30 2563 H 276.273 -2.67478 -5.89122 0
M  V30 2564 N 276.405 1.4127 -0.698611 0
M  V30 2565 C 277.651 2.01478 -0.231207 0
M  V30 2566 C 277.984 1.55215 1.16713 0
M  V30 2567 O 277.259 0.764672 1.78838 0
M  V30 2568 C 277.542 3.58912 -0.292281 0
M  V30 2569 C 277.395 4.15293 -1.72778 0
M  V30 2570 C 278.714 4.38736 0.346194 0
M  V30 2571 H 275.833 0.732025 -0.0854878 0
M  V30 2572 H 278.475 1.67977 -0.887906 0
M  V30 2573 H 276.625 3.87582 0.26686 0
M  V30 2574 H 278.297 3.97486 -2.341 0
M  V30 2575 H 276.54 3.7022 -2.26096 0
M  V30 2576 H 277.211 5.24452 -1.72202 0
M  V30 2577 H 279.687 4.15897 -0.130035 0
M  V30 2578 H 278.563 5.48221 0.272932 0
M  V30 2579 H 278.824 4.18425 1.42734 0
M  V30 2580 N 277.883 0.443576 1.51229 0
M  V30 2581 C 279.111 -0.11929 2.06556 0
M  V30 2582 C 279.526 -1.35921 1.31038 0
M  V30 2583 O 278.883 -1.78675 0.371704 0
M  V30 2584 C 278.934 -0.435228 3.5887 0
M  V30 2585 O 278.655 0.755486 4.31537 0
M  V30 2586 C 280.156 -1.04808 4.30732 0
M  V30 2587 H 277.376 -0.0051584 0.67098 0
M  V30 2588 H 279.92 0.624453 1.94733 0
M  V30 2589 H 278.075 -1.12887 3.70588 0
M  V30 2590 H 278.489 0.483491 5.22267 0
M  V30 2591 H 279.963 -1.2191 5.3837 0
M  V30 2592 H 280.44 -2.03081 3.89429 0
M  V30 2593 H 281.046 -0.393637 4.23474 0
M  V30 2594 N 279.361 -1.56624 0.175154 0
M  V30 2595 C 280.772 -1.83561 -0.340916 0
M  V30 2596 C 281.123 -1.09511 -1.62794 0
M  V30 2597 O 280.248 -0.349389 -2.13561 0
M  V30 2598 C 280.843 -3.32979 -0.625313 0
M  V30 2599 C 279.402 -3.60399 -1.08581 0
M  V30 2600 C 278.549 -2.77024 -0.123722 0
M  V30 2601 H 281.5 -1.53593 0.399344 0
M  V30 2602 H 281.521 -3.50666 -1.47694 0
M  V30 2603 H 281.033 -3.86847 0.311575 0
M  V30 2604 H 279.134 -3.11945 -2.03767 0
M  V30 2605 H 279.247 -4.68711 -0.992317 0
M  V30 2606 H 277.611 -2.46993 -0.621821 0
M  V30 2607 H 278.394 -3.33674 0.807256 0
M  V30 2608 N 280.839 0.0985539 -1.57292 0
M  V30 2609 C 282.079 0.808332 -1.87737 0
M  V30 2610 C 282.443 1.7607 -0.76572 0
M  V30 2611 O 283.644 2.51358 -0.952499 0
M  V30 2612 C 281.915 1.52093 -3.23423 0
M  V30 2613 S 283.474 2.26947 -3.75554 0
M  V30 2614 H 280.292 0.269377 -0.657995 0
M  V30 2615 H 282.894 0.0656269 -1.9539 0
M  V30 2616 H 281.598 0.81363 -4.02254 0
M  V30 2617 H 281.129 2.30361 -3.189 0
M  V30 2618 H 283.144 3.53027 -3.48692 0
M  V30 2619 N 282.317 1.53212 0.369288 0
M  V30 2620 C 283.28 1.7872 1.43498 0
M  V30 2621 C 284.28 0.657554 1.46741 0
M  V30 2622 O 285.47 0.925736 1.47566 0
M  V30 2623 C 282.602 1.90591 2.82645 0
M  V30 2624 H 283.795 2.73894 1.22156 0
M  V30 2625 H 281.348 1.44233 0.602203 0
M  V30 2626 H 282.083 0.974709 3.09306 0
M  V30 2627 H 281.868 2.72751 2.8169 0
M  V30 2628 H 283.358 2.11931 3.59826 0
M  V30 2629 N 283.795 -0.628877 1.44509 0
M  V30 2630 C 285.072 -1.38733 1.37886 0
M  V30 2631 C 285.452 -2.11065 0.0387008 0
M  V30 2632 O 284.8 -2.06476 -0.97878 0
M  V30 2633 C 285.01 -2.35188 2.57852 0
M  V30 2634 C 286.358 -2.9845 3.02014 0
M  V30 2635 O 287.382 -2.45513 2.58073 0
M  V30 2636 O 286.241 -3.94487 3.78209 0
M  V30 2637 H 283.335 -0.621015 0.54614 0
M  V30 2638 H 285.881 -0.653744 1.56602 0
M  V30 2639 H 284.653 -1.80855 3.46998 0
M  V30 2640 H 284.276 -3.1596 2.4136 0
M  V30 2641 N 285.273 -1.31445 -0.869486 0
M  V30 2642 C 286.503 -1.23942 -1.65294 0
M  V30 2643 C 286.911 0.197561 -1.88166 0
M  V30 2644 O 286.254 1.14019 -1.44033 0
M  V30 2645 C 286.316 -1.91385 -3.04322 0
M  V30 2646 C 285.98 -3.40726 -3.04557 0
M  V30 2647 C 286.977 -4.36464 -2.82481 0
M  V30 2648 C 284.662 -3.82425 -3.25663 0
M  V30 2649 C 286.656 -5.71876 -2.8149 0
M  V30 2650 C 284.343 -5.1795 -3.243 0
M  V30 2651 C 285.341 -6.12486 -3.02241 0
M  V30 2652 O 285.029 -7.45534 -3.00724 0
M  V30 2653 H 284.761 -0.429459 -0.522054 0
M  V30 2654 H 287.315 -1.73873 -1.0935 0
M  V30 2655 H 285.545 -1.36004 -3.61994 0
M  V30 2656 H 287.234 -1.77791 -3.64891 0
M  V30 2657 H 288 -4.05576 -2.65956 0
M  V30 2658 H 283.879 -3.09274 -3.41863 0
M  V30 2659 H 287.423 -6.45638 -2.64191 0
M  V30 2660 H 283.32 -5.48473 -3.40365 0
M  V30 2661 H 284.088 -7.54713 -3.16782 0
M  V30 2662 N 286.751 1.08385 -1.14413 0
M  V30 2663 C 287.998 1.80776 -0.912482 0
M  V30 2664 C 288.326 1.86236 0.560934 0
M  V30 2665 O 287.581 1.33431 1.43159 0
M  V30 2666 C 287.88 3.26273 -1.45879 0
M  V30 2667 C 287.546 3.4093 -2.95089 0
M  V30 2668 C 286.208 3.44638 -3.35824 0
M  V30 2669 C 288.56 3.44591 -3.91033 0
M  V30 2670 C 285.888 3.49597 -4.71167 0
M  V30 2671 C 288.24 3.51086 -5.26233 0
M  V30 2672 C 286.904 3.53067 -5.6648 0
M  V30 2673 H 286.174 0.661507 -0.333901 0
M  V30 2674 H 288.821 1.27613 -1.42784 0
M  V30 2675 H 287.126 3.82146 -0.864376 0
M  V30 2676 H 288.823 3.80839 -1.2555 0
M  V30 2677 H 285.413 3.38736 -2.62594 0
M  V30 2678 H 289.597 3.40957 -3.60641 0
M  V30 2679 H 284.853 3.49424 -5.0171 0
M  V30 2680 H 289.027 3.52864 -6.00383 0
M  V30 2681 H 286.654 3.56662 -6.71339 0
M  V30 2682 N 288.23 0.939286 1.26551 0
M  V30 2683 C 289.47 0.5933 1.956 0
M  V30 2684 C 289.834 -0.851515 1.72085 0
M  V30 2685 O 291.035 -1.30634 2.34921 0
M  V30 2686 C 289.306 0.923996 3.45249 0
M  V30 2687 S 290.865 0.688269 4.33369 0
M  V30 2688 H 287.683 0.218591 0.676564 0
M  V30 2689 H 290.285 1.2102 1.5354 0
M  V30 2690 H 288.989 1.97297 3.59864 0
M  V30 2691 H 288.52 0.296746 3.92279 0
M  V30 2692 H 290.535 -0.448434 4.9417 0
M  V30 2693 N 289.708 -1.40897 0.706093 0
M  V30 2694 C 290.948 -2.02916 0.245827 0
M  V30 2695 C 291.312 -1.54751 -1.13649 0
M  V30 2696 O 292.513 -2.08768 -1.69321 0
M  V30 2697 C 290.784 -3.56031 0.312537 0
M  V30 2698 S 292.343 -4.38741 -0.0721388 0
M  V30 2699 H 289.161 -0.704186 0.0982007 0
M  V30 2700 H 291.763 -1.72168 0.926207 0
M  V30 2701 H 290.467 -3.88579 1.32039 0
M  V30 2702 H 289.998 -3.91495 -0.386641 0
M  V30 2703 H 292.013 -4.78952 -1.29692 0
M  V30 2704 N 291.186 -0.45159 -1.50991 0
M  V30 2705 C 292.096 0.358431 -2.31846 0
M  V30 2706 C 293.112 1.01438 -1.41373 0
M  V30 2707 O 294.288 1.00663 -1.74439 0
M  V30 2708 C 291.353 1.43704 -3.15515 0
M  V30 2709 C 290.414 0.799742 -4.21785 0
M  V30 2710 C 289.647 1.82696 -5.01456 0
M  V30 2711 O 289.87 3.05105 -4.81941 0
M  V30 2712 O 288.804 1.40958 -5.85162 0
M  V30 2713 H 292.63 -0.302032 -3.02194 0
M  V30 2714 H 290.215 -0.213825 -1.47862 0
M  V30 2715 H 292.097 2.06227 -3.67489 0
M  V30 2716 H 290.772 2.08133 -2.47916 0
M  V30 2717 H 289.679 0.136084 -3.73852 0
M  V30 2718 H 291.012 0.198718 -4.91799 0
M  V30 2719 N 292.664 1.56529 -0.183458 0
M  V30 2720 C 293.889 2.02064 0.467428 0
M  V30 2721 C 294.314 1.06282 1.55196 0
M  V30 2722 O 293.672 0.0443565 1.81246 0
M  V30 2723 C 293.72 3.46122 1.01153 0
M  V30 2724 O 292.824 3.53437 2.12499 0
M  V30 2725 H 292.165 0.654726 0.110588 0
M  V30 2726 H 294.695 2.02521 -0.290917 0
M  V30 2727 H 294.705 3.85676 1.33108 0
M  V30 2728 H 293.38 4.15331 0.217533 0
M  V30 2729 H 291.957 3.2575 1.81497 0
M  V30 2730 N 294.142 -0.090211 1.57342 0
M  V30 2731 C 295.419 -0.824761 1.77361 0
M  V30 2732 C 295.799 -1.96698 0.76637 0
M  V30 2733 O 295.147 -2.27586 -0.204179 0
M  V30 2734 C 295.357 -1.31481 3.23286 0
M  V30 2735 C 296.705 -1.75563 3.86604 0
M  V30 2736 O 297.729 -1.41093 3.27065 0
M  V30 2737 O 296.588 -2.39317 4.91314 0
M  V30 2738 H 293.682 -0.393776 0.727234 0
M  V30 2739 H 296.228 -0.0717138 1.69548 0
M  V30 2740 H 295 -0.496671 3.88135 0
M  V30 2741 H 294.623 -2.12973 3.35751 0
M  V30 2742 N 295.62 -1.53406 -0.361157 0
M  V30 2743 C 296.583 -1.79479 -1.42548 0
M  V30 2744 C 297.583 -0.665327 -1.4639 0
M  V30 2745 O 298.773 -0.933549 -1.47073 0
M  V30 2746 C 295.905 -1.92087 -2.8163 0
M  V30 2747 H 297.098 -2.74538 -1.20701 0
M  V30 2748 H 294.651 -1.4455 -0.594546 0
M  V30 2749 H 295.386 -0.991099 -3.08784 0
M  V30 2750 H 295.171 -2.74241 -2.80239 0
M  V30 2751 H 296.661 -2.13836 -3.58697 0
M  V30 2752 N 297.098 0.621204 -1.44841 0
M  V30 2753 C 298.03 1.74615 -1.48466 0
M  V30 2754 C 299.043 1.58377 -0.37691 0
M  V30 2755 O 300.232 1.66508 -0.643215 0
M  V30 2756 C 297.332 3.12459 -1.31236 0
M  V30 2757 C 296.505 3.55064 -2.55438 0
M  V30 2758 C 295.564 4.71821 -2.32963 0
M  V30 2759 O 294.59 4.79628 -3.06505 0
M  V30 2760 N 295.792 5.64186 -1.36654 0
M  V30 2761 H 298.557 1.71973 -2.45449 0
M  V30 2762 H 296.118 0.806077 -1.40407 0
M  V30 2763 H 298.11 3.88302 -1.14032 0
M  V30 2764 H 296.68 3.09686 -0.4258 0
M  V30 2765 H 295.9 2.69324 -2.87851 0
M  V30 2766 H 297.188 3.80284 -3.38026 0
M  V30 2767 H 296.586 5.6058 -0.759344 0
M  V30 2768 H 295.143 6.39618 -1.25425 0
M  V30 2769 N 298.576 1.31904 0.862503 0
M  V30 2770 C 299.992 1.10724 1.14945 0
M  V30 2771 C 300.192 -0.117421 2.01158 0
M  V30 2772 O 299.248 -0.804595 2.39338 0
M  V30 2773 C 300.561 2.38267 1.83437 0
M  V30 2774 C 302.109 2.43949 1.96106 0
M  V30 2775 C 302.584 3.71394 2.68013 0
M  V30 2776 N 304.075 3.72331 2.75543 0
M  V30 2777 C 304.81 4.67641 3.31812 0
M  V30 2778 N 304.306 5.73313 3.88953 0
M  V30 2779 N 306.099 4.5515 3.29841 0
M  V30 2780 H 298.25 2.10436 0.288191 0
M  V30 2781 H 300.513 0.928705 0.190292 0
M  V30 2782 H 300.219 3.27759 1.27542 0
M  V30 2783 H 300.093 2.48633 2.83657 0
M  V30 2784 H 302.48 1.54922 2.51164 0
M  V30 2785 H 302.561 2.37543 0.949059 0
M  V30 2786 H 302.205 4.60791 2.13621 0
M  V30 2787 H 302.135 3.75069 3.69636 0
M  V30 2788 H 304.626 2.95947 2.34997 0
M  V30 2789 H 304.939 6.42107 4.30022 0
M  V30 2790 H 303.284 5.77077 3.87308 0
M  V30 2791 H 306.475 3.71766 2.84443 0
M  V30 2792 H 306.648 5.29604 3.73394 0
M  V30 2793 N 300.054 -1.07777 1.14986 0
M  V30 2794 C 301.47 -1.32373 0.891596 0
M  V30 2795 C 301.67 -1.9609 -0.463788 0
M  V30 2796 O 300.726 -2.21801 -1.20667 0
M  V30 2797 C 302.039 -2.21905 2.02925 0
M  V30 2798 C 303.587 -2.35367 2.06329 0
M  V30 2799 C 304.062 -3.28245 3.19405 0
M  V30 2800 N 305.553 -3.35824 3.19024 0
M  V30 2801 C 306.288 -4.07739 4.03158 0
M  V30 2802 N 305.784 -4.82306 4.97346 0
M  V30 2803 N 307.577 -4.03635 3.91197 0
M  V30 2804 H 299.728 -0.648039 2.02273 0
M  V30 2805 H 301.991 -0.348149 0.881757 0
M  V30 2806 H 301.697 -1.82342 3.0074 0
M  V30 2807 H 301.571 -3.22407 1.95789 0
M  V30 2808 H 303.958 -2.74186 1.09116 0
M  V30 2809 H 304.039 -1.34585 2.17533 0
M  V30 2810 H 303.683 -2.90146 4.16867 0
M  V30 2811 H 303.613 -4.28971 3.05437 0
M  V30 2812 H 306.104 -2.8267 2.50811 0
M  V30 2813 H 306.417 -5.34661 5.57994 0
M  V30 2814 H 304.762 -4.81337 5.01338 0
M  V30 2815 H 307.953 -3.44491 3.16928 0
M  V30 2816 H 308.126 -4.59417 4.5699 0
M  V30 2817 N 301.532 -0.945985 -1.26051 0
M  V30 2818 C 302.495 -0.463897 -2.24456 0
M  V30 2819 C 303.495 0.427655 -1.55009 0
M  V30 2820 O 304.685 0.226157 -1.72726 0
M  V30 2821 C 301.817 0.330812 -3.39291 0
M  V30 2822 H 303.01 -1.33357 -2.68619 0
M  V30 2823 H 300.563 -0.728416 -1.38289 0
M  V30 2824 H 301.298 1.21852 -3.00537 0
M  V30 2825 H 301.083 -0.308679 -3.90883 0
M  V30 2826 H 302.573 0.657865 -4.12386 0
M  V30 2827 N 303.011 1.40521 -0.713556 0
M  V30 2828 C 304.236 2.05759 -0.26035 0
M  V30 2829 C 304.661 1.53403 1.08854 0
M  V30 2830 O 304.019 0.668535 1.68524 0
M  V30 2831 C 304.067 3.59745 -0.248122 0
M  V30 2832 O 303.171 4.05123 0.77131 0
M  V30 2833 H 302.512 0.652564 -0.122703 0
M  V30 2834 H 305.042 1.79958 -0.973467 0
M  V30 2835 H 305.052 4.07911 -0.0851129 0
M  V30 2836 H 303.727 3.97218 -1.2325 0
M  V30 2837 H 302.304 3.68422 0.57619 0
M  V30 2838 N 304.489 0.459591 1.5075 0
M  V30 2839 C 305.399 -0.34613 2.32033 0
M  V30 2840 C 306.415 -1.00686 1.41909 0
M  V30 2841 O 307.591 -0.997361 1.7497 0
M  V30 2842 C 304.656 -1.42029 3.16273 0
M  V30 2843 C 303.717 -0.777362 4.22203 0
M  V30 2844 C 302.95 -1.80034 5.02418 0
M  V30 2845 O 303.173 -3.02544 4.83553 0
M  V30 2846 O 302.107 -1.37853 5.85901 0
M  V30 2847 H 305.933 0.318054 3.0203 0
M  V30 2848 H 303.518 0.221663 1.47746 0
M  V30 2849 H 305.4 -2.04275 3.68578 0
M  V30 2850 H 304.075 -2.06815 2.49016 0
M  V30 2851 H 302.982 -0.116256 3.73919 0
M  V30 2852 H 304.315 -0.172634 4.91897 0
M  V30 2853 N 305.967 -1.56429 0.191757 0
M  V30 2854 C 307.197 -2.01574 -0.452928 0
M  V30 2855 C 307.605 -1.07107 -1.55964 0
M  V30 2856 O 306.948 -0.067534 -1.83576 0
M  V30 2857 C 307.01 -3.43121 -1.07278 0
M  V30 2858 C 306.674 -4.56879 -0.105214 0
M  V30 2859 C 307.671 -5.15379 0.684149 0
M  V30 2860 C 305.356 -5.023 0.00489824 0
M  V30 2861 C 307.35 -6.17746 1.57062 0
M  V30 2862 C 305.037 -6.04511 0.894935 0
M  V30 2863 C 306.035 -6.62108 1.67637 0
M  V30 2864 O 305.723 -7.62335 2.55149 0
M  V30 2865 H 305.455 -0.665554 -0.118379 0
M  V30 2866 H 308.009 -2.03245 0.296737 0
M  V30 2867 H 306.239 -3.38425 -1.87097 0
M  V30 2868 H 307.928 -3.72093 -1.62177 0
M  V30 2869 H 308.694 -4.81157 0.609365 0
M  V30 2870 H 304.573 -4.57168 -0.593156 0
M  V30 2871 H 308.117 -6.6263 2.181 0
M  V30 2872 H 304.014 -6.38157 0.970847 0
M  V30 2873 H 304.782 -7.79741 2.48892 0
M  V30 2874 N 307.445 0.0818655 -1.57387 0
M  V30 2875 C 308.378 1.12986 -1.98266 0
M  V30 2876 C 309.356 1.38123 -0.857954 0
M  V30 2877 O 310.54 1.51663 -1.1194 0
M  V30 2878 C 307.667 2.47632 -2.31076 0
M  V30 2879 C 306.713 2.38693 -3.53452 0
M  V30 2880 S 307.546 1.79071 -5.04672 0
M  V30 2881 C 308.702 3.15316 -5.40673 0
M  V30 2882 H 308.935 0.781435 -2.86846 0
M  V30 2883 H 306.468 0.290034 -1.51651 0
M  V30 2884 H 308.426 3.25089 -2.50654 0
M  V30 2885 H 307.087 2.79638 -1.43043 0
M  V30 2886 H 306.28 3.37964 -3.73893 0
M  V30 2887 H 305.882 1.69369 -3.33452 0
M  V30 2888 H 308.174 4.11613 -5.38127 0
M  V30 2889 H 309.117 2.99664 -6.41566 0
M  V30 2890 H 309.525 3.15457 -4.68132 0
M  V30 2891 N 308.923 1.53595 0.353017 0
M  V30 2892 C 309.855 1.77219 1.45348 0
M  V30 2893 C 310.868 0.65324 1.49119 0
M  V30 2894 O 312.057 0.929775 1.52373 0
M  V30 2895 C 309.157 1.84841 2.84055 0
M  V30 2896 C 308.33 3.14649 3.03833 0
M  V30 2897 C 307.389 3.13351 4.22727 0
M  V30 2898 O 306.415 3.87107 4.17297 0
M  V30 2899 N 307.617 2.35052 5.30783 0
M  V30 2900 H 310.382 2.72178 1.25457 0
M  V30 2901 H 307.943 1.52528 0.542833 0
M  V30 2902 H 309.935 1.81435 3.61751 0
M  V30 2903 H 308.505 0.971114 2.97133 0
M  V30 2904 H 307.725 3.31256 2.13689 0
M  V30 2905 H 309.013 4.00411 3.13925 0
M  V30 2906 H 308.411 1.74663 5.38061 0
M  V30 2907 H 306.968 2.37453 6.07009 0
M  V30 2908 N 310.401 -0.613514 1.45168 0
M  V30 2909 C 311.812 -1.19539 1.43413 0
M  V30 2910 C 312.163 -1.95558 0.158632 0
M  V30 2911 O 311.288 -2.0335 -0.740119 0
M  V30 2912 C 311.883 -2.17445 2.59813 0
M  V30 2913 C 310.442 -2.71022 2.61197 0
M  V30 2914 C 309.589 -1.46323 2.35552 0
M  V30 2915 H 312.54 -0.403163 1.53494 0
M  V30 2916 H 312.561 -3.00373 2.33574 0
M  V30 2917 H 312.073 -1.62089 3.52631 0
M  V30 2918 H 310.174 -3.30332 1.7237 0
M  V30 2919 H 310.287 -3.15859 3.60236 0
M  V30 2920 H 308.651 -1.75072 1.84992 0
M  V30 2921 H 309.434 -0.92844 3.30507 0
M  V30 2922 N 311.879 -1.3236 -0.855495 0
M  V30 2923 C 312.827 -1.2118 -1.9854 0
M  V30 2924 C 313.821 -0.116788 -1.68997 0
M  V30 2925 O 315.027 -0.279657 -1.77814 0
M  V30 2926 H 311.402 -0.375608 -0.651477 0
M  V30 2927 H 313.373 -2.16743 -2.05098 0
M  V30 2928 C 312.122 -0.950849 -3.34446 0
M  V30 2929 H 311.445 -1.78563 -3.57708 0
M  V30 2930 H 312.885 -0.912863 -4.14057 0
M  V30 2931 C 311.344 0.346404 -3.35114 0
M  V30 2932 O 311.874 1.35855 -3.7803 0
M  V30 2933 N 310.08 0.36808 -2.88259 0
M  V30 2934 H 309.627 -0.456102 -2.5353 0
M  V30 2935 H 309.585 1.23591 -2.89089 0
M  V30 2936 N 313.357 1.07166 -1.15556 0
M  V30 2937 C 314.603 1.80222 -0.942961 0
M  V30 2938 C 314.958 1.85121 0.524209 0
M  V30 2939 O 314.251 1.32531 1.38369 0
M  V30 2940 C 314.445 3.24707 -1.49332 0
M  V30 2941 C 314.274 3.33887 -3.01247 0
M  V30 2942 C 313.044 3.44337 -3.69811 0
M  V30 2943 C 315.242 3.24484 -3.99017 0
M  V30 2944 N 313.224 3.42439 -5.09518 0
M  V30 2945 C 314.595 3.29726 -5.25053 0
M  V30 2946 C 316.65 3.08307 -3.90962 0
M  V30 2947 C 315.353 3.20455 -6.43973 0
M  V30 2948 C 317.379 3.00371 -5.09442 0
M  V30 2949 C 316.741 3.06227 -6.34354 0
M  V30 2950 H 312.84 0.672709 -0.398731 0
M  V30 2951 H 315.424 1.27905 -1.46794 0
M  V30 2952 H 313.595 3.7544 -0.994946 0
M  V30 2953 H 315.327 3.85894 -1.21935 0
M  V30 2954 H 312.082 3.48762 -3.20409 0
M  V30 2955 H 312.506 3.45013 -5.8249 0
M  V30 2956 H 317.148 3.02633 -2.95251 0
M  V30 2957 H 314.866 3.24888 -7.39914 0
M  V30 2958 H 318.452 2.88955 -5.04971 0
M  V30 2959 H 317.332 3.00132 -7.24493 0
M  V30 2960 N 314.835 0.952656 1.25548 0
M  V30 2961 C 316.112 0.523818 1.88456 0
M  V30 2962 C 316.492 -0.998871 1.85973 0
M  V30 2963 O 315.84 -1.86381 1.3219 0
M  V30 2964 C 316.05 1.0982 3.31271 0
M  V30 2965 C 317.398 1.17385 4.08051 0
M  V30 2966 O 318.422 1.04961 3.40384 0
M  V30 2967 O 317.281 1.36852 5.29088 0
M  V30 2968 H 314.375 0.172485 0.808813 0
M  V30 2969 H 316.921 1.04596 1.33633 0
M  V30 2970 H 315.693 2.1415 3.27499 0
M  V30 2971 H 315.316 0.559191 3.93648 0
M  V30 2972 N 316.313 -1.40141 0.720998 0
M  V30 2973 C 317.261 -2.3252 0.0608547 0
M  V30 2974 C 318.255 -1.52326 -0.741152 0
M  V30 2975 O 319.461 -1.68089 -0.643911 0
M  V30 2976 H 315.836 -0.751999 0.000876664 0
M  V30 2977 H 317.807 -2.8584 0.856614 0
M  V30 2978 C 316.556 -3.37331 -0.842809 0
M  V30 2979 H 315.879 -3.99108 -0.235084 0
M  V30 2980 H 317.319 -4.04452 -1.27257 0
M  V30 2981 C 315.778 -2.73246 -1.97074 0
M  V30 2982 O 316.308 -2.59998 -3.06209 0
M  V30 2983 N 314.514 -2.31547 -1.75597 0
M  V30 2984 H 314.061 -2.42522 -0.868368 0
M  V30 2985 H 314.019 -1.89007 -2.51244 0
M  V30 2986 N 317.792 -0.46758 -1.50504 0
M  V30 2987 C 319.041 0.0902868 -2.01498 0
M  V30 2988 C 319.354 1.411 -1.35463 0
M  V30 2989 O 320.56 2.0536 -1.77594 0
M  V30 2990 C 319.016 0.21142 -3.59278 0
M  V30 2991 C 318.624 -1.10065 -4.34269 0
M  V30 2992 C 320.368 0.721433 -4.18325 0
M  V30 2993 C 318.275 -0.943505 -5.83825 0
M  V30 2994 H 317.205 0.037517 -0.753066 0
M  V30 2995 H 319.856 -0.601943 -1.73346 0
M  V30 2996 H 318.238 0.967352 -3.84003 0
M  V30 2997 H 319.412 -1.86726 -4.21272 0
M  V30 2998 H 317.727 -1.5415 -3.86816 0
M  V30 2999 H 320.324 0.85598 -5.27804 0
M  V30 3000 H 320.667 1.71186 -3.79475 0
M  V30 3001 H 321.2 0.0229843 -3.97793 0
M  V30 3002 H 317.939 -1.90719 -6.27141 0
M  V30 3003 H 317.459 -0.217213 -5.99407 0
M  V30 3004 H 319.138 -0.608715 -6.4413 0
M  V30 3005 N 319.27 1.56325 -0.20005 0
M  V30 3006 C 320.2 2.22318 0.713916 0
M  V30 3007 C 321.181 1.18788 1.21752 0
M  V30 3008 O 322.366 1.47309 1.26545 0
M  V30 3009 C 319.496 2.88639 1.93144 0
M  V30 3010 C 318.45 3.98457 1.56255 0
M  V30 3011 C 317.776 4.51967 2.85709 0
M  V30 3012 C 319.076 5.16612 0.768747 0
M  V30 3013 H 320.77 2.98952 0.163755 0
M  V30 3014 H 318.316 1.43792 0.0773219 0
M  V30 3015 H 320.269 3.33491 2.57608 0
M  V30 3016 H 318.993 2.09419 2.50621 0
M  V30 3017 H 317.652 3.54305 0.941471 0
M  V30 3018 H 317.3 3.69503 3.41287 0
M  V30 3019 H 317 5.26071 2.6177 0
M  V30 3020 H 318.524 4.99523 3.51154 0
M  V30 3021 H 319.938 5.57977 1.3166 0
M  V30 3022 H 318.335 5.96812 0.627286 0
M  V30 3023 H 319.405 4.84358 -0.229168 0
M  V30 3024 N 320.748 -0.0735177 1.57428 0
M  V30 3025 C 321.996 -0.771472 1.86796 0
M  V30 3026 C 322.317 -1.78201 0.791804 0
M  V30 3027 O 321.587 -1.95074 -0.179718 0
M  V30 3028 H 320.167 -0.28791 0.689287 0
M  V30 3029 H 322.829 -0.0500161 1.94836 0
M  V30 3030 H 321.925 -1.28874 2.8425 0
M  V30 3031 N 322.226 -1.5378 -0.344866 0
M  V30 3032 C 323.637 -1.62428 -0.920552 0
M  V30 3033 C 323.988 -0.504747 -1.89596 0
M  V30 3034 O 323.113 0.365711 -2.13287 0
M  V30 3035 C 323.708 -2.94419 -1.67639 0
M  V30 3036 C 322.267 -3.05333 -2.20111 0
M  V30 3037 C 321.414 -2.57866 -1.01982 0
M  V30 3038 H 324.365 -1.58222 -0.123042 0
M  V30 3039 H 324.386 -2.83384 -2.53917 0
M  V30 3040 H 323.898 -3.7588 -0.966224 0
M  V30 3041 H 321.999 -2.28502 -2.94308 0
M  V30 3042 H 322.112 -4.10778 -2.46573 0
M  V30 3043 H 320.476 -2.13241 -1.39285 0
M  V30 3044 H 321.259 -3.41765 -0.324308 0
M  V30 3045 N 323.704 0.605807 -1.45491 0
M  V30 3046 C 324.634 1.72709 -1.57143 0
M  V30 3047 C 325.615 1.6476 -0.422884 0
M  V30 3048 O 326.8 1.83132 -0.646247 0
M  V30 3049 C 323.93 3.11316 -1.53948 0
M  V30 3050 C 322.884 3.34077 -2.67537 0
M  V30 3051 C 322.21 4.72975 -2.49397 0
M  V30 3052 C 323.51 3.24158 -4.09535 0
M  V30 3053 H 325.204 1.63214 -2.51001 0
M  V30 3054 H 322.75 0.78379 -1.208 0
M  V30 3055 H 324.703 3.89557 -1.60696 0
M  V30 3056 H 323.427 3.21655 -0.566205 0
M  V30 3057 H 322.086 2.58227 -2.6022 0
M  V30 3058 H 321.734 4.8005 -1.50205 0
M  V30 3059 H 321.434 4.8916 -3.25571 0
M  V30 3060 H 322.958 5.53414 -2.58002 0
M  V30 3061 H 324.372 3.92271 -4.18086 0
M  V30 3062 H 322.769 3.51872 -4.86113 0
M  V30 3063 H 323.839 2.2157 -4.31317 0
M  V30 3064 N 325.182 1.32811 0.848464 0
M  V30 3065 C 326.422 1.25046 1.61687 0
M  V30 3066 C 326.786 -0.183464 1.91121 0
M  V30 3067 O 327.987 -0.384937 2.66029 0
M  V30 3068 C 326.258 2.09201 2.89775 0
M  V30 3069 S 327.817 2.18526 3.80515 0
M  V30 3070 H 324.635 0.445023 0.554505 0
M  V30 3071 H 327.237 1.67733 1.00429 0
M  V30 3072 H 325.941 3.12433 2.66108 0
M  V30 3073 H 325.472 1.67315 3.56047 0
M  V30 3074 H 327.487 1.3393 4.77784 0
M  V30 3075 N 326.66 -1.06551 1.16123 0
M  V30 3076 C 327.593 -2.13382 0.80892 0
M  V30 3077 C 328.571 -1.61128 -0.21827 0
M  V30 3078 O 329.755 -1.88219 -0.102952 0
M  V30 3079 C 326.882 -3.38083 0.204303 0
M  V30 3080 C 325.928 -4.09133 1.20469 0
M  V30 3081 S 326.761 -4.5948 2.75024 0
M  V30 3082 C 327.917 -5.87446 2.16005 0
M  V30 3083 H 328.15 -2.42937 1.71373 0
M  V30 3084 H 325.683 -1.18947 0.984428 0
M  V30 3085 H 327.641 -4.10268 -0.138081 0
M  V30 3086 H 326.302 -3.0669 -0.678234 0
M  V30 3087 H 325.495 -4.98685 0.730019 0
M  V30 3088 H 325.097 -3.4295 1.49202 0
M  V30 3089 H 327.389 -6.60065 1.5271 0
M  V30 3090 H 328.332 -6.39639 3.03756 0
M  V30 3091 H 328.74 -5.41354 1.59989 0
M  V30 3092 N 328.138 -0.959301 -1.25041 0
M  V30 3093 C 329.549 -0.65667 -1.74771 0
M  V30 3094 C 329.9 0.827852 -1.77879 0
M  V30 3095 O 329.025 1.64783 -1.40269 0
M  V30 3096 C 329.62 -1.1853 -3.1739 0
M  V30 3097 C 328.179 -0.932734 -3.6466 0
M  V30 3098 C 327.326 -1.32558 -2.43564 0
M  V30 3099 H 330.277 -1.13558 -1.10862 0
M  V30 3100 H 330.298 -0.547582 -3.76539 0
M  V30 3101 H 329.81 -2.26576 -3.15095 0
M  V30 3102 H 327.911 0.13257 -3.72364 0
M  V30 3103 H 328.024 -1.57248 -4.52559 0
M  V30 3104 H 326.388 -0.743956 -2.43593 0
M  V30 3105 H 327.171 -2.41537 -2.43957 0
M  V30 3106 N 329.616 1.39756 -0.72842 0
M  V30 3107 C 330.546 2.33289 -0.0991354 0
M  V30 3108 C 331.527 1.53568 0.731489 0
M  V30 3109 O 332.712 1.81987 0.677807 0
M  V30 3110 C 329.842 3.3763 0.813834 0
M  V30 3111 C 328.796 4.2791 0.0878663 0
M  V30 3112 C 328.122 5.22894 1.11741 0
M  V30 3113 C 329.422 5.11314 -1.06563 0
M  V30 3114 H 331.116 2.86163 -0.880408 0
M  V30 3115 H 328.662 1.37591 -0.424819 0
M  V30 3116 H 330.615 4.0201 1.26355 0
M  V30 3117 H 329.339 2.83181 1.62715 0
M  V30 3118 H 327.998 3.65 -0.342159 0
M  V30 3119 H 327.646 4.64744 1.92412 0
M  V30 3120 H 327.346 5.84143 0.636477 0
M  V30 3121 H 328.87 5.90151 1.56697 0
M  V30 3122 H 330.284 5.69076 -0.694671 0
M  V30 3123 H 328.681 5.81671 -1.47577 0
M  V30 3124 H 329.751 4.46534 -1.89038 0
M  V30 3125 N 331.094 0.475555 1.50254 0
M  V30 3126 C 332.34 -0.0780073 2.0265 0
M  V30 3127 C 332.673 -1.38968 1.35652 0
M  V30 3128 O 331.948 -1.8839 0.483691 0
M  V30 3129 C 332.231 -0.257161 3.59181 0
M  V30 3130 C 332.084 1.07585 4.36744 0
M  V30 3131 C 333.403 -1.00965 4.28362 0
M  V30 3132 H 330.522 -0.0268758 0.73651 0
M  V30 3133 H 333.164 0.622015 1.7953 0
M  V30 3134 H 331.314 -0.853412 3.79011 0
M  V30 3135 H 332.986 1.70902 4.28474 0
M  V30 3136 H 331.229 1.6714 4.00308 0
M  V30 3137 H 331.9 0.904088 5.44546 0
M  V30 3138 H 334.376 -0.504214 4.13034 0
M  V30 3139 H 333.252 -1.10381 5.37687 0
M  V30 3140 H 333.513 -2.04731 3.91839 0
M  V30 3141 N 332.573 -1.56217 0.208337 0
M  V30 3142 C 333.85 -1.89739 -0.475234 0
M  V30 3143 C 334.23 -1.1238 -1.78701 0
M  V30 3144 O 333.578 -0.228979 -2.2735 0
M  V30 3145 C 333.788 -3.42289 -0.681101 0
M  V30 3146 C 335.136 -4.12789 -0.994507 0
M  V30 3147 O 336.16 -3.47814 -0.768357 0
M  V30 3148 O 335.019 -5.27649 -1.42299 0
M  V30 3149 H 332.113 -0.788478 -0.249461 0
M  V30 3150 H 334.659 -1.67855 0.249538 0
M  V30 3151 H 333.431 -3.90534 0.244722 0
M  V30 3152 H 333.054 -3.69909 -1.45785 0
M  V30 3153 N 334.051 0.0651679 -1.57465 0
M  V30 3154 C 335.467 0.420105 -1.53972 0
M  V30 3155 C 335.667 1.78782 -0.929474 0
M  V30 3156 O 334.723 2.46771 -0.534839 0
M  V30 3157 C 336.036 0.355084 -2.98596 0
M  V30 3158 C 337.584 0.434792 -3.09965 0
M  V30 3159 C 338.059 0.399609 -4.56253 0
M  V30 3160 N 339.55 0.459488 -4.60915 0
M  V30 3161 C 340.285 0.454584 -5.71595 0
M  V30 3162 N 339.781 0.404102 -6.9162 0
M  V30 3163 N 341.574 0.501635 -5.59857 0
M  V30 3164 H 333.725 -0.830328 -1.95498 0
M  V30 3165 H 335.988 -0.312244 -0.895102 0
M  V30 3166 H 335.694 -0.583357 -3.46828 0
M  V30 3167 H 335.568 1.16275 -3.58831 0
M  V30 3168 H 337.955 1.36366 -2.61703 0
M  V30 3169 H 338.036 -0.40157 -2.52628 0
M  V30 3170 H 337.68 -0.525436 -5.05175 0
M  V30 3171 H 337.61 1.25359 -5.11461 0
M  V30 3172 H 340.101 0.502482 -3.74544 0
M  V30 3173 H 340.414 0.404468 -7.71741 0
M  V30 3174 H 338.759 0.37069 -6.94011 0
M  V30 3175 H 341.95 0.538812 -4.64989 0
M  V30 3176 H 342.123 0.494345 -6.46112 0
M  V30 3177 N 335.529 1.53961 0.336706 0
M  V30 3178 C 336.776 1.71536 1.07618 0
M  V30 3179 C 337.104 0.482125 1.8843 0
M  V30 3180 O 336.359 -0.536142 1.88213 0
M  V30 3181 C 336.658 2.93493 2.03953 0
M  V30 3182 C 336.324 4.28811 1.39399 0
M  V30 3183 C 334.986 4.65602 1.21523 0
M  V30 3184 C 337.338 5.12844 0.929541 0
M  V30 3185 C 334.666 5.84037 0.558312 0
M  V30 3186 C 337.018 6.31951 0.286505 0
M  V30 3187 C 335.682 6.67432 0.0954869 0
M  V30 3188 H 334.952 0.627696 0.393801 0
M  V30 3189 H 337.599 1.88186 0.354715 0
M  V30 3190 H 335.904 2.71475 2.82504 0
M  V30 3191 H 337.601 3.04285 2.61174 0
M  V30 3192 H 334.191 3.99858 1.54311 0
M  V30 3193 H 338.375 4.84947 1.05548 0
M  V30 3194 H 333.631 6.10097 0.398995 0
M  V30 3195 H 337.805 6.96352 -0.0814376 0
M  V30 3196 H 335.432 7.59063 -0.415579 0
M  V30 3197 N 337.007 -0.598083 1.45811 0
M  V30 3198 C 338.256 -1.35295 1.49594 0
M  V30 3199 C 338.569 -1.95057 0.145679 0
M  V30 3200 O 339.775 -2.71431 0.0612099 0
M  V30 3201 C 338.231 -2.45124 2.63519 0
M  V30 3202 C 337.839 -1.91732 4.04899 0
M  V30 3203 C 339.583 -3.2205 2.76558 0
M  V30 3204 C 337.49 -2.991 5.1019 0
M  V30 3205 H 336.42 -0.508552 0.556679 0
M  V30 3206 H 339.071 -0.639977 1.71978 0
M  V30 3207 H 337.453 -3.19149 2.34435 0
M  V30 3208 H 338.627 -1.24352 4.43704 0
M  V30 3209 H 336.942 -1.27522 3.96393 0
M  V30 3210 H 339.539 -4.0215 3.52391 0
M  V30 3211 H 339.882 -3.73663 1.83526 0
M  V30 3212 H 340.415 -2.55127 3.05213 0
M  V30 3213 H 337.154 -2.52393 6.04961 0
M  V30 3214 H 336.674 -3.65017 4.75944 0
M  V30 3215 H 338.353 -3.63318 5.35359 0
M  V30 3216 N 338.485 -1.33259 -0.841409 0
M  V30 3217 C 339.71 -1.2775 -1.63385 0
M  V30 3218 C 340.135 0.149188 -1.87507 0
M  V30 3219 O 339.493 1.10498 -1.43736 0
M  V30 3220 C 339.541 -2.05571 -2.96265 0
M  V30 3221 O 338.645 -1.41257 -3.87453 0
M  V30 3222 H 337.986 -0.439627 -0.497618 0
M  V30 3223 H 340.516 -1.75782 -1.04699 0
M  V30 3224 H 340.526 -2.16241 -3.45982 0
M  V30 3225 H 339.201 -3.09309 -2.7803 0
M  V30 3226 H 337.778 -1.39217 -3.45938 0
M  V30 3227 N 339.963 1.05934 -1.16686 0
M  V30 3228 C 340.893 2.1546 -0.899949 0
M  V30 3229 C 341.874 1.69391 0.155154 0
M  V30 3230 O 343.059 1.94199 0.00648693 0
M  V30 3231 C 340.189 3.44939 -0.404241 0
M  V30 3232 C 339.143 4.04536 -1.39767 0
M  V30 3233 C 338.469 5.29268 -0.760216 0
M  V30 3234 C 339.769 4.42893 -2.76845 0
M  V30 3235 H 341.463 2.38046 -1.81588 0
M  V30 3236 H 339.009 1.14404 -0.874514 0
M  V30 3237 H 340.962 4.20901 -0.204971 0
M  V30 3238 H 339.686 3.21983 0.547206 0
M  V30 3239 H 338.345 3.30635 -1.58355 0
M  V30 3240 H 337.993 5.02611 0.197831 0
M  V30 3241 H 337.693 5.70101 -1.42332 0
M  V30 3242 H 339.217 6.07924 -0.57105 0
M  V30 3243 H 340.631 5.09921 -2.62019 0
M  V30 3244 H 339.028 4.94721 -3.39663 0
M  V30 3245 H 340.098 3.53584 -3.31823 0
M  V30 3246 N 341.441 0.965919 1.2453 0
M  V30 3247 C 342.371 0.513476 2.27784 0
M  V30 3248 C 343.352 -0.445974 1.6415 0
M  V30 3249 O 344.537 -0.342485 1.91156 0
M  V30 3250 C 341.667 -0.198839 3.4673 0
M  V30 3251 C 340.621 0.676456 4.2262 0
M  V30 3252 C 339.947 -0.167248 5.34438 0
M  V30 3253 C 341.247 1.96017 4.84123 0
M  V30 3254 H 342.941 1.3765 2.65881 0
M  V30 3255 H 340.487 0.663321 1.27813 0
M  V30 3256 H 342.44 -0.526567 4.18097 0
M  V30 3257 H 341.164 -1.0962 3.07654 0
M  V30 3258 H 339.823 0.98743 3.53052 0
M  V30 3259 H 339.471 -1.0647 4.91603 0
M  V30 3260 H 339.171 0.415181 5.86131 0
M  V30 3261 H 340.695 -0.489688 6.08633 0
M  V30 3262 H 342.109 1.69814 5.47573 0
M  V30 3263 H 340.506 2.48918 5.4604 0
M  V30 3264 H 341.576 2.65622 4.05676 0
M  V30 3265 N 342.919 -1.39368 0.735821 0
M  V30 3266 C 343.866 -2.30599 0.0963825 0
M  V30 3267 C 344.836 -1.49257 -0.728794 0
M  V30 3268 O 346.021 -1.77941 -0.688588 0
M  V30 3269 C 343.161 -3.35596 -0.804305 0
M  V30 3270 C 342.274 -4.31987 0.0335761 0
M  V30 3271 C 341.409 -5.24053 -0.868461 0
M  V30 3272 C 340.448 -6.12095 -0.0258776 0
M  V30 3273 N 339.585 -6.96514 -0.883893 0
M  V30 3274 H 344.425 -2.8471 0.880002 0
M  V30 3275 H 341.962 -1.40188 0.445619 0
M  V30 3276 H 343.92 -3.95062 -1.34096 0
M  V30 3277 H 342.55 -2.82938 -1.55389 0
M  V30 3278 H 341.602 -3.74133 0.68766 0
M  V30 3279 H 342.914 -4.94074 0.685036 0
M  V30 3280 H 342.068 -5.88549 -1.47293 0
M  V30 3281 H 340.807 -4.62289 -1.5537 0
M  V30 3282 H 339.812 -5.4661 0.591386 0
M  V30 3283 H 341.037 -6.75923 0.656156 0
M  V30 3284 H 338.983 -6.37318 -1.55441 0
M  V30 3285 H 338.9 -7.55448 -0.288931 0
M  V30 3286 H 340.168 -7.65439 -1.4739 0
M  V30 3287 N 344.397 -0.483516 -1.5 0
M  V30 3288 C 345.674 0.129337 -1.95172 0
M  V30 3289 C 346.054 1.55802 -1.4244 0
M  V30 3290 O 345.402 2.19625 -0.630649 0
M  V30 3291 C 345.612 0.0599251 -3.48949 0
M  V30 3292 C 346.96 0.242617 -4.23906 0
M  V30 3293 O 347.984 0.135933 -3.55941 0
M  V30 3294 O 346.843 0.459454 -5.44565 0
M  V30 3295 H 343.937 0.104887 -0.820322 0
M  V30 3296 H 346.483 -0.544807 -1.60717 0
M  V30 3297 H 345.255 -0.937079 -3.79914 0
M  V30 3298 H 344.878 0.774984 -3.89974 0
M  V30 3299 N 345.875 1.56104 -0.216619 0
M  V30 3300 C 347.124 1.97348 0.416744 0
M  V30 3301 C 347.437 1.10715 1.6125 0
M  V30 3302 O 348.643 1.41836 2.31506 0
M  V30 3303 C 347.099 3.51059 0.792835 0
M  V30 3304 C 346.707 4.46387 -0.379828 0
M  V30 3305 C 348.451 4.01026 1.39208 0
M  V30 3306 C 346.358 5.91397 0.0184223 0
M  V30 3307 H 345.288 0.736942 0.159475 0
M  V30 3308 H 347.939 1.80827 -0.31205 0
M  V30 3309 H 346.321 3.63162 1.57891 0
M  V30 3310 H 347.495 4.46029 -1.15737 0
M  V30 3311 H 345.81 4.06734 -0.891979 0
M  V30 3312 H 348.407 5.0686 1.70286 0
M  V30 3313 H 348.75 3.46587 2.30614 0
M  V30 3314 H 349.283 3.92125 0.669537 0
M  V30 3315 H 346.022 6.49807 -0.862002 0
M  V30 3316 H 345.542 5.94961 0.760384 0
M  V30 3317 H 347.221 6.45455 0.446818 0
M  V30 3318 N 347.353 -0.0568162 1.57498 0
M  V30 3319 C 348.303 -1.07315 2.01166 0
M  V30 3320 C 349.287 -1.33632 0.896171 0
M  V30 3321 O 350.479 -1.33682 1.16009 0
M  V30 3322 C 347.608 -2.38257 2.47161 0
M  V30 3323 C 346.694 -2.1515 3.65474 0
M  V30 3324 N 347.085 -1.62014 4.7915 0
M  V30 3325 C 345.383 -2.45559 3.72313 0
M  V30 3326 C 346.084 -1.54069 5.60926 0
M  V30 3327 N 345.06 -2.00652 5.05213 0
M  V30 3328 H 348.862 -0.655878 2.86488 0
M  V30 3329 H 346.376 -0.263635 1.60246 0
M  V30 3330 H 348.373 -3.11845 2.76691 0
M  V30 3331 H 347.033 -2.80687 1.63232 0
M  V30 3332 H 348.044 -1.30667 5.01145 0
M  V30 3333 H 344.721 -2.91253 2.99129 0
M  V30 3334 H 346.111 -1.13712 6.62208 0
M  V30 3335 N 348.832 -1.54138 -0.328536 0
M  V30 3336 C 350.078 -1.7236 -1.06865 0
M  V30 3337 C 350.411 -0.493231 -1.87832 0
M  V30 3338 O 349.686 0.5098 -1.877 0
M  V30 3339 C 349.969 -2.99621 -1.99747 0
M  V30 3340 C 349.822 -4.32899 -1.22143 0
M  V30 3341 C 351.141 -3.22615 -2.99345 0
M  V30 3342 H 348.26 -0.627151 -0.387105 0
M  V30 3343 H 350.902 -1.86827 -0.345767 0
M  V30 3344 H 349.052 -2.87418 -2.61387 0
M  V30 3345 H 350.724 -4.56978 -0.630017 0
M  V30 3346 H 348.967 -4.30628 -0.523628 0
M  V30 3347 H 349.638 -5.18154 -1.90318 0
M  V30 3348 H 352.114 -3.34248 -2.47826 0
M  V30 3349 H 350.99 -4.13027 -3.61524 0
M  V30 3350 H 351.251 -2.3961 -3.71536 0
M  V30 3351 N 350.31 0.590341 -1.46126 0
M  V30 3352 C 351.538 1.37504 -1.54597 0
M  V30 3353 C 351.953 1.87897 -0.184447 0
M  V30 3354 O 351.31 1.63192 0.816984 0
M  V30 3355 C 351.361 2.56779 -2.54454 0
M  V30 3356 O 351.082 2.08476 -3.85317 0
M  V30 3357 C 352.583 3.49427 -2.72792 0
M  V30 3358 H 349.803 0.420325 -0.523037 0
M  V30 3359 H 352.347 0.718383 -1.91467 0
M  V30 3360 H 350.502 3.1845 -2.20609 0
M  V30 3361 H 350.916 2.86097 -4.396 0
M  V30 3362 H 352.39 4.29619 -3.466 0
M  V30 3363 H 352.867 4.00876 -1.79429 0
M  V30 3364 H 353.473 2.93598 -3.07702 0
M  V30 3365 N 351.788 1.33704 0.83433 0
M  V30 3366 C 353.013 1.28615 1.62705 0
M  V30 3367 C 353.438 -0.139242 1.87584 0
M  V30 3368 O 352.796 -1.09734 1.4432 0
M  V30 3369 C 352.844 2.07139 2.95171 0
M  V30 3370 O 351.948 1.4331 3.86699 0
M  V30 3371 H 351.289 0.44226 0.49528 0
M  V30 3372 H 353.819 1.76335 1.03766 0
M  V30 3373 H 353.829 2.18073 3.44831 0
M  V30 3374 H 352.504 3.10779 2.76386 0
M  V30 3375 H 351.081 1.4105 3.45195 0
M  V30 3376 N 353.266 -1.05314 1.17247 0
M  V30 3377 C 354.506 -1.79869 0.970898 0
M  V30 3378 C 354.87 -1.85594 -0.491808 0
M  V30 3379 O 356.071 -2.56229 -0.812409 0
M  V30 3380 C 354.342 -3.19937 1.59295 0
M  V30 3381 S 355.901 -4.10986 1.53741 0
M  V30 3382 H 352.719 -0.61949 0.348931 0
M  V30 3383 H 355.321 -1.26368 1.49169 0
M  V30 3384 H 354.025 -3.13372 2.65003 0
M  V30 3385 H 353.556 -3.78515 1.07191 0
M  V30 3386 H 355.571 -4.93203 0.544537 0
M  V30 3387 N 354.744 -0.972509 -1.24016 0
M  V30 3388 C 355.99 -0.637978 -1.92504 0
M  V30 3389 C 356.323 0.825383 -1.75787 0
M  V30 3390 O 355.598 1.59442 -1.11393 0
M  V30 3391 C 355.881 -1.01942 -3.45369 0
M  V30 3392 C 355.734 -2.53983 -3.71231 0
M  V30 3393 C 357.053 -0.55751 -4.36555 0
M  V30 3394 H 354.172 -0.233248 -0.699117 0
M  V30 3395 H 356.814 -1.21238 -1.46292 0
M  V30 3396 H 354.964 -0.530656 -3.84859 0
M  V30 3397 H 356.636 -3.10374 -3.41271 0
M  V30 3398 H 354.879 -2.96968 -3.16216 0
M  V30 3399 H 355.55 -2.75723 -4.78206 0
M  V30 3400 H 358.026 -0.977029 -4.04467 0
M  V30 3401 H 356.902 -0.85292 -5.42233 0
M  V30 3402 H 357.163 0.542328 -4.38761 0
M  V30 3403 N 356.222 1.38976 -0.743202 0
M  V30 3404 C 357.452 2.04339 -0.304807 0
M  V30 3405 C 357.86 1.56162 1.06819 0
M  V30 3406 O 357.203 0.725284 1.68776 0
M  V30 3407 C 357.265 3.58716 -0.237369 0
M  V30 3408 C 356.929 4.29905 -1.55018 0
M  V30 3409 C 357.926 4.55987 -2.49744 0
M  V30 3410 C 355.611 4.68294 -1.81675 0
M  V30 3411 C 357.605 5.19478 -3.69353 0
M  V30 3412 C 355.292 5.31512 -3.0156 0
M  V30 3413 C 356.29 5.57037 -3.9522 0
M  V30 3414 O 355.978 6.18941 -5.12998 0
M  V30 3415 H 355.71 0.663439 -0.12971 0
M  V30 3416 H 358.264 1.78852 -1.01001 0
M  V30 3417 H 356.494 3.83133 0.524003 0
M  V30 3418 H 358.183 4.05543 0.170121 0
M  V30 3419 H 358.949 4.26767 -2.30423 0
M  V30 3420 H 354.828 4.47779 -1.09615 0
M  V30 3421 H 358.372 5.39318 -4.42473 0
M  V30 3422 H 354.269 5.60153 -3.20778 0
M  V30 3423 H 355.037 6.37433 -5.13441 0
M  V30 3424 N 357.7 0.491464 1.49741 0
M  V30 3425 C 358.93 -0.0534375 2.06531 0
M  V30 3426 C 359.338 -1.32233 1.35318 0
M  V30 3427 O 358.681 -1.78781 0.422243 0
M  V30 3428 C 358.743 -0.387034 3.57411 0
M  V30 3429 C 358.407 0.782764 4.50246 0
M  V30 3430 C 359.404 1.67059 4.92329 0
M  V30 3431 C 357.089 0.978866 4.9267 0
M  V30 3432 C 359.083 2.73874 5.75562 0
M  V30 3433 C 356.77 2.05022 5.75682 0
M  V30 3434 C 357.768 2.92851 6.17031 0
M  V30 3435 O 357.456 3.98138 6.98385 0
M  V30 3436 H 357.188 0.0129324 0.675876 0
M  V30 3437 H 359.742 0.685238 1.93633 0
M  V30 3438 H 357.972 -1.17918 3.68283 0
M  V30 3439 H 359.661 -0.869419 3.96479 0
M  V30 3440 H 360.427 1.53086 4.60206 0
M  V30 3441 H 356.306 0.304646 4.59992 0
M  V30 3442 H 359.85 3.42458 6.07757 0
M  V30 3443 H 355.747 2.18993 6.07217 0
M  V30 3444 H 356.515 3.95374 7.16674 0
M  V30 3445 N 359.178 -1.55987 0.224894 0
M  V30 3446 C 360.125 -2.20436 -0.68385 0
M  V30 3447 C 361.095 -1.16102 -1.18783 0
M  V30 3448 O 362.28 -1.4447 -1.24632 0
M  V30 3449 C 359.42 -2.89076 -1.88491 0
M  V30 3450 C 358.533 -4.08012 -1.41951 0
M  V30 3451 C 357.668 -4.64426 -2.5784 0
M  V30 3452 C 356.707 -5.75656 -2.08053 0
M  V30 3453 N 355.844 -6.26347 -3.17227 0
M  V30 3454 H 360.684 -2.97727 -0.12754 0
M  V30 3455 H 358.221 -1.47011 -0.0511978 0
M  V30 3456 H 360.179 -3.27059 -2.59014 0
M  V30 3457 H 358.809 -2.14298 -2.41405 0
M  V30 3458 H 357.861 -3.75492 -0.609095 0
M  V30 3459 H 359.173 -4.88375 -1.01447 0
M  V30 3460 H 358.327 -5.04869 -3.3644 0
M  V30 3461 H 357.066 -3.83233 -3.01635 0
M  V30 3462 H 356.071 -5.34712 -1.27916 0
M  V30 3463 H 357.296 -6.58686 -1.65255 0
M  V30 3464 H 355.242 -5.48067 -3.60497 0
M  V30 3465 H 355.159 -7.01843 -2.80986 0
M  V30 3466 H 356.427 -6.71447 -3.95953 0
M  V30 3467 N 360.656 0.0484629 -1.57525 0
M  V30 3468 C 361.566 1.07241 -2.08654 0
M  V30 3469 C 362.582 1.409 -1.02095 0
M  V30 3470 O 363.758 1.50609 -1.33712 0
M  V30 3471 C 360.823 2.36008 -2.5397 0
M  V30 3472 C 359.884 2.09108 -3.7493 0
M  V30 3473 C 359.117 3.31736 -4.18075 0
M  V30 3474 O 359.34 4.41714 -3.60895 0
M  V30 3475 O 358.274 3.18576 -5.10679 0
M  V30 3476 H 362.1 0.667965 -2.96263 0
M  V30 3477 H 359.685 0.26417 -1.47046 0
M  V30 3478 H 361.567 3.11747 -2.83535 0
M  V30 3479 H 360.242 2.75786 -1.69481 0
M  V30 3480 H 359.149 1.31 -3.50414 0
M  V30 3481 H 360.482 1.74198 -4.60343 0
M  V30 3482 N 362.134 1.5431 0.320358 0
M  V30 3483 C 363.362 1.76636 1.07738 0
M  V30 3484 C 363.777 0.51649 1.81598 0
M  V30 3485 O 363.134 -0.512942 1.75143 0
M  V30 3486 C 363.185 2.96158 2.07299 0
M  V30 3487 O 362.906 4.16313 1.36438 0
M  V30 3488 C 364.407 3.3072 2.95193 0
M  V30 3489 H 361.627 0.589597 0.320339 0
M  V30 3490 H 364.171 2.01207 0.36551 0
M  V30 3491 H 362.326 2.73851 2.74016 0
M  V30 3492 H 362.74 4.83565 2.03138 0
M  V30 3493 H 364.214 4.17643 3.60941 0
M  V30 3494 H 364.691 2.48026 3.62463 0
M  V30 3495 H 365.297 3.55117 2.34034 0
M  V30 3496 N 363.613 -0.582584 1.46437 0
M  V30 3497 C 364.543 -1.70187 1.59871 0
M  V30 3498 C 365.524 -1.64066 0.449042 0
M  V30 3499 O 366.709 -1.82081 0.6753 0
M  V30 3500 C 363.839 -3.08827 1.58881 0
M  V30 3501 C 362.793 -3.29779 2.72819 0
M  V30 3502 C 362.119 -4.68947 2.5689 0
M  V30 3503 C 363.419 -3.17601 4.1464 0
M  V30 3504 H 365.113 -1.592 2.53566 0
M  V30 3505 H 362.659 -0.764472 1.22032 0
M  V30 3506 H 364.612 -3.86951 1.66873 0
M  V30 3507 H 363.336 -3.20713 0.617306 0
M  V30 3508 H 361.995 -2.54054 2.64296 0
M  V30 3509 H 361.643 -4.77599 1.57823 0
M  V30 3510 H 361.343 -4.83919 3.33312 0
M  V30 3511 H 362.867 -5.4924 2.66773 0
M  V30 3512 H 364.281 -3.8557 4.24274 0
M  V30 3513 H 362.678 -3.44094 4.9165 0
M  V30 3514 H 363.748 -2.14681 4.34788 0
M  V30 3515 N 365.091 -1.34144 -0.827227 0
M  V30 3516 C 366.021 -1.28005 -1.95287 0
M  V30 3517 C 367.002 -0.158321 -1.69362 0
M  V30 3518 O 368.187 -0.349987 -1.9102 0
M  V30 3519 C 365.317 -1.03036 -3.31664 0
M  V30 3520 C 364.271 -2.11628 -3.72019 0
M  V30 3521 C 363.597 -1.71854 -5.0633 0
M  V30 3522 C 364.897 -3.53417 -3.8457 0
M  V30 3523 H 366.591 -2.22187 -2.00682 0
M  V30 3524 H 364.137 -1.0696 -0.964135 0
M  V30 3525 H 366.09 -0.973863 -4.09993 0
M  V30 3526 H 364.814 -0.0529391 -3.26557 0
M  V30 3527 H 363.473 -2.16339 -2.95961 0
M  V30 3528 H 363.121 -0.727841 -4.97706 0
M  V30 3529 H 362.821 -2.44531 -5.34302 0
M  V30 3530 H 364.345 -1.67692 -5.87122 0
M  V30 3531 H 365.759 -3.51142 -4.5318 0
M  V30 3532 H 364.156 -4.24679 -4.2399 0
M  V30 3533 H 365.226 -3.91072 -2.86689 0
M  V30 3534 N 366.569 1.04691 -1.17803 0
M  V30 3535 C 367.517 2.14665 -0.895635 0
M  V30 3536 C 368.511 1.68806 0.141679 0
M  V30 3537 O 369.717 1.79999 -0.00587914 0
M  V30 3538 H 366.092 0.701038 -0.272121 0
M  V30 3539 H 368.063 2.35685 -1.83017 0
M  V30 3540 C 366.812 3.45019 -0.430962 0
M  V30 3541 H 366.135 3.8071 -1.22064 0
M  V30 3542 H 367.575 4.23125 -0.272301 0
M  V30 3543 C 366.034 3.25943 0.852207 0
M  V30 3544 O 366.564 3.5296 1.91786 0
M  V30 3545 N 364.77 2.79304 0.802346 0
M  V30 3546 H 364.317 2.57518 -0.0650788 0
M  V30 3547 H 364.275 2.66921 1.66134 0
M  V30 3548 N 368.047 0.979072 1.23499 0
M  V30 3549 C 369.324 0.563674 1.87302 0
M  V30 3550 C 369.704 -0.959199 1.88049 0
M  V30 3551 O 369.052 -1.83535 1.36114 0
M  V30 3552 C 369.262 1.16822 3.28867 0
M  V30 3553 C 370.61 1.26014 4.0547 0
M  V30 3554 O 371.634 1.12158 3.38082 0
M  V30 3555 O 370.493 1.48044 5.26066 0
M  V30 3556 H 367.587 0.189602 0.804972 0
M  V30 3557 H 370.133 1.07407 1.31384 0
M  V30 3558 H 368.905 2.21049 3.22883 0
M  V30 3559 H 368.528 0.642564 3.92373 0
M  V30 3560 N 369.525 -1.3858 0.750561 0
M  V30 3561 C 370.774 -1.99424 0.302172 0
M  V30 3562 C 371.087 -1.60254 -1.12152 0
M  V30 3563 O 372.293 -2.14046 -1.67023 0
M  V30 3564 C 370.749 -3.56558 0.489307 0
M  V30 3565 C 370.357 -4.04682 1.92189 0
M  V30 3566 C 372.101 -4.24374 0.103478 0
M  V30 3567 C 370.008 -5.54446 2.05775 0
M  V30 3568 H 368.938 -0.746046 0.10923 0
M  V30 3569 H 371.589 -1.58383 0.92667 0
M  V30 3570 H 369.971 -3.95472 -0.204329 0
M  V30 3571 H 371.145 -3.77065 2.64875 0
M  V30 3572 H 369.46 -3.4958 2.26236 0
M  V30 3573 H 372.057 -5.34384 0.183787 0
M  V30 3574 H 372.4 -4.05468 -0.943481 0
M  V30 3575 H 372.933 -3.90688 0.748854 0
M  V30 3576 H 369.672 -5.78252 3.08714 0
M  V30 3577 H 369.192 -5.83816 1.37546 0
M  V30 3578 H 370.871 -6.20099 1.84626 0
M  V30 3579 N 371.003 -0.499398 -1.49478 0
M  V30 3580 C 372.419 -0.155261 -1.58843 0
M  V30 3581 C 372.619 1.34008 -1.50479 0
M  V30 3582 O 371.675 2.11589 -1.37791 0
M  V30 3583 C 372.988 -0.730636 -2.91689 0
M  V30 3584 C 374.536 -0.696599 -3.0515 0
M  V30 3585 C 375.011 -1.25001 -4.40612 0
M  V30 3586 N 376.502 -1.21064 -4.47099 0
M  V30 3587 C 377.237 -1.60905 -5.50361 0
M  V30 3588 N 376.733 -2.08331 -6.60735 0
M  V30 3589 N 378.526 -1.52331 -5.41065 0
M  V30 3590 H 370.677 -1.47162 -1.53158 0
M  V30 3591 H 372.94 -0.610309 -0.725415 0
M  V30 3592 H 372.646 -1.77928 -3.03372 0
M  V30 3593 H 372.52 -0.190161 -3.7672 0
M  V30 3594 H 374.907 0.343204 -2.93097 0
M  V30 3595 H 374.988 -1.2742 -2.21806 0
M  V30 3596 H 374.632 -2.28859 -4.53416 0
M  V30 3597 H 374.562 -0.64836 -5.22593 0
M  V30 3598 H 377.053 -0.863128 -3.67911 0
M  V30 3599 H 377.366 -2.36805 -7.35624 0
M  V30 3600 H 375.711 -2.12304 -6.6178 0
M  V30 3601 H 378.902 -1.151 -4.53729 0
M  V30 3602 H 379.075 -1.83704 -6.21415 0
M  V30 3603 N 372.481 1.55866 -0.233164 0
M  V30 3604 C 373.428 2.20796 0.67215 0
M  V30 3605 C 374.398 1.16731 1.18166 0
M  V30 3606 O 375.583 1.45129 1.23864 0
M  V30 3607 C 372.723 2.90072 1.86955 0
M  V30 3608 C 371.836 4.08759 1.39786 0
M  V30 3609 C 370.971 4.65787 2.55374 0
M  V30 3610 C 370.01 5.76752 2.04998 0
M  V30 3611 N 369.147 6.28021 3.13901 0
M  V30 3612 H 373.987 2.9779 0.111749 0
M  V30 3613 H 371.524 1.47036 0.0434007 0
M  V30 3614 H 373.482 3.28428 2.57276 0
M  V30 3615 H 372.112 2.15575 2.40265 0
M  V30 3616 H 371.164 3.7581 0.589173 0
M  V30 3617 H 372.476 4.88906 0.98856 0
M  V30 3618 H 371.63 5.06646 3.33758 0
M  V30 3619 H 370.369 3.84828 2.99598 0
M  V30 3620 H 369.374 5.35383 1.25079 0
M  V30 3621 H 370.599 6.59553 1.61759 0
M  V30 3622 H 368.545 5.49971 3.57586 0
M  V30 3623 H 368.462 7.03323 2.7726 0
M  V30 3624 H 369.73 6.73538 3.92386 0
M  V30 3625 N 373.959 -0.0401083 1.57549 0
M  V30 3626 C 374.922 -1.02871 2.04817 0
M  V30 3627 C 375.922 -1.29708 0.950388 0
M  V30 3628 O 377.112 -1.24897 1.21435 0
M  V30 3629 C 374.244 -2.36443 2.45576 0
M  V30 3630 H 375.437 -0.620631 2.93408 0
M  V30 3631 H 372.99 -0.286667 1.53649 0
M  V30 3632 H 373.725 -2.82021 1.60108 0
M  V30 3633 H 373.51 -2.18296 3.25713 0
M  V30 3634 H 375 -3.07441 2.82612 0
M  V30 3635 N 375.437 -1.54477 -0.31217 0
M  V30 3636 C 376.853 -1.45442 -0.657185 0
M  V30 3637 C 377.053 -0.63653 -1.91182 0
M  V30 3638 O 376.109 -0.139815 -2.52113 0
M  V30 3639 C 377.422 -2.89287 -0.82058 0
M  V30 3640 C 378.97 -2.9926 -0.917188 0
M  V30 3641 C 379.445 -4.44279 -1.11267 0
M  V30 3642 N 380.936 -4.4794 -1.17914 0
M  V30 3643 C 381.671 -5.57318 -1.34848 0
M  V30 3644 N 381.167 -6.76642 -1.48752 0
M  V30 3645 N 382.96 -5.44986 -1.37647 0
M  V30 3646 H 375.111 -2.06129 0.512313 0
M  V30 3647 H 377.374 -0.933088 0.167485 0
M  V30 3648 H 377.08 -3.51687 0.0302604 0
M  V30 3649 H 376.954 -3.36061 -1.71298 0
M  V30 3650 H 379.341 -2.36981 -1.75852 0
M  V30 3651 H 379.422 -2.558 -0.00101257 0
M  V30 3652 H 379.066 -5.07149 -0.27614 0
M  V30 3653 H 378.996 -4.85359 -2.04289 0
M  V30 3654 H 381.487 -3.61969 -1.08567 0
M  V30 3655 H 381.8 -7.55758 -1.61397 0
M  V30 3656 H 380.145 -6.79529 -1.45828 0
M  V30 3657 H 383.336 -4.50715 -1.26388 0
M  V30 3658 H 383.509 -6.3028 -1.50501 0
M  V30 3659 N 376.915 0.57481 -1.46744 0
M  V30 3660 C 377.825 1.711 -1.60505 0
M  V30 3661 C 378.841 1.67008 -0.488307 0
M  V30 3662 O 380.017 1.86774 -0.753495 0
M  V30 3663 C 377.082 3.07608 -1.59932 0
M  V30 3664 C 376.143 3.22904 -2.82898 0
M  V30 3665 C 375.376 4.529 -2.82343 0
M  V30 3666 O 375.599 5.37278 -1.91542 0
M  V30 3667 O 374.533 4.71611 -3.73987 0
M  V30 3668 H 378.359 1.62436 -2.56609 0
M  V30 3669 H 375.944 0.742779 -1.29627 0
M  V30 3670 H 377.826 3.88877 -1.62336 0
M  V30 3671 H 376.501 3.16692 -0.669898 0
M  V30 3672 H 375.408 2.41099 -2.86046 0
M  V30 3673 H 376.741 3.18715 -3.75076 0
M  V30 3674 N 378.394 1.34581 0.820102 0
M  V30 3675 C 379.341 1.2639 1.93117 0
M  V30 3676 C 380.311 0.138554 1.65521 0
M  V30 3677 O 381.496 0.320004 1.88097 0
M  V30 3678 C 378.636 1.02812 3.29429 0
M  V30 3679 C 377.749 2.24146 3.693 0
M  V30 3680 C 376.884 1.93829 4.94574 0
M  V30 3681 C 375.923 3.1129 5.27034 0
M  V30 3682 N 375.06 2.80838 6.43486 0
M  V30 3683 H 379.9 2.21408 1.99455 0
M  V30 3684 H 377.437 1.10077 0.975784 0
M  V30 3685 H 379.395 0.871788 4.0799 0
M  V30 3686 H 378.025 0.114612 3.22596 0
M  V30 3687 H 377.077 2.50691 2.86109 0
M  V30 3688 H 378.389 3.11899 3.89257 0
M  V30 3689 H 377.543 1.74948 5.80929 0
M  V30 3690 H 376.282 1.03341 4.76626 0
M  V30 3691 H 375.287 3.30764 4.39175 0
M  V30 3692 H 376.512 4.02561 5.4692 0
M  V30 3693 H 374.458 1.92929 6.26988 0
M  V30 3694 H 374.375 3.62123 6.63629 0
M  V30 3695 H 375.643 2.65467 7.32903 0
M  V30 3696 N 379.872 -1.04064 1.18357 0
M  V30 3697 C 381.102 -1.80654 1.00238 0
M  V30 3698 C 381.51 -1.83713 -0.452362 0
M  V30 3699 O 380.853 -1.27135 -1.32599 0
M  V30 3700 C 380.915 -3.27582 1.48088 0
M  V30 3701 C 380.579 -3.48184 2.96002 0
M  V30 3702 C 381.576 -3.39372 3.93856 0
M  V30 3703 C 379.261 -3.7478 3.34433 0
M  V30 3704 C 381.255 -3.5686 5.28138 0
M  V30 3705 C 378.942 -3.91915 4.68877 0
M  V30 3706 C 379.94 -3.82956 5.65539 0
M  V30 3707 O 379.628 -3.996 6.97549 0
M  V30 3708 H 379.36 -0.575751 0.354241 0
M  V30 3709 H 381.914 -1.32044 1.57333 0
M  V30 3710 H 380.144 -3.77161 0.853588 0
M  V30 3711 H 381.833 -3.8573 1.2636 0
M  V30 3712 H 382.599 -3.18789 3.65511 0
M  V30 3713 H 378.478 -3.80852 2.59756 0
M  V30 3714 H 382.022 -3.49783 6.03571 0
M  V30 3715 H 377.919 -4.11992 4.96923 0
M  V30 3716 H 378.687 -4.1676 7.04452 0
M  V30 3717 N 381.35 -0.985608 -1.22978 0
M  V30 3718 C 382.282 -0.488154 -2.23941 0
M  V30 3719 C 383.295 0.41282 -1.57479 0
M  V30 3720 O 384.484 0.216121 -1.77187 0
M  V30 3721 C 381.584 0.312611 -3.37455 0
M  V30 3722 C 380.757 -0.582741 -4.33501 0
M  V30 3723 C 379.816 0.165064 -5.25941 0
M  V30 3724 O 378.842 -0.447077 -5.67442 0
M  V30 3725 N 380.044 1.44953 -5.62111 0
M  V30 3726 H 382.809 -1.3563 -2.67254 0
M  V30 3727 H 380.37 -0.859477 -1.37203 0
M  V30 3728 H 382.362 0.821357 -3.96277 0
M  V30 3729 H 380.932 1.0818 -2.93285 0
M  V30 3730 H 380.152 -1.27225 -3.73105 0
M  V30 3731 H 381.44 -1.19275 -4.94622 0
M  V30 3732 H 380.838 1.9683 -5.30353 0
M  V30 3733 H 379.395 1.90361 -6.23383 0
M  V30 3734 N 382.828 1.3818 -0.7579 0
M  V30 3735 C 384.076 1.99624 -0.315361 0
M  V30 3736 C 384.397 1.60464 1.10799 0
M  V30 3737 O 383.667 0.863507 1.75842 0
M  V30 3738 H 382.247 0.73831 -0.113611 0
M  V30 3739 H 384.909 1.68878 -0.972952 0
M  V30 3740 H 384.005 3.09754 -0.381931 0
M  V30 3741 N 384.306 0.507319 1.49211 0
M  V30 3742 C 385.216 -0.272136 2.33016 0
M  V30 3743 C 386.232 -0.961206 1.45041 0
M  V30 3744 O 387.408 -0.941191 1.78055 0
M  V30 3745 C 384.473 -1.31895 3.20631 0
M  V30 3746 C 383.534 -0.642648 4.24463 0
M  V30 3747 C 382.767 -1.63959 5.07891 0
M  V30 3748 O 382.99 -2.87007 4.92933 0
M  V30 3749 O 381.924 -1.19143 5.8999 0
M  V30 3750 H 385.75 0.413982 3.00865 0
M  V30 3751 H 383.335 0.268556 1.46966 0
M  V30 3752 H 385.217 -1.92446 3.7489 0
M  V30 3753 H 383.892 -1.98788 2.5547 0
M  V30 3754 H 382.799 0.00276252 3.741 0
M  V30 3755 H 384.132 -0.0160534 4.92197 0
M  V30 3756 N 385.784 -1.5574 0.241426 0
M  V30 3757 C 386.694 -2.2479 -0.671305 0
M  V30 3758 C 387.71 -1.26217 -1.19772 0
M  V30 3759 O 388.886 -1.59079 -1.23514 0
M  V30 3760 C 385.951 -2.92966 -1.85396 0
M  V30 3761 C 385.012 -4.06935 -1.36756 0
M  V30 3762 C 384.245 -4.71851 -2.49384 0
M  V30 3763 O 384.468 -4.35823 -3.67987 0
M  V30 3764 O 383.402 -5.60467 -2.19454 0
M  V30 3765 H 387.228 -3.0349 -0.112966 0
M  V30 3766 H 384.813 -1.49397 0.0101513 0
M  V30 3767 H 386.695 -3.35927 -2.54423 0
M  V30 3768 H 385.37 -2.17211 -2.40002 0
M  V30 3769 H 384.277 -3.68503 -0.644726 0
M  V30 3770 H 385.61 -4.84492 -0.867647 0
M  V30 3771 N 387.262 0.0317525 -1.57568 0
M  V30 3772 C 388.192 1.03274 -2.0942 0
M  V30 3773 C 389.173 1.3788 -0.996143 0
M  V30 3774 O 390.358 1.46811 -1.27122 0
M  V30 3775 C 387.488 2.33448 -2.57137 0
M  V30 3776 C 386.442 2.13091 -3.71182 0
M  V30 3777 C 385.768 3.49001 -4.05095 0
M  V30 3778 C 387.068 1.51928 -4.99715 0
M  V30 3779 H 388.762 0.60112 -2.93303 0
M  V30 3780 H 386.308 0.287705 -1.41097 0
M  V30 3781 H 388.261 3.03802 -2.92032 0
M  V30 3782 H 386.985 2.78665 -1.70333 0
M  V30 3783 H 385.644 1.45171 -3.36632 0
M  V30 3784 H 385.292 3.91862 -3.15362 0
M  V30 3785 H 384.992 3.36207 -4.81911 0
M  V30 3786 H 386.516 4.20721 -4.42522 0
M  V30 3787 H 387.93 2.12196 -5.32584 0
M  V30 3788 H 386.327 1.49716 -5.81124 0
M  V30 3789 H 387.397 0.484811 -4.8247 0
M  V30 3790 N 388.74 1.54641 0.303973 0
M  V30 3791 C 389.703 1.84646 1.35789 0
M  V30 3792 C 390.703 0.7192 1.4382 0
M  V30 3793 O 391.893 0.987491 1.43507 0
M  V30 3794 C 389.025 2.02407 2.74307 0
M  V30 3795 H 390.218 2.78829 1.10429 0
M  V30 3796 H 387.771 1.46658 0.540487 0
M  V30 3797 H 388.506 1.10502 3.04893 0
M  V30 3798 H 388.291 2.84453 2.69868 0
M  V30 3799 H 389.781 2.27002 3.50514 0
M  V30 3800 N 390.218 -0.567019 1.47046 0
M  V30 3801 C 391.165 -1.67489 1.58796 0
M  V30 3802 C 392.135 -1.60399 0.43144 0
M  V30 3803 O 393.32 -1.79378 0.650233 0
M  V30 3804 C 390.46 -3.05821 1.59899 0
M  V30 3805 C 389.573 -3.2342 2.86397 0
M  V30 3806 C 388.708 -4.52093 2.789 0
M  V30 3807 C 387.747 -4.6309 4.00267 0
M  V30 3808 N 386.884 -5.83106 3.91064 0
M  V30 3809 H 391.724 -1.56785 2.53422 0
M  V30 3810 H 389.261 -0.763896 1.2571 0
M  V30 3811 H 391.219 -3.8591 1.58522 0
M  V30 3812 H 389.849 -3.15384 0.687929 0
M  V30 3813 H 388.901 -2.3683 2.97684 0
M  V30 3814 H 390.213 -3.27412 3.76301 0
M  V30 3815 H 389.367 -5.4043 2.75718 0
M  V30 3816 H 388.106 -4.50565 1.86662 0
M  V30 3817 H 387.111 -3.73168 4.03765 0
M  V30 3818 H 388.336 -4.66386 4.93621 0
M  V30 3819 H 386.282 -5.82546 3.01623 0
M  V30 3820 H 386.199 -5.88434 4.74638 0
M  V30 3821 H 387.467 -6.73831 3.91882 0
M  V30 3822 N 391.696 -1.35014 -0.812953 0
M  V30 3823 C 392.606 -1.2951 -1.95613 0
M  V30 3824 C 393.622 -0.20107 -1.72834 0
M  V30 3825 O 394.798 -0.42932 -1.96771 0
M  V30 3826 C 391.863 -1.06033 -3.30088 0
M  V30 3827 C 390.924 -2.24688 -3.65805 0
M  V30 3828 C 390.157 -2.02322 -4.93864 0
M  V30 3829 O 390.38 -0.986464 -5.61805 0
M  V30 3830 O 389.314 -2.89525 -5.27692 0
M  V30 3831 H 393.14 -2.25705 -2.03202 0
M  V30 3832 H 390.725 -1.15321 -0.949811 0
M  V30 3833 H 392.607 -0.94763 -4.10607 0
M  V30 3834 H 391.282 -0.128852 -3.23443 0
M  V30 3835 H 390.189 -2.41521 -2.85689 0
M  V30 3836 H 391.522 -3.16261 -3.77147 0
M  V30 3837 N 393.175 1.03435 -1.18907 0
M  V30 3838 C 394.105 2.13503 -0.945448 0
M  V30 3839 C 395.086 1.69682 0.119189 0
M  V30 3840 O 396.271 1.94169 -0.034707 0
M  V30 3841 C 393.401 3.44004 -0.477316 0
M  V30 3842 C 392.355 4.0148 -1.48316 0
M  V30 3843 C 391.681 5.27537 -0.872311 0
M  V30 3844 C 392.981 4.36921 -2.86177 0
M  V30 3845 H 394.675 2.34141 -1.86597 0
M  V30 3846 H 392.221 1.12523 -0.898584 0
M  V30 3847 H 394.174 4.20372 -0.294204 0
M  V30 3848 H 392.898 3.23072 0.478786 0
M  V30 3849 H 391.557 3.27201 -1.65332 0
M  V30 3850 H 391.205 5.02917 0.0911752 0
M  V30 3851 H 390.905 5.66954 -1.54393 0
M  V30 3852 H 392.429 6.06576 -0.699871 0
M  V30 3853 H 393.843 5.04248 -2.72776 0
M  V30 3854 H 392.24 4.87405 -3.50081 0
M  V30 3855 H 393.31 3.46466 -3.39248 0
M  V30 3856 N 394.653 0.992116 1.22453 0
M  V30 3857 C 395.616 0.546883 2.2258 0
M  V30 3858 C 396.616 -0.369829 1.56489 0
M  V30 3859 O 397.806 -0.161896 1.73446 0
M  V30 3860 C 394.938 -0.204659 3.40285 0
M  V30 3861 H 396.131 1.43234 2.63484 0
M  V30 3862 H 393.684 0.779239 1.3549 0
M  V30 3863 H 394.419 -1.10614 3.04853 0
M  V30 3864 H 394.204 0.45354 3.89468 0
M  V30 3865 H 395.694 -0.504358 4.14543 0
M  V30 3866 N 396.131 -1.37776 0.765217 0
M  V30 3867 C 397.547 -1.53297 0.444108 0
M  V30 3868 C 397.747 -1.72515 -1.04119 0
M  V30 3869 O 396.803 -1.74278 -1.82711 0
M  V30 3870 C 398.116 -2.73328 1.25349 0
M  V30 3871 C 399.664 -2.87185 1.24473 0
M  V30 3872 C 400.139 -4.10191 2.03733 0
M  V30 3873 N 401.63 -4.17291 2.01053 0
M  V30 3874 C 402.365 -5.11488 2.59166 0
M  V30 3875 N 401.861 -6.11285 3.26041 0
M  V30 3876 N 403.654 -5.03924 2.49032 0
M  V30 3877 H 395.805 -1.23552 1.72768 0
M  V30 3878 H 398.068 -0.601103 0.733062 0
M  V30 3879 H 397.774 -2.6557 2.30577 0
M  V30 3880 H 397.648 -3.66834 0.87823 0
M  V30 3881 H 400.035 -2.94418 0.20047 0
M  V30 3882 H 400.116 -1.94657 1.65959 0
M  V30 3883 H 399.76 -4.0372 3.08176 0
M  V30 3884 H 399.69 -5.01821 1.59633 0
M  V30 3885 H 402.181 -3.45825 1.5236 0
M  V30 3886 H 402.494 -6.79678 3.67774 0
M  V30 3887 H 400.839 -6.11583 3.30138 0
M  V30 3888 H 404.03 -4.24902 1.96407 0
M  V30 3889 H 404.203 -5.77152 2.94617 0
M  V30 3890 N 397.609 -0.515225 -1.4894 0
M  V30 3891 C 398.858 0.0261361 -2.01683 0
M  V30 3892 C 399.171 1.36719 -1.39883 0
M  V30 3893 O 400.377 1.99606 -1.84037 0
M  V30 3894 C 398.833 0.0970111 -3.59769 0
M  V30 3895 C 398.441 -1.23825 -4.30548 0
M  V30 3896 C 400.185 0.587981 -4.20408 0
M  V30 3897 C 398.092 -1.12877 -5.80528 0
M  V30 3898 H 397.022 0.0135398 -0.753878 0
M  V30 3899 H 399.673 -0.656787 -1.71343 0
M  V30 3900 H 398.055 0.844694 -3.86886 0
M  V30 3901 H 399.229 -2.00034 -4.15118 0
M  V30 3902 H 397.544 -1.66379 -3.81716 0
M  V30 3903 H 400.141 0.68763 -5.3026 0
M  V30 3904 H 400.484 1.59026 -3.84729 0
M  V30 3905 H 401.017 -0.103582 -3.97665 0
M  V30 3906 H 397.756 -2.10575 -6.20756 0
M  V30 3907 H 397.276 -0.407799 -5.98412 0
M  V30 3908 H 398.955 -0.813332 -6.41868 0
M  V30 3909 N 399.087 1.5561 -0.249682 0
M  V30 3910 C 400.034 2.21496 0.648694 0
M  V30 3911 C 401.004 1.17977 1.16921 0
M  V30 3912 O 402.189 1.46434 1.22318 0
M  V30 3913 C 399.329 2.92039 1.83868 0
M  V30 3914 C 398.442 4.10219 1.35442 0
M  V30 3915 C 397.577 4.6847 2.50419 0
M  V30 3916 C 396.616 5.78893 1.98869 0
M  V30 3917 N 395.753 6.31315 3.07223 0
M  V30 3918 H 400.593 2.97892 0.0801582 0
M  V30 3919 H 398.13 1.47074 0.0278031 0
M  V30 3920 H 400.088 3.31138 2.53778 0
M  V30 3921 H 398.718 2.18111 2.37965 0
M  V30 3922 H 397.77 3.76413 0.54928 0
M  V30 3923 H 399.082 4.89927 0.936649 0
M  V30 3924 H 398.236 5.10158 3.28366 0
M  V30 3925 H 396.975 3.87984 2.95499 0
M  V30 3926 H 395.98 5.3668 1.19393 0
M  V30 3927 H 397.205 6.61232 1.54755 0
M  V30 3928 H 395.151 5.53733 3.51732 0
M  V30 3929 H 395.068 7.06224 2.69784 0
M  V30 3930 H 396.336 6.77662 3.8522 0
M  V30 3931 N 400.565 -0.0233959 1.57583 0
M  V30 3932 C 401.495 -1.02162 2.09965 0
M  V30 3933 C 402.476 -1.3735 1.00344 0
M  V30 3934 O 403.661 -1.46135 1.27899 0
M  V30 3935 C 400.791 -2.32081 2.58371 0
M  V30 3936 C 399.745 -2.1112 3.72307 0
M  V30 3937 C 399.071 -3.46848 4.06941 0
M  V30 3938 C 400.371 -1.49276 5.00514 0
M  V30 3939 H 402.065 -0.585557 2.93618 0
M  V30 3940 H 399.611 -0.280218 1.41247 0
M  V30 3941 H 401.564 -3.02249 2.93639 0
M  V30 3942 H 400.288 -2.77758 1.71808 0
M  V30 3943 H 398.947 -1.43384 3.37397 0
M  V30 3944 H 398.595 -3.90184 3.17436 0
M  V30 3945 H 398.295 -3.33646 4.83688 0
M  V30 3946 H 399.819 -4.18369 4.44747 0
M  V30 3947 H 401.233 -2.09368 5.33702 0
M  V30 3948 H 399.63 -1.46632 5.8191 0
M  V30 3949 H 400.7 -0.459217 4.82721 0
M  V30 3950 N 402.043 -1.548 -0.295768 0
M  V30 3951 C 403.459 -1.4613 -0.641722 0
M  V30 3952 C 403.659 -0.656771 -1.90496 0
M  V30 3953 O 402.715 -0.166547 -2.5195 0
M  V30 3954 C 404.028 -2.90141 -0.789852 0
M  V30 3955 C 405.576 -3.00216 -0.885396 0
M  V30 3956 C 406.051 -4.45434 -1.06548 0
M  V30 3957 N 407.542 -4.49166 -1.13156 0
M  V30 3958 C 408.277 -5.58717 -1.28929 0
M  V30 3959 N 407.773 -6.78182 -1.41567 0
M  V30 3960 N 409.566 -5.46415 -1.31859 0
M  V30 3961 H 401.717 -2.05574 0.534147 0
M  V30 3962 H 403.98 -0.931259 0.177372 0
M  V30 3963 H 403.686 -3.51635 0.0675598 0
M  V30 3964 H 403.56 -3.37859 -1.67724 0
M  V30 3965 H 405.947 -2.38833 -1.73329 0
M  V30 3966 H 406.028 -2.55787 0.0261185 0
M  V30 3967 H 405.672 -5.07413 -0.222335 0
M  V30 3968 H 405.602 -4.87499 -1.9913 0
M  V30 3969 H 408.093 -3.631 -1.04721 0
M  V30 3970 H 408.406 -7.57428 -1.53372 0
M  V30 3971 H 406.751 -6.81037 -1.38613 0
M  V30 3972 H 409.942 -4.5203 -1.21601 0
M  V30 3973 H 410.115 -6.31841 -1.43808 0
M  V30 3974 N 403.521 0.559213 -1.47345 0
M  V30 3975 C 404.454 1.68201 -1.5422 0
M  V30 3976 C 405.432 1.57742 -0.394497 0
M  V30 3977 O 406.616 1.78628 -0.60201 0
M  V30 3978 C 403.743 3.0643 -1.44285 0
M  V30 3979 C 402.789 3.3534 -2.63532 0
M  V30 3980 S 403.622 3.24816 -4.25741 0
M  V30 3981 C 404.778 4.65542 -4.18355 0
M  V30 3982 H 405.011 1.62114 -2.49211 0
M  V30 3983 H 402.544 0.739871 -1.35519 0
M  V30 3984 H 404.502 3.86164 -1.3924 0
M  V30 3985 H 403.163 3.09984 -0.506816 0
M  V30 3986 H 402.356 4.36107 -2.52639 0
M  V30 3987 H 401.958 2.63221 -2.65689 0
M  V30 3988 H 404.25 5.56449 -3.86485 0
M  V30 3989 H 405.193 4.81493 -5.19202 0
M  V30 3990 H 405.601 4.43495 -3.49246 0
M  V30 3991 N 404.999 1.35443 0.805782 0
M  V30 3992 C 406.276 1.19325 1.54987 0
M  V30 3993 C 406.656 -0.227294 2.09873 0
M  V30 3994 O 406.004 -1.2309 1.92512 0
M  V30 3995 C 406.214 2.26196 2.65775 0
M  V30 3996 C 407.562 2.62043 3.34094 0
M  V30 3997 O 408.586 2.25115 2.76046 0
M  V30 3998 O 407.445 3.25542 4.38958 0
M  V30 3999 H 404.539 0.463623 0.684823 0
M  V30 4000 H 407.085 1.47127 0.845674 0
M  V30 4001 H 405.857 3.21471 2.23096 0
M  V30 4002 H 405.48 1.99667 3.43829 0
M  V30 4003 N 406.477 -1.02803 1.19454 0
M  V30 4004 C 407.425 -2.13213 0.929673 0
M  V30 4005 C 408.419 -1.69011 -0.114806 0
M  V30 4006 O 409.625 -1.79967 0.0345147 0
M  V30 4007 H 406 -0.69662 0.28324 0
M  V30 4008 H 407.971 -2.32744 1.86743 0
M  V30 4009 C 406.72 -3.4429 0.485797 0
M  V30 4010 H 406.043 -3.7872 1.28105 0
M  V30 4011 H 407.483 -4.22638 0.339582 0
M  V30 4012 C 405.942 -3.27258 -0.800244 0
M  V30 4013 O 406.472 -3.55967 -1.86146 0
M  V30 4014 N 404.678 -2.80545 -0.75781 0
M  V30 4015 H 404.225 -2.57382 0.106039 0
M  V30 4016 H 404.183 -2.6953 -1.61867 0
M  V30 4017 N 407.956 -0.998596 -1.21925 0
M  V30 4018 C 409.184 -0.696286 -1.94832 0
M  V30 4019 C 409.599 0.740032 -1.73692 0
M  V30 4020 O 408.956 1.5 -1.03953 0
M  V30 4021 C 409.007 -0.999833 -3.47398 0
M  V30 4022 O 408.728 -2.37972 -3.67833 0
M  V30 4023 C 410.229 -0.716025 -4.37479 0
M  V30 4024 H 407.449 -0.257111 -0.619786 0
M  V30 4025 H 409.993 -1.33491 -1.54921 0
M  V30 4026 H 408.148 -0.406918 -3.85257 0
M  V30 4027 H 408.562 -2.48338 -4.61983 0
M  V30 4028 H 410.036 -0.978642 -5.43256 0
M  V30 4029 H 410.513 0.349968 -4.37803 0
M  V30 4030 H 411.119 -1.29025 -4.05256 0
M  V30 4031 N 409.434 1.37368 -0.772513 0
M  V30 4032 C 410.344 2.34053 -0.160081 0
M  V30 4033 C 411.36 1.60216 0.678728 0
M  V30 4034 O 412.536 1.92303 0.59847 0
M  V30 4035 C 409.601 3.3939 0.708182 0
M  V30 4036 C 408.662 4.29048 -0.147172 0
M  V30 4037 C 407.895 5.29354 0.679744 0
M  V30 4038 O 408.118 5.3723 1.91678 0
M  V30 4039 O 407.052 6.01835 0.0885444 0
M  V30 4040 H 410.878 2.88159 -0.959053 0
M  V30 4041 H 408.463 1.39543 -0.533685 0
M  V30 4042 H 410.345 4.03839 1.20384 0
M  V30 4043 H 409.02 2.8761 1.48533 0
M  V30 4044 H 407.927 3.67697 -0.689205 0
M  V30 4045 H 409.26 4.84134 -0.887423 0
M  V30 4046 N 410.912 0.523116 1.48665 0
M  V30 4047 C 412.158 -0.0134963 2.02796 0
M  V30 4048 C 412.491 -1.34582 1.40004 0
M  V30 4049 O 411.766 -1.86756 0.543381 0
M  V30 4050 C 412.049 -0.14276 3.59817 0
M  V30 4051 C 411.902 1.21425 4.331 0
M  V30 4052 C 413.221 -0.872856 4.31357 0
M  V30 4053 H 410.34 -0.00343074 0.736992 0
M  V30 4054 H 412.982 0.678816 1.7746 0
M  V30 4055 H 411.132 -0.732401 3.81534 0
M  V30 4056 H 412.804 1.84447 4.2282 0
M  V30 4057 H 411.047 1.79791 3.94788 0
M  V30 4058 H 411.718 1.07687 5.41394 0
M  V30 4059 H 414.194 -0.372555 4.14429 0
M  V30 4060 H 413.07 -0.932185 5.40927 0
M  V30 4061 H 413.331 -1.92161 3.98154 0
M  V30 4062 N 412.39 -1.55475 0.257931 0
M  V30 4063 C 413.32 -2.24815 -0.630912 0
M  V30 4064 C 414.301 -1.23224 -1.17259 0
M  V30 4065 O 415.486 -1.51904 -1.20991 0
M  V30 4066 C 412.616 -2.95609 -1.82298 0
M  V30 4067 C 411.57 -4.03982 -1.41359 0
M  V30 4068 C 410.896 -4.6226 -2.68738 0
M  V30 4069 C 412.196 -5.19109 -0.57648 0
M  V30 4070 H 413.89 -2.99354 -0.0526878 0
M  V30 4071 H 411.436 -1.4398 -0.023901 0
M  V30 4072 H 413.389 -3.42822 -2.45054 0
M  V30 4073 H 412.113 -2.18577 -2.42676 0
M  V30 4074 H 410.772 -3.57555 -0.809324 0
M  V30 4075 H 410.42 -3.81915 -3.27338 0
M  V30 4076 H 410.12 -5.35424 -2.42065 0
M  V30 4077 H 411.644 -5.12212 -3.32372 0
M  V30 4078 H 413.058 -5.62479 -1.10861 0
M  V30 4079 H 411.455 -5.98729 -0.405351 0
M  V30 4080 H 412.525 -4.83174 0.408776 0
M  V30 4081 N 413.868 0.0150385 -1.57593 0
M  V30 4082 C 415.096 0.714395 -1.94175 0
M  V30 4083 C 415.511 1.68135 -0.858841 0
M  V30 4084 O 414.868 1.81766 0.163567 0
M  V30 4085 C 414.919 1.45933 -3.30735 0
M  V30 4086 O 414.64 0.531167 -4.34868 0
M  V30 4087 C 416.141 2.25456 -3.81686 0
M  V30 4088 H 413.361 0.199923 -0.640525 0
M  V30 4089 H 415.905 -0.0316096 -2.04476 0
M  V30 4090 H 414.06 2.15709 -3.21789 0
M  V30 4091 H 414.474 1.05509 -5.13778 0
M  V30 4092 H 415.948 2.731 -4.79709 0
M  V30 4093 H 416.425 3.07485 -3.13607 0
M  V30 4094 H 417.031 1.60727 -3.9376 0
M  V30 4095 N 415.346 1.54954 0.287554 0
M  V30 4096 C 416.571 1.79209 1.04397 0
M  V30 4097 C 416.996 0.556431 1.79682 0
M  V30 4098 O 416.354 -0.493518 1.74454 0
M  V30 4099 C 416.402 3.00739 1.98969 0
M  V30 4100 O 415.506 2.74805 3.075 0
M  V30 4101 H 414.847 0.592755 0.299227 0
M  V30 4102 H 417.377 2.02068 0.320886 0
M  V30 4103 H 417.387 3.29077 2.4119 0
M  V30 4104 H 416.062 3.90329 1.43582 0
M  V30 4105 H 414.639 2.57523 2.69697 0
M  V30 4106 N 416.824 -0.551391 1.4764 0
M  V30 4107 C 418.101 -1.31229 1.45046 0
M  V30 4108 C 418.481 -2.10563 0.150527 0
M  V30 4109 O 417.829 -2.11374 -0.867956 0
M  V30 4110 C 418.039 -2.21189 2.69956 0
M  V30 4111 C 419.387 -2.82021 3.1741 0
M  V30 4112 O 420.411 -2.31488 2.70724 0
M  V30 4113 O 419.27 -3.73885 3.98588 0
M  V30 4114 H 416.364 -0.591193 0.578291 0
M  V30 4115 H 418.91 -0.569813 1.59847 0
M  V30 4116 H 417.682 -1.62207 3.56096 0
M  V30 4117 H 417.305 -3.02722 2.57769 0
M  V30 4118 N 418.302 -1.35869 -0.798587 0
M  V30 4119 C 419.551 -1.28921 -1.5512 0
M  V30 4120 C 419.864 0.13208 -1.95154 0
M  V30 4121 O 421.07 0.323879 -2.69561 0
M  V30 4122 C 419.526 -2.26141 -2.79979 0
M  V30 4123 C 419.134 -3.73658 -2.47151 0
M  V30 4124 C 420.878 -2.28152 -3.57976 0
M  V30 4125 C 418.785 -4.62679 -3.6835 0
M  V30 4126 H 417.715 -0.479031 -0.582276 0
M  V30 4127 H 420.366 -1.61179 -0.877125 0
M  V30 4128 H 418.748 -1.86865 -3.49138 0
M  V30 4129 H 419.922 -4.21616 -1.85947 0
M  V30 4130 H 418.237 -3.74333 -1.82383 0
M  V30 4131 H 420.834 -2.91875 -4.4801 0
M  V30 4132 H 421.177 -1.28748 -3.95891 0
M  V30 4133 H 421.71 -2.65998 -2.95787 0
M  V30 4134 H 418.449 -5.63111 -3.35538 0
M  V30 4135 H 417.969 -4.19442 -4.28752 0
M  V30 4136 H 419.648 -4.78498 -4.35487 0
M  V30 4137 N 419.78 1.02168 -1.19998 0
M  V30 4138 C 421.029 1.75091 -1.0013 0
M  V30 4139 C 421.342 1.89923 0.467835 0
M  V30 4140 O 422.548 2.59888 0.785515 0
M  V30 4141 C 421.004 3.14892 -1.74273 0
M  V30 4142 C 420.612 3.0809 -3.25245 0
M  V30 4143 C 422.356 3.9206 -1.62755 0
M  V30 4144 C 420.263 4.42867 -3.91948 0
M  V30 4145 H 419.193 0.656394 -0.37103 0
M  V30 4146 H 421.844 1.14284 -1.43567 0
M  V30 4147 H 420.226 3.7621 -1.2362 0
M  V30 4148 H 421.4 2.5611 -3.83072 0
M  V30 4149 H 419.715 2.44416 -3.3712 0
M  V30 4150 H 422.312 4.91764 -2.09934 0
M  V30 4151 H 422.655 4.12199 -0.582894 0
M  V30 4152 H 423.188 3.37359 -2.10793 0
M  V30 4153 H 419.927 4.27931 -4.96543 0
M  V30 4154 H 419.447 4.94874 -3.3891 0
M  V30 4155 H 421.126 5.11728 -3.95909 0
M  V30 4156 N 421.258 1.00505 1.21394 0
M  V30 4157 C 422.507 0.683159 1.89778 0
M  V30 4158 C 422.82 -0.789471 1.7896 0
M  V30 4159 O 424.026 -1.22344 2.42372 0
M  V30 4160 C 422.482 1.17146 3.40301 0
M  V30 4161 C 422.09 2.67017 3.5973 0
M  V30 4162 C 423.834 0.924461 4.14311 0
M  V30 4163 C 421.741 3.09387 5.04017 0
M  V30 4164 H 420.671 0.25183 0.710702 0
M  V30 4165 H 423.322 1.21622 1.37406 0
M  V30 4166 H 421.704 0.566451 3.91928 0
M  V30 4167 H 422.878 3.32968 3.18542 0
M  V30 4168 H 421.193 2.89732 2.99073 0
M  V30 4169 H 423.79 1.21658 5.20676 0
M  V30 4170 H 424.133 -0.139286 4.16067 0
M  V30 4171 H 424.666 1.49226 3.6875 0
M  V30 4172 H 421.405 4.14989 5.07409 0
M  V30 4173 H 420.925 2.48149 5.46061 0
M  V30 4174 H 422.604 3.01371 5.72525 0
M  V30 4175 N 422.737 -1.36956 0.779787 0
M  V30 4176 C 423.685 -2.32053 0.15942 0
M  V30 4177 C 424.679 -1.55333 -0.675878 0
M  V30 4178 O 425.885 -1.70668 -0.57204 0
M  V30 4179 H 422.26 -0.751286 0.0327707 0
M  V30 4180 H 424.231 -2.8195 0.977078 0
M  V30 4181 C 422.98 -3.40602 -0.698977 0
M  V30 4182 H 422.303 -3.99746 -0.0655966 0
M  V30 4183 H 423.743 -4.09486 -1.09989 0
M  V30 4184 C 422.202 -2.81359 -1.85307 0
M  V30 4185 O 422.732 -2.72751 -2.94906 0
M  V30 4186 N 420.938 -2.38786 -1.65619 0
M  V30 4187 H 420.485 -2.45987 -0.764725 0
M  V30 4188 H 420.443 -1.99493 -2.43002 0
M  V30 4189 N 424.215 -0.530993 -1.48385 0
M  V30 4190 C 425.145 0.219985 -2.32461 0
M  V30 4191 C 426.126 0.934111 -1.42156 0
M  V30 4192 O 427.311 0.919694 -1.71042 0
M  V30 4193 C 424.441 1.26674 -3.23375 0
M  V30 4194 C 423.395 0.67069 -4.22712 0
M  V30 4195 C 422.721 1.82017 -5.02766 0
M  V30 4196 C 424.021 -0.358268 -5.2107 0
M  V30 4197 H 425.715 -0.48187 -2.95497 0
M  V30 4198 H 423.261 -0.233182 -1.42099 0
M  V30 4199 H 425.214 1.80006 -3.81019 0
M  V30 4200 H 423.938 1.99818 -2.58341 0
M  V30 4201 H 422.597 0.158878 -3.66256 0
M  V30 4202 H 422.245 2.54002 -4.34157 0
M  V30 4203 H 421.945 1.42727 -5.70003 0
M  V30 4204 H 423.469 2.35725 -5.63264 0
M  V30 4205 H 424.883 0.0880081 -5.73232 0
M  V30 4206 H 423.28 -0.66861 -5.96364 0
M  V30 4207 H 424.35 -1.26367 -4.68145 0
M  V30 4208 N 425.693 1.55336 -0.266172 0
M  V30 4209 C 426.623 2.25146 0.618981 0
M  V30 4210 C 427.604 1.23845 1.16604 0
M  V30 4211 O 428.789 1.52544 1.20183 0
M  V30 4212 C 425.919 2.96572 1.80728 0
M  V30 4213 C 424.873 4.04726 1.39215 0
M  V30 4214 C 424.199 4.63678 2.66283 0
M  V30 4215 C 425.499 5.19407 0.548942 0
M  V30 4216 H 427.193 2.99377 0.0368116 0
M  V30 4217 H 424.739 1.43991 0.0162651 0
M  V30 4218 H 426.692 3.44116 2.43232 0
M  V30 4219 H 425.416 2.19861 2.41514 0
M  V30 4220 H 424.075 3.57979 0.790351 0
M  V30 4221 H 423.723 3.83646 3.25308 0
M  V30 4222 H 423.423 5.367 2.39222 0
M  V30 4223 H 424.947 5.13967 3.29651 0
M  V30 4224 H 426.361 5.63059 1.07876 0
M  V30 4225 H 424.758 5.98936 0.373593 0
M  V30 4226 H 425.828 4.8295 -0.434394 0
M  V30 4227 N 427.171 -0.0066808 1.57599 0
M  V30 4228 C 428.101 -0.999296 2.11036 0
M  V30 4229 C 429.082 -1.36278 1.01795 0
M  V30 4230 O 430.267 -1.4477 1.29442 0
M  V30 4231 C 427.397 -2.29328 2.60818 0
M  V30 4232 C 426.351 -2.07159 3.74525 0
M  V30 4233 C 425.677 -3.42512 4.10596 0
M  V30 4234 C 426.977 -1.43959 5.02069 0
M  V30 4235 H 428.671 -0.554382 2.94223 0
M  V30 4236 H 426.217 -0.265221 1.41536 0
M  V30 4237 H 428.17 -2.99117 2.96828 0
M  V30 4238 H 426.894 -2.7592 1.74745 0
M  V30 4239 H 425.553 -1.39797 3.38899 0
M  V30 4240 H 425.201 -3.86795 3.21556 0
M  V30 4241 H 424.901 -3.28498 4.87199 0
M  V30 4242 H 426.425 -4.13628 4.4916 0
M  V30 4243 H 427.839 -2.03696 5.35893 0
M  V30 4244 H 426.236 -1.40452 5.83432 0
M  V30 4245 H 427.306 -0.407992 4.83181 0
M  V30 4246 N 428.649 -1.55105 -0.279332 0
M  V30 4247 C 429.874 -1.7976 -1.03446 0
M  V30 4248 C 430.299 -0.565952 -1.79384 0
M  V30 4249 O 429.657 0.484259 -1.74713 0
M  V30 4250 C 429.705 -3.0179 -1.97371 0
M  V30 4251 O 428.809 -2.76432 -3.06038 0
M  V30 4252 H 428.15 -0.594334 -0.29608 0
M  V30 4253 H 430.68 -2.02235 -0.310165 0
M  V30 4254 H 430.69 -3.30351 -2.39441 0
M  V30 4255 H 429.365 -3.91085 -1.4151 0
M  V30 4256 H 427.942 -2.58949 -2.68328 0
M  V30 4257 N 430.127 0.543554 -1.4793 0
M  V30 4258 C 431.357 1.32324 -1.58663 0
M  V30 4259 C 431.765 1.8766 -0.240896 0
M  V30 4260 O 431.108 1.66411 0.778011 0
M  V30 4261 C 431.17 2.52094 -2.56299 0
M  V30 4262 C 430.834 2.17944 -4.01683 0
M  V30 4263 C 431.831 1.74422 -4.89768 0
M  V30 4264 C 429.516 2.28884 -4.47121 0
M  V30 4265 C 431.51 1.42287 -6.21316 0
M  V30 4266 C 429.197 1.96361 -5.78693 0
M  V30 4267 C 430.195 1.53132 -6.65612 0
M  V30 4268 O 429.883 1.21029 -7.94737 0
M  V30 4269 H 429.615 0.409174 -0.538101 0
M  V30 4270 H 432.169 0.663887 -1.94375 0
M  V30 4271 H 430.399 3.20965 -2.15681 0
M  V30 4272 H 432.088 3.14165 -2.57012 0
M  V30 4273 H 432.854 1.65452 -4.55907 0
M  V30 4274 H 428.733 2.61488 -3.79664 0
M  V30 4275 H 432.277 1.08472 -6.89115 0
M  V30 4276 H 428.174 2.04967 -6.12094 0
M  V30 4277 H 428.942 1.34543 -8.07366 0
M  V30 4278 N 431.605 1.3629 0.791371 0
M  V30 4279 C 433.021 1.16661 1.08914 0
M  V30 4280 C 433.221 -0.0106266 2.01497 0
M  V30 4281 O 432.277 -0.676596 2.43266 0
M  V30 4282 C 433.59 2.47656 1.70549 0
M  V30 4283 C 435.138 2.54002 1.82899 0
M  V30 4284 C 435.613 3.85078 2.47949 0
M  V30 4285 N 437.104 3.86413 2.5542 0
M  V30 4286 C 437.839 4.84572 3.06557 0
M  V30 4287 N 437.335 5.93124 3.58016 0
M  V30 4288 N 439.128 4.71994 3.05251 0
M  V30 4289 H 431.279 2.11668 0.176238 0
M  V30 4290 H 433.542 0.937486 0.140796 0
M  V30 4291 H 433.248 3.34059 1.09989 0
M  V30 4292 H 433.122 2.63319 2.70079 0
M  V30 4293 H 435.509 1.68018 2.42598 0
M  V30 4294 H 435.59 2.42239 0.821808 0
M  V30 4295 H 435.234 4.71467 1.88895 0
M  V30 4296 H 435.164 3.94135 3.49235 0
M  V30 4297 H 437.655 3.07988 2.18979 0
M  V30 4298 H 437.968 6.63999 3.95381 0
M  V30 4299 H 436.313 5.96796 3.56173 0
M  V30 4300 H 439.504 3.86321 2.64336 0
M  V30 4301 H 439.677 5.48653 3.44796 0
M  V30 4302 N 433.083 -1.0153 1.20538 0
M  V30 4303 C 434.36 -1.72327 0.925343 0
M  V30 4304 C 434.74 -2.03383 -0.565547 0
M  V30 4305 O 434.088 -1.69934 -1.52757 0
M  V30 4306 C 434.298 -2.9902 1.79967 0
M  V30 4307 C 435.646 -3.72258 2.04228 0
M  V30 4308 O 436.67 -3.08979 1.77231 0
M  V30 4309 O 435.529 -4.86053 2.4983 0
M  V30 4310 H 432.623 -0.751099 0.346092 0
M  V30 4311 H 435.169 -1.07366 1.31417 0
M  V30 4312 H 433.941 -2.72402 2.80915 0
M  V30 4313 H 433.564 -3.71721 1.41099 0
M  V30 4314 N 434.561 -1.01147 -1.20859 0
M  V30 4315 C 435.81 -0.693214 -1.89413 0
M  V30 4316 C 436.123 0.779969 -1.79376 0
M  V30 4317 O 437.329 1.21057 -2.43017 0
M  V30 4318 C 435.785 -1.18949 -3.39675 0
M  V30 4319 C 435.393 -2.68921 -3.58309 0
M  V30 4320 C 437.137 -0.94642 -4.13815 0
M  V30 4321 C 435.044 -3.12056 -5.0237 0
M  V30 4322 H 433.974 -0.255595 -0.709357 0
M  V30 4323 H 436.625 -1.22349 -1.36759 0
M  V30 4324 H 435.007 -0.587228 -3.91622 0
M  V30 4325 H 436.181 -3.34652 -3.16772 0
M  V30 4326 H 434.496 -2.91314 -2.97532 0
M  V30 4327 H 437.093 -1.24417 -5.20023 0
M  V30 4328 H 437.436 0.117219 -4.16135 0
M  V30 4329 H 437.969 -1.5118 -3.67953 0
M  V30 4330 H 434.708 -4.17674 -5.05202 0
M  V30 4331 H 434.228 -2.51041 -5.44737 0
M  V30 4332 H 435.907 -3.04403 -5.70918 0
M  V30 4333 N 436.039 1.36541 -0.78704 0
M  V30 4334 C 436.971 2.28761 -0.141773 0
M  V30 4335 C 437.984 1.49365 0.647599 0
M  V30 4336 O 439.173 1.71836 0.483173 0
M  V30 4337 C 436.273 3.28771 0.822368 0
M  V30 4338 C 435.446 4.3732 0.0835594 0
M  V30 4339 C 434.505 5.17307 0.963296 0
M  V30 4340 O 433.531 5.67638 0.421419 0
M  V30 4341 N 434.733 5.33515 2.28784 0
M  V30 4342 H 437.498 2.84777 -0.933919 0
M  V30 4343 H 435.059 1.48682 -0.640735 0
M  V30 4344 H 437.051 3.79169 1.41468 0
M  V30 4345 H 435.621 2.73412 1.5154 0
M  V30 4346 H 434.841 3.88118 -0.689809 0
M  V30 4347 H 436.129 5.0701 -0.426358 0
M  V30 4348 H 435.527 4.94234 2.75226 0
M  V30 4349 H 434.084 5.87165 2.82985 0
M  V30 4350 N 437.518 0.538854 1.48102 0
M  V30 4351 C 438.795 -0.0568108 1.95517 0
M  V30 4352 C 439.175 -1.50408 1.48124 0
M  V30 4353 O 438.523 -2.17133 0.711727 0
M  V30 4354 C 438.733 0.0696262 3.48931 0
M  V30 4355 C 440.081 -0.0851202 4.24515 0
M  V30 4356 O 441.105 -0.0037347 3.562 0
M  V30 4357 O 439.964 -0.257025 5.45895 0
M  V30 4358 H 437.058 -0.0743695 0.823649 0
M  V30 4359 H 439.604 0.604081 1.58584 0
M  V30 4360 H 438.376 1.07744 3.76174 0
M  V30 4361 H 437.999 -0.629714 3.92582 0
M  V30 4362 N 438.996 -1.55193 0.274407 0
M  V30 4363 C 440.226 -2.03692 -0.345442 0
M  V30 4364 C 440.634 -1.15224 -1.50067 0
M  V30 4365 O 439.977 -0.164749 -1.8296 0
M  V30 4366 C 440.039 -3.48325 -0.88939 0
M  V30 4367 C 439.703 -4.56794 0.137115 0
M  V30 4368 C 440.7 -5.11028 0.956378 0
M  V30 4369 C 438.385 -5.01568 0.27115 0
M  V30 4370 C 440.379 -6.08552 1.89587 0
M  V30 4371 C 438.066 -5.98918 1.21412 0
M  V30 4372 C 439.064 -6.52291 2.02498 0
M  V30 4373 O 438.752 -7.47738 2.952 0
M  V30 4374 H 438.484 -0.670893 -0.0829332 0
M  V30 4375 H 441.038 -2.01387 0.404056 0
M  V30 4376 H 439.268 -3.47867 -1.68895 0
M  V30 4377 H 440.957 -3.80167 -1.42225 0
M  V30 4378 H 441.723 -4.7725 0.863559 0
M  V30 4379 H 437.602 -4.5967 -0.349987 0
M  V30 4380 H 441.146 -6.50137 2.52918 0
M  V30 4381 H 437.043 -6.32114 1.30776 0
M  V30 4382 H 437.811 -7.65451 2.89874 0
M  V30 4383 N 440.474 -0.00167713 -1.576 0
M  V30 4384 C 441.751 0.719951 -1.81868 0
M  V30 4385 C 442.131 1.91895 -0.879747 0
M  V30 4386 O 441.479 2.28389 0.0711423 0
M  V30 4387 C 441.689 1.12409 -3.30402 0
M  V30 4388 C 443.037 1.52724 -3.96182 0
M  V30 4389 O 444.061 1.21784 -3.34734 0
M  V30 4390 O 442.92 2.10265 -5.04431 0
M  V30 4391 H 440.014 0.350707 -0.748955 0
M  V30 4392 H 442.56 -0.0272597 -1.69678 0
M  V30 4393 H 441.332 0.269532 -3.90371 0
M  V30 4394 H 440.955 1.93035 -3.47596 0
M  V30 4395 N 441.952 1.55251 0.271103 0
M  V30 4396 C 442.915 1.87484 1.31842 0
M  V30 4397 C 443.915 0.749545 1.42262 0
M  V30 4398 O 445.105 1.01771 1.4138 0
M  V30 4399 C 442.237 2.0818 2.69951 0
M  V30 4400 H 443.43 2.81108 1.0449 0
M  V30 4401 H 440.983 1.47771 0.509258 0
M  V30 4402 H 441.718 1.16944 3.02481 0
M  V30 4403 H 441.503 2.90114 2.63774 0
M  V30 4404 H 442.993 2.34385 3.4562 0
M  V30 4405 N 443.43 -0.535701 1.48216 0
M  V30 4406 C 444.363 -1.65726 1.56876 0
M  V30 4407 C 445.341 -1.57094 0.419542 0
M  V30 4408 O 446.525 -1.77648 0.630352 0
M  V30 4409 C 443.652 -3.04096 1.49142 0
M  V30 4410 C 442.698 -3.31105 2.68834 0
M  V30 4411 S 443.531 -3.18001 4.30854 0
M  V30 4412 C 444.687 -4.58828 4.25709 0
M  V30 4413 H 444.92 -1.58129 2.51759 0
M  V30 4414 H 442.453 -0.718218 1.36678 0
M  V30 4415 H 444.411 -3.839 1.45366 0
M  V30 4416 H 443.072 -3.09139 0.556067 0
M  V30 4417 H 442.265 -4.32033 2.59545 0
M  V30 4418 H 441.867 -2.58961 2.69843 0
M  V30 4419 H 444.159 -5.5023 3.95289 0
M  V30 4420 H 445.102 -4.73172 5.26796 0
M  V30 4421 H 445.51 -4.37883 3.56257 0
M  V30 4422 N 444.908 -1.36708 -0.784132 0
M  V30 4423 C 446.154 -1.31426 -1.54451 0
M  V30 4424 C 446.487 0.10476 -1.93917 0
M  V30 4425 O 445.762 1.05934 -1.6312 0
M  V30 4426 C 446.045 -2.24189 -2.818 0
M  V30 4427 C 445.898 -3.74813 -2.48667 0
M  V30 4428 C 447.217 -2.15626 -3.83658 0
M  V30 4429 H 444.336 -0.478739 -0.560337 0
M  V30 4430 H 446.978 -1.67305 -0.900498 0
M  V30 4431 H 445.128 -1.93722 -3.36755 0
M  V30 4432 H 446.8 -4.15823 -1.99722 0
M  V30 4433 H 445.043 -3.93989 -1.81535 0
M  V30 4434 H 445.714 -4.35138 -3.39646 0
M  V30 4435 H 448.19 -2.42456 -3.38163 0
M  V30 4436 H 447.066 -2.82694 -4.70506 0
M  V30 4437 H 447.327 -1.14522 -4.27009 0
M  V30 4438 N 446.386 1.0089 -1.21074 0
M  V30 4439 C 447.333 2.09588 -0.966512 0
M  V30 4440 C 448.303 1.65761 0.106089 0
M  V30 4441 O 449.488 1.90758 -0.0402287 0
M  V30 4442 C 446.628 3.40958 -0.533058 0
M  V30 4443 C 445.741 3.9822 -1.67467 0
M  V30 4444 C 444.876 5.17682 -1.19076 0
M  V30 4445 C 443.915 5.67043 -2.30496 0
M  V30 4446 N 443.052 6.77759 -1.83267 0
M  V30 4447 H 447.892 2.29815 -1.89708 0
M  V30 4448 H 445.429 1.12689 -0.945489 0
M  V30 4449 H 447.387 4.1637 -0.263019 0
M  V30 4450 H 446.017 3.20781 0.360505 0
M  V30 4451 H 445.069 3.1983 -2.05944 0
M  V30 4452 H 446.381 4.3085 -2.51336 0
M  V30 4453 H 445.535 6.00326 -0.877151 0
M  V30 4454 H 444.274 4.86635 -0.322066 0
M  V30 4455 H 443.279 4.82999 -2.62664 0
M  V30 4456 H 444.504 6.00121 -3.17855 0
M  V30 4457 H 442.45 6.48527 -0.987356 0
M  V30 4458 H 442.367 7.09624 -2.60711 0
M  V30 4459 H 443.635 7.63949 -1.54928 0
M  V30 4460 N 447.864 1.01787 1.20321 0
M  V30 4461 C 448.794 0.609625 2.25401 0
M  V30 4462 C 449.775 -0.375951 1.65893 0
M  V30 4463 O 450.96 -0.261101 1.92437 0
M  V30 4464 C 448.09 -0.0515995 3.47262 0
M  V30 4465 C 447.044 0.855095 4.19371 0
M  V30 4466 C 446.37 0.0595757 5.34667 0
M  V30 4467 C 447.67 2.16374 4.75373 0
M  V30 4468 H 449.364 1.48803 2.59804 0
M  V30 4469 H 446.91 0.716934 1.24884 0
M  V30 4470 H 448.863 -0.348764 4.19954 0
M  V30 4471 H 447.587 -0.964726 3.12027 0
M  V30 4472 H 446.246 1.13628 3.48546 0
M  V30 4473 H 445.894 -0.85524 4.95676 0
M  V30 4474 H 445.594 0.663406 5.83843 0
M  V30 4475 H 447.118 -0.231105 6.10162 0
M  V30 4476 H 448.532 1.92885 5.39878 0
M  V30 4477 H 446.929 2.71853 5.34991 0
M  V30 4478 H 447.999 2.82589 3.94045 0
M  V30 4479 N 449.342 -1.36122 0.79427 0
M  V30 4480 C 450.588 -1.99406 0.369452 0
M  V30 4481 C 450.921 -1.62886 -1.05743 0
M  V30 4482 O 450.196 -0.886053 -1.73145 0
M  V30 4483 C 450.479 -3.56046 0.538833 0
M  V30 4484 C 450.332 -4.02404 2.00976 0
M  V30 4485 C 451.651 -4.40079 -0.0431359 0
M  V30 4486 H 448.77 -0.724397 0.135712 0
M  V30 4487 H 451.412 -1.61461 1.00151 0
M  V30 4488 H 449.562 -3.885 0.000771004 0
M  V30 4489 H 451.234 -3.80415 2.60926 0
M  V30 4490 H 449.477 -3.53765 2.51063 0
M  V30 4491 H 450.148 -5.11344 2.07922 0
M  V30 4492 H 452.624 -4.14013 0.416228 0
M  V30 4493 H 451.5 -5.48799 0.105374 0
M  V30 4494 H 451.761 -4.27264 -1.13571 0
M  V30 4495 N 450.82 -0.546701 -1.47814 0
M  V30 4496 C 451.73 0.21026 -2.33656 0
M  V30 4497 C 452.746 0.922413 -1.47538 0
M  V30 4498 O 453.922 0.893652 -1.80488 0
M  V30 4499 C 450.987 1.23348 -3.24016 0
M  V30 4500 C 450.048 0.529883 -4.26017 0
M  V30 4501 C 449.281 1.50435 -5.12059 0
M  V30 4502 O 449.504 2.73837 -5.00369 0
M  V30 4503 O 448.438 1.03459 -5.92942 0
M  V30 4504 H 452.264 -0.493605 -2.99662 0
M  V30 4505 H 449.849 -0.307427 -1.46203 0
M  V30 4506 H 451.731 1.82438 -3.79861 0
M  V30 4507 H 450.406 1.91945 -2.60651 0
M  V30 4508 H 449.313 -0.101948 -3.73961 0
M  V30 4509 H 450.646 -0.11445 -4.92067 0
M  V30 4510 N 452.299 1.55045 -0.282633 0
M  V30 4511 C 453.527 2.04168 0.33512 0
M  V30 4512 C 453.942 1.16071 1.48906 0
M  V30 4513 O 453.299 0.182391 1.81586 0
M  V30 4514 C 453.35 3.52332 0.808957 0
M  V30 4515 O 453.071 4.37078 -0.299038 0
M  V30 4516 C 454.572 4.17375 1.49375 0
M  V30 4517 H 451.792 0.666744 0.0754543 0
M  V30 4518 H 454.336 2.00205 -0.416918 0
M  V30 4519 H 452.491 3.56715 1.51106 0
M  V30 4520 H 452.905 5.24458 0.0665514 0
M  V30 4521 H 454.379 5.22627 1.77664 0
M  V30 4522 H 454.856 3.65999 2.42778 0
M  V30 4523 H 455.462 4.17016 0.835305 0
M  V30 4524 N 453.777 0.010035 1.57597 0
M  V30 4525 C 454.707 -0.976857 2.12084 0
M  V30 4526 C 455.688 -1.35191 1.03235 0
M  V30 4527 O 456.873 -1.43389 1.3097 0
M  V30 4528 C 454.003 -2.26548 2.63236 0
M  V30 4529 C 452.957 -2.03175 3.76701 0
M  V30 4530 C 452.283 -3.38138 4.14206 0
M  V30 4531 C 453.583 -1.38625 5.03568 0
M  V30 4532 H 455.277 -0.523145 2.94794 0
M  V30 4533 H 452.823 -0.250195 1.4181 0
M  V30 4534 H 454.776 -2.95952 2.99984 0
M  V30 4535 H 453.5 -2.74051 1.77661 0
M  V30 4536 H 452.159 -1.36195 3.40362 0
M  V30 4537 H 451.807 -3.83363 3.25641 0
M  V30 4538 H 451.507 -3.23312 4.90656 0
M  V30 4539 H 453.031 -4.08841 4.53521 0
M  V30 4540 H 454.445 -1.98 5.38023 0
M  V30 4541 H 452.842 -1.34256 5.84889 0
M  V30 4542 H 453.912 -0.356722 4.83586 0
M  V30 4543 N 455.255 -1.55392 -0.262866 0
M  V30 4544 C 456.165 -1.92077 -1.34698 0
M  V30 4545 C 457.181 -0.819227 -1.53508 0
M  V30 4546 O 458.357 -1.11921 -1.67439 0
M  V30 4547 C 455.422 -2.19407 -2.68443 0
M  V30 4548 C 454.483 -3.42905 -2.58292 0
M  V30 4549 C 453.716 -3.68921 -3.85659 0
M  V30 4550 O 453.939 -2.97275 -4.8681 0
M  V30 4551 O 452.873 -4.62455 -3.85252 0
M  V30 4552 H 456.699 -2.84384 -1.06581 0
M  V30 4553 H 454.284 -1.42069 -0.462264 0
M  V30 4554 H 456.166 -2.38365 -3.47506 0
M  V30 4555 H 454.841 -1.30282 -2.96325 0
M  V30 4556 H 453.748 -3.29272 -1.7757 0
M  V30 4557 H 455.081 -4.32282 -2.35358 0
M  V30 4558 N 456.733 0.527833 -1.48498 0
M  V30 4559 C 457.666 1.64892 -1.57753 0
M  V30 4560 C 458.644 1.5687 -0.427867 0
M  V30 4561 O 459.828 1.77311 -0.639764 0
M  V30 4562 C 456.955 3.03301 -1.50752 0
M  V30 4563 C 456.001 3.29675 -2.70586 0
M  V30 4564 S 456.834 3.15712 -4.32535 0
M  V30 4565 C 457.99 4.56564 -4.28136 0
M  V30 4566 H 458.223 1.56792 -2.52594 0
M  V30 4567 H 455.756 0.710959 -1.37057 0
M  V30 4568 H 457.714 3.83123 -1.474 0
M  V30 4569 H 456.375 3.08839 -0.572454 0
M  V30 4570 H 455.568 4.3065 -2.61833 0
M  V30 4571 H 455.17 2.57526 -2.71212 0
M  V30 4572 H 457.462 5.48126 -3.98201 0
M  V30 4573 H 458.405 4.70371 -5.29298 0
M  V30 4574 H 458.813 4.35987 -3.58574 0
M  V30 4575 N 458.211 1.37122 0.776871 0
M  V30 4576 C 459.141 1.35164 1.90402 0
M  V30 4577 C 460.122 0.221069 1.68657 0
M  V30 4578 O 461.307 0.420642 1.8959 0
M  V30 4579 C 458.437 1.15274 3.27611 0
M  V30 4580 C 457.391 2.25289 3.63908 0
M  V30 4581 C 456.717 1.90527 4.99603 0
M  V30 4582 C 458.017 3.67446 3.71188 0
M  V30 4583 H 459.711 2.29482 1.92297 0
M  V30 4584 H 457.257 1.10465 0.923773 0
M  V30 4585 H 459.21 1.12536 4.06096 0
M  V30 4586 H 457.934 0.174102 3.26136 0
M  V30 4587 H 456.593 2.27174 2.87728 0
M  V30 4588 H 456.241 0.91206 4.94662 0
M  V30 4589 H 455.941 2.64193 5.24858 0
M  V30 4590 H 457.465 1.89367 5.80493 0
M  V30 4591 H 458.879 3.67719 4.39836 0
M  V30 4592 H 457.276 4.40123 4.07936 0
M  V30 4593 H 458.346 4.01443 2.71977 0
M  V30 4594 N 459.689 -1.00246 1.21608 0
M  V30 4595 C 461.1 -1.55511 1.03312 0
M  V30 4596 C 461.451 -1.91946 -0.406332 0
M  V30 4597 O 460.576 -1.73753 -1.28992 0
M  V30 4598 C 461.171 -2.82576 1.86913 0
M  V30 4599 C 459.73 -3.34318 1.72941 0
M  V30 4600 C 458.877 -2.07487 1.83968 0
M  V30 4601 H 461.828 -0.824638 1.35593 0
M  V30 4602 H 461.849 -3.54559 1.38087 0
M  V30 4603 H 461.361 -2.56026 2.91672 0
M  V30 4604 H 459.462 -3.65797 0.70877 0
M  V30 4605 H 459.575 -4.05566 2.55055 0
M  V30 4606 H 457.939 -2.20603 1.27304 0
M  V30 4607 H 458.722 -1.83346 2.9024 0
M  V30 4608 N 461.167 -1.02423 -1.1978 0
M  V30 4609 C 462.395 -0.737456 -1.93311 0
M  V30 4610 C 462.81 0.703023 -1.75223 0
M  V30 4611 O 462.167 1.47761 -1.07112 0
M  V30 4612 C 462.218 -1.0733 -3.45199 0
M  V30 4613 O 461.939 -2.4572 -3.62702 0
M  V30 4614 C 463.44 -0.80866 -4.35862 0
M  V30 4615 H 460.66 -0.2702 -0.614193 0
M  V30 4616 H 463.204 -1.36747 -1.52054 0
M  V30 4617 H 461.359 -0.488545 -3.84307 0
M  V30 4618 H 461.773 -2.58081 -4.56612 0
M  V30 4619 H 463.247 -1.09365 -5.41057 0
M  V30 4620 H 463.724 0.257025 -4.38447 0
M  V30 4621 H 464.33 -1.37592 -4.02428 0
M  V30 4622 N 462.645 1.35699 -0.801477 0
M  V30 4623 C 463.885 2.00741 -0.385027 0
M  V30 4624 C 464.249 1.62213 1.02718 0
M  V30 4625 O 465.45 2.19936 1.54537 0
M  V30 4626 C 463.721 3.53032 -0.557057 0
M  V30 4627 S 465.28 4.38195 -0.230272 0
M  V30 4628 H 462.098 0.695748 -0.146477 0
M  V30 4629 H 464.7 1.65378 -1.04261 0
M  V30 4630 H 463.404 3.7856 -1.58494 0
M  V30 4631 H 462.935 3.93229 0.116029 0
M  V30 4632 H 464.95 4.86748 0.963895 0
M  V30 4633 N 464.123 0.554532 1.47522 0
M  V30 4634 C 465.4 -0.0360704 1.95567 0
M  V30 4635 C 465.78 -1.48828 1.49711 0
M  V30 4636 O 465.128 -2.16366 0.734717 0
M  V30 4637 C 465.338 0.106631 3.48837 0
M  V30 4638 C 466.686 -0.0400899 4.24581 0
M  V30 4639 O 467.71 0.0340453 3.56184 0
M  V30 4640 O 466.569 -0.199111 5.46137 0
M  V30 4641 H 463.663 -0.0656294 0.824392 0
M  V30 4642 H 466.209 0.620867 1.57935 0
M  V30 4643 H 464.981 1.11727 3.7501 0
M  V30 4644 H 464.604 -0.58804 3.93227 0
M  V30 4645 N 465.601 -1.54893 0.290851 0
M  V30 4646 C 466.531 -2.26103 -0.583084 0
M  V30 4647 C 467.512 -1.25684 -1.14619 0
M  V30 4648 O 468.697 -1.54436 -1.17741 0
M  V30 4649 C 465.827 -2.99409 -1.75987 0
M  V30 4650 C 464.781 -4.0689 -1.32758 0
M  V30 4651 C 464.107 -4.67856 -2.58872 0
M  V30 4652 C 465.407 -5.20215 -0.46624 0
M  V30 4653 H 467.101 -2.99398 0.0108214 0
M  V30 4654 H 464.647 -1.43998 0.00664468 0
M  V30 4655 H 466.6 -3.47943 -2.37727 0
M  V30 4656 H 465.324 -2.23675 -2.37985 0
M  V30 4657 H 463.983 -3.59191 -0.733299 0
M  V30 4658 H 463.631 -3.88772 -3.19163 0
M  V30 4659 H 463.331 -5.40438 -2.30653 0
M  V30 4660 H 464.855 -5.19147 -3.21433 0
M  V30 4661 H 466.269 -5.64704 -0.989047 0
M  V30 4662 H 464.666 -5.99455 -0.27826 0
M  V30 4663 H 465.736 -4.82198 0.511173 0
M  V30 4664 N 467.08 -0.0183926 -1.57589 0
M  V30 4665 C 468.043 0.951986 -2.08494 0
M  V30 4666 C 469.043 1.26092 -0.997874 0
M  V30 4667 O 470.233 1.20304 -1.25987 0
M  V30 4668 C 467.365 2.27165 -2.54182 0
M  V30 4669 H 468.558 0.511307 -2.95509 0
M  V30 4670 H 466.111 0.229444 -1.54607 0
M  V30 4671 H 466.846 2.75884 -1.70465 0
M  V30 4672 H 466.631 2.06057 -3.33591 0
M  V30 4673 H 468.121 2.9674 -2.93828 0
M  V30 4674 N 468.558 1.5553 0.254621 0
M  V30 4675 C 469.835 1.6774 1.00611 0
M  V30 4676 C 470.215 0.555993 2.03647 0
M  V30 4677 O 469.563 -0.441583 2.24193 0
M  V30 4678 C 469.773 3.07725 1.6464 0
M  V30 4679 C 471.121 3.66074 2.15116 0
M  V30 4680 O 472.145 3.10476 1.74595 0
M  V30 4681 O 471.004 4.63526 2.89493 0
M  V30 4682 H 468.098 0.681958 0.467828 0
M  V30 4683 H 470.644 1.67863 0.24902 0
M  V30 4684 H 469.416 3.80792 0.900734 0
M  V30 4685 H 469.039 3.1158 2.46989 0
M  V30 4686 N 470.036 -0.519951 1.48776 0
M  V30 4687 C 470.968 -1.63973 1.60142 0
M  V30 4688 C 471.981 -1.55404 0.485117 0
M  V30 4689 O 473.17 -1.61682 0.756391 0
M  V30 4690 C 470.27 -3.02676 1.52449 0
M  V30 4691 C 469.443 -3.36624 2.79291 0
M  V30 4692 C 468.502 -4.54652 2.64912 0
M  V30 4693 O 467.528 -4.57374 3.38818 0
M  V30 4694 N 468.73 -5.53432 1.75195 0
M  V30 4695 H 471.495 -1.54656 2.56713 0
M  V30 4696 H 469.056 -0.707439 1.45626 0
M  V30 4697 H 471.048 -3.79525 1.4051 0
M  V30 4698 H 469.618 -3.06018 0.638125 0
M  V30 4699 H 468.838 -2.48855 3.0572 0
M  V30 4700 H 470.126 -3.56094 3.6342 0
M  V30 4701 H 469.524 -5.54018 1.14371 0
M  V30 4702 H 468.081 -6.29459 1.69189 0
M  V30 4703 N 471.514 -1.37532 -0.769588 0
M  V30 4704 C 472.464 -1.29984 -1.87318 0
M  V30 4705 C 473.448 -0.187242 -1.59807 0
M  V30 4706 O 474.64 -0.421827 -1.719 0
M  V30 4707 C 471.769 -1.11126 -3.24817 0
M  V30 4708 C 470.855 -2.26939 -3.58273 0
M  V30 4709 N 471.246 -3.52336 -3.62895 0
M  V30 4710 C 469.544 -2.19141 -3.8845 0
M  V30 4711 C 470.245 -4.28719 -3.9316 0
M  V30 4712 N 469.221 -3.57884 -4.0917 0
M  V30 4713 H 473.023 -2.24946 -1.89147 0
M  V30 4714 H 470.537 -1.30535 -0.966143 0
M  V30 4715 H 472.534 -1.03803 -4.0377 0
M  V30 4716 H 471.194 -0.17083 -3.2425 0
M  V30 4717 H 472.205 -3.86216 -3.45048 0
M  V30 4718 H 468.882 -1.33167 -3.95693 0
M  V30 4719 H 470.272 -5.37254 -4.03494 0
M  V30 4720 N 472.992 0.995999 -1.22138 0
M  V30 4721 C 473.94 2.10673 -0.985876 0
M  V30 4722 C 474.934 1.69255 0.0699553 0
M  V30 4723 O 476.14 1.79812 -0.0822176 0
M  V30 4724 H 472.515 0.688865 -0.30161 0
M  V30 4725 H 474.486 2.27711 -1.92848 0
M  V30 4726 C 473.235 3.42881 -0.576909 0
M  V30 4727 H 472.558 3.75191 -1.38101 0
M  V30 4728 H 473.998 4.21589 -0.451518 0
M  V30 4729 C 472.457 3.29265 0.713196 0
M  V30 4730 O 472.987 3.60777 1.76643 0
M  V30 4731 N 471.193 2.82456 0.683162 0
M  V30 4732 H 470.74 2.5701 -0.174242 0
M  V30 4733 H 470.698 2.73727 1.54663 0
M  V30 4734 N 474.47 1.03057 1.19235 0
M  V30 4735 C 475.719 0.72326 1.88287 0
M  V30 4736 C 476.032 -0.751333 1.80594 0
M  V30 4737 O 477.238 -1.17176 2.44912 0
M  V30 4738 C 475.694 1.24338 3.3774 0
M  V30 4739 C 475.302 2.74587 3.53986 0
M  V30 4740 C 477.046 1.01213 4.12257 0
M  V30 4741 C 474.953 3.20009 4.97341 0
M  V30 4742 H 473.883 0.266848 0.705201 0
M  V30 4743 H 476.534 1.24509 1.34795 0
M  V30 4744 H 474.916 0.649457 3.90638 0
M  V30 4745 H 476.09 3.39649 3.11408 0
M  V30 4746 H 474.405 2.9601 2.9286 0
M  V30 4747 H 477.002 1.32675 5.17978 0
M  V30 4748 H 477.345 -0.051001 4.16269 0
M  V30 4749 H 477.878 1.57014 3.65501 0
M  V30 4750 H 474.617 4.25659 4.98493 0
M  V30 4751 H 474.137 2.59676 5.40674 0
M  V30 4752 H 475.816 3.13447 5.66003 0
M  V30 4753 N 475.948 -1.35272 0.808662 0
M  V30 4754 C 476.895 -2.29764 0.218482 0
M  V30 4755 C 477.865 -1.52911 -0.648652 0
M  V30 4756 O 479.05 -1.81341 -0.593297 0
M  V30 4757 C 476.19 -3.39388 -0.625282 0
M  V30 4758 C 475.303 -4.31202 0.262516 0
M  V30 4759 C 474.438 -5.27919 -0.589451 0
M  V30 4760 C 473.477 -6.11371 0.298617 0
M  V30 4761 N 472.614 -7.0022 -0.513443 0
M  V30 4762 H 477.454 -2.79645 1.02968 0
M  V30 4763 H 474.991 -1.37629 0.519303 0
M  V30 4764 H 476.949 -4.01615 -1.12966 0
M  V30 4765 H 475.579 -2.90777 -1.40173 0
M  V30 4766 H 474.631 -3.69962 0.885013 0
M  V30 4767 H 475.943 -4.89748 0.945971 0
M  V30 4768 H 475.097 -5.95529 -1.15888 0
M  V30 4769 H 473.836 -4.69875 -1.30647 0
M  V30 4770 H 472.841 -5.42707 0.880301 0
M  V30 4771 H 474.066 -6.71494 1.01352 0
M  V30 4772 H 472.012 -6.44662 -1.21439 0
M  V30 4773 H 471.929 -7.55917 0.111922 0
M  V30 4774 H 473.197 -7.72175 -1.06608 0
M  V30 4775 N 477.426 -0.562348 -1.47226 0
M  V30 4776 C 478.673 -0.0402165 -2.0246 0
M  V30 4777 C 479.001 1.31169 -1.43614 0
M  V30 4778 O 478.256 1.86805 -0.5833 0
M  V30 4779 C 478.555 0.0969817 -3.57268 0
M  V30 4780 C 478.221 -1.1847 -4.35058 0
M  V30 4781 C 476.883 -1.53588 -4.56031 0
M  V30 4782 C 479.235 -2.03378 -4.79882 0
M  V30 4783 C 476.563 -2.73452 -5.19077 0
M  V30 4784 C 478.915 -3.2245 -5.44251 0
M  V30 4785 C 477.579 -3.57876 -5.63455 0
M  V30 4786 H 476.849 -0.0147163 -0.740854 0
M  V30 4787 H 479.496 -0.734895 -1.76838 0
M  V30 4788 H 477.801 0.87466 -3.81912 0
M  V30 4789 H 479.498 0.516408 -3.97661 0
M  V30 4790 H 476.088 -0.90126 -4.19017 0
M  V30 4791 H 480.272 -1.77553 -4.63453 0
M  V30 4792 H 475.528 -3.01062 -5.32139 0
M  V30 4793 H 479.702 -3.88526 -5.77945 0
M  V30 4794 H 477.329 -4.50849 -6.12078 0
M  V30 4795 N 478.904 1.54736 -0.299062 0
M  V30 4796 C 479.854 2.20155 0.592932 0
M  V30 4797 C 480.838 1.1739 1.10038 0
M  V30 4798 O 482.03 1.43116 1.04147 0
M  V30 4799 C 479.159 2.94437 1.76527 0
M  V30 4800 C 478.245 4.04516 1.27388 0
M  V30 4801 N 478.636 5.03319 0.500339 0
M  V30 4802 C 476.934 4.18022 1.55478 0
M  V30 4803 C 477.635 5.81209 0.238909 0
M  V30 4804 N 476.611 5.37408 0.818163 0
M  V30 4805 H 480.413 2.93899 -0.00563596 0
M  V30 4806 H 477.927 1.62068 -0.103732 0
M  V30 4807 H 479.924 3.3977 2.41582 0
M  V30 4808 H 478.584 2.22209 2.36756 0
M  V30 4809 H 479.595 5.17696 0.145419 0
M  V30 4810 H 476.272 3.56998 2.16469 0
M  V30 4811 H 477.662 6.70812 -0.382223 0
M  V30 4812 N 480.382 0.0267497 1.57577 0
M  V30 4813 C 481.612 -0.6617 1.95717 0
M  V30 4814 C 482.02 -1.66331 0.901706 0
M  V30 4815 O 481.363 -1.83273 -0.125241 0
M  V30 4816 C 481.425 -1.42649 3.29987 0
M  V30 4817 C 481.089 -0.583482 4.5326 0
M  V30 4818 C 482.086 0.140221 5.19711 0
M  V30 4819 C 479.771 -0.521581 4.99585 0
M  V30 4820 C 481.765 0.914523 6.30805 0
M  V30 4821 C 479.452 0.256428 6.10562 0
M  V30 4822 C 480.45 0.973189 6.76031 0
M  V30 4823 O 480.138 1.73845 7.84878 0
M  V30 4824 H 479.87 -0.187483 0.649481 0
M  V30 4825 H 482.424 0.0820847 2.05236 0
M  V30 4826 H 480.654 -2.21536 3.16952 0
M  V30 4827 H 482.343 -2.00282 3.53047 0
M  V30 4828 H 483.109 0.101716 4.84893 0
M  V30 4829 H 478.988 -1.06904 4.48433 0
M  V30 4830 H 482.532 1.4745 6.81839 0
M  V30 4831 H 478.429 0.296657 6.44818 0
M  V30 4832 H 479.197 1.65797 8.01532 0
M  V30 4833 N 481.861 -1.55662 -0.24637 0
M  V30 4834 C 482.824 -1.89558 -1.28842 0
M  V30 4835 C 483.824 -0.772082 -1.41052 0
M  V30 4836 O 485.014 -1.04007 -1.39743 0
M  V30 4837 C 482.146 -2.12449 -2.66605 0
M  V30 4838 H 483.339 -2.82735 -1.00004 0
M  V30 4839 H 480.892 -1.48562 -0.485684 0
M  V30 4840 H 481.627 -1.21742 -3.00582 0
M  V30 4841 H 481.412 -2.94273 -2.59125 0
M  V30 4842 H 482.902 -2.39854 -3.41847 0
M  V30 4843 N 483.339 0.512053 -1.4905 0
M  V30 4844 C 484.586 1.26686 -1.57978 0
M  V30 4845 C 484.914 1.92733 -0.261553 0
M  V30 4846 O 484.169 1.80772 0.749667 0
M  V30 4847 C 484.468 2.36446 -2.68008 0
M  V30 4848 C 484.134 1.87932 -4.09869 0
M  V30 4849 C 482.796 1.74419 -4.48477 0
M  V30 4850 C 485.148 1.5149 -4.98698 0
M  V30 4851 C 482.476 1.22827 -5.73699 0
M  V30 4852 C 484.828 1.01355 -6.24428 0
M  V30 4853 C 483.492 0.864735 -6.61875 0
M  V30 4854 H 482.762 0.463577 -0.578081 0
M  V30 4855 H 485.409 0.569421 -1.82838 0
M  V30 4856 H 483.714 3.11933 -2.37076 0
M  V30 4857 H 485.411 2.9453 -2.72127 0
M  V30 4858 H 482.001 1.99405 -3.79389 0
M  V30 4859 H 486.185 1.60782 -4.69535 0
M  V30 4860 H 481.441 1.10008 -6.01422 0
M  V30 4861 H 485.615 0.722351 -6.92644 0
M  V30 4862 H 483.242 0.462777 -7.5879 0
M  V30 4863 N 484.817 1.37938 0.762283 0
M  V30 4864 C 485.78 1.34279 1.85747 0
M  V30 4865 C 486.78 0.244969 1.58923 0
M  V30 4866 O 487.97 0.501365 1.66829 0
M  V30 4867 C 485.102 1.08833 3.23061 0
M  V30 4868 H 486.295 2.31705 1.90401 0
M  V30 4869 H 483.848 1.23105 0.963057 0
M  V30 4870 H 484.583 0.119767 3.24079 0
M  V30 4871 H 484.368 1.88306 3.43923 0
M  V30 4872 H 485.858 1.08946 4.03138 0
M  V30 4873 N 486.295 -0.989507 1.22664 0
M  V30 4874 C 487.225 -2.09847 1.02404 0
M  V30 4875 C 488.206 -1.70007 -0.0561303 0
M  V30 4876 O 489.391 -1.93906 0.106748 0
M  V30 4877 C 486.521 -3.41996 0.604663 0
M  V30 4878 C 485.475 -3.95699 1.63115 0
M  V30 4879 C 484.801 -5.23936 1.0675 0
M  V30 4880 C 486.101 -4.25999 3.02196 0
M  V30 4881 H 487.795 -2.27054 1.95158 0
M  V30 4882 H 485.341 -1.09111 0.939727 0
M  V30 4883 H 487.294 -4.1899 0.45002 0
M  V30 4884 H 486.018 -3.24626 -0.35855 0
M  V30 4885 H 484.677 -3.2084 1.77362 0
M  V30 4886 H 484.325 -5.02909 0.0955422 0
M  V30 4887 H 484.025 -5.60833 1.75328 0
M  V30 4888 H 485.549 -6.0356 0.924516 0
M  V30 4889 H 486.963 -4.93777 2.91303 0
M  V30 4890 H 485.36 -4.74076 3.67929 0
M  V30 4891 H 486.43 -3.33636 3.51873 0
M  V30 4892 N 487.773 -1.03688 -1.18687 0
M  V30 4893 C 488.721 -0.618292 -2.24232 0
M  V30 4894 C 489.715 0.353045 -1.6568 0
M  V30 4895 O 490.921 0.220749 -1.78641 0
M  V30 4896 H 487.296 -0.181711 -0.729716 0
M  V30 4897 H 489.267 -1.51893 -2.56848 0
M  V30 4898 C 488.016 0.00677342 -3.47699 0
M  V30 4899 H 487.339 -0.731692 -3.93047 0
M  V30 4900 H 488.779 0.262492 -4.23187 0
M  V30 4901 C 487.238 1.25572 -3.12623 0
M  V30 4902 O 487.768 2.34691 -3.26011 0
M  V30 4903 N 485.974 1.14755 -2.66982 0
M  V30 4904 H 485.521 0.259601 -2.56289 0
M  V30 4905 H 485.479 1.98412 -2.43885 0
M  V30 4906 N 489.251 1.34841 -0.815825 0
M  V30 4907 C 490.667 1.51543 -0.500697 0
M  V30 4908 C 490.867 1.76261 0.976444 0
M  V30 4909 O 489.923 1.8094 1.76117 0
M  V30 4910 C 491.236 2.68487 -1.35407 0
M  V30 4911 C 492.784 2.82368 -1.35046 0
M  V30 4912 C 493.259 4.02347 -2.18816 0
M  V30 4913 N 494.75 4.09542 -2.16402 0
M  V30 4914 C 495.485 5.01517 -2.77971 0
M  V30 4915 N 494.981 5.98763 -3.48503 0
M  V30 4916 N 496.774 4.94334 -2.67563 0
M  V30 4917 H 488.925 1.17055 -1.77234 0
M  V30 4918 H 491.188 0.573481 -0.754866 0
M  V30 4919 H 490.894 2.56829 -2.40274 0
M  V30 4920 H 490.768 3.63321 -1.01377 0
M  V30 4921 H 493.155 2.93471 -0.309604 0
M  V30 4922 H 493.236 1.88363 -1.73069 0
M  V30 4923 H 492.88 3.92004 -3.22948 0
M  V30 4924 H 492.81 4.95551 -1.78148 0
M  V30 4925 H 495.301 3.39932 -1.65091 0
M  V30 4926 H 495.614 6.6556 -3.92747 0
M  V30 4927 H 493.959 5.98909 -3.52609 0
M  V30 4928 H 497.15 4.1732 -2.12041 0
M  V30 4929 H 497.323 5.6582 -3.15834 0
M  V30 4930 N 490.729 0.570148 1.46925 0
M  V30 4931 C 492.145 0.23087 1.57921 0
M  V30 4932 C 492.345 -1.26676 1.56702 0
M  V30 4933 O 491.401 -2.04774 1.47729 0
M  V30 4934 C 492.714 0.868973 2.8787 0
M  V30 4935 C 494.262 0.841397 3.01479 0
M  V30 4936 C 494.737 1.45881 4.34146 0
M  V30 4937 N 496.228 1.42258 4.40814 0
M  V30 4938 C 496.963 1.8698 5.42057 0
M  V30 4939 N 496.459 2.39618 6.50042 0
M  V30 4940 N 498.252 1.77972 5.33181 0
M  V30 4941 H 490.403 1.54301 1.45962 0
M  V30 4942 H 492.666 0.644224 0.69547 0
M  V30 4943 H 492.372 1.922 2.94537 0
M  V30 4944 H 492.246 0.369682 3.75384 0
M  V30 4945 H 494.633 -0.202973 2.94401 0
M  V30 4946 H 494.714 1.37858 2.15474 0
M  V30 4947 H 494.358 2.50231 4.4198 0
M  V30 4948 H 494.288 0.896958 5.18905 0
M  V30 4949 H 496.779 1.03768 3.63374 0
M  V30 4950 H 497.092 2.71633 7.23488 0
M  V30 4951 H 495.437 2.43636 6.50897 0
M  V30 4952 H 498.628 1.36617 4.4772 0
M  V30 4953 H 498.801 2.13143 6.11943 0
M  V30 4954 N 492.207 -1.54576 0.307264 0
M  V30 4955 C 493.155 -2.25208 -0.581723 0
M  V30 4956 C 494.149 -1.26031 -1.13192 0
M  V30 4957 O 495.355 -1.43862 -1.08184 0
M  V30 4958 H 491.73 -0.723173 -0.206214 0
M  V30 4959 H 493.701 -2.98378 0.0364663 0
M  V30 4960 C 492.45 -3.01086 -1.73904 0
M  V30 4961 H 491.773 -3.77208 -1.32491 0
M  V30 4962 H 493.213 -3.5378 -2.33701 0
M  V30 4963 C 491.672 -2.08422 -2.64692 0
M  V30 4964 O 492.202 -1.65636 -3.65961 0
M  V30 4965 N 490.408 -1.74247 -2.32564 0
M  V30 4966 H 489.955 -2.09238 -1.50257 0
M  V30 4967 H 489.913 -1.12524 -2.93574 0
M  V30 4968 N 493.685 -0.035106 -1.57561 0
M  V30 4969 C 494.91 0.655802 -1.96759 0
M  V30 4970 C 495.335 1.64523 -0.911809 0
M  V30 4971 O 494.693 1.80857 0.126673 0
M  V30 4972 C 494.741 1.33326 -3.35047 0
M  V30 4973 O 493.845 2.44866 -3.31835 0
M  V30 4974 H 493.186 0.171807 -0.641388 0
M  V30 4975 H 495.716 -0.0987369 -2.04362 0
M  V30 4976 H 495.726 1.68867 -3.71413 0
M  V30 4977 H 494.401 0.608033 -4.11431 0
M  V30 4978 H 492.978 2.11392 -3.07193 0
M  V30 4979 N 495.163 1.55791 0.238111 0
M  V30 4980 C 496.391 1.82098 0.982233 0
M  V30 4981 C 496.806 0.612025 1.78605 0
M  V30 4982 O 496.163 -0.419381 1.77616 0
M  V30 4983 C 496.214 3.0673 1.91309 0
M  V30 4984 O 495.935 4.2296 1.14179 0
M  V30 4985 C 497.436 3.45903 2.77248 0
M  V30 4986 H 494.656 0.605748 0.288635 0
M  V30 4987 H 497.2 2.02862 0.258341 0
M  V30 4988 H 495.355 2.87991 2.59114 0
M  V30 4989 H 495.769 4.93653 1.7722 0
M  V30 4990 H 497.243 4.36189 3.38295 0
M  V30 4991 H 497.72 2.66891 3.48806 0
M  V30 4992 H 498.326 3.67024 2.14881 0
M  V30 4993 N 496.642 -0.504142 1.49319 0
M  V30 4994 C 497.89 -1.25598 1.58334 0
M  V30 4995 C 498.211 -1.93114 0.270538 0
M  V30 4996 O 497.481 -1.82585 -0.709891 0
M  V30 4997 H 496.061 -0.466571 0.58337 0
M  V30 4998 H 498.723 -0.584547 1.85928 0
M  V30 4999 H 497.819 -2.02159 2.37778 0
M  V30 5000 N 498.12 -1.38341 -0.754957 0
M  V30 5001 C 499.397 -1.24995 -1.50451 0
M  V30 5002 C 499.777 0.149244 -2.10572 0
M  V30 5003 O 499.125 1.15861 -1.96948 0
M  V30 5004 C 499.335 -2.35904 -2.57197 0
M  V30 5005 C 500.683 -2.74262 -3.24138 0
M  V30 5006 O 501.707 -2.35205 -2.67501 0
M  V30 5007 O 500.566 -3.4161 -4.26574 0
M  V30 5008 H 497.66 -0.48872 -0.667144 0
M  V30 5009 H 500.206 -1.50165 -0.790486 0
M  V30 5010 H 498.978 -3.2953 -2.11011 0
M  V30 5011 H 498.601 -2.12291 -3.36182 0
M  V30 5012 N 499.598 0.982988 -1.23187 0
M  V30 5013 C 501.014 1.2487 -0.993967 0
M  V30 5014 C 501.214 1.99155 0.306498 0
M  V30 5015 O 500.27 2.30688 1.0266 0
M  V30 5016 C 501.583 2.05078 -2.19917 0
M  V30 5017 C 503.131 2.18227 -2.2438 0
M  V30 5018 C 503.606 3.01825 -3.44479 0
M  V30 5019 N 505.097 3.09411 -3.44702 0
M  V30 5020 C 505.832 3.74412 -4.34285 0
M  V30 5021 N 505.328 4.41259 -5.341 0
M  V30 5022 N 507.121 3.71273 -4.22035 0
M  V30 5023 H 499.272 0.485253 -2.06783 0
M  V30 5024 H 501.535 0.276979 -0.906635 0
M  V30 5025 H 501.241 1.57867 -3.14279 0
M  V30 5026 H 501.115 3.05829 -2.2079 0
M  V30 5027 H 503.502 2.64648 -1.30559 0
M  V30 5028 H 503.583 1.16873 -2.2754 0
M  V30 5029 H 503.227 2.56102 -4.38605 0
M  V30 5030 H 503.157 4.03342 -3.38559 0
M  V30 5031 H 505.648 2.61845 -2.7248 0
M  V30 5032 H 505.961 4.88629 -5.98717 0
M  V30 5033 H 504.306 4.39975 -5.38002 0
M  V30 5034 H 507.497 3.18217 -3.43301 0
M  V30 5035 H 507.67 4.21649 -4.92053 0
M  V30 5036 N 501.076 1.04316 1.18135 0
M  V30 5037 C 501.986 0.646876 2.25505 0
M  V30 5038 C 503.002 -0.328008 1.7088 0
M  V30 5039 O 504.178 -0.182309 2.00573 0
M  V30 5040 C 501.243 0.0185664 3.46695 0
M  V30 5041 C 500.304 1.04277 4.16443 0
M  V30 5042 C 499.537 0.444352 5.31847 0
M  V30 5043 O 499.76 -0.748735 5.65465 0
M  V30 5044 O 498.694 1.17428 5.90334 0
M  V30 5045 H 502.52 1.54147 2.61672 0
M  V30 5046 H 500.105 0.814188 1.25265 0
M  V30 5047 H 501.987 -0.331068 4.20097 0
M  V30 5048 H 500.662 -0.849814 3.12346 0
M  V30 5049 H 499.569 1.44425 3.45098 0
M  V30 5050 H 500.902 1.882 4.54798 0
M  V30 5051 N 502.554 -1.34406 0.822964 0
M  V30 5052 C 503.501 -2.29519 0.24284 0
M  V30 5053 C 504.471 -1.5359 -0.632397 0
M  V30 5054 O 505.656 -1.8196 -0.57403 0
M  V30 5055 C 502.796 -3.40032 -0.58925 0
M  V30 5056 C 501.909 -4.30899 0.308236 0
M  V30 5057 C 501.044 -5.28515 -0.533425 0
M  V30 5058 C 500.083 -6.1102 0.363444 0
M  V30 5059 N 499.22 -7.00725 -0.439147 0
M  V30 5060 H 504.06 -2.78537 1.05929 0
M  V30 5061 H 501.597 -1.3707 0.533872 0
M  V30 5062 H 503.555 -4.0279 -1.087 0
M  V30 5063 H 502.185 -2.92248 -1.37081 0
M  V30 5064 H 501.237 -3.69002 0.924203 0
M  V30 5065 H 502.549 -4.88717 0.997862 0
M  V30 5066 H 501.703 -5.96725 -1.09565 0
M  V30 5067 H 500.442 -4.71235 -1.25656 0
M  V30 5068 H 499.447 -5.41743 0.937812 0
M  V30 5069 H 500.672 -6.70381 1.08469 0
M  V30 5070 H 498.618 -6.45913 -1.14595 0
M  V30 5071 H 498.535 -7.55756 0.19209 0
M  V30 5072 H 499.803 -7.73263 -0.984124 0
M  V30 5073 N 504.032 -0.577932 -1.46621 0
M  V30 5074 C 504.995 0.147805 -2.28723 0
M  V30 5075 C 505.995 0.823325 -1.38123 0
M  V30 5076 O 507.185 0.676011 -1.60548 0
M  V30 5077 C 504.317 1.21853 -3.18378 0
M  V30 5078 H 505.51 -0.573654 -2.94362 0
M  V30 5079 H 503.063 -0.335703 -1.52652 0
M  V30 5080 H 503.798 1.97173 -2.57475 0
M  V30 5081 H 503.583 0.738714 -3.85078 0
M  V30 5082 H 505.073 1.72768 -3.80186 0
M  V30 5083 N 505.51 1.54411 -0.315457 0
M  V30 5084 C 506.44 2.27002 0.547039 0
M  V30 5085 C 507.421 1.27492 1.12605 0
M  V30 5086 O 508.606 1.5629 1.15269 0
M  V30 5087 C 505.736 3.02171 1.71201 0
M  V30 5088 C 504.69 4.0895 1.26268 0
M  V30 5089 C 504.016 4.71915 2.51396 0
M  V30 5090 C 505.316 5.20891 0.383419 0
M  V30 5091 H 507.01 2.99343 -0.0584517 0
M  V30 5092 H 504.556 1.4397 -0.0295527 0
M  V30 5093 H 506.509 3.51681 2.32161 0
M  V30 5094 H 505.233 2.27433 2.34397 0
M  V30 5095 H 503.892 3.60312 0.676062 0
M  V30 5096 H 503.54 3.93801 3.12937 0
M  V30 5097 H 503.24 5.44039 2.22026 0
M  V30 5098 H 504.764 5.24195 3.13133 0
M  V30 5099 H 506.178 5.66206 0.899082 0
M  V30 5100 H 504.575 5.99821 0.182857 0
M  V30 5101 H 505.645 4.81324 -0.587821 0
M  V30 5102 N 506.988 0.0434614 1.5754 0
M  V30 5103 C 507.92 -0.962586 2.08007 0
M  V30 5104 C 508.933 -1.27972 1.00634 0
M  V30 5105 O 510.122 -1.24186 1.28219 0
M  V30 5106 C 507.222 -2.28621 2.50171 0
M  V30 5107 C 506.395 -2.15214 3.80791 0
M  V30 5108 C 505.454 -3.30633 4.09351 0
M  V30 5109 O 504.48 -3.0688 4.79388 0
M  V30 5110 N 505.682 -4.54873 3.60654 0
M  V30 5111 H 508.447 -0.531891 2.94942 0
M  V30 5112 H 506.008 -0.142965 1.61268 0
M  V30 5113 H 508 -3.04689 2.66359 0
M  V30 5114 H 506.57 -2.63283 1.68525 0
M  V30 5115 H 505.79 -1.23785 3.74261 0
M  V30 5116 H 507.078 -2.03475 4.66343 0
M  V30 5117 H 506.476 -4.77063 3.04019 0
M  V30 5118 H 505.033 -5.2806 3.82094 0
M  V30 5119 N 508.466 -1.55915 -0.229846 0
M  V30 5120 C 509.715 -1.77742 -0.953455 0
M  V30 5121 C 510.028 -0.610524 -1.85828 0
M  V30 5122 O 511.234 -0.712219 -2.61992 0
M  V30 5123 C 509.69 -3.14738 -1.74551 0
M  V30 5124 C 509.298 -4.39126 -0.887242 0
M  V30 5125 C 511.042 -3.45895 -2.46084 0
M  V30 5126 C 508.949 -5.67149 -1.67617 0
M  V30 5127 H 507.879 -0.662648 -0.359741 0
M  V30 5128 H 510.53 -1.82322 -0.207576 0
M  V30 5129 H 508.912 -3.04311 -2.53399 0
M  V30 5130 H 510.086 -4.60588 -0.139892 0
M  V30 5131 H 508.401 -4.15427 -0.284443 0
M  V30 5132 H 510.998 -4.38767 -3.05594 0
M  V30 5133 H 511.341 -2.68007 -3.18556 0
M  V30 5134 H 511.874 -3.57614 -1.74233 0
M  V30 5135 H 508.613 -6.47906 -0.994881 0
M  V30 5136 H 508.133 -5.49763 -2.39836 0
M  V30 5137 H 509.812 -6.07025 -2.23898 0
M  V30 5138 N 509.944 0.496216 -1.49584 0
M  V30 5139 C 510.877 1.61508 -1.61215 0
M  V30 5140 C 511.855 1.55927 -0.461045 0
M  V30 5141 O 513.039 1.75914 -0.677231 0
M  V30 5142 C 510.166 3.00035 -1.57152 0
M  V30 5143 C 509.212 3.23861 -2.77518 0
M  V30 5144 S 510.045 3.06466 -4.39134 0
M  V30 5145 C 511.201 4.4738 -4.37724 0
M  V30 5146 H 511.434 1.51398 -2.55863 0
M  V30 5147 H 508.967 0.681727 -1.38535 0
M  V30 5148 H 510.925 3.7991 -1.55494 0
M  V30 5149 H 509.586 3.07556 -0.637834 0
M  V30 5150 H 508.779 4.25 -2.70908 0
M  V30 5151 H 508.381 2.51716 -2.76614 0
M  V30 5152 H 510.673 5.39556 -4.09738 0
M  V30 5153 H 511.616 4.59038 -5.39156 0
M  V30 5154 H 512.024 4.28283 -3.67742 0
M  V30 5155 N 511.423 1.38739 0.74761 0
M  V30 5156 C 512.353 1.39173 1.87492 0
M  V30 5157 C 513.334 0.256794 1.6815 0
M  V30 5158 O 514.519 0.460762 1.88655 0
M  V30 5159 C 511.649 1.22197 3.25093 0
M  V30 5160 C 510.603 2.32957 3.59047 0
M  V30 5161 C 509.929 2.01082 4.95449 0
M  V30 5162 C 511.229 3.75237 3.6331 0
M  V30 5163 H 512.923 2.3351 1.87386 0
M  V30 5164 H 510.469 1.12399 0.900134 0
M  V30 5165 H 512.422 1.21124 4.03617 0
M  V30 5166 H 511.146 0.243241 3.25693 0
M  V30 5167 H 509.805 2.33226 2.82845 0
M  V30 5168 H 509.453 1.01678 4.92616 0
M  V30 5169 H 509.153 2.75267 5.19136 0
M  V30 5170 H 510.677 2.01638 5.76346 0
M  V30 5171 H 512.091 3.76966 4.31937 0
M  V30 5172 H 510.488 4.48677 3.98509 0
M  V30 5173 H 511.558 4.07122 2.634 0
M  V30 5174 N 512.901 -0.976442 1.23707 0
M  V30 5175 C 513.833 -2.07212 0.979574 0
M  V30 5176 C 514.846 -1.6273 -0.0478528 0
M  V30 5177 O 516.035 -1.77506 0.18815 0
M  V30 5178 C 513.135 -3.35835 0.45479 0
M  V30 5179 C 512.308 -4.09268 1.54331 0
M  V30 5180 C 511.367 -5.16166 1.02271 0
M  V30 5181 O 510.393 -5.42827 1.71254 0
M  V30 5182 N 511.595 -5.80313 -0.147419 0
M  V30 5183 H 514.36 -2.29878 1.92292 0
M  V30 5184 H 511.921 -1.14343 1.14618 0
M  V30 5185 H 513.913 -4.04597 0.0914631 0
M  V30 5186 H 512.483 -3.10106 -0.394068 0
M  V30 5187 H 511.703 -3.34906 2.07923 0
M  V30 5188 H 512.991 -4.55095 2.27522 0
M  V30 5189 H 512.389 -5.61043 -0.724353 0
M  V30 5190 H 510.946 -6.50231 -0.451972 0
M  V30 5191 N 514.379 -1.04941 -1.1758 0
M  V30 5192 C 515.625 -0.759112 -1.88057 0
M  V30 5193 C 515.958 0.711918 -1.8068 0
M  V30 5194 O 515.233 1.52035 -1.21308 0
M  V30 5195 C 515.516 -1.237 -3.38187 0
M  V30 5196 C 515.369 -2.77078 -3.54327 0
M  V30 5197 C 516.688 -0.834014 -4.32125 0
M  V30 5198 H 513.807 -0.277237 -0.682868 0
M  V30 5199 H 516.449 -1.30296 -1.38286 0
M  V30 5200 H 514.599 -0.774337 -3.80705 0
M  V30 5201 H 516.271 -3.31449 -3.20842 0
M  V30 5202 H 514.514 -3.16477 -2.96689 0
M  V30 5203 H 515.185 -3.05577 -4.59703 0
M  V30 5204 H 517.661 -1.23228 -3.97434 0
M  V30 5205 H 516.537 -1.19603 -5.35711 0
M  V30 5206 H 516.798 0.262195 -4.41322 0
M  V30 5207 N 515.857 1.33968 -0.830081 0
M  V30 5208 C 516.787 2.31911 -0.271911 0
M  V30 5209 C 517.768 1.58571 0.61556 0
M  V30 5210 O 518.953 1.86514 0.540946 0
M  V30 5211 C 516.083 3.42737 0.561146 0
M  V30 5212 C 515.037 4.27383 -0.229789 0
M  V30 5213 C 514.363 5.29742 0.726463 0
M  V30 5214 C 515.663 5.02 -1.44197 0
M  V30 5215 H 517.357 2.78844 -1.09025 0
M  V30 5216 H 514.903 1.34061 -0.52571 0
M  V30 5217 H 516.856 4.10276 0.961867 0
M  V30 5218 H 515.58 2.94471 1.41261 0
M  V30 5219 H 514.239 3.61456 -0.611964 0
M  V30 5220 H 513.887 4.77736 1.57408 0
M  V30 5221 H 513.587 5.87255 0.20142 0
M  V30 5222 H 515.111 6.00149 1.12489 0
M  V30 5223 H 516.525 5.62355 -1.11488 0
M  V30 5224 H 514.922 5.69122 -1.90317 0
M  V30 5225 H 515.992 4.31281 -2.2164 0
M  V30 5226 N 517.335 0.585699 1.46312 0
M  V30 5227 C 518.267 -0.183687 2.28463 0
M  V30 5228 C 519.28 -0.85264 1.38686 0
M  V30 5229 O 520.469 -0.721701 1.6326 0
M  V30 5230 C 517.569 -1.27977 3.13808 0
M  V30 5231 C 516.742 -0.702164 4.31727 0
M  V30 5232 C 515.801 -1.68633 4.98447 0
M  V30 5233 O 514.827 -1.22121 5.55945 0
M  V30 5234 N 516.029 -3.02047 4.95729 0
M  V30 5235 H 518.794 0.521127 2.95134 0
M  V30 5236 H 516.355 0.423673 1.56258 0
M  V30 5237 H 518.347 -1.9375 3.55307 0
M  V30 5238 H 516.917 -1.8874 2.4919 0
M  V30 5239 H 516.137 0.1331 3.93975 0
M  V30 5240 H 517.425 -0.296101 5.07938 0
M  V30 5241 H 516.823 -3.42457 4.50266 0
M  V30 5242 H 515.38 -3.63301 5.41161 0
M  V30 5243 N 518.813 -1.54241 0.323641 0
M  V30 5244 C 520.038 -2.05452 -0.283605 0
M  V30 5245 C 520.463 -1.19823 -1.44997 0
M  V30 5246 O 519.821 -0.207358 -1.8011 0
M  V30 5247 C 519.869 -3.53823 -0.695795 0
M  V30 5248 O 518.973 -3.71134 -1.79815 0
M  V30 5249 H 518.314 -0.662024 -0.0511917 0
M  V30 5250 H 520.844 -1.99079 0.472073 0
M  V30 5251 H 520.854 -3.96094 -0.978434 0
M  V30 5252 H 519.529 -4.15602 0.157287 0
M  V30 5253 H 518.106 -3.40768 -1.51431 0
M  V30 5254 N 520.291 -0.0518155 -1.57515 0
M  V30 5255 C 521.531 0.625712 -1.94587 0
M  V30 5256 C 521.895 1.6797 -0.930053 0
M  V30 5257 O 523.096 2.41135 -1.18774 0
M  V30 5258 C 521.367 1.20574 -3.36447 0
M  V30 5259 S 522.926 1.90118 -3.95475 0
M  V30 5260 H 519.744 0.205434 -0.680675 0
M  V30 5261 H 522.346 -0.120906 -1.95126 0
M  V30 5262 H 521.05 0.426521 -4.08178 0
M  V30 5263 H 520.581 1.98916 -3.39405 0
M  V30 5264 H 522.596 3.18184 -3.80753 0
M  V30 5265 N 521.769 1.56035 0.221574 0
M  V30 5266 C 523.046 1.69837 0.970301 0
M  V30 5267 C 523.426 0.599065 2.02421 0
M  V30 5268 O 522.774 -0.393929 2.25079 0
M  V30 5269 C 522.984 3.11148 1.58076 0
M  V30 5270 C 524.332 3.70555 2.07302 0
M  V30 5271 O 525.356 3.14109 1.6797 0
M  V30 5272 O 524.215 4.69562 2.79596 0
M  V30 5273 H 521.309 0.691727 0.453257 0
M  V30 5274 H 523.855 1.68353 0.213358 0
M  V30 5275 H 522.627 3.82617 0.819759 0
M  V30 5276 H 522.25 3.16749 2.40324 0
M  V30 5277 N 523.247 -0.488276 1.49845 0
M  V30 5278 C 524.197 -1.58556 1.63842 0
M  V30 5279 C 525.181 -1.53142 0.493586 0
M  V30 5280 O 526.373 -1.60457 0.747169 0
M  V30 5281 C 523.502 -2.97101 1.72005 0
M  V30 5282 C 522.588 -3.07463 2.92108 0
M  V30 5283 N 522.979 -2.87681 4.16021 0
M  V30 5284 C 521.277 -3.3858 2.90309 0
M  V30 5285 C 521.978 -3.0256 4.96822 0
M  V30 5286 N 520.954 -3.32002 4.30437 0
M  V30 5287 H 524.756 -1.41935 2.57355 0
M  V30 5288 H 522.27 -0.694668 1.46793 0
M  V30 5289 H 524.267 -3.75976 1.80132 0
M  V30 5290 H 522.927 -3.14782 0.796375 0
M  V30 5291 H 523.938 -2.63603 4.45796 0
M  V30 5292 H 520.615 -3.62357 2.07372 0
M  V30 5293 H 522.005 -2.9165 6.05301 0
M  V30 5294 N 524.725 -1.39134 -0.740242 0
M  V30 5295 C 526.136 -1.32208 -1.31825 0
M  V30 5296 C 526.487 0.0159919 -1.96193 0
M  V30 5297 O 525.612 0.918111 -1.95958 0
M  V30 5298 C 526.207 -2.39436 -2.39699 0
M  V30 5299 C 524.766 -2.36048 -2.93187 0
M  V30 5300 C 523.913 -2.21599 -1.66701 0
M  V30 5301 H 526.864 -1.49298 -0.538133 0
M  V30 5302 H 526.885 -2.05922 -3.19963 0
M  V30 5303 H 526.397 -3.36811 -1.92821 0
M  V30 5304 H 524.498 -1.42295 -3.44359 0
M  V30 5305 H 524.611 -3.30704 -3.46658 0
M  V30 5306 H 522.975 -1.68681 -1.90837 0
M  V30 5307 H 523.758 -3.20936 -1.21882 0
M  V30 5308 N 526.204 0.969867 -1.24223 0
M  V30 5309 C 527.452 1.70918 -1.0785 0
M  V30 5310 C 527.773 1.91186 0.383763 0
M  V30 5311 O 527.043 1.48806 1.27411 0
M  V30 5312 H 525.623 0.633334 -0.396103 0
M  V30 5313 H 528.285 1.16689 -1.56108 0
M  V30 5314 H 527.381 2.69455 -1.57482 0
M  V30 5315 N 527.682 1.05563 1.17022 0
M  V30 5316 C 529.093 0.793475 1.69 0
M  V30 5317 C 529.444 -0.683882 1.83895 0
M  V30 5318 O 528.569 -1.53116 1.5292 0
M  V30 5319 C 529.164 1.43376 3.06967 0
M  V30 5320 C 527.723 1.21956 3.56095 0
M  V30 5321 C 526.87 1.51494 2.3226 0
M  V30 5322 H 529.821 1.22008 1.01487 0
M  V30 5323 H 529.842 0.845068 3.70997 0
M  V30 5324 H 529.354 2.50899 2.96093 0
M  V30 5325 H 527.455 0.163749 3.7224 0
M  V30 5326 H 527.568 1.92713 4.38633 0
M  V30 5327 H 525.932 0.935175 2.3691 0
M  V30 5328 H 526.715 2.60159 2.23992 0
M  V30 5329 N 529.16 -1.33526 0.837174 0
M  V30 5330 C 530.437 -1.92369 0.354065 0
M  V30 5331 C 530.817 -1.76348 -1.16038 0
M  V30 5332 O 530.165 -1.15083 -1.97403 0
M  V30 5333 C 530.375 -3.39728 0.799101 0
M  V30 5334 C 531.723 -4.16877 0.806139 0
M  V30 5335 O 532.747 -3.48373 0.742597 0
M  V30 5336 O 531.606 -5.39166 0.892345 0
M  V30 5337 H 528.7 -0.820952 0.0998378 0
M  V30 5338 H 531.246 -1.42409 0.922913 0
M  V30 5339 H 530.018 -3.45254 1.84162 0
M  V30 5340 H 529.641 -3.97062 0.206731 0
M  V30 5341 N 530.638 -0.59345 -1.46 0
M  V30 5342 C 531.571 0.182196 -2.27472 0
M  V30 5343 C 532.549 0.886901 -1.36282 0
M  V30 5344 O 533.733 0.898627 -1.65701 0
M  V30 5345 C 530.86 1.26236 -3.14296 0
M  V30 5346 C 529.906 0.662331 -4.21326 0
M  V30 5347 S 530.739 -0.519017 -5.32979 0
M  V30 5348 C 531.895 0.562086 -6.23371 0
M  V30 5349 H 532.128 -0.509056 -2.92909 0
M  V30 5350 H 529.661 -0.380607 -1.49635 0
M  V30 5351 H 531.619 1.88075 -3.64881 0
M  V30 5352 H 530.28 1.92562 -2.48151 0
M  V30 5353 H 529.473 1.47461 -4.81945 0
M  V30 5354 H 529.075 0.119381 -3.73809 0
M  V30 5355 H 531.367 1.44494 -6.61912 0
M  V30 5356 H 532.31 -0.00760776 -7.081 0
M  V30 5357 H 532.718 0.871061 -5.57739 0
M  V30 5358 N 532.116 1.54067 -0.331816 0
M  V30 5359 C 533.363 2.00715 0.268269 0
M  V30 5360 C 533.691 1.21986 1.51491 0
M  V30 5361 O 532.946 0.292309 1.93505 0
M  V30 5362 C 533.245 3.51634 0.639392 0
M  V30 5363 C 532.911 4.48018 -0.509019 0
M  V30 5364 C 531.573 4.74089 -0.824209 0
M  V30 5365 C 533.925 5.05237 -1.28003 0
M  V30 5366 C 531.253 5.54637 -1.91298 0
M  V30 5367 C 533.605 5.86972 -2.35895 0
M  V30 5368 C 532.269 6.11342 -2.67987 0
M  V30 5369 H 531.539 0.734469 0.0981667 0
M  V30 5370 H 534.186 1.8596 -0.457304 0
M  V30 5371 H 532.491 3.6416 1.44551 0
M  V30 5372 H 534.188 3.85175 1.11539 0
M  V30 5373 H 530.778 4.27851 -0.253287 0
M  V30 5374 H 534.962 4.8507 -1.04978 0
M  V30 5375 H 530.218 5.71747 -2.16599 0
M  V30 5376 H 534.392 6.30327 -2.96076 0
M  V30 5377 H 532.019 6.73544 -3.5248 0
M  V30 5378 N 533.594 0.0601682 1.57485 0
M  V30 5379 C 534.834 -0.615384 1.94916 0
M  V30 5380 C 535.198 -1.67475 0.938948 0
M  V30 5381 O 536.399 -2.40502 1.20051 0
M  V30 5382 C 534.67 -1.18788 3.37082 0
M  V30 5383 S 536.229 -1.88018 3.96478 0
M  V30 5384 H 533.047 -0.201821 0.681754 0
M  V30 5385 H 535.649 0.131252 1.95059 0
M  V30 5386 H 534.353 -0.404869 4.08398 0
M  V30 5387 H 533.884 -1.97114 3.40455 0
M  V30 5388 H 535.899 -3.16161 3.82435 0
M  V30 5389 N 535.072 -1.5615 -0.213296 0
M  V30 5390 C 536.002 -1.96109 -1.26742 0
M  V30 5391 C 536.983 -0.830448 -1.48451 0
M  V30 5392 O 538.168 -1.09339 -1.60495 0
M  V30 5393 C 535.298 -2.28492 -2.61551 0
M  V30 5394 C 534.252 -3.44124 -2.54485 0
M  V30 5395 C 533.578 -3.62134 -3.93399 0
M  V30 5396 C 534.878 -4.78855 -2.08556 0
M  V30 5397 H 536.572 -2.84412 -0.935434 0
M  V30 5398 H 534.118 -1.36836 -0.44854 0
M  V30 5399 H 536.071 -2.55039 -3.3546 0
M  V30 5400 H 534.795 -1.37052 -2.96453 0
M  V30 5401 H 533.454 -3.17639 -1.83033 0
M  V30 5402 H 533.102 -2.68055 -4.25623 0
M  V30 5403 H 532.802 -4.39913 -3.89551 0
M  V30 5404 H 534.326 -3.91038 -4.68958 0
M  V30 5405 H 535.74 -5.04552 -2.72213 0
M  V30 5406 H 534.137 -5.59975 -2.1575 0
M  V30 5407 H 535.207 -4.73657 -1.03811 0
M  V30 5408 N 536.55 0.480323 -1.50102 0
M  V30 5409 C 537.79 1.24301 -1.62261 0
M  V30 5410 C 538.154 1.89452 -0.311758 0
M  V30 5411 O 539.355 2.67022 -0.308696 0
M  V30 5412 C 537.626 2.26588 -2.76392 0
M  V30 5413 S 539.185 3.11919 -3.08629 0
M  V30 5414 H 536.003 0.42215 -0.57211 0
M  V30 5415 H 538.605 0.541591 -1.87848 0
M  V30 5416 H 537.309 1.7729 -3.70131 0
M  V30 5417 H 536.84 3.01371 -2.52862 0
M  V30 5418 H 538.855 4.27598 -2.51742 0
M  V30 5419 N 538.028 1.39524 0.732853 0
M  V30 5420 C 539.276 1.36594 1.48951 0
M  V30 5421 C 539.597 -0.0367507 1.94965 0
M  V30 5422 O 538.867 -0.988391 1.69138 0
M  V30 5423 H 537.447 0.502673 0.552566 0
M  V30 5424 H 540.109 1.74411 0.869869 0
M  V30 5425 H 539.205 2.03 2.3706 0
M  V30 5426 N 539.506 -0.963266 1.24736 0
M  V30 5427 C 540.922 -1.23273 1.01371 0
M  V30 5428 C 541.122 -1.99618 -0.274776 0
M  V30 5429 O 540.178 -2.32293 -0.989769 0
M  V30 5430 C 541.491 -2.01554 2.23152 0
M  V30 5431 C 543.039 -2.14629 2.27823 0
M  V30 5432 C 543.514 -2.96307 3.49237 0
M  V30 5433 N 545.005 -3.03887 3.49581 0
M  V30 5434 C 545.74 -3.67456 4.40186 0
M  V30 5435 N 545.236 -4.32706 5.41052 0
M  V30 5436 N 547.029 -3.64511 4.27888 0
M  V30 5437 H 539.18 -0.452294 2.07528 0
M  V30 5438 H 541.443 -0.262521 0.910926 0
M  V30 5439 H 541.149 -1.52847 3.1675 0
M  V30 5440 H 541.023 -3.02278 2.25628 0
M  V30 5441 H 543.41 -2.62537 1.34753 0
M  V30 5442 H 543.491 -1.13238 2.2937 0
M  V30 5443 H 543.135 -2.49091 4.42624 0
M  V30 5444 H 543.065 -3.97905 3.44933 0
M  V30 5445 H 545.556 -2.57477 2.76611 0
M  V30 5446 H 545.869 -4.79042 6.06415 0
M  V30 5447 H 544.214 -4.31361 5.44934 0
M  V30 5448 H 547.405 -3.12715 3.4832 0
M  V30 5449 H 547.578 -4.13768 4.98698 0
M  V30 5450 N 540.985 -1.06182 -1.16461 0
M  V30 5451 C 542.234 -0.772927 -1.86303 0
M  V30 5452 C 542.547 0.703187 -1.82523 0
M  V30 5453 O 543.753 1.10641 -2.47933 0
M  V30 5454 C 542.209 -1.33249 -3.34324 0
M  V30 5455 C 541.817 -2.83876 -3.46581 0
M  V30 5456 C 543.561 -1.12108 -4.09429 0
M  V30 5457 C 541.468 -3.33082 -4.88682 0
M  V30 5458 H 540.398 -0.285452 -0.697878 0
M  V30 5459 H 543.049 -1.28039 -1.31447 0
M  V30 5460 H 541.431 -0.7528 -3.88779 0
M  V30 5461 H 542.605 -3.47786 -3.02293 0
M  V30 5462 H 540.92 -3.03671 -2.84909 0
M  V30 5463 H 543.517 -1.46361 -5.14279 0
M  V30 5464 H 543.86 -0.0593832 -4.16258 0
M  V30 5465 H 544.393 -1.6665 -3.6121 0
M  V30 5466 H 541.132 -4.38726 -4.87032 0
M  V30 5467 H 540.652 -2.73919 -5.33599 0
M  V30 5468 H 542.331 -3.28344 -5.57494 0
M  V30 5469 N 542.463 1.3308 -0.844243 0
M  V30 5470 C 543.693 2.01515 -0.455541 0
M  V30 5471 C 544.101 1.63655 0.949406 0
M  V30 5472 O 543.444 0.84848 1.62931 0
M  V30 5473 C 543.506 3.55967 -0.502801 0
M  V30 5474 C 543.17 4.17222 -1.86481 0
M  V30 5475 C 544.167 4.36205 -2.8288 0
M  V30 5476 C 541.852 4.53528 -2.15911 0
M  V30 5477 C 543.846 4.90649 -4.06869 0
M  V30 5478 C 541.533 5.07679 -3.40155 0
M  V30 5479 C 542.531 5.26186 -4.35451 0
M  V30 5480 O 542.219 5.79183 -5.57496 0
M  V30 5481 H 541.951 0.65199 -0.178565 0
M  V30 5482 H 544.505 1.70867 -1.1399 0
M  V30 5483 H 542.735 3.85965 0.23836 0
M  V30 5484 H 544.424 4.05688 -0.131169 0
M  V30 5485 H 545.19 4.085 -2.61444 0
M  V30 5486 H 541.069 4.38414 -1.42528 0
M  V30 5487 H 544.613 5.0501 -4.81259 0
M  V30 5488 H 540.51 5.34815 -3.61446 0
M  V30 5489 H 541.278 5.97591 -5.5931 0
M  V30 5490 N 543.941 0.601185 1.45683 0
M  V30 5491 C 544.888 -0.121396 2.30481 0
M  V30 5492 C 545.858 -0.866232 1.41724 0
M  V30 5493 O 547.043 -0.85324 1.70659 0
M  V30 5494 C 544.183 -1.11704 3.26521 0
M  V30 5495 C 543.296 -0.373741 4.3038 0
M  V30 5496 C 542.431 -1.35854 5.13534 0
M  V30 5497 C 541.47 -0.602689 6.09126 0
M  V30 5498 N 540.607 -1.53645 6.85082 0
M  V30 5499 H 545.447 0.607732 2.91737 0
M  V30 5500 H 542.984 0.311502 1.43764 0
M  V30 5501 H 544.942 -1.70735 3.80664 0
M  V30 5502 H 543.572 -1.81366 2.67032 0
M  V30 5503 H 542.624 0.331962 3.78949 0
M  V30 5504 H 543.936 0.2163 4.98331 0
M  V30 5505 H 543.09 -2.02111 5.72046 0
M  V30 5506 H 541.829 -1.98251 4.45587 0
M  V30 5507 H 540.834 0.0735482 5.49751 0
M  V30 5508 H 542.059 0.0161467 6.79098 0
M  V30 5509 H 540.005 -2.14819 6.1983 0
M  V30 5510 H 539.922 -0.999688 7.49361 0
M  V30 5511 H 541.19 -2.1888 7.48139 0
M  V30 5512 N 545.419 -1.53889 0.339982 0
M  V30 5513 C 546.696 -1.93084 -0.312719 0
M  V30 5514 C 547.076 -1.2712 -1.68534 0
M  V30 5515 O 546.424 -0.420835 -2.24591 0
M  V30 5516 C 546.634 -3.4683 -0.388558 0
M  V30 5517 C 547.982 -4.19732 -0.641088 0
M  V30 5518 O 549.006 -3.53075 -0.470818 0
M  V30 5519 O 547.865 -5.3781 -0.970685 0
M  V30 5520 H 544.959 -0.806784 -0.18174 0
M  V30 5521 H 547.505 -1.65137 0.390898 0
M  V30 5522 H 546.277 -3.87055 0.574821 0
M  V30 5523 H 545.9 -3.80933 -1.1391 0
M  V30 5524 N 546.897 -0.0685191 -1.57451 0
M  V30 5525 C 548.146 0.600898 -1.92541 0
M  V30 5526 C 548.459 1.70967 -0.950239 0
M  V30 5527 O 549.665 2.43844 -1.19384 0
M  V30 5528 C 548.121 1.12019 -3.42023 0
M  V30 5529 C 547.729 0.0426028 -4.4798 0
M  V30 5530 C 549.473 1.76386 -3.86119 0
M  V30 5531 C 547.38 0.575759 -5.88591 0
M  V30 5532 H 546.31 0.228225 -0.71863 0
M  V30 5533 H 548.961 -0.140223 -1.82963 0
M  V30 5534 H 547.343 1.91418 -3.46663 0
M  V30 5535 H 548.517 -0.73182 -4.54952 0
M  V30 5536 H 546.832 -0.504642 -4.13331 0
M  V30 5537 H 549.429 2.17302 -4.88553 0
M  V30 5538 H 549.772 2.62255 -3.23308 0
M  V30 5539 H 550.305 1.03615 -3.84069 0
M  V30 5540 H 547.044 -0.245691 -6.55039 0
M  V30 5541 H 546.564 1.31778 -5.85145 0
M  V30 5542 H 548.243 1.0532 -6.3837 0
M  V30 5543 N 548.375 1.56261 0.205012 0
M  V30 5544 C 549.622 1.8004 0.926927 0
M  V30 5545 C 549.95 0.640086 1.83666 0
M  V30 5546 O 549.205 -0.374702 1.92079 0
M  V30 5547 C 549.504 3.09722 1.78345 0
M  V30 5548 C 549.17 4.39082 1.02555 0
M  V30 5549 C 547.832 4.74226 0.816256 0
M  V30 5550 C 550.184 5.18877 0.491559 0
M  V30 5551 C 547.512 5.86668 0.0613287 0
M  V30 5552 C 549.864 6.32105 -0.250107 0
M  V30 5553 C 548.528 6.6584 -0.470508 0
M  V30 5554 H 547.798 0.658812 0.339187 0
M  V30 5555 H 550.445 1.90515 0.19395 0
M  V30 5556 H 548.75 2.9444 2.5848 0
M  V30 5557 H 550.447 3.25324 2.34446 0
M  V30 5558 H 547.037 4.11497 1.19868 0
M  V30 5559 H 551.221 4.92147 0.640684 0
M  V30 5560 H 546.477 6.11283 -0.119501 0
M  V30 5561 H 550.651 6.93157 -0.671307 0
M  V30 5562 H 548.278 7.5281 -1.05739 0
M  V30 5563 N 549.853 -0.472356 1.50355 0
M  V30 5564 C 550.783 -1.57859 1.72055 0
M  V30 5565 C 551.764 -1.60283 0.569505 0
M  V30 5566 O 552.949 -1.7657 0.808503 0
M  V30 5567 C 550.079 -2.96191 1.81351 0
M  V30 5568 C 549.033 -3.08633 2.96529 0
M  V30 5569 C 548.359 -4.486 2.90968 0
M  V30 5570 C 549.659 -2.85969 4.37057 0
M  V30 5571 H 551.353 -1.39953 2.64676 0
M  V30 5572 H 548.899 -0.671846 1.27367 0
M  V30 5573 H 550.852 -3.73507 1.95117 0
M  V30 5574 H 549.576 -3.15251 0.853502 0
M  V30 5575 H 548.235 -2.33749 2.82413 0
M  V30 5576 H 547.883 -4.64577 1.92815 0
M  V30 5577 H 547.583 -4.57861 3.68289 0
M  V30 5578 H 549.107 -5.27938 3.0678 0
M  V30 5579 H 550.521 -3.53036 4.51706 0
M  V30 5580 H 548.918 -3.06677 5.15819 0
M  V30 5581 H 549.988 -1.81838 4.49514 0
M  V30 5582 N 551.331 -1.39911 -0.725443 0
M  V30 5583 C 552.608 -1.28158 -1.47766 0
M  V30 5584 C 552.988 0.104545 -2.10841 0
M  V30 5585 O 552.336 1.11657 -1.99361 0
M  V30 5586 C 552.546 -2.41306 -2.52135 0
M  V30 5587 C 553.894 -2.81076 -3.18247 0
M  V30 5588 O 554.918 -2.40827 -2.62452 0
M  V30 5589 O 553.777 -3.50581 -4.19231 0
M  V30 5590 H 550.871 -0.502761 -0.656628 0
M  V30 5591 H 553.417 -1.51808 -0.758456 0
M  V30 5592 H 552.189 -3.33932 -2.03974 0
M  V30 5593 H 551.812 -2.19374 -3.31603 0
M  V30 5594 N 552.809 0.956637 -1.25245 0
M  V30 5595 C 554.034 1.74104 -1.12706 0
M  V30 5596 C 554.459 1.85436 0.315429 0
M  V30 5597 O 553.817 1.33334 1.22848 0
M  V30 5598 C 553.865 3.1338 -1.78396 0
M  V30 5599 O 552.969 3.98485 -1.06224 0
M  V30 5600 H 552.31 0.53476 -0.393609 0
M  V30 5601 H 554.84 1.19924 -1.65769 0
M  V30 5602 H 554.85 3.6385 -1.846 0
M  V30 5603 H 553.525 3.04448 -2.83345 0
M  V30 5604 H 552.102 3.56952 -1.07886 0
M  V30 5605 N 554.287 1.06798 1.15896 0
M  V30 5606 C 555.564 0.701057 1.82605 0
M  V30 5607 C 555.944 -0.817066 1.94646 0
M  V30 5608 O 555.292 -1.72933 1.49353 0
M  V30 5609 C 555.502 1.40895 3.19296 0
M  V30 5610 C 556.85 1.55744 3.95005 0
M  V30 5611 O 557.874 1.36927 3.28831 0
M  V30 5612 O 556.733 1.86658 5.13635 0
M  V30 5613 H 553.827 0.248791 0.78869 0
M  V30 5614 H 556.373 1.16857 1.23055 0
M  V30 5615 H 555.145 2.4439 3.05596 0
M  V30 5616 H 554.768 0.931847 3.86526 0
M  V30 5617 N 555.766 -1.3263 0.851289 0
M  V30 5618 C 557.006 -1.99174 0.459266 0
M  V30 5619 C 557.37 -1.65913 -0.966273 0
M  V30 5620 O 558.571 -2.2552 -1.46267 0
M  V30 5621 C 556.842 -3.50721 0.687698 0
M  V30 5622 S 558.401 -4.37039 0.392746 0
M  V30 5623 H 555.219 -0.689832 0.172199 0
M  V30 5624 H 557.821 -1.61395 1.10327 0
M  V30 5625 H 556.525 -3.72417 1.72435 0
M  V30 5626 H 556.056 -3.93389 0.0299949 0
M  V30 5627 H 558.071 -4.8999 -0.782578 0
M  V30 5628 N 557.244 -0.608902 -1.45362 0
M  V30 5629 C 558.191 0.109172 -2.30542 0
M  V30 5630 C 559.161 0.858704 -1.42181 0
M  V30 5631 O 560.346 0.844178 -1.71109 0
M  V30 5632 C 557.486 1.09971 -3.27109 0
M  V30 5633 C 556.599 0.350911 -4.30572 0
M  V30 5634 C 555.734 1.33129 -5.14247 0
M  V30 5635 C 554.773 0.570377 -6.09437 0
M  V30 5636 N 553.91 1.5001 -6.85887 0
M  V30 5637 H 558.75 -0.623195 -2.91411 0
M  V30 5638 H 556.287 -0.319122 -1.43597 0
M  V30 5639 H 558.245 1.68714 -3.81564 0
M  V30 5640 H 556.875 1.79947 -2.67991 0
M  V30 5641 H 555.927 -0.352054 -3.78767 0
M  V30 5642 H 557.239 -0.242725 -4.98209 0
M  V30 5643 H 556.393 1.99074 -5.73109 0
M  V30 5644 H 555.132 1.95885 -4.46632 0
M  V30 5645 H 554.137 -0.102702 -5.49704 0
M  V30 5646 H 555.362 -0.0521607 -6.7908 0
M  V30 5647 H 553.308 2.11529 -6.2096 0
M  V30 5648 H 553.225 0.959934 -7.49881 0
M  V30 5649 H 554.493 2.14909 -7.49289 0
M  V30 5650 N 558.722 1.53707 -0.348139 0
M  V30 5651 C 559.999 1.93247 0.302475 0
M  V30 5652 C 560.379 1.28012 1.67857 0
M  V30 5653 O 559.727 0.43274 2.24365 0
M  V30 5654 C 559.937 3.47031 0.370159 0
M  V30 5655 C 561.285 4.20066 0.61882 0
M  V30 5656 O 562.309 3.53319 0.452087 0
M  V30 5657 O 561.168 5.38318 0.94215 0
M  V30 5658 H 558.262 0.807736 0.177458 0
M  V30 5659 H 560.808 1.64927 -0.399651 0
M  V30 5660 H 559.58 3.86745 -0.59534 0
M  V30 5661 H 559.203 3.81532 1.11888 0
M  V30 5662 N 560.2 0.0768682 1.57412 0
M  V30 5663 C 561.477 -0.632359 1.85096 0
M  V30 5664 C 561.857 -1.87479 0.9703 0
M  V30 5665 O 561.205 -2.28469 0.0379062 0
M  V30 5666 C 561.415 -0.965174 3.35388 0
M  V30 5667 C 562.763 -1.33648 4.03018 0
M  V30 5668 O 563.787 -1.05675 3.40164 0
M  V30 5669 O 562.646 -1.85959 5.13889 0
M  V30 5670 H 559.74 -0.314574 0.764835 0
M  V30 5671 H 562.286 0.108184 1.69355 0
M  V30 5672 H 561.058 -0.0829745 3.91212 0
M  V30 5673 H 560.681 -1.76231 3.5641 0
M  V30 5674 N 561.678 -1.56367 -0.196722 0
M  V30 5675 C 562.906 -1.84639 -0.933608 0
M  V30 5676 C 563.321 -0.659164 -1.76919 0
M  V30 5677 O 562.678 0.372142 -1.78665 0
M  V30 5678 C 562.729 -3.11694 -1.83109 0
M  V30 5679 O 562.45 -4.25838 -1.02924 0
M  V30 5680 C 563.951 -3.53132 -2.67979 0
M  V30 5681 H 561.171 -0.613188 -0.272473 0
M  V30 5682 H 563.715 -2.03475 -0.204465 0
M  V30 5683 H 561.87 -2.94759 -2.51387 0
M  V30 5684 H 562.284 -4.98178 -1.64069 0
M  V30 5685 H 563.758 -4.45005 -3.26611 0
M  V30 5686 H 564.235 -2.76045 -3.41608 0
M  V30 5687 H 564.841 -3.72592 -2.05074 0
M  V30 5688 N 563.156 0.464375 -1.50603 0
M  V30 5689 C 564.381 1.24372 -1.65971 0
M  V30 5690 C 564.806 1.84901 -0.345453 0
M  V30 5691 O 564.164 1.67596 0.691457 0
M  V30 5692 C 564.212 2.32331 -2.7578 0
M  V30 5693 O 563.316 3.37146 -2.375 0
M  V30 5694 H 562.657 0.365604 -0.554283 0
M  V30 5695 H 565.187 0.55183 -1.97018 0
M  V30 5696 H 565.197 2.77539 -2.99059 0
M  V30 5697 H 563.872 1.87648 -3.71162 0
M  V30 5698 H 562.449 2.97602 -2.24694 0
M  V30 5699 N 564.634 1.40294 0.718013 0
M  V30 5700 C 566.05 1.2227 1.02577 0
M  V30 5701 C 566.25 0.0961976 2.0127 0
M  V30 5702 O 565.306 -0.546695 2.46511 0
M  V30 5703 C 566.619 2.56348 1.57182 0
M  V30 5704 C 568.167 2.6334 1.69178 0
M  V30 5705 C 568.642 3.9768 2.27188 0
M  V30 5706 N 570.133 3.99409 2.34578 0
M  V30 5707 C 570.868 5.00141 2.8044 0
M  V30 5708 N 570.364 6.11268 3.26073 0
M  V30 5709 N 572.157 4.87511 2.79802 0
M  V30 5710 H 564.308 2.12304 0.0637899 0
M  V30 5711 H 566.571 0.943632 0.0909036 0
M  V30 5712 H 566.277 3.3942 0.921262 0
M  V30 5713 H 566.151 2.77266 2.55741 0
M  V30 5714 H 568.538 1.80641 2.33351 0
M  V30 5715 H 568.619 2.46255 0.692247 0
M  V30 5716 H 568.263 4.80817 1.63638 0
M  V30 5717 H 568.193 4.12093 3.27852 0
M  V30 5718 H 570.684 3.19162 2.02346 0
M  V30 5719 H 570.997 6.84023 3.59628 0
M  V30 5720 H 569.342 6.14837 3.24038 0
M  V30 5721 H 572.533 3.9979 2.43487 0
M  V30 5722 H 572.706 5.66158 3.15228 0
M  V30 5723 N 566.112 -0.949982 1.2575 0
M  V30 5724 C 567.389 -1.6718 1.01539 0
M  V30 5725 C 567.769 -2.06095 -0.456942 0
M  V30 5726 O 567.117 -1.77792 -1.43534 0
M  V30 5727 C 567.327 -2.8906 1.95564 0
M  V30 5728 C 568.675 -3.60909 2.23673 0
M  V30 5729 O 569.699 -2.9915 1.9336 0
M  V30 5730 O 568.558 -4.72127 2.75243 0
M  V30 5731 H 565.652 -0.731697 0.385419 0
M  V30 5732 H 568.198 -1.00249 1.36924 0
M  V30 5733 H 566.97 -2.57128 2.94959 0
M  V30 5734 H 566.593 -3.63719 1.60605 0
M  V30 5735 N 567.59 -1.07411 -1.15328 0
M  V30 5736 C 568.815 -0.818856 -1.90551 0
M  V30 5737 C 569.24 0.622194 -1.77512 0
M  V30 5738 O 568.598 1.43484 -1.10824 0
M  V30 5739 C 568.646 -1.23267 -3.38877 0
M  V30 5740 O 567.75 -0.378345 -4.10661 0
M  V30 5741 H 567.091 -0.29827 -0.593238 0
M  V30 5742 H 569.621 -1.43289 -1.46046 0
M  V30 5743 H 569.631 -1.20912 -3.89672 0
M  V30 5744 H 568.306 -2.28226 -3.47686 0
M  V30 5745 H 566.883 -0.464437 -3.69996 0
M  V30 5746 N 569.068 1.32177 -0.85831 0
M  V30 5747 C 570.031 2.27086 -0.310588 0
M  V30 5748 C 571.031 1.51751 0.531806 0
M  V30 5749 O 572.221 1.70794 0.34279 0
M  V30 5750 C 569.353 3.36266 0.560179 0
M  V30 5751 H 570.546 2.77045 -1.1483 0
M  V30 5752 H 568.099 1.42911 -0.632942 0
M  V30 5753 H 568.834 2.9158 1.41956 0
M  V30 5754 H 568.619 3.92077 -0.0428473 0
M  V30 5755 H 570.109 4.06974 0.936056 0
M  V30 5756 N 570.547 0.616602 1.45037 0
M  V30 5757 C 571.796 0.112861 2.01384 0
M  V30 5758 C 572.109 -1.26758 1.48969 0
M  V30 5759 O 573.315 -1.86454 1.9735 0
M  V30 5760 C 571.771 0.151057 3.59583 0
M  V30 5761 C 571.379 1.53191 4.20995 0
M  V30 5762 C 573.123 -0.296974 4.2346 0
M  V30 5763 C 571.03 1.526 5.71373 0
M  V30 5764 H 569.96 0.0384254 0.75302 0
M  V30 5765 H 572.611 0.773262 1.66412 0
M  V30 5766 H 570.993 -0.57617 3.91786 0
M  V30 5767 H 572.167 2.28156 4.00352 0
M  V30 5768 H 570.482 1.92279 3.69348 0
M  V30 5769 H 573.079 -0.320712 5.33737 0
M  V30 5770 H 573.422 -1.32145 3.9477 0
M  V30 5771 H 573.955 0.377279 3.96007 0
M  V30 5772 H 570.694 2.52837 6.04776 0
M  V30 5773 H 570.214 0.819064 5.94181 0
M  V30 5774 H 571.893 1.25357 6.3474 0
M  V30 5775 N 572.025 -1.5352 0.356285 0
M  V30 5776 C 572.935 -2.29151 -0.502712 0
M  V30 5777 C 573.951 -1.34753 -1.1008 0
M  V30 5778 O 575.127 -1.67803 -1.11374 0
M  V30 5779 C 572.192 -3.05911 -1.63154 0
M  V30 5780 C 571.253 -4.15958 -1.06194 0
M  V30 5781 C 570.486 -4.8905 -2.13696 0
M  V30 5782 O 570.709 -4.61919 -3.34645 0
M  V30 5783 O 569.643 -5.75202 -1.77275 0
M  V30 5784 H 573.469 -3.03492 0.112466 0
M  V30 5785 H 571.054 -1.4891 0.120942 0
M  V30 5786 H 572.936 -3.53874 -2.28804 0
M  V30 5787 H 571.611 -2.34415 -2.23229 0
M  V30 5788 H 570.518 -3.7227 -0.369603 0
M  V30 5789 H 571.851 -4.89593 -0.505872 0
M  V30 5790 N 573.503 -0.0852151 -1.57369 0
M  V30 5791 C 574.749 0.575588 -1.95086 0
M  V30 5792 C 575.104 1.66402 -0.96582 0
M  V30 5793 O 574.397 1.91598 0.00978463 0
M  V30 5794 C 574.591 1.18482 -3.3719 0
M  V30 5795 C 574.42 0.156928 -4.49426 0
M  V30 5796 C 573.19 -0.263126 -5.04614 0
M  V30 5797 C 575.388 -0.611068 -5.10657 0
M  V30 5798 N 573.37 -1.28032 -6.00401 0
M  V30 5799 C 574.741 -1.48036 -6.02068 0
M  V30 5800 C 576.796 -0.665669 -4.9343 0
M  V30 5801 C 575.499 -2.39943 -6.781 0
M  V30 5802 C 577.525 -1.5723 -5.70116 0
M  V30 5803 C 576.887 -2.42924 -6.61186 0
M  V30 5804 H 572.986 0.181249 -0.760705 0
M  V30 5805 H 575.57 -0.165484 -1.93995 0
M  V30 5806 H 573.741 1.89575 -3.38992 0
M  V30 5807 H 575.473 1.80718 -3.62109 0
M  V30 5808 H 572.228 0.122664 -4.73441 0
M  V30 5809 H 572.652 -1.78682 -6.52994 0
M  V30 5810 H 577.294 -0.0173214 -4.22796 0
M  V30 5811 H 575.012 -3.05807 -7.48002 0
M  V30 5812 H 578.598 -1.61956 -5.58804 0
M  V30 5813 H 577.478 -3.1194 -7.19488 0
M  V30 5814 N 574.981 1.5647 0.188427 0
M  V30 5815 C 576.211 1.84863 0.922463 0
M  V30 5816 C 576.619 0.666413 1.77075 0
M  V30 5817 O 575.962 -0.374044 1.79852 0
M  V30 5818 C 576.024 3.07447 1.86324 0
M  V30 5819 C 575.688 4.41066 1.19625 0
M  V30 5820 C 576.685 5.16767 0.569946 0
M  V30 5821 C 574.37 4.87802 1.19811 0
M  V30 5822 C 576.364 6.37384 -0.045594 0
M  V30 5823 C 574.051 6.08353 0.57874 0
M  V30 5824 C 575.049 6.82987 -0.0420259 0
M  V30 5825 O 574.737 8.01254 -0.651675 0
M  V30 5826 H 574.469 0.61784 0.274316 0
M  V30 5827 H 577.023 2.04437 0.198613 0
M  V30 5828 H 575.253 2.83774 2.62696 0
M  V30 5829 H 576.942 3.2243 2.46564 0
M  V30 5830 H 577.708 4.81749 0.560601 0
M  V30 5831 H 573.587 4.29662 1.67069 0
M  V30 5832 H 577.131 6.95578 -0.530731 0
M  V30 5833 H 573.028 6.42838 0.58561 0
M  V30 5834 H 573.796 8.16655 -0.549236 0
M  V30 5835 N 576.459 -0.456382 1.50847 0
M  V30 5836 C 577.875 -0.791345 1.386 0
M  V30 5837 C 578.075 -1.9633 0.453498 0
M  V30 5838 O 577.131 -2.52308 -0.0984353 0
M  V30 5839 C 578.444 -1.08959 2.80265 0
M  V30 5840 C 579.992 -1.19517 2.89283 0
M  V30 5841 C 580.467 -1.52647 4.31814 0
M  V30 5842 N 581.958 -1.59609 4.34832 0
M  V30 5843 C 582.693 -1.86777 5.42127 0
M  V30 5844 N 582.189 -2.11866 6.59609 0
M  V30 5845 N 583.982 -1.88402 5.29586 0
M  V30 5846 H 576.133 0.315746 2.1004 0
M  V30 5847 H 578.396 0.0787916 0.94472 0
M  V30 5848 H 578.102 -0.301355 3.50407 0
M  V30 5849 H 577.976 -2.02211 3.18419 0
M  V30 5850 H 580.363 -1.97406 2.19351 0
M  V30 5851 H 580.444 -0.242111 2.54652 0
M  V30 5852 H 580.088 -0.752922 5.02288 0
M  V30 5853 H 580.018 -2.49127 4.63943 0
M  V30 5854 H 582.509 -1.42201 3.50125 0
M  V30 5855 H 582.822 -2.31912 7.37182 0
M  V30 5856 H 581.167 -2.09228 6.62758 0
M  V30 5857 H 584.358 -1.68307 4.36795 0
M  V30 5858 H 584.531 -2.09238 6.13289 0
M  V30 5859 N 577.937 -1.40673 -0.710563 0
M  V30 5860 C 578.884 -1.41336 -1.82463 0
M  V30 5861 C 579.854 -0.269648 -1.63897 0
M  V30 5862 O 581.039 -0.468463 -1.8496 0
M  V30 5863 C 578.179 -1.28665 -3.20218 0
M  V30 5864 C 577.292 -2.52784 -3.5032 0
M  V30 5865 C 576.427 -2.32517 -4.77608 0
M  V30 5866 C 575.466 -3.52187 -5.0063 0
M  V30 5867 N 574.603 -3.31084 -6.19135 0
M  V30 5868 H 579.443 -2.36558 -1.8123 0
M  V30 5869 H 576.98 -1.17483 -0.885226 0
M  V30 5870 H 578.938 -1.19324 -3.99772 0
M  V30 5871 H 577.568 -0.370602 -3.20666 0
M  V30 5872 H 576.62 -2.72634 -2.65283 0
M  V30 5873 H 577.932 -3.41845 -3.63241 0
M  V30 5874 H 577.086 -2.20558 -5.65189 0
M  V30 5875 H 575.825 -1.40889 -4.66906 0
M  V30 5876 H 574.83 -3.64617 -4.11502 0
M  V30 5877 H 576.055 -4.44749 -5.13201 0
M  V30 5878 H 574.001 -2.42143 -6.09674 0
M  V30 5879 H 573.918 -4.13713 -6.32754 0
M  V30 5880 H 575.186 -3.22868 -7.0949 0
M  V30 5881 N 579.415 0.9433 -1.26252 0
M  V30 5882 C 580.663 1.68592 -1.11451 0
M  V30 5883 C 580.984 1.91957 0.343123 0
M  V30 5884 O 580.254 1.51475 1.24226 0
M  V30 5885 H 578.834 0.624789 -0.409448 0
M  V30 5886 H 581.496 1.13351 -1.58548 0
M  V30 5887 H 580.592 2.66054 -1.63162 0
M  V30 5888 N 580.893 1.08022 1.14757 0
M  V30 5889 C 582.14 0.807509 1.85703 0
M  V30 5890 C 582.468 -0.666617 1.8272 0
M  V30 5891 O 581.723 -1.50562 1.25018 0
M  V30 5892 C 582.022 1.26964 3.34088 0
M  V30 5893 C 581.688 2.7509 3.57262 0
M  V30 5894 C 580.35 3.15547 3.63296 0
M  V30 5895 C 582.702 3.70667 3.66409 0
M  V30 5896 C 580.03 4.50384 3.75994 0
M  V30 5897 C 582.382 5.05274 3.80632 0
M  V30 5898 C 581.046 5.45342 3.84913 0
M  V30 5899 H 580.316 0.295488 0.679535 0
M  V30 5900 H 582.963 1.35245 1.35577 0
M  V30 5901 H 581.268 0.644216 3.86467 0
M  V30 5902 H 582.965 1.03544 3.87401 0
M  V30 5903 H 579.555 2.42775 3.53212 0
M  V30 5904 H 583.739 3.40533 3.61041 0
M  V30 5905 H 578.995 4.80886 3.77569 0
M  V30 5906 H 583.169 5.79201 3.86652 0
M  V30 5907 H 580.796 6.49823 3.94505 0
M  V30 5908 N 582.371 -1.3172 0.865308 0
M  V30 5909 C 583.281 -2.32394 0.320935 0
M  V30 5910 C 584.297 -1.64511 -0.566746 0
M  V30 5911 O 585.473 -1.95969 -0.464575 0
M  V30 5912 C 582.538 -3.43462 -0.472701 0
M  V30 5913 C 581.599 -4.27015 0.442385 0
M  V30 5914 C 580.832 -5.32779 -0.313469 0
M  V30 5915 O 581.055 -5.49158 -1.54214 0
M  V30 5916 O 579.989 -6.01015 0.326257 0
M  V30 5917 H 583.815 -2.80868 1.15528 0
M  V30 5918 H 581.4 -1.35535 0.628545 0
M  V30 5919 H 583.282 -4.11172 -0.922781 0
M  V30 5920 H 581.957 -2.97159 -1.28367 0
M  V30 5921 H 580.864 -3.62075 0.940866 0
M  V30 5922 H 582.197 -4.76871 1.21882 0
M  V30 5923 N 583.85 -0.624285 -1.44708 0
M  V30 5924 C 584.779 0.0717025 -2.3339 0
M  V30 5925 C 585.76 0.841814 -1.47809 0
M  V30 5926 O 586.946 0.809056 -1.76544 0
M  V30 5927 C 584.076 1.05852 -3.30776 0
M  V30 5928 C 583.029 0.400503 -4.26122 0
M  V30 5929 C 582.356 1.49674 -5.13324 0
M  V30 5930 C 583.656 -0.688924 -5.17737 0
M  V30 5931 H 585.35 -0.668819 -2.91834 0
M  V30 5932 H 582.896 -0.32308 -1.40329 0
M  V30 5933 H 584.849 1.5541 -3.91696 0
M  V30 5934 H 583.572 1.82984 -2.70526 0
M  V30 5935 H 582.231 -0.0743687 -3.66525 0
M  V30 5936 H 581.88 2.25877 -4.49431 0
M  V30 5937 H 581.58 1.06188 -5.77926 0
M  V30 5938 H 583.104 1.99427 -5.77115 0
M  V30 5939 H 584.518 -0.276724 -5.72632 0
M  V30 5940 H 582.915 -1.04652 -5.90904 0
M  V30 5941 H 583.985 -1.55884 -4.5916 0
M  V30 5942 N 585.328 1.53329 -0.364422 0
M  V30 5943 C 586.26 2.23286 0.517293 0
M  V30 5944 C 587.273 1.24657 1.04711 0
M  V30 5945 O 588.462 1.50887 0.95369 0
M  V30 5946 C 585.562 2.91604 1.72685 0
M  V30 5947 C 584.735 4.1673 1.32873 0
M  V30 5948 C 583.794 4.68269 2.40022 0
M  V30 5949 O 582.82 5.31976 2.02461 0
M  V30 5950 N 584.022 4.45983 3.7159 0
M  V30 5951 H 586.787 2.99588 -0.0819391 0
M  V30 5952 H 584.348 1.60787 -0.189544 0
M  V30 5953 H 586.34 3.22992 2.4384 0
M  V30 5954 H 584.91 2.18763 2.23297 0
M  V30 5955 H 584.13 3.91657 0.447069 0
M  V30 5956 H 585.418 4.98078 1.03902 0
M  V30 5957 H 584.816 3.95077 4.04883 0
M  V30 5958 H 583.373 4.81924 4.38854 0
M  V30 5959 N 586.806 0.0935595 1.57322 0
M  V30 5960 C 588.031 -0.582324 1.99057 0
M  V30 5961 C 588.456 -1.61025 0.972242 0
M  V30 5962 O 587.814 -1.81202 -0.0594622 0
M  V30 5963 C 587.862 -1.20799 3.39765 0
M  V30 5964 O 586.966 -2.32382 3.40694 0
M  V30 5965 H 586.307 -0.147884 0.647323 0
M  V30 5966 H 588.837 0.174516 2.03854 0
M  V30 5967 H 588.847 -1.54966 3.77425 0
M  V30 5968 H 587.522 -0.454914 4.13405 0
M  V30 5969 H 586.099 -1.99845 3.14827 0
M  V30 5970 N 588.284 -1.56567 -0.180126 0
M  V30 5971 C 589.509 -1.85975 -0.918041 0
M  V30 5972 C 589.934 -0.678888 -1.75422 0
M  V30 5973 O 589.292 0.372168 -1.77439 0
M  V30 5974 C 589.34 -3.13731 -1.77779 0
M  V30 5975 O 588.444 -2.95335 -2.87838 0
M  V30 5976 H 587.785 -0.61196 -0.257683 0
M  V30 5977 H 590.315 -2.03798 -0.180923 0
M  V30 5978 H 590.325 -3.4491 -2.17948 0
M  V30 5979 H 589 -3.99293 -1.16352 0
M  V30 5980 H 587.577 -2.7549 -2.51316 0
M  V30 5981 N 589.762 0.448376 -1.51087 0
M  V30 5982 C 590.692 1.55102 -1.74544 0
M  V30 5983 C 591.673 1.59357 -0.594932 0
M  V30 5984 O 592.858 1.75261 -0.836491 0
M  V30 5985 C 589.988 2.93268 -1.86041 0
M  V30 5986 C 588.942 3.03877 -3.01402 0
M  V30 5987 C 588.268 4.43914 -2.98068 0
M  V30 5988 C 589.568 2.7898 -4.41551 0
M  V30 5989 H 591.262 1.35724 -2.66869 0
M  V30 5990 H 588.808 0.651498 -1.28419 0
M  V30 5991 H 590.761 3.70356 -2.01034 0
M  V30 5992 H 589.485 3.13853 -0.903548 0
M  V30 5993 H 588.144 2.29227 -2.86096 0
M  V30 5994 H 587.792 4.6145 -2.00182 0
M  V30 5995 H 587.492 4.51944 -3.75527 0
M  V30 5996 H 589.016 5.22991 -3.1514 0
M  V30 5997 H 590.43 3.45805 -4.57265 0
M  V30 5998 H 588.827 2.98431 -5.20633 0
M  V30 5999 H 589.897 1.74663 -4.5235 0
M  V30 6000 N 591.24 1.41047 0.703093 0
M  V30 6001 C 592.47 1.43133 1.48985 0
M  V30 6002 C 592.878 0.0328537 1.89171 0
M  V30 6003 O 592.221 -0.956469 1.56835 0
M  V30 6004 C 592.283 2.26991 2.78775 0
M  V30 6005 C 591.947 3.7525 2.60837 0
M  V30 6006 C 592.944 4.67591 2.27276 0
M  V30 6007 C 590.629 4.19208 2.76712 0
M  V30 6008 C 592.623 6.01877 2.09817 0
M  V30 6009 C 590.31 5.53561 2.5887 0
M  V30 6010 C 591.308 6.4471 2.25472 0
M  V30 6011 O 590.996 7.76584 2.07778 0
M  V30 6012 H 590.728 0.489788 0.465922 0
M  V30 6013 H 593.282 1.85886 0.873822 0
M  V30 6014 H 591.512 1.79038 3.42757 0
M  V30 6015 H 593.201 2.20867 3.40547 0
M  V30 6016 H 593.967 4.34923 2.14633 0
M  V30 6017 H 589.846 3.48572 3.01693 0
M  V30 6018 H 593.39 6.72986 1.83671 0
M  V30 6019 H 589.287 5.85811 2.71102 0
M  V30 6020 H 590.055 7.87649 2.22601 0
M  V30 6021 N 592.718 -0.936591 1.26751 0
M  V30 6022 C 593.943 -1.72288 1.15462 0
M  V30 6023 C 594.368 -1.85915 -0.285887 0
M  V30 6024 O 593.726 -1.35272 -1.20711 0
M  V30 6025 C 593.774 -3.10503 1.83359 0
M  V30 6026 O 592.878 -3.96745 1.1255 0
M  V30 6027 H 592.219 -0.52843 0.402067 0
M  V30 6028 H 594.749 -1.17271 1.67656 0
M  V30 6029 H 594.759 -3.60867 1.90365 0
M  V30 6030 H 593.434 -2.99901 2.88153 0
M  V30 6031 H 592.011 -3.55191 1.13551 0
M  V30 6032 N 594.196 -1.08629 -1.14182 0
M  V30 6033 C 595.444 -0.815731 -1.84906 0
M  V30 6034 C 595.765 0.660441 -1.83475 0
M  V30 6035 O 595.035 1.47888 -1.28476 0
M  V30 6036 H 593.615 -0.298773 -0.684648 0
M  V30 6037 H 596.277 -1.37274 -1.38354 0
M  V30 6038 H 595.373 -1.16193 -2.89665 0
M  V30 6039 N 595.674 1.31259 -0.872281 0
M  V30 6040 C 596.923 1.95893 -0.480493 0
M  V30 6041 C 597.236 1.697 0.972688 0
M  V30 6042 O 598.442 2.28214 1.47073 0
M  V30 6043 C 596.898 3.50705 -0.808342 0
M  V30 6044 C 596.506 3.85735 -2.27844 0
M  V30 6045 C 598.25 4.21719 -0.485136 0
M  V30 6046 C 596.157 5.33668 -2.54858 0
M  V30 6047 H 595.087 0.733182 -0.175955 0
M  V30 6048 H 597.738 1.49396 -1.0655 0
M  V30 6049 H 596.12 3.95706 -0.152558 0
M  V30 6050 H 597.294 3.51686 -2.97748 0
M  V30 6051 H 595.609 3.27792 -2.56791 0
M  V30 6052 H 598.206 5.30559 -0.664166 0
M  V30 6053 H 598.549 4.12316 0.574592 0
M  V30 6054 H 599.082 3.82359 -1.09756 0
M  V30 6055 H 595.821 5.48109 -3.59523 0
M  V30 6056 H 595.341 5.69061 -1.8955 0
M  V30 6057 H 597.02 6.00958 -2.39706 0
M  V30 6058 N 597.152 0.631951 1.44375 0
M  V30 6059 C 598.1 -0.0846693 2.32446 0
M  V30 6060 C 599.094 -0.834957 1.47393 0
M  V30 6061 O 600.3 -0.747764 1.63733 0
M  V30 6062 H 596.675 -0.0461508 0.750583 0
M  V30 6063 H 598.646 0.67619 2.90638 0
M  V30 6064 C 597.395 -1.05211 3.314 0
M  V30 6065 H 596.718 -0.484203 3.96857 0
M  V30 6066 H 598.158 -1.523 3.95703 0
M  V30 6067 C 596.617 -2.13776 2.60387 0
M  V30 6068 O 597.147 -3.21869 2.4034 0
M  V30 6069 N 595.353 -1.89733 2.20113 0
M  V30 6070 H 594.9 -1.01833 2.36618 0
M  V30 6071 H 594.858 -2.62572 1.72926 0
M  V30 6072 N 598.631 -1.53133 0.372548 0
M  V30 6073 C 599.561 -2.28876 -0.462412 0
M  V30 6074 C 600.542 -1.31583 -1.07796 0
M  V30 6075 O 601.727 -1.60461 -1.09389 0
M  V30 6076 C 598.857 -3.08317 -1.59868 0
M  V30 6077 C 597.811 -4.13355 -1.11003 0
M  V30 6078 C 597.137 -4.8092 -2.33708 0
M  V30 6079 C 598.437 -5.21955 -0.18983 0
M  V30 6080 H 600.131 -2.9892 0.169511 0
M  V30 6081 H 597.677 -1.43761 0.0829658 0
M  V30 6082 H 599.63 -3.60055 -2.18949 0
M  V30 6083 H 598.354 -2.35976 -2.25794 0
M  V30 6084 H 597.013 -3.62573 -0.541869 0
M  V30 6085 H 596.661 -4.05144 -2.98106 0
M  V30 6086 H 596.361 -5.51904 -2.01682 0
M  V30 6087 H 597.885 -5.35455 -2.93462 0
M  V30 6088 H 599.299 -5.69153 -0.688319 0
M  V30 6089 H 597.696 -6.00087 0.0398887 0
M  V30 6090 H 598.766 -4.78811 0.766057 0
M  V30 6091 N 600.109 -0.101901 -1.5727 0
M  V30 6092 C 601.072 0.840129 -2.13247 0
M  V30 6093 C 602.072 1.20625 -1.06331 0
M  V30 6094 O 603.262 1.13456 -1.32186 0
M  V30 6095 C 600.394 2.13372 -2.65867 0
M  V30 6096 H 601.587 0.353945 -2.97804 0
M  V30 6097 H 599.14 0.147167 -1.55606 0
M  V30 6098 H 599.875 2.66461 -1.84849 0
M  V30 6099 H 599.66 1.88085 -3.44044 0
M  V30 6100 H 601.15 2.80748 -3.09145 0
M  V30 6101 N 601.587 1.56661 0.17182 0
M  V30 6102 C 602.833 1.82235 0.889845 0
M  V30 6103 C 603.166 0.679673 1.81918 0
M  V30 6104 O 602.441 -0.318404 1.91876 0
M  V30 6105 C 602.724 3.18195 1.68595 0
M  V30 6106 C 602.577 4.42989 0.779773 0
M  V30 6107 C 603.896 3.5109 2.65375 0
M  V30 6108 H 601.015 0.66291 0.322056 0
M  V30 6109 H 603.657 1.89358 0.15608 0
M  V30 6110 H 601.807 3.12253 2.3115 0
M  V30 6111 H 603.479 4.60997 0.16714 0
M  V30 6112 H 601.722 4.33711 0.0877964 0
M  V30 6113 H 602.393 5.3467 1.3723 0
M  V30 6114 H 604.869 3.57482 2.12946 0
M  V30 6115 H 603.745 4.47298 3.18144 0
M  V30 6116 H 604.006 2.75768 3.45549 0
M  V30 6117 N 603.065 -0.440357 1.51323 0
M  V30 6118 C 603.995 -1.54174 1.75364 0
M  V30 6119 C 604.976 -1.59039 0.603375 0
M  V30 6120 O 606.161 -1.74815 0.845774 0
M  V30 6121 C 603.291 -2.92277 1.87593 0
M  V30 6122 C 602.245 -3.02274 3.03009 0
M  V30 6123 C 601.571 -4.42327 3.00418 0
M  V30 6124 C 602.871 -2.76634 4.43024 0
M  V30 6125 H 604.565 -1.34307 2.67585 0
M  V30 6126 H 602.111 -0.644678 1.28763 0
M  V30 6127 H 604.064 -3.69284 2.02995 0
M  V30 6128 H 602.788 -3.13369 0.920179 0
M  V30 6129 H 601.447 -2.27706 2.87307 0
M  V30 6130 H 601.095 -4.60382 2.02626 0
M  V30 6131 H 600.795 -4.49946 3.77918 0
M  V30 6132 H 602.319 -5.21312 3.17909 0
M  V30 6133 H 603.733 -3.43376 4.59093 0
M  V30 6134 H 602.13 -2.95666 5.22208 0
M  V30 6135 H 603.2 -1.72262 4.5327 0
M  V30 6136 N 604.543 -1.41418 -0.695603 0
M  V30 6137 C 605.473 -1.46035 -1.82197 0
M  V30 6138 C 606.454 -0.319025 -1.67082 0
M  V30 6139 O 607.639 -0.530462 -1.86815 0
M  V30 6140 C 604.769 -1.34179 -3.20333 0
M  V30 6141 C 603.723 -2.46123 -3.50154 0
M  V30 6142 C 603.049 -2.19332 -4.87645 0
M  V30 6143 C 604.349 -3.88463 -3.49133 0
M  V30 6144 H 606.043 -2.40303 -1.78591 0
M  V30 6145 H 603.589 -1.15663 -0.857797 0
M  V30 6146 H 605.542 -1.36021 -3.98844 0
M  V30 6147 H 604.266 -0.363952 -3.24566 0
M  V30 6148 H 602.925 -2.43563 -2.73994 0
M  V30 6149 H 602.573 -1.19891 -4.88503 0
M  V30 6150 H 602.273 -2.94344 -5.08562 0
M  V30 6151 H 603.797 -2.22889 -5.68465 0
M  V30 6152 H 605.211 -3.92738 -4.17648 0
M  V30 6153 H 603.608 -4.63158 -3.81582 0
M  V30 6154 H 604.678 -4.16617 -2.48109 0
M  V30 6155 N 606.021 0.929856 -1.27246 0
M  V30 6156 C 607.27 1.67182 -1.12842 0
M  V30 6157 C 607.583 1.9287 0.325666 0
M  V30 6158 O 608.789 2.64999 0.590572 0
M  V30 6159 C 607.245 3.01097 -1.97151 0
M  V30 6160 C 606.853 2.83115 -3.47203 0
M  V30 6161 C 608.597 3.78907 -1.91389 0
M  V30 6162 C 606.504 4.12573 -4.23719 0
M  V30 6163 H 605.434 0.627064 -0.418697 0
M  V30 6164 H 608.085 1.0332 -1.51649 0
M  V30 6165 H 606.467 3.66004 -1.51186 0
M  V30 6166 H 607.641 2.26989 -4.01015 0
M  V30 6167 H 605.956 2.18736 -3.54321 0
M  V30 6168 H 608.553 4.74837 -2.45834 0
M  V30 6169 H 608.896 4.0674 -0.887047 0
M  V30 6170 H 609.429 3.20794 -2.35237 0
M  V30 6171 H 606.168 3.8992 -5.26918 0
M  V30 6172 H 605.688 4.68371 -3.74685 0
M  V30 6173 H 607.367 4.8095 -4.32777 0
M  V30 6174 N 607.499 1.09233 1.13605 0
M  V30 6175 C 608.745 0.828385 1.8511 0
M  V30 6176 C 609.078 -0.64437 1.83198 0
M  V30 6177 O 608.353 -1.47428 1.26867 0
M  V30 6178 C 608.636 1.36167 3.33363 0
M  V30 6179 C 608.489 2.90038 3.438 0
M  V30 6180 C 609.808 0.993819 4.28732 0
M  V30 6181 H 606.927 0.30239 0.672108 0
M  V30 6182 H 609.569 1.35339 1.33355 0
M  V30 6183 H 607.719 0.9151 3.77569 0
M  V30 6184 H 609.391 3.43128 3.08319 0
M  V30 6185 H 607.634 3.27271 2.84739 0
M  V30 6186 H 608.305 3.22428 4.48045 0
M  V30 6187 H 610.781 1.37893 3.92587 0
M  V30 6188 H 609.657 1.39403 5.30903 0
M  V30 6189 H 609.918 -0.0982206 4.41991 0
M  V30 6190 N 608.977 -1.30795 0.87923 0
M  V30 6191 C 609.94 -2.26563 0.346676 0
M  V30 6192 C 610.94 -1.52578 -0.507597 0
M  V30 6193 O 612.13 -1.71318 -0.315575 0
M  V30 6194 C 609.262 -3.37115 -0.506611 0
M  V30 6195 H 610.455 -2.75183 1.19223 0
M  V30 6196 H 608.008 -1.41886 0.655598 0
M  V30 6197 H 608.743 -2.93802 -1.37299 0
M  V30 6198 H 608.528 -3.91959 0.105218 0
M  V30 6199 H 610.018 -4.08412 -0.871192 0
M  V30 6200 N 610.455 -0.639598 -1.44038 0
M  V30 6201 C 611.703 -0.147188 -2.01563 0
M  V30 6202 C 612.024 1.2384 -1.50628 0
M  V30 6203 O 611.294 1.82452 -0.713316 0
M  V30 6204 H 609.874 -0.0514231 -0.745228 0
M  V30 6205 H 612.536 -0.828205 -1.76428 0
M  V30 6206 H 611.632 -0.121358 -3.11864 0
M  V30 6207 N 611.933 1.52934 -0.380664 0
M  V30 6208 C 612.865 2.23822 0.493581 0
M  V30 6209 C 613.878 1.25761 1.03383 0
M  V30 6210 O 615.067 1.5189 0.937633 0
M  V30 6211 C 612.167 2.9342 1.69582 0
M  V30 6212 C 611.34 4.18115 1.28445 0
M  V30 6213 C 610.399 4.70788 2.35042 0
M  V30 6214 O 609.425 5.34093 1.96807 0
M  V30 6215 N 610.627 4.49899 3.66839 0
M  V30 6216 H 613.392 2.99484 -0.11371 0
M  V30 6217 H 610.953 1.60577 -0.206587 0
M  V30 6218 H 612.945 3.2556 2.40401 0
M  V30 6219 H 611.515 2.21119 2.20965 0
M  V30 6220 H 610.735 3.92109 0.405503 0
M  V30 6221 H 612.023 4.99152 0.986132 0
M  V30 6222 H 611.421 3.99349 4.0067 0
M  V30 6223 H 609.978 4.86551 4.33718 0
M  V30 6224 N 613.412 0.11024 1.57214 0
M  V30 6225 C 614.344 -0.873497 2.11902 0
M  V30 6226 C 615.357 -1.23588 1.05971 0
M  V30 6227 O 616.546 -1.18636 1.33371 0
M  V30 6228 C 613.646 -2.17805 2.59643 0
M  V30 6229 C 612.819 -1.98869 3.89576 0
M  V30 6230 C 611.878 -3.12974 4.23006 0
M  V30 6231 O 610.904 -2.86272 4.91973 0
M  V30 6232 N 612.106 -4.39167 3.79622 0
M  V30 6233 H 614.871 -0.406317 2.96933 0
M  V30 6234 H 612.432 -0.074437 1.61729 0
M  V30 6235 H 614.424 -2.93117 2.79042 0
M  V30 6236 H 612.994 -2.55899 1.7954 0
M  V30 6237 H 612.214 -1.078 3.79174 0
M  V30 6238 H 613.502 -1.83512 4.74553 0
M  V30 6239 H 612.9 -4.63739 3.2398 0
M  V30 6240 H 611.457 -5.11379 4.04147 0
M  V30 6241 N 614.89 -1.56749 -0.16351 0
M  V30 6242 C 616.137 -1.82434 -0.878866 0
M  V30 6243 C 616.465 -0.688557 -1.81904 0
M  V30 6244 O 615.72 0.323644 -1.93005 0
M  V30 6245 C 616.019 -3.14342 -1.70071 0
M  V30 6246 C 615.685 -4.41647 -0.908775 0
M  V30 6247 C 614.347 -4.76224 -0.690236 0
M  V30 6248 C 616.699 -5.19998 -0.353815 0
M  V30 6249 C 614.027 -5.86624 0.0942374 0
M  V30 6250 C 616.379 -6.3122 0.41761 0
M  V30 6251 C 615.043 -6.64358 0.646879 0
M  V30 6252 H 614.313 -0.667574 -0.3216 0
M  V30 6253 H 616.96 -1.90963 -0.14337 0
M  V30 6254 H 615.265 -3.0119 -2.50583 0
M  V30 6255 H 616.962 -3.31426 -2.25738 0
M  V30 6256 H 613.552 -4.1453 -1.08916 0
M  V30 6257 H 617.736 -4.93673 -0.509975 0
M  V30 6258 H 612.992 -6.10751 0.281529 0
M  V30 6259 H 617.166 -6.91133 0.854849 0
M  V30 6260 H 614.793 -7.49742 1.25662 0
M  V30 6261 N 616.368 0.432326 -1.51554 0
M  V30 6262 C 617.278 1.55023 -1.76082 0
M  V30 6263 C 618.294 1.61593 -0.645265 0
M  V30 6264 O 619.47 1.78742 -0.928086 0
M  V30 6265 C 616.535 2.90964 -1.88523 0
M  V30 6266 C 615.596 2.9447 -3.12388 0
M  V30 6267 C 614.829 4.23926 -3.24225 0
M  V30 6268 O 615.052 5.16576 -2.4188 0
M  V30 6269 O 613.986 4.33818 -4.17235 0
M  V30 6270 H 617.812 1.37238 -2.70923 0
M  V30 6271 H 615.397 0.615845 -1.36117 0
M  V30 6272 H 617.279 3.71633 -1.98662 0
M  V30 6273 H 615.954 3.08865 -0.9687 0
M  V30 6274 H 614.861 2.12737 -3.07723 0
M  V30 6275 H 616.194 2.81514 -4.03746 0
M  V30 6276 N 617.846 1.41785 0.688094 0
M  V30 6277 C 619.074 1.44915 1.47673 0
M  V30 6278 C 619.489 0.0565786 1.88715 0
M  V30 6279 O 618.846 -0.92579 1.57275 0
M  V30 6280 C 618.897 2.36452 2.73446 0
M  V30 6281 O 618.618 3.7029 2.34131 0
M  V30 6282 C 620.119 2.48463 3.67125 0
M  V30 6283 H 617.339 0.493324 0.454832 0
M  V30 6284 H 619.883 1.86153 0.846594 0
M  V30 6285 H 618.038 1.98502 3.3268 0
M  V30 6286 H 618.452 4.19183 3.15255 0
M  V30 6287 H 619.926 3.16662 4.52138 0
M  V30 6288 H 620.403 1.51826 4.12123 0
M  V30 6289 H 621.009 2.8708 3.13792 0
M  V30 6290 N 619.324 -0.923095 1.27737 0
M  V30 6291 C 620.549 -1.71054 1.17283 0
M  V30 6292 C 620.974 -1.86208 -0.266153 0
M  V30 6293 O 620.332 -1.36545 -1.1927 0
M  V30 6294 C 620.38 -3.0854 1.86642 0
M  V30 6295 O 619.484 -3.95528 1.16752 0
M  V30 6296 H 618.825 -0.524136 0.407649 0
M  V30 6297 H 621.355 -1.15487 1.6889 0
M  V30 6298 H 621.365 -3.58828 1.94182 0
M  V30 6299 H 620.04 -2.96828 2.91317 0
M  V30 6300 H 618.617 -3.53967 1.17312 0
M  V30 6301 N 620.802 -1.09834 -1.13024 0
M  V30 6302 C 621.732 -0.763451 -2.20666 0
M  V30 6303 C 622.713 0.260778 -1.68089 0
M  V30 6304 O 623.898 0.127915 -1.93778 0
M  V30 6305 C 621.028 -0.187744 -3.46792 0
M  V30 6306 C 619.982 -1.14196 -4.12484 0
M  V30 6307 C 619.308 -0.427755 -5.32986 0
M  V30 6308 C 620.608 -2.48607 -4.59338 0
M  V30 6309 H 622.302 -1.66347 -2.48936 0
M  V30 6310 H 619.848 -0.801261 -1.19649 0
M  V30 6311 H 621.801 0.0586375 -4.21359 0
M  V30 6312 H 620.525 0.747485 -3.17931 0
M  V30 6313 H 619.184 -1.37369 -3.3989 0
M  V30 6314 H 618.832 0.511747 -5.0039 0
M  V30 6315 H 618.532 -1.06403 -5.77886 0
M  V30 6316 H 620.056 -0.189772 -6.10305 0
M  V30 6317 H 621.47 -2.29618 -5.25308 0
M  V30 6318 H 619.867 -3.08062 -5.14993 0
M  V30 6319 H 620.937 -3.09062 -3.73642 0
M  V30 6320 N 622.28 1.30327 -0.886154 0
M  V30 6321 C 623.19 2.31854 -0.357866 0
M  V30 6322 C 624.206 1.65392 0.540502 0
M  V30 6323 O 625.382 1.96683 0.433339 0
M  V30 6324 C 622.447 3.44171 0.417999 0
M  V30 6325 C 621.508 4.26257 -0.510263 0
M  V30 6326 C 620.741 5.3321 0.228669 0
M  V30 6327 O 620.964 5.51542 1.45458 0
M  V30 6328 O 619.898 6.0042 -0.421832 0
M  V30 6329 H 623.724 2.78995 -1.19982 0
M  V30 6330 H 621.309 1.34518 -0.650028 0
M  V30 6331 H 623.191 4.12588 0.857251 0
M  V30 6332 H 621.866 2.99164 1.23623 0
M  V30 6333 H 620.773 3.60533 -0.99835 0
M  V30 6334 H 622.106 4.74871 -1.29454 0
M  V30 6335 N 623.758 0.647228 1.43697 0
M  V30 6336 C 624.688 -0.0345631 2.33474 0
M  V30 6337 C 625.669 -0.818193 1.4913 0
M  V30 6338 O 626.854 -0.780867 1.77809 0
M  V30 6339 C 623.984 -1.00576 3.32418 0
M  V30 6340 C 622.938 -0.33266 4.26705 0
M  V30 6341 C 622.264 -1.41489 5.1564 0
M  V30 6342 C 623.564 0.771204 5.16575 0
M  V30 6343 H 625.258 0.715163 2.90733 0
M  V30 6344 H 622.804 0.345364 1.39797 0
M  V30 6345 H 624.757 -1.49159 3.94119 0
M  V30 6346 H 623.481 -1.78657 2.73403 0
M  V30 6347 H 622.14 0.13267 3.6636 0
M  V30 6348 H 621.788 -2.18698 4.52968 0
M  V30 6349 H 621.488 -0.969799 5.79542 0
M  V30 6350 H 623.012 -1.9022 5.80214 0
M  V30 6351 H 624.426 0.36779 5.72119 0
M  V30 6352 H 622.823 1.1404 5.89165 0
M  V30 6353 H 623.893 1.63169 4.56622 0
M  V30 6354 N 625.236 -1.5273 0.388769 0
M  V30 6355 C 626.652 -1.59553 0.0387049 0
M  V30 6356 C 626.852 -1.40278 -1.44652 0
M  V30 6357 O 625.908 -1.21951 -2.21098 0
M  V30 6358 C 627.221 -2.9625 0.515409 0
M  V30 6359 C 628.769 -3.09426 0.471621 0
M  V30 6360 C 629.244 -4.48572 0.924505 0
M  V30 6361 N 630.735 -4.54754 0.880496 0
M  V30 6362 C 631.47 -5.60653 1.20234 0
M  V30 6363 N 630.966 -6.74198 1.59463 0
M  V30 6364 N 632.759 -5.50755 1.12363 0
M  V30 6365 H 624.91 -1.63508 1.35569 0
M  V30 6366 H 627.173 -0.768097 0.555636 0
M  V30 6367 H 626.879 -3.15569 1.5527 0
M  V30 6368 H 626.753 -3.77102 -0.085792 0
M  V30 6369 H 629.14 -2.89804 -0.556588 0
M  V30 6370 H 629.221 -2.30528 1.10862 0
M  V30 6371 H 628.865 -4.68936 1.95094 0
M  V30 6372 H 628.795 -5.25935 0.264524 0
M  V30 6373 H 631.286 -3.73237 0.591815 0
M  V30 6374 H 631.599 -7.5097 1.82385 0
M  V30 6375 H 629.944 -6.75531 1.63349 0
M  V30 6376 H 633.135 -4.6093 0.816169 0
M  V30 6377 H 633.308 -6.33184 1.37777 0
M  V30 6378 N 626.714 -0.118576 -1.57153 0
M  V30 6379 C 627.661 0.831789 -2.1529 0
M  V30 6380 C 628.631 1.26385 -1.07778 0
M  V30 6381 O 629.816 1.34144 -1.35684 0
M  V30 6382 C 626.956 2.07664 -2.75626 0
M  V30 6383 C 626.069 1.69298 -3.97444 0
M  V30 6384 C 625.204 2.88747 -4.45868 0
M  V30 6385 C 624.243 2.46619 -5.60219 0
M  V30 6386 N 623.38 3.5898 -6.03389 0
M  V30 6387 H 628.22 0.329183 -2.96176 0
M  V30 6388 H 625.757 0.150792 -1.46325 0
M  V30 6389 H 627.715 2.80601 -3.08738 0
M  V30 6390 H 626.345 2.55384 -1.97431 0
M  V30 6391 H 625.397 0.862374 -3.70496 0
M  V30 6392 H 626.709 1.34338 -4.80369 0
M  V30 6393 H 625.863 3.69909 -4.80887 0
M  V30 6394 H 624.602 3.26933 -3.61892 0
M  V30 6395 H 623.607 1.63889 -5.24805 0
M  V30 6396 H 624.832 2.0955 -6.45961 0
M  V30 6397 H 622.778 3.9684 -5.22354 0
M  V30 6398 H 622.695 3.27942 -6.81168 0
M  V30 6399 H 623.963 4.40583 -6.43045 0
M  V30 6400 N 628.193 1.56834 0.155195 0
M  V30 6401 C 629.442 1.82088 0.867567 0
M  V30 6402 C 629.755 0.69849 1.82703 0
M  V30 6403 O 630.961 0.836407 2.58295 0
M  V30 6404 C 629.417 3.22707 1.59336 0
M  V30 6405 C 629.025 4.42859 0.676719 0
M  V30 6406 C 630.769 3.57242 2.293 0
M  V30 6407 C 628.676 5.74501 1.40367 0
M  V30 6408 H 627.606 0.679057 0.327715 0
M  V30 6409 H 630.257 1.83105 0.120351 0
M  V30 6410 H 628.639 3.16054 2.38591 0
M  V30 6411 H 629.813 4.60731 -0.0800196 0
M  V30 6412 H 628.128 4.16311 0.0859129 0
M  V30 6413 H 630.725 4.52847 2.84312 0
M  V30 6414 H 631.068 2.82901 3.05406 0
M  V30 6415 H 631.601 3.6552 1.56972 0
M  V30 6416 H 628.34 6.51915 0.684623 0
M  V30 6417 H 627.86 5.60579 2.13332 0
M  V30 6418 H 629.539 6.17016 1.94681 0
M  V30 6419 N 629.671 -0.424282 1.51781 0
M  V30 6420 C 630.919 -1.17028 1.64769 0
M  V30 6421 C 631.24 -1.91409 0.372523 0
M  V30 6422 O 630.51 -1.86091 -0.612108 0
M  V30 6423 H 629.09 -0.434992 0.607282 0
M  V30 6424 H 631.752 -0.485169 1.88765 0
M  V30 6425 H 630.848 -1.8927 2.4816 0
M  V30 6426 N 631.149 -1.42148 -0.680565 0
M  V30 6427 C 632.395 -1.42521 -1.44277 0
M  V30 6428 C 632.728 -0.0393718 -1.9416 0
M  V30 6429 O 632.003 0.935425 -1.70529 0
M  V30 6430 C 632.286 -2.44475 -2.64394 0
M  V30 6431 C 632.139 -3.92226 -2.20179 0
M  V30 6432 C 633.458 -2.43491 -3.66606 0
M  V30 6433 H 630.577 -0.518985 -0.523282 0
M  V30 6434 H 633.219 -1.73524 -0.773914 0
M  V30 6435 H 631.369 -2.18168 -3.21458 0
M  V30 6436 H 633.041 -4.29493 -1.68327 0
M  V30 6437 H 631.284 -4.0637 -1.5181 0
M  V30 6438 H 631.955 -4.59133 -3.06433 0
M  V30 6439 H 634.431 -2.66872 -3.19247 0
M  V30 6440 H 633.307 -3.16816 -4.4824 0
M  V30 6441 H 633.568 -1.45881 -4.17338 0
M  V30 6442 N 632.627 0.916307 -1.28225 0
M  V30 6443 C 634.043 1.19425 -1.05876 0
M  V30 6444 C 634.243 2.005 0.2005 0
M  V30 6445 O 633.299 2.35806 0.902873 0
M  V30 6446 C 634.612 1.93133 -2.30478 0
M  V30 6447 C 636.16 2.06026 -2.35632 0
M  V30 6448 C 636.635 2.83141 -3.59994 0
M  V30 6449 N 638.126 2.90704 -3.60618 0
M  V30 6450 C 638.861 3.50865 -4.53521 0
M  V30 6451 N 638.357 4.12327 -5.56739 0
M  V30 6452 N 640.15 3.48379 -4.41122 0
M  V30 6453 H 632.301 0.37496 -2.09064 0
M  V30 6454 H 634.564 0.228531 -0.920042 0
M  V30 6455 H 634.27 1.40985 -3.22205 0
M  V30 6456 H 634.144 2.93696 -2.36691 0
M  V30 6457 H 636.531 2.57355 -1.44404 0
M  V30 6458 H 636.612 1.04647 -2.33415 0
M  V30 6459 H 636.256 2.32492 -4.51564 0
M  V30 6460 H 636.186 3.84829 -3.59464 0
M  V30 6461 H 638.677 2.47034 -2.85977 0
M  V30 6462 H 638.99 4.56205 -6.23776 0
M  V30 6463 H 637.335 4.10839 -5.60568 0
M  V30 6464 H 640.526 2.99572 -3.59686 0
M  V30 6465 H 640.699 3.94974 -5.13712 0
M  V30 6466 N 634.105 1.10431 1.1244 0
M  V30 6467 C 635.035 0.775143 2.20258 0
M  V30 6468 C 636.016 -0.25186 1.68225 0
M  V30 6469 O 637.201 -0.117637 1.93843 0
M  V30 6470 C 634.331 0.206133 3.46688 0
M  V30 6471 C 633.285 1.16382 4.11873 0
M  V30 6472 C 632.611 0.456014 5.32752 0
M  V30 6473 C 633.911 2.5104 4.58013 0
M  V30 6474 H 635.605 1.67665 2.4805 0
M  V30 6475 H 633.151 0.807595 1.19222 0
M  V30 6476 H 635.104 -0.036291 4.21384 0
M  V30 6477 H 633.828 -0.730614 3.18323 0
M  V30 6478 H 632.487 1.39169 3.39157 0
M  V30 6479 H 632.135 -0.485203 5.00654 0
M  V30 6480 H 631.835 1.09466 5.77314 0
M  V30 6481 H 633.359 0.222135 6.10196 0
M  V30 6482 H 634.773 2.32401 5.24083 0
M  V30 6483 H 633.17 3.10789 5.13352 0
M  V30 6484 H 634.24 3.11039 3.71998 0
M  V30 6485 N 635.583 -1.29855 0.893053 0
M  V30 6486 C 636.531 -2.29867 0.355512 0
M  V30 6487 C 637.525 -1.60502 -0.541801 0
M  V30 6488 O 638.731 -1.74902 -0.425339 0
M  V30 6489 H 635.106 -0.745805 0.0963247 0
M  V30 6490 H 637.077 -2.72655 1.21252 0
M  V30 6491 C 635.826 -3.453 -0.407801 0
M  V30 6492 H 635.149 -3.98864 0.273426 0
M  V30 6493 H 636.589 -4.17334 -0.748887 0
M  V30 6494 C 635.048 -2.96051 -1.60795 0
M  V30 6495 O 635.578 -2.96763 -2.7073 0
M  V30 6496 N 633.784 -2.51963 -1.44786 0
M  V30 6497 H 633.331 -2.51583 -0.553498 0
M  V30 6498 H 633.289 -2.1937 -2.2522 0
M  V30 6499 N 637.061 -0.65484 -1.43351 0
M  V30 6500 C 638.286 -0.175046 -2.0666 0
M  V30 6501 C 638.711 1.15104 -1.4877 0
M  V30 6502 O 638.069 1.71144 -0.598279 0
M  V30 6503 C 638.117 -0.0991544 -3.60464 0
M  V30 6504 O 637.221 0.938169 -4.01587 0
M  V30 6505 H 636.562 -0.0956148 -0.65708 0
M  V30 6506 H 639.092 -0.898222 -1.83829 0
M  V30 6507 H 639.102 0.083632 -4.07914 0
M  V30 6508 H 637.777 -1.06719 -4.01975 0
M  V30 6509 H 636.354 0.72804 -3.65724 0
M  V30 6510 N 638.539 1.52521 -0.396863 0
M  V30 6511 C 639.469 2.29582 0.425941 0
M  V30 6512 C 640.45 1.33281 1.05689 0
M  V30 6513 O 641.635 1.62181 1.06823 0
M  V30 6514 C 638.765 3.10821 1.54943 0
M  V30 6515 C 637.719 4.15069 1.04413 0
M  V30 6516 C 637.045 4.84578 2.26028 0
M  V30 6517 C 638.345 5.22191 0.106767 0
M  V30 6518 H 640.039 2.98612 -0.217045 0
M  V30 6519 H 637.585 1.43611 -0.105826 0
M  V30 6520 H 639.538 3.63492 2.13193 0
M  V30 6521 H 638.262 2.39538 2.22011 0
M  V30 6522 H 636.921 3.63389 0.484118 0
M  V30 6523 H 636.569 4.09835 2.91623 0
M  V30 6524 H 636.269 5.55043 1.92876 0
M  V30 6525 H 637.793 5.40056 2.84906 0
M  V30 6526 H 639.207 5.70176 0.597685 0
M  V30 6527 H 637.604 5.99947 -0.135352 0
M  V30 6528 H 638.674 4.77531 -0.842134 0
M  V30 6529 N 640.017 0.126909 1.57088 0
M  V30 6530 C 640.947 -0.816847 2.18746 0
M  V30 6531 C 641.928 -1.27161 1.12979 0
M  V30 6532 O 643.113 -1.33279 1.41246 0
M  V30 6533 C 640.243 -2.06398 2.79315 0
M  V30 6534 C 639.197 -1.74673 3.90735 0
M  V30 6535 C 638.523 -3.06482 4.38147 0
M  V30 6536 C 639.823 -1.0089 5.12463 0
M  V30 6537 H 641.517 -0.303032 2.97863 0
M  V30 6538 H 639.063 -0.144314 1.43275 0
M  V30 6539 H 641.016 -2.72885 3.2111 0
M  V30 6540 H 639.74 -2.60118 1.975 0
M  V30 6541 H 638.399 -1.10572 3.49527 0
M  V30 6542 H 638.047 -3.58152 3.5318 0
M  V30 6543 H 637.747 -2.86025 5.13287 0
M  V30 6544 H 639.271 -3.74073 4.82599 0
M  V30 6545 H 640.685 -1.57546 5.51228 0
M  V30 6546 H 639.082 -0.905006 5.93237 0
M  V30 6547 H 640.152 0.00297335 4.849 0
M  V30 6548 N 641.495 -1.56914 -0.146875 0
M  V30 6549 C 642.743 -1.82994 -0.85777 0
M  V30 6550 C 643.064 -0.707814 -1.817 0
M  V30 6551 O 642.334 0.270521 -1.94023 0
M  V30 6552 H 640.914 -0.675106 -0.319751 0
M  V30 6553 H 643.576 -1.9439 -0.140849 0
M  V30 6554 H 642.672 -2.77928 -1.41994 0
M  V30 6555 N 642.974 0.416227 -1.52004 0
M  V30 6556 C 644.39 0.754319 -1.40649 0
M  V30 6557 C 644.59 1.95059 -0.505392 0
M  V30 6558 O 643.646 2.5248 0.0315057 0
M  V30 6559 C 644.959 1.0149 -2.83055 0
M  V30 6560 C 646.507 1.11805 -2.9235 0
M  V30 6561 C 646.982 1.41144 -4.35709 0
M  V30 6562 N 648.473 1.48024 -4.38911 0
M  V30 6563 C 649.208 1.72338 -5.46889 0
M  V30 6564 N 648.704 1.94303 -6.64995 0
M  V30 6565 N 650.497 1.74294 -5.34395 0
M  V30 6566 H 642.648 -0.371324 -2.09129 0
M  V30 6567 H 644.911 -0.103811 -0.942299 0
M  V30 6568 H 644.617 0.208345 -3.51082 0
M  V30 6569 H 644.491 1.93697 -3.23668 0
M  V30 6570 H 646.878 1.91521 -2.24508 0
M  V30 6571 H 646.959 0.17451 -2.55204 0
M  V30 6572 H 646.603 0.619484 -5.04108 0
M  V30 6573 H 646.533 2.36739 -4.70385 0
M  V30 6574 H 649.024 1.32868 -3.53772 0
M  V30 6575 H 649.337 2.12286 -7.43071 0
M  V30 6576 H 647.682 1.91582 -6.68073 0
M  V30 6577 H 650.873 1.56667 -4.41104 0
M  V30 6578 H 651.046 1.92904 -6.18621 0
M  V30 6579 N 644.452 1.42507 0.673017 0
M  V30 6580 C 645.399 1.46124 1.78651 0
M  V30 6581 C 646.369 0.313007 1.63124 0
M  V30 6582 O 647.554 0.517337 1.83653 0
M  V30 6583 C 644.694 1.3711 3.16694 0
M  V30 6584 C 643.807 2.61983 3.43495 0
M  V30 6585 C 642.942 2.45098 4.71275 0
M  V30 6586 C 641.981 3.65336 4.91117 0
M  V30 6587 N 641.118 3.47383 6.10139 0
M  V30 6588 H 645.958 2.4128 1.74895 0
M  V30 6589 H 643.495 1.19788 0.853766 0
M  V30 6590 H 645.453 1.29881 3.96468 0
M  V30 6591 H 644.083 0.45549 3.1957 0
M  V30 6592 H 643.135 2.79571 2.57961 0
M  V30 6593 H 644.447 3.51355 3.5405 0
M  V30 6594 H 643.601 2.35466 5.59143 0
M  V30 6595 H 642.34 1.53219 4.63007 0
M  V30 6596 H 641.345 3.754 4.0169 0
M  V30 6597 H 642.57 4.58199 5.01229 0
M  V30 6598 H 640.516 2.58222 6.0304 0
M  V30 6599 H 640.433 4.30344 6.21563 0
M  V30 6600 H 641.701 3.41565 7.00681 0
M  V30 6601 N 645.93 -0.909495 1.28709 0
M  V30 6602 C 647.178 -1.65577 1.15882 0
M  V30 6603 C 647.499 -1.928 -0.292108 0
M  V30 6604 O 646.769 -1.54716 -1.20166 0
M  V30 6605 H 645.349 -0.613714 0.425869 0
M  V30 6606 H 648.011 -1.09108 1.61498 0
M  V30 6607 H 647.107 -2.61634 1.70159 0
M  V30 6608 N 647.408 -1.11026 -1.11852 0
M  V30 6609 C 648.633 -0.879064 -1.87849 0
M  V30 6610 C 649.058 0.565406 -1.79401 0
M  V30 6611 O 648.416 1.39886 -1.15333 0
M  V30 6612 C 648.464 -1.33985 -3.34784 0
M  V30 6613 O 647.568 -0.508803 -4.09249 0
M  V30 6614 H 646.909 -0.316992 -0.583448 0
M  V30 6615 H 649.439 -1.47863 -1.41413 0
M  V30 6616 H 649.449 -1.33248 -3.85628 0
M  V30 6617 H 648.124 -2.39172 -3.40249 0
M  V30 6618 H 646.701 -0.581913 -3.68332 0
M  V30 6619 N 648.886 1.2938 -0.899927 0
M  V30 6620 C 649.816 2.30144 -0.39446 0
M  V30 6621 C 650.797 1.61611 0.530639 0
M  V30 6622 O 651.982 1.89119 0.441319 0
M  V30 6623 C 649.112 3.45229 0.37868 0
M  V30 6624 C 648.066 4.25564 -0.456012 0
M  V30 6625 C 647.392 5.32848 0.444637 0
M  V30 6626 C 648.692 4.93651 -1.70605 0
M  V30 6627 H 650.386 2.72673 -1.23653 0
M  V30 6628 H 647.932 1.31086 -0.596034 0
M  V30 6629 H 649.885 4.14797 0.743037 0
M  V30 6630 H 648.609 3.01545 1.25453 0
M  V30 6631 H 647.268 3.57704 -0.802704 0
M  V30 6632 H 646.916 4.85408 1.31863 0
M  V30 6633 H 646.616 5.87497 -0.110154 0
M  V30 6634 H 648.14 6.05268 0.805182 0
M  V30 6635 H 649.554 5.55655 -1.41141 0
M  V30 6636 H 647.951 5.58233 -2.20217 0
M  V30 6637 H 649.021 4.18926 -2.4419 0
M  V30 6638 N 650.364 0.662433 1.43002 0
M  V30 6639 C 651.274 -0.0239199 2.34588 0
M  V30 6640 C 652.29 -0.802255 1.54402 0
M  V30 6641 O 653.466 -0.747401 1.87018 0
M  V30 6642 C 650.531 -0.972098 3.32793 0
M  V30 6643 C 649.592 -0.189673 4.28881 0
M  V30 6644 C 648.825 -1.09269 5.22395 0
M  V30 6645 O 649.048 -2.33209 5.20547 0
M  V30 6646 O 647.982 -0.560136 5.99288 0
M  V30 6647 H 651.808 0.730171 2.94792 0
M  V30 6648 H 649.393 0.422635 1.43297 0
M  V30 6649 H 651.275 -1.51676 3.93157 0
M  V30 6650 H 649.95 -1.70626 2.75079 0
M  V30 6651 H 648.857 0.398794 3.71968 0
M  V30 6652 H 650.19 0.50511 4.89601 0
M  V30 6653 N 651.842 -1.52309 0.404946 0
M  V30 6654 C 652.789 -2.26898 -0.422597 0
M  V30 6655 C 653.759 -1.2914 -1.04461 0
M  V30 6656 O 654.944 -1.57996 -1.06967 0
M  V30 6657 C 652.084 -3.09053 -1.53559 0
M  V30 6658 C 651.197 -4.21762 -0.934908 0
M  V30 6659 C 650.332 -4.91283 -2.02025 0
M  V30 6660 C 649.371 -5.95962 -1.39628 0
M  V30 6661 N 648.508 -6.59017 -2.42159 0
M  V30 6662 H 653.348 -2.97188 0.219903 0
M  V30 6663 H 650.885 -1.46607 0.120282 0
M  V30 6664 H 652.843 -3.54987 -2.19181 0
M  V30 6665 H 651.473 -2.40942 -2.14818 0
M  V30 6666 H 650.525 -3.80029 -0.167854 0
M  V30 6667 H 651.837 -4.96864 -0.439073 0
M  V30 6668 H 650.991 -5.40601 -2.75383 0
M  V30 6669 H 649.73 -4.15741 -2.54973 0
M  V30 6670 H 648.735 -5.45968 -0.648023 0
M  V30 6671 H 649.96 -6.73445 -0.874553 0
M  V30 6672 H 647.906 -5.86306 -2.94247 0
M  V30 6673 H 647.823 -7.2978 -1.97376 0
M  V30 6674 H 649.091 -7.12974 -3.15099 0
M  V30 6675 N 653.32 -0.135238 -1.57019 0
M  V30 6676 C 654.253 0.846618 -2.11914 0
M  V30 6677 C 655.231 1.25019 -1.03966 0
M  V30 6678 O 656.415 1.34838 -1.31723 0
M  V30 6679 C 653.542 2.1352 -2.6292 0
M  V30 6680 C 652.588 1.87846 -3.82905 0
M  V30 6681 S 653.421 1.08005 -5.24495 0
M  V30 6682 C 654.577 2.38008 -5.78881 0
M  V30 6683 H 654.81 0.379752 -2.94865 0
M  V30 6684 H 652.343 0.0788387 -1.54199 0
M  V30 6685 H 654.301 2.87551 -2.92958 0
M  V30 6686 H 652.962 2.57323 -1.80121 0
M  V30 6687 H 652.155 2.83365 -4.16797 0
M  V30 6688 H 651.757 1.21929 -3.53567 0
M  V30 6689 H 654.049 3.33742 -5.89595 0
M  V30 6690 H 654.992 2.08638 -6.76665 0
M  V30 6691 H 655.4 2.48119 -5.07048 0
M  V30 6692 N 654.798 1.5699 0.138552 0
M  V30 6693 C 655.746 1.99858 1.18994 0
M  V30 6694 C 656.74 0.89231 1.43994 0
M  V30 6695 O 657.946 1.0775 1.44187 0
M  V30 6696 H 654.321 0.636325 0.400743 0
M  V30 6697 H 656.292 2.87427 0.801755 0
M  V30 6698 C 655.041 2.40235 2.51361 0
M  V30 6699 H 654.364 3.24917 2.32957 0
M  V30 6700 H 655.804 2.74045 3.23535 0
M  V30 6701 C 654.263 1.25829 3.1252 0
M  V30 6702 O 654.793 0.563604 3.97727 0
M  V30 6703 N 652.999 1.02036 2.72097 0
M  V30 6704 H 652.546 1.58705 2.02905 0
M  V30 6705 H 652.504 0.256796 3.1335 0
M  V30 6706 N 656.276 -0.40816 1.52223 0
M  V30 6707 C 657.224 -1.51788 1.76248 0
M  V30 6708 C 658.218 -1.57264 0.629638 0
M  V30 6709 O 659.424 -1.60659 0.811704 0
M  V30 6710 H 655.799 -0.504823 0.557367 0
M  V30 6711 H 657.77 -1.2871 2.69214 0
M  V30 6712 C 656.519 -2.89145 1.93107 0
M  V30 6713 H 655.842 -2.85674 2.79697 0
M  V30 6714 H 657.282 -3.66082 2.13916 0
M  V30 6715 C 655.741 -3.29581 0.698431 0
M  V30 6716 O 656.271 -4.01479 -0.133238 0
M  V30 6717 N 654.477 -2.85651 0.53405 0
M  V30 6718 H 654.024 -2.2731 1.21194 0
M  V30 6719 H 653.982 -3.13065 -0.289387 0
M  V30 6720 N 657.755 -1.42862 -0.66545 0
M  V30 6721 C 658.985 -1.47032 -1.45138 0
M  V30 6722 C 659.393 -0.0829977 -1.89018 0
M  V30 6723 O 658.736 0.914551 -1.59316 0
M  V30 6724 C 658.798 -2.34302 -2.72659 0
M  V30 6725 C 658.462 -3.82034 -2.50796 0
M  V30 6726 C 659.459 -4.73453 -2.14799 0
M  V30 6727 C 657.144 -4.26397 -2.655 0
M  V30 6728 C 659.138 -6.07228 -1.93785 0
M  V30 6729 C 656.825 -5.6023 -2.44103 0
M  V30 6730 C 657.823 -6.50462 -2.08299 0
M  V30 6731 O 657.511 -7.8182 -1.87116 0
M  V30 6732 H 657.243 -0.501969 -0.452772 0
M  V30 6733 H 659.797 -1.88137 -0.82423 0
M  V30 6734 H 658.027 -1.88063 -3.37889 0
M  V30 6735 H 659.716 -2.29818 -3.34572 0
M  V30 6736 H 660.482 -4.4046 -2.03026 0
M  V30 6737 H 656.361 -3.56448 -2.92345 0
M  V30 6738 H 659.905 -6.7762 -1.65763 0
M  V30 6739 H 655.802 -5.92793 -2.55475 0
M  V30 6740 H 656.57 -7.93274 -2.01639 0
M  V30 6741 N 659.233 0.902656 -1.29189 0
M  V30 6742 C 660.479 1.6555 -1.18172 0
M  V30 6743 C 660.834 1.90569 0.264788 0
M  V30 6744 O 660.127 1.50292 1.1884 0
M  V30 6745 C 660.321 3.011 -1.92545 0
M  V30 6746 C 660.15 2.89312 -3.4428 0
M  V30 6747 C 658.92 2.90239 -4.1363 0
M  V30 6748 C 661.118 2.6656 -4.3983 0
M  V30 6749 N 659.1 2.69156 -5.5175 0
M  V30 6750 C 660.471 2.54429 -5.6539 0
M  V30 6751 C 662.526 2.51644 -4.29627 0
M  V30 6752 C 661.229 2.289 -6.81907 0
M  V30 6753 C 663.255 2.27498 -5.45892 0
M  V30 6754 C 662.617 2.16129 -6.70423 0
M  V30 6755 H 658.716 0.611519 -0.48741 0
M  V30 6756 H 661.3 1.06514 -1.62981 0
M  V30 6757 H 659.471 3.58202 -1.50154 0
M  V30 6758 H 661.203 3.65471 -1.73818 0
M  V30 6759 H 657.958 3.01412 -3.65305 0
M  V30 6760 H 658.382 2.61676 -6.24383 0
M  V30 6761 H 663.024 2.59178 -3.34045 0
M  V30 6762 H 660.742 2.20104 -7.77547 0
M  V30 6763 H 664.328 2.16805 -5.39895 0
M  V30 6764 H 663.208 1.97703 -7.5887 0
M  V30 6765 N 660.711 1.11618 1.11262 0
M  V30 6766 C 661.988 0.777876 1.79467 0
M  V30 6767 C 662.368 -0.733774 1.97937 0
M  V30 6768 O 661.716 -1.66443 1.56554 0
M  V30 6769 C 661.926 1.5431 3.13032 0
M  V30 6770 C 663.274 1.72357 3.88044 0
M  V30 6771 O 664.298 1.5075 3.22727 0
M  V30 6772 O 663.157 2.08276 5.05256 0
M  V30 6773 H 660.251 0.282018 0.777428 0
M  V30 6774 H 662.797 1.21971 1.17988 0
M  V30 6775 H 661.569 2.57132 2.94956 0
M  V30 6776 H 661.192 1.09495 3.82226 0
M  V30 6777 N 662.189 -1.289 0.906776 0
M  V30 6778 C 663.435 -1.95558 0.53712 0
M  V30 6779 C 663.768 -1.71262 -0.915582 0
M  V30 6780 O 663.043 -1.02961 -1.65013 0
M  V30 6781 C 663.326 -3.50198 0.838645 0
M  V30 6782 C 663.179 -3.83923 2.34357 0
M  V30 6783 C 664.498 -4.38861 0.329988 0
M  V30 6784 H 661.617 -0.710289 0.196617 0
M  V30 6785 H 664.259 -1.52392 1.13475 0
M  V30 6786 H 662.409 -3.87096 0.330024 0
M  V30 6787 H 664.081 -3.56933 2.92227 0
M  V30 6788 H 662.324 -3.31215 2.80141 0
M  V30 6789 H 662.995 -4.91883 2.5051 0
M  V30 6790 H 665.471 -4.08996 0.765609 0
M  V30 6791 H 664.347 -5.45931 0.570105 0
M  V30 6792 H 664.608 -4.35352 -0.769511 0
M  V30 6793 N 663.667 -0.670007 -1.42649 0
M  V30 6794 C 664.915 -0.18991 -2.01206 0
M  V30 6795 C 665.236 1.20617 -1.53221 0
M  V30 6796 O 664.506 1.80898 -0.751856 0
M  V30 6797 H 663.086 -0.0672189 -0.743969 0
M  V30 6798 H 665.748 -0.865442 -1.74631 0
M  V30 6799 H 664.844 -0.187481 -3.11536 0
M  V30 6800 N 665.145 1.52092 -0.413018 0
M  V30 6801 C 666.077 2.24819 0.445994 0
M  V30 6802 C 667.09 1.27925 1.00692 0
M  V30 6803 O 668.279 1.53845 0.905204 0
M  V30 6804 C 665.379 2.96951 1.6332 0
M  V30 6805 C 664.552 4.20746 1.19548 0
M  V30 6806 C 663.611 4.75668 2.25003 0
M  V30 6807 O 662.637 5.38148 1.85434 0
M  V30 6808 N 663.839 4.57579 3.57214 0
M  V30 6809 H 666.604 2.99176 -0.177209 0
M  V30 6810 H 664.165 1.60102 -0.240601 0
M  V30 6811 H 666.157 3.30586 2.33441 0
M  V30 6812 H 664.727 2.25756 2.16225 0
M  V30 6813 H 663.947 3.92881 0.32224 0
M  V30 6814 H 665.235 5.01132 0.880033 0
M  V30 6815 H 664.633 4.07758 3.92109 0
M  V30 6816 H 663.19 4.95642 4.23299 0
M  V30 6817 N 666.623 0.143563 1.56945 0
M  V30 6818 C 667.87 -0.508407 1.96014 0
M  V30 6819 C 668.198 -1.65099 1.02824 0
M  V30 6820 O 667.453 -1.95618 0.0567764 0
M  V30 6821 C 667.752 -1.05885 3.41355 0
M  V30 6822 C 667.418 -0.0350809 4.50886 0
M  V30 6823 C 666.08 0.246362 4.80569 0
M  V30 6824 C 668.432 0.661282 5.16988 0
M  V30 6825 C 665.76 1.23003 5.73661 0
M  V30 6826 C 668.112 1.63375 6.11139 0
M  V30 6827 C 666.776 1.92292 6.39203 0
M  V30 6828 H 666.046 -0.186039 0.717266 0
M  V30 6829 H 668.693 0.229667 1.90118 0
M  V30 6830 H 666.998 -1.87419 3.44066 0
M  V30 6831 H 668.695 -1.57183 3.6891 0
M  V30 6832 H 665.285 -0.264622 4.27782 0
M  V30 6833 H 669.469 0.457038 4.94191 0
M  V30 6834 H 664.725 1.46056 5.93698 0
M  V30 6835 H 668.899 2.17887 6.61436 0
M  V30 6836 H 666.526 2.68666 7.11142 0
M  V30 6837 N 668.101 -1.57061 -0.130224 0
M  V30 6838 C 669.348 -1.84257 -0.839972 0
M  V30 6839 C 669.676 -0.726986 -1.80403 0
M  V30 6840 O 668.931 0.282632 -1.93648 0
M  V30 6841 C 669.23 -3.17878 -1.63365 0
M  V30 6842 C 668.896 -4.43475 -0.814891 0
M  V30 6843 C 667.558 -4.77581 -0.589066 0
M  V30 6844 C 669.91 -5.20631 -0.243437 0
M  V30 6845 C 667.238 -5.86292 0.218648 0
M  V30 6846 C 669.59 -6.30192 0.551408 0
M  V30 6847 C 668.254 -6.62837 0.787653 0
M  V30 6848 H 667.524 -0.674245 -0.307367 0
M  V30 6849 H 670.171 -1.91224 -0.102832 0
M  V30 6850 H 668.476 -3.06437 -2.44138 0
M  V30 6851 H 670.173 -3.3614 -2.18658 0
M  V30 6852 H 666.763 -4.16747 -1.00098 0
M  V30 6853 H 670.947 -4.94644 -0.405145 0
M  V30 6854 H 666.203 -6.10017 0.411016 0
M  V30 6855 H 670.377 -6.89165 1.00126 0
M  V30 6856 H 668.004 -7.46908 1.41537 0
M  V30 6857 N 669.579 0.400081 -1.52437 0
M  V30 6858 C 670.804 1.17221 -1.71096 0
M  V30 6859 C 671.229 1.83269 -0.423565 0
M  V30 6860 O 670.587 1.70378 0.619751 0
M  V30 6861 C 670.635 2.20425 -2.85386 0
M  V30 6862 O 669.739 3.26769 -2.51586 0
M  V30 6863 H 669.08 0.341766 -0.569291 0
M  V30 6864 H 671.61 0.467772 -1.99181 0
M  V30 6865 H 671.62 2.64605 -3.10561 0
M  V30 6866 H 670.295 1.71737 -3.78786 0
M  V30 6867 H 668.872 2.87804 -2.37114 0
M  V30 6868 N 671.057 1.43213 0.657864 0
M  V30 6869 C 672.303 1.44798 1.41991 0
M  V30 6870 C 672.636 0.070256 1.94073 0
M  V30 6871 O 671.911 -0.908177 1.71995 0
M  V30 6872 C 672.194 2.4865 2.60471 0
M  V30 6873 C 672.047 3.95679 2.13911 0
M  V30 6874 C 673.366 2.49292 3.62686 0
M  V30 6875 H 670.485 0.527244 0.514959 0
M  V30 6876 H 673.127 1.74733 0.74621 0
M  V30 6877 H 671.277 2.23254 3.17946 0
M  V30 6878 H 672.949 4.32116 1.61472 0
M  V30 6879 H 671.192 4.08733 1.45325 0
M  V30 6880 H 671.863 4.6395 2.99089 0
M  V30 6881 H 674.339 2.71917 3.14961 0
M  V30 6882 H 673.215 3.23907 4.43143 0
M  V30 6883 H 673.476 1.52502 4.14964 0
M  V30 6884 N 672.536 -0.895792 1.29666 0
M  V30 6885 C 673.761 -1.68528 1.20885 0
M  V30 6886 C 674.186 -1.8673 -0.226595 0
M  V30 6887 O 673.544 -1.39044 -1.16347 0
M  V30 6888 C 673.592 -3.04512 1.93144 0
M  V30 6889 O 672.696 -3.92963 1.25115 0
M  V30 6890 H 672.037 -0.515371 0.418675 0
M  V30 6891 H 674.567 -1.11878 1.71302 0
M  V30 6892 H 674.577 -3.54628 2.0175 0
M  V30 6893 H 673.252 -2.90582 2.97548 0
M  V30 6894 H 671.829 -3.51399 1.24794 0
M  V30 6895 N 674.014 -1.12206 -1.10668 0
M  V30 6896 C 674.947 -0.731468 -2.16159 0
M  V30 6897 C 675.925 0.276216 -1.60237 0
M  V30 6898 O 677.109 0.17074 -1.87725 0
M  V30 6899 C 674.236 -0.0822882 -3.386 0
M  V30 6900 C 673.282 -1.05641 -4.1321 0
M  V30 6901 S 674.115 -2.58281 -4.69096 0
M  V30 6902 C 675.271 -1.94686 -5.94851 0
M  V30 6903 H 675.504 -1.62504 -2.48957 0
M  V30 6904 H 673.037 -0.940906 -1.22419 0
M  V30 6905 H 674.995 0.285896 -4.09503 0
M  V30 6906 H 673.656 0.788358 -3.04046 0
M  V30 6907 H 672.849 -0.549764 -5.00993 0
M  V30 6908 H 672.451 -1.36741 -3.48106 0
M  V30 6909 H 674.743 -1.28815 -6.65141 0
M  V30 6910 H 675.686 -2.80499 -6.50174 0
M  V30 6911 H 676.094 -1.40369 -5.46769 0
M  V30 6912 N 675.492 1.28418 -0.913599 0
M  V30 6913 C 676.422 2.29713 -0.418847 0
M  V30 6914 C 677.403 1.62165 0.513469 0
M  V30 6915 O 678.588 1.89576 0.421235 0
M  V30 6916 C 675.718 3.45612 0.342042 0
M  V30 6917 C 674.672 4.25056 -0.501123 0
M  V30 6918 C 673.998 5.3329 0.388097 0
M  V30 6919 C 675.298 4.91814 -1.75831 0
M  V30 6920 H 676.992 2.71346 -1.26538 0
M  V30 6921 H 674.538 1.30446 -0.609903 0
M  V30 6922 H 676.491 4.15562 0.699 0
M  V30 6923 H 675.215 3.02858 1.22248 0
M  V30 6924 H 673.874 3.56833 -0.840598 0
M  V30 6925 H 673.522 4.8678 1.26707 0
M  V30 6926 H 673.222 5.87347 -0.172459 0
M  V30 6927 H 674.746 6.06088 0.74094 0
M  V30 6928 H 676.16 5.54126 -1.47026 0
M  V30 6929 H 674.557 5.55866 -2.26126 0
M  V30 6930 H 675.627 4.16313 -2.4862 0
M  V30 6931 N 676.97 0.677563 1.42291 0
M  V30 6932 C 677.933 0.0101085 2.29198 0
M  V30 6933 C 678.933 -0.726219 1.43467 0
M  V30 6934 O 680.123 -0.563807 1.64824 0
M  V30 6935 C 677.255 -0.996316 3.26016 0
M  V30 6936 H 678.448 0.775071 2.89711 0
M  V30 6937 H 676.001 0.440065 1.49977 0
M  V30 6938 H 676.736 -1.78967 2.70446 0
M  V30 6939 H 676.521 -0.471687 3.89253 0
M  V30 6940 H 678.011 -1.46167 3.91184 0
M  V30 6941 N 678.448 -1.51871 0.421078 0
M  V30 6942 C 679.398 -2.24171 -0.416111 0
M  V30 6943 C 680.382 -1.25763 -1.00362 0
M  V30 6944 O 681.574 -1.5094 -0.924452 0
M  V30 6945 C 678.703 -3.07533 -1.52571 0
M  V30 6946 C 677.789 -4.1336 -0.948399 0
M  V30 6947 N 678.18 -5.05704 -0.0987933 0
M  V30 6948 C 676.478 -4.29055 -1.21768 0
M  V30 6949 C 677.179 -5.8127 0.223705 0
M  V30 6950 N 676.155 -5.4221 -0.388524 0
M  V30 6951 H 679.957 -2.92925 0.239166 0
M  V30 6952 H 677.471 -1.60732 0.232191 0
M  V30 6953 H 679.468 -3.57893 -2.13819 0
M  V30 6954 H 678.128 -2.4032 -2.18349 0
M  V30 6955 H 679.139 -5.17214 0.266428 0
M  V30 6956 H 675.816 -3.73071 -1.87416 0
M  V30 6957 H 677.206 -6.65653 0.914076 0
M  V30 6958 N 679.926 -0.151884 -1.56866 0
M  V30 6959 C 681.203 0.543328 -1.87902 0
M  V30 6960 C 681.583 1.82636 -1.05864 0
M  V30 6961 O 680.931 2.28028 -0.146868 0
M  V30 6962 C 681.141 0.804056 -3.39611 0
M  V30 6963 C 682.489 1.14267 -4.08935 0
M  V30 6964 O 683.513 0.893248 -3.44818 0
M  V30 6965 O 682.372 1.61229 -5.22176 0
M  V30 6966 H 679.466 0.277724 -0.778973 0
M  V30 6967 H 682.012 -0.188862 -1.68646 0
M  V30 6968 H 680.784 -0.103772 -3.91162 0
M  V30 6969 H 680.407 1.59025 -3.64413 0
M  V30 6970 N 681.404 1.57128 0.121893 0
M  V30 6971 C 682.65 1.84974 0.831418 0
M  V30 6972 C 682.983 0.737204 1.79663 0
M  V30 6973 O 682.258 -0.257199 1.92792 0
M  V30 6974 C 682.541 3.23397 1.58386 0
M  V30 6975 C 682.394 4.45246 0.638445 0
M  V30 6976 C 683.713 3.59355 2.54071 0
M  V30 6977 H 680.832 0.67282 0.300803 0
M  V30 6978 H 683.474 1.89759 0.0957587 0
M  V30 6979 H 681.624 3.19449 2.21098 0
M  V30 6980 H 683.296 4.61295 0.0203925 0
M  V30 6981 H 681.539 4.33771 -0.05023 0
M  V30 6982 H 682.21 5.38765 1.20151 0
M  V30 6983 H 684.686 3.64075 2.01465 0
M  V30 6984 H 683.562 4.57193 3.03752 0
M  V30 6985 H 683.823 2.86622 3.36601 0
M  V30 6986 N 682.882 -0.391992 1.52647 0
M  V30 6987 C 684.13 -1.13507 1.67214 0
M  V30 6988 C 684.451 -1.90575 0.41304 0
M  V30 6989 O 683.721 -1.87348 -0.572498 0
M  V30 6990 H 682.301 -0.422013 0.616372 0
M  V30 6991 H 684.963 -0.44502 1.89751 0
M  V30 6992 H 684.059 -1.83964 2.52118 0
M  V30 6993 N 684.36 -1.4356 -0.65026 0
M  V30 6994 C 685.307 -1.48948 -1.76304 0
M  V30 6995 C 686.277 -0.338919 -1.62605 0
M  V30 6996 O 687.462 -0.54649 -1.82806 0
M  V30 6997 C 684.602 -1.42131 -3.14472 0
M  V30 6998 C 683.715 -2.67415 -3.39284 0
M  V30 6999 C 682.85 -2.52565 -4.67316 0
M  V30 7000 C 681.889 -3.73103 -4.85243 0
M  V30 7001 N 681.026 -3.57046 -6.04535 0
M  V30 7002 H 685.866 -2.44032 -1.71034 0
M  V30 7003 H 683.403 -1.21131 -0.834601 0
M  V30 7004 H 685.361 -1.36172 -3.94351 0
M  V30 7005 H 683.991 -0.506273 -3.18805 0
M  V30 7006 H 683.043 -2.8364 -2.53481 0
M  V30 7007 H 684.355 -3.56943 -3.48415 0
M  V30 7008 H 683.509 -2.44331 -5.55326 0
M  V30 7009 H 682.248 -1.60566 -4.60511 0
M  V30 7010 H 681.253 -3.81743 -3.95667 0
M  V30 7011 H 682.478 -4.66115 -4.93876 0
M  V30 7012 H 680.424 -2.67783 -5.98856 0
M  V30 7013 H 680.341 -4.40178 -6.14638 0
M  V30 7014 H 681.609 -3.52669 -6.95158 0
M  V30 7015 N 685.838 0.888903 -1.30139 0
M  V30 7016 C 686.801 1.97576 -1.16174 0
M  V30 7017 C 687.801 1.60525 -0.094086 0
M  V30 7018 O 688.991 1.70812 -0.341889 0
M  V30 7019 C 686.123 3.3188 -0.778983 0
M  V30 7020 H 687.316 2.11393 -2.12728 0
M  V30 7021 H 684.869 1.0748 -1.1348 0
M  V30 7022 H 685.604 3.23765 0.186225 0
M  V30 7023 H 685.389 3.60141 -1.55051 0
M  V30 7024 H 686.879 4.11612 -0.704631 0
M  V30 7025 N 687.317 1.12792 1.10072 0
M  V30 7026 C 688.563 0.886857 1.82381 0
M  V30 7027 C 688.896 -0.58576 1.85155 0
M  V30 7028 O 688.171 -1.43317 1.31493 0
M  V30 7029 C 688.454 1.46703 3.28862 0
M  V30 7030 C 688.307 3.00829 3.34398 0
M  V30 7031 C 689.626 1.12971 4.25353 0
M  V30 7032 H 686.745 0.32362 0.662148 0
M  V30 7033 H 689.387 1.39513 1.28982 0
M  V30 7034 H 687.537 1.03476 3.74466 0
M  V30 7035 H 689.209 3.52764 2.97247 0
M  V30 7036 H 687.452 3.36164 2.74183 0
M  V30 7037 H 688.123 3.36519 4.3756 0
M  V30 7038 H 690.599 1.50313 3.88001 0
M  V30 7039 H 689.475 1.56223 5.26199 0
M  V30 7040 H 689.736 0.0424452 4.4208 0
M  V30 7041 N 688.795 -1.27931 0.920396 0
M  V30 7042 C 689.727 -2.26175 0.371169 0
M  V30 7043 C 690.74 -1.55122 -0.494065 0
M  V30 7044 O 691.929 -1.75825 -0.30787 0
M  V30 7045 C 689.029 -3.35376 -0.487481 0
M  V30 7046 C 688.202 -4.35943 0.356772 0
M  V30 7047 C 687.261 -5.24374 -0.438042 0
M  V30 7048 O 686.287 -5.68998 0.151715 0
M  V30 7049 N 687.489 -5.53823 -1.73956 0
M  V30 7050 H 690.254 -2.73938 1.21564 0
M  V30 7051 H 687.815 -1.41482 0.787047 0
M  V30 7052 H 689.807 -3.91476 -1.02609 0
M  V30 7053 H 688.377 -2.87269 -1.23269 0
M  V30 7054 H 687.597 -3.7921 1.07672 0
M  V30 7055 H 688.885 -5.0015 0.934206 0
M  V30 7056 H 688.283 -5.19413 -2.24114 0
M  V30 7057 H 686.84 -6.12653 -2.22486 0
M  V30 7058 N 690.273 -0.685099 -1.4193 0
M  V30 7059 C 691.236 -0.0222632 -2.29189 0
M  V30 7060 C 692.236 0.7186 -1.4385 0
M  V30 7061 O 693.426 0.555058 -1.6512 0
M  V30 7062 C 690.558 0.979013 -3.2654 0
M  V30 7063 H 691.751 -0.790424 -2.89296 0
M  V30 7064 H 689.304 -0.448012 -1.49742 0
M  V30 7065 H 690.039 1.77531 -2.71392 0
M  V30 7066 H 689.824 0.451037 -3.89497 0
M  V30 7067 H 691.314 1.44091 -3.91954 0
M  V30 7068 N 691.751 1.51645 -0.429126 0
M  V30 7069 C 692.714 2.26116 0.374726 0
M  V30 7070 C 693.714 1.29242 0.956714 0
M  V30 7071 O 694.904 1.53022 0.832452 0
M  V30 7072 C 692.036 3.04669 1.52937 0
M  V30 7073 H 693.229 2.9861 -0.277818 0
M  V30 7074 H 690.782 1.55236 -0.182097 0
M  V30 7075 H 691.517 2.36571 2.21821 0
M  V30 7076 H 691.302 3.75814 1.11833 0
M  V30 7077 H 692.792 3.61102 2.09751 0
M  V30 7078 N 693.229 0.160201 1.56784 0
M  V30 7079 C 694.139 -0.787167 2.21 0
M  V30 7080 C 695.155 -1.26167 1.19825 0
M  V30 7081 O 696.331 -1.31611 1.52448 0
M  V30 7082 C 693.396 -2.00364 2.8294 0
M  V30 7083 C 692.457 -1.5771 3.99282 0
M  V30 7084 C 691.69 -2.73558 4.58259 0
M  V30 7085 O 691.913 -3.90129 4.16119 0
M  V30 7086 O 690.847 -2.48271 5.48311 0
M  V30 7087 H 694.673 -0.270462 3.02493 0
M  V30 7088 H 692.258 -0.0674666 1.49248 0
M  V30 7089 H 694.14 -2.71529 3.22257 0
M  V30 7090 H 692.815 -2.50961 2.04451 0
M  V30 7091 H 691.722 -0.835274 3.64656 0
M  V30 7092 H 693.055 -1.11815 4.79331 0
M  V30 7093 N 694.707 -1.5719 -0.113559 0
M  V30 7094 C 696.123 -1.52607 -0.467253 0
M  V30 7095 C 696.323 -0.874058 -1.81556 0
M  V30 7096 O 695.379 -0.458703 -2.48299 0
M  V30 7097 C 696.692 -2.97363 -0.446736 0
M  V30 7098 C 698.24 -3.08482 -0.529903 0
M  V30 7099 C 698.715 -4.54809 -0.539721 0
M  V30 7100 N 700.206 -4.59284 -0.601005 0
M  V30 7101 C 700.941 -5.69927 -0.630138 0
M  V30 7102 N 700.437 -6.90051 -0.616589 0
M  V30 7103 N 702.23 -5.5805 -0.673558 0
M  V30 7104 H 694.381 -1.97958 0.769819 0
M  V30 7105 H 696.644 -0.90428 0.284572 0
M  V30 7106 H 696.35 -3.48458 0.47643 0
M  V30 7107 H 696.224 -3.55086 -1.27254 0
M  V30 7108 H 698.611 -2.57386 -1.44349 0
M  V30 7109 H 698.692 -2.53744 0.323695 0
M  V30 7110 H 698.336 -5.06552 0.369843 0
M  V30 7111 H 698.266 -5.07364 -1.41028 0
M  V30 7112 H 700.757 -3.72822 -0.617419 0
M  V30 7113 H 701.07 -7.70132 -0.641592 0
M  V30 7114 H 699.415 -6.92543 -0.583927 0
M  V30 7115 H 702.606 -4.63112 -0.681544 0
M  V30 7116 H 702.779 -6.44286 -0.692794 0
M  V30 7117 N 696.185 0.383891 -1.52853 0
M  V30 7118 C 697.115 1.47559 -1.80965 0
M  V30 7119 C 698.096 1.5669 -0.661986 0
M  V30 7120 O 699.281 1.71556 -0.910072 0
M  V30 7121 C 696.411 2.85114 -1.98312 0
M  V30 7122 C 695.365 2.9082 -3.14019 0
M  V30 7123 C 694.691 4.30873 -3.16627 0
M  V30 7124 C 695.991 2.60001 -4.52986 0
M  V30 7125 H 697.685 1.24283 -2.72386 0
M  V30 7126 H 695.231 0.596445 -1.31067 0
M  V30 7127 H 697.184 3.61496 -2.16561 0
M  V30 7128 H 695.908 3.09738 -1.03585 0
M  V30 7129 H 694.567 2.16886 -2.9556 0
M  V30 7130 H 694.215 4.52545 -2.19573 0
M  V30 7131 H 693.915 4.3561 -3.94357 0
M  V30 7132 H 695.439 5.09154 -3.37038 0
M  V30 7133 H 696.853 3.261 -4.71521 0
M  V30 7134 H 695.25 2.76081 -5.32822 0
M  V30 7135 H 696.32 1.5532 -4.59351 0
M  V30 7136 N 697.663 1.43903 0.642637 0
M  V30 7137 C 698.91 1.46079 1.40239 0
M  V30 7138 C 699.238 0.0890335 1.94296 0
M  V30 7139 O 698.493 -0.907533 1.73385 0
M  V30 7140 C 698.792 2.45907 2.59354 0
M  V30 7141 C 698.458 3.91522 2.23654 0
M  V30 7142 C 697.12 4.31179 2.1363 0
M  V30 7143 C 699.472 4.83242 1.95261 0
M  V30 7144 C 696.8 5.60495 1.73384 0
M  V30 7145 C 699.152 6.12933 1.56511 0
M  V30 7146 C 697.816 6.51556 1.4502 0
M  V30 7147 H 697.086 0.534542 0.513172 0
M  V30 7148 H 699.733 1.77047 0.72984 0
M  V30 7149 H 698.038 2.08381 3.3179 0
M  V30 7150 H 699.735 2.44842 3.17574 0
M  V30 7151 H 696.325 3.60142 2.32369 0
M  V30 7152 H 700.509 4.53367 2.0192 0
M  V30 7153 H 695.765 5.89249 1.63082 0
M  V30 7154 H 699.939 6.83469 1.33576 0
M  V30 7155 H 697.566 7.51663 1.13606 0
M  V30 7156 N 699.141 -0.881989 1.30609 0
M  V30 7157 C 700.088 -1.98803 1.17244 0
M  V30 7158 C 701.058 -1.65987 0.0611905 0
M  V30 7159 O 702.243 -1.89385 0.231911 0
M  V30 7160 C 699.383 -3.33867 0.87333 0
M  V30 7161 C 698.496 -3.79354 2.06675 0
M  V30 7162 C 697.631 -5.03078 1.70547 0
M  V30 7163 C 696.67 -5.40981 2.86366 0
M  V30 7164 N 695.807 -6.55886 2.50514 0
M  V30 7165 H 700.647 -2.09566 2.11863 0
M  V30 7166 H 698.184 -1.02607 1.05405 0
M  V30 7167 H 700.142 -4.11612 0.680519 0
M  V30 7168 H 698.772 -3.2278 -0.0359983 0
M  V30 7169 H 697.824 -2.97492 2.37071 0
M  V30 7170 H 699.136 -4.03382 2.93401 0
M  V30 7171 H 698.29 -5.88457 1.47658 0
M  V30 7172 H 697.029 -4.80927 0.809947 0
M  V30 7173 H 696.034 -4.54127 3.09917 0
M  V30 7174 H 697.259 -5.65104 3.76609 0
M  V30 7175 H 695.205 -6.35306 1.63471 0
M  V30 7176 H 695.122 -6.79799 3.30771 0
M  V30 7177 H 696.39 -7.44489 2.30989 0
M  V30 7178 N 700.619 -1.13374 -1.09472 0
M  V30 7179 C 701.549 -0.833268 -2.18126 0
M  V30 7180 C 702.53 0.207169 -1.68834 0
M  V30 7181 O 703.715 0.0662012 -1.94087 0
M  V30 7182 C 700.845 -0.297979 -3.46019 0
M  V30 7183 C 699.799 -1.27261 -4.08642 0
M  V30 7184 C 699.125 -0.597104 -5.31356 0
M  V30 7185 C 700.425 -2.63095 -4.51197 0
M  V30 7186 H 702.119 -1.74182 -2.43518 0
M  V30 7187 H 699.665 -0.838921 -1.17039 0
M  V30 7188 H 701.618 -0.0754444 -4.21332 0
M  V30 7189 H 700.342 0.645959 -3.20148 0
M  V30 7190 H 699.001 -1.48113 -3.35348 0
M  V30 7191 H 698.649 0.352293 -5.01765 0
M  V30 7192 H 698.349 -1.24734 -5.74208 0
M  V30 7193 H 699.873 -0.38384 -6.09392 0
M  V30 7194 H 701.287 -2.46214 -5.17737 0
M  V30 7195 H 699.684 -3.2429 -5.04932 0
M  V30 7196 H 700.754 -3.20793 -3.6362 0
M  V30 7197 N 702.098 1.27442 -0.927168 0
M  V30 7198 C 703.045 2.26863 -0.424459 0
M  V30 7199 C 704.015 1.5813 0.508346 0
M  V30 7200 O 705.2 1.85946 0.42762 0
M  V30 7201 C 702.34 3.43639 0.31718 0
M  V30 7202 C 701.453 4.27087 -0.649675 0
M  V30 7203 C 700.588 5.31082 0.111753 0
M  V30 7204 C 699.627 6.062 -0.847843 0
M  V30 7205 N 698.764 7.01999 -0.119074 0
M  V30 7206 H 703.604 2.69239 -1.27728 0
M  V30 7207 H 701.141 1.32394 -0.641106 0
M  V30 7208 H 703.099 4.10155 0.763486 0
M  V30 7209 H 701.729 3.02217 1.13424 0
M  V30 7210 H 700.781 3.60491 -1.21451 0
M  V30 7211 H 702.093 4.79242 -1.38307 0
M  V30 7212 H 701.247 6.03544 0.618 0
M  V30 7213 H 699.986 4.7973 0.878114 0
M  V30 7214 H 698.991 5.32577 -1.36534 0
M  V30 7215 H 700.216 6.59642 -1.61398 0
M  V30 7216 H 698.162 6.52977 0.629051 0
M  V30 7217 H 698.079 7.5184 -0.792046 0
M  V30 7218 H 699.347 7.78638 0.366537 0
M  V30 7219 N 703.576 0.692616 1.41565 0
M  V30 7220 C 704.987 0.297478 1.84315 0
M  V30 7221 C 705.338 -1.16379 1.57957 0
M  V30 7222 O 704.463 -1.89303 1.0485 0
M  V30 7223 C 705.058 0.533136 3.34579 0
M  V30 7224 C 703.617 0.191944 3.7591 0
M  V30 7225 C 702.764 0.816873 2.64995 0
M  V30 7226 H 705.715 0.893488 1.31158 0
M  V30 7227 H 705.736 -0.209105 3.79925 0
M  V30 7228 H 705.248 1.59674 3.53731 0
M  V30 7229 H 703.349 -0.867512 3.6236 0
M  V30 7230 H 703.462 0.644902 4.7474 0
M  V30 7231 H 701.826 0.246715 2.53502 0
M  V30 7232 H 702.609 1.88429 2.86966 0
M  V30 7233 N 705.054 -1.51416 0.437162 0
M  V30 7234 C 706.465 -1.86682 -0.0260005 0
M  V30 7235 C 706.816 -1.35432 -1.4196 0
M  V30 7236 O 705.941 -0.705055 -2.04592 0
M  V30 7237 C 706.536 -3.38757 -0.0539577 0
M  V30 7238 C 705.095 -3.7356 -0.461532 0
M  V30 7239 C 704.242 -2.75134 0.345924 0
M  V30 7240 H 707.193 -1.44642 0.653013 0
M  V30 7241 H 707.214 -3.70573 -0.863478 0
M  V30 7242 H 706.726 -3.76028 0.96045 0
M  V30 7243 H 704.827 -3.41878 -1.48155 0
M  V30 7244 H 704.94 -4.78737 -0.186451 0
M  V30 7245 H 703.304 -2.53947 -0.195739 0
M  V30 7246 H 704.087 -3.15247 1.35921 0
M  V30 7247 N 706.532 -0.168513 -1.56696 0
M  V30 7248 C 707.778 0.477865 -1.9709 0
M  V30 7249 C 708.111 1.63084 -1.05438 0
M  V30 7250 O 707.386 1.94238 -0.10095 0
M  V30 7251 C 707.669 0.963521 -3.4697 0
M  V30 7252 C 707.522 -0.189443 -4.49401 0
M  V30 7253 C 708.841 1.83813 -3.99876 0
M  V30 7254 H 705.96 0.172229 -0.716593 0
M  V30 7255 H 708.602 -0.254083 -1.88293 0
M  V30 7256 H 706.752 1.58724 -3.54597 0
M  V30 7257 H 708.424 -0.826451 -4.53836 0
M  V30 7258 H 706.667 -0.845366 -4.25483 0
M  V30 7259 H 707.338 0.192446 -5.51664 0
M  V30 7260 H 709.814 1.31235 -3.94863 0
M  V30 7261 H 708.69 2.14697 -5.0517 0
M  V30 7262 H 708.951 2.78289 -3.43523 0
M  V30 7263 N 708.01 1.57248 0.105221 0
M  V30 7264 C 709.256 1.86719 0.806692 0
M  V30 7265 C 709.611 0.758061 1.76837 0
M  V30 7266 O 708.904 -0.240812 1.90081 0
M  V30 7267 C 709.098 3.20437 1.58287 0
M  V30 7268 C 708.927 4.44252 0.697864 0
M  V30 7269 C 707.697 5.04104 0.347444 0
M  V30 7270 C 709.895 5.14299 0.00933014 0
M  V30 7271 N 707.877 6.1146 -0.546786 0
M  V30 7272 C 709.248 6.15528 -0.74336 0
M  V30 7273 C 711.303 4.97857 -0.0656505 0
M  V30 7274 C 710.006 7.02091 -1.56401 0
M  V30 7275 C 712.032 5.84919 -0.873167 0
M  V30 7276 C 711.394 6.8566 -1.61401 0
M  V30 7277 H 707.493 0.73329 0.271679 0
M  V30 7278 H 710.077 1.94575 0.0697152 0
M  V30 7279 H 708.248 3.13651 2.29079 0
M  V30 7280 H 709.98 3.37668 2.23075 0
M  V30 7281 H 706.735 4.68505 0.692817 0
M  V30 7282 H 707.159 6.69779 -0.986157 0
M  V30 7283 H 711.801 4.19919 0.492768 0
M  V30 7284 H 709.519 7.79427 -2.13353 0
M  V30 7285 H 713.105 5.74259 -0.933724 0
M  V30 7286 H 711.985 7.5186 -2.2288 0
M  V30 7287 N 709.488 -0.375779 1.53054 0
M  V30 7288 C 710.718 -1.1387 1.72386 0
M  V30 7289 C 711.126 -1.8382 0.447966 0
M  V30 7290 O 710.469 -1.74027 -0.588244 0
M  V30 7291 C 710.531 -2.22047 2.82728 0
M  V30 7292 C 710.195 -1.71951 4.23417 0
M  V30 7293 C 711.192 -1.18909 5.06119 0
M  V30 7294 C 708.877 -1.77773 4.69789 0
M  V30 7295 C 710.871 -0.723529 6.3328 0
M  V30 7296 C 708.558 -1.30829 5.96931 0
M  V30 7297 C 709.556 -0.782077 6.78508 0
M  V30 7298 O 709.244 -0.319529 8.03265 0
M  V30 7299 H 708.976 -0.346835 0.580242 0
M  V30 7300 H 711.53 -0.443748 2.00549 0
M  V30 7301 H 709.76 -2.95006 2.50017 0
M  V30 7302 H 711.449 -2.83654 2.90336 0
M  V30 7303 H 712.215 -1.13758 4.7147 0
M  V30 7304 H 708.094 -2.17673 4.06373 0
M  V30 7305 H 711.638 -0.312126 6.96901 0
M  V30 7306 H 707.535 -1.3567 6.31081 0
M  V30 7307 H 708.303 -0.439796 8.17318 0
M  V30 7308 N 710.966 -1.44241 -0.634997 0
M  V30 7309 C 711.896 -1.53632 -1.7584 0
M  V30 7310 C 712.877 -0.389603 -1.65578 0
M  V30 7311 O 714.062 -0.609219 -1.84397 0
M  V30 7312 C 711.192 -1.47644 -3.14354 0
M  V30 7313 C 710.146 -2.60752 -3.394 0
M  V30 7314 C 709.472 -2.39817 -4.77904 0
M  V30 7315 C 710.772 -4.02921 -3.32343 0
M  V30 7316 H 712.466 -2.47662 -1.68238 0
M  V30 7317 H 710.012 -1.19197 -0.807969 0
M  V30 7318 H 711.965 -1.52815 -3.92716 0
M  V30 7319 H 710.689 -0.501284 -3.2273 0
M  V30 7320 H 709.348 -2.54965 -2.63417 0
M  V30 7321 H 708.996 -1.40502 -4.82978 0
M  V30 7322 H 708.696 -3.15649 -4.9562 0
M  V30 7323 H 710.22 -2.46799 -5.585 0
M  V30 7324 H 711.634 -4.10098 -4.00615 0
M  V30 7325 H 710.031 -4.78925 -3.61595 0
M  V30 7326 H 711.101 -4.26766 -2.30215 0
M  V30 7327 N 712.444 0.87505 -1.31075 0
M  V30 7328 C 713.86 1.15997 -1.09622 0
M  V30 7329 C 714.06 2.01036 0.136611 0
M  V30 7330 O 713.116 2.38559 0.827397 0
M  V30 7331 C 714.429 1.85702 -2.36506 0
M  V30 7332 C 715.977 1.98425 -2.42067 0
M  V30 7333 C 716.452 2.71544 -3.68819 0
M  V30 7334 N 717.943 2.79084 -3.69684 0
M  V30 7335 C 718.678 3.36259 -4.64454 0
M  V30 7336 N 718.174 3.94406 -5.69575 0
M  V30 7337 N 719.967 3.34169 -4.51982 0
M  V30 7338 H 712.118 0.308258 -2.10151 0
M  V30 7339 H 714.381 0.199145 -0.926847 0
M  V30 7340 H 714.087 1.30663 -3.26527 0
M  V30 7341 H 713.961 2.86017 -2.45915 0
M  V30 7342 H 716.348 2.5263 -1.52518 0
M  V30 7343 H 716.429 0.971682 -2.36626 0
M  V30 7344 H 716.073 2.18008 -4.58732 0
M  V30 7345 H 716.003 3.73198 -3.71525 0
M  V30 7346 H 718.494 2.3781 -2.93691 0
M  V30 7347 H 718.807 4.36129 -6.37974 0
M  V30 7348 H 717.152 3.92797 -5.73355 0
M  V30 7349 H 720.343 2.87977 -3.69035 0
M  V30 7350 H 720.516 3.78431 -5.26017 0
M  V30 7351 N 713.922 1.13953 1.08869 0
M  V30 7352 C 715.147 0.928559 1.85452 0
M  V30 7353 C 715.572 -0.517642 1.80837 0
M  V30 7354 O 714.93 -1.36779 1.19001 0
M  V30 7355 C 714.978 1.42814 3.31114 0
M  V30 7356 O 714.082 0.617129 4.07756 0
M  V30 7357 H 713.423 0.33235 0.574839 0
M  V30 7358 H 715.953 1.5156 1.37443 0
M  V30 7359 H 715.963 1.43425 3.8196 0
M  V30 7360 H 714.638 2.48109 3.33788 0
M  V30 7361 H 713.215 0.679365 3.66659 0
M  V30 7362 N 715.4 -1.26948 0.933913 0
M  V30 7363 C 716.33 -2.29017 0.45534 0
M  V30 7364 C 717.311 -1.62961 -0.487605 0
M  V30 7365 O 718.496 -1.90223 -0.391022 0
M  V30 7366 C 715.626 -3.46112 -0.287015 0
M  V30 7367 C 714.58 -4.24205 0.568682 0
M  V30 7368 C 713.906 -5.3384 -0.303206 0
M  V30 7369 C 715.206 -4.88954 1.83633 0
M  V30 7370 H 716.9 -2.69298 1.30839 0
M  V30 7371 H 714.446 -1.29459 0.630579 0
M  V30 7372 H 716.399 -4.16622 -0.6328 0
M  V30 7373 H 715.123 -3.04765 -1.17414 0
M  V30 7374 H 713.782 -3.5545 0.897261 0
M  V30 7375 H 713.43 -4.88734 -1.18947 0
M  V30 7376 H 713.13 -5.86998 0.265879 0
M  V30 7377 H 714.654 -6.0719 -0.644423 0
M  V30 7378 H 716.068 -5.51717 1.55823 0
M  V30 7379 H 714.465 -5.52198 2.34941 0
M  V30 7380 H 715.535 -4.12305 2.55211 0
M  V30 7381 N 716.879 -0.700114 -1.41195 0
M  V30 7382 C 718.125 -0.233351 -2.01453 0
M  V30 7383 C 718.458 1.16548 -1.55339 0
M  V30 7384 O 717.733 1.78756 -0.766575 0
M  V30 7385 C 718.016 -0.2961 -3.58881 0
M  V30 7386 C 717.869 -1.7322 -4.15108 0
M  V30 7387 C 719.188 0.341525 -4.38773 0
M  V30 7388 H 716.307 -0.0862667 -0.731934 0
M  V30 7389 H 718.949 -0.889693 -1.67882 0
M  V30 7390 H 717.099 0.262736 -3.87611 0
M  V30 7391 H 718.771 -2.34523 -3.97236 0
M  V30 7392 H 717.014 -2.2649 -3.69979 0
M  V30 7393 H 717.685 -1.7276 -5.24269 0
M  V30 7394 H 720.161 -0.134461 -4.15883 0
M  V30 7395 H 719.037 0.267098 -5.4825 0
M  V30 7396 H 719.298 1.42289 -4.18577 0
M  V30 7397 N 718.357 1.51182 -0.445186 0
M  V30 7398 C 719.289 2.25714 0.398206 0
M  V30 7399 C 720.302 1.30032 0.979562 0
M  V30 7400 O 721.491 1.55731 0.872368 0
M  V30 7401 C 718.591 3.00348 1.56985 0
M  V30 7402 C 717.764 4.23187 1.10596 0
M  V30 7403 C 716.823 4.80334 2.14863 0
M  V30 7404 O 715.849 5.4196 1.73977 0
M  V30 7405 N 717.051 4.65053 3.47427 0
M  V30 7406 H 719.816 2.98732 -0.240629 0
M  V30 7407 H 717.377 1.59556 -0.274507 0
M  V30 7408 H 719.369 3.35464 2.26376 0
M  V30 7409 H 717.939 2.30291 2.11387 0
M  V30 7410 H 717.159 3.93476 0.238832 0
M  V30 7411 H 718.447 5.02886 0.773537 0
M  V30 7412 H 717.845 4.15984 3.83372 0
M  V30 7413 H 716.402 5.04509 4.12691 0
M  V30 7414 N 719.835 0.176821 1.56605 0
M  V30 7415 C 720.783 -0.768159 2.1955 0
M  V30 7416 C 721.777 -1.23343 1.16116 0
M  V30 7417 O 722.983 -1.19844 1.34303 0
M  V30 7418 H 719.358 -0.266013 0.703378 0
M  V30 7419 H 721.329 -0.213374 2.97636 0
M  V30 7420 C 720.078 -1.98492 2.85475 0
M  V30 7421 H 719.401 -1.63595 3.64797 0
M  V30 7422 H 720.841 -2.62489 3.3298 0
M  V30 7423 C 719.3 -2.81207 1.85538 0
M  V30 7424 O 719.83 -3.7854 1.34427 0
M  V30 7425 N 718.036 -2.46331 1.54173 0
M  V30 7426 H 717.583 -1.67241 1.95929 0
M  V30 7427 H 717.541 -3.01961 0.875595 0
M  V30 7428 N 721.313 -1.57302 -0.09688 0
M  V30 7429 C 722.243 -2.0497 -1.11846 0
M  V30 7430 C 723.224 -0.938278 -1.41882 0
M  V30 7431 O 724.409 -1.20943 -1.51942 0
M  V30 7432 C 721.539 -2.47264 -2.43881 0
M  V30 7433 C 720.493 -3.62053 -2.28257 0
M  V30 7434 C 719.819 -3.90318 -3.65453 0
M  V30 7435 C 721.119 -4.93005 -1.72461 0
M  V30 7436 H 722.813 -2.90567 -0.721888 0
M  V30 7437 H 720.359 -1.39786 -0.345803 0
M  V30 7438 H 722.312 -2.7922 -3.15617 0
M  V30 7439 H 721.036 -1.58664 -2.8547 0
M  V30 7440 H 719.695 -3.30341 -1.58967 0
M  V30 7441 H 719.343 -2.98889 -4.04567 0
M  V30 7442 H 719.043 -4.67597 -3.55846 0
M  V30 7443 H 720.567 -4.24747 -4.3866 0
M  V30 7444 H 721.981 -5.23354 -2.34036 0
M  V30 7445 H 720.378 -5.74436 -1.73618 0
M  V30 7446 H 721.448 -4.80053 -0.683898 0
M  V30 7447 N 722.791 0.367657 -1.53252 0
M  V30 7448 C 723.721 1.45632 -1.8252 0
M  V30 7449 C 724.702 1.55979 -0.678568 0
M  V30 7450 O 725.887 1.70581 -0.928217 0
M  V30 7451 C 723.017 2.82994 -2.01325 0
M  V30 7452 C 721.971 2.87473 -3.17086 0
M  V30 7453 C 721.297 4.2749 -3.21179 0
M  V30 7454 C 722.597 2.55182 -4.55719 0
M  V30 7455 H 724.291 1.21387 -2.73689 0
M  V30 7456 H 721.837 0.58251 -1.31692 0
M  V30 7457 H 723.79 3.59179 -2.20383 0
M  V30 7458 H 722.514 3.08622 -1.06864 0
M  V30 7459 H 721.173 2.13739 -2.97844 0
M  V30 7460 H 720.821 4.5019 -2.24361 0
M  V30 7461 H 720.521 4.31403 -3.98955 0
M  V30 7462 H 722.045 5.0555 -3.42419 0
M  V30 7463 H 723.459 3.21081 -4.74953 0
M  V30 7464 H 721.856 2.70414 -5.3572 0
M  V30 7465 H 722.926 1.5044 -4.60973 0
M  V30 7466 N 724.269 1.44576 0.627338 0
M  V30 7467 C 725.199 1.54562 1.75022 0
M  V30 7468 C 726.18 0.398378 1.65369 0
M  V30 7469 O 727.365 0.61899 1.84071 0
M  V30 7470 C 724.495 1.49309 3.13567 0
M  V30 7471 C 723.449 2.62549 3.38012 0
M  V30 7472 C 722.775 2.42348 4.76625 0
M  V30 7473 C 724.075 4.04678 3.30202 0
M  V30 7474 H 725.769 2.4855 1.66922 0
M  V30 7475 H 723.315 1.19624 0.801636 0
M  V30 7476 H 725.268 1.54895 3.919 0
M  V30 7477 H 723.992 0.518392 3.2246 0
M  V30 7478 H 722.651 2.56358 2.62061 0
M  V30 7479 H 722.299 1.43062 4.82226 0
M  V30 7480 H 721.999 3.18273 4.93939 0
M  V30 7481 H 723.523 2.49758 5.57183 0
M  V30 7482 H 724.937 4.12217 3.98435 0
M  V30 7483 H 723.334 4.80836 3.5905 0
M  V30 7484 H 724.404 4.2798 2.27949 0
M  V30 7485 N 725.747 -0.868086 1.31537 0
M  V30 7486 C 726.996 -1.61607 1.20689 0
M  V30 7487 C 727.309 -1.94204 -0.233275 0
M  V30 7488 O 728.515 -2.67515 -0.463465 0
M  V30 7489 C 726.971 -2.91348 2.11292 0
M  V30 7490 C 726.579 -2.66227 3.60315 0
M  V30 7491 C 728.323 -3.69344 2.09249 0
M  V30 7492 C 726.23 -3.91887 4.42921 0
M  V30 7493 H 725.16 -0.606373 0.448138 0
M  V30 7494 H 727.811 -0.959666 1.56405 0
M  V30 7495 H 726.193 -3.58374 1.68477 0
M  V30 7496 H 727.367 -2.07597 4.11388 0
M  V30 7497 H 725.682 -2.01582 3.64354 0
M  V30 7498 H 728.279 -4.62567 2.68209 0
M  V30 7499 H 728.622 -4.02044 1.0801 0
M  V30 7500 H 729.155 -3.09205 2.50274 0
M  V30 7501 H 725.894 -3.64336 5.44922 0
M  V30 7502 H 725.414 -4.49961 3.96605 0
M  V30 7503 H 727.093 -4.59754 4.55231 0
M  V30 7504 N 727.225 -1.14528 -1.08264 0
M  V30 7505 C 728.641 -0.885976 -1.3275 0
M  V30 7506 C 728.841 0.472096 -1.95892 0
M  V30 7507 O 727.897 1.21606 -2.21288 0
M  V30 7508 C 729.21 -2.01982 -2.22764 0
M  V30 7509 C 730.758 -2.05329 -2.36239 0
M  V30 7510 C 731.233 -3.1801 -3.29596 0
M  V30 7511 N 732.724 -3.17598 -3.37173 0
M  V30 7512 C 733.459 -4.01426 -4.09444 0
M  V30 7513 N 732.955 -4.95297 -4.8441 0
M  V30 7514 N 734.748 -3.89482 -4.0529 0
M  V30 7515 H 726.899 -2.01996 -0.656607 0
M  V30 7516 H 729.162 -0.880274 -0.351884 0
M  V30 7517 H 728.868 -2.99964 -1.83615 0
M  V30 7518 H 728.742 -1.94421 -3.23234 0
M  V30 7519 H 731.129 -1.07953 -2.74646 0
M  V30 7520 H 731.21 -2.1696 -1.35506 0
M  V30 7521 H 730.854 -4.15633 -2.9191 0
M  V30 7522 H 730.784 -3.03616 -4.30261 0
M  V30 7523 H 733.275 -2.4961 -2.83731 0
M  V30 7524 H 733.588 -5.55723 -5.37021 0
M  V30 7525 H 731.933 -4.99293 -4.83457 0
M  V30 7526 H 735.124 -3.15465 -3.45832 0
M  V30 7527 H 735.297 -4.55039 -4.6135 0
M  V30 7528 N 728.703 1.26451 -0.940633 0
M  V30 7529 C 730.119 1.4608 -0.642859 0
M  V30 7530 C 730.319 1.84765 0.803998 0
M  V30 7531 O 729.375 1.96902 1.58069 0
M  V30 7532 C 730.688 2.54359 -1.60381 0
M  V30 7533 C 732.236 2.6821 -1.61345 0
M  V30 7534 C 732.711 3.79659 -2.56169 0
M  V30 7535 N 734.202 3.87051 -2.54452 0
M  V30 7536 C 734.937 4.72739 -3.24507 0
M  V30 7537 N 734.433 5.6282 -4.03987 0
M  V30 7538 N 736.226 4.66581 -3.13462 0
M  V30 7539 H 728.377 0.996289 -1.87584 0
M  V30 7540 H 730.64 0.498921 -0.80609 0
M  V30 7541 H 730.346 2.32758 -2.6366 0
M  V30 7542 H 730.22 3.52005 -1.35545 0
M  V30 7543 H 732.607 2.89184 -0.587913 0
M  V30 7544 H 732.688 1.7101 -1.90235 0
M  V30 7545 H 732.332 3.59438 -3.58841 0
M  V30 7546 H 732.262 4.76315 -2.2457 0
M  V30 7547 H 734.753 3.22649 -1.96739 0
M  V30 7548 H 735.066 6.25095 -4.54396 0
M  V30 7549 H 733.411 5.62574 -4.08088 0
M  V30 7550 H 736.602 3.9521 -2.50852 0
M  V30 7551 H 736.775 5.33141 -3.68327 0
M  V30 7552 N 730.181 0.707592 1.40822 0
M  V30 7553 C 731.428 0.243671 2.01029 0
M  V30 7554 C 731.756 -1.16057 1.5608 0
M  V30 7555 O 731.011 -1.7999 0.768251 0
M  V30 7556 C 731.31 0.262892 3.56432 0
M  V30 7557 C 730.976 1.61632 4.20935 0
M  V30 7558 C 729.638 1.98682 4.38268 0
M  V30 7559 C 731.99 2.50619 4.5699 0
M  V30 7560 C 729.318 3.2428 4.88937 0
M  V30 7561 C 731.67 3.75562 5.09054 0
M  V30 7562 C 730.334 4.12739 5.24598 0
M  V30 7563 H 729.604 0.0891654 0.735616 0
M  V30 7564 H 732.251 0.909051 1.68548 0
M  V30 7565 H 730.556 -0.486052 3.88773 0
M  V30 7566 H 732.253 -0.113775 4.00839 0
M  V30 7567 H 728.843 1.31818 4.07826 0
M  V30 7568 H 733.027 2.23272 4.43242 0
M  V30 7569 H 728.283 3.53064 4.99155 0
M  V30 7570 H 732.457 4.44692 5.35931 0
M  V30 7571 H 730.084 5.10132 5.63622 0
M  V30 7572 N 731.66 -1.50943 0.453197 0
M  V30 7573 C 732.607 -2.28128 -0.350197 0
M  V30 7574 C 733.577 -1.32398 -1.00299 0
M  V30 7575 O 734.762 -1.61319 -1.01887 0
M  V30 7576 C 731.902 -3.13782 -1.43649 0
M  V30 7577 C 731.015 -4.24523 -0.800255 0
M  V30 7578 C 730.15 -4.97462 -1.86293 0
M  V30 7579 C 729.189 -6.00102 -1.20598 0
M  V30 7580 N 728.326 -6.66387 -2.21071 0
M  V30 7581 H 733.166 -2.96337 0.31434 0
M  V30 7582 H 730.703 -1.46151 0.166863 0
M  V30 7583 H 732.661 -3.6178 -2.07776 0
M  V30 7584 H 731.291 -2.47655 -2.07044 0
M  V30 7585 H 730.343 -3.80371 -0.0468651 0
M  V30 7586 H 731.655 -4.98009 -0.280777 0
M  V30 7587 H 730.809 -5.49088 -2.58044 0
M  V30 7588 H 729.548 -4.23642 -2.41617 0
M  V30 7589 H 728.553 -5.47753 -0.474 0
M  V30 7590 H 729.778 -6.75887 -0.659859 0
M  V30 7591 H 727.724 -5.9537 -2.75446 0
M  V30 7592 H 727.641 -7.3569 -1.74058 0
M  V30 7593 H 728.909 -7.22638 -2.92257 0
M  V30 7594 N 733.138 -0.185124 -1.56509 0
M  V30 7595 C 734.085 0.739729 -2.18624 0
M  V30 7596 C 735.055 1.217 -1.13042 0
M  V30 7597 O 736.24 1.28268 -1.41251 0
M  V30 7598 C 733.38 1.95787 -2.84186 0
M  V30 7599 C 732.493 1.52289 -4.04267 0
M  V30 7600 C 731.628 2.69576 -4.57714 0
M  V30 7601 C 730.667 2.22636 -5.70175 0
M  V30 7602 N 729.804 3.33065 -6.18071 0
M  V30 7603 H 734.644 0.203269 -2.97306 0
M  V30 7604 H 732.181 0.0885946 -1.46833 0
M  V30 7605 H 734.139 2.67253 -3.20361 0
M  V30 7606 H 732.769 2.4678 -2.08085 0
M  V30 7607 H 731.821 0.704458 -3.7382 0
M  V30 7608 H 733.133 1.13843 -4.85635 0
M  V30 7609 H 732.287 3.4918 -4.96143 0
M  V30 7610 H 731.026 3.1129 -3.75433 0
M  V30 7611 H 730.031 1.41483 -5.31284 0
M  V30 7612 H 731.256 1.81964 -6.54267 0
M  V30 7613 H 729.202 3.74328 -5.38715 0
M  V30 7614 H 729.119 2.98756 -6.94464 0
M  V30 7615 H 730.387 4.12912 -6.61153 0
M  V30 7616 N 734.616 1.57351 0.0885366 0
M  V30 7617 C 735.844 1.90631 0.804196 0
M  V30 7618 C 736.259 0.779474 1.71958 0
M  V30 7619 O 735.616 -0.248179 1.80805 0
M  V30 7620 C 735.667 3.23568 1.61202 0
M  V30 7621 O 735.388 4.31917 0.733447 0
M  V30 7622 C 736.889 3.70753 2.43016 0
M  V30 7623 H 734.109 0.630501 0.229585 0
M  V30 7624 H 736.653 2.044 0.0638092 0
M  V30 7625 H 734.808 3.11377 2.30485 0
M  V30 7626 H 735.222 5.08297 1.29361 0
M  V30 7627 H 736.696 4.66447 2.9518 0
M  V30 7628 H 737.173 2.98922 3.2178 0
M  V30 7629 H 737.779 3.85834 1.7892 0
M  V30 7630 N 736.094 -0.359525 1.53444 0
M  V30 7631 C 737.343 -1.09886 1.69139 0
M  V30 7632 C 737.656 -1.90285 0.452863 0
M  V30 7633 O 738.862 -2.67033 0.490459 0
M  V30 7634 C 737.318 -2.0028 2.99025 0
M  V30 7635 C 736.926 -1.25164 4.30161 0
M  V30 7636 C 738.67 -2.74168 3.24086 0
M  V30 7637 C 736.577 -2.14494 5.51132 0
M  V30 7638 H 735.507 -0.413936 0.630217 0
M  V30 7639 H 738.158 -0.359434 1.79945 0
M  V30 7640 H 736.54 -2.77978 2.82036 0
M  V30 7641 H 737.714 -0.524867 4.57801 0
M  V30 7642 H 736.029 -0.631116 4.11589 0
M  V30 7643 H 738.626 -3.41243 4.11652 0
M  V30 7644 H 738.969 -3.39868 2.40407 0
M  V30 7645 H 739.502 -2.0355 3.41778 0
M  V30 7646 H 736.241 -1.53362 6.37307 0
M  V30 7647 H 735.761 -2.85004 5.27762 0
M  V30 7648 H 737.44 -2.73914 5.86157 0
M  V30 7649 N 737.572 -1.44907 -0.619662 0
M  V30 7650 C 738.821 -1.47569 -1.37501 0
M  V30 7651 C 739.134 -0.116707 -1.95252 0
M  V30 7652 O 740.34 -0.020909 -2.71492 0
M  V30 7653 C 738.796 -2.59851 -2.49009 0
M  V30 7654 C 738.404 -4.02008 -1.97722 0
M  V30 7655 C 740.148 -2.71746 -3.2612 0
M  V30 7656 C 738.055 -5.05693 -3.0664 0
M  V30 7657 H 736.985 -0.549068 -0.51676 0
M  V30 7658 H 739.636 -1.71009 -0.665437 0
M  V30 7659 H 738.018 -2.29671 -3.22594 0
M  V30 7660 H 739.192 -4.41809 -1.30925 0
M  V30 7661 H 737.507 -3.94456 -1.33392 0
M  V30 7662 H 740.104 -3.46382 -4.07337 0
M  V30 7663 H 740.447 -1.77959 -3.76346 0
M  V30 7664 H 740.98 -3.01392 -2.5963 0
M  V30 7665 H 737.719 -6.01148 -2.61345 0
M  V30 7666 H 737.239 -4.70473 -3.72042 0
M  V30 7667 H 738.918 -5.29906 -3.71226 0
M  V30 7668 N 739.05 0.861098 -1.31996 0
M  V30 7669 C 739.96 2.00154 -1.22374 0
M  V30 7670 C 740.976 1.73447 -0.138631 0
M  V30 7671 O 742.152 1.98191 -0.358104 0
M  V30 7672 C 739.217 3.33696 -0.940645 0
M  V30 7673 C 738.278 3.73668 -2.11355 0
M  V30 7674 C 737.511 5.00837 -1.84386 0
M  V30 7675 O 737.734 5.64996 -0.783287 0
M  V30 7676 O 736.668 5.37787 -2.70313 0
M  V30 7677 H 740.494 2.11207 -2.18233 0
M  V30 7678 H 738.079 0.990768 -1.11822 0
M  V30 7679 H 739.961 4.13756 -0.798987 0
M  V30 7680 H 738.636 3.23698 -0.0121636 0
M  V30 7681 H 737.543 2.94211 -2.31065 0
M  V30 7682 H 738.876 3.88303 -3.02459 0
M  V30 7683 N 740.528 1.15101 1.07655 0
M  V30 7684 C 741.478 0.813448 2.12995 0
M  V30 7685 C 742.462 -0.200899 1.59641 0
M  V30 7686 O 743.654 -0.00209918 1.77 0
M  V30 7687 C 740.783 0.301078 3.41977 0
M  V30 7688 C 739.869 1.3454 4.02194 0
M  V30 7689 N 740.26 2.55181 4.36711 0
M  V30 7690 C 738.558 1.19742 4.29625 0
M  V30 7691 C 739.259 3.22094 4.84387 0
M  V30 7692 N 738.235 2.49486 4.82968 0
M  V30 7693 H 742.037 1.73105 2.37511 0
M  V30 7694 H 739.551 1.03601 1.25063 0
M  V30 7695 H 741.548 0.040914 4.1688 0
M  V30 7696 H 740.208 -0.610629 3.18907 0
M  V30 7697 H 741.219 2.92349 4.27496 0
M  V30 7698 H 737.896 0.345353 4.16069 0
M  V30 7699 H 739.286 4.24996 5.20411 0
M  V30 7700 N 742.006 -1.2595 0.947325 0
M  V30 7701 C 743.231 -1.98083 0.614633 0
M  V30 7702 C 743.656 -1.70013 -0.804815 0
M  V30 7703 O 743.014 -0.95175 -1.54309 0
M  V30 7704 C 743.062 -3.4993 0.870706 0
M  V30 7705 O 742.166 -4.12364 -0.0541451 0
M  V30 7706 H 741.507 -0.621232 0.234451 0
M  V30 7707 H 744.037 -1.60259 1.27193 0
M  V30 7708 H 744.047 -4.00198 0.794051 0
M  V30 7709 H 742.722 -3.69691 1.90529 0
M  V30 7710 H 741.299 -3.72826 0.0740917 0
M  V30 7711 N 743.484 -0.715051 -1.40445 0
M  V30 7712 C 744.895 -0.326763 -1.83818 0
M  V30 7713 C 745.246 1.13851 -1.59789 0
M  V30 7714 O 744.371 1.87611 -1.07848 0
M  V30 7715 C 744.966 -0.586297 -3.33688 0
M  V30 7716 C 743.525 -0.251724 -3.75557 0
M  V30 7717 C 742.672 -0.858928 -2.63662 0
M  V30 7718 H 745.623 -0.914241 -1.2972 0
M  V30 7719 H 745.644 0.148636 -3.8021 0
M  V30 7720 H 745.156 -1.65281 -3.51146 0
M  V30 7721 H 743.257 0.809754 -3.63695 0
M  V30 7722 H 743.37 -0.720348 -4.73654 0
M  V30 7723 H 741.734 -0.287013 -2.53078 0
M  V30 7724 H 742.517 -1.9297 -2.83932 0
M  V30 7725 N 744.962 1.50701 -0.461195 0
M  V30 7726 C 746.378 1.59187 -0.114786 0
M  V30 7727 C 746.578 1.4702 1.37794 0
M  V30 7728 O 745.634 1.32361 2.15027 0
M  V30 7729 C 746.947 2.93453 -0.656167 0
M  V30 7730 C 748.495 3.06824 -0.618715 0
M  V30 7731 C 748.97 4.4365 -1.13747 0
M  V30 7732 N 750.461 4.50035 -1.09646 0
M  V30 7733 C 751.196 5.54278 -1.46846 0
M  V30 7734 N 750.692 6.65822 -1.91448 0
M  V30 7735 N 752.485 5.44767 -1.38512 0
M  V30 7736 H 744.636 1.56853 -1.43216 0
M  V30 7737 H 746.899 0.740712 -0.59165 0
M  V30 7738 H 746.605 3.07802 -1.7015 0
M  V30 7739 H 746.479 3.77082 -0.0942261 0
M  V30 7740 H 748.866 2.92129 0.417685 0
M  V30 7741 H 748.947 2.24976 -1.21734 0
M  V30 7742 H 748.591 4.59093 -2.17245 0
M  V30 7743 H 748.521 5.24074 -0.515153 0
M  V30 7744 H 751.012 3.69988 -0.769217 0
M  V30 7745 H 751.325 7.41413 -2.18007 0
M  V30 7746 H 749.67 6.66968 -1.95393 0
M  V30 7747 H 752.861 4.56511 -1.03516 0
M  V30 7748 H 753.034 6.25889 -1.6783 0
M  V30 7749 N 746.441 0.193421 1.56409 0
M  V30 7750 C 747.373 -0.759944 2.16235 0
M  V30 7751 C 748.386 -1.17797 1.12373 0
M  V30 7752 O 749.575 -1.11399 1.39472 0
M  V30 7753 C 746.675 -2.03735 2.70823 0
M  V30 7754 C 745.848 -1.77939 3.9957 0
M  V30 7755 C 744.907 -2.90111 4.39001 0
M  V30 7756 O 743.933 -2.59791 5.06456 0
M  V30 7757 N 745.135 -4.18426 4.02368 0
M  V30 7758 H 747.9 -0.248348 2.98669 0
M  V30 7759 H 745.461 0.0113966 1.61896 0
M  V30 7760 H 747.453 -2.77914 2.94187 0
M  V30 7761 H 746.023 -2.46022 1.92852 0
M  V30 7762 H 745.243 -0.875491 3.84355 0
M  V30 7763 H 746.531 -1.58099 4.83614 0
M  V30 7764 H 745.929 -4.45913 3.48106 0
M  V30 7765 H 744.486 -4.89237 4.30686 0
M  V30 7766 N 747.919 -1.57396 -0.0801906 0
M  V30 7767 C 748.829 -2.06451 -1.11423 0
M  V30 7768 C 749.845 -0.992352 -1.42928 0
M  V30 7769 O 751.021 -1.30651 -1.53272 0
M  V30 7770 C 748.086 -2.49164 -2.41077 0
M  V30 7771 C 747.147 -3.70641 -2.16619 0
M  V30 7772 C 746.38 -4.11307 -3.40092 0
M  V30 7773 O 746.603 -3.51922 -4.48895 0
M  V30 7774 O 745.537 -5.04157 -3.288 0
M  V30 7775 H 749.363 -2.94857 -0.727519 0
M  V30 7776 H 746.948 -1.46484 -0.293743 0
M  V30 7777 H 748.83 -2.77196 -3.17396 0
M  V30 7778 H 747.505 -1.6389 -2.79145 0
M  V30 7779 H 746.412 -3.47703 -1.38033 0
M  V30 7780 H 747.745 -4.5674 -1.83437 0
M  V30 7781 N 749.397 0.351382 -1.53633 0
M  V30 7782 C 750.813 0.693987 -1.43722 0
M  V30 7783 C 751.013 1.9274 -0.587669 0
M  V30 7784 O 750.069 2.52387 -0.0756082 0
M  V30 7785 C 751.382 0.893937 -2.87105 0
M  V30 7786 C 752.93 0.993051 -2.96829 0
M  V30 7787 C 753.405 1.22537 -4.41303 0
M  V30 7788 N 754.896 1.29275 -4.44795 0
M  V30 7789 C 755.631 1.48988 -5.53706 0
M  V30 7790 N 755.127 1.65924 -6.72637 0
M  V30 7791 N 756.92 1.51472 -5.41306 0
M  V30 7792 H 749.071 -0.459688 -2.07366 0
M  V30 7793 H 751.334 -0.143684 -0.937048 0
M  V30 7794 H 751.04 0.0592517 -3.5165 0
M  V30 7795 H 750.914 1.79795 -3.31592 0
M  V30 7796 H 753.301 1.81827 -2.32429 0
M  V30 7797 H 753.382 0.0661119 -2.55715 0
M  V30 7798 H 753.026 0.405117 -5.06282 0
M  V30 7799 H 752.956 2.16575 -4.80003 0
M  V30 7800 H 755.447 1.17743 -3.59089 0
M  V30 7801 H 755.76 1.80578 -7.51406 0
M  V30 7802 H 754.105 1.63075 -6.75597 0
M  V30 7803 H 757.296 1.37818 -4.47352 0
M  V30 7804 H 757.469 1.66493 -6.26246 0
M  V30 7805 N 750.875 1.45233 0.611969 0
M  V30 7806 C 751.805 1.5641 1.73373 0
M  V30 7807 C 752.786 0.415896 1.64937 0
M  V30 7808 O 753.971 0.638478 1.83404 0
M  V30 7809 C 751.101 1.52627 3.11965 0
M  V30 7810 C 750.055 2.66119 3.35208 0
M  V30 7811 C 749.381 2.4739 4.74028 0
M  V30 7812 C 750.681 4.08157 3.25891 0
M  V30 7813 H 752.375 2.50307 1.64277 0
M  V30 7814 H 749.921 1.20467 0.788904 0
M  V30 7815 H 751.874 1.59043 3.90235 0
M  V30 7816 H 750.598 0.552564 3.21892 0
M  V30 7817 H 749.257 2.59123 2.59327 0
M  V30 7818 H 748.905 1.48168 4.80682 0
M  V30 7819 H 748.605 3.23494 4.90536 0
M  V30 7820 H 750.129 2.55653 5.54503 0
M  V30 7821 H 751.543 4.1642 3.9404 0
M  V30 7822 H 749.94 4.84617 3.5393 0
M  V30 7823 H 751.01 4.30374 2.23397 0
M  V30 7824 N 752.353 -0.854086 1.3245 0
M  V30 7825 C 753.301 -1.98411 1.21391 0
M  V30 7826 C 754.295 -1.68984 0.118586 0
M  V30 7827 O 755.501 -1.77784 0.281549 0
M  V30 7828 H 751.876 -0.651077 0.376301 0
M  V30 7829 H 753.847 -2.04867 2.16961 0
M  V30 7830 C 752.596 -3.34345 0.954407 0
M  V30 7831 H 751.919 -3.57518 1.78944 0
M  V30 7832 H 753.359 -4.13959 0.917269 0
M  V30 7833 C 751.818 -3.35151 -0.342838 0
M  V30 7834 O 752.348 -3.78174 -1.35452 0
M  V30 7835 N 750.554 -2.88298 -0.365012 0
M  V30 7836 H 750.101 -2.53481 0.4588 0
M  V30 7837 H 750.059 -2.8922 -1.23284 0
M  V30 7838 N 753.831 -1.1567 -1.07043 0
M  V30 7839 C 755.078 -0.933517 -1.79699 0
M  V30 7840 C 755.406 0.539162 -1.86878 0
M  V30 7841 O 754.661 1.41592 -1.35093 0
M  V30 7842 C 754.96 -1.49677 -3.24548 0
M  V30 7843 C 754.626 -2.99047 -3.37463 0
M  V30 7844 C 753.288 -3.39824 -3.40695 0
M  V30 7845 C 755.64 -3.95027 -3.40004 0
M  V30 7846 C 752.968 -4.75215 -3.44075 0
M  V30 7847 C 755.32 -5.30295 -3.44921 0
M  V30 7848 C 753.984 -5.70562 -3.46432 0
M  V30 7849 H 753.254 -0.341598 -0.657565 0
M  V30 7850 H 755.901 -1.44263 -1.25938 0
M  V30 7851 H 754.206 -0.908915 -3.81111 0
M  V30 7852 H 755.903 -1.29986 -3.79348 0
M  V30 7853 H 752.493 -2.6653 -3.35648 0
M  V30 7854 H 756.677 -3.64596 -3.36725 0
M  V30 7855 H 751.933 -5.05754 -3.43545 0
M  V30 7856 H 756.107 -6.0446 -3.45833 0
M  V30 7857 H 753.734 -6.75456 -3.48803 0
M  V30 7858 N 755.309 1.25446 -0.953992 0
M  V30 7859 C 756.555 1.93756 -0.618888 0
M  V30 7860 C 756.91 1.73344 0.83484 0
M  V30 7861 O 756.203 1.06753 1.59105 0
M  V30 7862 C 756.397 3.45555 -0.912496 0
M  V30 7863 C 756.226 3.8073 -2.39321 0
M  V30 7864 C 754.996 4.02819 -3.05065 0
M  V30 7865 C 757.194 3.88286 -3.37251 0
M  V30 7866 N 755.176 4.24981 -4.43017 0
M  V30 7867 C 756.547 4.1513 -4.60507 0
M  V30 7868 C 758.602 3.70965 -3.32099 0
M  V30 7869 C 757.305 4.26454 -5.79249 0
M  V30 7870 C 759.331 3.83528 -4.50178 0
M  V30 7871 C 758.693 4.10783 -5.72221 0
M  V30 7872 H 754.792 0.731271 -0.277069 0
M  V30 7873 H 757.376 1.5125 -1.22604 0
M  V30 7874 H 755.547 3.86959 -0.334284 0
M  V30 7875 H 757.279 4.01117 -0.537362 0
M  V30 7876 H 754.034 3.9868 -2.55639 0
M  V30 7877 H 754.458 4.4007 -5.14459 0
M  V30 7878 H 759.1 3.4891 -2.38791 0
M  V30 7879 H 756.818 4.47325 -6.72998 0
M  V30 7880 H 760.404 3.71513 -4.47738 0
M  V30 7881 H 759.284 4.20285 -6.62065 0
M  V30 7882 N 756.787 0.722489 1.40064 0
M  V30 7883 C 757.717 0.0892452 2.33329 0
M  V30 7884 C 758.698 -0.737992 1.53257 0
M  V30 7885 O 759.883 -0.685516 1.81698 0
M  V30 7886 C 757.013 -0.828139 3.37282 0
M  V30 7887 C 755.967 -0.106005 4.27869 0
M  V30 7888 C 755.293 -1.13957 5.22415 0
M  V30 7889 C 756.593 1.04395 5.11761 0
M  V30 7890 H 758.287 0.868269 2.86534 0
M  V30 7891 H 755.833 0.418982 1.3777 0
M  V30 7892 H 757.786 -1.28058 4.01471 0
M  V30 7893 H 756.51 -1.63914 2.82489 0
M  V30 7894 H 755.169 0.326683 3.65142 0
M  V30 7895 H 754.817 -1.9438 4.63924 0
M  V30 7896 H 754.517 -0.661233 5.83868 0
M  V30 7897 H 756.041 -1.59197 5.89482 0
M  V30 7898 H 757.455 0.670541 5.69365 0
M  V30 7899 H 755.852 1.4511 5.82291 0
M  V30 7900 H 756.922 1.87144 4.47331 0
M  V30 7901 N 758.265 -1.50454 0.469181 0
M  V30 7902 C 759.542 -1.9504 -0.147955 0
M  V30 7903 C 759.922 -1.40946 -1.57154 0
M  V30 7904 O 759.27 -0.609663 -2.20217 0
M  V30 7905 C 759.48 -3.48875 -0.0932198 0
M  V30 7906 C 760.828 -4.23655 -0.283056 0
M  V30 7907 O 761.852 -3.55795 -0.169892 0
M  V30 7908 O 760.711 -5.44102 -0.511396 0
M  V30 7909 H 757.805 -0.819283 -0.11271 0
M  V30 7910 H 760.351 -1.6123 0.529446 0
M  V30 7911 H 759.123 -3.80791 0.900784 0
M  V30 7912 H 758.746 -3.89217 -0.812161 0
M  V30 7913 N 759.743 -0.201713 -1.56304 0
M  V30 7914 C 760.992 0.435557 -1.96941 0
M  V30 7915 C 761.305 1.62299 -1.09172 0
M  V30 7916 O 762.511 2.32849 -1.3962 0
M  V30 7917 C 760.967 0.826298 -3.50286 0
M  V30 7918 C 760.575 -0.337216 -4.46729 0
M  V30 7919 C 762.319 1.43028 -3.99679 0
M  V30 7920 C 760.226 0.0748539 -5.91353 0
M  V30 7921 H 759.156 0.1665 -0.735387 0
M  V30 7922 H 761.807 -0.294781 -1.81117 0
M  V30 7923 H 760.189 1.61349 -3.61639 0
M  V30 7924 H 761.363 -1.11476 -4.47113 0
M  V30 7925 H 759.678 -0.853126 -4.07567 0
M  V30 7926 H 762.275 1.75115 -5.05212 0
M  V30 7927 H 762.618 2.33911 -3.44371 0
M  V30 7928 H 763.151 0.706924 -3.91468 0
M  V30 7929 H 759.89 -0.799957 -6.506 0
M  V30 7930 H 759.41 0.817122 -5.94208 0
M  V30 7931 H 761.089 0.508389 -6.45 0
M  V30 7932 N 761.222 1.57436 0.0718424 0
M  V30 7933 C 762.471 1.86431 0.769826 0
M  V30 7934 C 762.784 0.794355 1.78744 0
M  V30 7935 O 763.99 0.972148 2.53499 0
M  V30 7936 C 762.446 3.307 1.42006 0
M  V30 7937 C 762.054 4.45824 0.441017 0
M  V30 7938 C 763.798 3.68894 2.10041 0
M  V30 7939 C 761.705 5.81134 1.09717 0
M  V30 7940 H 760.635 0.695474 0.291259 0
M  V30 7941 H 763.286 1.83485 0.0231224 0
M  V30 7942 H 761.668 3.28257 2.21502 0
M  V30 7943 H 762.842 4.59659 -0.32413 0
M  V30 7944 H 761.157 4.16181 -0.134886 0
M  V30 7945 H 763.754 4.67281 2.59908 0
M  V30 7946 H 764.097 2.98692 2.89981 0
M  V30 7947 H 764.63 3.73326 1.37376 0
M  V30 7948 H 761.369 6.54628 0.338095 0
M  V30 7949 H 760.889 5.711 1.83317 0
M  V30 7950 H 762.568 6.26468 1.617 0
M  V30 7951 N 762.7 -0.34323 1.53817 0
M  V30 7952 C 763.947 -1.08344 1.71079 0
M  V30 7953 C 764.275 -1.88633 0.474133 0
M  V30 7954 O 763.53 -1.87984 -0.544116 0
M  V30 7955 C 763.829 -2.05195 2.92626 0
M  V30 7956 C 763.495 -1.41215 4.28216 0
M  V30 7957 C 762.157 -1.23495 4.65083 0
M  V30 7958 C 764.509 -0.951273 5.12445 0
M  V30 7959 C 761.837 -0.583065 5.83796 0
M  V30 7960 C 764.189 -0.313292 6.31824 0
M  V30 7961 C 762.853 -0.123779 6.67385 0
M  V30 7962 H 762.123 -0.396458 0.626021 0
M  V30 7963 H 764.77 -0.362689 1.88034 0
M  V30 7964 H 763.075 -2.83653 2.70275 0
M  V30 7965 H 764.772 -2.62462 3.03175 0
M  V30 7966 H 761.362 -1.56005 3.992 0
M  V30 7967 H 765.546 -1.07602 4.84495 0
M  V30 7968 H 760.802 -0.424854 6.09922 0
M  V30 7969 H 764.976 0.0519179 6.96381 0
M  V30 7970 H 762.603 0.383398 7.59233 0
M  V30 7971 N 764.178 -1.45556 -0.604258 0
M  V30 7972 C 765.088 -1.57025 -1.74299 0
M  V30 7973 C 766.104 -0.45456 -1.67958 0
M  V30 7974 O 767.28 -0.715711 -1.88254 0
M  V30 7975 C 764.345 -1.53702 -3.10768 0
M  V30 7976 C 763.406 -2.76335 -3.28538 0
M  V30 7977 C 762.639 -2.73161 -4.58496 0
M  V30 7978 O 762.862 -1.80678 -5.41028 0
M  V30 7979 O 761.796 -3.64409 -4.79051 0
M  V30 7980 H 765.622 -2.53284 -1.67573 0
M  V30 7981 H 763.207 -1.28104 -0.768745 0
M  V30 7982 H 765.089 -1.54468 -3.92068 0
M  V30 7983 H 763.764 -0.605957 -3.17978 0
M  V30 7984 H 762.671 -2.8113 -2.46813 0
M  V30 7985 H 764.004 -3.68578 -3.26207 0
M  V30 7986 N 765.656 0.84705 -1.32902 0
M  V30 7987 C 766.619 1.9378 -1.224 0
M  V30 7988 C 767.619 1.60144 -0.145108 0
M  V30 7989 O 768.809 1.69638 -0.396058 0
M  V30 7990 C 765.941 3.29234 -0.884174 0
M  V30 7991 H 767.134 2.04518 -2.19345 0
M  V30 7992 H 764.687 1.03816 -1.16842 0
M  V30 7993 H 765.422 3.24193 0.0831277 0
M  V30 7994 H 765.207 3.55026 -1.6643 0
M  V30 7995 H 766.697 4.09162 -0.835226 0
M  V30 7996 N 767.134 1.16236 1.06428 0
M  V30 7997 C 768.362 0.967184 1.82902 0
M  V30 7998 C 768.777 -0.484601 1.82475 0
M  V30 7999 O 768.134 -1.33631 1.24294 0
M  V30 8000 C 768.185 1.48534 3.29576 0
M  V30 8001 O 767.906 2.88026 3.3011 0
M  V30 8002 C 769.407 1.33298 4.22784 0
M  V30 8003 H 766.627 0.342923 0.576754 0
M  V30 8004 H 769.171 1.54232 1.34286 0
M  V30 8005 H 767.326 0.952513 3.75508 0
M  V30 8006 H 767.74 3.11721 4.21818 0
M  V30 8007 H 769.214 1.74385 5.23731 0
M  V30 8008 H 769.691 0.278356 4.38317 0
M  V30 8009 H 770.297 1.85535 3.82697 0
M  V30 8010 N 768.612 -1.24939 0.960631 0
M  V30 8011 C 769.56 -2.27659 0.47686 0
M  V30 8012 C 770.554 -1.63148 -0.455961 0
M  V30 8013 O 771.76 -1.76911 -0.332029 0
M  V30 8014 H 768.135 -0.739651 0.135723 0
M  V30 8015 H 770.106 -2.65844 1.35534 0
M  V30 8016 C 768.855 -3.46976 -0.224191 0
M  V30 8017 H 768.178 -3.96854 0.484471 0
M  V30 8018 H 769.618 -4.20717 -0.526615 0
M  V30 8019 C 768.077 -3.04159 -1.44876 0
M  V30 8020 O 768.607 -3.10697 -2.54618 0
M  V30 8021 N 766.813 -2.59284 -1.31226 0
M  V30 8022 H 766.36 -2.54164 -0.419361 0
M  V30 8023 H 766.318 -2.31 -2.13275 0
M  V30 8024 N 770.09 -0.729906 -1.39679 0
M  V30 8025 C 771 -0.0880322 -2.34435 0
M  V30 8026 C 772.016 0.727674 -1.58053 0
M  V30 8027 O 773.192 0.657321 -1.90371 0
M  V30 8028 C 770.257 0.812211 -3.37052 0
M  V30 8029 C 769.318 -0.0151681 -4.29297 0
M  V30 8030 C 768.551 0.842202 -5.27013 0
M  V30 8031 O 768.774 2.08108 -5.31081 0
M  V30 8032 O 767.708 0.27357 -6.01278 0
M  V30 8033 H 771.534 -0.869989 -2.90972 0
M  V30 8034 H 769.119 -0.490522 -1.41118 0
M  V30 8035 H 771.001 1.32745 -3.99946 0
M  V30 8036 H 769.676 1.57307 -2.82907 0
M  V30 8037 H 768.583 -0.575811 -3.69642 0
M  V30 8038 H 769.916 -0.738129 -4.86634 0
M  V30 8039 N 771.568 1.50203 -0.477153 0
M  V30 8040 C 772.814 2.02658 0.0758507 0
M  V30 8041 C 773.147 1.358 1.38824 0
M  V30 8042 O 772.422 0.485696 1.88338 0
M  V30 8043 C 772.705 3.59208 0.253339 0
M  V30 8044 C 772.558 4.36629 -1.0805 0
M  V30 8045 C 773.877 4.28469 1.00509 0
M  V30 8046 H 770.996 0.736538 0.0260921 0
M  V30 8047 H 773.638 1.79464 -0.623925 0
M  V30 8048 H 771.788 3.79101 0.849378 0
M  V30 8049 H 773.46 4.28292 -1.71358 0
M  V30 8050 H 771.703 4.0013 -1.67566 0
M  V30 8051 H 772.374 5.44449 -0.909883 0
M  V30 8052 H 774.85 4.13087 0.499818 0
M  V30 8053 H 773.726 5.37804 1.09808 0
M  V30 8054 H 773.987 3.92057 2.04314 0
M  V30 8055 N 773.046 0.209999 1.56195 0
M  V30 8056 C 774.274 -0.429996 2.02382 0
M  V30 8057 C 774.689 -1.54159 1.08998 0
M  V30 8058 O 774.046 -1.82239 0.0974856 0
M  V30 8059 C 774.097 -0.972433 3.48175 0
M  V30 8060 O 773.818 0.0948231 4.37997 0
M  V30 8061 C 775.319 -1.68683 4.09952 0
M  V30 8062 H 772.539 -0.106475 0.662498 0
M  V30 8063 H 775.083 0.323072 2.01932 0
M  V30 8064 H 773.238 -1.67582 3.49278 0
M  V30 8065 H 773.652 -0.31113 5.23576 0
M  V30 8066 H 775.126 -2.01851 5.13771 0
M  V30 8067 H 775.603 -2.59587 3.54276 0
M  V30 8068 H 776.209 -1.02893 4.12666 0
M  V30 8069 N 774.524 -1.57472 -0.0634922 0
M  V30 8070 C 775.472 -2.05307 -1.09323 0
M  V30 8071 C 776.466 -0.959995 -1.39572 0
M  V30 8072 O 777.672 -1.14507 -1.38882 0
M  V30 8073 H 774.047 -0.65472 -0.369927 0
M  V30 8074 H 776.018 -2.90925 -0.663707 0
M  V30 8075 C 774.767 -2.51954 -2.39613 0
M  V30 8076 H 774.09 -3.35662 -2.1719 0
M  V30 8077 H 775.53 -2.89169 -3.10092 0
M  V30 8078 C 773.989 -1.40596 -3.06161 0
M  V30 8079 O 774.519 -0.752722 -3.94585 0
M  V30 8080 N 772.725 -1.14902 -2.66919 0
M  V30 8081 H 772.272 -1.68205 -1.95102 0
M  V30 8082 H 772.23 -0.406006 -3.11767 0
M  V30 8083 N 776.003 0.335068 -1.53997 0
M  V30 8084 C 777.251 1.07223 -1.71312 0
M  V30 8085 C 777.572 1.88911 -0.483486 0
M  V30 8086 O 776.842 1.89344 0.50257 0
M  V30 8087 H 775.422 0.398846 -0.63161 0
M  V30 8088 H 778.084 0.374288 -1.91272 0
M  V30 8089 H 777.18 1.7448 -2.58772 0
M  V30 8090 N 777.481 1.45874 0.596531 0
M  V30 8091 C 778.411 1.5824 1.71705 0
M  V30 8092 C 779.392 0.433366 1.64487 0
M  V30 8093 O 780.577 0.657895 1.82717 0
M  V30 8094 C 777.707 1.55927 3.10329 0
M  V30 8095 C 776.661 2.69659 3.32367 0
M  V30 8096 C 775.987 2.52403 4.71377 0
M  V30 8097 C 777.287 4.11591 3.21544 0
M  V30 8098 H 778.981 2.52035 1.61613 0
M  V30 8099 H 776.527 1.21297 0.776082 0
M  V30 8100 H 778.48 1.63173 3.88526 0
M  V30 8101 H 777.204 0.586674 3.21288 0
M  V30 8102 H 775.863 2.61859 2.56564 0
M  V30 8103 H 775.511 1.53258 4.79083 0
M  V30 8104 H 775.211 3.28679 4.87077 0
M  V30 8105 H 776.735 2.6152 5.5176 0
M  V30 8106 H 778.149 4.20576 3.89601 0
M  V30 8107 H 776.546 4.88344 3.4877 0
M  V30 8108 H 777.616 4.32719 2.1882 0
M  V30 8109 N 778.959 -0.83999 1.33349 0
M  V30 8110 C 780.375 -1.13049 1.12659 0
M  V30 8111 C 780.575 -2.01328 -0.0832613 0
M  V30 8112 O 779.631 -2.40669 -0.763856 0
M  V30 8113 C 780.944 -1.79366 2.41347 0
M  V30 8114 C 782.492 -1.91937 2.47243 0
M  V30 8115 C 782.967 -2.6167 3.75889 0
M  V30 8116 N 784.458 -2.69184 3.76954 0
M  V30 8117 C 785.193 -3.23827 4.73206 0
M  V30 8118 N 784.689 -3.79166 5.79832 0
M  V30 8119 N 786.482 -3.22068 4.60683 0
M  V30 8120 H 778.633 -0.252432 2.10895 0
M  V30 8121 H 780.896 -0.174501 0.931801 0
M  V30 8122 H 780.602 -1.2196 3.29877 0
M  V30 8123 H 780.476 -2.79396 2.53412 0
M  V30 8124 H 782.863 -2.48498 1.59163 0
M  V30 8125 H 782.944 -0.908604 2.39119 0
M  V30 8126 H 782.588 -2.05769 4.64351 0
M  V30 8127 H 782.518 -3.63217 3.81289 0
M  V30 8128 H 785.009 -2.2994 2.99893 0
M  V30 8129 H 785.322 -4.19061 6.49313 0
M  V30 8130 H 783.667 -3.77457 5.83568 0
M  V30 8131 H 786.858 -2.78092 3.7654 0
M  V30 8132 H 787.031 -3.64351 5.35866 0
M  V30 8133 N 780.437 -1.16799 -1.0581 0
M  V30 8134 C 781.684 -0.952524 -1.78699 0
M  V30 8135 C 782.012 0.51931 -1.87439 0
M  V30 8136 O 781.267 1.40151 -1.36587 0
M  V30 8137 C 781.566 -1.53111 -3.22942 0
M  V30 8138 C 781.232 -3.0261 -3.34273 0
M  V30 8139 C 779.894 -3.43418 -3.37072 0
M  V30 8140 C 782.246 -3.98611 -3.35795 0
M  V30 8141 C 779.574 -4.78838 -3.39015 0
M  V30 8142 C 781.926 -5.33923 -3.39277 0
M  V30 8143 C 780.59 -5.74205 -3.40361 0
M  V30 8144 H 779.86 -0.348553 -0.653905 0
M  V30 8145 H 782.507 -1.45591 -1.244 0
M  V30 8146 H 780.812 -0.949286 -3.80126 0
M  V30 8147 H 782.509 -1.34002 -3.77948 0
M  V30 8148 H 779.099 -2.70075 -3.32803 0
M  V30 8149 H 783.283 -3.68146 -3.32839 0
M  V30 8150 H 778.539 -5.09369 -3.38161 0
M  V30 8151 H 782.713 -6.08094 -3.39403 0
M  V30 8152 H 780.34 -6.79117 -3.4162 0
M  V30 8153 N 781.915 1.24427 -0.967243 0
M  V30 8154 C 783.326 1.74349 -0.667785 0
M  V30 8155 C 783.677 1.78403 0.816509 0
M  V30 8156 O 782.802 1.41315 1.63887 0
M  V30 8157 C 783.397 3.16628 -1.20548 0
M  V30 8158 C 781.956 3.64059 -0.955934 0
M  V30 8159 C 781.103 2.42715 -1.34106 0
M  V30 8160 H 784.054 1.10136 -1.14262 0
M  V30 8161 H 784.075 3.76183 -0.571547 0
M  V30 8162 H 783.587 3.13646 -2.28578 0
M  V30 8163 H 781.688 3.72441 0.108858 0
M  V30 8164 H 781.801 4.51549 -1.60126 0
M  V30 8165 H 780.165 2.43114 -0.759452 0
M  V30 8166 H 780.948 2.42414 -2.43085 0
M  V30 8167 N 783.393 0.737304 1.3929 0
M  V30 8168 C 784.639 0.286681 2.00763 0
M  V30 8169 C 784.972 -1.12388 1.58375 0
M  V30 8170 O 784.247 -1.76661 0.813699 0
M  V30 8171 C 784.53 0.391147 3.57969 0
M  V30 8172 C 784.383 1.84165 4.1037 0
M  V30 8173 C 785.702 -0.225072 4.39524 0
M  V30 8174 H 782.821 0.105642 0.729389 0
M  V30 8175 H 785.463 0.933892 1.65464 0
M  V30 8176 H 783.613 -0.159875 3.88171 0
M  V30 8177 H 785.285 2.44972 3.90879 0
M  V30 8178 H 783.528 2.3622 3.63844 0
M  V30 8179 H 784.199 1.866 5.19504 0
M  V30 8180 H 786.675 0.244677 4.1538 0
M  V30 8181 H 785.551 -0.121646 5.48765 0
M  V30 8182 H 785.812 -1.31141 4.22202 0
M  V30 8183 N 784.871 -1.49948 0.485112 0
M  V30 8184 C 785.801 -2.31675 -0.291364 0
M  V30 8185 C 786.782 -1.39216 -0.977383 0
M  V30 8186 O 787.967 -1.68133 -0.971855 0
M  V30 8187 C 785.097 -3.19326 -1.36558 0
M  V30 8188 C 784.051 -4.2045 -0.800359 0
M  V30 8189 C 783.377 -4.96931 -1.97391 0
M  V30 8190 C 784.677 -5.21925 0.197867 0
M  V30 8191 H 786.371 -2.96839 0.390775 0
M  V30 8192 H 783.917 -1.42749 0.189375 0
M  V30 8193 H 785.87 -3.75304 -1.91638 0
M  V30 8194 H 784.594 -2.52074 -2.07668 0
M  V30 8195 H 783.253 -3.65594 -0.271428 0
M  V30 8196 H 782.901 -4.26141 -2.67232 0
M  V30 8197 H 782.601 -5.65344 -1.60187 0
M  V30 8198 H 784.125 -5.55749 -2.52935 0
M  V30 8199 H 785.539 -5.72691 -0.264239 0
M  V30 8200 H 783.936 -5.98138 0.484908 0
M  V30 8201 H 785.006 -4.71809 1.11912 0
M  V30 8202 N 786.349 -0.21828 -1.56081 0
M  V30 8203 C 787.595 0.414921 -1.9851 0
M  V30 8204 C 787.928 1.59648 -1.10573 0
M  V30 8205 O 787.203 1.93818 -0.162695 0
M  V30 8206 C 787.486 0.852647 -3.4986 0
M  V30 8207 C 787.339 -0.33232 -4.48571 0
M  V30 8208 C 788.658 1.70998 -4.05521 0
M  V30 8209 H 785.777 0.149344 -0.72171 0
M  V30 8210 H 788.419 -0.313858 -1.8739 0
M  V30 8211 H 786.569 1.47362 -3.59467 0
M  V30 8212 H 788.241 -0.970418 -4.50977 0
M  V30 8213 H 786.484 -0.980302 -4.22578 0
M  V30 8214 H 787.155 0.0168407 -5.51997 0
M  V30 8215 H 789.631 1.18606 -3.98838 0
M  V30 8216 H 788.507 1.98517 -5.11744 0
M  V30 8217 H 788.768 2.67219 -3.52202 0
M  V30 8218 N 787.827 1.57504 0.0551401 0
M  V30 8219 C 789.076 1.87237 0.750009 0
M  V30 8220 C 789.389 0.813268 1.77891 0
M  V30 8221 O 790.595 0.99898 2.52453 0
M  V30 8222 C 789.051 3.32187 1.38491 0
M  V30 8223 C 788.659 4.46267 0.393707 0
M  V30 8224 C 790.403 3.71101 2.06117 0
M  V30 8225 C 788.31 5.82265 1.03547 0
M  V30 8226 H 787.24 0.698524 0.283866 0
M  V30 8227 H 789.891 1.835 0.00365997 0
M  V30 8228 H 788.273 3.30588 2.18008 0
M  V30 8229 H 789.447 4.59289 -0.372865 0
M  V30 8230 H 787.762 4.16015 -0.17902 0
M  V30 8231 H 790.359 4.70012 2.54937 0
M  V30 8232 H 790.702 3.01751 2.86796 0
M  V30 8233 H 791.235 3.74762 1.33409 0
M  V30 8234 H 787.974 6.54949 0.268644 0
M  V30 8235 H 787.494 5.73012 1.7725 0
M  V30 8236 H 789.173 6.28148 1.55047 0
M  V30 8237 N 789.305 -0.326896 1.54172 0
M  V30 8238 C 790.215 -1.42525 1.86343 0
M  V30 8239 C 791.231 -1.56764 0.75505 0
M  V30 8240 O 792.407 -1.71924 1.04901 0
M  V30 8241 C 789.472 -2.77286 2.08119 0
M  V30 8242 C 788.533 -2.7225 3.31931 0
M  V30 8243 C 787.766 -4.00584 3.52659 0
M  V30 8244 O 787.989 -4.98686 2.76891 0
M  V30 8245 O 786.923 -4.04045 4.46129 0
M  V30 8246 H 790.749 -1.18249 2.79734 0
M  V30 8247 H 788.334 -0.520614 1.40036 0
M  V30 8248 H 790.216 -3.57065 2.23791 0
M  V30 8249 H 788.891 -3.01459 1.17917 0
M  V30 8250 H 787.798 -1.91033 3.21647 0
M  V30 8251 H 789.131 -2.53032 4.2218 0
M  V30 8252 N 790.784 -1.46188 -0.588786 0
M  V30 8253 C 792.195 -1.45421 -1.17088 0
M  V30 8254 C 792.546 -0.191801 -1.9526 0
M  V30 8255 O 791.671 0.705497 -2.04577 0
M  V30 8256 C 792.266 -2.63467 -2.13004 0
M  V30 8257 C 790.825 -2.6576 -2.6655 0
M  V30 8258 C 789.972 -2.38002 -1.42304 0
M  V30 8259 H 792.923 -1.54156 -0.377052 0
M  V30 8260 H 792.944 -2.38638 -2.96365 0
M  V30 8261 H 792.456 -3.55331 -1.56081 0
M  V30 8262 H 790.557 -1.77952 -3.27359 0
M  V30 8263 H 790.67 -3.65545 -3.09699 0
M  V30 8264 H 789.034 -1.87936 -1.71907 0
M  V30 8265 H 789.817 -3.32035 -0.872209 0
M  V30 8266 N 792.262 0.832906 -1.33792 0
M  V30 8267 C 793.49 1.62048 -1.28639 0
M  V30 8268 C 793.905 1.88269 0.141522 0
M  V30 8269 O 793.262 1.46706 1.08553 0
M  V30 8270 C 793.313 2.96722 -2.0649 0
M  V30 8271 O 793.034 2.7165 -3.43712 0
M  V30 8272 C 794.535 3.91144 -2.08617 0
M  V30 8273 H 791.755 0.504032 -0.442937 0
M  V30 8274 H 794.299 1.03704 -1.76255 0
M  V30 8275 H 792.454 3.51652 -1.62541 0
M  V30 8276 H 792.868 3.57453 -3.83833 0
M  V30 8277 H 794.342 4.82837 -2.67531 0
M  V30 8278 H 794.819 4.25766 -1.07796 0
M  V30 8279 H 795.425 3.42152 -2.52611 0
M  V30 8280 N 793.74 1.17359 1.05189 0
M  V30 8281 C 794.687 0.890325 2.12936 0
M  V30 8282 C 795.657 -0.165779 1.65271 0
M  V30 8283 O 796.842 -0.0285672 1.90779 0
M  V30 8284 C 793.982 0.409793 3.42658 0
M  V30 8285 C 793.095 1.53002 4.03998 0
M  V30 8286 C 792.23 1.00336 5.21638 0
M  V30 8287 C 791.269 2.09903 5.74984 0
M  V30 8288 N 790.406 1.58714 6.83926 0
M  V30 8289 H 795.246 1.81299 2.36505 0
M  V30 8290 H 792.783 0.904249 1.16025 0
M  V30 8291 H 794.741 0.112743 4.17048 0
M  V30 8292 H 793.371 -0.475915 3.19272 0
M  V30 8293 H 792.423 1.9428 3.27047 0
M  V30 8294 H 793.735 2.3564 4.39631 0
M  V30 8295 H 792.889 0.660158 6.03098 0
M  V30 8296 H 791.628 0.14642 4.8748 0
M  V30 8297 H 790.633 2.45081 4.92154 0
M  V30 8298 H 791.858 2.96013 6.1119 0
M  V30 8299 H 789.804 0.752915 6.51665 0
M  V30 8300 H 789.721 2.34959 7.18561 0
M  V30 8301 H 790.989 1.27287 7.69037 0
M  V30 8302 N 795.218 -1.23913 0.973828 0
M  V30 8303 C 796.464 -1.92436 0.640026 0
M  V30 8304 C 796.797 -1.75875 -0.823512 0
M  V30 8305 O 796.072 -1.11563 -1.59323 0
M  V30 8306 C 796.355 -3.4526 1.0231 0
M  V30 8307 C 796.208 -3.70961 2.54378 0
M  V30 8308 C 797.527 -4.36495 0.562155 0
M  V30 8309 H 794.646 -0.698868 0.233992 0
M  V30 8310 H 797.288 -1.46163 1.21393 0
M  V30 8311 H 795.438 -3.84802 0.534751 0
M  V30 8312 H 797.11 -3.40941 3.10737 0
M  V30 8313 H 795.353 -3.15899 2.97305 0
M  V30 8314 H 796.024 -4.77912 2.76232 0
M  V30 8315 H 798.5 -4.04363 0.981333 0
M  V30 8316 H 797.376 -5.42142 0.858689 0
M  V30 8317 H 797.637 -4.38818 -0.537659 0
M  V30 8318 N 796.696 -0.74468 -1.38897 0
M  V30 8319 C 797.926 -0.306982 -2.04307 0
M  V30 8320 C 798.334 1.06652 -1.56275 0
M  V30 8321 O 797.677 1.68699 -0.72708 0
M  V30 8322 C 797.739 -0.241186 -3.5869 0
M  V30 8323 C 797.403 -1.55476 -4.2974 0
M  V30 8324 C 798.4 -2.50229 -4.55721 0
M  V30 8325 C 796.085 -1.82173 -4.68101 0
M  V30 8326 C 798.079 -3.69905 -5.19085 0
M  V30 8327 C 795.766 -3.02125 -5.31191 0
M  V30 8328 C 796.764 -3.95812 -5.56616 0
M  V30 8329 O 796.452 -5.13656 -6.18395 0
M  V30 8330 H 796.184 -0.130416 -0.663301 0
M  V30 8331 H 798.738 -1.01192 -1.78744 0
M  V30 8332 H 796.968 0.519925 -3.83189 0
M  V30 8333 H 798.657 0.165806 -4.05561 0
M  V30 8334 H 799.423 -2.30877 -4.26522 0
M  V30 8335 H 795.302 -1.10091 -4.47662 0
M  V30 8336 H 798.846 -4.43047 -5.38846 0
M  V30 8337 H 794.743 -3.21374 -5.59811 0
M  V30 8338 H 795.511 -5.14119 -6.36886 0
M  V30 8339 N 798.174 1.49689 -0.493057 0
M  V30 8340 C 799.106 2.26867 0.326195 0
M  V30 8341 C 800.119 1.33083 0.937697 0
M  V30 8342 O 801.308 1.58427 0.822382 0
M  V30 8343 C 798.408 3.0519 1.4735 0
M  V30 8344 C 797.581 4.26491 0.970767 0
M  V30 8345 C 796.64 4.86926 1.99473 0
M  V30 8346 O 795.666 5.47221 1.56647 0
M  V30 8347 N 796.868 4.75871 3.32456 0
M  V30 8348 H 799.633 2.97816 -0.335547 0
M  V30 8349 H 797.194 1.58602 -0.325129 0
M  V30 8350 H 799.186 3.42496 2.15589 0
M  V30 8351 H 797.756 2.369 2.03954 0
M  V30 8352 H 796.976 3.94036 0.113529 0
M  V30 8353 H 798.264 5.05092 0.613156 0
M  V30 8354 H 797.662 4.2797 3.69944 0
M  V30 8355 H 796.219 5.17383 3.96431 0
M  V30 8356 N 799.652 0.226554 1.55963 0
M  V30 8357 C 801.063 -0.280381 1.84583 0
M  V30 8358 C 801.414 -1.59105 1.14804 0
M  V30 8359 O 800.539 -2.12297 0.419414 0
M  V30 8360 C 801.134 -0.515499 3.34855 0
M  V30 8361 C 799.693 -0.966733 3.63774 0
M  V30 8362 C 798.84 -0.0325753 2.77281 0
M  V30 8363 H 801.791 0.449626 1.52197 0
M  V30 8364 H 801.812 -1.36085 3.55332 0
M  V30 8365 H 801.324 0.438594 3.85614 0
M  V30 8366 H 799.425 -1.93401 3.18476 0
M  V30 8367 H 799.538 -0.837679 4.7172 0
M  V30 8368 H 797.902 -0.540279 2.48904 0
M  V30 8369 H 798.685 0.916524 3.30839 0
M  V30 8370 N 801.13 -1.57531 -0.0467866 0
M  V30 8371 C 802.355 -1.93087 -0.757123 0
M  V30 8372 C 802.78 -0.825116 -1.69037 0
M  V30 8373 O 802.138 0.220449 -1.79955 0
M  V30 8374 C 802.186 -3.27669 -1.5055 0
M  V30 8375 O 801.29 -3.18667 -2.61773 0
M  V30 8376 H 800.631 -0.631597 -0.204892 0
M  V30 8377 H 803.161 -2.04599 -0.00755232 0
M  V30 8378 H 803.171 -3.6214 -1.87932 0
M  V30 8379 H 801.846 -4.07717 -0.820931 0
M  V30 8380 H 800.423 -2.95798 -2.27064 0
M  V30 8381 N 802.608 0.318715 -1.54344 0
M  V30 8382 C 803.838 1.07394 -1.76494 0
M  V30 8383 C 804.246 1.82031 -0.515881 0
M  V30 8384 O 803.589 1.7609 0.52325 0
M  V30 8385 C 803.651 2.11401 -2.90775 0
M  V30 8386 C 803.315 1.56118 -4.29507 0
M  V30 8387 C 804.312 1.00043 -5.10184 0
M  V30 8388 C 801.997 1.60215 -4.76063 0
M  V30 8389 C 803.991 0.487993 -6.35529 0
M  V30 8390 C 801.678 1.08584 -6.01376 0
M  V30 8391 C 802.676 0.529714 -6.80943 0
M  V30 8392 O 802.364 0.0211823 -8.03897 0
M  V30 8393 H 802.096 0.325061 -0.592715 0
M  V30 8394 H 804.65 0.36901 -2.02058 0
M  V30 8395 H 802.88 2.85524 -2.60793 0
M  V30 8396 H 804.569 2.72683 -3.00664 0
M  V30 8397 H 805.335 0.961811 -4.75367 0
M  V30 8398 H 801.214 2.02441 -4.14172 0
M  V30 8399 H 804.758 0.0532608 -6.9758 0
M  V30 8400 H 800.655 1.12155 -6.35682 0
M  V30 8401 H 801.423 0.136151 -8.18387 0
M  V30 8402 N 804.086 1.46499 0.581025 0
M  V30 8403 C 805.332 1.52121 1.34116 0
M  V30 8404 C 805.665 0.173031 1.93428 0
M  V30 8405 O 804.94 -0.815729 1.76568 0
M  V30 8406 C 805.223 2.62108 2.46924 0
M  V30 8407 C 805.076 4.06462 1.92636 0
M  V30 8408 C 806.395 2.68167 3.48962 0
M  V30 8409 H 803.514 0.5538 0.486287 0
M  V30 8410 H 806.156 1.78443 0.652538 0
M  V30 8411 H 804.306 2.39794 3.05665 0
M  V30 8412 H 805.978 4.40068 1.3834 0
M  V30 8413 H 804.221 4.15862 1.23455 0
M  V30 8414 H 804.892 4.79152 2.74076 0
M  V30 8415 H 807.368 2.8823 3.00104 0
M  V30 8416 H 806.244 3.46942 4.2535 0
M  V30 8417 H 806.505 1.74284 4.06297 0
M  V30 8418 N 805.565 -0.825799 1.34232 0
M  V30 8419 C 806.79 -1.61883 1.29648 0
M  V30 8420 C 807.215 -1.87669 -0.127295 0
M  V30 8421 O 806.573 -1.45016 -1.08813 0
M  V30 8422 C 806.621 -2.93846 2.09014 0
M  V30 8423 O 805.725 -3.85778 1.4577 0
M  V30 8424 H 805.066 -0.492454 0.445405 0
M  V30 8425 H 807.596 -1.02641 1.76992 0
M  V30 8426 H 807.606 -3.43435 2.20264 0
M  V30 8427 H 806.281 -2.74401 3.12533 0
M  V30 8428 H 804.858 -3.4429 1.43245 0
M  V30 8429 N 807.043 -1.17915 -1.04565 0
M  V30 8430 C 808.292 -0.965816 -1.77073 0
M  V30 8431 C 808.605 0.506005 -1.88942 0
M  V30 8432 O 809.811 0.837717 -2.58253 0
M  V30 8433 C 808.267 -1.67894 -3.18339 0
M  V30 8434 C 807.875 -3.18972 -3.1458 0
M  V30 8435 C 809.619 -1.54823 -3.9526 0
M  V30 8436 C 807.526 -3.82946 -4.50674 0
M  V30 8437 H 806.456 -0.357729 -0.663736 0
M  V30 8438 H 809.107 -1.41235 -1.17153 0
M  V30 8439 H 807.489 -1.16016 -3.78624 0
M  V30 8440 H 808.663 -3.77835 -2.63776 0
M  V30 8441 H 806.978 -3.32127 -2.51159 0
M  V30 8442 H 809.575 -1.99984 -4.95894 0
M  V30 8443 H 809.918 -0.499727 -4.1329 0
M  V30 8444 H 810.451 -2.03953 -3.41538 0
M  V30 8445 H 807.19 -4.8782 -4.37849 0
M  V30 8446 H 806.71 -3.2887 -5.01602 0
M  V30 8447 H 808.389 -3.85518 -5.196 0
M  V30 8448 N 808.521 1.23394 -0.980386 0
M  V30 8449 C 809.469 2.26872 -0.513018 0
M  V30 8450 C 810.463 1.63853 0.429948 0
M  V30 8451 O 811.669 1.77417 0.303842 0
M  V30 8452 H 808.044 0.737398 -0.147473 0
M  V30 8453 H 810.015 2.63654 -1.39746 0
M  V30 8454 C 808.764 3.47289 0.168962 0
M  V30 8455 H 808.087 3.96033 -0.547546 0
M  V30 8456 H 809.527 4.21502 0.459616 0
M  V30 8457 C 807.986 3.06425 1.40019 0
M  V30 8458 O 808.516 3.14708 2.49643 0
M  V30 8459 N 806.722 2.61339 1.27084 0
M  V30 8460 H 806.269 2.54799 0.378872 0
M  V30 8461 H 806.227 2.34364 2.09573 0
M  V30 8462 N 809.999 0.752036 1.385 0
M  V30 8463 C 810.947 0.112634 2.32327 0
M  V30 8464 C 811.941 -0.707037 1.53939 0
M  V30 8465 O 813.147 -0.606309 1.69481 0
M  V30 8466 H 809.522 0.0176275 0.751793 0
M  V30 8467 H 811.493 0.920074 2.83861 0
M  V30 8468 C 810.242 -0.767458 3.39124 0
M  V30 8469 H 809.565 -0.146122 3.99533 0
M  V30 8470 H 811.005 -1.18216 4.07187 0
M  V30 8471 C 809.464 -1.90938 2.77568 0
M  V30 8472 O 809.994 -3.00342 2.66754 0
M  V30 8473 N 808.2 -1.70396 2.35401 0
M  V30 8474 H 807.747 -0.81413 2.44397 0
M  V30 8475 H 807.705 -2.46972 1.94557 0
M  V30 8476 N 811.477 -1.49425 0.500989 0
M  V30 8477 C 812.387 -2.32899 -0.282011 0
M  V30 8478 C 813.403 -1.44632 -0.967346 0
M  V30 8479 O 814.579 -1.77654 -0.94873 0
M  V30 8480 C 811.644 -3.20069 -1.33253 0
M  V30 8481 C 810.705 -4.24186 -0.660636 0
M  V30 8482 C 809.938 -5.07191 -1.6611 0
M  V30 8483 O 810.161 -4.91712 -2.89094 0
M  V30 8484 O 809.095 -5.8948 -1.21643 0
M  V30 8485 H 812.921 -3.01038 0.401224 0
M  V30 8486 H 810.506 -1.47079 0.262323 0
M  V30 8487 H 812.388 -3.74071 -1.94033 0
M  V30 8488 H 811.063 -2.54625 -1.9987 0
M  V30 8489 H 809.97 -3.74098 -0.0130959 0
M  V30 8490 H 811.303 -4.92186 -0.0369179 0
M  V30 8491 N 812.955 -0.234822 -1.55841 0
M  V30 8492 C 813.918 0.656378 -2.196 0
M  V30 8493 C 814.918 1.11179 -1.16171 0
M  V30 8494 O 816.108 1.01845 -1.41326 0
M  V30 8495 C 813.24 1.90072 -2.82993 0
M  V30 8496 H 814.433 0.100281 -2.99732 0
M  V30 8497 H 811.986 0.0147613 -1.56293 0
M  V30 8498 H 812.721 2.49836 -2.06767 0
M  V30 8499 H 812.506 1.5825 -3.58747 0
M  V30 8500 H 813.996 2.53538 -3.31826 0
M  V30 8501 N 814.433 1.57553 0.0384317 0
M  V30 8502 C 815.343 2.09333 1.0591 0
M  V30 8503 C 816.359 1.0299 1.40247 0
M  V30 8504 O 817.535 1.34669 1.49754 0
M  V30 8505 C 814.6 2.55468 2.34386 0
M  V30 8506 C 813.661 3.76254 2.06716 0
M  V30 8507 C 812.894 4.20179 3.29067 0
M  V30 8508 O 813.117 3.637 4.39407 0
M  V30 8509 O 812.051 5.12697 3.15317 0
M  V30 8510 H 815.877 2.96683 0.649087 0
M  V30 8511 H 813.462 1.47211 0.254802 0
M  V30 8512 H 815.344 2.85514 3.09935 0
M  V30 8513 H 814.019 1.71234 2.74701 0
M  V30 8514 H 812.926 3.51241 1.28766 0
M  V30 8515 H 814.259 4.61443 1.71263 0
M  V30 8516 N 815.911 -0.310526 1.54511 0
M  V30 8517 C 816.821 -1.4054 1.87844 0
M  V30 8518 C 817.837 -1.55954 0.771635 0
M  V30 8519 O 819.013 -1.70801 1.06719 0
M  V30 8520 C 816.078 -2.75063 2.11048 0
M  V30 8521 C 815.139 -2.68715 3.348 0
M  V30 8522 C 814.372 -3.96821 3.56887 0
M  V30 8523 O 814.595 -4.95721 2.82165 0
M  V30 8524 O 813.529 -3.99291 4.50389 0
M  V30 8525 H 817.355 -1.15275 2.80972 0
M  V30 8526 H 814.94 -0.505732 1.4058 0
M  V30 8527 H 816.822 -3.54671 2.27566 0
M  V30 8528 H 815.497 -3.00191 1.21108 0
M  V30 8529 H 814.404 -1.87611 3.23655 0
M  V30 8530 H 815.737 -2.4854 4.2484 0
M  V30 8531 N 817.389 -1.46805 -0.573248 0
M  V30 8532 C 818.805 -1.31969 -0.897577 0
M  V30 8533 C 819.005 -0.298171 -1.99282 0
M  V30 8534 O 818.061 0.295953 -2.5076 0
M  V30 8535 C 819.374 -2.70859 -1.30598 0
M  V30 8536 C 820.922 -2.79022 -1.4183 0
M  V30 8537 C 821.397 -4.18516 -1.86033 0
M  V30 8538 N 822.888 -4.2098 -1.9321 0
M  V30 8539 C 823.623 -5.25814 -2.28707 0
M  V30 8540 N 823.119 -6.40968 -2.6293 0
M  V30 8541 N 824.912 -5.13184 -2.29343 0
M  V30 8542 H 817.063 -2.11869 0.150094 0
M  V30 8543 H 819.326 -0.947989 0.00447895 0
M  V30 8544 H 819.032 -3.46965 -0.575161 0
M  V30 8545 H 818.906 -3.01585 -2.26554 0
M  V30 8546 H 821.293 -2.03198 -2.13996 0
M  V30 8547 H 821.374 -2.51969 -0.441024 0
M  V30 8548 H 821.018 -4.94839 -1.14442 0
M  V30 8549 H 820.948 -4.42982 -2.84735 0
M  V30 8550 H 823.439 -3.37898 -1.69214 0
M  V30 8551 H 823.752 -7.16729 -2.88996 0
M  V30 8552 H 822.097 -6.44314 -2.60547 0
M  V30 8553 H 825.288 -4.22255 -2.02036 0
M  V30 8554 H 825.461 -5.94996 -2.56679 0
M  V30 8555 N 818.867 0.818669 -1.34668 0
M  V30 8556 C 820.095 1.60674 -1.30351 0
M  V30 8557 C 820.51 1.88408 0.121546 0
M  V30 8558 O 819.867 1.47849 1.06991 0
M  V30 8559 C 819.918 2.94516 -2.09625 0
M  V30 8560 O 819.639 2.6799 -3.46573 0
M  V30 8561 C 821.14 3.8891 -2.12754 0
M  V30 8562 H 818.36 0.499306 -0.448258 0
M  V30 8563 H 820.904 1.01828 -1.77345 0
M  V30 8564 H 819.059 3.49908 -1.66262 0
M  V30 8565 H 819.473 3.53361 -3.87603 0
M  V30 8566 H 820.947 4.79972 -2.72637 0
M  V30 8567 H 821.424 4.24599 -1.12306 0
M  V30 8568 H 822.03 3.39453 -2.56225 0
M  V30 8569 N 820.346 1.18468 1.03938 0
M  V30 8570 C 821.592 0.982286 1.77423 0
M  V30 8571 C 821.925 -0.48679 1.88 0
M  V30 8572 O 821.2 -1.36146 1.38905 0
M  V30 8573 C 821.483 1.63929 3.20623 0
M  V30 8574 C 821.336 3.18132 3.17982 0
M  V30 8575 C 822.655 1.3536 4.18767 0
M  V30 8576 H 819.774 0.358264 0.644062 0
M  V30 8577 H 822.416 1.46154 1.21405 0
M  V30 8578 H 820.566 1.2318 3.68455 0
M  V30 8579 H 822.238 3.68024 2.78129 0
M  V30 8580 H 820.481 3.50225 2.55978 0
M  V30 8581 H 821.152 3.5924 4.19107 0
M  V30 8582 H 823.628 1.70669 3.79488 0
M  V30 8583 H 822.504 1.83896 5.17178 0
M  V30 8584 H 822.765 0.276722 4.41233 0
M  V30 8585 N 821.824 -1.22873 0.986916 0
M  V30 8586 C 823.049 -1.96028 0.677341 0
M  V30 8587 C 823.474 -1.72487 -0.750319 0
M  V30 8588 O 822.832 -1.00036 -1.51203 0
M  V30 8589 C 822.88 -3.46983 0.981593 0
M  V30 8590 O 821.984 -4.12328 0.0770729 0
M  V30 8591 H 821.325 -0.613458 0.254096 0
M  V30 8592 H 823.855 -1.56132 1.32227 0
M  V30 8593 H 823.865 -3.9747 0.920969 0
M  V30 8594 H 822.54 -3.63442 2.02194 0
M  V30 8595 H 821.117 -3.72402 0.192666 0
M  V30 8596 N 823.302 -0.75937 -1.38099 0
M  V30 8597 C 824.232 -0.151077 -2.33011 0
M  V30 8598 C 825.213 0.697099 -1.5516 0
M  V30 8599 O 826.398 0.637101 -1.83452 0
M  V30 8600 C 823.528 0.738423 -3.39359 0
M  V30 8601 C 822.482 -0.0074741 -4.27999 0
M  V30 8602 C 821.808 1.00066 -5.25253 0
M  V30 8603 C 823.108 -1.17926 -5.08813 0
M  V30 8604 H 824.802 -0.943933 -2.84131 0
M  V30 8605 H 822.348 -0.455362 -1.36611 0
M  V30 8606 H 824.301 1.17369 -4.04725 0
M  V30 8607 H 823.025 1.56366 -2.86735 0
M  V30 8608 H 821.684 -0.423379 -3.64147 0
M  V30 8609 H 821.332 1.82012 -4.68914 0
M  V30 8610 H 821.032 0.506199 -5.85416 0
M  V30 8611 H 822.556 1.43512 -5.93495 0
M  V30 8612 H 823.97 -0.821262 -5.67387 0
M  V30 8613 H 822.367 -1.60497 -5.78239 0
M  V30 8614 H 823.437 -1.98938 -4.42212 0
M  V30 8615 N 824.78 1.49157 -0.508906 0
M  V30 8616 C 826.026 2.03385 0.0248089 0
M  V30 8617 C 826.381 1.381 1.33964 0
M  V30 8618 O 825.674 0.510317 1.84679 0
M  V30 8619 C 825.868 3.56687 0.225717 0
M  V30 8620 C 825.697 4.36832 -1.06809 0
M  V30 8621 C 824.467 4.78556 -1.6221 0
M  V30 8622 C 826.665 4.74934 -1.97338 0
M  V30 8623 N 824.647 5.43158 -2.86098 0
M  V30 8624 C 826.018 5.39336 -3.05805 0
M  V30 8625 C 828.073 4.56872 -1.97921 0
M  V30 8626 C 826.776 5.87587 -4.1489 0
M  V30 8627 C 828.802 5.06089 -3.05987 0
M  V30 8628 C 828.164 5.70499 -4.13172 0
M  V30 8629 H 824.263 0.781349 -0.0318988 0
M  V30 8630 H 826.847 1.82233 -0.685518 0
M  V30 8631 H 825.018 3.77707 0.905108 0
M  V30 8632 H 826.75 3.97554 0.757147 0
M  V30 8633 H 823.505 4.59017 -1.16621 0
M  V30 8634 H 823.929 5.8004 -3.49116 0
M  V30 8635 H 828.571 4.06474 -1.16357 0
M  V30 8636 H 826.289 6.37002 -4.97247 0
M  V30 8637 H 829.875 4.93919 -3.07466 0
M  V30 8638 H 828.755 6.07893 -4.95415 0
M  V30 8639 N 826.258 0.243083 1.55714 0
M  V30 8640 C 827.208 -0.671915 2.17875 0
M  V30 8641 C 828.192 -1.14199 1.13347 0
M  V30 8642 O 829.384 -1.09239 1.39269 0
M  V30 8643 C 826.513 -1.87027 2.87881 0
M  V30 8644 C 825.599 -1.41888 3.99661 0
M  V30 8645 N 825.99 -0.681465 5.01188 0
M  V30 8646 C 824.288 -1.70447 4.12145 0
M  V30 8647 C 824.989 -0.448285 5.7997 0
M  V30 8648 N 823.965 -1.01137 5.34109 0
M  V30 8649 H 827.767 -0.100321 2.93729 0
M  V30 8650 H 825.281 0.0452371 1.62337 0
M  V30 8651 H 827.278 -2.53674 3.3084 0
M  V30 8652 H 825.938 -2.44613 2.13529 0
M  V30 8653 H 826.949 -0.331959 5.16835 0
M  V30 8654 H 823.626 -2.29198 3.48962 0
M  V30 8655 H 825.016 0.140141 6.71754 0
M  V30 8656 N 827.736 -1.57571 -0.0300757 0
M  V30 8657 C 828.982 -1.89506 -0.722159 0
M  V30 8658 C 829.315 -0.840699 -1.7506 0
M  V30 8659 O 828.59 0.144358 -1.93964 0
M  V30 8660 C 828.873 -3.32081 -1.39262 0
M  V30 8661 C 828.726 -4.48211 -0.377768 0
M  V30 8662 C 830.045 -3.73557 -2.32687 0
M  V30 8663 H 827.164 -0.689213 -0.261064 0
M  V30 8664 H 829.806 -1.89994 0.0150388 0
M  V30 8665 H 827.956 -3.31796 -2.02098 0
M  V30 8666 H 829.628 -4.6063 0.248591 0
M  V30 8667 H 827.871 -4.3274 0.303045 0
M  V30 8668 H 828.542 -5.44854 -0.885347 0
M  V30 8669 H 831.018 -3.75202 -1.79896 0
M  V30 8670 H 829.894 -4.74125 -2.7658 0
M  V30 8671 H 830.155 -3.05759 -3.19317 0
M  V30 8672 N 829.214 0.302327 -1.54673 0
M  V30 8673 C 830.439 1.06103 -1.78205 0
M  V30 8674 C 830.864 1.80204 -0.53926 0
M  V30 8675 O 830.222 1.73975 0.510142 0
M  V30 8676 C 830.27 2.01829 -2.98827 0
M  V30 8677 O 829.374 3.10108 -2.71858 0
M  V30 8678 H 828.715 0.30487 -0.589873 0
M  V30 8679 H 831.245 0.340153 -2.01753 0
M  V30 8680 H 831.255 2.44319 -3.2676 0
M  V30 8681 H 829.93 1.473 -3.88942 0
M  V30 8682 H 828.507 2.72142 -2.54937 0
M  V30 8683 N 830.692 1.47107 0.565454 0
M  V30 8684 C 832.103 1.47266 1.1476 0
M  V30 8685 C 832.454 0.222841 1.9493 0
M  V30 8686 O 831.579 -0.672862 2.05673 0
M  V30 8687 C 832.174 2.66822 2.08785 0
M  V30 8688 C 830.733 2.69967 2.62288 0
M  V30 8689 C 829.88 2.40236 1.38499 0
M  V30 8690 H 832.831 1.54736 0.352479 0
M  V30 8691 H 832.852 2.43323 2.92531 0
M  V30 8692 H 832.364 3.5777 1.50408 0
M  V30 8693 H 830.465 1.83137 3.24487 0
M  V30 8694 H 830.578 3.70426 3.03845 0
M  V30 8695 H 828.942 1.90648 1.68895 0
M  V30 8696 H 829.725 3.33381 0.819274 0
M  V30 8697 N 832.17 -0.811516 1.35101 0
M  V30 8698 C 833.398 -1.59981 1.31201 0
M  V30 8699 C 833.813 -1.8847 -0.111552 0
M  V30 8700 O 833.17 -1.48414 -1.06205 0
M  V30 8701 C 833.221 -2.934 2.11184 0
M  V30 8702 O 832.942 -2.66148 3.4799 0
M  V30 8703 C 834.443 -3.87776 2.14813 0
M  V30 8704 H 831.663 -0.496921 0.450899 0
M  V30 8705 H 834.207 -1.00886 1.77883 0
M  V30 8706 H 832.362 -3.49022 1.68115 0
M  V30 8707 H 832.776 -3.51301 3.89471 0
M  V30 8708 H 834.25 -4.7852 2.75178 0
M  V30 8709 H 834.727 -4.23997 1.14556 0
M  V30 8710 H 835.333 -3.3809 2.58022 0
M  V30 8711 N 833.648 -1.19017 -1.03309 0
M  V30 8712 C 834.558 -0.939303 -2.14975 0
M  V30 8713 C 835.574 0.0992359 -1.73717 0
M  V30 8714 O 836.75 -0.0844362 -2.01223 0
M  V30 8715 C 833.815 -0.476712 -3.43407 0
M  V30 8716 C 832.876 -1.58413 -3.99003 0
M  V30 8717 C 832.109 -1.14352 -5.21305 0
M  V30 8718 O 832.332 -0.00534408 -5.704 0
M  V30 8719 O 831.266 -1.94436 -5.6963 0
M  V30 8720 H 835.092 -1.87386 -2.38998 0
M  V30 8721 H 832.677 -0.972635 -1.13403 0
M  V30 8722 H 834.559 -0.22718 -4.20787 0
M  V30 8723 H 833.234 0.429455 -3.20839 0
M  V30 8724 H 832.141 -1.88777 -3.22977 0
M  V30 8725 H 833.474 -2.4667 -4.25928 0
M  V30 8726 N 835.127 1.22348 -0.993418 0
M  V30 8727 C 836.06 2.22898 -0.489073 0
M  V30 8728 C 837.038 1.56222 0.450927 0
M  V30 8729 O 838.222 1.84705 0.376351 0
M  V30 8730 C 835.349 3.37448 0.290946 0
M  V30 8731 C 834.395 4.22328 -0.595123 0
M  V30 8732 S 835.228 4.94677 -2.05072 0
M  V30 8733 C 836.384 6.12667 -1.28021 0
M  V30 8734 H 836.617 2.65333 -1.34111 0
M  V30 8735 H 834.15 1.32032 -0.800429 0
M  V30 8736 H 836.108 4.03867 0.734944 0
M  V30 8737 H 834.769 2.93519 1.11826 0
M  V30 8738 H 833.962 5.04 0.00507413 0
M  V30 8739 H 833.564 3.61043 -0.975906 0
M  V30 8740 H 835.856 6.75279 -0.548129 0
M  V30 8741 H 836.799 6.771 -2.07223 0
M  V30 8742 H 837.207 5.58898 -0.793272 0
M  V30 8743 N 836.605 0.766683 1.37694 0
M  V30 8744 C 837.552 0.147725 2.30327 0
M  V30 8745 C 838.522 -0.695366 1.50844 0
M  V30 8746 O 839.707 -0.64878 1.79431 0
M  V30 8747 C 836.847 -0.72935 3.37305 0
M  V30 8748 C 835.96 0.129795 4.31805 0
M  V30 8749 C 835.095 -0.751511 5.25857 0
M  V30 8750 C 834.134 0.110475 6.12 0
M  V30 8751 N 833.271 -0.728522 6.9831 0
M  V30 8752 H 838.111 0.943204 2.82679 0
M  V30 8753 H 835.648 0.476736 1.3916 0
M  V30 8754 H 837.606 -1.25263 3.97951 0
M  V30 8755 H 836.236 -1.49048 2.86329 0
M  V30 8756 H 835.288 0.770829 3.72508 0
M  V30 8757 H 836.6 0.794923 4.92425 0
M  V30 8758 H 835.754 -1.34146 5.91684 0
M  V30 8759 H 834.493 -1.45034 4.65636 0
M  V30 8760 H 833.498 0.712999 5.45157 0
M  V30 8761 H 834.723 0.806557 6.74293 0
M  V30 8762 H 832.669 -1.41206 6.40622 0
M  V30 8763 H 832.586 -0.12058 7.55904 0
M  V30 8764 H 833.854 -1.30303 7.68532 0
M  V30 8765 N 838.083 -1.48885 0.516809 0
M  V30 8766 C 839.015 -2.27357 -0.290061 0
M  V30 8767 C 840.028 -1.34558 -0.916406 0
M  V30 8768 O 841.217 -1.59715 -0.797073 0
M  V30 8769 C 838.317 -3.07496 -1.42476 0
M  V30 8770 C 837.49 -4.27982 -0.902793 0
M  V30 8771 C 836.549 -4.90038 -1.91701 0
M  V30 8772 O 835.575 -5.49643 -1.47922 0
M  V30 8773 N 836.777 -4.811 -3.24843 0
M  V30 8774 H 839.542 -2.97244 0.382884 0
M  V30 8775 H 837.103 -1.58064 0.35032 0
M  V30 8776 H 839.095 -3.45882 -2.10113 0
M  V30 8777 H 837.665 -2.40115 -2.00159 0
M  V30 8778 H 836.885 -3.94167 -0.0508272 0
M  V30 8779 H 838.173 -5.06003 -0.532723 0
M  V30 8780 H 837.571 -4.33801 -3.63088 0
M  V30 8781 H 836.128 -5.23625 -3.8815 0
M  V30 8782 N 839.561 -0.251338 -1.55583 0
M  V30 8783 C 840.494 0.687092 -2.1761 0
M  V30 8784 C 841.472 1.16963 -1.12953 0
M  V30 8785 O 842.656 1.24696 -1.41362 0
M  V30 8786 C 839.783 1.93429 -2.78034 0
M  V30 8787 C 838.829 1.58925 -3.95784 0
M  V30 8788 S 839.662 0.688019 -5.31062 0
M  V30 8789 C 840.818 1.94413 -5.94941 0
M  V30 8790 H 841.051 0.159982 -2.96869 0
M  V30 8791 H 838.584 -0.0357593 -1.54359 0
M  V30 8792 H 840.542 2.65028 -3.13481 0
M  V30 8793 H 839.203 2.43253 -1.98713 0
M  V30 8794 H 838.396 2.51668 -4.36668 0
M  V30 8795 H 837.998 0.953664 -3.61637 0
M  V30 8796 H 840.29 2.89087 -6.12727 0
M  V30 8797 H 841.233 1.5787 -6.90277 0
M  V30 8798 H 841.641 2.09824 -5.24056 0
M  V30 8799 N 841.039 1.57585 0.0217189 0
M  V30 8800 C 841.989 2.03506 1.02807 0
M  V30 8801 C 842.973 0.925716 1.31603 0
M  V30 8802 O 844.165 1.18958 1.31065 0
M  V30 8803 C 841.294 2.52407 2.32693 0
M  V30 8804 C 840.38 3.70176 2.06955 0
M  V30 8805 N 840.771 4.82641 1.513 0
M  V30 8806 C 839.069 3.77691 2.37204 0
M  V30 8807 C 839.77 5.64218 1.41536 0
M  V30 8808 N 838.746 5.09557 1.89348 0
M  V30 8809 H 842.548 2.87878 0.591899 0
M  V30 8810 H 840.062 1.60793 0.227875 0
M  V30 8811 H 842.059 2.83569 3.05605 0
M  V30 8812 H 840.719 1.69444 2.76982 0
M  V30 8813 H 841.73 5.03931 1.19472 0
M  V30 8814 H 838.407 3.05542 2.84517 0
M  V30 8815 H 839.797 6.64576 0.989333 0
M  V30 8816 N 842.517 -0.29412 1.54831 0
M  V30 8817 C 843.427 -1.3854 1.89325 0
M  V30 8818 C 844.443 -1.55127 0.788133 0
M  V30 8819 O 845.619 -1.6966 1.08524 0
M  V30 8820 C 842.684 -2.72809 2.13954 0
M  V30 8821 C 841.745 -2.65148 3.37631 0
M  V30 8822 C 840.978 -3.93014 3.61076 0
M  V30 8823 O 841.201 -4.927 2.87406 0
M  V30 8824 O 840.135 -3.94491 4.54599 0
M  V30 8825 H 843.961 -1.12289 2.82179 0
M  V30 8826 H 841.546 -0.490793 1.41108 0
M  V30 8827 H 843.428 -3.52238 2.31315 0
M  V30 8828 H 842.103 -2.9889 1.24285 0
M  V30 8829 H 841.01 -1.84168 3.25627 0
M  V30 8830 H 842.343 -2.4402 4.27452 0
M  V30 8831 N 843.995 -1.47404 -0.557645 0
M  V30 8832 C 845.241 -1.55219 -1.31449 0
M  V30 8833 C 845.596 -0.211457 -1.91234 0
M  V30 8834 O 844.889 0.782795 -1.7488 0
M  V30 8835 C 845.083 -2.6061 -2.44575 0
M  V30 8836 C 844.912 -4.048 -1.95875 0
M  V30 8837 C 843.682 -4.72252 -1.79738 0
M  V30 8838 C 845.88 -4.91833 -1.50348 0
M  V30 8839 N 843.862 -6.00962 -1.25372 0
M  V30 8840 C 845.233 -6.10566 -1.07745 0
M  V30 8841 C 847.288 -4.78279 -1.38396 0
M  V30 8842 C 845.991 -7.17242 -0.543767 0
M  V30 8843 C 848.017 -5.8505 -0.864293 0
M  V30 8844 C 847.379 -7.02973 -0.44818 0
M  V30 8845 H 843.478 -0.622694 -0.47305 0
M  V30 8846 H 846.062 -1.84152 -0.632144 0
M  V30 8847 H 844.233 -2.33545 -3.10341 0
M  V30 8848 H 845.965 -2.5827 -3.11574 0
M  V30 8849 H 842.72 -4.28153 -2.0244 0
M  V30 8850 H 843.144 -6.69532 -1.00278 0
M  V30 8851 H 847.786 -3.87477 -1.69179 0
M  V30 8852 H 845.504 -8.07791 -0.223563 0
M  V30 8853 H 849.09 -5.7661 -0.775371 0
M  V30 8854 H 847.97 -7.84183 -0.0522964 0
M  V30 8855 N 845.473 0.80434 -1.35529 0
M  V30 8856 C 846.421 1.93769 -1.28671 0
M  V30 8857 C 847.415 1.68428 -0.181222 0
M  V30 8858 O 848.621 1.76617 -0.347338 0
M  V30 8859 H 844.996 0.636663 -0.400206 0
M  V30 8860 H 846.967 1.96673 -2.24415 0
M  V30 8861 C 845.716 3.30572 -1.07784 0
M  V30 8862 H 845.039 3.5063 -1.9209 0
M  V30 8863 H 846.479 4.1027 -1.07027 0
M  V30 8864 C 844.938 3.36193 0.218213 0
M  V30 8865 O 845.468 3.82941 1.21323 0
M  V30 8866 N 843.674 2.89455 0.257761 0
M  V30 8867 H 843.221 2.51604 -0.552562 0
M  V30 8868 H 843.179 2.93597 1.12465 0
M  V30 8869 N 846.951 1.19563 1.02676 0
M  V30 8870 C 848.198 0.999568 1.7611 0
M  V30 8871 C 848.526 -0.469432 1.8875 0
M  V30 8872 O 847.781 -1.36481 1.40255 0
M  V30 8873 C 848.08 1.61619 3.18769 0
M  V30 8874 C 847.746 3.11366 3.26132 0
M  V30 8875 C 846.408 3.52234 3.27848 0
M  V30 8876 C 848.76 4.07374 3.25109 0
M  V30 8877 C 846.088 4.87658 3.26201 0
M  V30 8878 C 848.44 5.42731 3.25002 0
M  V30 8879 C 847.104 5.83027 3.25017 0
M  V30 8880 H 846.374 0.365768 0.644434 0
M  V30 8881 H 849.021 1.48838 1.20497 0
M  V30 8882 H 847.326 1.04974 3.77476 0
M  V30 8883 H 849.023 1.43975 3.74262 0
M  V30 8884 H 845.613 2.78804 3.25525 0
M  V30 8885 H 849.797 3.76842 3.22961 0
M  V30 8886 H 845.053 5.18156 3.24537 0
M  V30 8887 H 849.227 6.16879 3.23161 0
M  V30 8888 H 846.854 6.87936 3.23494 0
M  V30 8889 N 848.429 -1.21819 0.999893 0
M  V30 8890 C 849.657 -1.94758 0.698359 0
M  V30 8891 C 850.072 -1.73771 -0.738183 0
M  V30 8892 O 849.429 -1.04113 -1.49889 0
M  V30 8893 C 849.48 -3.47292 1.00353 0
M  V30 8894 O 849.201 -3.67579 2.38363 0
M  V30 8895 C 850.702 -4.37403 0.72068 0
M  V30 8896 H 847.922 -0.619512 0.257771 0
M  V30 8897 H 850.466 -1.54778 1.33656 0
M  V30 8898 H 848.621 -3.85213 0.411018 0
M  V30 8899 H 849.035 -4.61719 2.48829 0
M  V30 8900 H 850.509 -5.43151 0.984422 0
M  V30 8901 H 850.986 -4.3784 -0.345309 0
M  V30 8902 H 851.592 -4.05119 1.29456 0
M  V30 8903 N 849.908 -0.773975 -1.37286 0
M  V30 8904 C 850.871 -0.167974 -2.28584 0
M  V30 8905 C 851.871 0.625662 -1.48129 0
M  V30 8906 O 853.061 0.448924 -1.68316 0
M  V30 8907 C 850.193 0.769364 -3.32105 0
M  V30 8908 H 851.386 -0.972806 -2.83684 0
M  V30 8909 H 848.939 -0.542335 -1.46589 0
M  V30 8910 H 849.674 1.59912 -2.82132 0
M  V30 8911 H 849.459 0.202419 -3.91577 0
M  V30 8912 H 850.949 1.18872 -4.00324 0
M  V30 8913 N 851.386 1.48609 -0.524698 0
M  V30 8914 C 852.611 2.07398 0.00952139 0
M  V30 8915 C 853.036 1.37939 1.27884 0
M  V30 8916 O 852.394 0.443633 1.75788 0
M  V30 8917 C 852.442 3.59916 0.221956 0
M  V30 8918 O 851.546 3.91647 1.29175 0
M  V30 8919 H 850.887 0.662981 -0.0367729 0
M  V30 8920 H 853.417 1.91092 -0.7311 0
M  V30 8921 H 853.427 4.05552 0.446236 0
M  V30 8922 H 852.102 4.09876 -0.705306 0
M  V30 8923 H 850.679 3.57796 1.05055 0
M  V30 8924 N 852.864 0.259585 1.55447 0
M  V30 8925 C 854.089 -0.368317 2.04103 0
M  V30 8926 C 854.514 -1.49827 1.13725 0
M  V30 8927 O 853.872 -1.80814 0.132705 0
M  V30 8928 C 853.92 -0.841506 3.50644 0
M  V30 8929 O 853.024 -1.95008 3.63381 0
M  V30 8930 H 852.365 -0.0785227 0.659341 0
M  V30 8931 H 854.895 0.389349 2.00861 0
M  V30 8932 H 854.905 -1.14138 3.9171 0
M  V30 8933 H 853.58 -0.0147001 4.15897 0
M  V30 8934 H 852.157 -1.65393 3.34215 0
M  V30 8935 N 854.342 -1.57594 -0.0133615 0
M  V30 8936 C 855.591 -1.8916 -0.700103 0
M  V30 8937 C 855.904 -0.860147 -1.75673 0
M  V30 8938 O 857.11 -1.06556 -2.49716 0
M  V30 8939 C 855.566 -3.35742 -1.29635 0
M  V30 8940 C 855.174 -4.47154 -0.275249 0
M  V30 8941 C 856.918 -3.76436 -1.96205 0
M  V30 8942 C 854.825 -5.84805 -0.880726 0
M  V30 8943 H 853.755 -0.705805 -0.265247 0
M  V30 8944 H 856.406 -1.83445 0.044993 0
M  V30 8945 H 854.788 -3.36252 -2.09167 0
M  V30 8946 H 855.962 -4.58139 0.494506 0
M  V30 8947 H 854.277 -4.15394 0.289256 0
M  V30 8948 H 856.874 -4.76606 -2.42386 0
M  V30 8949 H 857.217 -3.09249 -2.78695 0
M  V30 8950 H 857.75 -3.78168 -1.23426 0
M  V30 8951 H 854.489 -6.55431 -0.0949013 0
M  V30 8952 H 854.009 -5.7751 -1.61995 0
M  V30 8953 H 855.688 -6.32038 -1.38338 0
M  V30 8954 N 855.82 0.285905 -1.54985 0
M  V30 8955 C 856.767 1.35306 -1.86978 0
M  V30 8956 C 857.737 1.49682 -0.720046 0
M  V30 8957 O 858.922 1.64297 -0.970107 0
M  V30 8958 C 856.062 2.71059 -2.13591 0
M  V30 8959 C 855.175 2.6501 -3.41165 0
M  V30 8960 C 854.31 3.92856 -3.57544 0
M  V30 8961 C 853.349 3.81266 -4.78855 0
M  V30 8962 N 852.486 5.00919 -4.9196 0
M  V30 8963 H 857.326 1.07323 -2.78003 0
M  V30 8964 H 854.863 0.518776 -1.37649 0
M  V30 8965 H 856.821 3.50026 -2.27019 0
M  V30 8966 H 855.451 2.97271 -1.25816 0
M  V30 8967 H 854.503 1.77824 -3.36278 0
M  V30 8968 H 855.815 2.52342 -4.30262 0
M  V30 8969 H 854.969 4.80263 -3.70718 0
M  V30 8970 H 853.708 4.08377 -2.66608 0
M  V30 8971 H 852.713 2.92243 -4.65698 0
M  V30 8972 H 853.938 3.67277 -5.71213 0
M  V30 8973 H 851.884 5.16875 -4.03951 0
M  V30 8974 H 851.801 4.90732 -5.75081 0
M  V30 8975 H 853.069 5.89935 -5.09507 0
M  V30 8976 N 857.298 1.47698 0.54982 0
M  V30 8977 C 858.546 1.54397 1.30407 0
M  V30 8978 C 858.867 0.211026 1.93855 0
M  V30 8979 O 858.137 -0.765701 1.80316 0
M  V30 8980 H 856.717 0.568747 0.484289 0
M  V30 8981 H 859.379 1.84042 0.641444 0
M  V30 8982 H 858.475 2.31449 2.09375 0
M  V30 8983 N 858.776 -0.797141 1.35954 0
M  V30 8984 C 860.025 -1.54983 1.29086 0
M  V30 8985 C 860.338 -1.95167 -0.130003 0
M  V30 8986 O 861.544 -2.69596 -0.32101 0
M  V30 8987 C 860 -2.79738 2.26439 0
M  V30 8988 C 859.608 -2.46753 3.73921 0
M  V30 8989 C 861.352 -3.57733 2.28533 0
M  V30 8990 C 859.259 -3.67858 4.63071 0
M  V30 8991 H 858.189 -0.581766 0.479651 0
M  V30 8992 H 860.84 -0.87541 1.61273 0
M  V30 8993 H 859.222 -3.48939 1.87236 0
M  V30 8994 H 860.396 -1.85499 4.21814 0
M  V30 8995 H 858.711 -1.81985 3.74527 0
M  V30 8996 H 861.308 -4.47699 2.92351 0
M  V30 8997 H 861.651 -3.95754 1.29169 0
M  V30 8998 H 862.184 -2.95504 2.66313 0
M  V30 8999 H 858.923 -3.34939 5.63468 0
M  V30 9000 H 858.443 -4.28305 4.19898 0
M  V30 9001 H 860.122 -4.34977 4.78961 0
M  V30 9002 N 860.254 -1.20106 -1.0204 0
M  V30 9003 C 861.479 -1.0351 -1.79723 0
M  V30 9004 C 861.904 0.411328 -1.83548 0
M  V30 9005 O 861.262 1.29608 -1.26773 0
M  V30 9006 C 861.31 -1.61876 -3.22224 0
M  V30 9007 O 860.414 -0.853813 -4.03465 0
M  V30 9008 H 859.755 -0.365299 -0.554484 0
M  V30 9009 H 862.285 -1.59316 -1.28373 0
M  V30 9010 H 862.295 -1.65451 -3.72948 0
M  V30 9011 H 860.97 -2.67148 -3.18755 0
M  V30 9012 H 859.547 -0.891983 -3.62075 0
M  V30 9013 N 861.732 1.21287 -1.00634 0
M  V30 9014 C 862.662 2.25973 -0.588089 0
M  V30 9015 C 863.643 1.65527 0.391764 0
M  V30 9016 O 864.828 1.92179 0.279452 0
M  V30 9017 C 861.958 3.47197 0.0847336 0
M  V30 9018 C 860.912 4.20168 -0.815039 0
M  V30 9019 C 860.238 5.34699 -0.00855393 0
M  V30 9020 C 861.538 4.77416 -2.11828 0
M  V30 9021 H 863.232 2.61212 -1.46317 0
M  V30 9022 H 860.778 1.25563 -0.704985 0
M  V30 9023 H 862.731 4.19602 0.388821 0
M  V30 9024 H 861.455 3.11092 0.994456 0
M  V30 9025 H 860.114 3.49614 -1.10297 0
M  V30 9026 H 859.762 4.94837 0.902499 0
M  V30 9027 H 859.462 5.84449 -0.607664 0
M  V30 9028 H 860.986 6.09914 0.289317 0
M  V30 9029 H 862.4 5.41694 -1.87725 0
M  V30 9030 H 860.797 5.37561 -2.66736 0
M  V30 9031 H 861.867 3.96724 -2.78816 0
M  V30 9032 N 863.21 0.781244 1.36873 0
M  V30 9033 C 864.435 0.360398 2.04245 0
M  V30 9034 C 864.86 -1.01242 1.58529 0
M  V30 9035 O 864.218 -1.65063 0.749936 0
M  V30 9036 C 864.266 0.42329 3.58107 0
M  V30 9037 O 863.37 -0.572796 4.08403 0
M  V30 9038 H 862.711 0.154386 0.645803 0
M  V30 9039 H 865.241 1.06008 1.74996 0
M  V30 9040 H 865.251 0.283967 4.07011 0
M  V30 9041 H 863.926 1.42477 3.90734 0
M  V30 9042 H 862.503 -0.395809 3.70793 0
M  V30 9043 N 864.689 -1.48329 0.532571 0
M  V30 9044 C 865.636 -2.29663 -0.228779 0
M  V30 9045 C 866.606 -1.37529 -0.931401 0
M  V30 9046 O 867.791 -1.66493 -0.931921 0
M  V30 9047 C 864.931 -3.20955 -1.26814 0
M  V30 9048 C 864.044 -4.28168 -0.574099 0
M  V30 9049 C 863.179 -5.06638 -1.59661 0
M  V30 9050 C 862.218 -6.05651 -0.88618 0
M  V30 9051 N 861.355 -6.77169 -1.85436 0
M  V30 9052 H 866.195 -2.94255 0.47098 0
M  V30 9053 H 863.732 -1.45061 0.2441 0
M  V30 9054 H 865.69 -3.72285 -1.88307 0
M  V30 9055 H 864.32 -2.58281 -1.93625 0
M  V30 9056 H 863.372 -3.80085 0.154827 0
M  V30 9057 H 864.684 -4.98797 -0.0163984 0
M  V30 9058 H 863.838 -5.61995 -2.28576 0
M  V30 9059 H 862.577 -4.35854 -2.18821 0
M  V30 9060 H 861.582 -5.49495 -0.182981 0
M  V30 9061 H 862.807 -6.78434 -0.300659 0
M  V30 9062 H 860.753 -6.09134 -2.43499 0
M  V30 9063 H 860.67 -7.43882 -1.34816 0
M  V30 9064 H 861.938 -7.37114 -2.53541 0
M  V30 9065 N 866.167 -0.267825 -1.55308 0
M  V30 9066 C 867.414 0.351036 -1.99434 0
M  V30 9067 C 867.742 1.56406 -1.15618 0
M  V30 9068 O 866.997 1.94548 -0.212045 0
M  V30 9069 C 867.296 0.784247 -3.48689 0
M  V30 9070 C 866.962 -0.323328 -4.49739 0
M  V30 9071 C 865.624 -0.627467 -4.77091 0
M  V30 9072 C 867.976 -1.07002 -5.10098 0
M  V30 9073 C 865.304 -1.682 -5.62073 0
M  V30 9074 C 867.656 -2.11422 -5.96224 0
M  V30 9075 C 866.32 -2.42479 -6.21901 0
M  V30 9076 H 865.59 0.128453 -0.729781 0
M  V30 9077 H 868.237 -0.380018 -1.87692 0
M  V30 9078 H 866.542 1.59485 -3.57871 0
M  V30 9079 H 868.239 1.2737 -3.80234 0
M  V30 9080 H 864.829 -0.0761528 -4.28532 0
M  V30 9081 H 869.013 -0.848302 -4.88996 0
M  V30 9082 H 864.269 -1.92772 -5.80215 0
M  V30 9083 H 868.443 -2.69759 -6.4203 0
M  V30 9084 H 866.07 -3.24328 -6.87543 0
M  V30 9085 N 867.645 1.57599 0.00500368 0
M  V30 9086 C 868.922 1.81561 0.727654 0
M  V30 9087 C 869.302 0.871604 1.92266 0
M  V30 9088 O 868.65 -0.0808232 2.28357 0
M  V30 9089 C 868.86 3.29922 1.13809 0
M  V30 9090 C 870.208 3.95531 1.54403 0
M  V30 9091 O 871.232 3.34215 1.23202 0
M  V30 9092 O 870.091 5.03535 2.12402 0
M  V30 9093 H 867.185 0.747462 0.353878 0
M  V30 9094 H 869.731 1.69688 -0.0200667 0
M  V30 9095 H 868.503 3.90253 0.286078 0
M  V30 9096 H 868.126 3.46775 1.94507 0
M  V30 9097 N 869.123 -0.277682 1.55134 0
M  V30 9098 C 870.033 -1.36524 1.90783 0
M  V30 9099 C 871.049 -1.54283 0.804542 0
M  V30 9100 O 872.225 -1.68499 1.10318 0
M  V30 9101 C 869.29 -2.70524 2.16835 0
M  V30 9102 C 868.351 -2.61552 3.40424 0
M  V30 9103 C 867.584 -3.89162 3.65224 0
M  V30 9104 O 867.807 -4.89624 2.92616 0
M  V30 9105 O 866.741 -3.89647 4.58758 0
M  V30 9106 H 870.567 -1.0929 2.83354 0
M  V30 9107 H 868.152 -0.475799 1.41621 0
M  V30 9108 H 870.034 -3.49765 2.35038 0
M  V30 9109 H 868.709 -2.97555 1.27448 0
M  V30 9110 H 867.616 -1.80704 3.27562 0
M  V30 9111 H 868.949 -2.39472 4.30016 0
M  V30 9112 N 870.601 -1.47988 -0.541979 0
M  V30 9113 C 872.017 -1.33843 -0.869383 0
M  V30 9114 C 872.217 -0.340374 -1.98604 0
M  V30 9115 O 871.273 0.242696 -2.51331 0
M  V30 9116 C 872.586 -2.73568 -1.24823 0
M  V30 9117 C 874.134 -2.81967 -1.3588 0
M  V30 9118 C 874.609 -4.22368 -1.77114 0
M  V30 9119 N 876.1 -4.24983 -1.84237 0
M  V30 9120 C 876.835 -5.30547 -2.17503 0
M  V30 9121 N 876.331 -6.46401 -2.49275 0
M  V30 9122 N 878.124 -5.17933 -2.18406 0
M  V30 9123 H 870.275 -2.11503 0.195001 0
M  V30 9124 H 872.538 -0.947681 0.0245862 0
M  V30 9125 H 872.244 -3.48107 -0.501435 0
M  V30 9126 H 872.118 -3.06322 -2.20106 0
M  V30 9127 H 874.505 -2.07692 -2.09638 0
M  V30 9128 H 874.586 -2.52848 -0.387478 0
M  V30 9129 H 874.23 -4.97155 -1.0392 0
M  V30 9130 H 874.16 -4.48922 -2.75275 0
M  V30 9131 H 876.651 -3.41411 -1.62009 0
M  V30 9132 H 876.964 -7.22698 -2.73729 0
M  V30 9133 H 875.309 -6.49696 -2.46821 0
M  V30 9134 H 878.5 -4.26445 -1.93034 0
M  V30 9135 H 878.673 -6.00307 -2.44 0
M  V30 9136 N 872.079 0.78992 -1.36375 0
M  V30 9137 C 873.319 1.56098 -1.31958 0
M  V30 9138 C 873.683 1.91738 0.100197 0
M  V30 9139 O 874.884 2.67451 0.268913 0
M  V30 9140 C 873.155 2.80406 -2.21601 0
M  V30 9141 S 874.714 3.70655 -2.34863 0
M  V30 9142 H 871.532 0.534632 -0.46871 0
M  V30 9143 H 874.134 0.930417 -1.7194 0
M  V30 9144 H 872.838 2.52273 -3.23707 0
M  V30 9145 H 872.369 3.48436 -1.82637 0
M  V30 9146 H 874.384 4.71509 -1.54575 0
M  V30 9147 N 873.557 1.20646 1.01402 0
M  V30 9148 C 874.797 1.02951 1.7658 0
M  V30 9149 C 875.161 -0.430522 1.87111 0
M  V30 9150 O 876.362 -0.727727 2.58762 0
M  V30 9151 C 874.633 1.69728 3.14527 0
M  V30 9152 S 876.192 1.6717 4.05709 0
M  V30 9153 H 873.01 0.36911 0.607683 0
M  V30 9154 H 875.612 1.53243 1.21395 0
M  V30 9155 H 874.316 2.75162 3.0449 0
M  V30 9156 H 873.847 1.19578 3.74786 0
M  V30 9157 H 875.862 0.706397 4.91146 0
M  V30 9158 N 875.035 -1.20752 1.01276 0
M  V30 9159 C 876.282 -1.90021 0.699887 0
M  V30 9160 C 876.61 -1.78604 -0.770113 0
M  V30 9161 O 875.865 -1.16195 -1.57471 0
M  V30 9162 C 876.164 -3.40808 1.07633 0
M  V30 9163 C 875.83 -3.72423 2.54189 0
M  V30 9164 C 874.492 -3.80762 2.94234 0
M  V30 9165 C 876.844 -3.87025 3.49086 0
M  V30 9166 C 874.172 -4.01158 4.28123 0
M  V30 9167 C 876.524 -4.0893 4.82658 0
M  V30 9168 C 875.188 -4.15498 5.22415 0
M  V30 9169 H 874.458 -0.695335 0.256107 0
M  V30 9170 H 877.105 -1.43096 1.27263 0
M  V30 9171 H 875.41 -3.89521 0.421944 0
M  V30 9172 H 877.107 -3.92693 0.811997 0
M  V30 9173 H 873.697 -3.66529 2.22158 0
M  V30 9174 H 877.881 -3.79942 3.19309 0
M  V30 9175 H 873.137 -4.04476 4.58486 0
M  V30 9176 H 877.311 -4.19172 5.56119 0
M  V30 9177 H 874.938 -4.31055 6.26176 0
M  V30 9178 N 876.513 -0.788492 -1.36457 0
M  V30 9179 C 877.443 -0.200468 -2.32638 0
M  V30 9180 C 878.424 0.664031 -1.56603 0
M  V30 9181 O 879.609 0.598045 -1.84762 0
M  V30 9182 C 876.739 0.666274 -3.40849 0
M  V30 9183 C 875.693 -0.0982574 -4.27887 0
M  V30 9184 C 875.019 0.889018 -5.27258 0
M  V30 9185 C 876.319 -1.28692 -5.06197 0
M  V30 9186 H 878.013 -1.00399 -2.82065 0
M  V30 9187 H 875.559 -0.484237 -1.35614 0
M  V30 9188 H 877.512 1.08757 -4.07124 0
M  V30 9189 H 876.236 1.50249 -2.89987 0
M  V30 9190 H 874.895 -0.500525 -3.63167 0
M  V30 9191 H 874.543 1.72024 -4.7267 0
M  V30 9192 H 874.243 0.381909 -5.86358 0
M  V30 9193 H 875.767 1.30891 -5.96406 0
M  V30 9194 H 877.181 -0.941429 -5.65517 0
M  V30 9195 H 875.578 -1.72726 -5.74705 0
M  V30 9196 H 876.648 -2.08273 -4.37893 0
M  V30 9197 N 877.991 1.48044 -0.54043 0
M  V30 9198 C 879.221 2.06595 -0.0144943 0
M  V30 9199 C 879.629 1.39593 1.27713 0
M  V30 9200 O 878.972 0.480794 1.77297 0
M  V30 9201 C 879.034 3.5849 0.269316 0
M  V30 9202 C 878.698 4.47429 -0.930372 0
M  V30 9203 C 879.695 4.8657 -1.83155 0
M  V30 9204 C 877.38 4.89185 -1.14032 0
M  V30 9205 C 879.374 5.66246 -2.92649 0
M  V30 9206 C 877.061 5.6863 -2.23838 0
M  V30 9207 C 878.059 6.07069 -3.12979 0
M  V30 9208 O 877.747 6.84917 -4.20884 0
M  V30 9209 H 877.479 0.675086 -0.0351467 0
M  V30 9210 H 880.033 1.91275 -0.74853 0
M  V30 9211 H 878.263 3.71961 1.05745 0
M  V30 9212 H 879.952 3.99124 0.738595 0
M  V30 9213 H 880.718 4.54924 -1.68134 0
M  V30 9214 H 876.597 4.58742 -0.455717 0
M  V30 9215 H 880.141 5.96169 -3.62254 0
M  V30 9216 H 876.038 5.99688 -2.38839 0
M  V30 9217 H 876.806 7.03287 -4.18723 0
M  V30 9218 N 879.47 0.276058 1.55163 0
M  V30 9219 C 880.716 -0.340959 1.99913 0
M  V30 9220 C 881.049 -1.55434 1.16422 0
M  V30 9221 O 880.324 -1.93081 0.234517 0
M  V30 9222 C 880.607 -0.722211 3.52783 0
M  V30 9223 C 880.46 0.498575 4.47028 0
M  V30 9224 C 881.779 -1.5583 4.11589 0
M  V30 9225 H 878.898 -0.122455 0.726756 0
M  V30 9226 H 881.54 0.38319 1.86096 0
M  V30 9227 H 879.69 -1.33919 3.64689 0
M  V30 9228 H 881.362 1.13713 4.47065 0
M  V30 9229 H 879.605 1.13646 4.18649 0
M  V30 9230 H 880.276 0.188041 5.5168 0
M  V30 9231 H 882.752 -1.03722 4.02965 0
M  V30 9232 H 881.628 -1.79387 5.1876 0
M  V30 9233 H 881.889 -2.53963 3.61877 0
M  V30 9234 N 880.948 -1.576 0.00335426 0
M  V30 9235 C 881.898 -2.05116 -0.995562 0
M  V30 9236 C 882.882 -0.946535 -1.30113 0
M  V30 9237 O 884.074 -1.21028 -1.29156 0
M  V30 9238 C 881.203 -2.56077 -2.28648 0
M  V30 9239 C 880.289 -3.73422 -2.0104 0
M  V30 9240 N 880.68 -4.84986 -1.43603 0
M  V30 9241 C 878.978 -3.81416 -2.31166 0
M  V30 9242 C 879.679 -5.66399 -1.32542 0
M  V30 9243 N 878.655 -5.12505 -1.81218 0
M  V30 9244 H 882.457 -2.88783 -0.546025 0
M  V30 9245 H 879.971 -1.61135 -0.202265 0
M  V30 9246 H 881.968 -2.88395 -3.01055 0
M  V30 9247 H 880.628 -1.73829 -2.74251 0
M  V30 9248 H 881.639 -5.05768 -1.11439 0
M  V30 9249 H 878.316 -3.1003 -2.7962 0
M  V30 9250 H 879.706 -6.66066 -0.88348 0
M  V30 9251 N 882.426 0.269451 -1.5528 0
M  V30 9252 C 883.703 1.02207 -1.66773 0
M  V30 9253 C 884.083 2.04168 -0.536536 0
M  V30 9254 O 883.431 2.23761 0.462956 0
M  V30 9255 C 883.641 1.67569 -3.0614 0
M  V30 9256 C 884.989 2.18599 -3.64005 0
M  V30 9257 O 886.013 1.7755 -3.08795 0
M  V30 9258 O 884.872 2.93903 -4.60742 0
M  V30 9259 H 881.966 0.474314 -0.677462 0
M  V30 9260 H 884.512 0.265026 -1.67618 0
M  V30 9261 H 883.284 0.937029 -3.79915 0
M  V30 9262 H 882.907 2.49951 -3.09209 0
M  V30 9263 N 883.904 1.48273 0.534124 0
M  V30 9264 C 884.852 1.62926 1.66005 0
M  V30 9265 C 885.846 0.495814 1.61982 0
M  V30 9266 O 887.052 0.6744 1.66889 0
M  V30 9267 H 883.427 0.513163 0.549698 0
M  V30 9268 H 885.398 2.57498 1.50789 0
M  V30 9269 C 884.147 1.68231 3.04292 0
M  V30 9270 H 883.47 2.54807 3.0808 0
M  V30 9271 H 884.91 1.82528 3.827 0
M  V30 9272 C 883.369 0.420154 3.3427 0
M  V30 9273 O 883.899 -0.468769 3.98955 0
M  V30 9274 N 882.105 0.293115 2.89118 0
M  V30 9275 H 881.652 1.01745 2.36655 0
M  V30 9276 H 881.61 -0.550376 3.09545 0
M  V30 9277 N 885.382 -0.782676 1.36792 0
M  V30 9278 C 886.607 -1.57676 1.34733 0
M  V30 9279 C 887.032 -1.87979 -0.0675253 0
M  V30 9280 O 886.39 -1.48404 -1.04144 0
M  V30 9281 C 886.438 -2.87047 2.18257 0
M  V30 9282 O 885.542 -3.80946 1.57969 0
M  V30 9283 H 884.883 -0.478034 0.460846 0
M  V30 9284 H 887.413 -0.969578 1.80168 0
M  V30 9285 H 887.423 -3.36254 2.31079 0
M  V30 9286 H 886.098 -2.64319 3.21104 0
M  V30 9287 H 884.675 -3.39558 1.54126 0
M  V30 9288 N 886.86 -1.21182 -1.00761 0
M  V30 9289 C 888.137 -0.936297 -1.71735 0
M  V30 9290 C 888.517 0.552585 -2.03739 0
M  V30 9291 O 887.865 1.51672 -1.70903 0
M  V30 9292 C 888.075 -1.81867 -2.97868 0
M  V30 9293 C 889.423 -2.06594 -3.7095 0
M  V30 9294 O 890.447 -1.79194 -3.07844 0
M  V30 9295 O 889.306 -2.5292 -4.84452 0
M  V30 9296 H 886.4 -0.350867 -0.74888 0
M  V30 9297 H 888.946 -1.32098 -1.06527 0
M  V30 9298 H 887.718 -2.82643 -2.70607 0
M  V30 9299 H 887.341 -1.43463 -3.70815 0
M  V30 9300 N 888.338 1.20213 -1.01915 0
M  V30 9301 C 889.615 1.85348 -0.62495 0
M  V30 9302 C 889.995 1.91101 0.896854 0
M  V30 9303 O 889.343 1.42075 1.78961 0
M  V30 9304 C 889.553 3.24849 -1.27571 0
M  V30 9305 C 890.901 4.01107 -1.39277 0
M  V30 9306 O 891.925 3.34211 -1.23212 0
M  V30 9307 O 890.784 5.20914 -1.6526 0
M  V30 9308 H 887.878 0.798303 -0.215965 0
M  V30 9309 H 890.424 1.27782 -1.11669 0
M  V30 9310 H 889.196 3.1544 -2.31545 0
M  V30 9311 H 888.819 3.90049 -0.77122 0
M  V30 9312 N 889.816 0.795718 1.36037 0
M  V30 9313 C 891.063 0.371024 1.99072 0
M  V30 9314 C 891.391 -1.05896 1.63145 0
M  V30 9315 O 890.646 -1.7474 0.881163 0
M  V30 9316 C 890.945 0.489038 3.54038 0
M  V30 9317 C 890.611 1.88075 4.09803 0
M  V30 9318 C 889.273 2.26152 4.24745 0
M  V30 9319 C 891.625 2.79174 4.40126 0
M  V30 9320 C 888.953 3.54718 4.67324 0
M  V30 9321 C 891.305 4.07175 4.8414 0
M  V30 9322 C 889.969 4.45266 4.97287 0
M  V30 9323 H 889.239 0.135767 0.728456 0
M  V30 9324 H 891.886 1.0144 1.62426 0
M  V30 9325 H 890.191 -0.237823 3.91078 0
M  V30 9326 H 891.888 0.141374 4.00751 0
M  V30 9327 H 888.478 1.57488 3.98617 0
M  V30 9328 H 892.662 2.51009 4.28145 0
M  V30 9329 H 887.918 3.84093 4.75691 0
M  V30 9330 H 892.092 4.77875 5.06565 0
M  V30 9331 H 889.719 5.44943 5.30038 0
M  V30 9332 N 891.294 -1.47756 0.548274 0
M  V30 9333 C 892.226 -2.27921 -0.24177 0
M  V30 9334 C 893.239 -1.36471 -0.887658 0
M  V30 9335 O 894.428 -1.6137 -0.763016 0
M  V30 9336 C 891.528 -3.10449 -1.35922 0
M  V30 9337 C 890.701 -4.298 -0.811808 0
M  V30 9338 C 889.76 -4.93994 -1.81264 0
M  V30 9339 O 888.786 -5.52657 -1.3623 0
M  V30 9340 N 889.988 -4.87882 -3.14566 0
M  V30 9341 H 892.753 -2.96365 0.445848 0
M  V30 9342 H 890.314 -1.57286 0.383769 0
M  V30 9343 H 892.306 -3.50261 -2.02729 0
M  V30 9344 H 890.876 -2.44306 -1.95021 0
M  V30 9345 H 890.096 -3.94186 0.0327929 0
M  V30 9346 H 891.384 -5.0702 -0.425272 0
M  V30 9347 H 890.782 -4.41405 -3.53805 0
M  V30 9348 H 889.339 -5.3174 -3.76956 0
M  V30 9349 N 892.772 -0.284283 -1.55015 0
M  V30 9350 C 894.021 0.33055 -1.98973 0
M  V30 9351 C 894.334 1.56284 -1.17621 0
M  V30 9352 O 895.54 2.2512 -1.51767 0
M  V30 9353 C 893.996 0.639457 -3.54174 0
M  V30 9354 C 893.604 -0.573543 -4.44313 0
M  V30 9355 C 895.348 1.21641 -4.06699 0
M  V30 9356 C 893.255 -0.238715 -5.90918 0
M  V30 9357 H 892.185 0.127285 -0.743179 0
M  V30 9358 H 894.836 -0.390372 -1.793 0
M  V30 9359 H 893.218 1.41953 -3.69683 0
M  V30 9360 H 894.392 -1.3502 -4.40575 0
M  V30 9361 H 892.707 -1.06797 -4.02472 0
M  V30 9362 H 895.304 1.48088 -5.13784 0
M  V30 9363 H 895.647 2.15328 -3.56286 0
M  V30 9364 H 896.18 0.498422 -3.94665 0
M  V30 9365 H 892.919 -1.1437 -6.45445 0
M  V30 9366 H 892.439 0.500997 -5.97704 0
M  V30 9367 H 894.118 0.165774 -6.46788 0
M  V30 9368 N 894.251 1.57596 -0.0117121 0
M  V30 9369 C 895.481 1.95077 0.680346 0
M  V30 9370 C 895.889 0.885793 1.67184 0
M  V30 9371 O 895.232 -0.142723 1.83145 0
M  V30 9372 C 895.294 3.28611 1.45791 0
M  V30 9373 C 894.958 4.52682 0.626706 0
M  V30 9374 C 895.955 5.19821 -0.0906223 0
M  V30 9375 C 893.64 4.99064 0.569229 0
M  V30 9376 C 895.634 6.31649 -0.854289 0
M  V30 9377 C 893.321 6.10779 -0.198155 0
M  V30 9378 C 894.319 6.76929 -0.908636 0
M  V30 9379 O 894.007 7.86501 -1.66348 0
M  V30 9380 H 893.739 0.647663 0.193672 0
M  V30 9381 H 896.293 2.05305 -0.0624969 0
M  V30 9382 H 894.523 3.14824 2.2455 0
M  V30 9383 H 896.212 3.51119 2.03642 0
M  V30 9384 H 896.978 4.84968 -0.0554421 0
M  V30 9385 H 892.857 4.47393 1.11178 0
M  V30 9386 H 896.401 6.83215 -1.40937 0
M  V30 9387 H 892.298 6.45072 -0.235114 0
M  V30 9388 H 893.066 8.03078 -1.58141 0
M  V30 9389 N 895.729 -0.261212 1.5542 0
M  V30 9390 C 896.976 -0.99123 1.76581 0
M  V30 9391 C 897.304 -1.85854 0.573457 0
M  V30 9392 O 896.559 -1.90604 -0.443705 0
M  V30 9393 C 896.858 -1.89395 3.03091 0
M  V30 9394 C 896.524 -1.18318 4.351 0
M  V30 9395 C 895.186 -0.986688 4.70975 0
M  V30 9396 C 897.538 -0.678299 5.16767 0
M  V30 9397 C 894.866 -0.272788 5.86065 0
M  V30 9398 C 897.218 0.0220646 6.32596 0
M  V30 9399 C 895.882 0.230161 6.67103 0
M  V30 9400 H 895.152 -0.362717 0.646156 0
M  V30 9401 H 897.799 -0.262506 1.89692 0
M  V30 9402 H 896.104 -2.68927 2.8493 0
M  V30 9403 H 897.801 -2.46022 3.16661 0
M  V30 9404 H 894.391 -1.34625 4.06908 0
M  V30 9405 H 898.575 -0.817691 4.89518 0
M  V30 9406 H 893.831 -0.10095 6.11317 0
M  V30 9407 H 898.005 0.420981 6.95126 0
M  V30 9408 H 895.632 0.785312 7.56133 0
M  V30 9409 N 897.207 -1.48554 -0.526253 0
M  V30 9410 C 898.432 -1.60686 -1.31129 0
M  V30 9411 C 898.857 -0.268701 -1.86171 0
M  V30 9412 O 898.215 0.760167 -1.64594 0
M  V30 9413 C 898.263 -2.65938 -2.43536 0
M  V30 9414 O 897.367 -2.23356 -3.46678 0
M  V30 9415 H 896.708 -0.538691 -0.388211 0
M  V30 9416 H 899.238 -1.94567 -0.632826 0
M  V30 9417 H 899.248 -2.87327 -2.89668 0
M  V30 9418 H 897.923 -3.63085 -2.02835 0
M  V30 9419 H 896.5 -2.12196 -3.06639 0
M  V30 9420 N 898.685 0.775411 -1.37205 0
M  V30 9421 C 899.913 1.56446 -1.35397 0
M  V30 9422 C 900.328 1.887 0.0615437 0
M  V30 9423 O 899.685 1.51178 1.02233 0
M  V30 9424 C 899.736 2.87697 -2.18889 0
M  V30 9425 O 899.457 2.56828 -3.54924 0
M  V30 9426 C 900.958 3.81944 -2.25019 0
M  V30 9427 H 898.178 0.484792 -0.463916 0
M  V30 9428 H 900.722 0.961346 -1.80495 0
M  V30 9429 H 898.877 3.44442 -1.7731 0
M  V30 9430 H 899.291 3.40851 -3.98649 0
M  V30 9431 H 900.765 4.71055 -2.87769 0
M  V30 9432 H 901.242 4.20811 -1.25757 0
M  V30 9433 H 901.848 3.3113 -2.66895 0
M  V30 9434 N 900.163 1.21714 1.00117 0
M  V30 9435 C 901.073 0.99597 2.12409 0
M  V30 9436 C 902.089 -0.0531431 1.73919 0
M  V30 9437 O 903.265 0.137757 2.00928 0
M  V30 9438 C 900.33 0.567593 3.42022 0
M  V30 9439 C 899.391 1.68936 3.94663 0
M  V30 9440 C 898.624 1.28133 5.1809 0
M  V30 9441 O 898.847 0.156574 5.70185 0
M  V30 9442 O 897.781 2.0947 5.64275 0
M  V30 9443 H 901.607 1.93657 2.33946 0
M  V30 9444 H 899.192 1.00236 1.10784 0
M  V30 9445 H 901.074 0.338664 4.20037 0
M  V30 9446 H 899.749 -0.34424 3.21864 0
M  V30 9447 H 898.656 1.97274 3.17858 0
M  V30 9448 H 899.989 2.57876 4.19238 0
M  V30 9449 N 901.641 -1.19671 1.02551 0
M  V30 9450 C 902.551 -2.26441 0.613329 0
M  V30 9451 C 903.567 -1.70375 -0.353339 0
M  V30 9452 O 904.743 -2.0028 -0.212064 0
M  V30 9453 C 901.808 -3.46684 -0.0329028 0
M  V30 9454 C 900.869 -4.17945 0.980837 0
M  V30 9455 C 900.102 -5.32448 0.36535 0
M  V30 9456 O 900.325 -5.64291 -0.832596 0
M  V30 9457 O 899.259 -5.92012 1.08652 0
M  V30 9458 H 903.085 -2.63932 1.50246 0
M  V30 9459 H 900.67 -1.2646 0.795502 0
M  V30 9460 H 902.552 -4.1956 -0.393395 0
M  V30 9461 H 901.227 -3.1105 -0.896089 0
M  V30 9462 H 900.134 -3.47204 1.39286 0
M  V30 9463 H 901.467 -4.57542 1.81428 0
M  V30 9464 N 903.119 -0.802921 -1.35613 0
M  V30 9465 C 904.051 -0.168461 -2.2858 0
M  V30 9466 C 905.064 0.630123 -1.50111 0
M  V30 9467 O 906.253 0.463086 -1.72388 0
M  V30 9468 C 903.353 0.783943 -3.29708 0
M  V30 9469 C 902.526 0.0325165 -4.37388 0
M  V30 9470 C 901.585 0.902859 -5.18396 0
M  V30 9471 O 900.611 0.355144 -5.68091 0
M  V30 9472 N 901.813 2.22542 -5.36149 0
M  V30 9473 H 904.578 -0.96709 -2.83668 0
M  V30 9474 H 902.139 -0.658043 -1.47924 0
M  V30 9475 H 904.131 1.37034 -3.80794 0
M  V30 9476 H 902.701 1.48339 -2.75162 0
M  V30 9477 H 901.921 -0.735057 -3.87286 0
M  V30 9478 H 903.209 -0.485499 -5.06478 0
M  V30 9479 H 902.607 2.69439 -4.97412 0
M  V30 9480 H 901.164 2.76113 -5.90428 0
M  V30 9481 N 904.597 1.47463 -0.556102 0
M  V30 9482 C 905.837 2.04372 -0.0339743 0
M  V30 9483 C 906.201 1.42125 1.29091 0
M  V30 9484 O 907.402 1.90074 1.90066 0
M  V30 9485 C 905.673 3.57352 0.0585316 0
M  V30 9486 S 907.232 4.35625 0.526943 0
M  V30 9487 H 904.05 0.710574 -0.0246115 0
M  V30 9488 H 906.652 1.80848 -0.742585 0
M  V30 9489 H 905.356 4.00181 -0.910116 0
M  V30 9490 H 904.887 3.85371 0.790731 0
M  V30 9491 H 906.902 4.62911 1.78683 0
M  V30 9492 N 906.075 0.2925 1.54862 0
M  V30 9493 C 907.3 -0.32494 2.04839 0
M  V30 9494 C 907.725 -1.47381 1.16877 0
M  V30 9495 O 907.083 -1.80492 0.171028 0
M  V30 9496 C 907.131 -0.76694 3.5235 0
M  V30 9497 O 906.235 -1.87256 3.67436 0
M  V30 9498 H 905.576 -0.0645195 0.660858 0
M  V30 9499 H 908.106 0.431867 1.9999 0
M  V30 9500 H 908.116 -1.05804 3.94043 0
M  V30 9501 H 906.791 0.0735212 4.15835 0
M  V30 9502 H 905.368 -1.58266 3.37648 0
M  V30 9503 N 907.553 -1.57587 0.0200696 0
M  V30 9504 C 908.969 -1.56018 -0.336237 0
M  V30 9505 C 909.169 -1.02478 -1.73495 0
M  V30 9506 O 908.225 -0.667487 -2.43518 0
M  V30 9507 C 909.538 -3.00079 -0.193112 0
M  V30 9508 C 911.086 -3.11863 -0.266557 0
M  V30 9509 C 911.561 -4.57747 -0.152326 0
M  V30 9510 N 913.052 -4.62726 -0.209596 0
M  V30 9511 C 913.787 -5.73217 -0.144855 0
M  V30 9512 N 913.283 -6.92794 -0.0295487 0
M  V30 9513 N 915.076 -5.61751 -0.198184 0
M  V30 9514 H 907.227 -1.90722 0.93482 0
M  V30 9515 H 909.49 -0.876909 0.360186 0
M  V30 9516 H 909.196 -3.43167 0.770036 0
M  V30 9517 H 909.07 -3.64593 -0.967029 0
M  V30 9518 H 911.457 -2.68693 -1.22016 0
M  V30 9519 H 911.538 -2.50087 0.53758 0
M  V30 9520 H 911.182 -5.01595 0.797817 0
M  V30 9521 H 911.112 -5.17491 -0.97521 0
M  V30 9522 H 913.603 -3.76713 -0.299229 0
M  V30 9523 H 913.916 -7.72799 0.0134071 0
M  V30 9524 H 912.261 -6.95 0.00510737 0
M  V30 9525 H 915.452 -4.67222 -0.286603 0
M  V30 9526 H 915.625 -6.47839 -0.144266 0
M  V30 9527 N 909.032 0.252966 -1.55557 0
M  V30 9528 C 910.279 0.981852 -1.77104 0
M  V30 9529 C 910.607 1.85547 -0.583305 0
M  V30 9530 O 909.862 1.90836 0.43359 0
M  V30 9531 C 910.161 1.87785 -3.04091 0
M  V30 9532 C 909.827 1.16009 -4.35721 0
M  V30 9533 C 908.489 0.961697 -4.71492 0
M  V30 9534 C 910.841 0.650884 -5.1712 0
M  V30 9535 C 908.169 0.241704 -5.86202 0
M  V30 9536 C 910.521 -0.0556124 -6.32576 0
M  V30 9537 C 909.185 -0.265536 -6.66972 0
M  V30 9538 H 908.455 0.359285 -0.64807 0
M  V30 9539 H 911.102 0.252443 -1.89829 0
M  V30 9540 H 909.407 2.67412 -2.86353 0
M  V30 9541 H 911.104 2.44339 -3.17961 0
M  V30 9542 H 907.694 1.32465 -4.07616 0
M  V30 9543 H 911.878 0.791719 -4.89944 0
M  V30 9544 H 907.134 0.0685292 -6.11362 0
M  V30 9545 H 911.308 -0.457839 -6.94893 0
M  V30 9546 H 908.935 -0.8254 -7.55706 0
M  V30 9547 N 910.51 1.48831 0.518367 0
M  V30 9548 C 911.757 1.57439 1.27355 0
M  V30 9549 C 912.085 0.25338 1.92843 0
M  V30 9550 O 911.34 -0.757323 1.80452 0
M  V30 9551 C 911.639 2.67003 2.3758 0
M  V30 9552 C 911.305 4.09069 1.89667 0
M  V30 9553 C 909.967 4.47733 1.76319 0
M  V30 9554 C 912.319 4.98052 1.53603 0
M  V30 9555 C 909.647 5.73173 1.25258 0
M  V30 9556 C 911.999 6.23992 1.04001 0
M  V30 9557 C 910.663 6.61503 0.892784 0
M  V30 9558 H 909.933 0.57611 0.466023 0
M  V30 9559 H 912.58 1.82595 0.577166 0
M  V30 9560 H 910.885 2.35751 3.12936 0
M  V30 9561 H 912.582 2.70876 2.95681 0
M  V30 9562 H 909.172 3.7854 2.01011 0
M  V30 9563 H 913.356 4.68849 1.62771 0
M  V30 9564 H 908.612 6.0095 1.12557 0
M  V30 9565 H 912.786 6.92331 0.751706 0
M  V30 9566 H 910.413 7.58587 0.494939 0
M  V30 9567 N 911.988 -0.768124 1.37614 0
M  V30 9568 C 913.213 -1.56239 1.36397 0
M  V30 9569 C 913.638 -1.8804 -0.0475839 0
M  V30 9570 O 912.996 -1.495 -1.02564 0
M  V30 9571 C 913.044 -2.84716 2.21289 0
M  V30 9572 O 912.148 -3.79249 1.62001 0
M  V30 9573 H 911.489 -0.473119 0.465891 0
M  V30 9574 H 914.019 -0.950415 1.81186 0
M  V30 9575 H 914.029 -3.33784 2.34632 0
M  V30 9576 H 912.704 -2.60899 3.2389 0
M  V30 9577 H 911.281 -3.37904 1.57719 0
M  V30 9578 N 913.466 -1.22244 -0.994698 0
M  V30 9579 C 914.396 -1.01513 -2.10279 0
M  V30 9580 C 915.377 0.0633365 -1.69982 0
M  V30 9581 O 916.562 -0.0985268 -1.9395 0
M  V30 9582 C 913.692 -0.59016 -3.42249 0
M  V30 9583 C 912.646 -1.61436 -3.96387 0
M  V30 9584 C 911.972 -1.04528 -5.24383 0
M  V30 9585 C 913.272 -3.00388 -4.27276 0
M  V30 9586 H 914.966 -1.94194 -2.2788 0
M  V30 9587 H 912.512 -0.935094 -1.09508 0
M  V30 9588 H 914.465 -0.432254 -4.19177 0
M  V30 9589 H 913.189 0.372308 -3.24471 0
M  V30 9590 H 911.848 -1.76001 -3.21589 0
M  V30 9591 H 911.496 -0.0742225 -5.02945 0
M  V30 9592 H 911.196 -1.72949 -5.61571 0
M  V30 9593 H 912.72 -0.898922 -6.03947 0
M  V30 9594 H 914.134 -2.89207 -4.95007 0
M  V30 9595 H 912.531 -3.65916 -4.75631 0
M  V30 9596 H 913.601 -3.50456 -3.35125 0
M  V30 9597 N 914.944 1.19125 -1.03184 0
M  V30 9598 C 916.19 1.89163 -0.731111 0
M  V30 9599 C 916.523 1.79604 0.738662 0
M  V30 9600 O 915.798 1.19037 1.53819 0
M  V30 9601 C 916.081 3.39986 -1.18666 0
M  V30 9602 C 915.934 3.58401 -2.71788 0
M  V30 9603 C 917.253 4.33316 -0.769772 0
M  V30 9604 H 914.372 0.686908 -0.267069 0
M  V30 9605 H 917.014 1.40205 -1.28229 0
M  V30 9606 H 915.164 3.81813 -0.717736 0
M  V30 9607 H 916.836 3.25727 -3.26649 0
M  V30 9608 H 915.079 3.01355 -3.12038 0
M  V30 9609 H 915.75 4.64189 -2.98719 0
M  V30 9610 H 918.226 3.9922 -1.17314 0
M  V30 9611 H 917.102 5.37427 -1.11637 0
M  V30 9612 H 917.363 4.40884 0.327681 0
M  V30 9613 N 916.422 0.810101 1.35185 0
M  V30 9614 C 917.369 0.220927 2.2974 0
M  V30 9615 C 918.339 -0.647024 1.5298 0
M  V30 9616 O 919.524 -0.591367 1.81404 0
M  V30 9617 C 916.664 -0.62167 3.39454 0
M  V30 9618 C 915.777 0.267104 4.31173 0
M  V30 9619 C 914.912 -0.583833 5.27982 0
M  V30 9620 C 913.951 0.305123 6.11339 0
M  V30 9621 N 913.088 -0.505992 7.00274 0
M  V30 9622 H 917.928 1.03266 2.79536 0
M  V30 9623 H 915.465 0.520768 1.37573 0
M  V30 9624 H 917.423 -1.12539 4.01735 0
M  V30 9625 H 916.053 -1.39863 2.90926 0
M  V30 9626 H 915.105 0.88895 3.69867 0
M  V30 9627 H 916.417 0.951182 4.89647 0
M  V30 9628 H 915.571 -1.15254 5.95652 0
M  V30 9629 H 914.31 -1.30146 4.70014 0
M  V30 9630 H 913.315 0.886075 5.42613 0
M  V30 9631 H 914.54 1.02067 6.71386 0
M  V30 9632 H 912.486 -1.20753 6.4479 0
M  V30 9633 H 912.403 0.119966 7.55905 0
M  V30 9634 H 913.671 -1.05787 7.72288 0
M  V30 9635 N 917.9 -1.47166 0.563914 0
M  V30 9636 C 918.81 -2.33885 -0.182977 0
M  V30 9637 C 919.826 -1.48605 -0.905132 0
M  V30 9638 O 921.002 -1.81518 -0.872527 0
M  V30 9639 C 918.067 -3.25433 -1.19558 0
M  V30 9640 C 917.128 -4.26607 -0.480129 0
M  V30 9641 C 916.361 -5.1378 -1.44449 0
M  V30 9642 O 916.584 -5.03531 -2.67979 0
M  V30 9643 O 915.518 -5.94109 -0.965321 0
M  V30 9644 H 919.344 -2.99065 0.528544 0
M  V30 9645 H 916.929 -1.45834 0.324468 0
M  V30 9646 H 918.811 -3.81964 -1.77993 0
M  V30 9647 H 917.486 -2.62873 -1.8889 0
M  V30 9648 H 916.393 -3.73817 0.145583 0
M  V30 9649 H 917.726 -4.919 0.171868 0
M  V30 9650 N 919.378 -0.300708 -1.54705 0
M  V30 9651 C 920.311 0.617513 -2.19686 0
M  V30 9652 C 921.289 1.1331 -1.16617 0
M  V30 9653 O 922.473 1.20135 -1.45258 0
M  V30 9654 C 919.6 1.84486 -2.84047 0
M  V30 9655 C 918.646 1.46253 -4.0064 0
M  V30 9656 S 919.479 0.518718 -5.32982 0
M  V30 9657 C 920.635 1.75387 -6.00825 0
M  V30 9658 H 920.868 0.0654548 -2.97228 0
M  V30 9659 H 918.401 -0.0848492 -1.54167 0
M  V30 9660 H 920.359 2.54921 -3.21754 0
M  V30 9661 H 919.02 2.36808 -2.06351 0
M  V30 9662 H 918.213 2.37648 -4.44454 0
M  V30 9663 H 917.815 0.838129 -3.64488 0
M  V30 9664 H 920.107 2.69448 -6.21614 0
M  V30 9665 H 921.05 1.35829 -6.9495 0
M  V30 9666 H 921.458 1.93045 -5.30466 0
M  V30 9667 N 920.856 1.57574 -0.0284266 0
M  V30 9668 C 922.105 1.9095 0.649704 0
M  V30 9669 C 922.418 0.906421 1.7333 0
M  V30 9670 O 923.624 1.1314 2.46803 0
M  V30 9671 C 922.08 3.39061 1.20687 0
M  V30 9672 C 921.688 4.47726 0.156597 0
M  V30 9673 C 923.432 3.81505 1.86156 0
M  V30 9674 C 921.339 5.86935 0.725365 0
M  V30 9675 H 920.269 0.712589 0.24644 0
M  V30 9676 H 922.92 1.83261 -0.0936143 0
M  V30 9677 H 921.302 3.41679 2.00178 0
M  V30 9678 H 922.476 4.56667 -0.6158 0
M  V30 9679 H 920.791 4.14481 -0.399288 0
M  V30 9680 H 923.388 4.82865 2.29665 0
M  V30 9681 H 923.731 3.16529 2.70398 0
M  V30 9682 H 924.264 3.81307 1.13356 0
M  V30 9683 H 921.003 6.55453 -0.0789081 0
M  V30 9684 H 920.523 5.81602 1.46627 0
M  V30 9685 H 922.202 6.35483 1.21532 0
M  V30 9686 N 922.334 -0.244713 1.55689 0
M  V30 9687 C 923.562 -0.989944 1.8168 0
M  V30 9688 C 923.977 -1.78863 0.604449 0
M  V30 9689 O 923.334 -1.77437 -0.426907 0
M  V30 9690 C 923.385 -1.92607 3.05916 0
M  V30 9691 O 923.106 -1.1597 4.22472 0
M  V30 9692 C 924.607 -2.78711 3.44724 0
M  V30 9693 H 921.827 -0.2912 0.604519 0
M  V30 9694 H 924.371 -0.266938 2.0275 0
M  V30 9695 H 922.526 -2.60333 2.8689 0
M  V30 9696 H 922.94 -1.79311 4.92898 0
M  V30 9697 H 924.414 -3.40141 4.34751 0
M  V30 9698 H 924.891 -3.49935 2.6541 0
M  V30 9699 H 925.497 -2.16435 3.66109 0
M  V30 9700 N 923.813 -1.49104 -0.510467 0
M  V30 9701 C 924.761 -1.65547 -1.63392 0
M  V30 9702 C 925.755 -0.521522 -1.61172 0
M  V30 9703 O 926.961 -0.700865 -1.65795 0
M  V30 9704 H 923.336 -0.521843 -0.541464 0
M  V30 9705 H 925.307 -2.59864 -1.46673 0
M  V30 9706 C 924.056 -1.73051 -3.01577 0
M  V30 9707 H 923.379 -2.59676 -3.03987 0
M  V30 9708 H 924.819 -1.88594 -3.79748 0
M  V30 9709 C 923.278 -0.47328 -3.33559 0
M  V30 9710 O 923.808 0.405239 -3.99651 0
M  V30 9711 N 922.014 -0.339074 -2.88615 0
M  V30 9712 H 921.561 -1.05497 -2.35007 0
M  V30 9713 H 921.519 0.501061 -3.10382 0
M  V30 9714 N 925.291 0.760815 -1.38019 0
M  V30 9715 C 926.519 1.55001 -1.37048 0
M  V30 9716 C 926.934 1.88754 0.0415261 0
M  V30 9717 O 926.291 1.52254 1.00624 0
M  V30 9718 C 926.342 2.8536 -2.21928 0
M  V30 9719 O 926.063 2.53049 -3.57628 0
M  V30 9720 C 927.564 3.79536 -2.29057 0
M  V30 9721 H 924.784 0.479844 -0.469032 0
M  V30 9722 H 927.328 0.942148 -1.81504 0
M  V30 9723 H 925.483 3.42542 -1.80953 0
M  V30 9724 H 925.897 3.36604 -4.02241 0
M  V30 9725 H 927.371 4.67977 -2.92749 0
M  V30 9726 H 927.848 4.19453 -1.30213 0
M  V30 9727 H 928.454 3.28281 -2.70392 0
M  V30 9728 N 926.769 1.22769 0.988202 0
M  V30 9729 C 927.732 1.00325 2.06076 0
M  V30 9730 C 928.732 -0.0320618 1.60768 0
M  V30 9731 O 929.922 0.206912 1.72967 0
M  V30 9732 C 927.054 0.516376 3.36966 0
M  V30 9733 H 928.247 1.95499 2.27421 0
M  V30 9734 H 925.8 1.04704 1.16047 0
M  V30 9735 H 926.535 -0.439498 3.21308 0
M  V30 9736 H 926.32 1.26337 3.71189 0
M  V30 9737 H 927.81 0.37974 4.1587 0
M  V30 9738 N 928.247 -1.18576 1.03814 0
M  V30 9739 C 929.495 -1.88121 0.738574 0
M  V30 9740 C 929.816 -1.80587 -0.735744 0
M  V30 9741 O 929.086 -1.22251 -1.53074 0
M  V30 9742 H 927.666 -0.696417 0.270208 0
M  V30 9743 H 930.328 -1.43912 1.31435 0
M  V30 9744 H 929.424 -2.94222 1.04115 0
M  V30 9745 N 929.725 -0.817259 -1.34754 0
M  V30 9746 C 930.95 -0.414423 -2.03217 0
M  V30 9747 C 931.375 0.970037 -1.61158 0
M  V30 9748 O 930.733 1.63016 -0.793436 0
M  V30 9749 C 930.781 -0.518087 -3.56859 0
M  V30 9750 O 929.885 0.464314 -4.09778 0
M  V30 9751 H 929.226 -0.171454 -0.641482 0
M  V30 9752 H 931.756 -1.10611 -1.72123 0
M  V30 9753 H 931.766 -0.391779 -4.06115 0
M  V30 9754 H 930.441 -1.52786 -3.86819 0
M  V30 9755 H 929.018 0.297361 -3.71712 0
M  V30 9756 N 931.203 1.46865 -0.571711 0
M  V30 9757 C 932.431 2.06818 -0.0583975 0
M  V30 9758 C 932.846 1.42218 1.24175 0
M  V30 9759 O 932.203 0.523655 1.74826 0
M  V30 9760 C 932.254 3.61281 0.125673 0
M  V30 9761 O 931.975 4.23462 -1.123 0
M  V30 9762 C 933.476 4.38137 0.674604 0
M  V30 9763 H 930.696 0.668948 -0.052438 0
M  V30 9764 H 933.24 1.88656 -0.789251 0
M  V30 9765 H 931.395 3.78908 0.806707 0
M  V30 9766 H 931.809 5.16192 -0.929869 0
M  V30 9767 H 933.283 5.46845 0.752626 0
M  V30 9768 H 933.76 4.05419 1.68915 0
M  V30 9769 H 934.366 4.2529 0.0287979 0
M  V30 9770 N 932.681 0.308908 1.54543 0
M  V30 9771 C 933.927 -0.298478 2.00592 0
M  V30 9772 C 934.26 -1.52929 1.19692 0
M  V30 9773 O 933.535 -1.9254 0.27542 0
M  V30 9774 C 933.818 -0.647218 3.54236 0
M  V30 9775 C 933.671 0.593284 4.4587 0
M  V30 9776 C 934.99 -1.47064 4.14801 0
M  V30 9777 H 932.109 -0.107012 0.72919 0
M  V30 9778 H 934.751 0.422578 1.85241 0
M  V30 9779 H 932.901 -1.26153 3.67447 0
M  V30 9780 H 934.573 1.2317 4.44552 0
M  V30 9781 H 932.816 1.22501 4.16144 0
M  V30 9782 H 933.487 0.305018 5.51157 0
M  V30 9783 H 935.963 -0.951511 4.05075 0
M  V30 9784 H 934.839 -1.68343 5.22448 0
M  V30 9785 H 935.1 -2.4623 3.67183 0
M  V30 9786 N 934.159 -1.57557 0.0367827 0
M  V30 9787 C 935.069 -2.14148 -0.958017 0
M  V30 9788 C 936.085 -1.09564 -1.35173 0
M  V30 9789 O 937.261 -1.4166 -1.43158 0
M  V30 9790 C 934.326 -2.6636 -2.21931 0
M  V30 9791 C 933.387 -3.85688 -1.8853 0
M  V30 9792 C 932.62 -4.35401 -3.08645 0
M  V30 9793 O 932.843 -3.8425 -4.21554 0
M  V30 9794 O 931.777 -5.27158 -2.90497 0
M  V30 9795 H 935.603 -2.99442 -0.506797 0
M  V30 9796 H 933.188 -1.48259 -0.184275 0
M  V30 9797 H 935.07 -2.99976 -2.9596 0
M  V30 9798 H 933.745 -1.84145 -2.66219 0
M  V30 9799 H 932.652 -3.56985 -1.11861 0
M  V30 9800 H 933.985 -4.69089 -1.49052 0
M  V30 9801 N 935.637 0.236453 -1.55816 0
M  V30 9802 C 936.567 1.29639 -1.94206 0
M  V30 9803 C 937.548 1.49667 -0.808319 0
M  V30 9804 O 938.733 1.621 -1.06945 0
M  V30 9805 C 935.863 2.64914 -2.24584 0
M  V30 9806 C 934.817 2.59565 -3.40308 0
M  V30 9807 C 934.143 3.98732 -3.56254 0
M  V30 9808 C 935.443 2.15642 -4.75706 0
M  V30 9809 H 937.137 0.977552 -2.82992 0
M  V30 9810 H 934.683 0.468804 -1.36155 0
M  V30 9811 H 936.636 3.39209 -2.50031 0
M  V30 9812 H 935.36 2.98455 -1.32636 0
M  V30 9813 H 934.019 1.87728 -3.14887 0
M  V30 9814 H 933.667 4.29556 -2.61707 0
M  V30 9815 H 933.367 3.96039 -4.34082 0
M  V30 9816 H 934.891 4.74711 -3.84033 0
M  V30 9817 H 936.305 2.79673 -5.00456 0
M  V30 9818 H 934.702 2.24039 -5.56711 0
M  V30 9819 H 935.772 1.10831 -4.72064 0
M  V30 9820 N 937.115 1.49373 0.502552 0
M  V30 9821 C 938.025 1.68659 1.63068 0
M  V30 9822 C 939.041 0.569182 1.64427 0
M  V30 9823 O 940.217 0.843695 1.82876 0
M  V30 9824 C 937.282 1.74745 2.99441 0
M  V30 9825 C 936.343 2.98311 3.08721 0
M  V30 9826 C 935.576 3.04097 4.38589 0
M  V30 9827 O 935.799 2.17519 5.27297 0
M  V30 9828 O 934.733 3.96544 4.52809 0
M  V30 9829 H 938.559 2.64226 1.49727 0
M  V30 9830 H 936.144 1.33096 0.67867 0
M  V30 9831 H 938.026 1.8111 3.80496 0
M  V30 9832 H 936.701 0.823565 3.13048 0
M  V30 9833 H 935.608 2.97465 2.2686 0
M  V30 9834 H 936.941 3.90174 3.00041 0
M  V30 9835 N 938.594 -0.753485 1.38421 0
M  V30 9836 C 939.842 -1.50962 1.34368 0
M  V30 9837 C 940.163 -1.94889 -0.0656895 0
M  V30 9838 O 939.433 -1.67652 -1.01339 0
M  V30 9839 H 938.013 -0.559967 0.494415 0
M  V30 9840 H 940.675 -0.895665 1.73101 0
M  V30 9841 H 939.771 -2.40048 1.99458 0
M  V30 9842 N 940.072 -1.23292 -0.981677 0
M  V30 9843 C 940.982 -1.02964 -2.10798 0
M  V30 9844 C 941.998 0.0254674 -1.73981 0
M  V30 9845 O 943.174 -0.169706 -2.00684 0
M  V30 9846 C 940.239 -0.621934 -3.41076 0
M  V30 9847 C 939.3 -1.75194 -3.91926 0
M  V30 9848 C 938.533 -1.36359 -5.15986 0
M  V30 9849 O 938.756 -0.247265 -5.69864 0
M  V30 9850 O 937.69 -2.18421 -5.60871 0
M  V30 9851 H 941.516 -1.97354 -2.30836 0
M  V30 9852 H 939.101 -1.01986 -1.09175 0
M  V30 9853 H 940.983 -0.405446 -4.19445 0
M  V30 9854 H 939.658 0.29299 -3.22371 0
M  V30 9855 H 938.565 -2.02305 -3.1468 0
M  V30 9856 H 939.898 -2.64513 -4.15083 0
M  V30 9857 N 941.55 1.18024 -1.04442 0
M  V30 9858 C 942.778 1.92032 -0.770161 0
M  V30 9859 C 943.193 1.76391 0.673181 0
M  V30 9860 O 942.55 1.09604 1.45922 0
M  V30 9861 C 942.601 3.43328 -1.13173 0
M  V30 9862 O 942.322 3.5848 -2.51841 0
M  V30 9863 C 943.823 4.34427 -0.882523 0
M  V30 9864 H 941.043 0.609518 -0.280586 0
M  V30 9865 H 943.587 1.49711 -1.39308 0
M  V30 9866 H 941.742 3.83423 -0.553704 0
M  V30 9867 H 942.156 4.52166 -2.65794 0
M  V30 9868 H 943.63 5.39123 -1.18533 0
M  V30 9869 H 944.107 4.3882 0.18257 0
M  V30 9870 H 944.713 4.00035 -1.44403 0
M  V30 9871 N 943.028 0.824394 1.34319 0
M  V30 9872 C 944.305 0.335692 1.92698 0
M  V30 9873 C 944.685 -1.17715 1.75232 0
M  V30 9874 O 944.033 -1.98493 1.13194 0
M  V30 9875 C 944.243 0.766647 3.40475 0
M  V30 9876 C 945.591 0.766323 4.17627 0
M  V30 9877 O 946.615 0.709321 3.49066 0
M  V30 9878 O 945.474 0.840856 5.39992 0
M  V30 9879 H 942.568 0.0919996 0.821867 0
M  V30 9880 H 945.114 0.909282 1.43283 0
M  V30 9881 H 943.886 1.80859 3.46995 0
M  V30 9882 H 943.509 0.168833 3.97241 0
M  V30 9883 N 944.506 -1.46559 0.579492 0
M  V30 9884 C 945.754 -2.02 0.0637157 0
M  V30 9885 C 946.075 -1.45378 -1.29962 0
M  V30 9886 O 945.345 -0.637262 -1.85245 0
M  V30 9887 H 943.925 -0.746717 0.0205638 0
M  V30 9888 H 946.587 -1.79702 0.754544 0
M  V30 9889 H 945.683 -3.12099 -0.00770254 0
M  V30 9890 N 945.984 -0.3171 -1.54377 0
M  V30 9891 C 947.261 0.341348 -1.92598 0
M  V30 9892 C 947.641 1.70402 -1.24605 0
M  V30 9893 O 946.989 2.25191 -0.387448 0
M  V30 9894 C 947.199 0.440003 -3.46215 0
M  V30 9895 C 948.547 0.703327 -4.18734 0
M  V30 9896 O 949.571 0.523181 -3.52337 0
M  V30 9897 O 948.43 1.05042 -5.3631 0
M  V30 9898 H 945.524 0.193696 -0.803997 0
M  V30 9899 H 948.07 -0.366341 -1.65699 0
M  V30 9900 H 946.842 -0.517299 -3.87866 0
M  V30 9901 H 946.465 1.19553 -3.792 0
M  V30 9902 N 947.462 1.57535 -0.0451378 0
M  V30 9903 C 948.69 1.96761 0.639742 0
M  V30 9904 C 949.105 0.922405 1.64734 0
M  V30 9905 O 948.462 -0.0940535 1.82257 0
M  V30 9906 C 948.513 3.36066 1.33199 0
M  V30 9907 O 948.234 4.36579 0.364757 0
M  V30 9908 C 949.735 3.90015 2.1072 0
M  V30 9909 H 946.955 0.64769 0.175324 0
M  V30 9910 H 949.499 2.04206 -0.109651 0
M  V30 9911 H 947.654 3.2979 2.03266 0
M  V30 9912 H 948.068 5.17432 0.858168 0
M  V30 9913 H 949.542 4.89785 2.54586 0
M  V30 9914 H 950.019 3.25117 2.95288 0
M  V30 9915 H 950.625 3.99609 1.45577 0
M  V30 9916 N 948.94 -0.228186 1.55939 0
M  V30 9917 C 949.87 -1.28607 1.94891 0
M  V30 9918 C 950.851 -1.49236 0.816245 0
M  V30 9919 O 952.036 -1.61531 1.07803 0
M  V30 9920 C 949.166 -2.63719 2.25986 0
M  V30 9921 C 948.12 -2.57757 3.4168 0
M  V30 9922 C 947.446 -3.96837 3.58364 0
M  V30 9923 C 948.746 -2.13116 4.76843 0
M  V30 9924 H 950.44 -0.962531 2.83506 0
M  V30 9925 H 947.986 -0.461577 1.36402 0
M  V30 9926 H 949.939 -3.37878 2.51826 0
M  V30 9927 H 948.663 -2.97747 1.34217 0
M  V30 9928 H 947.322 -1.86055 3.15878 0
M  V30 9929 H 946.97 -4.28162 2.63982 0
M  V30 9930 H 946.67 -3.93731 4.36176 0
M  V30 9931 H 948.194 -4.72668 3.86545 0
M  V30 9932 H 949.608 -2.77015 5.01932 0
M  V30 9933 H 948.005 -2.21083 5.57891 0
M  V30 9934 H 949.075 -1.08326 4.72645 0
M  V30 9935 N 950.418 -1.49637 -0.494624 0
M  V30 9936 C 951.328 -1.69522 -1.62172 0
M  V30 9937 C 952.344 -0.577894 -1.64123 0
M  V30 9938 O 953.52 -0.853382 -1.82426 0
M  V30 9939 C 950.585 -1.7633 -2.9851 0
M  V30 9940 C 949.646 -2.99944 -3.07135 0
M  V30 9941 C 948.879 -3.06419 -4.36971 0
M  V30 9942 O 949.102 -2.20312 -5.26136 0
M  V30 9943 O 948.036 -3.9894 -4.507 0
M  V30 9944 H 951.862 -2.65017 -1.48324 0
M  V30 9945 H 949.447 -1.33454 -0.671603 0
M  V30 9946 H 951.329 -1.83125 -3.7953 0
M  V30 9947 H 950.004 -0.840155 -3.12607 0
M  V30 9948 H 948.911 -2.98664 -2.2528 0
M  V30 9949 H 950.244 -3.9176 -2.97968 0
M  V30 9950 N 951.896 0.746133 -1.38819 0
M  V30 9951 C 953.126 1.53316 -1.38484 0
M  V30 9952 C 953.534 1.89183 0.0253332 0
M  V30 9953 O 952.877 1.5382 1.00424 0
M  V30 9954 C 952.939 2.85623 -2.18311 0
M  V30 9955 C 952.603 2.72253 -3.67052 0
M  V30 9956 C 953.6 2.41547 -4.60381 0
M  V30 9957 C 951.285 2.89472 -4.10501 0
M  V30 9958 C 953.279 2.28226 -5.9514 0
M  V30 9959 C 950.966 2.7577 -5.45338 0
M  V30 9960 C 951.964 2.45191 -6.37472 0
M  V30 9961 O 951.652 2.31561 -7.69828 0
M  V30 9962 H 951.384 0.480763 -0.475229 0
M  V30 9963 H 953.938 0.93057 -1.83111 0
M  V30 9964 H 952.168 3.481 -1.68414 0
M  V30 9965 H 953.857 3.47178 -2.10291 0
M  V30 9966 H 954.623 2.27905 -4.28117 0
M  V30 9967 H 950.502 3.12269 -3.3913 0
M  V30 9968 H 954.046 2.04279 -6.6702 0
M  V30 9969 H 949.943 2.88987 -5.77197 0
M  V30 9970 H 950.711 2.46716 -7.80432 0
M  V30 9971 N 953.375 1.23811 0.975125 0
M  V30 9972 C 954.285 1.0408 2.10249 0
M  V30 9973 C 955.301 -0.0162404 1.73992 0
M  V30 9974 O 956.477 0.180346 2.00591 0
M  V30 9975 C 953.542 0.640013 3.40741 0
M  V30 9976 C 952.603 1.7727 3.90991 0
M  V30 9977 C 951.836 1.39094 5.15256 0
M  V30 9978 O 952.059 0.277483 5.69725 0
M  V30 9979 O 950.993 2.21392 5.59704 0
M  V30 9980 H 954.819 1.98575 2.29786 0
M  V30 9981 H 952.404 1.02563 1.08633 0
M  V30 9982 H 954.286 0.427684 4.19224 0
M  V30 9983 H 952.961 -0.27589 3.22522 0
M  V30 9984 H 951.868 2.03971 3.13602 0
M  V30 9985 H 953.201 2.66711 4.13674 0
M  V30 9986 N 954.853 -1.17469 1.05066 0
M  V30 9987 C 956.083 -1.91343 0.779202 0
M  V30 9988 C 956.491 -1.76986 -0.668764 0
M  V30 9989 O 955.834 -1.1037 -1.46848 0
M  V30 9990 C 955.896 -3.42938 1.0786 0
M  V30 9991 C 955.56 -3.81076 2.52249 0
M  V30 9992 C 956.557 -3.84027 3.50456 0
M  V30 9993 C 954.242 -4.12076 2.87225 0
M  V30 9994 C 956.236 -4.17445 4.81683 0
M  V30 9995 C 953.923 -4.45163 4.18656 0
M  V30 9996 C 954.921 -4.47825 5.15696 0
M  V30 9997 O 954.609 -4.80133 6.44769 0
M  V30 9998 H 954.341 -0.613974 0.282863 0
M  V30 9999 H 956.895 -1.49907 1.40417 0
M  V30 10000 H 955.125 -3.84662 0.39653 0
M  V30 10001 H 956.814 -3.98071 0.793357 0
M  V30 10002 H 957.58 -3.60203 3.24775 0
M  V30 10003 H 953.459 -4.09176 2.12358 0
M  V30 10004 H 957.003 -4.19437 5.57421 0
M  V30 10005 H 952.9 -4.68449 4.44101 0
M  V30 10006 H 953.668 -4.97995 6.49571 0
M  V30 10007 N 956.331 -0.831506 -1.3388 0
M  V30 10008 C 957.608 -0.345907 -1.92517 0
M  V30 10009 C 957.988 1.16784 -1.75854 0
M  V30 10010 O 957.336 1.97889 -1.14245 0
M  V30 10011 C 957.546 -0.784692 -3.40064 0
M  V30 10012 C 958.894 -0.78846 -4.17215 0
M  V30 10013 O 959.918 -0.727823 -3.48685 0
M  V30 10014 O 958.777 -0.869481 -5.39539 0
M  V30 10015 H 955.871 -0.0963568 -0.821367 0
M  V30 10016 H 958.417 -0.916868 -1.42799 0
M  V30 10017 H 957.189 -1.82697 -3.46031 0
M  V30 10018 H 956.812 -0.189897 -3.97146 0
M  V30 10019 N 957.809 1.4625 -0.587256 0
M  V30 10020 C 958.759 2.27407 0.164393 0
M  V30 10021 C 959.743 1.36138 0.857628 0
M  V30 10022 O 960.935 1.60279 0.750973 0
M  V30 10023 C 958.064 3.22585 1.17447 0
M  V30 10024 C 957.15 4.21339 0.483121 0
M  V30 10025 N 957.541 5.03669 -0.46385 0
M  V30 10026 C 955.839 4.39931 0.73329 0
M  V30 10027 C 956.54 5.75182 -0.868334 0
M  V30 10028 N 955.516 5.43169 -0.216487 0
M  V30 10029 H 959.318 2.88453 -0.563237 0
M  V30 10030 H 956.832 1.57155 -0.409388 0
M  V30 10031 H 958.829 3.79439 1.72718 0
M  V30 10032 H 957.489 2.63098 1.90288 0
M  V30 10033 H 958.5 5.11049 -0.839602 0
M  V30 10034 H 955.177 3.91588 1.44792 0
M  V30 10035 H 956.567 6.51371 -1.64821 0
M  V30 10036 N 959.287 0.325282 1.54207 0
M  V30 10037 C 960.564 -0.33113 1.92777 0
M  V30 10038 C 960.944 -1.69739 1.25506 0
M  V30 10039 O 960.292 -2.24983 0.399385 0
M  V30 10040 C 960.502 -0.421636 3.46444 0
M  V30 10041 C 961.85 -0.681111 4.19101 0
M  V30 10042 O 962.874 -0.504488 3.52609 0
M  V30 10043 O 961.733 -1.02196 5.3686 0
M  V30 10044 H 958.827 -0.18943 0.805013 0
M  V30 10045 H 961.373 0.375123 1.65502 0
M  V30 10046 H 960.145 0.537862 3.87586 0
M  V30 10047 H 959.768 -1.1754 3.79829 0
M  V30 10048 N 960.765 -1.57509 0.0534917 0
M  V30 10049 C 961.728 -2.10563 -0.905307 0
M  V30 10050 C 962.728 -1.02571 -1.23838 0
M  V30 10051 O 963.918 -1.28635 -1.17468 0
M  V30 10052 C 961.05 -2.5918 -2.21447 0
M  V30 10053 H 962.243 -2.96575 -0.445354 0
M  V30 10054 H 959.796 -1.55079 -0.194947 0
M  V30 10055 H 960.531 -1.76568 -2.72019 0
M  V30 10056 H 960.316 -3.38098 -1.98575 0
M  V30 10057 H 961.806 -3.00365 -2.90122 0
M  V30 10058 N 962.243 0.219913 -1.56058 0
M  V30 10059 C 963.191 1.29215 -1.93407 0
M  V30 10060 C 964.185 1.48434 -0.816307 0
M  V30 10061 O 965.391 1.49589 -1.00115 0
M  V30 10062 H 961.766 0.433256 -0.614649 0
M  V30 10063 H 963.737 0.949977 -2.82875 0
M  V30 10064 C 962.486 2.63501 -2.26854 0
M  V30 10065 H 961.809 2.4952 -3.12377 0
M  V30 10066 H 963.249 3.37334 -2.56869 0
M  V30 10067 C 961.708 3.18634 -1.09425 0
M  V30 10068 O 962.238 4.00117 -0.356243 0
M  V30 10069 N 960.444 2.7703 -0.877642 0
M  V30 10070 H 959.991 2.10875 -1.47951 0
M  V30 10071 H 959.949 3.1426 -0.0936792 0
M  V30 10072 N 963.721 1.49897 0.486681 0
M  V30 10073 C 964.969 1.59789 1.23742 0
M  V30 10074 C 965.29 0.293056 1.92785 0
M  V30 10075 O 964.56 -0.688534 1.83401 0
M  V30 10076 H 963.14 0.588775 0.459731 0
M  V30 10077 H 965.802 1.86597 0.562808 0
M  V30 10078 H 964.898 2.40121 1.9937 0
M  V30 10079 N 965.199 -0.738761 1.39212 0
M  V30 10080 C 966.109 -1.88324 1.39897 0
M  V30 10081 C 967.125 -1.71494 0.294229 0
M  V30 10082 O 968.301 -1.94162 0.535087 0
M  V30 10083 C 965.366 -3.23871 1.23726 0
M  V30 10084 C 964.427 -3.53121 2.44139 0
M  V30 10085 C 963.66 -4.82202 2.2873 0
M  V30 10086 O 963.883 -5.55649 1.28879 0
M  V30 10087 O 962.817 -5.11265 3.17634 0
M  V30 10088 H 966.643 -1.90701 2.36362 0
M  V30 10089 H 964.228 -0.886067 1.20288 0
M  V30 10090 H 966.11 -4.04882 1.16826 0
M  V30 10091 H 964.785 -3.22274 0.303551 0
M  V30 10092 H 963.692 -2.72212 2.56615 0
M  V30 10093 H 965.025 -3.59495 3.36191 0
M  V30 10094 N 966.677 -1.24326 -0.968545 0
M  V30 10095 C 968.093 -1.00847 -1.23701 0
M  V30 10096 C 968.293 0.283235 -1.99499 0
M  V30 10097 O 967.349 0.999607 -2.31871 0
M  V30 10098 C 968.662 -2.22295 -2.02498 0
M  V30 10099 C 970.21 -2.26911 -2.15593 0
M  V30 10100 C 970.685 -3.47978 -2.97784 0
M  V30 10101 N 972.176 -3.48289 -3.05367 0
M  V30 10102 C 972.911 -4.38625 -3.69318 0
M  V30 10103 N 972.407 -5.39213 -4.34995 0
M  V30 10104 N 974.2 -4.26339 -3.66322 0
M  V30 10105 H 966.351 -2.07335 -0.461087 0
M  V30 10106 H 968.614 -0.909805 -0.26638 0
M  V30 10107 H 968.32 -3.161 -1.54188 0
M  V30 10108 H 968.194 -2.24344 -3.03232 0
M  V30 10109 H 970.581 -1.33639 -2.63106 0
M  V30 10110 H 970.662 -2.28888 -1.14209 0
M  V30 10111 H 970.306 -4.41564 -2.50965 0
M  V30 10112 H 970.236 -3.43244 -3.99364 0
M  V30 10113 H 972.727 -2.75517 -2.58648 0
M  V30 10114 H 973.04 -6.04378 -4.81608 0
M  V30 10115 H 971.385 -5.43101 -4.33667 0
M  V30 10116 H 974.576 -3.46991 -3.14189 0
M  V30 10117 H 974.749 -4.9694 -4.15878 0
M  V30 10118 N 968.156 1.1691 -1.05688 0
M  V30 10119 C 969.402 1.8757 -0.771071 0
M  V30 10120 C 969.735 1.8113 0.700399 0
M  V30 10121 O 969.01 1.22273 1.5126 0
M  V30 10122 C 969.293 3.37392 -1.25851 0
M  V30 10123 C 969.146 3.52556 -2.79329 0
M  V30 10124 C 970.465 4.31585 -0.861512 0
M  V30 10125 H 967.584 0.681089 -0.281579 0
M  V30 10126 H 970.226 1.37453 -1.31174 0
M  V30 10127 H 968.376 3.80204 -0.798563 0
M  V30 10128 H 970.048 3.18725 -3.33485 0
M  V30 10129 H 968.291 2.94668 -3.1836 0
M  V30 10130 H 968.962 4.57748 -3.08498 0
M  V30 10131 H 971.438 3.96642 -1.25756 0
M  V30 10132 H 970.314 5.34939 -1.23012 0
M  V30 10133 H 970.575 4.4148 0.234089 0
M  V30 10134 N 969.634 0.838594 1.33437 0
M  V30 10135 C 970.88 0.434813 1.98084 0
M  V30 10136 C 971.213 -1.00331 1.66275 0
M  V30 10137 O 970.488 -1.70139 0.942501 0
M  V30 10138 C 970.771 0.655602 3.54082 0
M  V30 10139 C 970.624 2.14097 3.95578 0
M  V30 10140 C 971.943 0.101576 4.39983 0
M  V30 10141 H 969.062 0.159456 0.719544 0
M  V30 10142 H 971.704 1.05406 1.58081 0
M  V30 10143 H 969.854 0.128501 3.88287 0
M  V30 10144 H 971.526 2.73292 3.71631 0
M  V30 10145 H 969.769 2.62558 3.4532 0
M  V30 10146 H 970.44 2.24621 5.04231 0
M  V30 10147 H 972.916 0.552122 4.12421 0
M  V30 10148 H 971.792 0.28575 5.48156 0
M  V30 10149 H 972.053 -0.994616 4.30767 0
M  V30 10150 N 971.112 -1.45937 0.595003 0
M  V30 10151 C 972.042 -2.33198 -0.11871 0
M  V30 10152 C 973.023 -1.46083 -0.871423 0
M  V30 10153 O 974.208 -1.74879 -0.844461 0
M  V30 10154 C 971.338 -3.28576 -1.12495 0
M  V30 10155 C 970.292 -4.25229 -0.486275 0
M  V30 10156 C 969.618 -5.10204 -1.59986 0
M  V30 10157 C 970.918 -5.19019 0.584473 0
M  V30 10158 H 972.612 -2.93122 0.609886 0
M  V30 10159 H 970.158 -1.40951 0.294742 0
M  V30 10160 H 972.111 -3.88485 -1.6327 0
M  V30 10161 H 970.835 -2.66784 -1.88398 0
M  V30 10162 H 969.494 -3.666 0.000507962 0
M  V30 10163 H 969.142 -4.44789 -2.34886 0
M  V30 10164 H 968.842 -5.75669 -1.1781 0
M  V30 10165 H 970.366 -5.7298 -2.11014 0
M  V30 10166 H 971.78 -5.73073 0.161297 0
M  V30 10167 H 970.177 -5.92893 0.927256 0
M  V30 10168 H 971.247 -4.62208 1.46601 0
M  V30 10169 N 972.59 -0.333456 -1.54032 0
M  V30 10170 C 973.838 0.265608 -2.00347 0
M  V30 10171 C 974.159 1.51873 -1.2231 0
M  V30 10172 O 973.429 1.93142 -0.327549 0
M  V30 10173 H 972.009 0.101135 -0.740122 0
M  V30 10174 H 974.671 -0.452285 -1.8958 0
M  V30 10175 H 973.767 0.51511 -3.0782 0
M  V30 10176 N 974.068 1.57479 -0.061844 0
M  V30 10177 C 975.015 2.12152 0.908862 0
M  V30 10178 C 975.985 1.03152 1.30188 0
M  V30 10179 O 977.17 1.3076 1.38948 0
M  V30 10180 C 974.31 2.6796 2.17465 0
M  V30 10181 C 973.423 3.91083 1.83517 0
M  V30 10182 C 972.558 4.35169 3.04633 0
M  V30 10183 C 971.597 5.50964 2.66655 0
M  V30 10184 N 970.734 5.90055 3.80499 0
M  V30 10185 H 975.574 2.94797 0.435743 0
M  V30 10186 H 973.111 1.45686 0.203445 0
M  V30 10187 H 975.069 2.98421 2.91548 0
M  V30 10188 H 973.699 1.88096 2.62335 0
M  V30 10189 H 972.751 3.67146 0.995381 0
M  V30 10190 H 974.063 4.75214 1.51569 0
M  V30 10191 H 973.217 4.67239 3.87005 0
M  V30 10192 H 971.956 3.49871 3.39767 0
M  V30 10193 H 970.961 5.18556 1.82703 0
M  V30 10194 H 972.186 6.37986 2.32702 0
M  V30 10195 H 970.132 5.07708 4.15414 0
M  V30 10196 H 970.049 6.68903 3.52285 0
M  V30 10197 H 971.317 6.26744 4.63479 0
M  V30 10198 N 975.546 -0.211634 1.56173 0
M  V30 10199 C 976.794 -0.932704 1.7929 0
M  V30 10200 C 977.115 -1.84472 0.632076 0
M  V30 10201 O 976.385 -1.92739 -0.350519 0
M  V30 10202 H 974.965 -0.347393 0.661307 0
M  V30 10203 H 977.627 -0.22111 1.93642 0
M  V30 10204 H 976.723 -1.53365 2.71819 0
M  V30 10205 N 977.024 -1.50153 -0.478725 0
M  V30 10206 C 978.252 -1.64505 -1.25482 0
M  V30 10207 C 978.667 -0.325295 -1.85977 0
M  V30 10208 O 978.024 0.691885 -1.68876 0
M  V30 10209 C 978.075 -2.73052 -2.36906 0
M  V30 10210 O 977.796 -3.99911 -1.78894 0
M  V30 10211 C 979.297 -2.98309 -3.27912 0
M  V30 10212 H 976.517 -0.55318 -0.379781 0
M  V30 10213 H 979.061 -1.96329 -0.57229 0
M  V30 10214 H 977.216 -2.43944 -3.00949 0
M  V30 10215 H 977.63 -4.5988 -2.52211 0
M  V30 10216 H 979.104 -3.77942 -4.02323 0
M  V30 10217 H 979.581 -2.09082 -3.8624 0
M  V30 10218 H 980.187 -3.2892 -2.69614 0
M  V30 10219 N 978.502 0.731368 -1.39602 0
M  V30 10220 C 979.732 1.51839 -1.40102 0
M  V30 10221 C 980.14 1.89199 0.00526634 0
M  V30 10222 O 979.483 1.54877 0.987874 0
M  V30 10223 C 979.545 2.83292 -2.21328 0
M  V30 10224 C 979.209 2.68345 -3.69919 0
M  V30 10225 C 980.206 2.36651 -4.62917 0
M  V30 10226 C 977.891 2.85102 -4.13548 0
M  V30 10227 C 979.885 2.21901 -5.97527 0
M  V30 10228 C 977.572 2.69971 -5.48233 0
M  V30 10229 C 978.57 2.38416 -6.40037 0
M  V30 10230 O 978.258 2.23383 -7.72241 0
M  V30 10231 H 977.99 0.475695 -0.480302 0
M  V30 10232 H 980.544 0.911096 -1.84087 0
M  V30 10233 H 978.774 3.46294 -1.72096 0
M  V30 10234 H 980.463 3.44928 -2.13961 0
M  V30 10235 H 981.229 2.23352 -4.3051 0
M  V30 10236 H 977.108 3.08655 -3.42423 0
M  V30 10237 H 980.652 1.97193 -6.69149 0
M  V30 10238 H 976.549 2.82849 -5.8023 0
M  V30 10239 H 977.317 2.38425 -7.83004 0
M  V30 10240 N 979.98 1.24838 0.961938 0
M  V30 10241 C 981.228 1.08936 1.70227 0
M  V30 10242 C 981.549 -0.371582 1.91427 0
M  V30 10243 O 980.819 -1.26461 1.49614 0
M  V30 10244 H 979.399 0.400128 0.630799 0
M  V30 10245 H 982.061 1.56848 1.15692 0
M  V30 10246 H 981.157 1.59195 2.68446 0
M  V30 10247 N 981.458 -1.16348 1.06306 0
M  V30 10248 C 982.707 -1.8622 0.774909 0
M  V30 10249 C 983.02 -1.82598 -0.701245 0
M  V30 10250 O 984.226 -2.48051 -1.10377 0
M  V30 10251 C 982.682 -3.34182 1.33604 0
M  V30 10252 C 982.29 -3.46279 2.84245 0
M  V30 10253 C 984.034 -4.09309 1.12544 0
M  V30 10254 C 981.941 -4.88327 3.33602 0
M  V30 10255 H 980.871 -0.697574 0.286194 0
M  V30 10256 H 983.522 -1.31311 1.28179 0
M  V30 10257 H 981.904 -3.88698 0.756937 0
M  V30 10258 H 983.078 -3.01923 3.48108 0
M  V30 10259 H 981.393 -2.84585 3.03974 0
M  V30 10260 H 983.99 -5.14123 1.46909 0
M  V30 10261 H 984.333 -4.16251 0.0638129 0
M  V30 10262 H 984.866 -3.61032 1.67034 0
M  V30 10263 H 981.605 -4.86565 4.39244 0
M  V30 10264 H 981.125 -5.33307 2.74487 0
M  V30 10265 H 982.804 -5.57144 3.28937 0
M  V30 10266 N 982.937 -0.845659 -1.3299 0
M  V30 10267 C 984.183 -0.445311 -1.9785 0
M  V30 10268 C 984.516 0.994476 -1.66805 0
M  V30 10269 O 983.791 1.69636 -0.95151 0
M  V30 10270 C 984.074 -0.674371 -3.53729 0
M  V30 10271 C 983.927 -2.16192 -3.94437 0
M  V30 10272 C 985.246 -0.124908 -4.39923 0
M  V30 10273 H 982.365 -0.163269 -0.718688 0
M  V30 10274 H 985.007 -1.06242 -1.5752 0
M  V30 10275 H 983.157 -0.149091 -3.88214 0
M  V30 10276 H 984.829 -2.75259 -3.70176 0
M  V30 10277 H 983.072 -2.64386 -3.43922 0
M  V30 10278 H 983.743 -2.27292 -5.03033 0
M  V30 10279 H 986.219 -0.573986 -4.12122 0
M  V30 10280 H 985.095 -0.314816 -5.47996 0
M  V30 10281 H 985.356 0.971758 -4.31288 0
M  V30 10282 N 984.415 1.45619 -0.602734 0
M  V30 10283 C 985.645 2.06348 -0.102105 0
M  V30 10284 C 986.053 1.44884 1.21677 0
M  V30 10285 O 985.396 0.555559 1.75098 0
M  V30 10286 C 985.458 3.59309 0.117026 0
M  V30 10287 C 985.122 4.43081 -1.11931 0
M  V30 10288 C 986.119 4.78364 -2.03627 0
M  V30 10289 C 983.804 4.83908 -1.34677 0
M  V30 10290 C 985.798 5.53325 -3.16403 0
M  V30 10291 C 983.485 5.58624 -2.47754 0
M  V30 10292 C 984.483 5.93249 -3.38445 0
M  V30 10293 O 984.171 6.6645 -4.49555 0
M  V30 10294 H 983.903 0.672988 -0.0637478 0
M  V30 10295 H 986.457 1.87928 -0.828983 0
M  V30 10296 H 984.687 3.76111 0.898742 0
M  V30 10297 H 986.376 4.01897 0.568649 0
M  V30 10298 H 987.142 4.47384 -1.87277 0
M  V30 10299 H 983.021 4.56396 -0.649875 0
M  V30 10300 H 986.565 5.80268 -3.87214 0
M  V30 10301 H 982.462 5.89019 -2.64059 0
M  V30 10302 H 983.23 6.84895 -4.48175 0
M  V30 10303 N 985.893 0.34162 1.53853 0
M  V30 10304 C 986.856 -0.503541 2.236 0
M  V30 10305 C 987.856 -1.02912 1.23554 0
M  V30 10306 O 989.046 -0.918678 1.48007 0
M  V30 10307 C 986.178 -1.70126 2.95415 0
M  V30 10308 H 987.371 0.106437 2.99711 0
M  V30 10309 H 984.924 0.0929408 1.56023 0
M  V30 10310 H 985.659 -2.34999 2.23486 0
M  V30 10311 H 985.444 -1.33161 3.68796 0
M  V30 10312 H 986.934 -2.30077 3.48503 0
M  V30 10313 N 987.371 -1.57444 0.0701946 0
M  V30 10314 C 988.619 -1.93047 -0.598106 0
M  V30 10315 C 988.94 -0.950841 -1.70247 0
M  V30 10316 O 988.21 0.00127177 -1.959 0
M  V30 10317 H 986.79 -0.712648 -0.223924 0
M  V30 10318 H 989.452 -1.94481 0.127674 0
M  V30 10319 H 988.548 -2.94807 -1.02445 0
M  V30 10320 N 988.849 0.203349 -1.56283 0
M  V30 10321 C 990.265 0.55384 -1.49682 0
M  V30 10322 C 990.465 1.86261 -0.768701 0
M  V30 10323 O 989.521 2.50517 -0.315824 0
M  V30 10324 C 990.834 0.616216 -2.94318 0
M  V30 10325 C 992.382 0.705611 -3.04943 0
M  V30 10326 C 992.857 0.79917 -4.50974 0
M  V30 10327 N 994.348 0.862916 -4.55091 0
M  V30 10328 C 995.083 0.955334 -5.65386 0
M  V30 10329 N 994.579 1.01057 -6.8539 0
M  V30 10330 N 996.372 0.991884 -5.53279 0
M  V30 10331 H 988.523 -0.655244 -2.0204 0
M  V30 10332 H 990.786 -0.232344 -0.919087 0
M  V30 10333 H 990.492 -0.27619 -3.50614 0
M  V30 10334 H 990.366 1.47371 -3.4722 0
M  V30 10335 H 992.753 1.58845 -2.48701 0
M  V30 10336 H 992.834 -0.177921 -2.5518 0
M  V30 10337 H 992.478 -0.0792841 -5.07838 0
M  V30 10338 H 992.408 1.69838 -4.9846 0
M  V30 10339 H 994.899 0.829812 -3.68677 0
M  V30 10340 H 995.212 1.08137 -7.65197 0
M  V30 10341 H 993.557 0.979384 -6.88065 0
M  V30 10342 H 996.748 0.945514 -4.58451 0
M  V30 10343 H 996.921 1.06045 -6.39264 0
M  V30 10344 N 990.327 1.50405 0.470755 0
M  V30 10345 C 991.604 1.51929 1.23195 0
M  V30 10346 C 991.984 0.264159 2.09441 0
M  V30 10347 O 991.332 -0.752395 2.15757 0
M  V30 10348 C 991.542 2.81521 2.06269 0
M  V30 10349 C 992.89 3.32195 2.64446 0
M  V30 10350 O 993.914 2.82845 2.16511 0
M  V30 10351 O 992.773 4.18221 3.51786 0
M  V30 10352 H 989.867 0.609411 0.559059 0
M  V30 10353 H 992.413 1.62695 0.482549 0
M  V30 10354 H 991.185 3.64346 1.42715 0
M  V30 10355 H 990.808 2.7376 2.88342 0
M  V30 10356 N 991.805 -0.723954 1.39988 0
M  V30 10357 C 992.735 -1.85103 1.42335 0
M  V30 10358 C 993.716 -1.6769 0.285297 0
M  V30 10359 O 994.901 -1.87846 0.492716 0
M  V30 10360 C 992.031 -3.22972 1.27697 0
M  V30 10361 C 990.985 -3.55041 2.39018 0
M  V30 10362 C 990.311 -4.91965 2.09462 0
M  V30 10363 C 991.611 -3.56889 3.8135 0
M  V30 10364 H 993.305 -1.83396 2.36656 0
M  V30 10365 H 990.851 -0.880926 1.13911 0
M  V30 10366 H 992.804 -4.01503 1.27958 0
M  V30 10367 H 991.528 -3.25233 0.298487 0
M  V30 10368 H 990.187 -2.78845 2.37993 0
M  V30 10369 H 989.835 -4.90819 1.10025 0
M  V30 10370 H 989.535 -5.14389 2.84038 0
M  V30 10371 H 991.059 -5.7284 2.11391 0
M  V30 10372 H 992.473 -4.25476 3.84243 0
M  V30 10373 H 990.87 -3.90836 4.55376 0
M  V30 10374 H 991.94 -2.56452 4.11534 0
M  V30 10375 N 993.283 -1.25346 -0.955304 0
M  V30 10376 C 994.508 -1.12892 -1.73983 0
M  V30 10377 C 994.933 0.313455 -1.8547 0
M  V30 10378 O 994.291 1.22706 -1.33465 0
M  V30 10379 C 994.339 -1.78729 -3.1319 0
M  V30 10380 O 993.443 -1.06648 -3.98372 0
M  V30 10381 H 992.784 -0.394178 -0.534341 0
M  V30 10382 H 995.314 -1.65897 -1.19747 0
M  V30 10383 H 995.324 -1.84987 -3.63653 0
M  V30 10384 H 993.999 -2.83669 -3.04146 0
M  V30 10385 H 992.576 -1.08266 -3.56837 0
M  V30 10386 N 994.761 1.15782 -1.06922 0
M  V30 10387 C 995.709 2.22441 -0.679893 0
M  V30 10388 C 996.703 1.66591 0.307221 0
M  V30 10389 O 997.909 1.79182 0.171402 0
M  V30 10390 H 994.284 0.724427 -0.201765 0
M  V30 10391 H 996.255 2.52562 -1.58918 0
M  V30 10392 C 995.004 3.47586 -0.0891142 0
M  V30 10393 H 994.327 3.9088 -0.839805 0
M  V30 10394 H 995.767 4.2375 0.14569 0
M  V30 10395 C 994.226 3.15967 1.16903 0
M  V30 10396 O 994.756 3.32359 2.25611 0
M  V30 10397 N 992.962 2.70046 1.07349 0
M  V30 10398 H 992.509 2.56907 0.188825 0
M  V30 10399 H 992.467 2.49264 1.91611 0
M  V30 10400 N 996.239 0.8527 1.3254 0
M  V30 10401 C 997.171 0.253181 2.27797 0
M  V30 10402 C 998.184 -0.573977 1.52346 0
M  V30 10403 O 999.373 -0.398786 1.73988 0
M  V30 10404 C 996.473 -0.661034 3.32391 0
M  V30 10405 C 995.646 0.12984 4.37207 0
M  V30 10406 C 994.705 -0.709837 5.2139 0
M  V30 10407 O 993.731 -0.144056 5.69018 0
M  V30 10408 N 994.933 -2.0249 5.44039 0
M  V30 10409 H 997.698 1.07171 2.79883 0
M  V30 10410 H 995.259 0.712491 1.45379 0
M  V30 10411 H 997.251 -1.22806 3.85617 0
M  V30 10412 H 995.821 -1.38025 2.80478 0
M  V30 10413 H 995.041 0.878289 3.84291 0
M  V30 10414 H 996.329 0.673141 5.04328 0
M  V30 10415 H 995.727 -2.50792 5.0707 0
M  V30 10416 H 994.284 -2.5401 6.00269 0
M  V30 10417 N 997.718 -1.45297 0.610449 0
M  V30 10418 C 998.964 -2.02518 0.106917 0
M  V30 10419 C 999.297 -1.47747 -1.26034 0
M  V30 10420 O 998.572 -0.65329 -1.832 0
M  V30 10421 C 998.855 -3.6003 0.0710975 0
M  V30 10422 C 998.708 -4.25128 1.46922 0
M  V30 10423 C 1000.03 -4.35778 -0.61524 0
M  V30 10424 H 997.146 -0.735896 0.040327 0
M  V30 10425 H 999.788 -1.73117 0.782968 0
M  V30 10426 H 997.938 -3.85209 -0.504611 0
M  V30 10427 H 999.61 -4.11125 2.09223 0
M  V30 10428 H 997.853 -3.83418 2.02911 0
M  V30 10429 H 998.524 -5.34046 1.39637 0
M  V30 10430 H 1001 -4.1591 -0.125871 0
M  V30 10431 H 999.876 -5.45506 -0.609419 0
M  V30 10432 H 1000.14 -4.08859 -1.68186 0
M  V30 10433 N 999.196 -0.349774 -1.5367 0
M  V30 10434 C 1000.61 0.00191293 -1.596 0
M  V30 10435 C 1000.81 1.48175 -1.36552 0
M  V30 10436 O 999.868 2.24129 -1.16285 0
M  V30 10437 C 1001.18 -0.439848 -2.97466 0
M  V30 10438 C 1002.73 -0.392721 -3.10526 0
M  V30 10439 C 1003.2 -0.810047 -4.5078 0
M  V30 10440 N 1004.69 -0.764478 -4.56848 0
M  V30 10441 C 1005.43 -1.05927 -5.63531 0
M  V30 10442 N 1004.93 -1.42253 -6.78038 0
M  V30 10443 N 1006.72 -0.983098 -5.53436 0
M  V30 10444 H 998.87 -1.31364 -1.66905 0
M  V30 10445 H 1001.13 -0.535908 -0.781989 0
M  V30 10446 H 1000.84 -1.47189 -3.19419 0
M  V30 10447 H 1000.71 0.181735 -3.76762 0
M  V30 10448 H 1003.1 0.630161 -2.88293 0
M  V30 10449 H 1003.18 -1.04959 -2.33275 0
M  V30 10450 H 1002.82 -1.83097 -4.73749 0
M  V30 10451 H 1002.75 -0.130591 -5.26438 0
M  V30 10452 H 1005.25 -0.496637 -3.74622 0
M  V30 10453 H 1005.56 -1.63215 -7.55368 0
M  V30 10454 H 1003.9 -1.46104 -6.79469 0
M  V30 10455 H 1007.09 -0.698601 -4.62858 0
M  V30 10456 H 1007.27 -1.21618 -6.36485 0
M  V30 10457 N 1000.67 1.57404 -0.0785433 0
M  V30 10458 C 1001.92 1.9292 0.588626 0
M  V30 10459 C 1002.24 0.961106 1.70359 0
M  V30 10460 O 1003.44 1.20934 2.43079 0
M  V30 10461 C 1001.9 3.42729 1.09839 0
M  V30 10462 C 1001.51 4.47998 0.0140773 0
M  V30 10463 C 1003.25 3.87235 1.73924 0
M  V30 10464 C 1001.16 5.88945 0.538269 0
M  V30 10465 H 1000.09 0.720069 0.223645 0
M  V30 10466 H 1002.74 1.8287 -0.15187 0
M  V30 10467 H 1001.12 3.47875 1.89207 0
M  V30 10468 H 1002.29 4.54476 -0.760773 0
M  V30 10469 H 1000.61 4.13001 -0.53095 0
M  V30 10470 H 1003.21 4.89927 2.14186 0
M  V30 10471 H 1003.55 3.24971 2.60191 0
M  V30 10472 H 1004.08 3.84721 1.01168 0
M  V30 10473 H 1000.82 6.5487 -0.287395 0
M  V30 10474 H 1000.34 5.85972 1.28049 0
M  V30 10475 H 1002.02 6.39028 1.01253 0
M  V30 10476 N 1002.15 -0.195058 1.56388 0
M  V30 10477 C 1003.11 -1.2254 1.93692 0
M  V30 10478 C 1004.11 -1.38437 0.81804 0
M  V30 10479 O 1005.3 -1.36248 1.08545 0
M  V30 10480 C 1002.44 -2.59476 2.21099 0
M  V30 10481 H 1003.63 -0.906544 2.8587 0
M  V30 10482 H 1001.18 -0.436577 1.50079 0
M  V30 10483 H 1001.92 -2.96417 1.31558 0
M  V30 10484 H 1001.7 -2.4931 3.02634 0
M  V30 10485 H 1003.19 -3.33777 2.50964 0
M  V30 10486 N 1003.63 -1.50653 -0.462772 0
M  V30 10487 C 1004.88 -1.61296 -1.21105 0
M  V30 10488 C 1005.19 -0.322757 -1.92919 0
M  V30 10489 O 1006.4 -0.308211 -2.69745 0
M  V30 10490 C 1004.85 -2.84752 -2.201 0
M  V30 10491 C 1004.46 -4.20681 -1.54051 0
M  V30 10492 C 1006.21 -3.04744 -2.95518 0
M  V30 10493 C 1004.11 -5.35314 -2.51381 0
M  V30 10494 H 1003.04 -0.60069 -0.455728 0
M  V30 10495 H 1005.69 -1.77093 -0.480656 0
M  V30 10496 H 1004.08 -2.62532 -2.96467 0
M  V30 10497 H 1005.25 -4.53187 -0.834168 0
M  V30 10498 H 1003.56 -4.06361 -0.908828 0
M  V30 10499 H 1006.16 -3.87559 -3.68378 0
M  V30 10500 H 1006.5 -2.16802 -3.55391 0
M  V30 10501 H 1007.04 -3.27185 -2.26263 0
M  V30 10502 H 1003.78 -6.25437 -1.96235 0
M  V30 10503 H 1003.3 -5.07216 -3.20144 0
M  V30 10504 H 1004.98 -5.66229 -3.1304 0
M  V30 10505 N 1005.11 0.71652 -1.4037 0
M  V30 10506 C 1006.06 1.8306 -1.40562 0
M  V30 10507 C 1007.03 1.64009 -0.262697 0
M  V30 10508 O 1008.21 1.85157 -0.460619 0
M  V30 10509 C 1005.35 3.2076 -1.27307 0
M  V30 10510 C 1004.46 3.51389 -2.51296 0
M  V30 10511 C 1003.6 4.78589 -2.30491 0
M  V30 10512 C 1002.64 5.02119 -3.50061 0
M  V30 10513 N 1001.77 6.20533 -3.28457 0
M  V30 10514 H 1006.61 1.82231 -2.35788 0
M  V30 10515 H 1004.15 0.890198 -1.17106 0
M  V30 10516 H 1006.11 4.00274 -1.17628 0
M  V30 10517 H 1004.74 3.2082 -0.357005 0
M  V30 10518 H 1003.79 2.66436 -2.71507 0
M  V30 10519 H 1005.1 3.64686 -3.40302 0
M  V30 10520 H 1004.26 5.66119 -2.1816 0
M  V30 10521 H 1003 4.67499 -1.38909 0
M  V30 10522 H 1002 4.13044 -3.6287 0
M  V30 10523 H 1003.23 5.15082 -4.42569 0
M  V30 10524 H 1001.17 6.10695 -2.39556 0
M  V30 10525 H 1001.09 6.34502 -4.11027 0
M  V30 10526 H 1002.36 7.10853 -3.19857 0
M  V30 10527 N 1006.59 1.25851 0.948643 0
M  V30 10528 C 1007.5 1.08516 2.07994 0
M  V30 10529 C 1008.51 0.0206696 1.73988 0
M  V30 10530 O 1009.69 0.222854 2.00163 0
M  V30 10531 C 1006.75 0.712145 3.39307 0
M  V30 10532 C 1005.81 1.85523 3.87143 0
M  V30 10533 C 1005.05 1.49992 5.1219 0
M  V30 10534 O 1005.27 0.398268 5.69008 0
M  V30 10535 O 1004.2 2.33215 5.54882 0
M  V30 10536 H 1008.03 2.03405 2.25522 0
M  V30 10537 H 1005.62 1.04844 1.06433 0
M  V30 10538 H 1007.5 0.516512 4.18223 0
M  V30 10539 H 1006.17 -0.207416 3.23035 0
M  V30 10540 H 1005.08 2.10578 3.09205 0
M  V30 10541 H 1006.41 2.75425 4.07924 0
M  V30 10542 N 1008.06 -1.15214 1.07534 0
M  V30 10543 C 1009.31 -1.85388 0.794617 0
M  V30 10544 C 1009.63 -1.83331 -0.681838 0
M  V30 10545 O 1010.83 -2.49207 -1.0774 0
M  V30 10546 C 1009.29 -3.32747 1.37141 0
M  V30 10547 C 1008.9 -3.43244 2.87902 0
M  V30 10548 C 1010.64 -4.08093 1.16879 0
M  V30 10549 C 1008.55 -4.84762 3.38763 0
M  V30 10550 H 1007.48 -0.694499 0.293577 0
M  V30 10551 H 1010.13 -1.29944 1.29564 0
M  V30 10552 H 1008.51 -3.87874 0.798121 0
M  V30 10553 H 1009.68 -2.98214 3.51291 0
M  V30 10554 H 1008 -2.81345 3.06975 0
M  V30 10555 H 1010.6 -5.12535 1.52353 0
M  V30 10556 H 1010.94 -4.1616 0.107958 0
M  V30 10557 H 1011.47 -3.59241 1.70854 0
M  V30 10558 H 1008.21 -4.81879 4.4438 0
M  V30 10559 H 1007.73 -5.30366 2.80128 0
M  V30 10560 H 1009.41 -5.53624 3.34827 0
M  V30 10561 N 1009.54 -0.859717 -1.32086 0
M  V30 10562 C 1010.95 -0.519529 -1.79326 0
M  V30 10563 C 1011.3 0.96295 -1.70944 0
M  V30 10564 O 1010.43 1.75139 -1.27104 0
M  V30 10565 C 1011.02 -0.936267 -3.25606 0
M  V30 10566 C 1009.58 -0.647899 -3.70782 0
M  V30 10567 C 1008.73 -1.13323 -2.53087 0
M  V30 10568 H 1011.68 -1.04643 -1.19312 0
M  V30 10569 H 1011.7 -0.254714 -3.79646 0
M  V30 10570 H 1011.21 -2.01527 -3.31675 0
M  V30 10571 H 1009.32 0.420172 -3.70223 0
M  V30 10572 H 1009.43 -1.21774 -4.63366 0
M  V30 10573 H 1007.79 -0.553325 -2.48617 0
M  V30 10574 H 1008.58 -2.21945 -2.61907 0
M  V30 10575 N 1011.02 1.44971 -0.618145 0
M  V30 10576 C 1011.93 2.34403 0.0960457 0
M  V30 10577 C 1012.95 1.51862 0.849355 0
M  V30 10578 O 1014.12 1.84632 0.804557 0
M  V30 10579 C 1011.19 3.29646 1.07397 0
M  V30 10580 C 1010.25 4.28095 0.321466 0
M  V30 10581 C 1009.48 5.18787 1.25281 0
M  V30 10582 O 1009.7 5.1313 2.49106 0
M  V30 10583 O 1008.64 5.97282 0.744156 0
M  V30 10584 H 1012.46 2.96898 -0.639176 0
M  V30 10585 H 1010.05 1.44529 -0.37837 0
M  V30 10586 H 1011.93 3.88307 1.63694 0
M  V30 10587 H 1010.61 2.69702 1.79004 0
M  V30 10588 H 1009.51 3.73019 -0.284223 0
M  V30 10589 H 1010.85 4.90923 -0.354315 0
M  V30 10590 N 1012.5 0.357919 1.53482 0
M  V30 10591 C 1013.91 0.00655107 1.59599 0
M  V30 10592 C 1014.11 -1.47449 1.37336 0
M  V30 10593 O 1013.17 -2.2351 1.17472 0
M  V30 10594 C 1014.48 0.455617 2.97228 0
M  V30 10595 C 1016.03 0.409183 3.10314 0
M  V30 10596 C 1016.51 0.833941 4.50344 0
M  V30 10597 N 1018 0.788695 4.56436 0
M  V30 10598 C 1018.73 1.08914 5.62961 0
M  V30 10599 N 1018.23 1.45847 6.77274 0
M  V30 10600 N 1020.02 1.01243 5.52907 0
M  V30 10601 H 1012.17 1.32248 1.66206 0
M  V30 10602 H 1014.44 0.540047 0.779136 0
M  V30 10603 H 1014.14 1.48881 3.18634 0
M  V30 10604 H 1014.02 -0.161751 3.76853 0
M  V30 10605 H 1016.4 -0.614863 2.88623 0
M  V30 10606 H 1016.48 1.06195 2.32715 0
M  V30 10607 H 1016.13 1.85607 4.72771 0
M  V30 10608 H 1016.06 0.158507 5.26361 0
M  V30 10609 H 1018.55 0.516497 3.74354 0
M  V30 10610 H 1018.86 1.67218 7.54492 0
M  V30 10611 H 1017.21 1.49705 6.78685 0
M  V30 10612 H 1020.4 0.723137 4.62481 0
M  V30 10613 H 1020.57 1.24991 6.35831 0
M  V30 10614 N 1013.98 -1.5736 0.0868897 0
M  V30 10615 C 1015.25 -1.85495 -0.620561 0
M  V30 10616 C 1015.63 -0.982218 -1.86857 0
M  V30 10617 O 1014.98 -0.0524529 -2.2844 0
M  V30 10618 C 1015.19 -3.35996 -0.943798 0
M  V30 10619 C 1016.54 -4.03861 -1.31079 0
M  V30 10620 O 1017.56 -3.4083 -1.03507 0
M  V30 10621 O 1016.42 -5.15062 -1.82683 0
M  V30 10622 H 1013.52 -0.766822 -0.309697 0
M  V30 10623 H 1016.06 -1.69282 0.118966 0
M  V30 10624 H 1014.83 -3.91257 -0.0580628 0
M  V30 10625 H 1014.46 -3.57525 -1.73958 0
M  V30 10626 N 1015.45 0.186762 -1.56489 0
M  V30 10627 C 1016.68 0.925916 -1.85584 0
M  V30 10628 C 1017.1 1.75708 -0.671446 0
M  V30 10629 O 1016.46 1.7728 0.379687 0
M  V30 10630 C 1016.51 1.79107 -3.12975 0
M  V30 10631 O 1015.61 2.89088 -2.94112 0
M  V30 10632 H 1014.96 0.260275 -0.610863 0
M  V30 10633 H 1017.49 0.189561 -2.0372 0
M  V30 10634 H 1017.5 2.19408 -3.43983 0
M  V30 10635 H 1016.17 1.18044 -3.98796 0
M  V30 10636 H 1014.75 2.52482 -2.74422 0
M  V30 10637 N 1016.93 1.50896 0.454776 0
M  V30 10638 C 1018.35 1.38684 0.78987 0
M  V30 10639 C 1018.55 0.455587 1.96282 0
M  V30 10640 O 1017.6 -0.0957503 2.52318 0
M  V30 10641 C 1018.92 2.80381 1.08661 0
M  V30 10642 C 1020.47 2.8941 1.19209 0
M  V30 10643 C 1020.94 4.31976 1.52187 0
M  V30 10644 N 1022.43 4.35002 1.59146 0
M  V30 10645 C 1023.17 5.42326 1.862 0
M  V30 10646 N 1022.66 6.59835 2.11164 0
M  V30 10647 N 1024.46 5.29786 1.87838 0
M  V30 10648 H 1016.61 2.10006 -0.317981 0
M  V30 10649 H 1018.87 0.944636 -0.0797969 0
M  V30 10650 H 1018.58 3.50438 0.297626 0
M  V30 10651 H 1018.45 3.18634 2.01872 0
M  V30 10652 H 1020.84 2.19561 1.97173 0
M  V30 10653 H 1020.92 2.54677 0.239401 0
M  V30 10654 H 1020.56 5.02368 0.747576 0
M  V30 10655 H 1020.49 4.64208 2.48633 0
M  V30 10656 H 1022.98 3.50276 1.41828 0
M  V30 10657 H 1023.3 7.37428 2.31128 0
M  V30 10658 H 1021.64 6.62981 2.08522 0
M  V30 10659 H 1024.83 4.36974 1.67843 0
M  V30 10660 H 1025 6.13511 2.08585 0
M  V30 10661 N 1018.41 -0.709066 1.40748 0
M  V30 10662 C 1019.64 -1.49591 1.425 0
M  V30 10663 C 1020.05 -1.89184 0.0248343 0
M  V30 10664 O 1019.39 -1.56429 -0.963109 0
M  V30 10665 C 1019.45 -2.79735 2.25807 0
M  V30 10666 C 1019.12 -2.62426 3.74141 0
M  V30 10667 C 1020.11 -2.29256 4.66624 0
M  V30 10668 C 1017.8 -2.78487 4.18032 0
M  V30 10669 C 1019.79 -2.12366 6.00982 0
M  V30 10670 C 1017.48 -2.61215 5.52458 0
M  V30 10671 C 1018.48 -2.28203 6.43749 0
M  V30 10672 O 1018.17 -2.11069 7.75697 0
M  V30 10673 H 1017.9 -0.467994 0.487809 0
M  V30 10674 H 1020.45 -0.881694 1.85514 0
M  V30 10675 H 1018.68 -3.43513 1.77584 0
M  V30 10676 H 1020.37 -3.41481 2.19421 0
M  V30 10677 H 1021.14 -2.16474 4.34009 0
M  V30 10678 H 1017.02 -3.03168 3.4729 0
M  V30 10679 H 1020.56 -1.86522 6.72202 0
M  V30 10680 H 1016.46 -2.73582 5.84656 0
M  V30 10681 H 1017.23 -2.25938 7.86698 0
M  V30 10682 N 1019.89 -1.26353 -0.941956 0
M  V30 10683 C 1021.11 -1.14731 -1.72776 0
M  V30 10684 C 1021.54 0.293766 -1.85792 0
M  V30 10685 O 1020.9 1.21284 -1.34759 0
M  V30 10686 C 1020.95 -1.82041 -3.11277 0
M  V30 10687 O 1020.05 -1.10867 -3.97218 0
M  V30 10688 H 1019.39 -0.399823 -0.53013 0
M  V30 10689 H 1021.92 -1.67157 -1.17981 0
M  V30 10690 H 1021.93 -1.88834 -3.61671 0
M  V30 10691 H 1020.61 -2.86879 -3.0112 0
M  V30 10692 H 1019.18 -1.12044 -3.55669 0
M  V30 10693 N 1021.37 1.14642 -1.08144 0
M  V30 10694 C 1022.3 2.19283 -0.6669 0
M  V30 10695 C 1023.31 1.60292 0.284668 0
M  V30 10696 O 1024.5 1.78352 0.0727383 0
M  V30 10697 C 1021.6 3.38877 0.0398572 0
M  V30 10698 C 1020.77 4.274 -0.929929 0
M  V30 10699 C 1019.83 5.25562 -0.258991 0
M  V30 10700 O 1018.86 5.61999 -0.902563 0
M  V30 10701 N 1020.06 5.71958 0.992177 0
M  V30 10702 H 1022.83 2.55464 -1.5671 0
M  V30 10703 H 1020.39 1.29836 -0.96717 0
M  V30 10704 H 1022.38 4.01605 0.499583 0
M  V30 10705 H 1020.95 3.01043 0.842118 0
M  V30 10706 H 1020.17 3.61649 -1.56857 0
M  V30 10707 H 1021.46 4.83411 -1.58717 0
M  V30 10708 H 1020.86 5.44481 1.53484 0
M  V30 10709 H 1019.41 6.36687 1.39544 0
M  V30 10710 N 1022.85 0.866709 1.31628 0
M  V30 10711 C 1024.26 0.529032 1.79048 0
M  V30 10712 C 1024.61 -0.953871 1.71452 0
M  V30 10713 O 1023.73 -1.74462 1.28031 0
M  V30 10714 C 1024.33 0.953522 3.25105 0
M  V30 10715 C 1022.89 0.667554 3.70433 0
M  V30 10716 C 1022.03 1.14664 2.52483 0
M  V30 10717 H 1024.98 1.05275 1.18756 0
M  V30 10718 H 1025.01 0.274844 3.79506 0
M  V30 10719 H 1024.52 2.03283 3.30602 0
M  V30 10720 H 1022.62 -0.400532 3.70441 0
M  V30 10721 H 1022.73 1.2423 4.62714 0
M  V30 10722 H 1021.1 0.566502 2.4832 0
M  V30 10723 H 1021.88 2.2333 2.60727 0
M  V30 10724 N 1024.32 -1.44642 0.625825 0
M  V30 10725 C 1025.25 -2.33397 -0.0692188 0
M  V30 10726 C 1026.23 -1.47898 -0.840241 0
M  V30 10727 O 1027.42 -1.7663 -0.807176 0
M  V30 10728 C 1024.55 -3.30888 -1.055 0
M  V30 10729 C 1023.5 -4.26164 -0.395968 0
M  V30 10730 C 1022.83 -5.13483 -1.49128 0
M  V30 10731 C 1024.13 -5.17663 0.694433 0
M  V30 10732 H 1025.82 -2.91763 0.671925 0
M  V30 10733 H 1023.37 -1.40294 0.324573 0
M  V30 10734 H 1025.32 -3.91861 -1.54993 0
M  V30 10735 H 1024.05 -2.7072 -1.82696 0
M  V30 10736 H 1022.71 -3.66516 0.0782691 0
M  V30 10737 H 1022.35 -4.49672 -2.25399 0
M  V30 10738 H 1022.05 -5.78038 -1.05573 0
M  V30 10739 H 1023.58 -5.77327 -1.98813 0
M  V30 10740 H 1024.99 -5.72602 0.282818 0
M  V30 10741 H 1023.39 -5.90793 1.05281 0
M  V30 10742 H 1024.46 -4.58994 1.56372 0
M  V30 10743 N 1025.8 -0.366053 -1.5329 0
M  V30 10744 C 1026.75 0.496656 -2.22525 0
M  V30 10745 C 1027.74 1.0483 -1.22063 0
M  V30 10746 O 1028.93 0.978266 -1.47509 0
M  V30 10747 C 1026.06 1.63559 -3.01833 0
M  V30 10748 C 1025.14 1.0968 -4.09672 0
M  V30 10749 N 1025.53 0.28104 -5.05019 0
M  V30 10750 C 1023.83 1.37157 -4.24387 0
M  V30 10751 C 1024.53 -0.0140071 -5.81698 0
M  V30 10752 N 1023.51 0.583743 -5.40457 0
M  V30 10753 H 1027.31 -0.133408 -2.93597 0
M  V30 10754 H 1024.82 -0.174095 -1.61464 0
M  V30 10755 H 1026.82 2.26582 -3.49952 0
M  V30 10756 H 1025.48 2.26871 -2.32292 0
M  V30 10757 H 1026.49 -0.0797947 -5.17839 0
M  V30 10758 H 1023.17 2.00743 -3.66072 0
M  V30 10759 H 1024.56 -0.673508 -6.68516 0
M  V30 10760 N 1027.28 1.57312 -0.0952337 0
M  V30 10761 C 1028.19 2.17556 0.877877 0
M  V30 10762 C 1029.21 1.14505 1.31014 0
M  V30 10763 O 1030.38 1.46876 1.37802 0
M  V30 10764 C 1027.45 2.74413 2.11892 0
M  V30 10765 C 1026.51 3.92419 1.74085 0
M  V30 10766 C 1025.74 4.46556 2.92273 0
M  V30 10767 O 1025.96 3.99631 4.07002 0
M  V30 10768 O 1024.9 5.37576 2.70732 0
M  V30 10769 H 1028.72 3.01116 0.395312 0
M  V30 10770 H 1026.31 1.48841 0.129123 0
M  V30 10771 H 1028.19 3.10754 2.84622 0
M  V30 10772 H 1026.87 1.93899 2.59201 0
M  V30 10773 H 1025.77 3.6089 0.985346 0
M  V30 10774 H 1027.11 4.74298 1.31539 0
M  V30 10775 N 1028.76 -0.17846 1.56586 0
M  V30 10776 C 1029.67 -1.24115 1.9908 0
M  V30 10777 C 1030.68 -1.48854 0.901031 0
M  V30 10778 O 1031.86 -1.61142 1.2081 0
M  V30 10779 C 1028.92 -2.56187 2.33601 0
M  V30 10780 C 1027.99 -2.39373 3.56369 0
M  V30 10781 C 1027.22 -3.65147 3.89234 0
M  V30 10782 O 1027.44 -4.70024 3.23162 0
M  V30 10783 O 1026.38 -3.59683 4.82609 0
M  V30 10784 H 1030.2 -0.910482 2.89731 0
M  V30 10785 H 1027.79 -0.38477 1.4436 0
M  V30 10786 H 1029.67 -3.34109 2.56806 0
M  V30 10787 H 1028.34 -2.88847 1.46113 0
M  V30 10788 H 1027.25 -1.59506 3.38391 0
M  V30 10789 H 1028.58 -2.1164 4.44375 0
M  V30 10790 N 1030.24 -1.51135 -0.446768 0
M  V30 10791 C 1031.48 -1.62571 -1.19388 0
M  V30 10792 C 1031.8 -0.3432 -1.92566 0
M  V30 10793 O 1033 -0.336804 -2.69403 0
M  V30 10794 C 1031.46 -2.87071 -2.17068 0
M  V30 10795 C 1031.07 -4.22291 -1.49581 0
M  V30 10796 C 1032.81 -3.07862 -2.9227 0
M  V30 10797 C 1030.72 -5.3795 -2.45689 0
M  V30 10798 H 1029.65 -0.60549 -0.449331 0
M  V30 10799 H 1032.3 -1.77593 -0.461846 0
M  V30 10800 H 1030.68 -2.65662 -2.93666 0
M  V30 10801 H 1031.86 -4.54046 -0.786054 0
M  V30 10802 H 1030.17 -4.07302 -0.865677 0
M  V30 10803 H 1032.77 -3.91444 -3.64246 0
M  V30 10804 H 1033.11 -2.20559 -3.53072 0
M  V30 10805 H 1033.64 -3.29566 -2.2278 0
M  V30 10806 H 1030.38 -6.27484 -1.89591 0
M  V30 10807 H 1029.9 -5.10583 -3.14746 0
M  V30 10808 H 1031.58 -5.69517 -3.07017 0
M  V30 10809 N 1031.71 0.701592 -1.41122 0
M  V30 10810 C 1032.68 1.79733 -1.42227 0
M  V30 10811 C 1033.68 1.57708 -0.313831 0
M  V30 10812 O 1034.87 1.64492 -0.573423 0
M  V30 10813 C 1032 3.18024 -1.22775 0
M  V30 10814 H 1033.19 1.80148 -2.39764 0
M  V30 10815 H 1030.74 0.908624 -1.27176 0
M  V30 10816 H 1031.48 3.23252 -0.260552 0
M  V30 10817 H 1031.26 3.35411 -2.0308 0
M  V30 10818 H 1032.75 3.98021 -1.2637 0
M  V30 10819 N 1033.19 1.2685 0.935242 0
M  V30 10820 C 1034.12 1.1143 2.05196 0
M  V30 10821 C 1035.1 0.0178362 1.70091 0
M  V30 10822 O 1036.29 0.190951 1.93259 0
M  V30 10823 C 1033.42 0.752779 3.39044 0
M  V30 10824 C 1032.37 1.80164 3.88233 0
M  V30 10825 C 1031.7 1.29428 5.18799 0
M  V30 10826 C 1033 3.20431 4.12457 0
M  V30 10827 H 1034.69 2.04845 2.18355 0
M  V30 10828 H 1032.24 0.986276 1.04922 0
M  V30 10829 H 1034.19 0.631757 4.16637 0
M  V30 10830 H 1032.91 -0.217075 3.25878 0
M  V30 10831 H 1031.57 1.91144 3.12825 0
M  V30 10832 H 1031.22 0.3141 5.02018 0
M  V30 10833 H 1030.92 1.99546 5.5268 0
M  V30 10834 H 1032.45 1.18605 5.9897 0
M  V30 10835 H 1033.86 3.12495 4.80645 0
M  V30 10836 H 1032.26 3.88193 4.57631 0
M  V30 10837 H 1033.33 3.66046 3.18023 0
M  V30 10838 N 1034.67 -1.14067 1.0875 0
M  V30 10839 C 1035.62 -2.17302 0.690195 0
M  V30 10840 C 1036.6 -1.58229 -0.291948 0
M  V30 10841 O 1037.8 -1.76698 -0.103411 0
M  V30 10842 C 1034.93 -3.4314 0.104835 0
M  V30 10843 C 1034.01 -4.09235 1.11298 0
M  V30 10844 N 1034.4 -4.50601 2.29765 0
M  V30 10845 C 1032.7 -4.35775 0.949535 0
M  V30 10846 C 1033.4 -5.02029 2.93839 0
M  V30 10847 N 1032.38 -4.96457 2.21431 0
M  V30 10848 H 1036.18 -2.47031 1.59226 0
M  V30 10849 H 1033.69 -1.30788 0.962722 0
M  V30 10850 H 1035.69 -4.16431 -0.197777 0
M  V30 10851 H 1034.35 -3.14888 -0.792172 0
M  V30 10852 H 1035.36 -4.43529 2.67399 0
M  V30 10853 H 1032.04 -4.17364 0.106627 0
M  V30 10854 H 1033.43 -5.43885 3.94511 0
M  V30 10855 N 1036.15 -0.873678 -1.31166 0
M  V30 10856 C 1037.1 -0.330288 -2.28424 0
M  V30 10857 C 1038.07 0.573299 -1.55893 0
M  V30 10858 O 1039.25 0.504143 -1.84019 0
M  V30 10859 C 1036.39 0.459004 -3.42034 0
M  V30 10860 C 1035.5 -0.472519 -4.29408 0
M  V30 10861 C 1034.64 0.331261 -5.30166 0
M  V30 10862 C 1033.68 -0.596453 -6.09187 0
M  V30 10863 N 1032.81 0.171305 -7.01891 0
M  V30 10864 H 1037.65 -1.16485 -2.7429 0
M  V30 10865 H 1035.19 -0.585813 -1.34932 0
M  V30 10866 H 1037.15 0.932432 -4.06647 0
M  V30 10867 H 1035.78 1.25824 -2.97268 0
M  V30 10868 H 1034.83 -1.06441 -3.65205 0
M  V30 10869 H 1036.14 -1.18372 -4.84551 0
M  V30 10870 H 1035.3 0.867038 -6.00473 0
M  V30 10871 H 1034.04 1.07573 -4.75688 0
M  V30 10872 H 1033.04 -1.14395 -5.37767 0
M  V30 10873 H 1034.27 -1.33983 -6.65752 0
M  V30 10874 H 1032.21 0.89852 -6.49817 0
M  V30 10875 H 1032.13 -0.480481 -7.54472 0
M  V30 10876 H 1033.4 0.688192 -7.76456 0
M  V30 10877 N 1037.63 1.44308 -0.633487 0
M  V30 10878 C 1038.86 2.06085 -0.145852 0
M  V30 10879 C 1039.26 1.47432 1.18577 0
M  V30 10880 O 1038.61 0.592575 1.7388 0
M  V30 10881 C 1038.67 3.59477 0.0407848 0
M  V30 10882 C 1038.33 4.40607 -1.21304 0
M  V30 10883 C 1039.33 4.73937 -2.13728 0
M  V30 10884 C 1037.02 4.80943 -1.44911 0
M  V30 10885 C 1039.01 5.46489 -3.28068 0
M  V30 10886 C 1036.7 5.53243 -2.59548 0
M  V30 10887 C 1037.69 5.85936 -3.50953 0
M  V30 10888 O 1037.38 6.56764 -4.6359 0
M  V30 10889 H 1037.11 0.671484 -0.0780085 0
M  V30 10890 H 1039.67 1.86128 -0.868658 0
M  V30 10891 H 1037.9 3.77933 0.818761 0
M  V30 10892 H 1039.59 4.03013 0.483273 0
M  V30 10893 H 1040.35 4.43311 -1.96725 0
M  V30 10894 H 1036.23 4.54915 -0.746537 0
M  V30 10895 H 1039.78 5.71924 -3.99435 0
M  V30 10896 H 1035.67 5.83285 -2.76493 0
M  V30 10897 H 1036.44 6.75234 -4.62602 0
M  V30 10898 N 1039.1 0.374177 1.53094 0
M  V30 10899 C 1040.03 -0.459976 2.28925 0
M  V30 10900 C 1041.02 -1.07656 1.31698 0
M  V30 10901 O 1042.2 -1.09219 1.60577 0
M  V30 10902 C 1039.33 -1.5954 3.08487 0
M  V30 10903 C 1038.28 -1.10563 4.13473 0
M  V30 10904 C 1037.61 -2.33196 4.81169 0
M  V30 10905 C 1038.91 -0.184275 5.21975 0
M  V30 10906 H 1040.6 0.172692 2.98902 0
M  V30 10907 H 1038.15 0.0844956 1.43752 0
M  V30 10908 H 1040.1 -2.18565 3.60288 0
M  V30 10909 H 1038.83 -2.25543 2.36216 0
M  V30 10910 H 1037.49 -0.53801 3.62631 0
M  V30 10911 H 1037.13 -2.97675 4.05461 0
M  V30 10912 H 1036.83 -2.01094 5.52119 0
M  V30 10913 H 1038.36 -2.92892 5.35767 0
M  V30 10914 H 1039.77 -0.682262 5.69226 0
M  V30 10915 H 1038.17 0.0462746 6.00082 0
M  V30 10916 H 1039.24 0.771152 4.78729 0
M  V30 10917 N 1040.58 -1.57259 0.103575 0
M  V30 10918 C 1041.53 -2.14487 -0.852295 0
M  V30 10919 C 1042.5 -1.06567 -1.27407 0
M  V30 10920 O 1043.68 -1.34398 -1.35432 0
M  V30 10921 C 1040.82 -2.73632 -2.10284 0
M  V30 10922 C 1039.94 -3.95811 -1.73083 0
M  V30 10923 C 1039.07 -4.43093 -2.92988 0
M  V30 10924 C 1038.11 -5.5784 -2.51953 0
M  V30 10925 N 1037.25 -5.99936 -3.64721 0
M  V30 10926 H 1042.09 -2.95849 -0.35743 0
M  V30 10927 H 1039.63 -1.46175 -0.164748 0
M  V30 10928 H 1041.58 -3.06046 -2.83534 0
M  V30 10929 H 1040.21 -1.94985 -2.57256 0
M  V30 10930 H 1039.27 -3.69656 -0.897688 0
M  V30 10931 H 1040.58 -4.79066 -1.38916 0
M  V30 10932 H 1039.73 -4.77335 -3.74481 0
M  V30 10933 H 1038.47 -3.58756 -3.30372 0
M  V30 10934 H 1037.48 -5.23217 -1.6889 0
M  V30 10935 H 1038.7 -6.43932 -2.15705 0
M  V30 10936 H 1036.65 -5.18543 -4.01807 0
M  V30 10937 H 1036.56 -6.78008 -3.34427 0
M  V30 10938 H 1037.83 -6.38812 -4.46699 0
M  V30 10939 N 1042.06 0.170153 -1.56679 0
M  V30 10940 C 1043.01 1.21531 -1.9291 0
M  V30 10941 C 1043.99 1.39742 -0.797553 0
M  V30 10942 O 1045.19 1.41693 -1.06075 0
M  V30 10943 C 1042.32 2.55447 -2.29351 0
M  V30 10944 C 1041.4 2.40925 -3.49022 0
M  V30 10945 N 1041.79 1.96118 -4.66231 0
M  V30 10946 C 1040.09 2.71747 -3.53652 0
M  V30 10947 C 1040.79 1.94086 -5.48366 0
M  V30 10948 N 1039.77 2.36533 -4.89441 0
M  V30 10949 H 1043.57 0.860602 -2.81018 0
M  V30 10950 H 1041.08 0.378415 -1.5793 0
M  V30 10951 H 1043.08 3.30972 -2.53502 0
M  V30 10952 H 1041.74 2.9172 -1.42583 0
M  V30 10953 H 1042.75 1.66438 -4.90427 0
M  V30 10954 H 1039.43 3.1205 -2.77365 0
M  V30 10955 H 1040.82 1.61132 -6.52293 0
M  V30 10956 N 1043.54 1.5137 0.438746 0
M  V30 10957 C 1044.95 1.39514 0.775116 0
M  V30 10958 C 1045.15 0.47638 1.95788 0
M  V30 10959 O 1044.21 -0.0689832 2.52406 0
M  V30 10960 C 1045.52 2.81517 1.05681 0
M  V30 10961 C 1047.07 2.90658 1.16133 0
M  V30 10962 C 1047.55 4.33566 1.47597 0
M  V30 10963 N 1049.04 4.36665 1.54524 0
M  V30 10964 C 1049.77 5.4427 1.80438 0
M  V30 10965 N 1049.27 6.62037 2.04154 0
M  V30 10966 N 1051.06 5.31749 1.82208 0
M  V30 10967 H 1043.21 2.09657 -0.340237 0
M  V30 10968 H 1045.48 0.943736 -0.0898115 0
M  V30 10969 H 1045.18 3.50734 0.260441 0
M  V30 10970 H 1045.06 3.20757 1.98481 0
M  V30 10971 H 1047.44 2.2164 1.94833 0
M  V30 10972 H 1047.52 2.54917 0.212376 0
M  V30 10973 H 1047.17 5.03133 0.694251 0
M  V30 10974 H 1047.1 4.66819 2.43696 0
M  V30 10975 H 1049.59 3.51761 1.38105 0
M  V30 10976 H 1049.9 7.39838 2.23293 0
M  V30 10977 H 1048.25 6.65155 2.01479 0
M  V30 10978 H 1051.44 4.3873 1.63198 0
M  V30 10979 H 1051.61 6.15689 2.02067 0
M  V30 10980 N 1045.02 -0.694098 1.41492 0
M  V30 10981 C 1045.96 -1.82932 1.43662 0
M  V30 10982 C 1046.96 -1.66455 0.31449 0
M  V30 10983 O 1048.16 -1.73298 0.486589 0
M  V30 10984 H 1044.54 -0.602847 0.449533 0
M  V30 10985 H 1046.51 -1.78218 2.39334 0
M  V30 10986 C 1045.26 -3.20962 1.33712 0
M  V30 10987 H 1044.58 -3.34257 2.19345 0
M  V30 10988 H 1046.02 -4.00467 1.39291 0
M  V30 10989 C 1044.48 -3.36863 0.0496332 0
M  V30 10990 O 1045.01 -3.91371 -0.905093 0
M  V30 10991 N 1043.22 -2.90588 -0.0269299 0
M  V30 10992 H 1042.76 -2.46417 0.750752 0
M  V30 10993 H 1042.72 -3.01605 -0.887781 0
M  V30 10994 N 1046.49 -1.27344 -0.928501 0
M  V30 10995 C 1047.74 -1.13019 -1.67061 0
M  V30 10996 C 1048.06 0.323614 -1.92904 0
M  V30 10997 O 1049.26 0.587752 -2.65062 0
M  V30 10998 C 1047.72 -1.97471 -3.00887 0
M  V30 10999 C 1047.33 -3.47504 -2.82746 0
M  V30 11000 C 1049.07 -1.91792 -3.78703 0
M  V30 11001 C 1046.98 -4.24158 -4.12122 0
M  V30 11002 H 1045.91 -0.419364 -0.626618 0
M  V30 11003 H 1048.56 -1.51759 -1.03158 0
M  V30 11004 H 1046.94 -1.51576 -3.65843 0
M  V30 11005 H 1048.11 -4.01256 -2.26562 0
M  V30 11006 H 1046.43 -3.54554 -2.18359 0
M  V30 11007 H 1049.03 -2.46339 -4.74575 0
M  V30 11008 H 1049.37 -0.891375 -4.06645 0
M  V30 11009 H 1049.9 -2.35578 -3.20543 0
M  V30 11010 H 1046.64 -5.27333 -3.89359 0
M  V30 11011 H 1046.16 -3.75183 -4.67972 0
M  V30 11012 H 1047.84 -4.33288 -4.80489 0
M  V30 11013 N 1047.97 1.13488 -1.09353 0
M  V30 11014 C 1049.22 1.85022 -0.830354 0
M  V30 11015 C 1049.55 1.83266 0.64242 0
M  V30 11016 O 1048.83 1.27024 1.47293 0
M  V30 11017 C 1049.11 3.33218 -1.36521 0
M  V30 11018 C 1048.96 3.43491 -2.90404 0
M  V30 11019 C 1050.28 4.28626 -0.998381 0
M  V30 11020 H 1047.4 0.671786 -0.303105 0
M  V30 11021 H 1050.04 1.33211 -1.3548 0
M  V30 11022 H 1048.19 3.77471 -0.919117 0
M  V30 11023 H 1049.86 3.07954 -3.43456 0
M  V30 11024 H 1048.11 2.84391 -3.27573 0
M  V30 11025 H 1048.78 4.47702 -3.22905 0
M  V30 11026 H 1051.25 3.9244 -1.38311 0
M  V30 11027 H 1050.13 5.30754 -1.39968 0
M  V30 11028 H 1050.39 4.42001 0.093517 0
M  V30 11029 N 1049.45 0.880621 1.30701 0
M  V30 11030 C 1050.38 0.301443 2.27209 0
M  V30 11031 C 1051.4 -0.541533 1.53529 0
M  V30 11032 O 1052.59 -0.361791 1.74795 0
M  V30 11033 C 1049.69 -0.59038 3.33718 0
M  V30 11034 C 1048.86 0.222549 4.36833 0
M  V30 11035 C 1047.92 -0.599083 5.22779 0
M  V30 11036 O 1046.94 -0.0233267 5.69195 0
M  V30 11037 N 1048.15 -1.90904 5.48211 0
M  V30 11038 H 1050.91 1.13083 2.77547 0
M  V30 11039 H 1048.47 0.743168 1.43835 0
M  V30 11040 H 1050.46 -1.14599 3.88135 0
M  V30 11041 H 1049.03 -1.32044 2.83343 0
M  V30 11042 H 1048.25 0.959606 3.82342 0
M  V30 11043 H 1049.54 0.779965 5.02786 0
M  V30 11044 H 1048.94 -2.3998 5.12275 0
M  V30 11045 H 1047.5 -2.4122 6.05521 0
M  V30 11046 N 1050.93 -1.4397 0.641131 0
M  V30 11047 C 1052.16 -2.06004 0.156779 0
M  V30 11048 C 1052.57 -1.48059 -1.17793 0
M  V30 11049 O 1051.91 -0.601788 -1.73563 0
M  V30 11050 C 1051.97 -3.59493 -0.0217203 0
M  V30 11051 C 1051.64 -4.39957 1.23639 0
M  V30 11052 C 1052.63 -4.72797 2.16239 0
M  V30 11053 C 1050.32 -4.80168 1.4746 0
M  V30 11054 C 1052.31 -5.44741 3.30962 0
M  V30 11055 C 1050 -5.51859 2.62478 0
M  V30 11056 C 1051 -5.84067 3.54055 0
M  V30 11057 O 1050.69 -6.54296 4.67067 0
M  V30 11058 H 1050.42 -0.671061 0.0815685 0
M  V30 11059 H 1052.97 -1.85664 0.878517 0
M  V30 11060 H 1051.2 -3.78362 -0.798707 0
M  V30 11061 H 1052.89 -4.03263 -0.461893 0
M  V30 11062 H 1053.66 -4.42261 1.99073 0
M  V30 11063 H 1049.54 -4.54513 0.770652 0
M  V30 11064 H 1053.08 -5.69798 4.02462 0
M  V30 11065 H 1048.98 -5.81811 2.79583 0
M  V30 11066 H 1049.74 -6.72772 4.66177 0
M  V30 11067 N 1052.41 -0.382291 -1.52893 0
M  V30 11068 C 1053.34 0.447829 -2.29165 0
M  V30 11069 C 1054.32 1.06956 -1.32267 0
M  V30 11070 O 1055.5 1.08365 -1.61154 0
M  V30 11071 C 1052.63 1.57902 -3.09329 0
M  V30 11072 C 1051.59 1.08369 -4.14053 0
M  V30 11073 C 1050.91 2.30641 -4.82399 0
M  V30 11074 C 1052.21 0.156591 -5.22065 0
M  V30 11075 H 1053.91 -0.188541 -2.98806 0
M  V30 11076 H 1051.45 -0.0921179 -1.43705 0
M  V30 11077 H 1053.41 2.16652 -3.61442 0
M  V30 11078 H 1052.13 2.24287 -2.37409 0
M  V30 11079 H 1050.79 0.518772 -3.62911 0
M  V30 11080 H 1050.44 2.9552 -4.07034 0
M  V30 11081 H 1050.14 1.98163 -5.53177 0
M  V30 11082 H 1051.66 2.90047 -5.37313 0
M  V30 11083 H 1053.08 0.652065 -5.6958 0
M  V30 11084 H 1051.47 -0.0780978 -6.00049 0
M  V30 11085 H 1052.54 -0.796529 -4.78313 0
M  V30 11086 N 1053.89 1.57202 -0.111913 0
M  V30 11087 C 1055.13 1.94565 0.546713 0
M  V30 11088 C 1055.45 0.995644 1.67666 0
M  V30 11089 O 1054.72 0.0506681 1.95834 0
M  V30 11090 H 1053.3 0.718334 0.204951 0
M  V30 11091 H 1055.97 1.94074 -0.179193 0
M  V30 11092 H 1055.06 2.9742 0.945931 0
M  V30 11093 N 1055.36 -0.161842 1.56767 0
M  V30 11094 C 1056.59 -0.896274 1.87034 0
M  V30 11095 C 1057.01 -1.74617 0.699314 0
M  V30 11096 O 1056.37 -1.77861 -0.351435 0
M  V30 11097 C 1056.42 -1.74105 3.15784 0
M  V30 11098 O 1055.52 -2.84372 2.98674 0
M  V30 11099 H 1054.86 -0.250523 0.614926 0
M  V30 11100 H 1057.39 -0.157127 2.03996 0
M  V30 11101 H 1057.4 -2.13907 3.4743 0
M  V30 11102 H 1056.08 -1.11684 4.00624 0
M  V30 11103 H 1054.66 -2.48084 2.78404 0
M  V30 11104 N 1056.84 -1.516 -0.430713 0
M  V30 11105 C 1058.09 -1.6484 -1.18134 0
M  V30 11106 C 1058.42 -0.366725 -1.90706 0
M  V30 11107 O 1057.7 0.63398 -1.83878 0
M  V30 11108 C 1057.98 -2.85617 -2.19306 0
M  V30 11109 C 1057.83 -4.23778 -1.50773 0
M  V30 11110 C 1059.15 -3.01909 -3.20217 0
M  V30 11111 H 1056.27 -0.599907 -0.428113 0
M  V30 11112 H 1058.91 -1.84102 -0.46973 0
M  V30 11113 H 1057.06 -2.69325 -2.79993 0
M  V30 11114 H 1058.73 -4.51752 -0.93371 0
M  V30 11115 H 1056.98 -4.26171 -0.809966 0
M  V30 11116 H 1057.65 -5.04291 -2.24487 0
M  V30 11117 H 1060.12 -3.16956 -2.69589 0
M  V30 11118 H 1059 -3.87968 -3.88293 0
M  V30 11119 H 1059.26 -2.1427 -3.86705 0
M  V30 11120 N 1058.32 0.686584 -1.41858 0
M  V30 11121 C 1059.54 1.4802 -1.45275 0
M  V30 11122 C 1059.97 1.87997 -0.0621297 0
M  V30 11123 O 1059.33 1.55226 0.936733 0
M  V30 11124 C 1059.38 2.7133 -2.37513 0
M  V30 11125 O 1058.48 3.69159 -1.83836 0
M  V30 11126 H 1057.82 0.445152 -0.492682 0
M  V30 11127 H 1060.35 0.843161 -1.86419 0
M  V30 11128 H 1060.36 3.19537 -2.53693 0
M  V30 11129 H 1059.04 2.41571 -3.3855 0
M  V30 11130 H 1057.61 3.28134 -1.77151 0
M  V30 11131 N 1059.8 1.27835 0.921735 0
M  V30 11132 C 1060.71 1.12904 2.05645 0
M  V30 11133 C 1061.72 0.0575704 1.73905 0
M  V30 11134 O 1062.9 0.265261 1.99645 0
M  V30 11135 C 1059.96 0.783957 3.3772 0
M  V30 11136 C 1059.03 1.93694 3.8312 0
M  V30 11137 C 1058.26 1.60823 5.08893 0
M  V30 11138 O 1058.48 0.518873 5.68035 0
M  V30 11139 O 1057.42 2.44932 5.49811 0
M  V30 11140 H 1061.24 2.08143 2.21157 0
M  V30 11141 H 1058.83 1.07078 1.04185 0
M  V30 11142 H 1060.71 0.605107 4.17033 0
M  V30 11143 H 1059.38 -0.138849 3.23402 0
M  V30 11144 H 1058.29 2.17089 3.04669 0
M  V30 11145 H 1059.62 2.84016 4.0199 0
M  V30 11146 N 1061.28 -1.12907 1.09954 0
M  V30 11147 C 1062.22 -2.20561 0.73863 0
M  V30 11148 C 1063.22 -1.67347 -0.262944 0
M  V30 11149 O 1064.42 -1.79574 -0.123834 0
M  V30 11150 H 1060.8 -0.718823 0.220901 0
M  V30 11151 H 1062.77 -2.4826 1.65559 0
M  V30 11152 C 1061.52 -3.47227 0.181239 0
M  V30 11153 H 1060.84 -3.88516 0.943144 0
M  V30 11154 H 1062.28 -4.23987 -0.0332888 0
M  V30 11155 C 1060.74 -3.18956 -1.08485 0
M  V30 11156 O 1061.27 -3.38224 -2.1672 0
M  V30 11157 N 1059.48 -2.72797 -1.00151 0
M  V30 11158 H 1059.02 -2.57317 -0.120645 0
M  V30 11159 H 1058.98 -2.54256 -1.84935 0
M  V30 11160 N 1062.75 -0.88754 -1.30232 0
M  V30 11161 C 1064 -0.506277 -1.95656 0
M  V30 11162 C 1064.32 0.948191 -1.70395 0
M  V30 11163 O 1063.59 1.66701 -1.02895 0
M  V30 11164 H 1062.17 -0.184235 -0.723924 0
M  V30 11165 H 1064.83 -1.13118 -1.58715 0
M  V30 11166 H 1063.93 -0.678673 -3.04632 0
M  V30 11167 N 1064.23 1.43628 -0.648757 0
M  V30 11168 C 1065.46 2.05918 -0.167701 0
M  V30 11169 C 1065.87 1.48681 1.17006 0
M  V30 11170 O 1065.21 0.610984 1.73242 0
M  V30 11171 C 1065.28 3.595 0.00265514 0
M  V30 11172 C 1064.94 4.39295 -1.2597 0
M  V30 11173 C 1065.94 4.71643 -2.18743 0
M  V30 11174 C 1063.62 4.79379 -1.50004 0
M  V30 11175 C 1065.62 5.42978 -3.33846 0
M  V30 11176 C 1063.3 5.50459 -2.65401 0
M  V30 11177 C 1064.3 5.82181 -3.57148 0
M  V30 11178 O 1063.99 6.5181 -4.7053 0
M  V30 11179 H 1063.72 0.670619 -0.0851261 0
M  V30 11180 H 1066.27 1.85196 -0.888351 0
M  V30 11181 H 1064.5 3.7878 0.77863 0
M  V30 11182 H 1066.19 4.03503 0.440501 0
M  V30 11183 H 1066.96 4.41199 -2.01416 0
M  V30 11184 H 1062.84 4.54098 -0.794745 0
M  V30 11185 H 1066.38 5.67656 -4.05479 0
M  V30 11186 H 1062.28 5.8032 -2.82664 0
M  V30 11187 H 1063.05 6.7029 -4.69738 0
M  V30 11188 N 1065.71 0.390394 1.52688 0
M  V30 11189 C 1066.96 -0.192697 2.00777 0
M  V30 11190 C 1067.27 -1.4781 1.28108 0
M  V30 11191 O 1068.48 -2.1413 1.66914 0
M  V30 11192 C 1066.93 -0.393955 3.57737 0
M  V30 11193 C 1066.54 0.878259 4.39307 0
M  V30 11194 C 1068.29 -0.933352 4.14112 0
M  V30 11195 C 1066.19 0.645218 5.8787 0
M  V30 11196 H 1065.12 -0.0757862 0.750182 0
M  V30 11197 H 1067.77 0.512961 1.76184 0
M  V30 11198 H 1066.16 -1.16149 3.78583 0
M  V30 11199 H 1067.33 1.65049 4.30227 0
M  V30 11200 H 1065.65 1.34269 3.94158 0
M  V30 11201 H 1068.24 -1.12343 5.22765 0
M  V30 11202 H 1068.59 -1.90272 3.70273 0
M  V30 11203 H 1069.12 -0.225361 3.97161 0
M  V30 11204 H 1065.86 1.58562 6.36033 0
M  V30 11205 H 1065.38 -0.0880609 5.99735 0
M  V30 11206 H 1067.06 0.280178 6.46393 0
M  V30 11207 N 1067.19 -1.57141 0.120249 0
M  V30 11208 C 1068.14 -2.15379 -0.829497 0
M  V30 11209 C 1069.11 -1.07913 -1.2627 0
M  V30 11210 O 1070.29 -1.35827 -1.33999 0
M  V30 11211 C 1067.43 -2.75847 -2.0737 0
M  V30 11212 C 1066.54 -3.97624 -1.68875 0
M  V30 11213 C 1065.68 -4.46175 -2.88272 0
M  V30 11214 C 1064.72 -5.60481 -2.46023 0
M  V30 11215 N 1063.85 -6.0377 -3.58337 0
M  V30 11216 H 1068.69 -2.96211 -0.326031 0
M  V30 11217 H 1066.23 -1.46341 -0.149235 0
M  V30 11218 H 1068.19 -3.09037 -2.80272 0
M  V30 11219 H 1066.82 -1.97703 -2.55174 0
M  V30 11220 H 1065.87 -3.70588 -0.858431 0
M  V30 11221 H 1067.18 -4.80512 -1.33827 0
M  V30 11222 H 1066.34 -4.8128 -3.69397 0
M  V30 11223 H 1065.08 -3.6224 -3.26548 0
M  V30 11224 H 1064.08 -5.24979 -1.63331 0
M  V30 11225 H 1065.31 -6.46184 -2.08863 0
M  V30 11226 H 1063.25 -5.22776 -3.96284 0
M  V30 11227 H 1063.17 -6.81517 -3.27217 0
M  V30 11228 H 1064.44 -6.43514 -4.39898 0
M  V30 11229 N 1068.67 0.153526 -1.5685 0
M  V30 11230 C 1069.92 0.865628 -1.82181 0
M  V30 11231 C 1070.23 1.82629 -0.700434 0
M  V30 11232 O 1071.43 2.58206 -0.839155 0
M  V30 11233 C 1069.89 1.58993 -3.22877 0
M  V30 11234 C 1069.5 0.672006 -4.42931 0
M  V30 11235 C 1071.24 2.2892 -3.57486 0
M  V30 11236 C 1069.15 1.39755 -5.7465 0
M  V30 11237 H 1068.08 0.326993 -0.679406 0
M  V30 11238 H 1070.73 0.118403 -1.83118 0
M  V30 11239 H 1069.11 2.38255 -3.16308 0
M  V30 11240 H 1070.29 -0.0849226 -4.60722 0
M  V30 11241 H 1068.6 0.0814825 -4.1632 0
M  V30 11242 H 1071.2 2.8383 -4.5315 0
M  V30 11243 H 1071.54 3.05105 -2.83226 0
M  V30 11244 H 1072.07 1.56583 -3.65686 0
M  V30 11245 H 1068.81 0.677686 -6.51987 0
M  V30 11246 H 1068.33 2.12736 -5.60806 0
M  V30 11247 H 1070.01 1.94024 -6.17223 0
M  V30 11248 N 1070.14 1.51827 0.422667 0
M  V30 11249 C 1071.39 1.6522 1.17084 0
M  V30 11250 C 1071.72 0.375508 1.90841 0
M  V30 11251 O 1070.97 -0.641029 1.84903 0
M  V30 11252 C 1071.27 2.81572 2.20119 0
M  V30 11253 C 1070.94 4.20303 1.63268 0
M  V30 11254 C 1069.6 4.5804 1.47488 0
M  V30 11255 C 1071.95 5.06812 1.21618 0
M  V30 11256 C 1069.28 5.79979 0.885531 0
M  V30 11257 C 1071.63 6.29343 0.641071 0
M  V30 11258 C 1070.3 6.65841 0.470286 0
M  V30 11259 H 1069.57 0.604581 0.428442 0
M  V30 11260 H 1072.21 1.85896 0.459874 0
M  V30 11261 H 1070.52 2.55175 2.97309 0
M  V30 11262 H 1072.22 2.89132 2.77856 0
M  V30 11263 H 1068.81 3.90557 1.76531 0
M  V30 11264 H 1072.99 4.78251 1.32624 0
M  V30 11265 H 1068.25 6.06892 0.741105 0
M  V30 11266 H 1072.42 6.9571 0.309888 0
M  V30 11267 H 1070.05 7.60199 0.0115038 0
M  V30 11268 N 1071.62 -0.679052 1.4222 0
M  V30 11269 C 1072.56 -1.80369 1.39794 0
M  V30 11270 C 1073.53 -1.60462 0.262806 0
M  V30 11271 O 1074.72 -1.82992 0.452352 0
M  V30 11272 C 1071.84 -3.17305 1.18471 0
M  V30 11273 C 1070.89 -3.55969 2.34922 0
M  V30 11274 S 1071.72 -3.58884 3.97445 0
M  V30 11275 C 1072.88 -4.98519 3.78457 0
M  V30 11276 H 1073.11 -1.82152 2.34964 0
M  V30 11277 H 1070.65 -0.84932 1.28942 0
M  V30 11278 H 1072.6 -3.96348 1.06856 0
M  V30 11279 H 1071.26 -3.13112 0.248944 0
M  V30 11280 H 1070.46 -4.55491 2.1574 0
M  V30 11281 H 1070.06 -2.84275 2.4303 0
M  V30 11282 H 1072.35 -5.86481 3.39184 0
M  V30 11283 H 1073.29 -5.22748 4.77641 0
M  V30 11284 H 1073.7 -4.70836 3.11406 0
M  V30 11285 N 1073.1 -1.28322 -0.914942 0
M  V30 11286 C 1074.01 -1.13993 -2.05043 0
M  V30 11287 C 1075.03 -0.0667921 -1.73872 0
M  V30 11288 O 1076.2 -0.275845 -1.99502 0
M  V30 11289 C 1073.27 -0.801856 -3.373 0
M  V30 11290 C 1072.33 -1.95723 -3.82088 0
M  V30 11291 C 1071.56 -1.63519 -5.08033 0
M  V30 11292 O 1071.78 -0.54899 -5.67752 0
M  V30 11293 O 1070.72 -2.47844 -5.48504 0
M  V30 11294 H 1074.54 -2.09313 -2.2005 0
M  V30 11295 H 1072.13 -1.0763 -1.03616 0
M  V30 11296 H 1074.01 -0.627214 -4.16706 0
M  V30 11297 H 1072.69 0.121696 -3.23471 0
M  V30 11298 H 1071.59 -2.18702 -3.03514 0
M  V30 11299 H 1072.93 -2.86144 -4.00478 0
M  V30 11300 N 1074.58 1.12322 -1.10551 0
M  V30 11301 C 1075.51 2.17819 -0.713263 0
M  V30 11302 C 1076.52 1.6086 0.250604 0
M  V30 11303 O 1077.71 1.78466 0.0348909 0
M  V30 11304 C 1074.81 3.38885 -0.0320325 0
M  V30 11305 C 1073.99 4.25332 -1.02038 0
M  V30 11306 C 1073.04 5.24895 -0.370412 0
M  V30 11307 O 1072.07 5.59958 -1.02157 0
M  V30 11308 N 1073.27 5.73934 0.870633 0
M  V30 11309 H 1076.04 2.52083 -1.62094 0
M  V30 11310 H 1073.6 1.27755 -0.994492 0
M  V30 11311 H 1075.59 4.02574 0.414285 0
M  V30 11312 H 1074.16 3.02762 0.778072 0
M  V30 11313 H 1073.38 3.5824 -1.64492 0
M  V30 11314 H 1074.67 4.79936 -1.68936 0
M  V30 11315 H 1074.07 5.47614 1.419 0
M  V30 11316 H 1072.62 6.39504 1.26008 0
M  V30 11317 N 1076.06 0.894434 1.2976 0
M  V30 11318 C 1077.3 0.518435 1.96061 0
M  V30 11319 C 1077.64 -0.931882 1.70381 0
M  V30 11320 O 1076.91 -1.65988 1.01381 0
M  V30 11321 C 1077.19 0.80519 3.50982 0
M  V30 11322 C 1077.05 2.30683 3.86142 0
M  V30 11323 C 1078.37 0.288096 4.39156 0
M  V30 11324 H 1075.48 0.18983 0.712133 0
M  V30 11325 H 1078.13 1.12016 1.53468 0
M  V30 11326 H 1076.28 0.293071 3.87393 0
M  V30 11327 H 1077.95 2.88808 3.59705 0
M  V30 11328 H 1076.19 2.76968 3.33873 0
M  V30 11329 H 1076.86 2.45805 4.94251 0
M  V30 11330 H 1079.34 0.726547 4.09708 0
M  V30 11331 H 1078.21 0.517985 5.4645 0
M  V30 11332 H 1078.48 -0.811018 4.34597 0
M  V30 11333 N 1077.53 -1.43282 0.656365 0
M  V30 11334 C 1078.95 -1.85012 0.250475 0
M  V30 11335 C 1079.3 -1.54944 -1.20361 0
M  V30 11336 O 1078.42 -0.999983 -1.9191 0
M  V30 11337 C 1079.02 -3.35827 0.447815 0
M  V30 11338 C 1077.58 -3.76277 0.0962151 0
M  V30 11339 C 1076.72 -2.66988 0.749168 0
M  V30 11340 H 1079.67 -1.3339 0.85982 0
M  V30 11341 H 1079.69 -3.7927 -0.305726 0
M  V30 11342 H 1079.21 -3.5768 1.5062 0
M  V30 11343 H 1077.31 -3.60035 -0.959449 0
M  V30 11344 H 1077.42 -4.76227 0.523875 0
M  V30 11345 H 1075.78 -2.54048 0.18212 0
M  V30 11346 H 1076.57 -2.91669 1.81064 0
M  V30 11347 N 1079.01 -0.398486 -1.52479 0
M  V30 11348 C 1080.26 0.180394 -2.01293 0
M  V30 11349 C 1080.58 1.46548 -1.28641 0
M  V30 11350 O 1079.85 1.91579 -0.409173 0
M  V30 11351 H 1078.43 0.0696528 -0.743746 0
M  V30 11352 H 1081.09 -0.532285 -1.87491 0
M  V30 11353 H 1080.19 0.38409 -3.09728 0
M  V30 11354 N 1080.49 1.57075 -0.12858 0
M  V30 11355 C 1081.74 1.95134 0.526046 0
M  V30 11356 C 1082.06 1.01337 1.66601 0
M  V30 11357 O 1081.33 0.0714361 1.9577 0
M  V30 11358 H 1079.91 0.720468 0.19732 0
M  V30 11359 H 1082.57 1.93874 -0.199767 0
M  V30 11360 H 1081.67 2.98406 0.914332 0
M  V30 11361 N 1081.97 -0.145205 1.5693 0
M  V30 11362 C 1083.19 -0.876386 1.87974 0
M  V30 11363 C 1083.62 -1.73866 0.717795 0
M  V30 11364 O 1082.98 -1.78224 -0.332551 0
M  V30 11365 C 1083.03 -1.70746 3.17613 0
M  V30 11366 O 1082.13 -2.81188 3.01674 0
M  V30 11367 H 1081.47 -0.243987 0.617549 0
M  V30 11368 H 1084 -0.135482 2.04151 0
M  V30 11369 H 1084.01 -2.1021 3.49679 0
M  V30 11370 H 1082.69 -1.07429 4.01786 0
M  V30 11371 H 1081.26 -2.45117 2.81019 0
M  V30 11372 N 1083.45 -1.52049 -0.414609 0
M  V30 11373 C 1084.38 -1.77956 -1.51175 0
M  V30 11374 C 1085.36 -0.630282 -1.57992 0
M  V30 11375 O 1086.54 -0.875324 -1.73354 0
M  V30 11376 C 1083.67 -1.92527 -2.89051 0
M  V30 11377 C 1082.63 -3.08096 -2.97087 0
M  V30 11378 C 1081.95 -3.07882 -4.37164 0
M  V30 11379 C 1083.25 -4.47656 -2.69075 0
M  V30 11380 H 1084.95 -2.69827 -1.29746 0
M  V30 11381 H 1082.49 -1.29839 -0.62273 0
M  V30 11382 H 1084.45 -2.09234 -3.65786 0
M  V30 11383 H 1083.17 -0.973235 -3.11762 0
M  V30 11384 H 1081.83 -2.91131 -2.22797 0
M  V30 11385 H 1081.48 -2.10411 -4.56877 0
M  V30 11386 H 1081.18 -3.85501 -4.43467 0
M  V30 11387 H 1082.7 -3.26712 -5.15841 0
M  V30 11388 H 1084.12 -4.64855 -3.35534 0
M  V30 11389 H 1082.51 -5.27151 -2.8676 0
M  V30 11390 H 1083.58 -4.56129 -1.64544 0
M  V30 11391 N 1084.93 0.6715 -1.42579 0
M  V30 11392 C 1086.15 1.46471 -1.46836 0
M  V30 11393 C 1086.58 1.87921 -0.0820658 0
M  V30 11394 O 1085.93 1.5621 0.920217 0
M  V30 11395 C 1085.98 2.68796 -2.40377 0
M  V30 11396 O 1085.09 3.67188 -1.87741 0
M  V30 11397 H 1084.43 0.439901 -0.497376 0
M  V30 11398 H 1086.96 0.823342 -1.87303 0
M  V30 11399 H 1086.97 3.16828 -2.57068 0
M  V30 11400 H 1085.64 2.37967 -3.41093 0
M  V30 11401 H 1084.22 3.26237 -1.80621 0
M  V30 11402 N 1086.4 1.28806 0.908124 0
M  V30 11403 C 1087.37 1.13228 1.99279 0
M  V30 11404 C 1088.37 0.0702456 1.60646 0
M  V30 11405 O 1089.56 0.316494 1.71301 0
M  V30 11406 C 1086.69 0.729629 3.33 0
M  V30 11407 H 1087.88 2.09566 2.14528 0
M  V30 11408 H 1085.43 1.11872 1.09153 0
M  V30 11409 H 1086.17 -0.234268 3.23453 0
M  V30 11410 H 1085.95 1.49688 3.62403 0
M  V30 11411 H 1087.44 0.643449 4.12613 0
M  V30 11412 N 1087.88 -1.11734 1.11145 0
M  V30 11413 C 1088.81 -2.1976 0.789152 0
M  V30 11414 C 1089.79 -1.68382 -0.241143 0
M  V30 11415 O 1090.98 -1.93914 -0.105292 0
M  V30 11416 C 1088.11 -3.46549 0.228204 0
M  V30 11417 C 1087.06 -4.11123 1.19002 0
M  V30 11418 C 1086.39 -5.32451 0.489928 0
M  V30 11419 C 1087.69 -4.56406 2.53951 0
M  V30 11420 H 1089.38 -2.46978 1.69241 0
M  V30 11421 H 1086.93 -1.18705 0.81517 0
M  V30 11422 H 1088.88 -4.21399 -0.00945908 0
M  V30 11423 H 1087.6 -3.18782 -0.71033 0
M  V30 11424 H 1086.26 -3.38264 1.41326 0
M  V30 11425 H 1085.91 -5.00953 -0.453315 0
M  V30 11426 H 1085.61 -5.76605 1.1314 0
M  V30 11427 H 1087.14 -6.10042 0.260984 0
M  V30 11428 H 1088.55 -5.22592 2.35733 0
M  V30 11429 H 1086.95 -5.11363 3.14051 0
M  V30 11430 H 1088.02 -3.7001 3.13402 0
M  V30 11431 N 1089.36 -0.901303 -1.29284 0
M  V30 11432 C 1090.29 -0.396909 -2.30102 0
M  V30 11433 C 1091.27 0.528919 -1.61668 0
M  V30 11434 O 1092.46 0.439306 -1.89166 0
M  V30 11435 C 1089.59 0.375006 -3.45269 0
M  V30 11436 C 1088.54 -0.46054 -4.25515 0
M  V30 11437 C 1087.87 0.438967 -5.32895 0
M  V30 11438 C 1089.17 -1.7113 -4.93469 0
M  V30 11439 H 1090.86 -1.23943 -2.72541 0
M  V30 11440 H 1088.41 -0.597428 -1.31022 0
M  V30 11441 H 1090.36 0.738622 -4.14876 0
M  V30 11442 H 1089.08 1.25132 -3.01678 0
M  V30 11443 H 1087.74 -0.80651 -3.57618 0
M  V30 11444 H 1087.39 1.31346 -4.85548 0
M  V30 11445 H 1087.09 -0.116406 -5.87485 0
M  V30 11446 H 1088.61 0.79874 -6.05353 0
M  V30 11447 H 1090.03 -1.41732 -5.55504 0
M  V30 11448 H 1088.42 -2.20811 -5.57999 0
M  V30 11449 H 1089.49 -2.44636 -4.18666 0
M  V30 11450 N 1090.84 1.42931 -0.663954 0
M  V30 11451 C 1092.25 1.56098 -0.332496 0
M  V30 11452 C 1092.45 1.64564 1.16279 0
M  V30 11453 O 1091.51 1.6066 1.94794 0
M  V30 11454 C 1092.82 2.81649 -1.05329 0
M  V30 11455 C 1094.37 2.95408 -1.03457 0
M  V30 11456 C 1094.85 4.23805 -1.73647 0
M  V30 11457 N 1096.34 4.30693 -1.70462 0
M  V30 11458 C 1097.07 5.28833 -2.21637 0
M  V30 11459 N 1096.57 6.33189 -2.81147 0
M  V30 11460 N 1098.36 5.20558 -2.12075 0
M  V30 11461 H 1090.51 1.3568 -1.63416 0
M  V30 11462 H 1092.77 0.652361 -0.687844 0
M  V30 11463 H 1092.48 2.81494 -2.10842 0
M  V30 11464 H 1092.35 3.72208 -0.611626 0
M  V30 11465 H 1094.74 2.95097 0.0121936 0
M  V30 11466 H 1094.82 2.06109 -1.51502 0
M  V30 11467 H 1094.47 4.24876 -2.78285 0
M  V30 11468 H 1094.4 5.12019 -1.2306 0
M  V30 11469 H 1096.89 3.55904 -1.27046 0
M  V30 11470 H 1097.2 7.04411 -3.17844 0
M  V30 11471 H 1095.55 6.33781 -2.85212 0
M  V30 11472 H 1098.74 4.3795 -1.6528 0
M  V30 11473 H 1098.91 5.96881 -2.52264 0
M  V30 11474 N 1092.32 0.406567 1.52266 0
M  V30 11475 C 1093.54 -0.172101 2.06685 0
M  V30 11476 C 1093.97 -1.38306 1.27488 0
M  V30 11477 O 1093.32 -1.78726 0.304441 0
M  V30 11478 C 1093.37 -0.503463 3.57068 0
M  V30 11479 O 1092.48 -1.59485 3.80314 0
M  V30 11480 H 1091.82 -0.0153209 0.663823 0
M  V30 11481 H 1094.35 0.579025 1.96236 0
M  V30 11482 H 1094.36 -0.762833 4.00805 0
M  V30 11483 H 1093.03 0.381775 4.14144 0
M  V30 11484 H 1091.61 -1.32784 3.48458 0
M  V30 11485 N 1093.79 -1.57004 0.136909 0
M  V30 11486 C 1094.74 -2.16246 -0.806607 0
M  V30 11487 C 1095.71 -1.09246 -1.25118 0
M  V30 11488 O 1096.9 -1.3724 -1.32551 0
M  V30 11489 C 1094.04 -2.78031 -2.04433 0
M  V30 11490 C 1093.15 -3.99393 -1.64649 0
M  V30 11491 C 1092.28 -4.49208 -2.83524 0
M  V30 11492 C 1091.32 -5.63059 -2.40064 0
M  V30 11493 N 1090.46 -6.07537 -3.51913 0
M  V30 11494 H 1095.3 -2.9654 -0.294596 0
M  V30 11495 H 1092.84 -1.46491 -0.133705 0
M  V30 11496 H 1094.8 -3.11992 -2.76978 0
M  V30 11497 H 1093.43 -2.00398 -2.53062 0
M  V30 11498 H 1092.48 -3.71477 -0.819077 0
M  V30 11499 H 1093.79 -4.81904 -1.28723 0
M  V30 11500 H 1092.94 -4.85171 -3.64271 0
M  V30 11501 H 1091.68 -3.65683 -3.22688 0
M  V30 11502 H 1090.69 -5.26682 -1.57754 0
M  V30 11503 H 1091.91 -6.48362 -2.01997 0
M  V30 11504 H 1089.86 -5.2695 -3.90717 0
M  V30 11505 H 1089.78 -6.84949 -3.1997 0
M  V30 11506 H 1091.04 -6.48143 -4.33048 0
M  V30 11507 N 1095.27 0.136881 -1.57004 0
M  V30 11508 C 1096.52 0.844147 -1.85056 0
M  V30 11509 C 1096.87 1.78328 -0.722278 0
M  V30 11510 O 1096.17 1.89557 0.279059 0
M  V30 11511 C 1096.36 1.64711 -3.17183 0
M  V30 11512 C 1096.19 0.787229 -4.42756 0
M  V30 11513 C 1094.96 0.448938 -5.03302 0
M  V30 11514 C 1097.16 0.112947 -5.14176 0
M  V30 11515 N 1095.14 -0.423481 -6.12438 0
M  V30 11516 C 1096.51 -0.619195 -6.169 0
M  V30 11517 C 1098.57 0.0346687 -4.97888 0
M  V30 11518 C 1097.27 -1.42224 -7.05099 0
M  V30 11519 C 1099.29 -0.755143 -5.86559 0
M  V30 11520 C 1098.66 -1.47553 -6.88772 0
M  V30 11521 H 1094.76 0.286398 -0.727668 0
M  V30 11522 H 1097.34 0.108903 -1.94395 0
M  V30 11523 H 1095.51 2.35352 -3.08972 0
M  V30 11524 H 1097.24 2.29833 -3.33105 0
M  V30 11525 H 1094 0.787068 -4.67014 0
M  V30 11526 H 1094.42 -0.851013 -6.7163 0
M  V30 11527 H 1099.06 0.577271 -4.18841 0
M  V30 11528 H 1096.78 -1.97606 -7.83567 0
M  V30 11529 H 1100.37 -0.817835 -5.76023 0
M  V30 11530 H 1099.25 -2.07687 -7.56198 0
M  V30 11531 N 1096.75 1.52266 0.40654 0
M  V30 11532 C 1098 1.66123 1.15097 0
M  V30 11533 C 1098.32 0.394836 1.90961 0
M  V30 11534 O 1097.59 -0.590349 1.86793 0
M  V30 11535 H 1096.17 0.612317 0.427875 0
M  V30 11536 H 1098.83 1.89318 0.463106 0
M  V30 11537 H 1097.93 2.50351 1.86361 0
M  V30 11538 N 1098.23 -0.663929 1.42933 0
M  V30 11539 C 1099.64 -1.24484 1.39143 0
M  V30 11540 C 1099.99 -1.95993 0.0901142 0
M  V30 11541 O 1099.12 -2.00636 -0.810812 0
M  V30 11542 C 1099.71 -2.26402 2.52047 0
M  V30 11543 C 1098.27 -2.79995 2.51555 0
M  V30 11544 C 1097.42 -1.54475 2.30289 0
M  V30 11545 H 1100.37 -0.456619 1.51989 0
M  V30 11546 H 1100.39 -3.08361 2.22921 0
M  V30 11547 H 1099.9 -1.74328 3.46744 0
M  V30 11548 H 1098 -3.36161 1.60707 0
M  V30 11549 H 1098.11 -3.2827 3.48964 0
M  V30 11550 H 1096.48 -1.81437 1.78753 0
M  V30 11551 H 1097.26 -1.04351 3.27056 0
M  V30 11552 N 1099.71 -1.29285 -0.901281 0
M  V30 11553 C 1100.64 -1.08603 -2.007 0
M  V30 11554 C 1101.62 0.00162233 -1.626 0
M  V30 11555 O 1102.8 -0.148764 -1.87912 0
M  V30 11556 C 1099.93 -0.652972 -3.32346 0
M  V30 11557 C 1098.97 -1.73911 -3.89432 0
M  V30 11558 S 1099.81 -3.33797 -4.18736 0
M  V30 11559 C 1100.96 -2.92355 -5.53425 0
M  V30 11560 H 1101.2 -2.02216 -2.17936 0
M  V30 11561 H 1098.73 -1.13414 -1.04769 0
M  V30 11562 H 1100.69 -0.409825 -4.08449 0
M  V30 11563 H 1099.35 0.263527 -3.12993 0
M  V30 11564 H 1098.54 -1.388 -4.84511 0
M  V30 11565 H 1098.14 -1.93569 -3.20011 0
M  V30 11566 H 1100.44 -2.39301 -6.33831 0
M  V30 11567 H 1101.38 -3.86278 -5.9346 0
M  V30 11568 H 1101.79 -2.30697 -5.15208 0
M  V30 11569 N 1101.18 1.11143 -1.11736 0
M  V30 11570 C 1102.13 2.17274 -0.778513 0
M  V30 11571 C 1103.1 1.64186 0.251405 0
M  V30 11572 O 1104.29 1.90373 0.127629 0
M  V30 11573 C 1101.43 3.44324 -0.231246 0
M  V30 11574 C 1100.54 4.114 -1.31809 0
M  V30 11575 C 1099.67 5.26146 -0.73104 0
M  V30 11576 C 1098.71 5.85112 -1.79752 0
M  V30 11577 N 1097.85 6.91247 -1.22973 0
M  V30 11578 H 1102.69 2.45603 -1.68769 0
M  V30 11579 H 1100.23 1.20565 -0.842759 0
M  V30 11580 H 1102.19 4.1707 0.104045 0
M  V30 11581 H 1100.82 3.16369 0.641119 0
M  V30 11582 H 1099.87 3.36697 -1.77029 0
M  V30 11583 H 1101.18 4.51278 -2.12485 0
M  V30 11584 H 1100.33 6.05713 -0.345987 0
M  V30 11585 H 1099.07 4.87583 0.107 0
M  V30 11586 H 1098.08 5.0422 -2.19185 0
M  V30 11587 H 1099.3 6.25741 -2.63865 0
M  V30 11588 H 1097.25 6.54696 -0.41339 0
M  V30 11589 H 1097.17 7.29796 -1.97316 0
M  V30 11590 H 1098.43 7.74611 -0.87167 0
M  V30 11591 N 1102.66 0.908147 1.28804 0
M  V30 11592 C 1103.57 0.397167 2.31214 0
M  V30 11593 C 1104.59 -0.512352 1.66286 0
M  V30 11594 O 1105.76 -0.399893 1.9739 0
M  V30 11595 C 1102.83 -0.359522 3.44831 0
M  V30 11596 C 1101.89 0.582539 4.25329 0
M  V30 11597 C 1101.12 -0.138133 5.33521 0
M  V30 11598 O 1101.35 -1.36076 5.53931 0
M  V30 11599 O 1100.28 0.523682 5.99618 0
M  V30 11600 H 1104.11 1.247 2.76918 0
M  V30 11601 H 1101.69 0.672766 1.33395 0
M  V30 11602 H 1103.57 -0.787098 4.13984 0
M  V30 11603 H 1102.25 -1.18528 3.01219 0
M  V30 11604 H 1101.16 1.0594 3.58786 0
M  V30 11605 H 1102.49 1.37495 4.72605 0
M  V30 11606 N 1104.14 -1.42577 0.671525 0
M  V30 11607 C 1105.55 -1.84736 0.270084 0
M  V30 11608 C 1105.9 -1.56212 -1.18711 0
M  V30 11609 O 1105.03 -1.02028 -1.90838 0
M  V30 11610 C 1105.62 -3.35334 0.483409 0
M  V30 11611 C 1104.18 -3.76154 0.136119 0
M  V30 11612 C 1103.33 -2.66179 0.777444 0
M  V30 11613 H 1106.28 -1.3247 0.873919 0
M  V30 11614 H 1106.3 -3.79573 -0.265483 0
M  V30 11615 H 1105.81 -3.56063 1.54405 0
M  V30 11616 H 1103.91 -3.61033 -0.921209 0
M  V30 11617 H 1104.03 -4.75645 0.574356 0
M  V30 11618 H 1102.39 -2.53841 0.209055 0
M  V30 11619 H 1103.17 -2.89732 1.84148 0
M  V30 11620 N 1105.62 -0.414636 -1.52048 0
M  V30 11621 C 1106.85 0.158686 -2.06291 0
M  V30 11622 C 1107.26 1.38397 -1.2842 0
M  V30 11623 O 1106.62 1.79351 -0.337539 0
M  V30 11624 C 1106.67 0.503634 -3.57975 0
M  V30 11625 O 1106.39 -0.672996 -4.329 0
M  V30 11626 C 1107.89 1.13009 -4.28653 0
M  V30 11627 H 1105.11 0.0179622 -0.67076 0
M  V30 11628 H 1107.66 -0.587177 -1.95889 0
M  V30 11629 H 1105.81 1.19939 -3.68366 0
M  V30 11630 H 1106.22 -0.383735 -5.23094 0
M  V30 11631 H 1107.7 1.32162 -5.35945 0
M  V30 11632 H 1108.18 2.10476 -3.85482 0
M  V30 11633 H 1108.78 0.474379 -4.22646 0
M  V30 11634 N 1107.1 1.56929 -0.145233 0
M  V30 11635 C 1108.35 1.95243 0.506273 0
M  V30 11636 C 1108.66 1.0325 1.66129 0
M  V30 11637 O 1109.86 1.31135 2.37731 0
M  V30 11638 C 1108.32 3.47079 0.952042 0
M  V30 11639 C 1107.93 4.47654 -0.175947 0
M  V30 11640 C 1109.67 3.94263 1.57344 0
M  V30 11641 C 1107.58 5.90698 0.287993 0
M  V30 11642 H 1106.51 0.728906 0.192903 0
M  V30 11643 H 1109.16 1.82062 -0.229295 0
M  V30 11644 H 1107.54 3.55587 1.74282 0
M  V30 11645 H 1108.72 4.50841 -0.952848 0
M  V30 11646 H 1107.03 4.10377 -0.70564 0
M  V30 11647 H 1109.63 4.9857 1.93214 0
M  V30 11648 H 1109.97 3.35714 2.46174 0
M  V30 11649 H 1110.5 3.88665 0.847593 0
M  V30 11650 H 1107.24 6.53061 -0.564889 0
M  V30 11651 H 1106.76 5.90876 1.03081 0
M  V30 11652 H 1108.44 6.42747 0.740586 0
M  V30 11653 N 1108.58 -0.128553 1.57075 0
M  V30 11654 C 1109.52 -1.15812 1.9964 0
M  V30 11655 C 1110.49 -1.41679 0.86696 0
M  V30 11656 O 1111.68 -1.53705 1.13046 0
M  V30 11657 C 1108.82 -2.48198 2.39774 0
M  V30 11658 C 1107.93 -2.29348 3.66092 0
M  V30 11659 C 1107.07 -3.54898 3.95248 0
M  V30 11660 C 1106.1 -3.31164 5.14779 0
M  V30 11661 N 1105.24 -4.48891 5.39853 0
M  V30 11662 H 1110.08 -0.788136 2.87389 0
M  V30 11663 H 1107.62 -0.377682 1.42169 0
M  V30 11664 H 1109.58 -3.25414 2.61077 0
M  V30 11665 H 1108.21 -2.83108 1.5508 0
M  V30 11666 H 1107.26 -1.43095 3.5246 0
M  V30 11667 H 1108.57 -2.07781 4.53463 0
M  V30 11668 H 1107.72 -4.40536 4.17148 0
M  V30 11669 H 1106.46 -3.79487 3.06335 0
M  V30 11670 H 1105.47 -2.43915 4.92733 0
M  V30 11671 H 1106.69 -3.07954 6.05261 0
M  V30 11672 H 1104.64 -4.73619 4.53895 0
M  V30 11673 H 1104.56 -4.30394 6.21528 0
M  V30 11674 H 1105.82 -5.35691 5.66265 0
M  V30 11675 N 1110.05 -1.5248 -0.398459 0
M  V30 11676 C 1111.3 -1.67061 -1.14441 0
M  V30 11677 C 1111.63 -0.405821 -1.90219 0
M  V30 11678 O 1110.88 0.611532 -1.859 0
M  V30 11679 C 1111.18 -2.85038 -2.15611 0
M  V30 11680 C 1110.85 -4.22847 -1.56561 0
M  V30 11681 C 1109.51 -4.60329 -1.40182 0
M  V30 11682 C 1111.86 -5.08683 -1.1354 0
M  V30 11683 C 1109.19 -5.81314 -0.793149 0
M  V30 11684 C 1111.54 -6.30284 -0.540866 0
M  V30 11685 C 1110.21 -6.66505 -0.364297 0
M  V30 11686 H 1109.48 -0.611321 -0.418769 0
M  V30 11687 H 1112.12 -1.86604 -0.430241 0
M  V30 11688 H 1110.43 -2.59873 -2.93212 0
M  V30 11689 H 1112.13 -2.93516 -2.73221 0
M  V30 11690 H 1108.72 -3.93316 -1.70295 0
M  V30 11691 H 1112.9 -4.80301 -1.24999 0
M  V30 11692 H 1108.16 -6.07994 -0.64446 0
M  V30 11693 H 1112.33 -6.96115 -0.199167 0
M  V30 11694 H 1109.96 -7.60121 0.109439 0
M  V30 11695 N 1111.53 0.65634 -1.43283 0
M  V30 11696 C 1112.76 1.44199 -1.47954 0
M  V30 11697 C 1113.17 1.88961 -0.0950315 0
M  V30 11698 O 1112.51 1.59895 0.904388 0
M  V30 11699 C 1112.57 2.71161 -2.36033 0
M  V30 11700 C 1112.24 2.48359 -3.83623 0
M  V30 11701 C 1113.24 2.1178 -4.74811 0
M  V30 11702 C 1110.92 2.6278 -4.28079 0
M  V30 11703 C 1112.91 1.89915 -6.0845 0
M  V30 11704 C 1110.6 2.4053 -5.61772 0
M  V30 11705 C 1111.6 2.04154 -6.51775 0
M  V30 11706 O 1111.29 1.82134 -7.82996 0
M  V30 11707 H 1111.02 0.449567 -0.504842 0
M  V30 11708 H 1113.57 0.812234 -1.88658 0
M  V30 11709 H 1111.8 3.36685 -1.9021 0
M  V30 11710 H 1113.49 3.33102 -2.31944 0
M  V30 11711 H 1114.26 2.00217 -4.41744 0
M  V30 11712 H 1110.14 2.9007 -3.58302 0
M  V30 11713 H 1113.68 1.61445 -6.78661 0
M  V30 11714 H 1109.58 2.51695 -5.94407 0
M  V30 11715 H 1110.35 1.96584 -7.94542 0
M  V30 11716 N 1113.01 1.29761 0.894412 0
M  V30 11717 C 1114.24 1.2094 1.67872 0
M  V30 11718 C 1114.65 -0.229192 1.87404 0
M  V30 11719 O 1114.01 -1.15278 1.41482 0
M  V30 11720 C 1114.06 1.92424 3.06032 0
M  V30 11721 O 1113.78 3.30665 2.87388 0
M  V30 11722 C 1115.28 1.90144 4.0045 0
M  V30 11723 H 1112.5 0.418942 0.524145 0
M  V30 11724 H 1115.05 1.71226 1.11813 0
M  V30 11725 H 1113.2 1.4596 3.58851 0
M  V30 11726 H 1113.62 3.66741 3.74969 0
M  V30 11727 H 1115.09 2.44716 4.94791 0
M  V30 11728 H 1115.57 0.878175 4.30331 0
M  V30 11729 H 1116.17 2.36375 3.53563 0
M  V30 11730 N 1114.49 -1.10549 1.12324 0
M  V30 11731 C 1115.43 -2.16858 0.790024 0
M  V30 11732 C 1116.4 -1.64317 -0.242694 0
M  V30 11733 O 1117.59 -1.90438 -0.117531 0
M  V30 11734 C 1114.73 -3.44197 0.249503 0
M  V30 11735 C 1113.84 -4.10696 1.33989 0
M  V30 11736 C 1112.98 -5.25751 0.758932 0
M  V30 11737 C 1112.02 -5.8415 1.82853 0
M  V30 11738 N 1111.15 -6.90585 1.26637 0
M  V30 11739 H 1115.99 -2.44705 1.7007 0
M  V30 11740 H 1113.53 -1.20117 0.849141 0
M  V30 11741 H 1115.49 -4.1712 -0.0819251 0
M  V30 11742 H 1114.12 -3.16705 -0.624332 0
M  V30 11743 H 1113.17 -3.35754 1.78812 0
M  V30 11744 H 1114.48 -4.50144 2.14875 0
M  V30 11745 H 1113.64 -6.05521 0.378104 0
M  V30 11746 H 1112.38 -4.87632 -0.0811405 0
M  V30 11747 H 1111.38 -5.03051 2.21856 0
M  V30 11748 H 1112.61 -6.24333 2.6718 0
M  V30 11749 H 1110.55 -6.54468 0.448105 0
M  V30 11750 H 1110.47 -7.28739 2.01184 0
M  V30 11751 H 1111.74 -7.74138 0.912737 0
M  V30 11752 N 1115.97 -0.914965 -1.28321 0
M  V30 11753 C 1116.9 -0.361578 -2.2633 0
M  V30 11754 C 1117.91 0.500637 -1.54911 0
M  V30 11755 O 1119.1 0.31532 -1.75693 0
M  V30 11756 C 1116.2 0.501693 -3.35166 0
M  V30 11757 C 1115.37 -0.338289 -4.3609 0
M  V30 11758 C 1114.43 0.460267 -5.24183 0
M  V30 11759 O 1113.46 -0.127594 -5.69057 0
M  V30 11760 N 1114.66 1.76302 -5.5308 0
M  V30 11761 H 1117.42 -1.20402 -2.74451 0
M  V30 11762 H 1114.99 -0.781042 -1.41814 0
M  V30 11763 H 1116.98 1.04268 -3.91037 0
M  V30 11764 H 1115.55 1.24485 -2.86744 0
M  V30 11765 H 1114.77 -1.06064 -3.79663 0
M  V30 11766 H 1116.06 -0.912996 -5.00542 0
M  V30 11767 H 1115.45 2.26314 -5.18458 0
M  V30 11768 H 1114.01 2.25081 -6.11704 0
M  V30 11769 N 1117.44 1.42219 -0.679077 0
M  V30 11770 C 1118.69 2.00703 -0.200309 0
M  V30 11771 C 1119.01 1.54339 1.20161 0
M  V30 11772 O 1120.21 2.0527 1.77698 0
M  V30 11773 C 1118.67 3.58586 -0.307248 0
M  V30 11774 C 1118.28 4.13937 -1.71349 0
M  V30 11775 C 1120.02 4.24351 0.112588 0
M  V30 11776 C 1117.93 5.64198 -1.77297 0
M  V30 11777 H 1116.86 0.750638 -0.0711279 0
M  V30 11778 H 1119.51 1.62893 -0.844881 0
M  V30 11779 H 1117.89 3.93921 0.40529 0
M  V30 11780 H 1119.06 3.90054 -2.45346 0
M  V30 11781 H 1117.38 3.60639 -2.08155 0
M  V30 11782 H 1119.98 5.34627 0.0883578 0
M  V30 11783 H 1120.32 4.00142 1.14857 0
M  V30 11784 H 1120.85 3.93992 -0.549093 0
M  V30 11785 H 1117.59 5.93211 -2.78892 0
M  V30 11786 H 1117.11 5.90058 -1.07662 0
M  V30 11787 H 1118.79 6.2869 -1.52835 0
M  V30 11788 N 1118.92 0.422693 1.51826 0
M  V30 11789 C 1119.85 -0.386913 2.30272 0
M  V30 11790 C 1120.83 -1.03411 1.35056 0
M  V30 11791 O 1122.02 -1.04055 1.6397 0
M  V30 11792 C 1119.15 -1.49645 3.13407 0
M  V30 11793 C 1118.1 -0.973532 4.16781 0
M  V30 11794 C 1117.43 -2.1777 4.88344 0
M  V30 11795 C 1118.73 -0.0181194 5.22297 0
M  V30 11796 H 1120.42 0.267697 2.98201 0
M  V30 11797 H 1117.97 0.130186 1.4341 0
M  V30 11798 H 1119.92 -2.06993 3.67059 0
M  V30 11799 H 1118.64 -2.17914 2.43272 0
M  V30 11800 H 1117.3 -0.42237 3.64159 0
M  V30 11801 H 1116.95 -2.84625 4.14726 0
M  V30 11802 H 1116.65 -1.83427 5.58237 0
M  V30 11803 H 1118.18 -2.75699 5.44814 0
M  V30 11804 H 1119.59 -0.500822 5.71108 0
M  V30 11805 H 1117.99 0.237163 5.99631 0
M  V30 11806 H 1119.06 0.923065 4.76033 0
M  V30 11807 N 1120.4 -1.5685 0.153553 0
M  V30 11808 C 1121.31 -2.20664 -0.796528 0
M  V30 11809 C 1122.33 -1.19289 -1.26674 0
M  V30 11810 O 1123.5 -1.51889 -1.32256 0
M  V30 11811 C 1120.57 -2.82088 -2.01561 0
M  V30 11812 C 1119.63 -3.9861 -1.59401 0
M  V30 11813 C 1118.86 -4.57096 -2.75498 0
M  V30 11814 O 1119.08 -4.14462 -3.9189 0
M  V30 11815 O 1118.02 -5.47254 -2.50593 0
M  V30 11816 H 1121.84 -3.02376 -0.283282 0
M  V30 11817 H 1119.43 -1.49218 -0.0737927 0
M  V30 11818 H 1121.31 -3.21103 -2.72893 0
M  V30 11819 H 1119.99 -2.03385 -2.51826 0
M  V30 11820 H 1118.89 -3.64299 -0.850725 0
M  V30 11821 H 1120.23 -4.78853 -1.13845 0
M  V30 11822 N 1121.88 0.120221 -1.57141 0
M  V30 11823 C 1123.13 0.826586 -1.84423 0
M  V30 11824 C 1123.45 1.80473 -0.738553 0
M  V30 11825 O 1122.72 1.94454 0.23755 0
M  V30 11826 H 1121.3 0.308246 -0.680436 0
M  V30 11827 H 1123.96 0.107835 -1.94601 0
M  V30 11828 H 1123.05 1.37256 -2.80298 0
M  V30 11829 N 1123.36 1.52689 0.390367 0
M  V30 11830 C 1124.29 1.80338 1.48325 0
M  V30 11831 C 1125.27 0.655338 1.56969 0
M  V30 11832 O 1126.45 0.902792 1.7194 0
M  V30 11833 C 1123.58 1.97101 2.85952 0
M  V30 11834 C 1122.54 3.12783 2.92148 0
M  V30 11835 C 1121.86 3.14798 4.32211 0
M  V30 11836 C 1123.16 4.5188 2.61919 0
M  V30 11837 H 1124.86 2.71857 1.25437 0
M  V30 11838 H 1122.4 1.30813 0.601995 0
M  V30 11839 H 1124.36 2.15027 3.62411 0
M  V30 11840 H 1123.08 1.02271 3.10174 0
M  V30 11841 H 1121.74 2.94638 2.18137 0
M  V30 11842 H 1121.39 2.17653 4.53471 0
M  V30 11843 H 1121.09 3.92507 4.37278 0
M  V30 11844 H 1122.61 3.34877 5.10578 0
M  V30 11845 H 1124.02 4.70134 3.28096 0
M  V30 11846 H 1122.42 5.31647 2.78337 0
M  V30 11847 H 1123.49 4.58689 1.57266 0
M  V30 11848 N 1124.83 -0.648732 1.43629 0
M  V30 11849 C 1125.78 -1.76145 1.49136 0
M  V30 11850 C 1126.75 -1.62569 0.340649 0
M  V30 11851 O 1127.94 -1.82748 0.548435 0
M  V30 11852 C 1125.08 -3.14321 1.42466 0
M  V30 11853 C 1124.19 -3.38999 2.67776 0
M  V30 11854 C 1123.32 -4.67047 2.53062 0
M  V30 11855 C 1122.36 -4.84845 3.7362 0
M  V30 11856 N 1121.5 -6.04155 3.57689 0
M  V30 11857 H 1126.34 -1.70774 2.44213 0
M  V30 11858 H 1123.88 -0.833311 1.2122 0
M  V30 11859 H 1125.84 -3.94206 1.36592 0
M  V30 11860 H 1124.47 -3.18751 0.509666 0
M  V30 11861 H 1123.52 -2.53179 2.83909 0
M  V30 11862 H 1124.83 -3.48035 3.57314 0
M  V30 11863 H 1123.98 -5.55066 2.44922 0
M  V30 11864 H 1122.72 -4.60339 1.61056 0
M  V30 11865 H 1121.73 -3.95261 3.82163 0
M  V30 11866 H 1122.95 -4.9338 4.6664 0
M  V30 11867 H 1120.9 -5.9857 2.6842 0
M  V30 11868 H 1120.82 -6.14169 4.40832 0
M  V30 11869 H 1122.08 -6.94782 3.53409 0
M  V30 11870 N 1126.31 -1.30234 -0.887518 0
M  V30 11871 C 1127.54 -1.21652 -1.66986 0
M  V30 11872 C 1127.95 0.223473 -1.87876 0
M  V30 11873 O 1127.29 1.15993 -1.42448 0
M  V30 11874 C 1127.36 -1.87173 -3.06931 0
M  V30 11875 C 1127.02 -3.36496 -3.09224 0
M  V30 11876 C 1128.02 -4.3253 -2.88469 0
M  V30 11877 C 1125.7 -3.77901 -3.30902 0
M  V30 11878 C 1127.7 -5.67942 -2.89344 0
M  V30 11879 C 1125.38 -5.13432 -3.31407 0
M  V30 11880 C 1126.38 -6.08263 -3.10653 0
M  V30 11881 O 1126.07 -7.41318 -3.1097 0
M  V30 11882 H 1125.8 -0.422224 -0.527923 0
M  V30 11883 H 1128.35 -1.72349 -1.11736 0
M  V30 11884 H 1126.58 -1.31002 -3.63834 0
M  V30 11885 H 1128.27 -1.72745 -3.67306 0
M  V30 11886 H 1129.04 -4.01873 -2.7152 0
M  V30 11887 H 1124.92 -3.04534 -3.46093 0
M  V30 11888 H 1128.46 -6.41936 -2.73063 0
M  V30 11889 H 1124.36 -5.4373 -3.47891 0
M  V30 11890 H 1125.13 -7.50275 -3.27153 0
M  V30 11891 N 1127.79 1.09952 -1.12909 0
M  V30 11892 C 1128.72 2.18477 -0.824014 0
M  V30 11893 C 1129.7 1.68744 0.214324 0
M  V30 11894 O 1130.89 1.94057 0.0744281 0
M  V30 11895 C 1128.02 3.46143 -0.283308 0
M  V30 11896 C 1126.97 4.09178 -1.25528 0
M  V30 11897 C 1126.3 5.31604 -0.574574 0
M  V30 11898 C 1127.6 4.52308 -2.6118 0
M  V30 11899 H 1129.29 2.44254 -1.73148 0
M  V30 11900 H 1126.84 1.17394 -0.833952 0
M  V30 11901 H 1128.79 4.21361 -0.057583 0
M  V30 11902 H 1127.51 3.19872 0.659525 0
M  V30 11903 H 1126.17 3.35973 -1.4669 0
M  V30 11904 H 1125.82 5.01611 0.37356 0
M  V30 11905 H 1125.52 5.74732 -1.22299 0
M  V30 11906 H 1127.04 6.0955 -0.358004 0
M  V30 11907 H 1128.46 5.18776 -2.44017 0
M  V30 11908 H 1126.86 5.06302 -3.22147 0
M  V30 11909 H 1127.93 3.64977 -3.19249 0
M  V30 11910 N 1129.27 0.921757 1.27833 0
M  V30 11911 C 1130.22 0.387357 2.24685 0
M  V30 11912 C 1131.2 -0.505036 1.52768 0
M  V30 11913 O 1132.39 -0.34345 1.73636 0
M  V30 11914 C 1129.52 -0.364168 3.41363 0
M  V30 11915 C 1128.61 0.544401 4.20591 0
M  V30 11916 N 1129 1.66158 4.77729 0
M  V30 11917 C 1127.3 0.346289 4.44654 0
M  V30 11918 C 1128 2.22619 5.37416 0
M  V30 11919 N 1126.98 1.51648 5.22019 0
M  V30 11920 H 1130.78 1.24045 2.6644 0
M  V30 11921 H 1128.29 0.775338 1.42696 0
M  V30 11922 H 1130.29 -0.763917 4.09841 0
M  V30 11923 H 1128.95 -1.21426 3.01141 0
M  V30 11924 H 1129.96 2.04406 4.75856 0
M  V30 11925 H 1126.64 -0.46363 4.14918 0
M  V30 11926 H 1128.03 3.16641 5.92611 0
M  V30 11927 N 1130.75 -1.41857 0.686609 0
M  V30 11928 C 1131.66 -2.34595 0.0159005 0
M  V30 11929 C 1132.67 -1.55741 -0.775933 0
M  V30 11930 O 1133.85 -1.8826 -0.71555 0
M  V30 11931 C 1130.91 -3.34395 -0.915473 0
M  V30 11932 C 1129.97 -4.29141 -0.116851 0
M  V30 11933 C 1129.21 -5.24174 -1.00386 0
M  V30 11934 O 1129.43 -5.24431 -2.2434 0
M  V30 11935 O 1128.36 -6.00152 -0.458337 0
M  V30 11936 H 1132.19 -2.9351 0.780101 0
M  V30 11937 H 1129.78 -1.42559 0.446896 0
M  V30 11938 H 1131.66 -3.95675 -1.44981 0
M  V30 11939 H 1130.33 -2.77936 -1.65932 0
M  V30 11940 H 1129.24 -3.71238 0.461871 0
M  V30 11941 H 1130.57 -4.88673 0.588138 0
M  V30 11942 N 1132.22 -0.430739 -1.51599 0
M  V30 11943 C 1133.17 0.398482 -2.29161 0
M  V30 11944 C 1134.17 1.02676 -1.34737 0
M  V30 11945 O 1135.37 0.96248 -1.52106 0
M  V30 11946 H 1131.75 0.14731 -0.737431 0
M  V30 11947 H 1133.72 -0.276619 -2.97115 0
M  V30 11948 C 1132.47 1.49094 -3.14112 0
M  V30 11949 H 1131.79 1.01685 -3.86652 0
M  V30 11950 H 1133.23 2.04453 -3.7145 0
M  V30 11951 C 1131.69 2.47049 -2.29059 0
M  V30 11952 O 1132.22 3.51435 -1.94567 0
M  V30 11953 N 1130.43 2.17778 -1.92409 0
M  V30 11954 H 1129.97 1.3292 -2.20658 0
M  V30 11955 H 1129.93 2.8356 -1.35798 0
M  V30 11956 N 1133.7 1.56767 -0.161869 0
M  V30 11957 C 1134.63 2.1466 0.803356 0
M  V30 11958 C 1135.65 1.09977 1.20037 0
M  V30 11959 O 1136.84 1.37199 1.14187 0
M  V30 11960 C 1133.94 2.66663 2.09151 0
M  V30 11961 C 1133.11 3.95904 1.85953 0
M  V30 11962 C 1132.17 4.33067 2.98897 0
M  V30 11963 O 1131.19 5.01119 2.69942 0
M  V30 11964 N 1132.4 3.93856 4.26448 0
M  V30 11965 H 1135.16 2.98108 0.308472 0
M  V30 11966 H 1132.72 1.61886 0.0212238 0
M  V30 11967 H 1134.71 2.88528 2.83784 0
M  V30 11968 H 1133.28 1.87856 2.49857 0
M  V30 11969 H 1132.5 3.82513 0.952751 0
M  V30 11970 H 1133.79 4.8033 1.67811 0
M  V30 11971 H 1133.19 3.39051 4.52836 0
M  V30 11972 H 1131.75 4.20741 4.97815 0
M  V30 11973 N 1135.18 -0.111886 1.57202 0
M  V30 11974 C 1136.43 -0.817022 1.84412 0
M  V30 11975 C 1136.74 -1.80708 0.748608 0
M  V30 11976 O 1137.95 -2.55891 0.907319 0
M  V30 11977 C 1136.4 -1.50376 3.26979 0
M  V30 11978 C 1136.01 -0.554334 4.44557 0
M  V30 11979 C 1137.76 -2.19361 3.63429 0
M  V30 11980 C 1135.66 -1.24471 5.78153 0
M  V30 11981 H 1134.59 -0.308864 0.687836 0
M  V30 11982 H 1137.24 -0.0698109 1.83367 0
M  V30 11983 H 1135.63 -2.29785 3.22514 0
M  V30 11984 H 1136.8 0.207045 4.60335 0
M  V30 11985 H 1135.12 0.0289261 4.1639 0
M  V30 11986 H 1137.71 -2.71716 4.60515 0
M  V30 11987 H 1138.06 -2.97488 2.91215 0
M  V30 11988 H 1138.59 -1.46833 3.69709 0
M  V30 11989 H 1135.33 -0.504584 6.53555 0
M  V30 11990 H 1134.85 -1.97792 5.66249 0
M  V30 11991 H 1136.53 -1.77591 6.2215 0
M  V30 11992 N 1136.66 -1.52894 -0.382264 0
M  V30 11993 C 1137.9 -1.68515 -1.12829 0
M  V30 11994 C 1138.24 -0.427211 -1.89443 0
M  V30 11995 O 1137.51 0.57516 -1.85801 0
M  V30 11996 C 1137.8 -2.92449 -2.10108 0
M  V30 11997 C 1137.65 -4.2836 -1.37214 0
M  V30 11998 C 1138.97 -3.11944 -3.1045 0
M  V30 11999 H 1136.09 -0.613223 -0.408811 0
M  V30 12000 H 1138.73 -1.85503 -0.410921 0
M  V30 12001 H 1136.88 -2.78097 -2.71283 0
M  V30 12002 H 1138.55 -4.54493 -0.789516 0
M  V30 12003 H 1136.79 -4.28532 -0.673973 0
M  V30 12004 H 1137.46 -5.11178 -2.0833 0
M  V30 12005 H 1139.94 -3.25372 -2.59369 0
M  V30 12006 H 1138.82 -4.00125 -3.75754 0
M  V30 12007 H 1139.08 -2.26465 -3.79692 0
M  V30 12008 N 1138.14 0.641106 -1.43971 0
M  V30 12009 C 1139.09 1.74699 -1.46507 0
M  V30 12010 C 1140.07 1.57437 -0.332037 0
M  V30 12011 O 1141.26 1.67343 -0.576663 0
M  V30 12012 C 1138.39 3.13344 -1.40252 0
M  V30 12013 C 1137.48 3.3611 -2.58632 0
M  V30 12014 N 1137.87 3.29291 -3.83929 0
M  V30 12015 C 1136.17 3.66873 -2.53615 0
M  V30 12016 C 1136.87 3.52472 -4.62751 0
M  V30 12017 N 1135.84 3.74868 -3.93668 0
M  V30 12018 H 1139.65 1.67869 -2.41241 0
M  V30 12019 H 1137.16 0.843217 -1.38793 0
M  V30 12020 H 1139.16 3.92636 -1.40153 0
M  V30 12021 H 1137.82 3.21346 -0.46549 0
M  V30 12022 H 1138.83 3.08431 -4.16041 0
M  V30 12023 H 1135.51 3.81917 -1.68659 0
M  V30 12024 H 1136.9 3.52876 -5.71776 0
M  V30 12025 N 1139.62 1.30703 0.880598 0
M  V30 12026 C 1141.03 1.09129 1.1646 0
M  V30 12027 C 1141.23 -0.145131 2.00977 0
M  V30 12028 O 1140.29 -0.837502 2.38206 0
M  V30 12029 C 1141.6 2.35717 1.86703 0
M  V30 12030 C 1143.15 2.41224 1.9945 0
M  V30 12031 C 1143.62 3.67665 2.73105 0
M  V30 12032 N 1145.11 3.68498 2.80648 0
M  V30 12033 C 1145.85 4.63024 3.38225 0
M  V30 12034 N 1145.35 5.67898 3.96817 0
M  V30 12035 N 1147.14 4.50561 3.36082 0
M  V30 12036 H 1139.29 2.10019 0.317164 0
M  V30 12037 H 1141.55 0.925994 0.203072 0
M  V30 12038 H 1141.26 3.2597 1.32046 0
M  V30 12039 H 1141.13 2.447 2.87057 0
M  V30 12040 H 1143.52 1.51446 2.53275 0
M  V30 12041 H 1143.6 2.36212 0.981704 0
M  V30 12042 H 1143.24 4.57803 2.19951 0
M  V30 12043 H 1143.17 3.69939 3.7477 0
M  V30 12044 H 1145.67 2.92681 2.39053 0
M  V30 12045 H 1145.98 6.3612 4.3883 0
M  V30 12046 H 1144.32 5.71685 3.95223 0
M  V30 12047 H 1147.51 3.67811 2.89539 0
M  V30 12048 H 1147.69 5.24408 3.80657 0
M  V30 12049 N 1141.09 -1.09351 1.1349 0
M  V30 12050 C 1142.37 -1.78121 0.808225 0
M  V30 12051 C 1142.75 -1.99154 -0.700072 0
M  V30 12052 O 1142.1 -1.59356 -1.63762 0
M  V30 12053 C 1142.31 -3.10368 1.59601 0
M  V30 12054 C 1143.66 -3.85063 1.78919 0
M  V30 12055 O 1144.68 -3.20122 1.56206 0
M  V30 12056 O 1143.54 -5.01648 2.16821 0
M  V30 12057 H 1140.63 -0.77253 0.295173 0
M  V30 12058 H 1143.18 -1.15901 1.23956 0
M  V30 12059 H 1141.95 -2.90549 2.62101 0
M  V30 12060 H 1141.57 -3.80312 1.15967 0
M  V30 12061 N 1142.57 -0.928524 -1.27343 0
M  V30 12062 C 1143.82 -0.565207 -1.93619 0
M  V30 12063 C 1144.13 0.897988 -1.73769 0
M  V30 12064 O 1145.34 1.37012 -2.34393 0
M  V30 12065 C 1143.8 -0.960052 -3.46859 0
M  V30 12066 C 1143.4 -2.44399 -3.75464 0
M  V30 12067 C 1145.15 -0.668026 -4.19211 0
M  V30 12068 C 1143.05 -2.77819 -5.22083 0
M  V30 12069 H 1141.98 -0.207665 -0.724839 0
M  V30 12070 H 1144.64 -1.12945 -1.44623 0
M  V30 12071 H 1143.02 -0.324454 -3.94669 0
M  V30 12072 H 1144.19 -3.12756 -3.38408 0
M  V30 12073 H 1142.51 -2.70799 -3.16317 0
M  V30 12074 H 1145.1 -0.894207 -5.2717 0
M  V30 12075 H 1145.45 0.394788 -4.14424 0
M  V30 12076 H 1145.98 -1.26276 -3.77226 0
M  V30 12077 H 1142.72 -3.83013 -5.3196 0
M  V30 12078 H 1142.24 -2.14112 -5.60282 0
M  V30 12079 H 1143.92 -2.65607 -5.89968 0
M  V30 12080 N 1144.05 1.41491 -0.694123 0
M  V30 12081 C 1145 2.30783 -0.0278824 0
M  V30 12082 C 1145.97 1.47028 0.772783 0
M  V30 12083 O 1147.15 1.75819 0.74111 0
M  V30 12084 C 1144.29 3.33061 0.903579 0
M  V30 12085 C 1143.4 4.31896 0.0946823 0
M  V30 12086 C 1142.54 5.21243 1.02365 0
M  V30 12087 C 1141.58 6.11748 0.207578 0
M  V30 12088 N 1140.72 6.93583 1.09028 0
M  V30 12089 H 1145.56 2.87197 -0.795092 0
M  V30 12090 H 1143.09 1.41449 -0.403806 0
M  V30 12091 H 1145.05 3.90907 1.45765 0
M  V30 12092 H 1143.68 2.782 1.6372 0
M  V30 12093 H 1142.73 3.76009 -0.576289 0
M  V30 12094 H 1144.04 4.95889 -0.538059 0
M  V30 12095 H 1143.2 5.83917 1.647 0
M  V30 12096 H 1141.94 4.57473 1.69025 0
M  V30 12097 H 1140.94 5.48125 -0.428854 0
M  V30 12098 H 1142.17 6.77573 -0.455206 0
M  V30 12099 H 1140.11 6.32422 1.74292 0
M  V30 12100 H 1140.03 7.54257 0.513073 0
M  V30 12101 H 1141.3 7.60726 1.70048 0
M  V30 12102 N 1145.53 0.438773 1.51369 0
M  V30 12103 C 1146.78 -0.126962 2.01701 0
M  V30 12104 C 1147.1 -1.43086 1.32481 0
M  V30 12105 O 1146.37 -1.90427 0.459823 0
M  V30 12106 H 1144.95 -0.0499092 0.745331 0
M  V30 12107 H 1147.61 0.581808 1.86013 0
M  V30 12108 H 1146.7 -0.301836 3.10637 0
M  V30 12109 N 1147.01 -1.56678 0.170181 0
M  V30 12110 C 1148.28 -1.88524 -0.521362 0
M  V30 12111 C 1148.66 -1.07989 -1.81388 0
M  V30 12112 O 1148.01 -0.17347 -2.27841 0
M  V30 12113 C 1148.22 -3.40527 -0.764367 0
M  V30 12114 C 1149.57 -4.10241 -1.09487 0
M  V30 12115 O 1150.59 -3.45837 -0.852945 0
M  V30 12116 O 1149.45 -5.24022 -1.55124 0
M  V30 12117 H 1146.55 -0.782161 -0.268614 0
M  V30 12118 H 1149.09 -1.68414 0.208531 0
M  V30 12119 H 1147.86 -3.91015 0.149416 0
M  V30 12120 H 1147.49 -3.66244 -1.54762 0
M  V30 12121 N 1148.48 0.103547 -1.57259 0
M  V30 12122 C 1149.43 1.14513 -2.02459 0
M  V30 12123 C 1150.43 1.4197 -0.924163 0
M  V30 12124 O 1151.63 1.41751 -1.10936 0
M  V30 12125 H 1148.01 0.386469 -0.645094 0
M  V30 12126 H 1149.98 0.737531 -2.89142 0
M  V30 12127 C 1148.73 2.45948 -2.45775 0
M  V30 12128 H 1148.05 2.25662 -3.30026 0
M  V30 12129 H 1149.49 3.17351 -2.81184 0
M  V30 12130 C 1147.95 3.09639 -1.32759 0
M  V30 12131 O 1148.48 3.96372 -0.652059 0
M  V30 12132 N 1146.68 2.69757 -1.08072 0
M  V30 12133 H 1146.23 1.9932 -1.63185 0
M  V30 12134 H 1146.19 3.127 -0.326532 0
M  V30 12135 N 1149.96 1.53094 0.37415 0
M  V30 12136 C 1151.21 1.69111 1.11934 0
M  V30 12137 C 1151.54 0.437252 1.89213 0
M  V30 12138 O 1150.82 -0.565298 1.86104 0
M  V30 12139 C 1151.1 2.93559 2.08554 0
M  V30 12140 C 1150.95 4.29082 1.3494 0
M  V30 12141 C 1152.27 3.13586 3.08791 0
M  V30 12142 H 1149.39 0.615383 0.405553 0
M  V30 12143 H 1152.03 1.85719 0.401078 0
M  V30 12144 H 1150.18 2.79531 2.69805 0
M  V30 12145 H 1151.85 4.54906 0.765402 0
M  V30 12146 H 1150.1 4.28884 0.651238 0
M  V30 12147 H 1150.77 5.12275 2.05616 0
M  V30 12148 H 1153.24 3.26743 2.57639 0
M  V30 12149 H 1152.12 4.02112 3.73627 0
M  V30 12150 H 1152.38 2.28475 3.78486 0
M  V30 12151 N 1151.44 -0.633461 1.44309 0
M  V30 12152 C 1152.37 -1.75676 1.53819 0
M  V30 12153 C 1153.35 -1.65537 0.391365 0
M  V30 12154 O 1154.54 -1.84332 0.611181 0
M  V30 12155 C 1151.67 -3.14197 1.47979 0
M  V30 12156 C 1150.62 -3.39122 2.61113 0
M  V30 12157 C 1149.95 -4.77648 2.40325 0
M  V30 12158 C 1151.25 -3.31914 4.03274 0
M  V30 12159 H 1152.94 -1.67974 2.47841 0
M  V30 12160 H 1150.49 -0.8067 1.19283 0
M  V30 12161 H 1152.44 -3.92553 1.53233 0
M  V30 12162 H 1151.16 -3.22677 0.504718 0
M  V30 12163 H 1149.82 -2.63145 2.55245 0
M  V30 12164 H 1149.47 -4.82829 1.41016 0
M  V30 12165 H 1149.17 -4.95284 3.16177 0
M  V30 12166 H 1150.69 -5.58237 2.47394 0
M  V30 12167 H 1152.11 -4.00178 4.10524 0
M  V30 12168 H 1150.5 -3.61085 4.7931 0
M  V30 12169 H 1151.57 -2.29761 4.2701 0
M  V30 12170 N 1152.92 -1.31168 -0.873655 0
M  V30 12171 C 1154.16 -1.20821 -1.62881 0
M  V30 12172 C 1154.5 0.233994 -1.92785 0
M  V30 12173 O 1153.77 1.16588 -1.55684 0
M  V30 12174 C 1154.06 -2.04875 -2.96139 0
M  V30 12175 C 1153.91 -3.57375 -2.73136 0
M  V30 12176 C 1155.23 -1.8953 -3.97198 0
M  V30 12177 H 1152.35 -0.44026 -0.59105 0
M  V30 12178 H 1154.99 -1.6092 -1.01019 0
M  V30 12179 H 1153.14 -1.70806 -3.48938 0
M  V30 12180 H 1154.81 -4.01561 -2.27038 0
M  V30 12181 H 1153.05 -3.8099 -2.07434 0
M  V30 12182 H 1153.72 -4.1149 -3.6794 0
M  V30 12183 H 1156.2 -2.19337 -3.53596 0
M  V30 12184 H 1155.08 -2.5065 -4.8833 0
M  V30 12185 H 1155.34 -0.857576 -4.33703 0
M  V30 12186 N 1154.4 1.08748 -1.14068 0
M  V30 12187 C 1155.34 2.17667 -0.819981 0
M  V30 12188 C 1156.34 1.68207 0.200654 0
M  V30 12189 O 1157.54 1.79909 0.0571014 0
M  V30 12190 H 1153.92 0.710129 -0.247427 0
M  V30 12191 H 1155.89 2.41944 -1.74659 0
M  V30 12192 C 1154.64 3.46315 -0.309985 0
M  V30 12193 H 1153.96 3.84748 -1.08669 0
M  V30 12194 H 1155.4 4.23818 -0.124094 0
M  V30 12195 C 1153.86 3.22762 0.965724 0
M  V30 12196 O 1154.39 3.46034 2.04018 0
M  V30 12197 N 1152.6 2.76326 0.899576 0
M  V30 12198 H 1152.14 2.57588 0.0250598 0
M  V30 12199 H 1152.1 2.60945 1.75371 0
M  V30 12200 N 1155.87 0.935264 1.26849 0
M  V30 12201 C 1157.1 0.596249 1.98122 0
M  V30 12202 C 1157.52 -0.827452 1.69702 0
M  V30 12203 O 1156.87 -1.55095 0.961864 0
M  V30 12204 C 1156.93 0.821773 3.52036 0
M  V30 12205 O 1156.65 2.18947 3.79465 0
M  V30 12206 C 1158.15 0.492498 4.40556 0
M  V30 12207 H 1155.37 0.225242 0.632066 0
M  V30 12208 H 1157.91 1.25435 1.61512 0
M  V30 12209 H 1156.07 0.210363 3.86828 0
M  V30 12210 H 1156.48 2.24509 4.74021 0
M  V30 12211 H 1157.95 0.700953 5.47531 0
M  V30 12212 H 1158.43 -0.57228 4.35456 0
M  V30 12213 H 1159.04 1.08238 4.11296 0
M  V30 12214 N 1157.35 -1.41121 0.701616 0
M  V30 12215 C 1158.58 -2.05154 0.244011 0
M  V30 12216 C 1158.99 -1.52922 -1.11407 0
M  V30 12217 O 1158.33 -0.67486 -1.70855 0
M  V30 12218 C 1158.4 -3.59262 0.130773 0
M  V30 12219 C 1158.06 -4.34318 1.42187 0
M  V30 12220 C 1159.06 -4.632 2.36097 0
M  V30 12221 C 1156.74 -4.73481 1.67693 0
M  V30 12222 C 1158.74 -5.30214 3.53768 0
M  V30 12223 C 1156.42 -5.4023 2.85648 0
M  V30 12224 C 1157.42 -5.68524 3.78509 0
M  V30 12225 O 1157.11 -6.33898 4.94397 0
M  V30 12226 H 1156.84 -0.666997 0.109957 0
M  V30 12227 H 1159.39 -1.81771 0.956473 0
M  V30 12228 H 1157.62 -3.81409 -0.637512 0
M  V30 12229 H 1159.31 -4.0486 -0.29044 0
M  V30 12230 H 1160.08 -4.3342 2.17652 0
M  V30 12231 H 1155.96 -4.50835 0.962733 0
M  V30 12232 H 1159.5 -5.52215 4.26267 0
M  V30 12233 H 1155.4 -5.69429 3.04008 0
M  V30 12234 H 1156.17 -6.52394 4.94292 0
M  V30 12235 N 1158.83 -0.446794 -1.51134 0
M  V30 12236 C 1160.06 0.117242 -2.07068 0
M  V30 12237 C 1160.48 1.34877 -1.3111 0
M  V30 12238 O 1159.84 1.77856 -0.35172 0
M  V30 12239 C 1159.89 0.408616 -3.58277 0
M  V30 12240 O 1158.99 1.49345 -3.84408 0
M  V30 12241 H 1158.33 -0.00228458 -0.663996 0
M  V30 12242 H 1160.86 -0.63085 -1.94632 0
M  V30 12243 H 1160.87 0.656298 -4.02687 0
M  V30 12244 H 1159.55 -0.491444 -4.12986 0
M  V30 12245 H 1158.12 1.23499 -3.51856 0
M  V30 12246 N 1160.31 1.56586 -0.178487 0
M  V30 12247 C 1161.56 1.96709 0.4637 0
M  V30 12248 C 1161.88 1.06586 1.63292 0
M  V30 12249 O 1161.15 0.133683 1.95443 0
M  V30 12250 H 1159.73 0.726381 0.174299 0
M  V30 12251 H 1162.39 1.9314 -0.261345 0
M  V30 12252 H 1161.49 3.01164 0.818934 0
M  V30 12253 N 1161.79 -0.095206 1.57312 0
M  V30 12254 C 1163.03 -0.799903 1.86358 0
M  V30 12255 C 1163.37 -1.78386 0.767593 0
M  V30 12256 O 1162.64 -1.93201 -0.224439 0
M  V30 12257 C 1162.92 -1.52875 3.26039 0
M  V30 12258 C 1162.78 -0.562781 4.46265 0
M  V30 12259 C 1164.1 -2.47935 3.63616 0
M  V30 12260 H 1161.21 -0.289339 0.677829 0
M  V30 12261 H 1163.86 -0.0635369 1.89894 0
M  V30 12262 H 1162.01 -2.15645 3.23156 0
M  V30 12263 H 1163.68 0.0579068 4.61264 0
M  V30 12264 H 1161.92 0.123847 4.33623 0
M  V30 12265 H 1162.59 -1.10989 5.40727 0
M  V30 12266 H 1165.07 -1.95257 3.67442 0
M  V30 12267 H 1163.94 -2.95948 4.62283 0
M  V30 12268 H 1164.21 -3.31687 2.92294 0
M  V30 12269 N 1163.26 -1.53291 -0.366026 0
M  V30 12270 C 1164.51 -1.69702 -1.11036 0
M  V30 12271 C 1164.84 -0.44728 -1.88979 0
M  V30 12272 O 1164.12 0.55542 -1.86401 0
M  V30 12273 C 1164.4 -2.94661 -2.06995 0
M  V30 12274 C 1164.25 -4.29791 -1.32663 0
M  V30 12275 C 1165.57 -3.15219 -3.07123 0
M  V30 12276 H 1162.69 -0.617525 -0.402284 0
M  V30 12277 H 1165.33 -1.85929 -0.391223 0
M  V30 12278 H 1163.48 -2.80958 -2.68318 0
M  V30 12279 H 1165.16 -4.55305 -0.741266 0
M  V30 12280 H 1163.4 -4.29223 -0.628484 0
M  V30 12281 H 1164.07 -5.13359 -2.02896 0
M  V30 12282 H 1166.55 -3.28105 -2.55903 0
M  V30 12283 H 1165.42 -4.04088 -3.71489 0
M  V30 12284 H 1165.68 -2.30479 -3.77269 0
M  V30 12285 N 1164.74 0.6258 -1.44643 0
M  V30 12286 C 1165.69 1.73751 -1.51919 0
M  V30 12287 C 1166.66 1.62007 -0.36647 0
M  V30 12288 O 1167.84 1.81852 -0.577439 0
M  V30 12289 C 1164.98 3.12015 -1.47448 0
M  V30 12290 C 1164.1 3.34696 -2.73135 0
M  V30 12291 C 1163.23 4.62962 -2.6046 0
M  V30 12292 C 1162.27 4.7884 -3.81286 0
M  V30 12293 N 1161.41 5.98388 -3.67255 0
M  V30 12294 H 1166.25 1.66867 -2.46899 0
M  V30 12295 H 1163.79 0.813921 -1.22531 0
M  V30 12296 H 1165.74 3.91983 -1.42846 0
M  V30 12297 H 1164.37 3.179 -0.560312 0
M  V30 12298 H 1163.43 2.4863 -2.87901 0
M  V30 12299 H 1164.74 3.42306 -3.62806 0
M  V30 12300 H 1163.89 5.51099 -2.53722 0
M  V30 12301 H 1162.63 4.57719 -1.68359 0
M  V30 12302 H 1161.64 3.89131 -3.88403 0
M  V30 12303 H 1162.86 4.85893 -4.74431 0
M  V30 12304 H 1160.81 5.94224 -2.77909 0
M  V30 12305 H 1160.72 6.07078 -4.50547 0
M  V30 12306 H 1161.99 6.89072 -3.64417 0
M  V30 12307 N 1166.22 1.31629 0.866686 0
M  V30 12308 C 1167.47 1.20861 1.61479 0
M  V30 12309 C 1167.78 -0.231208 1.94229 0
M  V30 12310 O 1168.99 -0.460618 2.67564 0
M  V30 12311 C 1167.44 2.11602 2.91123 0
M  V30 12312 C 1167.05 3.60598 2.65844 0
M  V30 12313 C 1168.8 2.09642 3.69121 0
M  V30 12314 C 1166.7 4.43337 3.91415 0
M  V30 12315 H 1165.63 0.448783 0.605896 0
M  V30 12316 H 1168.28 1.56507 0.958001 0
M  V30 12317 H 1166.67 1.68858 3.58194 0
M  V30 12318 H 1167.84 4.11609 2.07159 0
M  V30 12319 H 1166.16 3.64568 2.01194 0
M  V30 12320 H 1168.75 2.68701 4.62281 0
M  V30 12321 H 1169.1 1.08438 4.01929 0
M  V30 12322 H 1169.63 2.50603 3.08938 0
M  V30 12323 H 1166.37 5.45309 3.63756 0
M  V30 12324 H 1165.89 3.97083 4.49539 0
M  V30 12325 H 1167.57 4.5572 4.5927 0
M  V30 12326 N 1167.7 -1.08142 1.14644 0
M  V30 12327 C 1168.92 -1.84857 0.940349 0
M  V30 12328 C 1169.35 -1.81163 -0.506117 0
M  V30 12329 O 1168.71 -1.19869 -1.36019 0
M  V30 12330 C 1168.76 -3.30198 1.4492 0
M  V30 12331 O 1167.86 -4.07355 0.64308 0
M  V30 12332 H 1167.2 -0.572711 0.336003 0
M  V30 12333 H 1169.73 -1.36475 1.52432 0
M  V30 12334 H 1169.74 -3.81039 1.45854 0
M  V30 12335 H 1168.42 -3.32202 2.50229 0
M  V30 12336 H 1166.99 -3.66219 0.702698 0
M  V30 12337 N 1169.18 -0.941978 -1.26351 0
M  V30 12338 C 1170.45 -0.507822 -1.88893 0
M  V30 12339 C 1170.83 1.0146 -1.85119 0
M  V30 12340 O 1170.18 1.87495 -1.30606 0
M  V30 12341 C 1170.39 -1.07007 -3.3219 0
M  V30 12342 C 1171.74 -1.13922 -4.09032 0
M  V30 12343 O 1172.76 -1.02072 -3.41262 0
M  V30 12344 O 1171.62 -1.32362 -5.30229 0
M  V30 12345 H 1168.72 -0.165621 -0.810246 0
M  V30 12346 H 1171.26 -1.03459 -1.34515 0
M  V30 12347 H 1170.04 -2.11366 -3.29302 0
M  V30 12348 H 1169.66 -0.525797 -3.94108 0
M  V30 12349 N 1170.66 1.40747 -0.709091 0
M  V30 12350 C 1171.9 2.01003 -0.24581 0
M  V30 12351 C 1172.23 1.56203 1.15891 0
M  V30 12352 O 1171.49 0.770166 1.79908 0
M  V30 12353 C 1171.78 3.56404 -0.266685 0
M  V30 12354 C 1171.45 4.20762 -1.6208 0
M  V30 12355 C 1170.11 4.38056 -1.99148 0
M  V30 12356 C 1172.46 4.56723 -2.51105 0
M  V30 12357 C 1169.79 4.88591 -3.248 0
M  V30 12358 C 1172.14 5.08654 -3.76103 0
M  V30 12359 C 1170.81 5.24158 -4.13297 0
M  V30 12360 H 1170.08 0.73552 -0.0899481 0
M  V30 12361 H 1172.73 1.68451 -0.910844 0
M  V30 12362 H 1171.03 3.88825 0.481915 0
M  V30 12363 H 1172.73 4.0085 0.109509 0
M  V30 12364 H 1169.32 4.07685 -1.32252 0
M  V30 12365 H 1173.5 4.43004 -2.23744 0
M  V30 12366 H 1168.76 4.98779 -3.53595 0
M  V30 12367 H 1172.93 5.35457 -4.45262 0
M  V30 12368 H 1170.56 5.63079 -5.10731 0
M  V30 12369 N 1172.13 0.454803 1.50895 0
M  V30 12370 C 1173.38 -0.105562 2.01824 0
M  V30 12371 C 1173.7 -1.41673 1.33992 0
M  V30 12372 O 1172.97 -1.89929 0.479994 0
M  V30 12373 H 1171.55 -0.0420011 0.745818 0
M  V30 12374 H 1174.21 0.601504 1.85386 0
M  V30 12375 H 1173.31 -0.268872 3.1094 0
M  V30 12376 N 1173.61 -1.56489 0.186789 0
M  V30 12377 C 1174.84 -2.01722 -0.459993 0
M  V30 12378 C 1175.25 -1.06697 -1.5576 0
M  V30 12379 O 1174.61 -0.0704212 -1.82364 0
M  V30 12380 C 1174.66 -3.46693 -1.02401 0
M  V30 12381 O 1174.38 -4.3809 0.0297916 0
M  V30 12382 C 1175.88 -4.07403 -1.7475 0
M  V30 12383 H 1173.1 -0.660845 -0.116298 0
M  V30 12384 H 1175.65 -2.02389 0.293059 0
M  V30 12385 H 1173.8 -3.46752 -1.72749 0
M  V30 12386 H 1174.22 -5.23057 -0.388821 0
M  V30 12387 H 1175.69 -5.10718 -2.09455 0
M  V30 12388 H 1176.17 -3.50383 -2.64818 0
M  V30 12389 H 1176.77 -4.11093 -1.09007 0
M  V30 12390 N 1175.09 0.086862 -1.5736 0
M  V30 12391 C 1176.31 0.806017 -1.91097 0
M  V30 12392 C 1176.74 1.71082 -0.78183 0
M  V30 12393 O 1176.1 1.79335 0.266175 0
M  V30 12394 C 1176.15 1.5884 -3.23732 0
M  V30 12395 O 1175.25 2.69798 -3.11902 0
M  V30 12396 H 1174.59 0.220899 -0.626179 0
M  V30 12397 H 1177.12 0.059619 -2.04513 0
M  V30 12398 H 1177.13 1.97088 -3.5724 0
M  V30 12399 H 1175.81 0.924426 -4.05496 0
M  V30 12400 H 1174.38 2.34519 -2.89923 0
M  V30 12401 N 1176.57 1.53483 0.357892 0
M  V30 12402 C 1177.51 1.80463 1.43881 0
M  V30 12403 C 1178.48 0.649438 1.52877 0
M  V30 12404 O 1179.67 0.892409 1.68644 0
M  V30 12405 C 1176.81 2.00714 2.80727 0
M  V30 12406 C 1175.92 3.28431 2.80637 0
M  V30 12407 C 1175.06 3.38828 4.09107 0
M  V30 12408 C 1174.1 4.60549 4.03189 0
M  V30 12409 N 1173.23 4.68057 5.23323 0
M  V30 12410 H 1178.07 2.72694 1.20174 0
M  V30 12411 H 1175.61 1.35079 0.582422 0
M  V30 12412 H 1177.57 2.10444 3.60235 0
M  V30 12413 H 1176.2 1.11811 3.02817 0
M  V30 12414 H 1175.25 3.27617 1.93317 0
M  V30 12415 H 1176.56 4.18022 2.72138 0
M  V30 12416 H 1175.72 3.47911 4.97034 0
M  V30 12417 H 1174.46 2.47267 4.20369 0
M  V30 12418 H 1173.46 4.51558 3.13649 0
M  V30 12419 H 1174.69 5.53459 3.93523 0
M  V30 12420 H 1172.63 3.794 5.35156 0
M  V30 12421 H 1172.55 5.51563 5.17024 0
M  V30 12422 H 1173.82 4.81433 6.1306 0
M  V30 12423 N 1178.05 -0.61812 1.44973 0
M  V30 12424 C 1179.46 -0.937734 1.29146 0
M  V30 12425 C 1179.66 -2.00104 0.236749 0
M  V30 12426 O 1178.72 -2.49731 -0.372923 0
M  V30 12427 C 1180.03 -1.38865 2.66715 0
M  V30 12428 C 1181.58 -1.50343 2.74529 0
M  V30 12429 C 1182.05 -1.98814 4.12598 0
M  V30 12430 N 1183.54 -2.06064 4.14839 0
M  V30 12431 C 1184.28 -2.44768 5.18533 0
M  V30 12432 N 1183.78 -2.82516 6.32579 0
M  V30 12433 N 1185.57 -2.45016 5.05889 0
M  V30 12434 H 1177.72 0.084872 2.1223 0
M  V30 12435 H 1179.98 -0.0246744 0.947679 0
M  V30 12436 H 1179.69 -0.681583 3.45032 0
M  V30 12437 H 1179.56 -2.3572 2.94475 0
M  V30 12438 H 1181.95 -2.20144 1.96522 0
M  V30 12439 H 1182.03 -0.518297 2.50494 0
M  V30 12440 H 1181.67 -1.29604 4.91086 0
M  V30 12441 H 1181.6 -2.98223 4.34017 0
M  V30 12442 H 1184.1 -1.79525 3.32535 0
M  V30 12443 H 1184.41 -3.109 7.07504 0
M  V30 12444 H 1182.75 -2.80237 6.35997 0
M  V30 12445 H 1185.94 -2.14925 4.15842 0
M  V30 12446 H 1186.12 -2.74854 5.86821 0
M  V30 12447 N 1179.52 -1.32087 -0.859693 0
M  V30 12448 C 1180.45 -1.23204 -1.98351 0
M  V30 12449 C 1181.43 -0.116974 -1.69697 0
M  V30 12450 O 1182.62 -0.303301 -1.91817 0
M  V30 12451 C 1179.75 -0.949171 -3.34078 0
M  V30 12452 C 1178.7 -2.02493 -3.77069 0
M  V30 12453 C 1178.03 -1.59455 -5.1037 0
M  V30 12454 C 1179.33 -3.43934 -3.93074 0
M  V30 12455 H 1181.02 -2.17227 -2.0604 0
M  V30 12456 H 1178.57 -1.04577 -0.989931 0
M  V30 12457 H 1180.52 -0.873594 -4.12245 0
M  V30 12458 H 1179.25 0.0267095 -3.26589 0
M  V30 12459 H 1177.91 -2.09057 -3.01149 0
M  V30 12460 H 1177.55 -0.606256 -4.99333 0
M  V30 12461 H 1177.25 -2.31429 -5.40106 0
M  V30 12462 H 1178.78 -1.53325 -5.91036 0
M  V30 12463 H 1180.19 -3.39986 -4.61608 0
M  V30 12464 H 1178.59 -4.14214 -4.3422 0
M  V30 12465 H 1179.66 -3.83965 -2.9614 0
M  V30 12466 N 1181 1.07532 -1.15215 0
M  V30 12467 C 1181.96 2.1286 -0.84989 0
M  V30 12468 C 1182.96 1.60103 0.149524 0
M  V30 12469 O 1184.15 1.74017 -0.0798918 0
M  V30 12470 C 1181.29 3.3984 -0.268617 0
M  V30 12471 H 1182.48 2.41106 -1.78347 0
M  V30 12472 H 1180.03 1.23392 -0.959386 0
M  V30 12473 H 1180.77 3.17235 0.67325 0
M  V30 12474 H 1180.55 3.79433 -0.988592 0
M  V30 12475 H 1182.04 4.17533 -0.0746554 0
M  V30 12476 N 1182.48 0.948665 1.2585 0
M  V30 12477 C 1183.73 0.59905 1.93018 0
M  V30 12478 C 1184.05 -0.865813 1.74725 0
M  V30 12479 O 1183.32 -1.61602 1.10732 0
M  V30 12480 H 1181.9 0.218565 0.71431 0
M  V30 12481 H 1184.56 1.20561 1.53137 0
M  V30 12482 H 1183.66 0.823244 3.01047 0
M  V30 12483 N 1183.96 -1.40369 0.716545 0
M  V30 12484 C 1185.2 -2.01167 0.256846 0
M  V30 12485 C 1185.54 -1.56689 -1.14727 0
M  V30 12486 O 1184.81 -0.787384 -1.7785 0
M  V30 12487 C 1185.1 -3.58511 0.337963 0
M  V30 12488 C 1184.95 -4.13059 1.78052 0
M  V30 12489 C 1186.27 -4.39142 -0.290295 0
M  V30 12490 H 1183.39 -0.730877 0.0948028 0
M  V30 12491 H 1186.03 -1.66833 0.909225 0
M  V30 12492 H 1184.18 -3.87891 -0.217482 0
M  V30 12493 H 1185.85 -3.94472 2.39143 0
M  V30 12494 H 1184.09 -3.67311 2.30793 0
M  V30 12495 H 1184.76 -5.22217 1.78867 0
M  V30 12496 H 1187.24 -4.15697 0.182987 0
M  V30 12497 H 1186.12 -5.48524 -0.203097 0
M  V30 12498 H 1186.38 -4.20209 -1.37394 0
M  V30 12499 N 1185.44 -0.462799 -1.50652 0
M  V30 12500 C 1186.38 0.349784 -2.29955 0
M  V30 12501 C 1187.38 0.997947 -1.36885 0
M  V30 12502 O 1188.58 0.93 -1.54114 0
M  V30 12503 H 1184.96 0.131635 -0.740389 0
M  V30 12504 H 1186.93 -0.33958 -2.96461 0
M  V30 12505 C 1185.68 1.42398 -3.17204 0
M  V30 12506 H 1185 0.934611 -3.88722 0
M  V30 12507 H 1186.44 1.96528 -3.75703 0
M  V30 12508 C 1184.9 2.42135 -2.34248 0
M  V30 12509 O 1185.43 3.47229 -2.01978 0
M  V30 12510 N 1183.64 2.13647 -1.96985 0
M  V30 12511 H 1183.18 1.28209 -2.23428 0
M  V30 12512 H 1183.14 2.80615 -1.41783 0
M  V30 12513 N 1186.91 1.56388 -0.195085 0
M  V30 12514 C 1188.33 1.8398 0.317513 0
M  V30 12515 C 1188.68 1.11575 1.61386 0
M  V30 12516 O 1187.8 0.376557 2.13099 0
M  V30 12517 C 1188.4 3.33749 0.582859 0
M  V30 12518 C 1186.96 3.61752 1.03983 0
M  V30 12519 C 1186.1 2.77159 0.088434 0
M  V30 12520 H 1189.05 1.53072 -0.418871 0
M  V30 12521 H 1189.07 3.52519 1.43216 0
M  V30 12522 H 1188.59 3.86419 -0.360813 0
M  V30 12523 H 1186.69 3.14515 1.99778 0
M  V30 12524 H 1186.8 4.69937 0.932549 0
M  V30 12525 H 1185.16 2.47765 0.590317 0
M  V30 12526 H 1185.95 3.32619 -0.849682 0
M  V30 12527 N 1188.39 -0.0785156 1.57404 0
M  V30 12528 C 1189.63 -0.784359 1.88752 0
M  V30 12529 C 1190 -1.75081 0.788079 0
M  V30 12530 O 1191.2 -2.50125 0.984431 0
M  V30 12531 C 1189.47 -1.47962 3.25334 0
M  V30 12532 S 1191.03 -2.22146 3.78413 0
M  V30 12533 H 1187.85 -0.260976 0.661372 0
M  V30 12534 H 1190.45 -0.0407396 1.95458 0
M  V30 12535 H 1189.15 -0.762338 4.03257 0
M  V30 12536 H 1188.68 -2.26281 3.21808 0
M  V30 12537 H 1190.7 -3.48558 3.5316 0
M  V30 12538 N 1189.87 -1.5367 -0.349747 0
M  V30 12539 C 1191.1 -1.74547 -1.11089 0
M  V30 12540 C 1191.51 -0.481741 -1.82551 0
M  V30 12541 O 1190.87 0.546272 -1.74132 0
M  V30 12542 C 1190.92 -2.92148 -2.12913 0
M  V30 12543 O 1190.64 -4.13633 -1.44358 0
M  V30 12544 C 1192.14 -3.25027 -3.01451 0
M  V30 12545 H 1189.36 -0.583376 -0.331532 0
M  V30 12546 H 1191.91 -2.00473 -0.403841 0
M  V30 12547 H 1190.06 -2.68572 -2.79192 0
M  V30 12548 H 1190.48 -4.79601 -2.12329 0
M  V30 12549 H 1191.95 -4.10679 -3.68845 0
M  V30 12550 H 1192.43 -2.41064 -3.67131 0
M  V30 12551 H 1193.03 -3.50586 -2.40768 0
M  V30 12552 N 1191.35 0.610423 -1.45298 0
M  V30 12553 C 1192.26 1.74964 -1.56285 0
M  V30 12554 C 1193.27 1.68149 -0.447436 0
M  V30 12555 O 1194.45 1.88556 -0.707725 0
M  V30 12556 C 1191.52 3.11417 -1.52383 0
M  V30 12557 C 1190.58 3.29707 -2.7494 0
M  V30 12558 C 1189.81 4.5965 -2.71215 0
M  V30 12559 O 1190.03 5.41789 -1.78383 0
M  V30 12560 O 1188.97 4.80591 -3.62375 0
M  V30 12561 H 1192.79 1.68646 -2.52571 0
M  V30 12562 H 1190.38 0.774168 -1.27777 0
M  V30 12563 H 1192.26 3.9272 -1.52805 0
M  V30 12564 H 1190.93 3.18232 -0.592472 0
M  V30 12565 H 1189.84 2.48003 -2.80081 0
M  V30 12566 H 1191.17 3.27766 -3.67192 0
M  V30 12567 N 1192.83 1.32541 0.852676 0
M  V30 12568 C 1194.05 1.2622 1.6394 0
M  V30 12569 C 1194.47 -0.169455 1.88038 0
M  V30 12570 O 1193.83 -1.10719 1.45078 0
M  V30 12571 C 1193.88 2.02062 2.99755 0
M  V30 12572 O 1193.6 3.39641 2.76723 0
M  V30 12573 C 1195.1 2.02787 3.94198 0
M  V30 12574 H 1192.32 0.435405 0.510552 0
M  V30 12575 H 1194.86 1.74696 1.06309 0
M  V30 12576 H 1193.02 1.57303 3.54026 0
M  V30 12577 H 1193.43 3.78484 3.63111 0
M  V30 12578 H 1194.91 2.60333 4.86755 0
M  V30 12579 H 1195.38 1.01464 4.27319 0
M  V30 12580 H 1195.99 2.47504 3.45864 0
M  V30 12581 N 1194.3 -1.0692 1.15784 0
M  V30 12582 C 1195.55 -1.796 0.935429 0
M  V30 12583 C 1195.88 -1.86935 -0.537173 0
M  V30 12584 O 1195.13 -1.35244 -1.41448 0
M  V30 12585 C 1195.43 -3.24389 1.50022 0
M  V30 12586 C 1195.1 -3.37145 2.99406 0
M  V30 12587 C 1193.76 -3.40334 3.40186 0
M  V30 12588 C 1196.11 -3.39584 3.95389 0
M  V30 12589 C 1193.44 -3.43569 4.75581 0
M  V30 12590 C 1195.79 -3.44356 5.30661 0
M  V30 12591 C 1194.46 -3.45824 5.70931 0
M  V30 12592 H 1193.73 -0.657201 0.342298 0
M  V30 12593 H 1196.37 -1.25784 1.44397 0
M  V30 12594 H 1194.68 -3.81015 0.91297 0
M  V30 12595 H 1196.38 -3.79209 1.30389 0
M  V30 12596 H 1192.97 -3.35365 2.66887 0
M  V30 12597 H 1197.15 -3.36337 3.64954 0
M  V30 12598 H 1192.41 -3.43006 5.06119 0
M  V30 12599 H 1196.58 -3.4519 6.04828 0
M  V30 12600 H 1194.21 -3.48084 6.75826 0
M  V30 12601 N 1195.78 -0.955326 -1.25345 0
M  V30 12602 C 1197.01 -0.627693 -1.97149 0
M  V30 12603 C 1197.43 0.800349 -1.70997 0
M  V30 12604 O 1196.78 1.53545 -0.986417 0
M  V30 12605 C 1196.83 -0.877675 -3.50684 0
M  V30 12606 O 1196.55 -2.24957 -3.75934 0
M  V30 12607 C 1198.06 -0.562524 -4.39716 0
M  V30 12608 H 1195.28 -0.235269 -0.628402 0
M  V30 12609 H 1197.82 -1.27989 -1.59496 0
M  V30 12610 H 1195.97 -0.271878 -3.86445 0
M  V30 12611 H 1196.39 -2.32022 -4.70389 0
M  V30 12612 H 1197.86 -0.787972 -5.46347 0
M  V30 12613 H 1198.34 0.50293 -4.36311 0
M  V30 12614 H 1198.95 -1.14767 -4.09522 0
M  V30 12615 N 1197.26 1.39987 -0.723979 0
M  V30 12616 C 1198.51 2.00334 -0.266587 0
M  V30 12617 C 1198.83 1.57714 1.14679 0
M  V30 12618 O 1198.1 0.82037 1.77895 0
M  V30 12619 H 1196.68 0.740861 -0.095573 0
M  V30 12620 H 1199.34 1.712 -0.931481 0
M  V30 12621 H 1198.44 3.10594 -0.306282 0
M  V30 12622 N 1198.74 0.470782 1.50404 0
M  V30 12623 C 1199.97 -0.0820134 2.06737 0
M  V30 12624 C 1200.38 -1.33535 1.33468 0
M  V30 12625 O 1199.74 -1.77975 0.403872 0
M  V30 12626 C 1199.79 -0.370427 3.59597 0
M  V30 12627 O 1199.51 0.8332 4.30104 0
M  V30 12628 C 1201.01 -0.970222 4.32552 0
M  V30 12629 H 1198.23 0.00694502 0.670964 0
M  V30 12630 H 1200.78 0.659476 1.93575 0
M  V30 12631 H 1198.93 -1.06185 3.72563 0
M  V30 12632 H 1199.35 0.577614 5.2131 0
M  V30 12633 H 1200.82 -1.1218 5.40481 0
M  V30 12634 H 1201.3 -1.96024 3.93028 0
M  V30 12635 H 1201.9 -0.31719 4.24116 0
M  V30 12636 N 1200.22 -1.56282 0.203376 0
M  V30 12637 C 1201.15 -2.2247 -0.709183 0
M  V30 12638 C 1202.13 -1.19046 -1.21499 0
M  V30 12639 O 1203.31 -1.47578 -1.26231 0
M  V30 12640 C 1200.44 -2.8905 -1.92529 0
M  V30 12641 C 1199.4 -3.98789 -1.55407 0
M  V30 12642 C 1198.72 -4.52574 -2.84747 0
M  V30 12643 C 1200.02 -5.16774 -0.75775 0
M  V30 12644 H 1201.72 -2.98986 -0.157392 0
M  V30 12645 H 1199.26 -1.43808 -0.0742613 0
M  V30 12646 H 1201.22 -3.34038 -2.56898 0
M  V30 12647 H 1199.94 -2.09952 -2.50175 0
M  V30 12648 H 1198.6 -3.54504 -0.933928 0
M  V30 12649 H 1198.25 -3.70229 -3.40499 0
M  V30 12650 H 1197.95 -5.26627 -2.6065 0
M  V30 12651 H 1199.47 -5.00269 -3.5009 0
M  V30 12652 H 1200.89 -5.58256 -1.30472 0
M  V30 12653 H 1199.28 -5.96945 -0.614583 0
M  V30 12654 H 1200.35 -4.84308 0.239476 0
M  V30 12655 N 1201.7 0.070167 -1.57444 0
M  V30 12656 C 1202.63 1.10996 -2.0053 0
M  V30 12657 C 1203.64 1.3489 -0.91151 0
M  V30 12658 O 1204.83 1.33102 -1.18938 0
M  V30 12659 C 1201.93 2.46053 -2.33048 0
M  V30 12660 C 1201.1 2.42092 -3.64294 0
M  V30 12661 C 1200.16 3.5927 -3.84463 0
M  V30 12662 O 1199.19 3.40625 -4.5603 0
M  V30 12663 N 1200.39 4.79677 -3.26941 0
M  V30 12664 H 1203.15 0.743029 -2.90343 0
M  V30 12665 H 1200.72 0.258794 -1.59818 0
M  V30 12666 H 1202.71 3.23089 -2.43712 0
M  V30 12667 H 1201.28 2.74742 -1.49116 0
M  V30 12668 H 1200.5 1.5043 -3.64368 0
M  V30 12669 H 1201.79 2.36548 -4.50469 0
M  V30 12670 H 1201.18 4.97729 -2.68855 0
M  V30 12671 H 1199.74 5.54219 -3.43051 0
M  V30 12672 N 1203.17 1.53854 0.341593 0
M  V30 12673 C 1204.4 1.7488 1.10002 0
M  V30 12674 C 1204.81 0.488802 1.82777 0
M  V30 12675 O 1204.15 -0.549333 1.75294 0
M  V30 12676 C 1204.22 2.87604 2.15694 0
M  V30 12677 C 1203.88 4.27142 1.62477 0
M  V30 12678 C 1204.88 5.08642 1.07606 0
M  V30 12679 C 1202.56 4.73633 1.67265 0
M  V30 12680 C 1204.56 6.34735 0.582284 0
M  V30 12681 C 1202.24 5.99697 1.175 0
M  V30 12682 C 1203.24 6.80081 0.630742 0
M  V30 12683 O 1202.93 8.03777 0.140519 0
M  V30 12684 H 1202.66 0.587824 0.333824 0
M  V30 12685 H 1205.22 2.01488 0.398965 0
M  V30 12686 H 1203.45 2.56526 2.89364 0
M  V30 12687 H 1205.13 2.96583 2.77117 0
M  V30 12688 H 1205.9 4.73887 1.03227 0
M  V30 12689 H 1201.78 4.11121 2.08567 0
M  V30 12690 H 1205.32 6.97424 0.156811 0
M  V30 12691 H 1201.22 6.33947 1.21579 0
M  V30 12692 H 1201.99 8.18094 0.257626 0
M  V30 12693 N 1204.65 -0.602709 1.4562 0
M  V30 12694 C 1205.58 -1.72705 1.49159 0
M  V30 12695 C 1206.56 -1.58843 0.347494 0
M  V30 12696 O 1207.75 -1.80337 0.548716 0
M  V30 12697 C 1204.87 -3.10579 1.35125 0
M  V30 12698 C 1203.92 -3.43016 2.53461 0
M  V30 12699 S 1204.75 -3.37311 4.1591 0
M  V30 12700 C 1205.91 -4.77757 4.0435 0
M  V30 12701 H 1206.14 -1.69441 2.44289 0
M  V30 12702 H 1203.67 -0.779776 1.33262 0
M  V30 12703 H 1205.63 -3.90127 1.27715 0
M  V30 12704 H 1204.29 -3.11352 0.414568 0
M  V30 12705 H 1203.49 -4.43415 2.39581 0
M  V30 12706 H 1203.09 -2.70993 2.57757 0
M  V30 12707 H 1205.38 -5.67677 3.69796 0
M  V30 12708 H 1206.32 -4.96694 5.04679 0
M  V30 12709 H 1206.73 -4.53667 3.35926 0
M  V30 12710 N 1206.13 -1.32992 -0.845635 0
M  V30 12711 C 1207.09 -1.22607 -1.9365 0
M  V30 12712 C 1208.09 -0.146812 -1.60128 0
M  V30 12713 O 1209.28 -0.397863 -1.69596 0
M  V30 12714 C 1206.41 -0.887677 -3.2914 0
M  V30 12715 H 1207.61 -2.19563 -2.04285 0
M  V30 12716 H 1205.16 -1.16952 -1.03691 0
M  V30 12717 H 1205.9 0.0796777 -3.24202 0
M  V30 12718 H 1205.68 -1.66808 -3.54849 0
M  V30 12719 H 1207.17 -0.83958 -4.09073 0
M  V30 12720 N 1207.61 1.06304 -1.1635 0
M  V30 12721 C 1209.02 1.60566 -0.952652 0
M  V30 12722 C 1209.37 1.8963 0.503473 0
M  V30 12723 O 1208.49 1.66964 1.37666 0
M  V30 12724 C 1209.09 2.9172 -1.72292 0
M  V30 12725 C 1207.65 3.42684 -1.55707 0
M  V30 12726 C 1206.8 2.16579 -1.73172 0
M  V30 12727 H 1209.75 0.892563 -1.31221 0
M  V30 12728 H 1209.77 3.61126 -1.19868 0
M  V30 12729 H 1209.28 2.70535 -2.78267 0
M  V30 12730 H 1207.38 3.68929 -0.521726 0
M  V30 12731 H 1207.49 4.18018 -2.34088 0
M  V30 12732 H 1205.86 2.26795 -1.15914 0
M  V30 12733 H 1206.64 1.97877 -2.80535 0
M  V30 12734 N 1209.09 0.96196 1.24836 0
M  V30 12735 C 1210 0.494876 2.29321 0
M  V30 12736 C 1211.01 -0.441363 1.68309 0
M  V30 12737 O 1212.19 -0.315814 1.98908 0
M  V30 12738 C 1209.25 -0.212944 3.46045 0
M  V30 12739 C 1208.31 0.762411 4.22476 0
M  V30 12740 C 1207.55 0.0882756 5.33627 0
M  V30 12741 O 1207.77 -1.12459 5.59204 0
M  V30 12742 O 1206.7 0.777529 5.96857 0
M  V30 12743 H 1210.53 1.36333 2.7138 0
M  V30 12744 H 1208.11 0.728738 1.30421 0
M  V30 12745 H 1210 -0.610805 4.1695 0
M  V30 12746 H 1208.67 -1.05645 3.05975 0
M  V30 12747 H 1207.58 1.21062 3.5397 0
M  V30 12748 H 1208.91 1.57416 4.66349 0
M  V30 12749 N 1210.56 -1.39601 0.731392 0
M  V30 12750 C 1211.81 -1.99821 0.274661 0
M  V30 12751 C 1212.13 -1.58693 -1.1435 0
M  V30 12752 O 1213.33 -2.11724 -1.69957 0
M  V30 12753 C 1211.79 -3.57199 0.440124 0
M  V30 12754 C 1211.4 -4.07292 1.86594 0
M  V30 12755 C 1213.14 -4.24476 0.0449851 0
M  V30 12756 C 1211.05 -5.57229 1.98115 0
M  V30 12757 H 1209.98 -0.747481 0.0989383 0
M  V30 12758 H 1212.63 -1.59645 0.904755 0
M  V30 12759 H 1211.01 -3.95153 -0.25881 0
M  V30 12760 H 1212.18 -3.80679 2.59654 0
M  V30 12761 H 1210.5 -3.52665 2.21397 0
M  V30 12762 H 1213.1 -5.34587 0.110126 0
M  V30 12763 H 1213.44 -4.04129 -0.999269 0
M  V30 12764 H 1213.97 -3.91683 0.694942 0
M  V30 12765 H 1210.71 -5.82452 3.00716 0
M  V30 12766 H 1210.23 -5.85656 1.29487 0
M  V30 12767 H 1211.91 -6.22584 1.76063 0
M  V30 12768 N 1212.04 -0.478751 -1.50152 0
M  V30 12769 C 1213.29 0.07531 -2.01559 0
M  V30 12770 C 1213.6 1.40089 -1.36508 0
M  V30 12771 O 1214.81 2.04035 -1.79115 0
M  V30 12772 C 1213.27 0.184714 -3.59426 0
M  V30 12773 C 1212.87 -1.13289 -4.33439 0
M  V30 12774 C 1214.62 0.690326 -4.18849 0
M  V30 12775 C 1212.53 -0.986866 -5.83108 0
M  V30 12776 H 1211.46 0.0319196 -0.753324 0
M  V30 12777 H 1214.11 -0.614809 -1.72894 0
M  V30 12778 H 1212.49 0.938788 -3.84711 0
M  V30 12779 H 1213.66 -1.89852 -4.19872 0
M  V30 12780 H 1211.98 -1.57021 -3.8566 0
M  V30 12781 H 1214.57 0.816733 -5.28426 0
M  V30 12782 H 1214.92 1.68361 -3.80737 0
M  V30 12783 H 1215.45 -0.00657846 -3.97799 0
M  V30 12784 H 1212.19 -1.95375 -6.25707 0
M  V30 12785 H 1211.71 -0.261752 -5.99229 0
M  V30 12786 H 1213.39 -0.656567 -6.4366 0
M  V30 12787 N 1213.52 1.56172 -0.211661 0
M  V30 12788 C 1214.8 1.8984 0.471195 0
M  V30 12789 C 1215.18 1.1276 1.78461 0
M  V30 12790 O 1214.53 0.233817 2.27301 0
M  V30 12791 C 1214.74 3.42434 0.673814 0
M  V30 12792 C 1216.08 4.13 0.985719 0
M  V30 12793 O 1217.11 3.47977 0.760953 0
M  V30 12794 O 1215.97 5.2795 1.41176 0
M  V30 12795 H 1213.06 0.789008 0.247782 0
M  V30 12796 H 1215.61 1.67802 -0.25311 0
M  V30 12797 H 1214.38 3.90481 -0.253034 0
M  V30 12798 H 1214 3.70218 1.44997 0
M  V30 12799 N 1215 -0.0618163 1.57479 0
M  V30 12800 C 1215.93 -1.09931 2.01116 0
M  V30 12801 C 1216.94 -1.34405 0.91865 0
M  V30 12802 O 1218.13 -1.32469 1.19642 0
M  V30 12803 C 1215.23 -2.44814 2.34349 0
M  V30 12804 C 1214.41 -2.40157 3.65573 0
M  V30 12805 C 1213.46 -3.57226 3.86363 0
M  V30 12806 O 1212.49 -3.38202 4.5783 0
M  V30 12807 N 1213.69 -4.77937 3.2948 0
M  V30 12808 H 1216.46 -0.727621 2.90733 0
M  V30 12809 H 1214.02 -0.250315 1.59953 0
M  V30 12810 H 1216.01 -3.21792 2.45422 0
M  V30 12811 H 1214.58 -2.73947 1.50571 0
M  V30 12812 H 1213.8 -1.48496 3.65161 0
M  V30 12813 H 1215.09 -2.34156 4.51717 0
M  V30 12814 H 1214.49 -4.96296 2.7149 0
M  V30 12815 H 1213.04 -5.52392 3.45986 0
M  V30 12816 N 1216.48 -1.54033 -0.333429 0
M  V30 12817 C 1217.72 -1.71426 -1.0704 0
M  V30 12818 C 1218.05 -0.485496 -1.8886 0
M  V30 12819 O 1217.32 0.500555 -1.89397 0
M  V30 12820 H 1215.9 -0.632034 -0.398173 0
M  V30 12821 H 1218.56 -1.91312 -0.372252 0
M  V30 12822 H 1217.65 -2.58958 -1.74205 0
M  V30 12823 N 1217.95 0.594978 -1.45938 0
M  V30 12824 C 1219.37 1.17703 -1.44924 0
M  V30 12825 C 1219.72 1.9534 -0.183522 0
M  V30 12826 O 1218.84 2.04276 0.714163 0
M  V30 12827 C 1219.44 2.14119 -2.62561 0
M  V30 12828 C 1218 2.67674 -2.64627 0
M  V30 12829 C 1217.14 1.43312 -2.37397 0
M  V30 12830 H 1220.09 0.383583 -1.53995 0
M  V30 12831 H 1220.11 2.97374 -2.3738 0
M  V30 12832 H 1219.63 1.57586 -3.54667 0
M  V30 12833 H 1217.73 3.28111 -1.76562 0
M  V30 12834 H 1217.84 3.11246 -3.64229 0
M  V30 12835 H 1216.2 1.72702 -1.87206 0
M  V30 12836 H 1216.99 0.886276 -3.31663 0
M  V30 12837 N 1219.43 1.33438 0.838571 0
M  V30 12838 C 1220.85 1.12779 1.12929 0
M  V30 12839 C 1221.05 -0.0811188 2.01337 0
M  V30 12840 O 1220.1 -0.761294 2.4075 0
M  V30 12841 C 1221.42 2.41537 1.7911 0
M  V30 12842 C 1222.97 2.47447 1.91674 0
M  V30 12843 C 1223.44 3.76167 2.6127 0
M  V30 12844 N 1224.93 3.7724 2.68783 0
M  V30 12845 C 1225.67 4.7355 3.23323 0
M  V30 12846 N 1225.16 5.80235 3.78549 0
M  V30 12847 N 1226.96 4.61025 3.21578 0
M  V30 12848 H 1219.11 2.10921 0.250187 0
M  V30 12849 H 1221.37 0.931986 0.17351 0
M  V30 12850 H 1221.08 3.30006 1.21609 0
M  V30 12851 H 1220.95 2.53709 2.79127 0
M  V30 12852 H 1223.34 1.59427 2.48328 0
M  V30 12853 H 1223.42 2.39216 0.906058 0
M  V30 12854 H 1223.06 4.64569 2.05275 0
M  V30 12855 H 1222.99 3.81675 3.62811 0
M  V30 12856 H 1225.48 3.00138 2.29621 0
M  V30 12857 H 1225.8 6.49759 4.1837 0
M  V30 12858 H 1224.14 5.83969 3.76836 0
M  V30 12859 H 1227.33 3.76836 2.77691 0
M  V30 12860 H 1227.5 5.36253 3.63781 0
M  V30 12861 N 1220.91 -1.05686 1.16912 0
M  V30 12862 C 1222.16 -1.78244 0.95254 0
M  V30 12863 C 1222.48 -1.87924 -0.520525 0
M  V30 12864 O 1221.75 -1.39239 -1.37802 0
M  V30 12865 H 1220.33 -0.660228 0.349439 0
M  V30 12866 H 1222.99 -1.27634 1.47294 0
M  V30 12867 H 1222.09 -2.80102 1.37657 0
M  V30 12868 N 1222.39 -0.968567 -1.24324 0
M  V30 12869 C 1223.62 -0.647628 -1.96187 0
M  V30 12870 C 1224.03 0.787267 -1.72043 0
M  V30 12871 O 1223.37 1.53996 -1.00155 0
M  V30 12872 C 1223.43 -0.843517 -3.49464 0
M  V30 12873 C 1223.1 -2.25822 -3.97308 0
M  V30 12874 C 1224.09 -3.23602 -4.06913 0
M  V30 12875 C 1221.78 -2.58614 -4.30609 0
M  V30 12876 C 1223.77 -4.5226 -4.49154 0
M  V30 12877 C 1221.46 -3.87499 -4.72534 0
M  V30 12878 C 1222.46 -4.84134 -4.81771 0
M  V30 12879 O 1222.14 -6.10719 -5.2276 0
M  V30 12880 H 1221.88 -0.240568 -0.631746 0
M  V30 12881 H 1224.43 -1.29926 -1.59086 0
M  V30 12882 H 1222.66 -0.134716 -3.86465 0
M  V30 12883 H 1224.35 -0.521533 -4.02536 0
M  V30 12884 H 1225.12 -2.99596 -3.81402 0
M  V30 12885 H 1220.99 -1.84116 -4.22637 0
M  V30 12886 H 1224.54 -5.27689 -4.56279 0
M  V30 12887 H 1220.44 -4.11305 -4.97492 0
M  V30 12888 H 1221.2 -6.14298 -5.40906 0
M  V30 12889 N 1223.87 1.39211 -0.738786 0
M  V30 12890 C 1225.11 2.0004 -0.28782 0
M  V30 12891 C 1225.44 1.58921 1.13 0
M  V30 12892 O 1224.71 0.839193 1.77015 0
M  V30 12893 H 1223.29 0.739805 -0.103425 0
M  V30 12894 H 1225.95 1.70202 -0.949587 0
M  V30 12895 H 1225.04 3.10251 -0.339208 0
M  V30 12896 N 1225.34 0.486708 1.49896 0
M  V30 12897 C 1226.31 -0.288126 2.27382 0
M  V30 12898 C 1227.31 -0.906675 1.32801 0
M  V30 12899 O 1228.5 -0.773425 1.56089 0
M  V30 12900 C 1225.63 -1.41194 3.10285 0
M  V30 12901 H 1226.82 0.391618 2.97332 0
M  V30 12902 H 1224.38 0.24123 1.54427 0
M  V30 12903 H 1225.11 -2.12627 2.44868 0
M  V30 12904 H 1224.9 -0.974033 3.79809 0
M  V30 12905 H 1226.39 -1.95812 3.68846 0
M  V30 12906 N 1226.82 -1.56058 0.219941 0
M  V30 12907 C 1228.23 -1.84462 -0.288203 0
M  V30 12908 C 1228.59 -1.14128 -1.59591 0
M  V30 12909 O 1227.71 -0.410411 -2.12473 0
M  V30 12910 C 1228.31 -3.34634 -0.529689 0
M  V30 12911 C 1226.86 -3.63361 -0.982145 0
M  V30 12912 C 1226.01 -2.77265 -0.0443292 0
M  V30 12913 H 1228.96 -1.52387 0.44317 0
M  V30 12914 H 1228.98 -3.54752 -1.3759 0
M  V30 12915 H 1228.5 -3.85796 0.422243 0
M  V30 12916 H 1226.6 -3.17653 -1.94749 0
M  V30 12917 H 1226.71 -4.71361 -0.857668 0
M  V30 12918 H 1225.07 -2.48672 -0.550825 0
M  V30 12919 H 1225.86 -3.31225 0.902491 0
M  V30 12920 N 1228.3 0.053464 -1.57509 0
M  V30 12921 C 1229.26 1.04604 -2.03938 0
M  V30 12922 C 1230.26 1.30509 -0.939357 0
M  V30 12923 O 1231.45 1.25922 -1.20371 0
M  V30 12924 C 1228.59 2.38516 -2.43563 0
M  V30 12925 H 1229.78 0.645484 -2.92871 0
M  V30 12926 H 1227.33 0.299683 -1.534 0
M  V30 12927 H 1228.07 2.83368 -1.57712 0
M  V30 12928 H 1227.85 2.2105 -3.23851 0
M  V30 12929 H 1229.34 3.09826 -2.79996 0
M  V30 12930 N 1229.78 1.54207 0.325255 0
M  V30 12931 C 1231.06 1.6298 1.08153 0
M  V30 12932 C 1231.44 0.462583 2.05969 0
M  V30 12933 O 1230.78 -0.543323 2.21947 0
M  V30 12934 C 1230.99 2.999 1.78497 0
M  V30 12935 C 1232.34 3.55888 2.3158 0
M  V30 12936 O 1233.37 3.02194 1.88566 0
M  V30 12937 O 1232.23 4.49847 3.10322 0
M  V30 12938 H 1229.32 0.659923 0.498429 0
M  V30 12939 H 1231.87 1.66553 0.325282 0
M  V30 12940 H 1230.64 3.7629 1.07338 0
M  V30 12941 H 1230.26 2.99997 2.60936 0
M  V30 12942 N 1231.26 -0.58723 1.46251 0
M  V30 12943 C 1232.51 -1.34179 1.50595 0
M  V30 12944 C 1232.82 -1.94943 0.160171 0
M  V30 12945 O 1234.03 -2.71378 0.0813797 0
M  V30 12946 C 1232.48 -2.43159 2.65333 0
M  V30 12947 C 1232.09 -1.88718 4.06312 0
M  V30 12948 C 1233.83 -3.19986 2.78943 0
M  V30 12949 C 1231.74 -2.953 5.12398 0
M  V30 12950 H 1230.67 -0.504401 0.560442 0
M  V30 12951 H 1233.32 -0.627179 1.72449 0
M  V30 12952 H 1231.7 -3.17398 2.368 0
M  V30 12953 H 1232.88 -1.21051 4.44616 0
M  V30 12954 H 1231.19 -1.24572 3.97329 0
M  V30 12955 H 1233.79 -3.9952 3.5537 0
M  V30 12956 H 1234.13 -3.72288 1.86298 0
M  V30 12957 H 1234.67 -2.52852 3.07101 0
M  V30 12958 H 1231.4 -2.4789 6.0682 0
M  V30 12959 H 1230.92 -3.61469 4.78644 0
M  V30 12960 H 1232.6 -3.5933 5.38044 0
M  V30 12961 N 1232.74 -1.33881 -0.831482 0
M  V30 12962 C 1233.98 -1.26951 -1.58918 0
M  V30 12963 C 1234.34 0.161359 -1.91722 0
M  V30 12964 O 1233.63 1.1054 -1.56498 0
M  V30 12965 C 1233.82 -2.08544 -2.90249 0
M  V30 12966 C 1233.65 -3.5942 -2.70273 0
M  V30 12967 C 1232.42 -4.28718 -2.67449 0
M  V30 12968 C 1234.62 -4.53599 -2.42388 0
M  V30 12969 N 1232.6 -5.65496 -2.38929 0
M  V30 12970 C 1233.97 -5.7832 -2.23485 0
M  V30 12971 C 1236.03 -4.42605 -2.28046 0
M  V30 12972 C 1234.73 -6.93286 -1.91695 0
M  V30 12973 C 1236.76 -5.57395 -1.97649 0
M  V30 12974 C 1236.12 -6.81129 -1.79563 0
M  V30 12975 H 1232.22 -0.519762 -0.58427 0
M  V30 12976 H 1234.8 -1.68502 -0.97546 0
M  V30 12977 H 1232.97 -1.69302 -3.49559 0
M  V30 12978 H 1234.71 -1.93325 -3.55538 0
M  V30 12979 H 1231.46 -3.81068 -2.81219 0
M  V30 12980 H 1231.88 -6.37619 -2.27532 0
M  V30 12981 H 1236.53 -3.47571 -2.40737 0
M  V30 12982 H 1234.24 -7.88311 -1.7774 0
M  V30 12983 H 1237.83 -5.50828 -1.87296 0
M  V30 12984 H 1236.71 -7.68449 -1.56382 0
M  V30 12985 N 1234.21 1.05064 -1.1747 0
M  V30 12986 C 1235.44 1.82299 -0.98903 0
M  V30 12987 C 1235.86 1.82441 0.457907 0
M  V30 12988 O 1235.22 1.23433 1.32793 0
M  V30 12989 C 1235.27 3.26239 -1.53624 0
M  V30 12990 O 1234.37 4.05507 -0.750857 0
M  V30 12991 H 1233.71 0.563601 -0.35107 0
M  V30 12992 H 1236.24 1.32386 -1.55997 0
M  V30 12993 H 1236.25 3.77038 -1.55906 0
M  V30 12994 H 1234.93 3.25451 -2.58949 0
M  V30 12995 H 1233.51 3.64227 -0.799548 0
M  V30 12996 N 1235.69 0.975146 1.23809 0
M  V30 12997 C 1236.62 0.530389 2.27396 0
M  V30 12998 C 1237.6 -0.433763 1.64476 0
M  V30 12999 O 1238.79 -0.32827 1.91405 0
M  V30 13000 C 1235.92 -0.173066 3.46869 0
M  V30 13001 C 1234.87 0.707844 4.22106 0
M  V30 13002 C 1234.2 -0.127527 5.34548 0
M  V30 13003 C 1235.5 1.99609 4.82652 0
M  V30 13004 H 1237.19 1.39622 2.64851 0
M  V30 13005 H 1234.74 0.672802 1.27316 0
M  V30 13006 H 1236.69 -0.495481 4.18477 0
M  V30 13007 H 1235.41 -1.0733 3.0846 0
M  V30 13008 H 1234.07 1.01364 3.52308 0
M  V30 13009 H 1233.72 -1.02814 4.9238 0
M  V30 13010 H 1233.42 0.458728 5.85807 0
M  V30 13011 H 1234.95 -0.444443 6.0898 0
M  V30 13012 H 1236.36 1.73878 5.46296 0
M  V30 13013 H 1234.76 2.52969 5.44175 0
M  V30 13014 H 1235.83 2.68629 4.03691 0
M  V30 13015 N 1237.17 -1.38817 0.746158 0
M  V30 13016 C 1238.42 -1.99885 0.298425 0
M  V30 13017 C 1238.74 -1.59518 -1.12156 0
M  V30 13018 O 1238.01 -0.848568 -1.76568 0
M  V30 13019 H 1236.59 -0.739247 0.107347 0
M  V30 13020 H 1239.25 -1.69696 0.9586 0
M  V30 13021 H 1238.35 -3.10067 0.355656 0
M  V30 13022 N 1238.65 -0.49465 -1.49636 0
M  V30 13023 C 1239.89 0.0505629 -2.04337 0
M  V30 13024 C 1240.25 1.34858 -1.36665 0
M  V30 13025 O 1241.45 1.97763 -1.82052 0
M  V30 13026 C 1239.72 0.206247 -3.56804 0
M  V30 13027 S 1241.28 0.706624 -4.33073 0
M  V30 13028 H 1238.1 0.00479193 -0.710984 0
M  V30 13029 H 1240.7 -0.667169 -1.83764 0
M  V30 13030 H 1239.41 -0.743862 -4.03602 0
M  V30 13031 H 1238.94 0.949406 -3.81772 0
M  V30 13032 H 1240.95 1.97672 -4.55127 0
M  V30 13033 N 1240.13 1.55939 -0.228214 0
M  V30 13034 C 1241.35 2.0287 0.406348 0
M  V30 13035 C 1241.77 1.1079 1.52876 0
M  V30 13036 O 1241.13 0.118747 1.82113 0
M  V30 13037 C 1241.18 3.49286 0.931734 0
M  V30 13038 O 1240.9 4.37857 -0.145933 0
M  V30 13039 C 1242.4 4.11893 1.63887 0
M  V30 13040 H 1239.62 0.663696 0.0987358 0
M  V30 13041 H 1242.16 2.01541 -0.346616 0
M  V30 13042 H 1240.32 3.5121 1.63494 0
M  V30 13043 H 1240.73 5.23904 0.250005 0
M  V30 13044 H 1242.21 5.16091 1.95841 0
M  V30 13045 H 1242.68 3.57281 2.55435 0
M  V30 13046 H 1243.29 4.13839 0.980697 0
M  V30 13047 N 1241.6 -0.0451101 1.57535 0
M  V30 13048 C 1242.85 -0.738072 1.87711 0
M  V30 13049 C 1243.17 -1.7737 0.824579 0
M  V30 13050 O 1244.37 -2.51812 1.01503 0
M  V30 13051 C 1242.83 -1.36373 3.33062 0
M  V30 13052 C 1242.44 -0.365283 4.46508 0
M  V30 13053 C 1244.18 -2.0375 3.72406 0
M  V30 13054 C 1242.09 -0.998371 5.82912 0
M  V30 13055 H 1241.02 -0.279413 0.700317 0
M  V30 13056 H 1243.67 0.00802425 1.83498 0
M  V30 13057 H 1242.05 -2.15899 3.31969 0
M  V30 13058 H 1243.22 0.402102 4.59042 0
M  V30 13059 H 1241.54 0.205505 4.15893 0
M  V30 13060 H 1244.14 -2.51939 4.71625 0
M  V30 13061 H 1244.48 -2.84869 3.03571 0
M  V30 13062 H 1245.01 -1.3102 3.75604 0
M  V30 13063 H 1241.75 -0.226935 6.55107 0
M  V30 13064 H 1241.27 -1.73598 5.74129 0
M  V30 13065 H 1242.95 -1.51044 6.29122 0
M  V30 13066 N 1243.08 -1.54377 -0.317073 0
M  V30 13067 C 1244.33 -1.72105 -1.0518 0
M  V30 13068 C 1244.64 -0.505166 -1.88964 0
M  V30 13069 O 1245.85 -0.563912 -2.65579 0
M  V30 13070 C 1244.31 -3.04435 -1.91957 0
M  V30 13071 C 1243.91 -4.33449 -1.13253 0
M  V30 13072 C 1245.66 -3.31524 -2.65127 0
M  V30 13073 C 1243.57 -5.56837 -1.99214 0
M  V30 13074 H 1242.5 -0.641392 -0.396399 0
M  V30 13075 H 1245.15 -1.80868 -0.309673 0
M  V30 13076 H 1243.53 -2.89595 -2.70094 0
M  V30 13077 H 1244.7 -4.59074 -0.39842 0
M  V30 13078 H 1243.02 -4.13173 -0.517372 0
M  V30 13079 H 1245.61 -4.20906 -3.29761 0
M  V30 13080 H 1245.96 -2.49688 -3.33109 0
M  V30 13081 H 1246.49 -3.47261 -1.94048 0
M  V30 13082 H 1243.23 -6.41294 -1.35729 0
M  V30 13083 H 1242.75 -5.35421 -2.70341 0
M  V30 13084 H 1244.43 -5.93488 -2.57646 0
M  V30 13085 N 1244.56 0.579466 -1.4656 0
M  V30 13086 C 1245.47 1.71609 -1.59961 0
M  V30 13087 C 1246.49 1.67162 -0.483002 0
M  V30 13088 O 1247.66 1.87012 -0.747561 0
M  V30 13089 C 1244.73 3.08114 -1.58954 0
M  V30 13090 C 1243.79 3.238 -2.81872 0
M  V30 13091 C 1243.02 4.53794 -2.80904 0
M  V30 13092 O 1243.24 5.37884 -1.89835 0
M  V30 13093 O 1242.18 4.72796 -3.72488 0
M  V30 13094 H 1246 1.6325 -2.56092 0
M  V30 13095 H 1243.59 0.746891 -1.2939 0
M  V30 13096 H 1245.47 3.8939 -1.611 0
M  V30 13097 H 1244.15 3.16903 -0.65984 0
M  V30 13098 H 1243.05 2.42006 -2.85279 0
M  V30 13099 H 1244.39 3.19904 -3.74062 0
M  V30 13100 N 1246.04 1.3432 0.824371 0
M  V30 13101 C 1246.97 1.2012 1.94027 0
M  V30 13102 C 1247.95 0.0931808 1.62333 0
M  V30 13103 O 1249.13 0.258069 1.86725 0
M  V30 13104 C 1246.26 0.845628 3.27974 0
M  V30 13105 C 1245.31 1.9632 3.7863 0
M  V30 13106 S 1246.14 3.57642 3.98563 0
M  V30 13107 C 1247.3 3.24124 5.35439 0
M  V30 13108 H 1247.53 2.14579 2.05775 0
M  V30 13109 H 1245.06 1.1933 0.979783 0
M  V30 13110 H 1247.02 0.647266 4.05365 0
M  V30 13111 H 1245.68 -0.0805948 3.13997 0
M  V30 13112 H 1244.87 1.66812 4.75594 0
M  V30 13113 H 1244.48 2.11897 3.08181 0
M  V30 13114 H 1246.77 2.75848 6.188 0
M  V30 13115 H 1247.71 4.20222 5.69929 0
M  V30 13116 H 1248.12 2.60343 5.00881 0
M  V30 13117 N 1247.52 -1.0444 1.18026 0
M  V30 13118 C 1248.48 -2.10532 0.906028 0
M  V30 13119 C 1249.48 -1.60443 -0.107022 0
M  V30 13120 O 1250.67 -1.73744 0.126001 0
M  V30 13121 C 1247.8 -3.39008 0.358625 0
M  V30 13122 H 1248.99 -2.36293 1.84677 0
M  V30 13123 H 1246.55 -1.20805 0.991763 0
M  V30 13124 H 1247.28 -3.18908 -0.588904 0
M  V30 13125 H 1247.07 -3.76678 1.08884 0
M  V30 13126 H 1248.56 -4.17189 0.185331 0
M  V30 13127 N 1248.99 -0.981699 -1.2329 0
M  V30 13128 C 1250.22 -0.66937 -1.95773 0
M  V30 13129 C 1250.64 0.763898 -1.72656 0
M  V30 13130 O 1249.99 1.51418 -1.01876 0
M  V30 13131 C 1250.05 -0.951863 -3.48743 0
M  V30 13132 O 1249.77 -2.3288 -3.71078 0
M  V30 13133 C 1251.27 -0.655668 -4.38424 0
M  V30 13134 H 1248.49 -0.248545 -0.623271 0
M  V30 13135 H 1251.03 -1.31343 -1.56746 0
M  V30 13136 H 1249.19 -0.353787 -3.85781 0
M  V30 13137 H 1249.6 -2.41948 -4.65362 0
M  V30 13138 H 1251.07 -0.903683 -5.44553 0
M  V30 13139 H 1251.55 0.410269 -4.3728 0
M  V30 13140 H 1252.16 -1.23428 -4.06996 0
M  V30 13141 N 1250.47 1.3842 -0.753509 0
M  V30 13142 C 1251.7 2.04929 -0.319174 0
M  V30 13143 C 1252.12 1.56457 1.04416 0
M  V30 13144 O 1251.48 0.716527 1.6654 0
M  V30 13145 C 1251.53 3.58887 -0.351054 0
M  V30 13146 O 1250.63 4.07166 0.654963 0
M  V30 13147 H 1249.97 0.648782 -0.141343 0
M  V30 13148 H 1252.5 1.77096 -1.02461 0
M  V30 13149 H 1252.51 4.075 -0.201907 0
M  V30 13150 H 1251.19 3.93525 -1.34576 0
M  V30 13151 H 1249.77 3.69921 0.470435 0
M  V30 13152 N 1251.95 0.502579 1.49372 0
M  V30 13153 C 1252.9 -0.275004 2.29156 0
M  V30 13154 C 1253.87 -0.95892 1.35624 0
M  V30 13155 O 1255.05 -0.965276 1.64581 0
M  V30 13156 C 1252.19 -1.33255 3.18335 0
M  V30 13157 C 1251.31 -0.660248 4.26925 0
M  V30 13158 C 1250.44 -1.69837 5.03318 0
M  V30 13159 C 1249.48 -1.00802 6.03743 0
M  V30 13160 N 1248.62 -1.99042 6.73295 0
M  V30 13161 H 1253.46 0.411599 2.95144 0
M  V30 13162 H 1250.99 0.214824 1.45523 0
M  V30 13163 H 1252.95 -1.95769 3.68416 0
M  V30 13164 H 1251.58 -1.98789 2.54328 0
M  V30 13165 H 1250.63 0.0782181 3.8032 0
M  V30 13166 H 1251.95 -0.11689 4.98663 0
M  V30 13167 H 1251.1 -2.39852 5.57275 0
M  V30 13168 H 1249.84 -2.27558 4.31357 0
M  V30 13169 H 1248.84 -0.293654 5.49015 0
M  V30 13170 H 1250.07 -0.437285 6.77691 0
M  V30 13171 H 1248.01 -2.55722 6.04104 0
M  V30 13172 H 1247.93 -1.49776 7.41015 0
M  V30 13173 H 1249.2 -2.6834 7.31856 0
M  V30 13174 N 1253.43 -1.55816 0.23648 0
M  V30 13175 C 1254.84 -1.84757 -0.268622 0
M  V30 13176 C 1255.19 -1.15815 -1.58371 0
M  V30 13177 O 1254.32 -0.432923 -2.12025 0
M  V30 13178 C 1254.91 -3.35177 -0.494167 0
M  V30 13179 C 1253.47 -3.64382 -0.943551 0
M  V30 13180 C 1252.62 -2.77296 -0.0149191 0
M  V30 13181 H 1255.57 -1.51908 0.459308 0
M  V30 13182 H 1255.59 -3.56192 -1.3382 0
M  V30 13183 H 1255.1 -3.85327 0.463138 0
M  V30 13184 H 1253.2 -3.19701 -1.91369 0
M  V30 13185 H 1253.31 -4.72244 -0.807626 0
M  V30 13186 H 1251.68 -2.49243 -0.524419 0
M  V30 13187 H 1252.46 -3.30249 0.937571 0
M  V30 13188 N 1254.91 0.036755 -1.57557 0
M  V30 13189 C 1256.32 0.584324 -1.7732 0
M  V30 13190 C 1256.67 1.76025 -0.86658 0
M  V30 13191 O 1255.79 2.16318 -0.059443 0
M  V30 13192 C 1256.39 1.06679 -3.21566 0
M  V30 13193 C 1254.95 1.55994 -3.42553 0
M  V30 13194 C 1254.09 0.494604 -2.72853 0
M  V30 13195 H 1257.05 -0.189473 -1.57565 0
M  V30 13196 H 1257.07 1.93446 -3.27657 0
M  V30 13197 H 1256.58 0.210727 -3.87527 0
M  V30 13198 H 1254.68 2.43811 -2.81757 0
M  V30 13199 H 1254.79 1.61274 -4.5114 0
M  V30 13200 H 1253.16 0.947865 -2.36406 0
M  V30 13201 H 1253.94 -0.351868 -3.41492 0
M  V30 13202 N 1256.39 1.54543 0.308881 0
M  V30 13203 C 1257.63 1.73449 1.04506 0
M  V30 13204 C 1257.96 0.516034 1.8753 0
M  V30 13205 O 1257.22 -0.502106 1.89149 0
M  V30 13206 C 1257.51 2.97124 1.98626 0
M  V30 13207 C 1257.18 4.31256 1.31641 0
M  V30 13208 C 1255.84 4.67719 1.13105 0
M  V30 13209 C 1258.19 5.14437 0.836888 0
M  V30 13210 C 1255.52 5.84949 0.452878 0
M  V30 13211 C 1257.87 6.32365 0.172473 0
M  V30 13212 C 1256.54 6.67495 -0.0249143 0
M  V30 13213 H 1255.81 0.634697 0.382415 0
M  V30 13214 H 1258.46 1.88795 0.320714 0
M  V30 13215 H 1256.76 2.76526 2.77562 0
M  V30 13216 H 1258.46 3.08946 2.55643 0
M  V30 13217 H 1255.05 4.02576 1.47074 0
M  V30 13218 H 1259.23 4.86772 0.967834 0
M  V30 13219 H 1254.49 6.10717 0.288886 0
M  V30 13220 H 1258.66 6.96092 -0.207027 0
M  V30 13221 H 1256.29 7.5819 -0.552425 0
M  V30 13222 N 1257.86 -0.571685 1.46866 0
M  V30 13223 C 1258.81 -1.6751 1.54676 0
M  V30 13224 C 1259.8 -1.55673 0.406774 0
M  V30 13225 O 1260.99 -1.64401 0.655847 0
M  V30 13226 C 1258.12 -3.06295 1.55043 0
M  V30 13227 C 1257.2 -3.23388 2.74374 0
M  V30 13228 N 1257.6 -3.10598 3.99202 0
M  V30 13229 C 1255.89 -3.54354 2.7083 0
M  V30 13230 C 1256.59 -3.29993 4.79041 0
M  V30 13231 N 1255.57 -3.55659 4.11106 0
M  V30 13232 H 1259.37 -1.56168 2.48975 0
M  V30 13233 H 1256.89 -0.776036 1.42658 0
M  V30 13234 H 1258.88 -3.85502 1.58726 0
M  V30 13235 H 1257.54 -3.18759 0.618278 0
M  V30 13236 H 1258.55 -2.8823 4.30283 0
M  V30 13237 H 1255.23 -3.73435 1.86688 0
M  V30 13238 H 1256.62 -3.25194 5.87961 0
M  V30 13239 N 1259.34 -1.34755 -0.817236 0
M  V30 13240 C 1260.25 -1.28888 -1.96023 0
M  V30 13241 C 1261.27 -0.195582 -1.72897 0
M  V30 13242 O 1262.44 -0.423071 -1.96906 0
M  V30 13243 C 1259.51 -1.04985 -3.30423 0
M  V30 13244 C 1258.57 -2.23526 -3.66517 0
M  V30 13245 C 1257.8 -2.00753 -4.94504 0
M  V30 13246 O 1258.03 -0.968622 -5.62116 0
M  V30 13247 O 1256.96 -2.87848 -5.28608 0
M  V30 13248 H 1260.79 -2.25059 -2.03917 0
M  V30 13249 H 1258.37 -1.15019 -0.953467 0
M  V30 13250 H 1260.25 -0.934589 -4.10906 0
M  V30 13251 H 1258.93 -0.118582 -3.23483 0
M  V30 13252 H 1257.83 -2.40613 -2.86455 0
M  V30 13253 H 1259.17 -3.15062 -3.78149 0
M  V30 13254 N 1260.82 1.03812 -1.18578 0
M  V30 13255 C 1261.75 2.13802 -0.938665 0
M  V30 13256 C 1262.73 1.69643 0.124575 0
M  V30 13257 O 1263.92 1.94179 -0.0285421 0
M  V30 13258 C 1261.05 3.44154 -0.466392 0
M  V30 13259 C 1260 4.01949 -1.47041 0
M  V30 13260 C 1259.33 5.27811 -0.855558 0
M  V30 13261 C 1260.63 4.37827 -2.84789 0
M  V30 13262 H 1262.32 2.34732 -1.85852 0
M  V30 13263 H 1259.87 1.12808 -0.895007 0
M  V30 13264 H 1261.82 4.20463 -0.280856 0
M  V30 13265 H 1260.54 3.22918 0.489041 0
M  V30 13266 H 1259.2 3.27725 -1.64293 0
M  V30 13267 H 1258.85 5.02886 0.107142 0
M  V30 13268 H 1258.55 5.67441 -1.52592 0
M  V30 13269 H 1260.07 6.06795 -0.680609 0
M  V30 13270 H 1261.49 5.05112 -2.71173 0
M  V30 13271 H 1259.88 4.88514 -3.48532 0
M  V30 13272 H 1260.95 3.47541 -3.38147 0
M  V30 13273 N 1262.3 0.988223 1.22768 0
M  V30 13274 C 1263.55 0.660154 1.91014 0
M  V30 13275 C 1263.87 -0.809788 1.77391 0
M  V30 13276 O 1263.14 -1.57998 1.15817 0
M  V30 13277 H 1261.72 0.24118 0.706995 0
M  V30 13278 H 1264.38 1.25372 1.49224 0
M  V30 13279 H 1263.47 0.918603 2.98275 0
M  V30 13280 N 1263.78 -1.38018 0.760839 0
M  V30 13281 C 1264.69 -2.34181 0.140232 0
M  V30 13282 C 1265.7 -1.59635 -0.692287 0
M  V30 13283 O 1266.88 -1.91788 -0.614752 0
M  V30 13284 C 1263.94 -3.38778 -0.73693 0
M  V30 13285 C 1263 -4.29157 0.110792 0
M  V30 13286 C 1262.24 -5.28758 -0.724599 0
M  V30 13287 O 1262.46 -5.35585 -1.96226 0
M  V30 13288 O 1261.39 -6.01738 -0.139565 0
M  V30 13289 H 1265.22 -2.88962 0.934588 0
M  V30 13290 H 1262.8 -1.3999 0.521835 0
M  V30 13291 H 1264.69 -4.02804 -1.23803 0
M  V30 13292 H 1263.36 -2.86341 -1.50966 0
M  V30 13293 H 1262.27 -3.68268 0.658007 0
M  V30 13294 H 1263.6 -4.84869 0.846346 0
M  V30 13295 N 1265.25 -0.510493 -1.49103 0
M  V30 13296 C 1266.66 -0.0650831 -1.86587 0
M  V30 13297 C 1267.02 1.35185 -1.42195 0
M  V30 13298 O 1266.14 2.0091 -0.804004 0
M  V30 13299 C 1266.74 -0.111333 -3.38617 0
M  V30 13300 C 1265.29 0.278782 -3.75366 0
M  V30 13301 C 1264.44 -0.479707 -2.73119 0
M  V30 13302 H 1267.39 -0.722784 -1.41285 0
M  V30 13303 H 1267.41 0.681706 -3.74343 0
M  V30 13304 H 1266.93 -1.14271 -3.70896 0
M  V30 13305 H 1265.03 1.31304 -3.48698 0
M  V30 13306 H 1265.14 -0.047271 -4.79077 0
M  V30 13307 H 1263.5 0.0716459 -2.54599 0
M  V30 13308 H 1264.29 -1.51135 -3.08242 0
M  V30 13309 N 1266.73 1.55688 -0.24474 0
M  V30 13310 C 1267.66 2.18616 0.68844 0
M  V30 13311 C 1268.68 1.16185 1.14039 0
M  V30 13312 O 1269.87 1.43059 1.06754 0
M  V30 13313 C 1266.97 2.77375 1.94721 0
M  V30 13314 C 1266.14 4.05204 1.64706 0
M  V30 13315 C 1265.2 4.48302 2.75521 0
M  V30 13316 O 1264.22 5.14723 2.42999 0
M  V30 13317 N 1265.43 4.15907 4.04971 0
M  V30 13318 H 1268.19 2.99324 0.150018 0
M  V30 13319 H 1265.75 1.61771 -0.0646183 0
M  V30 13320 H 1267.74 3.03165 2.68091 0
M  V30 13321 H 1266.31 2.00837 2.39548 0
M  V30 13322 H 1265.53 3.87026 0.74865 0
M  V30 13323 H 1266.82 4.8855 1.42114 0
M  V30 13324 H 1266.22 3.62579 4.34227 0
M  V30 13325 H 1264.78 4.46538 4.74813 0
M  V30 13326 N 1268.21 -0.0283989 1.57574 0
M  V30 13327 C 1269.17 -1.01346 2.05576 0
M  V30 13328 C 1270.17 -1.28999 0.960001 0
M  V30 13329 O 1271.36 -1.23991 1.2236 0
M  V30 13330 C 1268.49 -2.34611 2.47327 0
M  V30 13331 H 1269.69 -0.598809 2.93861 0
M  V30 13332 H 1267.24 -0.27524 1.53857 0
M  V30 13333 H 1267.98 -2.80823 1.622 0
M  V30 13334 H 1267.76 -2.1587 3.27326 0
M  V30 13335 H 1269.25 -3.05332 2.84889 0
M  V30 13336 N 1269.69 -1.54705 -0.300681 0
M  V30 13337 C 1270.65 -1.84934 -1.35395 0
M  V30 13338 C 1271.65 -0.72226 -1.43666 0
M  V30 13339 O 1272.84 -0.990543 -1.43296 0
M  V30 13340 C 1269.97 -2.02991 -2.73875 0
M  V30 13341 H 1271.17 -2.79063 -1.09835 0
M  V30 13342 H 1268.72 -1.46772 -0.537365 0
M  V30 13343 H 1269.45 -1.11151 -3.04657 0
M  V30 13344 H 1269.24 -2.85027 -2.69262 0
M  V30 13345 H 1270.73 -2.27747 -3.5003 0
M  V30 13346 N 1271.17 0.563888 -1.47167 0
M  V30 13347 C 1272.1 1.68689 -1.53685 0
M  V30 13348 C 1273.08 1.57866 -0.389486 0
M  V30 13349 O 1274.26 1.78819 -0.596336 0
M  V30 13350 C 1271.39 3.06887 -1.43311 0
M  V30 13351 C 1270.43 3.36175 -2.62466 0
M  V30 13352 S 1271.27 3.26166 -4.24707 0
M  V30 13353 C 1272.42 4.66868 -4.16875 0
M  V30 13354 H 1272.66 1.62905 -2.48695 0
M  V30 13355 H 1270.19 0.74417 -1.35283 0
M  V30 13356 H 1272.15 3.86604 -1.38014 0
M  V30 13357 H 1270.81 3.10144 -0.496971 0
M  V30 13358 H 1270 4.36907 -2.51253 0
M  V30 13359 H 1269.6 2.64064 -2.64852 0
M  V30 13360 H 1271.9 5.57673 -3.84717 0
M  V30 13361 H 1272.84 4.83139 -5.1767 0
M  V30 13362 H 1273.25 4.44601 -3.47836 0
M  V30 13363 N 1272.64 1.35187 0.810078 0
M  V30 13364 C 1273.89 1.28264 1.56699 0
M  V30 13365 C 1274.22 -0.143906 1.93967 0
M  V30 13366 O 1273.47 -1.10832 1.61291 0
M  V30 13367 C 1273.77 2.13135 2.86894 0
M  V30 13368 C 1273.44 3.61974 2.6886 0
M  V30 13369 C 1272.1 4.02545 2.63649 0
M  V30 13370 C 1274.45 4.5643 2.51636 0
M  V30 13371 C 1271.78 5.35745 2.39154 0
M  V30 13372 C 1274.13 5.89824 2.2867 0
M  V30 13373 C 1272.8 6.29544 2.2188 0
M  V30 13374 H 1272.07 0.469353 0.573401 0
M  V30 13375 H 1274.71 1.67051 0.936282 0
M  V30 13376 H 1273.02 1.67218 3.54324 0
M  V30 13377 H 1274.72 2.05117 3.44569 0
M  V30 13378 H 1271.31 3.29777 2.73761 0
M  V30 13379 H 1275.49 4.25974 2.54677 0
M  V30 13380 H 1270.75 5.65524 2.32363 0
M  V30 13381 H 1274.92 6.62597 2.14333 0
M  V30 13382 H 1272.55 7.32689 2.0266 0
M  V30 13383 N 1274.12 -1.03182 1.19127 0
M  V30 13384 C 1275.07 -2.11394 0.926339 0
M  V30 13385 C 1276.04 -1.65528 -0.137703 0
M  V30 13386 O 1277.22 -1.908 0.00381804 0
M  V30 13387 C 1274.36 -3.41913 0.467894 0
M  V30 13388 C 1273.48 -4.01343 1.59837 0
M  V30 13389 C 1272.61 -5.1986 1.09175 0
M  V30 13390 C 1271.65 -5.71339 2.19632 0
M  V30 13391 N 1270.79 -6.81133 1.703 0
M  V30 13392 H 1275.63 -2.33393 1.85288 0
M  V30 13393 H 1273.17 -1.14473 0.923811 0
M  V30 13394 H 1275.12 -4.16796 0.183513 0
M  V30 13395 H 1273.75 -3.20034 -0.421656 0
M  V30 13396 H 1272.81 -3.23702 1.99803 0
M  V30 13397 H 1274.12 -4.35568 2.43068 0
M  V30 13398 H 1273.27 -6.0189 0.762427 0
M  V30 13399 H 1272.01 -4.87161 0.22914 0
M  V30 13400 H 1271.02 -4.87923 2.53399 0
M  V30 13401 H 1272.24 -6.06078 3.06344 0
M  V30 13402 H 1270.19 -6.50293 0.863415 0
M  V30 13403 H 1270.1 -7.1447 2.47122 0
M  V30 13404 H 1271.37 -7.66766 1.40321 0
M  V30 13405 N 1275.6 -0.99472 -1.22242 0
M  V30 13406 C 1276.85 -0.672596 -1.91322 0
M  V30 13407 C 1277.18 0.793542 -1.77247 0
M  V30 13408 O 1276.45 1.57407 -1.14251 0
M  V30 13409 C 1276.74 -1.08155 -3.43474 0
M  V30 13410 C 1276.59 -2.60638 -3.6659 0
M  V30 13411 C 1277.91 -0.636161 -4.35478 0
M  V30 13412 H 1275.03 -0.24582 -0.694796 0
M  V30 13413 H 1277.67 -1.23857 -1.44082 0
M  V30 13414 H 1275.82 -0.599987 -3.83839 0
M  V30 13415 H 1277.49 -3.16479 -3.35617 0
M  V30 13416 H 1275.74 -3.02624 -3.10808 0
M  V30 13417 H 1276.41 -2.84304 -4.73155 0
M  V30 13418 H 1278.88 -1.04982 -4.02639 0
M  V30 13419 H 1277.76 -0.950584 -5.40606 0
M  V30 13420 H 1278.02 0.4631 -4.39668 0
M  V30 13421 N 1277.08 1.37613 -0.768148 0
M  V30 13422 C 1278.33 1.99384 -0.330187 0
M  V30 13423 C 1278.65 1.61283 1.09604 0
M  V30 13424 O 1277.92 0.876551 1.75195 0
M  V30 13425 H 1276.5 0.737445 -0.119095 0
M  V30 13426 H 1279.16 1.6815 -0.985476 0
M  V30 13427 H 1278.26 3.09462 -0.40494 0
M  V30 13428 N 1278.56 0.518393 1.4883 0
M  V30 13429 C 1279.49 -0.297703 2.2625 0
M  V30 13430 C 1280.47 -0.955096 1.31593 0
M  V30 13431 O 1281.65 -0.981776 1.60914 0
M  V30 13432 C 1278.78 -1.42065 3.07466 0
M  V30 13433 C 1277.82 -0.875854 4.1741 0
M  V30 13434 S 1278.66 0.247153 5.34929 0
M  V30 13435 C 1279.81 -0.878544 6.19703 0
M  V30 13436 H 1280.05 0.359358 2.9512 0
M  V30 13437 H 1277.58 0.303976 1.51378 0
M  V30 13438 H 1279.54 -2.06398 3.54838 0
M  V30 13439 H 1278.2 -2.04939 2.38031 0
M  V30 13440 H 1277.39 -1.71793 4.73818 0
M  V30 13441 H 1276.99 -0.30943 3.72718 0
M  V30 13442 H 1279.29 -1.77986 6.53703 0
M  V30 13443 H 1280.23 -0.3527 7.07221 0
M  V30 13444 H 1280.64 -1.15372 5.52584 0
M  V30 13445 N 1280.03 -1.55556 0.252993 0
M  V30 13446 C 1281.28 -1.9909 -0.37005 0
M  V30 13447 C 1281.61 -1.1412 -1.57502 0
M  V30 13448 O 1280.86 -0.193471 -1.94741 0
M  V30 13449 C 1281.16 -3.47925 -0.817484 0
M  V30 13450 C 1280.83 -4.50027 0.280398 0
M  V30 13451 C 1279.49 -4.77669 0.581914 0
M  V30 13452 C 1281.84 -5.11096 1.02129 0
M  V30 13453 C 1279.17 -5.63652 1.62829 0
M  V30 13454 C 1281.52 -5.98215 2.05723 0
M  V30 13455 C 1280.19 -6.24186 2.36533 0
M  V30 13456 H 1279.46 -0.728522 -0.135411 0
M  V30 13457 H 1282.1 -1.88046 0.36209 0
M  V30 13458 H 1280.41 -3.56333 -1.62893 0
M  V30 13459 H 1282.11 -3.79001 -1.30993 0
M  V30 13460 H 1278.7 -4.28585 0.0352579 0
M  V30 13461 H 1282.88 -4.89784 0.801603 0
M  V30 13462 H 1278.14 -5.82028 1.87227 0
M  V30 13463 H 1282.31 -6.44575 2.6362 0
M  V30 13464 H 1279.94 -6.90607 3.17752 0
M  V30 13465 N 1281.51 0.0200419 -1.57587 0
M  V30 13466 C 1282.46 1.01784 -2.07144 0
M  V30 13467 C 1283.43 1.3537 -0.962501 0
M  V30 13468 O 1284.61 1.45553 -1.23365 0
M  V30 13469 C 1281.75 2.31091 -2.56302 0
M  V30 13470 C 1280.87 2.03584 -3.81022 0
M  V30 13471 C 1280 3.26827 -4.18757 0
M  V30 13472 C 1279.04 2.94915 -5.36369 0
M  V30 13473 N 1278.18 4.10636 -5.69493 0
M  V30 13474 H 1283.02 0.588288 -2.92136 0
M  V30 13475 H 1280.56 0.278848 -1.44433 0
M  V30 13476 H 1282.51 3.06656 -2.82874 0
M  V30 13477 H 1281.14 2.71752 -1.74215 0
M  V30 13478 H 1280.2 1.18475 -3.6148 0
M  V30 13479 H 1281.51 1.76049 -4.66699 0
M  V30 13480 H 1280.66 4.10753 -4.46505 0
M  V30 13481 H 1279.4 3.57483 -3.31749 0
M  V30 13482 H 1278.41 2.09392 -5.08365 0
M  V30 13483 H 1279.63 2.65528 -6.25037 0
M  V30 13484 H 1277.58 4.41226 -4.85444 0
M  V30 13485 H 1277.49 3.86556 -6.497 0
M  V30 13486 H 1278.76 4.95409 -6.01822 0
M  V30 13487 N 1282.99 1.54862 0.292472 0
M  V30 13488 C 1284.24 1.73756 1.02429 0
M  V30 13489 C 1284.55 0.535164 1.88137 0
M  V30 13490 O 1285.76 0.606092 2.64648 0
M  V30 13491 C 1284.21 3.0745 1.8709 0
M  V30 13492 C 1283.82 4.35195 1.06343 0
M  V30 13493 C 1285.57 3.357 2.59819 0
M  V30 13494 C 1283.47 5.59936 1.9033 0
M  V30 13495 H 1282.4 0.647617 0.386145 0
M  V30 13496 H 1285.05 1.81338 0.28086 0
M  V30 13497 H 1283.44 2.93855 2.65453 0
M  V30 13498 H 1284.61 4.5965 0.325335 0
M  V30 13499 H 1282.93 4.13944 0.451574 0
M  V30 13500 H 1285.52 4.26099 3.23023 0
M  V30 13501 H 1285.87 2.54956 3.29094 0
M  V30 13502 H 1286.4 3.50304 1.88499 0
M  V30 13503 H 1283.14 6.43372 1.25509 0
M  V30 13504 H 1282.66 5.39654 2.61789 0
M  V30 13505 H 1284.34 5.97512 2.48171 0
M  V30 13506 N 1284.47 -0.556076 1.47464 0
M  V30 13507 C 1285.42 -1.6586 1.56444 0
M  V30 13508 C 1286.4 -1.55233 0.423262 0
M  V30 13509 O 1287.59 -1.63696 0.673247 0
M  V30 13510 C 1284.72 -3.04633 1.58283 0
M  V30 13511 C 1283.81 -3.2046 2.77788 0
M  V30 13512 N 1284.2 -3.06347 4.02474 0
M  V30 13513 C 1282.5 -3.51462 2.74573 0
M  V30 13514 C 1283.2 -3.24893 4.82514 0
M  V30 13515 N 1282.18 -3.51278 4.14855 0
M  V30 13516 H 1285.98 -1.53519 2.50618 0
M  V30 13517 H 1283.49 -0.760862 1.43474 0
M  V30 13518 H 1285.49 -3.83797 1.62806 0
M  V30 13519 H 1284.15 -3.18085 0.652052 0
M  V30 13520 H 1285.16 -2.8365 4.33316 0
M  V30 13521 H 1281.84 -3.71434 1.90639 0
M  V30 13522 H 1283.23 -3.1894 5.91377 0
M  V30 13523 N 1285.95 -1.35615 -0.802897 0
M  V30 13524 C 1287.36 -1.26062 -1.37715 0
M  V30 13525 C 1287.71 0.105411 -1.95917 0
M  V30 13526 O 1286.83 1.00648 -1.91569 0
M  V30 13527 C 1287.43 -2.28261 -2.50365 0
M  V30 13528 C 1285.99 -2.22437 -3.03642 0
M  V30 13529 C 1285.14 -2.1377 -1.76629 0
M  V30 13530 H 1288.09 -1.46689 -0.605631 0
M  V30 13531 H 1288.11 -1.91122 -3.29017 0
M  V30 13532 H 1287.62 -3.27671 -2.07975 0
M  V30 13533 H 1285.72 -1.2645 -3.50487 0
M  V30 13534 H 1285.83 -3.14558 -3.61373 0
M  V30 13535 H 1284.2 -1.59806 -1.98328 0
M  V30 13536 H 1284.98 -3.15046 -1.36385 0
M  V30 13537 N 1287.43 1.02549 -1.19673 0
M  V30 13538 C 1288.34 2.14373 -0.952972 0
M  V30 13539 C 1289.35 1.73776 0.0881727 0
M  V30 13540 O 1290.53 2.01165 -0.0972471 0
M  V30 13541 C 1287.59 3.43096 -0.498569 0
M  V30 13542 C 1286.65 3.97987 -1.60951 0
M  V30 13543 C 1285.89 5.20567 -1.17669 0
M  V30 13544 O 1286.11 5.70385 -0.0416636 0
M  V30 13545 O 1285.04 5.6838 -1.98059 0
M  V30 13546 H 1288.87 2.378 -1.88904 0
M  V30 13547 H 1286.45 1.12781 -0.979836 0
M  V30 13548 H 1288.34 4.20634 -0.253968 0
M  V30 13549 H 1287.01 3.21105 0.409018 0
M  V30 13550 H 1285.92 3.21768 -1.90829 0
M  V30 13551 H 1287.25 4.24349 -2.49377 0
M  V30 13552 N 1288.9 1.00119 1.21713 0
M  V30 13553 C 1290.15 0.67713 1.89994 0
M  V30 13554 C 1290.47 -0.795149 1.78709 0
M  V30 13555 O 1291.67 -1.23113 2.41982 0
M  V30 13556 C 1290.13 1.16065 3.40671 0
M  V30 13557 C 1289.74 2.65874 3.60576 0
M  V30 13558 C 1291.48 0.911302 4.14603 0
M  V30 13559 C 1289.39 3.07785 5.04997 0
M  V30 13560 H 1288.32 0.249572 0.711498 0
M  V30 13561 H 1290.97 1.21185 1.37792 0
M  V30 13562 H 1289.35 0.554005 3.92106 0
M  V30 13563 H 1290.52 3.31954 3.19598 0
M  V30 13564 H 1288.84 2.88781 2.99991 0
M  V30 13565 H 1291.44 1.20004 5.2106 0
M  V30 13566 H 1291.78 -0.152495 4.16021 0
M  V30 13567 H 1292.31 1.48055 3.69222 0
M  V30 13568 H 1289.05 4.13376 5.08724 0
M  V30 13569 H 1288.57 2.46414 5.46846 0
M  V30 13570 H 1290.25 2.99552 5.73479 0
M  V30 13571 N 1290.38 -1.37203 0.775435 0
M  V30 13572 C 1291.79 -1.82224 0.406372 0
M  V30 13573 C 1292.14 -1.64587 -1.06796 0
M  V30 13574 O 1291.27 -1.15903 -1.82744 0
M  V30 13575 C 1291.86 -3.30824 0.730819 0
M  V30 13576 C 1290.42 -3.74108 0.414766 0
M  V30 13577 C 1289.57 -2.59679 0.972747 0
M  V30 13578 H 1292.52 -1.25623 0.969775 0
M  V30 13579 H 1292.54 -3.80496 0.0168066 0
M  V30 13580 H 1292.05 -3.43628 1.80392 0
M  V30 13581 H 1290.15 -3.66871 -0.650866 0
M  V30 13582 H 1290.27 -4.70074 0.925595 0
M  V30 13583 H 1288.63 -2.51591 0.396772 0
M  V30 13584 H 1289.41 -2.75274 2.05132 0
M  V30 13585 N 1291.86 -0.526279 -1.48553 0
M  V30 13586 C 1292.77 0.24244 -2.33344 0
M  V30 13587 C 1293.79 0.942658 -1.46253 0
M  V30 13588 O 1294.96 0.91844 -1.79239 0
M  V30 13589 C 1292.03 1.27801 -3.22285 0
M  V30 13590 C 1291.09 0.588543 -4.25247 0
M  V30 13591 C 1290.32 1.57478 -5.09938 0
M  V30 13592 O 1290.54 2.80707 -4.96548 0
M  V30 13593 O 1289.48 1.11621 -5.9146 0
M  V30 13594 H 1293.3 -0.452262 -3.00314 0
M  V30 13595 H 1290.89 -0.287249 -1.46613 0
M  V30 13596 H 1292.77 1.87656 -3.7731 0
M  V30 13597 H 1291.45 1.95519 -2.57981 0
M  V30 13598 H 1290.35 -0.0504022 -3.74066 0
M  V30 13599 H 1291.69 -0.046627 -4.92178 0
M  V30 13600 N 1293.34 1.5542 -0.261239 0
M  V30 13601 C 1294.3 2.20683 0.619011 0
M  V30 13602 C 1295.3 1.18042 1.09192 0
M  V30 13603 O 1296.49 1.43035 0.99432 0
M  V30 13604 C 1293.62 2.86179 1.85242 0
M  V30 13605 H 1294.82 2.99859 0.0493924 0
M  V30 13606 H 1292.37 1.56296 -0.0117687 0
M  V30 13607 H 1293.1 2.10978 2.4629 0
M  V30 13608 H 1292.89 3.61381 1.52138 0
M  V30 13609 H 1294.38 3.36081 2.47869 0
M  V30 13610 N 1294.82 -0.0116844 1.57596 0
M  V30 13611 C 1295.75 -1.00599 2.10718 0
M  V30 13612 C 1296.73 -1.36601 1.01362 0
M  V30 13613 O 1297.91 -1.4518 1.28982 0
M  V30 13614 C 1295.04 -2.30155 2.60089 0
M  V30 13615 C 1294 -2.08347 3.73866 0
M  V30 13616 C 1293.32 -3.43814 4.09507 0
M  V30 13617 C 1294.62 -1.45552 5.01609 0
M  V30 13618 H 1296.32 -0.563721 2.94045 0
M  V30 13619 H 1293.86 -0.269714 1.41452 0
M  V30 13620 H 1295.81 -3.00058 2.95877 0
M  V30 13621 H 1294.54 -2.76473 1.73868 0
M  V30 13622 H 1293.2 -1.40872 3.38453 0
M  V30 13623 H 1292.85 -3.87814 3.20326 0
M  V30 13624 H 1292.55 -3.30043 4.86154 0
M  V30 13625 H 1294.07 -4.15052 4.47844 0
M  V30 13626 H 1295.48 -2.05396 5.35243 0
M  V30 13627 H 1293.88 -1.42304 5.82983 0
M  V30 13628 H 1294.95 -0.423331 4.83049 0
M  V30 13629 N 1296.29 -1.55015 -0.284256 0
M  V30 13630 C 1297.52 -1.79431 -1.04016 0
M  V30 13631 C 1297.94 -0.560254 -1.79563 0
M  V30 13632 O 1297.3 0.489804 -1.74558 0
M  V30 13633 C 1297.35 -3.01162 -1.98328 0
M  V30 13634 O 1296.45 -2.75459 -3.06914 0
M  V30 13635 H 1295.79 -0.593391 -0.297965 0
M  V30 13636 H 1298.32 -2.02136 -0.316585 0
M  V30 13637 H 1298.33 -3.29589 -2.40489 0
M  V30 13638 H 1297.01 -3.90634 -1.42751 0
M  V30 13639 H 1295.59 -2.58096 -2.69148 0
M  V30 13640 N 1297.77 0.548248 -1.47757 0
M  V30 13641 C 1298.73 1.63666 -1.60456 0
M  V30 13642 C 1299.73 1.53499 -0.479028 0
M  V30 13643 O 1300.92 1.57497 -0.744342 0
M  V30 13644 C 1298.06 3.03239 -1.55754 0
M  V30 13645 H 1299.25 1.53752 -2.57488 0
M  V30 13646 H 1296.8 0.768881 -1.36081 0
M  V30 13647 H 1297.54 3.18677 -0.601303 0
M  V30 13648 H 1297.32 3.12027 -2.37448 0
M  V30 13649 H 1298.81 3.82406 -1.67797 0
M  V30 13650 N 1299.25 1.36039 0.795694 0
M  V30 13651 C 1300.16 1.31991 1.93948 0
M  V30 13652 C 1301.18 0.223064 1.72564 0
M  V30 13653 O 1302.35 0.454344 1.96208 0
M  V30 13654 C 1299.42 1.10228 3.28711 0
M  V30 13655 C 1298.48 2.29328 3.62914 0
M  V30 13656 C 1297.71 2.08595 4.91247 0
M  V30 13657 O 1297.93 1.05793 5.60503 0
M  V30 13658 O 1296.87 2.96222 5.23962 0
M  V30 13659 H 1300.69 2.28274 2.00311 0
M  V30 13660 H 1298.28 1.16521 0.935048 0
M  V30 13661 H 1300.16 0.999842 4.09367 0
M  V30 13662 H 1298.84 0.17003 3.23253 0
M  V30 13663 H 1297.74 2.4514 2.8259 0
M  V30 13664 H 1299.08 3.21038 3.73089 0
M  V30 13665 N 1300.73 -1.01913 1.20215 0
M  V30 13666 C 1301.69 -2.08563 0.950481 0
M  V30 13667 C 1302.69 -1.60634 -0.0729659 0
M  V30 13668 O 1303.88 -1.73437 0.162826 0
M  V30 13669 C 1301.01 -3.38171 0.430453 0
M  V30 13670 H 1302.21 -2.32323 1.89647 0
M  V30 13671 H 1299.76 -1.18674 1.01716 0
M  V30 13672 H 1300.49 -3.20086 -0.521126 0
M  V30 13673 H 1300.28 -3.74284 1.1685 0
M  V30 13674 H 1301.77 -4.16702 0.273781 0
M  V30 13675 N 1302.21 -1.00763 -1.2118 0
M  V30 13676 C 1303.62 -0.720905 -1.42391 0
M  V30 13677 C 1303.82 0.702918 -1.88842 0
M  V30 13678 O 1302.88 1.47191 -2.05161 0
M  V30 13679 C 1304.19 -1.739 -2.45315 0
M  V30 13680 C 1305.74 -1.75611 -2.59094 0
M  V30 13681 C 1306.21 -2.76323 -3.65253 0
M  V30 13682 N 1307.71 -2.75007 -3.72727 0
M  V30 13683 C 1308.44 -3.49594 -4.54502 0
M  V30 13684 N 1307.94 -4.33828 -5.40153 0
M  V30 13685 N 1309.73 -3.38232 -4.4895 0
M  V30 13686 H 1301.88 -1.92697 -0.893404 0
M  V30 13687 H 1304.14 -0.831888 -0.454606 0
M  V30 13688 H 1303.85 -2.75859 -2.18162 0
M  V30 13689 H 1303.72 -1.5438 -3.44161 0
M  V30 13690 H 1306.11 -0.743416 -2.85582 0
M  V30 13691 H 1306.19 -1.99203 -1.60474 0
M  V30 13692 H 1305.84 -3.77751 -3.39509 0
M  V30 13693 H 1305.77 -2.49996 -4.63476 0
M  V30 13694 H 1308.26 -2.13897 -3.11539 0
M  V30 13695 H 1308.57 -4.8753 -5.99612 0
M  V30 13696 H 1306.91 -4.3791 -5.39685 0
M  V30 13697 H 1310.11 -2.71855 -3.81068 0
M  V30 13698 H 1310.28 -3.96615 -5.12445 0
M  V30 13699 N 1303.68 1.3679 -0.7827 0
M  V30 13700 C 1304.65 2.28472 -0.182525 0
M  V30 13701 C 1305.65 1.48524 0.616217 0
M  V30 13702 O 1306.84 1.68599 0.438197 0
M  V30 13703 C 1303.97 3.32588 0.748202 0
M  V30 13704 H 1305.16 2.83059 -0.99085 0
M  V30 13705 H 1302.72 1.46241 -0.551658 0
M  V30 13706 H 1303.45 2.83145 1.58112 0
M  V30 13707 H 1303.24 3.91698 0.177481 0
M  V30 13708 H 1304.73 4.01073 1.16321 0
M  V30 13709 N 1305.16 0.53415 1.48272 0
M  V30 13710 C 1306.41 0.00157259 2.025 0
M  V30 13711 C 1306.74 -1.33886 1.41085 0
M  V30 13712 O 1305.99 -1.87884 0.547544 0
M  V30 13713 C 1306.29 -0.165144 3.57018 0
M  V30 13714 C 1305.96 1.10146 4.3724 0
M  V30 13715 C 1304.62 1.44857 4.58879 0
M  V30 13716 C 1306.97 1.94183 4.83676 0
M  V30 13717 C 1304.3 2.63497 5.24201 0
M  V30 13718 C 1306.65 3.12005 5.50305 0
M  V30 13719 C 1305.32 3.47058 5.70182 0
M  V30 13720 H 1304.59 0.00057545 0.741 0
M  V30 13721 H 1307.23 0.701014 1.78208 0
M  V30 13722 H 1305.54 -0.947384 3.80173 0
M  V30 13723 H 1307.23 -0.592202 3.96603 0
M  V30 13724 H 1303.82 0.821132 4.20661 0
M  V30 13725 H 1308.01 1.68677 4.66757 0
M  V30 13726 H 1303.26 2.90852 5.37787 0
M  V30 13727 H 1307.44 3.77426 5.85254 0
M  V30 13728 H 1305.07 4.39086 6.2057 0
M  V30 13729 N 1306.64 -1.55279 0.269478 0
M  V30 13730 C 1307.89 -1.98649 -0.349522 0
M  V30 13731 C 1308.2 -1.16125 -1.57399 0
M  V30 13732 O 1309.41 -1.49612 -2.26558 0
M  V30 13733 C 1307.86 -3.53547 -0.673224 0
M  V30 13734 C 1307.47 -4.44841 0.531119 0
M  V30 13735 C 1309.22 -4.05519 -1.25516 0
M  V30 13736 C 1307.12 -5.91119 0.182317 0
M  V30 13737 H 1306.05 -0.74193 -0.13437 0
M  V30 13738 H 1308.7 -1.79664 0.373246 0
M  V30 13739 H 1307.09 -3.68311 -1.45474 0
M  V30 13740 H 1308.26 -4.41843 1.3081 0
M  V30 13741 H 1306.58 -4.03472 1.02952 0
M  V30 13742 H 1309.17 -5.12347 -1.52984 0
M  V30 13743 H 1309.52 -3.54215 -2.18718 0
M  V30 13744 H 1310.05 -3.94172 -0.536059 0
M  V30 13745 H 1306.79 -6.46507 1.08206 0
M  V30 13746 H 1306.31 -5.97199 -0.558008 0
M  V30 13747 H 1307.99 -6.466 -0.227484 0
M  V30 13748 N 1308.12 0.00332656 -1.576 0
M  V30 13749 C 1309.05 0.994803 -2.11248 0
M  V30 13750 C 1310.03 1.36061 -1.02085 0
M  V30 13751 O 1311.21 1.44494 -1.2975 0
M  V30 13752 C 1308.34 2.28772 -2.61306 0
M  V30 13753 C 1307.3 2.06362 -3.74965 0
M  V30 13754 C 1306.62 3.41638 -4.11324 0
M  V30 13755 C 1307.92 1.4289 -5.02374 0
M  V30 13756 H 1309.62 0.548119 -2.9434 0
M  V30 13757 H 1307.16 0.262208 -1.41593 0
M  V30 13758 H 1309.12 2.98485 -2.97464 0
M  V30 13759 H 1307.84 2.75547 -1.75332 0
M  V30 13760 H 1306.5 1.39076 -3.39195 0
M  V30 13761 H 1306.15 3.8611 -3.22379 0
M  V30 13762 H 1305.85 3.2746 -4.87897 0
M  V30 13763 H 1307.37 4.12671 -4.50039 0
M  V30 13764 H 1308.79 2.02555 -5.36325 0
M  V30 13765 H 1307.18 1.3921 -5.8373 0
M  V30 13766 H 1308.25 0.397708 -4.83266 0
M  V30 13767 N 1309.6 1.55164 0.276031 0
M  V30 13768 C 1310.82 1.7998 1.03063 0
M  V30 13769 C 1311.25 0.569769 1.79263 0
M  V30 13770 O 1310.6 -0.48054 1.74816 0
M  V30 13771 C 1310.65 3.02209 1.96728 0
M  V30 13772 O 1309.76 2.77083 3.05449 0
M  V30 13773 H 1309.1 0.594963 0.294814 0
M  V30 13774 H 1311.63 2.02301 0.305861 0
M  V30 13775 H 1311.64 3.3086 2.38738 0
M  V30 13776 H 1310.31 3.91386 1.40677 0
M  V30 13777 H 1308.89 2.5952 2.67776 0
M  V30 13778 N 1311.07 -0.540404 1.48045 0
M  V30 13779 C 1312.31 -1.30737 1.57121 0
M  V30 13780 C 1312.68 -1.90554 0.23518 0
M  V30 13781 O 1313.88 -2.68048 0.20087 0
M  V30 13782 C 1312.15 -2.37539 2.6704 0
M  V30 13783 S 1313.71 -3.241 2.95812 0
M  V30 13784 H 1310.53 -0.444856 0.554639 0
M  V30 13785 H 1313.13 -0.61683 1.85514 0
M  V30 13786 H 1311.83 -1.92057 3.62688 0
M  V30 13787 H 1311.36 -3.11313 2.40515 0
M  V30 13788 H 1313.38 -4.37393 2.34311 0
M  V30 13789 N 1312.55 -1.36459 -0.788468 0
M  V30 13790 C 1313.8 -1.30741 -1.54638 0
M  V30 13791 C 1314.13 0.113029 -1.94171 0
M  V30 13792 O 1313.38 1.08252 -1.63034 0
M  V30 13793 C 1313.68 -2.17672 -2.83467 0
M  V30 13794 C 1313.35 -3.66205 -2.63067 0
M  V30 13795 C 1312.01 -4.06688 -2.57212 0
M  V30 13796 C 1314.36 -4.60376 -2.44343 0
M  V30 13797 C 1311.69 -5.39482 -2.306 0
M  V30 13798 C 1314.04 -5.93388 -2.19258 0
M  V30 13799 C 1312.71 -6.32994 -2.11836 0
M  V30 13800 H 1311.98 -0.478416 -0.565862 0
M  V30 13801 H 1314.62 -1.68519 -0.909588 0
M  V30 13802 H 1312.93 -1.72834 -3.51619 0
M  V30 13803 H 1314.62 -2.10573 -3.41263 0
M  V30 13804 H 1311.21 -3.3409 -2.6848 0
M  V30 13805 H 1315.4 -4.29971 -2.47868 0
M  V30 13806 H 1310.65 -5.69149 -2.23337 0
M  V30 13807 H 1314.83 -6.65923 -2.03765 0
M  V30 13808 H 1312.46 -7.3582 -1.90978 0
M  V30 13809 N 1314.03 1.01274 -1.20754 0
M  V30 13810 C 1314.94 2.1335 -0.975656 0
M  V30 13811 C 1315.96 1.7386 0.0697364 0
M  V30 13812 O 1317.13 2.01051 -0.118578 0
M  V30 13813 C 1314.2 3.42548 -0.534931 0
M  V30 13814 C 1313.26 3.96257 -1.65163 0
M  V30 13815 C 1312.49 5.19289 -1.23184 0
M  V30 13816 O 1312.71 5.70309 -0.102158 0
M  V30 13817 O 1311.65 5.66248 -2.04076 0
M  V30 13818 H 1315.47 2.35783 -1.91415 0
M  V30 13819 H 1313.06 1.11736 -0.991743 0
M  V30 13820 H 1314.94 4.20341 -0.298568 0
M  V30 13821 H 1313.62 3.21521 0.374937 0
M  V30 13822 H 1312.52 3.19726 -1.94232 0
M  V30 13823 H 1313.86 4.2168 -2.53864 0
M  V30 13824 N 1315.51 1.01404 1.20644 0
M  V30 13825 C 1316.92 0.73386 1.71672 0
M  V30 13826 C 1317.27 -0.747803 1.8139 0
M  V30 13827 O 1316.4 -1.58372 1.47469 0
M  V30 13828 C 1316.99 1.32549 3.11795 0
M  V30 13829 C 1315.55 1.09423 3.60144 0
M  V30 13830 C 1314.7 1.43275 2.37419 0
M  V30 13831 H 1317.65 1.18383 1.05694 0
M  V30 13832 H 1317.67 0.714749 3.73727 0
M  V30 13833 H 1317.18 2.40386 3.0469 0
M  V30 13834 H 1315.28 0.0334113 3.72585 0
M  V30 13835 H 1315.4 1.77248 4.45107 0
M  V30 13836 H 1313.76 0.851714 2.40037 0
M  V30 13837 H 1314.54 2.52163 2.32957 0
M  V30 13838 N 1316.99 -1.36373 0.789944 0
M  V30 13839 C 1318.26 -1.9349 0.286543 0
M  V30 13840 C 1318.64 -1.7218 -1.22136 0
M  V30 13841 O 1317.99 -1.08106 -2.01309 0
M  V30 13842 C 1318.2 -3.42316 0.679749 0
M  V30 13843 C 1319.55 -4.19442 0.659791 0
M  V30 13844 O 1320.57 -3.50758 0.620256 0
M  V30 13845 O 1319.43 -5.41957 0.703159 0
M  V30 13846 H 1316.53 -0.823942 0.0710537 0
M  V30 13847 H 1319.07 -1.45551 0.872523 0
M  V30 13848 H 1317.85 -3.51485 1.7197 0
M  V30 13849 H 1317.47 -3.97542 0.0676823 0
M  V30 13850 N 1318.47 -0.542005 -1.47987 0
M  V30 13851 C 1319.88 -0.104646 -1.86406 0
M  V30 13852 C 1320.23 1.32139 -1.4503 0
M  V30 13853 O 1319.35 1.99159 -0.846439 0
M  V30 13854 C 1319.95 -0.183133 -3.38305 0
M  V30 13855 C 1318.51 0.199098 -3.75873 0
M  V30 13856 C 1317.65 -0.537532 -2.7204 0
M  V30 13857 H 1320.6 -0.75259 -1.3972 0
M  V30 13858 H 1320.63 0.602149 -3.75705 0
M  V30 13859 H 1320.14 -1.22113 -3.68389 0
M  V30 13860 H 1318.24 1.23878 -3.51404 0
M  V30 13861 H 1318.35 -0.14888 -4.78869 0
M  V30 13862 H 1316.72 0.0176255 -2.54694 0
M  V30 13863 H 1317.5 -1.57639 -3.04967 0
M  V30 13864 N 1319.94 1.55134 -0.277709 0
M  V30 13865 C 1320.89 2.19317 0.623216 0
M  V30 13866 C 1321.88 1.15863 1.11645 0
M  V30 13867 O 1323.07 1.41668 1.0611 0
M  V30 13868 C 1320.2 2.91976 1.80568 0
M  V30 13869 C 1319.28 4.02722 1.3295 0
M  V30 13870 N 1319.68 5.02582 0.569654 0
M  V30 13871 C 1317.97 4.1584 1.61224 0
M  V30 13872 C 1318.67 5.80825 0.318983 0
M  V30 13873 N 1317.65 5.36229 0.892145 0
M  V30 13874 H 1321.45 2.93879 0.0348669 0
M  V30 13875 H 1318.97 1.62196 -0.0813871 0
M  V30 13876 H 1320.96 3.36408 2.46242 0
M  V30 13877 H 1319.62 2.18925 2.39796 0
M  V30 13878 H 1320.63 5.17446 0.216749 0
M  V30 13879 H 1317.31 3.53981 2.21368 0
M  V30 13880 H 1318.7 6.71275 -0.289742 0
M  V30 13881 N 1321.42 0.00503138 1.57599 0
M  V30 13882 C 1322.37 -0.984754 2.08737 0
M  V30 13883 C 1323.34 -1.33822 0.983915 0
M  V30 13884 O 1324.52 -1.43572 1.25665 0
M  V30 13885 C 1321.66 -2.26984 2.59946 0
M  V30 13886 C 1320.78 -1.97496 3.84212 0
M  V30 13887 C 1319.91 -3.20123 4.23904 0
M  V30 13888 C 1318.95 -2.86344 5.40993 0
M  V30 13889 N 1318.09 -4.01524 5.75954 0
M  V30 13890 H 1322.93 -0.541737 2.93034 0
M  V30 13891 H 1320.46 -0.255834 1.44858 0
M  V30 13892 H 1322.42 -3.02117 2.87717 0
M  V30 13893 H 1321.05 -2.68946 1.78516 0
M  V30 13894 H 1320.1 -1.12709 3.63319 0
M  V30 13895 H 1321.42 -1.68602 4.69441 0
M  V30 13896 H 1320.57 -4.03598 4.52983 0
M  V30 13897 H 1319.31 -3.5216 3.37394 0
M  V30 13898 H 1318.31 -2.01278 5.11632 0
M  V30 13899 H 1319.54 -2.5555 6.29183 0
M  V30 13900 H 1317.49 -4.33447 4.92402 0
M  V30 13901 H 1317.4 -3.76171 6.55768 0
M  V30 13902 H 1318.67 -4.85772 6.09628 0
M  V30 13903 N 1322.9 -1.55308 -0.267798 0
M  V30 13904 C 1324.32 -1.47264 -0.61526 0
M  V30 13905 C 1324.52 -0.691025 -1.8928 0
M  V30 13906 O 1323.57 -0.211964 -2.51609 0
M  V30 13907 C 1324.88 -2.91519 -0.73739 0
M  V30 13908 C 1326.43 -3.01764 -0.831102 0
M  V30 13909 C 1326.91 -4.47283 -0.984965 0
M  V30 13910 N 1328.4 -4.51134 -1.05036 0
M  V30 13911 C 1329.13 -5.60952 -1.1883 0
M  V30 13912 N 1328.63 -6.80625 -1.29311 0
M  V30 13913 N 1330.42 -5.48705 -1.21982 0
M  V30 13914 H 1322.57 -2.04577 0.57114 0
M  V30 13915 H 1324.84 -0.927908 0.194141 0
M  V30 13916 H 1324.54 -3.51456 0.130974 0
M  V30 13917 H 1324.42 -3.40829 -1.61603 0
M  V30 13918 H 1326.8 -2.4192 -1.68993 0
M  V30 13919 H 1326.88 -2.55698 0.0722509 0
M  V30 13920 H 1326.53 -5.07732 -0.130776 0
M  V30 13921 H 1326.46 -4.91011 -1.90305 0
M  V30 13922 H 1328.95 -3.6493 -0.981551 0
M  V30 13923 H 1329.26 -7.60071 -1.39685 0
M  V30 13924 H 1327.61 -6.83426 -1.26306 0
M  V30 13925 H 1330.8 -4.5415 -1.13428 0
M  V30 13926 H 1330.97 -6.34332 -1.32388 0
M  V30 13927 N 1324.38 0.532545 -1.4833 0
M  V30 13928 C 1325.34 1.61955 -1.62183 0
M  V30 13929 C 1326.34 1.52982 -0.495281 0
M  V30 13930 O 1327.53 1.56698 -0.761005 0
M  V30 13931 C 1324.66 3.0157 -1.58961 0
M  V30 13932 H 1325.86 1.51013 -2.59105 0
M  V30 13933 H 1323.41 0.754405 -1.36888 0
M  V30 13934 H 1324.14 3.18021 -0.635069 0
M  V30 13935 H 1323.93 3.09491 -2.40744 0
M  V30 13936 H 1325.42 3.80604 -1.71843 0
M  V30 13937 N 1325.86 1.36875 0.78122 0
M  V30 13938 C 1327.08 1.34732 1.57019 0
M  V30 13939 C 1327.5 -0.0695423 1.88672 0
M  V30 13940 O 1326.86 -1.02873 1.50743 0
M  V30 13941 C 1326.91 2.17668 2.88623 0
M  V30 13942 O 1326.63 3.53832 2.5833 0
M  V30 13943 C 1328.13 2.23398 3.82895 0
M  V30 13944 H 1325.35 0.461857 0.486754 0
M  V30 13945 H 1327.89 1.80086 0.968989 0
M  V30 13946 H 1326.05 1.75848 3.4519 0
M  V30 13947 H 1326.46 3.972 3.42538 0
M  V30 13948 H 1327.94 2.85769 4.72271 0
M  V30 13949 H 1328.41 1.23972 4.2134 0
M  V30 13950 H 1329.02 2.65489 3.32258 0
M  V30 13951 N 1327.33 -1.00632 1.21289 0
M  V30 13952 C 1328.56 -1.77967 1.05524 0
M  V30 13953 C 1328.98 -1.84621 -0.395023 0
M  V30 13954 O 1328.33 -1.30664 -1.27409 0
M  V30 13955 C 1328.38 -3.21939 1.64432 0
M  V30 13956 O 1328.11 -3.15669 3.03784 0
M  V30 13957 C 1329.61 -4.1578 1.5376 0
M  V30 13958 H 1326.83 -0.559341 0.370646 0
M  V30 13959 H 1329.37 -1.26604 1.60598 0
M  V30 13960 H 1327.53 -3.70415 1.13453 0
M  V30 13961 H 1327.94 -4.06112 3.31924 0
M  V30 13962 H 1329.41 -5.14602 1.99722 0
M  V30 13963 H 1329.89 -4.36438 0.491811 0
M  V30 13964 H 1330.5 -3.73192 2.0398 0
M  V30 13965 N 1328.81 -1.02043 -1.20104 0
M  V30 13966 C 1329.77 -0.598682 -2.21243 0
M  V30 13967 C 1330.77 0.333205 -1.5731 0
M  V30 13968 O 1331.96 0.12137 -1.73777 0
M  V30 13969 C 1329.1 0.125183 -3.4067 0
M  V30 13970 H 1330.29 -1.49345 -2.60069 0
M  V30 13971 H 1327.84 -0.810649 -1.33634 0
M  V30 13972 H 1328.58 1.03469 -3.07351 0
M  V30 13973 H 1328.36 -0.544316 -3.88304 0
M  V30 13974 H 1329.85 0.407469 -4.15607 0
M  V30 13975 N 1330.29 1.35952 -0.797165 0
M  V30 13976 C 1331.2 2.33726 -0.202271 0
M  V30 13977 C 1332.22 1.61415 0.649719 0
M  V30 13978 O 1333.39 1.93351 0.563686 0
M  V30 13979 C 1330.46 3.40612 0.64685 0
M  V30 13980 C 1329.52 4.28712 -0.224536 0
M  V30 13981 C 1328.75 5.30493 0.584153 0
M  V30 13982 O 1328.97 5.40599 1.81957 0
M  V30 13983 O 1327.91 6.01897 -0.0200239 0
M  V30 13984 H 1331.73 2.86383 -1.01087 0
M  V30 13985 H 1329.32 1.38557 -0.558768 0
M  V30 13986 H 1331.2 4.05944 1.1308 0
M  V30 13987 H 1329.88 2.90243 1.43321 0
M  V30 13988 H 1328.78 3.66394 -0.755415 0
M  V30 13989 H 1330.12 4.82454 -0.974603 0
M  V30 13990 N 1331.77 0.549846 1.47697 0
M  V30 13991 C 1332.7 -0.190364 2.32723 0
M  V30 13992 C 1333.68 -0.915933 1.43334 0
M  V30 13993 O 1334.86 -0.897838 1.72199 0
M  V30 13994 C 1331.99 -1.22545 3.24961 0
M  V30 13995 C 1330.95 -0.616805 4.23532 0
M  V30 13996 C 1330.27 -1.75599 5.05044 0
M  V30 13997 C 1331.57 0.424595 5.20571 0
M  V30 13998 H 1333.27 0.519461 2.94859 0
M  V30 13999 H 1330.81 0.251259 1.41791 0
M  V30 14000 H 1332.77 -1.75139 3.83281 0
M  V30 14001 H 1331.49 -1.96512 2.60865 0
M  V30 14002 H 1330.15 -0.112224 3.66428 0
M  V30 14003 H 1329.8 -2.48453 4.37356 0
M  V30 14004 H 1329.5 -1.35456 5.71774 0
M  V30 14005 H 1331.02 -2.28533 5.6622 0
M  V30 14006 H 1332.44 -0.0150025 5.73298 0
M  V30 14007 H 1330.83 0.7445 5.95464 0
M  V30 14008 H 1331.9 1.32318 4.66497 0
M  V30 14009 N 1333.25 -1.54984 0.285932 0
M  V30 14010 C 1334.18 -2.25916 -0.590259 0
M  V30 14011 C 1335.16 -1.25319 -1.15018 0
M  V30 14012 O 1336.34 -1.54062 -1.18231 0
M  V30 14013 C 1333.47 -2.98849 -1.76936 0
M  V30 14014 C 1332.43 -4.06466 -1.3405 0
M  V30 14015 C 1331.75 -4.67032 -2.60356 0
M  V30 14016 C 1333.05 -5.20064 -0.482754 0
M  V30 14017 H 1334.75 -2.994 0.00131571 0
M  V30 14018 H 1332.29 -1.44 0.00207281 0
M  V30 14019 H 1334.25 -3.47186 -2.3883 0
M  V30 14020 H 1332.97 -2.22918 -2.38694 0
M  V30 14021 H 1331.63 -3.58957 -0.7447 0
M  V30 14022 H 1331.28 -3.87757 -3.20396 0
M  V30 14023 H 1330.98 -5.39703 -2.32368 0
M  V30 14024 H 1332.5 -5.18124 -3.23079 0
M  V30 14025 H 1333.91 -5.64387 -1.00697 0
M  V30 14026 H 1332.31 -5.99363 -0.297291 0
M  V30 14027 H 1333.38 -4.82358 0.495861 0
M  V30 14028 N 1334.72 -0.0133892 -1.57594 0
M  V30 14029 C 1336.14 0.342848 -1.55874 0
M  V30 14030 C 1336.34 1.73928 -1.01742 0
M  V30 14031 O 1335.4 2.43798 -0.657158 0
M  V30 14032 C 1336.71 0.205831 -2.99995 0
M  V30 14033 C 1338.26 0.279774 -3.11747 0
M  V30 14034 C 1338.73 0.171729 -4.57678 0
M  V30 14035 N 1340.22 0.22921 -4.62633 0
M  V30 14036 C 1340.96 0.169153 -5.7315 0
M  V30 14037 N 1340.45 0.0589166 -6.92775 0
M  V30 14038 N 1342.25 0.221995 -5.61661 0
M  V30 14039 H 1334.4 -0.926727 -1.91117 0
M  V30 14040 H 1336.66 -0.356466 -0.878428 0
M  V30 14041 H 1336.37 -0.755482 -3.4349 0
M  V30 14042 H 1336.24 0.982476 -3.6418 0
M  V30 14043 H 1338.63 1.23154 -2.68174 0
M  V30 14044 H 1338.71 -0.526974 -2.50313 0
M  V30 14045 H 1338.35 -0.776547 -5.01928 0
M  V30 14046 H 1338.28 0.997138 -5.17073 0
M  V30 14047 H 1340.77 0.315196 -3.76583 0
M  V30 14048 H 1341.09 0.0193526 -7.72798 0
M  V30 14049 H 1339.43 0.0243543 -6.94996 0
M  V30 14050 H 1342.62 0.306406 -4.67096 0
M  V30 14051 H 1342.8 0.171727 -6.47772 0
M  V30 14052 N 1336.2 1.55448 0.259558 0
M  V30 14053 C 1337.11 1.92364 1.34289 0
M  V30 14054 C 1338.13 0.822492 1.53333 0
M  V30 14055 O 1339.3 1.12277 1.672 0
M  V30 14056 C 1336.37 2.19978 2.67975 0
M  V30 14057 C 1335.43 3.43454 2.57562 0
M  V30 14058 C 1334.66 3.69741 3.84873 0
M  V30 14059 O 1334.89 2.9831 4.86176 0
M  V30 14060 O 1333.82 4.63274 3.84267 0
M  V30 14061 H 1337.65 2.8461 1.05975 0
M  V30 14062 H 1335.23 1.42167 0.459239 0
M  V30 14063 H 1337.11 2.39104 3.46998 0
M  V30 14064 H 1335.79 1.30912 2.96047 0
M  V30 14065 H 1334.7 3.29649 1.76869 0
M  V30 14066 H 1336.03 4.32782 2.34437 0
M  V30 14067 N 1337.68 -0.524672 1.4861 0
M  V30 14068 C 1338.93 -1.27768 1.56588 0
M  V30 14069 C 1339.25 -1.93469 0.243899 0
M  V30 14070 O 1338.52 -1.8159 -0.734985 0
M  V30 14071 H 1337.1 -0.474566 0.576885 0
M  V30 14072 H 1339.76 -0.610114 1.85104 0
M  V30 14073 H 1338.86 -2.05416 2.34969 0
M  V30 14074 N 1339.16 -1.37287 -0.77395 0
M  V30 14075 C 1340.41 -1.32374 -1.53243 0
M  V30 14076 C 1340.73 0.0924284 -1.9428 0
M  V30 14077 O 1339.99 1.06517 -1.64173 0
M  V30 14078 C 1340.29 -2.20667 -2.81142 0
M  V30 14079 C 1339.95 -3.68975 -2.59168 0
M  V30 14080 C 1338.62 -4.09394 -2.52884 0
M  V30 14081 C 1340.97 -4.62941 -2.39447 0
M  V30 14082 C 1338.3 -5.41897 -2.24865 0
M  V30 14083 C 1340.65 -5.9568 -2.12952 0
M  V30 14084 C 1339.31 -6.35205 -2.05111 0
M  V30 14085 H 1338.58 -0.48439 -0.560756 0
M  V30 14086 H 1341.23 -1.69475 -0.891663 0
M  V30 14087 H 1339.53 -1.76553 -3.49766 0
M  V30 14088 H 1341.23 -2.1418 -3.3901 0
M  V30 14089 H 1337.82 -3.36919 -2.64922 0
M  V30 14090 H 1342 -4.32576 -2.43293 0
M  V30 14091 H 1337.26 -5.71486 -2.17288 0
M  V30 14092 H 1341.43 -6.68046 -1.9669 0
M  V30 14093 H 1339.06 -7.37804 -1.83163 0
M  V30 14094 N 1340.64 0.999871 -1.21821 0
M  V30 14095 C 1341.57 2.10708 -1.00621 0
M  V30 14096 C 1342.55 1.69954 0.0705417 0
M  V30 14097 O 1343.73 1.9399 -0.0903042 0
M  V30 14098 C 1340.86 3.42496 -0.575646 0
M  V30 14099 C 1339.82 3.97068 -1.59754 0
M  V30 14100 C 1339.14 5.24822 -1.02304 0
M  V30 14101 C 1340.44 4.28545 -2.98574 0
M  V30 14102 H 1342.14 2.28701 -1.93226 0
M  V30 14103 H 1339.68 1.09903 -0.930443 0
M  V30 14104 H 1341.64 4.19357 -0.414481 0
M  V30 14105 H 1340.36 3.2431 0.386059 0
M  V30 14106 H 1339.02 3.22332 -1.74636 0
M  V30 14107 H 1338.67 5.02972 -0.0529016 0
M  V30 14108 H 1338.37 5.62299 -1.70567 0
M  V30 14109 H 1339.89 6.04322 -0.873312 0
M  V30 14110 H 1341.3 4.96229 -2.87106 0
M  V30 14111 H 1339.7 4.77178 -3.63897 0
M  V30 14112 H 1340.77 3.36607 -3.49032 0
M  V30 14113 N 1342.11 1.02678 1.19562 0
M  V30 14114 C 1343.53 0.743467 1.41226 0
M  V30 14115 C 1343.73 -0.672786 1.89936 0
M  V30 14116 O 1342.79 -1.43908 2.07477 0
M  V30 14117 C 1344.1 1.77781 2.42517 0
M  V30 14118 C 1345.65 1.79711 2.56267 0
M  V30 14119 C 1346.12 2.82099 3.60811 0
M  V30 14120 N 1347.61 2.80902 3.68304 0
M  V30 14121 C 1348.35 3.5678 4.48882 0
M  V30 14122 N 1347.84 4.42367 5.33182 0
M  V30 14123 N 1349.64 3.45331 4.43512 0
M  V30 14124 H 1341.79 1.94094 0.862635 0
M  V30 14125 H 1344.05 0.839015 0.441313 0
M  V30 14126 H 1343.76 2.79295 2.13745 0
M  V30 14127 H 1343.63 1.59836 3.41661 0
M  V30 14128 H 1346.02 0.788756 2.84364 0
M  V30 14129 H 1346.1 2.01731 1.57284 0
M  V30 14130 H 1345.74 3.83104 3.33457 0
M  V30 14131 H 1345.67 2.57338 4.5944 0
M  V30 14132 H 1348.16 2.18826 3.08097 0
M  V30 14133 H 1348.48 4.97008 5.9178 0
M  V30 14134 H 1346.82 4.4644 5.3265 0
M  V30 14135 H 1350.01 2.77883 3.76695 0
M  V30 14136 H 1350.19 4.04718 5.06071 0
M  V30 14137 N 1343.59 -1.35528 0.804364 0
M  V30 14138 C 1344.52 -2.28562 0.170893 0
M  V30 14139 C 1345.54 -1.50178 -0.628526 0
M  V30 14140 O 1346.73 -1.72438 -0.461252 0
M  V30 14141 C 1343.83 -3.29792 -0.780434 0
M  V30 14142 C 1343 -4.37391 -0.0278619 0
M  V30 14143 C 1342.06 -5.18492 -0.897341 0
M  V30 14144 O 1341.08 -5.68128 -0.349098 0
M  V30 14145 N 1342.29 -5.36385 -2.21971 0
M  V30 14146 H 1345.05 -2.83565 0.970108 0
M  V30 14147 H 1342.61 -1.47854 0.659617 0
M  V30 14148 H 1344.6 -3.80939 -1.36628 0
M  V30 14149 H 1343.17 -2.7532 -1.48046 0
M  V30 14150 H 1342.39 -3.87208 0.739178 0
M  V30 14151 H 1343.68 -5.06426 0.490889 0
M  V30 14152 H 1343.08 -4.97699 -2.6891 0
M  V30 14153 H 1341.64 -5.90721 -2.75485 0
M  V30 14154 N 1345.07 -0.557671 -1.47404 0
M  V30 14155 C 1346.32 -0.0338384 -2.02772 0
M  V30 14156 C 1346.65 1.31278 -1.43107 0
M  V30 14157 O 1345.93 1.85436 -0.58682 0
M  V30 14158 C 1346.21 0.0587427 -3.60052 0
M  V30 14159 C 1346.06 -1.315 -4.30148 0
M  V30 14160 C 1347.38 0.771942 -4.33277 0
M  V30 14161 H 1344.5 -0.0137711 -0.736871 0
M  V30 14162 H 1347.14 -0.720049 -1.75827 0
M  V30 14163 H 1345.29 0.643154 -3.83139 0
M  V30 14164 H 1346.96 -1.94265 -4.184 0
M  V30 14165 H 1345.21 -1.88956 -3.90484 0
M  V30 14166 H 1345.88 -1.20294 -5.38733 0
M  V30 14167 H 1348.35 0.275729 -4.15185 0
M  V30 14168 H 1347.23 0.805683 -5.42955 0
M  V30 14169 H 1347.49 1.82816 -4.0253 0
M  V30 14170 N 1346.55 1.54831 -0.294147 0
M  V30 14171 C 1347.5 2.24707 0.600795 0
M  V30 14172 C 1348.49 1.25067 1.14257 0
M  V30 14173 O 1349.7 1.42939 1.094 0
M  V30 14174 H 1346.07 0.721399 0.212338 0
M  V30 14175 H 1348.04 2.98398 -0.0111682 0
M  V30 14176 C 1346.79 2.996 1.76451 0
M  V30 14177 H 1346.12 3.76072 1.35684 0
M  V30 14178 H 1347.56 3.51785 2.36692 0
M  V30 14179 C 1346.01 2.0617 2.6645 0
M  V30 14180 O 1346.54 1.62527 3.67353 0
M  V30 14181 N 1344.75 1.7227 2.34033 0
M  V30 14182 H 1344.3 2.07957 1.52025 0
M  V30 14183 H 1344.26 1.10031 2.94518 0
M  V30 14184 N 1348.03 0.0217466 1.57585 0
M  V30 14185 C 1348.97 -0.962559 2.0977 0
M  V30 14186 C 1349.94 -1.32771 0.998053 0
M  V30 14187 O 1351.13 -1.42231 1.27181 0
M  V30 14188 C 1348.27 -2.24214 2.62339 0
M  V30 14189 C 1347.38 -1.9341 3.86286 0
M  V30 14190 C 1346.52 -3.15609 4.27275 0
M  V30 14191 C 1345.56 -2.8059 5.43999 0
M  V30 14192 N 1344.69 -3.95392 5.8018 0
M  V30 14193 H 1349.53 -0.510626 2.93593 0
M  V30 14194 H 1347.07 -0.240456 1.45121 0
M  V30 14195 H 1349.03 -2.99049 2.90905 0
M  V30 14196 H 1347.66 -2.67037 1.81358 0
M  V30 14197 H 1346.71 -1.08849 3.64494 0
M  V30 14198 H 1348.02 -1.63614 4.71203 0
M  V30 14199 H 1347.18 -3.9877 4.57239 0
M  V30 14200 H 1345.92 -3.48561 3.41111 0
M  V30 14201 H 1344.92 -1.9584 5.13738 0
M  V30 14202 H 1346.15 -2.48863 6.31858 0
M  V30 14203 H 1344.09 -4.282 4.96971 0
M  V30 14204 H 1344.01 -3.69195 6.59721 0
M  V30 14205 H 1345.28 -4.79279 6.14746 0
M  V30 14206 N 1349.51 -1.55583 -0.251311 0
M  V30 14207 C 1350.75 -1.76859 -0.978031 0
M  V30 14208 C 1351.07 -0.584924 -1.86021 0
M  V30 14209 O 1350.34 0.399456 -1.91784 0
M  V30 14210 H 1348.92 -0.652252 -0.364111 0
M  V30 14211 H 1351.59 -1.93016 -0.270319 0
M  V30 14212 H 1350.68 -2.67828 -1.60233 0
M  V30 14213 N 1350.98 0.516783 -1.48886 0
M  V30 14214 C 1351.93 1.62003 -1.64389 0
M  V30 14215 C 1352.9 1.58842 -0.485633 0
M  V30 14216 O 1354.09 1.77068 -0.710742 0
M  V30 14217 C 1351.23 3.00218 -1.70186 0
M  V30 14218 C 1350.34 3.13513 -2.97209 0
M  V30 14219 C 1349.47 4.42366 -2.94084 0
M  V30 14220 C 1348.51 4.49238 -4.15754 0
M  V30 14221 N 1347.65 5.69497 -4.10631 0
M  V30 14222 H 1352.49 1.48093 -2.58597 0
M  V30 14223 H 1350.03 0.720788 -1.2823 0
M  V30 14224 H 1351.98 3.80307 -1.71529 0
M  V30 14225 H 1350.61 3.12868 -0.794578 0
M  V30 14226 H 1349.67 2.26589 -3.05551 0
M  V30 14227 H 1350.98 3.14451 -3.87197 0
M  V30 14228 H 1350.13 5.3076 -2.93902 0
M  V30 14229 H 1348.87 4.43969 -2.01847 0
M  V30 14230 H 1347.88 3.59248 -4.16198 0
M  V30 14231 H 1349.1 4.49363 -5.09166 0
M  V30 14232 H 1347.05 5.71973 -3.21222 0
M  V30 14233 H 1346.96 5.71985 -4.94337 0
M  V30 14234 H 1348.23 6.60142 -4.14527 0
M  V30 14235 N 1352.46 1.37696 0.766659 0
M  V30 14236 C 1353.41 1.33871 1.88009 0
M  V30 14237 C 1354.38 0.2034 1.6485 0
M  V30 14238 O 1355.56 0.393569 1.86697 0
M  V30 14239 C 1352.7 1.1566 3.25141 0
M  V30 14240 C 1351.82 2.38465 3.6022 0
M  V30 14241 C 1350.95 2.13087 4.86587 0
M  V30 14242 C 1349.99 3.31732 5.14413 0
M  V30 14243 N 1349.13 3.05872 6.3197 0
M  V30 14244 H 1353.97 2.29065 1.90613 0
M  V30 14245 H 1351.5 1.13821 0.931837 0
M  V30 14246 H 1353.46 1.03122 4.04255 0
M  V30 14247 H 1352.09 0.241115 3.21898 0
M  V30 14248 H 1351.14 2.61725 2.76051 0
M  V30 14249 H 1352.46 3.26933 3.76718 0
M  V30 14250 H 1351.61 1.97609 5.73616 0
M  V30 14251 H 1350.35 1.21965 4.72203 0
M  V30 14252 H 1349.35 3.47743 4.25858 0
M  V30 14253 H 1350.58 4.23712 5.30702 0
M  V30 14254 H 1348.53 2.17384 6.18935 0
M  V30 14255 H 1348.44 3.87885 6.48908 0
M  V30 14256 H 1349.71 2.94023 7.21922 0
M  V30 14257 N 1353.94 -0.993397 1.22349 0
M  V30 14258 C 1354.89 -2.10463 0.990358 0
M  V30 14259 C 1355.88 -1.6927 -0.0663528 0
M  V30 14260 O 1357.09 -1.79794 0.0860444 0
M  V30 14261 H 1353.46 -0.688222 0.303075 0
M  V30 14262 H 1355.43 -2.273 1.93333 0
M  V30 14263 C 1354.18 -3.42757 0.584205 0
M  V30 14264 H 1353.51 -3.74896 1.38899 0
M  V30 14265 H 1354.95 -4.21492 0.46049 0
M  V30 14266 C 1353.4 -3.29416 -0.706187 0
M  V30 14267 O 1353.93 -3.61152 -1.75875 0
M  V30 14268 N 1352.14 -2.82601 -0.677148 0
M  V30 14269 H 1351.69 -2.56972 0.179712 0
M  V30 14270 H 1351.65 -2.74056 -1.54081 0
M  V30 14271 N 1355.42 -1.03311 -1.19015 0
M  V30 14272 C 1356.83 -0.750946 -1.4083 0
M  V30 14273 C 1357.03 0.662704 -1.90291 0
M  V30 14274 O 1356.09 1.42806 -2.08237 0
M  V30 14275 C 1357.4 -1.79064 -2.41571 0
M  V30 14276 C 1358.95 -1.81068 -2.55311 0
M  V30 14277 C 1359.43 -2.84008 -3.59309 0
M  V30 14278 N 1360.92 -2.82852 -3.6681 0
M  V30 14279 C 1361.65 -3.59156 -4.46984 0
M  V30 14280 N 1361.15 -4.45188 -5.30829 0
M  V30 14281 N 1362.94 -3.47679 -4.41674 0
M  V30 14282 H 1355.09 -1.94548 -0.852329 0
M  V30 14283 H 1357.35 -0.841344 -0.436858 0
M  V30 14284 H 1357.06 -2.80425 -2.12261 0
M  V30 14285 H 1356.93 -1.61646 -3.40809 0
M  V30 14286 H 1359.32 -0.803825 -2.83941 0
M  V30 14287 H 1359.4 -2.02562 -1.56212 0
M  V30 14288 H 1359.05 -3.84867 -3.3142 0
M  V30 14289 H 1358.98 -2.59771 -4.58069 0
M  V30 14290 H 1361.47 -2.20457 -3.06932 0
M  V30 14291 H 1361.78 -5.00139 -5.89135 0
M  V30 14292 H 1360.13 -4.49259 -5.30275 0
M  V30 14293 H 1363.32 -2.79876 -3.75216 0
M  V30 14294 H 1363.49 -4.07396 -5.03917 0
M  V30 14295 N 1356.9 1.35099 -0.81154 0
M  V30 14296 C 1358.14 1.9788 -0.390695 0
M  V30 14297 C 1358.46 1.6509 1.04903 0
M  V30 14298 O 1359.66 2.21273 1.57324 0
M  V30 14299 C 1358.12 3.54025 -0.647632 0
M  V30 14300 C 1357.73 3.9572 -2.10023 0
M  V30 14301 C 1359.47 4.23492 -0.29239 0
M  V30 14302 C 1357.38 5.44731 -2.30266 0
M  V30 14303 H 1356.31 0.740441 -0.14235 0
M  V30 14304 H 1358.96 1.54098 -0.996294 0
M  V30 14305 H 1357.34 3.9599 0.0279838 0
M  V30 14306 H 1358.52 3.64893 -2.81407 0
M  V30 14307 H 1356.83 3.39157 -2.41581 0
M  V30 14308 H 1359.43 5.33035 -0.421618 0
M  V30 14309 H 1359.77 4.09268 0.76195 0
M  V30 14310 H 1360.3 3.86965 -0.922122 0
M  V30 14311 H 1357.04 5.63928 -3.34163 0
M  V30 14312 H 1356.56 5.7711 -1.63413 0
M  V30 14313 H 1358.24 6.1126 -2.12062 0
M  V30 14314 N 1358.37 0.56548 1.47106 0
M  V30 14315 C 1359.34 -0.167191 2.28589 0
M  V30 14316 C 1360.34 -0.835005 1.3742 0
M  V30 14317 O 1361.53 -0.689598 1.59969 0
M  V30 14318 C 1358.66 -1.24548 3.17333 0
M  V30 14319 H 1359.85 0.548677 2.94838 0
M  V30 14320 H 1357.4 0.322749 1.52931 0
M  V30 14321 H 1358.14 -1.99348 2.55794 0
M  V30 14322 H 1357.92 -0.771335 3.84438 0
M  V30 14323 H 1359.41 -1.75985 3.78707 0
M  V30 14324 N 1359.85 -1.54672 0.302354 0
M  V30 14325 C 1361.1 -2.00167 -0.306524 0
M  V30 14326 C 1361.43 -1.19073 -1.53791 0
M  V30 14327 O 1360.68 -0.255328 -1.94027 0
M  V30 14328 C 1360.98 -3.5035 -0.70638 0
M  V30 14329 C 1360.65 -4.48907 0.423429 0
M  V30 14330 C 1359.31 -4.75575 0.733586 0
M  V30 14331 C 1361.66 -5.07588 1.18338 0
M  V30 14332 C 1358.99 -5.58186 1.80679 0
M  V30 14333 C 1361.34 -5.91367 2.24651 0
M  V30 14334 C 1360.01 -6.16345 2.56272 0
M  V30 14335 H 1359.28 -0.732462 -0.112165 0
M  V30 14336 H 1361.92 -1.86798 0.421732 0
M  V30 14337 H 1360.23 -3.61335 -1.51474 0
M  V30 14338 H 1361.92 -3.82977 -1.18869 0
M  V30 14339 H 1358.51 -4.28256 0.171591 0
M  V30 14340 H 1362.7 -4.86985 0.957018 0
M  V30 14341 H 1357.95 -5.75776 2.05649 0
M  V30 14342 H 1362.13 -6.35862 2.83994 0
M  V30 14343 H 1359.76 -6.80148 3.39563 0
M  V30 14344 N 1361.33 -0.0301034 -1.57571 0
M  V30 14345 C 1362.28 0.951421 -2.10277 0
M  V30 14346 C 1363.25 1.3224 -1.00508 0
M  V30 14347 O 1364.43 1.41554 -1.27934 0
M  V30 14348 C 1361.57 2.2282 -2.63525 0
M  V30 14349 C 1360.69 1.91359 -3.87306 0
M  V30 14350 C 1359.82 3.13339 -4.28943 0
M  V30 14351 C 1358.86 2.77701 -5.4548 0
M  V30 14352 N 1358 3.9231 -5.82269 0
M  V30 14353 H 1362.84 0.495049 -2.93859 0
M  V30 14354 H 1360.37 0.232756 -1.45247 0
M  V30 14355 H 1362.33 2.97502 -2.92487 0
M  V30 14356 H 1360.96 2.66072 -1.82772 0
M  V30 14357 H 1360.01 1.06915 -3.65066 0
M  V30 14358 H 1361.33 1.61112 -4.72064 0
M  V30 14359 H 1360.48 3.9634 -4.59347 0
M  V30 14360 H 1359.22 3.46747 -3.42954 0
M  V30 14361 H 1358.22 1.93113 -5.14769 0
M  V30 14362 H 1359.45 2.45508 -6.33169 0
M  V30 14363 H 1357.39 4.25559 -4.99235 0
M  V30 14364 H 1357.31 3.65691 -6.61669 0
M  V30 14365 H 1358.58 4.76012 -6.17279 0
M  V30 14366 N 1362.81 1.55714 0.243056 0
M  V30 14367 C 1364.22 1.68126 0.811814 0
M  V30 14368 C 1364.57 0.628259 1.85869 0
M  V30 14369 O 1363.7 -0.224747 2.1523 0
M  V30 14370 C 1364.29 3.048 1.47928 0
M  V30 14371 C 1362.85 3.19138 1.99569 0
M  V30 14372 C 1362 2.64011 0.848149 0
M  V30 14373 H 1364.95 1.58689 0.0187918 0
M  V30 14374 H 1364.97 2.99459 2.34743 0
M  V30 14375 H 1364.48 3.81417 0.717106 0
M  V30 14376 H 1362.58 2.4735 2.78655 0
M  V30 14377 H 1362.69 4.26095 2.19043 0
M  V30 14378 H 1361.06 2.21934 1.2497 0
M  V30 14379 H 1361.84 3.43157 0.0989987 0
M  V30 14380 N 1364.29 -0.50888 1.49158 0
M  V30 14381 C 1365.51 -1.29245 1.62205 0
M  V30 14382 C 1365.94 -1.85845 0.29041 0
M  V30 14383 O 1365.29 -1.6547 -0.740906 0
M  V30 14384 C 1365.34 -2.40415 2.68762 0
M  V30 14385 O 1364.45 -3.44048 2.27387 0
M  V30 14386 H 1363.79 -0.381898 0.543185 0
M  V30 14387 H 1366.32 -0.610076 1.95293 0
M  V30 14388 H 1366.33 -2.86295 2.90688 0
M  V30 14389 H 1365 -1.98584 3.65427 0
M  V30 14390 H 1363.58 -3.04141 2.1576 0
M  V30 14391 N 1365.76 -1.381 -0.759346 0
M  V30 14392 C 1366.67 -1.37086 -1.9038 0
M  V30 14393 C 1367.69 -0.268738 -1.71912 0
M  V30 14394 O 1368.87 -0.506205 -1.94935 0
M  V30 14395 C 1365.93 -1.18905 -3.25672 0
M  V30 14396 C 1364.99 -2.3887 -3.56707 0
M  V30 14397 C 1364.23 -2.21546 -4.85544 0
M  V30 14398 O 1364.45 -1.20616 -5.57501 0
M  V30 14399 O 1363.38 -3.10009 -5.15924 0
M  V30 14400 H 1367.21 -2.33505 -1.94188 0
M  V30 14401 H 1364.79 -1.18959 -0.903826 0
M  V30 14402 H 1366.68 -1.10803 -4.06572 0
M  V30 14403 H 1365.35 -0.255675 -3.22689 0
M  V30 14404 H 1364.26 -2.52546 -2.75992 0
M  V30 14405 H 1365.59 -3.30817 -3.64446 0
M  V30 14406 N 1367.24 0.986894 -1.22875 0
M  V30 14407 C 1368.49 1.72388 -1.05484 0
M  V30 14408 C 1368.81 1.90639 0.410074 0
M  V30 14409 O 1368.08 1.47036 1.2945 0
M  V30 14410 H 1366.66 0.638732 -0.387337 0
M  V30 14411 H 1369.32 1.18829 -1.54485 0
M  V30 14412 H 1368.42 2.71599 -1.53754 0
M  V30 14413 N 1368.72 1.0394 1.18466 0
M  V30 14414 C 1370.13 0.77011 1.70077 0
M  V30 14415 C 1370.48 -0.70916 1.82935 0
M  V30 14416 O 1369.61 -1.55209 1.50795 0
M  V30 14417 C 1370.2 1.39132 3.08914 0
M  V30 14418 C 1368.76 1.17037 3.57742 0
M  V30 14419 C 1367.91 1.48279 2.34326 0
M  V30 14420 H 1370.86 1.20598 1.03159 0
M  V30 14421 H 1370.88 0.793861 3.72126 0
M  V30 14422 H 1370.39 2.46795 2.99523 0
M  V30 14423 H 1368.49 0.112435 3.7243 0
M  V30 14424 H 1368.61 1.8665 4.41247 0
M  V30 14425 H 1366.97 0.902438 2.38177 0
M  V30 14426 H 1367.75 2.57047 2.27556 0
M  V30 14427 N 1370.2 -1.34667 0.818693 0
M  V30 14428 C 1371.61 -1.51436 0.503921 0
M  V30 14429 C 1371.81 -1.76468 -0.972691 0
M  V30 14430 O 1370.87 -1.81314 -1.75731 0
M  V30 14431 C 1372.18 -2.68198 1.35978 0
M  V30 14432 C 1373.73 -2.8208 1.35647 0
M  V30 14433 C 1374.21 -4.01881 2.19672 0
M  V30 14434 N 1375.7 -4.0908 2.17273 0
M  V30 14435 C 1376.43 -5.00925 2.79038 0
M  V30 14436 N 1375.93 -5.9802 3.49777 0
M  V30 14437 N 1377.72 -4.93764 2.68615 0
M  V30 14438 H 1369.87 -1.16677 1.77483 0
M  V30 14439 H 1372.14 -0.571873 0.756085 0
M  V30 14440 H 1371.84 -2.56317 2.4082 0
M  V30 14441 H 1371.72 -3.63105 1.0215 0
M  V30 14442 H 1374.1 -2.93405 0.315849 0
M  V30 14443 H 1374.18 -1.87994 1.7347 0
M  V30 14444 H 1373.83 -3.91316 3.23781 0
M  V30 14445 H 1373.76 -4.95171 1.79202 0
M  V30 14446 H 1376.25 -3.3958 1.65814 0
M  V30 14447 H 1376.56 -6.64722 3.94162 0
M  V30 14448 H 1374.91 -5.98157 3.53883 0
M  V30 14449 H 1378.1 -4.16868 2.12929 0
M  V30 14450 H 1378.27 -5.65147 3.17038 0
M  V30 14451 N 1371.68 -0.573274 -1.46804 0
M  V30 14452 C 1372.92 -0.0551522 -2.02025 0
M  V30 14453 C 1373.25 1.30577 -1.44826 0
M  V30 14454 O 1372.52 1.85514 -0.629403 0
M  V30 14455 H 1371.1 -0.0173982 -0.746797 0
M  V30 14456 H 1373.76 -0.746919 -1.8002 0
M  V30 14457 H 1372.85 0.0209326 -3.12093 0
M  V30 14458 N 1373.15 1.5451 -0.310553 0
M  V30 14459 C 1374.4 2.00623 0.296343 0
M  V30 14460 C 1374.73 1.19855 1.52802 0
M  V30 14461 O 1374.01 0.277468 1.92511 0
M  V30 14462 C 1374.29 3.54305 0.643448 0
M  V30 14463 C 1374.14 4.45807 -0.598029 0
M  V30 14464 C 1375.46 4.14958 1.46623 0
M  V30 14465 H 1372.58 0.729303 0.106236 0
M  V30 14466 H 1375.22 1.85196 -0.424549 0
M  V30 14467 H 1373.37 3.67581 1.25762 0
M  V30 14468 H 1375.05 4.44421 -1.23643 0
M  V30 14469 H 1373.29 4.16014 -1.22944 0
M  V30 14470 H 1373.96 5.51124 -0.310883 0
M  V30 14471 H 1376.44 4.05176 0.947199 0
M  V30 14472 H 1375.31 5.22627 1.67787 0
M  V30 14473 H 1375.57 3.67445 2.45839 0
M  V30 14474 N 1374.63 0.0384594 1.57553 0
M  V30 14475 C 1375.88 -0.639085 1.92467 0
M  V30 14476 C 1376.21 -1.71239 0.916014 0
M  V30 14477 O 1375.49 -1.94408 -0.0598928 0
M  V30 14478 C 1375.77 -1.24693 3.37822 0
M  V30 14479 C 1375.62 -0.182544 4.49429 0
M  V30 14480 C 1376.94 -2.16226 3.8332 0
M  V30 14481 H 1374.06 -0.230852 0.699912 0
M  V30 14482 H 1376.7 0.0976276 1.89749 0
M  V30 14483 H 1374.85 -1.87481 3.40269 0
M  V30 14484 H 1376.53 0.448622 4.59113 0
M  V30 14485 H 1374.77 0.4909 4.31013 0
M  V30 14486 H 1375.44 -0.647626 5.48188 0
M  V30 14487 H 1377.92 -1.63413 3.82669 0
M  V30 14488 H 1376.79 -2.55705 4.85702 0
M  V30 14489 H 1377.05 -3.05722 3.19353 0
M  V30 14490 N 1376.11 -1.55841 -0.234795 0
M  V30 14491 C 1377.04 -1.94344 -1.29432 0
M  V30 14492 C 1378.02 -0.809912 -1.49581 0
M  V30 14493 O 1379.21 -1.07117 -1.61986 0
M  V30 14494 C 1376.34 -2.24866 -2.64675 0
M  V30 14495 C 1375.29 -3.40584 -2.59203 0
M  V30 14496 C 1374.62 -3.56678 -3.98353 0
M  V30 14497 C 1375.92 -4.75935 -2.15135 0
M  V30 14498 H 1377.61 -2.83096 -0.97454 0
M  V30 14499 H 1375.16 -1.36205 -0.467355 0
M  V30 14500 H 1377.11 -2.50392 -3.38942 0
M  V30 14501 H 1375.83 -1.32953 -2.98314 0
M  V30 14502 H 1374.49 -3.15087 -1.87393 0
M  V30 14503 H 1374.14 -2.62164 -4.29277 0
M  V30 14504 H 1373.84 -4.34503 -3.95577 0
M  V30 14505 H 1375.37 -3.84538 -4.74302 0
M  V30 14506 H 1376.78 -5.00753 -2.7914 0
M  V30 14507 H 1375.18 -5.56949 -2.23446 0
M  V30 14508 H 1376.25 -4.72182 -1.10328 0
M  V30 14509 N 1377.59 0.500963 -1.49426 0
M  V30 14510 C 1378.55 1.58478 -1.65582 0
M  V30 14511 C 1379.55 1.51897 -0.52762 0
M  V30 14512 O 1380.74 1.55049 -0.794071 0
M  V30 14513 C 1377.87 2.9813 -1.65322 0
M  V30 14514 H 1379.07 1.45483 -2.6225 0
M  V30 14515 H 1376.62 0.725199 -1.38458 0
M  V30 14516 H 1377.36 3.16602 -0.702384 0
M  V30 14517 H 1377.14 3.04315 -2.47255 0
M  V30 14518 H 1378.63 3.76874 -1.79878 0
M  V30 14519 N 1379.07 1.38501 0.752011 0
M  V30 14520 C 1380 1.38577 1.87933 0
M  V30 14521 C 1380.98 0.251454 1.68231 0
M  V30 14522 O 1382.16 0.45477 1.888 0
M  V30 14523 C 1379.29 1.21164 3.25479 0
M  V30 14524 C 1378.25 2.31816 3.59785 0
M  V30 14525 C 1377.57 1.99508 4.96085 0
M  V30 14526 C 1378.87 3.74082 3.645 0
M  V30 14527 H 1380.57 2.32913 1.88127 0
M  V30 14528 H 1378.11 1.12113 0.903698 0
M  V30 14529 H 1380.07 1.19842 4.04 0
M  V30 14530 H 1378.79 0.232899 3.25769 0
M  V30 14531 H 1377.45 2.32327 2.83584 0
M  V30 14532 H 1377.1 1.00114 4.92936 0
M  V30 14533 H 1376.8 2.73617 5.20007 0
M  V30 14534 H 1378.32 1.99807 5.76983 0
M  V30 14535 H 1379.74 3.75593 4.33131 0
M  V30 14536 H 1378.13 4.47409 3.99931 0
M  V30 14537 H 1379.2 4.06284 2.64692 0
M  V30 14538 N 1380.55 -0.980364 1.23396 0
M  V30 14539 C 1381.96 -1.53622 1.061 0
M  V30 14540 C 1382.31 -1.92648 -0.371645 0
M  V30 14541 O 1381.43 -1.76051 -1.25837 0
M  V30 14542 C 1382.03 -2.79159 1.91979 0
M  V30 14543 C 1380.59 -3.31144 1.78943 0
M  V30 14544 C 1379.73 -2.04135 1.87681 0
M  V30 14545 H 1382.68 -0.800047 1.37058 0
M  V30 14546 H 1382.71 -3.52011 1.4446 0
M  V30 14547 H 1382.22 -2.50723 2.96242 0
M  V30 14548 H 1380.32 -3.64459 0.774634 0
M  V30 14549 H 1380.43 -4.009 2.62329 0
M  V30 14550 H 1378.8 -2.18271 1.31262 0
M  V30 14551 H 1379.58 -1.78081 2.93499 0
M  V30 14552 N 1382.02 -1.04567 -1.17913 0
M  V30 14553 C 1383.25 -0.772204 -1.9195 0
M  V30 14554 C 1383.67 0.671303 -1.76462 0
M  V30 14555 O 1383.02 1.45805 -1.0976 0
M  V30 14556 C 1383.07 -1.13539 -3.43207 0
M  V30 14557 O 1382.8 -2.52223 -3.58211 0
M  V30 14558 C 1384.3 -0.887146 -4.34332 0
M  V30 14559 H 1381.52 -0.281234 -0.609219 0
M  V30 14560 H 1384.06 -1.39467 -1.49563 0
M  V30 14561 H 1382.22 -0.557784 -3.83363 0
M  V30 14562 H 1382.63 -2.66275 -4.51882 0
M  V30 14563 H 1384.1 -1.19107 -5.38997 0
M  V30 14564 H 1384.58 0.1779 -4.3884 0
M  V30 14565 H 1385.19 -1.44829 -3.99881 0
M  V30 14566 N 1383.5 1.34231 -0.825823 0
M  V30 14567 C 1384.43 2.28261 -0.207234 0
M  V30 14568 C 1385.45 1.51159 0.604554 0
M  V30 14569 O 1386.64 1.7315 0.43376 0
M  V30 14570 C 1383.74 3.30991 0.727868 0
M  V30 14571 C 1382.91 4.3738 -0.0417267 0
M  V30 14572 C 1381.97 5.19854 0.81474 0
M  V30 14573 O 1380.99 5.68612 0.25867 0
M  V30 14574 N 1382.2 5.39849 2.1341 0
M  V30 14575 H 1384.96 2.81986 -1.0151 0
M  V30 14576 H 1382.52 1.46785 -0.683056 0
M  V30 14577 H 1384.51 3.83065 1.3055 0
M  V30 14578 H 1383.08 2.7764 1.43647 0
M  V30 14579 H 1382.3 3.85983 -0.800686 0
M  V30 14580 H 1383.59 5.05581 -0.571395 0
M  V30 14581 H 1382.99 5.01914 2.60958 0
M  V30 14582 H 1381.55 5.95029 2.66052 0
M  V30 14583 N 1384.98 0.581051 1.46498 0
M  V30 14584 C 1386.23 0.0658652 2.01993 0
M  V30 14585 C 1386.55 -1.29807 1.45516 0
M  V30 14586 O 1385.82 -1.85177 0.639233 0
M  V30 14587 H 1384.4 0.0213584 0.746695 0
M  V30 14588 H 1387.06 0.756456 1.79621 0
M  V30 14589 H 1386.16 -0.00438128 3.121 0
M  V30 14590 N 1386.46 -1.54343 0.318742 0
M  V30 14591 C 1387.37 -2.27856 -0.558442 0
M  V30 14592 C 1388.38 -1.32029 -1.13333 0
M  V30 14593 O 1389.56 -1.65037 -1.15433 0
M  V30 14594 C 1386.62 -3.01842 -1.70565 0
M  V30 14595 C 1385.69 -4.13245 -1.16305 0
M  V30 14596 C 1384.92 -4.83693 -2.25559 0
M  V30 14597 O 1385.14 -4.53621 -3.4581 0
M  V30 14598 O 1384.08 -5.70708 -1.91249 0
M  V30 14599 H 1387.9 -3.03676 0.0384247 0
M  V30 14600 H 1385.49 -1.4916 0.0845936 0
M  V30 14601 H 1387.37 -3.48189 -2.37365 0
M  V30 14602 H 1386.04 -2.28902 -2.28879 0
M  V30 14603 H 1384.95 -3.71258 -0.460274 0
M  V30 14604 H 1386.28 -4.88214 -0.625111 0
M  V30 14605 N 1387.94 -0.0468143 -1.5753 0
M  V30 14606 C 1389.35 0.489509 -1.80169 0
M  V30 14607 C 1389.7 1.71184 -0.958669 0
M  V30 14608 O 1388.82 2.15699 -0.174025 0
M  V30 14609 C 1389.42 0.894838 -3.26769 0
M  V30 14610 C 1387.98 1.37617 -3.50341 0
M  V30 14611 C 1387.12 0.349275 -2.75092 0
M  V30 14612 H 1390.07 -0.272728 -1.56339 0
M  V30 14613 H 1390.1 1.75805 -3.3745 0
M  V30 14614 H 1389.61 0.00501096 -3.881 0
M  V30 14615 H 1387.71 2.28533 -2.94285 0
M  V30 14616 H 1387.82 1.37133 -4.59055 0
M  V30 14617 H 1386.19 0.821219 -2.41098 0
M  V30 14618 H 1386.97 -0.532391 -3.39147 0
M  V30 14619 N 1389.41 1.55964 0.226527 0
M  V30 14620 C 1390.35 1.87013 1.30772 0
M  V30 14621 C 1391.33 0.727044 1.4544 0
M  V30 14622 O 1392.51 0.974898 1.61332 0
M  V30 14623 C 1389.64 2.07278 2.67869 0
M  V30 14624 C 1388.68 3.29956 2.70243 0
M  V30 14625 S 1389.52 4.86026 2.24808 0
M  V30 14626 C 1390.67 5.09321 3.6379 0
M  V30 14627 H 1390.9 2.78427 1.0424 0
M  V30 14628 H 1388.44 1.48334 0.428525 0
M  V30 14629 H 1390.4 2.19636 3.468 0
M  V30 14630 H 1389.06 1.1667 2.91628 0
M  V30 14631 H 1388.25 3.41164 3.70975 0
M  V30 14632 H 1387.85 3.16429 1.99371 0
M  V30 14633 H 1390.14 4.97914 4.59443 0
M  V30 14634 H 1391.09 6.11227 3.57501 0
M  V30 14635 H 1391.49 4.37076 3.57247 0
M  V30 14636 N 1390.89 -0.493031 1.4969 0
M  V30 14637 C 1391.86 -1.57598 1.6642 0
M  V30 14638 C 1392.86 -1.51615 0.535668 0
M  V30 14639 O 1394.05 -1.54626 0.802283 0
M  V30 14640 C 1391.18 -2.97249 1.66901 0
M  V30 14641 H 1392.37 -1.4409 2.63017 0
M  V30 14642 H 1389.92 -0.717846 1.3884 0
M  V30 14643 H 1390.66 -3.16225 0.719164 0
M  V30 14644 H 1390.44 -3.02999 2.48865 0
M  V30 14645 H 1391.93 -3.75914 1.81874 0
M  V30 14646 N 1392.37 -1.38898 -0.744656 0
M  V30 14647 C 1393.6 -1.38848 -1.53391 0
M  V30 14648 C 1394.01 0.0194949 -1.8879 0
M  V30 14649 O 1393.37 0.988399 -1.53417 0
M  V30 14650 C 1393.42 -2.25243 -2.8275 0
M  V30 14651 O 1393.14 -3.60557 -2.48858 0
M  V30 14652 C 1394.64 -2.33471 -3.76837 0
M  V30 14653 H 1391.86 -0.4746 -0.474338 0
M  V30 14654 H 1394.41 -1.82591 -0.920902 0
M  V30 14655 H 1392.56 -1.84938 -3.40407 0
M  V30 14656 H 1392.98 -4.06142 -3.31887 0
M  V30 14657 H 1394.45 -2.9819 -4.64528 0
M  V30 14658 H 1394.93 -1.351 -4.17905 0
M  V30 14659 H 1395.53 -2.74205 -3.25103 0
M  V30 14660 N 1393.85 0.973806 -1.23914 0
M  V30 14661 C 1395.07 1.7564 -1.10296 0
M  V30 14662 C 1395.5 1.84984 0.340954 0
M  V30 14663 O 1394.86 1.31629 1.24674 0
M  V30 14664 C 1394.9 3.15809 -1.7406 0
M  V30 14665 O 1394.01 3.99911 -1.00722 0
M  V30 14666 H 1393.35 0.540133 -0.386202 0
M  V30 14667 H 1395.88 1.22197 -1.64101 0
M  V30 14668 H 1395.89 3.66359 -1.79568 0
M  V30 14669 H 1394.56 3.08324 -2.79122 0
M  V30 14670 H 1393.14 3.58405 -1.02956 0
M  V30 14671 N 1395.33 1.05191 1.17357 0
M  V30 14672 C 1396.55 0.782343 1.92079 0
M  V30 14673 C 1396.98 -0.655957 1.76292 0
M  V30 14674 O 1396.33 -1.45573 1.08065 0
M  V30 14675 C 1396.38 1.16777 3.41168 0
M  V30 14676 O 1395.49 0.299908 4.11308 0
M  V30 14677 H 1394.83 0.286894 0.598822 0
M  V30 14678 H 1397.36 1.40476 1.48754 0
M  V30 14679 H 1397.37 1.13454 3.91909 0
M  V30 14680 H 1396.04 2.2155 3.51978 0
M  V30 14681 H 1394.62 0.393744 3.70815 0
M  V30 14682 N 1396.8 -1.33791 0.83293 0
M  V30 14683 C 1398.03 -2.0272 0.438111 0
M  V30 14684 C 1398.45 -1.62279 -0.951163 0
M  V30 14685 O 1397.81 -0.812406 -1.62079 0
M  V30 14686 C 1397.86 -3.5623 0.559698 0
M  V30 14687 O 1396.96 -4.10292 -0.41646 0
M  V30 14688 H 1396.31 -0.639438 0.178928 0
M  V30 14689 H 1398.84 -1.70821 1.12612 0
M  V30 14690 H 1398.85 -4.0563 0.439148 0
M  V30 14691 H 1397.52 -3.8501 1.5729 0
M  V30 14692 H 1396.1 -3.72034 -0.25396 0
M  V30 14693 N 1398.28 -0.588812 -1.46187 0
M  V30 14694 C 1399.19 0.143253 -2.34162 0
M  V30 14695 C 1400.21 0.879779 -1.5012 0
M  V30 14696 O 1401.38 0.841592 -1.82973 0
M  V30 14697 C 1398.45 1.14017 -3.27416 0
M  V30 14698 C 1397.51 0.407651 -4.2736 0
M  V30 14699 C 1396.74 1.35708 -5.16158 0
M  V30 14700 O 1396.97 2.59394 -5.08007 0
M  V30 14701 O 1395.9 0.864343 -5.95662 0
M  V30 14702 H 1399.73 -0.579228 -2.98125 0
M  V30 14703 H 1397.31 -0.349174 -1.45262 0
M  V30 14704 H 1399.19 1.71484 -3.8493 0
M  V30 14705 H 1397.87 1.84401 -2.66041 0
M  V30 14706 H 1396.78 -0.209011 -3.73516 0
M  V30 14707 H 1398.11 -0.255334 -4.91537 0
M  V30 14708 N 1399.76 1.54172 -0.326923 0
M  V30 14709 C 1400.71 2.21189 0.553126 0
M  V30 14710 C 1401.69 1.19356 1.07903 0
M  V30 14711 O 1402.89 1.44972 1.01549 0
M  V30 14712 C 1400.02 2.97573 1.71188 0
M  V30 14713 C 1399.1 4.06748 1.20071 0
M  V30 14714 N 1399.49 5.0414 0.409473 0
M  V30 14715 C 1397.79 4.20759 1.47913 0
M  V30 14716 C 1398.49 5.81546 0.134036 0
M  V30 14717 N 1397.47 5.38796 0.721097 0
M  V30 14718 H 1401.27 2.93841 -0.0586462 0
M  V30 14719 H 1398.78 1.61855 -0.132947 0
M  V30 14720 H 1400.78 3.44072 2.35415 0
M  V30 14721 H 1399.44 2.26443 2.32709 0
M  V30 14722 H 1400.45 5.17874 0.0520181 0
M  V30 14723 H 1397.13 3.60844 2.09995 0
M  V30 14724 H 1398.52 6.70013 -0.503156 0
M  V30 14725 N 1401.24 0.0551678 1.57503 0
M  V30 14726 C 1402.49 -0.6165 1.92467 0
M  V30 14727 C 1402.81 -1.71147 0.934552 0
M  V30 14728 O 1402.08 -1.9589 -0.0199649 0
M  V30 14729 H 1400.66 -0.230714 0.710479 0
M  V30 14730 H 1403.32 0.109111 1.94594 0
M  V30 14731 H 1402.42 -1.05254 2.93816 0
M  V30 14732 N 1402.72 -1.56081 -0.218252 0
M  V30 14733 C 1403.94 -1.83681 -0.963119 0
M  V30 14734 C 1404.37 -0.635909 -1.77025 0
M  V30 14735 O 1403.72 0.415327 -1.76479 0
M  V30 14736 C 1403.77 -3.09302 -1.85376 0
M  V30 14737 O 1402.88 -2.88228 -2.94955 0
M  V30 14738 H 1402.22 -0.605495 -0.272529 0
M  V30 14739 H 1404.75 -2.03297 -0.230567 0
M  V30 14740 H 1404.76 -3.39493 -2.26294 0
M  V30 14741 H 1403.43 -3.96337 -1.26054 0
M  V30 14742 H 1402.01 -2.69279 -2.57959 0
M  V30 14743 N 1404.2 0.485086 -1.49949 0
M  V30 14744 C 1405.44 1.23999 -1.60474 0
M  V30 14745 C 1405.77 1.91904 -0.297736 0
M  V30 14746 O 1405.05 1.81472 0.699857 0
M  V30 14747 C 1405.33 2.2946 -2.77525 0
M  V30 14748 C 1405.19 1.65952 -4.18067 0
M  V30 14749 C 1406.5 3.30893 -2.90169 0
M  V30 14750 H 1403.62 0.449462 -0.584083 0
M  V30 14751 H 1406.27 0.535795 -1.82289 0
M  V30 14752 H 1404.42 2.89521 -2.59056 0
M  V30 14753 H 1406.09 1.09596 -4.48092 0
M  V30 14754 H 1404.33 0.963079 -4.22974 0
M  V30 14755 H 1405 2.42521 -4.9587 0
M  V30 14756 H 1407.48 2.8084 -3.07031 0
M  V30 14757 H 1406.35 4.02027 -3.73718 0
M  V30 14758 H 1406.61 3.94178 -2.0019 0
M  V30 14759 N 1405.67 1.39291 0.737279 0
M  V30 14760 C 1406.9 1.39844 1.53162 0
M  V30 14761 C 1407.32 -0.00568546 1.88099 0
M  V30 14762 O 1406.68 -0.992085 1.51748 0
M  V30 14763 C 1406.73 2.27577 2.79716 0
M  V30 14764 O 1405.83 1.70408 3.75546 0
M  V30 14765 H 1405.17 0.476314 0.462624 0
M  V30 14766 H 1407.7 1.83258 0.909819 0
M  V30 14767 H 1407.71 2.42009 3.28475 0
M  V30 14768 H 1406.39 3.29621 2.53619 0
M  V30 14769 H 1404.97 1.65206 3.34307 0
M  V30 14770 N 1407.15 -0.967221 1.24429 0
M  V30 14771 C 1408.56 -1.52488 1.07723 0
M  V30 14772 C 1408.91 -1.93031 -0.351191 0
M  V30 14773 O 1408.04 -1.77376 -1.23963 0
M  V30 14774 C 1408.63 -2.77107 1.94929 0
M  V30 14775 C 1407.19 -3.29227 1.82446 0
M  V30 14776 C 1406.34 -2.02133 1.89835 0
M  V30 14777 H 1409.29 -0.785465 1.37899 0
M  V30 14778 H 1409.31 -3.50459 1.48186 0
M  V30 14779 H 1408.82 -2.47567 2.98885 0
M  V30 14780 H 1406.92 -3.63617 0.813246 0
M  V30 14781 H 1407.04 -3.98095 2.66566 0
M  V30 14782 H 1405.4 -2.16867 1.3357 0
M  V30 14783 H 1406.18 -1.74958 2.95372 0
M  V30 14784 N 1408.63 -1.05812 -1.16797 0
M  V30 14785 C 1409.91 -0.685551 -1.83193 0
M  V30 14786 C 1410.29 0.833539 -1.93947 0
M  V30 14787 O 1409.63 1.74193 -1.47882 0
M  V30 14788 C 1409.84 -1.38183 -3.20479 0
M  V30 14789 C 1411.19 -1.52389 -3.96311 0
M  V30 14790 O 1412.22 -1.34134 -3.2998 0
M  V30 14791 O 1411.08 -1.82297 -5.15199 0
M  V30 14792 H 1408.17 -0.242095 -0.790771 0
M  V30 14793 H 1410.72 -1.15809 -1.24041 0
M  V30 14794 H 1409.49 -2.41791 -3.07657 0
M  V30 14795 H 1409.11 -0.899043 -3.87302 0
M  V30 14796 N 1410.11 1.33347 -0.840014 0
M  V30 14797 C 1411.33 2.02485 -0.448856 0
M  V30 14798 C 1411.76 1.62781 0.942543 0
M  V30 14799 O 1411.12 0.82099 1.61646 0
M  V30 14800 C 1411.16 3.55928 -0.578582 0
M  V30 14801 O 1410.27 4.10507 0.394695 0
M  V30 14802 H 1409.61 0.63848 -0.182317 0
M  V30 14803 H 1412.14 1.70221 -1.13516 0
M  V30 14804 H 1412.15 4.05391 -0.460653 0
M  V30 14805 H 1410.82 3.8417 -1.5933 0
M  V30 14806 H 1409.4 3.72164 0.234227 0
M  V30 14807 N 1411.59 0.596556 1.45873 0
M  V30 14808 C 1412.86 0.0199562 1.9559 0
M  V30 14809 C 1413.24 -1.44479 1.53912 0
M  V30 14810 O 1412.59 -2.14173 0.796384 0
M  V30 14811 C 1412.8 0.206497 3.48389 0
M  V30 14812 C 1414.15 0.0815298 4.24522 0
M  V30 14813 O 1415.17 0.136045 3.5594 0
M  V30 14814 O 1414.03 -0.0426117 5.46483 0
M  V30 14815 H 1411.13 -0.0419913 0.825933 0
M  V30 14816 H 1413.67 0.665846 1.56092 0
M  V30 14817 H 1412.44 1.22422 3.71656 0
M  V30 14818 H 1412.07 -0.475175 3.9475 0
M  V30 14819 N 1413.06 -1.53996 0.335095 0
M  V30 14820 C 1414.03 -2.23385 -0.513015 0
M  V30 14821 C 1415.03 -1.23117 -1.03435 0
M  V30 14822 O 1416.22 -1.47616 -0.924944 0
M  V30 14823 C 1413.35 -2.94691 -1.71377 0
M  V30 14824 H 1414.54 -2.99753 0.0937306 0
M  V30 14825 H 1412.09 -1.56061 0.086326 0
M  V30 14826 H 1412.83 -2.22488 -2.35944 0
M  V30 14827 H 1412.61 -3.68228 -1.34723 0
M  V30 14828 H 1414.1 -3.47525 -2.31552 0
M  V30 14829 N 1414.54 -0.0635198 -1.57472 0
M  V30 14830 C 1415.47 0.93602 -2.09216 0
M  V30 14831 C 1416.49 1.2668 -1.02255 0
M  V30 14832 O 1417.68 1.22543 -1.2979 0
M  V30 14833 C 1414.78 2.25417 -2.53062 0
M  V30 14834 C 1413.95 2.10347 -3.83501 0
M  V30 14835 C 1413.01 3.25394 -4.13528 0
M  V30 14836 O 1412.03 3.00751 -4.83257 0
M  V30 14837 N 1413.24 4.50243 -3.66417 0
M  V30 14838 H 1416 0.494288 -2.95596 0
M  V30 14839 H 1413.56 0.122416 -1.61437 0
M  V30 14840 H 1415.55 3.01272 -2.70217 0
M  V30 14841 H 1414.12 2.61116 -1.71864 0
M  V30 14842 H 1413.34 1.19009 -3.75807 0
M  V30 14843 H 1414.63 1.97519 -4.68896 0
M  V30 14844 H 1414.03 4.73152 -3.1007 0
M  V30 14845 H 1412.59 5.23152 -3.88787 0
M  V30 14846 N 1416.02 1.56195 0.209972 0
M  V30 14847 C 1417.43 1.69811 0.775969 0
M  V30 14848 C 1417.78 0.667543 1.84495 0
M  V30 14849 O 1416.91 -0.179043 2.15658 0
M  V30 14850 C 1417.5 3.07869 1.41429 0
M  V30 14851 C 1416.06 3.233 1.92755 0
M  V30 14852 C 1415.21 2.6575 0.791958 0
M  V30 14853 H 1418.16 1.58693 -0.0148727 0
M  V30 14854 H 1418.18 3.04371 2.28339 0
M  V30 14855 H 1417.69 3.82853 0.63604 0
M  V30 14856 H 1415.79 2.53206 2.73345 0
M  V30 14857 H 1415.91 4.30645 2.09956 0
M  V30 14858 H 1414.27 2.24535 1.20234 0
M  V30 14859 H 1415.05 3.4329 0.0261877 0
M  V30 14860 N 1417.5 -0.477127 1.50204 0
M  V30 14861 C 1418.77 -1.23837 1.51406 0
M  V30 14862 C 1419.15 -2.09551 0.255278 0
M  V30 14863 O 1418.5 -2.15437 -0.761535 0
M  V30 14864 C 1418.71 -2.0746 2.80644 0
M  V30 14865 C 1420.06 -2.65852 3.31071 0
M  V30 14866 O 1421.08 -2.17708 2.81925 0
M  V30 14867 O 1419.94 -3.53556 4.16726 0
M  V30 14868 H 1417.04 -0.561638 0.607036 0
M  V30 14869 H 1419.58 -0.489442 1.62489 0
M  V30 14870 H 1418.36 -1.44258 3.63738 0
M  V30 14871 H 1417.98 -2.895 2.72536 0
M  V30 14872 N 1418.98 -1.3968 -0.729882 0
M  V30 14873 C 1419.94 -1.38577 -1.82562 0
M  V30 14874 C 1420.94 -0.281994 -1.58308 0
M  V30 14875 O 1422.13 -0.540165 -1.65614 0
M  V30 14876 C 1419.26 -1.16343 -3.20433 0
M  V30 14877 H 1420.45 -2.36086 -1.84942 0
M  V30 14878 H 1418.01 -1.25319 -0.934063 0
M  V30 14879 H 1418.74 -0.195372 -3.23711 0
M  V30 14880 H 1418.53 -1.96282 -3.39435 0
M  V30 14881 H 1420.02 -1.18325 -4.00486 0
M  V30 14882 N 1420.45 0.960609 -1.2494 0
M  V30 14883 C 1421.38 2.074 -1.07274 0
M  V30 14884 C 1422.37 1.70092 0.0164365 0
M  V30 14885 O 1423.55 1.93604 -0.151975 0
M  V30 14886 C 1420.68 3.40491 -0.684317 0
M  V30 14887 C 1419.63 3.91784 -1.72306 0
M  V30 14888 C 1418.96 5.21301 -1.18949 0
M  V30 14889 C 1420.26 4.18829 -3.12056 0
M  V30 14890 H 1421.95 2.22438 -2.00404 0
M  V30 14891 H 1419.5 1.06888 -0.964937 0
M  V30 14892 H 1421.45 4.17826 -0.547686 0
M  V30 14893 H 1420.18 3.25374 0.282687 0
M  V30 14894 H 1418.84 3.16613 -1.84802 0
M  V30 14895 H 1418.48 5.02549 -0.212892 0
M  V30 14896 H 1418.18 5.56588 -1.8837 0
M  V30 14897 H 1419.71 6.01238 -1.06513 0
M  V30 14898 H 1421.12 4.86844 -3.02748 0
M  V30 14899 H 1419.52 4.6536 -3.78894 0
M  V30 14900 H 1420.59 3.25333 -3.59564 0
M  V30 14901 N 1421.93 1.0643 1.16234 0
M  V30 14902 C 1423.18 0.78184 1.86798 0
M  V30 14903 C 1423.51 -0.691734 1.81784 0
M  V30 14904 O 1422.76 -1.52271 1.22931 0
M  V30 14905 C 1423.06 1.22348 3.35806 0
M  V30 14906 C 1422.73 2.7014 3.61019 0
M  V30 14907 C 1421.39 3.1051 3.6761 0
M  V30 14908 C 1423.74 3.65582 3.71482 0
M  V30 14909 C 1421.07 4.45159 3.82165 0
M  V30 14910 C 1423.42 4.99981 3.87559 0
M  V30 14911 C 1422.09 5.39986 3.92392 0
M  V30 14912 H 1421.36 0.286096 0.683542 0
M  V30 14913 H 1424 1.33364 1.37427 0
M  V30 14914 H 1422.31 0.590896 3.87319 0
M  V30 14915 H 1424 0.981959 3.88791 0
M  V30 14916 H 1420.59 2.37884 3.56524 0
M  V30 14917 H 1424.78 3.35525 3.657 0
M  V30 14918 H 1420.03 4.75637 3.8416 0
M  V30 14919 H 1424.21 5.73817 3.94597 0
M  V30 14920 H 1421.84 6.44324 4.03423 0
M  V30 14921 N 1423.41 -1.329 0.847073 0
M  V30 14922 C 1424.32 -2.32815 0.288878 0
M  V30 14923 C 1425.34 -1.63715 -0.589363 0
M  V30 14924 O 1426.51 -1.9531 -0.491537 0
M  V30 14925 C 1423.58 -3.42778 -0.519988 0
M  V30 14926 C 1422.64 -4.27584 0.383496 0
M  V30 14927 C 1421.87 -5.32296 -0.386862 0
M  V30 14928 O 1422.09 -5.4698 -1.61768 0
M  V30 14929 O 1421.03 -6.01408 0.2434 0
M  V30 14930 H 1424.85 -2.82434 1.11647 0
M  V30 14931 H 1422.44 -1.36388 0.609807 0
M  V30 14932 H 1424.32 -4.09862 -0.979357 0
M  V30 14933 H 1423 -2.95362 -1.3245 0
M  V30 14934 H 1421.9 -3.63338 0.890879 0
M  V30 14935 H 1423.24 -4.78505 1.15299 0
M  V30 14936 N 1424.89 -0.604284 -1.45555 0
M  V30 14937 C 1426.3 -0.267665 -1.57339 0
M  V30 14938 C 1426.5 1.22984 -1.59616 0
M  V30 14939 O 1425.56 2.0127 -1.52468 0
M  V30 14940 C 1426.87 -0.935923 -2.85764 0
M  V30 14941 C 1428.42 -0.911531 -2.99433 0
M  V30 14942 C 1428.9 -1.55974 -4.30623 0
M  V30 14943 N 1430.39 -1.52507 -4.37374 0
M  V30 14944 C 1431.12 -1.9958 -5.37546 0
M  V30 14945 N 1430.62 -2.54724 -6.44273 0
M  V30 14946 N 1432.41 -1.90368 -5.28882 0
M  V30 14947 H 1424.56 -1.57666 -1.42321 0
M  V30 14948 H 1426.83 -0.66028 -0.680245 0
M  V30 14949 H 1426.53 -1.99022 -2.89971 0
M  V30 14950 H 1426.41 -0.457194 -3.74419 0
M  V30 14951 H 1428.79 0.134206 -2.94795 0
M  V30 14952 H 1428.87 -1.42849 -2.12197 0
M  V30 14953 H 1428.52 -2.60479 -4.3602 0
M  V30 14954 H 1428.45 -1.01782 -5.1667 0
M  V30 14955 H 1430.94 -1.12221 -3.60853 0
M  V30 14956 H 1431.25 -2.88445 -7.16951 0
M  V30 14957 H 1429.6 -2.58761 -6.45033 0
M  V30 14958 H 1432.79 -1.47029 -4.4441 0
M  V30 14959 H 1432.96 -2.27367 -6.06802 0
M  V30 14960 N 1426.37 1.53816 -0.343257 0
M  V30 14961 C 1427.59 2.05326 0.254744 0
M  V30 14962 C 1428.01 1.21824 1.44237 0
M  V30 14963 O 1427.37 0.253507 1.80731 0
M  V30 14964 C 1427.42 3.55235 0.670075 0
M  V30 14965 O 1427.14 4.35568 -0.470322 0
M  V30 14966 C 1428.64 4.22915 1.32882 0
M  V30 14967 H 1425.86 0.669191 0.0492324 0
M  V30 14968 H 1428.4 1.98415 -0.495159 0
M  V30 14969 H 1426.56 3.6237 1.36992 0
M  V30 14970 H 1426.97 5.24315 -0.139303 0
M  V30 14971 H 1428.45 5.29197 1.57019 0
M  V30 14972 H 1428.92 3.75244 2.28229 0
M  V30 14973 H 1429.53 4.19973 0.67102 0
M  V30 14974 N 1427.84 0.0718701 1.57436 0
M  V30 14975 C 1429.26 -0.28476 1.57039 0
M  V30 14976 C 1429.46 -1.70032 1.08127 0
M  V30 14977 O 1428.52 -2.41191 0.747189 0
M  V30 14978 C 1429.83 -0.0943482 3.00552 0
M  V30 14979 C 1431.38 -0.163879 3.12571 0
M  V30 14980 C 1431.85 -0.00174658 4.58 0
M  V30 14981 N 1433.34 -0.0573489 4.63164 0
M  V30 14982 C 1434.08 0.0436849 5.73383 0
M  V30 14983 N 1433.57 0.198243 6.92516 0
M  V30 14984 N 1435.37 -0.0133856 5.62098 0
M  V30 14985 H 1427.52 0.99702 1.87545 0
M  V30 14986 H 1429.78 0.388822 0.864593 0
M  V30 14987 H 1429.49 0.882445 3.40449 0
M  V30 14988 H 1429.36 -0.846636 3.67576 0
M  V30 14989 H 1431.75 -1.13116 2.7256 0
M  V30 14990 H 1431.83 0.619513 2.48185 0
M  V30 14991 H 1431.47 0.9623 4.98701 0
M  V30 14992 H 1431.4 -0.804543 5.20418 0
M  V30 14993 H 1433.89 -0.175212 3.77494 0
M  V30 14994 H 1434.21 0.267479 7.72337 0
M  V30 14995 H 1432.55 0.233606 6.94607 0
M  V30 14996 H 1435.74 -0.132835 4.67911 0
M  V30 14997 H 1435.92 0.0688076 6.47963 0
M  V30 14998 N 1429.32 -1.56304 -0.201686 0
M  V30 14999 C 1430.29 -1.93171 -1.2336 0
M  V30 15000 C 1431.29 -0.812164 -1.38782 0
M  V30 15001 O 1432.48 -1.07967 -1.36707 0
M  V30 15002 C 1429.61 -2.19997 -2.60411 0
M  V30 15003 H 1430.8 -2.85483 -0.918654 0
M  V30 15004 H 1428.35 -1.49893 -0.442935 0
M  V30 15005 H 1429.09 -1.30301 -2.96972 0
M  V30 15006 H 1428.87 -3.01574 -2.5059 0
M  V30 15007 H 1430.36 -2.49547 -3.34838 0
M  V30 15008 N 1430.8 0.469154 -1.50455 0
M  V30 15009 C 1432.21 1.04997 -1.54378 0
M  V30 15010 C 1432.56 1.93082 -0.348414 0
M  V30 15011 O 1431.69 2.09594 0.538469 0
M  V30 15012 C 1432.28 1.91096 -2.79764 0
M  V30 15013 C 1430.84 2.44283 -2.86361 0
M  V30 15014 C 1429.99 1.22676 -2.48688 0
M  V30 15015 H 1432.94 0.251692 -1.56691 0
M  V30 15016 H 1432.96 2.76186 -2.61728 0
M  V30 15017 H 1432.47 1.26961 -3.66746 0
M  V30 15018 H 1430.57 3.11966 -2.03735 0
M  V30 15019 H 1430.69 2.79258 -3.89297 0
M  V30 15020 H 1429.05 1.56215 -2.01169 0
M  V30 15021 H 1429.83 0.602002 -3.37981 0
M  V30 15022 N 1432.28 1.40065 0.722464 0
M  V30 15023 C 1433.69 1.21944 1.02965 0
M  V30 15024 C 1433.89 0.0898069 2.013 0
M  V30 15025 O 1432.95 -0.554519 2.46336 0
M  V30 15026 C 1434.26 2.55848 1.57995 0
M  V30 15027 C 1435.81 2.62801 1.70013 0
M  V30 15028 C 1436.29 3.96957 2.2845 0
M  V30 15029 N 1437.78 3.98662 2.35844 0
M  V30 15030 C 1438.51 4.99248 2.82026 0
M  V30 15031 N 1438.01 6.1023 3.28012 0
M  V30 15032 N 1439.8 4.8662 2.81349 0
M  V30 15033 H 1431.95 2.12283 0.0705301 0
M  V30 15034 H 1434.22 0.943338 0.0938991 0
M  V30 15035 H 1433.92 3.39125 0.932034 0
M  V30 15036 H 1433.8 2.76452 2.5662 0
M  V30 15037 H 1436.18 1.799 2.33923 0
M  V30 15038 H 1436.26 2.46034 0.700062 0
M  V30 15039 H 1435.91 4.80295 1.65164 0
M  V30 15040 H 1435.84 4.1105 3.29158 0
M  V30 15041 H 1438.33 3.18518 2.03358 0
M  V30 15042 H 1438.64 6.82878 3.61797 0
M  V30 15043 H 1436.99 6.13805 3.25988 0
M  V30 15044 H 1440.18 3.99015 2.44755 0
M  V30 15045 H 1440.35 5.65155 3.17024 0
M  V30 15046 N 1433.76 -0.95397 1.25448 0
M  V30 15047 C 1434.71 -2.03623 1.02575 0
M  V30 15048 C 1435.69 -1.60856 -0.0375824 0
M  V30 15049 O 1436.88 -1.76104 0.177833 0
M  V30 15050 C 1434.01 -3.37145 0.64714 0
M  V30 15051 C 1433.1 -3.86434 1.74726 0
M  V30 15052 N 1433.49 -4.08509 2.98251 0
M  V30 15053 C 1431.79 -4.15228 1.62793 0
M  V30 15054 C 1432.49 -4.49137 3.69663 0
M  V30 15055 N 1431.46 -4.55106 2.97287 0
M  V30 15056 H 1435.27 -2.18685 1.96352 0
M  V30 15057 H 1432.78 -1.13884 1.15777 0
M  V30 15058 H 1434.78 -4.14305 0.464462 0
M  V30 15059 H 1433.44 -3.23462 -0.283296 0
M  V30 15060 H 1434.45 -3.95564 3.3429 0
M  V30 15061 H 1431.13 -4.10403 0.766501 0
M  V30 15062 H 1432.52 -4.74515 4.75695 0
M  V30 15063 N 1435.24 -1.07045 -1.15668 0
M  V30 15064 C 1436.19 -0.65786 -2.18303 0
M  V30 15065 C 1437.17 0.315405 -1.57778 0
M  V30 15066 O 1438.36 0.129631 -1.76525 0
M  V30 15067 C 1435.49 -0.0538843 -3.43258 0
M  V30 15068 C 1434.58 -1.0521 -4.10843 0
M  V30 15069 N 1434.97 -2.23051 -4.53963 0
M  V30 15070 C 1433.27 -0.884739 -4.37137 0
M  V30 15071 C 1433.97 -2.86354 -5.06336 0
M  V30 15072 N 1432.94 -2.14037 -4.99689 0
M  V30 15073 H 1436.74 -1.55542 -2.49367 0
M  V30 15074 H 1434.26 -0.9432 -1.32202 0
M  V30 15075 H 1436.26 0.259575 -4.16091 0
M  V30 15076 H 1434.92 0.83883 -3.13678 0
M  V30 15077 H 1435.93 -2.60786 -4.4745 0
M  V30 15078 H 1432.6 -0.0446575 -4.17476 0
M  V30 15079 H 1433.99 -3.86393 -5.49682 0
M  V30 15080 N 1436.71 1.32449 -0.85411 0
M  V30 15081 C 1437.64 2.31383 -0.313697 0
M  V30 15082 C 1438.62 1.59656 0.586858 0
M  V30 15083 O 1439.81 1.87459 0.507216 0
M  V30 15084 C 1436.94 3.43693 0.499235 0
M  V30 15085 C 1435.89 4.26899 -0.306839 0
M  V30 15086 C 1435.22 5.30966 0.630795 0
M  V30 15087 C 1436.52 4.99318 -1.53229 0
M  V30 15088 H 1438.21 2.76832 -1.14037 0
M  V30 15089 H 1435.76 1.33091 -0.549805 0
M  V30 15090 H 1437.71 4.11944 0.887709 0
M  V30 15091 H 1436.44 2.96971 1.35926 0
M  V30 15092 H 1435.1 3.60294 -0.677061 0
M  V30 15093 H 1434.74 4.80498 1.48765 0
M  V30 15094 H 1434.44 5.87522 0.0954635 0
M  V30 15095 H 1435.97 6.0208 1.01646 0
M  V30 15096 H 1437.38 5.60253 -1.21614 0
M  V30 15097 H 1435.78 5.65596 -2.00552 0
M  V30 15098 H 1436.85 4.27213 -2.29383 0
M  V30 15099 N 1438.19 0.611994 1.45232 0
M  V30 15100 C 1439.44 0.108696 2.01807 0
M  V30 15101 C 1439.76 -1.26692 1.48237 0
M  V30 15102 O 1439.03 -1.8378 0.678368 0
M  V30 15103 H 1437.61 0.0371921 0.746074 0
M  V30 15104 H 1440.27 0.794386 1.77976 0
M  V30 15105 H 1439.37 0.0618207 3.12039 0
M  V30 15106 N 1439.67 -1.53632 0.351409 0
M  V30 15107 C 1440.62 -2.22041 -0.517867 0
M  V30 15108 C 1441.6 -1.21057 -1.0599 0
M  V30 15109 O 1442.8 -1.46569 -0.992298 0
M  V30 15110 C 1439.92 -3.00259 -1.66432 0
M  V30 15111 C 1439.01 -4.08607 -1.13584 0
M  V30 15112 N 1439.4 -5.04727 -0.329217 0
M  V30 15113 C 1437.7 -4.23059 -1.412 0
M  V30 15114 C 1438.4 -5.81685 -0.0415005 0
M  V30 15115 N 1437.38 -5.39875 -0.635288 0
M  V30 15116 H 1441.18 -2.93711 0.105386 0
M  V30 15117 H 1438.69 -1.61623 0.15868 0
M  V30 15118 H 1440.69 -3.47774 -2.29911 0
M  V30 15119 H 1439.35 -2.30117 -2.29077 0
M  V30 15120 H 1440.36 -5.17891 0.0303777 0
M  V30 15121 H 1437.04 -3.64139 -2.04227 0
M  V30 15122 H 1438.43 -6.69128 0.609686 0
M  V30 15123 N 1441.15 -0.0802183 -1.57396 0
M  V30 15124 C 1442.08 0.881426 -2.16225 0
M  V30 15125 C 1443.06 1.30459 -1.09154 0
M  V30 15126 O 1444.24 1.37413 -1.37227 0
M  V30 15127 C 1441.37 2.14599 -2.73065 0
M  V30 15128 C 1440.33 1.86195 -3.85377 0
M  V30 15129 C 1439.65 3.19354 -4.28856 0
M  V30 15130 C 1440.95 1.16059 -5.09242 0
M  V30 15131 H 1442.65 0.391325 -2.96832 0
M  V30 15132 H 1440.19 0.186785 -1.42783 0
M  V30 15133 H 1442.15 2.82297 -3.12868 0
M  V30 15134 H 1440.87 2.65866 -1.89691 0
M  V30 15135 H 1439.53 1.209 -3.46091 0
M  V30 15136 H 1439.18 3.68479 -3.42392 0
M  V30 15137 H 1438.88 3.01137 -5.04569 0
M  V30 15138 H 1440.4 3.88235 -4.71281 0
M  V30 15139 H 1441.82 1.7384 -5.46308 0
M  V30 15140 H 1440.21 1.08072 -5.90288 0
M  V30 15141 H 1441.28 0.14098 -4.84695 0
M  V30 15142 N 1442.63 1.56409 0.193394 0
M  V30 15143 C 1443.56 1.97707 1.24234 0
M  V30 15144 C 1444.54 0.849286 1.47381 0
M  V30 15145 O 1445.72 1.11374 1.59089 0
M  V30 15146 C 1442.85 2.31804 2.5862 0
M  V30 15147 C 1441.81 3.47337 2.50082 0
M  V30 15148 C 1441.13 3.67114 3.88756 0
M  V30 15149 C 1442.43 4.81472 2.02441 0
M  V30 15150 H 1444.13 2.8558 0.89914 0
M  V30 15151 H 1441.67 1.37396 0.431078 0
M  V30 15152 H 1443.62 2.5929 3.32185 0
M  V30 15153 H 1442.35 1.40816 2.94684 0
M  V30 15154 H 1441.01 3.19944 1.78973 0
M  V30 15155 H 1440.66 2.73454 4.22175 0
M  V30 15156 H 1440.36 4.44838 3.83918 0
M  V30 15157 H 1441.88 3.96978 4.6394 0
M  V30 15158 H 1443.29 5.07978 2.65766 0
M  V30 15159 H 1441.69 5.62677 2.08601 0
M  V30 15160 H 1442.76 4.74941 0.977704 0
M  V30 15161 N 1444.1 -0.461169 1.50702 0
M  V30 15162 C 1445.33 -1.24019 1.66235 0
M  V30 15163 C 1445.75 -1.84827 0.349388 0
M  V30 15164 O 1445.11 -1.67743 -0.687888 0
M  V30 15165 C 1445.16 -2.31743 2.76274 0
M  V30 15166 O 1444.26 -3.3664 2.38217 0
M  V30 15167 H 1443.6 -0.364424 0.55506 0
M  V30 15168 H 1446.13 -0.547636 1.97135 0
M  V30 15169 H 1446.14 -2.76902 2.99649 0
M  V30 15170 H 1444.82 -1.86858 3.7156 0
M  V30 15171 H 1443.4 -2.97123 2.25327 0
M  V30 15172 N 1445.58 -1.40446 -0.715026 0
M  V30 15173 C 1446.83 -1.3896 -1.47709 0
M  V30 15174 C 1447.16 0.00798698 -1.94198 0
M  V30 15175 O 1446.44 0.976732 -1.68197 0
M  V30 15176 C 1446.72 -2.37955 -2.70277 0
M  V30 15177 C 1446.57 -3.8674 -2.29678 0
M  V30 15178 C 1447.89 -2.34478 -3.72435 0
M  V30 15179 H 1445.01 -0.50607 -0.535782 0
M  V30 15180 H 1447.65 -1.71585 -0.815999 0
M  V30 15181 H 1445.8 -2.10264 -3.26682 0
M  V30 15182 H 1447.47 -4.2526 -1.7875 0
M  V30 15183 H 1445.72 -4.02547 -1.61674 0
M  V30 15184 H 1446.39 -4.51524 -3.17538 0
M  V30 15185 H 1448.86 -2.59007 -3.2566 0
M  V30 15186 H 1447.74 -3.05791 -4.55832 0
M  V30 15187 H 1448 -1.35661 -4.20771 0
M  V30 15188 N 1447.06 0.947303 -1.25952 0
M  V30 15189 C 1448.47 1.50755 -1.10136 0
M  V30 15190 C 1448.82 1.93566 0.320437 0
M  V30 15191 O 1447.95 1.79326 1.21125 0
M  V30 15192 C 1448.54 2.7397 -1.99313 0
M  V30 15193 C 1447.1 3.26283 -1.8766 0
M  V30 15194 C 1446.25 1.99088 -1.93027 0
M  V30 15195 H 1449.2 0.763427 -1.39131 0
M  V30 15196 H 1449.22 3.48057 -1.53742 0
M  V30 15197 H 1448.73 2.42781 -3.02785 0
M  V30 15198 H 1446.83 3.62277 -0.870992 0
M  V30 15199 H 1446.95 3.93803 -2.72866 0
M  V30 15200 H 1445.31 2.14714 -1.37003 0
M  V30 15201 H 1446.09 1.70237 -2.98118 0
M  V30 15202 N 1448.54 1.07657 1.15099 0
M  V30 15203 C 1449.82 0.714608 1.82079 0
M  V30 15204 C 1450.2 -0.802578 1.95248 0
M  V30 15205 O 1449.54 -1.71818 1.50634 0
M  V30 15206 C 1449.75 1.43264 3.1824 0
M  V30 15207 C 1451.1 1.58675 3.93837 0
M  V30 15208 O 1452.13 1.39367 3.27804 0
M  V30 15209 O 1450.98 1.9047 5.12234 0
M  V30 15210 H 1448.08 0.254645 0.786819 0
M  V30 15211 H 1450.62 1.17768 1.22183 0
M  V30 15212 H 1449.4 2.46655 3.03772 0
M  V30 15213 H 1449.02 0.960546 3.85823 0
M  V30 15214 N 1450.02 -1.31994 0.861122 0
M  V30 15215 C 1450.93 -2.32495 0.313555 0
M  V30 15216 C 1451.94 -1.64331 -0.571966 0
M  V30 15217 O 1453.12 -1.9582 -0.470794 0
M  V30 15218 C 1450.18 -3.43311 -0.483603 0
M  V30 15219 C 1449.24 -4.27153 0.428825 0
M  V30 15220 C 1448.48 -5.32676 -0.330383 0
M  V30 15221 O 1448.7 -5.48665 -1.55957 0
M  V30 15222 O 1447.63 -6.01116 0.307174 0
M  V30 15223 H 1451.46 -2.81234 1.14636 0
M  V30 15224 H 1449.05 -1.35734 0.624239 0
M  V30 15225 H 1450.93 -4.10877 -0.935831 0
M  V30 15226 H 1449.6 -2.9675 -1.2931 0
M  V30 15227 H 1448.51 -3.62372 0.929366 0
M  V30 15228 H 1449.84 -4.77255 1.20368 0
M  V30 15229 N 1451.49 -0.619688 -1.44906 0
M  V30 15230 C 1452.72 -0.124598 -2.07025 0
M  V30 15231 C 1453.14 1.18698 -1.45919 0
M  V30 15232 O 1452.5 1.72552 -0.556366 0
M  V30 15233 C 1452.55 -0.0112238 -3.60598 0
M  V30 15234 O 1451.65 1.03582 -3.9918 0
M  V30 15235 H 1451 -0.0795631 -0.659216 0
M  V30 15236 H 1453.53 -0.853127 -1.85965 0
M  V30 15237 H 1453.54 0.183079 -4.07589 0
M  V30 15238 H 1452.21 -0.968849 -4.04458 0
M  V30 15239 H 1450.79 0.817008 -3.6384 0
M  V30 15240 N 1452.97 1.53444 -0.359552 0
M  V30 15241 C 1454.2 2.06058 0.235576 0
M  V30 15242 C 1454.62 1.23175 1.42161 0
M  V30 15243 O 1453.98 0.249338 1.79577 0
M  V30 15244 C 1454.03 3.55351 0.613025 0
M  V30 15245 O 1453.13 3.75229 1.71104 0
M  V30 15246 H 1452.47 0.663038 0.0357266 0
M  V30 15247 H 1455 1.97923 -0.518408 0
M  V30 15248 H 1455.01 3.9827 0.885722 0
M  V30 15249 H 1453.69 4.15122 -0.254243 0
M  V30 15250 H 1452.27 3.4421 1.43437 0
M  V30 15251 N 1454.45 0.0885642 1.57351 0
M  V30 15252 C 1455.41 -0.858178 2.12528 0
M  V30 15253 C 1456.41 -1.21522 1.05304 0
M  V30 15254 O 1457.6 -1.14573 1.3122 0
M  V30 15255 C 1454.74 -2.15619 2.64048 0
M  V30 15256 H 1455.93 -0.37918 2.97493 0
M  V30 15257 H 1453.48 -0.160354 1.55475 0
M  V30 15258 H 1454.22 -2.68018 1.82584 0
M  V30 15259 H 1454 -1.90995 3.42437 0
M  V30 15260 H 1455.49 -2.83359 3.06753 0
M  V30 15261 N 1455.93 -1.56509 -0.185096 0
M  V30 15262 C 1456.86 -1.98363 -1.23184 0
M  V30 15263 C 1457.84 -0.85709 -1.46929 0
M  V30 15264 O 1459.02 -1.12216 -1.58497 0
M  V30 15265 C 1456.15 -2.33172 -2.57387 0
M  V30 15266 C 1455.11 -3.48658 -2.48236 0
M  V30 15267 C 1454.43 -3.69171 -3.86804 0
M  V30 15268 C 1455.73 -4.82538 -1.99885 0
M  V30 15269 H 1457.43 -2.86053 -0.883982 0
M  V30 15270 H 1454.97 -1.37623 -0.423786 0
M  V30 15271 H 1456.93 -2.61048 -3.30805 0
M  V30 15272 H 1455.65 -1.42377 -2.93933 0
M  V30 15273 H 1454.31 -3.20889 -1.77273 0
M  V30 15274 H 1453.96 -2.75689 -4.20719 0
M  V30 15275 H 1453.66 -4.46868 -3.81553 0
M  V30 15276 H 1455.18 -3.99433 -4.61829 0
M  V30 15277 H 1456.6 -5.0938 -2.63068 0
M  V30 15278 H 1454.99 -5.63775 -2.05614 0
M  V30 15279 H 1456.06 -4.75453 -0.952503 0
M  V30 15280 N 1457.41 0.45317 -1.50944 0
M  V30 15281 C 1458.32 1.57435 -1.73929 0
M  V30 15282 C 1459.33 1.62467 -0.622935 0
M  V30 15283 O 1460.51 1.80004 -0.903365 0
M  V30 15284 C 1457.57 2.93534 -1.84495 0
M  V30 15285 C 1456.63 2.98747 -3.083 0
M  V30 15286 C 1455.87 4.28354 -3.18352 0
M  V30 15287 O 1456.09 5.1986 -2.34738 0
M  V30 15288 O 1455.02 4.39527 -4.11217 0
M  V30 15289 H 1458.85 1.40959 -2.69006 0
M  V30 15290 H 1456.44 0.634545 -1.35255 0
M  V30 15291 H 1458.32 3.74336 -1.93522 0
M  V30 15292 H 1456.99 3.10171 -0.926044 0
M  V30 15293 H 1455.9 2.16958 -3.04762 0
M  V30 15294 H 1457.23 2.87051 -3.99828 0
M  V30 15295 N 1458.88 1.40823 0.707568 0
M  V30 15296 C 1460.16 1.3003 1.46122 0
M  V30 15297 C 1460.54 -0.0776873 2.10957 0
M  V30 15298 O 1459.89 -1.09109 2.00767 0
M  V30 15299 C 1460.1 2.44498 2.49042 0
M  V30 15300 C 1461.45 2.85106 3.14642 0
M  V30 15301 O 1462.47 2.44149 2.59364 0
M  V30 15302 O 1461.33 3.55892 4.14733 0
M  V30 15303 H 1458.42 0.511082 0.650172 0
M  V30 15304 H 1460.97 1.52761 0.739062 0
M  V30 15305 H 1459.74 3.36502 1.99705 0
M  V30 15306 H 1459.37 2.23579 3.28783 0
M  V30 15307 N 1460.36 -0.94061 1.26453 0
M  V30 15308 C 1461.78 -1.21424 1.03578 0
M  V30 15309 C 1461.98 -2.00081 -0.238726 0
M  V30 15310 O 1461.03 -2.3404 -0.947709 0
M  V30 15311 C 1462.35 -1.97496 2.26751 0
M  V30 15312 C 1463.9 -2.10485 2.31657 0
M  V30 15313 C 1464.37 -2.89959 3.54525 0
M  V30 15314 N 1465.86 -2.97533 3.55005 0
M  V30 15315 C 1466.6 -3.59456 4.46742 0
M  V30 15316 N 1466.09 -4.22876 5.48769 0
M  V30 15317 N 1467.89 -3.56734 4.34393 0
M  V30 15318 H 1460.04 -0.414788 2.08311 0
M  V30 15319 H 1462.3 -0.246047 0.915513 0
M  V30 15320 H 1462.01 -1.47109 3.19456 0
M  V30 15321 H 1461.88 -2.98159 2.31043 0
M  V30 15322 H 1464.27 -2.60064 1.39466 0
M  V30 15323 H 1464.35 -1.09082 2.31376 0
M  V30 15324 H 1463.99 -2.41067 4.47045 0
M  V30 15325 H 1463.92 -3.91619 3.52054 0
M  V30 15326 H 1466.41 -2.52446 2.81211 0
M  V30 15327 H 1466.73 -4.68026 6.14956 0
M  V30 15328 H 1465.07 -4.21461 5.52626 0
M  V30 15329 H 1468.26 -3.06381 3.53904 0
M  V30 15330 H 1468.43 -4.04706 5.0608 0
M  V30 15331 N 1461.84 -1.08266 -1.14527 0
M  V30 15332 C 1463.09 -0.809856 -1.85164 0
M  V30 15333 C 1463.41 0.666263 -1.83265 0
M  V30 15334 O 1462.68 1.48295 -1.28006 0
M  V30 15335 H 1461.26 -0.296598 -0.685594 0
M  V30 15336 H 1463.92 -1.36834 -1.38789 0
M  V30 15337 H 1463.02 -1.15272 -2.90032 0
M  V30 15338 N 1463.32 1.31536 -0.86811 0
M  V30 15339 C 1464.25 2.31037 -0.33822 0
M  V30 15340 C 1465.23 1.60269 0.569892 0
M  V30 15341 O 1466.42 1.87987 0.487305 0
M  V30 15342 C 1463.55 3.44203 0.462753 0
M  V30 15343 C 1462.5 4.26549 -0.3521 0
M  V30 15344 C 1461.83 5.31605 0.574443 0
M  V30 15345 C 1463.13 4.97665 -1.58516 0
M  V30 15346 H 1464.82 2.75607 -1.16967 0
M  V30 15347 H 1462.37 1.325 -0.56389 0
M  V30 15348 H 1464.32 4.12862 0.843967 0
M  V30 15349 H 1463.04 2.98396 1.32769 0
M  V30 15350 H 1461.7 3.59555 -0.715237 0
M  V30 15351 H 1461.35 4.82048 1.43661 0
M  V30 15352 H 1461.05 5.87591 0.0331436 0
M  V30 15353 H 1462.57 6.03124 0.952541 0
M  V30 15354 H 1463.99 5.58931 -1.27549 0
M  V30 15355 H 1462.38 5.63437 -2.06539 0
M  V30 15356 H 1463.45 4.24756 -2.33902 0
M  V30 15357 N 1464.8 0.627364 1.44575 0
M  V30 15358 C 1465.76 -0.0700881 2.29093 0
M  V30 15359 C 1466.76 -0.775969 1.40838 0
M  V30 15360 O 1467.95 -0.621129 1.6275 0
M  V30 15361 C 1465.08 -1.10977 3.2233 0
M  V30 15362 H 1466.28 0.673234 2.92246 0
M  V30 15363 H 1463.83 0.387322 1.51425 0
M  V30 15364 H 1464.56 -1.8832 2.64019 0
M  V30 15365 H 1464.35 -0.607587 3.87364 0
M  V30 15366 H 1465.84 -1.59764 3.8583 0
M  V30 15367 N 1466.28 -1.53251 0.367684 0
M  V30 15368 C 1467.5 -2.0618 -0.224645 0
M  V30 15369 C 1467.93 -1.23927 -1.41505 0
M  V30 15370 O 1467.28 -0.258858 -1.79443 0
M  V30 15371 C 1467.33 -3.55671 -0.594171 0
M  V30 15372 O 1466.44 -3.76132 -1.69112 0
M  V30 15373 H 1465.78 -0.663218 -0.0322099 0
M  V30 15374 H 1468.31 -1.97646 0.528897 0
M  V30 15375 H 1468.32 -3.98734 -0.864589 0
M  V30 15376 H 1466.99 -4.14982 0.276254 0
M  V30 15377 H 1465.57 -3.44965 -1.41609 0
M  V30 15378 N 1467.75 -0.0969077 -1.57302 0
M  V30 15379 C 1468.98 0.578086 -1.99181 0
M  V30 15380 C 1469.4 1.60818 -0.975667 0
M  V30 15381 O 1468.76 1.81215 0.0556054 0
M  V30 15382 C 1468.81 1.20076 -3.40021 0
M  V30 15383 O 1467.91 2.31656 -3.41188 0
M  V30 15384 H 1467.25 0.146506 -0.647636 0
M  V30 15385 H 1469.78 -0.178855 -2.03817 0
M  V30 15386 H 1469.79 1.54162 -3.77754 0
M  V30 15387 H 1468.47 0.446114 -4.135 0
M  V30 15388 H 1467.05 1.99175 -3.15252 0
M  V30 15389 N 1469.23 1.56605 0.176793 0
M  V30 15390 C 1470.64 1.71418 0.739775 0
M  V30 15391 C 1470.99 0.706527 1.83037 0
M  V30 15392 O 1470.12 -0.133259 2.15989 0
M  V30 15393 C 1470.71 3.10799 1.34867 0
M  V30 15394 C 1469.27 3.27315 1.85854 0
M  V30 15395 C 1468.42 2.67371 0.73541 0
M  V30 15396 H 1471.37 1.58626 -0.0485305 0
M  V30 15397 H 1471.39 3.09146 2.21831 0
M  V30 15398 H 1470.9 3.84116 0.554688 0
M  V30 15399 H 1469 2.58947 2.67913 0
M  V30 15400 H 1469.12 4.35002 2.00774 0
M  V30 15401 H 1467.48 2.27035 1.15444 0
M  V30 15402 H 1468.26 3.43268 -0.0466351 0
M  V30 15403 N 1470.71 -0.445159 1.51182 0
M  V30 15404 C 1471.62 -1.5651 1.74762 0
M  V30 15405 C 1472.64 -1.62134 0.631542 0
M  V30 15406 O 1473.81 -1.79522 0.912898 0
M  V30 15407 C 1470.88 -2.92552 1.86049 0
M  V30 15408 C 1469.94 -2.97108 3.0988 0
M  V30 15409 C 1469.17 -4.2666 3.2062 0
M  V30 15410 O 1469.39 -5.18608 2.37491 0
M  V30 15411 O 1468.33 -4.3734 4.13542 0
M  V30 15412 H 1472.15 -1.3953 2.6975 0
M  V30 15413 H 1469.74 -0.627363 1.3559 0
M  V30 15414 H 1471.62 -3.73304 1.95504 0
M  V30 15415 H 1470.3 -3.09676 0.94248 0
M  V30 15416 H 1469.2 -2.15338 3.05909 0
M  V30 15417 H 1470.54 -2.84927 4.01345 0
M  V30 15418 N 1472.19 -1.41197 -0.700089 0
M  V30 15419 C 1473.46 -1.30803 -1.4543 0
M  V30 15420 C 1473.84 0.0664987 -2.10995 0
M  V30 15421 O 1473.19 1.08043 -2.01343 0
M  V30 15422 C 1473.4 -2.45815 -2.47742 0
M  V30 15423 C 1474.75 -2.86771 -3.13126 0
M  V30 15424 O 1475.77 -2.45521 -2.58065 0
M  V30 15425 O 1474.63 -3.58086 -4.1284 0
M  V30 15426 H 1471.73 -0.514523 -0.647453 0
M  V30 15427 H 1474.27 -1.53151 -0.73095 0
M  V30 15428 H 1473.05 -3.37557 -1.97917 0
M  V30 15429 H 1472.67 -2.25319 -3.27593 0
M  V30 15430 N 1473.67 0.933891 -1.2695 0
M  V30 15431 C 1475.08 1.20873 -1.0422 0
M  V30 15432 C 1475.28 2.00205 0.228112 0
M  V30 15433 O 1474.34 2.34539 0.935284 0
M  V30 15434 C 1475.65 1.9629 -2.27795 0
M  V30 15435 C 1477.2 2.09254 -2.3277 0
M  V30 15436 C 1477.67 2.88075 -3.56057 0
M  V30 15437 N 1479.16 2.95646 -3.56578 0
M  V30 15438 C 1479.9 3.57082 -4.48642 0
M  V30 15439 N 1479.4 4.1996 -5.51004 0
M  V30 15440 N 1481.19 3.54425 -4.36279 0
M  V30 15441 H 1473.34 0.403735 -2.08528 0
M  V30 15442 H 1475.6 0.241189 -0.916805 0
M  V30 15443 H 1475.31 1.45412 -3.20231 0
M  V30 15444 H 1475.18 2.9693 -2.32621 0
M  V30 15445 H 1477.57 2.5932 -1.40844 0
M  V30 15446 H 1477.65 1.07854 -2.31951 0
M  V30 15447 H 1477.29 2.38693 -4.48317 0
M  V30 15448 H 1477.22 3.89746 -3.54126 0
M  V30 15449 H 1479.72 2.50951 -2.82545 0
M  V30 15450 H 1480.03 4.64758 -6.1743 0
M  V30 15451 H 1478.37 4.18525 -5.54853 0
M  V30 15452 H 1481.56 3.045 -3.55524 0
M  V30 15453 H 1481.74 4.02016 -5.0822 0
M  V30 15454 N 1475.14 1.08871 1.13951 0
M  V30 15455 C 1476.42 0.73388 1.81311 0
M  V30 15456 C 1476.8 -0.781824 1.96089 0
M  V30 15457 O 1476.15 -1.70211 1.52448 0
M  V30 15458 C 1476.36 1.46631 3.16702 0
M  V30 15459 C 1477.71 1.62843 3.92132 0
M  V30 15460 O 1478.73 1.42836 3.26307 0
M  V30 15461 O 1477.59 1.95893 5.10185 0
M  V30 15462 H 1474.68 0.262976 0.784074 0
M  V30 15463 H 1477.23 1.19057 1.20927 0
M  V30 15464 H 1476 2.49863 3.01138 0
M  V30 15465 H 1475.62 1.00141 3.84782 0
M  V30 15466 N 1476.62 -1.31073 0.875073 0
M  V30 15467 C 1477.55 -2.27335 0.291809 0
M  V30 15468 C 1478.57 -1.53298 -0.548036 0
M  V30 15469 O 1479.76 -1.7464 -0.369198 0
M  V30 15470 C 1476.86 -3.33465 -0.604521 0
M  V30 15471 C 1476.03 -4.36924 0.204029 0
M  V30 15472 C 1475.09 -5.2252 -0.621238 0
M  V30 15473 O 1474.11 -5.6918 -0.0474551 0
M  V30 15474 N 1475.32 -5.47397 -1.93227 0
M  V30 15475 H 1478.08 -2.78024 1.11906 0
M  V30 15476 H 1475.64 -1.44149 0.737064 0
M  V30 15477 H 1477.63 -3.87646 -1.16243 0
M  V30 15478 H 1476.2 -2.8278 -1.33244 0
M  V30 15479 H 1475.42 -3.82745 0.943389 0
M  V30 15480 H 1476.71 -5.03112 0.758644 0
M  V30 15481 H 1476.11 -5.11253 -2.4215 0
M  V30 15482 H 1474.67 -6.04493 -2.43785 0
M  V30 15483 N 1478.1 -0.635022 -1.4424 0
M  V30 15484 C 1479.35 -0.140788 -2.01609 0
M  V30 15485 C 1479.67 1.24317 -1.50234 0
M  V30 15486 O 1478.94 1.82677 -0.707519 0
M  V30 15487 H 1477.52 -0.0490568 -0.745387 0
M  V30 15488 H 1480.18 -0.8226 -1.7669 0
M  V30 15489 H 1479.28 -0.111456 -3.11901 0
M  V30 15490 N 1479.58 1.53054 -0.375806 0
M  V30 15491 C 1480.51 2.28973 0.45754 0
M  V30 15492 C 1481.49 1.31812 1.07516 0
M  V30 15493 O 1482.67 1.60693 1.09048 0
M  V30 15494 C 1479.8 3.08657 1.59212 0
M  V30 15495 C 1478.76 4.1359 1.10123 0
M  V30 15496 C 1478.08 4.81417 2.32684 0
M  V30 15497 C 1479.38 5.21994 0.17872 0
M  V30 15498 H 1481.08 2.98883 -0.175872 0
M  V30 15499 H 1478.62 1.43743 -0.0860253 0
M  V30 15500 H 1480.58 3.6052 2.18182 0
M  V30 15501 H 1479.3 2.36456 2.25291 0
M  V30 15502 H 1477.96 3.62688 0.534151 0
M  V30 15503 H 1477.61 4.05778 2.97243 0
M  V30 15504 H 1477.31 5.52332 2.00506 0
M  V30 15505 H 1478.83 5.36079 2.92322 0
M  V30 15506 H 1480.25 5.69298 0.676204 0
M  V30 15507 H 1478.64 6.00077 -0.0526605 0
M  V30 15508 H 1479.71 4.78646 -0.776246 0
M  V30 15509 N 1481.06 0.105248 1.57248 0
M  V30 15510 C 1482.3 -0.556054 1.94716 0
M  V30 15511 C 1482.63 -1.67557 0.987669 0
M  V30 15512 O 1481.89 -1.95698 0.00905706 0
M  V30 15513 C 1482.19 -1.14178 3.38671 0
M  V30 15514 C 1481.85 -0.145022 4.50667 0
M  V30 15515 C 1480.51 0.129099 4.81027 0
M  V30 15516 C 1482.87 0.535015 5.18447 0
M  V30 15517 C 1480.19 1.08978 5.7649 0
M  V30 15518 C 1482.55 1.48423 6.14942 0
M  V30 15519 C 1481.21 1.76648 6.43702 0
M  V30 15520 H 1480.48 -0.203475 0.712516 0
M  V30 15521 H 1483.13 0.183237 1.90621 0
M  V30 15522 H 1481.43 -1.95754 3.39393 0
M  V30 15523 H 1483.13 -1.66132 3.64967 0
M  V30 15524 H 1479.72 -0.36886 4.2701 0
M  V30 15525 H 1483.9 0.336391 4.95159 0
M  V30 15526 H 1479.16 1.31535 5.97083 0
M  V30 15527 H 1483.33 2.01693 6.66553 0
M  V30 15528 H 1480.96 2.51245 7.17482 0
M  V30 15529 N 1482.53 -1.56697 -0.168486 0
M  V30 15530 C 1483.46 -1.99659 -1.21073 0
M  V30 15531 C 1484.45 -0.872625 -1.46011 0
M  V30 15532 O 1485.63 -1.13891 -1.57297 0
M  V30 15533 C 1482.76 -2.35889 -2.54899 0
M  V30 15534 C 1481.71 -3.51272 -2.44524 0
M  V30 15535 C 1481.04 -3.73253 -3.82866 0
M  V30 15536 C 1482.34 -4.84631 -1.94756 0
M  V30 15537 H 1484.03 -2.86974 -0.853593 0
M  V30 15538 H 1481.58 -1.38065 -0.409165 0
M  V30 15539 H 1483.53 -2.64542 -3.28017 0
M  V30 15540 H 1482.26 -1.45486 -2.92406 0
M  V30 15541 H 1480.92 -3.22751 -1.7386 0
M  V30 15542 H 1480.56 -2.80136 -4.17772 0
M  V30 15543 H 1480.26 -4.5089 -3.76792 0
M  V30 15544 H 1481.79 -4.04309 -4.57566 0
M  V30 15545 H 1483.2 -5.12142 -2.5765 0
M  V30 15546 H 1481.6 -5.65925 -1.99623 0
M  V30 15547 H 1482.67 -4.76436 -0.902021 0
M  V30 15548 N 1484.01 0.437135 -1.51416 0
M  V30 15549 C 1484.94 1.538 -1.75692 0
M  V30 15550 C 1485.92 1.5891 -0.606759 0
M  V30 15551 O 1487.11 1.74635 -0.849492 0
M  V30 15552 C 1484.24 2.91877 -1.88215 0
M  V30 15553 C 1483.19 3.01628 -3.03652 0
M  V30 15554 C 1482.52 4.41687 -3.01358 0
M  V30 15555 C 1483.82 2.75691 -4.43612 0
M  V30 15556 H 1485.51 1.33737 -2.67871 0
M  V30 15557 H 1483.06 0.641936 -1.289 0
M  V30 15558 H 1485.01 3.68851 -2.03781 0
M  V30 15559 H 1483.74 3.13173 -0.926847 0
M  V30 15560 H 1482.39 2.27094 -2.87791 0
M  V30 15561 H 1482.04 4.5995 -2.03605 0
M  V30 15562 H 1481.74 4.49141 -3.78875 0
M  V30 15563 H 1483.27 5.20634 -3.19018 0
M  V30 15564 H 1484.68 3.42398 -4.59822 0
M  V30 15565 H 1483.08 2.94554 -5.22836 0
M  V30 15566 H 1484.15 1.71297 -4.53636 0
M  V30 15567 N 1485.49 1.41566 0.692592 0
M  V30 15568 C 1486.91 1.24101 1.00355 0
M  V30 15569 C 1487.11 0.132485 2.01064 0
M  V30 15570 O 1486.16 -0.502142 2.47457 0
M  V30 15571 C 1487.48 2.59142 1.52532 0
M  V30 15572 C 1489.02 2.66348 1.64401 0
M  V30 15573 C 1489.5 4.01713 2.19978 0
M  V30 15574 N 1490.99 4.03575 2.27335 0
M  V30 15575 C 1491.72 5.05118 2.71373 0
M  V30 15576 N 1491.22 6.1705 3.14994 0
M  V30 15577 N 1493.01 4.92479 2.70963 0
M  V30 15578 H 1485.16 2.12385 0.0254859 0
M  V30 15579 H 1487.43 0.945118 0.0738684 0
M  V30 15580 H 1487.13 3.41026 0.85989 0
M  V30 15581 H 1487.01 2.81833 2.50699 0
M  V30 15582 H 1489.39 1.84821 2.30055 0
M  V30 15583 H 1489.48 2.47464 0.647717 0
M  V30 15584 H 1489.12 4.8369 1.54939 0
M  V30 15585 H 1489.05 4.1794 3.20365 0
M  V30 15586 H 1491.54 3.2276 1.96556 0
M  V30 15587 H 1491.85 6.90399 3.47231 0
M  V30 15588 H 1490.2 6.20582 3.12895 0
M  V30 15589 H 1493.39 4.04117 2.36236 0
M  V30 15590 H 1493.56 5.71752 3.04965 0
M  V30 15591 N 1486.97 -0.927146 1.27443 0
M  V30 15592 C 1487.92 -2.02783 1.10216 0
M  V30 15593 C 1488.89 -1.661 0.00307842 0
M  V30 15594 O 1490.07 -1.90081 0.165508 0
M  V30 15595 C 1487.21 -3.36718 0.755984 0
M  V30 15596 C 1486.32 -3.86353 1.93276 0
M  V30 15597 C 1485.46 -5.08737 1.52841 0
M  V30 15598 C 1484.5 -5.50669 2.67263 0
M  V30 15599 N 1483.63 -6.6425 2.27413 0
M  V30 15600 H 1488.47 -2.16851 2.04401 0
M  V30 15601 H 1486.01 -1.06232 1.0175 0
M  V30 15602 H 1487.97 -4.13741 0.53609 0
M  V30 15603 H 1486.6 -3.22456 -0.148909 0
M  V30 15604 H 1485.65 -3.05604 2.26518 0
M  V30 15605 H 1486.96 -4.13401 2.79108 0
M  V30 15606 H 1486.12 -5.93263 1.26979 0
M  V30 15607 H 1484.86 -4.83467 0.641187 0
M  V30 15608 H 1483.86 -4.64692 2.93839 0
M  V30 15609 H 1485.09 -5.77934 3.56607 0
M  V30 15610 H 1483.03 -6.40636 1.41143 0
M  V30 15611 H 1482.95 -6.90955 3.06784 0
M  V30 15612 H 1484.22 -7.52115 2.048 0
M  V30 15613 N 1488.45 -1.09474 -1.13372 0
M  V30 15614 C 1489.72 -0.743485 -1.80919 0
M  V30 15615 C 1490.1 0.771414 -1.965 0
M  V30 15616 O 1489.45 1.694 -1.53349 0
M  V30 15617 C 1489.66 -1.48309 -3.1592 0
M  V30 15618 C 1491.01 -1.64921 -3.91263 0
M  V30 15619 O 1492.03 -1.44564 -3.25545 0
M  V30 15620 O 1490.89 -1.98595 -5.09139 0
M  V30 15621 H 1487.99 -0.26713 -0.782669 0
M  V30 15622 H 1490.53 -1.19697 -1.20294 0
M  V30 15623 H 1489.3 -2.51456 -2.99809 0
M  V30 15624 H 1488.93 -1.02181 -3.84246 0
M  V30 15625 N 1489.92 1.30607 -0.882012 0
M  V30 15626 C 1491.15 2.00954 -0.513048 0
M  V30 15627 C 1491.57 1.65697 0.890279 0
M  V30 15628 O 1490.93 0.872001 1.58952 0
M  V30 15629 C 1490.98 3.53907 -0.691525 0
M  V30 15630 O 1490.08 4.11555 0.263896 0
M  V30 15631 H 1489.43 0.632356 -0.202537 0
M  V30 15632 H 1491.96 1.66524 -1.18874 0
M  V30 15633 H 1491.97 4.0372 -0.589392 0
M  V30 15634 H 1490.64 3.78907 -1.71471 0
M  V30 15635 H 1489.22 3.7272 0.115707 0
M  V30 15636 N 1491.4 0.642663 1.43901 0
M  V30 15637 C 1492.31 -0.0562462 2.34533 0
M  V30 15638 C 1493.33 -0.823457 1.53281 0
M  V30 15639 O 1494.5 -0.773103 1.85971 0
M  V30 15640 C 1491.57 -1.01787 3.31422 0
M  V30 15641 C 1490.63 -0.248759 4.28579 0
M  V30 15642 C 1489.86 -1.16458 5.20839 0
M  V30 15643 O 1490.09 -2.40361 5.17284 0
M  V30 15644 O 1489.02 -0.642671 5.98459 0
M  V30 15645 H 1492.85 0.689476 2.9577 0
M  V30 15646 H 1490.43 0.402847 1.43866 0
M  V30 15647 H 1492.31 -1.5708 3.91029 0
M  V30 15648 H 1490.99 -1.744 2.72702 0
M  V30 15649 H 1489.9 0.347495 3.72483 0
M  V30 15650 H 1491.23 0.437589 4.90251 0
M  V30 15651 N 1492.88 -1.52852 0.383918 0
M  V30 15652 C 1494.3 -1.59565 0.0336391 0
M  V30 15653 C 1494.5 -1.39819 -1.45097 0
M  V30 15654 O 1493.55 -1.21249 -2.21484 0
M  V30 15655 C 1494.87 -2.96412 0.506001 0
M  V30 15656 C 1496.41 -3.09575 0.461794 0
M  V30 15657 C 1496.89 -4.48863 0.910259 0
M  V30 15658 N 1498.38 -4.55032 0.866053 0
M  V30 15659 C 1499.12 -5.61032 1.18453 0
M  V30 15660 N 1498.61 -6.74701 1.57321 0
M  V30 15661 N 1500.4 -5.51109 1.10613 0
M  V30 15662 H 1492.56 -1.63937 1.3505 0
M  V30 15663 H 1494.82 -0.769857 0.553194 0
M  V30 15664 H 1494.52 -3.16061 1.54268 0
M  V30 15665 H 1494.4 -3.77073 -0.0977643 0
M  V30 15666 H 1496.79 -2.89625 -0.565786 0
M  V30 15667 H 1496.87 -2.30879 1.10129 0
M  V30 15668 H 1496.51 -4.69553 1.93604 0
M  V30 15669 H 1496.44 -5.26017 0.247825 0
M  V30 15670 H 1498.93 -3.73423 0.579962 0
M  V30 15671 H 1499.24 -7.51545 1.8 0
M  V30 15672 H 1497.59 -6.76046 1.61203 0
M  V30 15673 H 1500.78 -4.61187 0.801531 0
M  V30 15674 H 1500.95 -6.33618 1.35766 0
M  V30 15675 N 1494.36 -0.113586 -1.5719 0
M  V30 15676 C 1495.78 0.243023 -1.57739 0
M  V30 15677 C 1495.98 1.67105 -1.12597 0
M  V30 15678 O 1495.03 2.39126 -0.810874 0
M  V30 15679 C 1496.34 0.014629 -3.00696 0
M  V30 15680 C 1497.89 0.0809485 -3.12895 0
M  V30 15681 C 1498.37 -0.119685 -4.57844 0
M  V30 15682 N 1499.86 -0.0654711 -4.63154 0
M  V30 15683 C 1500.59 -0.195692 -5.73066 0
M  V30 15684 N 1500.09 -0.381782 -6.91747 0
M  V30 15685 N 1501.88 -0.13565 -5.61936 0
M  V30 15686 H 1494.03 -1.04639 -1.84836 0
M  V30 15687 H 1496.3 -0.411609 -0.85398 0
M  V30 15688 H 1496 -0.972399 -3.3799 0
M  V30 15689 H 1495.88 0.748882 -3.69691 0
M  V30 15690 H 1498.26 1.0585 -2.75463 0
M  V30 15691 H 1498.34 -0.685097 -2.46455 0
M  V30 15692 H 1497.99 -1.09418 -4.95974 0
M  V30 15693 H 1497.92 0.666281 -5.22368 0
M  V30 15694 H 1500.41 0.0750649 -3.77825 0
M  V30 15695 H 1500.72 -0.472157 -7.71356 0
M  V30 15696 H 1499.07 -0.417686 -6.93744 0
M  V30 15697 H 1502.26 0.0087301 -4.68099 0
M  V30 15698 H 1502.43 -0.240579 -6.47553 0
M  V30 15699 N 1495.84 1.56784 0.160173 0
M  V30 15700 C 1496.8 1.96373 1.18195 0
M  V30 15701 C 1497.8 0.848674 1.3658 0
M  V30 15702 O 1498.99 1.11553 1.33796 0
M  V30 15703 C 1496.12 2.26824 2.54487 0
M  V30 15704 H 1497.32 2.87819 0.842641 0
M  V30 15705 H 1494.87 1.51014 0.403038 0
M  V30 15706 H 1495.6 1.38129 2.93413 0
M  V30 15707 H 1495.39 3.08112 2.42507 0
M  V30 15708 H 1496.88 2.58337 3.28104 0
M  V30 15709 N 1497.32 -0.429099 1.51646 0
M  V30 15710 C 1498.56 -1.17482 1.63954 0
M  V30 15711 C 1498.88 -1.92152 0.36565 0
M  V30 15712 O 1500.08 -2.68991 0.368221 0
M  V30 15713 C 1498.54 -2.13703 2.89585 0
M  V30 15714 C 1498.15 -1.44642 4.24008 0
M  V30 15715 C 1499.89 -2.88657 3.11252 0
M  V30 15716 C 1497.8 -2.39395 5.40781 0
M  V30 15717 H 1496.73 -0.442234 0.610692 0
M  V30 15718 H 1499.38 -0.441088 1.7812 0
M  V30 15719 H 1497.76 -2.90545 2.69071 0
M  V30 15720 H 1498.94 -0.733012 4.54932 0
M  V30 15721 H 1497.25 -0.818084 4.08285 0
M  V30 15722 H 1499.85 -3.59653 3.95669 0
M  V30 15723 H 1500.19 -3.50473 2.24664 0
M  V30 15724 H 1500.72 -2.18919 3.32144 0
M  V30 15725 H 1497.46 -1.82255 6.29653 0
M  V30 15726 H 1496.98 -3.08766 5.14222 0
M  V30 15727 H 1498.66 -3.0035 5.73061 0
M  V30 15728 N 1498.79 -1.41931 -0.685074 0
M  V30 15729 C 1499.72 -1.47385 -1.81107 0
M  V30 15730 C 1500.7 -0.331433 -1.6684 0
M  V30 15731 O 1501.89 -0.544331 -1.86415 0
M  V30 15732 C 1499.02 -1.36555 -3.19327 0
M  V30 15733 C 1497.97 -2.48718 -3.48315 0
M  V30 15734 C 1497.3 -2.2295 -4.86002 0
M  V30 15735 C 1498.6 -3.91047 -3.46237 0
M  V30 15736 H 1500.29 -2.41624 -1.768 0
M  V30 15737 H 1497.84 -1.16297 -0.849178 0
M  V30 15738 H 1499.79 -1.38981 -3.97822 0
M  V30 15739 H 1498.52 -0.388063 -3.24286 0
M  V30 15740 H 1497.18 -2.45592 -2.72176 0
M  V30 15741 H 1496.82 -1.23518 -4.87598 0
M  V30 15742 H 1496.52 -2.98116 -5.0636 0
M  V30 15743 H 1498.05 -2.27108 -5.66793 0
M  V30 15744 H 1499.46 -3.95831 -4.14718 0
M  V30 15745 H 1497.86 -4.65981 -3.7813 0
M  V30 15746 H 1498.93 -4.1845 -2.45006 0
M  V30 15747 N 1500.27 0.920374 -1.27933 0
M  V30 15748 C 1501.5 1.70028 -1.17363 0
M  V30 15749 C 1501.91 1.87246 0.271214 0
M  V30 15750 O 1501.25 1.39449 1.19581 0
M  V30 15751 C 1501.31 3.11595 -1.79301 0
M  V30 15752 C 1500.98 3.17687 -3.28518 0
M  V30 15753 C 1501.98 2.99383 -4.25048 0
M  V30 15754 C 1499.66 3.40412 -3.69357 0
M  V30 15755 C 1501.65 3.03704 -5.60395 0
M  V30 15756 C 1499.34 3.44367 -5.04832 0
M  V30 15757 C 1500.34 3.26032 -6.0016 0
M  V30 15758 O 1500.03 3.29735 -7.33164 0
M  V30 15759 H 1499.76 0.538497 -0.408652 0
M  V30 15760 H 1502.31 1.16086 -1.6945 0
M  V30 15761 H 1500.54 3.6705 -1.217 0
M  V30 15762 H 1502.23 3.71584 -1.63341 0
M  V30 15763 H 1503 2.8166 -3.94833 0
M  V30 15764 H 1498.88 3.53731 -2.95627 0
M  V30 15765 H 1502.42 2.89312 -6.34779 0
M  V30 15766 H 1498.32 3.61616 -5.347 0
M  V30 15767 H 1499.09 3.46141 -7.41707 0
M  V30 15768 N 1501.75 1.10074 1.1279 0
M  V30 15769 C 1502.7 0.746173 2.18405 0
M  V30 15770 C 1503.67 -0.275751 1.63795 0
M  V30 15771 O 1504.85 -0.155876 1.90162 0
M  V30 15772 C 1501.99 0.180105 3.4463 0
M  V30 15773 C 1501.1 1.25688 4.13312 0
M  V30 15774 C 1500.24 0.652852 5.27173 0
M  V30 15775 C 1499.28 1.71046 5.87716 0
M  V30 15776 N 1498.42 1.12698 6.92996 0
M  V30 15777 H 1503.26 1.65105 2.48081 0
M  V30 15778 H 1500.79 0.824768 1.21803 0
M  V30 15779 H 1502.75 -0.165948 4.1687 0
M  V30 15780 H 1501.38 -0.688014 3.15383 0
M  V30 15781 H 1500.43 1.72011 3.39288 0
M  V30 15782 H 1501.74 2.05762 4.54382 0
M  V30 15783 H 1500.9 0.25603 6.0616 0
M  V30 15784 H 1499.64 -0.17937 4.8737 0
M  V30 15785 H 1498.64 2.11676 5.07418 0
M  V30 15786 H 1499.87 2.54547 6.29589 0
M  V30 15787 H 1497.81 0.316154 6.55238 0
M  V30 15788 H 1497.73 1.86461 7.32645 0
M  V30 15789 H 1499 0.756582 7.7582 0
M  V30 15790 N 1503.23 -1.30138 0.888926 0
M  V30 15791 C 1504.48 -1.95265 0.5054 0
M  V30 15792 C 1504.79 -1.70925 -0.950998 0
M  V30 15793 O 1506 -2.30069 -1.44155 0
M  V30 15794 C 1504.45 -3.49647 0.852937 0
M  V30 15795 C 1504.06 -3.82802 2.32737 0
M  V30 15796 C 1505.8 -4.21067 0.538801 0
M  V30 15797 C 1503.71 -5.30379 2.61633 0
M  V30 15798 H 1502.64 -0.730882 0.185278 0
M  V30 15799 H 1505.29 -1.48027 1.08444 0
M  V30 15800 H 1503.67 -3.9548 0.202937 0
M  V30 15801 H 1504.85 -3.47866 3.02202 0
M  V30 15802 H 1503.16 -3.24495 2.60944 0
M  V30 15803 H 1505.76 -5.2967 0.731676 0
M  V30 15804 H 1506.1 -4.13014 -0.522039 0
M  V30 15805 H 1506.64 -3.8093 1.14617 0
M  V30 15806 H 1503.37 -5.43486 3.66473 0
M  V30 15807 H 1502.89 -5.66601 1.96782 0
M  V30 15808 H 1504.57 -5.97856 2.47339 0
M  V30 15809 N 1504.71 -0.650285 -1.43559 0
M  V30 15810 C 1505.64 0.0295939 -2.33481 0
M  V30 15811 C 1506.62 0.815017 -1.49303 0
M  V30 15812 O 1507.8 0.77708 -1.77975 0
M  V30 15813 C 1504.93 0.998683 -3.32631 0
M  V30 15814 C 1503.89 0.323577 -4.26775 0
M  V30 15815 C 1503.21 1.40391 -5.1594 0
M  V30 15816 C 1504.51 -0.782197 -5.1641 0
M  V30 15817 H 1506.21 -0.721349 -2.9058 0
M  V30 15818 H 1503.75 -0.348339 -1.39723 0
M  V30 15819 H 1505.7 1.4832 -3.94435 0
M  V30 15820 H 1504.43 1.78075 -2.73782 0
M  V30 15821 H 1503.09 -0.140467 -3.66331 0
M  V30 15822 H 1502.74 2.17734 -4.53432 0
M  V30 15823 H 1502.44 0.957462 -5.79747 0
M  V30 15824 H 1503.96 1.88985 -5.80618 0
M  V30 15825 H 1505.37 -0.379966 -5.72039 0
M  V30 15826 H 1503.77 -1.15293 -5.88921 0
M  V30 15827 H 1504.84 -1.6414 -4.56274 0
M  V30 15828 N 1506.18 1.52647 -0.392018 0
M  V30 15829 C 1507.43 2.02584 0.182039 0
M  V30 15830 C 1507.78 1.27325 1.44243 0
M  V30 15831 O 1507.08 0.365951 1.88073 0
M  V30 15832 C 1507.27 3.53872 0.500914 0
M  V30 15833 C 1507.1 4.43784 -0.727027 0
M  V30 15834 C 1505.87 4.89669 -1.24711 0
M  V30 15835 C 1508.07 4.88774 -1.60014 0
M  V30 15836 N 1506.05 5.63659 -2.43231 0
M  V30 15837 C 1507.42 5.61373 -2.63174 0
M  V30 15838 C 1509.48 4.70811 -1.61992 0
M  V30 15839 C 1508.18 6.17916 -3.68202 0
M  V30 15840 C 1510.21 5.28239 -2.65927 0
M  V30 15841 C 1509.57 6.00746 -3.6781 0
M  V30 15842 H 1505.67 0.781476 0.0286289 0
M  V30 15843 H 1508.25 1.86989 -0.54252 0
M  V30 15844 H 1506.42 3.69575 1.19453 0
M  V30 15845 H 1508.15 3.90507 1.06236 0
M  V30 15846 H 1504.91 4.66662 -0.807697 0
M  V30 15847 H 1505.33 6.05305 -3.03208 0
M  V30 15848 H 1509.97 4.14256 -0.845699 0
M  V30 15849 H 1507.69 6.73552 -4.4649 0
M  V30 15850 H 1511.28 5.1622 -2.68344 0
M  V30 15851 H 1510.16 6.44389 -4.46914 0
M  V30 15852 N 1507.66 0.121921 1.57128 0
M  V30 15853 C 1508.57 -0.840825 2.19014 0
M  V30 15854 C 1509.59 -1.29051 1.16712 0
M  V30 15855 O 1510.76 -1.35289 1.49194 0
M  V30 15856 C 1507.83 -2.07204 2.7797 0
M  V30 15857 C 1506.89 -1.67399 3.95318 0
M  V30 15858 C 1506.12 -2.84652 4.51452 0
M  V30 15859 O 1506.35 -4.00161 4.06482 0
M  V30 15860 O 1505.28 -2.61568 5.42094 0
M  V30 15861 H 1509.11 -0.344146 3.01744 0
M  V30 15862 H 1506.69 -0.103841 1.49039 0
M  V30 15863 H 1508.57 -2.79307 3.1554 0
M  V30 15864 H 1507.25 -2.55872 1.9827 0
M  V30 15865 H 1506.16 -0.92395 3.62511 0
M  V30 15866 H 1507.49 -1.2347 4.76462 0
M  V30 15867 N 1509.14 -1.56867 -0.151857 0
M  V30 15868 C 1510.05 -2.01157 -1.20718 0
M  V30 15869 C 1511.07 -0.926166 -1.47303 0
M  V30 15870 O 1512.24 -1.23528 -1.59069 0
M  V30 15871 C 1509.31 -2.37915 -2.52185 0
M  V30 15872 C 1508.37 -3.60381 -2.3329 0
M  V30 15873 C 1507.6 -3.95376 -3.58488 0
M  V30 15874 O 1507.82 -3.31093 -4.64471 0
M  V30 15875 O 1506.76 -4.88645 -3.5144 0
M  V30 15876 H 1510.58 -2.91234 -0.861175 0
M  V30 15877 H 1508.17 -1.44993 -0.360213 0
M  V30 15878 H 1510.05 -2.6244 -3.29702 0
M  V30 15879 H 1508.73 -1.50995 -2.86325 0
M  V30 15880 H 1507.63 -3.4105 -1.5374 0
M  V30 15881 H 1508.97 -4.47903 -2.04067 0
M  V30 15882 N 1510.62 0.421051 -1.51871 0
M  V30 15883 C 1511.55 1.53094 -1.70572 0
M  V30 15884 C 1512.56 1.5188 -0.586201 0
M  V30 15885 O 1513.75 1.56361 -0.861013 0
M  V30 15886 C 1510.85 2.92002 -1.72011 0
M  V30 15887 C 1510.03 3.17541 -3.0081 0
M  V30 15888 C 1509.08 4.36259 -2.94219 0
M  V30 15889 O 1508.11 4.34118 -3.68144 0
M  V30 15890 N 1509.31 5.40722 -2.11188 0
M  V30 15891 H 1512.08 1.3745 -2.66322 0
M  V30 15892 H 1509.64 0.610204 -1.4996 0
M  V30 15893 H 1511.63 3.6947 -1.65149 0
M  V30 15894 H 1510.2 3.01162 -0.837861 0
M  V30 15895 H 1509.42 2.28225 -3.21414 0
M  V30 15896 H 1510.71 3.3144 -3.86037 0
M  V30 15897 H 1510.11 5.45304 -1.50534 0
M  V30 15898 H 1508.66 6.16979 -2.10192 0
M  V30 15899 N 1512.1 1.42293 0.677538 0
M  V30 15900 C 1513.04 1.45787 1.81243 0
M  V30 15901 C 1514.04 0.333895 1.66077 0
M  V30 15902 O 1515.24 0.50678 1.72719 0
M  V30 15903 H 1511.62 0.456538 0.597559 0
M  V30 15904 H 1513.59 2.41398 1.75413 0
M  V30 15905 C 1512.34 1.37449 3.19379 0
M  V30 15906 H 1511.66 2.23231 3.31674 0
M  V30 15907 H 1513.1 1.43955 3.98814 0
M  V30 15908 C 1511.56 0.0889433 3.36783 0
M  V30 15909 O 1512.09 -0.859357 3.924 0
M  V30 15910 N 1510.3 0.00698476 2.90599 0
M  V30 15911 H 1509.84 0.779459 2.45524 0
M  V30 15912 H 1509.8 -0.852522 3.02621 0
M  V30 15913 N 1513.57 -0.913576 1.28419 0
M  V30 15914 C 1514.51 -2.02073 1.08163 0
M  V30 15915 C 1515.52 -1.62766 0.0333064 0
M  V30 15916 O 1516.71 -1.76347 0.27638 0
M  V30 15917 C 1513.81 -3.33151 0.621596 0
M  V30 15918 C 1512.98 -4.01068 1.74536 0
M  V30 15919 C 1512.04 -5.10428 1.27868 0
M  V30 15920 O 1511.07 -5.33617 1.98094 0
M  V30 15921 N 1512.27 -5.80326 0.141976 0
M  V30 15922 H 1515.03 -2.20009 2.0351 0
M  V30 15923 H 1512.59 -1.08488 1.20174 0
M  V30 15924 H 1514.59 -4.03638 0.292989 0
M  V30 15925 H 1513.16 -3.11685 -0.239031 0
M  V30 15926 H 1512.38 -3.24127 2.24355 0
M  V30 15927 H 1513.66 -4.4319 2.49919 0
M  V30 15928 H 1513.06 -5.63956 -0.443845 0
M  V30 15929 H 1511.62 -6.51676 -0.127354 0
M  V30 15930 N 1515.05 -1.1067 -1.12204 0
M  V30 15931 C 1516.3 -0.85189 -1.8404 0
M  V30 15932 C 1516.63 0.620988 -1.84004 0
M  V30 15933 O 1515.91 1.45801 -1.28734 0
M  V30 15934 C 1516.19 -1.40401 -3.31602 0
M  V30 15935 C 1516.04 -2.94392 -3.40078 0
M  V30 15936 C 1517.36 -1.04834 -4.27432 0
M  V30 15937 H 1514.48 -0.310924 -0.668203 0
M  V30 15938 H 1517.12 -1.37026 -1.3162 0
M  V30 15939 H 1515.27 -0.963107 -3.76373 0
M  V30 15940 H 1516.94 -3.47027 -3.03924 0
M  V30 15941 H 1515.19 -3.3087 -2.80548 0
M  V30 15942 H 1515.86 -3.28107 -4.43903 0
M  V30 15943 H 1518.33 -1.42882 -3.90799 0
M  V30 15944 H 1517.21 -1.46153 -5.29085 0
M  V30 15945 H 1517.47 0.0419272 -4.4208 0
M  V30 15946 N 1516.53 1.29665 -0.895815 0
M  V30 15947 C 1517.49 2.26103 -0.3755 0
M  V30 15948 C 1518.49 1.53212 0.488126 0
M  V30 15949 O 1519.68 1.71706 0.293733 0
M  V30 15950 C 1516.82 3.37732 0.46364 0
M  V30 15951 H 1518.01 2.73643 -1.22718 0
M  V30 15952 H 1515.56 1.4104 -0.673613 0
M  V30 15953 H 1516.3 2.95526 1.33546 0
M  V30 15954 H 1516.08 3.91793 -0.155123 0
M  V30 15955 H 1517.57 4.09488 0.819112 0
M  V30 15956 N 1518.01 0.657889 1.43212 0
M  V30 15957 C 1519.23 0.179444 2.06622 0
M  V30 15958 C 1519.66 -1.14787 1.49015 0
M  V30 15959 O 1519.02 -1.71016 0.60192 0
M  V30 15960 C 1519.06 0.106826 3.60442 0
M  V30 15961 O 1518.17 -0.92962 4.01786 0
M  V30 15962 H 1517.51 0.0970131 0.656875 0
M  V30 15963 H 1520.04 0.902132 1.83638 0
M  V30 15964 H 1520.05 -0.07495 4.07931 0
M  V30 15965 H 1518.72 1.07574 4.01747 0
M  V30 15966 H 1517.3 -0.720255 3.65878 0
M  V30 15967 N 1519.49 -1.52437 0.400108 0
M  V30 15968 C 1520.43 -2.28312 -0.444572 0
M  V30 15969 C 1521.43 -1.32641 -1.0537 0
M  V30 15970 O 1522.63 -1.50136 -0.99293 0
M  V30 15971 H 1519.01 -0.734313 -0.162137 0
M  V30 15972 H 1520.98 -2.97612 0.216702 0
M  V30 15973 C 1519.73 -3.11044 -1.55393 0
M  V30 15974 H 1519.05 -3.84525 -1.09455 0
M  V30 15975 H 1520.49 -3.67255 -2.11896 0
M  V30 15976 C 1518.95 -2.24035 -2.51614 0
M  V30 15977 O 1519.48 -1.87447 -3.55284 0
M  V30 15978 N 1517.69 -1.87982 -2.2161 0
M  V30 15979 H 1517.23 -2.17936 -1.37338 0
M  V30 15980 H 1517.19 -1.30058 -2.86238 0
M  V30 15981 N 1520.96 -0.130252 -1.57061 0
M  V30 15982 C 1521.89 0.812189 -2.18919 0
M  V30 15983 C 1522.88 1.2692 -1.13249 0
M  V30 15984 O 1524.06 1.32978 -1.41529 0
M  V30 15985 C 1521.19 2.05803 -2.79754 0
M  V30 15986 C 1520.14 1.73841 -3.91105 0
M  V30 15987 C 1519.47 3.05549 -4.38799 0
M  V30 15988 C 1520.77 0.997991 -5.12677 0
M  V30 15989 H 1522.46 0.296692 -2.97926 0
M  V30 15990 H 1520.01 0.141265 -1.43305 0
M  V30 15991 H 1521.96 2.72201 -3.21691 0
M  V30 15992 H 1520.69 2.59697 -1.98053 0
M  V30 15993 H 1519.35 1.09828 -3.49762 0
M  V30 15994 H 1518.99 3.57399 -3.53942 0
M  V30 15995 H 1518.69 2.84932 -5.13894 0
M  V30 15996 H 1520.22 3.73045 -4.83394 0
M  V30 15997 H 1521.63 1.56372 -5.51562 0
M  V30 15998 H 1520.03 0.892378 -5.93428 0
M  V30 15999 H 1521.1 -0.0132936 -4.84898 0
M  V30 16000 N 1522.44 1.56945 0.143535 0
M  V30 16001 C 1523.38 1.95134 1.2023 0
M  V30 16002 C 1524.39 0.847593 1.38995 0
M  V30 16003 O 1525.58 1.12599 1.38505 0
M  V30 16004 C 1522.68 2.21316 2.56656 0
M  V30 16005 C 1521.85 3.52604 2.58822 0
M  V30 16006 C 1520.91 3.67285 3.76813 0
M  V30 16007 O 1519.94 4.39644 3.61527 0
M  V30 16008 N 1521.14 3.04208 4.94406 0
M  V30 16009 H 1523.9 2.86561 0.87766 0
M  V30 16010 H 1521.46 1.58437 0.333065 0
M  V30 16011 H 1523.46 2.28375 3.34106 0
M  V30 16012 H 1522.03 1.36137 2.81399 0
M  V30 16013 H 1521.25 3.56954 1.67264 0
M  V30 16014 H 1522.53 4.38944 2.57304 0
M  V30 16015 H 1521.93 2.45344 5.09728 0
M  V30 16016 H 1520.49 3.16824 5.69619 0
M  V30 16017 N 1523.92 -0.412991 1.52093 0
M  V30 16018 C 1524.83 -1.52768 1.78042 0
M  V30 16019 C 1525.85 -1.60758 0.665791 0
M  V30 16020 O 1527.02 -1.77545 0.950772 0
M  V30 16021 C 1524.09 -2.8854 1.92213 0
M  V30 16022 C 1523.15 -2.90468 3.16112 0
M  V30 16023 C 1522.38 -4.19763 3.29598 0
M  V30 16024 O 1522.61 -5.13454 2.48438 0
M  V30 16025 O 1521.54 -4.2847 4.22726 0
M  V30 16026 H 1525.37 -1.33777 2.72649 0
M  V30 16027 H 1522.95 -0.598461 1.3689 0
M  V30 16028 H 1524.83 -3.69073 2.03379 0
M  V30 16029 H 1523.51 -3.07607 1.00795 0
M  V30 16030 H 1522.41 -2.08801 3.10408 0
M  V30 16031 H 1523.75 -2.76349 4.07298 0
M  V30 16032 N 1525.4 -1.4265 -0.669982 0
M  V30 16033 C 1526.64 -1.44866 -1.44199 0
M  V30 16034 C 1527 -0.0647049 -1.91891 0
M  V30 16035 O 1528.2 0.0384187 -2.68773 0
M  V30 16036 C 1526.48 -2.44846 -2.60356 0
M  V30 16037 S 1528.03 -2.65803 -3.49134 0
M  V30 16038 H 1524.85 -0.512859 -0.49244 0
M  V30 16039 H 1527.45 -1.7929 -0.779442 0
M  V30 16040 H 1526.16 -3.44161 -2.23565 0
M  V30 16041 H 1525.69 -2.11863 -3.31478 0
M  V30 16042 H 1527.7 -1.94466 -4.56506 0
M  V30 16043 N 1526.88 0.906753 -1.28902 0
M  V30 16044 C 1528.12 1.65903 -1.16636 0
M  V30 16045 C 1528.46 1.92127 0.282981 0
M  V30 16046 O 1527.73 1.52666 1.20513 0
M  V30 16047 C 1528.01 3.01257 -1.97272 0
M  V30 16048 C 1527.87 2.82143 -3.50308 0
M  V30 16049 C 1529.19 4.01893 -1.7936 0
M  V30 16050 H 1526.31 0.602063 -0.425076 0
M  V30 16051 H 1528.95 1.05081 -1.58297 0
M  V30 16052 H 1527.1 3.53172 -1.61871 0
M  V30 16053 H 1528.77 2.37184 -3.95653 0
M  V30 16054 H 1527.01 2.17063 -3.75588 0
M  V30 16055 H 1527.68 3.78293 -4.01993 0
M  V30 16056 H 1530.16 3.59064 -2.10267 0
M  V30 16057 H 1529.04 4.9455 -2.38141 0
M  V30 16058 H 1529.3 4.35745 -0.746923 0
M  V30 16059 N 1528.36 1.11264 1.11616 0
M  V30 16060 C 1529.32 0.7726 2.15786 0
M  V30 16061 C 1530.32 -0.207145 1.5946 0
M  V30 16062 O 1531.51 0.0171053 1.74192 0
M  V30 16063 C 1528.64 0.145927 3.40588 0
M  V30 16064 H 1529.83 1.69539 2.47379 0
M  V30 16065 H 1527.39 0.914278 1.2677 0
M  V30 16066 H 1528.12 -0.787178 3.14601 0
M  V30 16067 H 1527.91 0.851161 3.8275 0
M  V30 16068 H 1529.4 -0.0759176 4.17531 0
M  V30 16069 N 1529.83 -1.29188 0.902679 0
M  V30 16070 C 1530.77 -2.26665 0.339964 0
M  V30 16071 C 1531.78 -1.54426 -0.515396 0
M  V30 16072 O 1532.97 -1.75384 -0.332071 0
M  V30 16073 C 1530.07 -3.34672 -0.533653 0
M  V30 16074 C 1529.24 -4.36393 0.296661 0
M  V30 16075 C 1528.3 -5.2372 -0.510264 0
M  V30 16076 O 1527.33 -5.69153 0.0732871 0
M  V30 16077 N 1528.53 -5.51373 -1.81572 0
M  V30 16078 H 1531.29 -2.75588 1.17778 0
M  V30 16079 H 1528.85 -1.42553 0.767474 0
M  V30 16080 H 1530.85 -3.90025 -1.07995 0
M  V30 16081 H 1529.42 -2.85543 -1.27216 0
M  V30 16082 H 1528.64 -3.80658 1.02436 0
M  V30 16083 H 1529.92 -5.0139 0.865191 0
M  V30 16084 H 1529.32 -5.16275 -2.31251 0
M  V30 16085 H 1527.88 -6.09528 -2.30908 0
M  V30 16086 N 1531.31 -0.665475 -1.42861 0
M  V30 16087 C 1532.54 -0.190399 -2.06524 0
M  V30 16088 C 1532.96 1.13995 -1.49622 0
M  V30 16089 O 1532.32 1.70695 -0.610981 0
M  V30 16090 C 1532.37 -0.12594 -3.6038 0
M  V30 16091 O 1531.47 0.908299 -4.02273 0
M  V30 16092 H 1530.81 -0.100495 -0.656351 0
M  V30 16093 H 1533.34 -0.911858 -1.83156 0
M  V30 16094 H 1533.35 0.0533153 -4.07965 0
M  V30 16095 H 1532.03 -1.09703 -4.01171 0
M  V30 16096 H 1530.6 0.700841 -3.66255 0
M  V30 16097 N 1532.79 1.52222 -0.408187 0
M  V30 16098 C 1534.01 2.06703 0.169901 0
M  V30 16099 C 1534.44 1.27635 1.3817 0
M  V30 16100 O 1533.8 0.306343 1.78693 0
M  V30 16101 C 1533.85 3.57121 0.499663 0
M  V30 16102 O 1532.95 3.80483 1.5908 0
M  V30 16103 H 1532.29 0.663839 0.0146145 0
M  V30 16104 H 1534.82 1.96174 -0.581113 0
M  V30 16105 H 1534.83 4.00886 0.758567 0
M  V30 16106 H 1533.51 4.14103 -0.386182 0
M  V30 16107 H 1532.08 3.48599 1.32413 0
M  V30 16108 N 1534.27 0.138579 1.5699 0
M  V30 16109 C 1535.18 -0.817548 2.19894 0
M  V30 16110 C 1536.19 -1.27806 1.18075 0
M  V30 16111 O 1537.37 -1.33699 1.5062 0
M  V30 16112 C 1534.43 -2.04244 2.80152 0
M  V30 16113 C 1533.5 -1.63197 3.97071 0
M  V30 16114 C 1532.73 -2.79847 4.54446 0
M  V30 16115 O 1532.95 -3.95827 4.10703 0
M  V30 16116 O 1531.89 -2.55804 5.44838 0
M  V30 16117 H 1535.71 -0.312123 3.02092 0
M  V30 16118 H 1533.3 -0.0880281 1.4914 0
M  V30 16119 H 1535.18 -2.75945 3.18485 0
M  V30 16120 H 1533.85 -2.53755 2.00973 0
M  V30 16121 H 1532.76 -0.885448 3.6347 0
M  V30 16122 H 1534.09 -1.1841 4.77745 0
M  V30 16123 N 1535.75 -1.57019 -0.13521 0
M  V30 16124 C 1536.66 -2.02427 -1.18578 0
M  V30 16125 C 1537.67 -0.941738 -1.46312 0
M  V30 16126 O 1538.85 -1.25208 -1.57749 0
M  V30 16127 C 1535.91 -2.40577 -2.49647 0
M  V30 16128 C 1534.97 -3.62835 -2.29455 0
M  V30 16129 C 1534.21 -3.99156 -3.54274 0
M  V30 16130 O 1534.43 -3.36001 -4.60933 0
M  V30 16131 O 1533.36 -4.92345 -3.46238 0
M  V30 16132 H 1537.19 -2.92131 -0.830237 0
M  V30 16133 H 1534.77 -1.45366 -0.344814 0
M  V30 16134 H 1536.66 -2.65922 -3.269 0
M  V30 16135 H 1535.33 -1.54023 -2.84708 0
M  V30 16136 H 1534.24 -3.42661 -1.50114 0
M  V30 16137 H 1535.57 -4.50043 -1.99305 0
M  V30 16138 N 1537.22 0.404919 -1.52309 0
M  V30 16139 C 1538.15 1.50039 -1.78915 0
M  V30 16140 C 1539.14 1.57587 -0.640329 0
M  V30 16141 O 1540.32 1.72793 -0.886344 0
M  V30 16142 C 1537.45 2.87819 -1.94364 0
M  V30 16143 C 1536.4 2.9512 -3.09981 0
M  V30 16144 C 1535.73 4.35195 -3.10659 0
M  V30 16145 C 1537.03 2.66219 -4.4936 0
M  V30 16146 H 1538.72 1.28025 -2.70647 0
M  V30 16147 H 1536.27 0.61445 -1.30233 0
M  V30 16148 H 1538.22 3.64446 -2.11559 0
M  V30 16149 H 1536.95 3.11136 -0.993067 0
M  V30 16150 H 1535.61 2.20939 -2.92543 0
M  V30 16151 H 1535.25 4.55528 -2.13316 0
M  V30 16152 H 1534.95 4.41003 -3.88317 0
M  V30 16153 H 1536.48 5.1375 -3.29989 0
M  V30 16154 H 1537.89 3.32567 -4.66982 0
M  V30 16155 H 1536.29 2.83398 -5.28967 0
M  V30 16156 H 1537.36 1.61636 -4.57167 0
M  V30 16157 N 1538.7 1.43003 0.662408 0
M  V30 16158 C 1539.65 1.43898 1.76854 0
M  V30 16159 C 1540.64 0.308629 1.57912 0
M  V30 16160 O 1541.83 0.551757 1.6818 0
M  V30 16161 C 1538.96 1.35585 3.15391 0
M  V30 16162 C 1538.04 2.53614 3.39913 0
M  V30 16163 N 1538.43 3.78998 3.34954 0
M  V30 16164 C 1536.73 2.48141 3.70597 0
M  V30 16165 C 1537.43 4.57467 3.59303 0
M  V30 16166 N 1536.41 3.8806 3.80671 0
M  V30 16167 H 1540.21 2.38722 1.71432 0
M  V30 16168 H 1537.73 1.37526 0.863728 0
M  V30 16169 H 1539.72 1.34308 3.94673 0
M  V30 16170 H 1538.38 0.417735 3.22002 0
M  V30 16171 H 1539.39 4.11417 3.14574 0
M  V30 16172 H 1536.07 1.62971 3.84379 0
M  V30 16173 H 1537.46 5.66475 3.61326 0
M  V30 16174 N 1540.18 -0.899904 1.29381 0
M  V30 16175 C 1541.11 -2.02045 1.17047 0
M  V30 16176 C 1542.09 -1.69977 0.0647354 0
M  V30 16177 O 1543.28 -1.92659 0.244173 0
M  V30 16178 C 1540.41 -3.36839 0.845991 0
M  V30 16179 C 1539.36 -3.83117 1.90802 0
M  V30 16180 C 1538.69 -5.15032 1.43686 0
M  V30 16181 C 1539.99 -4.03464 3.31684 0
M  V30 16182 H 1541.68 -2.12623 2.10789 0
M  V30 16183 H 1539.23 -1.02162 1.01484 0
M  V30 16184 H 1541.18 -4.14737 0.746413 0
M  V30 16185 H 1539.9 -3.26352 -0.127125 0
M  V30 16186 H 1538.56 -3.07435 1.99698 0
M  V30 16187 H 1538.21 -5.00961 0.452422 0
M  V30 16188 H 1537.91 -5.46967 2.14711 0
M  V30 16189 H 1539.43 -5.95472 1.35078 0
M  V30 16190 H 1540.85 -4.71845 3.25631 0
M  V30 16191 H 1539.25 -4.46752 4.00665 0
M  V30 16192 H 1540.32 -3.07807 3.74677 0
M  V30 16193 N 1541.66 -1.11854 -1.11024 0
M  V30 16194 C 1542.88 -0.892999 -1.8719 0
M  V30 16195 C 1543.31 0.552058 -1.79816 0
M  V30 16196 O 1542.67 1.39025 -1.16369 0
M  V30 16197 C 1542.71 -1.3647 -3.33779 0
M  V30 16198 O 1541.82 -0.539202 -4.0886 0
M  V30 16199 H 1541.16 -0.321319 -0.581076 0
M  V30 16200 H 1543.69 -1.4891 -1.4031 0
M  V30 16201 H 1543.7 -1.3611 -3.84627 0
M  V30 16202 H 1542.37 -2.41694 -3.38462 0
M  V30 16203 H 1540.95 -0.60927 -3.67889 0
M  V30 16204 N 1543.14 1.28707 -0.909517 0
M  V30 16205 C 1544.38 1.95443 -0.541281 0
M  V30 16206 C 1544.72 1.71457 0.911934 0
M  V30 16207 O 1543.99 1.03312 1.64794 0
M  V30 16208 C 1544.27 3.50019 -0.846097 0
M  V30 16209 C 1544.13 3.83423 -2.35173 0
M  V30 16210 C 1545.45 4.3879 -0.339328 0
M  V30 16211 H 1542.56 0.709869 -0.198128 0
M  V30 16212 H 1545.21 1.52151 -1.13799 0
M  V30 16213 H 1543.36 3.87025 -0.338262 0
M  V30 16214 H 1545.03 3.5631 -2.92986 0
M  V30 16215 H 1543.27 3.30618 -2.80846 0
M  V30 16216 H 1543.94 4.91348 -2.51557 0
M  V30 16217 H 1546.42 4.08832 -0.774312 0
M  V30 16218 H 1545.29 5.45809 -0.581722 0
M  V30 16219 H 1545.56 4.35514 0.760244 0
M  V30 16220 N 1544.61 0.673042 1.42506 0
M  V30 16221 C 1545.86 0.194192 2.01165 0
M  V30 16222 C 1546.18 -1.2029 1.53477 0
M  V30 16223 O 1545.45 -1.80737 0.755704 0
M  V30 16224 H 1544.03 0.0688022 0.743825 0
M  V30 16225 H 1546.7 0.869157 1.74447 0
M  V30 16226 H 1545.79 0.194111 3.11496 0
M  V30 16227 N 1546.09 -1.52004 0.416254 0
M  V30 16228 C 1547.04 -2.24037 -0.423226 0
M  V30 16229 C 1548.03 -1.25444 -1.0076 0
M  V30 16230 O 1549.22 -1.50646 -0.92924 0
M  V30 16231 C 1546.35 -3.07048 -1.53547 0
M  V30 16232 C 1545.43 -4.13056 -0.961518 0
M  V30 16233 N 1545.82 -5.0567 -0.114849 0
M  V30 16234 C 1544.12 -4.28667 -1.2313 0
M  V30 16235 C 1544.82 -5.81338 0.205249 0
M  V30 16236 N 1543.8 -5.42084 -0.405736 0
M  V30 16237 H 1547.6 -2.93 0.229864 0
M  V30 16238 H 1545.12 -1.60804 0.227087 0
M  V30 16239 H 1547.11 -3.57212 -2.14954 0
M  V30 16240 H 1545.77 -2.39626 -2.19111 0
M  V30 16241 H 1546.78 -5.17296 0.250006 0
M  V30 16242 H 1543.46 -3.72474 -1.88599 0
M  V30 16243 H 1544.85 -6.6594 0.892938 0
M  V30 16244 N 1547.57 -0.146903 -1.56914 0
M  V30 16245 C 1548.82 0.504195 -1.95297 0
M  V30 16246 C 1549.13 1.66019 -1.03426 0
M  V30 16247 O 1550.34 2.37591 -1.31388 0
M  V30 16248 C 1548.79 0.948348 -3.47181 0
M  V30 16249 C 1548.4 -0.18071 -4.47635 0
M  V30 16250 C 1550.15 1.56924 -3.9443 0
M  V30 16251 C 1548.05 0.281707 -5.90729 0
M  V30 16252 H 1546.98 0.192127 -0.729111 0
M  V30 16253 H 1549.63 -0.231232 -1.82037 0
M  V30 16254 H 1548.02 1.73903 -3.55772 0
M  V30 16255 H 1549.19 -0.957645 -4.50739 0
M  V30 16256 H 1547.51 -0.710007 -4.10302 0
M  V30 16257 H 1550.1 1.92684 -4.98776 0
M  V30 16258 H 1550.45 2.45816 -3.35976 0
M  V30 16259 H 1550.98 0.843456 -3.88755 0
M  V30 16260 H 1547.72 -0.571839 -6.53001 0
M  V30 16261 H 1547.24 1.02452 -5.90985 0
M  V30 16262 H 1548.92 0.733746 -6.42826 0
M  V30 16263 N 1549.05 1.57088 0.126881 0
M  V30 16264 C 1550 1.99764 1.15599 0
M  V30 16265 C 1550.97 0.868468 1.41587 0
M  V30 16266 O 1552.15 1.13209 1.53585 0
M  V30 16267 C 1549.29 2.40038 2.47943 0
M  V30 16268 C 1548.4 3.66336 2.28958 0
M  V30 16269 C 1547.54 3.95626 3.54477 0
M  V30 16270 C 1546.58 5.15131 3.30616 0
M  V30 16271 N 1545.71 5.4033 4.48317 0
M  V30 16272 H 1550.55 2.87473 0.785078 0
M  V30 16273 H 1548.09 1.42209 0.376169 0
M  V30 16274 H 1550.05 2.61423 3.25136 0
M  V30 16275 H 1548.68 1.55382 2.82942 0
M  V30 16276 H 1547.73 3.52612 1.4272 0
M  V30 16277 H 1549.04 4.53684 2.07298 0
M  V30 16278 H 1548.2 4.17617 4.40092 0
M  V30 16279 H 1546.94 3.06738 3.79161 0
M  V30 16280 H 1545.94 4.92992 2.43391 0
M  V30 16281 H 1547.17 6.05588 3.0731 0
M  V30 16282 H 1545.11 4.54399 4.73136 0
M  V30 16283 H 1545.03 6.21985 4.29733 0
M  V30 16284 H 1546.3 5.66835 5.35088 0
M  V30 16285 N 1550.53 -0.396836 1.52522 0
M  V30 16286 C 1551.46 -1.50361 1.72986 0
M  V30 16287 C 1552.47 -1.50928 0.610289 0
M  V30 16288 O 1553.66 -1.54972 0.88578 0
M  V30 16289 C 1550.76 -2.89229 1.76635 0
M  V30 16290 C 1549.93 -3.12715 3.05824 0
M  V30 16291 C 1548.99 -4.31523 3.01122 0
M  V30 16292 O 1548.02 -4.28207 3.75004 0
M  V30 16293 N 1549.22 -5.37294 2.19763 0
M  V30 16294 H 1551.99 -1.33196 2.68475 0
M  V30 16295 H 1549.55 -0.586269 1.50912 0
M  V30 16296 H 1551.54 -3.66796 1.71006 0
M  V30 16297 H 1550.11 -2.99791 0.885667 0
M  V30 16298 H 1549.33 -2.23083 3.25004 0
M  V30 16299 H 1550.62 -3.25257 3.91261 0
M  V30 16300 H 1550.01 -5.4284 1.5919 0
M  V30 16301 H 1548.57 -6.13557 2.19981 0
M  V30 16302 N 1552.01 -1.43353 -0.654814 0
M  V30 16303 C 1553.25 -1.44172 -1.41058 0
M  V30 16304 C 1553.57 -0.0690586 -1.95478 0
M  V30 16305 O 1554.77 0.0453021 -2.71462 0
M  V30 16306 C 1553.23 -2.53701 -2.55272 0
M  V30 16307 C 1552.84 -3.97066 -2.07466 0
M  V30 16308 C 1554.58 -2.63713 -3.3265 0
M  V30 16309 C 1552.49 -4.98065 -3.18881 0
M  V30 16310 H 1551.42 -0.536303 -0.529995 0
M  V30 16311 H 1554.07 -1.69336 -0.706941 0
M  V30 16312 H 1552.45 -2.21736 -3.28099 0
M  V30 16313 H 1553.63 -4.38485 -1.4166 0
M  V30 16314 H 1551.94 -3.91086 -1.42972 0
M  V30 16315 H 1554.54 -3.36346 -4.15663 0
M  V30 16316 H 1554.88 -1.68729 -3.80574 0
M  V30 16317 H 1555.41 -2.94971 -2.66902 0
M  V30 16318 H 1552.15 -5.94596 -2.75927 0
M  V30 16319 H 1551.67 -4.61261 -3.83404 0
M  V30 16320 H 1553.35 -5.20696 -3.84037 0
M  V30 16321 N 1553.48 0.89303 -1.29857 0
M  V30 16322 C 1554.73 1.63881 -1.17583 0
M  V30 16323 C 1555.05 1.93723 0.270293 0
M  V30 16324 O 1556.25 2.66582 0.514432 0
M  V30 16325 C 1554.71 2.95327 -2.05694 0
M  V30 16326 C 1554.32 2.73055 -3.55169 0
M  V30 16327 C 1556.06 3.7327 -2.02162 0
M  V30 16328 C 1553.97 4.00268 -4.35361 0
M  V30 16329 H 1552.9 0.614815 -0.436485 0
M  V30 16330 H 1555.55 0.989339 -1.54546 0
M  V30 16331 H 1553.93 3.61523 -1.61607 0
M  V30 16332 H 1555.1 2.1541 -4.07351 0
M  V30 16333 H 1553.42 2.08498 -3.6044 0
M  V30 16334 H 1556.02 4.67601 -2.59333 0
M  V30 16335 H 1556.36 4.04032 -1.00318 0
M  V30 16336 H 1556.89 3.13925 -2.44328 0
M  V30 16337 H 1553.63 3.74669 -5.37869 0
M  V30 16338 H 1553.15 4.57448 -3.87945 0
M  V30 16339 H 1554.83 4.68358 -4.46374 0
M  V30 16340 N 1554.96 1.12442 1.10429 0
M  V30 16341 C 1556.21 0.878021 1.82031 0
M  V30 16342 C 1556.53 -0.597787 1.85611 0
M  V30 16343 O 1555.8 -1.43442 1.33422 0
M  V30 16344 H 1554.38 0.321839 0.674113 0
M  V30 16345 H 1557.04 1.41891 1.33615 0
M  V30 16346 H 1556.14 1.25957 2.85554 0
M  V30 16347 N 1556.44 -1.28223 0.91633 0
M  V30 16348 C 1557.69 -1.94149 0.546705 0
M  V30 16349 C 1558 -1.72904 -0.914529 0
M  V30 16350 O 1559.21 -2.33075 -1.39243 0
M  V30 16351 C 1557.66 -3.47759 0.92691 0
M  V30 16352 C 1557.27 -3.77779 2.40805 0
M  V30 16353 C 1559.02 -4.19829 0.627994 0
M  V30 16354 C 1556.92 -5.2471 2.72825 0
M  V30 16355 H 1555.85 -0.726787 0.200739 0
M  V30 16356 H 1558.5 -1.45694 1.1156 0
M  V30 16357 H 1556.89 -3.9496 0.286779 0
M  V30 16358 H 1558.06 -3.41377 3.09513 0
M  V30 16359 H 1556.37 -3.18887 2.67769 0
M  V30 16360 H 1558.97 -5.27999 0.843862 0
M  V30 16361 H 1559.31 -4.14028 -0.434315 0
M  V30 16362 H 1559.85 -3.78413 1.22671 0
M  V30 16363 H 1556.59 -5.35591 3.77919 0
M  V30 16364 H 1556.11 -5.623 2.08756 0
M  V30 16365 H 1557.79 -5.92475 2.59965 0
M  V30 16366 N 1557.92 -0.68059 -1.42147 0
M  V30 16367 C 1558.85 -0.0199376 -2.33491 0
M  V30 16368 C 1559.83 0.783164 -1.50999 0
M  V30 16369 O 1561.01 0.739154 -1.79583 0
M  V30 16370 C 1558.14 0.927902 -3.34675 0
M  V30 16371 C 1557.1 0.232979 -4.27365 0
M  V30 16372 C 1556.42 1.29415 -5.18802 0
M  V30 16373 C 1557.72 -0.891559 -5.14634 0
M  V30 16374 H 1559.42 -0.782823 -2.88985 0
M  V30 16375 H 1556.96 -0.377898 -1.38953 0
M  V30 16376 H 1558.92 1.3992 -3.97493 0
M  V30 16377 H 1557.64 1.72228 -2.77498 0
M  V30 16378 H 1556.3 -0.21814 -3.6595 0
M  V30 16379 H 1555.95 2.08067 -4.57949 0
M  V30 16380 H 1555.65 0.834274 -5.81647 0
M  V30 16381 H 1557.17 1.76627 -5.84496 0
M  V30 16382 H 1558.59 -0.501219 -5.71105 0
M  V30 16383 H 1556.98 -1.27759 -5.86343 0
M  V30 16384 H 1558.05 -1.73781 -4.5269 0
M  V30 16385 N 1559.4 1.51781 -0.424309 0
M  V30 16386 C 1560.81 1.59419 -0.0759329 0
M  V30 16387 C 1561.01 1.43616 1.41339 0
M  V30 16388 O 1560.07 1.27078 2.18191 0
M  V30 16389 C 1561.38 2.94966 -0.584411 0
M  V30 16390 C 1562.93 3.08241 -0.54371 0
M  V30 16391 C 1563.4 4.46292 -1.02895 0
M  V30 16392 N 1564.89 4.52575 -0.986392 0
M  V30 16393 C 1565.63 5.57694 -1.33286 0
M  V30 16394 N 1565.13 6.70293 -1.75154 0
M  V30 16395 N 1566.92 5.47983 -1.25186 0
M  V30 16396 H 1559.07 1.60299 -1.39349 0
M  V30 16397 H 1561.33 0.75492 -0.573411 0
M  V30 16398 H 1561.04 3.11859 -1.62593 0
M  V30 16399 H 1560.91 3.772 -0.00224435 0
M  V30 16400 H 1563.3 2.91024 0.488798 0
M  V30 16401 H 1563.38 2.27878 -1.16212 0
M  V30 16402 H 1563.02 4.64255 -2.05986 0
M  V30 16403 H 1562.95 5.25175 -0.387202 0
M  V30 16404 H 1565.45 3.71754 -0.678765 0
M  V30 16405 H 1565.76 7.46508 -1.99863 0
M  V30 16406 H 1564.1 6.71535 -1.79071 0
M  V30 16407 H 1567.29 4.58899 -0.923525 0
M  V30 16408 H 1567.47 6.29796 -1.52517 0
M  V30 16409 N 1560.87 0.155222 1.56834 0
M  V30 16410 C 1562.15 -0.539327 1.88018 0
M  V30 16411 C 1562.53 -1.8241 1.06253 0
M  V30 16412 O 1561.88 -2.27996 0.151721 0
M  V30 16413 C 1562.09 -0.796826 3.39782 0
M  V30 16414 C 1563.44 -1.13397 4.09178 0
M  V30 16415 O 1564.46 -0.885907 3.45007 0
M  V30 16416 O 1563.32 -1.60117 5.22518 0
M  V30 16417 H 1560.41 -0.276066 0.779562 0
M  V30 16418 H 1562.96 0.192451 1.68605 0
M  V30 16419 H 1561.73 0.112097 3.91139 0
M  V30 16420 H 1561.35 -1.5825 3.6475 0
M  V30 16421 N 1562.35 -1.57153 -0.118549 0
M  V30 16422 C 1563.6 -1.84876 -0.826255 0
M  V30 16423 C 1563.93 -0.740373 -1.79858 0
M  V30 16424 O 1563.18 0.268233 -1.93853 0
M  V30 16425 C 1563.48 -3.19084 -1.60998 0
M  V30 16426 C 1563.15 -4.44069 -0.781911 0
M  V30 16427 C 1561.81 -4.78005 -0.553559 0
M  V30 16428 C 1564.16 -5.20798 -0.204739 0
M  V30 16429 C 1561.49 -5.86114 0.262212 0
M  V30 16430 C 1563.84 -6.29765 0.598225 0
M  V30 16431 C 1562.5 -6.62233 0.83689 0
M  V30 16432 H 1561.77 -0.676511 -0.302348 0
M  V30 16433 H 1564.42 -1.91295 -0.0886182 0
M  V30 16434 H 1562.73 -3.08243 -2.41854 0
M  V30 16435 H 1564.42 -3.37755 -2.16153 0
M  V30 16436 H 1561.01 -4.1748 -0.969984 0
M  V30 16437 H 1565.2 -4.94931 -0.368374 0
M  V30 16438 H 1560.45 -6.09695 0.456338 0
M  V30 16439 H 1564.63 -6.88401 1.05244 0
M  V30 16440 H 1562.25 -7.45835 1.47083 0
M  V30 16441 N 1563.83 0.388742 -1.5273 0
M  V30 16442 C 1565.08 1.13094 -1.67011 0
M  V30 16443 C 1565.39 1.91115 -0.416467 0
M  V30 16444 O 1566.6 2.67921 -0.43941 0
M  V30 16445 C 1565.05 2.0595 -2.95149 0
M  V30 16446 C 1564.66 1.3335 -4.27694 0
M  V30 16447 C 1566.41 2.80303 -3.18795 0
M  V30 16448 C 1564.31 2.24973 -5.46938 0
M  V30 16449 H 1563.24 0.425887 -0.622203 0
M  V30 16450 H 1565.89 0.393708 -1.79227 0
M  V30 16451 H 1564.28 2.83309 -2.7668 0
M  V30 16452 H 1565.45 0.612137 -4.56716 0
M  V30 16453 H 1563.76 0.709547 -4.1031 0
M  V30 16454 H 1566.36 3.49036 -4.05065 0
M  V30 16455 H 1566.7 3.44394 -2.33877 0
M  V30 16456 H 1567.24 2.10036 -3.37831 0
M  V30 16457 H 1563.98 1.65497 -6.34264 0
M  V30 16458 H 1563.5 2.95024 -5.22227 0
M  V30 16459 H 1565.18 2.8505 -5.80823 0
M  V30 16460 N 1565.31 1.43698 0.647203 0
M  V30 16461 C 1566.72 1.27231 0.963563 0
M  V30 16462 C 1566.92 0.196385 2.00541 0
M  V30 16463 O 1565.98 -0.423162 2.48929 0
M  V30 16464 C 1567.29 2.63863 1.44211 0
M  V30 16465 C 1568.84 2.71444 1.55844 0
M  V30 16466 C 1569.32 4.08508 2.07087 0
M  V30 16467 N 1570.81 4.10603 2.14381 0
M  V30 16468 C 1571.54 5.13496 2.55166 0
M  V30 16469 N 1571.04 6.26759 2.95203 0
M  V30 16470 N 1572.83 5.0085 2.55158 0
M  V30 16471 H 1564.98 2.12358 -0.0420956 0
M  V30 16472 H 1567.24 0.946989 0.0437628 0
M  V30 16473 H 1566.95 3.43589 0.75096 0
M  V30 16474 H 1566.82 2.89666 2.41605 0
M  V30 16475 H 1569.21 1.92046 2.24058 0
M  V30 16476 H 1569.29 2.49399 0.56866 0
M  V30 16477 H 1568.94 4.88375 1.39472 0
M  V30 16478 H 1568.87 4.2792 3.06907 0
M  V30 16479 H 1571.36 3.2885 1.86188 0
M  V30 16480 H 1571.67 7.01096 3.25091 0
M  V30 16481 H 1570.02 6.30222 2.92993 0
M  V30 16482 H 1573.21 4.11428 2.2326 0
M  V30 16483 H 1573.38 5.81165 2.86621 0
M  V30 16484 N 1566.79 -0.886131 1.30328 0
M  V30 16485 C 1568.01 -1.67625 1.22134 0
M  V30 16486 C 1568.44 -1.86893 -0.212712 0
M  V30 16487 O 1567.79 -1.39905 -1.1531 0
M  V30 16488 C 1567.84 -3.03068 1.95402 0
M  V30 16489 O 1566.95 -3.92022 1.28032 0
M  V30 16490 H 1566.29 -0.512246 0.422493 0
M  V30 16491 H 1568.82 -1.10602 1.72129 0
M  V30 16492 H 1568.83 -3.53119 2.04379 0
M  V30 16493 H 1567.5 -2.88363 2.99699 0
M  V30 16494 H 1566.08 -3.50461 1.27402 0
M  V30 16495 N 1568.26 -1.13026 -1.09832 0
M  V30 16496 C 1569.68 -0.902826 -1.6342 0
M  V30 16497 C 1570.03 0.561547 -1.87992 0
M  V30 16498 O 1569.15 1.42735 -1.62652 0
M  V30 16499 C 1569.75 -1.6324 -2.96881 0
M  V30 16500 C 1568.31 -1.45095 -3.4731 0
M  V30 16501 C 1567.45 -1.66431 -2.21802 0
M  V30 16502 H 1570.4 -1.28414 -0.932492 0
M  V30 16503 H 1570.42 -1.08706 -3.64641 0
M  V30 16504 H 1569.94 -2.69816 -2.78964 0
M  V30 16505 H 1568.04 -0.408031 -3.70359 0
M  V30 16506 H 1568.15 -2.21123 -4.25019 0
M  V30 16507 H 1566.51 -1.08885 -2.30252 0
M  V30 16508 H 1567.3 -2.74317 -2.0641 0
M  V30 16509 N 1569.74 1.27735 -0.923117 0
M  V30 16510 C 1570.65 2.30734 -0.424124 0
M  V30 16511 C 1571.67 1.66872 0.49291 0
M  V30 16512 O 1572.84 1.97843 0.37683 0
M  V30 16513 C 1569.91 3.45227 0.319254 0
M  V30 16514 C 1568.97 4.2462 -0.632137 0
M  V30 16515 C 1568.2 5.33646 0.0758596 0
M  V30 16516 O 1568.43 5.55481 1.29602 0
M  V30 16517 O 1567.36 5.98966 -0.593624 0
M  V30 16518 H 1571.19 2.75444 -1.27923 0
M  V30 16519 H 1568.77 1.32601 -0.688288 0
M  V30 16520 H 1570.65 4.14874 0.73873 0
M  V30 16521 H 1569.33 3.02582 1.15004 0
M  V30 16522 H 1568.24 3.57525 -1.1012 0
M  V30 16523 H 1569.57 4.70969 -1.43001 0
M  V30 16524 N 1571.22 0.688118 1.41784 0
M  V30 16525 C 1572.17 -0.00492036 2.27999 0
M  V30 16526 C 1573.15 -0.760299 1.41804 0
M  V30 16527 O 1574.35 -0.637019 1.6514 0
M  V30 16528 C 1571.48 -0.945951 3.3001 0
M  V30 16529 C 1570.56 -0.187213 4.23687 0
M  V30 16530 N 1570.95 0.815028 4.9919 0
M  V30 16531 C 1569.25 -0.423765 4.43982 0
M  V30 16532 C 1569.95 1.26854 5.677 0
M  V30 16533 N 1568.93 0.595901 5.40324 0
M  V30 16534 H 1572.73 0.763628 2.83806 0
M  V30 16535 H 1570.24 0.518314 1.53907 0
M  V30 16536 H 1572.24 -1.45754 3.90591 0
M  V30 16537 H 1570.9 -1.71418 2.75764 0
M  V30 16538 H 1571.91 1.19502 5.03924 0
M  V30 16539 H 1568.59 -1.17046 4.00757 0
M  V30 16540 H 1569.98 2.0998 6.38246 0
M  V30 16541 N 1572.7 -1.51554 0.432352 0
M  V30 16542 C 1574.11 -1.59377 0.0843863 0
M  V30 16543 C 1574.31 -1.44364 -1.40575 0
M  V30 16544 O 1573.37 -1.28234 -2.17514 0
M  V30 16545 C 1574.68 -2.94652 0.600046 0
M  V30 16546 C 1576.23 -3.07949 0.560049 0
M  V30 16547 C 1576.71 -4.4574 1.0526 0
M  V30 16548 N 1578.2 -4.52046 1.01038 0
M  V30 16549 C 1578.93 -5.56979 1.36242 0
M  V30 16550 N 1578.43 -6.69355 1.78707 0
M  V30 16551 N 1580.22 -5.47311 1.2809 0
M  V30 16552 H 1572.37 -1.59558 1.40197 0
M  V30 16553 H 1574.64 -0.751868 0.577406 0
M  V30 16554 H 1574.34 -3.10993 1.64245 0
M  V30 16555 H 1574.22 -3.77193 0.0222482 0
M  V30 16556 H 1576.6 -2.91279 -0.473357 0
M  V30 16557 H 1576.68 -2.27259 1.17419 0
M  V30 16558 H 1576.33 -4.63156 2.08445 0
M  V30 16559 H 1576.26 -5.24962 0.415047 0
M  V30 16560 H 1578.75 -3.71389 0.69847 0
M  V30 16561 H 1579.06 -7.45438 2.03819 0
M  V30 16562 H 1577.41 -6.70576 1.82629 0
M  V30 16563 H 1580.6 -4.58403 0.947848 0
M  V30 16564 H 1580.77 -6.28978 1.55855 0
M  V30 16565 N 1574.18 -0.163538 -1.56749 0
M  V30 16566 C 1575.42 0.48412 -1.96937 0
M  V30 16567 C 1575.76 1.63418 -1.04919 0
M  V30 16568 O 1575.03 1.94269 -0.094783 0
M  V30 16569 C 1575.31 0.974532 -3.46663 0
M  V30 16570 C 1575.17 -0.175173 -4.49459 0
M  V30 16571 C 1576.49 1.85082 -3.9929 0
M  V30 16572 H 1573.6 0.174503 -0.716043 0
M  V30 16573 H 1576.25 -0.248103 -1.88373 0
M  V30 16574 H 1574.4 1.59849 -3.54091 0
M  V30 16575 H 1576.07 -0.812038 -4.54096 0
M  V30 16576 H 1574.31 -0.831853 -4.2575 0
M  V30 16577 H 1574.98 0.20996 -5.51601 0
M  V30 16578 H 1577.46 1.32488 -3.94444 0
M  V30 16579 H 1576.33 2.163 -5.04485 0
M  V30 16580 H 1576.6 2.79378 -3.42638 0
M  V30 16581 N 1575.65 1.57214 0.110213 0
M  V30 16582 C 1576.59 1.96198 1.1654 0
M  V30 16583 C 1577.57 0.832925 1.39646 0
M  V30 16584 O 1578.75 1.09188 1.53656 0
M  V30 16585 C 1575.88 2.26576 2.51756 0
M  V30 16586 C 1574.92 3.49093 2.45023 0
M  V30 16587 S 1575.76 5.01363 1.88136 0
M  V30 16588 C 1576.91 5.34903 3.25007 0
M  V30 16589 H 1577.14 2.85392 0.832996 0
M  V30 16590 H 1574.68 1.51104 0.317314 0
M  V30 16591 H 1576.64 2.44756 3.29552 0
M  V30 16592 H 1575.3 1.37981 2.8217 0
M  V30 16593 H 1574.49 3.67743 3.44647 0
M  V30 16594 H 1574.09 3.30346 1.7535 0
M  V30 16595 H 1576.38 5.30623 4.21243 0
M  V30 16596 H 1577.33 6.36062 3.11176 0
M  V30 16597 H 1577.73 4.62371 3.23841 0
M  V30 16598 N 1577.13 -0.380637 1.52934 0
M  V30 16599 C 1578.1 -1.44819 1.77652 0
M  V30 16600 C 1579.1 -1.47224 0.646657 0
M  V30 16601 O 1580.29 -1.48248 0.91477 0
M  V30 16602 C 1577.42 -2.8405 1.8849 0
M  V30 16603 H 1578.61 -1.24183 2.72981 0
M  V30 16604 H 1576.16 -0.61288 1.43783 0
M  V30 16605 H 1576.9 -3.1002 0.951751 0
M  V30 16606 H 1576.68 -2.83704 2.70655 0
M  V30 16607 H 1578.17 -3.61388 2.09257 0
M  V30 16608 N 1578.61 -1.44039 -0.639573 0
M  V30 16609 C 1579.84 -1.49844 -1.42669 0
M  V30 16610 C 1580.25 -0.120599 -1.88414 0
M  V30 16611 O 1579.61 0.871875 -1.60327 0
M  V30 16612 C 1579.66 -2.45597 -2.65263 0
M  V30 16613 O 1579.38 -3.78023 -2.21427 0
M  V30 16614 C 1580.88 -2.60781 -3.5848 0
M  V30 16615 H 1578.1 -0.508477 -0.437826 0
M  V30 16616 H 1580.65 -1.88919 -0.782923 0
M  V30 16617 H 1578.8 -2.09679 -3.2575 0
M  V30 16618 H 1579.22 -4.29642 -3.00846 0
M  V30 16619 H 1580.69 -3.31826 -4.4113 0
M  V30 16620 H 1581.17 -1.65727 -4.06732 0
M  V30 16621 H 1581.77 -2.97565 -3.03867 0
M  V30 16622 N 1580.09 0.879207 -1.30796 0
M  V30 16623 C 1581.32 1.66449 -1.22891 0
M  V30 16624 C 1581.73 1.87658 0.207306 0
M  V30 16625 O 1581.09 1.42818 1.13619 0
M  V30 16626 C 1581.14 3.03765 -1.95982 0
M  V30 16627 O 1580.86 2.8351 -3.33997 0
M  V30 16628 C 1582.36 3.98204 -1.94804 0
M  V30 16629 H 1579.58 0.51922 -0.425031 0
M  V30 16630 H 1582.13 1.09807 -1.72519 0
M  V30 16631 H 1580.28 3.57124 -1.50138 0
M  V30 16632 H 1580.69 3.70663 -3.71092 0
M  V30 16633 H 1582.17 4.91901 -2.50474 0
M  V30 16634 H 1582.65 4.29277 -0.928336 0
M  V30 16635 H 1583.25 3.50781 -2.40485 0
M  V30 16636 N 1581.57 1.13606 1.09231 0
M  V30 16637 C 1582.82 0.893694 1.8082 0
M  V30 16638 C 1583.13 -0.581713 1.8675 0
M  V30 16639 O 1584.34 -0.941079 2.54668 0
M  V30 16640 C 1582.79 1.54932 3.24845 0
M  V30 16641 C 1582.4 3.0604 3.27175 0
M  V30 16642 C 1584.14 1.38773 4.01176 0
M  V30 16643 C 1582.05 3.64478 4.65735 0
M  V30 16644 H 1580.98 0.330699 0.677609 0
M  V30 16645 H 1583.63 1.36401 1.22748 0
M  V30 16646 H 1582.01 1.00668 3.82991 0
M  V30 16647 H 1583.19 3.66901 2.78783 0
M  V30 16648 H 1581.5 3.21739 2.64335 0
M  V30 16649 H 1584.1 1.79843 5.03548 0
M  V30 16650 H 1584.44 0.33282 4.14967 0
M  V30 16651 H 1584.98 1.90028 3.49477 0
M  V30 16652 H 1581.71 4.69785 4.57146 0
M  V30 16653 H 1581.23 3.08396 5.14444 0
M  V30 16654 H 1582.91 3.64272 5.3471 0
M  V30 16655 N 1583.05 -1.27244 0.929878 0
M  V30 16656 C 1584.27 -1.98912 0.587277 0
M  V30 16657 C 1584.7 -1.68888 -0.828168 0
M  V30 16658 O 1584.05 -0.930394 -1.55606 0
M  V30 16659 C 1584.1 -3.51097 0.822399 0
M  V30 16660 O 1583.21 -4.12251 -0.110968 0
M  V30 16661 H 1582.55 -0.624404 0.225867 0
M  V30 16662 H 1585.08 -1.61997 1.24973 0
M  V30 16663 H 1585.09 -4.01255 0.738824 0
M  V30 16664 H 1583.76 -3.72282 1.85416 0
M  V30 16665 H 1582.34 -3.72893 0.0227053 0
M  V30 16666 N 1584.52 -0.695628 -1.41417 0
M  V30 16667 C 1585.47 -0.0303383 -2.3078 0
M  V30 16668 C 1586.44 0.771218 -1.4711 0
M  V30 16669 O 1587.63 0.739239 -1.75897 0
M  V30 16670 C 1584.77 0.900034 -3.33157 0
M  V30 16671 C 1583.88 0.0900862 -4.31906 0
M  V30 16672 C 1583.01 1.01811 -5.21352 0
M  V30 16673 C 1582.05 0.201068 -6.1177 0
M  V30 16674 N 1581.19 1.0829 -6.93699 0
M  V30 16675 H 1586.03 -0.798148 -2.87113 0
M  V30 16676 H 1583.57 -0.405311 -1.41406 0
M  V30 16677 H 1585.52 1.45349 -3.91062 0
M  V30 16678 H 1584.15 1.63424 -2.78375 0
M  V30 16679 H 1583.21 -0.58029 -3.75948 0
M  V30 16680 H 1584.52 -0.543336 -4.95832 0
M  V30 16681 H 1583.67 1.64079 -5.84092 0
M  V30 16682 H 1582.41 1.68538 -4.57653 0
M  V30 16683 H 1581.42 -0.434686 -5.48079 0
M  V30 16684 H 1582.64 -0.462416 -6.77524 0
M  V30 16685 H 1580.59 1.73619 -6.32608 0
M  V30 16686 H 1580.5 0.505046 -7.54311 0
M  V30 16687 H 1581.77 1.69239 -7.60906 0
M  V30 16688 N 1586 1.51322 -0.440383 0
M  V30 16689 C 1586.93 2.30708 0.360013 0
M  V30 16690 C 1587.91 1.36254 1.01828 0
M  V30 16691 O 1589.1 1.65174 1.02134 0
M  V30 16692 C 1586.23 3.15132 1.45977 0
M  V30 16693 C 1585.18 4.17889 0.924825 0
M  V30 16694 C 1584.51 4.90853 2.12056 0
M  V30 16695 C 1585.81 5.22282 -0.0428362 0
M  V30 16696 H 1587.5 2.97868 -0.30248 0
M  V30 16697 H 1585.05 1.43249 -0.146914 0
M  V30 16698 H 1587 3.69449 2.02695 0
M  V30 16699 H 1585.72 2.45798 2.1506 0
M  V30 16700 H 1584.38 3.64627 0.379842 0
M  V30 16701 H 1584.03 4.1802 2.79765 0
M  V30 16702 H 1583.73 5.60339 1.769 0
M  V30 16703 H 1585.26 5.47995 2.69322 0
M  V30 16704 H 1586.67 5.71654 0.434137 0
M  V30 16705 H 1585.07 5.99314 -0.307126 0
M  V30 16706 H 1586.14 4.74923 -0.978557 0
M  V30 16707 N 1587.48 0.171848 1.5666 0
M  V30 16708 C 1588.43 -0.758237 2.17989 0
M  V30 16709 C 1589.4 -1.22654 1.12006 0
M  V30 16710 O 1590.58 -1.29461 1.40159 0
M  V30 16711 C 1587.72 -1.98189 2.82516 0
M  V30 16712 C 1586.83 -1.55711 4.02962 0
M  V30 16713 C 1585.97 -2.73447 4.55412 0
M  V30 16714 C 1585.01 -2.27462 5.68267 0
M  V30 16715 N 1584.15 -3.38293 6.15225 0
M  V30 16716 H 1588.99 -0.228467 2.97123 0
M  V30 16717 H 1586.52 -0.10104 1.46753 0
M  V30 16718 H 1588.48 -2.6996 3.18084 0
M  V30 16719 H 1587.11 -2.48536 2.05985 0
M  V30 16720 H 1586.16 -0.736126 3.7321 0
M  V30 16721 H 1587.47 -1.17957 4.84652 0
M  V30 16722 H 1586.63 -3.53374 4.93165 0
M  V30 16723 H 1585.37 -3.14462 3.7278 0
M  V30 16724 H 1584.37 -1.45982 5.30065 0
M  V30 16725 H 1585.6 -1.87505 6.52701 0
M  V30 16726 H 1583.54 -3.78882 5.35522 0
M  V30 16727 H 1583.46 -3.04633 6.91907 0
M  V30 16728 H 1584.73 -4.18503 6.57629 0
M  V30 16729 N 1588.96 -1.5727 -0.101874 0
M  V30 16730 C 1590.2 -1.86017 -0.807795 0
M  V30 16731 C 1590.54 -0.760024 -1.7871 0
M  V30 16732 O 1589.81 0.232627 -1.93104 0
M  V30 16733 C 1590.09 -3.25388 -1.54255 0
M  V30 16734 C 1589.95 -4.46023 -0.581693 0
M  V30 16735 C 1591.27 -3.62561 -2.49474 0
M  V30 16736 H 1588.39 -0.676596 -0.29221 0
M  V30 16737 H 1591.03 -1.89865 -0.0715861 0
M  V30 16738 H 1589.18 -3.22239 -2.17013 0
M  V30 16739 H 1590.85 -4.61284 0.0383529 0
M  V30 16740 H 1589.09 -4.33672 0.105465 0
M  V30 16741 H 1589.76 -5.40251 -1.1328 0
M  V30 16742 H 1592.24 -3.66611 -1.96813 0
M  V30 16743 H 1591.12 -4.61025 -2.97905 0
M  V30 16744 H 1591.38 -2.90885 -3.32924 0
M  V30 16745 N 1590.44 0.372521 -1.53134 0
M  V30 16746 C 1591.71 1.13113 -1.59577 0
M  V30 16747 C 1592.09 2.07294 -0.399027 0
M  V30 16748 O 1591.44 2.20171 0.611316 0
M  V30 16749 C 1591.65 1.87635 -2.94269 0
M  V30 16750 C 1593 2.42414 -3.48598 0
M  V30 16751 O 1594.02 1.9777 -2.96252 0
M  V30 16752 O 1592.88 3.24008 -4.40092 0
M  V30 16753 H 1589.98 0.518486 -0.644284 0
M  V30 16754 H 1592.52 0.376344 -1.65474 0
M  V30 16755 H 1591.29 1.18859 -3.72811 0
M  V30 16756 H 1590.92 2.70037 -2.91831 0
M  V30 16757 N 1591.91 1.44376 0.631925 0
M  V30 16758 C 1592.84 1.54005 1.75512 0
M  V30 16759 C 1593.82 0.393126 1.65495 0
M  V30 16760 O 1595.01 0.613143 1.84267 0
M  V30 16761 C 1592.14 1.48313 3.14039 0
M  V30 16762 C 1591.09 2.61474 3.38844 0
M  V30 16763 C 1590.42 2.40834 4.77392 0
M  V30 16764 C 1591.72 4.03627 3.31485 0
M  V30 16765 H 1593.41 2.48019 1.6771 0
M  V30 16766 H 1590.96 1.19368 0.80543 0
M  V30 16767 H 1592.91 1.5365 3.9239 0
M  V30 16768 H 1591.64 0.508152 3.22623 0
M  V30 16769 H 1590.3 2.55525 2.62874 0
M  V30 16770 H 1589.94 1.4153 4.82678 0
M  V30 16771 H 1589.64 3.16703 4.94947 0
M  V30 16772 H 1591.17 2.47988 5.57974 0
M  V30 16773 H 1592.58 4.1095 3.99741 0
M  V30 16774 H 1590.98 4.79694 3.60574 0
M  V30 16775 H 1592.05 4.27255 2.29307 0
M  V30 16776 N 1593.39 -0.872258 1.31261 0
M  V30 16777 C 1594.67 -1.60739 1.11456 0
M  V30 16778 C 1595.05 -2.0848 -0.331569 0
M  V30 16779 O 1594.4 -1.86141 -1.32528 0
M  V30 16780 C 1594.61 -2.76714 2.12674 0
M  V30 16781 C 1595.95 -3.46734 2.45074 0
M  V30 16782 O 1596.98 -2.86919 2.11083 0
M  V30 16783 O 1595.84 -4.54632 3.0327 0
M  V30 16784 H 1592.93 -0.70707 0.428929 0
M  V30 16785 H 1595.48 -0.917922 1.42732 0
M  V30 16786 H 1594.25 -2.38834 3.09958 0
M  V30 16787 H 1593.87 -3.5335 1.8229 0
M  V30 16788 N 1594.87 -1.14184 -1.08627 0
M  V30 16789 C 1596.12 -0.908664 -1.80968 0
M  V30 16790 C 1596.44 0.564864 -1.86117 0
M  V30 16791 O 1595.7 1.4344 -1.33129 0
M  V30 16792 C 1596 -1.4519 -3.2658 0
M  V30 16793 C 1595.66 -2.94368 -3.41552 0
M  V30 16794 C 1594.33 -3.35096 -3.45346 0
M  V30 16795 C 1596.68 -3.90304 -3.45416 0
M  V30 16796 C 1594.01 -4.70428 -3.50591 0
M  V30 16797 C 1596.36 -5.25491 -3.52196 0
M  V30 16798 C 1595.02 -5.65734 -3.54262 0
M  V30 16799 H 1594.29 -0.332504 -0.66221 0
M  V30 16800 H 1596.94 -1.42514 -1.27914 0
M  V30 16801 H 1595.24 -0.856308 -3.82328 0
M  V30 16802 H 1596.94 -1.24746 -3.81103 0
M  V30 16803 H 1593.53 -2.61879 -3.3929 0
M  V30 16804 H 1597.72 -3.59921 -3.41718 0
M  V30 16805 H 1592.97 -5.00971 -3.50482 0
M  V30 16806 H 1597.15 -5.99637 -3.54131 0
M  V30 16807 H 1594.77 -6.70585 -3.58079 0
M  V30 16808 N 1596.35 1.26749 -0.936613 0
M  V30 16809 C 1597.63 1.89106 -0.49981 0
M  V30 16810 C 1598.01 1.84687 1.02244 0
M  V30 16811 O 1597.35 1.2981 1.88047 0
M  V30 16812 C 1597.56 3.32641 -1.05598 0
M  V30 16813 C 1598.91 4.09511 -1.12187 0
M  V30 16814 O 1599.94 3.41692 -1.00624 0
M  V30 16815 O 1598.79 5.30785 -1.30113 0
M  V30 16816 H 1595.89 0.810941 -0.162185 0
M  V30 16817 H 1598.43 1.34952 -1.02888 0
M  V30 16818 H 1597.21 3.30196 -2.09968 0
M  V30 16819 H 1596.83 3.94327 -0.509086 0
M  V30 16820 N 1597.83 0.703118 1.41046 0
M  V30 16821 C 1599.05 0.245088 2.05947 0
M  V30 16822 C 1599.48 -1.09988 1.52592 0
M  V30 16823 O 1598.83 -1.69015 0.656023 0
M  V30 16824 C 1598.88 0.221444 3.59919 0
M  V30 16825 O 1597.99 -0.801324 4.0454 0
M  V30 16826 H 1597.33 0.117862 0.653456 0
M  V30 16827 H 1599.86 0.960099 1.80674 0
M  V30 16828 H 1599.87 0.0548681 4.07963 0
M  V30 16829 H 1598.54 1.20301 3.98121 0
M  V30 16830 H 1597.12 -0.603489 3.67984 0
M  V30 16831 N 1599.3 -1.51086 0.448402 0
M  V30 16832 C 1600.53 -2.07081 -0.115038 0
M  V30 16833 C 1600.95 -1.31253 -1.34737 0
M  V30 16834 O 1600.31 -0.353613 -1.77818 0
M  V30 16835 C 1600.36 -3.58321 -0.404803 0
M  V30 16836 O 1599.46 -3.84567 -1.48936 0
M  V30 16837 H 1598.81 -0.663993 0.00299118 0
M  V30 16838 H 1601.34 -1.94564 0.632921 0
M  V30 16839 H 1601.35 -4.02756 -0.652013 0
M  V30 16840 H 1600.02 -4.12934 0.495838 0
M  V30 16841 H 1598.6 -3.51987 -1.23124 0
M  V30 16842 N 1600.78 -0.180154 -1.56567 0
M  V30 16843 C 1602.01 0.471692 -2.01965 0
M  V30 16844 C 1602.43 1.5542 -1.05954 0
M  V30 16845 O 1601.79 1.81255 -0.0405307 0
M  V30 16846 C 1601.84 1.01883 -3.45908 0
M  V30 16847 O 1600.94 2.13245 -3.52988 0
M  V30 16848 H 1600.28 0.11197 -0.654491 0
M  V30 16849 H 1602.81 -0.286642 -2.02582 0
M  V30 16850 H 1602.82 1.33922 -3.85395 0
M  V30 16851 H 1601.5 0.226299 -4.15284 0
M  V30 16852 H 1600.08 1.82184 -3.25367 0
M  V30 16853 N 1602.26 1.57322 0.0935319 0
M  V30 16854 C 1603.51 1.85353 0.795445 0
M  V30 16855 C 1603.82 0.769647 1.79822 0
M  V30 16856 O 1605.03 0.937121 2.54814 0
M  V30 16857 C 1603.48 3.28711 1.4655 0
M  V30 16858 C 1603.09 4.45174 0.502415 0
M  V30 16859 C 1604.84 3.65965 2.15105 0
M  V30 16860 C 1602.74 5.79566 1.17715 0
M  V30 16861 H 1601.67 0.691394 0.300816 0
M  V30 16862 H 1604.32 1.83436 0.0484063 0
M  V30 16863 H 1602.71 3.25173 2.26005 0
M  V30 16864 H 1603.88 4.60062 -0.260754 0
M  V30 16865 H 1602.2 4.16328 -0.0775186 0
M  V30 16866 H 1604.79 4.63655 2.66323 0
M  V30 16867 H 1605.14 2.94667 2.94069 0
M  V30 16868 H 1605.67 3.71398 1.42508 0
M  V30 16869 H 1602.41 6.54099 0.428277 0
M  V30 16870 H 1601.93 5.68519 1.9117 0
M  V30 16871 H 1603.61 6.2418 1.70318 0
M  V30 16872 N 1603.74 -0.364395 1.53329 0
M  V30 16873 C 1604.96 -1.13196 1.73786 0
M  V30 16874 C 1605.39 -1.82231 0.466224 0
M  V30 16875 O 1604.75 -1.71778 -0.579817 0
M  V30 16876 C 1604.79 -2.13704 2.90453 0
M  V30 16877 O 1603.9 -3.20808 2.59144 0
M  V30 16878 H 1603.24 -0.328387 0.577112 0
M  V30 16879 H 1605.77 -0.421157 2.00218 0
M  V30 16880 H 1605.78 -2.57285 3.16652 0
M  V30 16881 H 1604.45 -1.6285 3.82691 0
M  V30 16882 H 1603.03 -2.82192 2.43767 0
M  V30 16883 N 1605.22 -1.44709 -0.62426 0
M  V30 16884 C 1606.15 -1.48097 -1.74928 0
M  V30 16885 C 1607.16 -0.373567 -1.58456 0
M  V30 16886 O 1608.35 -0.639699 -1.66644 0
M  V30 16887 C 1605.45 -1.30576 -3.12735 0
M  V30 16888 C 1604.62 -2.54688 -3.55602 0
M  V30 16889 C 1603.68 -2.31966 -4.72311 0
M  V30 16890 O 1602.71 -3.05492 -4.80274 0
M  V30 16891 N 1603.91 -1.35463 -5.64473 0
M  V30 16892 H 1606.68 -2.45086 -1.72491 0
M  V30 16893 H 1604.24 -1.40236 -0.809039 0
M  V30 16894 H 1606.23 -1.13212 -3.88542 0
M  V30 16895 H 1604.8 -0.419262 -3.09776 0
M  V30 16896 H 1604.02 -2.87282 -2.69931 0
M  V30 16897 H 1605.31 -3.37223 -3.80996 0
M  V30 16898 H 1604.7 -0.747509 -5.60739 0
M  V30 16899 H 1603.26 -1.24075 -6.39882 0
M  V30 16900 N 1606.69 0.865285 -1.31722 0
M  V30 16901 C 1607.94 1.6135 -1.21033 0
M  V30 16902 C 1608.26 1.94253 0.229141 0
M  V30 16903 O 1609.46 2.67613 0.457771 0
M  V30 16904 C 1607.92 2.90898 -2.11912 0
M  V30 16905 C 1607.53 2.6546 -3.60881 0
M  V30 16906 C 1609.27 3.68898 -2.10035 0
M  V30 16907 C 1607.18 3.90943 -4.43754 0
M  V30 16908 H 1606.11 0.605418 -0.449428 0
M  V30 16909 H 1608.76 0.956335 -1.56609 0
M  V30 16910 H 1607.14 3.58014 -1.69239 0
M  V30 16911 H 1608.31 2.06721 -4.11829 0
M  V30 16912 H 1606.63 2.00806 -3.64782 0
M  V30 16913 H 1609.23 4.61995 -2.69193 0
M  V30 16914 H 1609.57 4.01813 -1.08865 0
M  V30 16915 H 1610.1 3.08671 -2.50932 0
M  V30 16916 H 1606.84 3.63176 -5.45696 0
M  V30 16917 H 1606.36 4.49116 -3.97561 0
M  V30 16918 H 1608.04 4.58784 -4.56208 0
M  V30 16919 N 1608.17 1.14759 1.0802 0
M  V30 16920 C 1609.12 0.806682 2.13253 0
M  V30 16921 C 1610.11 -0.205966 1.59576 0
M  V30 16922 O 1611.3 -0.00771878 1.76998 0
M  V30 16923 C 1608.43 0.290219 3.42071 0
M  V30 16924 C 1607.51 1.33262 4.02619 0
M  V30 16925 N 1607.9 2.53793 4.37519 0
M  V30 16926 C 1606.2 1.18377 4.30003 0
M  V30 16927 C 1606.9 3.20554 4.85407 0
M  V30 16928 N 1605.88 2.47951 4.83757 0
M  V30 16929 H 1609.68 1.72351 2.3806 0
M  V30 16930 H 1607.2 1.03203 1.25391 0
M  V30 16931 H 1609.19 0.0276782 4.16891 0
M  V30 16932 H 1607.85 -0.620751 3.18711 0
M  V30 16933 H 1608.86 2.9099 4.28422 0
M  V30 16934 H 1605.54 0.332142 4.16177 0
M  V30 16935 H 1606.93 4.23342 5.21758 0
M  V30 16936 N 1609.65 -1.26251 0.943322 0
M  V30 16937 C 1610.58 -2.28673 0.472347 0
M  V30 16938 C 1611.56 -1.63319 -0.475481 0
M  V30 16939 O 1612.75 -1.90508 -0.376875 0
M  V30 16940 C 1609.88 -3.46316 -0.261286 0
M  V30 16941 C 1608.83 -4.23771 0.600192 0
M  V30 16942 C 1608.16 -5.3405 -0.263525 0
M  V30 16943 C 1609.46 -4.87576 1.87262 0
M  V30 16944 H 1611.15 -2.68319 1.32836 0
M  V30 16945 H 1608.7 -1.28987 0.640182 0
M  V30 16946 H 1610.65 -4.1708 -0.601821 0
M  V30 16947 H 1609.37 -3.05629 -1.15146 0
M  V30 16948 H 1608.03 -3.54774 0.923651 0
M  V30 16949 H 1607.68 -4.89604 -1.15312 0
M  V30 16950 H 1607.38 -5.86784 0.309495 0
M  V30 16951 H 1608.9 -6.07652 -0.599281 0
M  V30 16952 H 1610.32 -5.50544 1.59919 0
M  V30 16953 H 1608.72 -5.50437 2.39038 0
M  V30 16954 H 1609.79 -4.10397 2.58268 0
M  V30 16955 N 1611.13 -0.710588 -1.40671 0
M  V30 16956 C 1612.38 -0.248316 -2.01274 0
M  V30 16957 C 1612.71 1.1539 -1.56201 0
M  V30 16958 O 1611.98 1.78182 -0.779838 0
M  V30 16959 C 1612.27 -0.322762 -3.58651 0
M  V30 16960 C 1612.12 -1.763 -4.1381 0
M  V30 16961 C 1613.44 0.308908 -4.39015 0
M  V30 16962 H 1610.56 -0.0917037 -0.731272 0
M  V30 16963 H 1613.2 -0.902145 -1.67216 0
M  V30 16964 H 1611.35 0.233923 -3.87795 0
M  V30 16965 H 1613.02 -2.37468 -3.95483 0
M  V30 16966 H 1611.26 -2.29233 -3.68286 0
M  V30 16967 H 1611.94 -1.76652 -5.22971 0
M  V30 16968 H 1614.41 -0.165363 -4.15771 0
M  V30 16969 H 1613.29 0.226347 -5.48433 0
M  V30 16970 H 1613.55 1.39174 -4.19622 0
M  V30 16971 N 1612.61 1.50847 -0.456408 0
M  V30 16972 C 1613.54 2.31077 0.335523 0
M  V30 16973 C 1614.52 1.37326 1.00377 0
M  V30 16974 O 1615.7 1.66247 1.00376 0
M  V30 16975 C 1612.83 3.16662 1.42627 0
M  V30 16976 C 1611.79 4.18846 0.88045 0
M  V30 16977 C 1611.11 4.93074 2.06838 0
M  V30 16978 C 1612.41 5.22208 -0.0982288 0
M  V30 16979 H 1614.11 2.97531 -0.334056 0
M  V30 16980 H 1611.65 1.43085 -0.162099 0
M  V30 16981 H 1613.61 3.71578 1.98765 0
M  V30 16982 H 1612.33 2.48066 2.12441 0
M  V30 16983 H 1610.99 3.65009 0.341147 0
M  V30 16984 H 1610.64 4.20963 2.75316 0
M  V30 16985 H 1610.34 5.62184 1.70947 0
M  V30 16986 H 1611.86 5.5082 2.63494 0
M  V30 16987 H 1613.28 5.72082 0.373481 0
M  V30 16988 H 1611.67 5.98954 -0.370674 0
M  V30 16989 H 1612.74 4.73859 -1.02887 0
M  V30 16990 N 1614.09 0.188454 1.56469 0
M  V30 16991 C 1615.33 -0.452058 1.9739 0
M  V30 16992 C 1615.66 -1.62086 1.0751 0
M  V30 16993 O 1614.92 -1.95375 0.11278 0
M  V30 16994 C 1615.21 -0.960652 3.44247 0
M  V30 16995 C 1614.88 0.0940708 4.50802 0
M  V30 16996 C 1613.54 0.383899 4.79666 0
M  V30 16997 C 1615.89 0.80908 5.14882 0
M  V30 16998 C 1613.22 1.39383 5.69903 0
M  V30 16999 C 1615.57 1.80811 6.0621 0
M  V30 17000 C 1614.24 2.10521 6.33433 0
M  V30 17001 H 1613.51 -0.16542 0.7223 0
M  V30 17002 H 1616.16 0.284024 1.89382 0
M  V30 17003 H 1614.46 -1.77488 3.49292 0
M  V30 17004 H 1616.16 -1.46553 3.7326 0
M  V30 17005 H 1612.75 -0.141993 4.28365 0
M  V30 17006 H 1616.93 0.598391 4.92679 0
M  V30 17007 H 1612.19 1.63 5.89272 0
M  V30 17008 H 1616.36 2.36742 6.54925 0
M  V30 17009 H 1613.99 2.88924 7.03155 0
M  V30 17010 N 1615.56 -1.5737 -0.0851874 0
M  V30 17011 C 1616.81 -1.86219 -0.7853 0
M  V30 17012 C 1617.13 -0.77857 -1.78783 0
M  V30 17013 O 1616.4 0.194176 -1.94935 0
M  V30 17014 H 1614.98 -0.687134 -0.293013 0
M  V30 17015 H 1617.64 -1.94793 -0.0644597 0
M  V30 17016 H 1616.74 -2.83286 -1.30978 0
M  V30 17017 N 1617.04 0.356258 -1.53521 0
M  V30 17018 C 1618.29 1.0979 -1.70154 0
M  V30 17019 C 1618.62 1.89028 -0.458124 0
M  V30 17020 O 1617.87 1.87516 0.560033 0
M  V30 17021 C 1618.17 2.07669 -2.90875 0
M  V30 17022 C 1617.84 1.4484 -4.27004 0
M  V30 17023 C 1616.5 1.27434 -4.64019 0
M  V30 17024 C 1618.85 0.994684 -5.1162 0
M  V30 17025 C 1616.18 0.632539 -5.8328 0
M  V30 17026 C 1618.53 0.366847 -6.31535 0
M  V30 17027 C 1617.19 0.180356 -6.67256 0
M  V30 17028 H 1616.46 0.401751 -0.622637 0
M  V30 17029 H 1619.11 0.378618 -1.8772 0
M  V30 17030 H 1617.42 2.85934 -2.6786 0
M  V30 17031 H 1619.11 2.65023 -3.00939 0
M  V30 17032 H 1615.7 1.59384 -3.97863 0
M  V30 17033 H 1619.89 1.11706 -4.83565 0
M  V30 17034 H 1615.14 0.476548 -6.0954 0
M  V30 17035 H 1619.32 0.00712378 -6.964 0
M  V30 17036 H 1616.94 -0.319016 -7.5953 0
M  V30 17037 N 1618.52 1.45038 0.616577 0
M  V30 17038 C 1619.45 1.49023 1.7414 0
M  V30 17039 C 1620.46 0.381965 1.58256 0
M  V30 17040 O 1621.65 0.648527 1.66302 0
M  V30 17041 C 1618.75 1.32233 3.12038 0
M  V30 17042 C 1617.93 2.5657 3.54246 0
M  V30 17043 C 1616.99 2.34468 4.71075 0
M  V30 17044 O 1616.01 3.08035 4.78647 0
M  V30 17045 N 1617.21 1.38454 5.63747 0
M  V30 17046 H 1619.98 2.45997 1.71189 0
M  V30 17047 H 1617.54 1.40663 0.80159 0
M  V30 17048 H 1619.53 1.15271 3.87936 0
M  V30 17049 H 1618.1 0.435685 3.09549 0
M  V30 17050 H 1617.32 2.88709 2.68404 0
M  V30 17051 H 1618.61 3.39239 3.79203 0
M  V30 17052 H 1618.01 0.777236 5.60335 0
M  V30 17053 H 1616.56 1.27467 6.39215 0
M  V30 17054 N 1620 -0.858287 1.32179 0
M  V30 17055 C 1621.27 -1.59548 1.13154 0
M  V30 17056 C 1621.65 -2.0882 -0.309439 0
M  V30 17057 O 1621 -1.87536 -1.30547 0
M  V30 17058 C 1621.21 -2.74443 2.15597 0
M  V30 17059 C 1622.56 -3.44115 2.48737 0
M  V30 17060 O 1623.58 -2.84664 2.14114 0
M  V30 17061 O 1622.44 -4.51389 3.08074 0
M  V30 17062 H 1619.54 -0.702481 0.436405 0
M  V30 17063 H 1622.08 -0.902731 1.43697 0
M  V30 17064 H 1620.86 -2.35533 3.12473 0
M  V30 17065 H 1620.48 -3.51397 1.86028 0
M  V30 17066 N 1621.48 -1.1533 -1.07409 0
M  V30 17067 C 1622.44 -0.852155 -2.1277 0
M  V30 17068 C 1623.44 0.14782 -1.60119 0
M  V30 17069 O 1624.63 -0.0817436 -1.74008 0
M  V30 17070 C 1621.76 -0.272233 -3.39811 0
M  V30 17071 H 1622.95 -1.78604 -2.40917 0
M  V30 17072 H 1620.51 -0.960698 -1.23289 0
M  V30 17073 H 1621.24 0.669873 -3.17306 0
M  V30 17074 H 1621.03 -0.992629 -3.79327 0
M  V30 17075 H 1622.52 -0.0790986 -4.17525 0
M  V30 17076 N 1622.95 1.25748 -0.950004 0
M  V30 17077 C 1624.2 1.93622 -0.603186 0
M  V30 17078 C 1624.53 1.74271 0.856925 0
M  V30 17079 O 1623.81 1.08502 1.61423 0
M  V30 17080 C 1624.09 3.4715 -0.957024 0
M  V30 17081 C 1623.94 3.75747 -2.47253 0
M  V30 17082 C 1625.26 4.37488 -0.478754 0
M  V30 17083 H 1622.38 0.703206 -0.220612 0
M  V30 17084 H 1625.02 1.48453 -1.18582 0
M  V30 17085 H 1623.17 3.85753 -0.46122 0
M  V30 17086 H 1624.85 3.46808 -3.04174 0
M  V30 17087 H 1623.09 3.21516 -2.91222 0
M  V30 17088 H 1623.76 4.83097 -2.67061 0
M  V30 17089 H 1626.24 4.06162 -0.903987 0
M  V30 17090 H 1625.11 5.43682 -0.755073 0
M  V30 17091 H 1625.37 4.37712 0.621303 0
M  V30 17092 N 1624.43 0.718038 1.40292 0
M  V30 17093 C 1625.38 0.0559466 2.32533 0
M  V30 17094 C 1626.37 -0.744365 1.5217 0
M  V30 17095 O 1627.58 -0.647458 1.67952 0
M  V30 17096 H 1623.95 -0.000710627 0.752 0
M  V30 17097 H 1625.93 0.850579 2.8602 0
M  V30 17098 C 1624.67 -0.849927 3.37152 0
M  V30 17099 H 1624 -0.243507 3.99058 0
M  V30 17100 H 1625.44 -1.28111 4.04183 0
M  V30 17101 C 1623.9 -1.9765 2.7283 0
M  V30 17102 O 1624.43 -3.06757 2.59351 0
M  V30 17103 N 1622.63 -1.76086 2.31176 0
M  V30 17104 H 1622.18 -0.873485 2.42339 0
M  V30 17105 H 1622.14 -2.51643 1.88477 0
M  V30 17106 N 1625.91 -1.50602 0.464402 0
M  V30 17107 C 1626.86 -2.28382 -0.333234 0
M  V30 17108 C 1627.83 -1.3314 -0.993125 0
M  V30 17109 O 1629.01 -1.62072 -1.00685 0
M  V30 17110 C 1626.15 -3.14841 -1.41313 0
M  V30 17111 C 1625.27 -4.25106 -0.768684 0
M  V30 17112 C 1624.4 -4.98833 -1.82591 0
M  V30 17113 C 1623.44 -6.00982 -1.16135 0
M  V30 17114 N 1622.58 -6.68012 -2.16112 0
M  V30 17115 H 1627.42 -2.96096 0.336354 0
M  V30 17116 H 1624.95 -1.46022 0.17772 0
M  V30 17117 H 1626.91 -3.63314 -2.05082 0
M  V30 17118 H 1625.54 -2.49186 -2.05197 0
M  V30 17119 H 1624.59 -3.80395 -0.0185964 0
M  V30 17120 H 1625.91 -4.98204 -0.243759 0
M  V30 17121 H 1625.06 -5.50991 -2.53957 0
M  V30 17122 H 1623.8 -4.25426 -2.38462 0
M  V30 17123 H 1622.8 -5.4809 -0.43328 0
M  V30 17124 H 1624.03 -6.76358 -0.609612 0
M  V30 17125 H 1621.97 -5.97401 -2.71013 0
M  V30 17126 H 1621.89 -7.36963 -1.68586 0
M  V30 17127 H 1623.16 -7.2479 -2.86879 0
M  V30 17128 N 1627.39 -0.19675 -1.56367 0
M  V30 17129 C 1628.64 0.441807 -1.96802 0
M  V30 17130 C 1628.95 1.62645 -1.08656 0
M  V30 17131 O 1630.16 2.33291 -1.3888 0
M  V30 17132 C 1628.61 0.837415 -3.50022 0
M  V30 17133 C 1628.22 -0.323031 -4.46834 0
M  V30 17134 C 1629.96 1.44296 -3.99223 0
M  V30 17135 C 1627.87 0.0936285 -5.91326 0
M  V30 17136 H 1626.8 0.168834 -0.734854 0
M  V30 17137 H 1629.45 -0.289029 -1.81209 0
M  V30 17138 H 1627.83 1.62497 -3.61124 0
M  V30 17139 H 1629.01 -1.10056 -4.47464 0
M  V30 17140 H 1627.32 -0.840182 -4.07836 0
M  V30 17141 H 1629.92 1.76718 -5.04653 0
M  V30 17142 H 1630.26 2.35003 -3.43627 0
M  V30 17143 H 1630.8 0.71935 -3.91242 0
M  V30 17144 H 1627.54 -0.779297 -6.50851 0
M  V30 17145 H 1627.06 0.835984 -5.93946 0
M  V30 17146 H 1628.73 0.528864 -6.44835 0
M  V30 17147 N 1628.87 1.57413 0.0768405 0
M  V30 17148 C 1629.8 2.06378 1.09226 0
M  V30 17149 C 1630.78 0.956269 1.40675 0
M  V30 17150 O 1631.96 1.22868 1.5039 0
M  V30 17151 C 1629.09 2.50349 2.40712 0
M  V30 17152 C 1628.05 3.64931 2.23628 0
M  V30 17153 C 1627.37 3.9494 3.60453 0
M  V30 17154 C 1628.67 4.95162 1.66169 0
M  V30 17155 H 1630.37 2.91463 0.684827 0
M  V30 17156 H 1627.91 1.40215 0.327974 0
M  V30 17157 H 1629.87 2.83216 3.12036 0
M  V30 17158 H 1628.59 1.62287 2.83426 0
M  V30 17159 H 1627.25 3.32339 1.54747 0
M  V30 17160 H 1626.9 3.04016 4.00728 0
M  V30 17161 H 1626.6 4.72091 3.49863 0
M  V30 17162 H 1628.12 4.30299 4.33215 0
M  V30 17163 H 1629.53 5.26292 2.27353 0
M  V30 17164 H 1627.93 5.76601 1.66289 0
M  V30 17165 H 1629 4.80885 0.62271 0
M  V30 17166 N 1630.34 -0.348112 1.53707 0
M  V30 17167 C 1631.76 -0.690926 1.43869 0
M  V30 17168 C 1631.96 -1.92614 0.59177 0
M  V30 17169 O 1631.02 -2.5237 0.0809797 0
M  V30 17170 C 1632.33 -0.887824 2.87295 0
M  V30 17171 C 1633.88 -0.986731 2.9704 0
M  V30 17172 C 1634.35 -1.21598 4.41563 0
M  V30 17173 N 1635.84 -1.28328 4.45069 0
M  V30 17174 C 1636.58 -1.47809 5.54022 0
M  V30 17175 N 1636.07 -1.64492 6.72989 0
M  V30 17176 N 1637.87 -1.5032 5.41628 0
M  V30 17177 H 1630.02 0.464101 2.07268 0
M  V30 17178 H 1632.28 0.145678 0.93674 0
M  V30 17179 H 1631.99 -0.0517672 3.51662 0
M  V30 17180 H 1631.86 -1.79089 3.31974 0
M  V30 17181 H 1634.25 -1.81331 2.32815 0
M  V30 17182 H 1634.33 -0.0606692 2.55728 0
M  V30 17183 H 1633.97 -0.394341 5.06367 0
M  V30 17184 H 1633.9 -2.15553 4.80463 0
M  V30 17185 H 1636.39 -1.16979 3.59339 0
M  V30 17186 H 1636.71 -1.78979 7.51789 0
M  V30 17187 H 1635.05 -1.61636 6.75943 0
M  V30 17188 H 1638.24 -1.36865 4.47644 0
M  V30 17189 H 1638.42 -1.6516 6.26599 0
M  V30 17190 N 1631.82 -1.45363 -0.608876 0
M  V30 17191 C 1632.77 -1.54268 -1.7408 0
M  V30 17192 C 1633.76 -0.412752 -1.64295 0
M  V30 17193 O 1634.97 -0.58861 -1.70104 0
M  V30 17194 H 1631.35 -0.484528 -0.575097 0
M  V30 17195 H 1633.32 -2.49492 -1.63696 0
M  V30 17196 C 1632.07 -1.5253 -3.12458 0
M  V30 17197 H 1631.39 -2.38801 -3.20646 0
M  V30 17198 H 1632.83 -1.62819 -3.91492 0
M  V30 17199 C 1631.29 -0.249525 -3.35975 0
M  V30 17200 O 1631.82 0.671159 -3.96053 0
M  V30 17201 N 1630.02 -0.145625 -2.90235 0
M  V30 17202 H 1629.57 -0.895714 -2.41526 0
M  V30 17203 H 1629.53 0.707167 -3.06344 0
M  V30 17204 N 1633.3 0.851265 -1.32632 0
M  V30 17205 C 1634.25 1.94828 -1.18431 0
M  V30 17206 C 1635.23 1.60646 -0.090361 0
M  V30 17207 O 1636.43 1.74134 -0.317212 0
M  V30 17208 C 1633.56 3.30937 -0.913006 0
M  V30 17209 C 1632.64 3.71328 -2.04882 0
M  V30 17210 N 1633.03 3.83517 -3.2977 0
M  V30 17211 C 1631.33 4.00979 -1.95274 0
M  V30 17212 C 1632.03 4.18341 -4.04185 0
M  V30 17213 N 1631.01 4.30043 -3.32512 0
M  V30 17214 H 1634.81 2.0239 -2.13109 0
M  V30 17215 H 1632.32 1.04323 -1.2446 0
M  V30 17216 H 1634.32 4.09304 -0.792221 0
M  V30 17217 H 1632.98 3.2469 0.0253611 0
M  V30 17218 H 1633.99 3.67749 -3.64666 0
M  V30 17219 H 1630.67 4.03015 -1.0902 0
M  V30 17220 H 1632.06 4.35213 -5.11898 0
M  V30 17221 N 1634.78 1.15898 1.06796 0
M  V30 17222 C 1635.71 0.88395 2.16122 0
M  V30 17223 C 1636.69 -0.167708 1.69271 0
M  V30 17224 O 1637.87 -0.0208846 1.94189 0
M  V30 17225 C 1635 0.378656 3.4523 0
M  V30 17226 C 1633.96 1.36764 4.05561 0
M  V30 17227 C 1633.28 0.720956 5.29817 0
M  V30 17228 C 1634.58 2.73554 4.44933 0
M  V30 17229 H 1636.28 1.79818 2.39386 0
M  V30 17230 H 1633.82 0.866008 1.15049 0
M  V30 17231 H 1635.78 0.17376 4.21042 0
M  V30 17232 H 1634.5 -0.571063 3.21569 0
M  V30 17233 H 1633.16 1.55899 3.318 0
M  V30 17234 H 1632.81 -0.235089 5.0245 0
M  V30 17235 H 1632.51 1.38101 5.71141 0
M  V30 17236 H 1634.03 0.525963 6.0833 0
M  V30 17237 H 1635.45 2.58231 5.11849 0
M  V30 17238 H 1633.84 3.35986 4.97226 0
M  V30 17239 H 1634.91 3.29192 3.56034 0
M  V30 17240 N 1636.26 -1.25243 0.956659 0
M  V30 17241 C 1637.51 -1.92312 0.608196 0
M  V30 17242 C 1637.82 -1.75726 -0.859058 0
M  V30 17243 O 1639.02 -2.37386 -1.31757 0
M  V30 17244 C 1637.48 -3.44634 1.03708 0
M  V30 17245 C 1637.09 -3.69927 2.52702 0
M  V30 17246 C 1638.83 -4.17619 0.761242 0
M  V30 17247 C 1636.74 -5.15765 2.8938 0
M  V30 17248 H 1635.67 -0.720033 0.22376 0
M  V30 17249 H 1638.32 -1.42071 1.16138 0
M  V30 17250 H 1636.7 -3.93848 0.412287 0
M  V30 17251 H 1637.88 -3.31357 3.20217 0
M  V30 17252 H 1636.19 -3.10207 2.77778 0
M  V30 17253 H 1638.79 -5.25047 1.01141 0
M  V30 17254 H 1639.13 -4.152 -0.302375 0
M  V30 17255 H 1639.66 -3.74319 1.34648 0
M  V30 17256 H 1636.4 -5.23296 3.94767 0
M  V30 17257 H 1635.92 -5.55374 2.26539 0
M  V30 17258 H 1637.6 -5.83905 2.78683 0
M  V30 17259 N 1637.73 -0.725468 -1.3991 0
M  V30 17260 C 1639.15 -0.400048 -1.54505 0
M  V30 17261 C 1639.35 1.09014 -1.69464 0
M  V30 17262 O 1638.41 1.87624 -1.68977 0
M  V30 17263 C 1639.72 -1.17474 -2.76804 0
M  V30 17264 C 1641.27 -1.16202 -2.9063 0
M  V30 17265 C 1641.74 -1.91908 -4.15855 0
M  V30 17266 N 1643.23 -1.89026 -4.22875 0
M  V30 17267 C 1643.97 -2.4442 -5.18697 0
M  V30 17268 N 1643.46 -3.0841 -6.20367 0
M  V30 17269 N 1645.26 -2.34506 -5.10846 0
M  V30 17270 H 1637.41 -1.6916 -1.28447 0
M  V30 17271 H 1639.67 -0.715556 -0.621839 0
M  V30 17272 H 1639.38 -2.22881 -2.72061 0
M  V30 17273 H 1639.25 -0.772871 -3.69197 0
M  V30 17274 H 1641.64 -0.116116 -2.94871 0
M  V30 17275 H 1641.72 -1.60319 -1.99327 0
M  V30 17276 H 1641.36 -2.96494 -4.12375 0
M  V30 17277 H 1641.29 -1.45204 -5.06185 0
M  V30 17278 H 1643.78 -1.42399 -3.50044 0
M  V30 17279 H 1644.1 -3.48169 -6.89926 0
M  V30 17280 H 1642.44 -3.12497 -6.20782 0
M  V30 17281 H 1645.63 -1.84164 -4.3035 0
M  V30 17282 H 1645.81 -2.77976 -5.85349 0
M  V30 17283 N 1639.21 1.50354 -0.472382 0
M  V30 17284 C 1640.62 1.86692 -0.0175768 0
M  V30 17285 C 1640.97 1.38708 1.3876 0
M  V30 17286 O 1640.1 0.752614 2.02891 0
M  V30 17287 C 1640.69 3.38791 -0.0251205 0
M  V30 17288 C 1639.25 3.74535 0.37422 0
M  V30 17289 C 1638.4 2.74252 -0.410045 0
M  V30 17290 H 1641.35 1.43079 -0.686593 0
M  V30 17291 H 1641.37 3.72487 0.776754 0
M  V30 17292 H 1640.88 3.73684 -1.04795 0
M  V30 17293 H 1638.99 3.45243 1.40135 0
M  V30 17294 H 1639.1 4.79042 0.0746666 0
M  V30 17295 H 1637.46 2.54334 0.136417 0
M  V30 17296 H 1638.25 3.11989 -1.43241 0
M  V30 17297 N 1640.69 0.205039 1.56261 0
M  V30 17298 C 1641.64 -0.724845 2.16171 0
M  V30 17299 C 1642.63 -1.16929 1.10528 0
M  V30 17300 O 1643.82 -1.12603 1.36564 0
M  V30 17301 C 1640.95 -1.93992 2.83235 0
M  V30 17302 C 1640.03 -1.51592 3.96082 0
M  V30 17303 N 1640.42 -0.80348 4.99377 0
M  V30 17304 C 1638.72 -1.80447 4.07866 0
M  V30 17305 C 1639.42 -0.58958 5.78704 0
M  V30 17306 N 1638.4 -1.14132 5.31484 0
M  V30 17307 H 1642.2 -0.171919 2.93397 0
M  V30 17308 H 1639.71 0.00563679 1.62399 0
M  V30 17309 H 1641.71 -2.61667 3.24555 0
M  V30 17310 H 1640.37 -2.49747 2.07501 0
M  V30 17311 H 1641.38 -0.457893 5.15872 0
M  V30 17312 H 1638.06 -2.3764 3.43269 0
M  V30 17313 H 1639.45 -0.0237117 6.71896 0
M  V30 17314 N 1642.17 -1.57451 -0.0684915 0
M  V30 17315 C 1643.42 -1.88551 -0.762893 0
M  V30 17316 C 1643.77 -0.799127 -1.75019 0
M  V30 17317 O 1643.06 0.196383 -1.90591 0
M  V30 17318 C 1643.26 -3.24044 -1.50765 0
M  V30 17319 C 1643.09 -4.4576 -0.593989 0
M  V30 17320 C 1641.86 -5.04778 -0.229695 0
M  V30 17321 C 1644.05 -5.14181 0.110706 0
M  V30 17322 N 1642.04 -6.10017 0.689348 0
M  V30 17323 C 1643.41 -6.13625 0.886817 0
M  V30 17324 C 1645.46 -4.97568 0.181829 0
M  V30 17325 C 1644.17 -6.98249 1.72745 0
M  V30 17326 C 1646.19 -5.82721 1.00945 0
M  V30 17327 C 1645.55 -6.81706 1.77359 0
M  V30 17328 H 1641.65 -0.739431 -0.254491 0
M  V30 17329 H 1644.24 -1.94685 -0.0242838 0
M  V30 17330 H 1642.41 -3.18913 -2.21696 0
M  V30 17331 H 1644.14 -3.42782 -2.15133 0
M  V30 17332 H 1640.89 -4.69994 -0.583282 0
M  V30 17333 H 1641.32 -6.67295 1.14221 0
M  V30 17334 H 1645.96 -4.20954 -0.394627 0
M  V30 17335 H 1643.68 -7.74235 2.31486 0
M  V30 17336 H 1647.26 -5.71923 1.0675 0
M  V30 17337 H 1646.14 -7.46454 2.40367 0
M  V30 17338 N 1643.65 0.339955 -1.5389 0
M  V30 17339 C 1644.58 1.44096 -1.76951 0
M  V30 17340 C 1645.56 1.50367 -0.618758 0
M  V30 17341 O 1646.74 1.68028 -0.854329 0
M  V30 17342 C 1643.87 2.82307 -1.87137 0
M  V30 17343 C 1642.92 2.93645 -3.09314 0
M  V30 17344 S 1643.75 2.59742 -4.68288 0
M  V30 17345 C 1644.9 4.00055 -4.81359 0
M  V30 17346 H 1645.14 1.24318 -2.7006 0
M  V30 17347 H 1642.67 0.535835 -1.44804 0
M  V30 17348 H 1644.63 3.61931 -1.93692 0
M  V30 17349 H 1643.29 2.99378 -0.950349 0
M  V30 17350 H 1642.48 3.94927 -3.13127 0
M  V30 17351 H 1642.08 2.21974 -3.01004 0
M  V30 17352 H 1644.38 4.94619 -4.62989 0
M  V30 17353 H 1645.32 4.01234 -5.83452 0
M  V30 17354 H 1645.73 3.88248 -4.09785 0
M  V30 17355 N 1645.13 1.45684 0.601159 0
M  V30 17356 C 1646.37 1.50036 1.35998 0
M  V30 17357 C 1646.7 0.144645 1.93961 0
M  V30 17358 O 1645.96 -0.857502 1.75913 0
M  V30 17359 C 1646.25 2.53235 2.52204 0
M  V30 17360 C 1645.92 3.97767 2.12348 0
M  V30 17361 C 1644.58 4.37121 2.01193 0
M  V30 17362 C 1646.93 4.88636 1.8134 0
M  V30 17363 C 1644.26 5.65231 1.5726 0
M  V30 17364 C 1646.61 6.17164 1.38892 0
M  V30 17365 C 1645.28 6.55442 1.26299 0
M  V30 17366 H 1644.55 0.54902 0.497652 0
M  V30 17367 H 1647.2 1.79065 0.678833 0
M  V30 17368 H 1645.5 2.17799 3.25685 0
M  V30 17369 H 1647.2 2.53837 3.10431 0
M  V30 17370 H 1643.79 3.6665 2.21959 0
M  V30 17371 H 1647.97 4.58964 1.88853 0
M  V30 17372 H 1643.23 5.93678 1.46139 0
M  V30 17373 H 1647.4 6.87015 1.13946 0
M  V30 17374 H 1645.03 7.54609 0.920316 0
M  V30 17375 N 1646.6 -0.84422 1.33082 0
M  V30 17376 C 1647.57 -1.93519 1.22813 0
M  V30 17377 C 1648.57 -1.60113 0.148516 0
M  V30 17378 O 1649.76 -1.69553 0.399668 0
M  V30 17379 C 1646.89 -3.29045 0.891179 0
M  V30 17380 H 1648.08 -2.04051 2.1978 0
M  V30 17381 H 1645.63 -1.03567 1.17063 0
M  V30 17382 H 1646.37 -3.2421 -0.0762276 0
M  V30 17383 H 1646.15 -3.54671 1.67186 0
M  V30 17384 H 1647.64 -4.08984 0.843932 0
M  V30 17385 N 1648.08 -1.16463 -1.0618 0
M  V30 17386 C 1649.01 -0.815728 -2.13122 0
M  V30 17387 C 1649.99 0.213124 -1.61197 0
M  V30 17388 O 1651.18 0.0969425 -1.88251 0
M  V30 17389 C 1648.3 -0.215095 -3.38016 0
M  V30 17390 C 1647.35 -1.21774 -4.08746 0
M  V30 17391 S 1648.18 -2.7649 -4.586 0
M  V30 17392 C 1649.34 -2.17879 -5.86753 0
M  V30 17393 H 1649.57 -1.72148 -2.42389 0
M  V30 17394 H 1647.1 -0.98822 -1.18632 0
M  V30 17395 H 1649.06 0.124982 -4.1031 0
M  V30 17396 H 1647.72 0.66844 -3.06905 0
M  V30 17397 H 1646.92 -0.745936 -4.98449 0
M  V30 17398 H 1646.52 -1.50296 -3.42472 0
M  V30 17399 H 1648.81 -1.54817 -6.59574 0
M  V30 17400 H 1649.75 -3.05797 -6.38666 0
M  V30 17401 H 1650.16 -1.61717 -5.4084 0
M  V30 17402 N 1649.56 1.24734 -0.963288 0
M  V30 17403 C 1650.84 1.88004 -0.539809 0
M  V30 17404 C 1651.22 1.86814 0.983035 0
M  V30 17405 O 1650.56 1.33769 1.85251 0
M  V30 17406 C 1650.77 3.30326 -1.1263 0
M  V30 17407 C 1652.12 4.07039 -1.20848 0
M  V30 17408 O 1653.15 3.3948 -1.07849 0
M  V30 17409 O 1652.01 5.27906 -1.41342 0
M  V30 17410 H 1649.1 0.807318 -0.17935 0
M  V30 17411 H 1651.65 1.3274 -1.05727 0
M  V30 17412 H 1650.42 3.25668 -2.16925 0
M  V30 17413 H 1650.04 3.93159 -0.592614 0
M  V30 17414 N 1651.04 0.732878 1.39523 0
M  V30 17415 C 1651.99 0.0806066 2.3246 0
M  V30 17416 C 1652.98 -0.728184 1.5295 0
M  V30 17417 O 1654.19 -0.629608 1.6863 0
M  V30 17418 H 1650.56 0.00726537 0.751965 0
M  V30 17419 H 1652.53 0.880867 2.85102 0
M  V30 17420 C 1651.28 -0.81412 3.38035 0
M  V30 17421 H 1650.6 -0.201168 3.99294 0
M  V30 17422 H 1652.04 -1.23817 4.05519 0
M  V30 17423 C 1650.5 -1.94745 2.74911 0
M  V30 17424 O 1651.03 -3.03989 2.6259 0
M  V30 17425 N 1649.24 -1.73624 2.3303 0
M  V30 17426 H 1648.79 -0.847733 2.43251 0
M  V30 17427 H 1648.74 -2.49629 1.91135 0
M  V30 17428 N 1652.52 -1.50101 0.480349 0
M  V30 17429 C 1653.76 -2.01567 -0.073165 0
M  V30 17430 C 1654.08 -1.36657 -1.39944 0
M  V30 17431 O 1655.28 -1.79332 -2.03844 0
M  V30 17432 C 1653.74 -3.59445 -0.180889 0
M  V30 17433 C 1653.35 -4.33318 1.1375 0
M  V30 17434 C 1655.09 -4.18923 -0.685868 0
M  V30 17435 C 1653 -5.83003 0.99307 0
M  V30 17436 H 1651.93 -0.753358 -0.0311179 0
M  V30 17437 H 1654.58 -1.72829 0.616648 0
M  V30 17438 H 1652.96 -3.84811 -0.934693 0
M  V30 17439 H 1654.14 -4.1967 1.90299 0
M  V30 17440 H 1652.45 -3.85492 1.57431 0
M  V30 17441 H 1655.05 -5.28512 -0.811109 0
M  V30 17442 H 1655.39 -3.80916 -1.67955 0
M  V30 17443 H 1655.92 -3.97799 0.0108117 0
M  V30 17444 H 1652.66 -6.25499 1.9604 0
M  V30 17445 H 1652.18 -5.992 0.268128 0
M  V30 17446 H 1653.86 -6.4359 0.663417 0
M  V30 17447 N 1653.99 -0.213323 -1.5615 0
M  V30 17448 C 1655.24 0.420909 -1.97259 0
M  V30 17449 C 1655.56 1.61483 -1.10375 0
M  V30 17450 O 1656.76 2.31804 -1.41347 0
M  V30 17451 C 1655.22 0.800243 -3.5089 0
M  V30 17452 C 1654.83 -0.370405 -4.46466 0
M  V30 17453 C 1656.57 1.40054 -4.00731 0
M  V30 17454 C 1654.48 0.0309052 -5.91392 0
M  V30 17455 H 1653.41 0.16103 -0.736604 0
M  V30 17456 H 1656.06 -0.308232 -1.80893 0
M  V30 17457 H 1654.44 1.58657 -3.62828 0
M  V30 17458 H 1655.61 -1.14796 -4.46272 0
M  V30 17459 H 1653.93 -0.883391 -4.06922 0
M  V30 17460 H 1656.53 1.71355 -5.06499 0
M  V30 17461 H 1656.87 2.31345 -3.461 0
M  V30 17462 H 1657.4 0.677813 -3.91983 0
M  V30 17463 H 1654.14 -0.848284 -6.49988 0
M  V30 17464 H 1653.66 0.772941 -5.94799 0
M  V30 17465 H 1655.34 0.460441 -6.4536 0
M  V30 17466 N 1655.47 1.57485 0.0601405 0
M  V30 17467 C 1656.89 1.54105 0.415187 0
M  V30 17468 C 1657.09 0.935177 1.78484 0
M  V30 17469 O 1656.14 0.542715 2.46599 0
M  V30 17470 C 1657.46 2.98708 0.34555 0
M  V30 17471 C 1659.01 3.10103 0.424895 0
M  V30 17472 C 1659.48 4.56379 0.385041 0
M  V30 17473 N 1660.97 4.6106 0.444771 0
M  V30 17474 C 1661.71 5.71737 0.436334 0
M  V30 17475 N 1661.2 6.91746 0.38202 0
M  V30 17476 N 1663 5.60014 0.483759 0
M  V30 17477 H 1655.15 1.95232 -0.836565 0
M  V30 17478 H 1657.41 0.894101 -0.3151 0
M  V30 17479 H 1657.12 3.4664 -0.594427 0
M  V30 17480 H 1656.99 3.59201 1.15129 0
M  V30 17481 H 1659.38 2.62137 1.3553 0
M  V30 17482 H 1659.46 2.52499 -0.409633 0
M  V30 17483 H 1659.1 5.05004 -0.541561 0
M  V30 17484 H 1659.03 5.11859 1.23726 0
M  V30 17485 H 1661.52 3.74703 0.490522 0
M  V30 17486 H 1661.84 7.71866 0.379829 0
M  V30 17487 H 1660.18 6.94126 0.348532 0
M  V30 17488 H 1663.37 4.65158 0.523965 0
M  V30 17489 H 1663.54 6.46266 0.473715 0
M  V30 17490 N 1656.95 -0.331789 1.54068 0
M  V30 17491 C 1658.37 -0.675628 1.44594 0
M  V30 17492 C 1658.57 -1.91976 0.612166 0
M  V30 17493 O 1657.62 -2.5227 0.107742 0
M  V30 17494 C 1658.94 -0.857303 2.8822 0
M  V30 17495 C 1660.48 -0.955171 2.9807 0
M  V30 17496 C 1660.96 -1.16908 4.42828 0
M  V30 17497 N 1662.45 -1.23601 4.46405 0
M  V30 17498 C 1663.18 -1.41924 5.55558 0
M  V30 17499 N 1662.68 -1.57345 6.74696 0
M  V30 17500 N 1664.47 -1.44566 5.43191 0
M  V30 17501 H 1656.62 0.486058 2.06764 0
M  V30 17502 H 1658.89 0.155605 0.935142 0
M  V30 17503 H 1658.59 -0.0144659 3.51697 0
M  V30 17504 H 1658.47 -1.75558 3.33855 0
M  V30 17505 H 1660.85 -1.78852 2.34725 0
M  V30 17506 H 1660.94 -0.0335425 2.55778 0
M  V30 17507 H 1660.58 -0.340612 5.06757 0
M  V30 17508 H 1660.51 -2.10445 4.82722 0
M  V30 17509 H 1663 -1.13161 3.60559 0
M  V30 17510 H 1663.31 -1.70995 7.53645 0
M  V30 17511 H 1661.66 -1.54458 6.77619 0
M  V30 17512 H 1664.85 -1.3211 4.49071 0
M  V30 17513 H 1665.02 -1.58505 6.28315 0
M  V30 17514 N 1658.43 -1.46001 -0.593424 0
M  V30 17515 C 1659.39 -1.55347 -1.68523 0
M  V30 17516 C 1660.39 -0.431599 -1.549 0
M  V30 17517 O 1661.58 -0.695559 -1.59711 0
M  V30 17518 C 1658.71 -1.46355 -3.07885 0
M  V30 17519 H 1659.91 -2.52639 -1.61597 0
M  V30 17520 H 1657.46 -1.33652 -0.810363 0
M  V30 17521 H 1658.19 -0.503024 -3.20375 0
M  V30 17522 H 1657.98 -2.27741 -3.19181 0
M  V30 17523 H 1659.47 -1.55958 -3.87385 0
M  V30 17524 N 1659.91 0.83715 -1.33527 0
M  V30 17525 C 1661.15 1.59487 -1.25267 0
M  V30 17526 C 1661.49 1.93357 0.180741 0
M  V30 17527 O 1660.76 1.5884 1.12251 0
M  V30 17528 C 1661.04 2.90376 -2.12964 0
M  V30 17529 C 1660.9 2.63177 -3.64771 0
M  V30 17530 C 1662.22 3.9182 -2.00412 0
M  V30 17531 H 1659.33 0.578684 -0.456392 0
M  V30 17532 H 1661.98 0.965428 -1.63644 0
M  V30 17533 H 1660.13 3.44095 -1.80364 0
M  V30 17534 H 1661.8 2.15878 -4.0767 0
M  V30 17535 H 1660.04 1.96849 -3.86566 0
M  V30 17536 H 1660.71 3.56452 -4.21481 0
M  V30 17537 H 1663.19 3.47413 -2.29005 0
M  V30 17538 H 1662.06 4.81232 -2.64021 0
M  V30 17539 H 1662.33 4.31173 -0.976852 0
M  V30 17540 N 1661.38 1.17024 1.05561 0
M  V30 17541 C 1662.32 0.841314 2.13201 0
M  V30 17542 C 1663.33 -0.154667 1.62064 0
M  V30 17543 O 1664.52 0.0711173 1.78358 0
M  V30 17544 C 1661.62 0.233156 3.38097 0
M  V30 17545 C 1660.79 1.27108 4.18524 0
M  V30 17546 C 1659.85 0.681364 5.2177 0
M  V30 17547 O 1658.88 1.35219 5.52906 0
M  V30 17548 N 1660.08 -0.528381 5.7809 0
M  V30 17549 H 1662.84 1.76773 2.42015 0
M  V30 17550 H 1660.4 1.06858 1.21626 0
M  V30 17551 H 1662.4 -0.174565 4.04323 0
M  V30 17552 H 1660.97 -0.596965 3.06847 0
M  V30 17553 H 1660.19 1.85469 3.47843 0
M  V30 17554 H 1661.47 1.97129 4.6906 0
M  V30 17555 H 1660.87 -1.09141 5.55072 0
M  V30 17556 H 1659.43 -0.878214 6.45857 0
M  V30 17557 N 1662.86 -1.24221 0.969889 0
M  V30 17558 C 1663.83 -2.23529 0.506686 0
M  V30 17559 C 1664.83 -1.55797 -0.397968 0
M  V30 17560 O 1666.02 -1.73126 -0.193124 0
M  V30 17561 C 1663.15 -3.39861 -0.265943 0
M  V30 17562 H 1664.34 -2.66022 1.38463 0
M  V30 17563 H 1661.89 -1.36872 0.754698 0
M  V30 17564 H 1662.63 -3.0281 -1.16089 0
M  V30 17565 H 1662.41 -3.90222 0.383286 0
M  V30 17566 H 1663.9 -4.13567 -0.578975 0
M  V30 17567 N 1664.34 -0.740267 -1.39132 0
M  V30 17568 C 1665.3 -0.112183 -2.28925 0
M  V30 17569 C 1666.3 0.661598 -1.46559 0
M  V30 17570 O 1667.49 0.489835 -1.67171 0
M  V30 17571 C 1664.63 0.850121 -3.3013 0
M  V30 17572 H 1665.82 -0.903339 -2.85972 0
M  V30 17573 H 1663.37 -0.506427 -1.47868 0
M  V30 17574 H 1664.11 1.66744 -2.78149 0
M  V30 17575 H 1663.89 0.297847 -3.90967 0
M  V30 17576 H 1665.38 1.28599 -3.97306 0
M  V30 17577 N 1665.82 1.49844 -0.488302 0
M  V30 17578 C 1667.06 2.02709 0.060788 0
M  V30 17579 C 1667.4 1.36828 1.37811 0
M  V30 17580 O 1666.67 0.499679 1.87972 0
M  V30 17581 C 1666.96 3.59386 0.226637 0
M  V30 17582 C 1666.81 4.35814 -1.11292 0
M  V30 17583 C 1668.13 4.29204 0.973218 0
M  V30 17584 H 1665.25 0.736712 0.0206177 0
M  V30 17585 H 1667.89 1.78995 -0.637245 0
M  V30 17586 H 1666.04 3.79722 0.821182 0
M  V30 17587 H 1667.71 4.27007 -1.74536 0
M  V30 17588 H 1665.95 3.98874 -1.70535 0
M  V30 17589 H 1666.62 5.43758 -0.950319 0
M  V30 17590 H 1669.1 4.13447 0.469106 0
M  V30 17591 H 1667.98 5.38605 1.05809 0
M  V30 17592 H 1668.24 3.93564 2.01394 0
M  V30 17593 N 1667.3 0.221601 1.56034 0
M  V30 17594 C 1668.52 -0.414945 2.02696 0
M  V30 17595 C 1668.94 -1.53344 1.10141 0
M  V30 17596 O 1668.3 -1.82162 0.111026 0
M  V30 17597 C 1668.35 -0.946532 3.48888 0
M  V30 17598 O 1668.07 0.12737 4.37915 0
M  V30 17599 C 1669.57 -1.65631 4.11195 0
M  V30 17600 H 1666.79 -0.101548 0.663271 0
M  V30 17601 H 1669.33 0.338069 2.01686 0
M  V30 17602 H 1667.49 -1.64982 3.50514 0
M  V30 17603 H 1667.9 -0.272211 5.23793 0
M  V30 17604 H 1669.38 -1.98027 5.15257 0
M  V30 17605 H 1669.85 -2.56947 3.56195 0
M  V30 17606 H 1670.46 -0.998231 4.13419 0
M  V30 17607 N 1668.77 -1.57515 -0.0517878 0
M  V30 17608 C 1670.02 -1.87396 -0.746022 0
M  V30 17609 C 1670.34 -0.817053 -1.77718 0
M  V30 17610 O 1671.54 -1.00435 -2.5224 0
M  V30 17611 C 1670 -3.32481 -1.37783 0
M  V30 17612 C 1669.61 -4.46349 -0.384208 0
M  V30 17613 C 1671.35 -3.71539 -2.05327 0
M  V30 17614 C 1669.26 -5.82484 -1.02307 0
M  V30 17615 H 1668.19 -0.699127 -0.282379 0
M  V30 17616 H 1670.84 -1.835 0.000245524 0
M  V30 17617 H 1669.22 -3.31051 -2.17304 0
M  V30 17618 H 1670.39 -4.59209 0.382639 0
M  V30 17619 H 1668.71 -4.15976 0.187873 0
M  V30 17620 H 1671.31 -4.70553 -2.53936 0
M  V30 17621 H 1671.65 -3.02361 -2.86153 0
M  V30 17622 H 1672.18 -3.75046 -1.32611 0
M  V30 17623 H 1668.92 -6.55005 -0.254704 0
M  V30 17624 H 1668.44 -5.73388 -1.7603 0
M  V30 17625 H 1670.12 -6.28476 -1.5371 0
M  V30 17626 N 1670.25 0.323614 -1.54242 0
M  V30 17627 C 1671.18 1.40344 -1.86616 0
M  V30 17628 C 1672.16 1.53972 -0.722963 0
M  V30 17629 O 1673.35 1.67852 -0.976692 0
M  V30 17630 C 1670.48 2.77112 -2.09347 0
M  V30 17631 C 1669.43 2.78273 -3.25189 0
M  V30 17632 C 1668.76 4.18116 -3.33291 0
M  V30 17633 C 1670.06 2.42025 -4.6284 0
M  V30 17634 H 1671.75 1.13499 -2.77053 0
M  V30 17635 H 1669.3 0.544553 -1.33306 0
M  V30 17636 H 1671.25 3.52719 -2.3058 0
M  V30 17637 H 1669.98 3.05435 -1.1566 0
M  V30 17638 H 1668.64 2.05121 -3.03844 0
M  V30 17639 H 1668.28 4.4358 -2.37163 0
M  V30 17640 H 1667.98 4.19799 -4.11147 0
M  V30 17641 H 1669.51 4.95536 -3.56758 0
M  V30 17642 H 1670.92 3.07346 -4.83954 0
M  V30 17643 H 1669.32 2.5496 -5.43245 0
M  V30 17644 H 1670.39 1.37175 -4.65092 0
M  V30 17645 N 1671.73 1.46313 0.585673 0
M  V30 17646 C 1672.98 1.50738 1.34019 0
M  V30 17647 C 1673.29 0.162245 1.94926 0
M  V30 17648 O 1674.5 0.0842676 2.71369 0
M  V30 17649 C 1672.96 2.65592 2.42876 0
M  V30 17650 C 1672.56 4.06513 1.88285 0
M  V30 17651 C 1674.31 2.79284 3.19689 0
M  V30 17652 C 1672.21 5.12712 2.94754 0
M  V30 17653 H 1671.14 0.560979 0.503804 0
M  V30 17654 H 1673.8 1.72516 0.625344 0
M  V30 17655 H 1672.18 2.37138 3.17146 0
M  V30 17656 H 1673.35 4.44744 1.20578 0
M  V30 17657 H 1671.67 3.97462 1.2415 0
M  V30 17658 H 1674.26 3.55795 3.99142 0
M  V30 17659 H 1674.61 1.86694 3.7209 0
M  V30 17660 H 1675.14 3.0737 2.52525 0
M  V30 17661 H 1671.88 6.07084 2.47244 0
M  V30 17662 H 1671.4 4.79028 3.6096 0
M  V30 17663 H 1673.08 5.38426 3.58757 0
M  V30 17664 N 1673.21 -0.830057 1.33969 0
M  V30 17665 C 1674.62 -1.40227 1.23261 0
M  V30 17666 C 1674.97 -1.95664 -0.144862 0
M  V30 17667 O 1674.1 -1.89503 -1.04488 0
M  V30 17668 C 1674.69 -2.54913 2.2317 0
M  V30 17669 C 1673.25 -3.08062 2.16274 0
M  V30 17670 C 1672.4 -1.809 2.10168 0
M  V30 17671 H 1675.35 -0.635062 1.4544 0
M  V30 17672 H 1675.37 -3.32801 1.84455 0
M  V30 17673 H 1674.88 -2.14534 3.23414 0
M  V30 17674 H 1672.98 -3.52964 1.19362 0
M  V30 17675 H 1673.1 -3.67637 3.07213 0
M  V30 17676 H 1671.46 -2.01508 1.55778 0
M  V30 17677 H 1672.24 -1.42705 3.12234 0
M  V30 17678 N 1674.69 -1.17582 -1.04939 0
M  V30 17679 C 1675.6 -0.909588 -2.16249 0
M  V30 17680 C 1676.61 0.123166 -1.73564 0
M  V30 17681 O 1677.79 -0.0566976 -2.0132 0
M  V30 17682 C 1674.85 -0.429342 -3.44031 0
M  V30 17683 C 1673.92 -1.529 -4.01149 0
M  V30 17684 C 1673.15 -1.07157 -5.22832 0
M  V30 17685 O 1673.37 0.0732634 -5.70353 0
M  V30 17686 O 1672.31 -1.86567 -5.72255 0
M  V30 17687 H 1676.13 -1.84074 -2.41558 0
M  V30 17688 H 1673.72 -0.956914 -1.14732 0
M  V30 17689 H 1675.6 -0.16917 -4.2106 0
M  V30 17690 H 1674.27 0.473629 -3.20216 0
M  V30 17691 H 1673.18 -1.84308 -3.25548 0
M  V30 17692 H 1674.51 -2.40777 -4.29287 0
M  V30 17693 N 1676.17 1.23705 -0.976463 0
M  V30 17694 C 1677.1 2.2734 -0.532809 0
M  V30 17695 C 1678.08 1.64523 0.432012 0
M  V30 17696 O 1679.26 1.9144 0.326233 0
M  V30 17697 C 1676.39 3.46887 0.169374 0
M  V30 17698 C 1675.35 4.22031 -0.712336 0
M  V30 17699 C 1674.67 5.34561 0.121838 0
M  V30 17700 C 1675.97 4.8244 -2.00123 0
M  V30 17701 H 1677.67 2.64702 -1.39904 0
M  V30 17702 H 1675.21 1.27244 -0.674156 0
M  V30 17703 H 1677.16 4.18529 0.491028 0
M  V30 17704 H 1675.89 3.08574 1.07002 0
M  V30 17705 H 1674.55 3.522 -1.01739 0
M  V30 17706 H 1674.2 4.92489 1.0229 0
M  V30 17707 H 1673.9 5.85758 -0.464962 0
M  V30 17708 H 1675.42 6.09027 0.437963 0
M  V30 17709 H 1676.83 5.46111 -1.7446 0
M  V30 17710 H 1675.23 5.43906 -2.53548 0
M  V30 17711 H 1676.3 4.03405 -2.69059 0
M  V30 17712 N 1677.64 0.747635 1.38738 0
M  V30 17713 C 1679.06 0.424577 1.53849 0
M  V30 17714 C 1679.26 -1.06304 1.71177 0
M  V30 17715 O 1678.32 -1.84912 1.71941 0
M  V30 17716 C 1679.63 1.21863 2.749 0
M  V30 17717 C 1681.18 1.20811 2.88745 0
M  V30 17718 C 1681.65 1.985 4.12749 0
M  V30 17719 N 1683.14 1.9573 4.19814 0
M  V30 17720 C 1683.88 2.52641 5.14743 0
M  V30 17721 N 1683.37 3.18241 6.15382 0
M  V30 17722 N 1685.17 2.42604 5.0705 0
M  V30 17723 H 1677.32 1.71182 1.25739 0
M  V30 17724 H 1679.58 0.725358 0.610376 0
M  V30 17725 H 1679.29 2.27181 2.6848 0
M  V30 17726 H 1679.16 0.831509 3.67921 0
M  V30 17727 H 1681.55 0.163013 2.94649 0
M  V30 17728 H 1681.63 1.6347 1.96752 0
M  V30 17729 H 1681.27 3.03017 4.07606 0
M  V30 17730 H 1681.2 1.53239 5.03811 0
M  V30 17731 H 1683.69 1.4795 3.47734 0
M  V30 17732 H 1684.01 3.59101 6.843 0
M  V30 17733 H 1682.35 3.22334 6.15732 0
M  V30 17734 H 1685.54 1.90987 4.27366 0
M  V30 17735 H 1685.72 2.87253 5.80852 0
M  V30 17736 N 1679.12 -1.49583 0.496242 0
M  V30 17737 C 1680.08 -2.27561 -0.273642 0
M  V30 17738 C 1681.08 -1.33375 -0.8982 0
M  V30 17739 O 1682.27 -1.56578 -0.76347 0
M  V30 17740 C 1679.41 -3.11178 -1.39216 0
M  V30 17741 H 1680.6 -2.97077 0.410543 0
M  V30 17742 H 1678.15 -1.54271 0.251058 0
M  V30 17743 H 1678.89 -2.46217 -2.11064 0
M  V30 17744 H 1678.67 -3.80422 -0.949829 0
M  V30 17745 H 1680.16 -3.70085 -1.93459 0
M  V30 17746 N 1680.6 -0.229873 -1.55915 0
M  V30 17747 C 1681.55 0.690362 -2.17297 0
M  V30 17748 C 1682.53 1.15155 -1.12375 0
M  V30 17749 O 1683.73 1.10416 -1.38338 0
M  V30 17750 C 1680.85 1.89461 -2.86286 0
M  V30 17751 C 1679.94 1.45271 -3.98443 0
M  V30 17752 N 1680.33 0.723932 -5.00593 0
M  V30 17753 C 1678.63 1.73935 -4.10686 0
M  V30 17754 C 1679.33 0.497439 -5.79569 0
M  V30 17755 N 1678.31 1.05662 -5.33232 0
M  V30 17756 H 1682.11 0.12522 -2.93633 0
M  V30 17757 H 1679.62 -0.0314724 -1.6237 0
M  V30 17758 H 1681.62 2.5647 -3.28677 0
M  V30 17759 H 1680.28 2.46414 -2.11448 0
M  V30 17760 H 1681.29 0.375765 -5.16535 0
M  V30 17761 H 1677.97 2.32149 -3.47006 0
M  V30 17762 H 1679.36 -0.0831841 -6.71849 0
M  V30 17763 N 1682.08 1.5754 0.0434337 0
M  V30 17764 C 1683.32 1.88608 0.737108 0
M  V30 17765 C 1683.65 0.825342 1.7612 0
M  V30 17766 O 1682.91 -0.175437 1.94912 0
M  V30 17767 C 1683.21 3.26402 1.45591 0
M  V30 17768 C 1682.87 4.47294 0.56915 0
M  V30 17769 C 1681.53 4.80102 0.324866 0
M  V30 17770 C 1683.89 5.21181 -0.0439735 0
M  V30 17771 C 1681.21 5.84195 -0.541556 0
M  V30 17772 C 1683.57 6.26194 -0.898013 0
M  V30 17773 C 1682.23 6.57486 -1.1519 0
M  V30 17774 H 1681.5 0.690166 0.269727 0
M  V30 17775 H 1684.15 1.915 -0.00275199 0
M  V30 17776 H 1682.45 3.19431 2.26872 0
M  V30 17777 H 1684.15 3.47684 1.99793 0
M  V30 17778 H 1680.74 4.21632 0.769694 0
M  V30 17779 H 1684.92 4.96125 0.131816 0
M  V30 17780 H 1680.18 6.06823 -0.746711 0
M  V30 17781 H 1684.35 6.82596 -1.37969 0
M  V30 17782 H 1681.98 7.37969 -1.82501 0
M  V30 17783 N 1683.56 -0.31543 1.54411 0
M  V30 17784 C 1684.47 -1.41136 1.87397 0
M  V30 17785 C 1685.48 -1.56199 0.76668 0
M  V30 17786 O 1686.66 -1.71139 1.06176 0
M  V30 17787 C 1683.72 -2.75731 2.10174 0
M  V30 17788 C 1682.78 -2.69776 3.33945 0
M  V30 17789 C 1682.02 -3.97952 3.55626 0
M  V30 17790 O 1682.24 -4.96614 2.80589 0
M  V30 17791 O 1681.17 -4.00719 4.49119 0
M  V30 17792 H 1685 -1.16167 2.80605 0
M  V30 17793 H 1682.58 -0.510193 1.40419 0
M  V30 17794 H 1684.47 -3.55392 2.26439 0
M  V30 17795 H 1683.14 -3.00574 1.20154 0
M  V30 17796 H 1682.05 -1.88638 3.23058 0
M  V30 17797 H 1683.38 -2.49887 4.24049 0
M  V30 17798 N 1685.03 -1.46622 -0.577906 0
M  V30 17799 C 1686.45 -1.46287 -1.16004 0
M  V30 17800 C 1686.8 -0.206307 -1.95112 0
M  V30 17801 O 1685.92 0.690275 -2.05096 0
M  V30 17802 C 1686.52 -2.65042 -2.1104 0
M  V30 17803 C 1685.08 -2.67733 -2.64567 0
M  V30 17804 C 1684.22 -2.39053 -1.40531 0
M  V30 17805 H 1687.17 -1.54432 -0.365585 0
M  V30 17806 H 1687.19 -2.40834 -2.94583 0
M  V30 17807 H 1686.71 -3.56481 -1.53436 0
M  V30 17808 H 1684.81 -1.80379 -3.26028 0
M  V30 17809 H 1684.92 -3.67836 -3.06974 0
M  V30 17810 H 1683.28 -1.89209 -1.70506 0
M  V30 17811 H 1684.07 -3.32674 -0.847509 0
M  V30 17812 N 1686.51 0.822941 -1.34408 0
M  V30 17813 C 1687.74 1.61087 -1.2984 0
M  V30 17814 C 1688.16 1.88369 0.127527 0
M  V30 17815 O 1687.51 1.47508 1.0746 0
M  V30 17816 C 1687.56 2.9518 -2.08689 0
M  V30 17817 O 1687.28 2.69089 -3.45721 0
M  V30 17818 C 1688.79 3.89583 -2.11518 0
M  V30 17819 H 1686.01 0.500726 -0.44667 0
M  V30 17820 H 1688.55 1.02391 -1.77021 0
M  V30 17821 H 1686.7 3.50434 -1.6515 0
M  V30 17822 H 1687.12 3.5459 -3.86479 0
M  V30 17823 H 1688.59 4.80835 -2.71111 0
M  V30 17824 H 1689.07 4.24953 -1.10957 0
M  V30 17825 H 1689.68 3.40265 -2.55146 0
M  V30 17826 N 1687.99 1.18137 1.04314 0
M  V30 17827 C 1689.23 0.986144 1.79038 0
M  V30 17828 C 1689.59 -0.476023 1.86005 0
M  V30 17829 O 1690.8 -0.790612 2.5691 0
M  V30 17830 C 1689.07 1.62008 3.18572 0
M  V30 17831 S 1690.63 1.57227 4.09665 0
M  V30 17832 H 1687.44 0.354181 0.616503 0
M  V30 17833 H 1690.05 1.50237 1.25096 0
M  V30 17834 H 1688.75 2.67655 3.11109 0
M  V30 17835 H 1688.28 1.10403 3.77591 0
M  V30 17836 H 1690.3 0.586418 4.92723 0
M  V30 17837 N 1689.47 -1.23186 0.98301 0
M  V30 17838 C 1690.38 -2.28448 0.533727 0
M  V30 17839 C 1691.39 -1.69034 -0.412732 0
M  V30 17840 O 1692.57 -1.99416 -0.282007 0
M  V30 17841 C 1689.64 -3.46357 -0.154179 0
M  V30 17842 C 1688.7 -4.21121 0.834009 0
M  V30 17843 C 1687.93 -5.334 0.178836 0
M  V30 17844 O 1688.15 -5.61032 -1.02952 0
M  V30 17845 O 1687.09 -5.95451 0.878722 0
M  V30 17846 H 1690.91 -2.69027 1.40919 0
M  V30 17847 H 1688.5 -1.29166 0.75077 0
M  V30 17848 H 1690.38 -4.17926 -0.539947 0
M  V30 17849 H 1689.05 -3.07724 -1.00437 0
M  V30 17850 H 1687.96 -3.51864 1.27053 0
M  V30 17851 H 1689.29 -4.6361 1.65309 0
M  V30 17852 N 1690.95 -0.754982 -1.38339 0
M  V30 17853 C 1692.17 -0.322624 -2.04369 0
M  V30 17854 C 1692.59 1.04951 -1.56942 0
M  V30 17855 O 1691.95 1.66686 -0.743109 0
M  V30 17856 C 1692 -0.337767 -3.59919 0
M  V30 17857 O 1691.72 -1.65576 -4.05606 0
M  V30 17858 C 1693.22 0.108281 -4.43168 0
M  V30 17859 H 1690.44 -0.137626 -0.656734 0
M  V30 17860 H 1692.98 -1.02422 -1.77003 0
M  V30 17861 H 1691.14 0.315106 -3.86116 0
M  V30 17862 H 1691.55 -1.5829 -5.00045 0
M  V30 17863 H 1693.03 0.0465256 -5.5198 0
M  V30 17864 H 1693.5 1.15636 -4.23704 0
M  V30 17865 H 1694.11 -0.51577 -4.22161 0
M  V30 17866 N 1692.42 1.49318 -0.504168 0
M  V30 17867 C 1693.33 2.32958 0.277053 0
M  V30 17868 C 1694.35 1.44838 0.964266 0
M  V30 17869 O 1695.53 1.77856 0.944947 0
M  V30 17870 C 1692.59 3.20352 1.32572 0
M  V30 17871 C 1691.65 4.24326 0.651606 0
M  V30 17872 C 1690.89 5.07544 1.65031 0
M  V30 17873 O 1691.11 4.92326 2.88047 0
M  V30 17874 O 1690.04 5.89737 1.20388 0
M  V30 17875 H 1693.87 3.00952 -0.40763 0
M  V30 17876 H 1691.45 1.47023 -0.265453 0
M  V30 17877 H 1693.34 3.74483 1.93237 0
M  V30 17878 H 1692.01 2.5505 1.99327 0
M  V30 17879 H 1690.92 3.741 0.00513384 0
M  V30 17880 H 1692.25 4.92193 0.0264424 0
M  V30 17881 N 1693.9 0.238138 1.5579 0
M  V30 17882 C 1695.15 -0.388263 1.98335 0
M  V30 17883 C 1695.47 -1.59104 1.12743 0
M  V30 17884 O 1694.74 -1.9479 0.208201 0
M  V30 17885 H 1693.32 -0.14644 0.732505 0
M  V30 17886 H 1695.98 0.334891 1.92001 0
M  V30 17887 H 1695.08 -0.703359 3.04071 0
M  V30 17888 N 1695.38 -1.57561 -0.0350783 0
M  V30 17889 C 1696.63 -1.89276 -0.728172 0
M  V30 17890 C 1696.96 -0.835137 -1.75326 0
M  V30 17891 O 1696.23 0.150516 -1.93917 0
M  V30 17892 C 1696.52 -3.31638 -1.40316 0
M  V30 17893 C 1696.37 -4.48089 -0.391996 0
M  V30 17894 C 1697.69 -3.72816 -2.33872 0
M  V30 17895 H 1694.81 -0.688381 -0.26325 0
M  V30 17896 H 1697.45 -1.89998 0.00900661 0
M  V30 17897 H 1695.6 -3.31153 -2.0315 0
M  V30 17898 H 1697.27 -4.60706 0.233965 0
M  V30 17899 H 1695.52 -4.32834 0.289305 0
M  V30 17900 H 1696.19 -5.4457 -0.902641 0
M  V30 17901 H 1698.66 -3.74629 -1.81086 0
M  V30 17902 H 1697.54 -4.73245 -2.78084 0
M  V30 17903 H 1697.8 -3.04744 -3.20287 0
M  V30 17904 N 1696.86 0.307236 -1.54576 0
M  V30 17905 C 1698.14 1.06243 -1.64231 0
M  V30 17906 C 1698.52 2.05415 -0.486589 0
M  V30 17907 O 1697.86 2.22565 0.517384 0
M  V30 17908 C 1698.07 1.74985 -3.01962 0
M  V30 17909 C 1699.42 2.2741 -3.58566 0
M  V30 17910 O 1700.45 1.85027 -3.04374 0
M  V30 17911 O 1699.3 3.05051 -4.53438 0
M  V30 17912 H 1696.4 0.490693 -0.665695 0
M  V30 17913 H 1698.94 0.305822 -1.66922 0
M  V30 17914 H 1697.72 1.02939 -3.77517 0
M  V30 17915 H 1697.34 2.57417 -3.03022 0
M  V30 17916 N 1698.34 1.46926 0.570122 0
M  V30 17917 C 1699.28 1.58442 1.67824 0
M  V30 17918 C 1700.25 0.428053 1.6049 0
M  V30 17919 O 1701.44 0.646445 1.79515 0
M  V30 17920 C 1698.58 1.59253 3.06158 0
M  V30 17921 C 1697.69 2.85714 3.24024 0
M  V30 17922 C 1696.83 2.77945 4.52681 0
M  V30 17923 C 1695.87 3.99289 4.63934 0
M  V30 17924 N 1695 3.89833 5.83931 0
M  V30 17925 H 1699.84 2.5309 1.5732 0
M  V30 17926 H 1697.38 1.25549 0.766548 0
M  V30 17927 H 1699.34 1.57707 3.86244 0
M  V30 17928 H 1697.97 0.68127 3.15529 0
M  V30 17929 H 1697.02 2.97184 2.37458 0
M  V30 17930 H 1698.33 3.7561 3.28206 0
M  V30 17931 H 1697.49 2.74576 5.41011 0
M  V30 17932 H 1696.22 1.85711 4.50958 0
M  V30 17933 H 1695.23 4.02976 3.74019 0
M  V30 17934 H 1696.45 4.92635 4.67427 0
M  V30 17935 H 1694.4 3.00393 5.83181 0
M  V30 17936 H 1694.32 4.73395 5.89434 0
M  V30 17937 H 1695.59 3.90459 6.74657 0
M  V30 17938 N 1699.82 -0.815801 1.34842 0
M  V30 17939 C 1701.09 -1.55867 1.18173 0
M  V30 17940 C 1701.47 -2.09698 -0.242848 0
M  V30 17941 O 1700.82 -1.91594 -1.24514 0
M  V30 17942 C 1701.03 -2.67445 2.24219 0
M  V30 17943 C 1702.38 -3.36027 2.59559 0
M  V30 17944 O 1703.4 -2.77708 2.23062 0
M  V30 17945 O 1702.26 -4.4136 3.22279 0
M  V30 17946 H 1699.36 -0.688242 0.458533 0
M  V30 17947 H 1701.9 -0.856558 1.46496 0
M  V30 17948 H 1700.67 -2.25473 3.19809 0
M  V30 17949 H 1700.3 -3.453 1.97113 0
M  V30 17950 N 1701.29 -1.18689 -1.03686 0
M  V30 17951 C 1702.23 -0.860751 -2.11344 0
M  V30 17952 C 1703.2 0.178884 -1.61613 0
M  V30 17953 O 1704.39 0.05699 -1.88414 0
M  V30 17954 C 1701.52 -0.286745 -3.37484 0
M  V30 17955 C 1700.56 -1.30417 -4.06071 0
M  V30 17956 S 1701.39 -2.86155 -4.52632 0
M  V30 17957 C 1702.55 -2.30276 -5.82 0
M  V30 17958 H 1702.78 -1.77251 -2.38683 0
M  V30 17959 H 1700.32 -1.01316 -1.16509 0
M  V30 17960 H 1702.27 0.0379216 -4.10482 0
M  V30 17961 H 1700.94 0.60319 -3.08254 0
M  V30 17962 H 1700.13 -0.851497 -4.96755 0
M  V30 17963 H 1699.73 -1.57527 -3.39207 0
M  V30 17964 H 1702.02 -1.68773 -6.56142 0
M  V30 17965 H 1702.97 -3.19275 -6.32036 0
M  V30 17966 H 1703.37 -1.73153 -5.37288 0
M  V30 17967 N 1702.77 1.22662 -0.989529 0
M  V30 17968 C 1704.05 1.86816 -0.579566 0
M  V30 17969 C 1704.43 1.88858 0.943188 0
M  V30 17970 O 1703.78 1.37668 1.82372 0
M  V30 17971 C 1703.99 3.27863 -1.19612 0
M  V30 17972 C 1705.33 4.04384 -1.29454 0
M  V30 17973 O 1706.36 3.37116 -1.15026 0
M  V30 17974 O 1705.22 5.24789 -1.52508 0
M  V30 17975 H 1702.31 0.803332 -0.196434 0
M  V30 17976 H 1704.86 1.30467 -1.08519 0
M  V30 17977 H 1703.63 3.20993 -2.23784 0
M  V30 17978 H 1703.25 3.91813 -0.675875 0
M  V30 17979 N 1704.25 0.762308 1.37937 0
M  V30 17980 C 1705.16 0.142724 2.34165 0
M  V30 17981 C 1706.18 -0.690588 1.59709 0
M  V30 17982 O 1707.35 -0.61271 1.91854 0
M  V30 17983 C 1704.42 -0.733325 3.38856 0
M  V30 17984 C 1703.48 0.115359 4.29145 0
M  V30 17985 C 1702.71 -0.718972 5.28835 0
M  V30 17986 O 1702.93 -1.95656 5.35794 0
M  V30 17987 O 1701.87 -0.133162 6.01753 0
M  V30 17988 H 1705.69 0.937662 2.88863 0
M  V30 17989 H 1703.28 0.523325 1.39935 0
M  V30 17990 H 1705.16 -1.23374 4.02935 0
M  V30 17991 H 1703.84 -1.50661 2.86501 0
M  V30 17992 H 1702.74 0.661926 3.68197 0
M  V30 17993 H 1704.08 0.851505 4.84779 0
M  V30 17994 N 1705.73 -1.49049 0.51208 0
M  V30 17995 C 1706.69 -2.27838 -0.249491 0
M  V30 17996 C 1707.69 -1.34321 -0.884004 0
M  V30 17997 O 1708.88 -1.57379 -0.74682 0
M  V30 17998 C 1706.01 -3.12637 -1.35908 0
M  V30 17999 H 1707.21 -2.96625 0.442029 0
M  V30 18000 H 1704.76 -1.53996 0.267406 0
M  V30 18001 H 1705.49 -2.48441 -2.0844 0
M  V30 18002 H 1705.28 -3.81408 -0.909427 0
M  V30 18003 H 1706.77 -3.72117 -1.89523 0
M  V30 18004 N 1707.21 -0.246397 -1.55662 0
M  V30 18005 C 1708.12 0.664125 -2.25003 0
M  V30 18006 C 1709.13 1.19368 -1.26598 0
M  V30 18007 O 1710.31 1.23006 -1.59473 0
M  V30 18008 C 1707.37 1.8446 -2.93557 0
M  V30 18009 C 1706.43 1.35456 -4.0737 0
M  V30 18010 C 1705.67 2.47877 -4.72645 0
M  V30 18011 O 1705.89 3.66594 -4.36995 0
M  V30 18012 O 1704.82 2.17663 -5.61165 0
M  V30 18013 H 1708.65 0.103277 -3.03524 0
M  V30 18014 H 1706.23 -0.0149207 -1.49393 0
M  V30 18015 H 1708.12 2.53349 -3.36737 0
M  V30 18016 H 1706.79 2.39308 -2.17976 0
M  V30 18017 H 1705.7 0.632958 -3.68706 0
M  V30 18018 H 1707.03 0.852175 -4.84767 0
M  V30 18019 N 1708.68 1.57577 0.026722 0
M  V30 18020 C 1709.59 2.10114 1.04351 0
M  V30 18021 C 1710.61 1.04029 1.39477 0
M  V30 18022 O 1711.79 1.35778 1.48749 0
M  V30 18023 C 1708.85 2.57203 2.32481 0
M  V30 18024 C 1707.91 3.77779 2.03915 0
M  V30 18025 C 1707.14 4.22613 3.25936 0
M  V30 18026 O 1707.37 3.66955 4.36692 0
M  V30 18027 O 1706.3 5.15026 3.11499 0
M  V30 18028 H 1710.13 2.97157 0.627021 0
M  V30 18029 H 1707.71 1.47396 0.243855 0
M  V30 18030 H 1709.59 2.87809 3.07805 0
M  V30 18031 H 1708.27 1.7327 2.73421 0
M  V30 18032 H 1707.18 3.52188 1.26152 0
M  V30 18033 H 1708.51 4.62703 1.67829 0
M  V30 18034 N 1710.16 -0.299034 1.54737 0
M  V30 18035 C 1711.41 -1.03195 1.73767 0
M  V30 18036 C 1711.73 -1.87731 0.527445 0
M  V30 18037 O 1711 -1.90465 -0.458242 0
M  V30 18038 H 1709.58 -0.383996 0.640747 0
M  V30 18039 H 1712.24 -0.329544 1.92094 0
M  V30 18040 H 1711.34 -1.68393 2.62774 0
M  V30 18041 N 1711.64 -1.47227 -0.562322 0
M  V30 18042 C 1712.87 -1.56968 -1.34331 0
M  V30 18043 C 1713.28 -0.217012 -1.87951 0
M  V30 18044 O 1712.62 0.79911 -1.65408 0
M  V30 18045 C 1712.68 -2.53072 -2.55332 0
M  V30 18046 C 1712.35 -3.98879 -2.23035 0
M  V30 18047 C 1713.34 -4.87511 -1.80636 0
M  V30 18048 C 1711.03 -4.44174 -2.34551 0
M  V30 18049 C 1713.02 -6.19456 -1.50176 0
M  V30 18050 C 1710.71 -5.76149 -2.03704 0
M  V30 18051 C 1711.71 -6.63611 -1.61584 0
M  V30 18052 O 1711.4 -7.93134 -1.31125 0
M  V30 18053 H 1711.13 -0.532854 -0.415984 0
M  V30 18054 H 1713.68 -1.93515 -0.688552 0
M  V30 18055 H 1711.91 -2.11582 -3.23682 0
M  V30 18056 H 1713.6 -2.52996 -3.17408 0
M  V30 18057 H 1714.37 -4.53766 -1.71236 0
M  V30 18058 H 1710.25 -3.76308 -2.66295 0
M  V30 18059 H 1713.79 -6.8768 -1.17227 0
M  V30 18060 H 1709.69 -6.09438 -2.12735 0
M  V30 18061 H 1710.45 -8.0559 -1.44799 0
M  V30 18062 N 1713.12 0.808639 -1.35273 0
M  V30 18063 C 1714.53 1.38248 -1.25477 0
M  V30 18064 C 1714.88 1.9587 0.113715 0
M  V30 18065 O 1714 1.91141 1.0146 0
M  V30 18066 C 1714.6 2.5133 -2.27197 0
M  V30 18067 C 1713.16 3.04582 -2.21148 0
M  V30 18068 C 1712.31 1.77534 -2.13019 0
M  V30 18069 H 1715.26 0.611844 -1.46431 0
M  V30 18070 H 1715.28 3.29825 -1.89726 0
M  V30 18071 H 1714.79 2.09362 -3.26786 0
M  V30 18072 H 1712.89 3.5102 -1.24963 0
M  V30 18073 H 1713 3.62703 -3.13023 0
M  V30 18074 H 1711.37 1.99004 -1.58964 0
M  V30 18075 H 1712.15 1.3772 -3.14465 0
M  V30 18076 N 1714.6 1.19237 1.03055 0
M  V30 18077 C 1716.01 0.996569 1.57878 0
M  V30 18078 C 1716.36 -0.450987 1.90946 0
M  V30 18079 O 1715.48 -1.33009 1.70697 0
M  V30 18080 C 1716.08 1.80272 2.86858 0
M  V30 18081 C 1714.64 1.65097 3.3826 0
M  V30 18082 C 1713.78 1.79079 2.11721 0
M  V30 18083 H 1716.74 1.33633 0.856037 0
M  V30 18084 H 1716.76 1.29781 3.57683 0
M  V30 18085 H 1716.27 2.85621 2.62759 0
M  V30 18086 H 1714.37 0.623267 3.6735 0
M  V30 18087 H 1714.48 2.45527 4.11404 0
M  V30 18088 H 1712.85 1.22124 2.23512 0
M  V30 18089 H 1713.63 2.85885 1.90065 0
M  V30 18090 N 1716.07 -1.22136 0.99602 0
M  V30 18091 C 1717.04 -2.22404 0.553986 0
M  V30 18092 C 1718.04 -1.56607 -0.364832 0
M  V30 18093 O 1719.23 -1.73497 -0.156358 0
M  V30 18094 C 1716.36 -3.40349 -0.193794 0
M  V30 18095 H 1717.55 -2.63026 1.44075 0
M  V30 18096 H 1715.11 -1.35241 0.78356 0
M  V30 18097 H 1715.84 -3.05204 -1.0964 0
M  V30 18098 H 1715.63 -3.89321 0.465972 0
M  V30 18099 H 1717.12 -4.14702 -0.491121 0
M  V30 18100 N 1717.55 -0.769612 -1.37531 0
M  V30 18101 C 1718.78 -0.344282 -2.04015 0
M  V30 18102 C 1719.2 1.03281 -1.58046 0
M  V30 18103 O 1718.55 1.65888 -0.760746 0
M  V30 18104 C 1718.6 -0.375922 -3.5954 0
M  V30 18105 O 1718.32 -1.69869 -4.03827 0
M  V30 18106 C 1719.83 0.0612715 -4.43258 0
M  V30 18107 H 1717.05 -0.144584 -0.655238 0
M  V30 18108 H 1719.59 -1.04294 -1.75906 0
M  V30 18109 H 1717.74 0.274136 -3.86429 0
M  V30 18110 H 1718.16 -1.63584 -4.98338 0
M  V30 18111 H 1719.63 -0.012022 -5.51999 0
M  V30 18112 H 1720.11 1.11136 -4.24906 0
M  V30 18113 H 1720.72 -0.560517 -4.2159 0
M  V30 18114 N 1719.03 1.48775 -0.519977 0
M  V30 18115 C 1720.28 2.02092 0.0177154 0
M  V30 18116 C 1720.6 1.40024 1.35714 0
M  V30 18117 O 1719.87 0.562115 1.87662 0
M  V30 18118 H 1718.45 0.746939 0.00953578 0
M  V30 18119 H 1721.11 1.82595 -0.681535 0
M  V30 18120 H 1720.21 3.11815 0.133431 0
M  V30 18121 N 1720.51 0.254649 1.55529 0
M  V30 18122 C 1721.92 -0.247042 1.85058 0
M  V30 18123 C 1722.27 -1.57009 1.17655 0
M  V30 18124 O 1721.4 -2.11506 0.457638 0
M  V30 18125 C 1721.99 -0.455017 3.35731 0
M  V30 18126 C 1720.55 -0.900961 3.65458 0
M  V30 18127 C 1719.7 0.0174436 2.77295 0
M  V30 18128 H 1722.65 0.477005 1.51362 0
M  V30 18129 H 1722.67 -1.29654 3.57729 0
M  V30 18130 H 1722.18 0.508076 3.8476 0
M  V30 18131 H 1720.28 -1.87625 3.21913 0
M  V30 18132 H 1720.39 -0.752458 4.73154 0
M  V30 18133 H 1718.76 -0.495296 2.49838 0
M  V30 18134 H 1719.54 0.976049 3.29132 0
M  V30 18135 N 1721.99 -1.57589 -0.0183649 0
M  V30 18136 C 1723.23 -1.89382 -0.705612 0
M  V30 18137 C 1723.56 -0.853698 -1.7532 0
M  V30 18138 O 1722.83 0.111322 -1.95583 0
M  V30 18139 H 1721.41 -0.698943 -0.263605 0
M  V30 18140 H 1724.07 -1.94891 0.0182168 0
M  V30 18141 H 1723.16 -2.88587 -1.18845 0
M  V30 18142 N 1723.46 0.290824 -1.54893 0
M  V30 18143 C 1724.4 1.38087 -1.82933 0
M  V30 18144 C 1725.41 1.46365 -0.712811 0
M  V30 18145 O 1726.6 1.48501 -0.990432 0
M  V30 18146 C 1723.7 2.76374 -1.9614 0
M  V30 18147 C 1722.87 2.90905 -3.26639 0
M  V30 18148 C 1721.93 4.09754 -3.30134 0
M  V30 18149 O 1720.96 4.01356 -4.03611 0
M  V30 18150 N 1722.16 5.20878 -2.56254 0
M  V30 18151 H 1724.92 1.14385 -2.77013 0
M  V30 18152 H 1722.48 0.480916 -1.54592 0
M  V30 18153 H 1724.48 3.54144 -1.95868 0
M  V30 18154 H 1723.05 2.92978 -1.09008 0
M  V30 18155 H 1722.27 2.00164 -3.396 0
M  V30 18156 H 1723.55 2.97531 -4.12738 0
M  V30 18157 H 1722.95 5.30584 -1.96207 0
M  V30 18158 H 1721.51 5.96945 -2.61725 0
M  V30 18159 N 1724.94 1.47523 0.554506 0
M  V30 18160 C 1725.85 1.62851 1.68869 0
M  V30 18161 C 1726.87 0.511305 1.66318 0
M  V30 18162 O 1728.04 0.779195 1.85716 0
M  V30 18163 C 1725.11 1.64161 3.05372 0
M  V30 18164 C 1724.17 2.87327 3.1897 0
M  V30 18165 C 1723.4 2.88566 4.48961 0
M  V30 18166 O 1723.63 1.98937 5.34584 0
M  V30 18167 O 1722.56 3.80459 4.66406 0
M  V30 18168 H 1726.39 2.58826 1.5888 0
M  V30 18169 H 1723.97 1.3064 0.724822 0
M  V30 18170 H 1725.85 1.67686 3.866 0
M  V30 18171 H 1724.53 0.713534 3.15738 0
M  V30 18172 H 1723.44 2.89345 2.37129 0
M  V30 18173 H 1724.77 3.79438 3.13509 0
M  V30 18174 N 1726.42 -0.801453 1.357 0
M  V30 18175 C 1727.38 -1.89514 1.28907 0
M  V30 18176 C 1728.38 -1.59559 0.19938 0
M  V30 18177 O 1729.57 -1.68196 0.453408 0
M  V30 18178 C 1726.71 -3.26044 0.995411 0
M  V30 18179 H 1727.9 -1.96956 2.2616 0
M  V30 18180 H 1725.45 -0.997899 1.20298 0
M  V30 18181 H 1726.19 -3.24289 0.0269561 0
M  V30 18182 H 1725.97 -3.49172 1.78385 0
M  V30 18183 H 1727.46 -4.06092 0.97362 0
M  V30 18184 N 1727.9 -1.19782 -1.02421 0
M  V30 18185 C 1728.83 -0.897544 -2.10895 0
M  V30 18186 C 1729.84 0.111644 -1.62417 0
M  V30 18187 O 1731.03 -0.118381 -1.78107 0
M  V30 18188 C 1728.13 -0.322714 -3.3736 0
M  V30 18189 C 1727.31 -1.38159 -4.15007 0
M  V30 18190 C 1726.36 -0.819462 -5.1978 0
M  V30 18191 O 1725.39 -1.4983 -5.49126 0
M  V30 18192 N 1726.59 0.374925 -5.79288 0
M  V30 18193 H 1729.36 -1.83127 -2.37243 0
M  V30 18194 H 1726.92 -1.10045 -1.1875 0
M  V30 18195 H 1728.91 0.0673046 -4.04644 0
M  V30 18196 H 1727.48 0.5154 -3.08322 0
M  V30 18197 H 1726.7 -1.94627 -3.42803 0
M  V30 18198 H 1727.99 -2.09496 -4.63669 0
M  V30 18199 H 1727.39 0.943856 -5.5777 0
M  V30 18200 H 1725.94 0.706668 -6.47958 0
M  V30 18201 N 1729.38 1.21606 -1.00248 0
M  V30 18202 C 1730.79 1.72365 -0.717446 0
M  V30 18203 C 1731.14 1.80668 0.765078 0
M  V30 18204 O 1730.26 1.45951 1.59772 0
M  V30 18205 C 1730.86 3.13046 -1.29567 0
M  V30 18206 C 1729.42 3.61172 -1.05981 0
M  V30 18207 C 1728.57 2.38775 -1.41003 0
M  V30 18208 H 1731.52 1.06818 -1.17369 0
M  V30 18209 H 1731.54 3.74392 -0.679054 0
M  V30 18210 H 1731.05 3.0697 -2.37467 0
M  V30 18211 H 1729.15 3.726 0.00214307 0
M  V30 18212 H 1729.26 4.46778 -1.72993 0
M  V30 18213 H 1727.63 2.40839 -0.82877 0
M  V30 18214 H 1728.41 2.35352 -2.49928 0
M  V30 18215 N 1730.86 0.776895 1.37121 0
M  V30 18216 C 1731.81 0.140089 2.27569 0
M  V30 18217 C 1732.79 -0.668578 1.46352 0
M  V30 18218 O 1733.98 -0.530707 1.68856 0
M  V30 18219 C 1731.11 -0.734162 3.35358 0
M  V30 18220 C 1730.2 0.0826144 4.2402 0
M  V30 18221 N 1730.59 1.13084 4.92997 0
M  V30 18222 C 1728.89 -0.140551 4.45778 0
M  V30 18223 C 1729.59 1.62701 5.58483 0
M  V30 18224 N 1728.56 0.93832 5.3544 0
M  V30 18225 H 1732.36 0.942573 2.78375 0
M  V30 18226 H 1729.88 0.615144 1.50299 0
M  V30 18227 H 1731.88 -1.20618 3.9907 0
M  V30 18228 H 1730.54 -1.53533 2.86108 0
M  V30 18229 H 1731.55 1.51308 4.95304 0
M  V30 18230 H 1728.22 -0.913223 4.0739 0
M  V30 18231 H 1729.61 2.50145 6.236 0
M  V30 18232 N 1732.33 -1.48497 0.527859 0
M  V30 18233 C 1733.27 -2.27566 -0.273157 0
M  V30 18234 C 1734.28 -1.35235 -0.906381 0
M  V30 18235 O 1735.47 -1.60303 -0.785182 0
M  V30 18236 C 1732.57 -3.08546 -1.40187 0
M  V30 18237 C 1731.74 -4.28641 -0.870962 0
M  V30 18238 C 1730.8 -4.91449 -1.88054 0
M  V30 18239 O 1729.83 -5.50727 -1.43833 0
M  V30 18240 N 1731.03 -4.83501 -3.21259 0
M  V30 18241 H 1733.79 -2.96951 0.404963 0
M  V30 18242 H 1731.35 -1.578 0.362057 0
M  V30 18243 H 1733.35 -3.47434 -2.07537 0
M  V30 18244 H 1731.92 -2.41596 -1.98369 0
M  V30 18245 H 1731.14 -3.94194 -0.0215331 0
M  V30 18246 H 1732.42 -5.06385 -0.495105 0
M  V30 18247 H 1731.82 -4.36487 -3.59855 0
M  V30 18248 H 1730.38 -5.26495 -3.84248 0
M  V30 18249 N 1733.81 -0.262893 -1.55392 0
M  V30 18250 C 1734.74 0.66288 -2.19405 0
M  V30 18251 C 1735.76 1.12675 -1.17508 0
M  V30 18252 O 1736.95 1.05077 -1.44295 0
M  V30 18253 C 1734.05 1.91471 -2.79628 0
M  V30 18254 C 1733.22 1.59966 -4.07099 0
M  V30 18255 C 1732.28 2.7027 -4.51487 0
M  V30 18256 O 1731.3 2.36976 -5.17524 0
M  V30 18257 N 1732.51 4.0009 -4.20605 0
M  V30 18258 H 1735.27 0.115075 -2.99479 0
M  V30 18259 H 1732.83 -0.0834933 -1.61685 0
M  V30 18260 H 1734.82 2.64535 -3.06273 0
M  V30 18261 H 1733.39 2.37188 -2.03619 0
M  V30 18262 H 1732.61 0.703431 -3.87873 0
M  V30 18263 H 1733.9 1.36402 -4.90175 0
M  V30 18264 H 1733.3 4.29966 -3.67621 0
M  V30 18265 H 1731.86 4.69569 -4.52049 0
M  V30 18266 N 1735.29 1.57597 0.0100073 0
M  V30 18267 C 1736.24 2.04265 1.01292 0
M  V30 18268 C 1737.22 0.93547 1.30911 0
M  V30 18269 O 1738.42 1.19929 1.30177 0
M  V30 18270 C 1735.54 2.54129 2.3081 0
M  V30 18271 C 1734.63 3.71704 2.04198 0
M  V30 18272 N 1735.02 4.83752 1.47709 0
M  V30 18273 C 1733.32 3.79443 2.34391 0
M  V30 18274 C 1734.02 5.65255 1.37339 0
M  V30 18275 N 1733 5.1095 1.85556 0
M  V30 18276 H 1736.8 2.8831 0.570489 0
M  V30 18277 H 1734.31 1.60958 0.215919 0
M  V30 18278 H 1736.31 2.85832 3.03489 0
M  V30 18279 H 1734.97 1.71497 2.75715 0
M  V30 18280 H 1735.98 5.04805 1.15723 0
M  V30 18281 H 1732.66 3.07648 2.82239 0
M  V30 18282 H 1734.05 6.65293 0.939918 0
M  V30 18283 N 1736.77 -0.282606 1.55045 0
M  V30 18284 C 1737.7 -1.35347 1.90272 0
M  V30 18285 C 1738.68 -1.52001 0.763532 0
M  V30 18286 O 1739.86 -1.65204 1.02085 0
M  V30 18287 C 1736.99 -2.71464 2.16621 0
M  V30 18288 C 1735.95 -2.69554 3.32453 0
M  V30 18289 C 1735.27 -4.09132 3.4426 0
M  V30 18290 C 1736.57 -2.29669 4.69094 0
M  V30 18291 H 1738.27 -1.06113 2.79965 0
M  V30 18292 H 1735.81 -0.509018 1.34703 0
M  V30 18293 H 1737.77 -3.46482 2.39851 0
M  V30 18294 H 1736.49 -3.02261 1.23717 0
M  V30 18295 H 1735.15 -1.96993 3.09175 0
M  V30 18296 H 1734.8 -4.37136 2.4884 0
M  V30 18297 H 1734.5 -4.08751 4.22133 0
M  V30 18298 H 1736.02 -4.85903 3.69771 0
M  V30 18299 H 1737.44 -2.94407 4.91932 0
M  V30 18300 H 1735.83 -2.40467 5.49814 0
M  V30 18301 H 1736.9 -1.24796 4.68566 0
M  V30 18302 N 1738.25 -1.47815 -0.546675 0
M  V30 18303 C 1739.47 -1.58864 -1.33331 0
M  V30 18304 C 1739.9 -0.24302 -1.86524 0
M  V30 18305 O 1739.25 0.782777 -1.63531 0
M  V30 18306 C 1739.3 -2.62556 -2.47177 0
M  V30 18307 O 1738.41 -2.18558 -3.49723 0
M  V30 18308 H 1737.75 -0.53329 -0.395598 0
M  V30 18309 H 1740.28 -1.93677 -0.659579 0
M  V30 18310 H 1740.29 -2.83307 -2.936 0
M  V30 18311 H 1738.96 -3.60255 -2.0782 0
M  V30 18312 H 1737.54 -2.0795 -3.09534 0
M  V30 18313 N 1739.72 0.794246 -1.36123 0
M  V30 18314 C 1740.65 1.92105 -1.32732 0
M  V30 18315 C 1741.63 1.68925 -0.199603 0
M  V30 18316 O 1742.82 1.90109 -0.396498 0
M  V30 18317 C 1739.95 3.29051 -1.11098 0
M  V30 18318 C 1738.9 3.66743 -2.20643 0
M  V30 18319 C 1738.23 5.01986 -1.84159 0
M  V30 18320 C 1739.53 3.75831 -3.62696 0
M  V30 18321 H 1741.22 1.952 -2.27018 0
M  V30 18322 H 1738.77 0.937746 -1.09281 0
M  V30 18323 H 1740.72 4.07494 -1.07362 0
M  V30 18324 H 1739.45 3.26331 -0.132614 0
M  V30 18325 H 1738.11 2.90594 -2.23497 0
M  V30 18326 H 1737.75 4.95782 -0.849081 0
M  V30 18327 H 1737.45 5.28175 -2.57497 0
M  V30 18328 H 1738.98 5.82855 -1.8197 0
M  V30 18329 H 1740.39 4.44476 -3.62096 0
M  V30 18330 H 1738.79 4.135 -4.34899 0
M  V30 18331 H 1739.86 2.7706 -3.97952 0
M  V30 18332 N 1741.2 1.20323 1.01785 0
M  V30 18333 C 1742.13 0.908716 2.10416 0
M  V30 18334 C 1743.15 -0.103029 1.62474 0
M  V30 18335 O 1744.34 0.127825 1.78042 0
M  V30 18336 C 1741.44 0.340601 3.37184 0
M  V30 18337 C 1740.61 1.40358 4.14268 0
M  V30 18338 C 1739.67 0.847016 5.19338 0
M  V30 18339 O 1738.69 1.5274 5.48324 0
M  V30 18340 N 1739.9 -0.344198 5.79479 0
M  V30 18341 H 1742.66 1.84383 2.36269 0
M  V30 18342 H 1740.22 1.10673 1.18165 0
M  V30 18343 H 1742.21 -0.0458443 4.04674 0
M  V30 18344 H 1740.78 -0.499042 3.08591 0
M  V30 18345 H 1740 1.96442 3.41766 0
M  V30 18346 H 1741.29 2.11952 4.62551 0
M  V30 18347 H 1740.69 -0.914263 5.58263 0
M  V30 18348 H 1739.25 -0.672296 6.48324 0
M  V30 18349 N 1742.68 -1.21073 1.00892 0
M  V30 18350 C 1743.61 -2.25847 0.592897 0
M  V30 18351 C 1744.59 -1.6561 -0.38824 0
M  V30 18352 O 1745.78 -1.92238 -0.275361 0
M  V30 18353 C 1742.91 -3.47214 -0.0773439 0
M  V30 18354 C 1741.86 -4.19994 0.82398 0
M  V30 18355 C 1741.19 -5.34696 0.0199341 0
M  V30 18356 C 1742.49 -4.76964 2.12844 0
M  V30 18357 H 1744.18 -2.609 1.46873 0
M  V30 18358 H 1741.73 -1.25412 0.707656 0
M  V30 18359 H 1743.68 -4.19684 -0.379889 0
M  V30 18360 H 1742.4 -3.11303 -0.987833 0
M  V30 18361 H 1741.06 -3.49379 1.11041 0
M  V30 18362 H 1740.71 -4.95028 -0.891966 0
M  V30 18363 H 1740.41 -5.84319 0.620102 0
M  V30 18364 H 1741.93 -6.09974 -0.276336 0
M  V30 18365 H 1743.35 -5.41293 1.88878 0
M  V30 18366 H 1741.74 -5.36992 2.67879 0
M  V30 18367 H 1742.81 -3.96129 2.79659 0
M  V30 18368 N 1744.16 -0.784156 -1.36707 0
M  V30 18369 C 1745.41 -0.353434 -1.98986 0
M  V30 18370 C 1745.73 1.07714 -1.62551 0
M  V30 18371 O 1745 1.7416 -0.896938 0
M  V30 18372 H 1743.58 -0.127693 -0.736005 0
M  V30 18373 H 1746.24 -1.00503 -1.66988 0
M  V30 18374 H 1745.34 -0.441028 -3.08968 0
M  V30 18375 N 1745.64 1.48215 -0.535727 0
M  V30 18376 C 1746.55 2.33494 0.227577 0
M  V30 18377 C 1747.56 1.4685 0.933327 0
M  V30 18378 O 1748.74 1.7982 0.907008 0
M  V30 18379 C 1745.8 3.23092 1.25747 0
M  V30 18380 C 1744.86 4.25613 0.561454 0
M  V30 18381 C 1744.1 5.1093 1.54228 0
M  V30 18382 O 1744.32 4.98325 2.77539 0
M  V30 18383 O 1743.25 5.92158 1.07852 0
M  V30 18384 H 1747.08 3.0002 -0.471375 0
M  V30 18385 H 1744.67 1.46427 -0.296579 0
M  V30 18386 H 1746.55 3.78498 1.8525 0
M  V30 18387 H 1745.22 2.5922 1.93872 0
M  V30 18388 H 1744.13 3.74026 -0.0742194 0
M  V30 18389 H 1745.46 4.92138 -0.0779649 0
M  V30 18390 N 1747.11 0.27113 1.5525 0
M  V30 18391 C 1748.04 -0.61179 2.25343 0
M  V30 18392 C 1749.03 -1.16208 1.24216 0
M  V30 18393 O 1750.21 -1.19696 1.52927 0
M  V30 18394 C 1747.34 -1.7978 2.97147 0
M  V30 18395 C 1746.29 -1.37922 4.05169 0
M  V30 18396 C 1745.62 -2.64801 4.64526 0
M  V30 18397 C 1746.92 -0.532357 5.1958 0
M  V30 18398 H 1748.61 -0.0272538 2.99388 0
M  V30 18399 H 1746.16 -0.0116681 1.43995 0
M  V30 18400 H 1748.11 -2.42132 3.44891 0
M  V30 18401 H 1746.84 -2.40811 2.20631 0
M  V30 18402 H 1745.5 -0.778918 3.5823 0
M  V30 18403 H 1745.14 -3.24081 3.84682 0
M  V30 18404 H 1744.84 -2.37507 5.37461 0
M  V30 18405 H 1746.37 -3.28009 5.15017 0
M  V30 18406 H 1747.78 -1.06078 5.63401 0
M  V30 18407 H 1746.18 -0.35447 5.99052 0
M  V30 18408 H 1747.25 0.44981 4.82809 0
M  V30 18409 N 1748.59 -1.576 -0.00164943 0
M  V30 18410 C 1750.01 -1.5554 -0.357706 0
M  V30 18411 C 1750.21 -1.00078 -1.74891 0
M  V30 18412 O 1749.26 -0.633864 -2.44414 0
M  V30 18413 C 1750.58 -2.99785 -0.234448 0
M  V30 18414 C 1752.13 -3.11466 -0.309509 0
M  V30 18415 C 1752.6 -4.57493 -0.215394 0
M  V30 18416 N 1754.09 -4.62393 -0.273345 0
M  V30 18417 C 1754.83 -5.72963 -0.223836 0
M  V30 18418 N 1754.32 -6.92687 -0.12502 0
M  V30 18419 N 1756.12 -5.61424 -0.27558 0
M  V30 18420 H 1748.27 -1.91992 0.908448 0
M  V30 18421 H 1750.53 -0.88179 0.348067 0
M  V30 18422 H 1750.24 -3.44195 0.722671 0
M  V30 18423 H 1750.11 -3.63226 -1.01718 0
M  V30 18424 H 1752.5 -2.66986 -1.25707 0
M  V30 18425 H 1752.58 -2.50805 0.503064 0
M  V30 18426 H 1752.22 -5.02647 0.728617 0
M  V30 18427 H 1752.15 -5.16098 -1.04643 0
M  V30 18428 H 1754.64 -3.76265 -0.351116 0
M  V30 18429 H 1754.96 -7.72744 -0.0930938 0
M  V30 18430 H 1753.3 -6.94941 -0.0906712 0
M  V30 18431 H 1756.49 -4.66782 -0.350963 0
M  V30 18432 H 1756.66 -6.47579 -0.233531 0
M  V30 18433 N 1750.07 0.274379 -1.55193 0
M  V30 18434 C 1751 1.36139 -1.84388 0
M  V30 18435 C 1752.02 1.45601 -0.728294 0
M  V30 18436 O 1753.2 1.47443 -1.00613 0
M  V30 18437 C 1750.3 2.74278 -1.9906 0
M  V30 18438 C 1749.48 2.87424 -3.29706 0
M  V30 18439 C 1748.54 4.06229 -3.34461 0
M  V30 18440 O 1747.56 3.97053 -4.07845 0
M  V30 18441 N 1748.76 5.18131 -2.61764 0
M  V30 18442 H 1751.53 1.1144 -2.78211 0
M  V30 18443 H 1749.09 0.464493 -1.55094 0
M  V30 18444 H 1751.08 3.52047 -1.99613 0
M  V30 18445 H 1749.65 2.91805 -1.1211 0
M  V30 18446 H 1748.87 1.96551 -3.41704 0
M  V30 18447 H 1750.16 2.93137 -4.15871 0
M  V30 18448 H 1749.56 5.28473 -2.01824 0
M  V30 18449 H 1748.12 5.94135 -2.68042 0
M  V30 18450 N 1751.55 1.48103 0.538828 0
M  V30 18451 C 1752.46 1.64632 1.67133 0
M  V30 18452 C 1753.47 0.528917 1.65766 0
M  V30 18453 O 1754.65 0.798849 1.84879 0
M  V30 18454 C 1751.72 1.67391 3.03614 0
M  V30 18455 C 1750.78 2.90694 3.15904 0
M  V30 18456 C 1750.01 2.93311 4.45875 0
M  V30 18457 O 1750.23 2.04596 5.32444 0
M  V30 18458 O 1749.17 3.85384 4.62345 0
M  V30 18459 H 1752.99 2.60496 1.56126 0
M  V30 18460 H 1750.58 1.31401 0.710925 0
M  V30 18461 H 1752.46 1.71777 3.84799 0
M  V30 18462 H 1751.13 0.746982 3.14963 0
M  V30 18463 H 1750.04 2.91844 2.34047 0
M  V30 18464 H 1751.37 3.82742 3.09467 0
M  V30 18465 N 1753.03 -0.787016 1.36542 0
M  V30 18466 C 1754.25 -1.57588 1.34065 0
M  V30 18467 C 1754.67 -1.88641 -0.0775397 0
M  V30 18468 O 1754.03 -1.50306 -1.03511 0
M  V30 18469 C 1754.08 -2.89543 2.16442 0
M  V30 18470 O 1753.8 -2.59828 3.52734 0
M  V30 18471 C 1755.3 -3.83838 2.21773 0
M  V30 18472 H 1752.52 -0.488708 0.459789 0
M  V30 18473 H 1755.06 -0.976614 1.79673 0
M  V30 18474 H 1753.22 -3.45933 1.74383 0
M  V30 18475 H 1753.63 -3.44219 3.95744 0
M  V30 18476 H 1755.11 -4.73478 2.83765 0
M  V30 18477 H 1755.58 -4.21862 1.22185 0
M  V30 18478 H 1756.19 -3.33381 2.64078 0
M  V30 18479 N 1754.5 -1.20861 -1.01145 0
M  V30 18480 C 1755.45 -0.959005 -2.1191 0
M  V30 18481 C 1756.45 0.0914738 -1.69153 0
M  V30 18482 O 1757.65 -0.0593443 -1.79902 0
M  V30 18483 H 1754.03 -0.292825 -0.692645 0
M  V30 18484 H 1756 -1.89937 -2.30145 0
M  V30 18485 C 1754.75 -0.533258 -3.43586 0
M  V30 18486 H 1754.07 -1.33319 -3.76917 0
M  V30 18487 H 1755.51 -0.397868 -4.22129 0
M  V30 18488 C 1753.97 0.755011 -3.28331 0
M  V30 18489 O 1754.5 1.81217 -3.58502 0
M  V30 18490 N 1752.71 0.719026 -2.81564 0
M  V30 18491 H 1752.25 -0.141544 -2.57211 0
M  V30 18492 H 1752.21 1.58132 -2.71738 0
M  V30 18493 N 1755.98 1.20536 -1.01532 0
M  V30 18494 C 1757.4 1.41929 -0.729957 0
M  V30 18495 C 1757.6 1.89286 0.69088 0
M  V30 18496 O 1756.65 2.06094 1.45882 0
M  V30 18497 C 1757.97 2.44202 -1.75458 0
M  V30 18498 C 1759.52 2.57971 -1.77257 0
M  V30 18499 C 1759.99 3.63486 -2.78643 0
M  V30 18500 N 1761.48 3.70968 -2.77375 0
M  V30 18501 C 1762.22 4.52266 -3.52481 0
M  V30 18502 N 1761.71 5.37379 -4.37259 0
M  V30 18503 N 1763.51 4.46787 -3.41084 0
M  V30 18504 H 1755.66 0.881116 -1.93262 0
M  V30 18505 H 1757.92 0.449299 -0.834766 0
M  V30 18506 H 1757.63 2.16401 -2.77243 0
M  V30 18507 H 1757.5 3.43171 -1.56568 0
M  V30 18508 H 1759.89 2.85103 -0.761586 0
M  V30 18509 H 1759.97 1.59202 -2.00221 0
M  V30 18510 H 1759.61 3.37097 -3.79905 0
M  V30 18511 H 1759.54 4.61874 -2.52942 0
M  V30 18512 H 1762.03 3.10171 -2.15876 0
M  V30 18513 H 1762.35 5.96495 -4.91338 0
M  V30 18514 H 1760.69 5.36886 -4.41337 0
M  V30 18515 H 1763.88 3.79329 -2.74275 0
M  V30 18516 H 1764.05 5.0991 -3.9987 0
M  V30 18517 N 1757.46 0.791395 1.36289 0
M  V30 18518 C 1758.39 0.205419 2.32595 0
M  V30 18519 C 1759.37 -0.660696 1.56744 0
M  V30 18520 O 1760.56 -0.594111 1.84889 0
M  V30 18521 C 1757.69 -0.659018 3.4099 0
M  V30 18522 C 1756.64 0.107364 4.27865 0
M  V30 18523 C 1755.97 -0.877795 5.27446 0
M  V30 18524 C 1757.27 1.29769 5.05922 0
M  V30 18525 H 1758.96 1.00999 2.8185 0
M  V30 18526 H 1756.51 0.487122 1.35511 0
M  V30 18527 H 1758.46 -1.07891 4.07354 0
M  V30 18528 H 1757.18 -1.49632 2.90307 0
M  V30 18529 H 1755.84 0.508253 3.6306 0
M  V30 18530 H 1755.49 -1.71018 4.73035 0
M  V30 18531 H 1755.19 -0.369429 5.86438 0
M  V30 18532 H 1756.71 -1.29621 5.96683 0
M  V30 18533 H 1758.13 0.953463 5.65316 0
M  V30 18534 H 1756.53 1.73949 5.74336 0
M  V30 18535 H 1757.6 2.09205 4.37449 0
M  V30 18536 N 1758.94 -1.47929 0.54358 0
M  V30 18537 C 1759.87 -2.3264 -0.200228 0
M  V30 18538 C 1760.85 -1.42945 -0.922 0
M  V30 18539 O 1762.04 -1.71817 -0.905129 0
M  V30 18540 C 1759.17 -3.24439 -1.23922 0
M  V30 18541 C 1758.12 -4.23267 -0.634753 0
M  V30 18542 C 1757.45 -5.04295 -1.77739 0
M  V30 18543 C 1758.75 -5.20747 0.402524 0
M  V30 18544 H 1760.44 -2.95077 0.506957 0
M  V30 18545 H 1757.99 -1.41896 0.245246 0
M  V30 18546 H 1759.94 -3.82535 -1.76763 0
M  V30 18547 H 1758.66 -2.60029 -1.97616 0
M  V30 18548 H 1757.32 -3.66377 -0.127756 0
M  V30 18549 H 1756.97 -4.36299 -2.50304 0
M  V30 18550 H 1756.67 -5.71195 -1.37879 0
M  V30 18551 H 1758.19 -5.65246 -2.30932 0
M  V30 18552 H 1759.61 -5.73287 -0.039305 0
M  V30 18553 H 1758 -5.95774 0.719251 0
M  V30 18554 H 1759.07 -4.67054 1.3034 0
M  V30 18555 N 1760.42 -0.27936 -1.55104 0
M  V30 18556 C 1761.33 0.616249 -2.26361 0
M  V30 18557 C 1762.34 1.16656 -1.29102 0
M  V30 18558 O 1763.52 1.19596 -1.62046 0
M  V30 18559 C 1760.58 1.78191 -2.97403 0
M  V30 18560 C 1759.65 1.26785 -4.10151 0
M  V30 18561 C 1758.88 2.37795 -4.77796 0
M  V30 18562 O 1759.1 3.57242 -4.44673 0
M  V30 18563 O 1758.04 2.05711 -5.65656 0
M  V30 18564 H 1761.86 0.0388715 -3.03675 0
M  V30 18565 H 1759.45 -0.0466058 -1.49327 0
M  V30 18566 H 1761.33 2.4615 -3.42036 0
M  V30 18567 H 1760 2.3463 -2.23003 0
M  V30 18568 H 1758.91 0.554608 -3.69966 0
M  V30 18569 H 1760.24 0.749157 -4.86465 0
M  V30 18570 N 1761.9 1.57599 -0.0067085 0
M  V30 18571 C 1762.85 2.05327 0.991194 0
M  V30 18572 C 1763.83 0.949302 1.29912 0
M  V30 18573 O 1765.02 1.21303 1.28898 0
M  V30 18574 C 1762.15 2.56563 2.28102 0
M  V30 18575 C 1761.24 3.73849 2.00244 0
M  V30 18576 N 1761.63 4.85291 1.4257 0
M  V30 18577 C 1759.93 3.81908 2.30353 0
M  V30 18578 C 1760.63 5.6668 1.31336 0
M  V30 18579 N 1759.6 5.12889 1.80127 0
M  V30 18580 H 1763.4 2.88899 0.539877 0
M  V30 18581 H 1760.92 1.61178 0.198835 0
M  V30 18582 H 1762.92 2.89035 3.0044 0
M  V30 18583 H 1761.58 1.74412 2.7388 0
M  V30 18584 H 1762.59 5.06004 1.10363 0
M  V30 18585 H 1759.26 3.10624 2.7896 0
M  V30 18586 H 1760.65 6.66253 0.869302 0
M  V30 18587 N 1763.37 -0.266145 1.55336 0
M  V30 18588 C 1764.3 -1.33322 1.91697 0
M  V30 18589 C 1765.28 -1.51182 0.77961 0
M  V30 18590 O 1766.47 -1.64112 1.03832 0
M  V30 18591 C 1763.6 -2.69151 2.19488 0
M  V30 18592 C 1762.55 -2.66012 3.35293 0
M  V30 18593 C 1761.88 -4.05458 3.4858 0
M  V30 18594 C 1763.18 -2.24681 4.71504 0
M  V30 18595 H 1764.87 -1.03138 2.81075 0
M  V30 18596 H 1762.42 -0.494702 1.35236 0
M  V30 18597 H 1764.37 -3.43918 2.43512 0
M  V30 18598 H 1763.1 -3.00932 1.26916 0
M  V30 18599 H 1761.76 -1.93703 3.11247 0
M  V30 18600 H 1761.4 -4.34472 2.53462 0
M  V30 18601 H 1761.1 -4.04251 4.26445 0
M  V30 18602 H 1762.63 -4.81954 3.74904 0
M  V30 18603 H 1764.04 -2.89173 4.95027 0
M  V30 18604 H 1762.44 -2.34622 5.52334 0
M  V30 18605 H 1763.51 -1.19819 4.69863 0
M  V30 18606 N 1764.85 -1.48386 -0.530967 0
M  V30 18607 C 1766.1 -1.56585 -1.28875 0
M  V30 18608 C 1766.43 -0.238583 -1.92729 0
M  V30 18609 O 1765.71 0.75533 -1.79235 0
M  V30 18610 C 1765.99 -2.70338 -2.37886 0
M  V30 18611 C 1765.84 -4.12766 -1.78729 0
M  V30 18612 C 1767.16 -2.79857 -3.39659 0
M  V30 18613 H 1764.28 -0.569986 -0.46721 0
M  V30 18614 H 1766.92 -1.80555 -0.591596 0
M  V30 18615 H 1765.07 -2.50031 -2.9735 0
M  V30 18616 H 1766.74 -4.4451 -1.23324 0
M  V30 18617 H 1764.99 -4.19813 -1.09269 0
M  V30 18618 H 1765.66 -4.88178 -2.57655 0
M  V30 18619 H 1768.13 -2.9825 -2.90149 0
M  V30 18620 H 1767.01 -3.61179 -4.13329 0
M  V30 18621 H 1767.27 -1.87974 -4.00148 0
M  V30 18622 N 1766.33 0.779763 -1.36958 0
M  V30 18623 C 1767.24 1.92394 -1.34245 0
M  V30 18624 C 1768.26 1.72292 -0.243187 0
M  V30 18625 O 1769.43 1.95665 -0.477211 0
M  V30 18626 C 1766.5 3.27402 -1.14057 0
M  V30 18627 C 1765.56 3.60213 -2.33548 0
M  V30 18628 C 1764.79 4.88779 -2.14314 0
M  V30 18629 O 1765.01 5.59231 -1.12327 0
M  V30 18630 O 1763.95 5.20469 -3.02316 0
M  V30 18631 H 1767.77 1.97633 -2.30596 0
M  V30 18632 H 1765.36 0.921386 -1.17605 0
M  V30 18633 H 1767.24 4.08172 -1.04755 0
M  V30 18634 H 1765.92 3.23033 -0.207744 0
M  V30 18635 H 1764.82 2.7971 -2.48421 0
M  V30 18636 H 1766.16 3.69317 -3.25371 0
M  V30 18637 N 1767.81 1.21396 1.00503 0
M  V30 18638 C 1768.75 0.973198 2.09279 0
M  V30 18639 C 1769.72 -0.100797 1.65794 0
M  V30 18640 O 1770.91 0.0463185 1.90744 0
M  V30 18641 C 1768.05 0.543941 3.40786 0
M  V30 18642 C 1767.16 1.68737 3.97683 0
M  V30 18643 C 1766.3 1.20728 5.17299 0
M  V30 18644 C 1765.34 2.32305 5.66305 0
M  V30 18645 N 1764.47 1.8543 6.77171 0
M  V30 18646 H 1769.31 1.90441 2.29208 0
M  V30 18647 H 1766.85 0.949082 1.12387 0
M  V30 18648 H 1768.81 0.276311 4.16284 0
M  V30 18649 H 1767.44 -0.350263 3.20894 0
M  V30 18650 H 1766.49 2.06964 3.19171 0
M  V30 18651 H 1767.8 2.5271 4.30045 0
M  V30 18652 H 1766.96 0.896312 6.00043 0
M  V30 18653 H 1765.7 0.3376 4.8653 0
M  V30 18654 H 1764.7 2.64205 4.82158 0
M  V30 18655 H 1765.93 3.19769 5.99103 0
M  V30 18656 H 1763.87 1.00806 6.48208 0
M  V30 18657 H 1763.79 2.62976 7.08788 0
M  V30 18658 H 1765.06 1.57366 7.6345 0
M  V30 18659 N 1769.29 -1.19996 1.0217 0
M  V30 18660 C 1770.2 -2.26634 0.606136 0
M  V30 18661 C 1771.21 -1.70262 -0.358746 0
M  V30 18662 O 1772.39 -2.00212 -0.218422 0
M  V30 18663 C 1769.45 -3.46672 -0.0439096 0
M  V30 18664 C 1768.51 -4.18254 0.967563 0
M  V30 18665 C 1767.75 -5.32561 0.348443 0
M  V30 18666 O 1767.97 -5.64024 -0.850508 0
M  V30 18667 O 1766.9 -5.92354 1.06772 0
M  V30 18668 H 1770.73 -2.64407 1.49407 0
M  V30 18669 H 1768.31 -1.26712 0.791483 0
M  V30 18670 H 1770.2 -4.19433 -0.406714 0
M  V30 18671 H 1768.87 -3.10764 -0.90596 0
M  V30 18672 H 1767.78 -3.47644 1.38183 0
M  V30 18673 H 1769.11 -4.58116 1.79975 0
M  V30 18674 N 1770.76 -0.798611 -1.35867 0
M  V30 18675 C 1772.18 -0.481385 -1.52167 0
M  V30 18676 C 1772.38 0.99878 -1.75005 0
M  V30 18677 O 1771.44 1.78404 -1.78685 0
M  V30 18678 C 1772.75 -1.31982 -2.70188 0
M  V30 18679 C 1774.3 -1.31445 -2.84062 0
M  V30 18680 C 1774.77 -2.13682 -4.05098 0
M  V30 18681 N 1776.26 -2.11176 -4.12261 0
M  V30 18682 C 1777 -2.71571 -5.05012 0
M  V30 18683 N 1776.49 -3.40861 -6.03147 0
M  V30 18684 N 1778.29 -2.61255 -4.97697 0
M  V30 18685 H 1770.44 -1.75731 -1.19299 0
M  V30 18686 H 1772.7 -0.747512 -0.583034 0
M  V30 18687 H 1772.41 -2.36989 -2.59864 0
M  V30 18688 H 1772.28 -0.967488 -3.64581 0
M  V30 18689 H 1774.67 -0.272258 -2.93841 0
M  V30 18690 H 1774.75 -1.7066 -1.90549 0
M  V30 18691 H 1774.39 -3.17937 -3.96079 0
M  V30 18692 H 1774.32 -1.71832 -4.97776 0
M  V30 18693 H 1776.81 -1.60754 -3.42004 0
M  V30 18694 H 1777.13 -3.84251 -6.705 0
M  V30 18695 H 1775.47 -3.44964 -6.03345 0
M  V30 18696 H 1778.66 -2.06717 -4.19983 0
M  V30 18697 H 1778.84 -3.08613 -5.69791 0
M  V30 18698 N 1772.24 1.47639 -0.551417 0
M  V30 18699 C 1773.15 2.33722 0.202799 0
M  V30 18700 C 1774.17 1.47832 0.917699 0
M  V30 18701 O 1775.34 1.80772 0.887885 0
M  V30 18702 C 1772.41 3.24408 1.22313 0
M  V30 18703 C 1771.47 4.26184 0.51628 0
M  V30 18704 C 1770.7 5.12537 1.488 0
M  V30 18705 O 1770.93 5.01241 2.72238 0
M  V30 18706 O 1769.86 5.93269 1.01566 0
M  V30 18707 H 1773.69 2.99503 -0.50317 0
M  V30 18708 H 1771.27 1.46104 -0.312093 0
M  V30 18709 H 1773.15 3.80441 1.81225 0
M  V30 18710 H 1771.83 2.61262 1.91112 0
M  V30 18711 H 1770.73 3.73927 -0.113886 0
M  V30 18712 H 1772.07 4.92028 -0.130158 0
M  V30 18713 N 1773.72 0.287581 1.54954 0
M  V30 18714 C 1774.95 -0.328124 2.03978 0
M  V30 18715 C 1775.36 -1.49083 1.16494 0
M  V30 18716 O 1774.7 -1.82813 0.180286 0
M  V30 18717 C 1774.76 -0.859765 3.49068 0
M  V30 18718 C 1774.43 0.175918 4.56661 0
M  V30 18719 C 1775.42 0.999759 5.10197 0
M  V30 18720 C 1773.11 0.313751 5.01319 0
M  V30 18721 C 1775.1 1.9475 6.06919 0
M  V30 18722 C 1772.79 1.26495 5.97865 0
M  V30 18723 C 1773.79 2.08032 6.50547 0
M  V30 18724 O 1773.48 3.01542 7.45203 0
M  V30 18725 H 1773.21 -0.0772306 0.671574 0
M  V30 18726 H 1775.76 0.42115 2.01036 0
M  V30 18727 H 1773.99 -1.65933 3.49289 0
M  V30 18728 H 1775.68 -1.3899 3.81361 0
M  V30 18729 H 1776.45 0.904073 4.76499 0
M  V30 18730 H 1772.33 -0.310922 4.5995 0
M  V30 18731 H 1775.87 2.58433 6.47965 0
M  V30 18732 H 1771.77 1.36141 6.3098 0
M  V30 18733 H 1772.54 2.96367 7.62961 0
M  V30 18734 N 1775.2 -1.57593 0.0150662 0
M  V30 18735 C 1776.13 -2.06239 -0.999912 0
M  V30 18736 C 1777.14 -0.983112 -1.29764 0
M  V30 18737 O 1778.33 -1.25961 -1.26476 0
M  V30 18738 C 1775.43 -2.46011 -2.33092 0
M  V30 18739 C 1774.61 -3.76851 -2.2204 0
M  V30 18740 C 1773.66 -4.03326 -3.37956 0
M  V30 18741 O 1772.69 -4.73781 -3.15469 0
M  V30 18742 N 1773.89 -3.52399 -4.61298 0
M  V30 18743 H 1776.66 -2.93936 -0.584952 0
M  V30 18744 H 1774.22 -1.60984 -0.172001 0
M  V30 18745 H 1776.21 -2.60825 -3.09439 0
M  V30 18746 H 1774.78 -1.63753 -2.66277 0
M  V30 18747 H 1774 -3.71969 -1.30509 0
M  V30 18748 H 1775.29 -4.626 -2.11845 0
M  V30 18749 H 1774.69 -2.95374 -4.82463 0
M  V30 18750 H 1773.24 -3.72516 -5.3486 0
M  V30 18751 N 1776.68 0.257904 -1.55475 0
M  V30 18752 C 1777.62 1.33893 -1.90198 0
M  V30 18753 C 1778.62 1.50381 -0.779868 0
M  V30 18754 O 1779.82 1.51986 -0.964376 0
M  V30 18755 H 1776.2 0.448115 -0.603901 0
M  V30 18756 H 1778.17 1.01868 -2.80474 0
M  V30 18757 C 1776.92 2.68954 -2.20361 0
M  V30 18758 H 1776.24 2.57064 -3.062 0
M  V30 18759 H 1777.68 3.43498 -2.48567 0
M  V30 18760 C 1776.14 3.21208 -1.01623 0
M  V30 18761 O 1776.67 4.00867 -0.258567 0
M  V30 18762 N 1774.88 2.79088 -0.809825 0
M  V30 18763 H 1774.42 2.1442 -1.42764 0
M  V30 18764 H 1774.38 3.14395 -0.0170171 0
M  V30 18765 N 1778.15 1.48666 0.52309 0
M  V30 18766 C 1779.08 1.666 1.63605 0
M  V30 18767 C 1780.07 0.514803 1.62123 0
M  V30 18768 O 1781.25 0.748138 1.79211 0
M  V30 18769 C 1778.38 1.71199 3.02172 0
M  V30 18770 C 1777.33 2.85888 3.18515 0
M  V30 18771 C 1776.66 2.75582 4.58213 0
M  V30 18772 C 1777.96 4.27104 3.00631 0
M  V30 18773 H 1779.65 2.59776 1.48851 0
M  V30 18774 H 1777.2 1.25014 0.714667 0
M  V30 18775 H 1779.15 1.82333 3.79911 0
M  V30 18776 H 1777.88 0.746066 3.17964 0
M  V30 18777 H 1776.54 2.7432 2.43195 0
M  V30 18778 H 1776.18 1.76944 4.7085 0
M  V30 18779 H 1775.88 3.52545 4.70091 0
M  V30 18780 H 1777.41 2.88693 5.38041 0
M  V30 18781 H 1778.82 4.3947 3.68157 0
M  V30 18782 H 1777.22 5.05119 3.23999 0
M  V30 18783 H 1778.29 4.43087 1.96982 0
M  V30 18784 N 1779.63 -0.772489 1.37369 0
M  V30 18785 C 1780.56 -1.89969 1.35772 0
M  V30 18786 C 1781.54 -1.68586 0.226452 0
M  V30 18787 O 1782.73 -1.89454 0.426692 0
M  V30 18788 C 1779.86 -3.27242 1.16319 0
M  V30 18789 C 1778.81 -3.63187 2.2645 0
M  V30 18790 C 1778.14 -4.98992 1.92121 0
M  V30 18791 C 1779.44 -3.70013 3.6863 0
M  V30 18792 H 1781.13 -1.91564 2.30095 0
M  V30 18793 H 1778.68 -0.920241 1.10759 0
M  V30 18794 H 1780.63 -4.05734 1.13832 0
M  V30 18795 H 1779.36 -3.26078 0.184513 0
M  V30 18796 H 1778.01 -2.87001 2.28091 0
M  V30 18797 H 1777.66 -4.94368 0.927848 0
M  V30 18798 H 1777.36 -5.24012 2.65867 0
M  V30 18799 H 1778.89 -5.79886 1.91219 0
M  V30 18800 H 1780.3 -4.38659 3.69122 0
M  V30 18801 H 1778.7 -4.06529 4.41423 0
M  V30 18802 H 1779.77 -2.70694 4.02309 0
M  V30 18803 N 1781.11 -1.21927 -0.998575 0
M  V30 18804 C 1782.53 -0.978007 -1.26124 0
M  V30 18805 C 1782.73 0.3318 -1.98749 0
M  V30 18806 O 1781.78 1.05585 -2.29364 0
M  V30 18807 C 1783.1 -2.17291 -2.07858 0
M  V30 18808 C 1784.64 -2.21586 -2.21062 0
M  V30 18809 C 1785.12 -3.40613 -3.06181 0
M  V30 18810 N 1786.61 -3.40739 -3.13769 0
M  V30 18811 C 1787.34 -4.29488 -3.79905 0
M  V30 18812 N 1786.84 -5.28445 -4.48015 0
M  V30 18813 N 1788.63 -4.17279 -3.76609 0
M  V30 18814 H 1780.78 -2.06149 -0.51151 0
M  V30 18815 H 1783.05 -0.903039 -0.288487 0
M  V30 18816 H 1782.75 -3.12246 -1.61851 0
M  V30 18817 H 1782.63 -2.16883 -3.08612 0
M  V30 18818 H 1785.01 -1.27183 -2.66286 0
M  V30 18819 H 1785.1 -2.26035 -1.19757 0
M  V30 18820 H 1784.74 -4.35313 -2.61659 0
M  V30 18821 H 1784.67 -3.33403 -4.07615 0
M  V30 18822 H 1787.16 -2.69128 -2.65289 0
M  V30 18823 H 1787.47 -5.92454 -4.96203 0
M  V30 18824 H 1785.82 -5.32364 -4.46782 0
M  V30 18825 H 1789.01 -3.39226 -3.22557 0
M  V30 18826 H 1789.18 -4.86651 -4.27873 0
M  V30 18827 N 1782.59 1.19452 -1.02805 0
M  V30 18828 C 1783.52 2.22095 -0.566246 0
M  V30 18829 C 1784.53 1.58828 0.357442 0
M  V30 18830 O 1785.72 1.77835 0.153965 0
M  V30 18831 C 1782.82 3.38343 0.194294 0
M  V30 18832 C 1782 4.31195 -0.734131 0
M  V30 18833 C 1781.05 5.26197 -0.0191426 0
M  V30 18834 O 1780.08 5.65529 -0.645436 0
M  V30 18835 N 1781.28 5.66841 1.25187 0
M  V30 18836 H 1784.05 2.62342 -1.44902 0
M  V30 18837 H 1781.61 1.3411 -0.906978 0
M  V30 18838 H 1783.6 3.9891 0.682136 0
M  V30 18839 H 1782.17 2.96892 0.978474 0
M  V30 18840 H 1781.39 3.68423 -1.40208 0
M  V30 18841 H 1782.68 4.90144 -1.36516 0
M  V30 18842 H 1782.08 5.36918 1.78145 0
M  V30 18843 H 1780.63 6.29664 1.68423 0
M  V30 18844 N 1784.07 0.805805 1.35442 0
M  V30 18845 C 1785.29 0.398252 2.03031 0
M  V30 18846 C 1785.71 -0.990542 1.60729 0
M  V30 18847 O 1785.07 -1.63813 0.804461 0
M  V30 18848 C 1785.12 0.471116 3.58417 0
M  V30 18849 O 1784.84 1.80516 3.99181 0
M  V30 18850 C 1786.34 0.056272 4.43264 0
M  V30 18851 H 1783.56 0.161905 0.651174 0
M  V30 18852 H 1786.1 1.08921 1.73079 0
M  V30 18853 H 1784.26 -0.171584 3.8702 0
M  V30 18854 H 1784.67 1.76739 4.93825 0
M  V30 18855 H 1786.15 0.15837 5.51773 0
M  V30 18856 H 1786.62 -0.998308 4.27704 0
M  V30 18857 H 1787.23 0.672097 4.19956 0
M  V30 18858 N 1785.54 -1.47344 0.559239 0
M  V30 18859 C 1786.47 -2.32839 -0.175542 0
M  V30 18860 C 1787.46 -1.43914 -0.906787 0
M  V30 18861 O 1788.64 -1.72767 -0.886855 0
M  V30 18862 C 1785.77 -3.25735 -1.20474 0
M  V30 18863 C 1784.72 -4.23916 -0.589825 0
M  V30 18864 C 1784.05 -5.06151 -1.7238 0
M  V30 18865 C 1785.35 -5.2029 0.457733 0
M  V30 18866 H 1787.04 -2.94522 0.538225 0
M  V30 18867 H 1784.59 -1.41628 0.260282 0
M  V30 18868 H 1786.54 -3.84388 -1.72695 0
M  V30 18869 H 1785.27 -2.62111 -1.94847 0
M  V30 18870 H 1783.93 -3.66492 -0.0888897 0
M  V30 18871 H 1783.57 -4.38929 -2.45663 0
M  V30 18872 H 1783.27 -5.72625 -1.31813 0
M  V30 18873 H 1784.8 -5.67663 -2.24923 0
M  V30 18874 H 1786.21 -5.73296 0.0215019 0
M  V30 18875 H 1784.61 -5.94978 0.7824 0
M  V30 18876 H 1785.68 -4.65645 1.35286 0
M  V30 18877 N 1787.02 -0.295795 -1.54799 0
M  V30 18878 C 1787.93 0.592206 -2.27002 0
M  V30 18879 C 1788.95 1.1528 -1.30332 0
M  V30 18880 O 1790.12 1.1787 -1.63305 0
M  V30 18881 C 1787.19 1.75027 -2.99277 0
M  V30 18882 C 1786.25 1.22427 -4.11473 0
M  V30 18883 C 1785.48 2.32714 -4.80291 0
M  V30 18884 O 1785.71 3.52506 -4.48437 0
M  V30 18885 O 1784.64 1.997 -5.67806 0
M  V30 18886 H 1788.47 0.00666048 -3.03699 0
M  V30 18887 H 1786.05 -0.0624413 -1.49269 0
M  V30 18888 H 1787.93 2.42508 -3.44627 0
M  V30 18889 H 1786.61 2.32252 -2.25479 0
M  V30 18890 H 1785.52 0.515337 -3.70534 0
M  V30 18891 H 1786.85 0.697518 -4.87233 0
M  V30 18892 N 1788.5 1.57583 -0.0234236 0
M  V30 18893 C 1789.43 2.06766 0.988961 0
M  V30 18894 C 1790.45 0.98998 1.29241 0
M  V30 18895 O 1791.64 1.2663 1.25806 0
M  V30 18896 C 1788.74 2.47244 2.31784 0
M  V30 18897 C 1787.91 3.78023 2.20039 0
M  V30 18898 C 1786.97 4.05113 3.35812 0
M  V30 18899 O 1785.99 4.75447 3.12952 0
M  V30 18900 N 1787.2 3.5484 4.59422 0
M  V30 18901 H 1789.96 2.94242 0.569355 0
M  V30 18902 H 1787.52 1.61073 0.163461 0
M  V30 18903 H 1789.51 2.62463 3.08051 0
M  V30 18904 H 1788.08 1.65163 2.65405 0
M  V30 18905 H 1787.3 3.72656 1.28534 0
M  V30 18906 H 1788.59 4.63717 2.09389 0
M  V30 18907 H 1787.99 2.97928 4.8089 0
M  V30 18908 H 1786.55 3.75348 5.32877 0
M  V30 18909 N 1789.98 -0.249655 1.5561 0
M  V30 18910 C 1790.93 -1.30906 1.90085 0
M  V30 18911 C 1791.9 -1.4796 0.754784 0
M  V30 18912 O 1793.08 -1.61988 1.00819 0
M  V30 18913 C 1790.22 -2.66 2.19859 0
M  V30 18914 C 1789.33 -2.56976 3.47257 0
M  V30 18915 C 1788.47 -3.84404 3.66615 0
M  V30 18916 C 1787.51 -3.69986 4.87623 0
M  V30 18917 N 1786.65 -4.89301 5.03517 0
M  V30 18918 H 1791.49 -1.00805 2.80432 0
M  V30 18919 H 1789.02 -0.486509 1.38822 0
M  V30 18920 H 1790.98 -3.44632 2.35126 0
M  V30 18921 H 1789.61 -2.94254 1.32719 0
M  V30 18922 H 1788.66 -1.69927 3.40337 0
M  V30 18923 H 1789.97 -2.42231 4.36034 0
M  V30 18924 H 1789.13 -4.7148 3.81826 0
M  V30 18925 H 1787.87 -4.02043 2.76066 0
M  V30 18926 H 1786.87 -2.81294 4.72391 0
M  V30 18927 H 1788.1 -3.53845 5.7963 0
M  V30 18928 H 1786.04 -5.07306 4.15905 0
M  V30 18929 H 1785.96 -4.77176 5.86378 0
M  V30 18930 H 1787.23 -5.77883 5.23137 0
M  V30 18931 N 1791.46 -1.48941 -0.515198 0
M  V30 18932 C 1792.69 -1.61396 -1.29457 0
M  V30 18933 C 1793.1 -0.279847 -1.86714 0
M  V30 18934 O 1792.46 0.732861 -1.67139 0
M  V30 18935 C 1792.51 -2.67194 -2.43494 0
M  V30 18936 O 1792.23 -3.95429 -1.88593 0
M  V30 18937 C 1793.73 -2.90224 -3.35089 0
M  V30 18938 H 1790.95 -0.543754 -0.393157 0
M  V30 18939 H 1793.49 -1.94875 -0.619996 0
M  V30 18940 H 1791.65 -2.36532 -3.06808 0
M  V30 18941 H 1792.06 -4.53593 -2.63351 0
M  V30 18942 H 1793.54 -3.68018 -4.1142 0
M  V30 18943 H 1794.01 -1.99601 -3.91224 0
M  V30 18944 H 1794.62 -3.22247 -2.77555 0
M  V30 18945 N 1792.94 0.765193 -1.37777 0
M  V30 18946 C 1793.87 1.888 -1.29951 0
M  V30 18947 C 1794.88 1.61387 -0.213996 0
M  V30 18948 O 1796.07 1.72183 -0.470657 0
M  V30 18949 C 1793.17 3.24178 -0.988004 0
M  V30 18950 C 1792.34 3.79186 -2.18029 0
M  V30 18951 C 1791.4 4.93054 -1.83804 0
M  V30 18952 O 1790.43 5.08296 -2.56172 0
M  V30 18953 N 1791.63 5.75153 -0.786062 0
M  V30 18954 H 1794.39 1.96028 -2.267 0
M  V30 18955 H 1791.96 0.944602 -1.31487 0
M  V30 18956 H 1793.95 3.97881 -0.739771 0
M  V30 18957 H 1792.52 3.1241 -0.108852 0
M  V30 18958 H 1791.74 2.97185 -2.58988 0
M  V30 18959 H 1793.03 4.12669 -2.97627 0
M  V30 18960 H 1792.42 5.65395 -0.185678 0
M  V30 18961 H 1790.98 6.49054 -0.597697 0
M  V30 18962 N 1794.41 1.22455 0.992094 0
M  V30 18963 C 1795.32 1.01173 2.11663 0
M  V30 18964 C 1796.34 -0.0402168 1.73954 0
M  V30 18965 O 1797.52 0.152685 2.0082 0
M  V30 18966 C 1794.58 0.592995 3.41591 0
M  V30 18967 C 1793.64 1.71865 3.93397 0
M  V30 18968 C 1792.87 1.3198 5.17124 0
M  V30 18969 O 1793.1 0.198943 5.70053 0
M  V30 18970 O 1792.03 2.13658 5.62702 0
M  V30 18971 H 1795.86 1.9539 2.32501 0
M  V30 18972 H 1793.44 1.01056 1.10036 0
M  V30 18973 H 1795.32 0.36987 4.19774 0
M  V30 18974 H 1794 -0.320311 3.22111 0
M  V30 18975 H 1792.91 1.9963 3.16384 0
M  V30 18976 H 1794.24 2.60985 4.1731 0
M  V30 18977 N 1795.89 -1.18905 1.03437 0
M  V30 18978 C 1796.82 -2.24539 0.640669 0
M  V30 18979 C 1797.8 -1.66396 -0.353024 0
M  V30 18980 O 1798.99 -1.92779 -0.234522 0
M  V30 18981 C 1796.12 -3.473 -0.00367731 0
M  V30 18982 C 1795.07 -4.18151 0.912881 0
M  V30 18983 C 1794.4 -5.34534 0.133347 0
M  V30 18984 C 1795.7 -4.72342 2.22913 0
M  V30 18985 H 1797.39 -2.57726 1.52374 0
M  V30 18986 H 1794.94 -1.23883 0.734098 0
M  V30 18987 H 1796.89 -4.20396 -0.290783 0
M  V30 18988 H 1795.61 -3.13328 -0.921578 0
M  V30 18989 H 1794.27 -3.46945 1.18427 0
M  V30 18990 H 1793.92 -4.96809 -0.786762 0
M  V30 18991 H 1793.62 -5.82872 0.743905 0
M  V30 18992 H 1795.15 -6.10423 -0.146889 0
M  V30 18993 H 1796.56 -5.37165 2.00317 0
M  V30 18994 H 1794.96 -5.31189 2.79209 0
M  V30 18995 H 1796.03 -3.90108 2.87999 0
M  V30 18996 N 1797.37 -0.812977 -1.35013 0
M  V30 18997 C 1798.6 -0.408421 -2.02523 0
M  V30 18998 C 1799.01 0.987315 -1.61396 0
M  V30 18999 O 1798.35 1.64865 -0.810251 0
M  V30 19000 C 1798.41 -0.419647 -3.57042 0
M  V30 19001 C 1798.08 -1.767 -4.21457 0
M  V30 19002 C 1799.07 -2.7263 -4.42684 0
M  V30 19003 C 1796.76 -2.05275 -4.5844 0
M  V30 19004 C 1798.75 -3.95315 -5.00004 0
M  V30 19005 C 1796.44 -3.28223 -5.15473 0
M  V30 19006 C 1797.44 -4.23061 -5.36198 0
M  V30 19007 O 1797.13 -5.43837 -5.92027 0
M  V30 19008 H 1796.86 -0.163311 -0.655977 0
M  V30 19009 H 1799.41 -1.09974 -1.73479 0
M  V30 19010 H 1797.64 0.328309 -3.85304 0
M  V30 19011 H 1799.33 -0.0365204 -4.05884 0
M  V30 19012 H 1800.1 -2.51846 -4.14486 0
M  V30 19013 H 1795.98 -1.32265 -4.41619 0
M  V30 19014 H 1799.52 -4.69351 -5.16097 0
M  V30 19015 H 1795.42 -3.48874 -5.43099 0
M  V30 19016 H 1796.18 -5.45221 -6.10472 0
M  V30 19017 N 1798.85 1.47045 -0.567045 0
M  V30 19018 C 1799.8 2.27158 0.195716 0
M  V30 19019 C 1800.78 1.34943 0.876307 0
M  V30 19020 O 1801.97 1.59229 0.772989 0
M  V30 19021 C 1799.1 3.20936 1.21882 0
M  V30 19022 C 1798.19 4.20633 0.54114 0
M  V30 19023 N 1798.58 5.0426 -0.394396 0
M  V30 19024 C 1796.88 4.38878 0.793847 0
M  V30 19025 C 1797.58 5.76324 -0.788986 0
M  V30 19026 N 1796.55 5.43416 -0.141613 0
M  V30 19027 H 1800.36 2.89201 -0.523432 0
M  V30 19028 H 1797.87 1.57705 -0.387691 0
M  V30 19029 H 1799.87 3.77023 1.77931 0
M  V30 19030 H 1798.53 2.60451 1.93895 0
M  V30 19031 H 1799.54 5.12158 -0.769095 0
M  V30 19032 H 1796.22 3.89556 1.50175 0
M  V30 19033 H 1797.61 6.5358 -1.55829 0
M  V30 19034 N 1800.33 0.304 1.5464 0
M  V30 19035 C 1801.26 -0.563854 2.2659 0
M  V30 19036 C 1802.24 -1.13547 1.26653 0
M  V30 19037 O 1803.42 -1.16425 1.55431 0
M  V30 19038 C 1800.55 -1.73437 3.00894 0
M  V30 19039 C 1799.51 -1.29297 4.08003 0
M  V30 19040 C 1798.83 -2.54888 4.70038 0
M  V30 19041 C 1800.13 -0.422027 5.20592 0
M  V30 19042 H 1801.83 0.0362569 2.99378 0
M  V30 19043 H 1799.37 0.0188781 1.43988 0
M  V30 19044 H 1801.32 -2.34762 3.4995 0
M  V30 19045 H 1800.05 -2.36076 2.25689 0
M  V30 19046 H 1798.71 -0.702757 3.59801 0
M  V30 19047 H 1798.36 -3.15848 3.9147 0
M  V30 19048 H 1798.06 -2.26054 5.42378 0
M  V30 19049 H 1799.58 -3.17011 5.21859 0
M  V30 19050 H 1800.99 -0.941036 5.65524 0
M  V30 19051 H 1799.39 -0.227323 5.99669 0
M  V30 19052 H 1800.46 0.55212 4.81746 0
M  V30 19053 N 1801.8 -1.57568 0.0317802 0
M  V30 19054 C 1802.74 -2.07288 -0.977981 0
M  V30 19055 C 1803.75 -0.99682 -1.28714 0
M  V30 19056 O 1804.94 -1.27295 -1.25133 0
M  V30 19057 C 1802.04 -2.48469 -2.3047 0
M  V30 19058 C 1801.21 -3.79185 -2.18031 0
M  V30 19059 C 1800.27 -4.06888 -3.33659 0
M  V30 19060 O 1799.3 -4.771 -3.10426 0
M  V30 19061 N 1800.5 -3.57271 -4.57534 0
M  V30 19062 H 1803.26 -2.9454 -0.553743 0
M  V30 19063 H 1800.82 -1.61157 -0.154917 0
M  V30 19064 H 1802.82 -2.64092 -3.06655 0
M  V30 19065 H 1801.39 -1.66568 -2.64526 0
M  V30 19066 H 1800.61 -3.73333 -1.26556 0
M  V30 19067 H 1801.89 -4.64821 -2.06926 0
M  V30 19068 H 1801.29 -3.00474 -4.79303 0
M  V30 19069 H 1799.85 -3.78168 -5.30878 0
M  V30 19070 N 1803.28 0.241399 -1.5574 0
M  V30 19071 C 1804.21 1.30255 -1.93793 0
M  V30 19072 C 1805.19 1.49923 -0.803563 0
M  V30 19073 O 1806.38 1.62439 -1.06429 0
M  V30 19074 C 1803.51 2.65625 -2.23742 0
M  V30 19075 C 1802.46 2.60645 -3.39483 0
M  V30 19076 C 1801.79 3.99861 -3.54986 0
M  V30 19077 C 1803.09 2.17151 -4.75019 0
M  V30 19078 H 1804.78 0.986532 -2.8268 0
M  V30 19079 H 1802.33 0.473125 -1.36006 0
M  V30 19080 H 1804.28 3.40001 -2.48953 0
M  V30 19081 H 1803.01 2.98874 -1.31688 0
M  V30 19082 H 1801.66 1.88727 -3.14289 0
M  V30 19083 H 1801.31 4.30385 -2.60342 0
M  V30 19084 H 1801.01 3.97415 -4.32822 0
M  V30 19085 H 1802.54 4.75928 -3.82524 0
M  V30 19086 H 1803.95 2.8126 -4.99565 0
M  V30 19087 H 1802.35 2.25805 -5.55996 0
M  V30 19088 H 1803.42 1.12329 -4.7171 0
M  V30 19089 N 1804.76 1.49212 0.507292 0
M  V30 19090 C 1805.71 1.65417 1.60953 0
M  V30 19091 C 1806.68 0.495737 1.5853 0
M  V30 19092 O 1807.86 0.722002 1.76612 0
M  V30 19093 C 1805 1.72095 2.99128 0
M  V30 19094 C 1804.12 2.99199 3.11615 0
M  V30 19095 C 1803.25 2.96895 4.40485 0
M  V30 19096 C 1802.29 4.18607 4.46581 0
M  V30 19097 N 1801.43 4.14248 5.66871 0
M  V30 19098 H 1806.27 2.59535 1.46444 0
M  V30 19099 H 1803.8 1.28687 0.712609 0
M  V30 19100 H 1805.76 1.73947 3.79207 0
M  V30 19101 H 1804.39 0.814484 3.12356 0
M  V30 19102 H 1803.44 3.06988 2.24639 0
M  V30 19103 H 1804.76 3.89192 3.11979 0
M  V30 19104 H 1803.91 2.97275 5.28878 0
M  V30 19105 H 1802.65 2.0467 4.42675 0
M  V30 19106 H 1801.65 4.18477 3.56591 0
M  V30 19107 H 1802.88 5.12017 4.46112 0
M  V30 19108 H 1800.82 3.24857 5.69916 0
M  V30 19109 H 1800.74 4.97969 5.68826 0
M  V30 19110 H 1802.01 4.18722 6.57489 0
M  V30 19111 N 1806.24 -0.757876 1.38181 0
M  V30 19112 C 1807.17 -1.88519 1.37779 0
M  V30 19113 C 1808.15 -1.68336 0.24432 0
M  V30 19114 O 1809.33 -1.88991 0.446762 0
M  V30 19115 C 1806.46 -3.2599 1.19784 0
M  V30 19116 C 1805.42 -3.60764 2.30289 0
M  V30 19117 C 1804.74 -4.96927 1.97403 0
M  V30 19118 C 1806.04 -3.66082 3.72533 0
M  V30 19119 H 1807.74 -1.89112 2.32114 0
M  V30 19120 H 1805.28 -0.908442 1.11729 0
M  V30 19121 H 1807.24 -4.04504 1.18129 0
M  V30 19122 H 1805.96 -3.25864 0.219088 0
M  V30 19123 H 1804.62 -2.84566 2.31123 0
M  V30 19124 H 1804.27 -4.93356 0.98023 0
M  V30 19125 H 1803.97 -5.21162 2.7141 0
M  V30 19126 H 1805.49 -5.77825 1.97359 0
M  V30 19127 H 1806.91 -4.3472 3.73754 0
M  V30 19128 H 1805.3 -4.01824 4.4571 0
M  V30 19129 H 1806.37 -2.66412 4.05158 0
M  V30 19130 N 1807.72 -1.22979 -0.985586 0
M  V30 19131 C 1808.66 -1.00637 -2.07704 0
M  V30 19132 C 1809.63 0.0744076 -1.65933 0
M  V30 19133 O 1810.82 -0.0766583 -1.90646 0
M  V30 19134 C 1807.96 -0.598088 -3.39878 0
M  V30 19135 C 1807.07 -1.75043 -3.94948 0
M  V30 19136 C 1806.21 -1.28943 -5.15313 0
M  V30 19137 C 1805.25 -2.41285 -5.62537 0
M  V30 19138 N 1804.38 -1.9618 -6.74135 0
M  V30 19139 H 1809.22 -1.94063 -2.26149 0
M  V30 19140 H 1806.76 -0.966841 -1.10863 0
M  V30 19141 H 1808.72 -0.342503 -4.15792 0
M  V30 19142 H 1807.35 0.299167 -3.21411 0
M  V30 19143 H 1806.4 -2.12015 -3.15838 0
M  V30 19144 H 1807.71 -2.5952 -4.25971 0
M  V30 19145 H 1806.87 -0.99166 -5.98541 0
M  V30 19146 H 1805.6 -0.41496 -4.85931 0
M  V30 19147 H 1804.61 -2.71842 -4.77893 0
M  V30 19148 H 1805.83 -3.2926 -5.9394 0
M  V30 19149 H 1803.78 -1.11105 -6.46523 0
M  V30 19150 H 1803.7 -2.74219 -7.04514 0
M  V30 19151 H 1804.97 -1.69492 -7.6085 0
M  V30 19152 N 1809.19 1.18355 -1.04066 0
M  V30 19153 C 1810.42 1.92816 -0.763979 0
M  V30 19154 C 1810.84 1.75658 0.672749 0
M  V30 19155 O 1810.2 1.06671 1.46598 0
M  V30 19156 C 1810.25 3.42267 -1.13516 0
M  V30 19157 O 1809.35 4.11576 -0.260646 0
M  V30 19158 H 1808.7 0.601532 -0.281167 0
M  V30 19159 H 1811.23 1.50087 -1.3905 0
M  V30 19160 H 1811.24 3.92973 -1.09709 0
M  V30 19161 H 1809.91 3.54076 -2.18181 0
M  V30 19162 H 1808.49 3.71174 -0.358342 0
M  V30 19163 N 1810.67 0.820125 1.3458 0
M  V30 19164 C 1811.62 0.22828 2.31477 0
M  V30 19165 C 1812.61 -0.629439 1.57272 0
M  V30 19166 O 1813.82 -0.521091 1.72292 0
M  V30 19167 H 1810.2 0.0550728 0.749981 0
M  V30 19168 H 1812.17 1.0604 2.78923 0
M  V30 19169 C 1810.92 -0.597495 3.42528 0
M  V30 19170 H 1810.24 0.0531749 3.99765 0
M  V30 19171 H 1811.68 -0.977765 4.12572 0
M  V30 19172 C 1810.14 -1.76868 2.86739 0
M  V30 19173 O 1810.67 -2.86674 2.81391 0
M  V30 19174 N 1808.87 -1.58453 2.436 0
M  V30 19175 H 1808.42 -0.691318 2.4815 0
M  V30 19176 H 1808.38 -2.36969 2.06624 0
M  V30 19177 N 1812.15 -1.46743 0.574835 0
M  V30 19178 C 1813.39 -2.04312 0.0599973 0
M  V30 19179 C 1813.75 -1.43757 -1.27271 0
M  V30 19180 O 1814.96 -1.92479 -1.87631 0
M  V30 19181 C 1813.23 -3.57398 -0.0130197 0
M  V30 19182 S 1814.79 -4.3626 -0.471425 0
M  V30 19183 H 1811.6 -0.710203 0.0336583 0
M  V30 19184 H 1814.21 -1.79887 0.765555 0
M  V30 19185 H 1812.91 -3.9899 0.961003 0
M  V30 19186 H 1812.44 -3.86347 -0.741591 0
M  V30 19187 H 1814.46 -4.65149 -1.72773 0
M  V30 19188 N 1813.63 -0.312197 -1.54477 0
M  V30 19189 C 1814.88 0.294607 -1.99537 0
M  V30 19190 C 1815.19 1.54137 -1.20421 0
M  V30 19191 O 1816.4 2.22346 -1.55803 0
M  V30 19192 C 1814.85 0.57547 -3.55269 0
M  V30 19193 C 1814.46 -0.653591 -4.43207 0
M  V30 19194 C 1816.2 1.14285 -4.08827 0
M  V30 19195 C 1814.11 -0.345261 -5.90391 0
M  V30 19196 H 1813.04 0.113859 -0.745354 0
M  V30 19197 H 1815.69 -0.42265 -1.78566 0
M  V30 19198 H 1814.07 1.35262 -3.72183 0
M  V30 19199 H 1815.25 -1.42945 -4.38068 0
M  V30 19200 H 1813.56 -1.14039 -4.0048 0
M  V30 19201 H 1816.16 1.38797 -5.16371 0
M  V30 19202 H 1816.5 2.08866 -3.60112 0
M  V30 19203 H 1817.04 0.427154 -3.955 0
M  V30 19204 H 1813.78 -1.25994 -6.43277 0
M  V30 19205 H 1813.3 0.393106 -5.9851 0
M  V30 19206 H 1814.97 0.0490847 -6.46981 0
M  V30 19207 N 1815.11 1.57549 -0.040136 0
M  V30 19208 C 1816.33 1.96557 0.645986 0
M  V30 19209 C 1816.75 0.91717 1.65026 0
M  V30 19210 O 1816.11 -0.0998395 1.82227 0
M  V30 19211 C 1816.16 3.35641 1.34266 0
M  V30 19212 O 1815.88 4.36461 0.378616 0
M  V30 19213 C 1817.38 3.89344 2.11957 0
M  V30 19214 H 1814.6 0.64713 0.177379 0
M  V30 19215 H 1817.14 2.0424 -0.103167 0
M  V30 19216 H 1815.3 3.29143 2.04312 0
M  V30 19217 H 1815.71 5.17157 0.874592 0
M  V30 19218 H 1817.19 4.88975 2.5614 0
M  V30 19219 H 1817.66 3.24178 2.96319 0
M  V30 19220 H 1818.27 3.99145 1.46845 0
M  V30 19221 N 1816.58 -0.233136 1.55866 0
M  V30 19222 C 1817.49 -1.31004 1.94615 0
M  V30 19223 C 1818.51 -1.51915 0.848399 0
M  V30 19224 O 1819.69 -1.6527 1.15098 0
M  V30 19225 C 1816.75 -2.64203 2.24494 0
M  V30 19226 C 1815.81 -2.51695 3.47776 0
M  V30 19227 C 1815.05 -3.78542 3.7622 0
M  V30 19228 O 1815.27 -4.81043 3.06519 0
M  V30 19229 O 1814.2 -3.76348 4.69729 0
M  V30 19230 H 1818.03 -1.01129 2.86368 0
M  V30 19231 H 1815.61 -0.435043 1.42926 0
M  V30 19232 H 1817.5 -3.42889 2.44959 0
M  V30 19233 H 1816.17 -2.93782 1.35918 0
M  V30 19234 H 1815.08 -1.71248 3.32603 0
M  V30 19235 H 1816.41 -2.27058 4.36698 0
M  V30 19236 N 1818.06 -1.49479 -0.499372 0
M  V30 19237 C 1819.01 -1.66756 -1.62158 0
M  V30 19238 C 1820.01 -0.533485 -1.6078 0
M  V30 19239 O 1821.21 -0.713167 -1.65269 0
M  V30 19240 H 1817.59 -0.525853 -0.537571 0
M  V30 19241 H 1819.56 -2.60947 -1.44738 0
M  V30 19242 C 1818.31 -1.75287 -3.00283 0
M  V30 19243 H 1817.63 -2.61928 -3.02049 0
M  V30 19244 H 1819.07 -1.91411 -3.78336 0
M  V30 19245 C 1817.53 -0.498056 -3.33198 0
M  V30 19246 O 1818.06 0.375528 -3.99941 0
M  V30 19247 N 1816.26 -0.360513 -2.88355 0
M  V30 19248 H 1815.81 -1.0724 -2.34216 0
M  V30 19249 H 1815.77 0.477981 -3.10745 0
M  V30 19250 N 1819.54 0.750537 -1.38581 0
M  V30 19251 C 1820.95 1.32802 -1.31227 0
M  V30 19252 C 1821.3 1.96176 0.0305372 0
M  V30 19253 O 1820.43 1.95272 0.932614 0
M  V30 19254 C 1821.02 2.41468 -2.37652 0
M  V30 19255 C 1819.58 2.94929 -2.33867 0
M  V30 19256 C 1818.73 1.68339 -2.20357 0
M  V30 19257 H 1821.68 0.549187 -1.48895 0
M  V30 19258 H 1821.7 3.21481 -2.03544 0
M  V30 19259 H 1821.21 1.95313 -3.35372 0
M  V30 19260 H 1819.31 3.45404 -1.39738 0
M  V30 19261 H 1819.43 3.491 -3.28125 0
M  V30 19262 H 1817.79 1.92082 -1.67262 0
M  V30 19263 H 1818.57 1.24258 -3.20023 0
M  V30 19264 N 1821.02 1.235 0.979051 0
M  V30 19265 C 1821.98 1.01854 2.05325 0
M  V30 19266 C 1822.98 -0.0201133 1.60787 0
M  V30 19267 O 1824.17 0.219761 1.72808 0
M  V30 19268 C 1821.3 0.541404 3.36573 0
M  V30 19269 H 1822.5 1.97183 2.25962 0
M  V30 19270 H 1820.05 1.05563 1.15265 0
M  V30 19271 H 1820.79 -0.415607 3.21626 0
M  V30 19272 H 1820.57 1.29092 3.7024 0
M  V30 19273 H 1822.06 0.410635 4.15576 0
M  V30 19274 N 1822.5 -1.17802 1.04693 0
M  V30 19275 C 1823.75 -1.87567 0.752534 0
M  V30 19276 C 1824.07 -1.81129 -0.722303 0
M  V30 19277 O 1823.34 -1.23385 -1.52161 0
M  V30 19278 H 1821.92 -0.69439 0.275376 0
M  V30 19279 H 1824.58 -1.42932 1.32501 0
M  V30 19280 H 1823.67 -2.9344 1.06299 0
M  V30 19281 N 1823.98 -0.827251 -1.34143 0
M  V30 19282 C 1825.39 -0.475645 -1.80539 0
M  V30 19283 C 1825.74 1.00435 -1.68545 0
M  V30 19284 O 1824.86 1.78186 -1.22795 0
M  V30 19285 C 1825.46 -0.856588 -3.27793 0
M  V30 19286 C 1824.02 -0.557289 -3.72252 0
M  V30 19287 C 1823.16 -1.07118 -2.55775 0
M  V30 19288 H 1826.11 -1.01703 -1.21829 0
M  V30 19289 H 1826.14 -0.162059 -3.80155 0
M  V30 19290 H 1825.65 -1.93379 -3.36491 0
M  V30 19291 H 1823.75 0.510328 -3.69089 0
M  V30 19292 H 1823.86 -1.10438 -4.66198 0
M  V30 19293 H 1822.23 -0.492534 -2.49892 0
M  V30 19294 H 1823.01 -2.15492 -2.67242 0
M  V30 19295 N 1825.45 1.46436 -0.582609 0
M  V30 19296 C 1826.68 2.06469 -0.0736587 0
M  V30 19297 C 1827.09 1.43193 1.23662 0
M  V30 19298 O 1826.43 0.531376 1.75847 0
M  V30 19299 C 1826.5 3.59114 0.166531 0
M  V30 19300 C 1826.16 4.44581 -1.05814 0
M  V30 19301 C 1827.16 4.81125 -1.97016 0
M  V30 19302 C 1824.84 4.85718 -1.27996 0
M  V30 19303 C 1826.84 5.57632 -3.08747 0
M  V30 19304 C 1824.52 5.61986 -2.40032 0
M  V30 19305 C 1825.52 5.97856 -3.30237 0
M  V30 19306 O 1825.21 6.72582 -4.40328 0
M  V30 19307 H 1824.94 0.673802 -0.0544673 0
M  V30 19308 H 1827.5 1.89053 -0.803005 0
M  V30 19309 H 1825.73 3.74837 0.950489 0
M  V30 19310 H 1827.41 4.01075 0.62398 0
M  V30 19311 H 1828.18 4.49922 -1.81094 0
M  V30 19312 H 1824.06 4.57249 -0.586917 0
M  V30 19313 H 1827.6 5.85549 -3.7918 0
M  V30 19314 H 1823.5 5.92602 -2.55917 0
M  V30 19315 H 1824.27 6.91006 -4.38694 0
M  V30 19316 N 1826.93 0.320385 1.54309 0
M  V30 19317 C 1828.18 -0.282584 2.00115 0
M  V30 19318 C 1828.5 -1.52904 1.21018 0
M  V30 19319 O 1827.77 -1.93413 0.311163 0
M  V30 19320 H 1826.35 -0.107406 0.739238 0
M  V30 19321 H 1829.01 0.436196 1.89956 0
M  V30 19322 H 1828.11 -0.541189 3.07372 0
M  V30 19323 N 1828.41 -1.57525 0.0484906 0
M  V30 19324 C 1829.34 -2.08313 -0.955941 0
M  V30 19325 C 1830.35 -1.01042 -1.2765 0
M  V30 19326 O 1831.54 -1.28615 -1.23776 0
M  V30 19327 C 1828.64 -2.509 -2.27821 0
M  V30 19328 C 1827.82 -3.81476 -2.13997 0
M  V30 19329 C 1826.88 -4.10404 -3.29325 0
M  V30 19330 O 1825.9 -4.80366 -3.05348 0
M  V30 19331 N 1827.1 -3.62104 -4.53719 0
M  V30 19332 H 1829.87 -2.95111 -0.522472 0
M  V30 19333 H 1827.43 -1.61312 -0.137816 0
M  V30 19334 H 1829.42 -2.6733 -3.03837 0
M  V30 19335 H 1827.99 -1.69365 -2.62744 0
M  V30 19336 H 1827.21 -3.74654 -1.22589 0
M  V30 19337 H 1828.5 -4.6699 -2.01985 0
M  V30 19338 H 1827.9 -3.05541 -4.7609 0
M  V30 19339 H 1826.45 -3.83778 -5.26838 0
M  V30 19340 N 1829.89 0.224867 -1.55988 0
M  V30 19341 C 1831.3 0.574415 -1.48905 0
M  V30 19342 C 1831.5 1.87303 -0.74296 0
M  V30 19343 O 1830.56 2.50929 -0.28127 0
M  V30 19344 C 1831.87 0.656717 -2.93441 0
M  V30 19345 C 1833.42 0.747568 -3.03941 0
M  V30 19346 C 1833.9 0.861243 -4.4983 0
M  V30 19347 N 1835.39 0.92555 -4.53859 0
M  V30 19348 C 1836.12 1.03316 -5.64015 0
M  V30 19349 N 1835.62 1.10492 -6.83932 0
M  V30 19350 N 1837.41 1.06804 -5.5186 0
M  V30 19351 H 1829.56 -0.627339 -2.02924 0
M  V30 19352 H 1831.82 -0.219656 -0.922201 0
M  V30 19353 H 1831.53 -0.227845 -3.50961 0
M  V30 19354 H 1831.4 1.52142 -3.45156 0
M  V30 19355 H 1833.79 1.62257 -2.46489 0
M  V30 19356 H 1833.87 -0.142737 -2.55401 0
M  V30 19357 H 1833.52 -0.00929123 -5.07899 0
M  V30 19358 H 1833.45 1.76692 -4.96072 0
M  V30 19359 H 1835.94 0.880541 -3.67498 0
M  V30 19360 H 1836.25 1.18672 -7.63634 0
M  V30 19361 H 1834.6 1.07411 -6.8665 0
M  V30 19362 H 1837.79 1.0086 -4.57105 0
M  V30 19363 H 1837.96 1.14845 -6.37742 0
M  V30 19364 N 1831.37 1.49742 0.491438 0
M  V30 19365 C 1832.59 1.63435 1.26873 0
M  V30 19366 C 1833.01 0.309516 1.86246 0
M  V30 19367 O 1832.37 -0.706178 1.68284 0
M  V30 19368 C 1832.42 2.71034 2.39213 0
M  V30 19369 O 1832.14 3.98379 1.82278 0
M  V30 19370 C 1833.64 2.95518 3.3043 0
M  V30 19371 H 1830.86 0.54994 0.384457 0
M  V30 19372 H 1833.4 1.95837 0.588914 0
M  V30 19373 H 1831.56 2.41384 3.03006 0
M  V30 19374 H 1831.97 4.57725 2.56101 0
M  V30 19375 H 1833.45 3.74517 4.05513 0
M  V30 19376 H 1833.92 2.058 3.87999 0
M  V30 19377 H 1834.53 3.26622 2.72393 0
M  V30 19378 N 1832.84 -0.743177 1.38977 0
M  V30 19379 C 1834.12 -1.49384 1.26269 0
M  V30 19380 C 1834.5 -2.10691 -0.131349 0
M  V30 19381 O 1833.85 -1.97925 -1.14183 0
M  V30 19382 C 1834.06 -2.55184 2.3808 0
M  V30 19383 C 1835.41 -3.21796 2.77006 0
M  V30 19384 O 1836.43 -2.65493 2.37469 0
M  V30 19385 O 1835.29 -4.23656 3.45222 0
M  V30 19386 H 1832.38 -0.662968 0.49437 0
M  V30 19387 H 1834.93 -0.7777 1.50831 0
M  V30 19388 H 1833.7 -2.08204 3.31311 0
M  V30 19389 H 1833.33 -3.34366 2.15139 0
M  V30 19390 N 1834.32 -1.24018 -0.972487 0
M  V30 19391 C 1835.27 -1.02834 -2.06625 0
M  V30 19392 C 1836.24 0.056804 -1.66003 0
M  V30 19393 O 1837.42 -0.0968745 -1.90554 0
M  V30 19394 C 1834.56 -0.634103 -3.39224 0
M  V30 19395 C 1833.68 -1.79222 -3.93069 0
M  V30 19396 C 1832.81 -1.34401 -5.13916 0
M  V30 19397 C 1831.85 -2.47238 -5.59946 0
M  V30 19398 N 1830.99 -2.03319 -6.72016 0
M  V30 19399 H 1835.83 -1.96451 -2.24078 0
M  V30 19400 H 1833.37 -0.978545 -1.09831 0
M  V30 19401 H 1835.32 -0.386584 -4.15405 0
M  V30 19402 H 1833.95 0.26506 -3.2171 0
M  V30 19403 H 1833.01 -2.15353 -3.13572 0
M  V30 19404 H 1834.32 -2.64023 -4.23194 0
M  V30 19405 H 1833.47 -1.05509 -5.97455 0
M  V30 19406 H 1832.21 -0.466476 -4.85464 0
M  V30 19407 H 1831.22 -2.76895 -4.74983 0
M  V30 19408 H 1832.44 -3.35541 -5.90415 0
M  V30 19409 H 1830.39 -1.17956 -6.45308 0
M  V30 19410 H 1830.3 -2.81675 -7.01566 0
M  V30 19411 H 1831.57 -1.77553 -7.59009 0
M  V30 19412 N 1835.8 1.17245 -1.05316 0
M  V30 19413 C 1836.71 2.24948 -0.666011 0
M  V30 19414 C 1837.73 1.71153 0.313478 0
M  V30 19415 O 1838.9 2.00721 0.165262 0
M  V30 19416 C 1835.97 3.46667 -0.0480198 0
M  V30 19417 C 1835.03 4.15542 -1.07812 0
M  V30 19418 C 1834.26 5.3145 -0.48952 0
M  V30 19419 O 1834.48 5.6608 0.700668 0
M  V30 19420 O 1833.42 5.89315 -1.22439 0
M  V30 19421 H 1837.24 2.60353 -1.56365 0
M  V30 19422 H 1834.83 1.24569 -0.8248 0
M  V30 19423 H 1836.71 4.20364 0.295366 0
M  V30 19424 H 1835.39 3.13056 0.823248 0
M  V30 19425 H 1834.29 3.43858 -1.47351 0
M  V30 19426 H 1835.63 4.53183 -1.92057 0
M  V30 19427 N 1837.28 0.834353 1.33702 0
M  V30 19428 C 1838.21 0.279313 2.31823 0
M  V30 19429 C 1839.19 -0.610495 1.58767 0
M  V30 19430 O 1840.37 -0.534989 1.86686 0
M  V30 19431 C 1837.5 -0.550201 3.42914 0
M  V30 19432 C 1836.46 0.243432 4.27307 0
M  V30 19433 C 1835.78 -0.709548 5.29971 0
M  V30 19434 C 1837.08 1.45799 5.01537 0
M  V30 19435 H 1838.78 1.09915 2.78494 0
M  V30 19436 H 1836.32 0.529987 1.33892 0
M  V30 19437 H 1838.28 -0.948764 4.10581 0
M  V30 19438 H 1837 -1.4032 2.9492 0
M  V30 19439 H 1835.66 0.6235 3.61259 0
M  V30 19440 H 1835.31 -1.55882 4.78236 0
M  V30 19441 H 1835.01 -0.182671 5.87316 0
M  V30 19442 H 1836.53 -1.10572 6.00505 0
M  V30 19443 H 1837.95 1.13283 5.61996 0
M  V30 19444 H 1836.34 1.92133 5.68511 0
M  V30 19445 H 1837.41 2.23016 4.30571 0
M  V30 19446 N 1838.76 -1.46125 0.590367 0
M  V30 19447 C 1840.01 -2.01555 0.0765543 0
M  V30 19448 C 1840.32 -1.46661 -1.29422 0
M  V30 19449 O 1841.52 -1.93958 -1.8998 0
M  V30 19450 C 1839.98 -3.59797 0.0862369 0
M  V30 19451 C 1839.59 -4.23687 1.4558 0
M  V30 19452 C 1841.33 -4.22856 -0.373232 0
M  V30 19453 C 1839.24 -5.7403 1.42279 0
M  V30 19454 H 1838.17 -0.75359 0.0248501 0
M  V30 19455 H 1840.82 -1.67778 0.743149 0
M  V30 19456 H 1839.2 -3.90684 -0.646675 0
M  V30 19457 H 1840.38 -4.04398 2.20905 0
M  V30 19458 H 1838.69 -3.72753 1.85592 0
M  V30 19459 H 1841.29 -5.33073 -0.416837 0
M  V30 19460 H 1841.63 -3.92325 -1.39237 0
M  V30 19461 H 1842.16 -3.96622 0.305859 0
M  V30 19462 H 1838.9 -6.09234 2.41898 0
M  V30 19463 H 1838.42 -5.95561 0.711862 0
M  V30 19464 H 1840.1 -6.36896 1.13899 0
M  V30 19465 N 1840.23 -0.328564 -1.54137 0
M  V30 19466 C 1841.51 0.327026 -1.92847 0
M  V30 19467 C 1841.89 1.69472 -1.25867 0
M  V30 19468 O 1841.24 2.24897 -0.404172 0
M  V30 19469 C 1841.45 0.414261 -3.46533 0
M  V30 19470 C 1842.8 0.672189 -4.19245 0
M  V30 19471 O 1843.82 0.496982 -3.52716 0
M  V30 19472 O 1842.68 1.01053 -5.37076 0
M  V30 19473 H 1839.77 0.187716 -0.805414 0
M  V30 19474 H 1842.32 -0.378645 -1.65422 0
M  V30 19475 H 1841.09 -0.54611 -3.8747 0
M  V30 19476 H 1840.72 1.16731 -3.80078 0
M  V30 19477 N 1841.71 1.57497 -0.0568439 0
M  V30 19478 C 1842.96 1.94017 0.610648 0
M  V30 19479 C 1843.31 0.935679 1.68115 0
M  V30 19480 O 1842.61 -0.0443081 1.91549 0
M  V30 19481 C 1842.8 3.35 1.24538 0
M  V30 19482 C 1842.63 4.4907 0.237887 0
M  V30 19483 C 1841.4 5.05007 -0.172154 0
M  V30 19484 C 1843.6 5.11675 -0.518951 0
M  V30 19485 N 1841.58 6.0261 -1.17192 0
M  V30 19486 C 1842.95 6.04637 -1.37163 0
M  V30 19487 C 1845.01 4.94549 -0.576647 0
M  V30 19488 C 1843.71 6.82314 -2.27685 0
M  V30 19489 C 1845.73 5.72857 -1.46931 0
M  V30 19490 C 1845.1 6.65456 -2.3097 0
M  V30 19491 H 1841.2 0.757316 0.194927 0
M  V30 19492 H 1843.78 1.94262 -0.1305 0
M  V30 19493 H 1841.95 3.35521 1.95653 0
M  V30 19494 H 1843.68 3.58794 1.87214 0
M  V30 19495 H 1840.44 4.73143 0.207956 0
M  V30 19496 H 1840.86 6.56108 -1.66886 0
M  V30 19497 H 1845.5 4.22759 0.0588676 0
M  V30 19498 H 1843.22 7.53391 -2.92279 0
M  V30 19499 H 1846.81 5.61631 -1.5186 0
M  V30 19500 H 1845.69 7.24992 -2.98924 0
M  V30 19501 N 1843.19 -0.216591 1.56105 0
M  V30 19502 C 1844.12 -1.27155 1.95841 0
M  V30 19503 C 1845.1 -1.48626 0.827313 0
M  V30 19504 O 1846.29 -1.60725 1.09 0
M  V30 19505 C 1843.42 -2.62032 2.27939 0
M  V30 19506 C 1842.37 -2.55211 3.43586 0
M  V30 19507 C 1841.7 -3.94163 3.61303 0
M  V30 19508 C 1843 -2.09566 4.78413 0
M  V30 19509 H 1844.69 -0.941435 2.84214 0
M  V30 19510 H 1842.24 -0.451427 1.36741 0
M  V30 19511 H 1844.19 -3.35997 2.5433 0
M  V30 19512 H 1842.91 -2.96742 1.36426 0
M  V30 19513 H 1841.57 -1.83703 3.17252 0
M  V30 19514 H 1841.22 -4.26188 2.67156 0
M  V30 19515 H 1840.92 -3.90479 4.3909 0
M  V30 19516 H 1842.44 -4.69782 3.90047 0
M  V30 19517 H 1843.86 -2.73277 5.03977 0
M  V30 19518 H 1842.26 -2.16931 5.59518 0
M  V30 19519 H 1843.33 -1.0481 4.73437 0
M  V30 19520 N 1844.67 -1.5 -0.48349 0
M  V30 19521 C 1846.08 -1.37151 -0.816192 0
M  V30 19522 C 1846.28 -0.418047 -1.97116 0
M  V30 19523 O 1845.34 0.143884 -2.5209 0
M  V30 19524 C 1846.65 -2.78256 -1.13992 0
M  V30 19525 C 1848.2 -2.87082 -1.2471 0
M  V30 19526 C 1848.68 -4.28993 -1.60403 0
M  V30 19527 N 1850.17 -4.31886 -1.67419 0
M  V30 19528 C 1850.9 -5.38673 -1.96516 0
M  V30 19529 N 1850.4 -6.55685 -2.23718 0
M  V30 19530 N 1852.19 -5.26105 -1.97914 0
M  V30 19531 H 1844.34 -2.10575 0.277847 0
M  V30 19532 H 1846.61 -0.945986 0.0617554 0
M  V30 19533 H 1846.31 -3.49807 -0.364448 0
M  V30 19534 H 1846.19 -3.14724 -2.07916 0
M  V30 19535 H 1848.57 -2.15758 -2.01327 0
M  V30 19536 H 1848.65 -2.54174 -0.287959 0
M  V30 19537 H 1848.3 -5.0085 -0.84331 0
M  V30 19538 H 1848.23 -4.59379 -2.57447 0
M  V30 19539 H 1850.72 -3.47506 -1.48487 0
M  V30 19540 H 1851.03 -7.32883 -2.45158 0
M  V30 19541 H 1849.38 -6.58881 -2.21136 0
M  V30 19542 H 1852.57 -4.33692 -1.76151 0
M  V30 19543 H 1852.74 -6.09419 -2.20256 0
M  V30 19544 N 1846.15 0.735796 -1.39369 0
M  V30 19545 C 1847.08 1.86303 -1.4076 0
M  V30 19546 C 1848.06 1.67926 -0.27107 0
M  V30 19547 O 1849.24 1.88257 -0.476773 0
M  V30 19548 C 1846.37 3.24043 -1.24955 0
M  V30 19549 C 1845.33 3.57055 -2.35999 0
M  V30 19550 C 1844.65 4.93723 -2.05284 0
M  V30 19551 C 1845.95 3.60109 -3.7831 0
M  V30 19552 H 1847.65 1.85396 -2.35093 0
M  V30 19553 H 1845.19 0.890552 -1.1316 0
M  V30 19554 H 1847.15 4.02574 -1.24549 0
M  V30 19555 H 1845.87 3.25475 -0.270902 0
M  V30 19556 H 1844.53 2.80853 -2.35621 0
M  V30 19557 H 1844.18 4.91734 -1.05859 0
M  V30 19558 H 1843.88 5.16779 -2.79667 0
M  V30 19559 H 1845.4 5.74612 -2.06527 0
M  V30 19560 H 1846.81 4.28718 -3.80622 0
M  V30 19561 H 1845.21 3.94683 -4.52046 0
M  V30 19562 H 1846.28 2.59932 -4.09345 0
M  V30 19563 N 1847.63 1.24532 0.965897 0
M  V30 19564 C 1848.56 0.997143 2.06373 0
M  V30 19565 C 1849.57 -0.0340261 1.62764 0
M  V30 19566 O 1850.76 0.203223 1.77339 0
M  V30 19567 C 1847.86 0.483305 3.35436 0
M  V30 19568 C 1847.03 1.57803 4.07942 0
M  V30 19569 C 1846.09 1.06652 5.15278 0
M  V30 19570 O 1845.12 1.75859 5.41352 0
M  V30 19571 N 1846.32 -0.0981119 5.80417 0
M  V30 19572 H 1849.08 1.94238 2.28236 0
M  V30 19573 H 1846.65 1.15586 1.13365 0
M  V30 19574 H 1848.64 0.125833 4.04504 0
M  V30 19575 H 1847.21 -0.367709 3.1043 0
M  V30 19576 H 1846.43 2.1076 3.33127 0
M  V30 19577 H 1847.72 2.3138 4.53146 0
M  V30 19578 H 1847.11 -0.676662 5.61638 0
M  V30 19579 H 1845.67 -0.396714 6.50592 0
M  V30 19580 N 1849.1 -1.16685 1.05936 0
M  V30 19581 C 1850.35 -1.86758 0.772386 0
M  V30 19582 C 1850.67 -1.81885 -0.703051 0
M  V30 19583 O 1849.94 -1.24992 -1.50844 0
M  V30 19584 H 1848.52 -0.69143 0.282725 0
M  V30 19585 H 1851.18 -1.41518 1.3401 0
M  V30 19586 H 1850.28 -2.92296 1.09405 0
M  V30 19587 N 1850.58 -0.841432 -1.33258 0
M  V30 19588 C 1851.54 -0.281685 -2.27462 0
M  V30 19589 C 1852.54 0.551062 -1.51063 0
M  V30 19590 O 1853.73 0.364482 -1.70344 0
M  V30 19591 C 1850.87 0.602896 -3.35526 0
M  V30 19592 H 1852.06 -1.11298 -2.78483 0
M  V30 19593 H 1849.61 -0.614717 -1.43704 0
M  V30 19594 H 1850.35 1.45652 -2.89751 0
M  V30 19595 H 1850.13 0.00701634 -3.92099 0
M  V30 19596 H 1851.62 0.987735 -4.05751 0
M  V30 19597 N 1852.06 1.4581 -0.598108 0
M  V30 19598 C 1853.34 1.95588 -0.0220376 0
M  V30 19599 C 1853.72 1.54066 1.44316 0
M  V30 19600 O 1853.06 0.798663 2.14088 0
M  V30 19601 C 1853.27 3.48366 -0.210204 0
M  V30 19602 C 1854.62 4.24513 -0.0860474 0
M  V30 19603 O 1855.65 3.55925 -0.139833 0
M  V30 19604 O 1854.51 5.46488 0.0367961 0
M  V30 19605 H 1851.6 0.825977 0.0411123 0
M  V30 19606 H 1854.15 1.56021 -0.667506 0
M  V30 19607 H 1852.92 3.71526 -1.22818 0
M  V30 19608 H 1852.54 3.94801 0.470974 0
M  V30 19609 N 1853.54 0.336733 1.53961 0
M  V30 19610 C 1854.5 -0.510638 2.23439 0
M  V30 19611 C 1855.5 -1.03304 1.23227 0
M  V30 19612 O 1856.69 -0.923373 1.47714 0
M  V30 19613 C 1853.82 -1.71063 2.94873 0
M  V30 19614 H 1855.02 0.0969205 2.99743 0
M  V30 19615 H 1852.57 0.0879867 1.56052 0
M  V30 19616 H 1853.3 -2.35707 2.22739 0
M  V30 19617 H 1853.09 -1.34331 3.68371 0
M  V30 19618 H 1854.58 -2.31182 3.47771 0
M  V30 19619 N 1855.02 -1.57465 0.0651956 0
M  V30 19620 C 1855.96 -2.12345 -0.904345 0
M  V30 19621 C 1856.93 -1.03429 -1.29968 0
M  V30 19622 O 1858.12 -1.31055 -1.38669 0
M  V30 19623 C 1855.26 -2.68423 -2.16895 0
M  V30 19624 C 1854.37 -3.91472 -1.82684 0
M  V30 19625 C 1853.51 -4.35816 -3.03706 0
M  V30 19626 C 1852.54 -5.5153 -2.65482 0
M  V30 19627 N 1851.68 -5.90863 -3.79242 0
M  V30 19628 H 1856.52 -2.94889 -0.429468 0
M  V30 19629 H 1854.06 -1.45729 -0.200344 0
M  V30 19630 H 1856.02 -2.99041 -2.90913 0
M  V30 19631 H 1854.65 -1.88654 -2.61934 0
M  V30 19632 H 1853.7 -3.67357 -0.987564 0
M  V30 19633 H 1855.01 -4.75536 -1.50557 0
M  V30 19634 H 1854.16 -4.68062 -3.86009 0
M  V30 19635 H 1852.9 -3.50593 -3.39022 0
M  V30 19636 H 1851.91 -5.18943 -1.81598 0
M  V30 19637 H 1853.13 -6.3848 -2.31343 0
M  V30 19638 H 1851.08 -5.08591 -4.14332 0
M  V30 19639 H 1851 -6.69651 -3.50861 0
M  V30 19640 H 1852.26 -6.27729 -4.62144 0
M  V30 19641 N 1856.49 0.20831 -1.56217 0
M  V30 19642 C 1857.72 0.947271 -1.83941 0
M  V30 19643 C 1858.14 1.77403 -0.646029 0
M  V30 19644 O 1857.49 1.78385 0.385378 0
M  V30 19645 C 1857.54 1.85415 -3.10328 0
M  V30 19646 O 1857.27 1.06079 -4.25063 0
M  V30 19647 C 1858.77 2.7059 -3.51135 0
M  V30 19648 H 1855.99 0.277012 -0.611151 0
M  V30 19649 H 1858.53 0.219545 -2.03318 0
M  V30 19650 H 1856.69 2.53566 -2.92888 0
M  V30 19651 H 1857.1 1.67758 -4.96948 0
M  V30 19652 H 1858.57 3.29902 -4.42571 0
M  V30 19653 H 1859.05 3.43645 -2.73505 0
M  V30 19654 H 1859.66 2.07831 -3.71061 0
M  V30 19655 N 1857.97 1.50255 0.475528 0
M  V30 19656 C 1859.22 1.60263 1.22468 0
M  V30 19657 C 1859.53 0.306389 1.93185 0
M  V30 19658 O 1860.74 0.285331 2.69997 0
M  V30 19659 C 1859.2 2.82876 2.22506 0
M  V30 19660 C 1858.8 4.19359 1.57612 0
M  V30 19661 C 1860.55 3.02228 2.98091 0
M  V30 19662 C 1858.45 5.33164 2.55911 0
M  V30 19663 H 1857.38 0.596804 0.460804 0
M  V30 19664 H 1860.04 1.76679 0.495653 0
M  V30 19665 H 1858.42 2.6001 2.98682 0
M  V30 19666 H 1859.59 4.52463 0.872559 0
M  V30 19667 H 1857.91 4.05576 0.943247 0
M  V30 19668 H 1860.5 3.84422 3.7165 0
M  V30 19669 H 1860.85 2.13781 3.57216 0
M  V30 19670 H 1861.38 3.25255 2.29029 0
M  V30 19671 H 1858.12 6.23751 2.01531 0
M  V30 19672 H 1857.64 5.04484 3.24432 0
M  V30 19673 H 1859.32 5.63554 3.17829 0
M  V30 19674 N 1859.45 -0.728395 1.39758 0
M  V30 19675 C 1860.36 -1.87279 1.41293 0
M  V30 19676 C 1861.38 -1.71271 0.306965 0
M  V30 19677 O 1862.55 -1.93759 0.549502 0
M  V30 19678 C 1859.62 -3.22943 1.2613 0
M  V30 19679 C 1858.68 -3.51297 2.46756 0
M  V30 19680 C 1857.91 -4.80489 2.32307 0
M  V30 19681 O 1858.13 -5.54676 1.33005 0
M  V30 19682 O 1857.07 -5.08891 3.21425 0
M  V30 19683 H 1860.89 -1.88939 2.37773 0
M  V30 19684 H 1858.48 -0.877103 1.20943 0
M  V30 19685 H 1860.36 -4.04003 1.19832 0
M  V30 19686 H 1859.04 -3.22039 0.327492 0
M  V30 19687 H 1857.94 -2.70298 2.58631 0
M  V30 19688 H 1859.28 -3.56986 3.38853 0
M  V30 19689 N 1860.93 -1.25042 -0.959279 0
M  V30 19690 C 1861.87 -1.0502 -2.05522 0
M  V30 19691 C 1862.84 0.039194 -1.66054 0
M  V30 19692 O 1864.03 -0.11708 -1.9044 0
M  V30 19693 C 1861.17 -0.670047 -3.38533 0
M  V30 19694 C 1860.28 -1.83381 -3.91146 0
M  V30 19695 C 1859.42 -1.39844 -5.12462 0
M  V30 19696 C 1858.46 -2.53163 -5.57293 0
M  V30 19697 N 1857.59 -2.10435 -6.69822 0
M  V30 19698 H 1862.43 -1.98816 -2.21982 0
M  V30 19699 H 1859.97 -0.990139 -1.08787 0
M  V30 19700 H 1861.93 -0.430621 -4.14972 0
M  V30 19701 H 1860.56 0.230924 -3.21973 0
M  V30 19702 H 1859.61 -2.18667 -3.1127 0
M  V30 19703 H 1860.92 -2.68497 -4.2037 0
M  V30 19704 H 1860.08 -1.1184 -5.96303 0
M  V30 19705 H 1858.82 -0.51794 -4.84942 0
M  V30 19706 H 1857.82 -2.81918 -4.7202 0
M  V30 19707 H 1859.05 -3.41784 -5.86822 0
M  V30 19708 H 1856.99 -1.24794 -6.44021 0
M  V30 19709 H 1856.91 -2.89101 -6.98539 0
M  V30 19710 H 1858.18 -1.85593 -7.57084 0
M  V30 19711 N 1862.41 1.16121 -1.06553 0
M  V30 19712 C 1863.66 1.86055 -0.778871 0
M  V30 19713 C 1863.97 1.82747 0.697357 0
M  V30 19714 O 1865.17 2.48285 1.09849 0
M  V30 19715 C 1863.63 3.33897 -1.34315 0
M  V30 19716 C 1863.24 3.45673 -2.84981 0
M  V30 19717 C 1864.98 4.09069 -1.13415 0
M  V30 19718 C 1862.89 4.87616 -3.34641 0
M  V30 19719 H 1861.82 0.696963 -0.287678 0
M  V30 19720 H 1864.47 1.31038 -1.28458 0
M  V30 19721 H 1862.85 3.88536 -0.765208 0
M  V30 19722 H 1864.03 3.01181 -3.4875 0
M  V30 19723 H 1862.34 2.83938 -3.04579 0
M  V30 19724 H 1864.94 5.13809 -1.48002 0
M  V30 19725 H 1865.28 4.16237 -0.0726719 0
M  V30 19726 H 1865.81 3.60676 -1.67802 0
M  V30 19727 H 1862.55 4.85629 -4.40278 0
M  V30 19728 H 1862.07 5.32722 -2.75622 0
M  V30 19729 H 1863.75 5.56443 -3.30122 0
M  V30 19730 N 1863.88 0.848487 1.3281 0
M  V30 19731 C 1865.13 0.449521 1.97755 0
M  V30 19732 C 1865.46 -0.990923 1.67016 0
M  V30 19733 O 1864.74 -1.69434 0.955119 0
M  V30 19734 C 1865.02 0.681898 3.53585 0
M  V30 19735 C 1864.87 2.17031 3.93976 0
M  V30 19736 C 1866.19 0.134271 4.39895 0
M  V30 19737 H 1863.31 0.164799 0.718339 0
M  V30 19738 H 1865.95 1.06578 1.57293 0
M  V30 19739 H 1864.1 0.157353 3.88181 0
M  V30 19740 H 1865.78 2.76046 3.69589 0
M  V30 19741 H 1864.02 2.65117 3.43359 0
M  V30 19742 H 1864.69 2.28362 5.02548 0
M  V30 19743 H 1867.17 0.582756 4.11999 0
M  V30 19744 H 1866.04 0.326479 5.47928 0
M  V30 19745 H 1866.3 -0.962576 4.31494 0
M  V30 19746 N 1865.36 -1.4549 0.605832 0
M  V30 19747 C 1866.27 -2.34313 -0.115915 0
M  V30 19748 C 1867.29 -1.51136 -0.862199 0
M  V30 19749 O 1868.46 -1.83943 -0.820181 0
M  V30 19750 C 1865.53 -3.28724 -1.10188 0
M  V30 19751 C 1864.59 -4.27807 -0.357749 0
M  V30 19752 C 1863.82 -5.17707 -1.29675 0
M  V30 19753 O 1864.05 -5.10999 -2.53448 0
M  V30 19754 O 1862.98 -5.9663 -0.794767 0
M  V30 19755 H 1866.81 -2.97429 0.613981 0
M  V30 19756 H 1864.39 -1.44845 0.366103 0
M  V30 19757 H 1866.27 -3.86905 -1.6698 0
M  V30 19758 H 1864.95 -2.68175 -1.81284 0
M  V30 19759 H 1863.86 -3.73246 0.252588 0
M  V30 19760 H 1865.19 -4.91206 0.312682 0
M  V30 19761 N 1866.84 -0.344893 -1.5378 0
M  V30 19762 C 1867.75 0.519687 -2.28772 0
M  V30 19763 C 1868.77 1.11076 -1.33934 0
M  V30 19764 O 1869.94 1.12615 -1.66972 0
M  V30 19765 C 1867.01 1.65417 -3.04693 0
M  V30 19766 C 1866.07 1.09275 -4.1516 0
M  V30 19767 C 1865.3 2.17316 -4.87452 0
M  V30 19768 O 1865.52 3.38061 -4.59425 0
M  V30 19769 O 1864.46 1.81535 -5.73872 0
M  V30 19770 H 1868.28 -0.0899625 -3.03567 0
M  V30 19771 H 1865.87 -0.109899 -1.48995 0
M  V30 19772 H 1867.75 2.31421 -3.52168 0
M  V30 19773 H 1866.43 2.24961 -2.32754 0
M  V30 19774 H 1865.33 0.397193 -3.71985 0
M  V30 19775 H 1866.67 0.542156 -4.89205 0
M  V30 19776 N 1868.32 1.57428 -0.0735454 0
M  V30 19777 C 1869.57 1.93174 0.593996 0
M  V30 19778 C 1869.89 0.954462 1.70044 0
M  V30 19779 O 1869.16 0.00289765 1.959 0
M  V30 19780 H 1867.74 0.713123 0.222407 0
M  V30 19781 H 1870.4 1.94454 -0.131813 0
M  V30 19782 H 1869.5 2.95025 1.01818 0
M  V30 19783 N 1869.8 -0.200022 1.56326 0
M  V30 19784 C 1871.03 -0.936144 1.84174 0
M  V30 19785 C 1871.43 -1.77564 0.653267 0
M  V30 19786 O 1870.78 -1.79569 -0.387368 0
M  V30 19787 C 1870.84 -1.88598 3.06057 0
M  V30 19788 C 1870.5 -1.22892 4.40167 0
M  V30 19789 C 1871.5 -0.608243 5.1633 0
M  V30 19790 C 1869.19 -1.23424 4.869 0
M  V30 19791 C 1871.18 -0.00166268 6.374 0
M  V30 19792 C 1868.87 -0.623827 6.07908 0
M  V30 19793 C 1869.86 -0.00861163 6.82999 0
M  V30 19794 O 1869.55 0.592252 8.01715 0
M  V30 19795 H 1869.28 -0.278889 0.615789 0
M  V30 19796 H 1871.84 -0.213764 2.04285 0
M  V30 19797 H 1870.07 -2.64793 2.81818 0
M  V30 19798 H 1871.76 -2.48948 3.20593 0
M  V30 19799 H 1872.52 -0.596302 4.8132 0
M  V30 19800 H 1868.4 -1.7025 4.28411 0
M  V30 19801 H 1871.95 0.479147 6.95953 0
M  V30 19802 H 1867.84 -0.633254 6.42386 0
M  V30 19803 H 1868.61 0.488674 8.1704 0
M  V30 19804 N 1871.27 -1.50505 -0.467553 0
M  V30 19805 C 1872.5 -1.65433 -1.24256 0
M  V30 19806 C 1872.92 -0.339107 -1.8573 0
M  V30 19807 O 1872.27 0.679316 -1.69386 0
M  V30 19808 C 1872.33 -2.74805 -2.34871 0
M  V30 19809 O 1872.05 -4.01229 -1.75917 0
M  V30 19810 C 1873.55 -3.00738 -3.25687 0
M  V30 19811 H 1870.77 -0.555987 -0.375659 0
M  V30 19812 H 1873.31 -1.96749 -0.557684 0
M  V30 19813 H 1871.47 -2.46174 -2.99128 0
M  V30 19814 H 1871.88 -4.61742 -2.48787 0
M  V30 19815 H 1873.35 -3.80921 -3.99504 0
M  V30 19816 H 1873.83 -2.11947 -3.84675 0
M  V30 19817 H 1874.44 -3.30914 -2.67163 0
M  V30 19818 N 1872.75 0.720973 -1.40142 0
M  V30 19819 C 1873.68 1.84799 -1.42729 0
M  V30 19820 C 1874.66 1.67629 -0.288866 0
M  V30 19821 O 1875.85 1.8774 -0.496713 0
M  V30 19822 C 1872.98 3.22699 -1.28385 0
M  V30 19823 C 1871.93 3.54532 -2.39773 0
M  V30 19824 C 1871.26 4.91518 -2.10509 0
M  V30 19825 C 1872.56 3.56077 -3.82108 0
M  V30 19826 H 1874.25 1.82892 -2.37046 0
M  V30 19827 H 1871.8 0.8785 -1.14098 0
M  V30 19828 H 1873.75 4.0123 -1.28812 0
M  V30 19829 H 1872.48 3.25169 -0.305408 0
M  V30 19830 H 1871.13 2.78338 -2.38586 0
M  V30 19831 H 1870.78 4.90584 -1.11069 0
M  V30 19832 H 1870.48 5.13783 -2.85132 0
M  V30 19833 H 1872.01 5.72389 -2.1261 0
M  V30 19834 H 1873.42 4.24657 -3.85148 0
M  V30 19835 H 1871.82 3.89866 -4.56207 0
M  V30 19836 H 1872.89 2.55576 -4.12079 0
M  V30 19837 N 1874.23 1.25549 0.952634 0
M  V30 19838 C 1875.46 1.13262 1.73743 0
M  V30 19839 C 1875.88 -0.309507 1.85536 0
M  V30 19840 O 1875.24 -1.22422 1.33726 0
M  V30 19841 C 1875.29 1.79395 3.12809 0
M  V30 19842 O 1874.39 1.07496 3.98144 0
M  V30 19843 H 1873.73 0.395314 0.5335 0
M  V30 19844 H 1876.26 1.66151 1.19394 0
M  V30 19845 H 1876.27 1.85761 3.63259 0
M  V30 19846 H 1874.95 2.84316 3.03542 0
M  V30 19847 H 1873.52 1.09025 3.56606 0
M  V30 19848 N 1875.71 -1.15554 1.07168 0
M  V30 19849 C 1876.99 -1.8238 0.706884 0
M  V30 19850 C 1877.37 -1.94906 -0.810848 0
M  V30 19851 O 1876.71 -1.49905 -1.72455 0
M  V30 19852 C 1876.92 -3.18844 1.41913 0
M  V30 19853 C 1878.27 -3.94506 1.57004 0
M  V30 19854 O 1879.3 -3.28392 1.37976 0
M  V30 19855 O 1878.15 -5.13036 1.88297 0
M  V30 19856 H 1875.25 -0.787892 0.251307 0
M  V30 19857 H 1877.79 -1.22681 1.17249 0
M  V30 19858 H 1876.57 -3.04814 2.45365 0
M  V30 19859 H 1876.19 -3.86227 0.944182 0
M  V30 19860 N 1877.19 -0.855519 -1.32358 0
M  V30 19861 C 1878.44 -0.455543 -1.96488 0
M  V30 19862 C 1878.75 0.99419 -1.68449 0
M  V30 19863 O 1879.96 1.49964 -2.26325 0
M  V30 19864 C 1878.41 -0.763678 -3.51704 0
M  V30 19865 C 1878.02 -2.2292 -3.88601 0
M  V30 19866 C 1879.76 -0.431467 -4.22302 0
M  V30 19867 C 1877.67 -2.48051 -5.36866 0
M  V30 19868 H 1876.6 -0.166617 -0.73536 0
M  V30 19869 H 1879.25 -1.04642 -1.50739 0
M  V30 19870 H 1877.63 -0.102224 -3.95868 0
M  V30 19871 H 1878.81 -2.93251 -3.55444 0
M  V30 19872 H 1877.12 -2.52602 -3.31031 0
M  V30 19873 H 1879.72 -0.596641 -5.31361 0
M  V30 19874 H 1880.06 0.62698 -4.11552 0
M  V30 19875 H 1880.6 -1.04885 -3.83724 0
M  V30 19876 H 1877.33 -3.52523 -5.52637 0
M  V30 19877 H 1876.85 -1.82298 -5.71426 0
M  V30 19878 H 1878.53 -2.32044 -6.03957 0
M  V30 19879 N 1878.67 1.45167 -0.61354 0
M  V30 19880 C 1879.6 2.3333 0.089004 0
M  V30 19881 C 1880.58 1.47181 0.85275 0
M  V30 19882 O 1881.76 1.7594 0.822122 0
M  V30 19883 C 1878.89 3.29982 1.08301 0
M  V30 19884 C 1877.85 4.25813 0.432084 0
M  V30 19885 C 1877.17 5.122 1.53476 0
M  V30 19886 C 1878.47 5.18233 -0.65052 0
M  V30 19887 H 1880.17 2.92322 -0.647165 0
M  V30 19888 H 1877.71 1.40565 -0.312667 0
M  V30 19889 H 1879.66 3.90533 1.5831 0
M  V30 19890 H 1878.39 2.69162 1.84985 0
M  V30 19891 H 1877.05 3.6657 -0.0471927 0
M  V30 19892 H 1876.7 4.47744 2.29203 0
M  V30 19893 H 1876.4 5.77122 1.10469 0
M  V30 19894 H 1877.92 5.7562 2.037 0
M  V30 19895 H 1879.33 5.72821 -0.234262 0
M  V30 19896 H 1877.73 5.91664 -1.00268 0
M  V30 19897 H 1878.8 4.60304 -1.52475 0
M  V30 19898 N 1880.14 0.353044 1.53595 0
M  V30 19899 C 1881.09 -0.514569 2.26837 0
M  V30 19900 C 1882.09 -1.09398 1.29338 0
M  V30 19901 O 1883.29 -1.03863 1.47012 0
M  V30 19902 H 1879.67 -0.184641 0.72898 0
M  V30 19903 H 1881.64 0.125082 2.98138 0
M  V30 19904 C 1880.39 -1.64884 3.06119 0
M  V30 19905 H 1879.71 -1.21227 3.80978 0
M  V30 19906 H 1881.15 -2.23089 3.60565 0
M  V30 19907 C 1879.61 -2.58385 2.16192 0
M  V30 19908 O 1880.14 -3.6088 1.76433 0
M  V30 19909 N 1878.34 -2.27286 1.81079 0
M  V30 19910 H 1877.89 -1.43975 2.13609 0
M  V30 19911 H 1877.85 -2.90102 1.21194 0
M  V30 19912 N 1881.62 -1.57387 0.0818932 0
M  V30 19913 C 1882.53 -2.16804 -0.89629 0
M  V30 19914 C 1883.55 -1.1339 -1.3198 0
M  V30 19915 O 1884.72 -1.45702 -1.39042 0
M  V30 19916 C 1881.79 -2.72607 -2.14211 0
M  V30 19917 C 1880.85 -3.90929 -1.77406 0
M  V30 19918 C 1880.08 -4.44062 -2.96049 0
M  V30 19919 O 1880.31 -3.96166 -4.10376 0
M  V30 19920 O 1879.24 -5.35261 -2.75279 0
M  V30 19921 H 1883.07 -3.0077 -0.420827 0
M  V30 19922 H 1880.65 -1.48726 -0.141737 0
M  V30 19923 H 1882.53 -3.0833 -2.87247 0
M  V30 19924 H 1881.21 -1.91694 -2.60835 0
M  V30 19925 H 1880.11 -3.60042 -1.01591 0
M  V30 19926 H 1881.45 -4.73165 -1.35556 0
M  V30 19927 N 1883.1 0.191729 -1.56429 0
M  V30 19928 C 1884.35 0.909797 -1.80016 0
M  V30 19929 C 1884.66 1.84283 -0.65569 0
M  V30 19930 O 1885.87 2.60176 -0.775941 0
M  V30 19931 C 1884.32 1.66819 -3.18904 0
M  V30 19932 C 1883.93 0.779817 -4.41161 0
M  V30 19933 C 1885.68 2.37569 -3.51797 0
M  V30 19934 C 1883.58 1.53727 -5.71071 0
M  V30 19935 H 1882.51 0.343463 -0.67123 0
M  V30 19936 H 1885.16 0.163022 -1.82774 0
M  V30 19937 H 1883.55 2.45897 -3.10404 0
M  V30 19938 H 1884.72 0.0274524 -4.60792 0
M  V30 19939 H 1883.03 0.18298 -4.15998 0
M  V30 19940 H 1885.63 2.94796 -4.46093 0
M  V30 19941 H 1885.97 3.11921 -2.75701 0
M  V30 19942 H 1886.51 1.65454 -3.61759 0
M  V30 19943 H 1883.25 0.836475 -6.50141 0
M  V30 19944 H 1882.77 2.26348 -5.55452 0
M  V30 19945 H 1884.45 2.09018 -6.12308 0
M  V30 19946 N 1884.58 1.50751 0.459565 0
M  V30 19947 C 1885.81 1.66089 1.23377 0
M  V30 19948 C 1886.22 0.348952 1.85547 0
M  V30 19949 O 1885.58 -0.670323 1.69744 0
M  V30 19950 C 1885.63 2.76047 2.3341 0
M  V30 19951 O 1885.35 4.02156 1.73787 0
M  V30 19952 C 1886.85 3.02461 3.24087 0
M  V30 19953 H 1884.07 0.557971 0.372705 0
M  V30 19954 H 1886.61 1.97042 0.547242 0
M  V30 19955 H 1884.77 2.47756 2.97818 0
M  V30 19956 H 1885.18 4.63055 2.46335 0
M  V30 19957 H 1886.66 3.83034 3.97478 0
M  V30 19958 H 1887.13 2.13984 3.83546 0
M  V30 19959 H 1887.74 3.32326 2.65404 0
M  V30 19960 N 1886.06 -0.713531 1.40522 0
M  V30 19961 C 1887 -1.82761 1.40951 0
M  V30 19962 C 1887.97 -1.63953 0.266188 0
M  V30 19963 O 1889.16 -1.85058 0.464558 0
M  V30 19964 C 1886.3 -3.20488 1.27989 0
M  V30 19965 C 1885.41 -3.50853 2.52044 0
M  V30 19966 C 1884.55 -4.78097 2.31509 0
M  V30 19967 C 1883.58 -5.01373 3.51129 0
M  V30 19968 N 1882.72 -6.19832 3.29777 0
M  V30 19969 H 1887.56 -1.81729 2.36175 0
M  V30 19970 H 1885.1 -0.887703 1.17296 0
M  V30 19971 H 1887.06 -4.00023 1.1848 0
M  V30 19972 H 1885.69 -3.20743 0.363832 0
M  V30 19973 H 1884.74 -2.65858 2.72073 0
M  V30 19974 H 1886.05 -3.63961 3.41077 0
M  V30 19975 H 1885.2 -5.65654 2.19365 0
M  V30 19976 H 1883.94 -4.67203 1.39903 0
M  V30 19977 H 1882.95 -4.12271 3.63748 0
M  V30 19978 H 1884.17 -5.14139 4.43664 0
M  V30 19979 H 1882.12 -6.10184 2.40855 0
M  V30 19980 H 1882.04 -6.33626 4.12376 0
M  V30 19981 H 1883.3 -7.1017 3.2137 0
M  V30 19982 N 1887.53 -1.26053 -0.945962 0
M  V30 19983 C 1888.44 -1.08959 -2.07762 0
M  V30 19984 C 1889.46 -0.0243726 -1.73983 0
M  V30 19985 O 1890.64 -0.227113 -2.00115 0
M  V30 19986 C 1887.7 -0.719365 -3.39155 0
M  V30 19987 C 1886.76 -1.86347 -3.86747 0
M  V30 19988 C 1885.99 -1.51082 -5.11869 0
M  V30 19989 O 1886.22 -0.410377 -5.68922 0
M  V30 19990 O 1885.15 -2.34395 -5.54385 0
M  V30 19991 H 1888.98 -2.03884 -2.25089 0
M  V30 19992 H 1886.56 -1.05071 -1.0621 0
M  V30 19993 H 1888.44 -0.525412 -4.18112 0
M  V30 19994 H 1887.12 0.20054 -3.23078 0
M  V30 19995 H 1886.03 -2.11235 -3.08756 0
M  V30 19996 H 1887.36 -2.76293 -4.07336 0
M  V30 19997 N 1889.01 1.14984 -1.07779 0
M  V30 19998 C 1890.29 1.82003 -0.716546 0
M  V30 19999 C 1890.67 1.95334 0.8005 0
M  V30 20000 O 1890.02 1.50817 1.71658 0
M  V30 20001 C 1890.23 3.18087 -1.43602 0
M  V30 20002 C 1891.57 3.93668 -1.59094 0
M  V30 20003 O 1892.6 3.27655 -1.39715 0
M  V30 20004 O 1891.46 5.12031 -1.91015 0
M  V30 20005 H 1888.55 0.786548 -0.255482 0
M  V30 20006 H 1891.1 1.22058 -1.17898 0
M  V30 20007 H 1889.87 3.03509 -2.46978 0
M  V30 20008 H 1889.49 3.8572 -0.964651 0
M  V30 20009 N 1890.49 0.862526 1.31902 0
M  V30 20010 C 1891.42 0.328423 2.31179 0
M  V30 20011 C 1892.4 -0.57668 1.60026 0
M  V30 20012 O 1893.59 -0.49527 1.87778 0
M  V30 20013 C 1890.72 -0.47734 3.44004 0
M  V30 20014 C 1889.67 0.334015 4.26695 0
M  V30 20015 C 1889 -0.596973 5.31357 0
M  V30 20016 C 1890.3 1.56405 4.98332 0
M  V30 20017 H 1891.99 1.15797 2.761 0
M  V30 20018 H 1889.54 0.558268 1.32738 0
M  V30 20019 H 1891.49 -0.861461 4.12501 0
M  V30 20020 H 1890.21 -1.34033 2.9783 0
M  V30 20021 H 1888.87 0.699989 3.59855 0
M  V30 20022 H 1888.52 -1.45703 4.81435 0
M  V30 20023 H 1888.22 -0.0580517 5.87571 0
M  V30 20024 H 1889.74 -0.978099 6.02715 0
M  V30 20025 H 1891.16 1.25178 5.59467 0
M  V30 20026 H 1889.55 2.04149 5.64308 0
M  V30 20027 H 1890.62 2.32099 4.25744 0
M  V30 20028 N 1891.97 -1.4484 0.62123 0
M  V30 20029 C 1893.38 -1.57016 0.286009 0
M  V30 20030 C 1893.58 -1.6104 -1.21113 0
M  V30 20031 O 1892.64 -1.54807 -1.99477 0
M  V30 20032 C 1893.95 -2.84652 0.969209 0
M  V30 20033 C 1895.5 -2.98349 0.946414 0
M  V30 20034 C 1895.98 -4.28773 1.60989 0
M  V30 20035 N 1897.47 -4.35564 1.57601 0
M  V30 20036 C 1898.2 -5.3518 2.0584 0
M  V30 20037 N 1897.7 -6.41256 2.62226 0
M  V30 20038 N 1899.49 -5.26625 1.96527 0
M  V30 20039 H 1891.64 -1.40471 1.59316 0
M  V30 20040 H 1893.91 -0.672493 0.668174 0
M  V30 20041 H 1893.61 -2.87629 2.02392 0
M  V30 20042 H 1893.49 -3.7386 0.500859 0
M  V30 20043 H 1895.87 -2.94931 -0.0997935 0
M  V30 20044 H 1895.95 -2.10516 1.45316 0
M  V30 20045 H 1895.6 -4.3295 2.65549 0
M  V30 20046 H 1895.53 -5.15447 1.07805 0
M  V30 20047 H 1898.02 -3.59519 1.16424 0
M  V30 20048 H 1898.33 -7.13536 2.96792 0
M  V30 20049 H 1896.68 -6.41969 2.66272 0
M  V30 20050 H 1899.87 -4.42664 1.52206 0
M  V30 20051 H 1900.04 -6.04107 2.34434 0
M  V30 20052 N 1893.45 -0.361184 -1.53405 0
M  V30 20053 C 1894.68 0.23043 -2.05311 0
M  V30 20054 C 1895.08 1.43355 -1.23475 0
M  V30 20055 O 1894.43 1.81745 -0.267304 0
M  V30 20056 C 1894.49 0.692241 -3.52772 0
M  V30 20057 C 1894.15 -0.393597 -4.55302 0
M  V30 20058 C 1895.15 -1.24204 -5.04846 0
M  V30 20059 C 1892.84 -0.55258 -4.99251 0
M  V30 20060 C 1894.83 -2.23485 -5.96936 0
M  V30 20061 C 1892.52 -1.54876 -5.91149 0
M  V30 20062 C 1893.51 -2.38834 -6.39881 0
M  V30 20063 O 1893.2 -3.36753 -7.29967 0
M  V30 20064 H 1892.93 0.0451009 -0.674494 0
M  V30 20065 H 1895.49 -0.516588 -1.98798 0
M  V30 20066 H 1893.72 1.49079 -3.56809 0
M  V30 20067 H 1895.41 1.20637 -3.87559 0
M  V30 20068 H 1896.17 -1.13039 -4.71643 0
M  V30 20069 H 1892.05 0.0911198 -4.6091 0
M  V30 20070 H 1895.6 -2.89053 -6.34897 0
M  V30 20071 H 1891.49 -1.66091 -6.23766 0
M  V30 20072 H 1892.26 -3.32431 -7.47952 0
M  V30 20073 N 1894.92 1.57341 -0.0902386 0
M  V30 20074 C 1895.85 2.16782 0.86764 0
M  V30 20075 C 1896.84 1.09982 1.29761 0
M  V30 20076 O 1898.02 1.38099 1.36537 0
M  V30 20077 C 1895.15 2.74426 2.12856 0
M  V30 20078 C 1894.1 3.86555 1.83738 0
M  V30 20079 C 1893.43 4.3088 3.16617 0
M  V30 20080 C 1894.73 5.09971 1.12814 0
M  V30 20081 H 1896.42 2.97075 0.372417 0
M  V30 20082 H 1893.97 1.42899 0.177689 0
M  V30 20083 H 1895.92 3.14659 2.80299 0
M  V30 20084 H 1894.65 1.9138 2.64653 0
M  V30 20085 H 1893.31 3.46853 1.18694 0
M  V30 20086 H 1892.95 3.44732 3.66291 0
M  V30 20087 H 1892.65 5.06477 2.97918 0
M  V30 20088 H 1894.18 4.73743 3.85227 0
M  V30 20089 H 1895.59 5.47404 1.70358 0
M  V30 20090 H 1893.99 5.90965 1.04311 0
M  V30 20091 H 1895.06 4.84775 0.110114 0
M  V30 20092 N 1896.4 -0.183431 1.56529 0
M  V30 20093 C 1897.82 -0.534734 1.50375 0
M  V30 20094 C 1898.02 -1.85267 0.792359 0
M  V30 20095 O 1897.07 -2.50095 0.3477 0
M  V30 20096 C 1898.39 -0.578686 2.95079 0
M  V30 20097 C 1899.94 -0.66672 3.05817 0
M  V30 20098 C 1900.41 -0.741676 4.51955 0
M  V30 20099 N 1901.9 -0.804892 4.56153 0
M  V30 20100 C 1902.64 -0.883257 5.66556 0
M  V30 20101 N 1902.13 -0.923203 6.86621 0
M  V30 20102 N 1903.93 -0.921346 5.54498 0
M  V30 20103 H 1896.08 0.68092 2.0119 0
M  V30 20104 H 1898.34 0.244029 0.916053 0
M  V30 20105 H 1898.05 0.320816 3.50234 0
M  V30 20106 H 1897.92 -1.42937 3.49068 0
M  V30 20107 H 1900.31 -1.55665 2.50704 0
M  V30 20108 H 1900.39 0.210402 2.54933 0
M  V30 20109 H 1900.03 0.143948 5.07696 0
M  V30 20110 H 1899.96 -1.63477 5.00583 0
M  V30 20111 H 1902.45 -0.782796 3.69704 0
M  V30 20112 H 1902.77 -0.983835 7.66512 0
M  V30 20113 H 1901.11 -0.891683 6.89256 0
M  V30 20114 H 1904.3 -0.887056 4.59618 0
M  V30 20115 H 1904.47 -0.978957 6.40563 0
M  V30 20116 N 1897.88 -1.50992 -0.451564 0
M  V30 20117 C 1898.81 -1.74216 -1.5547 0
M  V30 20118 C 1899.79 -0.591568 -1.59482 0
M  V30 20119 O 1900.98 -0.83279 -1.75437 0
M  V30 20120 C 1898.11 -1.85421 -2.9366 0
M  V30 20121 C 1897.06 -3.0076 -3.04512 0
M  V30 20122 C 1896.39 -2.9713 -4.44542 0
M  V30 20123 C 1897.69 -4.40961 -2.79911 0
M  V30 20124 H 1899.38 -2.66582 -1.36287 0
M  V30 20125 H 1896.93 -1.28281 -0.654207 0
M  V30 20126 H 1898.88 -2.00252 -3.70779 0
M  V30 20127 H 1897.6 -0.896921 -3.14043 0
M  V30 20128 H 1896.26 -2.85611 -2.2983 0
M  V30 20129 H 1895.91 -1.99207 -4.61872 0
M  V30 20130 H 1895.61 -3.74572 -4.52736 0
M  V30 20131 H 1897.13 -3.14035 -5.23655 0
M  V30 20132 H 1898.55 -4.56534 -3.4677 0
M  V30 20133 H 1896.95 -5.20002 -2.9953 0
M  V30 20134 H 1898.02 -4.51981 -1.75618 0
M  V30 20135 N 1899.36 0.706069 -1.40899 0
M  V30 20136 C 1900.77 1.01535 -1.23137 0
M  V30 20137 C 1900.97 2.01181 -0.113293 0
M  V30 20138 O 1900.03 2.46966 0.525732 0
M  V30 20139 C 1901.34 1.54998 -2.57674 0
M  V30 20140 C 1902.89 1.66935 -2.64767 0
M  V30 20141 C 1903.37 2.23802 -3.99596 0
M  V30 20142 N 1904.86 2.31176 -4.01388 0
M  V30 20143 C 1905.59 2.76181 -5.02506 0
M  V30 20144 N 1905.09 3.20868 -6.14016 0
M  V30 20145 N 1906.88 2.7565 -4.89871 0
M  V30 20146 H 1899.03 0.045751 -2.12351 0
M  V30 20147 H 1901.3 0.0828835 -0.94437 0
M  V30 20148 H 1901 0.892393 -3.4019 0
M  V30 20149 H 1900.88 2.53377 -2.79428 0
M  V30 20150 H 1903.26 2.31808 -1.82617 0
M  V30 20151 H 1903.34 0.671301 -2.46834 0
M  V30 20152 H 1902.99 1.59547 -4.8219 0
M  V30 20153 H 1902.92 3.24339 -4.14864 0
M  V30 20154 H 1905.41 1.99627 -3.2087 0
M  V30 20155 H 1905.72 3.53803 -6.87054 0
M  V30 20156 H 1904.07 3.18803 -6.17568 0
M  V30 20157 H 1907.26 2.40081 -4.01844 0
M  V30 20158 H 1907.43 3.10407 -5.68816 0
M  V30 20159 N 1900.84 1.26553 0.939264 0
M  V30 20160 C 1902.08 1.11989 1.68235 0
M  V30 20161 C 1902.41 -0.336993 1.92066 0
M  V30 20162 O 1901.68 -1.23742 1.51871 0
M  V30 20163 H 1900.26 0.41144 0.623479 0
M  V30 20164 H 1902.92 1.58909 1.12845 0
M  V30 20165 H 1902.01 1.64011 2.65531 0
M  V30 20166 N 1902.31 -1.14411 1.08387 0
M  V30 20167 C 1903.56 -1.85078 0.811826 0
M  V30 20168 C 1903.88 -1.83335 -0.664312 0
M  V30 20169 O 1903.15 -1.28164 -1.48158 0
M  V30 20170 H 1901.73 -0.685278 0.297328 0
M  V30 20171 H 1904.4 -1.38644 1.36981 0
M  V30 20172 H 1903.49 -2.89909 1.15581 0
M  V30 20173 N 1903.79 -0.869509 -1.31443 0
M  V30 20174 C 1904.72 -0.340679 -2.31001 0
M  V30 20175 C 1905.7 0.568186 -1.6033 0
M  V30 20176 O 1906.89 0.485305 -1.88038 0
M  V30 20177 C 1904.02 0.45909 -3.44252 0
M  V30 20178 C 1902.97 -0.356639 -4.26512 0
M  V30 20179 C 1902.3 0.568786 -5.31666 0
M  V30 20180 C 1903.6 -1.59045 -4.97496 0
M  V30 20181 H 1905.29 -1.1726 -2.75482 0
M  V30 20182 H 1902.84 -0.5653 -1.3244 0
M  V30 20183 H 1904.79 0.839573 -4.12952 0
M  V30 20184 H 1903.52 1.32451 -2.98537 0
M  V30 20185 H 1902.17 -0.719063 -3.59479 0
M  V30 20186 H 1901.82 1.43148 -4.82201 0
M  V30 20187 H 1901.52 0.0268906 -5.87594 0
M  V30 20188 H 1903.05 0.946122 -6.03225 0
M  V30 20189 H 1904.46 -1.28144 -5.58795 0
M  V30 20190 H 1902.86 -2.07139 -5.63217 0
M  V30 20191 H 1903.93 -2.34354 -4.24507 0
M  V30 20192 N 1905.27 1.44508 -0.628902 0
M  V30 20193 C 1906.2 2.33412 0.0642512 0
M  V30 20194 C 1907.18 1.48077 0.837091 0
M  V30 20195 O 1908.37 1.76802 0.803415 0
M  V30 20196 C 1905.5 3.31112 1.04795 0
M  V30 20197 C 1904.45 4.26248 0.386897 0
M  V30 20198 C 1903.78 5.13799 1.48035 0
M  V30 20199 C 1905.08 5.17514 -0.705449 0
M  V30 20200 H 1906.77 2.91619 -0.678133 0
M  V30 20201 H 1904.32 1.40225 -0.327558 0
M  V30 20202 H 1906.27 3.9219 1.54159 0
M  V30 20203 H 1904.99 2.71109 1.8212 0
M  V30 20204 H 1903.65 3.66499 -0.0860697 0
M  V30 20205 H 1903.3 4.5015 2.24441 0
M  V30 20206 H 1903 5.78262 1.04342 0
M  V30 20207 H 1904.52 5.77748 1.97583 0
M  V30 20208 H 1905.94 5.7254 -0.295004 0
M  V30 20209 H 1904.34 5.90567 -1.06538 0
M  V30 20210 H 1905.41 4.5866 -1.57349 0
M  V30 20211 N 1906.75 0.369315 1.53212 0
M  V30 20212 C 1907.99 -0.219233 2.03221 0
M  V30 20213 C 1908.35 -1.45689 1.25055 0
M  V30 20214 O 1909.55 -2.1213 1.65089 0
M  V30 20215 C 1907.83 -0.500368 3.5388 0
M  V30 20216 S 1909.38 -1.06205 4.25753 0
M  V30 20217 H 1906.2 -0.0635239 0.708157 0
M  V30 20218 H 1908.8 0.513044 1.88648 0
M  V30 20219 H 1907.51 0.407823 4.08369 0
M  V30 20220 H 1907.04 -1.26162 3.72622 0
M  V30 20221 H 1909.05 -2.34602 4.37237 0
M  V30 20222 N 1908.23 -1.57291 0.0985816 0
M  V30 20223 C 1909.64 -1.575 -0.258064 0
M  V30 20224 C 1909.84 -1.10997 -1.68172 0
M  V30 20225 O 1908.9 -0.78802 -2.39889 0
M  V30 20226 C 1910.21 -3.00669 -0.0433215 0
M  V30 20227 C 1911.76 -3.12804 -0.110802 0
M  V30 20228 C 1912.24 -4.57937 0.0759907 0
M  V30 20229 N 1913.73 -4.63195 0.021273 0
M  V30 20230 C 1914.46 -5.73227 0.141 0
M  V30 20231 N 1913.96 -6.9208 0.315756 0
M  V30 20232 N 1915.75 -5.6204 0.0820222 0
M  V30 20233 H 1907.9 -1.85826 1.02871 0
M  V30 20234 H 1910.16 -0.857869 0.403441 0
M  V30 20235 H 1909.87 -3.38903 0.940103 0
M  V30 20236 H 1909.74 -3.6896 -0.784124 0
M  V30 20237 H 1912.13 -2.7444 -1.08473 0
M  V30 20238 H 1912.21 -2.47098 0.661548 0
M  V30 20239 H 1911.86 -4.96995 1.04681 0
M  V30 20240 H 1911.79 -5.21708 -0.716096 0
M  V30 20241 H 1914.28 -3.77737 -0.111114 0
M  V30 20242 H 1914.59 -7.71772 0.398531 0
M  V30 20243 H 1912.94 -6.94111 0.351469 0
M  V30 20244 H 1916.13 -4.6807 -0.0533968 0
M  V30 20245 H 1916.3 -6.47753 0.178778 0
M  V30 20246 N 1909.71 0.175127 -1.56624 0
M  V30 20247 C 1910.64 1.21918 -1.99144 0
M  V30 20248 C 1911.62 1.4638 -0.866428 0
M  V30 20249 O 1912.8 1.57779 -1.13223 0
M  V30 20250 C 1909.93 2.55897 -2.34807 0
M  V30 20251 C 1908.89 2.46011 -3.50232 0
M  V30 20252 C 1908.21 3.84445 -3.71626 0
M  V30 20253 C 1909.51 1.96808 -4.83801 0
M  V30 20254 H 1911.21 0.86575 -2.8661 0
M  V30 20255 H 1908.75 0.415014 -1.3789 0
M  V30 20256 H 1910.7 3.29136 -2.63149 0
M  V30 20257 H 1909.43 2.9302 -1.44245 0
M  V30 20258 H 1908.09 1.75227 -3.22011 0
M  V30 20259 H 1907.74 4.18955 -2.78362 0
M  V30 20260 H 1907.44 3.787 -4.49288 0
M  V30 20261 H 1908.96 4.59276 -4.02366 0
M  V30 20262 H 1910.37 2.59819 -5.11045 0
M  V30 20263 H 1908.77 2.0202 -5.65073 0
M  V30 20264 H 1909.84 0.922209 -4.7605 0
M  V30 20265 N 1911.18 1.5123 0.44355 0
M  V30 20266 C 1912.43 1.64796 1.19222 0
M  V30 20267 C 1912.78 0.356753 1.89064 0
M  V30 20268 O 1912.08 -0.64708 1.80343 0
M  V30 20269 C 1912.27 2.78511 2.23978 0
M  V30 20270 C 1912.1 4.18565 1.64418 0
M  V30 20271 C 1910.87 4.8459 1.43181 0
M  V30 20272 C 1913.07 5.01871 1.12383 0
M  V30 20273 N 1911.05 6.08776 0.791531 0
M  V30 20274 C 1912.42 6.17007 0.608446 0
M  V30 20275 C 1914.48 4.87445 1.015 0
M  V30 20276 C 1913.18 7.193 -0.00507306 0
M  V30 20277 C 1915.21 5.89939 0.415381 0
M  V30 20278 C 1914.57 7.04343 -0.0894936 0
M  V30 20279 H 1910.67 0.656973 0.424159 0
M  V30 20280 H 1913.25 1.88439 0.489793 0
M  V30 20281 H 1911.42 2.56543 2.91616 0
M  V30 20282 H 1913.15 2.8129 2.9096 0
M  V30 20283 H 1909.91 4.42351 1.69182 0
M  V30 20284 H 1910.33 6.75232 0.489009 0
M  V30 20285 H 1914.97 3.99256 1.39121 0
M  V30 20286 H 1912.69 8.07142 -0.393432 0
M  V30 20287 H 1916.28 5.80845 0.333158 0
M  V30 20288 H 1915.16 7.82296 -0.546186 0
M  V30 20289 N 1912.66 -0.698586 1.41271 0
M  V30 20290 C 1913.89 -1.49247 1.44014 0
M  V30 20291 C 1914.31 -1.88043 0.0461888 0
M  V30 20292 O 1913.67 -1.54426 -0.94986 0
M  V30 20293 C 1913.72 -2.73334 2.35204 0
M  V30 20294 O 1912.82 -3.70704 1.807 0
M  V30 20295 H 1912.16 -0.449313 0.488891 0
M  V30 20296 H 1914.69 -0.858936 1.85697 0
M  V30 20297 H 1914.7 -3.21676 2.50975 0
M  V30 20298 H 1913.38 -2.44433 3.3649 0
M  V30 20299 H 1911.95 -3.29624 1.74363 0
M  V30 20300 N 1914.14 -1.27049 -0.93254 0
M  V30 20301 C 1915.1 -1.09404 -2.01404 0
M  V30 20302 C 1916.1 -0.0395757 -1.60751 0
M  V30 20303 O 1917.29 -0.283746 -1.71874 0
M  V30 20304 C 1914.42 -0.665948 -3.34332 0
M  V30 20305 H 1915.62 -2.05434 -2.18488 0
M  V30 20306 H 1913.17 -1.09768 -1.11268 0
M  V30 20307 H 1913.91 0.295952 -3.22947 0
M  V30 20308 H 1913.69 -1.42745 -3.65194 0
M  V30 20309 H 1915.18 -0.564591 -4.13766 0
M  V30 20310 N 1915.62 1.13835 -1.08993 0
M  V30 20311 C 1916.86 1.85284 -0.824476 0
M  V30 20312 C 1917.2 1.83062 0.648235 0
M  V30 20313 O 1916.47 1.26555 1.47696 0
M  V30 20314 C 1916.75 3.33649 -1.35463 0
M  V30 20315 C 1916.61 3.44411 -2.89312 0
M  V30 20316 C 1917.93 4.28941 -0.984768 0
M  V30 20317 H 1915.05 0.672745 -0.300971 0
M  V30 20318 H 1917.69 1.3364 -1.35057 0
M  V30 20319 H 1915.84 3.77761 -0.907128 0
M  V30 20320 H 1917.51 3.09043 -3.42477 0
M  V30 20321 H 1915.75 2.85429 -3.26669 0
M  V30 20322 H 1916.42 4.48724 -3.21481 0
M  V30 20323 H 1918.9 3.92877 -1.37064 0
M  V30 20324 H 1917.78 5.31196 -1.38283 0
M  V30 20325 H 1918.04 4.41969 0.10755 0
M  V30 20326 N 1917.1 0.876467 1.3098 0
M  V30 20327 C 1918.32 0.504524 2.0117 0
M  V30 20328 C 1918.75 -0.897295 1.65319 0
M  V30 20329 O 1918.1 -1.59321 0.865255 0
M  V30 20330 C 1918.15 0.676516 3.54197 0
M  V30 20331 O 1917.26 -0.28134 4.11439 0
M  V30 20332 H 1916.6 0.199855 0.633209 0
M  V30 20333 H 1919.13 1.18167 1.67026 0
M  V30 20334 H 1919.14 0.572273 4.03967 0
M  V30 20335 H 1917.81 1.69864 3.7963 0
M  V30 20336 H 1916.39 -0.131506 3.72668 0
M  V30 20337 N 1918.57 -1.44173 0.636557 0
M  V30 20338 C 1919.51 -2.28966 -0.103602 0
M  V30 20339 C 1920.52 -1.41586 -0.80357 0
M  V30 20340 O 1921.71 -1.65686 -0.66411 0
M  V30 20341 C 1918.81 -3.18095 -1.16913 0
M  V30 20342 C 1917.98 -4.33921 -0.550607 0
M  V30 20343 C 1917.04 -5.04044 -1.51081 0
M  V30 20344 O 1916.07 -5.59879 -1.02585 0
M  V30 20345 N 1917.27 -5.05999 -2.84509 0
M  V30 20346 H 1920.03 -2.93129 0.624119 0
M  V30 20347 H 1917.59 -1.54679 0.478112 0
M  V30 20348 H 1919.59 -3.61872 -1.81193 0
M  V30 20349 H 1918.16 -2.55645 -1.79902 0
M  V30 20350 H 1917.38 -3.93268 0.27093 0
M  V30 20351 H 1918.66 -5.08663 -0.118116 0
M  V30 20352 H 1918.06 -4.61978 -3.26486 0
M  V30 20353 H 1916.62 -5.53547 -3.44135 0
M  V30 20354 N 1920.05 -0.377435 -1.53014 0
M  V30 20355 C 1921.28 0.208641 -2.05544 0
M  V30 20356 C 1921.69 1.42037 -1.24988 0
M  V30 20357 O 1921.03 1.81451 -0.286565 0
M  V30 20358 C 1921.09 0.654786 -3.53487 0
M  V30 20359 C 1920.76 -0.441865 -4.54859 0
M  V30 20360 C 1921.76 -1.29552 -5.035 0
M  V30 20361 C 1919.44 -0.605501 -4.98637 0
M  V30 20362 C 1921.43 -2.29804 -5.94533 0
M  V30 20363 C 1919.12 -1.61137 -5.89473 0
M  V30 20364 C 1920.12 -2.45607 -6.37312 0
M  V30 20365 O 1919.81 -3.44477 -7.26355 0
M  V30 20366 H 1919.54 0.0379445 -0.674934 0
M  V30 20367 H 1922.09 -0.537644 -1.98239 0
M  V30 20368 H 1920.32 1.45286 -3.5837 0
M  V30 20369 H 1922.01 1.16519 -3.88816 0
M  V30 20370 H 1922.78 -1.18035 -4.70418 0
M  V30 20371 H 1918.66 0.042229 -4.60981 0
M  V30 20372 H 1922.2 -2.95771 -6.31795 0
M  V30 20373 H 1918.1 -1.72697 -6.21969 0
M  V30 20374 H 1918.87 -3.40345 -7.44384 0
M  V30 20375 N 1921.53 1.57237 -0.106922 0
M  V30 20376 C 1922.95 1.57634 0.249708 0
M  V30 20377 C 1923.15 1.11888 1.67581 0
M  V30 20378 O 1922.2 0.80073 2.39467 0
M  V30 20379 C 1923.52 3.00688 0.0273757 0
M  V30 20380 C 1925.06 3.12858 0.0942116 0
M  V30 20381 C 1925.54 4.5789 -0.100275 0
M  V30 20382 N 1927.03 4.63177 -0.045837 0
M  V30 20383 C 1927.76 5.73144 -0.171398 0
M  V30 20384 N 1927.26 6.91903 -0.352455 0
M  V30 20385 N 1929.05 5.61989 -0.111827 0
M  V30 20386 H 1921.2 1.85278 -1.03855 0
M  V30 20387 H 1923.47 0.855717 -0.407985 0
M  V30 20388 H 1923.17 3.38399 -0.958063 0
M  V30 20389 H 1923.05 3.6937 0.764546 0
M  V30 20390 H 1925.43 2.75012 1.07016 0
M  V30 20391 H 1925.52 2.46743 -0.674643 0
M  V30 20392 H 1925.16 4.96433 -1.07315 0
M  V30 20393 H 1925.09 5.22081 0.688418 0
M  V30 20394 H 1927.58 3.7779 0.0910806 0
M  V30 20395 H 1927.89 7.7155 -0.439454 0
M  V30 20396 H 1926.24 6.93915 -0.388274 0
M  V30 20397 H 1929.43 4.68091 0.0285732 0
M  V30 20398 H 1929.6 6.47649 -0.213127 0
M  V30 20399 N 1923.01 -0.166818 1.56715 0
M  V30 20400 C 1924.42 -0.518754 1.50934 0
M  V30 20401 C 1924.62 -1.84416 0.811964 0
M  V30 20402 O 1923.68 -2.49712 0.374207 0
M  V30 20403 C 1924.99 -0.547356 2.95676 0
M  V30 20404 C 1926.54 -0.634247 3.06507 0
M  V30 20405 C 1927.02 -0.693699 4.52716 0
M  V30 20406 N 1928.51 -0.756466 4.56981 0
M  V30 20407 C 1929.24 -0.823116 5.67461 0
M  V30 20408 N 1928.74 -0.850325 6.87562 0
M  V30 20409 N 1930.53 -0.862482 5.55444 0
M  V30 20410 H 1922.68 0.70222 2.00456 0
M  V30 20411 H 1924.95 0.253731 0.913414 0
M  V30 20412 H 1924.65 0.357945 3.49874 0
M  V30 20413 H 1924.53 -1.39227 3.50565 0
M  V30 20414 H 1926.91 -1.52997 2.52341 0
M  V30 20415 H 1926.99 0.23743 2.54696 0
M  V30 20416 H 1926.64 0.197788 5.07515 0
M  V30 20417 H 1926.57 -1.58158 5.02288 0
M  V30 20418 H 1929.06 -0.74354 3.70513 0
M  V30 20419 H 1929.37 -0.902481 7.67512 0
M  V30 20420 H 1927.72 -0.818528 6.90163 0
M  V30 20421 H 1930.91 -0.838257 4.60533 0
M  V30 20422 H 1931.08 -0.910962 6.41565 0
M  V30 20423 N 1924.49 -1.51463 -0.435524 0
M  V30 20424 C 1925.45 -1.72315 -1.51129 0
M  V30 20425 C 1926.45 -0.593161 -1.4946 0
M  V30 20426 O 1927.64 -0.860731 -1.5145 0
M  V30 20427 C 1924.77 -1.78127 -2.9066 0
M  V30 20428 H 1925.96 -2.68327 -1.33943 0
M  V30 20429 H 1923.52 -1.4148 -0.664317 0
M  V30 20430 H 1924.25 -0.839367 -3.13249 0
M  V30 20431 H 1924.04 -2.60252 -2.93277 0
M  V30 20432 H 1925.53 -1.96093 -3.68697 0
M  V30 20433 N 1925.96 0.691085 -1.4164 0
M  V30 20434 C 1926.9 1.81646 -1.39776 0
M  V30 20435 C 1927.91 1.60026 -0.299243 0
M  V30 20436 O 1929.1 1.69446 -0.561266 0
M  V30 20437 C 1926.2 3.18486 -1.15845 0
M  V30 20438 C 1925.37 3.67096 -2.37822 0
M  V30 20439 C 1924.43 4.82618 -2.09681 0
M  V30 20440 O 1923.46 4.94002 -2.82756 0
M  V30 20441 N 1924.66 5.70178 -1.08983 0
M  V30 20442 H 1927.42 1.83736 -2.36773 0
M  V30 20443 H 1924.98 0.873576 -1.36309 0
M  V30 20444 H 1926.98 3.934 -0.949639 0
M  V30 20445 H 1925.55 3.11394 -0.274301 0
M  V30 20446 H 1924.77 2.83038 -2.74377 0
M  V30 20447 H 1926.05 3.96312 -3.19083 0
M  V30 20448 H 1925.45 5.63616 -0.48512 0
M  V30 20449 H 1924.01 6.44973 -0.940906 0
M  V30 20450 N 1927.44 1.27542 0.925789 0
M  V30 20451 C 1928.35 1.1225 2.06002 0
M  V30 20452 C 1929.37 0.0520487 1.73922 0
M  V30 20453 O 1930.54 0.258921 1.99729 0
M  V30 20454 C 1927.61 0.773231 3.37967 0
M  V30 20455 C 1926.67 1.92476 3.83733 0
M  V30 20456 C 1925.9 1.59206 5.09401 0
M  V30 20457 O 1926.13 0.500836 5.68197 0
M  V30 20458 O 1925.06 2.43185 5.50586 0
M  V30 20459 H 1928.89 2.07439 2.21817 0
M  V30 20460 H 1926.47 1.06747 1.04525 0
M  V30 20461 H 1928.35 0.591863 4.17223 0
M  V30 20462 H 1927.03 -0.149116 3.23356 0
M  V30 20463 H 1925.94 2.1612 3.05357 0
M  V30 20464 H 1927.27 2.82738 4.02889 0
M  V30 20465 N 1928.92 -1.13255 1.09595 0
M  V30 20466 C 1929.88 -2.16909 0.740481 0
M  V30 20467 C 1930.88 -1.59135 -0.230794 0
M  V30 20468 O 1932.07 -1.74198 -0.00875551 0
M  V30 20469 C 1929.21 -3.40767 0.0953504 0
M  V30 20470 H 1930.4 -2.49869 1.65848 0
M  V30 20471 H 1927.95 -1.28113 0.895358 0
M  V30 20472 H 1928.69 -3.13398 -0.833794 0
M  V30 20473 H 1928.47 -3.83972 0.794247 0
M  V30 20474 H 1929.96 -4.17372 -0.137892 0
M  V30 20475 N 1930.4 -0.883401 -1.30514 0
M  V30 20476 C 1931.62 -0.515186 -2.00899 0
M  V30 20477 C 1932.05 0.888515 -1.65792 0
M  V30 20478 O 1931.41 1.58859 -0.873692 0
M  V30 20479 C 1931.45 -0.695291 -3.53833 0
M  V30 20480 O 1930.56 0.259516 -4.11583 0
M  V30 20481 H 1929.9 -0.20321 -0.63214 0
M  V30 20482 H 1932.43 -1.19051 -1.66397 0
M  V30 20483 H 1932.44 -0.593688 -4.03657 0
M  V30 20484 H 1931.11 -1.71874 -3.78724 0
M  V30 20485 H 1929.69 0.111741 -3.72733 0
M  V30 20486 N 1931.88 1.43833 -0.644194 0
M  V30 20487 C 1932.79 2.34538 0.0537504 0
M  V30 20488 C 1933.8 1.53369 0.821825 0
M  V30 20489 O 1934.98 1.86053 0.771123 0
M  V30 20490 C 1932.04 3.3153 1.01434 0
M  V30 20491 C 1931.1 4.28605 0.244198 0
M  V30 20492 C 1930.34 5.20963 1.15903 0
M  V30 20493 O 1930.56 5.1754 2.3981 0
M  V30 20494 O 1929.49 5.98527 0.636302 0
M  V30 20495 H 1933.32 2.95696 -0.692624 0
M  V30 20496 H 1930.91 1.43823 -0.404377 0
M  V30 20497 H 1932.79 3.91196 1.56663 0
M  V30 20498 H 1931.46 2.72887 1.7411 0
M  V30 20499 H 1930.37 3.72445 -0.351459 0
M  V30 20500 H 1931.7 4.90204 -0.442806 0
M  V30 20501 N 1933.35 0.385544 1.52811 0
M  V30 20502 C 1934.58 -0.198025 2.0595 0
M  V30 20503 C 1935 -1.40822 1.25756 0
M  V30 20504 O 1934.35 -1.79963 0.303251 0
M  V30 20505 C 1934.41 -0.571856 3.56948 0
M  V30 20506 O 1934.13 0.59026 4.34105 0
M  V30 20507 C 1935.63 -1.21169 4.26419 0
M  V30 20508 H 1932.85 -0.0307594 0.670295 0
M  V30 20509 H 1935.39 0.549688 1.96974 0
M  V30 20510 H 1933.55 -1.26947 3.6601 0
M  V30 20511 H 1933.96 0.28384 5.23731 0
M  V30 20512 H 1935.43 -1.42366 5.33325 0
M  V30 20513 H 1935.91 -2.17794 3.81395 0
M  V30 20514 H 1936.52 -0.554949 4.21664 0
M  V30 20515 N 1934.83 -1.57178 0.115259 0
M  V30 20516 C 1935.78 -2.15114 -0.836331 0
M  V30 20517 C 1936.75 -1.07511 -1.26612 0
M  V30 20518 O 1937.93 -1.354 -1.3443 0
M  V30 20519 C 1935.07 -2.75187 -2.08245 0
M  V30 20520 C 1934.19 -3.97086 -1.70137 0
M  V30 20521 C 1933.32 -4.45258 -2.89687 0
M  V30 20522 C 1932.36 -5.59697 -2.47801 0
M  V30 20523 N 1931.5 -6.0263 -3.60252 0
M  V30 20524 H 1936.34 -2.96106 -0.335434 0
M  V30 20525 H 1933.88 -1.46293 -0.15388 0
M  V30 20526 H 1935.83 -3.08145 -2.81252 0
M  V30 20527 H 1934.46 -1.96891 -2.558 0
M  V30 20528 H 1933.52 -3.70313 -0.870192 0
M  V30 20529 H 1934.83 -4.80085 -1.35352 0
M  V30 20530 H 1933.98 -4.80105 -3.70923 0
M  V30 20531 H 1932.72 -3.61201 -3.27696 0
M  V30 20532 H 1931.73 -5.24458 -1.64997 0
M  V30 20533 H 1932.95 -6.45517 -2.10913 0
M  V30 20534 H 1930.9 -5.21515 -3.97942 0
M  V30 20535 H 1930.81 -6.80474 -3.29379 0
M  V30 20536 H 1932.08 -6.42114 -4.41939 0
M  V30 20537 N 1936.31 0.158505 -1.56801 0
M  V30 20538 C 1937.59 0.901061 -1.73609 0
M  V30 20539 C 1937.97 1.99842 -0.680163 0
M  V30 20540 O 1937.32 2.26484 0.302892 0
M  V30 20541 C 1937.53 1.45407 -3.17266 0
M  V30 20542 C 1938.87 1.92199 -3.78609 0
M  V30 20543 O 1939.9 1.55173 -3.20624 0
M  V30 20544 O 1938.76 2.60443 -4.80449 0
M  V30 20545 H 1935.85 0.425009 -0.709434 0
M  V30 20546 H 1938.4 0.14533 -1.69077 0
M  V30 20547 H 1937.17 0.664882 -3.8561 0
M  V30 20548 H 1936.79 2.27363 -3.26178 0
M  V30 20549 N 1937.79 1.51692 0.427485 0
M  V30 20550 C 1938.74 1.73716 1.51958 0
M  V30 20551 C 1939.71 0.579073 1.55679 0
M  V30 20552 O 1940.89 0.814605 1.72536 0
M  V30 20553 C 1938.03 1.87709 2.89585 0
M  V30 20554 C 1937.14 3.15297 2.95317 0
M  V30 20555 C 1936.28 3.19827 4.24128 0
M  V30 20556 C 1935.32 4.4169 4.23764 0
M  V30 20557 N 1934.46 4.43715 5.44116 0
M  V30 20558 H 1939.3 2.66933 1.3248 0
M  V30 20559 H 1936.83 1.32283 0.643393 0
M  V30 20560 H 1938.79 1.93804 3.69454 0
M  V30 20561 H 1937.42 0.978912 3.07599 0
M  V30 20562 H 1936.47 3.18464 2.08051 0
M  V30 20563 H 1937.78 4.05182 2.90911 0
M  V30 20564 H 1936.94 3.24892 5.12377 0
M  V30 20565 H 1935.68 2.27848 4.31204 0
M  V30 20566 H 1934.68 4.36791 3.33907 0
M  V30 20567 H 1935.91 5.34944 4.18343 0
M  V30 20568 H 1933.85 3.5461 5.51894 0
M  V30 20569 H 1933.77 5.27421 5.4163 0
M  V30 20570 H 1935.04 4.52986 6.34369 0
M  V30 20571 N 1939.27 -0.683564 1.42004 0
M  V30 20572 C 1940.23 -1.77907 1.44505 0
M  V30 20573 C 1941.23 -1.57295 0.333889 0
M  V30 20574 O 1942.42 -1.63748 0.594323 0
M  V30 20575 C 1939.55 -3.16434 1.26815 0
M  V30 20576 H 1940.75 -1.7708 2.42039 0
M  V30 20577 H 1938.3 -0.892355 1.28323 0
M  V30 20578 H 1939.03 -3.22894 0.301695 0
M  V30 20579 H 1938.82 -3.32798 2.07335 0
M  V30 20580 H 1940.31 -3.96379 1.31428 0
M  V30 20581 O 1940.78 -1.38782 -0.825942 0
M  V30 20582 H 1941.48 -1.26254 -1.469 0
M  V30 END ATOM
M  V30 BEGIN BOND
M  V30 END BOND
M  V30 END CTAB
M  END
$$$$
