drugbank_target|P42261 Glutamate receptor 1 (DB00142; DB00237; DB00555; DB00753; DB00898; DB01028; DB01189; DB01236; DB04982; DB05047; DB06247; DB08883; DB09289; DB13146)
 OpenBabel12092119363D

  0  0  0     0  0            999 V3000
M  V30 BEGIN CTAB
M  V30 COUNTS 14227 14385 0 0 0
M  V30 BEGIN ATOM
M  V30 1 H -0.908 1.98254 -0.117106 0
M  V30 2 N 0 1.576 0 0
M  V30 3 C 0.933 2.03868 1.02534 0
M  V30 4 C 1.911 0.928543 1.3348 0
M  V30 5 O 3.095 1.19667 1.45644 0
M  V30 6 C 0.222 2.43627 2.35294 0
M  V30 7 C -0.732 3.65373 2.2001 0
M  V30 8 S 0.101 5.13292 1.52614 0
M  V30 9 C 1.257 5.56322 2.86805 0
M  V30 10 H 1.49 2.90518 0.631377 0
M  V30 11 H -0.977 1.52953 0.210867 0
M  V30 12 H 0.981 2.67203 3.11629 0
M  V30 13 H -0.358 1.57376 2.7183 0
M  V30 14 H -1.165 3.90944 3.18086 0
M  V30 15 H -1.563 3.418 1.51819 0
M  V30 16 H 0.729 5.58782 3.83104 0
M  V30 17 H 1.672 6.56266 2.65933 0
M  V30 18 H 2.08 4.83886 2.90714 0
M  V30 19 N 1.4781 -0.272755 1.55222 0
M  V30 20 C 2.4101 -1.35946 1.8453 0
M  V30 21 C 3.4231 -1.45525 0.729818 0
M  V30 22 O 4.6121 -1.47337 1.00767 0
M  V30 23 C 1.7121 -2.74069 1.99347 0
M  V30 24 C 0.8851 -2.87079 3.30007 0
M  V30 25 C -0.0559 -4.05879 3.34886 0
M  V30 26 O -1.0299 -3.96626 4.08261 0
M  V30 27 N 0.1721 -5.17857 2.62307 0
M  V30 28 H 2.9371 -1.11149 2.78327 0
M  V30 29 H 0.4981 -0.462869 1.55142 0
M  V30 30 H 2.4901 -3.51838 1.99981 0
M  V30 31 H 1.0601 -2.91688 1.12415 0
M  V30 32 H 0.2801 -1.96193 3.41909 0
M  V30 33 H 1.5681 -2.92701 4.16177 0
M  V30 34 H 0.9661 -5.28261 2.02377 0
M  V30 35 H -0.4769 -5.93855 2.68663 0
M  V30 36 N 2.9562 -1.48159 -0.537278 0
M  V30 37 C 3.9062 -1.5854 -1.63857 0
M  V30 38 C 4.8902 -0.442969 -1.54682 0
M  V30 39 O 6.0822 -0.69401 -1.62827 0
M  V30 40 C 3.2112 -1.62144 -3.02596 0
M  V30 41 C 2.2972 -2.81841 -3.16901 0
M  V30 42 N 2.6882 -4.06337 -3.01204 0
M  V30 43 C 0.9862 -2.79021 -3.47942 0
M  V30 44 C 1.6872 -4.86606 -3.18731 0
M  V30 45 N 0.6632 -4.19288 -3.45974 0
M  V30 46 H 4.4652 -2.5255 -1.50319 0
M  V30 47 H 1.9792 -1.4443 -0.742555 0
M  V30 48 H 3.9762 -1.67674 -3.81695 0
M  V30 49 H 2.6362 -0.69245 -3.17231 0
M  V30 50 H 3.6472 -4.36888 -2.78117 0
M  V30 51 H 0.3242 -1.95347 -3.6898 0
M  V30 52 H 1.7142 -5.95385 -3.11394 0
M  V30 53 N 4.4343 0.785586 -1.36625 0
M  V30 54 C 5.6833 1.53883 -1.30396 0
M  V30 55 C 5.9963 1.95271 0.113452 0
M  V30 56 O 7.2023 2.69858 0.298142 0
M  V30 57 C 5.6583 2.77808 -2.28802 0
M  V30 58 C 5.2663 2.43574 -3.75999 0
M  V30 59 C 7.0103 3.55783 -2.31558 0
M  V30 60 C 4.9173 3.63919 -4.66173 0
M  V30 61 H 3.8473 0.577678 -0.484566 0
M  V30 62 H 6.4983 0.861705 -1.62009 0
M  V30 63 H 4.8803 3.47339 -1.90188 0
M  V30 64 H 6.0543 1.81916 -4.23371 0
M  V30 65 H 4.3693 1.78803 -3.76056 0
M  V30 66 H 6.9663 4.45205 -2.96137 0
M  V30 67 H 7.3093 3.94644 -1.3252 0
M  V30 68 H 7.8423 2.93235 -2.68809 0
M  V30 69 H 4.5813 3.3015 -5.66287 0
M  V30 70 H 4.1013 4.2473 -4.23515 0
M  V30 71 H 5.7803 4.30901 -4.82632 0
M  V30 72 N 5.9124 1.20967 1.01018 0
M  V30 73 C 7.1594 1.02374 1.74716 0
M  V30 74 C 7.4874 -0.443375 1.89379 0
M  V30 75 O 6.7424 -1.34535 1.42123 0
M  V30 76 C 7.0414 1.65997 3.16512 0
M  V30 77 C 6.7074 3.15831 3.2181 0
M  V30 78 C 5.3694 3.56719 3.22963 0
M  V30 79 C 7.7214 4.11816 3.19464 0
M  V30 80 C 5.0494 4.92107 3.19449 0
M  V30 81 C 7.4014 5.47158 3.17491 0
M  V30 82 C 6.0654 5.87451 3.16951 0
M  V30 83 H 5.3354 0.374614 0.639332 0
M  V30 84 H 7.9824 1.50485 1.18434 0
M  V30 85 H 6.2874 1.10166 3.75993 0
M  V30 86 H 7.9844 1.49119 3.72242 0
M  V30 87 H 4.5744 2.83263 3.21652 0
M  V30 88 H 8.7584 3.81257 3.17737 0
M  V30 89 H 4.0144 5.22579 3.17366 0
M  V30 90 H 8.1884 6.21274 3.14629 0
M  V30 91 H 5.8154 6.92329 3.13983 0
M  V30 92 N 7.3905 -1.2043 1.01659 0
M  V30 93 C 8.3535 -2.21433 0.591616 0
M  V30 94 C 9.3535 -1.57203 -0.338226 0
M  V30 95 O 10.5435 -1.73737 -0.126918 0
M  V30 96 C 7.6755 -3.40628 -0.136058 0
M  V30 97 H 8.8685 -2.60545 1.48514 0
M  V30 98 H 6.4215 -1.33893 0.806379 0
M  V30 99 H 7.1565 -3.07019 -1.04449 0
M  V30 100 H 6.9415 -3.88475 0.531917 0
M  V30 101 H 8.4315 -4.15475 -0.420735 0
M  V30 102 N 8.8686 -0.792821 -1.36206 0
M  V30 103 C 10.1156 -0.366786 -1.99151 0
M  V30 104 C 10.4436 1.06243 -1.62919 0
M  V30 105 O 9.6986 1.74927 -0.877442 0
M  V30 106 C 9.9976 -0.481501 -3.54142 0
M  V30 107 C 9.6636 -1.87202 -4.10203 0
M  V30 108 C 8.3256 -2.25248 -4.25226 0
M  V30 109 C 10.6776 -2.78237 -4.40719 0
M  V30 110 C 8.0056 -3.53723 -4.68078 0
M  V30 111 C 10.3576 -4.06144 -4.85005 0
M  V30 112 C 9.0216 -4.44207 -4.98234 0
M  V30 113 H 8.2916 -0.134217 -0.728743 0
M  V30 114 H 10.9386 -1.01094 -1.62641 0
M  V30 115 H 9.2436 0.246146 -3.91026 0
M  V30 116 H 10.9406 -0.132844 -4.0078 0
M  V30 117 H 7.5306 -1.56639 -3.98951 0
M  V30 118 H 11.7146 -2.50097 -4.28679 0
M  V30 119 H 6.9706 -3.8308 -4.76508 0
M  V30 120 H 11.1446 -4.76796 -5.07581 0
M  V30 121 H 8.7716 -5.43814 -5.31197 0
M  V30 122 N 10.3467 1.47872 -0.545128 0
M  V30 123 C 11.5937 2.02493 -0.0165858 0
M  V30 124 C 11.9217 1.42073 1.32836 0
M  V30 125 O 11.1767 0.561459 1.87473 0
M  V30 126 C 11.4757 3.57131 0.13867 0
M  V30 127 C 11.1417 4.36411 -1.13384 0
M  V30 128 C 9.8037 4.57792 -1.48256 0
M  V30 129 C 12.1557 4.82223 -1.97764 0
M  V30 130 C 9.4837 5.22233 -2.67376 0
M  V30 131 C 11.8357 5.47977 -3.16076 0
M  V30 132 C 10.4997 5.67593 -3.51275 0
M  V30 133 H 9.7697 0.740975 -0.00606918 0
M  V30 134 H 12.4167 1.77683 -0.714207 0
M  V30 135 H 10.7217 3.80865 0.919172 0
M  V30 136 H 12.4187 3.97031 0.562782 0
M  V30 137 H 9.0087 4.2004 -0.852297 0
M  V30 138 H 13.1927 4.65493 -1.72132 0
M  V30 139 H 8.4487 5.35616 -2.94831 0
M  V30 140 H 12.6227 5.8244 -3.81755 0
M  V30 141 H 10.2497 6.17298 -4.43675 0
M  V30 142 N 11.8248 0.280983 1.55075 0
M  V30 143 C 13.0648 -0.335234 2.01632 0
M  V30 144 C 13.4288 -1.5261 1.16508 0
M  V30 145 O 14.6298 -2.21235 1.52672 0
M  V30 146 C 12.9008 -0.702172 3.50434 0
M  V30 147 S 14.4598 -1.30409 4.18974 0
M  V30 148 H 11.2778 -0.103967 0.703358 0
M  V30 149 H 13.8798 0.404187 1.91276 0
M  V30 150 H 12.5838 0.17333 4.10034 0
M  V30 151 H 12.1148 -1.4729 3.64786 0
M  V30 152 H 14.1298 -2.59253 4.23087 0
M  V30 153 N 13.3029 -1.57598 0.00835791 0
M  V30 154 C 14.5309 -1.95214 -0.68549 0
M  V30 155 C 14.9459 -0.883706 -1.66841 0
M  V30 156 O 14.3029 0.136565 -1.81988 0
M  V30 157 C 14.3539 -3.32865 -1.41007 0
M  V30 158 O 14.0749 -4.35609 -0.466552 0
M  V30 159 C 15.5759 -3.84991 -2.19765 0
M  V30 160 H 12.7959 -0.643422 -0.190392 0
M  V30 161 H 15.3399 -2.04406 0.0619607 0
M  V30 162 H 13.4949 -3.24956 -2.10908 0
M  V30 163 H 13.9089 -5.15288 -0.978699 0
M  V30 164 H 15.3829 -4.8371 -2.65948 0
M  V30 165 H 15.8599 -3.18137 -3.02796 0
M  V30 166 H 16.4659 -3.96103 -1.54864 0
M  V30 167 N 14.781 0.264519 -1.55364 0
M  V30 168 C 16.029 0.993021 -1.76021 0
M  V30 169 C 16.35 1.86511 -0.569099 0
M  V30 170 O 15.62 1.91438 0.415735 0
M  V30 171 H 14.2 0.369639 -0.649135 0
M  V30 172 H 16.862 0.286707 -1.9278 0
M  V30 173 H 15.958 1.62502 -2.66457 0
M  V30 174 N 16.2591 1.48442 0.529413 0
M  V30 175 C 17.5061 1.56488 1.28521 0
M  V30 176 C 17.8341 0.239042 1.93025 0
M  V30 177 O 17.0891 -0.770713 1.79885 0
M  V30 178 C 17.3881 2.6523 2.39558 0
M  V30 179 C 17.0541 4.07648 1.92702 0
M  V30 180 C 15.7161 4.46411 1.79641 0
M  V30 181 C 18.0681 4.96896 1.573 0
M  V30 182 C 15.3961 5.72226 1.29514 0
M  V30 183 C 17.7481 6.23202 1.08636 0
M  V30 184 C 16.4121 6.60821 0.941919 0
M  V30 185 H 15.6821 0.572631 0.470292 0
M  V30 186 H 18.3291 1.82161 0.59072 0
M  V30 187 H 16.6341 2.33419 3.14679 0
M  V30 188 H 18.3311 2.68671 2.97686 0
M  V30 189 H 14.9211 3.77036 2.03819 0
M  V30 190 H 19.1051 4.67626 1.66251 0
M  V30 191 H 14.3611 6.00097 1.17019 0
M  V30 192 H 18.5351 6.91753 0.803136 0
M  V30 193 H 16.1621 7.58198 0.5513 0
M  V30 194 N 17.7372 -0.778329 1.37039 0
M  V30 195 C 18.6672 -1.90546 1.34962 0
M  V30 196 C 19.6482 -1.68681 0.219274 0
M  V30 197 O 20.8332 -1.89634 0.418624 0
M  V30 198 C 17.9632 -3.27734 1.14925 0
M  V30 199 C 16.9172 -3.64147 2.24902 0
M  V30 200 C 16.2432 -4.99806 1.89996 0
M  V30 201 C 17.5432 -3.71579 3.67051 0
M  V30 202 H 19.2372 -1.92541 2.29277 0
M  V30 203 H 16.7832 -0.924948 1.10366 0
M  V30 204 H 18.7362 -4.06215 1.12104 0
M  V30 205 H 17.4602 -3.26154 0.170631 0
M  V30 206 H 16.1192 -2.8797 2.26868 0
M  V30 207 H 15.7672 -4.94759 0.906796 0
M  V30 208 H 15.4672 -5.25139 2.63634 0
M  V30 209 H 16.9912 -5.80694 1.88749 0
M  V30 210 H 18.4052 -4.40227 3.67251 0
M  V30 211 H 16.8022 -4.08405 4.39688 0
M  V30 212 H 17.8722 -2.72404 4.01154 0
M  V30 213 N 19.2153 -1.21501 -1.00376 0
M  V30 214 C 20.4633 -1.03095 -1.73827 0
M  V30 215 C 20.7843 0.436341 -1.90055 0
M  V30 216 O 20.0543 1.31466 -1.45236 0
M  V30 217 H 18.6343 -0.378487 -0.644016 0
M  V30 218 H 21.2963 -1.52831 -1.20949 0
M  V30 219 H 20.3923 -1.49991 -2.73695 0
M  V30 220 N 20.6934 1.19889 -1.02296 0
M  V30 221 C 21.6564 2.21116 -0.603351 0
M  V30 222 C 22.6564 1.5738 0.329884 0
M  V30 223 O 23.8464 1.73802 0.117702 0
M  V30 224 C 20.9784 3.40696 0.117992 0
M  V30 225 H 22.1714 2.59754 -1.49893 0
M  V30 226 H 19.7244 1.33463 -0.813468 0
M  V30 227 H 20.4594 3.07569 1.0282 0
M  V30 228 H 20.2444 3.88188 -0.552511 0
M  V30 229 H 21.7344 4.15692 0.398696 0
M  V30 230 N 22.1715 0.800033 1.35784 0
M  V30 231 C 23.4175 0.377901 1.99248 0
M  V30 232 C 23.7505 -1.05052 1.63333 0
M  V30 233 O 23.0255 -1.72768 0.893385 0
M  V30 234 C 23.3085 0.553922 3.55814 0
M  V30 235 C 23.1615 2.0268 4.01548 0
M  V30 236 C 24.4805 -0.0244802 4.40093 0
M  V30 237 H 21.5995 0.138782 0.723815 0
M  V30 238 H 24.2415 1.00835 1.61035 0
M  V30 239 H 22.3915 0.0172398 3.88496 0
M  V30 240 H 24.0635 2.62536 3.79305 0
M  V30 241 H 22.3065 2.5256 3.52698 0
M  V30 242 H 22.9775 2.10087 5.10458 0
M  V30 243 H 25.4535 0.433775 4.13833 0
M  V30 244 H 24.3295 0.128637 5.48749 0
M  V30 245 H 24.5905 -1.11758 4.27741 0
M  V30 246 N 23.6496 -1.47581 0.552962 0
M  V30 247 C 24.8956 -2.02782 0.0273648 0
M  V30 248 C 25.2286 -1.42687 -1.31734 0
M  V30 249 O 24.5036 -0.580897 -1.85623 0
M  V30 250 C 24.7866 -3.60031 -0.0702371 0
M  V30 251 C 24.6396 -4.30566 1.30126 0
M  V30 252 C 25.9586 -4.33028 -0.785771 0
M  V30 253 H 23.0776 -0.736912 0.0114185 0
M  V30 254 H 25.7196 -1.76056 0.714432 0
M  V30 255 H 23.8696 -3.82932 -0.655382 0
M  V30 256 H 25.5416 -4.19018 1.92929 0
M  V30 257 H 23.7846 -3.91086 1.87709 0
M  V30 258 H 24.4556 -5.39114 1.18573 0
M  V30 259 H 26.9316 -4.15095 -0.288982 0
M  V30 260 H 25.8076 -5.42695 -0.823013 0
M  V30 261 H 26.0686 -4.01945 -1.841 0
M  V30 262 N 25.1277 -0.289203 -1.54924 0
M  V30 263 C 26.3757 0.322879 -1.99504 0
M  V30 264 C 26.6967 1.55313 -1.1791 0
M  V30 265 O 25.9667 1.94001 -0.272097 0
M  V30 266 H 24.5467 0.122291 -0.736922 0
M  V30 267 H 27.2087 -0.397802 -1.90797 0
M  V30 268 H 26.3047 0.603061 -3.06218 0
M  V30 269 N 26.6058 1.57591 -0.0167156 0
M  V30 270 C 27.5688 2.08393 0.954204 0
M  V30 271 C 28.5688 0.996531 1.26198 0
M  V30 272 O 29.7588 1.25858 1.20438 0
M  V30 273 C 26.8908 2.5394 2.27436 0
M  V30 274 H 28.0838 2.95455 0.514451 0
M  V30 275 H 25.6368 1.54582 0.231089 0
M  V30 276 H 26.3718 1.70171 2.76066 0
M  V30 277 H 26.1568 3.33371 2.06412 0
M  V30 278 H 27.6468 2.93512 2.97053 0
M  V30 279 N 28.0839 -0.256276 1.55502 0
M  V30 280 C 29.0319 -1.33694 1.90338 0
M  V30 281 C 30.0259 -1.50299 0.781441 0
M  V30 282 O 31.2319 -1.51885 0.965966 0
M  V30 283 H 27.6069 -0.447483 0.60437 0
M  V30 284 H 29.5779 -1.01574 2.8058 0
M  V30 285 C 28.3269 -2.68724 2.20642 0
M  V30 286 H 27.6499 -2.56743 3.06469 0
M  V30 287 H 29.0899 -3.43237 2.48926 0
M  V30 288 C 27.5489 -3.21101 1.01959 0
M  V30 289 O 28.0789 -4.0084 0.262762 0
M  V30 290 N 26.2849 -2.79003 0.812746 0
M  V30 291 H 25.8319 -2.14271 1.42989 0
M  V30 292 H 25.7899 -3.14393 0.0203076 0
M  V30 293 N 29.562 -1.4872 -0.521534 0
M  V30 294 C 30.809 -1.57168 -1.27689 0
M  V30 295 C 31.137 -0.249275 -1.92896 0
M  V30 296 O 30.392 0.761162 -1.80291 0
M  V30 297 C 30.691 -2.66497 -2.38148 0
M  V30 298 C 30.357 -4.08664 -1.90538 0
M  V30 299 C 29.019 -4.47357 -1.77271 0
M  V30 300 C 31.371 -4.97724 -1.54663 0
M  V30 301 C 28.699 -5.72905 -1.26478 0
M  V30 302 C 31.051 -6.2377 -1.05329 0
M  V30 303 C 29.715 -6.61311 -0.906861 0
M  V30 304 H 28.985 -0.575117 -0.467249 0
M  V30 305 H 31.632 -1.82472 -0.581051 0
M  V30 306 H 29.937 -2.35085 -3.13437 0
M  V30 307 H 31.634 -2.70246 -2.96257 0
M  V30 308 H 28.224 -3.78111 -2.01816 0
M  V30 309 H 32.408 -4.68501 -1.63768 0
M  V30 310 H 27.664 -6.00709 -1.13835 0
M  V30 311 H 31.838 -6.9217 -0.76644 0
M  V30 312 H 29.465 -7.5848 -0.511083 0
M  V30 313 N 31.0401 0.771051 -1.3745 0
M  V30 314 C 32.4511 1.34737 -1.29239 0
M  V30 315 C 32.8021 1.96109 0.0596908 0
M  V30 316 O 31.9271 1.93865 0.961534 0
M  V30 317 C 32.5221 2.44973 -2.34037 0
M  V30 318 C 31.0811 2.98372 -2.29458 0
M  V30 319 C 30.2281 1.71595 -2.17831 0
M  V30 320 H 33.1791 0.571256 -1.48062 0
M  V30 321 H 33.2001 3.24471 -1.98744 0
M  V30 322 H 32.7121 2.00276 -3.32432 0
M  V30 323 H 30.8131 3.47443 -1.34589 0
M  V30 324 H 30.9261 3.53939 -3.229 0
M  V30 325 H 29.2901 1.94547 -1.64388 0
M  V30 326 H 30.0731 1.29001 -3.18141 0
M  V30 327 N 32.5182 1.22032 0.997298 0
M  V30 328 C 33.4662 0.983634 2.10778 0
M  V30 329 C 34.4602 -0.0717564 1.69248 0
M  V30 330 O 35.6662 0.080304 1.79821 0
M  V30 331 H 32.0412 0.300877 0.689186 0
M  V30 332 H 34.0122 1.92606 2.27916 0
M  V30 333 C 32.7612 0.57326 3.42942 0
M  V30 334 H 32.0842 1.37702 3.75338 0
M  V30 335 H 33.5242 0.447031 4.21637 0
M  V30 336 C 31.9832 -0.7167 3.29188 0
M  V30 337 O 32.5132 -1.77027 3.60589 0
M  V30 338 N 30.7192 -0.686167 2.82383 0
M  V30 339 H 30.2662 0.171507 2.57028 0
M  V30 340 H 30.2242 -1.54955 2.73562 0
M  V30 341 N 33.9963 -1.19345 1.0293 0
M  V30 342 C 34.9443 -2.24621 0.604001 0
M  V30 343 C 35.9383 -1.65452 -0.363587 0
M  V30 344 O 37.1443 -1.78497 -0.23212 0
M  V30 345 H 33.5193 -0.730858 0.177061 0
M  V30 346 H 35.4903 -2.5781 1.50255 0
M  V30 347 C 34.2393 -3.47688 -0.0289127 0
M  V30 348 H 33.5623 -3.93505 0.706651 0
M  V30 349 H 35.0023 -4.23011 -0.289432 0
M  V30 350 C 33.4613 -3.11817 -1.2756 0
M  V30 351 O 33.9913 -3.2451 -2.36762 0
M  V30 352 N 32.1973 -2.66246 -1.16453 0
M  V30 353 H 31.7443 -2.56118 -0.275914 0
M  V30 354 H 31.7023 -2.42617 -1.99961 0
M  V30 355 N 35.4744 -0.807222 -1.35358 0
M  V30 356 C 36.7234 -0.384376 -1.98004 0
M  V30 357 C 37.0364 1.0543 -1.64754 0
M  V30 358 O 38.2424 1.58029 -2.20769 0
M  V30 359 C 36.6984 -0.636326 -3.5423 0
M  V30 360 C 36.3064 -2.08759 -3.96388 0
M  V30 361 C 38.0504 -0.278869 -4.23583 0
M  V30 362 C 35.9574 -2.28525 -5.45463 0
M  V30 363 H 34.8874 -0.139986 -0.740891 0
M  V30 364 H 37.5384 -0.991369 -1.54415 0
M  V30 365 H 35.9204 0.0406256 -3.95979 0
M  V30 366 H 37.0944 -2.8024 -3.6579 0
M  V30 367 H 35.4094 -2.40497 -3.39926 0
M  V30 368 H 38.0064 -0.404599 -5.33167 0
M  V30 369 H 38.3494 0.775012 -4.09022 0
M  V30 370 H 38.8824 -0.909764 -3.87257 0
M  V30 371 H 35.6214 -3.32361 -5.64992 0
M  V30 372 H 35.1414 -1.61569 -5.77629 0
M  V30 373 H 36.8204 -2.10109 -6.11934 0
M  V30 374 N 36.9525 1.47285 -0.560781 0
M  V30 375 C 37.8845 2.28118 0.222438 0
M  V30 376 C 38.8975 1.37219 0.876056 0
M  V30 377 O 40.0865 1.62011 0.749307 0
M  V30 378 C 37.1865 3.1159 1.33285 0
M  V30 379 C 36.3595 4.30473 0.77534 0
M  V30 380 C 35.4185 4.95513 1.77069 0
M  V30 381 O 34.4445 5.53792 1.31539 0
M  V30 382 N 35.6465 4.90531 3.10418 0
M  V30 383 H 38.4115 2.95976 -0.470958 0
M  V30 384 H 35.9725 1.56955 -0.39709 0
M  V30 385 H 37.9645 3.51967 1.99752 0
M  V30 386 H 36.5345 2.45951 1.92943 0
M  V30 387 H 35.7545 3.94144 -0.0662113 0
M  V30 388 H 37.0425 5.07362 0.382272 0
M  V30 389 H 36.4405 4.44389 3.5005 0
M  V30 390 H 34.9975 5.34917 3.72434 0
M  V30 391 N 38.4306 0.297415 1.54768 0
M  V30 392 C 39.6796 -0.313669 1.99246 0
M  V30 393 C 39.9926 -1.55281 1.18942 0
M  V30 394 O 41.1986 -2.23825 1.5367 0
M  V30 395 C 39.6546 -0.609407 3.54703 0
M  V30 396 C 39.2626 0.611192 4.43811 0
M  V30 397 C 41.0066 -1.18188 4.07715 0
M  V30 398 C 38.9136 0.288805 5.90694 0
M  V30 399 H 37.8436 -0.120979 0.744231 0
M  V30 400 H 40.4946 0.40556 1.78962 0
M  V30 401 H 38.8766 -1.38813 3.70873 0
M  V30 402 H 40.0506 1.3875 4.39414 0
M  V30 403 H 38.3656 1.10205 4.01552 0
M  V30 404 H 40.9626 -1.43727 5.15021 0
M  V30 405 H 41.3056 -2.12299 3.58099 0
M  V30 406 H 41.8386 -0.464944 3.95074 0
M  V30 407 H 38.5776 1.19838 6.44453 0
M  V30 408 H 38.0976 -0.450305 5.98107 0
M  V30 409 H 39.7766 -0.110933 6.46905 0
M  V30 410 N 39.9087 -1.5758 0.0250728 0
M  V30 411 C 41.1567 -1.91255 -0.653151 0
M  V30 412 C 41.4777 -0.901691 -1.729 0
M  V30 413 O 40.7477 0.0573785 -1.95816 0
M  V30 414 H 39.3277 -0.705942 -0.244243 0
M  V30 415 H 41.9897 -1.94767 0.0719209 0
M  V30 416 H 41.0857 -2.91752 -1.10847 0
M  V30 417 N 41.3868 0.248026 -1.55636 0
M  V30 418 C 42.6348 0.974295 -1.77065 0
M  V30 419 C 42.9558 1.85897 -0.588849 0
M  V30 420 O 42.2258 1.91868 0.395407 0
M  V30 421 H 40.8058 0.362733 -0.653019 0
M  V30 422 H 43.4678 0.266244 -1.93073 0
M  V30 423 H 42.5638 1.59667 -2.68166 0
M  V30 424 N 42.8649 1.48995 0.513639 0
M  V30 425 C 43.7949 1.67636 1.62544 0
M  V30 426 C 44.7759 0.525087 1.61793 0
M  V30 427 O 45.9609 0.759502 1.78732 0
M  V30 428 C 43.0909 1.73114 3.01079 0
M  V30 429 C 42.0449 2.87905 3.16693 0
M  V30 430 C 41.3709 2.78486 4.56453 0
M  V30 431 C 42.6709 4.29005 2.97913 0
M  V30 432 H 44.3649 2.60716 1.47198 0
M  V30 433 H 41.9109 1.25465 0.706714 0
M  V30 434 H 43.8639 1.84742 3.78746 0
M  V30 435 H 42.5879 0.766241 3.17484 0
M  V30 436 H 41.2469 2.75859 2.41448 0
M  V30 437 H 40.8949 1.7993 4.69717 0
M  V30 438 H 40.5949 3.55523 4.67843 0
M  V30 439 H 42.1189 2.92104 5.36197 0
M  V30 440 H 43.5329 4.41798 3.65359 0
M  V30 441 H 41.9299 5.07166 3.20785 0
M  V30 442 H 42.9999 4.44329 1.94165 0
M  V30 443 N 44.343 -0.763751 1.37857 0
M  V30 444 C 45.59 -1.52257 1.33506 0
M  V30 445 C 45.918 -1.94343 -0.078022 0
M  V30 446 O 45.173 -1.64958 -1.05297 0
M  V30 447 C 45.472 -2.79499 2.22745 0
M  V30 448 C 45.138 -2.56426 3.70886 0
M  V30 449 C 43.8 -2.49842 4.11257 0
M  V30 450 C 46.152 -2.36008 4.64704 0
M  V30 451 C 43.48 -2.20841 5.43549 0
M  V30 452 C 45.832 -2.0853 5.97242 0
M  V30 453 C 44.496 -2.00396 6.36709 0
M  V30 454 H 43.766 -0.557149 0.488534 0
M  V30 455 H 46.413 -0.879073 1.70131 0
M  V30 456 H 44.718 -3.48447 1.79142 0
M  V30 457 H 46.415 -3.37413 2.16688 0
M  V30 458 H 43.005 -2.62416 3.38874 0
M  V30 459 H 47.189 -2.40079 4.34368 0
M  V30 460 H 42.445 -2.13045 5.73081 0
M  V30 461 H 46.619 -1.91732 6.69486 0
M  V30 462 H 44.246 -1.77688 7.39142 0
M  V30 463 N 45.8211 -1.22559 -0.990812 0
M  V30 464 C 47.2321 -1.04791 -1.54518 0
M  V30 465 C 47.5831 0.387998 -1.92325 0
M  V30 466 O 46.7081 1.27328 -1.74976 0
M  V30 467 C 47.3031 -1.896 -2.80779 0
M  V30 468 C 45.8621 -1.76124 -3.32652 0
M  V30 469 C 45.0091 -1.8594 -2.05722 0
M  V30 470 H 47.9601 -1.36374 -0.811662 0
M  V30 471 H 47.9811 -1.41464 -3.53225 0
M  V30 472 H 47.4931 -2.94101 -2.53231 0
M  V30 473 H 45.5941 -0.743643 -3.65104 0
M  V30 474 H 45.7071 -2.58913 -4.03114 0
M  V30 475 H 44.0711 -1.29403 -2.19379 0
M  V30 476 H 44.8541 -2.91976 -1.80568 0
M  V30 477 N 47.2992 1.18797 -1.03562 0
M  V30 478 C 48.2472 2.24297 -0.615905 0
M  V30 479 C 49.2412 1.65643 0.354808 0
M  V30 480 O 50.4472 1.78618 0.22265 0
M  V30 481 H 46.8222 0.729909 -0.180934 0
M  V30 482 H 48.7932 2.5701 -1.5162 0
M  V30 483 C 47.5422 3.47698 0.0104735 0
M  V30 484 H 46.8652 3.93125 -0.727509 0
M  V30 485 H 48.3052 4.23159 0.266995 0
M  V30 486 C 46.7642 3.12489 1.25905 0
M  V30 487 O 47.2942 3.25761 2.35038 0
M  V30 488 N 45.5002 2.6686 1.15039 0
M  V30 489 H 45.0472 2.56261 0.262328 0
M  V30 490 H 45.0052 2.43674 1.98672 0
M  V30 491 N 48.7773 0.814389 1.34928 0
M  V30 492 C 49.7093 0.187834 2.28429 0
M  V30 493 C 50.7223 -0.617374 1.5064 0
M  V30 494 O 51.9113 -0.448454 1.72775 0
M  V30 495 C 49.0113 -0.755962 3.30361 0
M  V30 496 C 48.1843 0.00456686 4.374 0
M  V30 497 C 47.2433 -0.858876 5.19143 0
M  V30 498 O 46.2693 -0.306968 5.68372 0
M  V30 499 N 47.4713 -2.17988 5.38016 0
M  V30 500 H 50.2363 0.991105 2.82838 0
M  V30 501 H 47.7973 0.670561 1.4736 0
M  V30 502 H 49.7893 -1.338 3.81942 0
M  V30 503 H 48.3593 -1.46001 2.7641 0
M  V30 504 H 47.5793 0.767865 3.86649 0
M  V30 505 H 48.8673 0.528422 5.06049 0
M  V30 506 H 48.2653 -2.65212 4.99679 0
M  V30 507 H 46.8223 -2.71098 5.92747 0
M  V30 508 N 50.2554 -1.46986 0.568584 0
M  V30 509 C 51.1874 -2.28233 -0.210337 0
M  V30 510 C 52.2004 -1.37682 -0.868767 0
M  V30 511 O 53.3894 -1.62406 -0.740705 0
M  V30 512 C 50.4894 -3.12293 -1.3163 0
M  V30 513 C 49.6624 -4.30878 -0.7525 0
M  V30 514 C 48.7214 -4.96445 -1.74439 0
M  V30 515 O 47.7474 -5.54482 -1.286 0
M  V30 516 N 48.9494 -4.92171 -3.07812 0
M  V30 517 H 51.7144 -2.95723 0.486648 0
M  V30 518 H 49.2754 -1.56742 0.405409 0
M  V30 519 H 51.2674 -3.53022 -1.97883 0
M  V30 520 H 49.8374 -2.46971 -1.91636 0
M  V30 521 H 49.0574 -3.94104 0.0871128 0
M  V30 522 H 50.3454 -5.07558 -0.35536 0
M  V30 523 H 49.7434 -4.46239 -3.47688 0
M  V30 524 H 48.3004 -5.36884 -3.69592 0
M  V30 525 N 51.7335 -0.305618 -1.54608 0
M  V30 526 C 52.9585 0.307562 -2.05107 0
M  V30 527 C 53.3835 1.46385 -1.18123 0
M  V30 528 O 52.7415 1.8034 -0.186324 0
M  V30 529 C 52.7895 0.73704 -3.52987 0
M  V30 530 O 51.8935 1.84134 -3.6901 0
M  V30 531 H 51.2345 0.0589143 -0.661381 0
M  V30 532 H 53.7645 -0.448807 -1.99617 0
M  V30 533 H 53.7745 1.02459 -3.94925 0
M  V30 534 H 52.4495 -0.108773 -4.15758 0
M  V30 535 H 51.0265 1.55398 -3.38978 0
M  V30 536 N 53.2116 1.57565 -0.0334293 0
M  V30 537 C 54.1436 2.0739 0.975811 0
M  V30 538 C 55.1566 0.998166 1.2861 0
M  V30 539 O 56.3456 1.27426 1.25 0
M  V30 540 C 53.4456 2.4871 2.30209 0
M  V30 541 C 52.6186 3.79413 2.17634 0
M  V30 542 C 51.6776 4.07237 3.33233 0
M  V30 543 O 50.7036 4.77425 3.09927 0
M  V30 544 N 51.9056 3.5775 4.5716 0
M  V30 545 H 54.6706 2.94598 0.55066 0
M  V30 546 H 52.2316 1.61173 0.15323 0
M  V30 547 H 54.2236 2.64413 3.06378 0
M  V30 548 H 52.7936 1.66845 2.64351 0
M  V30 549 H 52.0136 3.73465 1.26165 0
M  V30 550 H 53.3016 4.65038 2.0644 0
M  V30 551 H 52.6996 3.00976 4.78989 0
M  V30 552 H 51.2566 3.78724 5.30482 0
M  V30 553 N 54.6897 -0.239769 1.55765 0
M  V30 554 C 55.5997 -1.31831 1.94056 0
M  V30 555 C 56.6157 -1.52275 0.841925 0
M  V30 556 O 57.7917 -1.65759 1.14394 0
M  V30 557 C 54.8567 -2.65156 2.23368 0
M  V30 558 C 53.9177 -2.53173 3.46701 0
M  V30 559 C 53.1507 -3.8014 3.74606 0
M  V30 560 O 53.3737 -4.82343 3.04469 0
M  V30 561 O 52.3077 -3.78344 4.68123 0
M  V30 562 H 56.1337 -1.02347 2.85935 0
M  V30 563 H 53.7187 -0.441123 1.42739 0
M  V30 564 H 55.6007 -3.43929 2.43497 0
M  V30 565 H 54.2757 -2.94358 1.34666 0
M  V30 566 H 53.1827 -1.72662 3.31871 0
M  V30 567 H 54.5157 -2.28915 4.35728 0
M  V30 568 N 56.1678 -1.49265 -0.50573 0
M  V30 569 C 57.1178 -1.6198 -1.60457 0
M  V30 570 C 58.1018 -0.47568 -1.53708 0
M  V30 571 O 59.2938 -0.728392 -1.61318 0
M  V30 572 C 56.4228 -1.68526 -2.99089 0
M  V30 573 C 55.5088 -2.885 -3.10852 0
M  V30 574 N 55.8998 -4.12635 -2.92517 0
M  V30 575 C 54.1978 -2.86338 -3.41945 0
M  V30 576 C 54.8988 -4.93258 -3.08337 0
M  V30 577 N 53.8748 -4.26533 -3.37003 0
M  V30 578 H 57.6768 -2.55681 -1.44928 0
M  V30 579 H 55.1908 -1.45972 -0.711752 0
M  V30 580 H 57.1878 -1.75732 -3.78053 0
M  V30 581 H 55.8478 -0.759584 -3.1569 0
M  V30 582 H 56.8588 -4.42689 -2.68787 0
M  V30 583 H 53.5358 -2.03129 -3.64753 0
M  V30 584 H 54.9258 -6.01856 -2.98695 0
M  V30 585 N 57.6459 0.756429 -1.3826 0
M  V30 586 C 58.6089 1.85176 -1.35065 0
M  V30 587 C 59.6089 1.58818 -0.251703 0
M  V30 588 O 60.7989 1.66615 -0.508433 0
M  V30 589 C 57.9309 3.22596 -1.10201 0
M  V30 590 H 59.1239 1.89417 -2.3251 0
M  V30 591 H 56.6769 0.95783 -1.23512 0
M  V30 592 H 57.4119 3.24025 -0.133504 0
M  V30 593 H 57.1969 3.43122 -1.89762 0
M  V30 594 H 58.6869 4.02673 -1.10654 0
M  V30 595 N 59.124 1.23083 0.984299 0
M  V30 596 C 60.087 1.00979 2.05757 0
M  V30 597 C 61.087 -0.0269573 1.60777 0
M  V30 598 O 62.277 0.212403 1.729 0
M  V30 599 C 59.409 0.527072 3.36801 0
M  V30 600 H 60.602 1.9622 2.26799 0
M  V30 601 H 58.155 1.05072 1.15714 0
M  V30 602 H 58.89 -0.429294 3.21446 0
M  V30 603 H 58.675 1.27515 3.70786 0
M  V30 604 H 60.165 0.392942 4.15747 0
M  V30 605 N 60.6021 -1.18246 1.0419 0
M  V30 606 C 61.8491 -1.88257 0.746017 0
M  V30 607 C 62.1771 -1.80429 -0.726331 0
M  V30 608 O 61.4321 -1.2 -1.54591 0
M  V30 609 C 61.7311 -3.38082 1.15911 0
M  V30 610 C 61.3971 -3.66114 2.63195 0
M  V30 611 C 60.0591 -3.73474 3.03432 0
M  V30 612 C 62.4111 -3.78398 3.5842 0
M  V30 613 C 59.7391 -3.90599 4.37778 0
M  V30 614 C 62.0911 -3.97039 4.92487 0
M  V30 615 C 60.7551 -4.02635 5.32392 0
M  V30 616 H 60.0251 -0.688883 0.272987 0
M  V30 617 H 62.6721 -1.3995 1.30715 0
M  V30 618 H 60.9771 -3.88377 0.516806 0
M  V30 619 H 62.6741 -3.90596 0.907516 0
M  V30 620 H 59.2641 -3.61003 2.3103 0
M  V30 621 H 63.4481 -3.72042 3.28479 0
M  V30 622 H 58.7041 -3.93175 4.68213 0
M  V30 623 H 62.8781 -4.05486 5.66175 0
M  V30 624 H 60.5051 -4.15657 6.36501 0
M  V30 625 N 62.0802 -0.821533 -1.34494 0
M  V30 626 C 63.4962 -0.507117 -1.51329 0
M  V30 627 C 63.6962 0.968964 -1.76673 0
M  V30 628 O 62.7522 1.75348 -1.81685 0
M  V30 629 C 64.0652 -1.36544 -2.67911 0
M  V30 630 C 65.6132 -1.36242 -2.81793 0
M  V30 631 C 66.0882 -2.2052 -4.01416 0
M  V30 632 N 67.5792 -2.18136 -4.08621 0
M  V30 633 C 68.3142 -2.80095 -5.00334 0
M  V30 634 N 67.8102 -3.51039 -5.9728 0
M  V30 635 N 69.6032 -2.69656 -4.93196 0
M  V30 636 H 61.7542 -1.77729 -1.16302 0
M  V30 637 H 64.0172 -0.757291 -0.570276 0
M  V30 638 H 63.7232 -2.41361 -2.55808 0
M  V30 639 H 63.5972 -1.02917 -3.62888 0
M  V30 640 H 65.9842 -0.322041 -2.93338 0
M  V30 641 H 66.0652 -1.73866 -1.87628 0
M  V30 642 H 65.7092 -3.24607 -3.90631 0
M  V30 643 H 65.6392 -1.80247 -4.94791 0
M  V30 644 H 68.1302 -1.6653 -3.39229 0
M  V30 645 H 68.4432 -3.95565 -6.63889 0
M  V30 646 H 66.7882 -3.55145 -5.97409 0
M  V30 647 H 69.9792 -2.13808 -4.16418 0
M  V30 648 H 70.1522 -3.1823 -5.64476 0
M  V30 649 N 63.5583 1.46682 -0.576371 0
M  V30 650 C 64.8053 2.02412 -0.0595339 0
M  V30 651 C 65.1333 1.44859 1.29793 0
M  V30 652 O 64.3883 0.601099 1.8624 0
M  V30 653 C 64.6873 3.57345 0.062886 0
M  V30 654 C 64.3533 4.33908 -1.22616 0
M  V30 655 C 63.0153 4.54544 -1.57933 0
M  V30 656 C 65.3673 4.77919 -2.07948 0
M  V30 657 C 62.6953 5.16444 -2.78393 0
M  V30 658 C 65.0473 5.41149 -3.27629 0
M  V30 659 C 63.7113 5.60014 -3.63236 0
M  V30 660 H 62.9813 0.74068 -0.021785 0
M  V30 661 H 65.6283 1.76128 -0.751735 0
M  V30 662 H 63.9333 3.82729 0.838178 0
M  V30 663 H 65.6303 3.98136 0.478439 0
M  V30 664 H 62.2203 4.18138 -0.941202 0
M  V30 665 H 66.4043 4.61738 -1.81967 0
M  V30 666 H 61.6603 5.29242 -3.06126 0
M  V30 667 H 65.8343 5.74211 -3.94023 0
M  V30 668 H 63.4613 6.07748 -4.56669 0
M  V30 669 N 65.0364 0.313813 1.54444 0
M  V30 670 C 65.9994 -0.54379 2.22656 0
M  V30 671 C 66.9994 -1.05124 1.21678 0
M  V30 672 O 68.1894 -0.945225 1.46325 0
M  V30 673 C 65.3214 -1.75427 2.92298 0
M  V30 674 H 66.5144 0.0523599 2.99854 0
M  V30 675 H 64.0674 0.0647834 1.56166 0
M  V30 676 H 64.8024 -2.38991 2.19211 0
M  V30 677 H 64.5874 -1.39791 3.66334 0
M  V30 678 H 66.0774 -2.36325 3.44297 0
M  V30 679 N 66.5145 -1.57545 0.0417849 0
M  V30 680 C 67.4445 -2.14009 -0.933929 0
M  V30 681 C 68.4255 -1.05938 -1.33083 0
M  V30 682 O 69.6105 -1.33833 -1.40721 0
M  V30 683 C 66.7405 -2.67747 -2.21199 0
M  V30 684 C 65.6945 -3.80718 -1.95544 0
M  V30 685 C 65.0205 -4.20935 -3.29724 0
M  V30 686 C 66.3205 -5.06258 -1.28452 0
M  V30 687 H 68.0145 -2.95788 -0.463645 0
M  V30 688 H 65.5605 -1.42285 -0.221573 0
M  V30 689 H 67.5135 -3.05886 -2.89848 0
M  V30 690 H 66.2375 -1.83147 -2.70416 0
M  V30 691 H 64.8965 -3.43037 -1.2931 0
M  V30 692 H 64.5445 -3.33298 -3.76724 0
M  V30 693 H 64.2445 -4.9707 -3.13361 0
M  V30 694 H 65.7685 -4.61666 -3.9962 0
M  V30 695 H 67.1825 -5.41903 -1.8712 0
M  V30 696 H 65.5795 -5.87475 -1.22445 0
M  V30 697 H 66.6495 -4.84207 -0.259219 0
M  V30 698 N 67.9926 0.231505 -1.5589 0
M  V30 699 C 69.2176 0.978689 -1.82856 0
M  V30 700 C 69.6426 1.77559 -0.620846 0
M  V30 701 O 69.0006 1.76119 0.430305 0
M  V30 702 C 69.0486 1.87997 -3.07716 0
M  V30 703 O 68.1526 2.97393 -2.85712 0
M  V30 704 H 67.4936 0.277663 -0.603158 0
M  V30 705 H 70.0236 0.24783 -2.03093 0
M  V30 706 H 70.0336 2.2917 -3.37558 0
M  V30 707 H 68.7086 1.29417 -3.95252 0
M  V30 708 H 67.2856 2.60238 -2.67078 0
M  V30 709 N 69.4707 1.49531 0.497807 0
M  V30 710 C 70.4027 1.62559 1.61578 0
M  V30 711 C 71.4157 0.508134 1.54667 0
M  V30 712 O 72.6047 0.780309 1.60541 0
M  V30 713 C 69.7047 1.56925 3.00379 0
M  V30 714 C 68.8777 2.84257 3.3244 0
M  V30 715 C 67.9367 2.71632 4.50669 0
M  V30 716 O 66.9627 3.4557 4.52294 0
M  V30 717 N 68.1647 1.83391 5.5077 0
M  V30 718 H 70.9297 2.58981 1.50828 0
M  V30 719 H 68.4907 1.4666 0.685743 0
M  V30 720 H 70.4827 1.46129 3.77397 0
M  V30 721 H 69.0527 0.683483 3.05037 0
M  V30 722 H 68.2727 3.09381 2.44289 0
M  V30 723 H 69.5607 3.68666 3.5066 0
M  V30 724 H 68.9587 1.22583 5.52259 0
M  V30 725 H 67.5157 1.78515 6.26878 0
M  V30 726 N 70.9488 -0.749086 1.3866 0
M  V30 727 C 71.8788 -1.8764 1.38973 0
M  V30 728 C 72.8598 -1.68178 0.255004 0
M  V30 729 O 74.0448 -1.88704 0.458754 0
M  V30 730 C 71.1748 -3.25222 1.21851 0
M  V30 731 C 70.1288 -3.59295 2.32575 0
M  V30 732 C 69.4548 -4.95663 2.00555 0
M  V30 733 C 70.7548 -3.63709 3.7485 0
M  V30 734 H 72.4488 -1.87635 2.3331 0
M  V30 735 H 69.9948 -0.901329 1.12303 0
M  V30 736 H 71.9478 -4.03746 1.20695 0
M  V30 737 H 70.6718 -3.25719 0.239775 0
M  V30 738 H 69.3308 -2.83093 2.32925 0
M  V30 739 H 68.9788 -4.92724 1.01154 0
M  V30 740 H 68.6788 -5.19429 2.74714 0
M  V30 741 H 70.2028 -5.7656 2.01024 0
M  V30 742 H 71.6168 -4.32338 3.76506 0
M  V30 743 H 70.0138 -3.98986 4.48252 0
M  V30 744 H 71.0838 -2.63834 4.06841 0
M  V30 745 N 72.4269 -1.23603 -0.977757 0
M  V30 746 C 73.6549 -1.09646 -1.75458 0
M  V30 747 C 74.0699 0.351859 -1.85492 0
M  V30 748 O 73.4269 1.24327 -1.336 0
M  V30 749 C 73.4779 -1.71895 -3.18016 0
M  V30 750 O 73.1989 -3.11063 -3.08498 0
M  V30 751 C 74.6999 -1.63415 -4.12081 0
M  V30 752 H 71.9199 -0.38359 -0.550545 0
M  V30 753 H 74.4639 -1.63507 -1.22824 0
M  V30 754 H 72.6189 -1.22061 -3.67668 0
M  V30 755 H 73.0329 -3.41305 -3.9826 0
M  V30 756 H 74.5069 -2.11669 -5.09804 0
M  V30 757 H 74.9839 -0.593462 -4.35172 0
M  V30 758 H 75.5899 -2.12628 -3.68334 0
M  V30 759 N 73.905 1.17692 -1.04816 0
M  V30 760 C 74.815 2.25229 -0.65643 0
M  V30 761 C 75.831 1.71018 0.320761 0
M  V30 762 O 77.007 2.00649 0.173805 0
M  V30 763 C 74.072 3.46684 -0.0332629 0
M  V30 764 C 73.133 4.15997 -1.06042 0
M  V30 765 C 72.366 5.31654 -0.466893 0
M  V30 766 O 72.589 5.65777 0.724758 0
M  V30 767 O 71.523 5.89831 -1.1993 0
M  V30 768 H 75.349 2.61016 -1.55255 0
M  V30 769 H 72.934 1.24919 -0.81949 0
M  V30 770 H 74.816 4.20234 0.313256 0
M  V30 771 H 73.491 3.12703 0.836566 0
M  V30 772 H 72.398 3.44482 -1.45886 0
M  V30 773 H 73.731 4.53996 -1.90127 0
M  V30 774 N 75.3831 0.828654 1.34056 0
M  V30 775 C 76.7941 0.477534 1.8049 0
M  V30 776 C 77.1451 -1.00258 1.6865 0
M  V30 777 O 76.2701 -1.78057 1.22982 0
M  V30 778 C 76.8651 0.860018 3.27703 0
M  V30 779 C 75.4241 0.561185 3.72193 0
M  V30 780 C 74.5711 1.07385 2.55663 0
M  V30 781 H 77.5221 1.0183 1.21722 0
M  V30 782 H 77.5431 0.166038 3.80138 0
M  V30 783 H 77.0551 1.93731 3.36288 0
M  V30 784 H 75.1561 -0.506465 3.69142 0
M  V30 785 H 75.2691 1.10926 4.66082 0
M  V30 786 H 73.6331 0.495149 2.49841 0
M  V30 787 H 74.4161 2.15771 2.67016 0
M  V30 788 N 76.8612 -1.46375 0.584142 0
M  V30 789 C 78.2722 -1.86031 0.157959 0
M  V30 790 C 78.6232 -1.48753 -1.27933 0
M  V30 791 O 77.7482 -0.903098 -1.96655 0
M  V30 792 C 78.3432 -3.37642 0.279892 0
M  V30 793 C 76.9022 -3.76289 -0.09143 0
M  V30 794 C 76.0492 -2.7039 0.615178 0
M  V30 795 H 79.0002 -1.37509 0.792274 0
M  V30 796 H 79.0212 -3.77275 -0.494364 0
M  V30 797 H 78.5332 -3.64742 1.32607 0
M  V30 798 H 76.6342 -3.54806 -1.13769 0
M  V30 799 H 76.7472 -4.78246 0.285886 0
M  V30 800 H 75.1112 -2.5464 0.0552833 0
M  V30 801 H 75.8942 -3.0033 1.66303 0
M  V30 802 N 78.3393 -0.321999 -1.54275 0
M  V30 803 C 79.2863 0.544664 -2.24281 0
M  V30 804 C 80.2563 1.1129 -1.23303 0
M  V30 805 O 81.4413 1.15354 -1.51981 0
M  V30 806 C 78.5813 1.70045 -3.00298 0
M  V30 807 C 77.6943 1.16159 -4.1609 0
M  V30 808 C 76.8293 2.28293 -4.79641 0
M  V30 809 C 75.8683 1.71648 -5.8754 0
M  V30 810 N 75.0053 2.77438 -6.44959 0
M  V30 811 H 79.8453 -0.0588907 -2.97942 0
M  V30 812 H 77.3823 -0.0408345 -1.47043 0
M  V30 813 H 79.3403 2.38054 -3.42616 0
M  V30 814 H 77.9703 2.27531 -2.28975 0
M  V30 815 H 77.0223 0.373092 -3.78566 0
M  V30 816 H 78.3343 0.707087 -4.93763 0
M  V30 817 H 77.4883 3.0421 -5.2492 0
M  V30 818 H 76.2273 2.77079 -4.01346 0
M  V30 819 H 75.2323 0.942282 -5.41665 0
M  V30 820 H 76.4573 1.23741 -6.67731 0
M  V30 821 H 74.4033 3.25519 -5.69538 0
M  V30 822 H 74.3203 2.36547 -7.1804 0
M  V30 823 H 75.5883 3.53189 -6.94894 0
M  V30 824 N 79.8174 1.5752 -0.0501392 0
M  V30 825 C 80.7474 2.14502 0.922566 0
M  V30 826 C 81.7284 1.06642 1.3252 0
M  V30 827 O 82.9134 1.34577 1.4001 0
M  V30 828 C 80.0434 2.68916 2.19776 0
M  V30 829 C 78.9974 3.8175 1.93523 0
M  V30 830 C 78.3234 4.22677 3.27487 0
M  V30 831 C 79.6234 5.06932 1.25765 0
M  V30 832 H 81.3174 2.9603 0.447952 0
M  V30 833 H 78.8634 1.42401 0.214024 0
M  V30 834 H 80.8164 3.07419 2.88222 0
M  V30 835 H 79.5404 1.84578 2.69441 0
M  V30 836 H 78.1994 3.43718 1.27489 0
M  V30 837 H 77.8474 3.35291 3.74952 0
M  V30 838 H 77.5474 4.98725 3.1072 0
M  V30 839 H 79.0714 4.63779 3.97166 0
M  V30 840 H 80.4854 5.42888 1.84244 0
M  V30 841 H 78.8824 5.88116 1.19328 0
M  V30 842 H 79.9524 4.84337 0.233536 0
M  V30 843 N 81.2955 -0.223234 1.56011 0
M  V30 844 C 82.2255 -1.27988 1.95298 0
M  V30 845 C 83.2065 -1.48976 0.820979 0
M  V30 846 O 84.3915 -1.61188 1.08315 0
M  V30 847 C 81.5215 -2.63 2.26822 0
M  V30 848 C 80.4755 -2.56671 3.42497 0
M  V30 849 C 79.8015 -3.95697 3.59622 0
M  V30 850 C 81.1015 -2.11601 4.77517 0
M  V30 851 H 82.7955 -0.953525 2.8381 0
M  V30 852 H 80.3415 -0.457244 1.36548 0
M  V30 853 H 82.2945 -3.37077 2.52898 0
M  V30 854 H 81.0185 -2.9732 1.35161 0
M  V30 855 H 79.6775 -1.85051 3.16467 0
M  V30 856 H 79.3255 -4.27322 2.6534 0
M  V30 857 H 79.0255 -3.92345 4.37424 0
M  V30 858 H 80.5495 -4.71438 3.88044 0
M  V30 859 H 81.9635 -2.7542 5.02809 0
M  V30 860 H 80.3605 -2.19311 5.5859 0
M  V30 861 H 81.4305 -1.06824 4.72987 0
M  V30 862 N 82.7736 -1.49793 -0.48987 0
M  V30 863 C 84.1846 -1.52914 -1.07118 0
M  V30 864 C 84.5356 -0.321738 -1.93544 0
M  V30 865 O 83.6606 0.567338 -2.08831 0
M  V30 866 C 84.2556 -2.771 -1.94938 0
M  V30 867 C 82.8146 -2.82963 -2.48212 0
M  V30 868 C 81.9616 -2.46972 -1.26096 0
M  V30 869 H 84.9126 -1.56329 -0.273289 0
M  V30 870 H 84.9336 -2.57892 -2.79771 0
M  V30 871 H 84.4456 -3.64959 -1.32009 0
M  V30 872 H 82.5466 -1.99411 -3.14748 0
M  V30 873 H 82.6596 -3.85406 -2.84603 0
M  V30 874 H 81.0236 -1.98994 -1.58976 0
M  V30 875 H 81.8066 -3.37118 -0.648581 0
M  V30 876 N 84.2517 0.741722 -1.39055 0
M  V30 877 C 85.1837 1.8657 -1.33133 0
M  V30 878 C 86.1967 1.61001 -0.241329 0
M  V30 879 O 87.3857 1.7136 -0.499784 0
M  V30 880 C 84.4857 3.22457 -1.04283 0
M  V30 881 C 83.6587 3.75435 -2.24427 0
M  V30 882 C 82.7177 4.89867 -1.92138 0
M  V30 883 O 81.7437 5.03879 -2.64754 0
M  V30 884 N 82.9457 5.73738 -0.88347 0
M  V30 885 H 85.7107 1.92156 -2.29991 0
M  V30 886 H 83.2717 0.922172 -1.3307 0
M  V30 887 H 85.2637 3.9657 -0.807128 0
M  V30 888 H 83.8337 3.12181 -0.161807 0
M  V30 889 H 83.0537 2.92751 -2.6399 0
M  V30 890 H 84.3417 4.07563 -3.04581 0
M  V30 891 H 83.7397 5.64999 -0.281517 0
M  V30 892 H 82.2967 6.47947 -0.707662 0
M  V30 893 N 85.7298 1.2412 0.971189 0
M  V30 894 C 86.9788 1.07284 1.70801 0
M  V30 895 C 87.2918 -0.388902 1.91695 0
M  V30 896 O 88.4978 -0.677379 2.62914 0
M  V30 897 C 86.9538 1.87145 3.07416 0
M  V30 898 C 86.5618 3.37707 2.94377 0
M  V30 899 C 88.3058 1.78828 3.84995 0
M  V30 900 C 86.2128 4.09925 4.26281 0
M  V30 901 H 85.1428 0.397854 0.64049 0
M  V30 902 H 87.7938 1.4817 1.0825 0
M  V30 903 H 86.1758 1.39071 3.70777 0
M  V30 904 H 87.3498 3.93335 2.4005 0
M  V30 905 H 85.6648 3.46938 2.30267 0
M  V30 906 H 88.2618 2.30089 4.82662 0
M  V30 907 H 88.6048 0.75284 4.09436 0
M  V30 908 H 89.1378 2.24563 3.28354 0
M  V30 909 H 85.8768 5.13813 4.07033 0
M  V30 910 H 85.3968 3.59083 4.80437 0
M  V30 911 H 87.0758 4.1673 4.94919 0
M  V30 912 N 87.2079 -1.17134 1.05439 0
M  V30 913 C 88.4849 -1.83411 0.679699 0
M  V30 914 C 88.8649 -1.9368 -0.839726 0
M  V30 915 O 88.2129 -1.47325 -1.74664 0
M  V30 916 C 88.4229 -3.20918 1.37159 0
M  V30 917 C 89.7709 -3.96796 1.51123 0
M  V30 918 O 90.7949 -3.30406 1.3308 0
M  V30 919 O 89.6539 -5.15778 1.80651 0
M  V30 920 H 86.7479 -0.79154 0.239569 0
M  V30 921 H 89.2939 -1.24411 1.15413 0
M  V30 922 H 88.0659 -3.08428 2.40807 0
M  V30 923 H 87.6889 -3.87587 0.886674 0
M  V30 924 N 88.686 -0.835752 -1.33615 0
M  V30 925 C 89.935 -0.426289 -1.97144 0
M  V30 926 C 90.248 1.01912 -1.66953 0
M  V30 927 O 91.454 1.53311 -2.24072 0
M  V30 928 C 89.91 -0.711321 -3.52801 0
M  V30 929 C 89.518 -2.1712 -3.91871 0
M  V30 930 C 91.262 -0.368654 -4.22896 0
M  V30 931 C 89.169 -2.40044 -5.40493 0
M  V30 932 H 88.099 -0.15567 -0.737755 0
M  V30 933 H 90.75 -1.0239 -1.52278 0
M  V30 934 H 89.132 -0.0433766 -3.95976 0
M  V30 935 H 90.306 -2.87936 -3.59763 0
M  V30 936 H 88.621 -2.47654 -3.34749 0
M  V30 937 H 91.218 -0.517601 -5.32189 0
M  V30 938 H 91.561 0.688078 -4.10574 0
M  V30 939 H 92.094 -0.991702 -3.8524 0
M  V30 940 H 88.833 -3.44271 -5.57815 0
M  V30 941 H 88.353 -1.73785 -5.74072 0
M  V30 942 H 90.032 -2.23042 -6.0734 0
M  V30 943 N 90.1641 1.46063 -0.591896 0
M  V30 944 C 91.4101 2.02638 -0.0811191 0
M  V30 945 C 91.7431 1.4613 1.27905 0
M  V30 946 O 91.0181 0.629908 1.84017 0
M  V30 947 C 91.3011 3.60091 -0.0252436 0
M  V30 948 C 91.1541 4.26965 -1.41496 0
M  V30 949 C 92.4731 4.3496 0.670685 0
M  V30 950 H 89.5921 0.73635 -0.0309524 0
M  V30 951 H 92.2341 1.741 -0.760859 0
M  V30 952 H 90.3841 3.84535 0.553624 0
M  V30 953 H 92.0561 4.13756 -2.0397 0
M  V30 954 H 90.2991 3.85971 -1.98011 0
M  V30 955 H 90.9701 5.35781 -1.32825 0
M  V30 956 H 93.4461 4.15716 0.178825 0
M  V30 957 H 92.3221 5.44686 0.678837 0
M  V30 958 H 92.5831 4.06685 1.73379 0
M  V30 959 N 91.6422 0.330177 1.54103 0
M  V30 960 C 92.5902 -0.548226 2.26047 0
M  V30 961 C 93.5842 -1.11309 1.27698 0
M  V30 962 O 94.7902 -1.06036 1.45452 0
M  V30 963 H 91.1652 -0.195456 0.726155 0
M  V30 964 H 93.1362 0.0807567 2.98291 0
M  V30 965 C 91.8852 -1.69415 3.03634 0
M  V30 966 H 91.2082 -1.26876 3.79134 0
M  V30 967 H 92.6482 -2.28423 3.5721 0
M  V30 968 C 91.1072 -2.61569 2.12328 0
M  V30 969 O 91.6372 -3.63462 1.7105 0
M  V30 970 N 89.8432 -2.29952 1.77681 0
M  V30 971 H 89.3902 -1.47134 2.11446 0
M  V30 972 H 89.3482 -2.91871 1.16869 0
M  V30 973 N 93.1203 -1.57491 0.0584922 0
M  V30 974 C 94.3693 -1.92155 -0.613146 0
M  V30 975 C 94.6823 -0.939334 -1.71569 0
M  V30 976 O 95.8883 -1.17829 -2.44599 0
M  V30 977 C 94.3443 -3.41303 -1.14195 0
M  V30 978 C 93.9523 -4.47944 -0.0711265 0
M  V30 979 C 95.6963 -3.84988 -1.78841 0
M  V30 980 C 93.6033 -5.88212 -0.613225 0
M  V30 981 H 92.5333 -0.717162 -0.232796 0
M  V30 982 H 95.1843 -1.83049 0.12857 0
M  V30 983 H 93.5663 -3.45437 -1.93621 0
M  V30 984 H 94.7403 -4.55408 0.702836 0
M  V30 985 H 93.0553 -4.13644 0.478313 0
M  V30 986 H 95.6523 -4.87159 -2.20408 0
M  V30 987 H 95.9953 -3.21632 -2.64308 0
M  V30 988 H 96.5283 -3.83401 -1.06059 0
M  V30 989 H 93.2673 -6.55183 0.203978 0
M  V30 990 H 92.7873 -5.84294 -1.35501 0
M  V30 991 H 94.4663 -6.37687 -1.09383 0
M  V30 992 N 94.5984 0.214957 -1.56127 0
M  V30 993 C 95.8234 0.95924 -1.83884 0
M  V30 994 C 96.2484 1.7689 -0.639644 0
M  V30 995 O 95.6064 1.76566 0.411601 0
M  V30 996 C 95.6544 1.84723 -3.09693 0
M  V30 997 O 94.7584 2.94346 -2.8885 0
M  V30 998 H 94.0994 0.27125 -0.606069 0
M  V30 999 H 96.6294 0.226276 -2.03345 0
M  V30 1000 H 96.6394 2.25576 -3.39969 0
M  V30 1001 H 95.3144 1.25218 -3.96602 0
M  V30 1002 H 93.8914 2.57391 -2.69823 0
M  V30 1003 N 96.0765 1.50051 0.48192 0
M  V30 1004 C 97.3535 1.51009 1.2432 0
M  V30 1005 C 97.7335 0.248587 2.09631 0
M  V30 1006 O 97.0815 -0.768409 2.15192 0
M  V30 1007 C 97.2915 2.79981 2.08355 0
M  V30 1008 C 98.6395 3.3022 2.66908 0
M  V30 1009 O 99.6635 2.81228 2.18607 0
M  V30 1010 O 98.5225 4.15595 3.54884 0
M  V30 1011 H 95.6165 0.605239 0.563573 0
M  V30 1012 H 98.1625 1.62332 0.494627 0
M  V30 1013 H 96.9345 3.63275 1.45419 0
M  V30 1014 H 96.5575 2.7161 2.90368 0
M  V30 1015 N 97.5546 -0.734337 1.39446 0
M  V30 1016 C 98.7796 -1.52866 1.40167 0
M  V30 1017 C 99.2046 -1.881 -0.00171513 0
M  V30 1018 O 98.5626 -1.51957 -0.988879 0
M  V30 1019 C 98.6106 -2.79235 2.28167 0
M  V30 1020 O 97.7146 -3.75185 1.71201 0
M  V30 1021 H 97.0556 -0.461618 0.477289 0
M  V30 1022 H 99.5856 -0.905949 1.8345 0
M  V30 1023 H 99.5956 -3.27963 2.42702 0
M  V30 1024 H 98.2706 -2.52923 3.30156 0
M  V30 1025 H 96.8476 -3.33958 1.65912 0
M  V30 1026 N 99.0327 -1.24633 -0.964593 0
M  V30 1027 C 100.28 -1.08788 -1.70796 0
M  V30 1028 C 100.608 0.372783 -1.90894 0
M  V30 1029 O 99.8627 1.29167 -1.47018 0
M  V30 1030 C 100.162 -1.7763 -3.10133 0
M  V30 1031 C 99.8277 -3.27557 -3.09866 0
M  V30 1032 C 98.4897 -3.6846 -3.09501 0
M  V30 1033 C 100.842 -4.23389 -3.03959 0
M  V30 1034 C 98.1697 -5.03624 -3.00965 0
M  V30 1035 C 100.522 -5.58565 -2.96965 0
M  V30 1036 C 99.1857 -5.98809 -2.9493 0
M  V30 1037 H 98.4557 -0.398084 -0.624988 0
M  V30 1038 H 101.103 -1.54777 -1.12767 0
M  V30 1039 H 99.4077 -1.24044 -3.71645 0
M  V30 1040 H 101.105 -1.62832 -3.66451 0
M  V30 1041 H 97.6947 -2.95006 -3.10917 0
M  V30 1042 H 101.879 -3.92787 -3.03368 0
M  V30 1043 H 97.1347 -5.33998 -2.97752 0
M  V30 1044 H 101.309 -6.32523 -2.91354 0
M  V30 1045 H 98.9357 -7.03505 -2.88071 0
M  V30 1046 N 100.511 1.16574 -1.06058 0
M  V30 1047 C 101.421 2.2452 -0.680282 0
M  V30 1048 C 102.437 1.71348 0.302604 0
M  V30 1049 O 103.613 2.00822 0.152513 0
M  V30 1050 C 100.678 3.46629 -0.0700315 0
M  V30 1051 C 99.7388 4.14849 -1.10448 0
M  V30 1052 C 98.9718 5.31129 -0.523256 0
M  V30 1053 O 99.1948 5.66514 0.664709 0
M  V30 1054 O 98.1288 5.88526 -1.26179 0
M  V30 1055 H 101.955 2.59355 -1.58015 0
M  V30 1056 H 99.5398 1.24043 -0.832694 0
M  V30 1057 H 101.422 4.20543 0.268667 0
M  V30 1058 H 100.097 3.13573 0.803353 0
M  V30 1059 H 99.0038 3.42916 -1.49532 0
M  V30 1060 H 100.337 4.51954 -1.94931 0
M  V30 1061 N 101.989 0.842826 1.3317 0
M  V30 1062 C 102.922 0.223862 2.27099 0
M  V30 1063 C 103.9 -0.631311 1.49844 0
M  V30 1064 O 105.084 -0.590708 1.79005 0
M  V30 1065 C 102.211 -0.685313 3.31694 0
M  V30 1066 C 101.257 0.094919 4.26394 0
M  V30 1067 S 102.09 1.45546 5.15341 0
M  V30 1068 C 103.246 0.551685 6.23464 0
M  V30 1069 H 103.479 1.02015 2.79249 0
M  V30 1070 H 101.012 0.639797 1.4052 0
M  V30 1071 H 102.97 -1.20426 3.92438 0
M  V30 1072 H 101.631 -1.4553 2.78352 0
M  V30 1073 H 100.824 -0.597059 5.00451 0
M  V30 1074 H 100.426 0.545054 3.70007 0
M  V30 1075 H 102.718 -0.248877 6.77043 0
M  V30 1076 H 103.661 1.26253 6.96754 0
M  V30 1077 H 104.069 0.131275 5.64347 0
M  V30 1078 N 103.467 -1.45747 0.599634 0
M  V30 1079 C 104.695 -2.06668 0.0978551 0
M  V30 1080 C 105.11 -1.44562 -1.21439 0
M  V30 1081 O 104.467 -0.556923 -1.73795 0
M  V30 1082 C 104.518 -3.61456 -0.0567044 0
M  V30 1083 O 104.239 -4.21242 1.20361 0
M  V30 1084 C 105.74 -4.39345 -0.590869 0
M  V30 1085 H 102.96 -0.667825 0.0651943 0
M  V30 1086 H 105.504 -1.87115 0.82511 0
M  V30 1087 H 103.659 -3.80378 -0.734251 0
M  V30 1088 H 104.073 -5.14323 1.02821 0
M  V30 1089 H 105.547 -5.48182 -0.648131 0
M  V30 1090 H 106.024 -4.08568 -1.61147 0
M  V30 1091 H 106.63 -4.25268 0.0523679 0
M  V30 1092 N 104.945 -0.338344 -1.53925 0
M  V30 1093 C 106.175 0.260919 -2.04946 0
M  V30 1094 C 106.583 1.45174 -1.2133 0
M  V30 1095 O 105.926 1.82122 -0.240262 0
M  V30 1096 C 105.988 0.744596 -3.51704 0
M  V30 1097 C 105.652 -0.325883 -4.55837 0
M  V30 1098 C 106.649 -1.16687 -5.06636 0
M  V30 1099 C 104.334 -0.478317 -5.00017 0
M  V30 1100 C 106.328 -2.14588 -6.00192 0
M  V30 1101 C 104.015 -1.46073 -5.93385 0
M  V30 1102 C 105.013 -2.29297 -6.4336 0
M  V30 1103 O 104.701 -3.25867 -7.34892 0
M  V30 1104 H 104.433 0.0551207 -0.673749 0
M  V30 1105 H 106.987 -0.486984 -1.99544 0
M  V30 1106 H 105.217 1.54366 -3.54553 0
M  V30 1107 H 106.906 1.26383 -3.85723 0
M  V30 1108 H 107.672 -1.06016 -4.73271 0
M  V30 1109 H 103.551 0.159613 -4.60724 0
M  V30 1110 H 107.095 -2.79585 -6.39123 0
M  V30 1111 H 102.992 -1.56802 -6.26166 0
M  V30 1112 H 103.76 -3.21278 -7.5281 0
M  V30 1113 N 106.423 1.57458 -0.0668435 0
M  V30 1114 C 107.839 1.56947 0.289772 0
M  V30 1115 C 108.039 1.07584 1.70376 0
M  V30 1116 O 107.095 0.739486 2.41429 0
M  V30 1117 C 108.408 3.0052 0.103943 0
M  V30 1118 C 109.956 3.12517 0.173857 0
M  V30 1119 C 110.431 4.57997 0.0163682 0
M  V30 1120 N 111.922 4.63144 0.0721352 0
M  V30 1121 C 112.657 5.73394 -0.0253794 0
M  V30 1122 N 112.153 6.92576 -0.176133 0
M  V30 1123 N 113.946 5.62091 0.0313305 0
M  V30 1124 H 106.097 1.87863 -0.991027 0
M  V30 1125 H 108.36 0.86583 -0.38606 0
M  V30 1126 H 108.066 3.40729 -0.871572 0
M  V30 1127 H 107.94 3.67304 0.858366 0
M  V30 1128 H 110.327 2.72197 1.13985 0
M  V30 1129 H 110.408 2.48381 -0.611586 0
M  V30 1130 H 110.052 4.99005 -0.946374 0
M  V30 1131 H 109.982 5.20158 0.821153 0
M  V30 1132 H 112.473 3.77436 0.187263 0
M  V30 1133 H 112.786 7.72418 -0.242821 0
M  V30 1134 H 111.131 6.94678 -0.211429 0
M  V30 1135 H 114.322 4.67867 0.147773 0
M  V30 1136 H 114.495 6.47982 -0.048121 0
M  V30 1137 N 107.901 -0.206675 1.56239 0
M  V30 1138 C 109.148 -0.928842 1.79941 0
M  V30 1139 C 109.476 -1.83734 0.638131 0
M  V30 1140 O 108.731 -1.92039 -0.376746 0
M  V30 1141 C 109.03 -1.78675 3.09532 0
M  V30 1142 C 108.696 -1.03022 4.38973 0
M  V30 1143 C 107.358 -0.821302 4.74139 0
M  V30 1144 C 109.71 -0.497081 5.18824 0
M  V30 1145 C 107.038 -0.0675719 5.86661 0
M  V30 1146 C 109.39 0.24338 6.32132 0
M  V30 1147 C 108.054 0.463422 6.65889 0
M  V30 1148 H 107.324 -0.339887 0.658451 0
M  V30 1149 H 109.971 -0.195977 1.90495 0
M  V30 1150 H 108.276 -2.58794 2.94165 0
M  V30 1151 H 109.973 -2.34792 3.25075 0
M  V30 1152 H 106.563 -1.20306 4.11369 0
M  V30 1153 H 110.747 -0.645921 4.92079 0
M  V30 1154 H 106.003 0.112995 6.11296 0
M  V30 1155 H 110.177 0.66393 6.93228 0
M  V30 1156 H 107.804 1.04938 7.52922 0
M  V30 1157 N 109.379 -1.50304 -0.473955 0
M  V30 1158 C 110.619 -1.62786 -1.23612 0
M  V30 1159 C 110.983 -0.319786 -1.89318 0
M  V30 1160 O 112.184 -0.320012 -2.66888 0
M  V30 1161 C 110.455 -2.77351 -2.25414 0
M  V30 1162 S 112.014 -3.09948 -3.10608 0
M  V30 1163 H 108.832 -0.573895 -0.419721 0
M  V30 1164 H 111.434 -1.88076 -0.533623 0
M  V30 1165 H 110.138 -3.70879 -1.75719 0
M  V30 1166 H 109.669 -2.54137 -3.00296 0
M  V30 1167 H 111.684 -2.53553 -4.26527 0
M  V30 1168 N 110.857 0.726932 -1.39834 0
M  V30 1169 C 112.082 1.52121 -1.40976 0
M  V30 1170 C 112.507 1.88098 -0.00826029 0
M  V30 1171 O 111.865 1.52479 0.980807 0
M  V30 1172 C 111.913 2.78021 -2.29644 0
M  V30 1173 O 111.017 3.74272 -1.73188 0
M  V30 1174 H 110.358 0.45908 -0.479731 0
M  V30 1175 H 112.888 0.896207 -1.83927 0
M  V30 1176 H 112.898 3.26671 -2.44438 0
M  V30 1177 H 111.573 2.51169 -3.31492 0
M  V30 1178 H 110.15 3.33073 -1.6768 0
M  V30 1179 N 112.336 1.25143 0.95797 0
M  V30 1180 C 113.268 1.01023 2.05735 0
M  V30 1181 C 114.281 -0.0236902 1.62783 0
M  V30 1182 O 115.47 0.21448 1.77207 0
M  V30 1183 C 112.57 0.504595 3.35122 0
M  V30 1184 C 111.743 1.6039 4.06932 0
M  V30 1185 C 110.802 1.09922 5.14591 0
M  V30 1186 O 109.828 1.79293 5.40225 0
M  V30 1187 N 111.03 -0.0612545 5.80468 0
M  V30 1188 H 113.795 1.95683 2.26998 0
M  V30 1189 H 111.356 1.16303 1.12629 0
M  V30 1190 H 113.348 0.151516 4.04416 0
M  V30 1191 H 111.918 -0.347989 3.10657 0
M  V30 1192 H 111.138 2.12872 3.31782 0
M  V30 1193 H 112.426 2.34252 4.51667 0
M  V30 1194 H 111.824 -0.640985 5.62057 0
M  V30 1195 H 110.381 -0.355395 6.5083 0
M  V30 1196 N 113.814 -1.1601 1.06675 0
M  V30 1197 C 115.061 -1.86633 0.785781 0
M  V30 1198 C 115.389 -1.81929 -0.687896 0
M  V30 1199 O 114.644 -1.23253 -1.52011 0
M  V30 1200 C 114.943 -3.35547 1.23057 0
M  V30 1201 C 114.609 -3.60448 2.70902 0
M  V30 1202 C 113.271 -3.66954 3.11285 0
M  V30 1203 C 115.623 -3.7071 3.66365 0
M  V30 1204 C 112.951 -3.81225 4.45965 0
M  V30 1205 C 115.303 -3.86503 5.00797 0
M  V30 1206 C 113.967 -3.91252 5.40813 0
M  V30 1207 H 113.237 -0.682937 0.287538 0
M  V30 1208 H 115.884 -1.37146 1.33654 0
M  V30 1209 H 114.189 -3.87193 0.59907 0
M  V30 1210 H 115.886 -3.88583 0.990163 0
M  V30 1211 H 112.476 -3.56021 2.38636 0
M  V30 1212 H 116.66 -3.64991 3.36296 0
M  V30 1213 H 111.916 -3.83155 4.76447 0
M  V30 1214 H 116.09 -3.93385 5.74649 0
M  V30 1215 H 113.717 -4.02062 6.45174 0
M  V30 1216 N 115.292 -0.849877 -1.32721 0
M  V30 1217 C 116.517 -0.463856 -2.02146 0
M  V30 1218 C 116.942 0.930449 -1.63476 0
M  V30 1219 O 116.3 1.61033 -0.832952 0
M  V30 1220 C 116.348 -0.604955 -3.55489 0
M  V30 1221 O 115.452 0.36425 -4.10788 0
M  V30 1222 H 114.793 -0.187046 -0.637111 0
M  V30 1223 H 117.323 -1.14775 -1.69375 0
M  V30 1224 H 117.333 -0.490696 -4.05038 0
M  V30 1225 H 116.008 -1.62174 -3.82978 0
M  V30 1226 H 114.585 0.206628 -3.72327 0
M  V30 1227 N 116.77 1.45427 -0.607355 0
M  V30 1228 C 117.717 2.3053 0.111625 0
M  V30 1229 C 118.687 1.4209 0.860216 0
M  V30 1230 O 119.872 1.71019 0.845998 0
M  V30 1231 C 117.012 3.26992 1.10319 0
M  V30 1232 C 116.125 4.30535 0.355493 0
M  V30 1233 C 115.26 5.14105 1.33676 0
M  V30 1234 C 114.299 6.09376 0.576862 0
M  V30 1235 N 113.436 6.85727 1.5074 0
M  V30 1236 H 118.276 2.91477 -0.620093 0
M  V30 1237 H 115.813 1.43631 -0.317594 0
M  V30 1238 H 117.771 3.81385 1.6912 0
M  V30 1239 H 116.401 2.67799 1.80232 0
M  V30 1240 H 115.453 3.78805 -0.348023 0
M  V30 1241 H 116.765 4.98235 -0.237423 0
M  V30 1242 H 115.919 5.72897 1.99684 0
M  V30 1243 H 114.658 4.46423 1.9636 0
M  V30 1244 H 113.663 5.49715 -0.0968519 0
M  V30 1245 H 114.888 6.79085 -0.0449341 0
M  V30 1246 H 112.834 6.20735 2.12189 0
M  V30 1247 H 112.751 7.49778 0.967913 0
M  V30 1248 H 114.019 7.4906 2.15706 0
M  V30 1249 N 118.248 0.346503 1.53744 0
M  V30 1250 C 119.496 -0.248612 2.00565 0
M  V30 1251 C 119.817 -1.5083 1.23593 0
M  V30 1252 O 119.087 -1.92858 0.343912 0
M  V30 1253 H 117.667 -0.0948564 0.740953 0
M  V30 1254 H 120.329 0.468341 1.89189 0
M  V30 1255 H 119.425 -0.488994 3.08245 0
M  V30 1256 N 119.726 -1.57421 0.075193 0
M  V30 1257 C 120.972 -1.93905 -0.594025 0
M  V30 1258 C 121.305 -0.955701 -1.69056 0
M  V30 1259 O 120.58 0.0145373 -1.94495 0
M  V30 1260 C 120.863 -3.40638 -1.1678 0
M  V30 1261 C 120.716 -4.49733 -0.0776792 0
M  V30 1262 C 122.035 -3.88259 -2.07228 0
M  V30 1263 H 119.154 -0.705105 -0.214466 0
M  V30 1264 H 121.796 -1.8947 0.141854 0
M  V30 1265 H 119.946 -3.44549 -1.79494 0
M  V30 1266 H 121.618 -4.57942 0.555573 0
M  V30 1267 H 119.861 -4.29751 0.591286 0
M  V30 1268 H 120.532 -5.49549 -0.519603 0
M  V30 1269 H 123.008 -3.86376 -1.54445 0
M  V30 1270 H 121.884 -4.91533 -2.44308 0
M  V30 1271 H 122.145 -3.26396 -2.98191 0
M  V30 1272 N 121.204 0.198386 -1.56346 0
M  V30 1273 C 122.434 0.934215 -1.84271 0
M  V30 1274 C 122.842 1.77496 -0.655125 0
M  V30 1275 O 122.185 1.7961 0.385488 0
M  V30 1276 C 122.247 1.88278 -3.06254 0
M  V30 1277 C 121.911 1.22431 -4.40295 0
M  V30 1278 C 122.908 0.602839 -5.16393 0
M  V30 1279 C 120.593 1.22915 -4.87029 0
M  V30 1280 C 122.587 -0.0050083 -6.374 0
M  V30 1281 C 120.274 0.617465 -6.07973 0
M  V30 1282 C 121.272 0.00146341 -6.83 0
M  V30 1283 O 120.96 -0.600642 -8.01653 0
M  V30 1284 H 120.692 0.278245 -0.616081 0
M  V30 1285 H 123.246 0.211626 -2.04307 0
M  V30 1286 H 121.476 2.64498 -2.82095 0
M  V30 1287 H 123.165 2.48612 -3.20853 0
M  V30 1288 H 123.931 0.591265 -4.81382 0
M  V30 1289 H 119.81 1.69801 -4.28589 0
M  V30 1290 H 123.354 -0.48643 -6.95902 0
M  V30 1291 H 119.251 0.62653 -6.42452 0
M  V30 1292 H 120.019 -0.497225 -8.16988 0
M  V30 1293 N 122.682 1.50554 0.465978 0
M  V30 1294 C 123.645 1.69233 1.54574 0
M  V30 1295 C 124.645 0.562901 1.50626 0
M  V30 1296 O 125.835 0.830016 1.53155 0
M  V30 1297 C 122.967 1.7223 2.94193 0
M  V30 1298 H 124.16 2.65571 1.39327 0
M  V30 1299 H 121.713 1.40111 0.692711 0
M  V30 1300 H 122.448 0.77603 3.14878 0
M  V30 1301 H 122.233 2.54285 2.98466 0
M  V30 1302 H 123.723 1.88618 3.72576 0
M  V30 1303 N 124.16 -0.719506 1.40217 0
M  V30 1304 C 125.409 -1.47486 1.37589 0
M  V30 1305 C 125.722 -1.9559 -0.0201568 0
M  V30 1306 O 126.928 -2.70973 -0.169049 0
M  V30 1307 C 125.384 -2.66575 2.41796 0
M  V30 1308 C 124.992 -2.25358 3.87192 0
M  V30 1309 C 126.736 -3.4433 2.48269 0
M  V30 1310 C 124.643 -3.41262 4.83005 0
M  V30 1311 H 123.573 -0.553901 0.511576 0
M  V30 1312 H 126.224 -0.783427 1.65936 0
M  V30 1313 H 124.606 -3.3787 2.06543 0
M  V30 1314 H 125.78 -1.61509 4.31569 0
M  V30 1315 H 124.095 -1.60657 3.84159 0
M  V30 1316 H 126.692 -4.30569 3.17041 0
M  V30 1317 H 127.035 -3.87872 1.51198 0
M  V30 1318 H 127.568 -2.80076 2.82493 0
M  V30 1319 H 124.307 -3.02755 5.81394 0
M  V30 1320 H 123.827 -4.0404 4.43297 0
M  V30 1321 H 125.506 -4.07383 5.02641 0
M  V30 1322 N 125.638 -1.25649 -0.95132 0
M  V30 1323 C 126.885 -1.10594 -1.69633 0
M  V30 1324 C 127.213 0.352515 -1.91279 0
M  V30 1325 O 126.468 1.27601 -1.4838 0
M  V30 1326 C 126.767 -1.80909 -3.08231 0
M  V30 1327 C 126.433 -3.30825 -3.06375 0
M  V30 1328 C 125.095 -3.71722 -3.05576 0
M  V30 1329 C 127.447 -4.26589 -2.99452 0
M  V30 1330 C 124.775 -5.06788 -2.95606 0
M  V30 1331 C 127.127 -5.61683 -2.91024 0
M  V30 1332 C 125.791 -6.01904 -2.88562 0
M  V30 1333 H 125.061 -0.404691 -0.620731 0
M  V30 1334 H 127.708 -1.55964 -1.11119 0
M  V30 1335 H 126.013 -1.27979 -3.70309 0
M  V30 1336 H 127.71 -1.6671 -3.64704 0
M  V30 1337 H 124.3 -2.98287 -3.07771 0
M  V30 1338 H 128.484 -3.95982 -2.99185 0
M  V30 1339 H 123.74 -5.37126 -2.92071 0
M  V30 1340 H 127.914 -6.35578 -2.84629 0
M  V30 1341 H 125.541 -7.06521 -2.80593 0
M  V30 1342 N 127.117 1.15442 -1.07289 0
M  V30 1343 C 128.365 1.85845 -0.794096 0
M  V30 1344 C 128.686 1.82692 0.681809 0
M  V30 1345 O 127.956 1.26741 1.49377 0
M  V30 1346 H 126.536 0.688089 -0.290763 0
M  V30 1347 H 129.198 1.39947 -1.3565 0
M  V30 1348 H 128.294 2.91001 -1.12804 0
M  V30 1349 N 128.595 0.856903 1.32268 0
M  V30 1350 C 129.842 0.461386 1.97174 0
M  V30 1351 C 130.17 -0.983491 1.67803 0
M  V30 1352 O 129.425 -1.70541 0.959903 0
M  V30 1353 C 129.724 0.649919 3.51441 0
M  V30 1354 C 129.39 2.0656 4.00804 0
M  V30 1355 C 128.052 2.45279 4.13995 0
M  V30 1356 C 130.404 2.98947 4.26943 0
M  V30 1357 C 127.732 3.75653 4.50668 0
M  V30 1358 C 130.084 4.28822 4.65075 0
M  V30 1359 C 128.748 4.67472 4.76472 0
M  V30 1360 H 128.018 0.168833 0.72151 0
M  V30 1361 H 130.665 1.08739 1.57633 0
M  V30 1362 H 128.97 -0.0593018 3.91755 0
M  V30 1363 H 130.667 0.32391 3.9969 0
M  V30 1364 H 127.257 1.75495 3.91024 0
M  V30 1365 H 131.441 2.70265 4.16258 0
M  V30 1366 H 126.697 4.05379 4.57688 0
M  V30 1367 H 130.871 5.0047 4.84255 0
M  V30 1368 H 128.498 5.68539 5.04646 0
M  V30 1369 N 130.073 -1.45103 0.615059 0
M  V30 1370 C 131.303 -2.06254 0.119596 0
M  V30 1371 C 131.711 -1.4591 -1.20445 0
M  V30 1372 O 131.054 -0.570384 -1.7462 0
M  V30 1373 C 131.116 -3.59396 -0.0865591 0
M  V30 1374 C 130.78 -4.42116 1.15683 0
M  V30 1375 C 131.777 -4.7662 2.07676 0
M  V30 1376 C 129.462 -4.82749 1.38775 0
M  V30 1377 C 131.456 -5.50622 3.21082 0
M  V30 1378 C 129.143 -5.56504 2.52481 0
M  V30 1379 C 130.141 -5.90358 3.43463 0
M  V30 1380 O 129.829 -6.62615 4.55189 0
M  V30 1381 H 129.561 -0.672423 0.0694512 0
M  V30 1382 H 132.115 -1.87219 0.844885 0
M  V30 1383 H 130.345 -3.76859 -0.866823 0
M  V30 1384 H 132.034 -4.02365 -0.534555 0
M  V30 1385 H 132.8 -4.4578 1.91063 0
M  V30 1386 H 128.679 -4.55829 0.688545 0
M  V30 1387 H 132.223 -5.76965 3.92119 0
M  V30 1388 H 128.12 -5.86759 2.69043 0
M  V30 1389 H 128.888 -6.81071 4.53966 0
M  V30 1390 N 131.551 -0.354651 -1.53558 0
M  V30 1391 C 132.461 0.50515 -2.29097 0
M  V30 1392 C 133.477 1.10223 -1.34636 0
M  V30 1393 O 134.653 1.11553 -1.67684 0
M  V30 1394 C 131.718 1.63479 -3.05738 0
M  V30 1395 C 130.779 1.06636 -4.15845 0
M  V30 1396 C 130.012 2.14217 -4.88822 0
M  V30 1397 O 130.235 3.35137 -4.61562 0
M  V30 1398 O 129.169 1.77887 -5.75013 0
M  V30 1399 H 132.995 -0.109237 -3.03503 0
M  V30 1400 H 130.58 -0.119357 -1.48922 0
M  V30 1401 H 132.462 2.2918 -3.5363 0
M  V30 1402 H 131.137 2.23478 -2.34178 0
M  V30 1403 H 130.044 0.373565 -3.7223 0
M  V30 1404 H 131.377 0.511081 -4.89539 0
M  V30 1405 N 133.029 1.57378 -0.0835403 0
M  V30 1406 C 134.445 1.57246 0.273109 0
M  V30 1407 C 134.645 1.09385 1.69225 0
M  V30 1408 O 133.701 0.765051 2.40631 0
M  V30 1409 C 135.014 3.00614 0.0720628 0
M  V30 1410 C 136.562 3.12684 0.1407 0
M  V30 1411 C 137.037 4.57989 -0.0322094 0
M  V30 1412 N 138.528 4.63194 0.0230085 0
M  V30 1413 C 139.263 5.73335 -0.0861941 0
M  V30 1414 N 138.759 6.9235 -0.24958 0
M  V30 1415 N 140.552 5.62093 -0.0282886 0
M  V30 1416 H 132.703 1.86801 -1.0109 0
M  V30 1417 H 134.966 0.861687 -0.395222 0
M  V30 1418 H 134.672 3.39786 -0.907662 0
M  V30 1419 H 134.546 3.68193 0.81936 0
M  V30 1420 H 136.933 2.73391 1.11092 0
M  V30 1421 H 137.014 2.47719 -0.637896 0
M  V30 1422 H 136.658 4.97973 -0.999247 0
M  V30 1423 H 136.588 5.21 0.765937 0
M  V30 1424 H 139.079 3.77613 0.14722 0
M  V30 1425 H 139.392 7.72117 -0.324733 0
M  V30 1426 H 137.737 6.94415 -0.285097 0
M  V30 1427 H 140.928 4.67997 0.0981408 0
M  V30 1428 H 141.101 6.47895 -0.116845 0
M  V30 1429 N 134.507 -0.190092 1.56449 0
M  V30 1430 C 135.923 -0.54113 1.50146 0
M  V30 1431 C 136.123 -1.85603 0.784465 0
M  V30 1432 O 135.179 -2.5024 0.337051 0
M  V30 1433 C 136.492 -0.591241 2.9483 0
M  V30 1434 C 138.04 -0.679732 3.0553 0
M  V30 1435 C 138.515 -0.760908 4.51635 0
M  V30 1436 N 140.006 -0.824302 4.55806 0
M  V30 1437 C 140.741 -0.907365 5.66175 0
M  V30 1438 N 140.237 -0.952422 6.86222 0
M  V30 1439 N 142.03 -0.94494 5.541 0
M  V30 1440 H 134.181 0.67235 2.01478 0
M  V30 1441 H 136.444 0.240127 0.917084 0
M  V30 1442 H 136.15 0.305905 3.50367 0
M  V30 1443 H 136.024 -1.44422 3.48457 0
M  V30 1444 H 138.411 -1.56731 2.50039 0
M  V30 1445 H 138.492 0.199549 2.5502 0
M  V30 1446 H 138.136 0.122336 5.07753 0
M  V30 1447 H 138.066 -1.65606 4.99882 0
M  V30 1448 H 140.557 -0.798526 3.69367 0
M  V30 1449 H 140.87 -1.01645 7.66086 0
M  V30 1450 H 139.215 -0.921014 6.8887 0
M  V30 1451 H 142.406 -0.906612 4.59236 0
M  V30 1452 H 142.579 -1.00622 6.4014 0
M  V30 1453 N 135.985 -1.50799 -0.457987 0
M  V30 1454 C 137.213 -1.66218 -1.23203 0
M  V30 1455 C 137.628 -0.350894 -1.85511 0
M  V30 1456 O 136.985 0.668546 -1.69814 0
M  V30 1457 C 137.036 -2.76291 -2.33121 0
M  V30 1458 O 136.757 -4.02338 -1.73366 0
M  V30 1459 C 138.258 -3.028 -3.2377 0
M  V30 1460 H 135.478 -0.558361 -0.372121 0
M  V30 1461 H 138.022 -1.97099 -0.545179 0
M  V30 1462 H 136.177 -2.48068 -2.97558 0
M  V30 1463 H 136.591 -4.63312 -2.4585 0
M  V30 1464 H 138.065 -3.8345 -3.97077 0
M  V30 1465 H 138.542 -2.14385 -3.83322 0
M  V30 1466 H 139.148 -3.32604 -2.65056 0
M  V30 1467 N 137.463 0.71206 -1.40597 0
M  V30 1468 C 138.709 1.47416 -1.39271 0
M  V30 1469 C 139.042 1.942 0.00388791 0
M  V30 1470 O 138.317 1.68403 0.973179 0
M  V30 1471 C 138.6 2.69774 -2.38525 0
M  V30 1472 C 138.453 2.28861 -3.87224 0
M  V30 1473 C 139.772 3.71939 -2.35264 0
M  V30 1474 H 136.891 0.534713 -0.5072 0
M  V30 1475 H 139.533 0.812375 -1.71757 0
M  V30 1476 H 137.683 3.26238 -2.10953 0
M  V30 1477 H 139.355 1.77852 -4.25636 0
M  V30 1478 H 137.598 1.60824 -4.02887 0
M  V30 1479 H 138.269 3.16584 -4.52193 0
M  V30 1480 H 140.745 3.25113 -2.59694 0
M  V30 1481 H 139.621 4.55186 -3.06753 0
M  V30 1482 H 139.882 4.20484 -1.36549 0
M  V30 1483 N 138.941 1.26152 0.944643 0
M  V30 1484 C 139.889 1.07215 2.06417 0
M  V30 1485 C 140.883 9.2007e-05 1.694 0
M  V30 1486 O 142.089 0.1565 1.79318 0
M  V30 1487 H 138.464 0.329837 0.675805 0
M  V30 1488 H 140.435 2.02099 2.19541 0
M  V30 1489 C 139.184 0.718197 3.40202 0
M  V30 1490 H 138.507 1.53497 3.69159 0
M  V30 1491 H 139.947 0.625459 4.19361 0
M  V30 1492 C 138.406 -0.576435 3.31932 0
M  V30 1493 O 138.936 -1.61574 3.67773 0
M  V30 1494 N 137.142 -0.565781 2.85039 0
M  V30 1495 H 136.689 0.280367 2.5607 0
M  V30 1496 H 136.647 -1.43213 2.79888 0
M  V30 1497 N 140.419 -1.14872 1.07899 0
M  V30 1498 C 141.352 -2.18794 0.64841 0
M  V30 1499 C 142.33 -1.59065 -0.337189 0
M  V30 1500 O 143.514 -1.86936 -0.242284 0
M  V30 1501 C 140.641 -3.38667 -0.0470417 0
M  V30 1502 C 139.687 -4.16942 0.897884 0
M  V30 1503 S 140.52 -4.78615 2.40183 0
M  V30 1504 C 141.676 -6.0185 1.71834 0
M  V30 1505 H 141.909 -2.5498 1.52881 0
M  V30 1506 H 139.442 -1.25922 0.893484 0
M  V30 1507 H 141.4 -4.08113 -0.442027 0
M  V30 1508 H 140.061 -3.00814 -0.903861 0
M  V30 1509 H 139.254 -5.02726 0.358096 0
M  V30 1510 H 138.856 -3.53073 1.23352 0
M  V30 1511 H 141.148 -6.69574 1.03328 0
M  V30 1512 H 142.091 -6.60408 2.55473 0
M  V30 1513 H 142.499 -5.5173 1.19392 0
M  V30 1514 N 141.898 -0.863906 -1.31812 0
M  V30 1515 C 142.828 -0.330843 -2.31144 0
M  V30 1516 C 143.809 0.575005 -1.60087 0
M  V30 1517 O 144.994 0.493304 -1.8783 0
M  V30 1518 C 142.124 0.47374 -3.44054 0
M  V30 1519 C 141.078 -0.338481 -4.26659 0
M  V30 1520 C 140.404 0.591412 -5.31419 0
M  V30 1521 C 141.704 -1.56926 -4.98168 0
M  V30 1522 H 143.398 -1.16086 -2.75979 0
M  V30 1523 H 140.944 -0.559657 -1.32679 0
M  V30 1524 H 142.897 0.857143 -4.12591 0
M  V30 1525 H 141.621 1.33721 -2.9797 0
M  V30 1526 H 140.28 -0.703754 -3.59782 0
M  V30 1527 H 139.928 1.45199 -4.81587 0
M  V30 1528 H 139.628 0.0519022 -5.87577 0
M  V30 1529 H 141.152 0.97179 -6.02817 0
M  V30 1530 H 142.566 -1.25764 -5.59336 0
M  V30 1531 H 140.963 -2.04739 -5.64094 0
M  V30 1532 H 142.033 -2.32544 -4.25501 0
M  V30 1533 N 143.376 1.44774 -0.622745 0
M  V30 1534 C 144.604 2.06487 -0.130722 0
M  V30 1535 C 145.019 1.46476 1.19123 0
M  V30 1536 O 144.376 0.584502 1.72887 0
M  V30 1537 C 144.427 3.615 -0.000807207 0
M  V30 1538 O 144.148 4.19274 -1.27048 0
M  V30 1539 C 145.649 4.40229 0.520898 0
M  V30 1540 H 142.869 0.666704 -0.0758106 0
M  V30 1541 H 145.413 1.85779 -0.854774 0
M  V30 1542 H 143.568 3.81498 0.673643 0
M  V30 1543 H 143.982 5.12622 -1.1099 0
M  V30 1544 H 145.456 5.49144 0.560838 0
M  V30 1545 H 145.933 4.1108 1.54627 0
M  V30 1546 H 146.539 4.25131 -0.120018 0
M  V30 1547 N 144.854 0.36279 1.53368 0
M  V30 1548 C 146.079 -0.231226 2.06107 0
M  V30 1549 C 146.504 -1.419 1.23474 0
M  V30 1550 O 145.862 -1.79524 0.253128 0
M  V30 1551 C 145.91 -0.605523 3.5548 0
M  V30 1552 O 145.014 -1.70312 3.7559 0
M  V30 1553 H 144.355 -0.034327 0.663112 0
M  V30 1554 H 146.885 0.522584 1.97814 0
M  V30 1555 H 146.895 -0.877314 3.98456 0
M  V30 1556 H 145.57 0.263004 4.15068 0
M  V30 1557 H 144.147 -1.4271 3.44512 0
M  V30 1558 N 146.332 -1.57332 0.0918853 0
M  V30 1559 C 147.579 -1.94236 -0.572577 0
M  V30 1560 C 147.907 -0.973398 -1.6839 0
M  V30 1561 O 147.162 0.00756912 -1.95699 0
M  V30 1562 C 147.461 -3.37689 -1.17051 0
M  V30 1563 C 147.127 -4.50527 -0.183304 0
M  V30 1564 C 145.789 -4.81119 0.0882276 0
M  V30 1565 C 148.141 -5.18883 0.49095 0
M  V30 1566 C 145.469 -5.77395 1.04076 0
M  V30 1567 C 147.821 -6.1618 1.43193 0
M  V30 1568 C 146.485 -6.45179 1.71173 0
M  V30 1569 H 145.755 -0.710762 -0.209521 0
M  V30 1570 H 148.402 -1.9077 0.167036 0
M  V30 1571 H 146.707 -3.37718 -1.9863 0
M  V30 1572 H 148.404 -3.63543 -1.69227 0
M  V30 1573 H 144.994 -4.26681 -0.405124 0
M  V30 1574 H 149.178 -4.95427 0.294312 0
M  V30 1575 H 144.434 -5.98179 1.26457 0
M  V30 1576 H 148.608 -6.68243 1.96023 0
M  V30 1577 H 146.235 -7.1959 2.4514 0
M  V30 1578 N 147.81 0.181792 -1.56548 0
M  V30 1579 C 149.05 0.906711 -1.83189 0
M  V30 1580 C 149.414 1.79882 -0.671312 0
M  V30 1581 O 150.615 2.56054 -0.81792 0
M  V30 1582 C 148.886 1.69023 -3.14906 0
M  V30 1583 S 150.445 2.46535 -3.62996 0
M  V30 1584 H 147.263 0.303877 -0.642791 0
M  V30 1585 H 149.865 0.169107 -1.94767 0
M  V30 1586 H 148.569 1.02571 -3.97376 0
M  V30 1587 H 148.1 2.46941 -3.06241 0
M  V30 1588 H 150.115 3.71014 -3.29489 0
M  V30 1589 N 149.288 1.51039 0.449983 0
M  V30 1590 C 150.536 1.62759 1.19808 0
M  V30 1591 C 150.857 0.339981 1.92013 0
M  V30 1592 O 150.127 -0.643606 1.85026 0
M  V30 1593 H 148.707 0.599811 0.445237 0
M  V30 1594 H 151.369 1.87914 0.517138 0
M  V30 1595 H 150.465 2.44911 1.93455 0
M  V30 1596 N 150.766 -0.704594 1.40972 0
M  V30 1597 C 151.729 -1.80035 1.41845 0
M  V30 1598 C 152.729 -1.57774 0.310474 0
M  V30 1599 O 153.919 -1.64613 0.56992 0
M  V30 1600 C 151.051 -3.18284 1.22098 0
M  V30 1601 H 152.244 -1.80658 2.3938 0
M  V30 1602 H 149.797 -0.911329 1.26982 0
M  V30 1603 H 150.532 -3.23306 0.253672 0
M  V30 1604 H 150.317 -3.35843 2.02366 0
M  V30 1605 H 151.807 -3.98289 1.25522 0
M  V30 1606 N 152.244 -1.26651 -0.937939 0
M  V30 1607 C 153.174 -1.10993 -2.05433 0
M  V30 1608 C 154.155 -0.0142161 -1.70094 0
M  V30 1609 O 155.34 -0.186837 -1.93299 0
M  V30 1610 C 152.47 -0.745561 -3.39203 0
M  V30 1611 C 151.424 -1.79337 -3.88616 0
M  V30 1612 C 150.75 -1.28324 -5.19073 0
M  V30 1613 C 152.05 -3.19553 -4.13138 0
M  V30 1614 H 153.744 -2.0438 -2.1879 0
M  V30 1615 H 151.29 -0.984041 -1.05131 0
M  V30 1616 H 153.243 -0.622888 -4.16771 0
M  V30 1617 H 151.967 0.22401 -3.25831 0
M  V30 1618 H 150.626 -1.90477 -3.13231 0
M  V30 1619 H 150.274 -0.303414 -5.02084 0
M  V30 1620 H 149.974 -1.98369 -5.53103 0
M  V30 1621 H 151.498 -1.1733 -5.99221 0
M  V30 1622 H 152.912 -3.11471 -4.81309 0
M  V30 1623 H 151.309 -3.87218 -4.58457 0
M  V30 1624 H 152.379 -3.65368 -3.18801 0
M  V30 1625 N 153.722 1.14298 -1.08507 0
M  V30 1626 C 154.672 2.17449 -0.685569 0
M  V30 1627 C 155.656 1.58167 0.295315 0
M  V30 1628 O 156.848 1.76675 0.107172 0
M  V30 1629 C 153.977 3.43161 -0.0975318 0
M  V30 1630 C 153.063 4.09471 -1.10426 0
M  V30 1631 N 153.454 4.51089 -2.28806 0
M  V30 1632 C 151.752 4.35976 -0.940258 0
M  V30 1633 C 152.453 5.02654 -2.9277 0
M  V30 1634 N 151.429 4.96927 -2.20374 0
M  V30 1635 H 155.231 2.47369 -1.587 0
M  V30 1636 H 152.745 1.30992 -0.959936 0
M  V30 1637 H 154.742 4.16388 0.20664 0
M  V30 1638 H 153.402 3.14719 0.798872 0
M  V30 1639 H 154.413 4.44097 -2.66455 0
M  V30 1640 H 151.09 4.17386 -0.0977441 0
M  V30 1641 H 152.48 5.44723 -3.93352 0
M  V30 1642 N 155.201 0.870884 1.31352 0
M  V30 1643 C 156.447 0.482987 1.96965 0
M  V30 1644 C 156.78 -0.962462 1.68672 0
M  V30 1645 O 156.055 -1.6779 0.98371 0
M  V30 1646 C 156.338 0.741752 3.52378 0
M  V30 1647 C 156.191 2.2368 3.9024 0
M  V30 1648 C 157.51 0.208838 4.39604 0
M  V30 1649 H 154.629 0.176955 0.715441 0
M  V30 1650 H 157.271 1.09229 1.55464 0
M  V30 1651 H 155.421 0.223149 3.87859 0
M  V30 1652 H 157.093 2.82273 3.64856 0
M  V30 1653 H 155.336 2.70901 3.38814 0
M  V30 1654 H 156.007 2.3685 4.98604 0
M  V30 1655 H 158.483 0.652529 4.10952 0
M  V30 1656 H 157.359 0.419336 5.47296 0
M  V30 1657 H 157.62 -0.889275 4.33064 0
M  V30 1658 N 156.679 -1.44442 0.630414 0
M  V30 1659 C 157.919 -2.03934 0.137919 0
M  V30 1660 C 158.283 -1.48509 -1.21692 0
M  V30 1661 O 159.484 -1.99499 -1.80149 0
M  V30 1662 C 157.755 -3.57187 0.123373 0
M  V30 1663 S 159.314 -4.37741 -0.304604 0
M  V30 1664 H 156.132 -0.708401 0.0607353 0
M  V30 1665 H 158.734 -1.76835 0.833643 0
M  V30 1666 H 157.438 -3.95032 1.11256 0
M  V30 1667 H 156.969 -3.88895 -0.59362 0
M  V30 1668 H 158.984 -4.71403 -1.54897 0
M  V30 1669 N 158.157 -0.370918 -1.53173 0
M  V30 1670 C 159.404 0.217102 -2.01333 0
M  V30 1671 C 159.732 1.48338 -1.25802 0
M  V30 1672 O 158.987 1.92698 -0.34146 0
M  V30 1673 C 159.286 0.549696 -3.53147 0
M  V30 1674 C 158.952 -0.622872 -4.46577 0
M  V30 1675 C 157.614 -0.944595 -4.71838 0
M  V30 1676 C 159.966 -1.40819 -5.01816 0
M  V30 1677 C 157.294 -2.05351 -5.49589 0
M  V30 1678 C 159.646 -2.50757 -5.80778 0
M  V30 1679 C 158.31 -2.83458 -6.04324 0
M  V30 1680 H 157.58 0.0794431 -0.736729 0
M  V30 1681 H 160.227 -0.504481 -1.84736 0
M  V30 1682 H 158.532 1.35237 -3.6772 0
M  V30 1683 H 160.229 1.017 -3.87889 0
M  V30 1684 H 156.819 -0.36209 -4.27068 0
M  V30 1685 H 161.003 -1.17289 -4.82242 0
M  V30 1686 H 156.259 -2.3108 -5.6605 0
M  V30 1687 H 160.433 -3.12022 -6.22588 0
M  V30 1688 H 158.06 -3.69508 -6.64355 0
M  V30 1689 N 159.635 1.57281 -0.100228 0
M  V30 1690 C 160.884 1.93713 0.561984 0
M  V30 1691 C 161.197 0.984492 1.69018 0
M  V30 1692 O 162.403 1.24273 2.41389 0
M  V30 1693 C 160.859 3.4421 1.05106 0
M  V30 1694 C 160.467 4.47975 -0.0476628 0
M  V30 1695 C 162.211 3.89595 1.68571 0
M  V30 1696 C 160.118 5.89631 0.457055 0
M  V30 1697 H 159.048 0.723082 0.2137 0
M  V30 1698 H 161.699 1.82644 -0.177057 0
M  V30 1699 H 160.081 3.50449 1.84395 0
M  V30 1700 H 161.255 4.53385 -0.823333 0
M  V30 1701 H 159.57 4.1223 -0.587816 0
M  V30 1702 H 162.167 4.92832 2.07414 0
M  V30 1703 H 162.51 3.28526 2.55688 0
M  V30 1704 H 163.043 3.86078 0.958562 0
M  V30 1705 H 159.782 6.54411 -0.377616 0
M  V30 1706 H 159.302 5.87681 1.19962 0
M  V30 1707 H 160.981 6.40363 0.92437 0
M  V30 1708 N 161.113 -0.173488 1.56642 0
M  V30 1709 C 162.341 -0.906095 1.86004 0
M  V30 1710 C 162.756 -1.75921 0.685355 0
M  V30 1711 O 162.113 -1.79198 -0.345578 0
M  V30 1712 C 162.164 -1.78462 3.14378 0
M  V30 1713 O 161.885 -0.965914 4.27319 0
M  V30 1714 C 163.386 -2.62707 3.57071 0
M  V30 1715 H 160.606 -0.263341 0.617165 0
M  V30 1716 H 163.15 -0.174236 2.03756 0
M  V30 1717 H 161.305 -2.46984 2.98459 0
M  V30 1718 H 161.719 -1.56655 5.00559 0
M  V30 1719 H 163.193 -3.19969 4.49804 0
M  V30 1720 H 163.67 -3.37472 2.81086 0
M  V30 1721 H 164.276 -1.99521 3.75595 0
M  V30 1722 N 162.591 -1.51276 -0.441967 0
M  V30 1723 C 164.002 -1.56244 -1.02199 0
M  V30 1724 C 164.353 -0.383149 -1.92422 0
M  V30 1725 O 163.478 0.500613 -2.1053 0
M  V30 1726 C 164.073 -2.83162 -1.86024 0
M  V30 1727 C 162.632 -2.90716 -2.39084 0
M  V30 1728 C 161.779 -2.50858 -1.18175 0
M  V30 1729 H 164.73 -1.5712 -0.223416 0
M  V30 1730 H 164.751 -2.66663 -2.71425 0
M  V30 1731 H 164.263 -3.68974 -1.20331 0
M  V30 1732 H 162.364 -2.09323 -3.08244 0
M  V30 1733 H 162.477 -3.94266 -2.72198 0
M  V30 1734 H 160.841 -2.03951 -1.52565 0
M  V30 1735 H 161.624 -3.3901 -0.541001 0
M  V30 1736 N 164.069 0.697108 -1.41344 0
M  V30 1737 C 165.294 1.49096 -1.44171 0
M  V30 1738 C 165.719 1.88038 -0.0481568 0
M  V30 1739 O 165.077 1.54525 0.948243 0
M  V30 1740 C 165.125 2.73088 -2.3549 0
M  V30 1741 O 164.229 3.70514 -1.81088 0
M  V30 1742 H 163.57 0.448801 -0.489361 0
M  V30 1743 H 166.1 0.856992 -1.85787 0
M  V30 1744 H 166.11 3.21413 -2.51312 0
M  V30 1745 H 164.785 2.44081 -3.36745 0
M  V30 1746 H 163.362 3.29441 -1.74708 0
M  V30 1747 N 165.547 1.27147 0.931209 0
M  V30 1748 C 166.794 1.13278 1.67852 0
M  V30 1749 C 167.122 -0.32204 1.91815 0
M  V30 1750 O 166.377 -1.25224 1.50391 0
M  V30 1751 C 166.676 1.8579 3.05314 0
M  V30 1752 C 166.342 3.35657 3.01073 0
M  V30 1753 C 165.004 3.76536 2.99623 0
M  V30 1754 C 167.356 4.31299 2.92627 0
M  V30 1755 C 164.684 5.11426 2.87506 0
M  V30 1756 C 167.036 5.66242 2.82051 0
M  V30 1757 C 165.7 6.06418 2.7895 0
M  V30 1758 H 164.97 0.414515 0.614214 0
M  V30 1759 H 167.617 1.57712 1.08624 0
M  V30 1760 H 165.922 1.33854 3.68226 0
M  V30 1761 H 167.619 1.72491 3.62005 0
M  V30 1762 H 164.209 3.03146 3.02986 0
M  V30 1763 H 168.393 4.00692 2.92848 0
M  V30 1764 H 163.649 5.41705 2.83489 0
M  V30 1765 H 167.823 6.40026 2.74481 0
M  V30 1766 H 165.45 7.10895 2.69318 0
M  V30 1767 N 167.025 -1.13721 1.09112 0
M  V30 1768 C 168.436 -1.6648 0.845068 0
M  V30 1769 C 168.787 -1.85911 -0.62701 0
M  V30 1770 O 167.912 -1.57556 -1.48341 0
M  V30 1771 C 168.507 -3.02413 1.52748 0
M  V30 1772 C 167.066 -3.52176 1.32849 0
M  V30 1773 C 166.213 -2.27492 1.58564 0
M  V30 1774 H 169.164 -0.976872 1.25072 0
M  V30 1775 H 169.185 -3.68223 0.958752 0
M  V30 1776 H 168.697 -2.88238 2.59885 0
M  V30 1777 H 166.798 -3.7156 0.278137 0
M  V30 1778 H 166.911 -4.32499 2.0611 0
M  V30 1779 H 165.275 -2.33923 1.00758 0
M  V30 1780 H 166.058 -2.15886 2.66924 0
M  V30 1781 N 168.503 -0.877838 -1.30888 0
M  V30 1782 C 169.749 -0.493426 -1.96706 0
M  V30 1783 C 170.082 0.953504 -1.6918 0
M  V30 1784 O 169.357 1.67266 -0.992594 0
M  V30 1785 C 169.64 -0.760429 -3.51979 0
M  V30 1786 C 169.493 -2.25747 -3.89048 0
M  V30 1787 C 170.812 -0.232148 -4.39487 0
M  V30 1788 H 167.931 -0.180746 -0.714493 0
M  V30 1789 H 170.573 -1.10052 -1.54882 0
M  V30 1790 H 168.723 -0.243715 -3.87735 0
M  V30 1791 H 170.395 -2.84204 -3.63354 0
M  V30 1792 H 168.638 -2.72694 -3.37373 0
M  V30 1793 H 169.309 -2.39491 -4.97341 0
M  V30 1794 H 171.785 -0.674314 -4.106 0
M  V30 1795 H 170.661 -0.448355 -5.47066 0
M  V30 1796 H 170.922 0.866297 -4.33529 0
M  V30 1797 N 169.982 1.44106 -0.638065 0
M  V30 1798 C 171.259 1.95453 -0.0759321 0
M  V30 1799 C 171.639 1.57984 1.40015 0
M  V30 1800 O 170.987 0.857361 2.11806 0
M  V30 1801 C 171.197 3.47655 -0.306132 0
M  V30 1802 C 172.545 4.24114 -0.203008 0
M  V30 1803 O 173.569 3.55405 -0.237871 0
M  V30 1804 O 172.428 5.46381 -0.113827 0
M  V30 1805 H 169.522 0.826797 0.0183332 0
M  V30 1806 H 172.068 1.54122 -0.710251 0
M  V30 1807 H 170.84 3.68 -1.3301 0
M  V30 1808 H 170.463 3.95949 0.361991 0
M  V30 1809 N 171.46 0.379036 1.52974 0
M  V30 1810 C 172.688 -0.20679 2.05864 0
M  V30 1811 C 173.103 -1.41356 1.25155 0
M  V30 1812 O 172.46 -1.8009 0.295588 0
M  V30 1813 C 172.511 -0.587045 3.56702 0
M  V30 1814 O 172.232 0.571776 4.34353 0
M  V30 1815 C 173.733 -1.22983 4.25899 0
M  V30 1816 H 170.953 -0.0336123 0.670158 0
M  V30 1817 H 173.497 0.541298 1.97206 0
M  V30 1818 H 171.652 -1.28504 3.65466 0
M  V30 1819 H 172.066 0.261544 5.23847 0
M  V30 1820 H 173.54 -1.44635 5.32715 0
M  V30 1821 H 174.017 -2.19416 3.80465 0
M  V30 1822 H 174.623 -0.572892 4.21424 0
M  V30 1823 N 172.938 -1.57226 0.108567 0
M  V30 1824 C 174.163 -1.99604 -0.563303 0
M  V30 1825 C 174.588 -0.987563 -1.6009 0
M  V30 1826 O 173.946 0.0421687 -1.81251 0
M  V30 1827 C 173.994 -3.40902 -1.17552 0
M  V30 1828 O 173.098 -3.42896 -2.2912 0
M  V30 1829 H 172.439 -0.648704 -0.1417 0
M  V30 1830 H 174.969 -2.03679 0.193961 0
M  V30 1831 H 174.979 -3.78886 -1.51357 0
M  V30 1832 H 173.654 -4.1382 -0.415445 0
M  V30 1833 H 172.231 -3.1672 -1.96832 0
M  V30 1834 N 174.416 0.165178 -1.56732 0
M  V30 1835 C 175.364 1.22369 -1.97809 0
M  V30 1836 C 176.358 1.45488 -0.867741 0
M  V30 1837 O 177.564 1.45995 -1.05288 0
M  V30 1838 H 173.939 0.411486 -0.629431 0
M  V30 1839 H 175.91 0.850425 -2.86025 0
M  V30 1840 C 174.659 2.55403 -2.35934 0
M  V30 1841 H 173.982 2.38438 -3.20916 0
M  V30 1842 H 175.422 3.2814 -2.68514 0
M  V30 1843 C 173.881 3.14611 -1.20506 0
M  V30 1844 O 174.411 3.98626 -0.496016 0
M  V30 1845 N 172.617 2.7379 -0.97403 0
M  V30 1846 H 172.164 2.0557 -1.55238 0
M  V30 1847 H 172.122 3.1374 -0.203573 0
M  V30 1848 N 175.894 1.51508 0.433938 0
M  V30 1849 C 176.826 1.69266 1.54537 0
M  V30 1850 C 177.839 0.573276 1.52373 0
M  V30 1851 O 179.028 0.847698 1.57087 0
M  V30 1852 C 176.128 1.69524 2.93453 0
M  V30 1853 C 175.301 2.98101 3.20085 0
M  V30 1854 C 174.36 2.90502 4.38742 0
M  V30 1855 O 173.386 3.64442 4.3723 0
M  V30 1856 N 174.588 2.06586 5.42496 0
M  V30 1857 H 177.353 2.65145 1.39708 0
M  V30 1858 H 174.914 1.49437 0.622922 0
M  V30 1859 H 176.906 1.62004 3.70859 0
M  V30 1860 H 175.476 0.812245 3.01863 0
M  V30 1861 H 174.696 3.19464 2.30947 0
M  V30 1862 H 175.984 3.83207 3.34708 0
M  V30 1863 H 175.382 1.45896 5.46563 0
M  V30 1864 H 173.939 2.04943 6.18742 0
M  V30 1865 N 177.372 -0.689602 1.41712 0
M  V30 1866 C 178.619 -1.44966 1.4139 0
M  V30 1867 C 178.947 -1.94484 0.025105 0
M  V30 1868 O 178.202 -1.70307 -0.964048 0
M  V30 1869 C 178.501 -2.67298 2.37247 0
M  V30 1870 C 178.167 -2.36405 3.83958 0
M  V30 1871 C 176.829 -2.27691 4.23923 0
M  V30 1872 C 179.181 -2.11043 4.76561 0
M  V30 1873 C 176.509 -1.91719 5.54492 0
M  V30 1874 C 178.861 -1.76578 6.07456 0
M  V30 1875 C 177.525 -1.66363 6.46436 0
M  V30 1876 H 176.795 -0.53047 0.517381 0
M  V30 1877 H 179.442 -0.787655 1.74552 0
M  V30 1878 H 177.747 -3.38461 1.9736 0
M  V30 1879 H 179.444 -3.25452 2.34269 0
M  V30 1880 H 176.034 -2.44085 3.52308 0
M  V30 1881 H 180.218 -2.16717 4.46483 0
M  V30 1882 H 175.474 -1.82367 5.83568 0
M  V30 1883 H 179.648 -1.55974 6.78708 0
M  V30 1884 H 177.275 -1.38258 7.47522 0
M  V30 1885 N 178.85 -1.27639 -0.924453 0
M  V30 1886 C 180.096 -1.14336 -1.67497 0
M  V30 1887 C 180.429 0.309465 -1.91718 0
M  V30 1888 O 179.704 1.22608 -1.50989 0
M  V30 1889 C 179.987 -1.93096 -3.0395 0
M  V30 1890 C 179.84 -3.46381 -2.8695 0
M  V30 1891 C 181.159 -1.73798 -4.0433 0
M  V30 1892 H 178.278 -0.416728 -0.607871 0
M  V30 1893 H 180.92 -1.56832 -1.07256 0
M  V30 1894 H 179.07 -1.56982 -3.55372 0
M  V30 1895 H 180.742 -3.92343 -2.42621 0
M  V30 1896 H 178.985 -3.72557 -2.22225 0
M  V30 1897 H 179.656 -3.96735 -3.83804 0
M  V30 1898 H 182.132 -2.05293 -3.61931 0
M  V30 1899 H 181.008 -2.31294 -4.97789 0
M  V30 1900 H 181.269 -0.686725 -4.36734 0
M  V30 1901 N 180.328 1.1314 -1.09713 0
M  V30 1902 C 181.258 2.20748 -0.761102 0
M  V30 1903 C 182.239 1.68061 0.262566 0
M  V30 1904 O 183.424 1.93765 0.129977 0
M  V30 1905 C 180.554 3.46812 -0.184054 0
M  V30 1906 C 179.508 4.12606 -1.13757 0
M  V30 1907 C 178.834 5.33031 -0.422083 0
M  V30 1908 C 180.134 4.59603 -2.48118 0
M  V30 1909 H 181.828 2.49113 -1.66082 0
M  V30 1910 H 179.374 1.19734 -0.799987 0
M  V30 1911 H 181.327 4.21353 0.0631215 0
M  V30 1912 H 180.051 3.17851 0.750868 0
M  V30 1913 H 178.71 3.40036 -1.37007 0
M  V30 1914 H 178.358 5.00335 0.517072 0
M  V30 1915 H 178.058 5.77999 -1.05788 0
M  V30 1916 H 179.582 6.10325 -0.183277 0
M  V30 1917 H 180.996 5.25552 -2.29059 0
M  V30 1918 H 179.393 5.15321 -3.07514 0
M  V30 1919 H 180.463 3.73971 -3.08665 0
M  V30 1920 N 181.806 0.884767 1.30421 0
M  V30 1921 C 182.738 0.308655 2.27112 0
M  V30 1922 C 183.751 -0.536655 1.53701 0
M  V30 1923 O 184.94 -0.35624 1.74909 0
M  V30 1924 C 182.04 -0.579782 3.33904 0
M  V30 1925 C 181.213 0.236417 4.36761 0
M  V30 1926 C 180.272 -0.582482 5.22966 0
M  V30 1927 O 179.298 -0.00525502 5.692 0
M  V30 1928 N 180.5 -1.89163 5.48815 0
M  V30 1929 H 183.265 1.13964 2.77186 0
M  V30 1930 H 180.826 0.747731 1.43599 0
M  V30 1931 H 182.818 -1.13366 3.88497 0
M  V30 1932 H 181.388 -1.31144 2.83761 0
M  V30 1933 H 180.608 0.97174 3.82035 0
M  V30 1934 H 181.896 0.795924 5.02536 0
M  V30 1935 H 181.294 -2.38352 5.13035 0
M  V30 1936 H 179.851 -2.39296 6.06284 0
M  V30 1937 N 183.284 -1.43765 0.645699 0
M  V30 1938 C 184.214 -2.33471 -0.0370477 0
M  V30 1939 C 185.195 -1.49042 -0.819779 0
M  V30 1940 O 186.38 -1.77726 -0.782758 0
M  V30 1941 C 183.51 -3.32311 -1.0093 0
M  V30 1942 C 182.464 -4.2667 -0.337201 0
M  V30 1943 C 181.79 -5.1549 -1.42037 0
M  V30 1944 C 183.09 -5.16657 0.765706 0
M  V30 1945 H 184.784 -2.90809 0.712069 0
M  V30 1946 H 182.33 -1.39834 0.343876 0
M  V30 1947 H 184.283 -3.9396 -1.49578 0
M  V30 1948 H 183.007 -2.73213 -1.78948 0
M  V30 1949 H 181.666 -3.66374 0.128771 0
M  V30 1950 H 181.314 -4.52735 -2.1918 0
M  V30 1951 H 181.014 -5.79438 -0.975966 0
M  V30 1952 H 182.538 -5.80012 -1.90838 0
M  V30 1953 H 183.952 -5.72158 0.361702 0
M  V30 1954 H 182.349 -5.89286 1.13413 0
M  V30 1955 H 183.419 -4.56796 1.62683 0
M  V30 1956 N 184.763 -0.387143 -1.52771 0
M  V30 1957 C 186.179 -0.037007 -1.59557 0
M  V30 1958 C 186.379 1.44801 -1.40124 0
M  V30 1959 O 185.435 2.21227 -1.21716 0
M  V30 1960 C 186.748 -0.512256 -2.96305 0
M  V30 1961 C 188.296 -0.468328 -3.09476 0
M  V30 1962 C 188.771 -0.919731 -4.4867 0
M  V30 1963 N 190.262 -0.875656 -4.54848 0
M  V30 1964 C 190.997 -1.19637 -5.6078 0
M  V30 1965 N 190.493 -1.58745 -6.74368 0
M  V30 1966 N 192.286 -1.11776 -5.50874 0
M  V30 1967 H 184.437 -1.35395 -1.63652 0
M  V30 1968 H 186.7 -0.554818 -0.768688 0
M  V30 1969 H 186.406 -1.54935 -3.15734 0
M  V30 1970 H 186.28 0.089805 -3.77093 0
M  V30 1971 H 188.667 0.559671 -2.89744 0
M  V30 1972 H 188.748 -1.10616 -2.30646 0
M  V30 1973 H 188.392 -1.94595 -4.69143 0
M  V30 1974 H 188.322 -0.258927 -5.25963 0
M  V30 1975 H 190.813 -0.587843 -3.733 0
M  V30 1976 H 191.126 -1.81586 -7.51163 0
M  V30 1977 H 189.471 -1.6263 -6.75705 0
M  V30 1978 H 192.662 -0.811264 -4.61016 0
M  V30 1979 H 192.835 -1.37103 -6.3333 0
M  V30 1980 N 186.241 1.57166 -0.116904 0
M  V30 1981 C 187.652 1.82169 0.408809 0
M  V30 1982 C 188.003 1.03393 1.66746 0
M  V30 1983 O 187.128 0.269886 2.1471 0
M  V30 1984 C 187.723 3.30429 0.748466 0
M  V30 1985 C 186.282 3.5612 1.21882 0
M  V30 1986 C 185.429 2.76374 0.226452 0
M  V30 1987 H 188.38 1.5497 -0.342063 0
M  V30 1988 H 188.401 3.44943 1.60607 0
M  V30 1989 H 187.913 3.87737 -0.167784 0
M  V30 1990 H 186.014 3.04168 2.15204 0
M  V30 1991 H 186.127 4.64705 1.16559 0
M  V30 1992 H 184.491 2.44515 0.713063 0
M  V30 1993 H 185.274 3.3644 -0.682859 0
M  V30 1994 N 187.719 -0.156864 1.56817 0
M  V30 1995 C 188.629 -1.2136 2.00771 0
M  V30 1996 C 189.645 -1.47598 0.921459 0
M  V30 1997 O 190.821 -1.59462 1.2302 0
M  V30 1998 C 187.886 -2.52943 2.37109 0
M  V30 1999 C 186.947 -2.34439 3.59634 0
M  V30 2000 C 186.18 -3.59748 3.94229 0
M  V30 2001 O 186.403 -4.65526 3.29609 0
M  V30 2002 O 185.337 -3.52998 4.8752 0
M  V30 2003 H 189.163 -0.870468 2.90958 0
M  V30 2004 H 186.748 -0.36484 1.44877 0
M  V30 2005 H 188.63 -3.30538 2.61386 0
M  V30 2006 H 187.305 -2.86806 1.5008 0
M  V30 2007 H 186.212 -1.54828 3.40557 0
M  V30 2008 H 187.545 -2.05496 4.4725 0
M  V30 2009 N 189.197 -1.51736 -0.425897 0
M  V30 2010 C 190.127 -1.76827 -1.52494 0
M  V30 2011 C 191.108 -0.618524 -1.58456 0
M  V30 2012 O 192.293 -0.862416 -1.74 0
M  V30 2013 C 189.423 -1.90374 -2.90474 0
M  V30 2014 C 188.377 -3.0588 -2.99369 0
M  V30 2015 C 187.703 -3.04625 -4.3944 0
M  V30 2016 C 189.003 -4.45644 -2.72394 0
M  V30 2017 H 190.697 -2.68855 -1.31748 0
M  V30 2018 H 188.243 -1.29372 -0.632362 0
M  V30 2019 H 190.196 -2.0651 -3.6733 0
M  V30 2020 H 188.92 -0.95004 -3.12477 0
M  V30 2021 H 187.579 -2.89467 -2.24954 0
M  V30 2022 H 187.227 -2.0701 -4.58428 0
M  V30 2023 H 186.927 -3.82195 -4.46319 0
M  V30 2024 H 188.451 -3.22869 -5.18255 0
M  V30 2025 H 189.865 -4.62348 -3.38979 0
M  V30 2026 H 188.262 -5.25006 -2.9067 0
M  V30 2027 H 189.332 -4.54893 -1.67929 0
M  V30 2028 N 190.675 0.682077 -1.42076 0
M  V30 2029 C 191.607 1.80755 -1.40926 0
M  V30 2030 C 192.62 1.59833 -0.309398 0
M  V30 2031 O 193.809 1.69087 -0.572014 0
M  V30 2032 C 190.909 3.17744 -1.17865 0
M  V30 2033 C 190.082 3.65578 -2.40149 0
M  V30 2034 C 189.141 4.81277 -2.12742 0
M  V30 2035 O 188.167 4.92197 -2.85887 0
M  V30 2036 N 189.369 5.69474 -1.12602 0
M  V30 2037 H 192.134 1.82229 -2.37935 0
M  V30 2038 H 189.695 0.864903 -1.36861 0
M  V30 2039 H 191.687 3.9279 -0.9746 0
M  V30 2040 H 190.257 3.11214 -0.294068 0
M  V30 2041 H 189.477 2.81291 -2.76169 0
M  V30 2042 H 190.765 3.94278 -3.21593 0
M  V30 2043 H 190.163 5.63297 -0.520899 0
M  V30 2044 H 188.72 6.44363 -0.981842 0
M  V30 2045 N 192.153 1.28127 0.917671 0
M  V30 2046 C 193.43 1.05761 1.64542 0
M  V30 2047 C 193.81 -0.404344 2.07191 0
M  V30 2048 O 193.158 -1.38963 1.81388 0
M  V30 2049 C 193.368 2.02857 2.83989 0
M  V30 2050 C 194.716 2.32786 3.551 0
M  V30 2051 O 195.74 2.0091 2.94132 0
M  V30 2052 O 194.599 2.87169 4.64969 0
M  V30 2053 H 191.693 0.403916 0.721652 0
M  V30 2054 H 194.239 1.39431 0.967322 0
M  V30 2055 H 193.011 3.01407 2.49538 0
M  V30 2056 H 192.634 1.69809 3.59514 0
M  V30 2057 N 193.631 -1.12557 1.10312 0
M  V30 2058 C 194.594 -2.16434 0.75424 0
M  V30 2059 C 195.594 -1.59278 -0.220685 0
M  V30 2060 O 196.784 -1.742 0.00230591 0
M  V30 2061 C 193.916 -3.40699 0.116987 0
M  V30 2062 H 195.109 -2.48811 1.67431 0
M  V30 2063 H 192.662 -1.27542 0.903475 0
M  V30 2064 H 193.397 -3.13921 -0.813877 0
M  V30 2065 H 193.182 -3.83459 0.818613 0
M  V30 2066 H 194.672 -4.17451 -0.111387 0
M  V30 2067 N 195.109 -0.891671 -1.2995 0
M  V30 2068 C 196.039 -0.379797 -2.30391 0
M  V30 2069 C 197.02 0.540919 -1.6127 0
M  V30 2070 O 198.205 0.453352 -1.88834 0
M  V30 2071 C 195.335 0.400654 -3.44981 0
M  V30 2072 C 194.289 -0.428905 -4.25846 0
M  V30 2073 C 193.615 0.478557 -5.32554 0
M  V30 2074 C 194.915 -1.67458 -4.94727 0
M  V30 2075 H 196.609 -1.21914 -2.73454 0
M  V30 2076 H 194.155 -0.587675 -1.31462 0
M  V30 2077 H 196.108 0.769434 -4.14316 0
M  V30 2078 H 194.832 1.27371 -3.0074 0
M  V30 2079 H 193.491 -0.779911 -3.58208 0
M  V30 2080 H 193.139 1.34951 -4.84559 0
M  V30 2081 H 192.839 -0.0727433 -5.87555 0
M  V30 2082 H 194.363 0.843705 -6.04743 0
M  V30 2083 H 195.777 -1.376 -5.56542 0
M  V30 2084 H 194.174 -2.16659 -5.59624 0
M  V30 2085 H 195.244 -2.41518 -4.20473 0
M  V30 2086 N 196.587 1.43421 -0.653314 0
M  V30 2087 C 197.836 2.01032 -0.164076 0
M  V30 2088 C 198.149 1.52147 1.22926 0
M  V30 2089 O 199.355 2.02031 1.81371 0
M  V30 2090 C 197.811 3.59082 -0.24252 0
M  V30 2091 C 197.419 4.1696 -1.63855 0
M  V30 2092 C 199.163 4.24079 0.18911 0
M  V30 2093 C 197.07 5.67304 -1.67092 0
M  V30 2094 H 196 0.751798 -0.0575769 0
M  V30 2095 H 198.651 1.6439 -0.815362 0
M  V30 2096 H 197.033 3.93125 0.476276 0
M  V30 2097 H 198.207 3.94416 -2.38271 0
M  V30 2098 H 196.522 3.64335 -2.01616 0
M  V30 2099 H 199.119 5.34381 0.184775 0
M  V30 2100 H 199.462 3.98005 1.22056 0
M  V30 2101 H 199.995 3.94918 -0.477938 0
M  V30 2102 H 196.734 5.98145 -2.68146 0
M  V30 2103 H 196.254 5.91904 -0.970014 0
M  V30 2104 H 197.933 6.31344 -1.4147 0
M  V30 2105 N 198.065 0.39524 1.52563 0
M  V30 2106 C 199.29 -0.187456 2.06551 0
M  V30 2107 C 199.715 -1.39249 1.26457 0
M  V30 2108 O 199.073 -1.78947 0.291151 0
M  V30 2109 C 199.121 -0.529985 3.56684 0
M  V30 2110 O 198.225 -1.62307 3.79118 0
M  V30 2111 H 197.566 -0.0202537 0.663691 0
M  V30 2112 H 200.096 0.564426 1.96661 0
M  V30 2113 H 200.106 -0.792598 4.00227 0
M  V30 2114 H 198.781 0.350987 4.14416 0
M  V30 2115 H 197.358 -1.3537 3.47461 0
M  V30 2116 N 199.544 -1.57102 0.125237 0
M  V30 2117 C 200.793 -1.94582 -0.531095 0
M  V30 2118 C 201.106 -1.01126 -1.6743 0
M  V30 2119 O 202.312 -1.28097 -2.39381 0
M  V30 2120 C 200.768 -3.45839 -0.996164 0
M  V30 2121 C 200.376 -4.47842 0.118926 0
M  V30 2122 C 202.12 -3.92227 -1.62352 0
M  V30 2123 C 200.027 -5.90284 -0.363192 0
M  V30 2124 H 198.957 -0.726391 -0.20217 0
M  V30 2125 H 201.608 -1.82339 0.206092 0
M  V30 2126 H 199.99 -3.53338 -1.78796 0
M  V30 2127 H 201.164 -4.52018 0.895358 0
M  V30 2128 H 199.479 -4.11243 0.653324 0
M  V30 2129 H 202.076 -4.96069 -1.99548 0
M  V30 2130 H 202.419 -3.32552 -2.50429 0
M  V30 2131 H 202.952 -3.87554 -0.897019 0
M  V30 2132 H 199.691 -6.53728 0.481679 0
M  V30 2133 H 199.211 -5.89515 -1.10597 0
M  V30 2134 H 200.89 -6.41752 -0.822377 0
M  V30 2135 N 201.022 0.148545 -1.56898 0
M  V30 2136 C 202.271 0.85984 -1.82454 0
M  V30 2137 C 202.584 1.82406 -0.706229 0
M  V30 2138 O 203.79 2.57938 -0.847349 0
M  V30 2139 C 202.246 1.57967 -3.2338 0
M  V30 2140 C 201.854 0.65794 -4.43142 0
M  V30 2141 C 203.598 2.27784 -3.58211 0
M  V30 2142 C 201.505 1.3793 -5.75091 0
M  V30 2143 H 200.435 0.324834 -0.68044 0
M  V30 2144 H 203.086 0.112588 -1.83154 0
M  V30 2145 H 201.468 2.37249 -3.17063 0
M  V30 2146 H 202.642 -0.0995497 -4.60692 0
M  V30 2147 H 200.957 0.0682643 -4.16344 0
M  V30 2148 H 203.554 2.8239 -4.54048 0
M  V30 2149 H 203.897 3.04204 -2.84193 0
M  V30 2150 H 204.43 1.55421 -3.66182 0
M  V30 2151 H 201.169 0.656982 -6.52199 0
M  V30 2152 H 200.689 2.10954 -5.61479 0
M  V30 2153 H 202.368 1.92063 -6.17835 0
M  V30 2154 N 202.5 1.5196 0.417844 0
M  V30 2155 C 203.777 1.56146 1.17803 0
M  V30 2156 C 204.157 0.337275 2.08388 0
M  V30 2157 O 203.505 -0.676447 2.18258 0
M  V30 2158 C 203.715 2.88566 1.96293 0
M  V30 2159 C 205.063 3.41244 2.52662 0
M  V30 2160 O 206.087 2.90247 2.06483 0
M  V30 2161 O 204.946 4.30273 3.36938 0
M  V30 2162 H 202.04 0.628598 0.537395 0
M  V30 2163 H 204.586 1.64283 0.425331 0
M  V30 2164 H 203.358 3.69116 1.2988 0
M  V30 2165 H 202.981 2.83681 2.78587 0
M  V30 2166 N 203.978 -0.674533 1.42435 0
M  V30 2167 C 204.928 -1.7807 1.4239 0
M  V30 2168 C 205.912 -1.58169 0.295202 0
M  V30 2169 O 207.104 -1.68643 0.537449 0
M  V30 2170 C 204.233 -3.16532 1.32901 0
M  V30 2171 C 203.319 -3.42055 2.50717 0
M  V30 2172 N 203.71 -3.38162 3.76139 0
M  V30 2173 C 202.008 -3.72692 2.44983 0
M  V30 2174 C 202.709 -3.63177 4.54398 0
M  V30 2175 N 201.685 -3.83954 3.84812 0
M  V30 2176 H 205.487 -1.73454 2.37257 0
M  V30 2177 H 203.001 -0.875381 1.36788 0
M  V30 2178 H 204.998 -3.958 1.30951 0
M  V30 2179 H 203.658 -3.22345 0.390363 0
M  V30 2180 H 204.669 -3.18057 4.0873 0
M  V30 2181 H 201.346 -3.85749 1.59699 0
M  V30 2182 H 202.736 -3.66125 5.63384 0
M  V30 2183 N 205.456 -1.28612 -0.910864 0
M  V30 2184 C 206.686 -1.1862 -1.69153 0
M  V30 2185 C 207.094 0.257324 -1.87442 0
M  V30 2186 O 206.437 1.18543 -1.40332 0
M  V30 2187 C 206.499 -1.81606 -3.10257 0
M  V30 2188 C 206.163 -3.30864 -3.15243 0
M  V30 2189 C 207.16 -4.27256 -2.96223 0
M  V30 2190 C 204.845 -3.71871 -3.37664 0
M  V30 2191 C 206.839 -5.62631 -2.99541 0
M  V30 2192 C 204.526 -5.07371 -3.40614 0
M  V30 2193 C 205.524 -6.02561 -3.21573 0
M  V30 2194 O 205.212 -7.35589 -3.2429 0
M  V30 2195 H 204.944 -0.412633 -0.535453 0
M  V30 2196 H 207.498 -1.70306 -1.14827 0
M  V30 2197 H 205.728 -1.24418 -3.66138 0
M  V30 2198 H 207.417 -1.66092 -3.70362 0
M  V30 2199 H 208.183 -3.9691 -2.78725 0
M  V30 2200 H 204.062 -2.98241 -3.5153 0
M  V30 2201 H 207.606 -6.36907 -2.84597 0
M  V30 2202 H 203.503 -5.37366 -3.57642 0
M  V30 2203 H 204.271 -7.44252 -3.40633 0
M  V30 2204 N 206.934 1.1197 -1.10907 0
M  V30 2205 C 207.881 2.17846 -0.762345 0
M  V30 2206 C 208.851 1.63995 0.263599 0
M  V30 2207 O 210.036 1.90273 0.141773 0
M  V30 2208 C 207.176 3.44487 -0.205651 0
M  V30 2209 C 206.289 4.12369 -1.28748 0
M  V30 2210 C 205.424 5.26674 -0.691919 0
M  V30 2211 C 204.463 5.86431 -1.75399 0
M  V30 2212 N 203.6 6.92142 -1.17833 0
M  V30 2213 H 208.44 2.46851 -1.6694 0
M  V30 2214 H 205.977 1.21188 -0.833776 0
M  V30 2215 H 207.935 4.16981 0.135037 0
M  V30 2216 H 206.565 3.15884 0.664613 0
M  V30 2217 H 205.617 3.38003 -1.74522 0
M  V30 2218 H 206.929 4.52844 -2.09125 0
M  V30 2219 H 206.083 6.05953 -0.300963 0
M  V30 2220 H 204.822 4.8749 0.143232 0
M  V30 2221 H 203.827 5.05835 -2.15432 0
M  V30 2222 H 205.052 6.27685 -2.59208 0
M  V30 2223 H 202.998 6.54985 -0.364725 0
M  V30 2224 H 202.915 7.31242 -1.91887 0
M  V30 2225 H 204.183 7.75237 -0.81408 0
M  V30 2226 N 208.412 0.89855 1.29475 0
M  V30 2227 C 209.658 0.534065 1.96263 0
M  V30 2228 C 210.013 -0.909415 1.69551 0
M  V30 2229 O 209.306 -1.63596 0.997349 0
M  V30 2230 C 209.5 0.761398 3.49195 0
M  V30 2231 C 209.329 2.22542 3.90775 0
M  V30 2232 C 208.099 2.87264 4.15701 0
M  V30 2233 C 210.297 3.20051 4.02581 0
M  V30 2234 N 208.279 4.24121 4.4384 0
M  V30 2235 C 209.65 4.42023 4.34759 0
M  V30 2236 C 211.705 3.15657 3.85052 0
M  V30 2237 C 210.408 5.60161 4.51235 0
M  V30 2238 C 212.434 4.33078 4.02737 0
M  V30 2239 C 211.796 5.5382 4.35273 0
M  V30 2240 H 207.895 0.245013 0.742625 0
M  V30 2241 H 210.479 1.15912 1.56437 0
M  V30 2242 H 208.65 0.165732 3.88046 0
M  V30 2243 H 210.382 0.362462 4.03074 0
M  V30 2244 H 207.137 2.38064 4.09417 0
M  V30 2245 H 207.561 4.94839 4.6202 0
M  V30 2246 H 212.203 2.23396 3.58962 0
M  V30 2247 H 209.921 6.52913 4.76162 0
M  V30 2248 H 213.507 4.31163 3.90628 0
M  V30 2249 H 212.387 6.43166 4.48672 0
M  V30 2250 N 209.89 -1.43072 0.660911 0
M  V30 2251 C 210.822 -2.29108 -0.0647641 0
M  V30 2252 C 211.835 -1.42928 -0.779448 0
M  V30 2253 O 213.024 -1.66788 -0.635921 0
M  V30 2254 C 210.124 -3.20032 -1.11503 0
M  V30 2255 C 209.297 -4.34792 -0.476955 0
M  V30 2256 C 208.356 -5.06534 -1.42513 0
M  V30 2257 O 207.382 -5.61538 -0.930771 0
M  V30 2258 N 208.584 -5.1075 -2.75889 0
M  V30 2259 H 211.349 -2.92029 0.673731 0
M  V30 2260 H 208.91 -1.53846 0.50427 0
M  V30 2261 H 210.902 -3.64892 -1.75032 0
M  V30 2262 H 209.472 -2.58658 -1.75541 0
M  V30 2263 H 208.692 -3.92752 0.337572 0
M  V30 2264 H 209.98 -5.0879 -0.0318525 0
M  V30 2265 H 209.378 -4.67447 -3.18606 0
M  V30 2266 H 207.935 -5.59302 -3.347 0
M  V30 2267 N 211.368 -0.403325 -1.52352 0
M  V30 2268 C 212.315 0.425011 -2.26853 0
M  V30 2269 C 213.285 1.04598 -1.29029 0
M  V30 2270 O 214.47 1.07135 -1.57882 0
M  V30 2271 C 211.61 1.53888 -3.08889 0
M  V30 2272 C 210.723 0.939396 -4.21663 0
M  V30 2273 C 209.858 2.02547 -4.91068 0
M  V30 2274 C 208.897 1.40263 -5.95813 0
M  V30 2275 N 208.034 2.4286 -6.58759 0
M  V30 2276 H 212.874 -0.21674 -2.97211 0
M  V30 2277 H 210.411 -0.118722 -1.4662 0
M  V30 2278 H 212.369 2.19558 -3.54753 0
M  V30 2279 H 210.999 2.15074 -2.40714 0
M  V30 2280 H 210.051 0.171898 -3.80011 0
M  V30 2281 H 211.363 0.44436 -4.96817 0
M  V30 2282 H 210.517 2.75958 -5.40308 0
M  V30 2283 H 209.256 2.55415 -4.15469 0
M  V30 2284 H 208.261 0.653833 -5.45898 0
M  V30 2285 H 209.486 0.881719 -6.73352 0
M  V30 2286 H 207.432 2.94871 -5.85992 0
M  V30 2287 H 207.349 1.98152 -7.2957 0
M  V30 2288 H 208.617 3.15858 -7.12639 0
M  V30 2289 N 212.846 1.57033 -0.133567 0
M  V30 2290 C 214.093 1.95686 0.520877 0
M  V30 2291 C 214.421 1.0177 1.6575 0
M  V30 2292 O 213.676 0.0443195 1.9565 0
M  V30 2293 C 213.975 3.40674 1.08057 0
M  V30 2294 C 213.641 4.50855 0.0637899 0
M  V30 2295 C 212.303 4.80716 -0.215757 0
M  V30 2296 C 214.655 5.17398 -0.62835 0
M  V30 2297 C 211.983 5.74433 -1.19348 0
M  V30 2298 C 214.335 6.12167 -1.5948 0
M  V30 2299 C 212.999 6.40414 -1.88218 0
M  V30 2300 H 212.269 0.716067 0.190602 0
M  V30 2301 H 214.916 1.9026 -0.217556 0
M  V30 2302 H 213.221 3.42865 1.89606 0
M  V30 2303 H 214.918 3.67902 1.59529 0
M  V30 2304 H 211.508 4.27605 0.291855 0
M  V30 2305 H 215.692 4.94472 -0.425562 0
M  V30 2306 H 210.948 5.94616 -1.42272 0
M  V30 2307 H 215.122 6.6281 -2.13671 0
M  V30 2308 H 212.749 7.12838 -2.64133 0
M  V30 2309 N 214.325 -0.140222 1.56975 0
M  V30 2310 C 215.571 -0.852949 1.83991 0
M  V30 2311 C 215.904 -1.80512 0.716187 0
M  V30 2312 O 215.179 -1.92479 -0.279681 0
M  V30 2313 C 215.462 -1.6215 3.21527 0
M  V30 2314 C 215.315 -0.690363 4.4447 0
M  V30 2315 C 216.634 -2.58247 3.56366 0
M  V30 2316 H 213.753 -0.308634 0.669264 0
M  V30 2317 H 216.395 -0.117898 1.89634 0
M  V30 2318 H 214.545 -2.24812 3.16847 0
M  V30 2319 H 216.217 -0.0742264 4.6124 0
M  V30 2320 H 214.46 -0.000396433 4.338 0
M  V30 2321 H 215.131 -1.2643 5.37326 0
M  V30 2322 H 217.607 -2.05701 3.61699 0
M  V30 2323 H 216.483 -3.09067 4.53617 0
M  V30 2324 H 216.744 -3.39923 2.82674 0
M  V30 2325 N 215.803 -1.52179 -0.40978 0
M  V30 2326 C 217.033 -1.69807 -1.17682 0
M  V30 2327 C 217.441 -0.406908 -1.84773 0
M  V30 2328 O 216.784 0.626863 -1.72673 0
M  V30 2329 C 216.846 -2.77712 -2.2829 0
M  V30 2330 C 216.51 -4.19481 -1.81341 0
M  V30 2331 C 217.507 -5.03345 -1.30154 0
M  V30 2332 C 215.192 -4.65713 -1.88194 0
M  V30 2333 C 217.186 -6.31511 -0.864416 0
M  V30 2334 C 214.873 -5.93869 -1.44093 0
M  V30 2335 C 215.871 -6.76597 -0.933023 0
M  V30 2336 O 215.559 -8.02354 -0.49838 0
M  V30 2337 H 215.291 -0.572372 -0.359675 0
M  V30 2338 H 217.845 -1.99511 -0.488311 0
M  V30 2339 H 216.075 -2.43383 -3.00502 0
M  V30 2340 H 217.764 -2.83946 -2.90051 0
M  V30 2341 H 218.53 -4.68819 -1.24232 0
M  V30 2342 H 214.409 -4.01424 -2.26671 0
M  V30 2343 H 217.953 -6.96033 -0.467286 0
M  V30 2344 H 213.85 -6.27903 -1.49694 0
M  V30 2345 H 214.618 -8.16135 -0.621747 0
M  V30 2346 N 217.281 0.66697 -1.42791 0
M  V30 2347 C 218.53 1.42278 -1.42968 0
M  V30 2348 C 218.843 1.9553 -0.0524489 0
M  V30 2349 O 220.049 2.71414 0.068363 0
M  V30 2350 C 218.505 2.57418 -2.51524 0
M  V30 2351 C 218.113 2.10832 -3.9529 0
M  V30 2352 C 219.857 3.34878 -2.60877 0
M  V30 2353 C 217.764 3.23101 -4.95338 0
M  V30 2354 H 216.694 0.534533 -0.531781 0
M  V30 2355 H 219.345 0.721302 -1.68729 0
M  V30 2356 H 217.727 3.29971 -2.18941 0
M  V30 2357 H 218.901 1.4538 -4.37266 0
M  V30 2358 H 217.216 1.46289 -3.89857 0
M  V30 2359 H 219.813 4.18505 -3.32802 0
M  V30 2360 H 220.156 3.81993 -1.6549 0
M  V30 2361 H 220.689 2.69398 -2.92693 0
M  V30 2362 H 217.428 2.80969 -5.9223 0
M  V30 2363 H 216.948 3.87309 -4.57987 0
M  V30 2364 H 218.627 3.88447 -5.17415 0
M  V30 2365 N 218.759 1.29093 0.90403 0
M  V30 2366 C 219.989 1.19516 1.68522 0
M  V30 2367 C 220.397 -0.24738 1.87576 0
M  V30 2368 O 219.74 -1.17798 1.40959 0
M  V30 2369 C 219.802 1.83249 3.0929 0
M  V30 2370 C 219.466 3.32531 3.13484 0
M  V30 2371 C 220.463 4.28821 2.93953 0
M  V30 2372 C 218.148 3.73656 3.35688 0
M  V30 2373 C 220.142 5.64212 2.96553 0
M  V30 2374 C 217.829 5.0917 3.37919 0
M  V30 2375 C 218.827 6.04258 3.18373 0
M  V30 2376 O 218.515 7.37298 3.20385 0
M  V30 2377 H 218.247 0.415467 0.533257 0
M  V30 2378 H 220.801 1.70912 1.13922 0
M  V30 2379 H 219.031 1.26358 3.65473 0
M  V30 2380 H 220.72 1.68054 3.69476 0
M  V30 2381 H 221.486 3.98382 2.76616 0
M  V30 2382 H 217.365 3.00101 3.49943 0
M  V30 2383 H 220.909 6.38407 2.81216 0
M  V30 2384 H 216.806 5.39256 3.54787 0
M  V30 2385 H 217.574 7.46048 3.36681 0
M  V30 2386 N 220.237 -1.11381 1.11499 0
M  V30 2387 C 221.514 -1.7955 0.775965 0
M  V30 2388 C 221.894 -1.97859 -0.73588 0
M  V30 2389 O 221.242 -1.56376 -1.66609 0
M  V30 2390 C 221.452 -3.13196 1.53977 0
M  V30 2391 C 222.8 -3.88227 1.71944 0
M  V30 2392 O 223.824 -3.22887 1.50407 0
M  V30 2393 O 222.683 -5.05477 2.07738 0
M  V30 2394 H 219.777 -0.777728 0.28119 0
M  V30 2395 H 222.323 -1.18118 1.21845 0
M  V30 2396 H 221.095 -2.95229 2.56818 0
M  V30 2397 H 220.718 -3.82342 1.09088 0
M  V30 2398 N 221.715 -0.905404 -1.28997 0
M  V30 2399 C 222.678 -0.392253 -2.25819 0
M  V30 2400 C 223.678 0.476753 -1.5357 0
M  V30 2401 O 224.868 0.280994 -1.71919 0
M  V30 2402 C 222 0.438588 -3.38067 0
M  V30 2403 H 223.193 -1.24743 -2.72725 0
M  V30 2404 H 220.746 -0.684051 -1.40536 0
M  V30 2405 H 221.481 1.31352 -2.96508 0
M  V30 2406 H 221.266 -0.184167 -3.91667 0
M  V30 2407 H 222.756 0.78873 -4.10084 0
M  V30 2408 N 223.193 1.4272 -0.668489 0
M  V30 2409 C 224.47 1.95248 -0.117373 0
M  V30 2410 C 224.85 1.60919 1.36632 0
M  V30 2411 O 224.198 0.902095 2.09939 0
M  V30 2412 C 224.408 3.46927 -0.379806 0
M  V30 2413 C 225.756 4.23588 -0.292923 0
M  V30 2414 O 226.78 3.5482 -0.313204 0
M  V30 2415 O 225.639 5.46017 -0.229697 0
M  V30 2416 H 222.733 0.827 0.00079152 0
M  V30 2417 H 225.279 1.52581 -0.742783 0
M  V30 2418 H 224.051 3.65096 -1.40786 0
M  V30 2419 H 223.674 3.96627 0.277923 0
M  V30 2420 N 224.671 0.411399 1.52136 0
M  V30 2421 C 226.087 0.0623865 1.59478 0
M  V30 2422 C 226.287 -1.42554 1.4241 0
M  V30 2423 O 225.343 -2.19263 1.2522 0
M  V30 2424 C 226.656 0.559331 2.95452 0
M  V30 2425 C 228.204 0.517503 3.08692 0
M  V30 2426 C 228.679 0.990994 4.4715 0
M  V30 2427 N 230.17 0.947908 4.53397 0
M  V30 2428 C 230.905 1.28544 5.58806 0
M  V30 2429 N 230.401 1.69454 6.71757 0
M  V30 2430 N 232.194 1.20526 5.49026 0
M  V30 2431 H 224.345 1.37982 1.61477 0
M  V30 2432 H 226.608 0.566977 0.759764 0
M  V30 2433 H 226.314 1.59938 3.1323 0
M  V30 2434 H 226.188 -0.0298014 3.77188 0
M  V30 2435 H 228.575 -0.513505 2.90598 0
M  V30 2436 H 228.656 1.14272 2.28857 0
M  V30 2437 H 228.3 2.02034 4.65988 0
M  V30 2438 H 228.23 0.34257 5.25485 0
M  V30 2439 H 230.721 0.647157 3.72317 0
M  V30 2440 H 231.034 1.93513 7.48179 0
M  V30 2441 H 229.379 1.73359 6.73032 0
M  V30 2442 H 232.57 0.884505 4.59667 0
M  V30 2443 H 232.743 1.47161 6.31069 0
M  V30 2444 N 226.149 -1.5696 0.141893 0
M  V30 2445 C 227.397 -1.95573 -0.509484 0
M  V30 2446 C 227.718 -1.02746 -1.65736 0
M  V30 2447 O 226.988 -0.0880311 -1.95702 0
M  V30 2448 H 225.568 -0.722115 -0.191205 0
M  V30 2449 H 228.23 -1.93697 0.216196 0
M  V30 2450 H 227.326 -2.99171 -0.889 0
M  V30 2451 N 227.627 0.131896 -1.57047 0
M  V30 2452 C 228.557 1.16384 -2.02428 0
M  V30 2453 C 229.538 1.43936 -0.90644 0
M  V30 2454 O 230.723 1.54599 -1.17528 0
M  V30 2455 C 227.853 2.49328 -2.4177 0
M  V30 2456 C 226.807 2.36266 -3.56879 0
M  V30 2457 C 226.133 3.74057 -3.8208 0
M  V30 2458 C 227.433 1.834 -4.89042 0
M  V30 2459 H 229.127 0.786433 -2.88887 0
M  V30 2460 H 226.673 0.376855 -1.38981 0
M  V30 2461 H 228.626 3.21759 -2.7212 0
M  V30 2462 H 227.35 2.88934 -1.52266 0
M  V30 2463 H 226.009 1.66286 -3.26718 0
M  V30 2464 H 225.657 4.11125 -2.89803 0
M  V30 2465 H 225.357 3.66174 -4.59554 0
M  V30 2466 H 226.881 4.48012 -4.1487 0
M  V30 2467 H 228.295 2.45636 -5.18011 0
M  V30 2468 H 226.692 1.8637 -5.70426 0
M  V30 2469 H 227.762 0.790662 -4.7841 0
M  V30 2470 N 229.106 1.52395 0.401703 0
M  V30 2471 C 230.331 1.70972 1.17403 0
M  V30 2472 C 230.756 0.421615 1.83314 0
M  V30 2473 O 230.114 -0.621564 1.70312 0
M  V30 2474 C 230.162 2.85151 2.20728 0
M  V30 2475 O 229.266 2.51238 3.27037 0
M  V30 2476 H 228.607 0.568927 0.342372 0
M  V30 2477 H 231.137 1.99131 0.469891 0
M  V30 2478 H 231.147 3.10279 2.64936 0
M  V30 2479 H 229.822 3.78603 1.7214 0
M  V30 2480 H 228.399 2.36808 2.88057 0
M  V30 2481 N 230.584 -0.659388 1.43143 0
M  V30 2482 C 231.83 -1.42145 1.44647 0
M  V30 2483 C 232.163 -1.9408 0.0681907 0
M  V30 2484 O 231.438 -1.71899 -0.910007 0
M  V30 2485 C 231.721 -2.60735 2.48373 0
M  V30 2486 C 231.574 -2.14332 3.95451 0
M  V30 2487 C 232.893 -3.62951 2.48906 0
M  V30 2488 H 230.012 -0.51552 0.526696 0
M  V30 2489 H 232.654 -0.748069 1.74654 0
M  V30 2490 H 230.804 -3.18184 2.22916 0
M  V30 2491 H 232.476 -1.61932 4.31944 0
M  V30 2492 H 230.719 -1.4576 4.08578 0
M  V30 2493 H 231.39 -2.99583 4.63631 0
M  V30 2494 H 233.866 -3.1525 2.71582 0
M  V30 2495 H 232.742 -4.43487 3.23435 0
M  V30 2496 H 233.003 -4.15126 1.52061 0
M  V30 2497 N 232.062 -1.29571 -0.897171 0
M  V30 2498 C 232.992 -1.17473 -2.01798 0
M  V30 2499 C 233.973 -0.068323 -1.69963 0
M  V30 2500 O 235.158 -0.248239 -1.92607 0
M  V30 2501 C 232.288 -0.853099 -3.36659 0
M  V30 2502 C 231.242 -1.9161 -3.82713 0
M  V30 2503 C 230.568 -1.44773 -5.14728 0
M  V30 2504 C 231.868 -3.32535 -4.02763 0
M  V30 2505 H 233.562 -2.11237 -2.12177 0
M  V30 2506 H 231.108 -1.01699 -1.01948 0
M  V30 2507 H 233.061 -0.755165 -4.14578 0
M  V30 2508 H 231.785 0.120236 -3.26379 0
M  V30 2509 H 230.444 -2.00346 -3.07013 0
M  V30 2510 H 230.092 -0.462995 -5.00865 0
M  V30 2511 H 229.792 -2.15865 -5.46513 0
M  V30 2512 H 231.316 -1.36334 -5.95185 0
M  V30 2513 H 232.73 -3.26626 -4.71156 0
M  V30 2514 H 231.127 -4.01607 -4.45905 0
M  V30 2515 H 232.197 -3.75326 -3.07016 0
M  V30 2516 N 233.54 1.10788 -1.12088 0
M  V30 2517 C 234.472 2.16816 -0.743213 0
M  V30 2518 C 235.485 1.6119 0.228412 0
M  V30 2519 O 236.674 1.78497 0.0102931 0
M  V30 2520 C 233.774 3.38809 -0.0787313 0
M  V30 2521 C 232.947 4.23885 -1.0789 0
M  V30 2522 C 232.006 5.24334 -0.442713 0
M  V30 2523 O 231.032 5.58497 -1.09864 0
M  V30 2524 N 232.234 5.75079 0.791457 0
M  V30 2525 H 234.999 2.49825 -1.65552 0
M  V30 2526 H 232.56 1.26373 -1.012 0
M  V30 2527 H 234.552 4.03107 0.358766 0
M  V30 2528 H 233.122 3.03805 0.736275 0
M  V30 2529 H 232.342 3.55939 -1.69414 0
M  V30 2530 H 233.63 4.77562 -1.75533 0
M  V30 2531 H 233.028 5.49517 1.3434 0
M  V30 2532 H 231.585 6.4118 1.17183 0
M  V30 2533 N 235.018 0.912232 1.28515 0
M  V30 2534 C 235.965 0.397954 2.27343 0
M  V30 2535 C 236.935 -0.526766 1.57526 0
M  V30 2536 O 238.12 -0.449292 1.85435 0
M  V30 2537 C 235.26 -0.357263 3.43246 0
M  V30 2538 C 234.373 0.599788 4.27816 0
M  V30 2539 C 233.508 -0.173725 5.30916 0
M  V30 2540 C 232.547 0.777039 6.07148 0
M  V30 2541 N 231.684 0.0371398 7.0209 0
M  V30 2542 H 236.524 1.24577 2.70711 0
M  V30 2543 H 234.061 0.625612 1.33133 0
M  V30 2544 H 236.019 -0.8113 4.09236 0
M  V30 2545 H 234.649 -1.16943 3.00872 0
M  V30 2546 H 233.701 1.17235 3.61884 0
M  V30 2547 H 235.013 1.32704 4.80823 0
M  V30 2548 H 234.167 -0.688394 6.02782 0
M  V30 2549 H 232.906 -0.934041 4.78672 0
M  V30 2550 H 231.911 1.3031 5.34134 0
M  V30 2551 H 233.136 1.53689 6.61481 0
M  V30 2552 H 231.082 -0.705213 6.52198 0
M  V30 2553 H 230.999 0.704249 7.52713 0
M  V30 2554 H 232.267 -0.457383 7.78157 0
M  V30 2555 N 236.496 -1.42363 0.676048 0
M  V30 2556 C 237.742 -2.0182 0.199125 0
M  V30 2557 C 238.075 -1.53339 -1.19168 0
M  V30 2558 O 237.35 -0.736124 -1.80032 0
M  V30 2559 C 237.633 -3.59331 0.235144 0
M  V30 2560 C 237.486 -4.17989 1.66149 0
M  V30 2561 C 238.805 -4.3813 -0.41595 0
M  V30 2562 H 235.924 -0.733293 0.0738311 0
M  V30 2563 H 238.566 -1.69368 0.86107 0
M  V30 2564 H 236.716 -3.87109 -0.328487 0
M  V30 2565 H 238.388 -4.0116 2.27747 0
M  V30 2566 H 236.631 -3.7377 2.20178 0
M  V30 2567 H 237.302 -5.27126 1.63837 0
M  V30 2568 H 239.778 -4.16051 0.0638529 0
M  V30 2569 H 238.654 -5.47717 -0.360115 0
M  V30 2570 H 238.915 -4.16101 -1.49373 0
M  V30 2571 N 237.974 -0.419461 -1.51915 0
M  V30 2572 C 238.904 0.391813 -2.30189 0
M  V30 2573 C 239.885 1.03699 -1.34836 0
M  V30 2574 O 241.07 1.04403 -1.63748 0
M  V30 2575 C 238.2 1.50312 -3.13087 0
M  V30 2576 C 237.154 0.9824 -4.16573 0
M  V30 2577 C 236.48 2.18809 -4.8788 0
M  V30 2578 C 237.78 0.0292356 -5.22292 0
M  V30 2579 H 239.474 -0.26135 -2.98257 0
M  V30 2580 H 237.02 -0.127134 -1.43438 0
M  V30 2581 H 238.973 2.07773 -3.66617 0
M  V30 2582 H 237.697 2.18431 -2.42807 0
M  V30 2583 H 236.356 0.430119 -3.64068 0
M  V30 2584 H 236.004 2.85507 -4.14119 0
M  V30 2585 H 235.704 1.84615 -5.57845 0
M  V30 2586 H 237.228 2.76858 -5.44226 0
M  V30 2587 H 238.642 0.512976 -5.71 0
M  V30 2588 H 237.039 -0.2244 -5.9968 0
M  V30 2589 H 238.109 -0.912931 -4.76228 0
M  V30 2590 N 239.452 1.56882 -0.150215 0
M  V30 2591 C 240.729 1.87844 0.545327 0
M  V30 2592 C 241.109 1.0567 1.82749 0
M  V30 2593 O 240.457 0.144442 2.28043 0
M  V30 2594 C 240.667 3.39526 0.80767 0
M  V30 2595 C 242.015 4.08814 1.14703 0
M  V30 2596 O 243.039 3.44723 0.896917 0
M  V30 2597 O 241.898 5.22004 1.61784 0
M  V30 2598 H 238.992 0.778677 0.278553 0
M  V30 2599 H 241.538 1.68666 -0.187068 0
M  V30 2600 H 240.31 3.91173 -0.0996096 0
M  V30 2601 H 239.933 3.64243 1.59413 0
M  V30 2602 N 240.93 -0.123565 1.57115 0
M  V30 2603 C 242.158 -0.846461 1.88793 0
M  V30 2604 C 242.573 -1.73652 0.740976 0
M  V30 2605 O 241.93 -1.80207 -0.288393 0
M  V30 2606 C 241.981 -1.6837 3.19897 0
M  V30 2607 O 241.702 -0.829477 4.30176 0
M  V30 2608 C 243.203 -2.51214 3.65248 0
M  V30 2609 H 240.423 -0.243573 0.625231 0
M  V30 2610 H 242.967 -0.109324 2.04208 0
M  V30 2611 H 241.122 -2.37364 3.06165 0
M  V30 2612 H 241.536 -1.40651 5.0529 0
M  V30 2613 H 243.01 -3.05497 4.59756 0
M  V30 2614 H 243.487 -3.28359 2.9168 0
M  V30 2615 H 244.093 -1.8747 3.81752 0
M  V30 2616 N 242.408 -1.52605 -0.393616 0
M  V30 2617 C 243.371 -1.76415 -1.46323 0
M  V30 2618 C 244.371 -0.634126 -1.47768 0
M  V30 2619 O 245.561 -0.902142 -1.4902 0
M  V30 2620 C 242.693 -1.8607 -2.85641 0
M  V30 2621 H 243.886 -2.71916 -1.26498 0
M  V30 2622 H 241.439 -1.43257 -0.625073 0
M  V30 2623 H 242.174 -0.925378 -3.10817 0
M  V30 2624 H 241.959 -2.68235 -2.85993 0
M  V30 2625 H 243.449 -2.06179 -3.63153 0
M  V30 2626 N 243.887 0.651787 -1.4349 0
M  V30 2627 C 244.85 1.74647 -1.48429 0
M  V30 2628 C 245.85 1.56513 -0.368817 0
M  V30 2629 O 247.04 1.62385 -0.630623 0
M  V30 2630 C 244.172 3.13533 -1.33827 0
M  V30 2631 H 245.365 1.71649 -2.4592 0
M  V30 2632 H 242.918 0.863573 -1.30277 0
M  V30 2633 H 243.653 3.22142 -0.37349 0
M  V30 2634 H 243.438 3.28101 -2.14691 0
M  V30 2635 H 244.928 3.93356 -1.40218 0
M  V30 2636 N 245.365 1.30045 0.890287 0
M  V30 2637 C 246.275 1.17885 2.02831 0
M  V30 2638 C 247.291 0.0999609 1.73713 0
M  V30 2639 O 248.467 0.313867 1.98939 0
M  V30 2640 C 245.532 0.866079 3.35708 0
M  V30 2641 C 244.593 2.02979 3.78283 0
M  V30 2642 C 243.826 1.73184 5.0482 0
M  V30 2643 O 244.049 0.657237 5.66601 0
M  V30 2644 O 242.983 2.58267 5.43674 0
M  V30 2645 H 246.809 2.13474 2.16015 0
M  V30 2646 H 244.394 1.09587 1.01543 0
M  V30 2647 H 246.276 0.706623 4.15433 0
M  V30 2648 H 244.951 -0.0599443 3.23644 0
M  V30 2649 H 243.858 2.24454 2.99285 0
M  V30 2650 H 245.191 2.93734 3.94944 0
M  V30 2651 N 246.843 -1.10192 1.12674 0
M  V30 2652 C 247.79 -2.16606 0.796906 0
M  V30 2653 C 248.76 -1.64394 -0.237476 0
M  V30 2654 O 249.945 -1.90474 -0.111484 0
M  V30 2655 C 247.085 -3.44116 0.26043 0
M  V30 2656 C 246.198 -4.10268 1.35293 0
M  V30 2657 C 245.333 -5.25507 0.775621 0
M  V30 2658 C 244.372 -5.83567 1.84706 0
M  V30 2659 N 243.509 -6.90179 1.28829 0
M  V30 2660 H 248.349 -2.44163 1.70846 0
M  V30 2661 H 245.886 -1.19846 0.85295 0
M  V30 2662 H 247.844 -4.17143 -0.0686814 0
M  V30 2663 H 246.474 -3.16901 -0.614274 0
M  V30 2664 H 245.526 -3.35184 1.79877 0
M  V30 2665 H 246.838 -4.4946 2.16303 0
M  V30 2666 H 245.992 -6.05398 0.397327 0
M  V30 2667 H 244.731 -4.87656 -0.0656581 0
M  V30 2668 H 243.736 -5.02344 2.23452 0
M  V30 2669 H 244.961 -6.23482 2.69161 0
M  V30 2670 H 242.907 -6.54322 0.468881 0
M  V30 2671 H 242.824 -7.28097 2.03497 0
M  V30 2672 H 244.092 -7.73844 0.937311 0
M  V30 2673 N 248.321 -0.919034 -1.28029 0
M  V30 2674 C 249.269 -0.401753 -2.29104 0
M  V30 2675 C 250.263 0.509354 -1.61561 0
M  V30 2676 O 251.469 0.390014 -1.75724 0
M  V30 2677 H 247.844 -0.111331 -0.743713 0
M  V30 2678 H 249.815 -1.2672 -2.70156 0
M  V30 2679 C 248.564 0.338148 -3.46052 0
M  V30 2680 H 247.887 -0.353732 -3.98232 0
M  V30 2681 H 249.327 0.664653 -4.18758 0
M  V30 2682 C 247.786 1.54798 -2.99231 0
M  V30 2683 O 248.316 2.64696 -3.02157 0
M  V30 2684 N 246.522 1.3968 -2.54829 0
M  V30 2685 H 246.069 0.502698 -2.52647 0
M  V30 2686 H 246.027 2.20755 -2.23863 0
M  V30 2687 N 249.799 1.42003 -0.683588 0
M  V30 2688 C 251.045 2.02223 -0.218536 0
M  V30 2689 C 251.4 1.53126 1.16492 0
M  V30 2690 O 250.693 0.727459 1.77253 0
M  V30 2691 C 250.887 3.56827 -0.202357 0
M  V30 2692 C 250.716 4.20928 -1.5827 0
M  V30 2693 C 249.486 4.5573 -2.18262 0
M  V30 2694 C 251.684 4.47933 -2.52706 0
M  V30 2695 N 249.666 5.05056 -3.48986 0
M  V30 2696 C 251.037 4.98906 -3.68094 0
M  V30 2697 C 253.092 4.29931 -2.51125 0
M  V30 2698 C 251.795 5.33768 -4.82166 0
M  V30 2699 C 253.821 4.65875 -3.643 0
M  V30 2700 C 253.183 5.17008 -4.78417 0
M  V30 2701 H 249.282 0.771931 -0.125088 0
M  V30 2702 H 251.866 1.72729 -0.898479 0
M  V30 2703 H 250.037 3.85819 0.447029 0
M  V30 2704 H 251.769 4.03755 0.276399 0
M  V30 2705 H 248.524 4.41781 -1.70665 0
M  V30 2706 H 248.948 5.34139 -4.15962 0
M  V30 2707 H 253.59 3.89647 -1.6412 0
M  V30 2708 H 251.308 5.72981 -5.6984 0
M  V30 2709 H 254.894 4.53615 -3.64314 0
M  V30 2710 H 253.774 5.44301 -5.64541 0
M  V30 2711 N 251.277 0.427512 1.51691 0
M  V30 2712 C 252.209 -0.424521 2.25234 0
M  V30 2713 C 253.222 -0.994671 1.2888 0
M  V30 2714 O 254.411 -0.890483 1.54702 0
M  V30 2715 C 251.511 -1.60479 2.98496 0
M  V30 2716 C 250.684 -1.15527 4.21868 0
M  V30 2717 C 249.743 -2.20454 4.77793 0
M  V30 2718 O 248.769 -1.8029 5.39893 0
M  V30 2719 N 249.971 -3.52831 4.60967 0
M  V30 2720 H 252.736 0.205749 2.98993 0
M  V30 2721 H 250.297 0.255867 1.59865 0
M  V30 2722 H 252.289 -2.30276 3.32799 0
M  V30 2723 H 250.859 -2.14061 2.27809 0
M  V30 2724 H 250.079 -0.284736 3.9317 0
M  V30 2725 H 251.367 -0.832173 5.01949 0
M  V30 2726 H 250.765 -3.88201 4.11481 0
M  V30 2727 H 249.322 -4.18551 4.99658 0
M  V30 2728 N 252.755 -1.56801 0.158532 0
M  V30 2729 C 254.001 -1.96781 -0.490405 0
M  V30 2730 C 254.334 -1.04397 -1.63753 0
M  V30 2731 O 253.609 -0.0885805 -1.94298 0
M  V30 2732 C 253.892 -3.4635 -0.985594 0
M  V30 2733 C 253.745 -4.49512 0.160824 0
M  V30 2734 C 255.064 -3.98697 -1.86355 0
M  V30 2735 H 252.183 -0.715482 -0.176788 0
M  V30 2736 H 254.825 -1.88451 0.242088 0
M  V30 2737 H 252.975 -3.53579 -1.60978 0
M  V30 2738 H 254.647 -4.54353 0.797537 0
M  V30 2739 H 252.89 -4.26013 0.818256 0
M  V30 2740 H 253.561 -5.51531 -0.227569 0
M  V30 2741 H 256.037 -3.94019 -1.33746 0
M  V30 2742 H 254.913 -5.03792 -2.17909 0
M  V30 2743 H 255.174 -3.41744 -2.8047 0
M  V30 2744 N 254.233 0.115231 -1.57178 0
M  V30 2745 C 255.461 0.836437 -1.89239 0
M  V30 2746 C 255.876 1.73256 -0.750175 0
M  V30 2747 O 255.233 1.80357 0.278832 0
M  V30 2748 C 255.284 1.66671 -3.20785 0
M  V30 2749 O 255.005 0.806652 -4.3061 0
M  V30 2750 C 256.506 2.49274 -3.66575 0
M  V30 2751 H 253.726 0.240253 -0.626514 0
M  V30 2752 H 256.27 0.0984932 -2.04263 0
M  V30 2753 H 254.425 2.35737 -3.0742 0
M  V30 2754 H 254.839 1.37969 -5.06028 0
M  V30 2755 H 256.313 3.03055 -4.6137 0
M  V30 2756 H 256.79 3.26807 -2.93417 0
M  V30 2757 H 257.396 1.85443 -3.82741 0
M  V30 2758 N 255.711 1.52812 0.385517 0
M  V30 2759 C 256.674 1.77188 1.45386 0
M  V30 2760 C 257.674 0.641953 1.4743 0
M  V30 2761 O 258.864 0.910033 1.4854 0
M  V30 2762 C 255.996 1.87582 2.8465 0
M  V30 2763 H 257.189 2.72583 1.25054 0
M  V30 2764 H 254.742 1.43586 0.617467 0
M  V30 2765 H 255.477 0.941849 3.10322 0
M  V30 2766 H 255.262 2.69748 2.84567 0
M  V30 2767 H 256.752 2.08102 3.62054 0
M  V30 2768 N 257.189 -0.644168 1.43834 0
M  V30 2769 C 258.435 -1.40603 1.46146 0
M  V30 2770 C 258.768 -1.93997 0.0887717 0
M  V30 2771 O 258.043 -1.72854 -0.891724 0
M  V30 2772 C 258.326 -2.58086 2.51124 0
M  V30 2773 C 258.179 -2.10126 3.97702 0
M  V30 2774 C 259.498 -3.60291 2.52742 0
M  V30 2775 H 256.617 -0.509905 0.532134 0
M  V30 2776 H 259.259 -0.729502 1.75437 0
M  V30 2777 H 257.409 -3.15801 2.26278 0
M  V30 2778 H 259.081 -1.57342 4.33637 0
M  V30 2779 H 257.324 -1.41419 4.10101 0
M  V30 2780 H 257.995 -2.94649 4.66783 0
M  V30 2781 H 260.471 -3.12352 2.7491 0
M  V30 2782 H 259.347 -4.40032 3.28121 0
M  V30 2783 H 259.608 -4.1349 1.56455 0
M  V30 2784 N 258.668 -1.30515 -0.883378 0
M  V30 2785 C 259.616 -1.16941 -2.01066 0
M  V30 2786 C 260.61 -0.0809148 -1.69207 0
M  V30 2787 O 261.816 -0.241877 -1.78367 0
M  V30 2788 H 258.191 -0.361705 -0.659298 0
M  V30 2789 H 260.162 -2.12344 -2.09649 0
M  V30 2790 C 258.911 -0.879694 -3.36388 0
M  V30 2791 H 258.234 -1.70936 -3.61415 0
M  V30 2792 H 259.674 -0.82483 -4.159 0
M  V30 2793 C 258.133 0.417409 -3.34304 0
M  V30 2794 O 258.663 1.43843 -3.75063 0
M  V30 2795 N 256.869 0.429141 -2.87414 0
M  V30 2796 H 256.416 -0.402222 -2.5444 0
M  V30 2797 H 256.374 1.29696 -2.86403 0
M  V30 2798 N 260.146 1.09593 -1.13257 0
M  V30 2799 C 261.395 1.81105 -0.887917 0
M  V30 2800 C 261.708 1.86563 0.587672 0
M  V30 2801 O 262.914 2.54367 0.949204 0
M  V30 2802 C 261.37 3.25338 -1.53895 0
M  V30 2803 C 260.978 3.28151 -3.04994 0
M  V30 2804 C 262.722 4.01617 -1.37492 0
M  V30 2805 C 260.629 4.66897 -3.6299 0
M  V30 2806 H 259.559 0.678661 -0.328534 0
M  V30 2807 H 262.21 1.23183 -1.36008 0
M  V30 2808 H 260.592 3.8331 -0.994446 0
M  V30 2809 H 261.766 2.79953 -3.66009 0
M  V30 2810 H 260.081 2.65361 -3.20893 0
M  V30 2811 H 262.678 5.04119 -1.78235 0
M  V30 2812 H 263.021 4.15072 -0.31957 0
M  V30 2813 H 263.554 3.50082 -1.88912 0
M  V30 2814 H 260.293 4.58643 -4.68323 0
M  V30 2815 H 259.813 5.15426 -3.06752 0
M  V30 2816 H 261.492 5.3587 -3.62563 0
M  V30 2817 N 261.624 0.925811 1.2754 0
M  V30 2818 C 262.554 0.440748 2.29303 0
M  V30 2819 C 263.535 -0.497971 1.62648 0
M  V30 2820 O 264.72 -0.403126 1.8997 0
M  V30 2821 C 261.85 -0.309048 3.45922 0
M  V30 2822 C 260.804 0.54166 4.24559 0
M  V30 2823 C 260.13 -0.337191 5.33636 0
M  V30 2824 C 261.43 1.80516 4.90114 0
M  V30 2825 H 263.124 1.29121 2.70126 0
M  V30 2826 H 260.67 0.622323 1.29858 0
M  V30 2827 H 262.623 -0.659315 4.1621 0
M  V30 2828 H 261.347 -1.19352 3.04011 0
M  V30 2829 H 260.006 0.874609 3.56014 0
M  V30 2830 H 259.654 -1.22056 4.87966 0
M  V30 2831 H 259.354 0.228497 5.87156 0
M  V30 2832 H 260.878 -0.683072 6.06767 0
M  V30 2833 H 262.292 1.52307 5.52698 0
M  V30 2834 H 260.689 2.3142 5.53683 0
M  V30 2835 H 261.759 2.52581 4.13921 0
M  V30 2836 N 263.102 -1.41638 0.69111 0
M  V30 2837 C 264.33 -2.05628 0.22909 0
M  V30 2838 C 264.745 -1.51992 -1.11999 0
M  V30 2839 O 264.102 -0.666322 -1.69901 0
M  V30 2840 C 264.153 -3.61084 0.173283 0
M  V30 2841 O 263.874 -4.12735 1.46907 0
M  V30 2842 C 265.375 -4.42213 -0.310266 0
M  V30 2843 H 262.595 -0.662327 0.107534 0
M  V30 2844 H 265.139 -1.81489 0.942438 0
M  V30 2845 H 263.294 -3.84278 -0.490858 0
M  V30 2846 H 263.708 -5.06743 1.35322 0
M  V30 2847 H 265.182 -5.51194 -0.298196 0
M  V30 2848 H 265.659 -4.1799 -1.34838 0
M  V30 2849 H 266.265 -4.24074 0.322716 0
M  V30 2850 N 264.58 -0.43555 -1.51462 0
M  V30 2851 C 265.808 0.130242 -2.0649 0
M  V30 2852 C 266.223 1.36614 -1.30315 0
M  V30 2853 O 265.58 1.78869 -0.362223 0
M  V30 2854 C 265.631 0.454253 -3.58635 0
M  V30 2855 O 265.352 -0.73259 -4.31931 0
M  V30 2856 C 266.853 1.07091 -4.3017 0
M  V30 2857 H 264.073 0.00871669 -0.670943 0
M  V30 2858 H 266.617 -0.614117 -1.95061 0
M  V30 2859 H 264.772 1.14851 -3.69984 0
M  V30 2860 H 265.186 -0.455787 -5.22516 0
M  V30 2861 H 266.66 1.24764 -5.37716 0
M  V30 2862 H 267.137 2.05144 -3.88346 0
M  V30 2863 H 267.743 0.416089 -4.2326 0
M  V30 2864 N 266.058 1.56714 -0.166846 0
M  V30 2865 C 267.286 2.0112 0.485644 0
M  V30 2866 C 267.701 1.04705 1.57106 0
M  V30 2867 O 267.058 0.0471923 1.82439 0
M  V30 2868 C 267.109 3.45361 1.06808 0
M  V30 2869 O 266.83 4.38092 0.0259995 0
M  V30 2870 C 268.331 4.05145 1.79924 0
M  V30 2871 H 265.551 0.65931 0.124704 0
M  V30 2872 H 268.095 2.02746 -0.267262 0
M  V30 2873 H 266.25 3.44524 1.7715 0
M  V30 2874 H 266.664 5.22519 0.455398 0
M  V30 2875 H 268.138 5.08009 2.15942 0
M  V30 2876 H 268.615 3.46982 2.69258 0
M  V30 2877 H 269.221 4.09672 1.14234 0
M  V30 2878 N 267.536 -0.106894 1.57237 0
M  V30 2879 C 268.446 -1.14911 2.0453 0
M  V30 2880 C 269.462 -1.44592 0.96795 0
M  V30 2881 O 270.638 -1.55468 1.2803 0
M  V30 2882 C 267.703 -2.45272 2.45036 0
M  V30 2883 C 266.764 -2.22879 3.66911 0
M  V30 2884 C 265.997 -3.47024 4.05475 0
M  V30 2885 O 266.22 -4.54804 3.44252 0
M  V30 2886 O 265.154 -3.3731 4.98504 0
M  V30 2887 H 268.98 -0.777461 2.9358 0
M  V30 2888 H 266.565 -0.318563 1.45964 0
M  V30 2889 H 268.447 -3.22055 2.71769 0
M  V30 2890 H 267.122 -2.81886 1.59129 0
M  V30 2891 H 266.029 -1.43915 3.45311 0
M  V30 2892 H 267.362 -1.91163 4.53561 0
M  V30 2893 N 269.014 -1.53014 -0.377408 0
M  V30 2894 C 269.924 -1.81557 -1.48574 0
M  V30 2895 C 270.94 -0.703102 -1.59162 0
M  V30 2896 O 272.116 -0.99192 -1.75279 0
M  V30 2897 C 269.181 -1.9889 -2.83978 0
M  V30 2898 C 268.242 -3.22801 -2.83016 0
M  V30 2899 C 267.475 -3.39298 -4.11962 0
M  V30 2900 O 267.698 -2.60345 -5.0752 0
M  V30 2901 O 266.632 -4.32604 -4.18494 0
M  V30 2902 H 270.458 -2.75695 -1.27382 0
M  V30 2903 H 268.043 -1.38248 -0.566373 0
M  V30 2904 H 269.925 -2.11931 -3.6423 0
M  V30 2905 H 268.6 -1.07942 -3.05172 0
M  V30 2906 H 267.507 -3.15193 -2.01505 0
M  V30 2907 H 268.84 -4.13632 -2.66775 0
M  V30 2908 N 270.492 0.636531 -1.44174 0
M  V30 2909 C 271.74 1.39343 -1.46383 0
M  V30 2910 C 272.061 1.94766 -0.0955715 0
M  V30 2911 O 271.331 1.75452 0.871395 0
M  V30 2912 H 269.911 0.517199 -0.538994 0
M  V30 2913 H 272.573 0.74957 -1.7991 0
M  V30 2914 H 271.669 2.22746 -2.18611 0
M  V30 2915 N 271.97 1.30982 0.876444 0
M  V30 2916 C 273.2 1.23063 1.65949 0
M  V30 2917 C 273.608 -0.207537 1.88058 0
M  V30 2918 O 272.951 -1.14781 1.43426 0
M  V30 2919 C 273.013 1.89768 3.05333 0
M  V30 2920 C 272.677 3.39106 3.0636 0
M  V30 2921 C 273.674 4.3496 2.84791 0
M  V30 2922 C 271.359 3.80693 3.27686 0
M  V30 2923 C 273.353 5.70375 2.84519 0
M  V30 2924 C 271.04 5.16223 3.27043 0
M  V30 2925 C 272.038 6.10875 3.05485 0
M  V30 2926 O 271.726 7.43928 3.04674 0
M  V30 2927 H 271.458 0.426685 0.524324 0
M  V30 2928 H 274.012 1.7329 1.10271 0
M  V30 2929 H 272.242 1.34082 3.6271 0
M  V30 2930 H 273.931 1.75853 3.65829 0
M  V30 2931 H 274.697 4.0416 2.68103 0
M  V30 2932 H 270.576 3.07457 3.43499 0
M  V30 2933 H 274.12 6.44228 2.67611 0
M  V30 2934 H 270.017 5.4666 3.43269 0
M  V30 2935 H 270.785 7.53022 3.2078 0
M  V30 2936 N 273.449 -1.08991 1.13837 0
M  V30 2937 C 274.865 -1.33312 0.877506 0
M  V30 2938 C 275.065 -1.95587 -0.48456 0
M  V30 2939 O 274.121 -2.20509 -1.23013 0
M  V30 2940 C 275.434 -2.24045 2.0056 0
M  V30 2941 C 276.982 -2.37542 2.03821 0
M  V30 2942 C 277.457 -3.31614 3.15905 0
M  V30 2943 N 278.948 -3.39189 3.15445 0
M  V30 2944 C 279.683 -4.11992 3.98811 0
M  V30 2945 N 279.179 -4.87553 4.92203 0
M  V30 2946 N 280.972 -4.07762 3.86894 0
M  V30 2947 H 273.123 -0.669456 2.01574 0
M  V30 2948 H 275.386 -0.357482 0.878015 0
M  V30 2949 H 275.092 -1.85521 2.98789 0
M  V30 2950 H 274.966 -3.24466 1.92359 0
M  V30 2951 H 277.353 -2.75327 1.06202 0
M  V30 2952 H 277.434 -1.36884 2.16093 0
M  V30 2953 H 277.078 -2.94551 4.13766 0
M  V30 2954 H 277.008 -4.32186 3.0087 0
M  V30 2955 H 279.499 -2.85314 2.47799 0
M  V30 2956 H 279.812 -5.40549 5.52292 0
M  V30 2957 H 278.157 -4.86627 4.96205 0
M  V30 2958 H 281.348 -3.47833 3.13257 0
M  V30 2959 H 281.521 -4.64238 4.52092 0
M  V30 2960 N 274.927 -0.932562 -1.27047 0
M  V30 2961 C 275.86 -0.379774 -2.25018 0
M  V30 2962 C 276.838 0.526587 -1.53837 0
M  V30 2963 O 278.022 0.465992 -1.82649 0
M  V30 2964 C 275.149 0.455187 -3.35627 0
M  V30 2965 C 274.195 -0.388428 -4.24728 0
M  V30 2966 S 275.028 -1.80701 -5.04091 0
M  V30 2967 C 276.184 -0.979865 -6.18182 0
M  V30 2968 H 276.417 -1.2101 -2.71558 0
M  V30 2969 H 273.95 -0.735078 -1.35779 0
M  V30 2970 H 275.908 0.931052 -3.99802 0
M  V30 2971 H 274.569 1.26009 -2.87716 0
M  V30 2972 H 273.762 0.25089 -5.03375 0
M  V30 2973 H 273.364 -0.798649 -3.65373 0
M  V30 2974 H 275.656 -0.218115 -6.77149 0
M  V30 2975 H 276.599 -1.73951 -6.86401 0
M  V30 2976 H 277.007 -0.51973 -5.62102 0
M  V30 2977 N 276.405 1.4127 -0.698611 0
M  V30 2978 C 277.335 2.33447 -0.049629 0
M  V30 2979 C 278.316 1.51982 0.763898 0
M  V30 2980 O 279.501 1.80509 0.716257 0
M  V30 2981 C 276.631 3.35828 0.885267 0
M  V30 2982 C 275.585 4.27627 0.178613 0
M  V30 2983 C 274.911 5.20406 1.22807 0
M  V30 2984 C 276.211 5.13459 -0.956933 0
M  V30 2985 H 277.905 2.87966 -0.81951 0
M  V30 2986 H 275.451 1.38461 -0.395538 0
M  V30 2987 H 277.404 3.9924 1.34854 0
M  V30 2988 H 276.128 2.79666 1.68685 0
M  V30 2989 H 274.787 3.65643 -0.26466 0
M  V30 2990 H 274.435 4.60558 2.02226 0
M  V30 2991 H 274.135 5.82661 0.760239 0
M  V30 2992 H 275.659 5.86695 1.69179 0
M  V30 2993 H 277.073 5.70421 -0.573805 0
M  V30 2994 H 275.47 5.8467 -1.35205 0
M  V30 2995 H 276.54 4.50443 -1.79524 0
M  V30 2996 N 277.883 0.443576 1.51229 0
M  V30 2997 C 279.13 -0.120796 2.02139 0
M  V30 2998 C 279.458 -1.42166 1.32736 0
M  V30 2999 O 278.713 -1.90849 0.43301 0
M  V30 3000 C 279.012 -0.380579 3.55368 0
M  V30 3001 C 278.678 0.83523 4.43097 0
M  V30 3002 C 277.34 1.16864 4.66794 0
M  V30 3003 C 279.692 1.64601 4.94526 0
M  V30 3004 C 277.02 2.31339 5.39165 0
M  V30 3005 C 279.372 2.78181 5.68153 0
M  V30 3006 C 278.036 3.11969 5.90112 0
M  V30 3007 H 277.306 -0.0442023 0.73968 0
M  V30 3008 H 279.953 0.592046 1.82118 0
M  V30 3009 H 278.258 -1.17538 3.73754 0
M  V30 3010 H 279.955 -0.830777 3.923 0
M  V30 3011 H 276.545 0.565437 4.24854 0
M  V30 3012 H 280.729 1.40163 4.76097 0
M  V30 3013 H 275.985 2.57823 5.5438 0
M  V30 3014 H 280.159 3.41371 6.06992 0
M  V30 3015 H 277.786 4.00784 6.45969 0
M  V30 3016 N 279.361 -1.56624 0.175154 0
M  V30 3017 C 280.293 -2.15333 -0.785128 0
M  V30 3018 C 281.306 -1.1099 -1.19101 0
M  V30 3019 O 282.495 -1.38162 -1.13019 0
M  V30 3020 C 279.595 -2.68427 -2.06882 0
M  V30 3021 C 278.768 -3.97466 -1.8259 0
M  V30 3022 C 277.827 -4.35585 -2.95215 0
M  V30 3023 O 276.853 -5.03389 -2.65684 0
M  V30 3024 N 278.055 -3.97457 -4.23094 0
M  V30 3025 H 280.82 -2.98359 -0.283187 0
M  V30 3026 H 278.381 -1.61898 -0.00749817 0
M  V30 3027 H 280.373 -2.90924 -2.81328 0
M  V30 3028 H 278.943 -1.89968 -2.48256 0
M  V30 3029 H 278.163 -3.83307 -0.920287 0
M  V30 3030 H 279.451 -4.81736 -1.63733 0
M  V30 3031 H 278.849 -3.42878 -4.49945 0
M  V30 3032 H 277.406 -4.24947 -4.9423 0
M  V30 3033 N 280.839 0.0985539 -1.57292 0
M  V30 3034 C 282.116 0.834155 -1.76921 0
M  V30 3035 C 282.496 1.97101 -0.755928 0
M  V30 3036 O 281.844 2.27474 0.216245 0
M  V30 3037 C 282.054 1.33194 -3.22584 0
M  V30 3038 C 283.402 1.77611 -3.85668 0
M  V30 3039 O 284.426 1.42825 -3.26312 0
M  V30 3040 O 283.285 2.4192 -4.90038 0
M  V30 3041 H 280.379 0.397628 -0.725135 0
M  V30 3042 H 282.925 0.0807044 -1.69508 0
M  V30 3043 H 281.697 0.517248 -3.87866 0
M  V30 3044 H 281.32 2.1475 -3.34616 0
M  V30 3045 N 282.317 1.53212 0.369288 0
M  V30 3046 C 283.247 1.82365 1.45826 0
M  V30 3047 C 284.228 0.676907 1.56051 0
M  V30 3048 O 285.413 0.926401 1.70679 0
M  V30 3049 C 282.543 2.01023 2.83208 0
M  V30 3050 C 281.497 3.1678 2.8781 0
M  V30 3051 C 280.823 3.20724 4.27832 0
M  V30 3052 C 282.123 4.55447 2.55667 0
M  V30 3053 H 283.817 2.73559 1.21678 0
M  V30 3054 H 281.363 1.3163 0.583911 0
M  V30 3055 H 283.316 2.20001 3.59413 0
M  V30 3056 H 282.04 1.06536 3.08736 0
M  V30 3057 H 280.699 2.97616 2.14056 0
M  V30 3058 H 280.347 2.23882 4.50429 0
M  V30 3059 H 280.047 3.98496 4.31827 0
M  V30 3060 H 281.571 3.41881 5.05915 0
M  V30 3061 H 282.985 4.74611 3.21586 0
M  V30 3062 H 281.382 5.35432 2.70984 0
M  V30 3063 H 282.452 4.60812 1.5093 0
M  V30 3064 N 283.795 -0.628877 1.44509 0
M  V30 3065 C 284.705 -1.7694 1.54044 0
M  V30 3066 C 285.721 -1.68705 0.425987 0
M  V30 3067 O 286.897 -1.89442 0.683656 0
M  V30 3068 C 283.962 -3.13332 1.48405 0
M  V30 3069 C 283.023 -3.33181 2.70719 0
M  V30 3070 C 282.256 -4.63067 2.6534 0
M  V30 3071 O 282.479 -5.44017 1.71469 0
M  V30 3072 O 281.413 -4.85167 3.56226 0
M  V30 3073 H 285.239 -1.71848 2.50403 0
M  V30 3074 H 282.824 -0.790378 1.26781 0
M  V30 3075 H 284.706 -3.94634 1.47791 0
M  V30 3076 H 283.381 -3.1896 0.551898 0
M  V30 3077 H 282.288 -2.51549 2.769 0
M  V30 3078 H 283.621 -3.32416 3.62988 0
M  V30 3079 N 285.273 -1.31445 -0.869486 0
M  V30 3080 C 286.22 -1.19135 -1.97675 0
M  V30 3081 C 287.19 -0.0770266 -1.65921 0
M  V30 3082 O 288.375 -0.249972 -1.89155 0
M  V30 3083 C 285.515 -0.905149 -3.33018 0
M  V30 3084 C 284.628 -2.10285 -3.77365 0
M  V30 3085 C 283.763 -1.75339 -5.01427 0
M  V30 3086 C 282.802 -2.91515 -5.38224 0
M  V30 3087 N 281.939 -2.56762 -6.53466 0
M  V30 3088 H 286.779 -2.13853 -2.07535 0
M  V30 3089 H 284.316 -1.06379 -1.01597 0
M  V30 3090 H 286.274 -0.719765 -4.10944 0
M  V30 3091 H 284.904 0.00519624 -3.228 0
M  V30 3092 H 283.956 -2.39899 -2.95216 0
M  V30 3093 H 285.268 -2.97237 -4.00564 0
M  V30 3094 H 284.422 -1.53266 -5.87022 0
M  V30 3095 H 283.161 -0.855801 -4.80133 0
M  V30 3096 H 282.166 -3.14237 -4.51149 0
M  V30 3097 H 283.391 -3.81985 -5.61484 0
M  V30 3098 H 281.337 -1.69526 -6.33717 0
M  V30 3099 H 281.254 -3.37243 -6.76612 0
M  V30 3100 H 282.522 -2.38083 -7.42251 0
M  V30 3101 N 286.751 1.08385 -1.14413 0
M  V30 3102 C 287.698 2.15311 -0.831265 0
M  V30 3103 C 288.668 1.64751 0.211292 0
M  V30 3104 O 289.853 1.90627 0.0811674 0
M  V30 3105 C 286.993 3.43658 -0.315143 0
M  V30 3106 C 286.106 4.08064 -1.41802 0
M  V30 3107 C 285.241 5.24207 -0.859126 0
M  V30 3108 C 284.28 5.80554 -1.93967 0
M  V30 3109 N 283.417 6.88042 -1.39793 0
M  V30 3110 H 288.257 2.41415 -1.74708 0
M  V30 3111 H 285.794 1.18474 -0.871909 0
M  V30 3112 H 287.752 4.172 0.00230884 0
M  V30 3113 H 286.382 3.17839 0.56378 0
M  V30 3114 H 285.434 3.3228 -1.85187 0
M  V30 3115 H 286.746 4.45962 -2.23427 0
M  V30 3116 H 285.9 6.04689 -0.49359 0
M  V30 3117 H 284.639 4.87699 -0.011932 0
M  V30 3118 H 283.644 4.98725 -2.31415 0
M  V30 3119 H 284.869 6.19121 -2.79046 0
M  V30 3120 H 282.815 6.53493 -0.572919 0
M  V30 3121 H 282.732 7.24767 -2.15054 0
M  V30 3122 H 284 7.72255 -1.0603 0
M  V30 3123 N 288.23 0.939286 1.26551 0
M  V30 3124 C 289.177 0.446088 2.26448 0
M  V30 3125 C 290.147 -0.493234 1.58608 0
M  V30 3126 O 291.332 -0.409857 1.86346 0
M  V30 3127 C 288.472 -0.284375 3.43926 0
M  V30 3128 C 287.585 0.690399 4.26448 0
M  V30 3129 C 286.72 -0.0610712 5.31165 0
M  V30 3130 C 285.759 0.905649 6.05363 0
M  V30 3131 N 284.896 0.186055 7.01853 0
M  V30 3132 H 289.736 1.30291 2.68008 0
M  V30 3133 H 287.273 0.65371 1.31776 0
M  V30 3134 H 289.231 -0.724313 4.10864 0
M  V30 3135 H 287.861 -1.10535 3.03285 0
M  V30 3136 H 286.913 1.24885 3.59316 0
M  V30 3137 H 288.225 1.42873 4.779 0
M  V30 3138 H 287.379 -0.56038 6.04106 0
M  V30 3139 H 286.118 -0.832297 4.80546 0
M  V30 3140 H 285.123 1.4161 5.3125 0
M  V30 3141 H 286.348 1.67685 6.58072 0
M  V30 3142 H 284.294 -0.566714 6.53548 0
M  V30 3143 H 284.211 0.863752 7.51049 0
M  V30 3144 H 285.479 -0.292221 7.78952 0
M  V30 3145 N 289.708 -1.40897 0.706093 0
M  V30 3146 C 290.618 -2.3455 0.0482286 0
M  V30 3147 C 291.634 -1.56796 -0.754396 0
M  V30 3148 O 292.81 -1.89228 -0.689538 0
M  V30 3149 C 289.875 -3.35625 -0.869303 0
M  V30 3150 C 288.936 -4.29261 -0.0576994 0
M  V30 3151 C 288.169 -5.25508 -0.931531 0
M  V30 3152 O 288.392 -5.27472 -2.17092 0
M  V30 3153 O 287.326 -6.00727 -0.375587 0
M  V30 3154 H 291.152 -2.92407 0.820476 0
M  V30 3155 H 288.737 -1.4193 0.4665 0
M  V30 3156 H 290.619 -3.97635 -1.39514 0
M  V30 3157 H 289.294 -2.80196 -1.62086 0
M  V30 3158 H 288.201 -3.70566 0.512988 0
M  V30 3159 H 289.534 -4.87817 0.655426 0
M  V30 3160 N 291.186 -0.45159 -1.50991 0
M  V30 3161 C 292.602 -0.104647 -1.59257 0
M  V30 3162 C 292.802 1.38728 -1.4614 0
M  V30 3163 O 291.858 2.15866 -1.30989 0
M  V30 3164 C 293.171 -0.637468 -2.93865 0
M  V30 3165 C 294.719 -0.599166 -3.07212 0
M  V30 3166 C 295.194 -1.1092 -4.44366 0
M  V30 3167 N 296.685 -1.06778 -4.50725 0
M  V30 3168 C 297.42 -1.43314 -5.55201 0
M  V30 3169 N 296.916 -1.87204 -6.67028 0
M  V30 3170 N 298.709 -1.3504 -5.45638 0
M  V30 3171 H 290.86 -1.42214 -1.57762 0
M  V30 3172 H 293.123 -0.586921 -0.744465 0
M  V30 3173 H 292.829 -1.68187 -3.08879 0
M  V30 3174 H 292.703 -0.0702139 -3.77135 0
M  V30 3175 H 295.09 0.436277 -2.91857 0
M  V30 3176 H 295.171 -1.20299 -2.25747 0
M  V30 3177 H 294.815 -2.14318 -4.60467 0
M  V30 3178 H 294.745 -0.481773 -5.24392 0
M  V30 3179 H 297.236 -0.745643 -3.70471 0
M  V30 3180 H 297.549 -2.13282 -7.42786 0
M  V30 3181 H 295.894 -1.91142 -6.68199 0
M  V30 3182 H 299.085 -1.00607 -4.57161 0
M  V30 3183 H 299.258 -1.63841 -6.26945 0
M  V30 3184 N 292.664 1.56529 -0.183458 0
M  V30 3185 C 293.594 2.21549 0.737456 0
M  V30 3186 C 294.575 1.17489 1.23005 0
M  V30 3187 O 295.76 1.45959 1.281 0
M  V30 3188 C 292.89 2.86575 1.96194 0
M  V30 3189 C 291.844 3.96778 1.60473 0
M  V30 3190 C 291.17 4.48911 2.90487 0
M  V30 3191 C 292.47 5.15767 0.823497 0
M  V30 3192 H 294.164 2.98761 0.195453 0
M  V30 3193 H 291.71 1.43702 0.0925686 0
M  V30 3194 H 293.663 3.30739 2.61131 0
M  V30 3195 H 292.387 2.06749 2.52828 0
M  V30 3196 H 291.046 3.53286 0.978997 0
M  V30 3197 H 290.694 3.65862 3.45186 0
M  V30 3198 H 290.394 5.23265 2.67335 0
M  V30 3199 H 291.918 4.95771 3.56432 0
M  V30 3200 H 293.332 5.56549 1.37571 0
M  V30 3201 H 291.729 5.96114 0.690551 0
M  V30 3202 H 292.799 4.84574 -0.177782 0
M  V30 3203 N 294.142 -0.090211 1.57342 0
M  V30 3204 C 295.388 -0.793982 1.86611 0
M  V30 3205 C 295.721 -1.78142 0.773252 0
M  V30 3206 O 294.996 -1.93271 -0.218304 0
M  V30 3207 C 295.279 -1.51839 3.26523 0
M  V30 3208 C 295.132 -0.548609 4.46442 0
M  V30 3209 C 296.451 -2.46779 3.64401 0
M  V30 3210 H 293.57 -0.287186 0.678744 0
M  V30 3211 H 296.212 -0.0575076 1.89913 0
M  V30 3212 H 294.362 -2.14617 3.23839 0
M  V30 3213 H 296.034 0.0725513 4.61243 0
M  V30 3214 H 294.277 0.137614 4.33582 0
M  V30 3215 H 294.948 -1.09271 5.41076 0
M  V30 3216 H 297.424 -1.94089 3.68061 0
M  V30 3217 H 296.3 -2.94479 4.63221 0
M  V30 3218 H 296.561 -3.30758 2.93346 0
M  V30 3219 N 295.62 -1.53406 -0.361157 0
M  V30 3220 C 296.866 -1.70054 -1.10496 0
M  V30 3221 C 297.199 -0.453278 -1.88836 0
M  V30 3222 O 296.474 0.5495 -1.86576 0
M  V30 3223 C 296.757 -2.95317 -2.06058 0
M  V30 3224 C 296.61 -4.3021 -1.31298 0
M  V30 3225 C 297.929 -3.16193 -3.06121 0
M  V30 3226 H 295.048 -0.618799 -0.400321 0
M  V30 3227 H 297.69 -1.86052 -0.385318 0
M  V30 3228 H 295.84 -2.81809 -2.67425 0
M  V30 3229 H 297.512 -4.55538 -0.726807 0
M  V30 3230 H 295.755 -4.29421 -0.614853 0
M  V30 3231 H 296.426 -5.14 -2.01265 0
M  V30 3232 H 298.902 -3.28916 -2.5486 0
M  V30 3233 H 297.778 -4.05266 -3.70204 0
M  V30 3234 H 298.039 -2.31676 -3.76535 0
M  V30 3235 N 297.098 0.621204 -1.44841 0
M  V30 3236 C 298.344 1.3826 -1.48365 0
M  V30 3237 C 298.677 1.93831 -0.119624 0
M  V30 3238 O 297.952 1.74251 0.864111 0
M  V30 3239 C 298.235 2.54058 -2.55199 0
M  V30 3240 C 298.088 2.03772 -4.00995 0
M  V30 3241 C 299.407 3.56225 -2.58442 0
M  V30 3242 H 296.526 0.501374 -0.540179 0
M  V30 3243 H 299.168 0.7015 -1.76576 0
M  V30 3244 H 297.318 3.12162 -2.31274 0
M  V30 3245 H 298.99 1.50423 -4.36086 0
M  V30 3246 H 297.233 1.34876 -4.12299 0
M  V30 3247 H 297.904 2.87185 -4.71411 0
M  V30 3248 H 300.38 3.07939 -2.79844 0
M  V30 3249 H 299.256 4.34756 -3.3508 0
M  V30 3250 H 299.517 4.10949 -1.63013 0
M  V30 3251 N 298.576 1.31904 0.862503 0
M  V30 3252 C 299.853 1.12644 1.59908 0
M  V30 3253 C 300.233 -0.316104 2.0872 0
M  V30 3254 O 299.581 -1.31145 1.87118 0
M  V30 3255 C 299.791 2.1472 2.7513 0
M  V30 3256 C 301.139 2.47637 3.44907 0
M  V30 3257 O 302.163 2.13205 2.85346 0
M  V30 3258 O 301.022 3.06632 4.52371 0
M  V30 3259 H 298.116 0.43416 0.703871 0
M  V30 3260 H 300.662 1.43408 0.907314 0
M  V30 3261 H 299.434 3.1172 2.3653 0
M  V30 3262 H 299.057 1.84905 3.51989 0
M  V30 3263 N 300.054 -1.07777 1.14986 0
M  V30 3264 C 301.294 -1.81888 0.932527 0
M  V30 3265 C 301.658 -1.84509 -0.531064 0
M  V30 3266 O 302.859 -2.54448 -0.866577 0
M  V30 3267 C 301.13 -3.23244 1.52473 0
M  V30 3268 S 302.689 -4.14154 1.44989 0
M  V30 3269 H 299.507 -0.626752 0.335712 0
M  V30 3270 H 302.109 -1.29503 1.46455 0
M  V30 3271 H 300.813 -3.18922 2.58296 0
M  V30 3272 H 300.344 -3.80704 0.991381 0
M  V30 3273 H 302.359 -4.94247 0.439799 0
M  V30 3274 N 301.532 -0.945985 -1.26051 0
M  V30 3275 C 302.442 -0.465633 -2.29933 0
M  V30 3276 C 303.458 0.462761 -1.67733 0
M  V30 3277 O 304.634 0.341118 -1.9849 0
M  V30 3278 C 301.699 0.256994 -3.45746 0
M  V30 3279 C 300.76 -0.708549 -4.23412 0
M  V30 3280 C 299.993 -0.0203135 -5.33696 0
M  V30 3281 O 300.216 1.19571 -5.57726 0
M  V30 3282 O 299.15 -0.701459 -5.97799 0
M  V30 3283 H 302.976 -1.32866 -2.73094 0
M  V30 3284 H 300.561 -0.712071 -1.31339 0
M  V30 3285 H 302.443 0.663852 -4.16138 0
M  V30 3286 H 301.118 1.09533 -3.04605 0
M  V30 3287 H 300.025 -1.16545 -3.55483 0
M  V30 3288 H 301.358 -1.51465 -4.68315 0
M  V30 3289 N 303.011 1.40521 -0.713556 0
M  V30 3290 C 304.236 2.05759 -0.26035 0
M  V30 3291 C 304.661 1.53403 1.08854 0
M  V30 3292 O 304.019 0.668535 1.68524 0
M  V30 3293 C 304.067 3.59745 -0.248122 0
M  V30 3294 O 303.171 4.05123 0.77131 0
M  V30 3295 H 302.512 0.652564 -0.122703 0
M  V30 3296 H 305.042 1.79958 -0.973467 0
M  V30 3297 H 305.052 4.07911 -0.0851129 0
M  V30 3298 H 303.727 3.97218 -1.2325 0
M  V30 3299 H 302.304 3.68422 0.57619 0
M  V30 3300 N 304.489 0.459591 1.5075 0
M  V30 3301 C 305.399 -0.34613 2.32033 0
M  V30 3302 C 306.415 -1.00686 1.41909 0
M  V30 3303 O 307.591 -0.997361 1.7497 0
M  V30 3304 C 304.656 -1.42029 3.16273 0
M  V30 3305 C 303.717 -0.777362 4.22203 0
M  V30 3306 C 302.95 -1.80034 5.02418 0
M  V30 3307 O 303.173 -3.02544 4.83553 0
M  V30 3308 O 302.107 -1.37853 5.85901 0
M  V30 3309 H 305.933 0.318054 3.0203 0
M  V30 3310 H 303.518 0.221663 1.47746 0
M  V30 3311 H 305.4 -2.04275 3.68578 0
M  V30 3312 H 304.075 -2.06815 2.49016 0
M  V30 3313 H 302.982 -0.116256 3.73919 0
M  V30 3314 H 304.315 -0.172634 4.91897 0
M  V30 3315 N 305.967 -1.56429 0.191757 0
M  V30 3316 C 307.383 -1.58754 -0.164137 0
M  V30 3317 C 307.583 -1.20782 -1.61288 0
M  V30 3318 O 306.639 -0.928999 -2.34789 0
M  V30 3319 C 307.952 -3.00396 0.135195 0
M  V30 3320 C 309.5 -3.1291 0.0750351 0
M  V30 3321 C 309.975 -4.56679 0.347632 0
M  V30 3322 N 311.466 -4.62252 0.296131 0
M  V30 3323 C 312.201 -5.71379 0.480948 0
M  V30 3324 N 311.697 -6.88986 0.725933 0
M  V30 3325 N 313.49 -5.60563 0.415435 0
M  V30 3326 H 305.641 -1.79393 1.13718 0
M  V30 3327 H 307.904 -0.832414 0.453643 0
M  V30 3328 H 307.61 -3.32726 1.13958 0
M  V30 3329 H 307.484 -3.72963 -0.563773 0
M  V30 3330 H 309.871 -2.80394 -0.919948 0
M  V30 3331 H 309.952 -2.42736 0.807029 0
M  V30 3332 H 309.596 -4.89907 1.33992 0
M  V30 3333 H 309.526 -5.25039 -0.405212 0
M  V30 3334 H 312.017 -3.7773 0.113259 0
M  V30 3335 H 312.33 -7.68046 0.855857 0
M  V30 3336 H 310.675 -6.90801 0.762788 0
M  V30 3337 H 313.866 -4.67561 0.224486 0
M  V30 3338 H 314.039 -6.45551 0.562889 0
M  V30 3339 N 307.445 0.0818655 -1.57387 0
M  V30 3340 C 308.375 1.09885 -2.06028 0
M  V30 3341 C 309.356 1.4098 -0.951774 0
M  V30 3342 O 310.541 1.50781 -1.22387 0
M  V30 3343 C 307.671 2.4151 -2.4958 0
M  V30 3344 C 306.625 2.24792 -3.64215 0
M  V30 3345 C 305.951 3.61712 -3.93787 0
M  V30 3346 C 307.251 1.67749 -4.94629 0
M  V30 3347 H 308.945 0.694128 -2.91243 0
M  V30 3348 H 306.491 0.332448 -1.4011 0
M  V30 3349 H 308.444 3.12939 -2.82219 0
M  V30 3350 H 307.168 2.83943 -1.61381 0
M  V30 3351 H 305.827 1.55807 -3.31843 0
M  V30 3352 H 305.475 4.01697 -3.02735 0
M  V30 3353 H 305.175 3.51368 -4.70971 0
M  V30 3354 H 306.699 4.34587 -4.28913 0
M  V30 3355 H 308.113 2.29032 -5.25564 0
M  V30 3356 H 306.51 1.68128 -5.76067 0
M  V30 3357 H 307.58 0.638059 -4.80684 0
M  V30 3358 N 308.923 1.53595 0.353017 0
M  V30 3359 C 309.871 1.81605 1.45335 0
M  V30 3360 C 310.865 0.685923 1.54892 0
M  V30 3361 O 312.071 0.869095 1.57628 0
M  V30 3362 H 308.446 0.575204 0.484401 0
M  V30 3363 H 310.417 2.73679 1.18921 0
M  V30 3364 C 309.166 2.03406 2.81995 0
M  V30 3365 H 308.489 2.89814 2.75405 0
M  V30 3366 H 309.929 2.26975 3.58132 0
M  V30 3367 C 308.388 0.816794 3.26849 0
M  V30 3368 O 308.918 0.0115856 4.01698 0
M  V30 3369 N 307.124 0.636682 2.8354 0
M  V30 3370 H 306.671 1.2931 2.22793 0
M  V30 3371 H 306.629 -0.176336 3.13905 0
M  V30 3372 N 310.401 -0.613514 1.45168 0
M  V30 3373 C 311.364 -1.7065 1.53007 0
M  V30 3374 C 312.364 -1.5548 0.410184 0
M  V30 3375 O 313.554 -1.60656 0.673455 0
M  V30 3376 C 310.686 -3.09875 1.42093 0
M  V30 3377 H 311.879 -1.65068 2.50385 0
M  V30 3378 H 309.432 -0.828728 1.32521 0
M  V30 3379 H 310.167 -3.21039 0.458769 0
M  V30 3380 H 309.952 -3.22293 2.23315 0
M  V30 3381 H 311.442 -3.895 1.50598 0
M  V30 3382 N 311.879 -1.3236 -0.855495 0
M  V30 3383 C 313.128 -1.22226 -1.60448 0
M  V30 3384 C 313.441 0.214733 -1.94418 0
M  V30 3385 O 314.647 0.437917 -2.67945 0
M  V30 3386 C 313.103 -2.14063 -2.89318 0
M  V30 3387 C 312.711 -3.62839 -2.62777 0
M  V30 3388 C 314.455 -2.12764 -3.67331 0
M  V30 3389 C 312.362 -4.4664 -3.87643 0
M  V30 3390 H 311.292 -0.453904 -0.602069 0
M  V30 3391 H 313.943 -1.57314 -0.944698 0
M  V30 3392 H 312.325 -1.71889 -3.5675 0
M  V30 3393 H 313.499 -4.1335 -2.03662 0
M  V30 3394 H 311.814 -3.66261 -1.98096 0
M  V30 3395 H 314.411 -2.72611 -4.59987 0
M  V30 3396 H 314.754 -1.11841 -4.00995 0
M  V30 3397 H 315.287 -2.53214 -3.06802 0
M  V30 3398 H 312.026 -5.48373 -3.5912 0
M  V30 3399 H 311.546 -4.0088 -4.46156 0
M  V30 3400 H 313.225 -4.59597 -4.55389 0
M  V30 3401 N 313.357 1.07166 -1.15556 0
M  V30 3402 C 314.287 2.16403 -0.877046 0
M  V30 3403 C 315.268 1.69217 0.173111 0
M  V30 3404 O 316.453 1.94181 0.027084 0
M  V30 3405 C 313.583 3.45349 -0.367632 0
M  V30 3406 C 312.537 4.05995 -1.35468 0
M  V30 3407 C 311.863 5.30045 -0.704038 0
M  V30 3408 C 313.163 4.45804 -2.72132 0
M  V30 3409 H 314.857 2.39959 -1.79053 0
M  V30 3410 H 312.403 1.15325 -0.862331 0
M  V30 3411 H 314.356 4.21095 -0.160317 0
M  V30 3412 H 313.08 3.21385 0.581326 0
M  V30 3413 H 311.739 3.32296 -1.54839 0
M  V30 3414 H 311.387 5.02373 0.251128 0
M  V30 3415 H 311.087 5.71579 -1.36277 0
M  V30 3416 H 312.611 6.08495 -0.50654 0
M  V30 3417 H 314.025 5.12671 -2.56595 0
M  V30 3418 H 312.422 4.98296 -3.34397 0
M  V30 3419 H 313.492 3.57083 -3.28054 0
M  V30 3420 N 314.835 0.952656 1.25548 0
M  V30 3421 C 316.083 0.605176 1.92826 0
M  V30 3422 C 316.404 -0.860261 1.74999 0
M  V30 3423 O 315.674 -1.6125 1.11244 0
M  V30 3424 H 314.254 0.220832 0.713612 0
M  V30 3425 H 316.916 1.21047 1.52754 0
M  V30 3426 H 316.012 0.832798 3.00784 0
M  V30 3427 N 316.313 -1.40141 0.720998 0
M  V30 3428 C 317.245 -2.29177 0.0324669 0
M  V30 3429 C 318.258 -1.46105 -0.718126 0
M  V30 3430 O 319.447 -1.69335 -0.564608 0
M  V30 3431 C 316.547 -3.24473 -0.978292 0
M  V30 3432 C 315.72 -4.36423 -0.292115 0
M  V30 3433 C 314.779 -5.12122 -1.20901 0
M  V30 3434 O 313.805 -5.64981 -0.691766 0
M  V30 3435 N 315.007 -5.21992 -2.53978 0
M  V30 3436 H 317.772 -2.88909 0.796984 0
M  V30 3437 H 315.333 -1.51569 0.569068 0
M  V30 3438 H 317.325 -3.71987 -1.59398 0
M  V30 3439 H 315.895 -2.65871 -1.64413 0
M  V30 3440 H 315.115 -3.90967 0.503847 0
M  V30 3441 H 316.403 -5.08467 0.183971 0
M  V30 3442 H 315.801 -4.8054 -2.98493 0
M  V30 3443 H 314.358 -5.72995 -3.10677 0
M  V30 3444 N 317.792 -0.46758 -1.50504 0
M  V30 3445 C 319.041 0.0902868 -2.01498 0
M  V30 3446 C 319.354 1.411 -1.35463 0
M  V30 3447 O 320.56 2.0536 -1.77594 0
M  V30 3448 C 319.016 0.21142 -3.59278 0
M  V30 3449 C 318.624 -1.10065 -4.34269 0
M  V30 3450 C 320.368 0.721433 -4.18325 0
M  V30 3451 C 318.275 -0.943505 -5.83825 0
M  V30 3452 H 317.205 0.037517 -0.753066 0
M  V30 3453 H 319.856 -0.601943 -1.73346 0
M  V30 3454 H 318.238 0.967352 -3.84003 0
M  V30 3455 H 319.412 -1.86726 -4.21272 0
M  V30 3456 H 317.727 -1.5415 -3.86816 0
M  V30 3457 H 320.324 0.85598 -5.27804 0
M  V30 3458 H 320.667 1.71186 -3.79475 0
M  V30 3459 H 321.2 0.0229843 -3.97793 0
M  V30 3460 H 317.939 -1.90719 -6.27141 0
M  V30 3461 H 317.459 -0.217213 -5.99407 0
M  V30 3462 H 319.138 -0.608715 -6.4413 0
M  V30 3463 N 319.27 1.56325 -0.20005 0
M  V30 3464 C 320.519 1.96895 0.437652 0
M  V30 3465 C 320.832 1.08999 1.62415 0
M  V30 3466 O 322.038 1.39372 2.32997 0
M  V30 3467 C 320.494 3.50198 0.830025 0
M  V30 3468 C 320.102 4.46765 -0.332461 0
M  V30 3469 C 321.846 3.99526 1.43453 0
M  V30 3470 C 319.753 5.91344 0.0811468 0
M  V30 3471 H 318.683 0.735209 0.167282 0
M  V30 3472 H 321.334 1.81148 -0.292853 0
M  V30 3473 H 319.716 3.61467 1.61734 0
M  V30 3474 H 320.89 4.47231 -1.11 0
M  V30 3475 H 319.205 4.07657 -0.848789 0
M  V30 3476 H 321.802 5.05025 1.75652 0
M  V30 3477 H 322.145 3.44122 2.34277 0
M  V30 3478 H 322.678 3.91393 0.71109 0
M  V30 3479 H 319.417 6.50685 -0.793033 0
M  V30 3480 H 318.937 5.94121 0.823445 0
M  V30 3481 H 320.616 6.44945 0.515252 0
M  V30 3482 N 320.748 -0.0735177 1.57428 0
M  V30 3483 C 321.695 -1.08756 2.0357 0
M  V30 3484 C 322.665 -1.38559 0.916 0
M  V30 3485 O 323.85 -1.49656 1.18354 0
M  V30 3486 C 320.99 -2.39657 2.48311 0
M  V30 3487 C 320.103 -2.16399 3.73892 0
M  V30 3488 C 319.238 -3.40852 4.07423 0
M  V30 3489 C 318.277 -3.1295 5.2605 0
M  V30 3490 N 317.414 -4.29729 5.55228 0
M  V30 3491 H 322.254 -0.687104 2.8997 0
M  V30 3492 H 319.791 -0.327709 1.43403 0
M  V30 3493 H 321.749 -3.16081 2.72303 0
M  V30 3494 H 320.379 -2.77508 1.64891 0
M  V30 3495 H 319.431 -1.30676 3.57251 0
M  V30 3496 H 320.743 -1.91788 4.60455 0
M  V30 3497 H 319.897 -4.25671 4.32306 0
M  V30 3498 H 318.636 -3.68537 3.19425 0
M  V30 3499 H 317.641 -2.26526 5.00965 0
M  V30 3500 H 318.866 -2.86589 6.15665 0
M  V30 3501 H 316.812 -4.57448 4.70188 0
M  V30 3502 H 316.729 -4.08385 6.36206 0
M  V30 3503 H 317.997 -5.1555 5.84661 0
M  V30 3504 N 322.226 -1.5378 -0.344866 0
M  V30 3505 C 323.156 -1.84662 -1.42906 0
M  V30 3506 C 324.137 -0.701648 -1.54955 0
M  V30 3507 O 325.322 -0.953438 -1.69184 0
M  V30 3508 C 322.452 -2.05503 -2.79974 0
M  V30 3509 C 321.406 -3.21318 -2.82734 0
M  V30 3510 C 320.732 -3.2749 -4.22675 0
M  V30 3511 C 322.032 -4.59456 -2.48389 0
M  V30 3512 H 323.726 -2.75461 -1.17311 0
M  V30 3513 H 321.272 -1.32542 -0.562896 0
M  V30 3514 H 323.225 -2.25691 -3.55867 0
M  V30 3515 H 321.949 -1.11434 -3.07002 0
M  V30 3516 H 320.608 -3.00984 -2.09294 0
M  V30 3517 H 320.256 -2.31019 -4.4681 0
M  V30 3518 H 319.956 -4.05316 -4.25433 0
M  V30 3519 H 321.48 -3.49887 -5.00412 0
M  V30 3520 H 322.894 -4.79667 -3.13995 0
M  V30 3521 H 321.291 -5.39675 -2.62432 0
M  V30 3522 H 322.361 -4.63155 -1.4358 0
M  V30 3523 N 323.704 0.605807 -1.45491 0
M  V30 3524 C 324.614 1.74466 -1.56839 0
M  V30 3525 C 325.63 1.68006 -0.452772 0
M  V30 3526 O 326.806 1.8833 -0.713708 0
M  V30 3527 C 323.871 3.10931 -1.53371 0
M  V30 3528 C 322.932 3.28832 -2.75986 0
M  V30 3529 C 322.165 4.58787 -2.72673 0
M  V30 3530 O 322.388 5.4122 -1.80102 0
M  V30 3531 O 321.322 4.79438 -3.63899 0
M  V30 3532 H 325.148 1.67843 -2.53106 0
M  V30 3533 H 322.733 0.770108 -1.28022 0
M  V30 3534 H 324.615 3.92233 -1.54051 0
M  V30 3535 H 323.29 3.18042 -0.602572 0
M  V30 3536 H 322.197 2.47112 -2.80867 0
M  V30 3537 H 323.53 3.26599 -3.68231 0
M  V30 3538 N 325.182 1.32811 0.848464 0
M  V30 3539 C 326.129 1.22265 1.95755 0
M  V30 3540 C 327.099 0.103413 1.65778 0
M  V30 3541 O 328.284 0.280033 1.88734 0
M  V30 3542 C 325.424 0.958014 3.31536 0
M  V30 3543 C 324.537 2.16262 3.73971 0
M  V30 3544 C 323.672 1.83295 4.98575 0
M  V30 3545 C 322.711 3.00041 5.33518 0
M  V30 3546 N 321.848 2.67125 6.49299 0
M  V30 3547 H 326.688 2.17128 2.04107 0
M  V30 3548 H 324.225 1.07982 0.998913 0
M  V30 3549 H 326.183 0.785052 4.09747 0
M  V30 3550 H 324.813 0.046159 3.22767 0
M  V30 3551 H 323.865 2.44565 2.91362 0
M  V30 3552 H 325.177 3.03572 3.95785 0
M  V30 3553 H 324.331 1.62586 5.84509 0
M  V30 3554 H 323.07 0.932078 4.7871 0
M  V30 3555 H 322.075 3.21374 4.46093 0
M  V30 3556 H 323.3 3.90869 5.55336 0
M  V30 3557 H 321.246 1.79586 6.3094 0
M  V30 3558 H 321.163 3.47965 6.71161 0
M  V30 3559 H 322.431 2.49861 7.3837 0
M  V30 3560 N 326.66 -1.06551 1.16123 0
M  V30 3561 C 327.608 -2.16063 0.861371 0
M  V30 3562 C 328.602 -1.6856 -0.168517 0
M  V30 3563 O 329.808 -1.79986 -0.0227579 0
M  V30 3564 H 326.183 -0.705278 0.260934 0
M  V30 3565 H 328.154 -2.38567 1.79244 0
M  V30 3566 C 326.903 -3.45661 0.376018 0
M  V30 3567 H 326.226 -3.82604 1.15992 0
M  V30 3568 H 327.666 -4.23504 0.204951 0
M  V30 3569 C 326.125 -3.24546 -0.903954 0
M  V30 3570 O 326.655 -3.49865 -1.97377 0
M  V30 3571 N 324.861 -2.77992 -0.846679 0
M  V30 3572 H 324.408 -2.57589 0.0241017 0
M  V30 3573 H 324.366 -2.64244 -1.70359 0
M  V30 3574 N 328.138 -0.959301 -1.25041 0
M  V30 3575 C 329.386 -0.615393 -1.92503 0
M  V30 3576 C 329.707 0.850969 -1.75452 0
M  V30 3577 O 328.977 1.60658 -1.12098 0
M  V30 3578 H 327.557 -0.224613 -0.712431 0
M  V30 3579 H 330.219 -1.21855 -1.5211 0
M  V30 3580 H 329.315 -0.848738 -3.00338 0
M  V30 3581 N 329.616 1.39756 -0.72842 0
M  V30 3582 C 330.865 1.99879 -0.270407 0
M  V30 3583 C 331.178 1.58449 1.14688 0
M  V30 3584 O 332.384 2.11362 1.70407 0
M  V30 3585 C 330.84 3.57292 -0.43252 0
M  V30 3586 C 330.448 4.07688 -1.85727 0
M  V30 3587 C 332.192 4.24485 -0.0359507 0
M  V30 3588 C 330.099 5.5765 -1.96928 0
M  V30 3589 H 329.029 0.747689 -0.0973472 0
M  V30 3590 H 331.68 1.59837 -0.901355 0
M  V30 3591 H 330.062 3.95097 0.267219 0
M  V30 3592 H 331.236 3.81231 -2.58843 0
M  V30 3593 H 329.551 3.53135 -2.20646 0
M  V30 3594 H 332.148 5.34609 -0.0987484 0
M  V30 3595 H 332.491 4.03915 1.00787 0
M  V30 3596 H 333.024 3.9183 -0.686604 0
M  V30 3597 H 329.763 5.8309 -2.99476 0
M  V30 3598 H 329.283 5.8593 -1.28241 0
M  V30 3599 H 330.962 6.22957 -1.74737 0
M  V30 3600 N 331.094 0.475555 1.50254 0
M  V30 3601 C 332.342 -0.077738 2.0195 0
M  V30 3602 C 332.663 -1.39813 1.35931 0
M  V30 3603 O 331.933 -1.89249 0.506123 0
M  V30 3604 H 330.513 -0.031719 0.746326 0
M  V30 3605 H 333.175 0.626995 1.84539 0
M  V30 3606 H 332.271 -0.225995 3.11281 0
M  V30 3607 N 332.573 -1.56217 0.208337 0
M  V30 3608 C 333.803 -2.02043 -0.431523 0
M  V30 3609 C 334.211 -1.08755 -1.54819 0
M  V30 3610 O 333.554 -0.0870009 -1.83494 0
M  V30 3611 C 333.616 -3.44239 -1.03633 0
M  V30 3612 C 333.28 -4.56965 -0.0567502 0
M  V30 3613 C 334.277 -5.14624 0.738773 0
M  V30 3614 C 331.962 -5.02266 0.0581736 0
M  V30 3615 C 333.956 -6.16045 1.63605 0
M  V30 3616 C 331.643 -6.03528 0.959001 0
M  V30 3617 C 332.641 -6.60293 1.7465 0
M  V30 3618 O 332.329 -7.59586 2.6322 0
M  V30 3619 H 332.061 -0.666772 -0.111313 0
M  V30 3620 H 334.615 -2.02919 0.318277 0
M  V30 3621 H 332.845 -3.40391 -1.83497 0
M  V30 3622 H 334.534 -3.73793 -1.58221 0
M  V30 3623 H 335.3 -4.80483 0.660364 0
M  V30 3624 H 331.179 -4.57771 -0.544633 0
M  V30 3625 H 334.723 -6.60279 2.25116 0
M  V30 3626 H 330.62 -6.37092 1.03848 0
M  V30 3627 H 331.388 -7.77057 2.57148 0
M  V30 3628 N 334.051 0.0651679 -1.57465 0
M  V30 3629 C 335.001 1.0838 -2.00594 0
M  V30 3630 C 335.985 1.34106 -0.889071 0
M  V30 3631 O 337.177 1.34295 -1.15299 0
M  V30 3632 C 334.306 2.39565 -2.45894 0
M  V30 3633 C 333.392 2.17085 -3.64328 0
M  V30 3634 N 333.783 1.64553 -4.78285 0
M  V30 3635 C 332.081 2.4753 -3.71006 0
M  V30 3636 C 332.782 1.57042 -5.60101 0
M  V30 3637 N 331.758 2.03328 -5.04141 0
M  V30 3638 H 335.56 0.671062 -2.86136 0
M  V30 3639 H 333.074 0.27213 -1.60104 0
M  V30 3640 H 335.071 3.13308 -2.75034 0
M  V30 3641 H 333.731 2.81549 -1.61741 0
M  V30 3642 H 334.742 1.33323 -5.00445 0
M  V30 3643 H 331.419 2.92835 -2.9758 0
M  V30 3644 H 332.809 1.17223 -6.61595 0
M  V30 3645 N 335.529 1.53961 0.336706 0
M  V30 3646 C 336.759 1.75229 1.09446 0
M  V30 3647 C 337.167 0.494602 1.82621 0
M  V30 3648 O 336.51 -0.543764 1.75468 0
M  V30 3649 C 336.572 2.88288 2.1478 0
M  V30 3650 C 336.236 4.27656 1.6112 0
M  V30 3651 C 337.233 5.08981 1.0599 0
M  V30 3652 C 334.918 4.74161 1.6576 0
M  V30 3653 C 336.912 6.34916 0.562129 0
M  V30 3654 C 334.599 6.00067 1.15595 0
M  V30 3655 C 335.597 6.80278 0.609147 0
M  V30 3656 O 335.285 8.03818 0.114999 0
M  V30 3657 H 335.017 0.588881 0.331956 0
M  V30 3658 H 337.571 2.01614 0.392566 0
M  V30 3659 H 335.801 2.57443 2.88548 0
M  V30 3660 H 337.49 2.97461 2.76174 0
M  V30 3661 H 338.256 4.74213 1.01722 0
M  V30 3662 H 334.135 4.11781 2.07261 0
M  V30 3663 H 337.679 6.9747 0.134668 0
M  V30 3664 H 333.576 6.3433 1.19566 0
M  V30 3665 H 334.344 8.18172 0.231651 0
M  V30 3666 N 337.007 -0.598083 1.45811 0
M  V30 3667 C 338.256 -1.35295 1.49594 0
M  V30 3668 C 338.569 -1.95057 0.145679 0
M  V30 3669 O 339.775 -2.71431 0.0612099 0
M  V30 3670 C 338.231 -2.45124 2.63519 0
M  V30 3671 C 337.839 -1.91732 4.04899 0
M  V30 3672 C 339.583 -3.2205 2.76558 0
M  V30 3673 C 337.49 -2.991 5.1019 0
M  V30 3674 H 336.42 -0.508552 0.556679 0
M  V30 3675 H 339.071 -0.639977 1.71978 0
M  V30 3676 H 337.453 -3.19149 2.34435 0
M  V30 3677 H 338.627 -1.24352 4.43704 0
M  V30 3678 H 336.942 -1.27522 3.96393 0
M  V30 3679 H 339.539 -4.0215 3.52391 0
M  V30 3680 H 339.882 -3.73663 1.83526 0
M  V30 3681 H 340.415 -2.55127 3.05213 0
M  V30 3682 H 337.154 -2.52393 6.04961 0
M  V30 3683 H 336.674 -3.65017 4.75944 0
M  V30 3684 H 338.353 -3.63318 5.35359 0
M  V30 3685 N 338.485 -1.33259 -0.841409 0
M  V30 3686 C 339.415 -1.25926 -1.96634 0
M  V30 3687 C 340.396 -0.140349 -1.6952 0
M  V30 3688 O 341.581 -0.329707 -1.91381 0
M  V30 3689 C 338.711 -0.99512 -3.32738 0
M  V30 3690 C 337.665 -2.0767 -3.74242 0
M  V30 3691 C 336.991 -1.66474 -5.08125 0
M  V30 3692 C 338.291 -3.49318 -3.88297 0
M  V30 3693 H 339.985 -2.20046 -2.03027 0
M  V30 3694 H 337.531 -1.05931 -0.975425 0
M  V30 3695 H 339.484 -0.930323 -4.11002 0
M  V30 3696 H 338.208 -0.0183004 -3.26595 0
M  V30 3697 H 336.867 -2.13187 -2.98239 0
M  V30 3698 H 336.515 -0.675012 -4.9845 0
M  V30 3699 H 336.215 -2.3885 -5.36865 0
M  V30 3700 H 337.739 -1.61455 -5.88867 0
M  V30 3701 H 339.153 -3.46316 -4.56879 0
M  V30 3702 H 337.55 -4.20158 -4.28471 0
M  V30 3703 H 338.62 -3.8801 -2.9082 0
M  V30 3704 N 339.963 1.05934 -1.16686 0
M  V30 3705 C 340.926 2.11669 -0.879144 0
M  V30 3706 C 341.926 1.60294 0.127445 0
M  V30 3707 O 343.116 1.7389 -0.103865 0
M  V30 3708 C 340.248 3.39438 -0.315425 0
M  V30 3709 H 341.441 2.38626 -1.81653 0
M  V30 3710 H 338.994 1.22058 -0.976299 0
M  V30 3711 H 339.729 3.18132 0.629468 0
M  V30 3712 H 339.514 3.78034 -1.04079 0
M  V30 3713 H 341.004 4.17391 -0.132189 0
M  V30 3714 N 341.441 0.965919 1.2453 0
M  V30 3715 C 342.389 0.486506 2.27455 0
M  V30 3716 C 343.383 -0.449041 1.6334 0
M  V30 3717 O 344.589 -0.324527 1.7705 0
M  V30 3718 H 340.964 0.138857 0.739069 0
M  V30 3719 H 342.935 1.3666 2.65267 0
M  V30 3720 C 341.684 -0.209481 3.47068 0
M  V30 3721 H 341.007 0.50129 3.96645 0
M  V30 3722 H 342.447 -0.508775 4.20936 0
M  V30 3723 C 340.906 -1.43586 3.0477 0
M  V30 3724 O 341.436 -2.53299 3.11773 0
M  V30 3725 N 339.642 -1.30126 2.59838 0
M  V30 3726 H 339.189 -0.408583 2.54339 0
M  V30 3727 H 339.147 -2.12294 2.31902 0
M  V30 3728 N 342.919 -1.39368 0.735821 0
M  V30 3729 C 343.849 -2.33234 0.111506 0
M  V30 3730 C 344.83 -1.53954 -0.723334 0
M  V30 3731 O 346.015 -1.82344 -0.668147 0
M  V30 3732 C 343.145 -3.38057 -0.795917 0
M  V30 3733 C 342.099 -4.2795 -0.065172 0
M  V30 3734 C 341.425 -5.23479 -1.08967 0
M  V30 3735 C 342.725 -5.10741 1.09273 0
M  V30 3736 H 344.419 -2.85692 0.895571 0
M  V30 3737 H 341.965 -1.37364 0.432109 0
M  V30 3738 H 343.918 -4.02675 -1.24221 0
M  V30 3739 H 342.642 -2.8404 -1.61211 0
M  V30 3740 H 341.301 -3.64813 0.361511 0
M  V30 3741 H 340.949 -4.65758 -1.89944 0
M  V30 3742 H 340.649 -5.84472 -0.605489 0
M  V30 3743 H 342.173 -5.90974 -1.53565 0
M  V30 3744 H 343.587 -5.68699 0.724841 0
M  V30 3745 H 341.984 -5.8088 1.50659 0
M  V30 3746 H 343.054 -4.45525 1.91404 0
M  V30 3747 N 344.397 -0.483516 -1.5 0
M  V30 3748 C 345.645 0.067027 -2.01989 0
M  V30 3749 C 345.966 1.3909 -1.36671 0
M  V30 3750 O 345.236 1.88978 -0.516152 0
M  V30 3751 H 343.816 0.0277606 -0.746484 0
M  V30 3752 H 346.478 -0.636773 -1.84204 0
M  V30 3753 H 345.574 0.209484 -3.11396 0
M  V30 3754 N 345.875 1.56104 -0.216619 0
M  V30 3755 C 347.122 1.98172 0.416416 0
M  V30 3756 C 347.45 1.10413 1.60122 0
M  V30 3757 O 346.705 0.147967 1.9514 0
M  V30 3758 C 347.004 3.45923 0.898464 0
M  V30 3759 C 346.67 4.50559 -0.175288 0
M  V30 3760 C 345.332 4.78897 -0.470271 0
M  V30 3761 C 347.684 5.1334 -0.901728 0
M  V30 3762 C 345.012 5.67299 -1.4963 0
M  V30 3763 C 347.364 6.02853 -1.91705 0
M  V30 3764 C 346.028 6.29537 -2.21901 0
M  V30 3765 H 345.298 0.725164 0.152377 0
M  V30 3766 H 347.945 1.88839 -0.318103 0
M  V30 3767 H 346.25 3.52434 1.71165 0
M  V30 3768 H 347.947 3.75841 1.39803 0
M  V30 3769 H 344.537 4.28551 0.0647806 0
M  V30 3770 H 348.721 4.91521 -0.687072 0
M  V30 3771 H 343.977 5.86239 -1.73592 0
M  V30 3772 H 348.151 6.50552 -2.48505 0
M  V30 3773 H 345.778 6.97835 -3.01548 0
M  V30 3774 N 347.353 -0.0568162 1.57498 0
M  V30 3775 C 348.286 -1.09817 2.00039 0
M  V30 3776 C 349.264 -1.3674 0.879819 0
M  V30 3777 O 350.448 -1.49863 1.14338 0
M  V30 3778 C 347.575 -2.43924 2.34986 0
M  V30 3779 C 346.621 -2.33039 3.57204 0
M  V30 3780 S 347.454 -1.7102 5.07457 0
M  V30 3781 C 348.61 -3.06674 5.45621 0
M  V30 3782 H 348.843 -0.735701 2.88053 0
M  V30 3783 H 346.376 -0.265871 1.52094 0
M  V30 3784 H 348.334 -3.2106 2.55795 0
M  V30 3785 H 346.995 -2.77327 1.47474 0
M  V30 3786 H 346.188 -3.31973 3.79223 0
M  V30 3787 H 345.79 -1.64043 3.36104 0
M  V30 3788 H 348.082 -4.03 5.44608 0
M  V30 3789 H 349.025 -2.8942 6.46252 0
M  V30 3790 H 349.433 -3.07969 4.73091 0
M  V30 3791 N 348.832 -1.54138 -0.328536 0
M  V30 3792 C 350.109 -1.62749 -1.08499 0
M  V30 3793 C 350.489 -0.458198 -2.06067 0
M  V30 3794 O 349.837 0.548046 -2.2183 0
M  V30 3795 C 350.047 -2.99519 -1.79135 0
M  V30 3796 C 351.395 -3.55394 -2.32337 0
M  V30 3797 O 352.419 -3.01792 -1.89209 0
M  V30 3798 O 351.278 -4.49186 -3.11279 0
M  V30 3799 H 348.372 -0.65886 -0.499832 0
M  V30 3800 H 350.918 -1.66484 -0.328826 0
M  V30 3801 H 349.69 -3.76061 -1.08139 0
M  V30 3802 H 349.313 -2.99441 -2.61574 0
M  V30 3803 N 350.31 0.590341 -1.46126 0
M  V30 3804 C 351.559 1.34499 -1.50309 0
M  V30 3805 C 351.872 1.94977 -0.156021 0
M  V30 3806 O 353.078 2.71395 -0.0756037 0
M  V30 3807 C 351.534 2.43723 -2.64815 0
M  V30 3808 C 351.142 1.89582 -4.0591 0
M  V30 3809 C 352.886 3.20579 -2.78262 0
M  V30 3810 C 350.793 2.9639 -5.11769 0
M  V30 3811 H 349.723 0.505593 -0.559368 0
M  V30 3812 H 352.374 0.630848 -1.72315 0
M  V30 3813 H 350.756 3.17902 -2.36124 0
M  V30 3814 H 351.93 1.21997 -4.44357 0
M  V30 3815 H 350.245 1.25418 -3.97063 0
M  V30 3816 H 352.842 4.00276 -3.54519 0
M  V30 3817 H 353.185 3.72684 -1.85505 0
M  V30 3818 H 353.718 2.53505 -3.06562 0
M  V30 3819 H 350.457 2.49181 -6.06291 0
M  V30 3820 H 349.977 3.62487 -4.77873 0
M  V30 3821 H 351.656 3.60474 -5.37278 0
M  V30 3822 N 351.788 1.33704 0.83433 0
M  V30 3823 C 353.065 1.16011 1.57483 0
M  V30 3824 C 353.445 -0.27176 2.09343 0
M  V30 3825 O 352.793 -1.27146 1.89858 0
M  V30 3826 C 353.003 2.20507 2.70514 0
M  V30 3827 C 354.351 2.54898 3.39577 0
M  V30 3828 O 355.375 2.19209 2.80759 0
M  V30 3829 O 354.234 3.16158 4.45765 0
M  V30 3830 H 351.328 0.448992 0.694503 0
M  V30 3831 H 353.874 1.453 0.876691 0
M  V30 3832 H 352.646 3.16667 2.29865 0
M  V30 3833 H 352.269 1.92329 3.47987 0
M  V30 3834 N 353.266 -1.05314 1.17247 0
M  V30 3835 C 354.196 -2.1498 0.911362 0
M  V30 3836 C 355.177 -1.69471 -0.146169 0
M  V30 3837 O 356.362 -1.942 0.003812 0
M  V30 3838 C 353.492 -3.4472 0.422528 0
M  V30 3839 C 352.446 -4.03789 1.4191 0
M  V30 3840 C 351.772 -5.28858 0.788274 0
M  V30 3841 C 353.072 -4.41418 2.7919 0
M  V30 3842 H 354.766 -2.3708 1.82848 0
M  V30 3843 H 352.312 -1.13938 0.880569 0
M  V30 3844 H 354.265 -4.20787 0.227289 0
M  V30 3845 H 352.989 -3.22269 -0.530123 0
M  V30 3846 H 351.648 -3.2979 1.60106 0
M  V30 3847 H 351.296 -5.02709 -0.171173 0
M  V30 3848 H 350.996 -5.69338 1.45353 0
M  V30 3849 H 352.52 -6.07612 0.603282 0
M  V30 3850 H 353.934 -5.08524 2.64719 0
M  V30 3851 H 352.331 -4.92913 3.42282 0
M  V30 3852 H 353.401 -3.51819 3.33693 0
M  V30 3853 N 354.744 -0.972509 -1.24016 0
M  V30 3854 C 355.692 -0.498562 -2.27194 0
M  V30 3855 C 356.686 0.440372 -1.63576 0
M  V30 3856 O 357.892 0.315133 -1.7722 0
M  V30 3857 H 354.267 -0.142775 -0.738322 0
M  V30 3858 H 356.238 -1.38065 -2.64539 0
M  V30 3859 C 354.987 0.191072 -3.47175 0
M  V30 3860 H 354.31 -0.522318 -3.96373 0
M  V30 3861 H 355.75 0.486445 -4.212 0
M  V30 3862 C 354.209 1.41967 -3.05527 0
M  V30 3863 O 354.739 2.51642 -3.13112 0
M  V30 3864 N 352.945 1.28746 -2.60524 0
M  V30 3865 H 352.492 0.395089 -2.54552 0
M  V30 3866 H 352.45 2.11061 -2.33025 0
M  V30 3867 N 356.222 1.38976 -0.743202 0
M  V30 3868 C 357.169 2.30544 -0.10861 0
M  V30 3869 C 358.139 1.49642 0.720869 0
M  V30 3870 O 359.324 1.78304 0.679142 0
M  V30 3871 C 356.464 3.36018 0.786496 0
M  V30 3872 C 355.577 4.31963 -0.0564849 0
M  V30 3873 C 354.712 5.24506 0.840657 0
M  V30 3874 C 353.751 6.121 -0.00658363 0
M  V30 3875 N 352.888 6.96973 0.846943 0
M  V30 3876 H 357.728 2.8424 -0.895088 0
M  V30 3877 H 355.265 1.3995 -0.453048 0
M  V30 3878 H 357.223 3.95768 1.31999 0
M  V30 3879 H 355.853 2.83758 1.53887 0
M  V30 3880 H 354.905 3.73763 -0.707492 0
M  V30 3881 H 356.217 4.93703 -0.711229 0
M  V30 3882 H 355.371 5.89322 1.4417 0
M  V30 3883 H 354.11 4.63107 1.52916 0
M  V30 3884 H 353.115 5.46289 -0.620366 0
M  V30 3885 H 354.34 6.75565 -0.691992 0
M  V30 3886 H 352.286 6.38133 1.52059 0
M  V30 3887 H 352.203 7.5559 0.248864 0
M  V30 3888 H 353.471 7.6621 1.43328 0
M  V30 3889 N 357.7 0.491464 1.49741 0
M  V30 3890 C 358.947 -0.0564256 2.02421 0
M  V30 3891 C 359.275 -1.37872 1.37192 0
M  V30 3892 O 358.53 -1.89375 0.493508 0
M  V30 3893 C 358.829 -0.267329 3.56399 0
M  V30 3894 C 358.495 0.975775 4.40215 0
M  V30 3895 C 357.157 1.31655 4.62839 0
M  V30 3896 C 359.509 1.80251 4.89039 0
M  V30 3897 C 356.837 2.48375 5.31532 0
M  V30 3898 C 359.189 2.96116 5.59015 0
M  V30 3899 C 357.853 3.30585 5.79888 0
M  V30 3900 H 357.123 -0.0206476 0.740712 0
M  V30 3901 H 359.77 0.649686 1.80143 0
M  V30 3902 H 358.075 -1.05588 3.77304 0
M  V30 3903 H 359.772 -0.705549 3.94744 0
M  V30 3904 H 356.362 0.700315 4.2284 0
M  V30 3905 H 360.546 1.55239 4.71396 0
M  V30 3906 H 355.802 2.7533 5.45897 0
M  V30 3907 H 359.976 3.60509 5.95824 0
M  V30 3908 H 357.603 4.21132 6.32892 0
M  V30 3909 N 359.178 -1.55987 0.224894 0
M  V30 3910 C 360.125 -2.20436 -0.68385 0
M  V30 3911 C 361.095 -1.16102 -1.18783 0
M  V30 3912 O 362.28 -1.4447 -1.24632 0
M  V30 3913 C 359.42 -2.89076 -1.88491 0
M  V30 3914 C 358.533 -4.08012 -1.41951 0
M  V30 3915 C 357.668 -4.64426 -2.5784 0
M  V30 3916 C 356.707 -5.75656 -2.08053 0
M  V30 3917 N 355.844 -6.26347 -3.17227 0
M  V30 3918 H 360.684 -2.97727 -0.12754 0
M  V30 3919 H 358.221 -1.47011 -0.0511978 0
M  V30 3920 H 360.179 -3.27059 -2.59014 0
M  V30 3921 H 358.809 -2.14298 -2.41405 0
M  V30 3922 H 357.861 -3.75492 -0.609095 0
M  V30 3923 H 359.173 -4.88375 -1.01447 0
M  V30 3924 H 358.327 -5.04869 -3.3644 0
M  V30 3925 H 357.066 -3.83233 -3.01635 0
M  V30 3926 H 356.071 -5.34712 -1.27916 0
M  V30 3927 H 357.296 -6.58686 -1.65255 0
M  V30 3928 H 355.242 -5.48067 -3.60497 0
M  V30 3929 H 355.159 -7.01843 -2.80986 0
M  V30 3930 H 356.427 -6.71447 -3.95953 0
M  V30 3931 N 360.656 0.0484629 -1.57525 0
M  V30 3932 C 361.566 1.07241 -2.08654 0
M  V30 3933 C 362.582 1.409 -1.02095 0
M  V30 3934 O 363.758 1.50609 -1.33712 0
M  V30 3935 C 360.823 2.36008 -2.5397 0
M  V30 3936 C 359.884 2.09108 -3.7493 0
M  V30 3937 C 359.117 3.31736 -4.18075 0
M  V30 3938 O 359.34 4.41714 -3.60895 0
M  V30 3939 O 358.274 3.18576 -5.10679 0
M  V30 3940 H 362.1 0.667965 -2.96263 0
M  V30 3941 H 359.685 0.26417 -1.47046 0
M  V30 3942 H 361.567 3.11747 -2.83535 0
M  V30 3943 H 360.242 2.75786 -1.69481 0
M  V30 3944 H 359.149 1.31 -3.50414 0
M  V30 3945 H 360.482 1.74198 -4.60343 0
M  V30 3946 N 362.134 1.5431 0.320358 0
M  V30 3947 C 363.359 1.76954 1.08175 0
M  V30 3948 C 363.784 0.518193 1.80821 0
M  V30 3949 O 363.142 -0.530411 1.73368 0
M  V30 3950 C 363.19 2.96451 2.05303 0
M  V30 3951 O 362.294 2.68221 3.13259 0
M  V30 3952 H 361.635 0.586275 0.311733 0
M  V30 3953 H 364.165 2.01342 0.363676 0
M  V30 3954 H 364.175 3.23887 2.48116 0
M  V30 3955 H 362.85 3.87196 1.51829 0
M  V30 3956 H 361.427 2.51744 2.75099 0
M  V30 3957 N 363.613 -0.582584 1.46437 0
M  V30 3958 C 364.861 -1.33814 1.51453 0
M  V30 3959 C 365.182 -1.94277 0.167792 0
M  V30 3960 O 364.452 -1.78566 -0.805677 0
M  V30 3961 H 363.032 -0.496838 0.557818 0
M  V30 3962 H 365.694 -0.682281 1.82568 0
M  V30 3963 H 364.79 -2.14479 2.26728 0
M  V30 3964 N 365.091 -1.34144 -0.827227 0
M  V30 3965 C 366.054 -1.25264 -1.91942 0
M  V30 3966 C 367.054 -0.168866 -1.59911 0
M  V30 3967 O 368.244 -0.421198 -1.69031 0
M  V30 3968 C 365.376 -0.932952 -3.27885 0
M  V30 3969 H 366.569 -2.22357 -2.0124 0
M  V30 3970 H 364.122 -1.1837 -1.0207 0
M  V30 3971 H 364.857 0.0349917 -3.24281 0
M  V30 3972 H 364.642 -1.71682 -3.52516 0
M  V30 3973 H 366.132 -0.895874 -4.07877 0
M  V30 3974 N 366.569 1.04691 -1.17803 0
M  V30 3975 C 367.517 2.14665 -0.895635 0
M  V30 3976 C 368.511 1.68806 0.141679 0
M  V30 3977 O 369.717 1.79999 -0.00587914 0
M  V30 3978 H 366.092 0.701038 -0.272121 0
M  V30 3979 H 368.063 2.35685 -1.83017 0
M  V30 3980 C 366.812 3.45019 -0.430962 0
M  V30 3981 H 366.135 3.8071 -1.22064 0
M  V30 3982 H 367.575 4.23125 -0.272301 0
M  V30 3983 C 366.034 3.25943 0.852207 0
M  V30 3984 O 366.564 3.5296 1.91786 0
M  V30 3985 N 364.77 2.79304 0.802346 0
M  V30 3986 H 364.317 2.57518 -0.0650788 0
M  V30 3987 H 364.275 2.66921 1.66134 0
M  V30 3988 N 368.047 0.979072 1.23499 0
M  V30 3989 C 369.293 0.648178 1.92163 0
M  V30 3990 C 369.626 -0.816049 1.76222 0
M  V30 3991 O 368.901 -1.58849 1.12237 0
M  V30 3992 C 369.184 1.03773 3.44824 0
M  V30 3993 C 369.037 2.55948 3.69879 0
M  V30 3994 C 370.356 0.580653 4.36253 0
M  V30 3995 H 367.475 0.236952 0.69787 0
M  V30 3996 H 370.117 1.22012 1.45647 0
M  V30 3997 H 368.267 0.551058 3.84572 0
M  V30 3998 H 369.939 3.12179 3.3962 0
M  V30 3999 H 368.182 2.98641 3.14636 0
M  V30 4000 H 368.853 2.78255 4.76737 0
M  V30 4001 H 371.329 0.998465 4.03943 0
M  V30 4002 H 370.205 0.881663 5.41773 0
M  V30 4003 H 370.466 -0.519052 4.39042 0
M  V30 4004 N 369.525 -1.3858 0.750561 0
M  V30 4005 C 370.753 -2.04471 0.316098 0
M  V30 4006 C 371.168 -1.56606 -1.05452 0
M  V30 4007 O 370.525 -0.737784 -1.66922 0
M  V30 4008 C 370.576 -3.60025 0.326275 0
M  V30 4009 O 370.297 -4.06133 1.6428 0
M  V30 4010 C 371.798 -4.43131 -0.122429 0
M  V30 4011 H 369.018 -0.65717 0.135528 0
M  V30 4012 H 371.562 -1.77329 1.01857 0
M  V30 4013 H 369.717 -3.86014 -0.327431 0
M  V30 4014 H 370.131 -5.00547 1.56693 0
M  V30 4015 H 371.605 -5.51963 -0.0641473 0
M  V30 4016 H 372.082 -4.23333 -1.16988 0
M  V30 4017 H 372.688 -4.22323 0.50229 0
M  V30 4018 N 371.003 -0.499398 -1.49478 0
M  V30 4019 C 372.251 0.0455996 -2.02049 0
M  V30 4020 C 372.572 1.37633 -1.38138 0
M  V30 4021 O 371.842 1.8842 -0.536166 0
M  V30 4022 H 370.422 0.0198416 -0.746736 0
M  V30 4023 H 373.084 -0.656274 -1.83519 0
M  V30 4024 H 372.18 0.176445 -3.11601 0
M  V30 4025 N 372.481 1.55866 -0.233164 0
M  V30 4026 C 373.728 1.98603 0.395374 0
M  V30 4027 C 374.056 1.12105 1.58942 0
M  V30 4028 O 373.311 0.168656 1.94972 0
M  V30 4029 C 373.61 3.46856 0.861724 0
M  V30 4030 C 373.276 4.50348 -0.223066 0
M  V30 4031 C 371.938 4.78371 -0.521038 0
M  V30 4032 C 374.29 5.12355 -0.956124 0
M  V30 4033 C 371.618 5.6568 -1.55638 0
M  V30 4034 C 373.97 6.00786 -1.98089 0
M  V30 4035 C 372.634 6.27148 -2.28565 0
M  V30 4036 H 371.904 0.726739 0.144677 0
M  V30 4037 H 374.551 1.88491 -0.338114 0
M  V30 4038 H 372.856 3.5423 1.67418 0
M  V30 4039 H 374.553 3.77302 1.35809 0
M  V30 4040 H 371.143 4.28596 0.0193234 0
M  V30 4041 H 375.327 4.90765 -0.739166 0
M  V30 4042 H 370.583 5.84365 -1.798 0
M  V30 4043 H 374.757 6.4788 -2.55391 0
M  V30 4044 H 372.384 6.94597 -3.08932 0
M  V30 4045 N 373.959 -0.0401083 1.57549 0
M  V30 4046 C 374.891 -1.07149 2.02612 0
M  V30 4047 C 375.904 -1.33126 0.937085 0
M  V30 4048 O 377.093 -1.30808 1.21456 0
M  V30 4049 C 374.193 -2.41561 2.37701 0
M  V30 4050 C 373.366 -2.35096 3.68848 0
M  V30 4051 C 372.425 -3.51867 3.91249 0
M  V30 4052 O 371.451 -3.3186 4.62447 0
M  V30 4053 N 372.653 -4.73351 3.36035 0
M  V30 4054 H 375.418 -0.687485 2.91708 0
M  V30 4055 H 372.979 -0.228248 1.60283 0
M  V30 4056 H 374.971 -3.18379 2.49833 0
M  V30 4057 H 373.541 -2.71846 1.54332 0
M  V30 4058 H 372.761 -1.4345 3.67173 0
M  V30 4059 H 374.049 -2.27908 4.54901 0
M  V30 4060 H 373.447 -4.92507 2.78304 0
M  V30 4061 H 372.004 -5.47572 3.53565 0
M  V30 4062 N 375.437 -1.54477 -0.31217 0
M  V30 4063 C 376.367 -1.87652 -1.38957 0
M  V30 4064 C 377.348 -0.734358 -1.53431 0
M  V30 4065 O 378.533 -0.98911 -1.67123 0
M  V30 4066 C 375.663 -2.11396 -2.75552 0
M  V30 4067 C 374.617 -3.27243 -2.75855 0
M  V30 4068 C 373.943 -3.36382 -4.15633 0
M  V30 4069 C 375.243 -4.64622 -2.38587 0
M  V30 4070 H 376.937 -2.77887 -1.11442 0
M  V30 4071 H 374.483 -1.33707 -0.534655 0
M  V30 4072 H 376.436 -2.33189 -3.51 0
M  V30 4073 H 375.16 -1.17921 -3.04569 0
M  V30 4074 H 373.819 -3.05356 -2.02863 0
M  V30 4075 H 373.467 -2.40445 -4.41809 0
M  V30 4076 H 373.167 -4.14249 -4.1674 0
M  V30 4077 H 374.691 -3.60422 -4.92877 0
M  V30 4078 H 376.105 -4.86219 -3.03749 0
M  V30 4079 H 374.502 -5.45121 -2.50925 0
M  V30 4080 H 375.572 -4.66097 -1.33723 0
M  V30 4081 N 376.915 0.57481 -1.46744 0
M  V30 4082 C 378.161 1.3347 -1.52688 0
M  V30 4083 C 378.494 1.93353 -0.181229 0
M  V30 4084 O 377.769 1.76912 0.808237 0
M  V30 4085 C 378.052 2.45811 -2.63152 0
M  V30 4086 C 377.905 1.90912 -4.07275 0
M  V30 4087 C 379.224 3.47822 -2.69644 0
M  V30 4088 H 376.343 0.483935 -0.555856 0
M  V30 4089 H 378.985 0.644968 -1.78718 0
M  V30 4090 H 377.135 3.04646 -2.41088 0
M  V30 4091 H 378.807 1.36473 -4.4065 0
M  V30 4092 H 377.05 1.21691 -4.16382 0
M  V30 4093 H 377.721 2.72042 -4.80309 0
M  V30 4094 H 380.197 2.9888 -2.895 0
M  V30 4095 H 379.073 4.23876 -3.48742 0
M  V30 4096 H 379.334 4.05555 -1.76005 0
M  V30 4097 N 378.394 1.34581 0.820102 0
M  V30 4098 C 379.342 1.26401 1.95258 0
M  V30 4099 C 380.336 0.161553 1.68628 0
M  V30 4100 O 381.542 0.326703 1.7701 0
M  V30 4101 H 377.917 0.392749 0.64129 0
M  V30 4102 H 379.888 2.22105 1.99279 0
M  V30 4103 C 378.637 1.03919 3.31807 0
M  V30 4104 H 377.96 1.87984 3.52848 0
M  V30 4105 H 379.4 1.02232 4.11491 0
M  V30 4106 C 377.859 -0.257433 3.35915 0
M  V30 4107 O 378.389 -1.25784 3.81499 0
M  V30 4108 N 376.595 -0.291524 2.89134 0
M  V30 4109 H 376.142 0.523161 2.52232 0
M  V30 4110 H 376.1 -1.15883 2.92264 0
M  V30 4111 N 379.872 -1.04064 1.18357 0
M  V30 4112 C 381.102 -1.80654 1.00238 0
M  V30 4113 C 381.51 -1.83713 -0.452362 0
M  V30 4114 O 380.853 -1.27135 -1.32599 0
M  V30 4115 C 380.915 -3.27582 1.48088 0
M  V30 4116 C 380.579 -3.48184 2.96002 0
M  V30 4117 C 381.576 -3.39372 3.93856 0
M  V30 4118 C 379.261 -3.7478 3.34433 0
M  V30 4119 C 381.255 -3.5686 5.28138 0
M  V30 4120 C 378.942 -3.91915 4.68877 0
M  V30 4121 C 379.94 -3.82956 5.65539 0
M  V30 4122 O 379.628 -3.996 6.97549 0
M  V30 4123 H 379.36 -0.575751 0.354241 0
M  V30 4124 H 381.914 -1.32044 1.57333 0
M  V30 4125 H 380.144 -3.77161 0.853588 0
M  V30 4126 H 381.833 -3.8573 1.2636 0
M  V30 4127 H 382.599 -3.18789 3.65511 0
M  V30 4128 H 378.478 -3.80852 2.59756 0
M  V30 4129 H 382.022 -3.49783 6.03571 0
M  V30 4130 H 377.919 -4.11992 4.96923 0
M  V30 4131 H 378.687 -4.1676 7.04452 0
M  V30 4132 N 381.35 -0.985608 -1.22978 0
M  V30 4133 C 382.578 -0.675582 -1.95559 0
M  V30 4134 C 382.993 0.758413 -1.72897 0
M  V30 4135 O 382.35 1.51094 -1.02357 0
M  V30 4136 C 382.401 -0.96293 -3.48439 0
M  V30 4137 O 382.122 -2.34057 -3.70336 0
M  V30 4138 C 383.623 -0.669585 -4.38214 0
M  V30 4139 H 380.843 -0.250523 -0.622478 0
M  V30 4140 H 383.387 -1.3184 -1.56328 0
M  V30 4141 H 381.542 -0.366033 -3.85667 0
M  V30 4142 H 381.956 -2.43424 -4.64591 0
M  V30 4143 H 383.43 -0.920967 -5.44263 0
M  V30 4144 H 383.907 0.396383 -4.37408 0
M  V30 4145 H 384.513 -1.2472 -4.06602 0
M  V30 4146 N 382.828 1.3818 -0.7579 0
M  V30 4147 C 384.105 1.94106 -0.241306 0
M  V30 4148 C 384.485 1.69282 1.26122 0
M  V30 4149 O 383.833 1.03378 2.03777 0
M  V30 4150 C 384.043 3.43809 -0.59967 0
M  V30 4151 C 385.391 4.20868 -0.561717 0
M  V30 4152 O 386.415 3.5211 -0.538222 0
M  V30 4153 O 385.274 5.43451 -0.576478 0
M  V30 4154 H 382.368 0.825376 -0.0518042 0
M  V30 4155 H 384.914 1.47548 -0.838315 0
M  V30 4156 H 383.686 3.55403 -1.6372 0
M  V30 4157 H 383.309 3.97592 0.0251197 0
M  V30 4158 N 384.306 0.507319 1.49211 0
M  V30 4159 C 385.534 -0.0315749 2.06876 0
M  V30 4160 C 385.949 -1.30241 1.36685 0
M  V30 4161 O 385.306 -1.76937 0.447152 0
M  V30 4162 C 385.357 -0.282627 3.60393 0
M  V30 4163 O 385.078 0.937835 4.27944 0
M  V30 4164 C 386.579 -0.864453 4.3479 0
M  V30 4165 H 383.799 0.0233048 0.670595 0
M  V30 4166 H 386.343 0.706484 1.91909 0
M  V30 4167 H 384.498 -0.97068 3.75042 0
M  V30 4168 H 384.912 0.704567 5.19746 0
M  V30 4169 H 386.386 -0.989664 5.43056 0
M  V30 4170 H 386.863 -1.86382 3.97692 0
M  V30 4171 H 387.469 -0.213672 4.24763 0
M  V30 4172 N 385.784 -1.5574 0.241426 0
M  V30 4173 C 387.033 -1.97986 -0.385295 0
M  V30 4174 C 387.346 -1.13267 -1.59468 0
M  V30 4175 O 388.552 -1.45501 -2.2922 0
M  V30 4176 C 387.008 -3.52275 -0.736884 0
M  V30 4177 C 386.616 -4.45726 0.450796 0
M  V30 4178 C 388.36 -4.03189 -1.3281 0
M  V30 4179 C 386.267 -5.91352 0.0756662 0
M  V30 4180 H 385.197 -0.739386 -0.147731 0
M  V30 4181 H 387.848 -1.80308 0.340779 0
M  V30 4182 H 386.23 -3.65628 -1.52094 0
M  V30 4183 H 387.404 -4.44131 1.22819 0
M  V30 4184 H 385.719 -4.05264 0.956573 0
M  V30 4185 H 388.316 -5.09505 -1.62201 0
M  V30 4186 H 388.659 -3.50212 -2.25071 0
M  V30 4187 H 389.192 -3.93141 -0.607069 0
M  V30 4188 H 385.931 -6.48354 0.965272 0
M  V30 4189 H 385.451 -5.96095 -0.665635 0
M  V30 4190 H 387.13 -6.46084 -0.344075 0
M  V30 4191 N 387.262 0.0317525 -1.57568 0
M  V30 4192 C 388.673 0.578692 -1.77505 0
M  V30 4193 C 389.024 1.75749 -0.872164 0
M  V30 4194 O 388.149 2.16298 -0.0663106 0
M  V30 4195 C 388.744 1.05658 -3.21904 0
M  V30 4196 C 387.303 1.54906 -3.43047 0
M  V30 4197 C 386.45 0.485939 -2.73009 0
M  V30 4198 H 389.401 -0.194475 -1.57504 0
M  V30 4199 H 389.422 1.92404 -3.28269 0
M  V30 4200 H 388.934 0.198422 -3.87592 0
M  V30 4201 H 387.035 2.42915 -2.82529 0
M  V30 4202 H 387.148 1.59841 -4.5165 0
M  V30 4203 H 385.512 0.940354 -2.36705 0
M  V30 4204 H 386.295 -0.362709 -3.41379 0
M  V30 4205 N 388.74 1.54641 0.303973 0
M  V30 4206 C 389.703 1.84646 1.35789 0
M  V30 4207 C 390.703 0.7192 1.4382 0
M  V30 4208 O 391.893 0.987491 1.43507 0
M  V30 4209 C 389.025 2.02407 2.74307 0
M  V30 4210 H 390.218 2.78829 1.10429 0
M  V30 4211 H 387.771 1.46658 0.540487 0
M  V30 4212 H 388.506 1.10502 3.04893 0
M  V30 4213 H 388.291 2.84453 2.69868 0
M  V30 4214 H 389.781 2.27002 3.50514 0
M  V30 4215 N 390.218 -0.567019 1.47046 0
M  V30 4216 C 391.165 -1.67489 1.58796 0
M  V30 4217 C 392.135 -1.60399 0.43144 0
M  V30 4218 O 393.32 -1.79378 0.650233 0
M  V30 4219 C 390.46 -3.05821 1.59899 0
M  V30 4220 C 389.573 -3.2342 2.86397 0
M  V30 4221 C 388.708 -4.52093 2.789 0
M  V30 4222 C 387.747 -4.6309 4.00267 0
M  V30 4223 N 386.884 -5.83106 3.91064 0
M  V30 4224 H 391.724 -1.56785 2.53422 0
M  V30 4225 H 389.261 -0.763896 1.2571 0
M  V30 4226 H 391.219 -3.8591 1.58522 0
M  V30 4227 H 389.849 -3.15384 0.687929 0
M  V30 4228 H 388.901 -2.3683 2.97684 0
M  V30 4229 H 390.213 -3.27412 3.76301 0
M  V30 4230 H 389.367 -5.4043 2.75718 0
M  V30 4231 H 388.106 -4.50565 1.86662 0
M  V30 4232 H 387.111 -3.73168 4.03765 0
M  V30 4233 H 388.336 -4.66386 4.93621 0
M  V30 4234 H 386.282 -5.82546 3.01623 0
M  V30 4235 H 386.199 -5.88434 4.74638 0
M  V30 4236 H 387.467 -6.73831 3.91882 0
M  V30 4237 N 391.696 -1.35014 -0.812953 0
M  V30 4238 C 392.945 -1.27269 -1.56479 0
M  V30 4239 C 393.258 0.152771 -1.95002 0
M  V30 4240 O 394.464 0.352451 -2.69203 0
M  V30 4241 C 392.92 -2.23159 -2.82362 0
M  V30 4242 C 392.528 -3.71016 -2.511 0
M  V30 4243 C 394.272 -2.24342 -3.60376 0
M  V30 4244 C 392.179 -4.58746 -3.73237 0
M  V30 4245 H 391.109 -0.472829 -0.587324 0
M  V30 4246 H 393.76 -1.6024 -0.894171 0
M  V30 4247 H 392.142 -1.83151 -3.51101 0
M  V30 4248 H 393.316 -4.1962 -1.90409 0
M  V30 4249 H 391.631 -3.72378 -1.86343 0
M  V30 4250 H 394.228 -2.87107 -4.51081 0
M  V30 4251 H 394.571 -1.24542 -3.97234 0
M  V30 4252 H 395.104 -2.62846 -2.98591 0
M  V30 4253 H 391.843 -5.59521 -3.41492 0
M  V30 4254 H 391.363 -4.14871 -4.33176 0
M  V30 4255 H 393.042 -4.73852 -4.40537 0
M  V30 4256 N 393.175 1.03435 -1.18907 0
M  V30 4257 C 394.108 2.11162 -0.86521 0
M  V30 4258 C 395.086 1.6165 0.175473 0
M  V30 4259 O 396.27 1.88425 0.0530129 0
M  V30 4260 C 393.397 3.37423 -0.293868 0
M  V30 4261 C 392.443 4.05795 -1.31274 0
M  V30 4262 S 393.276 4.52027 -2.8711 0
M  V30 4263 C 394.432 5.81513 -2.31504 0
M  V30 4264 H 394.665 2.38308 -1.77754 0
M  V30 4265 H 392.198 1.16295 -1.01562 0
M  V30 4266 H 394.156 4.1049 0.0292572 0
M  V30 4267 H 392.817 3.0838 0.596682 0
M  V30 4268 H 392.01 4.96574 -0.86198 0
M  V30 4269 H 391.612 3.38874 -1.58242 0
M  V30 4270 H 393.904 6.55784 -1.70157 0
M  V30 4271 H 394.847 6.3136 -3.20608 0
M  V30 4272 H 395.255 5.36921 -1.74286 0
M  V30 4273 N 394.653 0.992116 1.22453 0
M  V30 4274 C 395.585 0.500024 2.23679 0
M  V30 4275 C 396.598 -0.404463 1.57696 0
M  V30 4276 O 397.787 -0.206722 1.77299 0
M  V30 4277 C 394.887 -0.294711 3.37616 0
M  V30 4278 C 394.06 0.605723 4.33186 0
M  V30 4279 C 393.119 -0.13717 5.26021 0
M  V30 4280 O 392.145 0.477164 5.67196 0
M  V30 4281 N 393.347 -1.4197 5.62872 0
M  V30 4282 H 396.112 1.37045 2.66531 0
M  V30 4283 H 393.673 0.866741 1.36745 0
M  V30 4284 H 395.665 -0.800329 3.96707 0
M  V30 4285 H 394.235 -1.06623 2.93854 0
M  V30 4286 H 393.455 1.29202 3.72425 0
M  V30 4287 H 394.743 1.21896 4.93983 0
M  V30 4288 H 394.141 -1.94015 5.31389 0
M  V30 4289 H 392.698 -1.87052 6.24383 0
M  V30 4290 N 396.131 -1.37776 0.765217 0
M  V30 4291 C 397.063 -2.28958 0.105361 0
M  V30 4292 C 398.076 -1.48316 -0.67128 0
M  V30 4293 O 399.265 -1.71046 -0.51045 0
M  V30 4294 C 396.365 -3.27421 -0.874569 0
M  V30 4295 C 395.538 -4.37132 -0.153123 0
M  V30 4296 C 394.597 -5.1571 -1.04547 0
M  V30 4297 O 393.623 -5.66896 -0.511672 0
M  V30 4298 N 394.825 -5.29808 -2.37243 0
M  V30 4299 H 397.59 -2.86227 0.888495 0
M  V30 4300 H 395.151 -1.49682 0.617 0
M  V30 4301 H 397.143 -3.7687 -1.47483 0
M  V30 4302 H 395.713 -2.70967 -1.55871 0
M  V30 4303 H 394.933 -3.89166 0.627975 0
M  V30 4304 H 396.221 -5.07625 0.345643 0
M  V30 4305 H 395.619 -4.89793 -2.83054 0
M  V30 4306 H 394.176 -5.82589 -2.9229 0
M  V30 4307 N 397.609 -0.515225 -1.4894 0
M  V30 4308 C 398.855 0.016187 -2.03394 0
M  V30 4309 C 399.21 1.33377 -1.38666 0
M  V30 4310 O 398.503 1.84461 -0.518141 0
M  V30 4311 C 398.697 0.210595 -3.56779 0
M  V30 4312 C 398.526 -1.08659 -4.36375 0
M  V30 4313 C 397.296 -1.64237 -4.77864 0
M  V30 4314 C 399.494 -1.9935 -4.74093 0
M  V30 4315 N 397.476 -2.88398 -5.41941 0
M  V30 4316 C 398.847 -3.08088 -5.38035 0
M  V30 4317 C 400.902 -1.99856 -4.56029 0
M  V30 4318 C 399.605 -4.17377 -5.85823 0
M  V30 4319 C 401.631 -3.08129 -5.04787 0
M  V30 4320 C 400.993 -4.15586 -5.68742 0
M  V30 4321 H 397.092 -0.0352107 -0.781207 0
M  V30 4322 H 399.676 -0.693237 -1.8194 0
M  V30 4323 H 397.847 0.889088 -3.78087 0
M  V30 4324 H 399.579 0.740287 -3.97872 0
M  V30 4325 H 396.334 -1.18566 -4.58518 0
M  V30 4326 H 396.758 -3.51572 -5.78555 0
M  V30 4327 H 401.4 -1.18079 -4.05977 0
M  V30 4328 H 399.118 -4.99943 -6.34888 0
M  V30 4329 H 402.704 -3.09557 -4.92611 0
M  V30 4330 H 401.584 -4.97987 -6.05787 0
M  V30 4331 N 399.087 1.5561 -0.249682 0
M  V30 4332 C 400.034 2.21496 0.648694 0
M  V30 4333 C 401.004 1.17977 1.16921 0
M  V30 4334 O 402.189 1.46434 1.22318 0
M  V30 4335 C 399.329 2.92039 1.83868 0
M  V30 4336 C 398.442 4.10219 1.35442 0
M  V30 4337 C 397.577 4.6847 2.50419 0
M  V30 4338 C 396.616 5.78893 1.98869 0
M  V30 4339 N 395.753 6.31315 3.07223 0
M  V30 4340 H 400.593 2.97892 0.0801582 0
M  V30 4341 H 398.13 1.47074 0.0278031 0
M  V30 4342 H 400.088 3.31138 2.53778 0
M  V30 4343 H 398.718 2.18111 2.37965 0
M  V30 4344 H 397.77 3.76413 0.54928 0
M  V30 4345 H 399.082 4.89927 0.936649 0
M  V30 4346 H 398.236 5.10158 3.28366 0
M  V30 4347 H 396.975 3.87984 2.95499 0
M  V30 4348 H 395.98 5.3668 1.19393 0
M  V30 4349 H 397.205 6.61232 1.54755 0
M  V30 4350 H 395.151 5.53733 3.51732 0
M  V30 4351 H 395.068 7.06224 2.69784 0
M  V30 4352 H 396.336 6.77662 3.8522 0
M  V30 4353 N 400.565 -0.0233959 1.57583 0
M  V30 4354 C 401.513 -1.04063 2.08023 0
M  V30 4355 C 402.507 -1.37084 0.995204 0
M  V30 4356 O 403.713 -1.35923 1.18004 0
M  V30 4357 H 400.088 -0.353144 0.663922 0
M  V30 4358 H 402.059 -0.589453 2.9252 0
M  V30 4359 C 400.808 -2.33123 2.57971 0
M  V30 4360 H 400.131 -2.08577 3.4108 0
M  V30 4361 H 401.571 -3.02632 2.96967 0
M  V30 4362 C 400.03 -3.02483 1.48342 0
M  V30 4363 O 400.56 -3.92541 0.852898 0
M  V30 4364 N 398.766 -2.63909 1.21658 0
M  V30 4365 H 398.313 -1.90758 1.73116 0
M  V30 4366 H 398.271 -3.10633 0.485218 0
M  V30 4367 N 402.043 -1.548 -0.295768 0
M  V30 4368 C 403.268 -1.78653 -1.05346 0
M  V30 4369 C 403.693 -0.546894 -1.79974 0
M  V30 4370 O 403.051 0.502763 -1.7419 0
M  V30 4371 C 403.099 -2.99679 -2.00561 0
M  V30 4372 O 402.203 -2.7317 -3.08953 0
M  V30 4373 H 401.544 -0.59116 -0.302367 0
M  V30 4374 H 404.074 -2.01895 -0.331598 0
M  V30 4375 H 404.084 -3.27793 -2.42932 0
M  V30 4376 H 402.759 -3.89562 -1.4565 0
M  V30 4377 H 401.336 -2.56089 -2.71059 0
M  V30 4378 N 403.521 0.559213 -1.47345 0
M  V30 4379 C 404.798 1.31997 -1.44348 0
M  V30 4380 C 405.178 2.1064 -0.139358 0
M  V30 4381 O 404.526 2.1091 0.879153 0
M  V30 4382 C 404.736 2.22618 -2.68779 0
M  V30 4383 C 406.084 2.83701 -3.1591 0
M  V30 4384 O 407.108 2.32921 -2.69493 0
M  V30 4385 O 405.967 3.75993 -3.966 0
M  V30 4386 H 403.061 0.594251 -0.575147 0
M  V30 4387 H 405.607 0.578282 -1.59543 0
M  V30 4388 H 404.379 1.64093 -3.55231 0
M  V30 4389 H 404.002 3.04085 -2.5616 0
M  V30 4390 N 404.999 1.35443 0.805782 0
M  V30 4391 C 405.962 1.28301 1.89925 0
M  V30 4392 C 406.962 0.194285 1.59622 0
M  V30 4393 O 408.152 0.448036 1.6834 0
M  V30 4394 C 405.284 0.984997 3.2636 0
M  V30 4395 H 406.477 2.2553 1.97677 0
M  V30 4396 H 404.03 1.19979 1.00173 0
M  V30 4397 H 404.765 0.016603 3.24296 0
M  V30 4398 H 404.55 1.77269 3.4974 0
M  V30 4399 H 406.04 0.960651 4.064 0
M  V30 4400 N 406.477 -1.02803 1.19454 0
M  V30 4401 C 407.893 -1.28473 0.946937 0
M  V30 4402 C 408.093 -1.97881 -0.380202 0
M  V30 4403 O 407.149 -2.26719 -1.11151 0
M  V30 4404 C 408.462 -2.13099 2.12154 0
M  V30 4405 C 410.01 -2.26404 2.16126 0
M  V30 4406 C 410.485 -3.14402 3.33039 0
M  V30 4407 N 411.976 -3.21991 3.32981 0
M  V30 4408 C 412.711 -3.90272 4.20089 0
M  V30 4409 N 412.207 -4.60777 5.17355 0
M  V30 4410 N 414 -3.8668 4.07964 0
M  V30 4411 H 406.151 -0.561665 2.04839 0
M  V30 4412 H 408.414 -0.310438 0.89573 0
M  V30 4413 H 408.12 -1.69422 3.08203 0
M  V30 4414 H 407.994 -3.13813 2.09287 0
M  V30 4415 H 410.381 -2.69311 1.20647 0
M  V30 4416 H 410.462 -1.25237 2.23045 0
M  V30 4417 H 410.106 -2.72204 4.28798 0
M  V30 4418 H 410.036 -4.1563 3.23356 0
M  V30 4419 H 412.527 -2.71778 2.62574 0
M  V30 4420 H 412.84 -5.10513 5.80169 0
M  V30 4421 H 411.185 -4.5964 5.21302 0
M  V30 4422 H 414.376 -3.30739 3.31254 0
M  V30 4423 H 414.549 -4.39621 4.76064 0
M  V30 4424 N 407.956 -0.998596 -1.21925 0
M  V30 4425 C 409.233 -0.593401 -1.86382 0
M  V30 4426 C 409.613 0.92916 -1.89552 0
M  V30 4427 O 408.961 1.81347 -1.39017 0
M  V30 4428 C 409.171 -1.22039 -3.26967 0
M  V30 4429 C 410.519 -1.32449 -4.03413 0
M  V30 4430 O 411.543 -1.17522 -3.36254 0
M  V30 4431 O 410.402 -1.56395 -5.23644 0
M  V30 4432 H 407.496 -0.202385 -0.801854 0
M  V30 4433 H 410.042 -1.09484 -1.29659 0
M  V30 4434 H 408.814 -2.26158 -3.19325 0
M  V30 4435 H 408.437 -0.704906 -3.91301 0
M  V30 4436 N 409.434 1.37368 -0.772513 0
M  V30 4437 C 410.384 2.27613 -0.132823 0
M  V30 4438 C 411.368 1.46138 0.673247 0
M  V30 4439 O 412.56 1.68686 0.536095 0
M  V30 4440 C 409.689 3.35122 0.744864 0
M  V30 4441 C 408.775 4.24044 -0.0690771 0
M  V30 4442 N 409.166 4.93355 -1.1151 0
M  V30 4443 C 407.464 4.45731 0.154782 0
M  V30 4444 C 408.165 5.59 -1.60917 0
M  V30 4445 N 407.141 5.35737 -0.921222 0
M  V30 4446 H 410.943 2.78675 -0.933681 0
M  V30 4447 H 408.457 1.50494 -0.610342 0
M  V30 4448 H 410.454 3.98683 1.21892 0
M  V30 4449 H 409.114 2.85616 1.54446 0
M  V30 4450 H 410.125 4.95785 -1.49726 0
M  V30 4451 H 406.802 4.07096 0.926224 0
M  V30 4452 H 408.192 6.24395 -2.48153 0
M  V30 4453 N 410.912 0.523116 1.48665 0
M  V30 4454 C 412.14 -0.0096312 2.06898 0
M  V30 4455 C 412.555 -1.28784 1.38059 0
M  V30 4456 O 411.912 -1.76453 0.465893 0
M  V30 4457 C 411.963 -0.244386 3.60673 0
M  V30 4458 O 411.684 0.983172 4.26925 0
M  V30 4459 C 413.185 -0.818289 4.35682 0
M  V30 4460 H 410.405 0.0304161 0.67031 0
M  V30 4461 H 412.949 0.726799 1.91149 0
M  V30 4462 H 411.104 -0.930847 3.76051 0
M  V30 4463 H 411.518 0.759653 5.1897 0
M  V30 4464 H 412.992 -0.93201 5.44075 0
M  V30 4465 H 413.469 -1.82153 3.99646 0
M  V30 4466 H 414.075 -0.168609 4.24966 0
M  V30 4467 N 412.39 -1.55475 0.257931 0
M  V30 4468 C 413.806 -1.59307 -0.0966563 0
M  V30 4469 C 414.006 -1.27514 -1.5602 0
M  V30 4470 O 413.062 -1.02774 -2.30637 0
M  V30 4471 C 414.375 -2.99552 0.262481 0
M  V30 4472 C 415.923 -3.1231 0.207683 0
M  V30 4473 C 416.398 -4.54793 0.541012 0
M  V30 4474 N 417.889 -4.6058 0.491921 0
M  V30 4475 C 418.624 -5.68825 0.722857 0
M  V30 4476 N 418.12 -6.85287 1.0175 0
M  V30 4477 N 419.913 -5.58296 0.652815 0
M  V30 4478 H 412.064 -1.74409 1.21224 0
M  V30 4479 H 414.327 -0.812424 0.48854 0
M  V30 4480 H 414.033 -3.27593 1.27967 0
M  V30 4481 H 413.907 -3.75019 -0.40508 0
M  V30 4482 H 416.294 -2.84044 -0.800195 0
M  V30 4483 H 416.375 -2.39095 0.909255 0
M  V30 4484 H 416.019 -4.83783 1.5465 0
M  V30 4485 H 415.949 -5.26285 -0.18216 0
M  V30 4486 H 418.44 -3.7691 0.273366 0
M  V30 4487 H 418.753 -7.63725 1.18084 0
M  V30 4488 H 417.098 -6.86945 1.05509 0
M  V30 4489 H 420.289 -4.66189 0.422592 0
M  V30 4490 H 420.462 -6.42582 0.836182 0
M  V30 4491 N 413.868 0.0150385 -1.57593 0
M  V30 4492 C 415.114 0.704043 -1.90187 0
M  V30 4493 C 415.447 1.74249 -0.857366 0
M  V30 4494 O 414.722 1.94092 0.125843 0
M  V30 4495 C 415.005 1.36087 -3.33395 0
M  V30 4496 C 414.858 0.334981 -4.48551 0
M  V30 4497 C 416.177 2.29112 -3.7576 0
M  V30 4498 H 413.296 0.254475 -0.691673 0
M  V30 4499 H 415.938 -0.0331678 -1.89971 0
M  V30 4500 H 414.088 1.98922 -3.3371 0
M  V30 4501 H 415.76 -0.292534 -4.60372 0
M  V30 4502 H 414.003 -0.344325 -4.32431 0
M  V30 4503 H 414.674 0.833316 -5.45674 0
M  V30 4504 H 417.15 1.76308 -3.76902 0
M  V30 4505 H 416.026 2.72043 -4.76743 0
M  V30 4506 H 416.287 3.16385 -3.08793 0
M  V30 4507 N 415.346 1.54954 0.287554 0
M  V30 4508 C 416.623 1.65569 1.04146 0
M  V30 4509 C 417.003 0.512672 2.0478 0
M  V30 4510 O 416.351 -0.489038 2.23205 0
M  V30 4511 C 416.561 3.04163 1.71131 0
M  V30 4512 C 417.909 3.61429 2.22832 0
M  V30 4513 O 418.933 3.06702 1.81141 0
M  V30 4514 O 417.792 4.57281 2.9926 0
M  V30 4515 H 414.886 0.671881 0.482188 0
M  V30 4516 H 417.432 1.67297 0.28457 0
M  V30 4517 H 416.204 3.78796 0.981303 0
M  V30 4518 H 415.827 3.06271 2.53543 0
M  V30 4519 N 416.824 -0.551391 1.4764 0
M  V30 4520 C 418.07 -1.30789 1.55774 0
M  V30 4521 C 418.425 -1.91143 0.219562 0
M  V30 4522 O 417.718 -1.7521 -0.775375 0
M  V30 4523 C 417.912 -2.43469 2.61644 0
M  V30 4524 C 417.741 -1.94157 4.05627 0
M  V30 4525 C 416.511 -1.77734 4.7301 0
M  V30 4526 C 418.709 -1.48262 4.92466 0
M  V30 4527 N 416.691 -1.22823 6.01488 0
M  V30 4528 C 418.062 -1.05156 6.11017 0
M  V30 4529 C 420.117 -1.36367 4.78862 0
M  V30 4530 C 418.82 -0.513357 7.17466 0
M  V30 4531 C 420.846 -0.839484 5.85411 0
M  V30 4532 C 420.208 -0.418377 7.03156 0
M  V30 4533 H 416.307 -0.470406 0.624694 0
M  V30 4534 H 418.891 -0.624331 1.84419 0
M  V30 4535 H 417.062 -3.09348 2.34859 0
M  V30 4536 H 418.794 -3.10477 2.59589 0
M  V30 4537 H 415.549 -2.00623 4.29007 0
M  V30 4538 H 415.973 -0.974393 6.69951 0
M  V30 4539 H 420.615 -1.67535 3.88191 0
M  V30 4540 H 418.333 -0.189318 8.07878 0
M  V30 4541 H 421.919 -0.750921 5.76934 0
M  V30 4542 H 420.799 -0.0190538 7.84198 0
M  V30 4543 N 418.302 -1.35869 -0.798587 0
M  V30 4544 C 419.249 -1.29446 -1.91082 0
M  V30 4545 C 420.219 -0.16487 -1.6528 0
M  V30 4546 O 421.404 -0.349888 -1.87564 0
M  V30 4547 C 418.544 -1.0804 -3.27752 0
M  V30 4548 C 417.657 -2.29993 -3.65687 0
M  V30 4549 C 416.792 -2.01673 -4.91428 0
M  V30 4550 C 415.831 -3.19636 -5.22015 0
M  V30 4551 N 414.968 -2.91039 -6.38937 0
M  V30 4552 H 419.808 -2.24553 -1.95907 0
M  V30 4553 H 417.345 -1.11615 -0.958148 0
M  V30 4554 H 419.303 -0.936586 -4.06551 0
M  V30 4555 H 417.933 -0.16592 -3.22373 0
M  V30 4556 H 416.985 -2.55211 -2.82085 0
M  V30 4557 H 418.297 -3.18052 -3.84245 0
M  V30 4558 H 417.451 -1.84168 -5.78072 0
M  V30 4559 H 416.19 -1.10911 -4.74921 0
M  V30 4560 H 415.195 -3.37709 -4.33858 0
M  V30 4561 H 416.42 -4.11211 -5.40447 0
M  V30 4562 H 414.366 -2.0288 -6.2384 0
M  V30 4563 H 414.283 -3.72635 -6.57784 0
M  V30 4564 H 415.551 -2.77093 -7.28587 0
M  V30 4565 N 419.78 1.02168 -1.19998 0
M  V30 4566 C 421.196 1.27969 -0.953737 0
M  V30 4567 C 421.396 1.98079 0.369703 0
M  V30 4568 O 420.452 2.27306 1.09947 0
M  V30 4569 C 421.765 2.11971 -2.13281 0
M  V30 4570 C 423.313 2.25255 -2.17323 0
M  V30 4571 C 423.788 3.12632 -3.34702 0
M  V30 4572 N 425.279 3.2022 -3.34684 0
M  V30 4573 C 426.014 3.88039 -4.22153 0
M  V30 4574 N 425.51 4.58027 -5.19791 0
M  V30 4575 N 427.303 3.84511 -4.10009 0
M  V30 4576 H 419.454 0.550794 -2.05134 0
M  V30 4577 H 421.717 0.305683 -0.897364 0
M  V30 4578 H 421.423 1.67785 -3.09097 0
M  V30 4579 H 421.297 3.12699 -2.10949 0
M  V30 4580 H 423.684 2.68667 -1.22073 0
M  V30 4581 H 423.765 1.24053 -2.23706 0
M  V30 4582 H 423.409 2.69926 -4.30235 0
M  V30 4583 H 423.339 4.13909 -3.25556 0
M  V30 4584 H 425.83 2.70382 -2.64012 0
M  V30 4585 H 426.143 5.07429 -5.82868 0
M  V30 4586 H 424.488 4.56869 -5.23733 0
M  V30 4587 H 427.679 3.28978 -3.33003 0
M  V30 4588 H 427.852 4.3709 -4.78389 0
M  V30 4589 N 421.258 1.00505 1.21394 0
M  V30 4590 C 422.669 0.721082 1.72213 0
M  V30 4591 C 423.02 -0.761263 1.80829 0
M  V30 4592 O 422.145 -1.59464 1.46288 0
M  V30 4593 C 422.74 1.30228 3.12772 0
M  V30 4594 C 421.299 1.06743 3.60947 0
M  V30 4595 C 420.446 1.41507 2.38477 0
M  V30 4596 H 423.397 1.17594 1.06571 0
M  V30 4597 H 423.418 0.686955 3.74247 0
M  V30 4598 H 422.93 2.38115 3.06468 0
M  V30 4599 H 421.031 0.00572162 3.726 0
M  V30 4600 H 421.144 1.73936 4.46411 0
M  V30 4601 H 419.508 0.833852 2.40664 0
M  V30 4602 H 420.291 2.50424 2.34824 0
M  V30 4603 N 422.737 -1.36956 0.779787 0
M  V30 4604 C 423.684 -2.30175 0.169697 0
M  V30 4605 C 424.654 -1.51501 -0.68094 0
M  V30 4606 O 425.839 -1.80042 -0.631629 0
M  V30 4607 C 422.979 -3.37985 -0.697131 0
M  V30 4608 C 422.092 -4.31661 0.170992 0
M  V30 4609 C 421.227 -5.2655 -0.701298 0
M  V30 4610 C 420.266 -6.11867 0.168869 0
M  V30 4611 N 419.403 -6.98973 -0.661855 0
M  V30 4612 H 424.243 -2.81767 0.970135 0
M  V30 4613 H 421.78 -1.38699 0.489994 0
M  V30 4614 H 423.738 -3.99128 -1.2146 0
M  V30 4615 H 422.368 -2.87739 -1.46309 0
M  V30 4616 H 421.42 -3.71756 0.80634 0
M  V30 4617 H 422.732 -4.91644 0.841875 0
M  V30 4618 H 421.886 -5.92937 -1.28494 0
M  V30 4619 H 420.625 -4.66998 -1.40584 0
M  V30 4620 H 419.63 -5.44452 0.764986 0
M  V30 4621 H 420.855 -6.73493 0.870863 0
M  V30 4622 H 418.801 -6.41941 -1.35086 0
M  V30 4623 H 418.718 -7.55984 -0.0484447 0
M  V30 4624 H 419.986 -7.6974 -1.22963 0
M  V30 4625 N 424.215 -0.530993 -1.48385 0
M  V30 4626 C 425.445 -0.00133928 -2.066 0
M  V30 4627 C 425.853 1.28599 -1.38777 0
M  V30 4628 O 425.196 1.77599 -0.469495 0
M  V30 4629 C 425.258 0.292137 -3.58311 0
M  V30 4630 C 424.922 -0.901864 -4.48013 0
M  V30 4631 C 425.919 -1.80053 -4.87726 0
M  V30 4632 C 423.604 -1.10915 -4.89901 0
M  V30 4633 C 425.598 -2.89038 -5.68098 0
M  V30 4634 C 423.285 -2.20213 -5.70043 0
M  V30 4635 C 424.283 -3.09107 -6.0905 0
M  V30 4636 O 423.971 -4.16514 -6.87583 0
M  V30 4637 H 423.703 -0.0308475 -0.675296 0
M  V30 4638 H 426.257 -0.736335 -1.91748 0
M  V30 4639 H 424.487 1.08112 -3.7128 0
M  V30 4640 H 426.176 0.763994 -3.98645 0
M  V30 4641 H 426.942 -1.65234 -4.55986 0
M  V30 4642 H 422.821 -0.426498 -4.59023 0
M  V30 4643 H 426.365 -3.58451 -5.98464 0
M  V30 4644 H 422.262 -2.35016 -6.01197 0
M  V30 4645 H 423.03 -4.14237 -7.05939 0
M  V30 4646 N 425.693 1.55336 -0.266172 0
M  V30 4647 C 426.921 2.03801 0.356756 0
M  V30 4648 C 427.336 1.14485 1.50129 0
M  V30 4649 O 426.693 0.163121 1.8177 0
M  V30 4650 C 426.744 3.51455 0.846281 0
M  V30 4651 O 426.465 4.37371 -0.252663 0
M  V30 4652 C 427.966 4.15767 1.53794 0
M  V30 4653 H 425.186 0.665906 0.0825218 0
M  V30 4654 H 427.73 2.00636 -0.39566 0
M  V30 4655 H 425.885 3.55092 1.54881 0
M  V30 4656 H 426.299 5.24358 0.122173 0
M  V30 4657 H 427.773 5.20714 1.83198 0
M  V30 4658 H 428.25 3.63404 2.46646 0
M  V30 4659 H 428.856 4.16107 0.879488 0
M  V30 4660 N 427.171 -0.0066808 1.57599 0
M  V30 4661 C 428.396 -0.707738 1.94951 0
M  V30 4662 C 428.821 -1.66882 0.867868 0
M  V30 4663 O 428.179 -1.80457 -0.17458 0
M  V30 4664 C 428.227 -1.42162 3.31394 0
M  V30 4665 O 427.331 -2.53578 3.25226 0
M  V30 4666 H 426.672 -0.188752 0.636607 0
M  V30 4667 H 429.202 0.0445193 2.04552 0
M  V30 4668 H 429.212 -1.78655 3.66806 0
M  V30 4669 H 427.887 -0.716903 4.09675 0
M  V30 4670 H 426.464 -2.19463 3.01481 0
M  V30 4671 N 428.649 -1.55105 -0.279332 0
M  V30 4672 C 429.612 -1.86783 -1.32834 0
M  V30 4673 C 430.612 -0.74199 -1.42657 0
M  V30 4674 O 431.802 -1.0102 -1.41918 0
M  V30 4675 C 428.934 -2.06746 -2.71052 0
M  V30 4676 H 430.127 -2.8055 -1.05979 0
M  V30 4677 H 427.68 -1.47499 -0.517087 0
M  V30 4678 H 428.415 -1.15339 -3.03097 0
M  V30 4679 H 428.2 -2.88711 -2.65309 0
M  V30 4680 H 429.69 -2.32549 -3.46858 0
M  V30 4681 N 430.127 0.543554 -1.4793 0
M  V30 4682 C 431.057 1.65888 -1.64327 0
M  V30 4683 C 432.038 1.62818 -0.492383 0
M  V30 4684 O 433.223 1.80226 -0.723338 0
M  V30 4685 C 430.353 3.04506 -1.67013 0
M  V30 4686 C 429.307 3.2243 -2.81466 0
M  V30 4687 C 428.633 4.61972 -2.69233 0
M  V30 4688 C 429.933 3.06496 -4.22915 0
M  V30 4689 H 431.627 1.52421 -2.57698 0
M  V30 4690 H 429.173 0.731849 -1.24016 0
M  V30 4691 H 431.126 3.82391 -1.77074 0
M  V30 4692 H 429.85 3.18964 -0.70212 0
M  V30 4693 H 428.509 2.46957 -2.70938 0
M  V30 4694 H 428.157 4.73247 -1.7043 0
M  V30 4695 H 427.857 4.74911 -3.46025 0
M  V30 4696 H 429.381 5.41974 -2.81242 0
M  V30 4697 H 430.795 3.74186 -4.34348 0
M  V30 4698 H 429.192 3.30938 -5.006 0
M  V30 4699 H 430.262 2.03077 -4.40327 0
M  V30 4700 N 431.605 1.3629 0.791371 0
M  V30 4701 C 432.833 1.33562 1.58016 0
M  V30 4702 C 433.248 -0.0835616 1.88615 0
M  V30 4703 O 432.605 -1.0399 1.49974 0
M  V30 4704 C 432.656 2.15517 2.90232 0
M  V30 4705 O 432.377 3.51902 2.60953 0
M  V30 4706 C 433.878 2.20546 3.84544 0
M  V30 4707 H 431.098 0.458226 0.490173 0
M  V30 4708 H 433.642 1.79361 0.982345 0
M  V30 4709 H 431.797 1.73278 3.46487 0
M  V30 4710 H 432.211 3.94644 3.4548 0
M  V30 4711 H 433.685 2.82252 4.74382 0
M  V30 4712 H 434.162 1.20838 4.2225 0
M  V30 4713 H 434.768 2.63013 3.34222 0
M  V30 4714 N 433.083 -1.0153 1.20538 0
M  V30 4715 C 434.313 -1.78487 1.04048 0
M  V30 4716 C 434.721 -1.84631 -0.413292 0
M  V30 4717 O 434.064 -1.29919 -1.29872 0
M  V30 4718 C 434.126 -3.24367 1.55003 0
M  V30 4719 C 433.79 -3.41827 3.0332 0
M  V30 4720 C 434.787 -3.30941 4.00966 0
M  V30 4721 C 432.472 -3.67602 3.42307 0
M  V30 4722 C 434.466 -3.45577 5.35589 0
M  V30 4723 C 432.153 -3.81881 4.77085 0
M  V30 4724 C 433.151 -3.70874 5.73534 0
M  V30 4725 O 432.839 -3.84714 7.05868 0
M  V30 4726 H 432.571 -0.568108 0.366373 0
M  V30 4727 H 435.125 -1.28677 1.60098 0
M  V30 4728 H 433.355 -3.75266 0.933397 0
M  V30 4729 H 435.044 -3.82963 1.34514 0
M  V30 4730 H 435.81 -3.10964 3.72191 0
M  V30 4731 H 431.689 -3.75256 2.67776 0
M  V30 4732 H 435.233 -3.36902 6.10854 0
M  V30 4733 H 431.13 -4.01359 5.0555 0
M  V30 4734 H 431.898 -4.01724 7.13134 0
M  V30 4735 N 434.561 -1.01147 -1.20859 0
M  V30 4736 C 435.838 -0.613136 -1.85742 0
M  V30 4737 C 436.218 0.909004 -1.90526 0
M  V30 4738 O 435.566 1.79862 -1.40932 0
M  V30 4739 C 435.776 -1.255 -3.25654 0
M  V30 4740 C 437.124 -1.3672 -4.01986 0
M  V30 4741 O 438.148 -1.21082 -3.34989 0
M  V30 4742 O 437.007 -1.6194 -5.21956 0
M  V30 4743 H 434.101 -0.210878 -0.799662 0
M  V30 4744 H 436.647 -1.10853 -1.2849 0
M  V30 4745 H 435.419 -2.29532 -3.16908 0
M  V30 4746 H 435.042 -0.746369 -3.90532 0
M  V30 4747 N 436.039 1.36541 -0.78704 0
M  V30 4748 C 437.287 1.98911 -0.357633 0
M  V30 4749 C 437.608 1.62778 1.07371 0
M  V30 4750 O 436.878 0.900612 1.73971 0
M  V30 4751 H 435.458 0.735734 -0.129246 0
M  V30 4752 H 438.12 1.66776 -1.00855 0
M  V30 4753 H 437.216 3.08874 -0.447549 0
M  V30 4754 N 437.518 0.538854 1.48102 0
M  V30 4755 C 438.764 0.00801365 2.02798 0
M  V30 4756 C 439.097 -1.3309 1.41424 0
M  V30 4757 O 438.372 -1.86169 0.563158 0
M  V30 4758 C 438.655 -0.104589 3.59948 0
M  V30 4759 C 438.508 1.26012 4.31788 0
M  V30 4760 C 439.827 -0.827055 4.32259 0
M  V30 4761 H 436.946 0.00438624 0.736987 0
M  V30 4762 H 439.588 0.6976 1.7673 0
M  V30 4763 H 437.738 -0.691893 3.82289 0
M  V30 4764 H 439.41 1.88922 4.2084 0
M  V30 4765 H 437.653 1.83968 3.92859 0
M  V30 4766 H 438.324 1.13424 5.40221 0
M  V30 4767 H 440.8 -0.328578 4.14801 0
M  V30 4768 H 439.676 -0.87476 5.41885 0
M  V30 4769 H 439.937 -1.87927 4.0017 0
M  V30 4770 N 438.996 -1.55193 0.274407 0
M  V30 4771 C 439.943 -2.225 -0.613374 0
M  V30 4772 C 440.913 -1.19823 -1.15029 0
M  V30 4773 O 442.098 -1.48362 -1.19973 0
M  V30 4774 C 439.238 -2.94927 -1.79199 0
M  V30 4775 C 438.351 -4.12322 -1.28899 0
M  V30 4776 C 437.486 -4.72394 -2.42934 0
M  V30 4777 C 436.525 -5.81984 -1.89634 0
M  V30 4778 N 435.662 -6.36123 -2.9714 0
M  V30 4779 H 440.502 -2.97982 -0.032756 0
M  V30 4780 H 438.039 -1.47099 -0.00440146 0
M  V30 4781 H 439.997 -3.35134 -2.48478 0
M  V30 4782 H 438.627 -2.2187 -2.34465 0
M  V30 4783 H 437.679 -3.7724 -0.489327 0
M  V30 4784 H 438.991 -4.91355 -0.858587 0
M  V30 4785 H 438.145 -5.15317 -3.20208 0
M  V30 4786 H 436.884 -3.92636 -2.8929 0
M  V30 4787 H 435.889 -5.38511 -1.1084 0
M  V30 4788 H 437.114 -6.6361 -1.44215 0
M  V30 4789 H 435.06 -5.59259 -3.42878 0
M  V30 4790 H 434.977 -7.10427 -2.58515 0
M  V30 4791 H 436.245 -6.83704 -3.74391 0
M  V30 4792 N 440.474 -0.00167713 -1.576 0
M  V30 4793 C 441.72 0.683832 -1.90923 0
M  V30 4794 C 442.053 1.7333 -0.875799 0
M  V30 4795 O 441.328 1.94215 0.10525 0
M  V30 4796 C 441.611 1.32543 -3.3482 0
M  V30 4797 C 441.464 0.287387 -4.48881 0
M  V30 4798 C 442.783 2.25114 -3.78169 0
M  V30 4799 H 439.902 0.247125 -0.694333 0
M  V30 4800 H 442.544 -0.0533149 -1.89925 0
M  V30 4801 H 440.694 1.95372 -3.35801 0
M  V30 4802 H 442.366 -0.341346 -4.60035 0
M  V30 4803 H 440.609 -0.39017 -4.32042 0
M  V30 4804 H 441.28 0.775393 -5.46527 0
M  V30 4805 H 443.756 1.723 -3.7875 0
M  V30 4806 H 442.632 2.66971 -4.79602 0
M  V30 4807 H 442.893 3.13092 -3.12131 0
M  V30 4808 N 441.952 1.55251 0.271103 0
M  V30 4809 C 442.885 1.83191 1.36075 0
M  V30 4810 C 443.863 0.685091 1.47463 0
M  V30 4811 O 445.047 0.928292 1.64058 0
M  V30 4812 C 442.174 1.99521 2.73696 0
M  V30 4813 C 441.22 3.22081 2.79582 0
M  V30 4814 S 442.053 4.79388 2.38636 0
M  V30 4815 C 443.209 4.98693 3.78228 0
M  V30 4816 H 443.442 2.75327 1.12171 0
M  V30 4817 H 440.975 1.47046 0.470833 0
M  V30 4818 H 442.933 2.09613 3.52948 0
M  V30 4819 H 441.594 1.0827 2.9485 0
M  V30 4820 H 440.787 3.304 3.80594 0
M  V30 4821 H 440.389 3.10589 2.08352 0
M  V30 4822 H 442.681 4.84551 4.73515 0
M  V30 4823 H 443.624 6.00738 3.7486 0
M  V30 4824 H 444.032 4.26665 3.69618 0
M  V30 4825 N 443.43 -0.535701 1.48216 0
M  V30 4826 C 444.393 -1.623 1.61838 0
M  V30 4827 C 445.393 -1.53087 0.492024 0
M  V30 4828 O 446.583 -1.5686 0.757668 0
M  V30 4829 C 443.715 -3.01907 1.58319 0
M  V30 4830 H 444.908 -1.51564 2.58783 0
M  V30 4831 H 442.461 -0.757317 1.36727 0
M  V30 4832 H 443.196 -3.18155 0.628299 0
M  V30 4833 H 442.981 -3.10003 2.40085 0
M  V30 4834 H 444.471 -3.80969 1.71033 0
M  V30 4835 N 444.908 -1.36708 -0.784132 0
M  V30 4836 C 445.818 -1.3363 -1.92822 0
M  V30 4837 C 446.834 -0.237686 -1.72369 0
M  V30 4838 O 448.01 -0.470962 -1.95816 0
M  V30 4839 C 445.075 -1.13011 -3.27764 0
M  V30 4840 C 444.136 -2.32397 -3.60957 0
M  V30 4841 C 443.369 -2.12752 -4.89461 0
M  V30 4842 O 443.592 -1.10541 -5.59586 0
M  V30 4843 O 442.526 -3.00653 -5.21432 0
M  V30 4844 H 446.352 -2.29964 -1.98369 0
M  V30 4845 H 443.937 -1.1731 -0.925136 0
M  V30 4846 H 445.819 -1.03451 -4.08504 0
M  V30 4847 H 444.494 -0.19743 -3.23097 0
M  V30 4848 H 443.401 -2.47527 -2.80502 0
M  V30 4849 H 444.734 -3.2419 -3.70354 0
M  V30 4850 N 446.386 1.0089 -1.21074 0
M  V30 4851 C 447.349 2.0775 -0.968129 0
M  V30 4852 C 448.349 1.6069 0.0593445 0
M  V30 4853 O 449.539 1.73293 -0.177525 0
M  V30 4854 C 446.671 3.37794 -0.459108 0
M  V30 4855 H 447.864 2.30707 -1.9161 0
M  V30 4856 H 445.417 1.17807 -1.02719 0
M  V30 4857 H 446.152 3.20516 0.49397 0
M  V30 4858 H 445.937 3.7328 -1.20019 0
M  V30 4859 H 447.427 4.16454 -0.309099 0
M  V30 4860 N 447.864 1.01787 1.20321 0
M  V30 4861 C 449.111 0.707936 1.89722 0
M  V30 4862 C 449.439 -0.762535 1.78929 0
M  V30 4863 O 448.694 -1.56977 1.16861 0
M  V30 4864 C 448.993 1.09076 3.40349 0
M  V30 4865 C 448.659 2.55765 3.71342 0
M  V30 4866 C 447.321 2.95845 3.79511 0
M  V30 4867 C 449.673 3.50723 3.85542 0
M  V30 4868 C 447.001 4.2982 3.99339 0
M  V30 4869 C 449.353 4.84387 4.06881 0
M  V30 4870 C 448.017 5.24172 4.1328 0
M  V30 4871 H 447.287 0.259052 0.694243 0
M  V30 4872 H 449.934 1.27868 1.42555 0
M  V30 4873 H 448.239 0.438453 3.89339 0
M  V30 4874 H 449.936 0.828636 3.92345 0
M  V30 4875 H 446.526 2.2371 3.65584 0
M  V30 4876 H 450.71 3.20916 3.78585 0
M  V30 4877 H 445.966 4.60196 4.02529 0
M  V30 4878 H 450.14 5.57891 4.1681 0
M  V30 4879 H 447.767 6.27997 4.28396 0
M  V30 4880 N 449.342 -1.36122 0.79427 0
M  V30 4881 C 450.274 -2.28683 0.153903 0
M  V30 4882 C 451.287 -1.49707 -0.639669 0
M  V30 4883 O 452.476 -1.7209 -0.474054 0
M  V30 4884 C 449.576 -3.29202 -0.804921 0
M  V30 4885 C 448.749 -4.37358 -0.060366 0
M  V30 4886 C 447.808 -5.17811 -0.935849 0
M  V30 4887 O 446.834 -5.67853 -0.391309 0
M  V30 4888 N 448.036 -5.34721 -2.25951 0
M  V30 4889 H 450.801 -2.84278 0.949008 0
M  V30 4890 H 448.362 -1.4834 0.648611 0
M  V30 4891 H 450.354 -3.79914 -1.39455 0
M  V30 4892 H 448.924 -2.74212 -1.50088 0
M  V30 4893 H 448.144 -3.87746 0.710382 0
M  V30 4894 H 449.432 -5.06777 0.45324 0
M  V30 4895 H 448.83 -4.95687 -2.72601 0
M  V30 4896 H 447.387 -5.88657 -2.79867 0
M  V30 4897 N 450.82 -0.546701 -1.47814 0
M  V30 4898 C 452.045 -0.021268 -2.07389 0
M  V30 4899 C 452.47 1.25822 -1.39822 0
M  V30 4900 O 451.828 1.75111 -0.46968 0
M  V30 4901 C 451.876 0.168502 -3.60206 0
M  V30 4902 O 450.98 1.23347 -3.93522 0
M  V30 4903 H 450.321 -0.0466108 -0.662362 0
M  V30 4904 H 452.851 -0.759387 -1.89985 0
M  V30 4905 H 452.861 0.385982 -4.0617 0
M  V30 4906 H 451.536 -0.766075 -4.08784 0
M  V30 4907 H 450.113 0.997319 -3.59316 0
M  V30 4908 N 452.299 1.55045 -0.282633 0
M  V30 4909 C 453.229 2.2579 0.595066 0
M  V30 4910 C 454.21 1.25074 1.15284 0
M  V30 4911 O 455.395 1.5381 1.18559 0
M  V30 4912 C 452.525 2.98472 1.77572 0
M  V30 4913 C 451.479 4.0618 1.34914 0
M  V30 4914 C 450.805 4.66477 2.6135 0
M  V30 4915 C 452.105 5.1996 0.493821 0
M  V30 4916 H 453.799 2.994 0.00505653 0
M  V30 4917 H 451.345 1.44 0.000992001 0
M  V30 4918 H 453.298 3.46677 2.39568 0
M  V30 4919 H 452.022 2.2241 2.39168 0
M  V30 4920 H 450.681 3.58797 0.752338 0
M  V30 4921 H 450.329 3.87074 3.2122 0
M  V30 4922 H 450.029 5.39207 2.33516 0
M  V30 4923 H 451.553 5.17435 3.24181 0
M  V30 4924 H 452.967 5.64172 1.01898 0
M  V30 4925 H 451.364 5.99299 0.310047 0
M  V30 4926 H 452.434 4.82462 -0.485593 0
M  V30 4927 N 453.777 0.010035 1.57597 0
M  V30 4928 C 455.193 -0.346164 1.55801 0
M  V30 4929 C 455.393 -1.74144 1.01371 0
M  V30 4930 O 454.449 -2.43938 0.651968 0
M  V30 4931 C 455.762 -0.212216 2.9995 0
M  V30 4932 C 457.31 -0.286409 3.11687 0
M  V30 4933 C 457.785 -0.18147 4.5764 0
M  V30 4934 N 459.276 -0.239056 4.62583 0
M  V30 4935 C 460.011 -0.181351 5.73113 0
M  V30 4936 N 459.507 -0.073661 6.92761 0
M  V30 4937 N 461.3 -0.233949 5.61613 0
M  V30 4938 H 453.451 0.922657 1.91313 0
M  V30 4939 H 455.714 0.354595 0.879185 0
M  V30 4940 H 455.42 0.748169 3.4365 0
M  V30 4941 H 455.294 -0.990224 3.6397 0
M  V30 4942 H 457.681 -1.23724 2.67911 0
M  V30 4943 H 457.762 0.521645 2.50425 0
M  V30 4944 H 457.406 0.765863 5.02093 0
M  V30 4945 H 457.336 -1.00814 5.1686 0
M  V30 4946 H 459.827 -0.32321 3.76515 0
M  V30 4947 H 460.14 -0.0358003 7.72792 0
M  V30 4948 H 458.485 -0.0391461 6.94989 0
M  V30 4949 H 461.676 -0.316347 4.6703 0
M  V30 4950 H 461.849 -0.185514 6.47734 0
M  V30 4951 N 455.255 -1.55392 -0.262866 0
M  V30 4952 C 456.671 -1.47459 -0.610582 0
M  V30 4953 C 456.871 -0.697031 -1.8906 0
M  V30 4954 O 455.927 -0.219952 -2.5154 0
M  V30 4955 C 457.24 -2.91751 -0.728131 0
M  V30 4956 C 458.788 -3.02027 -0.821517 0
M  V30 4957 C 459.263 -4.47594 -0.97076 0
M  V30 4958 N 460.754 -4.51465 -1.03603 0
M  V30 4959 C 461.489 -5.61326 -1.17049 0
M  V30 4960 N 460.985 -6.81032 -1.2715 0
M  V30 4961 N 462.778 -5.49089 -1.20239 0
M  V30 4962 H 454.929 -2.04395 0.577632 0
M  V30 4963 H 457.192 -0.927287 0.197086 0
M  V30 4964 H 456.898 -3.51413 0.142132 0
M  V30 4965 H 456.772 -3.4134 -1.6052 0
M  V30 4966 H 459.159 -2.42456 -1.68224 0
M  V30 4967 H 459.24 -2.55674 0.0803688 0
M  V30 4968 H 458.884 -5.07771 -0.114655 0
M  V30 4969 H 458.814 -4.91613 -1.88745 0
M  V30 4970 H 461.305 -3.6524 -0.96996 0
M  V30 4971 H 461.618 -7.60511 -1.37271 0
M  V30 4972 H 459.963 -6.83824 -1.24136 0
M  V30 4973 H 463.154 -4.54507 -1.11985 0
M  V30 4974 H 463.327 -6.34749 -1.30373 0
M  V30 4975 N 456.733 0.527833 -1.48498 0
M  V30 4976 C 457.665 1.6482 -1.5927 0
M  V30 4977 C 458.678 1.55659 -0.476869 0
M  V30 4978 O 459.867 1.62081 -0.747806 0
M  V30 4979 C 456.967 3.0348 -1.50842 0
M  V30 4980 C 456.14 3.381 -2.77502 0
M  V30 4981 C 455.199 4.5605 -2.62497 0
M  V30 4982 O 454.225 4.59165 -3.36387 0
M  V30 4983 N 455.427 5.54353 -1.72257 0
M  V30 4984 H 458.192 1.56015 -2.55889 0
M  V30 4985 H 455.753 0.715152 -1.45249 0
M  V30 4986 H 457.745 3.80264 -1.38496 0
M  V30 4987 H 456.315 3.06352 -0.621887 0
M  V30 4988 H 455.535 2.50473 -3.04396 0
M  V30 4989 H 456.823 3.58017 -3.61527 0
M  V30 4990 H 456.221 5.54617 -1.11431 0
M  V30 4991 H 454.778 6.30347 -1.65849 0
M  V30 4992 N 458.211 1.37122 0.776871 0
M  V30 4993 C 459.627 1.1781 1.07671 0
M  V30 4994 C 459.827 0.0107454 2.01497 0
M  V30 4995 O 458.883 -0.650756 2.4397 0
M  V30 4996 C 460.196 2.49451 1.67913 0
M  V30 4997 C 461.744 2.55927 1.80195 0
M  V30 4998 C 462.219 3.87686 2.43851 0
M  V30 4999 N 463.71 3.891 2.51307 0
M  V30 5000 C 464.445 4.87797 3.014 0
M  V30 5001 N 463.941 5.96888 3.51705 0
M  V30 5002 N 465.734 4.75205 3.00227 0
M  V30 5003 H 457.885 2.11843 0.153778 0
M  V30 5004 H 460.148 0.938927 0.130844 0
M  V30 5005 H 459.854 3.35207 1.06439 0
M  V30 5006 H 459.728 2.66169 2.67271 0
M  V30 5007 H 462.115 1.70582 2.40803 0
M  V30 5008 H 462.196 2.43097 0.796069 0
M  V30 5009 H 461.84 4.73444 1.83884 0
M  V30 5010 H 461.77 3.97817 3.45035 0
M  V30 5011 H 464.261 3.10293 2.157 0
M  V30 5012 H 464.574 6.68155 3.88316 0
M  V30 5013 H 462.919 6.0054 3.49824 0
M  V30 5014 H 466.11 3.89103 2.60224 0
M  V30 5015 H 466.283 5.52279 3.38957 0
M  V30 5016 N 459.689 -1.00246 1.21608 0
M  V30 5017 C 460.938 -1.73476 1.02902 0
M  V30 5018 C 461.251 -1.90643 -0.437561 0
M  V30 5019 O 462.457 -2.61105 -0.74407 0
M  V30 5020 C 460.913 -3.12079 1.79261 0
M  V30 5021 C 460.521 -3.02877 3.30106 0
M  V30 5022 C 462.265 -3.89421 1.68972 0
M  V30 5023 C 460.172 -4.36575 3.98944 0
M  V30 5024 H 459.102 -0.650408 0.381425 0
M  V30 5025 H 461.753 -1.11985 1.45367 0
M  V30 5026 H 460.135 -3.74196 1.2959 0
M  V30 5027 H 461.309 -2.49983 3.87098 0
M  V30 5028 H 459.624 -2.39022 3.40965 0
M  V30 5029 H 462.221 -4.88362 2.17731 0
M  V30 5030 H 462.564 -4.1122 0.648397 0
M  V30 5031 H 463.097 -3.33963 2.16133 0
M  V30 5032 H 459.836 -4.19978 5.03288 0
M  V30 5033 H 459.356 -4.8942 3.4674 0
M  V30 5034 H 461.035 -5.05364 4.04 0
M  V30 5035 N 461.167 -1.02423 -1.1978 0
M  V30 5036 C 462.444 -0.632802 -1.85081 0
M  V30 5037 C 462.824 0.888745 -1.9148 0
M  V30 5038 O 462.172 1.78357 -1.42832 0
M  V30 5039 C 462.382 -1.28947 -3.24305 0
M  V30 5040 C 463.73 -1.40976 -4.00513 0
M  V30 5041 O 464.754 -1.24628 -3.33686 0
M  V30 5042 O 463.613 -1.67467 -5.20209 0
M  V30 5043 H 460.707 -0.219348 -0.79738 0
M  V30 5044 H 463.253 -1.12209 -1.27307 0
M  V30 5045 H 462.025 -2.3288 -3.14456 0
M  V30 5046 H 461.648 -0.787748 -3.89718 0
M  V30 5047 N 462.645 1.35699 -0.801477 0
M  V30 5048 C 463.894 1.98165 -0.375979 0
M  V30 5049 C 464.207 1.64306 1.06127 0
M  V30 5050 O 465.413 2.20097 1.58964 0
M  V30 5051 C 463.869 3.54497 -0.621305 0
M  V30 5052 C 463.477 3.9727 -2.07076 0
M  V30 5053 C 465.221 4.23697 -0.26091 0
M  V30 5054 C 463.128 5.46427 -2.26211 0
M  V30 5055 H 462.058 0.741478 -0.136844 0
M  V30 5056 H 464.709 1.54834 -0.984814 0
M  V30 5057 H 463.091 3.95958 0.0574112 0
M  V30 5058 H 464.265 3.66974 -2.78687 0
M  V30 5059 H 462.58 3.40943 -2.39054 0
M  V30 5060 H 465.177 5.33334 -0.381994 0
M  V30 5061 H 465.52 4.0869 0.792344 0
M  V30 5062 H 466.053 3.87639 -0.893339 0
M  V30 5063 H 462.792 5.66396 -3.29963 0
M  V30 5064 H 462.312 5.78309 -1.59119 0
M  V30 5065 H 463.991 6.12819 -2.07513 0
M  V30 5066 N 464.123 0.554532 1.47522 0
M  V30 5067 C 465.348 0.0322661 2.07375 0
M  V30 5068 C 465.773 -1.25079 1.40488 0
M  V30 5069 O 465.131 -1.74859 0.47896 0
M  V30 5070 C 465.179 -0.149397 3.6029 0
M  V30 5071 O 464.283 -1.21259 3.9417 0
M  V30 5072 H 463.624 0.0501228 0.662106 0
M  V30 5073 H 466.154 0.769452 1.8958 0
M  V30 5074 H 466.164 -0.364437 4.06369 0
M  V30 5075 H 464.839 0.787743 4.08372 0
M  V30 5076 H 463.416 -0.97825 3.5984 0
M  V30 5077 N 465.601 -1.54893 0.290851 0
M  V30 5078 C 467.017 -1.59476 -0.0628432 0
M  V30 5079 C 467.217 -1.30795 -1.5328 0
M  V30 5080 O 466.273 -1.07644 -2.28406 0
M  V30 5081 C 467.586 -2.98928 0.325962 0
M  V30 5082 C 469.134 -3.11799 0.273882 0
M  V30 5083 C 469.609 -4.53544 0.637359 0
M  V30 5084 N 471.1 -4.59433 0.589507 0
M  V30 5085 C 471.835 -5.67164 0.84335 0
M  V30 5086 N 471.331 -6.82975 1.16263 0
M  V30 5087 N 473.124 -5.56786 0.771091 0
M  V30 5088 H 465.275 -1.71798 1.24896 0
M  V30 5089 H 467.538 -0.801879 0.505663 0
M  V30 5090 H 467.244 -3.24805 1.34887 0
M  V30 5091 H 467.118 -3.75793 -0.325441 0
M  V30 5092 H 469.505 -2.85677 -0.739765 0
M  V30 5093 H 469.586 -2.37112 0.959766 0
M  V30 5094 H 469.23 -4.80394 1.64877 0
M  V30 5095 H 469.16 -5.26553 -0.0704866 0
M  V30 5096 H 471.651 -3.76245 0.353252 0
M  V30 5097 H 471.964 -7.61048 1.34257 0
M  V30 5098 H 470.309 -6.84552 1.20057 0
M  V30 5099 H 473.5 -4.65187 0.521383 0
M  V30 5100 H 473.673 -6.40664 0.972295 0
M  V30 5101 N 467.08 -0.0183926 -1.57589 0
M  V30 5102 C 468.496 0.337897 -1.55982 0
M  V30 5103 C 468.696 1.73604 -1.02294 0
M  V30 5104 O 467.752 2.43589 -0.664895 0
M  V30 5105 C 469.065 0.196305 -3.00059 0
M  V30 5106 C 470.613 0.269875 -3.11834 0
M  V30 5107 C 471.088 0.157197 -4.5773 0
M  V30 5108 N 472.579 0.214521 -4.62703 0
M  V30 5109 C 473.314 0.150955 -5.73201 0
M  V30 5110 N 472.81 0.0369212 -6.9279 0
M  V30 5111 N 474.603 0.204162 -5.61729 0
M  V30 5112 H 466.754 -0.93279 -1.90821 0
M  V30 5113 H 469.017 -0.359253 -0.877292 0
M  V30 5114 H 468.723 -0.766383 -3.43248 0
M  V30 5115 H 468.597 0.970908 -3.6449 0
M  V30 5116 H 470.984 1.22302 -2.68563 0
M  V30 5117 H 471.065 -0.534918 -2.50144 0
M  V30 5118 H 470.709 -0.792479 -5.01679 0
M  V30 5119 H 470.639 0.980717 -5.17387 0
M  V30 5120 H 473.13 0.303238 -3.76681 0
M  V30 5121 H 473.443 -0.00518321 -7.728 0
M  V30 5122 H 471.788 0.0022886 -6.95 0
M  V30 5123 H 474.979 0.291575 -4.67191 0
M  V30 5124 H 475.152 0.15116 -6.47824 0
M  V30 5125 N 468.558 1.5553 0.254621 0
M  V30 5126 C 469.806 1.7665 0.981793 0
M  V30 5127 C 470.127 0.580963 1.86145 0
M  V30 5128 O 469.397 -0.403537 1.91699 0
M  V30 5129 H 467.977 0.651475 0.365498 0
M  V30 5130 H 470.639 1.92958 0.274426 0
M  V30 5131 H 469.735 2.67486 1.60802 0
M  V30 5132 N 470.036 -0.519951 1.48776 0
M  V30 5133 C 470.984 -1.64443 1.64503 0
M  V30 5134 C 471.978 -1.61501 0.511248 0
M  V30 5135 O 473.184 -1.66238 0.690294 0
M  V30 5136 H 469.559 -0.544776 0.518385 0
M  V30 5137 H 471.53 -1.48325 2.58925 0
M  V30 5138 C 470.279 -3.02673 1.71127 0
M  V30 5139 H 469.602 -3.05635 2.57735 0
M  V30 5140 H 471.042 -3.80941 1.86172 0
M  V30 5141 C 469.501 -3.33854 0.452032 0
M  V30 5142 O 470.031 -3.99385 -0.430678 0
M  V30 5143 N 468.237 -2.88825 0.32069 0
M  V30 5144 H 467.784 -2.35674 1.03998 0
M  V30 5145 H 467.742 -3.10056 -0.520814 0
M  V30 5146 N 471.514 -1.37532 -0.769588 0
M  V30 5147 C 472.477 -1.33292 -1.86456 0
M  V30 5148 C 473.477 -0.236537 -1.59051 0
M  V30 5149 O 474.667 -0.492511 -1.67093 0
M  V30 5150 C 471.799 -1.07118 -3.23633 0
M  V30 5151 H 472.992 -2.30692 -1.91628 0
M  V30 5152 H 470.545 -1.22593 -0.969572 0
M  V30 5153 H 471.28 -0.102578 -3.24138 0
M  V30 5154 H 471.065 -1.86479 -3.44917 0
M  V30 5155 H 472.555 -1.06806 -4.03711 0
M  V30 5156 N 472.992 0.995999 -1.22138 0
M  V30 5157 C 474.24 1.73167 -1.042 0
M  V30 5158 C 474.561 1.90329 0.42423 0
M  V30 5159 O 473.831 1.4607 1.30539 0
M  V30 5160 H 472.411 0.641593 -0.38258 0
M  V30 5161 H 475.073 1.19974 -1.53598 0
M  V30 5162 H 474.169 2.72734 -1.51731 0
M  V30 5163 N 474.47 1.03057 1.19235 0
M  V30 5164 C 475.747 0.642608 1.84743 0
M  V30 5165 C 476.127 -0.878577 1.91948 0
M  V30 5166 O 475.475 -1.77597 1.43776 0
M  V30 5167 C 475.685 1.30665 3.23616 0
M  V30 5168 C 477.033 1.43098 3.9976 0
M  V30 5169 O 478.057 1.26396 3.3302 0
M  V30 5170 O 476.916 1.70223 5.19313 0
M  V30 5171 H 474.01 0.223573 0.796206 0
M  V30 5172 H 476.556 1.12883 1.26711 0
M  V30 5173 H 475.328 2.34544 3.13217 0
M  V30 5174 H 474.951 0.808405 3.89295 0
M  V30 5175 N 475.948 -1.35272 0.808662 0
M  V30 5176 C 477.188 -2.00534 0.395668 0
M  V30 5177 C 477.552 -1.62755 -1.01857 0
M  V30 5178 O 478.753 -2.20752 -1.53368 0
M  V30 5179 C 477.024 -3.52732 0.575771 0
M  V30 5180 S 478.583 -4.38067 0.253507 0
M  V30 5181 H 475.401 -0.694962 0.150165 0
M  V30 5182 H 478.003 -1.64823 1.05137 0
M  V30 5183 H 476.707 -3.77714 1.60499 0
M  V30 5184 H 476.238 -3.93285 -0.0951739 0
M  V30 5185 H 478.253 -4.87252 -0.938068 0
M  V30 5186 N 477.426 -0.562348 -1.47226 0
M  V30 5187 C 478.356 0.170627 -2.32876 0
M  V30 5188 C 479.337 0.903748 -1.44106 0
M  V30 5189 O 480.522 0.883206 -1.72954 0
M  V30 5190 C 477.652 1.19786 -3.25989 0
M  V30 5191 C 476.606 0.580875 -4.2404 0
M  V30 5192 C 475.932 1.71311 -5.06514 0
M  V30 5193 C 477.232 -0.468714 -5.20193 0
M  V30 5194 H 478.926 -0.544441 -2.94408 0
M  V30 5195 H 476.472 -0.263271 -1.41573 0
M  V30 5196 H 478.425 1.71884 -3.84752 0
M  V30 5197 H 477.149 1.94294 -2.62521 0
M  V30 5198 H 475.808 0.0811538 -3.6651 0
M  V30 5199 H 475.456 2.44736 -4.39447 0
M  V30 5200 H 475.156 1.30604 -5.72902 0
M  V30 5201 H 476.68 2.23725 -5.68137 0
M  V30 5202 H 478.094 -0.0336028 -5.7329 0
M  V30 5203 H 476.491 -0.794957 -5.94811 0
M  V30 5204 H 477.561 -1.36269 -4.65359 0
M  V30 5205 N 478.904 1.54736 -0.299062 0
M  V30 5206 C 479.867 2.22127 0.565012 0
M  V30 5207 C 480.867 1.20669 1.06281 0
M  V30 5208 O 482.057 1.45417 0.959145 0
M  V30 5209 C 479.189 2.90611 1.78208 0
M  V30 5210 H 480.382 2.99891 -0.0237448 0
M  V30 5211 H 477.935 1.5622 -0.0498788 0
M  V30 5212 H 478.67 2.16921 2.41072 0
M  V30 5213 H 478.455 3.64984 1.43281 0
M  V30 5214 H 479.945 3.42026 2.396 0
M  V30 5215 N 480.382 0.0267497 1.57577 0
M  V30 5216 C 481.33 -0.973923 2.11229 0
M  V30 5217 C 482.324 -1.33849 1.03831 0
M  V30 5218 O 483.53 -1.321 1.22269 0
M  V30 5219 H 479.905 -0.331844 0.674821 0
M  V30 5220 H 481.876 -0.496092 2.94247 0
M  V30 5221 C 480.625 -2.24798 2.65257 0
M  V30 5222 H 479.948 -1.9762 3.47543 0
M  V30 5223 H 481.388 -2.93031 3.06445 0
M  V30 5224 C 479.847 -2.97611 1.57891 0
M  V30 5225 O 480.377 -3.89629 0.97735 0
M  V30 5226 N 478.583 -2.59905 1.29992 0
M  V30 5227 H 478.13 -1.85154 1.79097 0
M  V30 5228 H 478.088 -3.08932 0.583798 0
M  V30 5229 N 481.861 -1.55662 -0.24637 0
M  V30 5230 C 483.272 -1.67953 -0.81539 0
M  V30 5231 C 483.623 -0.624302 -1.86002 0
M  V30 5232 O 482.748 0.229328 -2.15181 0
M  V30 5233 C 483.343 -3.04484 -1.48576 0
M  V30 5234 C 481.902 -3.18713 -2.00248 0
M  V30 5235 C 481.049 -2.6383 -0.853766 0
M  V30 5236 H 484 -1.58685 -0.0221692 0
M  V30 5237 H 484.021 -2.98959 -2.3538 0
M  V30 5238 H 483.533 -3.81264 -0.725222 0
M  V30 5239 H 481.634 -2.46757 -2.79181 0
M  V30 5240 H 481.747 -4.25628 -2.1995 0
M  V30 5241 H 480.111 -2.21667 -1.25442 0
M  V30 5242 H 480.894 -3.43135 -0.106302 0
M  V30 5243 N 483.339 0.512053 -1.4905 0
M  V30 5244 C 484.302 1.59704 -1.64399 0
M  V30 5245 C 485.302 1.52285 -0.516317 0
M  V30 5246 O 486.492 1.55635 -0.782527 0
M  V30 5247 C 483.624 2.9935 -1.63102 0
M  V30 5248 H 484.817 1.47428 -2.61161 0
M  V30 5249 H 482.37 0.735469 -1.37915 0
M  V30 5250 H 483.105 3.17116 -0.678836 0
M  V30 5251 H 482.89 3.06144 -2.44986 0
M  V30 5252 H 484.38 3.782 -1.77072 0
M  V30 5253 N 484.817 1.37938 0.762283 0
M  V30 5254 C 486.063 1.33866 1.52341 0
M  V30 5255 C 486.396 -0.0738961 1.94059 0
M  V30 5256 O 485.671 -1.03326 1.64785 0
M  V30 5257 C 485.954 2.28644 2.78197 0
M  V30 5258 C 485.807 3.78722 2.42672 0
M  V30 5259 C 487.126 2.21702 3.80179 0
M  V30 5260 H 484.245 0.487593 0.55265 0
M  V30 5261 H 486.887 1.68717 0.873767 0
M  V30 5262 H 485.037 1.99055 3.33631 0
M  V30 5263 H 486.709 4.18948 1.93081 0
M  V30 5264 H 484.952 3.96827 1.75244 0
M  V30 5265 H 485.623 4.40486 3.3268 0
M  V30 5266 H 488.099 2.47805 3.34263 0
M  V30 5267 H 486.975 2.90143 4.65949 0
M  V30 5268 H 487.236 1.21301 4.25133 0
M  V30 5269 N 486.295 -0.989507 1.22664 0
M  V30 5270 C 487.706 -1.54406 1.04955 0
M  V30 5271 C 488.057 -1.92366 -0.385951 0
M  V30 5272 O 487.182 -1.75111 -1.27142 0
M  V30 5273 C 487.777 -2.80578 1.89899 0
M  V30 5274 C 486.336 -3.32464 1.76478 0
M  V30 5275 C 485.483 -2.05524 1.86159 0
M  V30 5276 H 488.434 -0.810211 1.3646 0
M  V30 5277 H 488.455 -3.53075 1.4184 0
M  V30 5278 H 487.967 -2.52918 2.94371 0
M  V30 5279 H 486.068 -3.65024 0.747528 0
M  V30 5280 H 486.181 -4.02838 2.59342 0
M  V30 5281 H 484.545 -2.19241 1.29636 0
M  V30 5282 H 485.328 -1.80258 2.92168 0
M  V30 5283 N 487.773 -1.03688 -1.18687 0
M  V30 5284 C 489.019 -0.74888 -1.89112 0
M  V30 5285 C 489.374 0.715345 -1.78607 0
M  V30 5286 O 488.667 1.51498 -1.17299 0
M  V30 5287 C 488.861 -1.14477 -3.3857 0
M  V30 5288 C 488.69 -2.64594 -3.63621 0
M  V30 5289 C 487.46 -3.31685 -3.812 0
M  V30 5290 C 489.658 -3.62811 -3.64517 0
M  V30 5291 N 487.64 -4.70822 -3.93955 0
M  V30 5292 C 489.011 -4.87603 -3.8294 0
M  V30 5293 C 491.066 -3.56495 -3.47585 0
M  V30 5294 C 489.769 -6.0684 -3.86184 0
M  V30 5295 C 491.795 -4.75155 -3.52111 0
M  V30 5296 C 491.157 -5.98765 -3.71026 0
M  V30 5297 H 487.256 -0.32603 -0.710794 0
M  V30 5298 H 489.84 -1.3258 -1.42586 0
M  V30 5299 H 488.011 -0.595974 -3.838 0
M  V30 5300 H 489.743 -0.808187 -3.96548 0
M  V30 5301 H 486.498 -2.82091 -3.80423 0
M  V30 5302 H 486.922 -5.43122 -4.04163 0
M  V30 5303 H 491.564 -2.61907 -3.31911 0
M  V30 5304 H 489.282 -7.01788 -4.00648 0
M  V30 5305 H 492.868 -4.71905 -3.40289 0
M  V30 5306 H 491.748 -6.89047 -3.74412 0
M  V30 5307 N 489.251 1.34841 -0.815825 0
M  V30 5308 C 490.499 1.98107 -0.399744 0
M  V30 5309 C 490.82 1.65019 1.03894 0
M  V30 5310 O 490.09 0.937311 1.72021 0
M  V30 5311 H 488.67 0.732827 -0.144823 0
M  V30 5312 H 491.332 1.64599 -1.0437 0
M  V30 5313 H 490.428 3.07856 -0.512965 0
M  V30 5314 N 490.729 0.570148 1.46925 0
M  V30 5315 C 491.661 -0.207909 2.28255 0
M  V30 5316 C 492.674 -0.867301 1.37774 0
M  V30 5317 O 493.863 -0.738976 1.62485 0
M  V30 5318 C 490.963 -1.31298 3.12433 0
M  V30 5319 C 490.136 -0.747915 4.30958 0
M  V30 5320 C 489.195 -1.7391 4.9663 0
M  V30 5321 O 488.221 -1.2801 5.54619 0
M  V30 5322 N 489.423 -3.07288 4.92498 0
M  V30 5323 H 492.188 0.489794 2.95671 0
M  V30 5324 H 489.749 0.407076 1.56699 0
M  V30 5325 H 491.741 -1.97507 3.53232 0
M  V30 5326 H 490.311 -1.91373 2.47175 0
M  V30 5327 H 489.531 0.0913066 3.94094 0
M  V30 5328 H 490.819 -0.349958 5.07595 0
M  V30 5329 H 490.217 -3.47213 4.46609 0
M  V30 5330 H 488.774 -3.69021 5.37277 0
M  V30 5331 N 492.207 -1.54576 0.307264 0
M  V30 5332 C 493.455 -1.99867 -0.299574 0
M  V30 5333 C 493.776 -1.19714 -1.53927 0
M  V30 5334 O 493.046 -0.29472 -1.9367 0
M  V30 5335 H 491.626 -0.738299 -0.113683 0
M  V30 5336 H 494.288 -1.9032 0.420042 0
M  V30 5337 H 493.384 -3.06901 -0.567283 0
M  V30 5338 N 493.685 -0.035106 -1.57561 0
M  V30 5339 C 494.934 0.641604 -1.91223 0
M  V30 5340 C 495.247 1.72944 -0.913761 0
M  V30 5341 O 496.453 2.46321 -1.14185 0
M  V30 5342 C 494.909 1.19249 -3.3957 0
M  V30 5343 C 494.517 0.137616 -4.47789 0
M  V30 5344 C 496.261 1.84537 -3.82291 0
M  V30 5345 C 494.168 0.700478 -5.87237 0
M  V30 5346 H 493.098 0.243417 -0.713627 0
M  V30 5347 H 495.749 -0.101382 -1.8322 0
M  V30 5348 H 494.131 1.98728 -3.42525 0
M  V30 5349 H 495.305 -0.635153 -4.56402 0
M  V30 5350 H 493.62 -0.416855 -4.14308 0
M  V30 5351 H 496.217 2.27616 -4.83834 0
M  V30 5352 H 496.56 2.69054 -3.17672 0
M  V30 5353 H 497.093 1.11739 -3.81784 0
M  V30 5354 H 493.832 -0.106693 -6.55413 0
M  V30 5355 H 493.352 1.4416 -5.82218 0
M  V30 5356 H 495.031 1.18837 -6.35993 0
M  V30 5357 N 495.163 1.55791 0.238111 0
M  V30 5358 C 496.44 1.68798 0.98826 0
M  V30 5359 C 496.82 0.577562 2.03045 0
M  V30 5360 O 496.168 -0.41778 2.24648 0
M  V30 5361 C 496.378 3.09454 1.61367 0
M  V30 5362 C 497.726 3.68335 2.11221 0
M  V30 5363 O 498.75 3.1231 1.71292 0
M  V30 5364 O 497.609 4.6657 2.84561 0
M  V30 5365 H 494.703 0.686881 0.460568 0
M  V30 5366 H 497.249 1.68118 0.231202 0
M  V30 5367 H 496.021 3.81726 0.860295 0
M  V30 5368 H 495.644 3.14182 2.4367 0
M  V30 5369 N 496.642 -0.504142 1.49319 0
M  V30 5370 C 497.891 -1.25507 1.57895 0
M  V30 5371 C 498.204 -1.93735 0.269433 0
M  V30 5372 O 499.41 -2.70492 0.233706 0
M  V30 5373 C 497.866 -2.27869 2.78574 0
M  V30 5374 C 497.474 -1.65594 4.16272 0
M  V30 5375 C 499.218 -3.0381 2.96479 0
M  V30 5376 C 497.125 -2.66048 5.28178 0
M  V30 5377 H 496.055 -0.47212 0.587894 0
M  V30 5378 H 498.706 -0.52931 1.757 0
M  V30 5379 H 497.088 -3.03594 2.54257 0
M  V30 5380 H 498.262 -0.958826 4.50714 0
M  V30 5381 H 496.577 -1.02055 4.037 0
M  V30 5382 H 499.174 -3.78925 3.77253 0
M  V30 5383 H 499.517 -3.61235 2.06918 0
M  V30 5384 H 500.05 -2.352 3.20821 0
M  V30 5385 H 496.789 -2.13408 6.19788 0
M  V30 5386 H 496.309 -3.34009 4.98195 0
M  V30 5387 H 497.988 -3.28536 5.57381 0
M  V30 5388 N 498.12 -1.38341 -0.754957 0
M  V30 5389 C 499.052 -1.31347 -1.87831 0
M  V30 5390 C 500.065 -0.225955 -1.61224 0
M  V30 5391 O 501.254 -0.48341 -1.7183 0
M  V30 5392 C 498.354 -1.01201 -3.23437 0
M  V30 5393 C 497.527 -2.20834 -3.77559 0
M  V30 5394 C 496.586 -1.87454 -4.91678 0
M  V30 5395 O 495.612 -2.59934 -5.06382 0
M  V30 5396 N 496.814 -0.828682 -5.74555 0
M  V30 5397 H 499.579 -2.28147 -1.94342 0
M  V30 5398 H 497.14 -1.32184 -0.934828 0
M  V30 5399 H 499.132 -0.769249 -3.97322 0
M  V30 5400 H 497.702 -0.132011 -3.12321 0
M  V30 5401 H 496.922 -2.61184 -2.95256 0
M  V30 5402 H 498.21 -3.00678 -4.10451 0
M  V30 5403 H 497.608 -0.227591 -5.65242 0
M  V30 5404 H 496.165 -0.645802 -6.48593 0
M  V30 5405 N 499.598 0.982988 -1.23187 0
M  V30 5406 C 501.014 1.2487 -0.993967 0
M  V30 5407 C 501.214 1.99155 0.306498 0
M  V30 5408 O 500.27 2.30688 1.0266 0
M  V30 5409 C 501.583 2.05078 -2.19917 0
M  V30 5410 C 503.131 2.18227 -2.2438 0
M  V30 5411 C 503.606 3.01825 -3.44479 0
M  V30 5412 N 505.097 3.09411 -3.44702 0
M  V30 5413 C 505.832 3.74412 -4.34285 0
M  V30 5414 N 505.328 4.41259 -5.341 0
M  V30 5415 N 507.121 3.71273 -4.22035 0
M  V30 5416 H 499.272 0.485253 -2.06783 0
M  V30 5417 H 501.535 0.276979 -0.906635 0
M  V30 5418 H 501.241 1.57867 -3.14279 0
M  V30 5419 H 501.115 3.05829 -2.2079 0
M  V30 5420 H 503.502 2.64648 -1.30559 0
M  V30 5421 H 503.583 1.16873 -2.2754 0
M  V30 5422 H 503.227 2.56102 -4.38605 0
M  V30 5423 H 503.157 4.03342 -3.38559 0
M  V30 5424 H 505.648 2.61845 -2.7248 0
M  V30 5425 H 505.961 4.88629 -5.98717 0
M  V30 5426 H 504.306 4.39975 -5.38002 0
M  V30 5427 H 507.497 3.18217 -3.43301 0
M  V30 5428 H 507.67 4.21649 -4.92053 0
M  V30 5429 N 501.076 1.04316 1.18135 0
M  V30 5430 C 502.039 0.640794 2.2006 0
M  V30 5431 C 503.039 -0.303124 1.57917 0
M  V30 5432 O 504.229 -0.0881855 1.73977 0
M  V30 5433 C 501.361 -0.060148 3.40847 0
M  V30 5434 H 502.554 1.54281 2.57172 0
M  V30 5435 H 500.107 0.836004 1.32063 0
M  V30 5436 H 500.842 -0.975845 3.0927 0
M  V30 5437 H 500.627 0.618319 3.87194 0
M  V30 5438 H 502.117 -0.328082 4.16309 0
M  V30 5439 N 502.554 -1.34406 0.822964 0
M  V30 5440 C 503.484 -2.32052 0.259608 0
M  V30 5441 C 504.465 -1.58243 -0.623961 0
M  V30 5442 O 505.65 -1.86224 -0.55083 0
M  V30 5443 C 502.78 -3.42434 -0.579314 0
M  V30 5444 C 501.734 -4.27499 0.20712 0
M  V30 5445 C 501.06 -5.29349 -0.754547 0
M  V30 5446 C 502.36 -5.02758 1.41533 0
M  V30 5447 H 504.054 -2.79418 1.07545 0
M  V30 5448 H 501.6 -1.34338 0.518593 0
M  V30 5449 H 503.553 -4.0976 -0.983612 0
M  V30 5450 H 502.277 -2.93717 -1.4282 0
M  V30 5451 H 500.936 -3.61776 0.592787 0
M  V30 5452 H 500.584 -4.76895 -1.59939 0
M  V30 5453 H 500.284 -5.8714 -0.232561 0
M  V30 5454 H 501.808 -5.99544 -1.1567 0
M  V30 5455 H 503.222 -5.62938 1.08504 0
M  V30 5456 H 501.619 -5.70123 1.87296 0
M  V30 5457 H 502.689 -4.32451 2.1935 0
M  V30 5458 N 504.032 -0.577932 -1.46621 0
M  V30 5459 C 504.964 0.195801 -2.28362 0
M  V30 5460 C 505.977 0.859983 -1.38232 0
M  V30 5461 O 507.166 0.730349 -1.62875 0
M  V30 5462 C 504.266 1.29639 -3.13124 0
M  V30 5463 C 503.439 0.725049 -4.31349 0
M  V30 5464 C 502.498 1.71274 -4.97546 0
M  V30 5465 O 501.524 1.25067 -5.5529 0
M  V30 5466 N 502.726 3.04672 -4.94121 0
M  V30 5467 H 505.491 -0.505468 -2.95407 0
M  V30 5468 H 503.052 -0.415381 -1.56481 0
M  V30 5469 H 505.044 1.95631 -3.54275 0
M  V30 5470 H 503.614 1.90059 -2.48186 0
M  V30 5471 H 502.834 -0.112205 -3.9404 0
M  V30 5472 H 504.122 0.323034 -5.07774 0
M  V30 5473 H 503.52 3.4484 -4.48444 0
M  V30 5474 H 502.077 3.66166 -5.39227 0
M  V30 5475 N 505.51 1.54411 -0.315457 0
M  V30 5476 C 506.442 2.21527 0.588067 0
M  V30 5477 C 507.455 1.21263 1.08624 0
M  V30 5478 O 508.644 1.47777 1.00121 0
M  V30 5479 C 505.744 2.85963 1.81875 0
M  V30 5480 C 504.917 4.12291 1.46063 0
M  V30 5481 C 503.976 4.60396 2.54799 0
M  V30 5482 O 503.002 5.25265 2.19283 0
M  V30 5483 N 504.204 4.33935 3.85591 0
M  V30 5484 H 506.969 2.99697 0.013414 0
M  V30 5485 H 504.53 1.61308 -0.138295 0
M  V30 5486 H 506.522 3.15071 2.53993 0
M  V30 5487 H 505.092 2.11548 2.30144 0
M  V30 5488 H 504.312 3.90036 0.571445 0
M  V30 5489 H 505.6 4.9452 1.19695 0
M  V30 5490 H 504.998 3.81996 4.17248 0
M  V30 5491 H 503.555 4.67718 4.53964 0
M  V30 5492 N 506.988 0.0434614 1.5754 0
M  V30 5493 C 508.234 -0.632971 1.92669 0
M  V30 5494 C 508.567 -1.70947 0.921446 0
M  V30 5495 O 507.842 -1.94426 -0.0537202 0
M  V30 5496 C 508.125 -1.23619 3.38216 0
M  V30 5497 C 507.978 -0.168274 4.49485 0
M  V30 5498 C 509.297 -2.15008 3.84005 0
M  V30 5499 H 506.416 -0.228629 0.700641 0
M  V30 5500 H 509.058 0.103651 1.89717 0
M  V30 5501 H 507.208 -1.864 3.40863 0
M  V30 5502 H 508.88 0.463196 4.58969 0
M  V30 5503 H 507.123 0.504581 4.30855 0
M  V30 5504 H 507.794 -0.630218 5.48391 0
M  V30 5505 H 510.27 -1.62198 3.83185 0
M  V30 5506 H 509.146 -2.54161 4.86511 0
M  V30 5507 H 509.407 -3.04707 3.20322 0
M  V30 5508 N 508.466 -1.55915 -0.229846 0
M  V30 5509 C 509.882 -1.48721 -0.579166 0
M  V30 5510 C 510.082 -0.736976 -1.87539 0
M  V30 5511 O 509.138 -0.273258 -2.51017 0
M  V30 5512 C 510.451 -2.9323 -0.666082 0
M  V30 5513 C 511.999 -3.03701 -0.757267 0
M  V30 5514 C 512.474 -4.49552 -0.8756 0
M  V30 5515 N 513.965 -4.53561 -0.940035 0
M  V30 5516 C 514.7 -5.63683 -1.05116 0
M  V30 5517 N 514.196 -6.83576 -1.12675 0
M  V30 5518 N 515.989 -5.51516 -1.08565 0
M  V30 5519 H 508.14 -2.03123 0.620857 0
M  V30 5520 H 510.403 -0.922898 0.21671 0
M  V30 5521 H 510.109 -3.51032 0.21664 0
M  V30 5522 H 509.983 -3.44668 -1.53243 0
M  V30 5523 H 512.37 -2.45969 -1.63043 0
M  V30 5524 H 512.451 -2.55446 0.134583 0
M  V30 5525 H 512.095 -5.079 -0.00692351 0
M  V30 5526 H 512.025 -4.95506 -1.78274 0
M  V30 5527 H 514.516 -3.67215 -0.892269 0
M  V30 5528 H 514.829 -7.63251 -1.21109 0
M  V30 5529 H 513.174 -6.86303 -1.09603 0
M  V30 5530 H 516.365 -4.5678 -1.02319 0
M  V30 5531 H 516.538 -6.37372 -1.1688 0
M  V30 5532 N 509.944 0.496216 -1.49584 0
M  V30 5533 C 511.191 1.25003 -1.59312 0
M  V30 5534 C 511.519 1.92445 -0.28198 0
M  V30 5535 O 510.774 1.81557 0.730452 0
M  V30 5536 C 511.073 2.3359 -2.705 0
M  V30 5537 C 510.739 1.83574 -4.11839 0
M  V30 5538 C 509.401 1.69653 -4.50302 0
M  V30 5539 C 511.753 1.46193 -5.00277 0
M  V30 5540 C 509.081 1.16736 -5.74969 0
M  V30 5541 C 511.433 0.947265 -6.25468 0
M  V30 5542 C 510.097 0.794485 -6.62755 0
M  V30 5543 H 509.367 0.45742 -0.582965 0
M  V30 5544 H 512.014 0.549996 -1.83432 0
M  V30 5545 H 510.319 3.09401 -2.40371 0
M  V30 5546 H 512.016 2.91627 -2.75235 0
M  V30 5547 H 508.606 1.9537 -3.81482 0
M  V30 5548 H 512.79 1.55793 -4.71214 0
M  V30 5549 H 508.046 1.03623 -6.02555 0
M  V30 5550 H 512.22 0.648846 -6.93371 0
M  V30 5551 H 509.847 0.382271 -7.59238 0
M  V30 5552 N 511.423 1.38739 0.74761 0
M  V30 5553 C 512.333 1.38696 1.89211 0
M  V30 5554 C 513.349 0.283303 1.71678 0
M  V30 5555 O 514.525 0.522713 1.94498 0
M  V30 5556 C 511.59 1.21662 3.24653 0
M  V30 5557 C 510.651 2.41886 3.54669 0
M  V30 5558 C 509.884 2.25655 4.83648 0
M  V30 5559 O 510.107 1.25339 5.56459 0
M  V30 5560 O 509.041 3.14372 5.13277 0
M  V30 5561 H 512.867 2.35143 1.92202 0
M  V30 5562 H 510.452 1.19721 0.893708 0
M  V30 5563 H 512.334 1.14246 4.05618 0
M  V30 5564 H 511.009 0.283024 3.2246 0
M  V30 5565 H 509.916 2.54877 2.73841 0
M  V30 5566 H 511.249 3.33895 3.61628 0
M  V30 5567 N 512.901 -0.976442 1.23707 0
M  V30 5568 C 514.149 -1.71487 1.06942 0
M  V30 5569 C 514.47 -1.9098 -0.393897 0
M  V30 5570 O 513.74 -1.48128 -1.28198 0
M  V30 5571 H 512.32 -0.635425 0.392739 0
M  V30 5572 H 514.982 -1.17515 1.55487 0
M  V30 5573 H 514.078 -2.70286 1.56051 0
M  V30 5574 N 514.379 -1.04941 -1.1758 0
M  V30 5575 C 515.309 -0.669172 -2.23706 0
M  V30 5576 C 516.29 0.331835 -1.66832 0
M  V30 5577 O 517.475 0.209988 -1.93061 0
M  V30 5578 C 514.605 -0.0404889 -3.47276 0
M  V30 5579 C 513.559 -0.965983 -4.16957 0
M  V30 5580 C 512.885 -0.201312 -5.34321 0
M  V30 5581 C 514.185 -2.28902 -4.69469 0
M  V30 5582 H 515.879 -1.55639 -2.55767 0
M  V30 5583 H 513.425 -0.749793 -1.22939 0
M  V30 5584 H 515.378 0.237298 -4.20731 0
M  V30 5585 H 514.102 0.881658 -3.14475 0
M  V30 5586 H 512.761 -1.22829 -3.45411 0
M  V30 5587 H 512.409 0.723519 -4.97769 0
M  V30 5588 H 512.109 -0.817968 -5.81879 0
M  V30 5589 H 513.633 0.0692499 -6.10561 0
M  V30 5590 H 515.047 -2.07132 -5.34574 0
M  V30 5591 H 513.444 -2.85942 -5.27596 0
M  V30 5592 H 514.514 -2.92937 -3.86414 0
M  V30 5593 N 515.857 1.33968 -0.830081 0
M  V30 5594 C 517.085 2.0228 -0.434773 0
M  V30 5595 C 517.5 1.62487 0.961419 0
M  V30 5596 O 516.857 0.833849 1.62337 0
M  V30 5597 C 516.908 3.5751 -0.535625 0
M  V30 5598 O 516.629 3.95864 -1.87679 0
M  V30 5599 C 518.13 4.43091 -0.136137 0
M  V30 5600 H 515.35 0.648151 -0.173613 0
M  V30 5601 H 517.894 1.71089 -1.12022 0
M  V30 5602 H 516.049 3.87266 0.101817 0
M  V30 5603 H 516.463 4.9056 -1.85609 0
M  V30 5604 H 517.937 5.51398 -0.257772 0
M  V30 5605 H 518.414 4.29433 0.921076 0
M  V30 5606 H 519.02 4.18677 -0.747662 0
M  V30 5607 N 517.335 0.585699 1.46312 0
M  V30 5608 C 518.583 0.072278 2.01971 0
M  V30 5609 C 518.904 -1.29345 1.45928 0
M  V30 5610 O 518.174 -1.84973 0.645109 0
M  V30 5611 H 516.754 0.023729 0.746623 0
M  V30 5612 H 519.416 0.762155 1.7938 0
M  V30 5613 H 518.512 0.00552767 3.121 0
M  V30 5614 N 518.813 -1.54241 0.323641 0
M  V30 5615 C 519.761 -2.25813 -0.557804 0
M  V30 5616 C 520.755 -1.27225 -1.11849 0
M  V30 5617 O 521.961 -1.45001 -1.06652 0
M  V30 5618 H 518.336 -0.72532 -0.198532 0
M  V30 5619 H 520.307 -2.98322 0.0681112 0
M  V30 5620 C 519.056 -3.02913 -1.70701 0
M  V30 5621 H 518.379 -3.78593 -1.28482 0
M  V30 5622 H 519.819 -3.56238 -2.29935 0
M  V30 5623 C 518.278 -2.11217 -2.62467 0
M  V30 5624 O 518.808 -1.69508 -3.64184 0
M  V30 5625 N 517.014 -1.76704 -2.30703 0
M  V30 5626 H 516.561 -2.1082 -1.48029 0
M  V30 5627 H 516.519 -1.15631 -2.92364 0
M  V30 5628 N 520.291 -0.0518155 -1.57515 0
M  V30 5629 C 521.537 0.622745 -1.93002 0
M  V30 5630 C 521.87 1.70456 -0.930499 0
M  V30 5631 O 521.145 1.94452 0.0434086 0
M  V30 5632 C 521.428 1.21824 -3.38867 0
M  V30 5633 C 521.281 0.144434 -4.49568 0
M  V30 5634 C 522.6 2.12968 -3.8514 0
M  V30 5635 H 519.719 0.22491 -0.701844 0
M  V30 5636 H 522.361 -0.113711 -1.89659 0
M  V30 5637 H 520.511 1.8459 -3.41846 0
M  V30 5638 H 522.183 -0.48753 -4.58717 0
M  V30 5639 H 520.426 -0.527424 -4.30582 0
M  V30 5640 H 521.097 0.601127 -5.48717 0
M  V30 5641 H 523.573 1.60163 -3.8404 0
M  V30 5642 H 522.449 2.51578 -4.87852 0
M  V30 5643 H 522.71 3.03004 -3.21934 0
M  V30 5644 N 521.769 1.56035 0.221574 0
M  V30 5645 C 522.701 1.889 1.29805 0
M  V30 5646 C 523.714 0.777269 1.43047 0
M  V30 5647 O 524.903 1.05557 1.43945 0
M  V30 5648 C 522.003 2.0825 2.67367 0
M  V30 5649 C 521.176 3.39267 2.76073 0
M  V30 5650 C 520.235 3.48049 3.94649 0
M  V30 5651 O 519.261 4.2108 3.82988 0
M  V30 5652 N 520.463 2.79191 5.08953 0
M  V30 5653 H 523.228 2.81831 1.01938 0
M  V30 5654 H 520.789 1.5658 0.411612 0
M  V30 5655 H 522.781 2.11441 3.45072 0
M  V30 5656 H 521.351 1.21944 2.87834 0
M  V30 5657 H 520.571 3.48175 1.84846 0
M  V30 5658 H 521.859 4.25575 2.7886 0
M  V30 5659 H 521.257 2.19635 5.21322 0
M  V30 5660 H 519.814 2.88043 5.84701 0
M  V30 5661 N 523.247 -0.488276 1.49845 0
M  V30 5662 C 524.494 -1.24157 1.59973 0
M  V30 5663 C 524.822 -1.92293 0.292182 0
M  V30 5664 O 524.077 -1.81942 -0.720813 0
M  V30 5665 C 524.376 -2.32152 2.71735 0
M  V30 5666 C 524.042 -1.81387 4.12807 0
M  V30 5667 C 522.704 -1.67262 4.51195 0
M  V30 5668 C 525.056 -1.43537 5.01045 0
M  V30 5669 C 522.384 -1.13685 5.7558 0
M  V30 5670 C 524.736 -0.914081 6.25961 0
M  V30 5671 C 523.4 -0.759327 6.63167 0
M  V30 5672 H 522.67 -0.454322 0.585383 0
M  V30 5673 H 525.317 -0.540261 1.83721 0
M  V30 5674 H 523.622 -3.08122 2.42008 0
M  V30 5675 H 525.319 -2.90164 2.76778 0
M  V30 5676 H 521.909 -1.93344 3.82513 0
M  V30 5677 H 526.093 -1.53292 4.72033 0
M  V30 5678 H 521.349 -1.00426 6.03096 0
M  V30 5679 H 525.523 -0.612066 6.93705 0
M  V30 5680 H 523.15 -0.342002 7.5943 0
M  V30 5681 N 524.725 -1.39134 -0.740242 0
M  V30 5682 C 525.673 -1.3757 -1.87556 0
M  V30 5683 C 526.667 -0.259593 -1.67399 0
M  V30 5684 O 527.873 -0.429349 -1.74804 0
M  V30 5685 H 524.248 -0.42947 -0.6173 0
M  V30 5686 H 526.219 -2.33345 -1.85991 0
M  V30 5687 C 524.968 -1.23087 -3.25184 0
M  V30 5688 H 524.291 -2.08237 -3.41288 0
M  V30 5689 H 525.731 -1.26049 -4.0483 0
M  V30 5690 C 524.19 0.0611471 -3.36845 0
M  V30 5691 O 524.72 1.03328 -3.88183 0
M  V30 5692 N 522.926 0.122454 -2.90342 0
M  V30 5693 H 522.473 -0.669329 -2.48752 0
M  V30 5694 H 522.431 0.986463 -2.98523 0
M  V30 5695 N 526.204 0.969867 -1.24223 0
M  V30 5696 C 527.114 2.09806 -1.0497 0
M  V30 5697 C 528.13 1.73998 0.00886455 0
M  V30 5698 O 529.306 2.00513 -0.188848 0
M  V30 5699 C 526.371 3.40467 -0.654452 0
M  V30 5700 C 525.432 3.90236 -1.78926 0
M  V30 5701 C 524.665 5.14662 -1.41277 0
M  V30 5702 O 524.888 5.69602 -0.301632 0
M  V30 5703 O 523.822 5.58761 -2.23763 0
M  V30 5704 H 527.648 2.28942 -1.99548 0
M  V30 5705 H 525.233 1.08197 -1.03023 0
M  V30 5706 H 527.115 4.19039 -0.445452 0
M  V30 5707 H 525.79 3.22636 0.262216 0
M  V30 5708 H 524.697 3.12735 -2.05299 0
M  V30 5709 H 526.03 4.1254 -2.68462 0
M  V30 5710 N 527.682 1.05563 1.17022 0
M  V30 5711 C 528.629 0.659893 2.21165 0
M  V30 5712 C 529.599 -0.339813 1.62587 0
M  V30 5713 O 530.784 -0.230378 1.89404 0
M  V30 5714 C 527.924 0.0447297 3.45071 0
M  V30 5715 C 527.037 1.09372 4.17926 0
M  V30 5716 C 526.172 0.445481 5.29329 0
M  V30 5717 C 525.211 1.47852 5.93975 0
M  V30 5718 N 524.348 0.854172 6.96885 0
M  V30 5719 H 529.188 1.55243 2.54369 0
M  V30 5720 H 526.725 0.776336 1.24946 0
M  V30 5721 H 528.683 -0.329404 4.15898 0
M  V30 5722 H 527.313 -0.811244 3.1244 0
M  V30 5723 H 526.365 1.58564 3.45777 0
M  V30 5724 H 527.677 1.87773 4.62107 0
M  V30 5725 H 526.831 0.0179688 6.06697 0
M  V30 5726 H 525.57 -0.370481 4.86291 0
M  V30 5727 H 524.575 1.91601 5.15334 0
M  V30 5728 H 525.8 2.29645 6.39093 0
M  V30 5729 H 523.746 0.0587882 6.55974 0
M  V30 5730 H 523.663 1.57567 7.39397 0
M  V30 5731 H 524.931 0.451559 7.78191 0
M  V30 5732 N 529.16 -1.33526 0.837174 0
M  V30 5733 C 530.408 -1.97446 0.431211 0
M  V30 5734 C 530.729 -1.6665 -1.01255 0
M  V30 5735 O 529.999 -0.964559 -1.70508 0
M  V30 5736 H 528.579 -0.73043 0.156463 0
M  V30 5737 H 531.241 -1.62918 1.06976 0
M  V30 5738 H 530.337 -3.07001 0.561877 0
M  V30 5739 N 530.638 -0.59345 -1.46 0
M  V30 5740 C 532.054 -0.255965 -1.57534 0
M  V30 5741 C 532.254 1.24167 -1.58697 0
M  V30 5742 O 531.31 2.02398 -1.50968 0
M  V30 5743 C 532.623 -0.91466 -2.86451 0
M  V30 5744 C 534.171 -0.889253 -3.00102 0
M  V30 5745 C 534.646 -1.52769 -4.3177 0
M  V30 5746 N 536.137 -1.49253 -4.38495 0
M  V30 5747 C 536.872 -1.9558 -5.39014 0
M  V30 5748 N 536.368 -2.49929 -6.46148 0
M  V30 5749 N 538.161 -1.86432 -5.30282 0
M  V30 5750 H 530.312 -1.56604 -1.43489 0
M  V30 5751 H 532.575 -0.655207 -0.685133 0
M  V30 5752 H 532.281 -1.96861 -2.91442 0
M  V30 5753 H 532.155 -0.429356 -3.74748 0
M  V30 5754 H 534.542 0.156111 -2.94687 0
M  V30 5755 H 534.623 -1.41268 -2.13253 0
M  V30 5756 H 534.267 -2.57231 -4.37944 0
M  V30 5757 H 534.197 -0.979398 -5.17412 0
M  V30 5758 H 536.688 -1.09536 -3.61677 0
M  V30 5759 H 537.001 -2.83109 -7.19075 0
M  V30 5760 H 535.346 -2.53961 -6.46938 0
M  V30 5761 H 538.537 -1.43722 -4.4549 0
M  V30 5762 H 538.71 -2.22852 -6.08474 0
M  V30 5763 N 532.116 1.54067 -0.331816 0
M  V30 5764 C 533.532 1.59587 0.0205388 0
M  V30 5765 C 533.732 1.34813 1.49759 0
M  V30 5766 O 532.788 1.13661 2.25471 0
M  V30 5767 C 534.101 2.97959 -0.405103 0
M  V30 5768 C 535.649 3.10964 -0.356454 0
M  V30 5769 C 536.124 4.51694 -0.757384 0
M  V30 5770 N 537.615 4.57709 -0.71111 0
M  V30 5771 C 538.35 5.64729 -0.993427 0
M  V30 5772 N 537.846 6.79652 -1.3433 0
M  V30 5773 N 539.639 5.54546 -0.918442 0
M  V30 5774 H 531.79 1.68426 -1.29407 0
M  V30 5775 H 534.053 0.78819 -0.526745 0
M  V30 5776 H 533.759 3.21115 -1.43451 0
M  V30 5777 H 533.633 3.76524 0.225692 0
M  V30 5778 H 536.02 2.87538 0.663763 0
M  V30 5779 H 536.101 2.34484 -1.02229 0
M  V30 5780 H 535.745 4.75853 -1.77555 0
M  V30 5781 H 535.675 5.26555 -0.0691444 0
M  V30 5782 H 538.166 3.75176 -0.452883 0
M  V30 5783 H 538.479 7.57221 -1.54388 0
M  V30 5784 H 536.824 6.81128 -1.38164 0
M  V30 5785 H 540.015 4.63641 -0.644536 0
M  V30 5786 H 540.188 6.37861 -1.14181 0
M  V30 5787 N 533.594 0.0601682 1.57485 0
M  V30 5788 C 534.822 -0.620937 1.97363 0
M  V30 5789 C 535.237 -1.63846 0.938082 0
M  V30 5790 O 534.594 -1.82339 -0.0766578 0
M  V30 5791 C 534.645 -1.29987 3.37321 0
M  V30 5792 O 534.366 -0.323081 4.36907 0
M  V30 5793 C 535.867 -2.06989 3.92008 0
M  V30 5794 H 533.087 -0.169135 0.649334 0
M  V30 5795 H 535.631 0.129132 2.04092 0
M  V30 5796 H 533.786 -2.0011 3.31715 0
M  V30 5797 H 534.2 -0.808754 5.18227 0
M  V30 5798 H 535.674 -2.49901 4.92192 0
M  V30 5799 H 536.151 -2.92173 3.2792 0
M  V30 5800 H 536.757 -1.41757 4.0098 0
M  V30 5801 N 535.072 -1.5615 -0.213296 0
M  V30 5802 C 536.02 -1.93953 -1.28394 0
M  V30 5803 C 537.014 -0.822592 -1.48087 0
M  V30 5804 O 538.22 -1.00748 -1.49164 0
M  V30 5805 H 534.595 -0.61648 -0.430646 0
M  V30 5806 H 536.566 -2.83275 -0.937977 0
M  V30 5807 C 535.315 -2.27969 -2.62537 0
M  V30 5808 H 534.638 -3.13432 -2.48194 0
M  V30 5809 H 536.078 -2.58297 -3.36242 0
M  V30 5810 C 534.537 -1.10775 -3.18167 0
M  V30 5811 O 535.067 -0.373201 -3.99963 0
M  V30 5812 N 533.273 -0.889377 -2.76656 0
M  V30 5813 H 532.82 -1.48843 -2.10246 0
M  V30 5814 H 532.778 -0.107 -3.14218 0
M  V30 5815 N 536.55 0.480323 -1.50102 0
M  V30 5816 C 537.78 1.25475 -1.64133 0
M  V30 5817 C 538.188 1.8647 -0.320272 0
M  V30 5818 O 537.531 1.69561 0.70673 0
M  V30 5819 C 537.593 2.40996 -2.6676 0
M  V30 5820 C 537.257 2.00711 -4.10565 0
M  V30 5821 C 538.254 1.53492 -4.96725 0
M  V30 5822 C 535.939 2.09714 -4.56427 0
M  V30 5823 C 537.933 1.15806 -6.26792 0
M  V30 5824 C 535.62 1.7164 -5.86501 0
M  V30 5825 C 536.618 1.24763 -6.71508 0
M  V30 5826 O 536.306 0.872122 -7.99155 0
M  V30 5827 H 536.038 0.385983 -0.554971 0
M  V30 5828 H 538.592 0.580848 -1.97016 0
M  V30 5829 H 536.822 3.11528 -2.291 0
M  V30 5830 H 538.511 3.02981 -2.70106 0
M  V30 5831 H 539.277 1.45966 -4.62514 0
M  V30 5832 H 535.156 2.4515 -3.90413 0
M  V30 5833 H 538.7 0.791465 -6.93096 0
M  V30 5834 H 534.597 1.78822 -6.20236 0
M  V30 5835 H 535.365 1.00178 -8.12346 0
M  V30 5836 N 538.028 1.39524 0.732853 0
M  V30 5837 C 539.256 1.40143 1.52209 0
M  V30 5838 C 539.671 -0.00348836 1.888 0
M  V30 5839 O 539.028 -0.975357 1.5425 0
M  V30 5840 C 539.079 2.27632 2.8083 0
M  V30 5841 O 538.8 3.62654 2.45792 0
M  V30 5842 C 540.301 2.36658 3.74844 0
M  V30 5843 H 537.521 0.478604 0.470297 0
M  V30 5844 H 540.065 1.83366 0.905388 0
M  V30 5845 H 538.22 1.87818 3.38826 0
M  V30 5846 H 538.634 4.08941 3.28431 0
M  V30 5847 H 540.108 3.02118 4.61984 0
M  V30 5848 H 540.585 1.38638 4.16745 0
M  V30 5849 H 541.191 2.76951 3.22766 0
M  V30 5850 N 539.506 -0.963266 1.24736 0
M  V30 5851 C 540.436 -2.07628 1.06832 0
M  V30 5852 C 541.417 -1.70088 -0.0200566 0
M  V30 5853 O 542.602 -1.93636 0.147854 0
M  V30 5854 C 539.732 -3.40636 0.677069 0
M  V30 5855 C 538.686 -3.9215 1.71471 0
M  V30 5856 C 538.012 -5.21553 1.1784 0
M  V30 5857 C 539.312 -4.19493 3.11164 0
M  V30 5858 H 541.006 -2.22864 1.9993 0
M  V30 5859 H 538.552 -1.07093 0.96266 0
M  V30 5860 H 540.505 -4.17941 0.538792 0
M  V30 5861 H 539.229 -3.25313 -0.289612 0
M  V30 5862 H 537.888 -3.17005 1.84128 0
M  V30 5863 H 537.536 -5.02593 0.202195 0
M  V30 5864 H 537.236 -5.56988 1.87185 0
M  V30 5865 H 538.76 -6.01463 1.05233 0
M  V30 5866 H 540.174 -4.87487 3.01711 0
M  V30 5867 H 538.571 -4.66165 3.77902 0
M  V30 5868 H 539.641 -3.26097 3.58871 0
M  V30 5869 N 540.985 -1.06182 -1.16461 0
M  V30 5870 C 541.935 -0.641619 -2.18786 0
M  V30 5871 C 542.919 0.327122 -1.5754 0
M  V30 5872 O 544.111 0.142746 -1.76423 0
M  V30 5873 C 541.24 -0.0283734 -3.43288 0
M  V30 5874 C 540.326 -1.02154 -4.11613 0
M  V30 5875 N 540.717 -2.19671 -4.55608 0
M  V30 5876 C 539.015 -0.852229 -4.37782 0
M  V30 5877 C 539.716 -2.82583 -5.0845 0
M  V30 5878 N 538.692 -2.10318 -5.01266 0
M  V30 5879 H 542.494 -1.53684 -2.50516 0
M  V30 5880 H 540.008 -0.933349 -1.329 0
M  V30 5881 H 542.005 0.29049 -4.15887 0
M  V30 5882 H 540.665 0.862118 -3.13046 0
M  V30 5883 H 541.676 -2.57453 -4.49375 0
M  V30 5884 H 538.353 -0.0136314 -4.17498 0
M  V30 5885 H 539.743 -3.82298 -5.52538 0
M  V30 5886 N 542.463 1.3308 -0.844243 0
M  V30 5887 C 543.709 1.97898 -0.443206 0
M  V30 5888 C 544.042 1.66699 0.99625 0
M  V30 5889 O 543.317 0.949704 1.69738 0
M  V30 5890 C 543.6 3.53801 -0.670606 0
M  V30 5891 C 543.453 3.94667 -2.15772 0
M  V30 5892 C 544.772 4.39936 -0.120226 0
M  V30 5893 H 541.891 0.718861 -0.162504 0
M  V30 5894 H 544.533 1.57633 -1.06075 0
M  V30 5895 H 542.683 3.88229 -0.14496 0
M  V30 5896 H 544.355 3.70469 -2.74865 0
M  V30 5897 H 542.598 3.44203 -2.6402 0
M  V30 5898 H 543.269 5.03275 -2.26757 0
M  V30 5899 H 545.745 4.12183 -0.5696 0
M  V30 5900 H 544.621 5.4803 -0.308984 0
M  V30 5901 H 544.882 4.31184 0.976347 0
M  V30 5902 N 543.941 0.601185 1.45683 0
M  V30 5903 C 545.19 0.0914953 2.01492 0
M  V30 5904 C 545.503 -1.28331 1.47616 0
M  V30 5905 O 546.709 -1.88537 1.95362 0
M  V30 5906 C 545.165 0.11291 3.59723 0
M  V30 5907 C 544.773 1.48717 4.22596 0
M  V30 5908 C 546.517 -0.341871 4.23121 0
M  V30 5909 C 544.424 1.46531 5.7296 0
M  V30 5910 H 543.354 0.0304365 0.753385 0
M  V30 5911 H 546.005 0.755568 1.67223 0
M  V30 5912 H 544.387 -0.617692 3.91153 0
M  V30 5913 H 545.561 2.23897 4.02749 0
M  V30 5914 H 543.876 1.88351 3.71366 0
M  V30 5915 H 546.473 -0.377304 5.33367 0
M  V30 5916 H 546.816 -1.36325 3.93346 0
M  V30 5917 H 547.349 0.335256 3.96385 0
M  V30 5918 H 544.088 2.46408 6.07423 0
M  V30 5919 H 543.608 0.755997 5.95017 0
M  V30 5920 H 545.287 1.18618 6.36034 0
M  V30 5921 N 545.419 -1.53889 0.339982 0
M  V30 5922 C 546.329 -2.28604 -0.526988 0
M  V30 5923 C 547.345 -1.33578 -1.11503 0
M  V30 5924 O 548.521 -1.66612 -1.13148 0
M  V30 5925 C 545.586 -3.04164 -1.66389 0
M  V30 5926 C 544.647 -4.14809 -1.10599 0
M  V30 5927 C 543.88 -4.86756 -2.18871 0
M  V30 5928 O 544.103 -4.58343 -3.39526 0
M  V30 5929 O 543.037 -5.73289 -1.83366 0
M  V30 5930 H 546.863 -3.03594 0.0802707 0
M  V30 5931 H 544.448 -1.4903 0.105141 0
M  V30 5932 H 546.33 -3.51427 -2.32544 0
M  V30 5933 H 545.005 -2.32035 -2.25703 0
M  V30 5934 H 543.912 -3.71857 -0.409067 0
M  V30 5935 H 545.245 -4.89029 -0.557771 0
M  V30 5936 N 546.897 -0.0685191 -1.57451 0
M  V30 5937 C 547.83 0.935736 -2.08133 0
M  V30 5938 C 548.808 1.29317 -0.985698 0
M  V30 5939 O 549.992 1.40304 -1.25886 0
M  V30 5940 C 547.119 2.2448 -2.53627 0
M  V30 5941 C 546.165 2.03917 -3.74593 0
M  V30 5942 S 546.998 1.30154 -5.19442 0
M  V30 5943 C 548.154 2.62346 -5.68265 0
M  V30 5944 H 548.387 0.504473 -2.92989 0
M  V30 5945 H 545.92 0.144169 -1.53725 0
M  V30 5946 H 547.878 2.99718 -2.80499 0
M  V30 5947 H 546.539 2.64731 -1.69045 0
M  V30 5948 H 545.732 3.00788 -4.04404 0
M  V30 5949 H 545.334 1.36815 -3.48077 0
M  V30 5950 H 547.626 3.58448 -5.7491 0
M  V30 5951 H 548.569 2.3715 -6.67207 0
M  V30 5952 H 548.977 2.69401 -4.96068 0
M  V30 5953 N 548.375 1.56261 0.205012 0
M  V30 5954 C 549.322 1.93754 1.25411 0
M  V30 5955 C 550.292 0.796826 1.45739 0
M  V30 5956 O 551.477 1.05414 1.59036 0
M  V30 5957 C 548.617 2.27383 2.59598 0
M  V30 5958 C 547.73 3.5447 2.46931 0
M  V30 5959 C 546.865 3.77468 3.73753 0
M  V30 5960 C 545.904 4.98014 3.55877 0
M  V30 5961 N 545.041 5.17316 4.74688 0
M  V30 5962 H 549.881 2.83203 0.92737 0
M  V30 5963 H 547.418 1.40158 0.446574 0
M  V30 5964 H 549.376 2.44895 3.37761 0
M  V30 5965 H 548.006 1.41088 2.90335 0
M  V30 5966 H 547.058 3.45061 1.60116 0
M  V30 5967 H 548.37 4.42789 2.29651 0
M  V30 5968 H 547.524 3.95165 4.60358 0
M  V30 5969 H 546.263 2.87461 3.93976 0
M  V30 5970 H 545.268 4.80249 2.67657 0
M  V30 5971 H 546.493 5.8952 3.37109 0
M  V30 5972 H 544.439 4.30255 4.95194 0
M  V30 5973 H 544.356 5.99796 4.60197 0
M  V30 5974 H 545.624 5.39463 5.62672 0
M  V30 5975 N 549.853 -0.472356 1.50355 0
M  V30 5976 C 550.803 -1.56809 1.65514 0
M  V30 5977 C 551.787 -1.5261 0.509801 0
M  V30 5978 O 552.979 -1.59655 0.764145 0
M  V30 5979 C 550.108 -2.9526 1.75146 0
M  V30 5980 C 549.194 -3.04348 2.95353 0
M  V30 5981 N 549.585 -2.83253 4.19048 0
M  V30 5982 C 547.883 -3.35482 2.93884 0
M  V30 5983 C 548.584 -2.97273 5.00003 0
M  V30 5984 N 547.56 -3.27418 4.33934 0
M  V30 5985 H 551.362 -1.39197 2.58846 0
M  V30 5986 H 548.876 -0.67906 1.47521 0
M  V30 5987 H 550.873 -3.74044 1.8411 0
M  V30 5988 H 549.533 -3.1392 0.829717 0
M  V30 5989 H 550.544 -2.5886 4.48567 0
M  V30 5990 H 547.221 -3.60138 2.11204 0
M  V30 5991 H 548.611 -2.85214 6.08361 0
M  V30 5992 N 551.331 -1.39911 -0.725443 0
M  V30 5993 C 552.608 -1.28158 -1.47766 0
M  V30 5994 C 552.988 0.104545 -2.10841 0
M  V30 5995 O 552.336 1.11657 -1.99361 0
M  V30 5996 C 552.546 -2.41306 -2.52135 0
M  V30 5997 C 553.894 -2.81076 -3.18247 0
M  V30 5998 O 554.918 -2.40827 -2.62452 0
M  V30 5999 O 553.777 -3.50581 -4.19231 0
M  V30 6000 H 550.871 -0.502761 -0.656628 0
M  V30 6001 H 553.417 -1.51808 -0.758456 0
M  V30 6002 H 552.189 -3.33932 -2.03974 0
M  V30 6003 H 551.812 -2.19374 -3.31603 0
M  V30 6004 N 552.809 0.956637 -1.25245 0
M  V30 6005 C 554.057 1.69764 -1.09657 0
M  V30 6006 C 554.378 1.91583 0.363464 0
M  V30 6007 O 553.648 1.50149 1.25825 0
M  V30 6008 H 552.228 0.629097 -0.402798 0
M  V30 6009 H 554.89 1.15026 -1.57337 0
M  V30 6010 H 553.986 2.67769 -1.60331 0
M  V30 6011 N 554.287 1.06798 1.15896 0
M  V30 6012 C 555.536 0.782796 1.8589 0
M  V30 6013 C 555.849 -0.693498 1.82893 0
M  V30 6014 O 557.055 -1.09325 2.48516 0
M  V30 6015 C 555.511 1.3502 3.33613 0
M  V30 6016 C 555.119 2.8571 3.45071 0
M  V30 6017 C 556.863 1.14278 4.08829 0
M  V30 6018 C 554.77 3.35669 4.86909 0
M  V30 6019 H 553.7 0.289149 0.696354 0
M  V30 6020 H 556.351 1.28734 1.30766 0
M  V30 6021 H 554.733 0.773407 3.88374 0
M  V30 6022 H 555.907 3.49385 3.00445 0
M  V30 6023 H 554.222 3.05178 2.83294 0
M  V30 6024 H 556.819 1.49087 5.13495 0
M  V30 6025 H 557.162 0.0814575 4.1622 0
M  V30 6026 H 557.695 1.68563 3.60321 0
M  V30 6027 H 554.434 4.41302 4.84698 0
M  V30 6028 H 553.954 2.76745 5.32139 0
M  V30 6029 H 555.633 3.31296 5.55745 0
M  V30 6030 N 555.766 -1.3263 0.851289 0
M  V30 6031 C 557.182 -1.50162 0.5407 0
M  V30 6032 C 557.382 -1.78788 -0.929369 0
M  V30 6033 O 556.438 -1.85545 -1.71258 0
M  V30 6034 C 557.751 -2.64803 1.42478 0
M  V30 6035 C 559.299 -2.78688 1.42485 0
M  V30 6036 C 559.774 -3.96405 2.29407 0
M  V30 6037 N 561.265 -4.0366 2.27184 0
M  V30 6038 C 562 -4.93971 2.9117 0
M  V30 6039 N 561.496 -5.89313 3.64256 0
M  V30 6040 N 563.289 -4.87066 2.80576 0
M  V30 6041 H 555.44 -1.12315 1.80275 0
M  V30 6042 H 557.703 -0.553266 0.769806 0
M  V30 6043 H 557.409 -2.50368 2.46999 0
M  V30 6044 H 557.283 -3.60506 1.10974 0
M  V30 6045 H 559.67 -2.92547 0.387304 0
M  V30 6046 H 559.751 -1.83708 1.78002 0
M  V30 6047 H 559.395 -3.83304 3.33228 0
M  V30 6048 H 559.325 -4.90654 1.91224 0
M  V30 6049 H 561.816 -3.35435 1.74045 0
M  V30 6050 H 562.129 -6.54913 4.10255 0
M  V30 6051 H 560.474 -5.8935 3.68364 0
M  V30 6052 H 563.665 -4.11552 2.23031 0
M  V30 6053 H 563.838 -5.57248 3.30725 0
M  V30 6054 N 557.244 -0.608902 -1.45362 0
M  V30 6055 C 558.191 0.109172 -2.30542 0
M  V30 6056 C 559.161 0.858704 -1.42181 0
M  V30 6057 O 560.346 0.844178 -1.71109 0
M  V30 6058 C 557.486 1.09971 -3.27109 0
M  V30 6059 C 556.599 0.350911 -4.30572 0
M  V30 6060 C 555.734 1.33129 -5.14247 0
M  V30 6061 C 554.773 0.570377 -6.09437 0
M  V30 6062 N 553.91 1.5001 -6.85887 0
M  V30 6063 H 558.75 -0.623195 -2.91411 0
M  V30 6064 H 556.287 -0.319122 -1.43597 0
M  V30 6065 H 558.245 1.68714 -3.81564 0
M  V30 6066 H 556.875 1.79947 -2.67991 0
M  V30 6067 H 555.927 -0.352054 -3.78767 0
M  V30 6068 H 557.239 -0.242725 -4.98209 0
M  V30 6069 H 556.393 1.99074 -5.73109 0
M  V30 6070 H 555.132 1.95885 -4.46632 0
M  V30 6071 H 554.137 -0.102702 -5.49704 0
M  V30 6072 H 555.362 -0.0521607 -6.7908 0
M  V30 6073 H 553.308 2.11529 -6.2096 0
M  V30 6074 H 553.225 0.959934 -7.49881 0
M  V30 6075 H 554.493 2.14909 -7.49289 0
M  V30 6076 N 558.722 1.53707 -0.348139 0
M  V30 6077 C 559.971 2.0017 0.247992 0
M  V30 6078 C 560.284 1.23983 1.51286 0
M  V30 6079 O 561.49 1.60946 2.18652 0
M  V30 6080 C 559.946 3.56515 0.492459 0
M  V30 6081 C 559.554 4.41562 -0.756777 0
M  V30 6082 C 561.298 4.11381 1.0472 0
M  V30 6083 C 559.205 5.89426 -0.482856 0
M  V30 6084 H 558.135 0.747806 0.0964452 0
M  V30 6085 H 560.786 1.77532 -0.464179 0
M  V30 6086 H 559.168 3.75236 1.26545 0
M  V30 6087 H 560.342 4.34615 -1.53122 0
M  V30 6088 H 558.657 3.97711 -1.23348 0
M  V30 6089 H 561.254 5.19468 1.26717 0
M  V30 6090 H 561.597 3.64885 2.00411 0
M  V30 6091 H 562.13 3.96389 0.334801 0
M  V30 6092 H 558.869 6.40164 -1.40962 0
M  V30 6093 H 558.389 5.99264 0.253416 0
M  V30 6094 H 560.068 6.4692 -0.101816 0
M  V30 6095 N 560.2 0.0768682 1.57412 0
M  V30 6096 C 561.448 -0.589918 1.93299 0
M  V30 6097 C 561.769 -1.69842 0.958049 0
M  V30 6098 O 561.039 -1.95899 0.00703261 0
M  V30 6099 H 559.619 -0.220901 0.713591 0
M  V30 6100 H 562.281 0.135917 1.94425 0
M  V30 6101 H 561.377 -1.01195 2.95239 0
M  V30 6102 N 561.678 -1.56367 -0.196722 0
M  V30 6103 C 562.908 -1.84371 -0.932254 0
M  V30 6104 C 563.316 -0.657013 -1.77426 0
M  V30 6105 O 562.659 0.383576 -1.79651 0
M  V30 6106 C 562.721 -3.06454 -1.87952 0
M  V30 6107 C 562.385 -4.40425 -1.21962 0
M  V30 6108 C 563.382 -5.16457 -0.597343 0
M  V30 6109 C 561.067 -4.8716 -1.22396 0
M  V30 6110 C 563.061 -6.37399 0.0117913 0
M  V30 6111 C 560.748 -6.08038 -0.610995 0
M  V30 6112 C 561.746 -6.83 0.00580487 0
M  V30 6113 O 561.434 -8.01589 0.609173 0
M  V30 6114 H 561.166 -0.616377 -0.277589 0
M  V30 6115 H 563.72 -2.04329 -0.209452 0
M  V30 6116 H 561.95 -2.82377 -2.64197 0
M  V30 6117 H 563.639 -3.21118 -2.48271 0
M  V30 6118 H 564.405 -4.81445 -0.586142 0
M  V30 6119 H 560.284 -4.2877 -1.69345 0
M  V30 6120 H 563.828 -6.9585 0.493836 0
M  V30 6121 H 559.725 -6.42519 -0.619693 0
M  V30 6122 H 560.493 -8.16935 0.505919 0
M  V30 6123 N 563.156 0.464375 -1.50603 0
M  V30 6124 C 564.402 1.21485 -1.63135 0
M  V30 6125 C 564.757 1.89538 -0.33063 0
M  V30 6126 O 564.05 1.79432 0.671903 0
M  V30 6127 C 564.244 2.278 -2.75394 0
M  V30 6128 C 564.073 1.70178 -4.16257 0
M  V30 6129 C 562.843 1.49854 -4.82568 0
M  V30 6130 C 565.041 1.19298 -5.00272 0
M  V30 6131 N 563.023 0.875458 -6.07626 0
M  V30 6132 C 564.394 0.693527 -6.16109 0
M  V30 6133 C 566.449 1.08216 -4.85998 0
M  V30 6134 C 565.152 0.0941808 -7.19238 0
M  V30 6135 C 567.178 0.496745 -5.8931 0
M  V30 6136 C 566.54 0.00770448 -7.044 0
M  V30 6137 H 562.639 0.433184 -0.651057 0
M  V30 6138 H 565.223 0.515748 -1.87745 0
M  V30 6139 H 563.394 2.95129 -2.52495 0
M  V30 6140 H 565.126 2.94814 -2.77249 0
M  V30 6141 H 561.881 1.75269 -4.39975 0
M  V30 6142 H 562.305 0.582135 -6.74493 0
M  V30 6143 H 566.947 1.44617 -3.97298 0
M  V30 6144 H 564.665 -0.28202 -8.07608 0
M  V30 6145 H 568.251 0.413275 -5.8033 0
M  V30 6146 H 567.131 -0.438188 -7.82975 0
M  V30 6147 N 564.634 1.40294 0.718013 0
M  V30 6148 C 565.582 1.40536 1.85344 0
M  V30 6149 C 566.576 0.286192 1.66965 0
M  V30 6150 O 567.782 0.457105 1.74099 0
M  V30 6151 H 564.157 0.439236 0.61039 0
M  V30 6152 H 566.128 2.36275 1.82255 0
M  V30 6153 C 564.877 1.28245 3.23185 0
M  V30 6154 H 564.2 2.1364 3.37932 0
M  V30 6155 H 565.64 1.32474 4.02774 0
M  V30 6156 C 564.099 -0.0075503 3.36899 0
M  V30 6157 O 564.629 -0.971391 3.89778 0
M  V30 6158 N 562.835 -0.0762479 2.905 0
M  V30 6159 H 562.382 0.708819 2.47656 0
M  V30 6160 H 562.34 -0.938846 3.00055 0
M  V30 6161 N 566.112 -0.949982 1.2575 0
M  V30 6162 C 567.022 -2.08109 1.08295 0
M  V30 6163 C 568.038 -1.7399 0.0188181 0
M  V30 6164 O 569.214 -2.00187 0.220724 0
M  V30 6165 C 566.279 -3.39383 0.708534 0
M  V30 6166 C 565.34 -3.8734 1.85111 0
M  V30 6167 C 564.573 -5.12349 1.49447 0
M  V30 6168 O 564.796 -5.6905 0.392212 0
M  V30 6169 O 563.73 -5.5513 2.32624 0
M  V30 6170 H 567.556 -2.25738 2.03165 0
M  V30 6171 H 565.141 -1.06545 1.04731 0
M  V30 6172 H 567.023 -4.18277 0.512061 0
M  V30 6173 H 565.698 -3.23013 -0.210854 0
M  V30 6174 H 564.605 -3.09429 2.10248 0
M  V30 6175 H 565.938 -4.08216 2.74991 0
M  V30 6176 N 567.59 -1.07411 -1.15328 0
M  V30 6177 C 568.867 -0.710732 -1.82231 0
M  V30 6178 C 569.247 0.806732 -1.95077 0
M  V30 6179 O 568.595 1.72139 -1.50268 0
M  V30 6180 C 568.805 -1.42586 -3.18544 0
M  V30 6181 C 570.153 -1.57836 -3.94174 0
M  V30 6182 O 571.177 -1.38669 -3.281 0
M  V30 6183 O 570.036 -1.8938 -5.12638 0
M  V30 6184 H 567.13 -0.25297 -0.78736 0
M  V30 6185 H 569.676 -1.17508 -1.22434 0
M  V30 6186 H 568.448 -2.46008 -3.04296 0
M  V30 6187 H 568.071 -0.952332 -3.86026 0
M  V30 6188 N 569.068 1.32177 -0.85831 0
M  V30 6189 C 570.345 1.91781 -0.384624 0
M  V30 6190 C 570.725 1.78171 1.13217 0
M  V30 6191 O 570.073 1.18209 1.95548 0
M  V30 6192 C 570.283 3.38414 -0.853047 0
M  V30 6193 C 571.631 4.15542 -0.872359 0
M  V30 6194 O 572.655 3.47148 -0.797926 0
M  V30 6195 O 571.514 5.37678 -0.978009 0
M  V30 6196 H 568.608 0.819259 -0.112886 0
M  V30 6197 H 571.154 1.40923 -0.945453 0
M  V30 6198 H 569.926 3.4228 -1.89632 0
M  V30 6199 H 569.549 3.96683 -0.269874 0
M  V30 6200 N 570.547 0.616602 1.45037 0
M  V30 6201 C 571.494 -0.0969439 2.30596 0
M  V30 6202 C 572.464 -0.851151 1.42635 0
M  V30 6203 O 573.649 -0.835092 1.71554 0
M  V30 6204 C 570.789 -1.08234 3.27688 0
M  V30 6205 C 569.902 -0.328072 4.30752 0
M  V30 6206 C 569.037 -1.30399 5.14946 0
M  V30 6207 C 568.076 -0.538049 6.09731 0
M  V30 6208 N 567.213 -1.46371 6.86673 0
M  V30 6209 H 572.053 0.63864 2.91076 0
M  V30 6210 H 569.59 0.326733 1.43425 0
M  V30 6211 H 571.548 -1.66688 3.82454 0
M  V30 6212 H 570.178 -1.78523 2.68941 0
M  V30 6213 H 569.23 0.372136 3.78575 0
M  V30 6214 H 570.542 0.269142 4.98073 0
M  V30 6215 H 569.696 -1.96032 5.74157 0
M  V30 6216 H 568.435 -1.93514 4.47665 0
M  V30 6217 H 567.44 0.131852 5.49642 0
M  V30 6218 H 568.665 0.0881732 6.79043 0
M  V30 6219 H 566.611 -2.08233 6.22073 0
M  V30 6220 H 566.528 -0.920152 7.50379 0
M  V30 6221 H 567.796 -2.10932 7.50418 0
M  V30 6222 N 572.025 -1.5352 0.356285 0
M  V30 6223 C 573.272 -2.01117 -0.236303 0
M  V30 6224 C 573.6 -1.24381 -1.49531 0
M  V30 6225 O 572.855 -0.323057 -1.93015 0
M  V30 6226 C 573.154 -3.52607 -0.583369 0
M  V30 6227 C 572.82 -4.47151 0.58023 0
M  V30 6228 C 571.482 -4.72718 0.899528 0
M  V30 6229 C 573.834 -5.03137 1.36024 0
M  V30 6230 C 571.162 -5.51523 2.00098 0
M  V30 6231 C 573.514 -5.83145 2.45204 0
M  V30 6232 C 572.178 -6.07001 2.77679 0
M  V30 6233 H 571.448 -0.735938 -0.0864695 0
M  V30 6234 H 574.095 -1.85209 0.48683 0
M  V30 6235 H 572.4 -3.66413 -1.38739 0
M  V30 6236 H 574.097 -3.86901 -1.05397 0
M  V30 6237 H 570.687 -4.27394 0.321322 0
M  V30 6238 H 574.871 -4.83339 1.12682 0
M  V30 6239 H 570.127 -5.68229 2.25668 0
M  V30 6240 H 574.301 -6.25537 3.06067 0
M  V30 6241 H 571.928 -6.67851 3.63151 0
M  V30 6242 N 573.503 -0.0852151 -1.57369 0
M  V30 6243 C 574.749 0.581666 -1.94279 0
M  V30 6244 C 575.082 1.68444 -0.966446 0
M  V30 6245 O 574.357 1.945 0.00215277 0
M  V30 6246 C 574.64 1.14609 -3.41375 0
M  V30 6247 C 574.493 0.0490414 -4.49773 0
M  V30 6248 C 575.812 2.04751 -3.8957 0
M  V30 6249 H 572.931 0.209972 -0.706456 0
M  V30 6250 H 575.573 -0.153915 -1.89376 0
M  V30 6251 H 573.723 1.77297 -3.45685 0
M  V30 6252 H 575.395 -0.584721 -4.57579 0
M  V30 6253 H 573.638 -0.618638 -4.29366 0
M  V30 6254 H 574.309 0.484601 -5.49869 0
M  V30 6255 H 576.785 1.51981 -3.87351 0
M  V30 6256 H 575.661 2.41173 -4.93079 0
M  V30 6257 H 575.922 2.96107 -3.28288 0
M  V30 6258 N 574.981 1.5647 0.188427 0
M  V30 6259 C 576.392 1.70864 0.752494 0
M  V30 6260 C 576.743 0.692905 1.83557 0
M  V30 6261 O 575.868 -0.149307 2.15884 0
M  V30 6262 C 576.463 3.09789 1.37173 0
M  V30 6263 C 575.022 3.25925 1.88281 0
M  V30 6264 C 574.169 2.66817 0.755259 0
M  V30 6265 H 577.12 1.58657 -0.0367408 0
M  V30 6266 H 577.141 3.07489 2.24122 0
M  V30 6267 H 576.653 3.83693 0.583219 0
M  V30 6268 H 574.754 2.56948 2.6983 0
M  V30 6269 H 574.867 4.33498 2.04001 0
M  V30 6270 H 573.231 2.2617 1.17128 0
M  V30 6271 H 574.014 3.43294 -0.0211237 0
M  V30 6272 N 576.459 -0.456382 1.50847 0
M  V30 6273 C 577.422 -1.53493 1.70213 0
M  V30 6274 C 578.422 -1.50264 0.572481 0
M  V30 6275 O 579.612 -1.52623 0.839751 0
M  V30 6276 C 576.744 -2.93091 1.741 0
M  V30 6277 H 577.937 -1.37633 2.66453 0
M  V30 6278 H 575.49 -0.683776 1.4055 0
M  V30 6279 H 576.225 -3.14378 0.796063 0
M  V30 6280 H 576.01 -2.9684 2.5618 0
M  V30 6281 H 577.5 -3.71368 1.90987 0
M  V30 6282 N 577.937 -1.40673 -0.710563 0
M  V30 6283 C 578.9 -1.4108 -1.80635 0
M  V30 6284 C 579.9 -0.303783 -1.57904 0
M  V30 6285 O 581.09 -0.562937 -1.64853 0
M  V30 6286 C 578.222 -1.20748 -3.18799 0
M  V30 6287 H 579.415 -2.38612 -1.81671 0
M  V30 6288 H 576.968 -1.26595 -0.916704 0
M  V30 6289 H 577.703 -0.239964 -3.23411 0
M  V30 6290 H 577.488 -2.00941 -3.36698 0
M  V30 6291 H 578.978 -1.23833 -3.98817 0
M  V30 6292 N 579.415 0.9433 -1.26252 0
M  V30 6293 C 580.643 1.72367 -1.14443 0
M  V30 6294 C 581.058 1.86392 0.300572 0
M  V30 6295 O 580.415 1.36978 1.20596 0
M  V30 6296 C 580.466 3.13155 -1.806 0
M  V30 6297 O 580.187 2.99803 -3.19452 0
M  V30 6298 C 581.688 4.07417 -1.74717 0
M  V30 6299 H 578.908 0.539758 -0.398626 0
M  V30 6300 H 581.452 1.18268 -1.66832 0
M  V30 6301 H 579.607 3.64162 -1.32154 0
M  V30 6302 H 580.021 3.88697 -3.52158 0
M  V30 6303 H 581.495 5.03773 -2.25647 0
M  V30 6304 H 581.972 4.3337 -0.713244 0
M  V30 6305 H 582.578 3.6233 -2.22704 0
M  V30 6306 N 580.893 1.08022 1.14757 0
M  V30 6307 C 582.17 0.720386 1.81851 0
M  V30 6308 C 582.55 -0.796375 1.95502 0
M  V30 6309 O 581.898 -1.71339 1.51179 0
M  V30 6310 C 582.108 1.44273 3.17783 0
M  V30 6311 C 583.456 1.59925 3.93331 0
M  V30 6312 O 584.48 1.40407 3.2736 0
M  V30 6313 O 583.339 1.92096 5.11626 0
M  V30 6314 H 580.433 0.257142 0.786007 0
M  V30 6315 H 582.979 1.18155 1.21809 0
M  V30 6316 H 581.751 2.47618 3.02987 0
M  V30 6317 H 581.374 0.97279 3.85516 0
M  V30 6318 N 582.371 -1.3172 0.865308 0
M  V30 6319 C 583.334 -2.26918 0.322627 0
M  V30 6320 C 584.334 -1.52031 -0.523751 0
M  V30 6321 O 585.524 -1.70973 -0.333727 0
M  V30 6322 C 582.656 -3.36558 -0.542338 0
M  V30 6323 H 583.849 -2.76432 1.16298 0
M  V30 6324 H 581.402 -1.42573 0.640512 0
M  V30 6325 H 582.137 -2.92329 -1.40407 0
M  V30 6326 H 581.922 -3.92048 0.0636395 0
M  V30 6327 H 583.412 -4.07465 -0.91446 0
M  V30 6328 N 583.85 -0.624285 -1.44708 0
M  V30 6329 C 584.782 0.12305 -2.28869 0
M  V30 6330 C 585.795 0.81557 -1.40898 0
M  V30 6331 O 586.984 0.678162 -1.65116 0
M  V30 6332 C 584.084 1.19612 -3.1709 0
M  V30 6333 C 583.257 0.587452 -4.33437 0
M  V30 6334 C 582.316 1.55358 -5.02743 0
M  V30 6335 O 581.341 1.07338 -5.58988 0
M  V30 6336 N 582.543 2.88798 -5.03563 0
M  V30 6337 H 585.308 -0.599193 -2.93649 0
M  V30 6338 H 582.87 -0.464954 -1.5508 0
M  V30 6339 H 584.861 1.84261 -3.60319 0
M  V30 6340 H 583.432 1.82067 -2.54107 0
M  V30 6341 H 582.652 -0.237509 -3.93484 0
M  V30 6342 H 583.94 0.161326 -5.08544 0
M  V30 6343 H 583.338 3.30399 -4.59188 0
M  V30 6344 H 581.894 3.48826 -5.50603 0
M  V30 6345 N 585.328 1.53329 -0.364422 0
M  V30 6346 C 586.291 2.24323 0.470292 0
M  V30 6347 C 587.291 1.25068 1.01067 0
M  V30 6348 O 588.481 1.49354 0.896605 0
M  V30 6349 C 585.613 2.97908 1.65722 0
M  V30 6350 H 586.806 2.9952 -0.150917 0
M  V30 6351 H 584.359 1.55868 -0.116092 0
M  V30 6352 H 585.094 2.2695 2.31655 0
M  V30 6353 H 584.879 3.70732 1.27671 0
M  V30 6354 H 586.369 3.5188 2.24878 0
M  V30 6355 N 586.806 0.0935595 1.57322 0
M  V30 6356 C 588.054 -0.569383 1.93913 0
M  V30 6357 C 588.375 -1.68817 0.976009 0
M  V30 6358 O 587.645 -1.9588 0.0278099 0
M  V30 6359 H 586.225 -0.21332 0.715894 0
M  V30 6360 H 588.887 0.156531 1.9427 0
M  V30 6361 H 587.983 -0.980577 2.96296 0
M  V30 6362 N 588.284 -1.56567 -0.180126 0
M  V30 6363 C 589.532 -1.81133 -0.896392 0
M  V30 6364 C 589.853 -0.669114 -1.83161 0
M  V30 6365 O 589.123 0.311616 -1.93406 0
M  V30 6366 H 587.703 -0.668172 -0.333999 0
M  V30 6367 H 590.365 -1.94048 -0.182051 0
M  V30 6368 H 589.461 -2.74854 -1.47857 0
M  V30 6369 N 589.762 0.448376 -1.51087 0
M  V30 6370 C 591.039 1.20926 -1.53741 0
M  V30 6371 C 591.419 2.09025 -0.295222 0
M  V30 6372 O 590.767 2.16851 0.720283 0
M  V30 6373 C 590.977 2.02067 -2.84552 0
M  V30 6374 C 592.325 2.59486 -3.36084 0
M  V30 6375 O 593.349 2.12289 -2.86028 0
M  V30 6376 O 592.208 3.45539 -4.23397 0
M  V30 6377 H 589.302 0.549951 -0.617643 0
M  V30 6378 H 591.848 0.458344 -1.63393 0
M  V30 6379 H 590.62 1.37291 -3.66425 0
M  V30 6380 H 590.243 2.84246 -2.78011 0
M  V30 6381 N 591.24 1.41047 0.703093 0
M  V30 6382 C 592.188 1.42494 1.83843 0
M  V30 6383 C 593.182 0.303885 1.66652 0
M  V30 6384 O 594.388 0.475544 1.73605 0
M  V30 6385 H 590.763 0.445685 0.605697 0
M  V30 6386 H 592.734 2.38194 1.79739 0
M  V30 6387 C 591.483 1.31666 3.21807 0
M  V30 6388 H 590.806 2.17212 3.35647 0
M  V30 6389 H 592.246 1.36738 4.01346 0
M  V30 6390 C 590.705 0.0281828 3.36888 0
M  V30 6391 O 591.235 -0.929995 3.90786 0
M  V30 6392 N 589.441 -0.0454322 2.90564 0
M  V30 6393 H 588.988 0.735046 2.4689 0
M  V30 6394 H 588.946 -0.906968 3.01034 0
M  V30 6395 N 592.718 -0.936591 1.26751 0
M  V30 6396 C 593.943 -1.72288 1.15462 0
M  V30 6397 C 594.368 -1.85915 -0.285887 0
M  V30 6398 O 593.726 -1.35272 -1.20711 0
M  V30 6399 C 593.774 -3.10503 1.83359 0
M  V30 6400 O 592.878 -3.96745 1.1255 0
M  V30 6401 H 592.219 -0.52843 0.402067 0
M  V30 6402 H 594.749 -1.17271 1.67656 0
M  V30 6403 H 594.759 -3.60867 1.90365 0
M  V30 6404 H 593.434 -2.99901 2.88153 0
M  V30 6405 H 592.011 -3.55191 1.13551 0
M  V30 6406 N 594.196 -1.08629 -1.14182 0
M  V30 6407 C 595.421 -0.83902 -1.89671 0
M  V30 6408 C 595.846 0.603332 -1.78161 0
M  V30 6409 O 595.204 1.42301 -1.12339 0
M  V30 6410 C 595.252 -1.26854 -3.37551 0
M  V30 6411 O 594.356 -0.42188 -4.10236 0
M  V30 6412 H 593.697 -0.304545 -0.590041 0
M  V30 6413 H 596.227 -1.4483 -1.44518 0
M  V30 6414 H 596.237 -1.25038 -3.88368 0
M  V30 6415 H 594.912 -2.31901 -3.45246 0
M  V30 6416 H 593.489 -0.503654 -3.69483 0
M  V30 6417 N 595.674 1.31259 -0.872281 0
M  V30 6418 C 596.92 1.96913 -0.485083 0
M  V30 6419 C 597.253 1.68774 0.960667 0
M  V30 6420 O 596.528 0.985495 1.67685 0
M  V30 6421 C 596.811 3.52299 -0.745502 0
M  V30 6422 C 596.664 3.90002 -2.24095 0
M  V30 6423 C 597.983 4.39582 -0.213516 0
M  V30 6424 H 595.102 0.715252 -0.177716 0
M  V30 6425 H 597.744 1.55347 -1.09395 0
M  V30 6426 H 595.894 3.87835 -0.227276 0
M  V30 6427 H 597.566 3.64555 -2.82661 0
M  V30 6428 H 595.809 3.38526 -2.71261 0
M  V30 6429 H 596.48 4.98352 -2.37381 0
M  V30 6430 H 598.956 4.10882 -0.656902 0
M  V30 6431 H 597.832 5.47251 -0.42516 0
M  V30 6432 H 598.093 4.33158 0.884666 0
M  V30 6433 N 597.152 0.631951 1.44375 0
M  V30 6434 C 598.084 -0.110911 2.28931 0
M  V30 6435 C 599.097 -0.808086 1.41329 0
M  V30 6436 O 600.286 -0.669396 1.65473 0
M  V30 6437 C 597.386 -1.17928 3.1772 0
M  V30 6438 C 596.559 -0.564458 4.33743 0
M  V30 6439 C 595.618 -1.5269 5.0356 0
M  V30 6440 O 594.644 -1.04372 5.59549 0
M  V30 6441 N 595.846 -2.86123 5.05088 0
M  V30 6442 H 598.611 0.614758 2.93327 0
M  V30 6443 H 596.172 0.473171 1.54831 0
M  V30 6444 H 598.164 -1.82348 3.61291 0
M  V30 6445 H 596.734 -1.80717 2.55069 0
M  V30 6446 H 595.954 0.258373 3.93352 0
M  V30 6447 H 597.242 -0.134355 5.08623 0
M  V30 6448 H 596.64 -3.27959 4.60933 0
M  V30 6449 H 595.197 -3.45901 5.52445 0
M  V30 6450 N 598.631 -1.53133 0.372548 0
M  V30 6451 C 599.579 -2.27473 -0.485681 0
M  V30 6452 C 600.573 -1.30719 -1.07745 0
M  V30 6453 O 601.779 -1.48321 -1.01985 0
M  V30 6454 H 598.154 -0.731269 -0.175356 0
M  V30 6455 H 600.125 -2.97955 0.162986 0
M  V30 6456 C 598.874 -3.08191 -1.60978 0
M  V30 6457 H 598.197 -3.82488 -1.16373 0
M  V30 6458 H 599.637 -3.63373 -2.18485 0
M  V30 6459 C 598.096 -2.19461 -2.55614 0
M  V30 6460 O 598.626 -1.81008 -3.58607 0
M  V30 6461 N 596.832 -1.83955 -2.24965 0
M  V30 6462 H 596.379 -2.15423 -1.41247 0
M  V30 6463 H 596.337 -1.24874 -2.88538 0
M  V30 6464 N 600.109 -0.101901 -1.5727 0
M  V30 6465 C 601.525 0.254739 -1.57554 0
M  V30 6466 C 601.725 1.67937 -1.11352 0
M  V30 6467 O 600.781 2.39722 -0.793081 0
M  V30 6468 C 602.094 0.036975 -3.00677 0
M  V30 6469 C 603.642 0.104199 -3.12827 0
M  V30 6470 C 604.117 -0.0856565 -4.5792 0
M  V30 6471 N 605.608 -0.0310498 -4.6319 0
M  V30 6472 C 606.343 -0.153099 -5.73196 0
M  V30 6473 N 605.839 -0.330364 -6.92012 0
M  V30 6474 N 607.632 -0.0938854 -5.62022 0
M  V30 6475 H 599.783 -1.03263 -1.85609 0
M  V30 6476 H 602.046 -0.405251 -0.857016 0
M  V30 6477 H 601.752 -0.947254 -3.38703 0
M  V30 6478 H 601.626 0.776335 -3.69124 0
M  V30 6479 H 604.013 1.07894 -2.74669 0
M  V30 6480 H 604.094 -0.666762 -2.46957 0
M  V30 6481 H 603.738 -1.05729 -4.96773 0
M  V30 6482 H 603.668 0.705082 -5.21858 0
M  V30 6483 H 606.159 0.103141 -3.77759 0
M  V30 6484 H 606.472 -0.41482 -7.71686 0
M  V30 6485 H 604.817 -0.366119 -6.94035 0
M  V30 6486 H 608.008 0.0435168 -4.6808 0
M  V30 6487 H 608.181 -0.19245 -6.47714 0
M  V30 6488 N 601.587 1.56661 0.17182 0
M  V30 6489 C 602.815 1.861 0.904115 0
M  V30 6490 C 603.23 0.687227 1.75848 0
M  V30 6491 O 602.587 -0.343671 1.79235 0
M  V30 6492 C 602.638 3.14568 1.78127 0
M  V30 6493 O 602.359 4.27422 0.961366 0
M  V30 6494 C 603.86 3.5735 2.62327 0
M  V30 6495 H 601.08 0.617445 0.262684 0
M  V30 6496 H 603.624 2.03775 0.172068 0
M  V30 6497 H 601.779 2.98721 2.46666 0
M  V30 6498 H 602.193 5.00725 1.56123 0
M  V30 6499 H 603.667 4.50144 3.1949 0
M  V30 6500 H 604.144 2.81445 3.37173 0
M  V30 6501 H 604.75 3.75807 1.99121 0
M  V30 6502 N 603.065 -0.440357 1.51323 0
M  V30 6503 C 604.295 -1.21079 1.67402 0
M  V30 6504 C 604.703 -1.85555 0.369599 0
M  V30 6505 O 604.046 -1.71375 -0.661525 0
M  V30 6506 C 604.108 -2.33839 2.73056 0
M  V30 6507 C 603.772 -1.89755 4.15743 0
M  V30 6508 C 604.769 -1.40268 5.0062 0
M  V30 6509 C 602.454 -1.97539 4.61826 0
M  V30 6510 C 604.448 -0.991474 6.29642 0
M  V30 6511 C 602.135 -1.56029 5.90845 0
M  V30 6512 C 603.133 -1.06915 6.7458 0
M  V30 6513 O 602.821 -0.659933 8.01187 0
M  V30 6514 H 602.553 -0.371133 0.56501 0
M  V30 6515 H 605.107 -0.528409 1.98487 0
M  V30 6516 H 603.337 -3.05345 2.37279 0
M  V30 6517 H 605.026 -2.95713 2.78044 0
M  V30 6518 H 605.792 -1.33652 4.66221 0
M  V30 6519 H 601.671 -2.34713 3.96776 0
M  V30 6520 H 605.215 -0.607425 6.9495 0
M  V30 6521 H 601.112 -1.62315 6.24759 0
M  V30 6522 H 601.88 -0.786052 8.14717 0
M  V30 6523 N 604.543 -1.41418 -0.695603 0
M  V30 6524 C 605.792 -1.40073 -1.4513 0
M  V30 6525 C 606.105 -0.0130439 -1.95596 0
M  V30 6526 O 607.311 0.123032 -2.71221 0
M  V30 6527 C 605.767 -2.46286 -2.62433 0
M  V30 6528 C 605.375 -3.90962 -2.18753 0
M  V30 6529 C 607.119 -2.54077 -3.40066 0
M  V30 6530 C 605.026 -4.88728 -3.33015 0
M  V30 6531 H 603.956 -0.520903 -0.545138 0
M  V30 6532 H 606.607 -1.67242 -0.75515 0
M  V30 6533 H 604.989 -2.12248 -3.34315 0
M  V30 6534 H 606.163 -4.34248 -1.54161 0
M  V30 6535 H 604.478 -3.86831 -1.54114 0
M  V30 6536 H 607.075 -3.24303 -4.25125 0
M  V30 6537 H 607.418 -1.5776 -3.8525 0
M  V30 6538 H 607.951 -2.87206 -2.75241 0
M  V30 6539 H 604.69 -5.86449 -2.92844 0
M  V30 6540 H 604.21 -4.50091 -3.96457 0
M  V30 6541 H 605.889 -5.09483 -3.98793 0
M  V30 6542 N 606.021 0.929856 -1.27246 0
M  V30 6543 C 607.267 1.6798 -1.13625 0
M  V30 6544 C 607.6 1.91586 0.317589 0
M  V30 6545 O 606.875 1.50467 1.23247 0
M  V30 6546 C 607.158 3.04766 -1.91806 0
M  V30 6547 C 607.011 2.88415 -3.45162 0
M  V30 6548 C 608.33 4.05063 -1.72082 0
M  V30 6549 H 605.449 0.609632 -0.414147 0
M  V30 6550 H 608.091 1.0792 -1.56376 0
M  V30 6551 H 606.241 3.56034 -1.55474 0
M  V30 6552 H 607.913 2.44282 -3.91311 0
M  V30 6553 H 606.156 2.23802 -3.71611 0
M  V30 6554 H 606.827 3.85482 -3.95105 0
M  V30 6555 H 609.303 3.62798 -2.03757 0
M  V30 6556 H 608.179 4.98765 -2.29182 0
M  V30 6557 H 608.44 4.37021 -0.668206 0
M  V30 6558 N 607.499 1.09233 1.13605 0
M  V30 6559 C 608.727 0.848908 1.88683 0
M  V30 6560 C 609.142 -0.599667 1.79024 0
M  V30 6561 O 608.499 -1.41265 1.15544 0
M  V30 6562 C 608.55 1.27273 3.38355 0
M  V30 6563 O 608.271 2.66449 3.47759 0
M  V30 6564 C 609.772 1.0614 4.30406 0
M  V30 6565 H 606.992 0.305549 0.597395 0
M  V30 6566 H 609.536 1.4538 1.43823 0
M  V30 6567 H 607.691 0.711776 3.80805 0
M  V30 6568 H 608.105 2.84264 4.40788 0
M  V30 6569 H 609.579 1.40725 5.33761 0
M  V30 6570 H 610.056 -0.000960332 4.392 0
M  V30 6571 H 610.662 1.60821 3.93722 0
M  V30 6572 N 608.977 -1.30795 0.87923 0
M  V30 6573 C 610.205 -2.00527 0.509548 0
M  V30 6574 C 610.62 -1.65944 -0.90045 0
M  V30 6575 O 609.977 -0.893525 -1.5913 0
M  V30 6576 C 610.028 -3.55276 0.667943 0
M  V30 6577 O 609.749 -3.88625 2.02242 0
M  V30 6578 C 611.25 -4.4228 0.300494 0
M  V30 6579 H 608.47 -0.641261 0.197549 0
M  V30 6580 H 611.014 -1.66813 1.18295 0
M  V30 6581 H 609.169 -3.87377 0.0419843 0
M  V30 6582 H 609.583 -4.83334 2.03688 0
M  V30 6583 H 611.057 -5.50061 0.462242 0
M  V30 6584 H 611.534 -4.32556 -0.76106 0
M  V30 6585 H 612.14 -4.15613 0.902536 0
M  V30 6586 N 610.455 -0.639598 -1.44038 0
M  V30 6587 C 611.704 -0.144885 -2.01179 0
M  V30 6588 C 612.017 1.24372 -1.50967 0
M  V30 6589 O 613.223 1.83291 -2.00292 0
M  V30 6590 C 611.679 -0.208244 -3.59297 0
M  V30 6591 C 611.287 -1.59869 -4.18504 0
M  V30 6592 C 613.031 0.229568 -4.23879 0
M  V30 6593 C 610.938 -1.61671 -5.68873 0
M  V30 6594 H 609.868 -0.0504005 -0.752314 0
M  V30 6595 H 612.519 -0.799639 -1.65161 0
M  V30 6596 H 610.901 0.513767 -3.92653 0
M  V30 6597 H 612.075 -2.34496 -3.96671 0
M  V30 6598 H 610.39 -1.98131 -3.66242 0
M  V30 6599 H 612.987 0.235758 -5.3418 0
M  V30 6600 H 613.33 1.25848 -3.96822 0
M  V30 6601 H 613.863 -0.440233 -3.95357 0
M  V30 6602 H 610.602 -2.62427 -6.00677 0
M  V30 6603 H 610.122 -0.913489 -5.92803 0
M  V30 6604 H 611.801 -1.35439 -6.32665 0
M  V30 6605 N 611.933 1.52934 -0.380664 0
M  V30 6606 C 612.863 2.29118 0.450268 0
M  V30 6607 C 613.844 1.32153 1.07096 0
M  V30 6608 O 615.029 1.61038 1.08537 0
M  V30 6609 C 612.159 3.09161 1.58231 0
M  V30 6610 C 611.113 4.13938 1.0881 0
M  V30 6611 C 610.439 4.82153 2.31155 0
M  V30 6612 C 611.739 5.22048 0.162146 0
M  V30 6613 H 613.433 2.98826 -0.185361 0
M  V30 6614 H 610.979 1.43715 -0.0905886 0
M  V30 6615 H 612.932 3.61211 2.17036 0
M  V30 6616 H 611.656 2.3717 2.2454 0
M  V30 6617 H 610.315 3.62855 0.522633 0
M  V30 6618 H 609.963 4.06719 2.95953 0
M  V30 6619 H 609.663 5.52966 1.98752 0
M  V30 6620 H 611.187 5.37004 2.90618 0
M  V30 6621 H 612.601 5.6951 0.658126 0
M  V30 6622 H 610.998 6.00057 -0.0717122 0
M  V30 6623 H 612.068 4.78398 -0.791438 0
M  V30 6624 N 613.412 0.11024 1.57214 0
M  V30 6625 C 614.322 -0.857077 2.18383 0
M  V30 6626 C 615.338 -1.29915 1.1575 0
M  V30 6627 O 616.514 -1.36394 1.48184 0
M  V30 6628 C 613.579 -2.09264 2.76423 0
M  V30 6629 C 612.64 -1.70333 3.94063 0
M  V30 6630 C 611.873 -2.87999 4.49324 0
M  V30 6631 O 612.096 -4.0317 4.03497 0
M  V30 6632 O 611.03 -2.6559 5.40135 0
M  V30 6633 H 614.856 -0.366561 3.0148 0
M  V30 6634 H 612.441 -0.114914 1.48957 0
M  V30 6635 H 614.323 -2.81644 3.13456 0
M  V30 6636 H 612.998 -2.57339 1.96363 0
M  V30 6637 H 611.905 -0.950864 3.61814 0
M  V30 6638 H 613.238 -1.27007 4.75531 0
M  V30 6639 N 614.89 -1.56749 -0.16351 0
M  V30 6640 C 616.167 -1.73321 -0.906599 0
M  V30 6641 C 616.547 -0.673779 -2.00059 0
M  V30 6642 O 615.895 0.310121 -2.26386 0
M  V30 6643 C 616.105 -3.168 -1.46419 0
M  V30 6644 C 617.453 -3.77993 -1.93407 0
M  V30 6645 O 618.477 -3.20127 -1.56196 0
M  V30 6646 O 617.336 -4.79615 -2.61976 0
M  V30 6647 H 614.43 -0.708073 -0.427272 0
M  V30 6648 H 616.976 -1.69029 -0.150727 0
M  V30 6649 H 615.748 -3.85396 -0.677189 0
M  V30 6650 H 615.371 -3.2545 -2.28403 0
M  V30 6651 N 616.368 0.432326 -1.51554 0
M  V30 6652 C 617.779 1.01202 -1.56892 0
M  V30 6653 C 618.13 1.92175 -0.395394 0
M  V30 6654 O 617.255 2.10844 0.487198 0
M  V30 6655 C 617.85 1.84217 -2.8434 0
M  V30 6656 C 616.409 2.37228 -2.92233 0
M  V30 6657 C 615.556 1.16576 -2.51606 0
M  V30 6658 H 618.507 0.213407 -1.57259 0
M  V30 6659 H 618.528 2.69721 -2.68385 0
M  V30 6660 H 618.04 1.17979 -3.69733 0
M  V30 6661 H 616.141 3.06905 -2.11282 0
M  V30 6662 H 616.254 2.69682 -3.95991 0
M  V30 6663 H 614.618 1.51263 -2.04919 0
M  V30 6664 H 615.401 0.519404 -3.39348 0
M  V30 6665 N 617.846 1.41785 0.688094 0
M  V30 6666 C 619.076 1.44705 1.47459 0
M  V30 6667 C 619.484 0.052916 1.89126 0
M  V30 6668 O 618.827 -0.939781 1.57841 0
M  V30 6669 C 618.889 2.29935 2.76352 0
M  V30 6670 C 618.553 3.77996 2.56843 0
M  V30 6671 C 619.55 4.69976 2.22304 0
M  V30 6672 C 617.235 4.2212 2.7225 0
M  V30 6673 C 619.229 6.04068 2.03421 0
M  V30 6674 C 616.916 5.56275 2.52985 0
M  V30 6675 C 617.914 6.47065 2.18621 0
M  V30 6676 O 617.602 7.78744 1.9953 0
M  V30 6677 H 617.334 0.494703 0.460701 0
M  V30 6678 H 619.888 1.86802 0.854057 0
M  V30 6679 H 618.118 1.82664 3.40839 0
M  V30 6680 H 619.807 2.24467 3.38186 0
M  V30 6681 H 620.573 4.37175 2.10008 0
M  V30 6682 H 616.452 3.51752 2.97979 0
M  V30 6683 H 619.996 6.74897 1.76523 0
M  V30 6684 H 615.893 5.88653 2.64873 0
M  V30 6685 H 616.661 7.89966 2.14234 0
M  V30 6686 N 619.324 -0.923095 1.27737 0
M  V30 6687 C 620.57 -1.67375 1.14514 0
M  V30 6688 C 620.903 -1.91751 -0.307424 0
M  V30 6689 O 620.178 -1.51119 -1.22447 0
M  V30 6690 C 620.461 -3.03745 1.9342 0
M  V30 6691 C 620.314 -2.86581 3.46686 0
M  V30 6692 C 621.633 -4.04144 1.74228 0
M  V30 6693 H 618.752 -0.607427 0.417374 0
M  V30 6694 H 621.394 -1.07089 1.56946 0
M  V30 6695 H 619.544 -3.55204 1.5736 0
M  V30 6696 H 621.216 -2.42203 3.92601 0
M  V30 6697 H 619.459 -2.21829 3.72793 0
M  V30 6698 H 620.13 -3.83381 3.97143 0
M  V30 6699 H 622.606 -3.61712 2.05678 0
M  V30 6700 H 621.482 -4.97543 2.31824 0
M  V30 6701 H 621.743 -4.36661 0.691373 0
M  V30 6702 N 620.802 -1.09834 -1.13024 0
M  V30 6703 C 621.735 -0.685453 -2.17662 0
M  V30 6704 C 622.713 0.310142 -1.59615 0
M  V30 6705 O 623.897 0.21052 -1.87321 0
M  V30 6706 C 621.024 -0.0104476 -3.38698 0
M  V30 6707 C 620.07 -0.968522 -4.15358 0
M  V30 6708 S 620.903 -2.48272 -4.74469 0
M  V30 6709 C 622.059 -1.82025 -5.98847 0
M  V30 6710 H 622.292 -1.57187 -2.52348 0
M  V30 6711 H 619.825 -0.914728 -1.24387 0
M  V30 6712 H 621.783 0.372694 -4.08805 0
M  V30 6713 H 620.444 0.852673 -3.02305 0
M  V30 6714 H 619.637 -0.443373 -5.02046 0
M  V30 6715 H 619.239 -1.29327 -3.50928 0
M  V30 6716 H 621.531 -1.14678 -6.67724 0
M  V30 6717 H 622.474 -2.66645 -6.55977 0
M  V30 6718 H 622.882 -1.2874 -5.49624 0
M  V30 6719 N 622.28 1.30327 -0.886154 0
M  V30 6720 C 623.21 2.30549 -0.370028 0
M  V30 6721 C 624.191 1.61039 0.547751 0
M  V30 6722 O 625.376 1.8864 0.461353 0
M  V30 6723 C 622.506 3.44808 0.415275 0
M  V30 6724 C 621.46 4.26024 -0.41085 0
M  V30 6725 C 620.786 5.32347 0.501128 0
M  V30 6726 C 622.086 4.95433 -1.65359 0
M  V30 6727 H 623.78 2.73969 -1.20754 0
M  V30 6728 H 621.326 1.3171 -0.582097 0
M  V30 6729 H 623.279 4.13986 0.78699 0
M  V30 6730 H 622.003 3.00197 1.28644 0
M  V30 6731 H 620.662 3.58535 -0.764719 0
M  V30 6732 H 620.31 4.83982 1.37004 0
M  V30 6733 H 620.01 5.87581 -0.0478356 0
M  V30 6734 H 621.534 6.0438 0.869333 0
M  V30 6735 H 622.948 5.5712 -1.35239 0
M  V30 6736 H 621.345 5.60537 -2.14284 0
M  V30 6737 H 622.415 4.21493 -2.39733 0
M  V30 6738 N 623.758 0.647228 1.43697 0
M  V30 6739 C 624.705 -0.0480092 2.3075 0
M  V30 6740 C 625.675 -0.820705 1.44408 0
M  V30 6741 O 626.86 -0.798515 1.73287 0
M  V30 6742 C 624 -1.01259 3.2991 0
M  V30 6743 C 623.113 -0.236629 4.31351 0
M  V30 6744 C 622.248 -1.19447 5.17596 0
M  V30 6745 C 621.287 -0.408595 6.10735 0
M  V30 6746 N 620.424 -1.31772 6.89623 0
M  V30 6747 H 625.264 0.700238 2.89656 0
M  V30 6748 H 622.801 0.357082 1.427 0
M  V30 6749 H 624.759 -1.58538 3.85903 0
M  V30 6750 H 623.389 -1.72778 2.72667 0
M  V30 6751 H 622.441 0.452353 3.77701 0
M  V30 6752 H 623.753 0.374731 4.9739 0
M  V30 6753 H 622.907 -1.83809 5.78186 0
M  V30 6754 H 621.646 -1.83975 4.51669 0
M  V30 6755 H 620.651 0.24841 5.49239 0
M  V30 6756 H 621.876 0.232188 6.78703 0
M  V30 6757 H 619.822 -1.94991 6.2635 0
M  V30 6758 H 619.739 -0.760779 7.52162 0
M  V30 6759 H 621.007 -1.94967 7.54724 0
M  V30 6760 N 625.236 -1.5273 0.388769 0
M  V30 6761 C 626.183 -2.26437 -0.446639 0
M  V30 6762 C 627.153 -1.28025 -1.05824 0
M  V30 6763 O 628.338 -1.56852 -1.08637 0
M  V30 6764 C 625.478 -3.07407 -1.56828 0
M  V30 6765 C 624.591 -4.20747 -0.979589 0
M  V30 6766 C 623.726 -4.89113 -2.07224 0
M  V30 6767 C 622.765 -5.94447 -1.45942 0
M  V30 6768 N 621.902 -6.56411 -2.49135 0
M  V30 6769 H 626.742 -2.97404 0.18837 0
M  V30 6770 H 624.279 -1.46727 0.104725 0
M  V30 6771 H 626.237 -3.52642 -2.22934 0
M  V30 6772 H 624.867 -2.3865 -2.17361 0
M  V30 6773 H 623.919 -3.7983 -0.208151 0
M  V30 6774 H 625.231 -4.9637 -0.491747 0
M  V30 6775 H 624.385 -5.3765 -2.81101 0
M  V30 6776 H 623.124 -4.13013 -2.59368 0
M  V30 6777 H 622.129 -5.4525 -0.705894 0
M  V30 6778 H 623.354 -6.7248 -0.945932 0
M  V30 6779 H 621.3 -5.83152 -3.00449 0
M  V30 6780 H 621.217 -7.27645 -2.05105 0
M  V30 6781 H 622.485 -7.09592 -3.22644 0
M  V30 6782 N 626.714 -0.118576 -1.57153 0
M  V30 6783 C 627.662 0.849114 -2.16547 0
M  V30 6784 C 628.656 1.27567 -1.11458 0
M  V30 6785 O 629.862 1.24746 -1.29763 0
M  V30 6786 H 626.237 0.291935 -0.693021 0
M  V30 6787 H 628.208 0.323693 -2.96639 0
M  V30 6788 C 626.957 2.08951 -2.77912 0
M  V30 6789 H 626.28 1.77021 -3.58474 0
M  V30 6790 H 627.72 2.74666 -3.23008 0
M  V30 6791 C 626.179 2.87899 -1.74974 0
M  V30 6792 O 626.709 3.83268 -1.20285 0
M  V30 6793 N 624.915 2.51884 -1.44924 0
M  V30 6794 H 624.462 1.74397 -1.89587 0
M  V30 6795 H 624.42 3.05003 -0.762921 0
M  V30 6796 N 628.193 1.56834 0.155195 0
M  V30 6797 C 629.156 1.96748 1.17571 0
M  V30 6798 C 630.156 0.853006 1.3631 0
M  V30 6799 O 631.346 1.11978 1.33441 0
M  V30 6800 C 628.478 2.27631 2.53765 0
M  V30 6801 H 629.671 2.88085 0.833498 0
M  V30 6802 H 627.224 1.51141 0.398242 0
M  V30 6803 H 627.959 1.39059 2.92973 0
M  V30 6804 H 627.744 3.0888 2.41527 0
M  V30 6805 H 629.234 2.59377 3.27282 0
M  V30 6806 N 629.671 -0.424282 1.51781 0
M  V30 6807 C 630.619 -1.53649 1.74628 0
M  V30 6808 C 631.613 -1.57923 0.612922 0
M  V30 6809 O 632.819 -1.61511 0.794618 0
M  V30 6810 H 629.194 -0.510706 0.551981 0
M  V30 6811 H 631.165 -1.31558 2.67834 0
M  V30 6812 C 629.914 -2.91177 1.9003 0
M  V30 6813 H 629.237 -2.88625 2.76651 0
M  V30 6814 H 630.677 -3.6833 2.10021 0
M  V30 6815 C 629.136 -3.30303 0.663435 0
M  V30 6816 O 629.666 -4.01315 -0.175812 0
M  V30 6817 N 627.872 -2.86201 0.503723 0
M  V30 6818 H 627.419 -2.28583 1.18776 0
M  V30 6819 H 627.377 -3.12741 -0.322575 0
M  V30 6820 N 631.149 -1.42148 -0.680565 0
M  V30 6821 C 632.081 -1.41119 -1.80605 0
M  V30 6822 C 633.094 -0.311099 -1.598 0
M  V30 6823 O 634.283 -0.573813 -1.69026 0
M  V30 6824 C 631.383 -1.18204 -3.17618 0
M  V30 6825 C 630.556 -2.40537 -3.65322 0
M  V30 6826 C 629.615 -2.13254 -4.8105 0
M  V30 6827 O 628.641 -2.8641 -4.91892 0
M  V30 6828 N 629.843 -1.13208 -5.69354 0
M  V30 6829 H 632.608 -2.38128 -1.81975 0
M  V30 6830 H 630.169 -1.36953 -0.863446 0
M  V30 6831 H 632.161 -0.97878 -3.92686 0
M  V30 6832 H 630.731 -0.29738 -3.11182 0
M  V30 6833 H 629.951 -2.76468 -2.80996 0
M  V30 6834 H 631.239 -3.22012 -3.93936 0
M  V30 6835 H 630.637 -0.526893 -5.63241 0
M  V30 6836 H 629.194 -0.988699 -6.44258 0
M  V30 6837 N 632.627 0.916307 -1.28225 0
M  V30 6838 C 633.874 1.66518 -1.1523 0
M  V30 6839 C 634.202 1.92178 0.299632 0
M  V30 6840 O 633.457 1.51842 1.2346 0
M  V30 6841 C 633.756 3.03125 -1.8934 0
M  V30 6842 C 633.422 2.97135 -3.39148 0
M  V30 6843 C 632.084 2.95208 -3.80007 0
M  V30 6844 C 634.436 2.87574 -4.34685 0
M  V30 6845 C 631.764 2.81518 -5.14747 0
M  V30 6846 C 634.116 2.75424 -5.69495 0
M  V30 6847 C 632.78 2.71854 -6.09632 0
M  V30 6848 H 632.05 0.609334 -0.421655 0
M  V30 6849 H 634.697 1.06776 -1.58969 0
M  V30 6850 H 633.002 3.66639 -1.38143 0
M  V30 6851 H 634.699 3.59968 -1.76704 0
M  V30 6852 H 631.289 2.99428 -3.06661 0
M  V30 6853 H 635.473 2.88152 -4.04082 0
M  V30 6854 H 630.729 2.77148 -5.44976 0
M  V30 6855 H 634.903 2.66993 -6.43185 0
M  V30 6856 H 632.53 2.61003 -7.1399 0
M  V30 6857 N 634.105 1.10431 1.1244 0
M  V30 6858 C 635.015 0.765502 2.21759 0
M  V30 6859 C 636.031 -0.236966 1.72379 0
M  V30 6860 O 637.207 -0.0757329 2.01258 0
M  V30 6861 C 634.272 0.202316 3.46109 0
M  V30 6862 C 633.333 1.26205 4.1033 0
M  V30 6863 C 632.566 0.725648 5.28744 0
M  V30 6864 O 632.789 -0.447942 5.68638 0
M  V30 6865 O 631.723 1.48555 5.83279 0
M  V30 6866 H 635.549 1.67801 2.53133 0
M  V30 6867 H 633.134 0.879443 1.20773 0
M  V30 6868 H 635.016 -0.107918 4.21262 0
M  V30 6869 H 633.691 -0.683052 3.16411 0
M  V30 6870 H 632.598 1.62514 3.36957 0
M  V30 6871 H 633.931 2.12044 4.44183 0
M  V30 6872 N 635.583 -1.29855 0.893053 0
M  V30 6873 C 636.831 -1.9544 0.514566 0
M  V30 6874 C 637.152 -1.70795 -0.940959 0
M  V30 6875 O 636.422 -1.03601 -1.66264 0
M  V30 6876 H 635.002 -0.723137 0.187302 0
M  V30 6877 H 637.664 -1.58234 1.13789 0
M  V30 6878 H 636.76 -3.04341 0.691581 0
M  V30 6879 N 637.061 -0.65484 -1.43351 0
M  V30 6880 C 638.009 0.0476784 -2.32551 0
M  V30 6881 C 639.003 0.811403 -1.48703 0
M  V30 6882 O 640.209 0.721621 -1.64902 0
M  V30 6883 H 636.584 0.0342038 -0.751222 0
M  V30 6884 H 638.555 -0.722342 -2.89525 0
M  V30 6885 C 637.304 0.999251 -3.33032 0
M  V30 6886 H 636.627 0.421005 -3.97577 0
M  V30 6887 H 638.067 1.45986 -3.98076 0
M  V30 6888 C 636.526 2.09606 -2.63756 0
M  V30 6889 O 637.056 3.18004 -2.4543 0
M  V30 6890 N 635.262 1.86207 -2.23103 0
M  V30 6891 H 634.809 0.980555 -2.38208 0
M  V30 6892 H 634.767 2.59787 -1.77081 0
M  V30 6893 N 638.539 1.52521 -0.396863 0
M  V30 6894 C 639.816 1.94112 0.240842 0
M  V30 6895 C 640.196 1.33288 1.637 0
M  V30 6896 O 639.544 0.503901 2.22875 0
M  V30 6897 C 639.754 3.48033 0.259567 0
M  V30 6898 C 641.102 4.21822 0.484866 0
M  V30 6899 O 642.126 3.54579 0.339453 0
M  V30 6900 O 640.985 5.41042 0.770412 0
M  V30 6901 H 638.079 0.812973 0.151671 0
M  V30 6902 H 640.625 1.63572 -0.451918 0
M  V30 6903 H 639.397 3.84655 -0.718078 0
M  V30 6904 H 639.02 3.84899 0.996937 0
M  V30 6905 N 640.017 0.126909 1.57088 0
M  V30 6906 C 641.433 -0.229641 1.57939 0
M  V30 6907 C 641.633 -1.66145 1.1401 0
M  V30 6908 O 640.689 -2.3843 0.831119 0
M  V30 6909 C 642.002 0.0108648 3.00698 0
M  V30 6910 C 643.55 -0.054418 3.12953 0
M  V30 6911 C 644.025 0.158497 4.57726 0
M  V30 6912 N 645.516 0.104735 4.63082 0
M  V30 6913 C 646.251 0.24427 5.72879 0
M  V30 6914 N 645.747 0.440415 6.91399 0
M  V30 6915 N 647.54 0.183286 5.61801 0
M  V30 6916 H 639.691 1.06203 1.83942 0
M  V30 6917 H 641.954 0.418834 0.85046 0
M  V30 6918 H 641.66 1.00102 3.37154 0
M  V30 6919 H 641.534 -0.717512 3.70313 0
M  V30 6920 H 643.921 -1.0351 2.7635 0
M  V30 6921 H 644.002 0.705967 2.45865 0
M  V30 6922 H 643.646 1.13619 4.95028 0
M  V30 6923 H 643.576 -0.62197 5.22914 0
M  V30 6924 H 646.067 -0.0430298 3.77876 0
M  V30 6925 H 646.38 0.537536 7.70928 0
M  V30 6926 H 644.725 0.476488 6.93365 0
M  V30 6927 H 647.916 0.0309561 4.6809 0
M  V30 6928 H 648.089 0.295471 6.47326 0
M  V30 6929 N 641.495 -1.56914 -0.146875 0
M  V30 6930 C 642.725 -1.87243 -0.873126 0
M  V30 6931 C 643.133 -0.713127 -1.75246 0
M  V30 6932 O 642.476 0.326228 -1.8078 0
M  V30 6933 C 642.538 -3.12279 -1.78107 0
M  V30 6934 C 642.202 -4.44082 -1.07889 0
M  V30 6935 C 643.199 -5.18096 -0.432734 0
M  V30 6936 C 640.884 -4.90807 -1.06836 0
M  V30 6937 C 642.878 -6.37039 0.214569 0
M  V30 6938 C 640.565 -6.09674 -0.417243 0
M  V30 6939 C 641.563 -6.82636 0.223093 0
M  V30 6940 O 641.251 -7.99245 0.863884 0
M  V30 6941 H 640.983 -0.624896 -0.257839 0
M  V30 6942 H 643.537 -2.04892 -0.14434 0
M  V30 6943 H 641.767 -2.90639 -2.5508 0
M  V30 6944 H 643.456 -3.28854 -2.37929 0
M  V30 6945 H 644.222 -4.83066 -0.432677 0
M  V30 6946 H 640.101 -4.3394 -1.55618 0
M  V30 6947 H 643.645 -6.93927 0.714965 0
M  V30 6948 H 639.542 -6.44165 -0.414967 0
M  V30 6949 H 640.31 -8.14912 0.765564 0
M  V30 6950 N 642.974 0.416227 -1.52004 0
M  V30 6951 C 643.884 1.53147 -1.77717 0
M  V30 6952 C 644.9 1.609 -0.662368 0
M  V30 6953 O 646.076 1.77747 -0.946991 0
M  V30 6954 C 643.141 2.88948 -1.91598 0
M  V30 6955 C 642.202 2.9114 -3.15493 0
M  V30 6956 C 641.435 4.20464 -3.28703 0
M  V30 6957 O 641.658 5.13981 -2.47345 0
M  V30 6958 O 640.592 4.29368 -4.21813 0
M  V30 6959 H 644.418 1.34357 -2.72363 0
M  V30 6960 H 642.003 0.601373 -1.36762 0
M  V30 6961 H 643.885 3.69505 -2.02593 0
M  V30 6962 H 642.56 3.07821 -1.00141 0
M  V30 6963 H 641.467 2.09461 -3.09962 0
M  V30 6964 H 642.8 2.77216 -4.06709 0
M  V30 6965 N 644.452 1.42507 0.673017 0
M  V30 6966 C 645.7 1.42789 1.43023 0
M  V30 6967 C 646.021 0.0459738 1.94946 0
M  V30 6968 O 645.291 -0.915765 1.73178 0
M  V30 6969 H 643.871 0.525657 0.530748 0
M  V30 6970 H 646.533 1.77944 0.795113 0
M  V30 6971 H 645.629 2.12872 2.28237 0
M  V30 6972 N 645.93 -0.909495 1.28709 0
M  V30 6973 C 647.16 -1.69027 1.188 0
M  V30 6974 C 647.568 -1.87469 -0.255329 0
M  V30 6975 O 646.911 -1.40458 -1.18394 0
M  V30 6976 C 646.973 -3.10064 1.81936 0
M  V30 6977 C 646.637 -3.14891 3.31199 0
M  V30 6978 C 647.634 -2.95768 4.27571 0
M  V30 6979 C 645.319 -3.37269 3.7223 0
M  V30 6980 C 647.313 -2.98942 5.6295 0
M  V30 6981 C 645 -3.40074 5.07733 0
M  V30 6982 C 645.998 -3.20932 6.02903 0
M  V30 6983 O 645.686 -3.23507 7.35934 0
M  V30 6984 H 645.418 -0.535014 0.413203 0
M  V30 6985 H 647.972 -1.14645 1.70428 0
M  V30 6986 H 646.202 -3.66005 1.24808 0
M  V30 6987 H 647.891 -3.70185 1.66486 0
M  V30 6988 H 648.657 -2.78302 3.97206 0
M  V30 6989 H 644.536 -3.51212 2.98615 0
M  V30 6990 H 648.08 -2.83919 6.37209 0
M  V30 6991 H 643.977 -3.5707 5.37747 0
M  V30 6992 H 644.745 -3.3984 7.44615 0
M  V30 6993 N 647.408 -1.11026 -1.11852 0
M  V30 6994 C 648.648 -0.866348 -1.85132 0
M  V30 6995 C 649.012 0.597236 -1.82475 0
M  V30 6996 O 650.213 0.957744 -2.51159 0
M  V30 6997 C 648.484 -1.40721 -3.28531 0
M  V30 6998 S 650.043 -1.29964 -4.19112 0
M  V30 6999 H 646.861 -0.312899 -0.638447 0
M  V30 7000 H 649.463 -1.41691 -1.34699 0
M  V30 7001 H 648.167 -2.46631 -3.28027 0
M  V30 7002 H 647.698 -0.85349 -3.8403 0
M  V30 7003 H 649.713 -0.261333 -4.95511 0
M  V30 7004 N 648.886 1.2938 -0.899927 0
M  V30 7005 C 650.132 1.9584 -0.526742 0
M  V30 7006 C 650.465 1.70774 0.924651 0
M  V30 7007 O 649.74 1.02084 1.65557 0
M  V30 7008 C 650.023 3.50638 -0.820062 0
M  V30 7009 C 649.876 3.85161 -2.32317 0
M  V30 7010 C 651.195 4.3903 -0.30671 0
M  V30 7011 H 648.314 0.711322 -0.192848 0
M  V30 7012 H 650.956 1.52992 -1.12665 0
M  V30 7013 H 649.106 3.87265 -0.309491 0
M  V30 7014 H 650.778 3.58477 -2.9033 0
M  V30 7015 H 649.021 3.32696 -2.78381 0
M  V30 7016 H 649.692 4.93204 -2.47898 0
M  V30 7017 H 652.168 4.09396 -0.743908 0
M  V30 7018 H 651.044 5.46226 -0.541144 0
M  V30 7019 H 651.305 4.34937 0.792588 0
M  V30 7020 N 650.364 0.662433 1.43002 0
M  V30 7021 C 651.274 -0.0239199 2.34588 0
M  V30 7022 C 652.29 -0.802255 1.54402 0
M  V30 7023 O 653.466 -0.747401 1.87018 0
M  V30 7024 C 650.531 -0.972098 3.32793 0
M  V30 7025 C 649.592 -0.189673 4.28881 0
M  V30 7026 C 648.825 -1.09269 5.22395 0
M  V30 7027 O 649.048 -2.33209 5.20547 0
M  V30 7028 O 647.982 -0.560136 5.99288 0
M  V30 7029 H 651.808 0.730171 2.94792 0
M  V30 7030 H 649.393 0.422635 1.43297 0
M  V30 7031 H 651.275 -1.51676 3.93157 0
M  V30 7032 H 649.95 -1.70626 2.75079 0
M  V30 7033 H 648.857 0.398794 3.71968 0
M  V30 7034 H 650.19 0.50511 4.89601 0
M  V30 7035 N 651.842 -1.52309 0.404946 0
M  V30 7036 C 652.772 -2.29805 -0.41376 0
M  V30 7037 C 653.753 -1.3384 -1.0498 0
M  V30 7038 O 654.938 -1.62745 -1.05961 0
M  V30 7039 C 652.068 -3.11639 -1.53292 0
M  V30 7040 C 651.022 -4.15616 -1.02211 0
M  V30 7041 C 650.348 -4.8577 -2.23455 0
M  V30 7042 C 651.648 -5.2224 -0.0790725 0
M  V30 7043 H 653.342 -2.98493 0.232878 0
M  V30 7044 H 650.888 -1.43552 0.113441 0
M  V30 7045 H 652.841 -3.64618 -2.11262 0
M  V30 7046 H 651.565 -2.40712 -2.20738 0
M  V30 7047 H 650.224 -3.63641 -0.46484 0
M  V30 7048 H 649.872 -4.11376 -2.89445 0
M  V30 7049 H 649.572 -5.56058 -1.89929 0
M  V30 7050 H 651.096 -5.4156 -2.82038 0
M  V30 7051 H 652.51 -5.70485 -0.567438 0
M  V30 7052 H 650.907 -5.99867 0.167167 0
M  V30 7053 H 651.977 -4.77078 0.867447 0
M  V30 7054 N 653.32 -0.135238 -1.57019 0
M  V30 7055 C 654.283 0.794707 -2.14981 0
M  V30 7056 C 655.283 1.18342 -1.08866 0
M  V30 7057 O 656.473 1.10627 -1.34563 0
M  V30 7058 C 653.605 2.07685 -2.70333 0
M  V30 7059 H 654.798 0.290696 -2.98488 0
M  V30 7060 H 652.351 0.114128 -1.55883 0
M  V30 7061 H 653.086 2.6248 -1.9046 0
M  V30 7062 H 652.871 1.80745 -3.47957 0
M  V30 7063 H 654.361 2.74127 -3.1503 0
M  V30 7064 N 654.798 1.5699 0.138552 0
M  V30 7065 C 655.761 1.97984 1.15478 0
M  V30 7066 C 656.761 0.867416 1.35398 0
M  V30 7067 O 657.951 1.13387 1.32246 0
M  V30 7068 C 655.083 2.3031 2.51337 0
M  V30 7069 H 656.276 2.88953 0.802896 0
M  V30 7070 H 653.829 1.51555 0.382189 0
M  V30 7071 H 654.564 1.42159 2.91481 0
M  V30 7072 H 654.349 3.11425 2.38237 0
M  V30 7073 H 655.839 2.62834 3.24512 0
M  V30 7074 N 656.276 -0.40816 1.52223 0
M  V30 7075 C 657.186 -1.52202 1.78526 0
M  V30 7076 C 658.202 -1.60546 0.670892 0
M  V30 7077 O 659.378 -1.77242 0.956404 0
M  V30 7078 C 656.443 -2.87928 1.93128 0
M  V30 7079 C 655.504 -2.89463 3.17033 0
M  V30 7080 C 654.737 -4.18715 3.30929 0
M  V30 7081 O 654.96 -5.12662 2.50067 0
M  V30 7082 O 653.894 -4.27125 4.24084 0
M  V30 7083 H 657.72 -1.32911 2.73072 0
M  V30 7084 H 655.305 -0.594112 1.37079 0
M  V30 7085 H 657.187 -3.68426 2.04549 0
M  V30 7086 H 655.862 -3.07285 1.01772 0
M  V30 7087 H 654.769 -2.07815 3.11069 0
M  V30 7088 H 656.102 -2.75055 4.08174 0
M  V30 7089 N 657.755 -1.42862 -0.66545 0
M  V30 7090 C 659.004 -1.43119 -1.42126 0
M  V30 7091 C 659.317 -0.0545297 -1.95524 0
M  V30 7092 O 660.523 0.0654747 -2.71421 0
M  V30 7093 C 658.979 -2.51797 -2.5715 0
M  V30 7094 C 658.587 -3.95514 -2.10411 0
M  V30 7095 C 660.331 -2.61233 -3.346 0
M  V30 7096 C 658.238 -4.95682 -3.22573 0
M  V30 7097 H 657.168 -0.532349 -0.533966 0
M  V30 7098 H 659.819 -1.68806 -0.719506 0
M  V30 7099 H 658.201 -2.19292 -3.29738 0
M  V30 7100 H 659.375 -4.3742 -1.44915 0
M  V30 7101 H 657.69 -3.90012 -1.45874 0
M  V30 7102 H 660.287 -3.33248 -4.18151 0
M  V30 7103 H 660.63 -1.65896 -3.81817 0
M  V30 7104 H 661.163 -2.9298 -2.69087 0
M  V30 7105 H 657.902 -5.92529 -2.80338 0
M  V30 7106 H 657.422 -4.58399 -3.86821 0
M  V30 7107 H 659.101 -5.17828 -3.87896 0
M  V30 7108 N 659.233 0.902656 -1.29189 0
M  V30 7109 C 660.196 1.98797 -1.14071 0
M  V30 7110 C 661.196 1.60615 -0.0770549 0
M  V30 7111 O 662.386 1.71165 -0.323753 0
M  V30 7112 C 659.518 3.32688 -0.743739 0
M  V30 7113 H 660.711 2.13637 -2.10473 0
M  V30 7114 H 658.264 1.08678 -1.12334 0
M  V30 7115 H 658.999 3.23549 0.220554 0
M  V30 7116 H 658.784 3.61765 -1.51223 0
M  V30 7117 H 660.274 4.12337 -0.660935 0
M  V30 7118 N 660.711 1.11618 1.11262 0
M  V30 7119 C 661.658 0.7762 2.17356 0
M  V30 7120 C 662.628 -0.253152 1.6416 0
M  V30 7121 O 663.813 -0.129655 1.90359 0
M  V30 7122 C 660.953 0.227581 3.44349 0
M  V30 7123 C 660.066 1.31372 4.1154 0
M  V30 7124 C 659.201 0.72544 5.26223 0
M  V30 7125 C 658.24 1.7913 5.85302 0
M  V30 7126 N 657.377 1.22237 6.91377 0
M  V30 7127 H 662.217 1.68508 2.45783 0
M  V30 7128 H 659.754 0.841475 1.20655 0
M  V30 7129 H 661.712 -0.108483 4.17059 0
M  V30 7130 H 660.342 -0.644486 3.16301 0
M  V30 7131 H 659.394 1.7667 3.36885 0
M  V30 7132 H 660.706 2.12005 4.51504 0
M  V30 7133 H 659.86 0.339541 6.05749 0
M  V30 7134 H 658.599 -0.112188 4.87571 0
M  V30 7135 H 657.604 2.18648 5.04453 0
M  V30 7136 H 658.829 2.63199 6.26022 0
M  V30 7137 H 656.775 0.406423 6.5474 0
M  V30 7138 H 656.692 1.9654 7.30006 0
M  V30 7139 H 657.96 0.863426 7.74703 0
M  V30 7140 N 662.189 -1.289 0.906776 0
M  V30 7141 C 663.139 -2.25122 0.361109 0
M  V30 7142 C 664.123 -1.52169 -0.52283 0
M  V30 7143 O 665.315 -1.73223 -0.363691 0
M  V30 7144 C 662.444 -3.40915 -0.403982 0
M  V30 7145 C 661.53 -4.21198 0.495279 0
M  V30 7146 N 661.921 -4.79636 1.60572 0
M  V30 7147 C 660.219 -4.45027 0.294372 0
M  V30 7148 C 660.92 -5.39977 2.16332 0
M  V30 7149 N 659.896 -5.23753 1.45546 0
M  V30 7150 H 663.698 -2.67869 1.20927 0
M  V30 7151 H 661.212 -1.43592 0.758632 0
M  V30 7152 H 663.209 -4.08922 -0.811695 0
M  V30 7153 H 661.869 -2.99703 -1.24932 0
M  V30 7154 H 662.88 -4.78209 1.98838 0
M  V30 7155 H 659.557 -4.14348 -0.512021 0
M  V30 7156 H 660.947 -5.96266 3.09704 0
M  V30 7157 N 663.667 -0.670007 -1.42649 0
M  V30 7158 C 664.913 -0.190568 -2.01903 0
M  V30 7159 C 665.246 1.19817 -1.52832 0
M  V30 7160 O 664.521 1.80342 -0.728485 0
M  V30 7161 C 664.804 -0.21991 -3.59428 0
M  V30 7162 C 664.657 -1.64376 -4.18689 0
M  V30 7163 C 665.976 0.434519 -4.3795 0
M  V30 7164 H 663.095 -0.0707219 -0.733599 0
M  V30 7165 H 665.737 -0.853883 -1.69732 0
M  V30 7166 H 663.887 0.344894 -3.86966 0
M  V30 7167 H 665.559 -2.26044 -4.02122 0
M  V30 7168 H 663.802 -2.18591 -3.747 0
M  V30 7169 H 664.473 -1.61601 -5.27815 0
M  V30 7170 H 666.949 -0.0462156 -4.16074 0
M  V30 7171 H 665.825 0.38333 -5.4756 0
M  V30 7172 H 666.086 1.51135 -4.15464 0
M  V30 7173 N 665.145 1.52092 -0.413018 0
M  V30 7174 C 666.393 2.01456 0.161178 0
M  V30 7175 C 666.714 1.30034 1.45314 0
M  V30 7176 O 665.984 0.427435 1.9118 0
M  V30 7177 H 664.564 0.744376 0.0625526 0
M  V30 7178 H 667.226 1.86974 -0.550151 0
M  V30 7179 H 666.322 3.1008 0.354517 0
M  V30 7180 N 666.623 0.143563 1.56945 0
M  V30 7181 C 667.853 -0.514699 2.00086 0
M  V30 7182 C 668.261 -1.59184 1.0226 0
M  V30 7183 O 667.604 -1.83697 0.0110514 0
M  V30 7184 C 667.666 -1.17778 3.39659 0
M  V30 7185 C 667.33 -0.245657 4.56339 0
M  V30 7186 C 668.327 0.525343 5.17239 0
M  V30 7187 C 666.012 -0.149564 5.02077 0
M  V30 7188 C 668.006 1.37992 6.22284 0
M  V30 7189 C 665.693 0.708621 6.06978 0
M  V30 7190 C 666.691 1.47197 6.6695 0
M  V30 7191 O 666.379 2.31586 7.6982 0
M  V30 7192 H 666.111 -0.138789 0.661599 0
M  V30 7193 H 668.665 0.234098 2.04062 0
M  V30 7194 H 666.895 -1.97415 3.32512 0
M  V30 7195 H 668.584 -1.73542 3.6693 0
M  V30 7196 H 669.35 0.461118 4.82803 0
M  V30 7197 H 665.229 -0.733457 4.55128 0
M  V30 7198 H 668.773 1.97621 6.69023 0
M  V30 7199 H 664.67 0.77415 6.40841 0
M  V30 7200 H 665.438 2.24796 7.87025 0
M  V30 7201 N 668.101 -1.57061 -0.130224 0
M  V30 7202 C 669.326 -1.88802 -0.858409 0
M  V30 7203 C 669.751 -0.734353 -1.73173 0
M  V30 7204 O 669.109 0.315529 -1.78533 0
M  V30 7205 C 669.157 -3.19228 -1.67708 0
M  V30 7206 O 668.261 -3.04343 -2.78297 0
M  V30 7207 H 667.602 -0.619849 -0.238083 0
M  V30 7208 H 670.132 -2.04271 -0.115995 0
M  V30 7209 H 670.142 -3.51669 -2.06864 0
M  V30 7210 H 668.817 -4.02793 -1.0359 0
M  V30 7211 H 667.394 -2.83346 -2.42425 0
M  V30 7212 N 669.579 0.400081 -1.52437 0
M  V30 7213 C 670.809 1.16598 -1.70553 0
M  V30 7214 C 671.217 1.8451 -0.418665 0
M  V30 7215 O 670.56 1.73069 0.615855 0
M  V30 7216 C 670.622 2.26517 -2.7916 0
M  V30 7217 C 670.286 1.78666 -4.20628 0
M  V30 7218 C 671.283 1.26946 -5.04163 0
M  V30 7219 C 668.968 1.85225 -4.66902 0
M  V30 7220 C 670.962 0.824187 -6.32049 0
M  V30 7221 C 668.649 1.40309 -5.94774 0
M  V30 7222 C 669.647 0.889922 -6.77178 0
M  V30 7223 O 669.335 0.447281 -8.02655 0
M  V30 7224 H 669.067 0.356023 -0.574651 0
M  V30 7225 H 671.621 0.475598 -1.99818 0
M  V30 7226 H 669.851 2.98946 -2.45292 0
M  V30 7227 H 671.54 2.88237 -2.85787 0
M  V30 7228 H 672.306 1.21244 -4.69601 0
M  V30 7229 H 668.185 2.24111 -4.02859 0
M  V30 7230 H 671.729 0.422958 -6.96317 0
M  V30 7231 H 667.626 1.45693 -6.28843 0
M  V30 7232 H 668.394 0.569768 -8.16514 0
M  V30 7233 N 671.057 1.43213 0.657864 0
M  V30 7234 C 672.473 1.26511 0.972992 0
M  V30 7235 C 672.673 0.181477 2.00681 0
M  V30 7236 O 671.729 -0.441649 2.48608 0
M  V30 7237 C 673.042 2.62784 1.46168 0
M  V30 7238 C 674.59 2.70278 1.57857 0
M  V30 7239 C 675.065 4.06958 2.10117 0
M  V30 7240 N 676.556 4.08999 2.17426 0
M  V30 7241 C 677.291 5.11585 2.58975 0
M  V30 7242 N 676.787 6.24548 2.99853 0
M  V30 7243 N 678.58 4.9894 2.58873 0
M  V30 7244 H 670.731 2.12384 -0.0263129 0
M  V30 7245 H 672.994 0.946638 0.0507992 0
M  V30 7246 H 672.7 3.43022 0.776474 0
M  V30 7247 H 672.574 2.87863 2.43751 0
M  V30 7248 H 674.961 1.90376 2.25479 0
M  V30 7249 H 675.042 2.4897 0.587179 0
M  V30 7250 H 674.686 4.87325 1.43098 0
M  V30 7251 H 674.616 4.25628 3.10078 0
M  V30 7252 H 677.107 3.27457 1.88627 0
M  V30 7253 H 677.42 6.98661 3.30292 0
M  V30 7254 H 675.765 6.28027 2.97669 0
M  V30 7255 H 678.956 4.09757 2.26311 0
M  V30 7256 H 679.129 5.79019 2.90932 0
M  V30 7257 N 672.536 -0.895792 1.29666 0
M  V30 7258 C 673.466 -2.01673 1.17688 0
M  V30 7259 C 674.447 -1.69955 0.0701317 0
M  V30 7260 O 675.632 -1.9258 0.250289 0
M  V30 7261 C 672.762 -3.36568 0.856681 0
M  V30 7262 C 671.716 -3.82509 1.92017 0
M  V30 7263 C 671.042 -5.14574 1.4532 0
M  V30 7264 C 672.342 -4.02409 3.32963 0
M  V30 7265 H 674.036 -2.11953 2.11463 0
M  V30 7266 H 671.582 -1.01839 1.01807 0
M  V30 7267 H 673.535 -4.14498 0.759577 0
M  V30 7268 H 672.259 -3.26391 -0.116763 0
M  V30 7269 H 670.918 -3.068 2.00673 0
M  V30 7270 H 670.566 -5.00815 0.468325 0
M  V30 7271 H 670.266 -5.46283 2.16447 0
M  V30 7272 H 671.79 -5.9504 1.36968 0
M  V30 7273 H 673.204 -4.70808 3.27127 0
M  V30 7274 H 671.601 -4.45478 4.02082 0
M  V30 7275 H 672.671 -3.06616 3.75652 0
M  V30 7276 N 674.014 -1.12206 -1.10668 0
M  V30 7277 C 674.924 -0.800686 -2.20513 0
M  V30 7278 C 675.94 0.209512 -1.72734 0
M  V30 7279 O 677.116 0.043705 -2.01353 0
M  V30 7280 C 674.181 -0.257353 -3.45744 0
M  V30 7281 C 673.242 -1.32718 -4.0827 0
M  V30 7282 C 672.475 -0.809674 -5.27522 0
M  V30 7283 O 672.698 0.35742 -5.69279 0
M  V30 7284 O 671.632 -1.57816 -5.80842 0
M  V30 7285 H 675.458 -1.71807 -2.50432 0
M  V30 7286 H 673.043 -0.898546 -1.19359 0
M  V30 7287 H 674.925 0.0408849 -4.2138 0
M  V30 7288 H 673.6 0.632627 -3.17458 0
M  V30 7289 H 672.507 -1.67855 -3.34329 0
M  V30 7290 H 673.84 -2.19083 -4.40753 0
M  V30 7291 N 675.492 1.28418 -0.913599 0
M  V30 7292 C 676.741 1.94265 -0.542572 0
M  V30 7293 C 677.054 1.72709 0.918207 0
M  V30 7294 O 678.26 2.32778 1.39738 0
M  V30 7295 C 676.716 3.47956 -0.919507 0
M  V30 7296 C 676.324 3.78291 -2.4 0
M  V30 7297 C 678.068 4.19962 -0.619057 0
M  V30 7298 C 675.975 5.2529 -2.71707 0
M  V30 7299 H 674.905 0.727213 -0.199192 0
M  V30 7300 H 677.556 1.45931 -1.11249 0
M  V30 7301 H 675.938 3.9502 -0.278372 0
M  V30 7302 H 677.112 3.42035 -3.08786 0
M  V30 7303 H 675.427 3.19456 -2.67089 0
M  V30 7304 H 678.024 5.28178 -0.832623 0
M  V30 7305 H 678.367 4.13935 0.443126 0
M  V30 7306 H 678.9 3.78674 -1.21865 0
M  V30 7307 H 675.639 5.36394 -3.76778 0
M  V30 7308 H 675.159 5.62743 -2.07559 0
M  V30 7309 H 676.838 5.93027 -2.58703 0
M  V30 7310 N 676.97 0.677563 1.42291 0
M  V30 7311 C 678.216 0.201272 2.01799 0
M  V30 7312 C 678.549 -1.19004 1.53465 0
M  V30 7313 O 677.824 -1.79953 0.738039 0
M  V30 7314 C 678.107 0.238968 3.59306 0
M  V30 7315 C 677.96 1.66594 4.17812 0
M  V30 7316 C 679.279 -0.411287 4.38174 0
M  V30 7317 H 676.398 0.0746114 0.733214 0
M  V30 7318 H 679.04 0.862872 1.69276 0
M  V30 7319 H 677.19 -0.324368 3.87144 0
M  V30 7320 H 678.862 2.28173 4.00917 0
M  V30 7321 H 677.105 2.20576 3.73536 0
M  V30 7322 H 677.776 1.64398 5.26951 0
M  V30 7323 H 680.252 0.0682804 4.16044 0
M  V30 7324 H 679.128 -0.354286 5.47755 0
M  V30 7325 H 679.389 -1.4893 4.1626 0
M  V30 7326 N 678.448 -1.51871 0.421078 0
M  V30 7327 C 679.673 -2.0684 -0.152371 0
M  V30 7328 C 680.098 -1.28802 -1.37083 0
M  V30 7329 O 679.456 -0.321482 -1.78427 0
M  V30 7330 C 679.504 -3.57532 -0.469368 0
M  V30 7331 O 678.608 -3.81818 -1.55848 0
M  V30 7332 H 677.949 -0.663939 -0.00898586 0
M  V30 7333 H 680.479 -1.95674 0.597724 0
M  V30 7334 H 680.489 -4.01515 -0.724553 0
M  V30 7335 H 679.164 -4.13761 0.421276 0
M  V30 7336 H 677.741 -3.49709 -1.29453 0
M  V30 7337 N 679.926 -0.151884 -1.56866 0
M  V30 7338 C 681.203 0.543328 -1.87902 0
M  V30 7339 C 681.583 1.82636 -1.05864 0
M  V30 7340 O 680.931 2.28028 -0.146868 0
M  V30 7341 C 681.141 0.804056 -3.39611 0
M  V30 7342 C 682.489 1.14267 -4.08935 0
M  V30 7343 O 683.513 0.893248 -3.44818 0
M  V30 7344 O 682.372 1.61229 -5.22176 0
M  V30 7345 H 679.466 0.277724 -0.778973 0
M  V30 7346 H 682.012 -0.188862 -1.68646 0
M  V30 7347 H 680.784 -0.103772 -3.91162 0
M  V30 7348 H 680.407 1.59025 -3.64413 0
M  V30 7349 N 681.404 1.57128 0.121893 0
M  V30 7350 C 682.652 1.84335 0.828548 0
M  V30 7351 C 682.973 0.736632 1.80551 0
M  V30 7352 O 682.243 -0.23962 1.94429 0
M  V30 7353 H 680.823 0.680108 0.30897 0
M  V30 7354 H 683.485 1.9459 0.109906 0
M  V30 7355 H 682.581 2.80152 1.37554 0
M  V30 7356 N 682.882 -0.391992 1.52647 0
M  V30 7357 C 683.829 -1.47866 1.77213 0
M  V30 7358 C 684.799 -1.54286 0.615223 0
M  V30 7359 O 685.984 -1.7059 0.854622 0
M  V30 7360 C 683.124 -2.85129 1.94411 0
M  V30 7361 C 682.237 -2.87883 3.22098 0
M  V30 7362 C 681.372 -4.16553 3.29631 0
M  V30 7363 C 680.411 -4.13348 4.51453 0
M  V30 7364 N 679.548 -5.33619 4.56284 0
M  V30 7365 H 684.388 -1.26219 2.6995 0
M  V30 7366 H 681.925 -0.612367 1.33748 0
M  V30 7367 H 683.883 -3.64833 2.02367 0
M  V30 7368 H 682.513 -3.05232 1.05038 0
M  V30 7369 H 681.565 -2.00567 3.23229 0
M  V30 7370 H 682.877 -2.81382 4.11856 0
M  V30 7371 H 682.031 -5.0466 3.36753 0
M  V30 7372 H 680.77 -4.25773 2.37842 0
M  V30 7373 H 679.775 -3.23629 4.44459 0
M  V30 7374 H 681 -4.05754 5.44555 0
M  V30 7375 H 678.946 -5.43474 3.67385 0
M  V30 7376 H 678.863 -5.29182 5.3991 0
M  V30 7377 H 680.131 -6.23632 4.67657 0
M  V30 7378 N 684.36 -1.4356 -0.65026 0
M  V30 7379 C 685.59 -1.48563 -1.4357 0
M  V30 7380 C 685.998 -0.103041 -1.88919 0
M  V30 7381 O 685.341 0.897602 -1.60277 0
M  V30 7382 C 685.403 -2.37181 -2.70158 0
M  V30 7383 C 685.067 -3.84673 -2.4673 0
M  V30 7384 C 686.064 -4.75704 -2.09765 0
M  V30 7385 C 683.749 -4.29189 -2.60963 0
M  V30 7386 C 685.743 -6.09249 -1.87334 0
M  V30 7387 C 683.43 -5.62787 -2.38147 0
M  V30 7388 C 684.428 -6.52634 -2.01389 0
M  V30 7389 O 684.116 -7.83761 -1.78813 0
M  V30 7390 H 683.848 -0.506743 -0.447423 0
M  V30 7391 H 686.402 -1.89001 -0.80423 0
M  V30 7392 H 684.632 -1.91636 -3.35876 0
M  V30 7393 H 686.321 -2.33354 -3.32116 0
M  V30 7394 H 687.087 -4.42589 -1.98343 0
M  V30 7395 H 682.966 -3.59529 -2.88548 0
M  V30 7396 H 686.51 -6.7934 -1.58567 0
M  V30 7397 H 682.407 -5.95469 -2.49173 0
M  V30 7398 H 683.175 -7.95368 -1.93214 0
M  V30 7399 N 685.838 0.888903 -1.30139 0
M  V30 7400 C 687.086 1.63713 -1.18501 0
M  V30 7401 C 687.407 1.9324 0.261399 0
M  V30 7402 O 686.677 1.56608 1.17689 0
M  V30 7403 H 685.257 0.606861 -0.435579 0
M  V30 7404 H 687.919 1.06525 -1.63213 0
M  V30 7405 H 687.015 2.58894 -1.743 0
M  V30 7406 N 687.317 1.12792 1.10072 0
M  V30 7407 C 688.28 0.802264 2.14701 0
M  V30 7408 C 689.28 -0.18515 1.59731 0
M  V30 7409 O 690.47 0.041109 1.74151 0
M  V30 7410 C 687.602 0.19285 3.40354 0
M  V30 7411 H 688.795 1.72932 2.45019 0
M  V30 7412 H 686.348 0.931662 1.25498 0
M  V30 7413 H 687.083 -0.743748 3.15656 0
M  V30 7414 H 686.868 0.903827 3.81541 0
M  V30 7415 H 688.358 -0.0183704 4.17596 0
M  V30 7416 N 688.795 -1.27931 0.920396 0
M  V30 7417 C 690.211 -1.47085 0.619537 0
M  V30 7418 C 690.411 -1.83463 -0.833291 0
M  V30 7419 O 689.467 -1.94363 -1.61181 0
M  V30 7420 C 690.78 -2.56878 1.56314 0
M  V30 7421 C 692.328 -2.70743 1.57058 0
M  V30 7422 C 692.803 -3.83687 2.50097 0
M  V30 7423 N 694.294 -3.9105 2.48262 0
M  V30 7424 C 695.029 -4.77842 3.16945 0
M  V30 7425 N 694.525 -5.69176 3.94982 0
M  V30 7426 N 696.318 -4.71509 3.06 0
M  V30 7427 H 688.469 -1.02601 1.85975 0
M  V30 7428 H 690.732 -0.511682 0.798051 0
M  V30 7429 H 690.438 -2.36923 2.59923 0
M  V30 7430 H 690.312 -3.54117 1.29928 0
M  V30 7431 H 692.699 -2.90083 0.541832 0
M  V30 7432 H 692.78 -1.74015 1.8749 0
M  V30 7433 H 692.424 -3.65101 3.53077 0
M  V30 7434 H 692.354 -4.79827 2.16964 0
M  V30 7435 H 694.845 -3.25738 1.91581 0
M  V30 7436 H 695.158 -6.32245 4.44394 0
M  V30 7437 H 693.503 -5.68995 3.99086 0
M  V30 7438 H 696.694 -3.99151 2.44533 0
M  V30 7439 H 696.867 -5.38933 3.59799 0
M  V30 7440 N 690.273 -0.685099 -1.4193 0
M  V30 7441 C 691.55 -0.140152 -1.95097 0
M  V30 7442 C 691.93 1.34745 -1.62502 0
M  V30 7443 O 691.278 2.08872 -0.926534 0
M  V30 7444 C 691.488 -0.420268 -3.4646 0
M  V30 7445 C 692.836 -0.342338 -4.23218 0
M  V30 7446 O 693.86 -0.354592 -3.54431 0
M  V30 7447 O 692.719 -0.293404 -5.45712 0
M  V30 7448 H 689.813 -0.00885998 -0.826953 0
M  V30 7449 H 692.359 -0.760539 -1.51703 0
M  V30 7450 H 691.131 -1.45037 -3.63428 0
M  V30 7451 H 690.754 0.231616 -3.96925 0
M  V30 7452 N 691.751 1.51645 -0.429126 0
M  V30 7453 C 693.162 1.86665 0.0359003 0
M  V30 7454 C 693.513 1.34677 1.42676 0
M  V30 7455 O 692.638 0.694195 2.04963 0
M  V30 7456 C 693.233 3.38724 0.0719221 0
M  V30 7457 C 691.792 3.7331 0.481336 0
M  V30 7458 C 690.939 2.75313 -0.331329 0
M  V30 7459 H 693.89 1.44987 -0.645333 0
M  V30 7460 H 693.911 3.7011 0.883118 0
M  V30 7461 H 693.423 3.76532 -0.940495 0
M  V30 7462 H 691.524 3.41088 1.49966 0
M  V30 7463 H 691.637 4.78631 0.211837 0
M  V30 7464 H 690.001 2.53839 0.209204 0
M  V30 7465 H 690.784 3.15963 -1.34247 0
M  V30 7466 N 693.229 0.160201 1.56784 0
M  V30 7467 C 694.506 -0.533355 1.88188 0
M  V30 7468 C 694.886 -1.82072 1.06831 0
M  V30 7469 O 694.234 -2.27946 0.158959 0
M  V30 7470 C 694.444 -0.786034 3.40033 0
M  V30 7471 C 695.792 -1.12097 4.09536 0
M  V30 7472 O 696.816 -0.874949 3.45287 0
M  V30 7473 O 695.675 -1.58457 5.23023 0
M  V30 7474 H 692.769 -0.273589 0.780434 0
M  V30 7475 H 695.315 0.197803 1.68543 0
M  V30 7476 H 694.087 0.124515 3.91102 0
M  V30 7477 H 693.71 -1.57091 3.65251 0
M  V30 7478 N 694.707 -1.5719 -0.113559 0
M  V30 7479 C 695.935 -1.89328 -0.834422 0
M  V30 7480 C 696.35 -0.752018 -1.73177 0
M  V30 7481 O 695.707 0.276912 -1.80387 0
M  V30 7482 C 695.758 -3.20962 -1.66329 0
M  V30 7483 O 695.479 -4.30695 -0.802069 0
M  V30 7484 C 696.98 -3.6684 -2.48884 0
M  V30 7485 H 694.2 -0.626769 -0.239587 0
M  V30 7486 H 696.744 -2.04273 -0.0963195 0
M  V30 7487 H 694.899 -3.0767 -2.35409 0
M  V30 7488 H 695.313 -5.06175 -1.37431 0
M  V30 7489 H 696.787 -4.61692 -3.02563 0
M  V30 7490 H 697.264 -2.93765 -3.26495 0
M  V30 7491 H 697.87 -3.82938 -1.85036 0
M  V30 7492 N 696.185 0.383891 -1.52853 0
M  V30 7493 C 697.132 1.46924 -1.77995 0
M  V30 7494 C 698.102 1.53958 -0.623396 0
M  V30 7495 O 699.287 1.70134 -0.863657 0
M  V30 7496 C 696.427 2.84093 -1.95921 0
M  V30 7497 C 695.54 2.86171 -3.23621 0
M  V30 7498 C 694.675 4.14799 -3.31836 0
M  V30 7499 C 693.714 4.10948 -4.53639 0
M  V30 7500 N 692.851 5.31192 -4.59107 0
M  V30 7501 H 697.691 1.24786 -2.70615 0
M  V30 7502 H 695.228 0.605265 -1.34071 0
M  V30 7503 H 697.186 3.63755 -2.04299 0
M  V30 7504 H 695.816 3.04671 -1.06656 0
M  V30 7505 H 694.868 1.9885 -3.24288 0
M  V30 7506 H 696.18 2.79194 -4.13343 0
M  V30 7507 H 695.334 5.02867 -3.39425 0
M  V30 7508 H 694.073 4.24505 -2.40097 0
M  V30 7509 H 693.078 3.21268 -4.46169 0
M  V30 7510 H 694.303 4.0286 -5.467 0
M  V30 7511 H 692.249 5.41518 -3.70262 0
M  V30 7512 H 692.166 5.26311 -5.42708 0
M  V30 7513 H 693.434 6.21143 -4.70958 0
M  V30 7514 N 697.663 1.43903 0.642637 0
M  V30 7515 C 698.626 1.49538 1.73698 0
M  V30 7516 C 699.626 0.378776 1.56275 0
M  V30 7517 O 700.816 0.64095 1.6198 0
M  V30 7518 C 697.948 1.35821 3.12675 0
M  V30 7519 H 699.141 2.47008 1.70079 0
M  V30 7520 H 696.694 1.30824 0.85526 0
M  V30 7521 H 697.429 0.393994 3.21898 0
M  V30 7522 H 697.214 2.16776 3.26727 0
M  V30 7523 H 698.704 1.4272 3.92455 0
M  V30 7524 N 699.141 -0.881989 1.30609 0
M  V30 7525 C 700.387 -1.63649 1.20791 0
M  V30 7526 C 700.742 -1.90966 -0.234437 0
M  V30 7527 O 700.035 -1.52163 -1.16434 0
M  V30 7528 C 700.229 -2.97999 1.97311 0
M  V30 7529 C 700.058 -2.83798 3.48839 0
M  V30 7530 C 698.828 -2.83622 4.18195 0
M  V30 7531 C 701.026 -2.59529 4.44015 0
M  V30 7532 N 699.008 -2.60344 5.55962 0
M  V30 7533 C 700.379 -2.45401 5.69366 0
M  V30 7534 C 702.434 -2.44777 4.33576 0
M  V30 7535 C 701.137 -2.18023 6.85462 0
M  V30 7536 C 703.163 -2.18785 5.49443 0
M  V30 7537 C 702.525 -2.05436 6.73777 0
M  V30 7538 H 698.624 -0.603687 0.497077 0
M  V30 7539 H 701.208 -1.03908 1.64655 0
M  V30 7540 H 699.379 -3.55767 1.55834 0
M  V30 7541 H 701.111 -3.6266 1.79611 0
M  V30 7542 H 697.866 -2.95562 3.70054 0
M  V30 7543 H 698.29 -2.51709 6.28468 0
M  V30 7544 H 702.932 -2.53831 3.38126 0
M  V30 7545 H 700.65 -2.07707 7.8095 0
M  V30 7546 H 704.236 -2.08188 5.43276 0
M  V30 7547 H 703.116 -1.85605 7.61919 0
M  V30 7548 N 700.619 -1.13374 -1.09472 0
M  V30 7549 C 701.567 -0.806105 -2.18185 0
M  V30 7550 C 702.561 0.21136 -1.68076 0
M  V30 7551 O 703.767 0.0685558 -1.79869 0
M  V30 7552 H 700.142 -0.242901 -0.71169 0
M  V30 7553 H 702.113 -1.73115 -2.43051 0
M  V30 7554 C 700.862 -0.287928 -3.46506 0
M  V30 7555 H 700.185 -1.06217 -3.85432 0
M  V30 7556 H 701.625 -0.0971054 -4.23889 0
M  V30 7557 C 700.084 0.986256 -3.22141 0
M  V30 7558 O 700.614 2.06217 -3.44728 0
M  V30 7559 N 698.82 0.917153 -2.75747 0
M  V30 7560 H 698.367 0.0414609 -2.57567 0
M  V30 7561 H 698.325 1.77029 -2.59823 0
M  V30 7562 N 702.098 1.27442 -0.927168 0
M  V30 7563 C 703.346 1.94007 -0.566203 0
M  V30 7564 C 703.667 1.7323 0.895345 0
M  V30 7565 O 702.937 1.07973 1.63459 0
M  V30 7566 H 701.517 0.717917 -0.206409 0
M  V30 7567 H 704.179 1.55161 -1.17945 0
M  V30 7568 H 703.275 3.02401 -0.772028 0
M  V30 7569 N 703.576 0.692616 1.41565 0
M  V30 7570 C 704.509 -0.025063 2.28186 0
M  V30 7571 C 705.487 -0.790912 1.42068 0
M  V30 7572 O 706.671 -0.782344 1.71498 0
M  V30 7573 C 703.798 -1.04285 3.22246 0
M  V30 7574 C 702.844 -0.370515 4.24888 0
M  V30 7575 S 703.677 0.884942 5.28137 0
M  V30 7576 C 704.833 -0.131324 6.25762 0
M  V30 7577 H 705.066 0.709626 2.88707 0
M  V30 7578 H 702.599 0.482783 1.46658 0
M  V30 7579 H 704.557 -1.62493 3.7697 0
M  V30 7580 H 703.218 -1.7501 2.60827 0
M  V30 7581 H 702.411 -1.13911 4.90959 0
M  V30 7582 H 702.013 0.138411 3.73744 0
M  V30 7583 H 704.305 -0.985527 6.70294 0
M  V30 7584 H 705.248 0.495384 7.06365 0
M  V30 7585 H 705.656 -0.484777 5.62415 0
M  V30 7586 N 705.054 -1.51416 0.437162 0
M  V30 7587 C 706.3 -2.02386 -0.129555 0
M  V30 7588 C 706.633 -1.32071 -1.42376 0
M  V30 7589 O 705.908 -0.43559 -1.8956 0
M  V30 7590 C 706.191 -3.5841 -0.348487 0
M  V30 7591 C 706.044 -4.39341 0.964352 0
M  V30 7592 C 707.363 -4.25654 -1.11834 0
M  V30 7593 H 704.482 -0.735587 -0.0456109 0
M  V30 7594 H 707.124 -1.81055 0.576124 0
M  V30 7595 H 705.274 -3.76716 -0.949592 0
M  V30 7596 H 706.946 -4.32685 1.59942 0
M  V30 7597 H 705.189 -4.04432 1.56898 0
M  V30 7598 H 705.86 -5.4667 0.765212 0
M  V30 7599 H 708.336 -4.11617 -0.609165 0
M  V30 7600 H 707.212 -5.34704 -1.24029 0
M  V30 7601 H 707.473 -3.86502 -2.14636 0
M  V30 7602 N 706.532 -0.168513 -1.56696 0
M  V30 7603 C 707.78 0.476216 -1.96409 0
M  V30 7604 C 708.101 1.63968 -1.05544 0
M  V30 7605 O 707.371 1.95525 -0.121235 0
M  V30 7606 H 705.951 0.178921 -0.725256 0
M  V30 7607 H 708.613 -0.249042 -1.93302 0
M  V30 7608 H 707.709 0.838094 -3.00637 0
M  V30 7609 N 708.01 1.57248 0.105221 0
M  V30 7610 C 708.92 2.04653 1.14693 0
M  V30 7611 C 709.936 0.969488 1.44489 0
M  V30 7612 O 711.112 1.28196 1.55331 0
M  V30 7613 C 708.177 2.45297 2.45011 0
M  V30 7614 C 707.238 3.67148 2.22489 0
M  V30 7615 C 706.471 4.05844 3.46592 0
M  V30 7616 O 706.694 3.44736 4.54437 0
M  V30 7617 O 705.628 4.98862 3.36779 0
M  V30 7618 H 709.454 2.93663 0.774336 0
M  V30 7619 H 707.039 1.45998 0.31701 0
M  V30 7620 H 708.921 2.72112 3.21766 0
M  V30 7621 H 707.596 1.59429 2.81717 0
M  V30 7622 H 706.503 3.45463 1.43547 0
M  V30 7623 H 707.836 4.53764 1.9068 0
M  V30 7624 N 709.488 -0.375779 1.53054 0
M  V30 7625 C 710.418 -1.46598 1.81745 0
M  V30 7626 C 711.399 -1.56337 0.670286 0
M  V30 7627 O 712.584 -1.71071 0.919158 0
M  V30 7628 C 709.714 -2.84058 1.99821 0
M  V30 7629 C 708.668 -2.8915 3.15557 0
M  V30 7630 C 707.994 -4.29187 3.18908 0
M  V30 7631 C 709.294 -2.57595 4.54359 0
M  V30 7632 H 710.988 -1.22837 2.73041 0
M  V30 7633 H 708.534 -0.589485 1.31381 0
M  V30 7634 H 710.487 -3.60342 2.18475 0
M  V30 7635 H 709.211 -3.09184 1.05226 0
M  V30 7636 H 707.87 -2.15316 2.96706 0
M  V30 7637 H 707.518 -4.51374 2.2197 0
M  V30 7638 H 707.218 -4.33512 3.96662 0
M  V30 7639 H 708.742 -5.07359 3.39734 0
M  V30 7640 H 710.156 -3.23595 4.73243 0
M  V30 7641 H 708.553 -2.73252 5.34279 0
M  V30 7642 H 709.623 -1.52882 4.60169 0
M  V30 7643 N 710.966 -1.44241 -0.634997 0
M  V30 7644 C 712.212 -1.47038 -1.39669 0
M  V30 7645 C 712.545 -0.101122 -1.93937 0
M  V30 7646 O 711.82 0.880699 -1.73418 0
M  V30 7647 C 712.103 -2.52763 -2.56482 0
M  V30 7648 C 711.956 -3.99032 -2.07589 0
M  V30 7649 C 713.275 -2.55031 -3.58674 0
M  V30 7650 H 710.394 -0.53537 -0.506506 0
M  V30 7651 H 713.036 -1.75898 -0.718317 0
M  V30 7652 H 711.186 -2.28284 -3.14354 0
M  V30 7653 H 712.858 -4.3463 -1.54577 0
M  V30 7654 H 711.101 -4.10994 -1.38804 0
M  V30 7655 H 711.772 -4.68649 -2.91671 0
M  V30 7656 H 714.248 -2.76893 -3.10595 0
M  V30 7657 H 713.124 -3.30916 -4.37934 0
M  V30 7658 H 713.385 -1.59085 -4.12486 0
M  V30 7659 N 712.444 0.87505 -1.31075 0
M  V30 7660 C 713.674 1.65818 -1.2324 0
M  V30 7661 C 714.082 1.8808 0.205536 0
M  V30 7662 O 713.425 1.43548 1.14628 0
M  V30 7663 C 713.487 3.05131 -1.90093 0
M  V30 7664 C 713.151 3.05999 -3.39432 0
M  V30 7665 C 714.148 2.84328 -4.35263 0
M  V30 7666 C 711.833 3.27281 -3.81041 0
M  V30 7667 C 713.827 2.83912 -5.70678 0
M  V30 7668 C 711.514 3.26493 -5.16571 0
M  V30 7669 C 712.512 3.04834 -6.112 0
M  V30 7670 O 712.2 3.03882 -7.44252 0
M  V30 7671 H 711.932 0.52387 -0.427242 0
M  V30 7672 H 714.486 1.10086 -1.73408 0
M  V30 7673 H 712.716 3.62568 -1.34468 0
M  V30 7674 H 714.405 3.65641 -1.76242 0
M  V30 7675 H 715.171 2.67673 -4.04445 0
M  V30 7676 H 711.05 3.43171 -3.07822 0
M  V30 7677 H 714.594 2.66925 -6.44513 0
M  V30 7678 H 710.491 3.42687 -5.47025 0
M  V30 7679 H 711.259 3.19979 -7.53363 0
M  V30 7680 N 713.922 1.13953 1.08869 0
M  V30 7681 C 715.17 0.903023 1.80803 0
M  V30 7682 C 715.491 -0.572151 1.86417 0
M  V30 7683 O 714.761 -1.41589 1.35386 0
M  V30 7684 H 713.341 0.331099 0.669614 0
M  V30 7685 H 716.003 1.43719 1.31647 0
M  V30 7686 H 715.099 1.29881 2.83791 0
M  V30 7687 N 715.4 -1.26948 0.933913 0
M  V30 7688 C 716.816 -1.46419 0.635103 0
M  V30 7689 C 717.016 -1.84336 -0.813785 0
M  V30 7690 O 716.072 -1.96061 -1.59111 0
M  V30 7691 C 717.385 -2.55206 1.5903 0
M  V30 7692 C 718.933 -2.69062 1.5992 0
M  V30 7693 C 719.408 -3.81013 2.54152 0
M  V30 7694 N 720.899 -3.88395 2.52395 0
M  V30 7695 C 721.634 -4.74454 3.21996 0
M  V30 7696 N 721.13 -5.64954 4.00997 0
M  V30 7697 N 722.923 -4.68237 3.10983 0
M  V30 7698 H 715.074 -1.00622 1.87053 0
M  V30 7699 H 717.337 -0.503189 0.803433 0
M  V30 7700 H 717.043 -2.34153 2.62422 0
M  V30 7701 H 716.917 -3.52719 1.33677 0
M  V30 7702 H 719.304 -2.89492 0.572569 0
M  V30 7703 H 719.385 -1.72016 1.89325 0
M  V30 7704 H 719.029 -3.61336 3.5693 0
M  V30 7705 H 718.959 -4.77499 2.22041 0
M  V30 7706 H 721.45 -3.23687 1.95025 0
M  V30 7707 H 721.763 -6.27496 4.51074 0
M  V30 7708 H 720.108 -5.6473 4.05099 0
M  V30 7709 H 723.299 -3.96535 2.48753 0
M  V30 7710 H 723.472 -5.35087 3.65494 0
M  V30 7711 N 716.879 -0.700114 -1.41195 0
M  V30 7712 C 717.842 -0.0465706 -2.29153 0
M  V30 7713 C 718.842 0.703302 -1.44604 0
M  V30 7714 O 720.032 0.537513 -1.657 0
M  V30 7715 C 717.164 0.944324 -3.2756 0
M  V30 7716 H 718.357 -0.821064 -2.88442 0
M  V30 7717 H 715.91 -0.463869 -1.49258 0
M  V30 7718 H 716.645 1.74642 -2.73259 0
M  V30 7719 H 716.43 0.409701 -3.89954 0
M  V30 7720 H 717.92 1.39925 -3.9346 0
M  V30 7721 N 718.357 1.51182 -0.445186 0
M  V30 7722 C 719.634 1.9478 0.178965 0
M  V30 7723 C 720.014 1.38428 1.59376 0
M  V30 7724 O 719.362 0.574552 2.21159 0
M  V30 7725 C 719.572 3.48683 0.148711 0
M  V30 7726 C 720.92 4.23152 0.35042 0
M  V30 7727 O 721.944 3.55479 0.226474 0
M  V30 7728 O 720.803 5.4322 0.597893 0
M  V30 7729 H 717.897 0.817387 0.12573 0
M  V30 7730 H 720.443 1.62051 -0.503729 0
M  V30 7731 H 719.215 3.82176 -0.84009 0
M  V30 7732 H 718.838 3.87875 0.873979 0
M  V30 7733 N 719.835 0.176821 1.56605 0
M  V30 7734 C 721.081 -0.467406 1.9734 0
M  V30 7735 C 721.414 -1.62523 1.06301 0
M  V30 7736 O 720.689 -1.94182 0.11125 0
M  V30 7737 C 720.972 -0.945106 3.47476 0
M  V30 7738 C 720.825 0.213273 4.49294 0
M  V30 7739 C 722.144 -1.8169 4.00845 0
M  V30 7740 H 719.263 -0.168426 0.717497 0
M  V30 7741 H 721.905 0.264065 1.88156 0
M  V30 7742 H 720.055 -1.56841 3.55434 0
M  V30 7743 H 721.727 0.850508 4.53392 0
M  V30 7744 H 719.97 0.867918 4.25029 0
M  V30 7745 H 720.641 -0.163187 5.51759 0
M  V30 7746 H 723.117 -1.29139 3.95553 0
M  V30 7747 H 721.993 -2.12015 5.06301 0
M  V30 7748 H 722.254 -2.76463 3.44994 0
M  V30 7749 N 721.313 -1.57302 -0.09688 0
M  V30 7750 C 722.276 -2.00976 -1.10188 0
M  V30 7751 C 723.276 -0.903009 -1.3305 0
M  V30 7752 O 724.466 -1.16853 -1.29194 0
M  V30 7753 C 721.598 -2.36893 -2.45142 0
M  V30 7754 H 722.791 -2.9098 -0.726003 0
M  V30 7755 H 720.344 -1.52515 -0.341872 0
M  V30 7756 H 721.079 -1.49837 -2.8761 0
M  V30 7757 H 720.864 -3.17632 -2.29897 0
M  V30 7758 H 722.354 -2.71345 -3.1743 0
M  V30 7759 N 722.791 0.367657 -1.53252 0
M  V30 7760 C 724.037 1.11216 -1.69584 0
M  V30 7761 C 724.37 1.89026 -0.445269 0
M  V30 7762 O 723.645 1.86342 0.557404 0
M  V30 7763 C 723.928 2.07308 -2.94441 0
M  V30 7764 C 723.781 1.3312 -4.2965 0
M  V30 7765 C 725.1 3.07459 -3.14892 0
M  V30 7766 H 722.219 0.40294 -0.617096 0
M  V30 7767 H 724.861 0.393201 -1.85887 0
M  V30 7768 H 723.011 2.68617 -2.80673 0
M  V30 7769 H 724.683 0.746111 -4.55226 0
M  V30 7770 H 722.926 0.633051 -4.29156 0
M  V30 7771 H 723.597 2.03443 -5.13142 0
M  V30 7772 H 726.073 2.56252 -3.27832 0
M  V30 7773 H 724.949 3.71919 -4.03693 0
M  V30 7774 H 725.21 3.77514 -2.30077 0
M  V30 7775 N 724.269 1.44576 0.627338 0
M  V30 7776 C 725.232 1.51372 1.72102 0
M  V30 7777 C 726.232 0.395329 1.55865 0
M  V30 7778 O 727.422 0.658094 1.61291 0
M  V30 7779 C 724.554 1.39129 3.11217 0
M  V30 7780 H 725.747 2.48798 1.6745 0
M  V30 7781 H 723.3 1.31724 0.841336 0
M  V30 7782 H 724.035 0.428114 3.21462 0
M  V30 7783 H 723.82 2.20229 3.24409 0
M  V30 7784 H 725.31 1.46874 3.90919 0
M  V30 7785 N 725.747 -0.868086 1.31537 0
M  V30 7786 C 727.158 -1.437 1.19195 0
M  V30 7787 C 727.509 -1.95169 -0.200842 0
M  V30 7788 O 726.634 -1.86432 -1.09872 0
M  V30 7789 C 727.229 -2.612 2.15778 0
M  V30 7790 C 725.788 -3.1413 2.07363 0
M  V30 7791 C 724.935 -1.86845 2.049 0
M  V30 7792 H 727.886 -0.676457 1.43561 0
M  V30 7793 H 727.907 -3.37948 1.74847 0
M  V30 7794 H 727.419 -2.23709 3.17137 0
M  V30 7795 H 725.52 -3.56238 1.09204 0
M  V30 7796 H 725.633 -3.76285 2.96557 0
M  V30 7797 H 723.997 -2.05886 1.49943 0
M  V30 7798 H 724.78 -1.51589 3.08019 0
M  V30 7799 N 727.225 -1.14528 -1.08264 0
M  V30 7800 C 728.155 -0.856356 -2.1723 0
M  V30 7801 C 729.136 0.189251 -1.69044 0
M  V30 7802 O 730.321 0.0456119 -1.94146 0
M  V30 7803 C 727.451 -0.334662 -3.45684 0
M  V30 7804 C 726.405 -1.31588 -4.0727 0
M  V30 7805 C 725.731 -0.653428 -5.30692 0
M  V30 7806 C 727.031 -2.67866 -4.48381 0
M  V30 7807 H 728.725 -1.76755 -2.41657 0
M  V30 7808 H 726.271 -0.851287 -1.16143 0
M  V30 7809 H 728.224 -0.120128 -4.21229 0
M  V30 7810 H 726.948 0.611967 -3.20815 0
M  V30 7811 H 725.607 -1.51661 -3.33758 0
M  V30 7812 H 725.255 0.299054 -5.0211 0
M  V30 7813 H 724.955 -1.30817 -5.72853 0
M  V30 7814 H 726.479 -0.448453 -6.08951 0
M  V30 7815 H 727.893 -2.51692 -5.15096 0
M  V30 7816 H 726.29 -3.29627 -5.01464 0
M  V30 7817 H 727.36 -3.24632 -3.60198 0
M  V30 7818 N 728.703 1.26451 -0.940633 0
M  V30 7819 C 729.931 1.97868 -0.604642 0
M  V30 7820 C 730.346 1.70051 0.820251 0
M  V30 7821 O 729.703 0.96843 1.54686 0
M  V30 7822 C 729.754 3.51684 -0.836689 0
M  V30 7823 O 729.475 3.78533 -2.20554 0
M  V30 7824 C 730.976 4.40343 -0.511169 0
M  V30 7825 H 728.196 0.631105 -0.227919 0
M  V30 7826 H 730.74 1.60979 -1.26119 0
M  V30 7827 H 728.895 3.86736 -0.226759 0
M  V30 7828 H 729.309 4.73065 -2.26517 0
M  V30 7829 H 730.783 5.47229 -0.724157 0
M  V30 7830 H 731.26 4.35694 0.553815 0
M  V30 7831 H 731.866 4.10834 -1.0998 0
M  V30 7832 N 730.181 0.707592 1.40822 0
M  V30 7833 C 731.43 0.240705 2.00259 0
M  V30 7834 C 731.743 -1.17027 1.56729 0
M  V30 7835 O 732.949 -1.73526 2.08809 0
M  V30 7836 C 731.405 0.379432 3.57894 0
M  V30 7837 C 731.013 1.79654 4.104 0
M  V30 7838 C 732.757 -0.0270684 4.24491 0
M  V30 7839 C 730.664 1.88628 5.60512 0
M  V30 7840 H 729.594 0.0862369 0.749052 0
M  V30 7841 H 732.245 0.877528 1.61157 0
M  V30 7842 H 730.627 -0.325842 3.94657 0
M  V30 7843 H 731.801 2.53155 3.85032 0
M  V30 7844 H 730.116 2.15379 3.56372 0
M  V30 7845 H 732.713 0.0193743 5.34696 0
M  V30 7846 H 733.056 -1.06772 4.02375 0
M  V30 7847 H 733.589 0.628361 3.92806 0
M  V30 7848 H 730.328 2.90787 5.87472 0
M  V30 7849 H 729.848 1.19528 5.8777 0
M  V30 7850 H 731.527 1.6547 6.25483 0
M  V30 7851 N 731.66 -1.50943 0.453197 0
M  V30 7852 C 732.888 -2.06628 -0.106135 0
M  V30 7853 C 733.303 -1.31901 -1.35084 0
M  V30 7854 O 732.66 -0.383074 -1.78434 0
M  V30 7855 C 732.711 -3.5914 -0.412368 0
M  V30 7856 O 732.432 -4.31047 0.782948 0
M  V30 7857 C 733.933 -4.31391 -1.02064 0
M  V30 7858 H 731.153 -0.670999 -0.000885896 0
M  V30 7859 H 733.697 -1.94331 0.63684 0
M  V30 7860 H 731.852 -3.71299 -1.10526 0
M  V30 7861 H 732.266 -5.21948 0.516736 0
M  V30 7862 H 733.74 -5.39135 -1.1848 0
M  V30 7863 H 734.217 -3.90714 -2.00598 0
M  V30 7864 H 734.823 -4.23716 -0.366664 0
M  V30 7865 N 733.138 -0.185124 -1.56509 0
M  V30 7866 C 734.068 0.735098 -2.21627 0
M  V30 7867 C 735.049 1.2288 -1.1762 0
M  V30 7868 O 736.234 1.27945 -1.46095 0
M  V30 7869 C 733.364 1.95889 -2.86783 0
M  V30 7870 C 732.318 1.6005 -3.96948 0
M  V30 7871 C 731.644 2.90009 -4.4922 0
M  V30 7872 C 732.944 0.818008 -5.15855 0
M  V30 7873 H 734.638 0.192274 -2.98782 0
M  V30 7874 H 732.184 0.0910393 -1.43712 0
M  V30 7875 H 734.137 2.60779 -3.31017 0
M  V30 7876 H 732.861 2.52608 -2.07018 0
M  V30 7877 H 731.52 0.975237 -3.5339 0
M  V30 7878 H 731.168 3.44797 -3.6623 0
M  V30 7879 H 730.868 2.66778 -5.23549 0
M  V30 7880 H 732.392 3.55904 -4.9615 0
M  V30 7881 H 733.806 1.36979 -5.56695 0
M  V30 7882 H 732.203 0.684207 -5.96187 0
M  V30 7883 H 733.273 -0.182939 -4.84555 0
M  V30 7884 N 734.616 1.57351 0.0885366 0
M  V30 7885 C 735.862 1.86696 0.791996 0
M  V30 7886 C 736.195 0.775148 1.78059 0
M  V30 7887 O 735.47 -0.216247 1.93294 0
M  V30 7888 C 735.753 3.26684 1.51491 0
M  V30 7889 C 735.606 4.465 0.543858 0
M  V30 7890 C 736.925 3.64664 2.46391 0
M  V30 7891 H 734.044 0.679049 0.286463 0
M  V30 7892 H 736.686 1.89919 0.0554866 0
M  V30 7893 H 734.836 3.24067 2.14273 0
M  V30 7894 H 736.508 4.61235 -0.0774597 0
M  V30 7895 H 734.751 4.33567 -0.142228 0
M  V30 7896 H 735.422 5.41192 1.08696 0
M  V30 7897 H 737.898 3.68267 1.93698 0
M  V30 7898 H 736.774 4.63534 2.93986 0
M  V30 7899 H 737.035 2.93698 3.30445 0
M  V30 7900 N 736.094 -0.359525 1.53444 0
M  V30 7901 C 737.51 -0.701599 1.43352 0
M  V30 7902 C 737.71 -1.93049 0.577439 0
M  V30 7903 O 736.766 -2.52423 0.0622224 0
M  V30 7904 C 738.079 -0.90915 2.86627 0
M  V30 7905 C 739.627 -1.00878 2.96298 0
M  V30 7906 C 740.102 -1.24876 4.40647 0
M  V30 7907 N 741.593 -1.31632 4.44103 0
M  V30 7908 C 742.328 -1.51922 5.52908 0
M  V30 7909 N 741.824 -1.69489 6.71748 0
M  V30 7910 N 743.617 -1.54341 5.40496 0
M  V30 7911 H 735.768 0.448685 2.07607 0
M  V30 7912 H 738.031 0.138713 0.937797 0
M  V30 7913 H 737.737 -0.0778997 3.51614 0
M  V30 7914 H 737.611 -1.81551 3.30634 0
M  V30 7915 H 739.998 -1.83057 2.31461 0
M  V30 7916 H 740.079 -0.0796721 2.55676 0
M  V30 7917 H 739.723 -0.431961 5.0606 0
M  V30 7918 H 739.653 -2.19118 4.78848 0
M  V30 7919 H 742.144 -1.19646 3.5846 0
M  V30 7920 H 742.457 -1.84561 7.50438 0
M  V30 7921 H 740.802 -1.66655 6.74723 0
M  V30 7922 H 743.993 -1.40188 4.46615 0
M  V30 7923 H 744.166 -1.69812 6.25354 0
M  V30 7924 N 737.572 -1.44907 -0.619662 0
M  V30 7925 C 738.482 -1.55168 -1.75955 0
M  V30 7926 C 739.498 -0.43672 -1.6843 0
M  V30 7927 O 740.674 -0.695704 -1.89002 0
M  V30 7928 C 737.739 -1.50397 -3.12381 0
M  V30 7929 C 736.8 -2.72835 -3.31451 0
M  V30 7930 C 736.033 -2.68283 -4.61368 0
M  V30 7931 O 736.256 -1.74929 -5.42914 0
M  V30 7932 O 735.19 -3.59308 -4.82889 0
M  V30 7933 H 739.016 -2.51493 -1.7025 0
M  V30 7934 H 736.601 -1.27282 -0.782289 0
M  V30 7935 H 738.483 -1.50301 -3.93685 0
M  V30 7936 H 737.158 -0.572197 -3.18603 0
M  V30 7937 H 736.065 -2.78496 -2.49781 0
M  V30 7938 H 737.398 -3.65098 -3.30098 0
M  V30 7939 N 739.05 0.861098 -1.31996 0
M  V30 7940 C 739.96 2.00154 -1.22374 0
M  V30 7941 C 740.976 1.73447 -0.138631 0
M  V30 7942 O 742.152 1.98191 -0.358104 0
M  V30 7943 C 739.217 3.33696 -0.940645 0
M  V30 7944 C 738.278 3.73668 -2.11355 0
M  V30 7945 C 737.511 5.00837 -1.84386 0
M  V30 7946 O 737.734 5.64996 -0.783287 0
M  V30 7947 O 736.668 5.37787 -2.70313 0
M  V30 7948 H 740.494 2.11207 -2.18233 0
M  V30 7949 H 738.079 0.990768 -1.11822 0
M  V30 7950 H 739.961 4.13756 -0.798987 0
M  V30 7951 H 738.636 3.23698 -0.0121636 0
M  V30 7952 H 737.543 2.94211 -2.31065 0
M  V30 7953 H 738.876 3.88303 -3.02459 0
M  V30 7954 N 740.528 1.15101 1.07655 0
M  V30 7955 C 741.774 0.925343 1.80458 0
M  V30 7956 C 742.107 -0.546354 1.86356 0
M  V30 7957 O 741.382 -1.40496 1.34503 0
M  V30 7958 C 741.665 1.53646 3.25676 0
M  V30 7959 C 741.518 3.07854 3.27942 0
M  V30 7960 C 742.837 1.21968 4.22861 0
M  V30 7961 H 739.956 0.337592 0.655134 0
M  V30 7962 H 742.598 1.42217 1.25993 0
M  V30 7963 H 740.748 1.11395 3.72187 0
M  V30 7964 H 742.42 3.58989 2.89697 0
M  V30 7965 H 740.663 3.41904 2.66991 0
M  V30 7966 H 741.334 3.45725 4.30324 0
M  V30 7967 H 743.81 1.5851 3.84726 0
M  V30 7968 H 742.686 1.67349 5.22767 0
M  V30 7969 H 742.947 0.136207 4.4189 0
M  V30 7970 N 742.006 -1.2595 0.947325 0
M  V30 7971 C 743.255 -1.92759 0.593887 0
M  V30 7972 C 743.568 -1.75083 -0.872093 0
M  V30 7973 O 744.774 -2.36401 -1.33518 0
M  V30 7974 C 743.23 -3.45395 1.01144 0
M  V30 7975 C 742.838 -3.71795 2.49946 0
M  V30 7976 C 744.582 -4.18173 0.730185 0
M  V30 7977 C 742.489 -5.17901 2.85539 0
M  V30 7978 H 741.419 -0.721676 0.218403 0
M  V30 7979 H 744.07 -1.4293 1.15079 0
M  V30 7980 H 742.452 -3.94143 0.383007 0
M  V30 7981 H 743.626 -3.33728 3.17746 0
M  V30 7982 H 741.941 -3.12263 2.75465 0
M  V30 7983 H 744.538 -5.25784 0.972367 0
M  V30 7984 H 744.881 -4.14964 -0.333223 0
M  V30 7985 H 745.414 -3.75309 1.31862 0
M  V30 7986 H 742.153 -5.26216 3.90867 0
M  V30 7987 H 741.673 -5.57042 2.22406 0
M  V30 7988 H 743.352 -5.8596 2.74336 0
M  V30 7989 N 743.484 -0.715051 -1.40445 0
M  V30 7990 C 744.761 -0.181503 -1.94756 0
M  V30 7991 C 745.141 1.31268 -1.65324 0
M  V30 7992 O 744.489 2.0686 -0.970631 0
M  V30 7993 C 744.699 -0.493663 -3.45491 0
M  V30 7994 C 746.047 -0.432032 -4.22396 0
M  V30 7995 O 747.071 -0.429692 -3.53599 0
M  V30 7996 O 745.93 -0.409091 -5.44967 0
M  V30 7997 H 743.024 -0.0263989 -0.826579 0
M  V30 7998 H 745.57 -0.792546 -1.50056 0
M  V30 7999 H 744.342 -1.52713 -3.6027 0
M  V30 8000 H 743.965 0.14737 -3.97327 0
M  V30 8001 N 744.962 1.50701 -0.461195 0
M  V30 8002 C 746.209 2.02267 0.0971971 0
M  V30 8003 C 746.537 1.34387 1.40608 0
M  V30 8004 O 745.792 0.455254 1.90331 0
M  V30 8005 C 746.091 3.55788 0.33908 0
M  V30 8006 C 745.757 4.42092 -0.886885 0
M  V30 8007 C 744.419 4.65398 -1.22304 0
M  V30 8008 C 746.771 4.92571 -1.70361 0
M  V30 8009 C 744.099 5.36429 -2.37616 0
M  V30 8010 C 746.451 5.64868 -2.84793 0
M  V30 8011 C 745.115 5.86431 -3.18834 0
M  V30 8012 H 744.385 0.740146 0.0355669 0
M  V30 8013 H 747.032 1.81415 -0.61326 0
M  V30 8014 H 745.337 3.751 1.13168 0
M  V30 8015 H 747.034 3.93243 0.784937 0
M  V30 8016 H 743.624 4.24165 -0.614981 0
M  V30 8017 H 747.808 4.74428 -1.4571 0
M  V30 8018 H 743.064 5.51333 -2.64276 0
M  V30 8019 H 747.238 6.02966 -3.48432 0
M  V30 8020 H 744.865 6.41248 -4.08296 0
M  V30 8021 N 746.441 0.193421 1.56409 0
M  V30 8022 C 747.666 -0.454552 2.02358 0
M  V30 8023 C 748.091 -1.54516 1.07268 0
M  V30 8024 O 747.449 -1.81214 0.0558962 0
M  V30 8025 C 747.497 -0.989469 3.46759 0
M  V30 8026 O 746.601 -2.10244 3.54783 0
M  V30 8027 H 745.942 -0.106417 0.655417 0
M  V30 8028 H 748.472 0.303807 2.02332 0
M  V30 8029 H 748.482 -1.30649 3.86516 0
M  V30 8030 H 747.157 -0.191083 4.15461 0
M  V30 8031 H 745.734 -1.79419 3.26899 0
M  V30 8032 N 747.919 -1.57396 -0.0801906 0
M  V30 8033 C 748.866 -2.03107 -1.09618 0
M  V30 8034 C 749.836 -0.910118 -1.38946 0
M  V30 8035 O 751.021 -1.17719 -1.50156 0
M  V30 8036 C 748.161 -2.47293 -2.40708 0
M  V30 8037 C 747.274 -3.72972 -2.17982 0
M  V30 8038 C 746.409 -4.05975 -3.42576 0
M  V30 8039 C 745.448 -5.24719 -3.15177 0
M  V30 8040 N 744.585 -5.53401 -4.32078 0
M  V30 8041 H 749.425 -2.89677 -0.69939 0
M  V30 8042 H 746.962 -1.43263 -0.333785 0
M  V30 8043 H 748.92 -2.7096 -3.17232 0
M  V30 8044 H 747.55 -1.63713 -2.78205 0
M  V30 8045 H 746.602 -3.56693 -1.32189 0
M  V30 8046 H 747.914 -4.59638 -1.93738 0
M  V30 8047 H 747.068 -4.30498 -4.275 0
M  V30 8048 H 745.807 -3.17859 -3.69887 0
M  V30 8049 H 744.812 -5 -2.28648 0
M  V30 8050 H 746.037 -6.14445 -2.89197 0
M  V30 8051 H 743.983 -4.68245 -4.59437 0
M  V30 8052 H 743.9 -6.34469 -4.11078 0
M  V30 8053 H 745.168 -5.8247 -5.18024 0
M  V30 8054 N 749.397 0.351382 -1.53633 0
M  V30 8055 C 750.808 0.927429 -1.62036 0
M  V30 8056 C 751.159 1.89809 -0.496706 0
M  V30 8057 O 750.284 2.1313 0.374749 0
M  V30 8058 C 750.879 1.68886 -2.93706 0
M  V30 8059 C 749.438 2.21404 -3.04397 0
M  V30 8060 C 748.585 1.03075 -2.57431 0
M  V30 8061 H 751.536 0.129748 -1.58169 0
M  V30 8062 H 751.557 2.55116 -2.82305 0
M  V30 8063 H 751.069 0.982149 -3.75467 0
M  V30 8064 H 749.17 2.95274 -2.27253 0
M  V30 8065 H 749.283 2.48312 -4.09729 0
M  V30 8066 H 747.647 1.40188 -2.12649 0
M  V30 8067 H 748.43 0.338793 -3.41624 0
M  V30 8068 N 750.875 1.45233 0.611969 0
M  V30 8069 C 752.122 1.49021 1.37109 0
M  V30 8070 C 752.45 0.130227 1.94064 0
M  V30 8071 O 751.705 -0.870551 1.75271 0
M  V30 8072 C 752.004 2.51353 2.54079 0
M  V30 8073 C 751.67 3.96178 2.15299 0
M  V30 8074 C 750.332 4.35614 2.04436 0
M  V30 8075 C 752.684 4.87275 1.84966 0
M  V30 8076 C 750.012 5.64047 1.61456 0
M  V30 8077 C 752.364 6.16115 1.43474 0
M  V30 8078 C 751.028 6.54486 1.31167 0
M  V30 8079 H 750.298 0.545307 0.501719 0
M  V30 8080 H 752.945 1.78555 0.692122 0
M  V30 8081 H 751.25 2.15372 3.27295 0
M  V30 8082 H 752.947 2.51523 3.12309 0
M  V30 8083 H 749.537 3.6499 2.24678 0
M  V30 8084 H 753.721 4.57548 1.92258 0
M  V30 8085 H 748.977 5.92575 1.50547 0
M  V30 8086 H 753.151 6.86149 1.19048 0
M  V30 8087 H 750.778 7.53904 0.97637 0
M  V30 8088 N 752.353 -0.854086 1.3245 0
M  V30 8089 C 753.286 -1.96654 1.15768 0
M  V30 8090 C 754.264 -1.625 0.0569975 0
M  V30 8091 O 755.448 -1.87254 0.216412 0
M  V30 8092 C 752.575 -3.29776 0.772361 0
M  V30 8093 C 751.621 -3.82909 1.87837 0
M  V30 8094 S 752.454 -4.0643 3.48675 0
M  V30 8095 C 753.61 -5.42526 3.12116 0
M  V30 8096 H 753.843 -2.10504 2.09942 0
M  V30 8097 H 751.376 -1.00612 1.17118 0
M  V30 8098 H 753.334 -4.06706 0.556809 0
M  V30 8099 H 751.995 -3.13739 -0.150519 0
M  V30 8100 H 751.188 -4.79192 1.56177 0
M  V30 8101 H 750.79 -3.12825 2.0498 0
M  V30 8102 H 753.082 -6.24792 2.61996 0
M  V30 8103 H 754.025 -5.79148 4.07422 0
M  V30 8104 H 754.433 -5.06556 2.49121 0
M  V30 8105 N 753.831 -1.1567 -1.07043 0
M  V30 8106 C 755.056 -0.957946 -1.83952 0
M  V30 8107 C 755.481 0.488807 -1.81638 0
M  V30 8108 O 754.839 1.34869 -1.21162 0
M  V30 8109 C 754.887 -1.48064 -3.288 0
M  V30 8110 O 753.991 -0.681921 -4.06723 0
M  V30 8111 H 753.332 -0.341453 -0.569479 0
M  V30 8112 H 755.862 -1.53728 -1.35015 0
M  V30 8113 H 755.872 -1.49484 -3.7963 0
M  V30 8114 H 754.547 -2.53388 -3.29799 0
M  V30 8115 H 753.124 -0.737612 -3.65532 0
M  V30 8116 N 755.309 1.25446 -0.953992 0
M  V30 8117 C 756.239 2.28264 -0.491717 0
M  V30 8118 C 757.22 1.63717 0.461617 0
M  V30 8119 O 758.405 1.90821 0.36071 0
M  V30 8120 C 755.535 3.46525 0.231915 0
M  V30 8121 C 754.489 4.23247 -0.636098 0
M  V30 8122 C 753.815 5.34254 0.218238 0
M  V30 8123 C 755.115 4.85971 -1.91389 0
M  V30 8124 H 756.809 2.67183 -1.35106 0
M  V30 8125 H 754.355 1.2844 -0.651095 0
M  V30 8126 H 756.308 4.17576 0.566439 0
M  V30 8127 H 755.032 3.06594 1.12551 0
M  V30 8128 H 753.691 3.53978 -0.953696 0
M  V30 8129 H 753.339 4.90564 1.11156 0
M  V30 8130 H 753.039 5.86501 -0.359232 0
M  V30 8131 H 754.563 6.08138 0.547743 0
M  V30 8132 H 755.977 5.49168 -1.64581 0
M  V30 8133 H 754.374 5.48391 -2.43696 0
M  V30 8134 H 755.444 4.08192 -2.61738 0
M  V30 8135 N 756.787 0.722489 1.40064 0
M  V30 8136 C 758.035 0.264455 2.00362 0
M  V30 8137 C 758.356 -1.14847 1.57592 0
M  V30 8138 O 757.626 -1.77982 0.818477 0
M  V30 8139 H 756.206 0.0947846 0.740962 0
M  V30 8140 H 758.868 0.929659 1.71299 0
M  V30 8141 H 757.964 0.302977 3.10626 0
M  V30 8142 N 758.265 -1.50454 0.469181 0
M  V30 8143 C 759.514 -2.01507 -0.0881425 0
M  V30 8144 C 759.827 -1.35613 -1.40956 0
M  V30 8145 O 761.033 -1.77812 -2.05171 0
M  V30 8146 C 759.489 -3.59301 -0.207596 0
M  V30 8147 C 759.097 -4.34152 1.10527 0
M  V30 8148 C 760.841 -4.18401 -0.716981 0
M  V30 8149 C 758.748 -5.83725 0.949717 0
M  V30 8150 H 757.678 -0.753106 -0.0367156 0
M  V30 8151 H 760.329 -1.73282 0.603788 0
M  V30 8152 H 758.711 -3.84106 -0.963265 0
M  V30 8153 H 759.885 -4.21073 1.87175 0
M  V30 8154 H 758.2 -3.86652 1.54562 0
M  V30 8155 H 760.797 -5.27895 -0.850363 0
M  V30 8156 H 761.14 -3.79657 -1.70782 0
M  V30 8157 H 761.673 -3.97796 -0.0187511 0
M  V30 8158 H 758.412 -6.26938 1.91387 0
M  V30 8159 H 757.932 -5.99383 0.223591 0
M  V30 8160 H 759.611 -6.44065 0.61557 0
M  V30 8161 N 759.743 -0.201713 -1.56304 0
M  V30 8162 C 760.968 0.443815 -2.02596 0
M  V30 8163 C 761.393 1.53945 -1.08086 0
M  V30 8164 O 760.751 1.81182 -0.0655056 0
M  V30 8165 C 760.799 0.971066 -3.47279 0
M  V30 8166 O 759.903 2.0836 -3.55893 0
M  V30 8167 H 759.244 0.10294 -0.655972 0
M  V30 8168 H 761.774 -0.314533 -2.02168 0
M  V30 8169 H 761.784 1.28598 -3.87204 0
M  V30 8170 H 760.459 0.169048 -4.15556 0
M  V30 8171 H 759.036 1.77683 -3.27846 0
M  V30 8172 N 761.222 1.57436 0.0718424 0
M  V30 8173 C 762.471 1.86431 0.769826 0
M  V30 8174 C 762.784 0.794355 1.78744 0
M  V30 8175 O 763.99 0.972148 2.53499 0
M  V30 8176 C 762.446 3.307 1.42006 0
M  V30 8177 C 762.054 4.45824 0.441017 0
M  V30 8178 C 763.798 3.68894 2.10041 0
M  V30 8179 C 761.705 5.81134 1.09717 0
M  V30 8180 H 760.635 0.695474 0.291259 0
M  V30 8181 H 763.286 1.83485 0.0231224 0
M  V30 8182 H 761.668 3.28257 2.21502 0
M  V30 8183 H 762.842 4.59659 -0.32413 0
M  V30 8184 H 761.157 4.16181 -0.134886 0
M  V30 8185 H 763.754 4.67281 2.59908 0
M  V30 8186 H 764.097 2.98692 2.89981 0
M  V30 8187 H 764.63 3.73326 1.37376 0
M  V30 8188 H 761.369 6.54628 0.338095 0
M  V30 8189 H 760.889 5.711 1.83317 0
M  V30 8190 H 762.568 6.26468 1.617 0
M  V30 8191 N 762.7 -0.34323 1.53817 0
M  V30 8192 C 763.633 -1.44472 1.76644 0
M  V30 8193 C 764.611 -1.50498 0.615556 0
M  V30 8194 O 765.795 -1.6821 0.850751 0
M  V30 8195 C 762.922 -2.82705 1.86536 0
M  V30 8196 C 761.968 -2.94302 3.08688 0
M  V30 8197 S 762.801 -2.60739 4.67735 0
M  V30 8198 C 763.957 -4.01079 4.80506 0
M  V30 8199 H 764.19 -1.24893 2.69794 0
M  V30 8200 H 761.723 -0.538915 1.4469 0
M  V30 8201 H 763.681 -3.62342 1.92921 0
M  V30 8202 H 762.342 -2.9958 0.943975 0
M  V30 8203 H 761.535 -3.95593 3.12286 0
M  V30 8204 H 761.137 -2.22614 3.00531 0
M  V30 8205 H 763.429 -4.95603 4.61935 0
M  V30 8206 H 764.372 -4.02475 5.82597 0
M  V30 8207 H 764.78 -3.89119 4.08958 0
M  V30 8208 N 764.178 -1.45556 -0.604258 0
M  V30 8209 C 765.427 -1.49019 -1.35928 0
M  V30 8210 C 765.74 -0.137409 -1.95117 0
M  V30 8211 O 766.946 -0.0497032 -2.71455 0
M  V30 8212 C 765.402 -2.62477 -2.46239 0
M  V30 8213 C 765.01 -4.04082 -1.93447 0
M  V30 8214 C 766.754 -2.7519 -3.23219 0
M  V30 8215 C 764.661 -5.08917 -3.0126 0
M  V30 8216 H 763.591 -0.554518 -0.510907 0
M  V30 8217 H 766.242 -1.71705 -0.647262 0
M  V30 8218 H 764.624 -2.3308 -3.2014 0
M  V30 8219 H 765.798 -4.43173 -1.26232 0
M  V30 8220 H 764.113 -3.95849 -1.29201 0
M  V30 8221 H 766.71 -3.50683 -4.0364 0
M  V30 8222 H 767.053 -1.81941 -3.74437 0
M  V30 8223 H 767.586 -3.04129 -2.56418 0
M  V30 8224 H 764.325 -6.03886 -2.54955 0
M  V30 8225 H 763.845 -4.74393 -3.67031 0
M  V30 8226 H 765.524 -5.33814 -3.65584 0
M  V30 8227 N 765.656 0.84705 -1.32902 0
M  V30 8228 C 766.603 1.95624 -1.22473 0
M  V30 8229 C 767.573 1.65767 -0.105178 0
M  V30 8230 O 768.758 1.88704 -0.282042 0
M  V30 8231 C 765.898 3.31434 -0.961542 0
M  V30 8232 C 765.011 3.73741 -2.1666 0
M  V30 8233 C 764.146 4.98379 -1.83825 0
M  V30 8234 C 763.185 5.33199 -3.00609 0
M  V30 8235 N 762.322 6.49014 -2.67816 0
M  V30 8236 H 767.162 2.03875 -2.17345 0
M  V30 8237 H 764.699 0.997764 -1.08088 0
M  V30 8238 H 766.657 4.09663 -0.789411 0
M  V30 8239 H 765.287 3.22762 -0.0495938 0
M  V30 8240 H 764.339 2.91102 -2.44875 0
M  V30 8241 H 765.651 3.95462 -3.03993 0
M  V30 8242 H 764.805 5.84336 -1.63208 0
M  V30 8243 H 763.544 4.78611 -0.937172 0
M  V30 8244 H 762.549 4.4575 -3.21849 0
M  V30 8245 H 763.774 5.5492 -3.9146 0
M  V30 8246 H 761.72 6.30748 -1.80258 0
M  V30 8247 H 761.637 6.7079 -3.48679 0
M  V30 8248 H 762.905 7.38103 -2.50647 0
M  V30 8249 N 767.134 1.16236 1.06428 0
M  V30 8250 C 768.081 0.86769 2.13869 0
M  V30 8251 C 769.051 -0.183298 1.65086 0
M  V30 8252 O 770.236 -0.0488002 1.90738 0
M  V30 8253 C 767.376 0.373427 3.43074 0
M  V30 8254 C 766.489 1.48708 4.05598 0
M  V30 8255 C 765.624 0.947977 5.22673 0
M  V30 8256 C 764.663 2.03793 5.77178 0
M  V30 8257 N 763.8 1.51451 6.85571 0
M  V30 8258 H 768.64 1.78781 2.38414 0
M  V30 8259 H 766.177 0.891892 1.16977 0
M  V30 8260 H 768.135 0.0685035 4.17144 0
M  V30 8261 H 766.765 -0.509752 3.1875 0
M  V30 8262 H 765.817 1.908 3.29089 0
M  V30 8263 H 767.129 2.30964 4.42105 0
M  V30 8264 H 766.283 0.596154 6.03764 0
M  V30 8265 H 765.022 0.0947081 4.87608 0
M  V30 8266 H 764.027 2.39847 4.94726 0
M  V30 8267 H 765.252 2.89514 6.14295 0
M  V30 8268 H 763.198 0.683755 6.52427 0
M  V30 8269 H 763.115 2.27325 7.21013 0
M  V30 8270 H 764.383 1.19123 7.70344 0
M  V30 8271 N 768.612 -1.24939 0.960631 0
M  V30 8272 C 770.023 -1.74701 0.658529 0
M  V30 8273 C 770.374 -1.77967 -0.825959 0
M  V30 8274 O 769.499 -1.40444 -1.64634 0
M  V30 8275 C 770.094 -3.17263 1.18867 0
M  V30 8276 C 768.653 -3.64561 0.936614 0
M  V30 8277 C 767.8 -2.43423 1.32817 0
M  V30 8278 H 770.751 -1.10741 1.13676 0
M  V30 8279 H 770.772 -3.76481 0.551589 0
M  V30 8280 H 770.284 -3.14854 2.26912 0
M  V30 8281 H 768.385 -3.72378 -0.128608 0
M  V30 8282 H 768.498 -4.52392 1.57729 0
M  V30 8283 H 766.862 -2.43513 0.746548 0
M  V30 8284 H 767.645 -2.437 2.41796 0
M  V30 8285 N 770.09 -0.729906 -1.39679 0
M  V30 8286 C 771.022 -0.0470588 -2.29152 0
M  V30 8287 C 772.035 0.708808 -1.4656 0
M  V30 8288 O 773.224 0.553815 -1.69691 0
M  V30 8289 C 770.324 0.957612 -3.25089 0
M  V30 8290 C 769.497 0.264321 -4.36601 0
M  V30 8291 C 768.556 1.17638 -5.12882 0
M  V30 8292 O 767.582 0.655777 -5.6541 0
M  V30 8293 N 768.784 2.50649 -5.23598 0
M  V30 8294 H 771.549 -0.815364 -2.88395 0
M  V30 8295 H 769.11 -0.578707 -1.51204 0
M  V30 8296 H 771.102 1.57026 -3.72995 0
M  V30 8297 H 769.672 1.62716 -2.66912 0
M  V30 8298 H 768.892 -0.528732 -3.90638 0
M  V30 8299 H 770.18 -0.216344 -5.0834 0
M  V30 8300 H 769.578 2.95427 -4.82431 0
M  V30 8301 H 768.135 3.07022 -5.74961 0
M  V30 8302 N 771.568 1.50203 -0.477153 0
M  V30 8303 C 772.515 2.28656 0.31386 0
M  V30 8304 C 773.485 1.33977 0.981802 0
M  V30 8305 O 774.67 1.62919 0.993072 0
M  V30 8306 C 771.81 3.16027 1.38639 0
M  V30 8307 C 770.923 4.25743 0.732615 0
M  V30 8308 C 770.058 5.00363 1.78355 0
M  V30 8309 C 769.097 6.01945 1.11035 0
M  V30 8310 N 768.234 6.6982 2.10441 0
M  V30 8311 H 773.074 2.958 -0.361445 0
M  V30 8312 H 770.611 1.45867 -0.190093 0
M  V30 8313 H 772.569 3.6504 2.01994 0
M  V30 8314 H 771.199 2.50917 2.03077 0
M  V30 8315 H 770.251 3.80398 -0.0136546 0
M  V30 8316 H 771.563 4.98393 0.201513 0
M  V30 8317 H 770.717 5.53124 2.49276 0
M  V30 8318 H 769.456 4.27432 2.34847 0
M  V30 8319 H 768.461 5.48438 0.386797 0
M  V30 8320 H 769.686 6.76851 0.552248 0
M  V30 8321 H 767.632 5.99677 2.65939 0
M  V30 8322 H 767.549 7.38366 1.62332 0
M  V30 8323 H 768.817 7.27196 2.80724 0
M  V30 8324 N 773.046 0.209999 1.56195 0
M  V30 8325 C 774.271 -0.433064 2.02828 0
M  V30 8326 C 774.696 -1.5337 1.08901 0
M  V30 8327 O 774.054 -1.81144 0.0751132 0
M  V30 8328 C 774.102 -0.952635 3.47789 0
M  V30 8329 O 773.206 -2.0647 3.56993 0
M  V30 8330 H 772.547 -0.0994594 0.656509 0
M  V30 8331 H 775.077 0.32525 2.01998 0
M  V30 8332 H 775.087 -1.26542 3.8788 0
M  V30 8333 H 773.762 -0.147007 4.1564 0
M  V30 8334 H 772.339 -1.75942 3.28784 0
M  V30 8335 N 774.524 -1.57472 -0.0634922 0
M  V30 8336 C 775.471 -2.04258 -1.07457 0
M  V30 8337 C 776.441 -0.924804 -1.37973 0
M  V30 8338 O 777.626 -1.19305 -1.48899 0
M  V30 8339 C 774.766 -2.49832 -2.38071 0
M  V30 8340 C 773.879 -3.75263 -2.14014 0
M  V30 8341 C 773.014 -4.09585 -3.38251 0
M  V30 8342 C 772.053 -5.28032 -3.09594 0
M  V30 8343 N 771.19 -5.57953 -4.26185 0
M  V30 8344 H 776.03 -2.90402 -0.668626 0
M  V30 8345 H 773.567 -1.43609 -0.318572 0
M  V30 8346 H 775.525 -2.7431 -3.14341 0
M  V30 8347 H 774.155 -1.66654 -2.76453 0
M  V30 8348 H 773.207 -3.58075 -1.28399 0
M  V30 8349 H 774.519 -4.61667 -1.88852 0
M  V30 8350 H 773.673 -4.35008 -4.2291 0
M  V30 8351 H 772.412 -3.21765 -3.66495 0
M  V30 8352 H 771.417 -5.02397 -2.23332 0
M  V30 8353 H 772.642 -6.17477 -2.82663 0
M  V30 8354 H 770.588 -4.73092 -4.54445 0
M  V30 8355 H 770.505 -6.38793 -4.04326 0
M  V30 8356 H 771.773 -5.87931 -5.11817 0
M  V30 8357 N 776.003 0.335068 -1.53997 0
M  V30 8358 C 777.414 0.910191 -1.6301 0
M  V30 8359 C 777.765 1.89271 -0.516809 0
M  V30 8360 O 776.89 2.13516 0.352123 0
M  V30 8361 C 777.485 1.65761 -2.9548 0
M  V30 8362 C 776.044 2.18163 -3.06728 0
M  V30 8363 C 775.191 1.00338 -2.5851 0
M  V30 8364 H 778.142 0.112965 -1.58297 0
M  V30 8365 H 778.163 2.52107 -2.84995 0
M  V30 8366 H 777.675 0.94227 -3.76488 0
M  V30 8367 H 775.776 2.92847 -2.30372 0
M  V30 8368 H 775.889 2.43952 -4.1234 0
M  V30 8369 H 774.253 1.37925 -2.14124 0
M  V30 8370 H 775.036 0.30254 -3.41964 0
M  V30 8371 N 777.481 1.45874 0.596531 0
M  V30 8372 C 778.729 1.5017 1.35253 0
M  V30 8373 C 779.05 0.149246 1.94428 0
M  V30 8374 O 778.32 -0.82268 1.77789 0
M  V30 8375 H 776.9 0.553052 0.502138 0
M  V30 8376 H 779.562 1.81908 0.699671 0
M  V30 8377 H 778.658 2.24671 2.16632 0
M  V30 8378 N 778.959 -0.83999 1.33349 0
M  V30 8379 C 780.205 -1.59753 1.24927 0
M  V30 8380 C 780.538 -1.93318 -0.184855 0
M  V30 8381 O 779.813 -1.586 -1.12589 0
M  V30 8382 C 780.096 -2.90829 2.12345 0
M  V30 8383 C 779.949 -2.63953 3.6421 0
M  V30 8384 C 781.268 -3.92246 1.99577 0
M  V30 8385 H 778.387 -0.579654 0.45516 0
M  V30 8386 H 781.029 -0.968909 1.63439 0
M  V30 8387 H 779.179 -3.44478 1.79631 0
M  V30 8388 H 780.851 -2.16745 4.07209 0
M  V30 8389 H 779.094 -1.97671 3.86146 0
M  V30 8390 H 779.765 -3.57348 4.20721 0
M  V30 8391 H 782.241 -3.479 2.28265 0
M  V30 8392 H 781.117 -4.81793 2.62996 0
M  V30 8393 H 781.378 -4.3138 0.967673 0
M  V30 8394 N 780.437 -1.16799 -1.0581 0
M  V30 8395 C 781.684 -0.952524 -1.78699 0
M  V30 8396 C 782.012 0.51931 -1.87439 0
M  V30 8397 O 781.267 1.40151 -1.36587 0
M  V30 8398 C 781.566 -1.53111 -3.22942 0
M  V30 8399 C 781.232 -3.0261 -3.34273 0
M  V30 8400 C 779.894 -3.43418 -3.37072 0
M  V30 8401 C 782.246 -3.98611 -3.35795 0
M  V30 8402 C 779.574 -4.78838 -3.39015 0
M  V30 8403 C 781.926 -5.33923 -3.39277 0
M  V30 8404 C 780.59 -5.74205 -3.40361 0
M  V30 8405 H 779.86 -0.348553 -0.653905 0
M  V30 8406 H 782.507 -1.45591 -1.244 0
M  V30 8407 H 780.812 -0.949286 -3.80126 0
M  V30 8408 H 782.509 -1.34002 -3.77948 0
M  V30 8409 H 779.099 -2.70075 -3.32803 0
M  V30 8410 H 783.283 -3.68146 -3.32839 0
M  V30 8411 H 778.539 -5.09369 -3.38161 0
M  V30 8412 H 782.713 -6.08094 -3.39403 0
M  V30 8413 H 780.34 -6.79117 -3.4162 0
M  V30 8414 N 781.915 1.24427 -0.967243 0
M  V30 8415 C 783.14 1.9708 -0.646069 0
M  V30 8416 C 783.565 1.71272 0.777665 0
M  V30 8417 O 782.923 0.976179 1.52776 0
M  V30 8418 C 782.971 3.48501 -0.926266 0
M  V30 8419 O 782.075 4.12398 -0.0114653 0
M  V30 8420 H 781.416 0.617423 -0.244304 0
M  V30 8421 H 783.946 1.58215 -1.29727 0
M  V30 8422 H 783.956 3.98885 -0.857619 0
M  V30 8423 H 782.631 3.66613 -1.96386 0
M  V30 8424 H 781.208 3.72661 -0.133396 0
M  V30 8425 N 783.393 0.737304 1.3929 0
M  V30 8426 C 784.64 0.286257 2.00467 0
M  V30 8427 C 784.968 -1.1272 1.58507 0
M  V30 8428 O 784.223 -1.7832 0.806257 0
M  V30 8429 C 784.522 0.338438 3.55794 0
M  V30 8430 C 784.188 1.70524 4.17411 0
M  V30 8431 C 782.85 2.07934 4.33955 0
M  V30 8432 C 785.202 2.60256 4.51571 0
M  V30 8433 C 782.53 3.34578 4.81948 0
M  V30 8434 C 784.882 3.86275 5.00974 0
M  V30 8435 C 783.546 4.23774 5.15725 0
M  V30 8436 H 782.816 0.104749 0.733559 0
M  V30 8437 H 785.463 0.944598 1.66582 0
M  V30 8438 H 783.768 -0.403478 3.89717 0
M  V30 8439 H 785.465 -0.0287255 4.0099 0
M  V30 8440 H 782.055 1.40439 4.04938 0
M  V30 8441 H 786.239 2.32624 4.38406 0
M  V30 8442 H 781.495 3.63572 4.91554 0
M  V30 8443 H 785.669 4.5596 5.26378 0
M  V30 8444 H 783.296 5.21972 5.52674 0
M  V30 8445 N 784.871 -1.49948 0.485112 0
M  V30 8446 C 785.801 -2.31675 -0.291364 0
M  V30 8447 C 786.782 -1.39216 -0.977383 0
M  V30 8448 O 787.967 -1.68133 -0.971855 0
M  V30 8449 C 785.097 -3.19326 -1.36558 0
M  V30 8450 C 784.051 -4.2045 -0.800359 0
M  V30 8451 C 783.377 -4.96931 -1.97391 0
M  V30 8452 C 784.677 -5.21925 0.197867 0
M  V30 8453 H 786.371 -2.96839 0.390775 0
M  V30 8454 H 783.917 -1.42749 0.189375 0
M  V30 8455 H 785.87 -3.75304 -1.91638 0
M  V30 8456 H 784.594 -2.52074 -2.07668 0
M  V30 8457 H 783.253 -3.65594 -0.271428 0
M  V30 8458 H 782.901 -4.26141 -2.67232 0
M  V30 8459 H 782.601 -5.65344 -1.60187 0
M  V30 8460 H 784.125 -5.55749 -2.52935 0
M  V30 8461 H 785.539 -5.72691 -0.264239 0
M  V30 8462 H 783.936 -5.98138 0.484908 0
M  V30 8463 H 785.006 -4.71809 1.11912 0
M  V30 8464 N 786.349 -0.21828 -1.56081 0
M  V30 8465 C 787.626 0.463143 -1.90038 0
M  V30 8466 C 788.006 1.77982 -1.13515 0
M  V30 8467 O 787.354 2.27199 -0.24345 0
M  V30 8468 C 787.564 0.659292 -3.42716 0
M  V30 8469 C 788.912 0.968203 -4.13414 0
M  V30 8470 O 789.936 0.746195 -3.48296 0
M  V30 8471 O 788.795 1.38936 -5.28544 0
M  V30 8472 H 785.889 0.244435 -0.790051 0
M  V30 8473 H 788.435 -0.260221 -1.67693 0
M  V30 8474 H 787.207 -0.269584 -3.9037 0
M  V30 8475 H 786.83 1.43426 -3.7083 0
M  V30 8476 N 787.827 1.57504 0.0551401 0
M  V30 8477 C 789.238 1.76626 0.604979 0
M  V30 8478 C 789.589 0.845978 1.77024 0
M  V30 8479 O 788.714 0.0341936 2.16373 0
M  V30 8480 C 789.309 3.203 1.10425 0
M  V30 8481 C 787.868 3.4071 1.59981 0
M  V30 8482 C 787.015 2.72258 0.526414 0
M  V30 8483 H 789.966 1.57775 -0.171072 0
M  V30 8484 H 789.987 3.25377 1.97256 0
M  V30 8485 H 789.499 3.87255 0.255939 0
M  V30 8486 H 787.6 2.78892 2.47083 0
M  V30 8487 H 787.713 4.49227 1.66528 0
M  V30 8488 H 786.077 2.35283 0.97539 0
M  V30 8489 H 786.86 3.41879 -0.311991 0
M  V30 8490 N 789.305 -0.326896 1.54172 0
M  V30 8491 C 790.235 -1.40741 1.86317 0
M  V30 8492 C 791.216 -1.54125 0.719684 0
M  V30 8493 O 792.401 -1.6806 0.973117 0
M  V30 8494 C 789.531 -2.77557 2.08757 0
M  V30 8495 C 788.485 -2.78965 3.24596 0
M  V30 8496 C 787.811 -4.18824 3.32401 0
M  V30 8497 C 789.111 -2.4301 4.62324 0
M  V30 8498 H 790.805 -1.14088 2.76811 0
M  V30 8499 H 788.351 -0.547389 1.3319 0
M  V30 8500 H 790.304 -3.53209 2.29829 0
M  V30 8501 H 789.028 -3.0568 1.15009 0
M  V30 8502 H 787.687 -2.05767 3.03406 0
M  V30 8503 H 787.335 -4.44083 2.36218 0
M  V30 8504 H 787.035 -4.20673 4.10253 0
M  V30 8505 H 788.559 -4.96294 3.55703 0
M  V30 8506 H 789.973 -3.08375 4.83299 0
M  V30 8507 H 788.37 -2.56116 5.42701 0
M  V30 8508 H 789.44 -1.38165 4.64799 0
M  V30 8509 N 790.784 -1.46188 -0.588786 0
M  V30 8510 C 791.747 -1.55882 -1.68029 0
M  V30 8511 C 792.747 -0.436515 -1.54762 0
M  V30 8512 O 793.937 -0.700626 -1.59489 0
M  V30 8513 C 791.069 -1.47332 -3.07418 0
M  V30 8514 H 792.262 -2.5315 -1.60795 0
M  V30 8515 H 789.815 -1.33908 -0.806116 0
M  V30 8516 H 790.55 -0.513193 -3.20214 0
M  V30 8517 H 790.335 -2.28753 -3.18456 0
M  V30 8518 H 791.825 -1.57187 -3.86887 0
M  V30 8519 N 792.262 0.832906 -1.33792 0
M  V30 8520 C 793.492 1.61813 -1.28453 0
M  V30 8521 C 793.9 1.88639 0.145595 0
M  V30 8522 O 793.243 1.47122 1.10004 0
M  V30 8523 C 793.305 2.98929 -1.99704 0
M  V30 8524 C 792.969 2.95045 -3.48995 0
M  V30 8525 C 793.966 2.70337 -4.44088 0
M  V30 8526 C 791.651 3.14993 -3.91261 0
M  V30 8527 C 793.645 2.65612 -5.79421 0
M  V30 8528 C 791.332 3.09893 -5.26697 0
M  V30 8529 C 792.33 2.85235 -6.20588 0
M  V30 8530 O 792.018 2.8005 -7.53543 0
M  V30 8531 H 791.75 0.510013 -0.443693 0
M  V30 8532 H 794.304 1.04514 -1.76822 0
M  V30 8533 H 792.534 3.58106 -1.45935 0
M  V30 8534 H 794.223 3.59849 -1.87786 0
M  V30 8535 H 794.989 2.54671 -4.12756 0
M  V30 8536 H 790.868 3.33204 -3.18584 0
M  V30 8537 H 794.412 2.46285 -6.52679 0
M  V30 8538 H 790.309 3.2511 -5.5765 0
M  V30 8539 H 791.077 2.95849 -7.63162 0
M  V30 8540 N 793.74 1.17359 1.05189 0
M  V30 8541 C 794.65 0.904984 2.16442 0
M  V30 8542 C 795.666 -0.12686 1.73537 0
M  V30 8543 O 796.842 0.0524127 2.01332 0
M  V30 8544 C 793.907 0.422019 3.44122 0
M  V30 8545 C 792.968 1.52045 4.01473 0
M  V30 8546 C 792.201 1.06044 5.23059 0
M  V30 8547 O 792.424 -0.0854023 5.70336 0
M  V30 8548 O 791.358 1.85349 5.72651 0
M  V30 8549 H 795.184 1.8356 2.41949 0
M  V30 8550 H 792.769 0.95447 1.14936 0
M  V30 8551 H 794.651 0.160208 4.21095 0
M  V30 8552 H 793.326 -0.480444 3.20115 0
M  V30 8553 H 792.233 1.83615 3.25939 0
M  V30 8554 H 793.566 2.39863 4.29798 0
M  V30 8555 N 795.218 -1.23913 0.973828 0
M  V30 8556 C 796.467 -1.91455 0.63464 0
M  V30 8557 C 796.78 -1.76893 -0.834759 0
M  V30 8558 O 797.986 -2.3918 -1.28473 0
M  V30 8559 C 796.442 -3.43172 1.08447 0
M  V30 8560 C 796.05 -3.66409 2.57776 0
M  V30 8561 C 797.794 -4.1653 0.818721 0
M  V30 8562 C 795.701 -5.11728 2.9646 0
M  V30 8563 H 794.631 -0.716881 0.233661 0
M  V30 8564 H 797.282 -1.40457 1.18085 0
M  V30 8565 H 795.664 -3.93242 0.466524 0
M  V30 8566 H 796.838 -3.26913 3.24753 0
M  V30 8567 H 795.153 -3.06349 2.82027 0
M  V30 8568 H 797.75 -5.23603 1.08367 0
M  V30 8569 H 798.093 -4.15578 -0.245128 0
M  V30 8570 H 798.626 -3.72428 1.39793 0
M  V30 8571 H 795.365 -5.17806 4.01941 0
M  V30 8572 H 794.885 -5.52199 2.34172 0
M  V30 8573 H 796.564 -5.80009 2.86703 0
M  V30 8574 N 796.696 -0.74468 -1.38897 0
M  V30 8575 C 797.942 -0.306249 -2.01081 0
M  V30 8576 C 798.297 1.09724 -1.58046 0
M  V30 8577 O 797.59 1.73923 -0.803834 0
M  V30 8578 C 797.784 -0.357302 -3.55609 0
M  V30 8579 C 797.613 -1.76421 -4.13649 0
M  V30 8580 C 796.383 -2.3787 -4.4581 0
M  V30 8581 C 798.581 -2.71942 -4.36523 0
M  V30 8582 N 796.563 -3.70614 -4.89406 0
M  V30 8583 C 797.934 -3.89437 -4.8243 0
M  V30 8584 C 799.989 -2.69579 -4.18607 0
M  V30 8585 C 798.692 -5.04917 -5.123 0
M  V30 8586 C 800.718 -3.8421 -4.49596 0
M  V30 8587 C 800.08 -5.00442 -4.95719 0
M  V30 8588 H 796.179 -0.158531 -0.765762 0
M  V30 8589 H 798.763 -0.972726 -1.6866 0
M  V30 8590 H 796.934 0.278865 -3.87398 0
M  V30 8591 H 798.666 0.100599 -4.04575 0
M  V30 8592 H 795.421 -1.8971 -4.33943 0
M  V30 8593 H 795.845 -4.38791 -5.1555 0
M  V30 8594 H 800.487 -1.80905 -3.82143 0
M  V30 8595 H 798.205 -5.94213 -5.47665 0
M  V30 8596 H 801.791 -3.83691 -4.37347 0
M  V30 8597 H 800.671 -5.87671 -5.19242 0
M  V30 8598 N 798.174 1.49689 -0.493057 0
M  V30 8599 C 799.107 2.25712 0.336062 0
M  V30 8600 C 800.085 1.29953 0.977294 0
M  V30 8601 O 801.269 1.59225 1.00895 0
M  V30 8602 C 798.396 3.0501 1.47263 0
M  V30 8603 C 797.442 4.15863 0.946575 0
M  V30 8604 S 798.275 5.35272 -0.156323 0
M  V30 8605 C 799.431 6.18123 0.983601 0
M  V30 8606 H 799.664 2.95688 -0.309215 0
M  V30 8607 H 797.197 1.51872 -0.278238 0
M  V30 8608 H 799.155 3.51284 2.12391 0
M  V30 8609 H 797.816 2.34519 2.08949 0
M  V30 8610 H 797.009 4.70834 1.7981 0
M  V30 8611 H 796.611 3.72139 0.372647 0
M  V30 8612 H 798.903 6.50588 1.89056 0
M  V30 8613 H 799.846 7.06521 0.472687 0
M  V30 8614 H 800.254 5.50547 1.24735 0
M  V30 8615 N 799.652 0.226554 1.55963 0
M  V30 8616 C 800.892 -0.405574 2.00336 0
M  V30 8617 C 801.256 -1.56593 1.11097 0
M  V30 8618 O 802.457 -2.26441 1.44838 0
M  V30 8619 C 800.728 -0.82435 3.47763 0
M  V30 8620 S 802.287 -1.44988 4.14154 0
M  V30 8621 H 799.105 -0.128512 0.699289 0
M  V30 8622 H 801.707 0.337017 1.92573 0
M  V30 8623 H 800.411 0.0297636 4.10389 0
M  V30 8624 H 799.942 -1.59963 3.5941 0
M  V30 8625 H 801.957 -2.73897 4.13757 0
M  V30 8626 N 801.13 -1.57531 -0.0467866 0
M  V30 8627 C 802.379 -1.87632 -0.740069 0
M  V30 8628 C 802.692 -0.822691 -1.77457 0
M  V30 8629 O 803.898 -1.01235 -2.5192 0
M  V30 8630 C 802.354 -3.32917 -1.36727 0
M  V30 8631 C 801.962 -4.46469 -0.370035 0
M  V30 8632 C 803.706 -3.72189 -2.04146 0
M  V30 8633 C 801.613 -5.82806 -1.00457 0
M  V30 8634 H 800.543 -0.70002 -0.280158 0
M  V30 8635 H 803.194 -1.83499 0.00607151 0
M  V30 8636 H 801.576 -3.31739 -2.16252 0
M  V30 8637 H 802.75 -4.59085 0.397217 0
M  V30 8638 H 801.065 -4.15914 0.201079 0
M  V30 8639 H 803.662 -4.71357 -2.52441 0
M  V30 8640 H 804.005 -3.03268 -2.85192 0
M  V30 8641 H 804.538 -3.75465 -1.3142 0
M  V30 8642 H 801.277 -6.55083 -0.233907 0
M  V30 8643 H 800.797 -5.73944 -1.74209 0
M  V30 8644 H 802.476 -6.28961 -1.51713 0
M  V30 8645 N 802.608 0.318715 -1.54344 0
M  V30 8646 C 803.854 1.05765 -1.73037 0
M  V30 8647 C 804.187 1.87514 -0.505181 0
M  V30 8648 O 803.462 1.88021 0.497838 0
M  V30 8649 C 803.745 1.97836 -3.00887 0
M  V30 8650 C 803.598 1.19384 -4.33668 0
M  V30 8651 C 804.917 2.97285 -3.24514 0
M  V30 8652 H 802.036 0.383104 -0.629603 0
M  V30 8653 H 804.678 0.333864 -1.87044 0
M  V30 8654 H 802.828 2.59552 -2.89076 0
M  V30 8655 H 804.5 0.600906 -4.57369 0
M  V30 8656 H 802.743 0.496198 -4.30953 0
M  V30 8657 H 803.414 1.87014 -5.19355 0
M  V30 8658 H 805.89 2.45693 -3.35819 0
M  V30 8659 H 804.766 3.58887 -4.15321 0
M  V30 8660 H 805.027 3.70003 -2.41971 0
M  V30 8661 N 804.086 1.46499 0.581025 0
M  V30 8662 C 805.333 1.51896 1.33918 0
M  V30 8663 C 805.661 0.171361 1.93744 0
M  V30 8664 O 804.916 -0.833178 1.77078 0
M  V30 8665 C 805.215 2.56686 2.48691 0
M  V30 8666 C 804.881 4.00656 2.06847 0
M  V30 8667 C 803.543 4.39852 1.9515 0
M  V30 8668 C 805.895 4.91089 1.74589 0
M  V30 8669 C 803.223 5.67345 1.49456 0
M  V30 8670 C 805.575 6.1902 1.30373 0
M  V30 8671 C 804.239 6.57121 1.17255 0
M  V30 8672 H 803.509 0.555826 0.490039 0
M  V30 8673 H 806.156 1.79983 0.654092 0
M  V30 8674 H 804.461 2.22266 3.22653 0
M  V30 8675 H 806.158 2.58091 3.06904 0
M  V30 8676 H 802.748 3.69674 2.16886 0
M  V30 8677 H 806.932 4.61523 1.8251 0
M  V30 8678 H 802.188 5.95635 1.37944 0
M  V30 8679 H 806.362 6.8852 1.04467 0
M  V30 8680 H 803.989 7.55805 0.816236 0
M  V30 8681 N 805.565 -0.825799 1.34232 0
M  V30 8682 C 806.528 -1.91808 1.25468 0
M  V30 8683 C 807.528 -1.59893 0.170567 0
M  V30 8684 O 808.718 -1.68986 0.422996 0
M  V30 8685 C 805.85 -3.27786 0.93644 0
M  V30 8686 H 807.043 -2.01003 2.22571 0
M  V30 8687 H 804.596 -1.01944 1.18479 0
M  V30 8688 H 805.331 -3.24285 -0.0315408 0
M  V30 8689 H 805.116 -3.52333 1.72057 0
M  V30 8690 H 806.606 -4.07782 0.900214 0
M  V30 8691 N 807.043 -1.17915 -1.04565 0
M  V30 8692 C 808.273 -0.994716 -1.81077 0
M  V30 8693 C 808.681 0.460146 -1.83519 0
M  V30 8694 O 808.024 1.33136 -1.26572 0
M  V30 8695 C 808.086 -1.46698 -3.28207 0
M  V30 8696 C 807.75 -2.94523 -3.49436 0
M  V30 8697 C 808.747 -3.92414 -3.41038 0
M  V30 8698 C 806.432 -3.32841 -3.76194 0
M  V30 8699 C 808.426 -5.2662 -3.59096 0
M  V30 8700 C 806.113 -4.67212 -3.93899 0
M  V30 8701 C 807.111 -5.6391 -3.8535 0
M  V30 8702 O 806.799 -6.95849 -4.02554 0
M  V30 8703 H 806.531 -0.351797 -0.577248 0
M  V30 8704 H 809.085 -1.56772 -1.32709 0
M  V30 8705 H 807.315 -0.837592 -3.7752 0
M  V30 8706 H 809.004 -1.24724 -3.86263 0
M  V30 8707 H 809.77 -3.64157 -3.20336 0
M  V30 8708 H 805.649 -2.58139 -3.81949 0
M  V30 8709 H 809.193 -6.02082 -3.52339 0
M  V30 8710 H 805.09 -4.95172 -4.14095 0
M  V30 8711 H 805.858 -7.02679 -4.19743 0
M  V30 8712 N 808.521 1.23394 -0.980386 0
M  V30 8713 C 809.77 1.91116 -0.644785 0
M  V30 8714 C 810.083 1.77333 0.825367 0
M  V30 8715 O 811.289 2.39858 1.27203 0
M  V30 8716 C 809.745 3.42592 -1.10266 0
M  V30 8717 C 809.353 3.65037 -2.59715 0
M  V30 8718 C 811.097 4.1609 -0.8408 0
M  V30 8719 C 809.004 5.10148 -2.9917 0
M  V30 8720 H 807.934 0.715632 -0.23746 0
M  V30 8721 H 810.585 1.39829 -1.18828 0
M  V30 8722 H 808.967 3.92989 -0.487372 0
M  V30 8723 H 810.141 3.25186 -3.26482 0
M  V30 8724 H 808.456 3.04849 -2.83647 0
M  V30 8725 H 811.053 5.23021 -1.11143 0
M  V30 8726 H 811.396 4.15702 0.223085 0
M  V30 8727 H 811.929 3.71681 -1.41767 0
M  V30 8728 H 808.668 5.15668 -4.04682 0
M  V30 8729 H 808.188 5.50949 -2.37097 0
M  V30 8730 H 809.867 5.7848 -2.89775 0
M  V30 8731 N 809.999 0.752036 1.385 0
M  V30 8732 C 811.247 0.306895 1.99756 0
M  V30 8733 C 811.568 -1.11478 1.59992 0
M  V30 8734 O 810.838 -1.76206 0.856045 0
M  V30 8735 H 809.418 0.11048 0.738785 0
M  V30 8736 H 812.08 0.965785 1.69289 0
M  V30 8737 H 811.176 0.368797 3.09913 0
M  V30 8738 N 811.477 -1.49425 0.500989 0
M  V30 8739 C 812.723 -2.02753 -0.0436 0
M  V30 8740 C 813.056 -1.37991 -1.36646 0
M  V30 8741 O 812.331 -0.515597 -1.87542 0
M  V30 8742 C 812.614 -3.59565 -0.19616 0
M  V30 8743 C 812.467 -4.34855 1.14982 0
M  V30 8744 C 813.786 -4.30014 -0.936795 0
M  V30 8745 H 810.905 -0.73686 -0.0143711 0
M  V30 8746 H 813.547 -1.78448 0.652397 0
M  V30 8747 H 811.697 -3.80405 -0.788959 0
M  V30 8748 H 813.369 -4.25512 1.7815 0
M  V30 8749 H 811.612 -3.97414 1.73911 0
M  V30 8750 H 812.283 -5.42933 0.996385 0
M  V30 8751 H 814.759 -4.1383 -0.434036 0
M  V30 8752 H 813.635 -5.39483 -1.01238 0
M  V30 8753 H 813.896 -3.95257 -1.9805 0
M  V30 8754 N 812.955 -0.234822 -1.55841 0
M  V30 8755 C 814.18 0.400741 -2.03492 0
M  V30 8756 C 814.605 1.51618 -1.11327 0
M  V30 8757 O 813.963 1.81002 -0.103922 0
M  V30 8758 C 814.011 0.897184 -3.49261 0
M  V30 8759 O 813.115 2.00764 -3.60233 0
M  V30 8760 H 812.456 0.0890023 -0.658008 0
M  V30 8761 H 814.986 -0.357345 -2.01455 0
M  V30 8762 H 814.996 1.20356 -3.89844 0
M  V30 8763 H 813.671 0.0808639 -4.15821 0
M  V30 8764 H 812.248 1.70689 -3.31541 0
M  V30 8765 N 814.433 1.57553 0.0384317 0
M  V30 8766 C 815.679 1.89121 0.732199 0
M  V30 8767 C 816.012 0.831404 1.75503 0
M  V30 8768 O 815.287 -0.154642 1.93884 0
M  V30 8769 C 815.57 3.31338 1.41021 0
M  V30 8770 C 815.423 4.48004 0.401532 0
M  V30 8771 C 816.742 3.72318 2.34665 0
M  V30 8772 H 813.861 0.687819 0.264715 0
M  V30 8773 H 816.503 1.89999 -0.00496279 0
M  V30 8774 H 814.653 3.3072 2.03854 0
M  V30 8775 H 816.325 4.60755 -0.224159 0
M  V30 8776 H 814.568 4.32895 -0.280092 0
M  V30 8777 H 815.239 5.44377 0.91423 0
M  V30 8778 H 817.715 3.74243 1.81883 0
M  V30 8779 H 816.591 4.72652 2.7909 0
M  V30 8780 H 816.852 3.04062 3.20934 0
M  V30 8781 N 815.911 -0.310526 1.54511 0
M  V30 8782 C 817.157 -1.04846 1.73595 0
M  V30 8783 C 817.49 -1.87244 0.515118 0
M  V30 8784 O 816.765 -1.88282 -0.48786 0
M  V30 8785 C 817.048 -1.96237 3.01932 0
M  V30 8786 C 816.901 -1.17082 4.34295 0
M  V30 8787 C 818.22 -2.9556 3.26086 0
M  V30 8788 H 815.339 -0.37976 0.631626 0
M  V30 8789 H 817.981 -0.32394 1.87218 0
M  V30 8790 H 816.131 -2.58015 2.90449 0
M  V30 8791 H 817.803 -0.576643 4.57682 0
M  V30 8792 H 816.046 -0.473336 4.3121 0
M  V30 8793 H 816.717 -1.84257 5.20339 0
M  V30 8794 H 819.193 -2.43908 3.37117 0
M  V30 8795 H 818.069 -3.5668 4.17218 0
M  V30 8796 H 818.33 -3.68715 2.4393 0
M  V30 8797 N 817.389 -1.46805 -0.573248 0
M  V30 8798 C 818.319 -1.60951 -1.69165 0
M  V30 8799 C 819.3 -0.45948 -1.63777 0
M  V30 8800 O 820.485 -0.68688 -1.81647 0
M  V30 8801 C 817.615 -1.60844 -3.07809 0
M  V30 8802 C 816.569 -2.74913 -3.28035 0
M  V30 8803 C 815.895 -2.59871 -4.67302 0
M  V30 8804 C 817.195 -4.16654 -3.14955 0
M  V30 8805 H 818.889 -2.54574 -1.57582 0
M  V30 8806 H 816.435 -1.22516 -0.756686 0
M  V30 8807 H 818.388 -1.69334 -3.85881 0
M  V30 8808 H 817.112 -0.637714 -3.20314 0
M  V30 8809 H 815.771 -2.65908 -2.52366 0
M  V30 8810 H 815.419 -1.60861 -4.76585 0
M  V30 8811 H 815.119 -3.36386 -4.81786 0
M  V30 8812 H 816.643 -2.70265 -5.4753 0
M  V30 8813 H 818.057 -4.26721 -3.82861 0
M  V30 8814 H 816.454 -4.93831 -3.40956 0
M  V30 8815 H 817.524 -4.36146 -2.11908 0
M  V30 8816 N 818.867 0.818669 -1.34668 0
M  V30 8817 C 820.114 1.57512 -1.27264 0
M  V30 8818 C 820.442 1.93871 0.156254 0
M  V30 8819 O 819.697 1.60582 1.11857 0
M  V30 8820 C 819.996 2.88245 -2.11304 0
M  V30 8821 C 819.662 2.71159 -3.60255 0
M  V30 8822 C 818.324 2.66207 -4.00858 0
M  V30 8823 C 820.676 2.54538 -4.54819 0
M  V30 8824 C 818.004 2.4256 -5.34211 0
M  V30 8825 C 820.356 2.32421 -5.88356 0
M  V30 8826 C 819.02 2.25884 -6.28118 0
M  V30 8827 H 818.29 0.576378 -0.465692 0
M  V30 8828 H 820.937 0.9469 -1.66451 0
M  V30 8829 H 819.242 3.55381 -1.64958 0
M  V30 8830 H 820.939 3.45869 -2.02919 0
M  V30 8831 H 817.529 2.75856 -3.28027 0
M  V30 8832 H 821.713 2.57384 -4.24343 0
M  V30 8833 H 816.969 2.35959 -5.64033 0
M  V30 8834 H 821.143 2.18548 -6.61218 0
M  V30 8835 H 818.77 2.07322 -7.31383 0
M  V30 8836 N 820.346 1.18468 1.03938 0
M  V30 8837 C 821.276 0.936389 2.13902 0
M  V30 8838 C 822.257 -0.126381 1.6963 0
M  V30 8839 O 823.442 0.0264757 1.94182 0
M  V30 8840 C 820.572 0.462729 3.44204 0
M  V30 8841 C 819.526 1.46613 4.02105 0
M  V30 8842 C 818.852 0.84994 5.27902 0
M  V30 8843 C 820.152 2.84323 4.3813 0
M  V30 8844 H 821.846 1.85602 2.3493 0
M  V30 8845 H 819.392 0.893806 1.12903 0
M  V30 8846 H 821.345 0.276382 4.20493 0
M  V30 8847 H 820.069 -0.492477 3.22866 0
M  V30 8848 H 818.728 1.63944 3.27899 0
M  V30 8849 H 818.376 -0.112493 5.02874 0
M  V30 8850 H 818.076 1.51988 5.67603 0
M  V30 8851 H 819.6 0.674152 6.06867 0
M  V30 8852 H 821.014 2.70636 5.054 0
M  V30 8853 H 819.411 3.48012 4.88884 0
M  V30 8854 H 820.481 3.37776 3.47901 0
M  V30 8855 N 821.824 -1.22873 0.986916 0
M  V30 8856 C 823.07 -1.91746 0.660401 0
M  V30 8857 C 823.403 -1.76738 -0.804812 0
M  V30 8858 O 822.678 -1.13246 -1.58131 0
M  V30 8859 C 822.961 -3.44156 1.05966 0
M  V30 8860 C 822.814 -3.68242 2.58298 0
M  V30 8861 C 824.133 -4.35874 0.60842 0
M  V30 8862 H 821.252 -0.696347 0.241391 0
M  V30 8863 H 823.894 -1.44867 1.22937 0
M  V30 8864 H 822.044 -3.84213 0.575534 0
M  V30 8865 H 823.716 -3.37626 3.14335 0
M  V30 8866 H 821.959 -3.12728 3.00638 0
M  V30 8867 H 822.63 -4.74956 2.81285 0
M  V30 8868 H 825.106 -4.03299 1.02417 0
M  V30 8869 H 823.982 -5.41201 0.916142 0
M  V30 8870 H 824.243 -4.39364 -0.491086 0
M  V30 8871 N 823.302 -0.75937 -1.38099 0
M  V30 8872 C 824.527 -0.327859 -2.04792 0
M  V30 8873 C 824.952 1.03752 -1.56899 0
M  V30 8874 O 824.31 1.66235 -0.723581 0
M  V30 8875 C 824.358 -0.366264 -3.58735 0
M  V30 8876 O 823.462 0.637697 -4.0744 0
M  V30 8877 H 822.803 -0.144092 -0.648177 0
M  V30 8878 H 825.333 -1.03211 -1.7666 0
M  V30 8879 H 825.343 -0.219179 -4.07411 0
M  V30 8880 H 824.018 -1.36243 -3.92951 0
M  V30 8881 H 822.595 0.454749 -3.70117 0
M  V30 8882 N 824.78 1.49157 -0.508906 0
M  V30 8883 C 826.196 1.58741 -0.165372 0
M  V30 8884 C 826.396 1.5133 1.33047 0
M  V30 8885 O 825.452 1.39135 2.10707 0
M  V30 8886 C 826.765 2.91217 -0.749194 0
M  V30 8887 C 828.313 3.047 -0.716015 0
M  V30 8888 C 828.788 4.39807 -1.27804 0
M  V30 8889 N 830.279 4.46319 -1.23908 0
M  V30 8890 C 831.014 5.49325 -1.64406 0
M  V30 8891 N 830.51 6.59395 -2.12534 0
M  V30 8892 N 832.303 5.40084 -1.55773 0
M  V30 8893 H 824.454 1.52217 -1.48134 0
M  V30 8894 H 826.717 0.721514 -0.614915 0
M  V30 8895 H 826.423 3.02233 -1.79856 0
M  V30 8896 H 826.297 3.76592 -0.214144 0
M  V30 8897 H 828.684 2.9331 0.324535 0
M  V30 8898 H 828.765 2.2099 -1.2883 0
M  V30 8899 H 828.409 4.5195 -2.31741 0
M  V30 8900 H 828.339 5.2217 -0.681623 0
M  V30 8901 H 830.83 3.67354 -0.886537 0
M  V30 8902 H 831.143 7.34102 -2.41485 0
M  V30 8903 H 829.488 6.60414 -2.16513 0
M  V30 8904 H 832.679 4.52986 -1.17987 0
M  V30 8905 H 832.852 6.20233 -1.87657 0
M  V30 8906 N 826.258 0.243083 1.55714 0
M  V30 8907 C 827.505 -0.38272 1.9885 0
M  V30 8908 C 827.833 -1.58225 1.13115 0
M  V30 8909 O 827.088 -1.94861 0.181067 0
M  V30 8910 C 827.387 -0.839621 3.47398 0
M  V30 8911 C 827.053 0.251737 4.50197 0
M  V30 8912 C 825.715 0.551487 4.78029 0
M  V30 8913 C 828.067 0.988728 5.11736 0
M  V30 8914 C 825.395 1.59237 5.64677 0
M  V30 8915 C 827.747 2.0191 5.99512 0
M  V30 8916 C 826.411 2.32554 6.2568 0
M  V30 8917 H 825.681 -0.140047 0.727645 0
M  V30 8918 H 828.328 0.35011 1.88272 0
M  V30 8919 H 826.633 -1.65159 3.55288 0
M  V30 8920 H 828.33 -1.33404 3.78159 0
M  V30 8921 H 824.92 0.00796741 4.28599 0
M  V30 8922 H 829.104 0.7704 4.90284 0
M  V30 8923 H 824.36 1.83517 5.83208 0
M  V30 8924 H 828.534 2.59511 6.46241 0
M  V30 8925 H 826.161 3.13349 6.92616 0
M  V30 8926 N 827.736 -1.57571 -0.0300757 0
M  V30 8927 C 828.961 -1.93879 -0.736601 0
M  V30 8928 C 829.386 -0.842998 -1.68152 0
M  V30 8929 O 828.744 0.20135 -1.80178 0
M  V30 8930 C 828.792 -3.29247 -1.47066 0
M  V30 8931 O 827.896 -3.21426 -2.58378 0
M  V30 8932 H 827.237 -0.633735 -0.198181 0
M  V30 8933 H 829.767 -2.04595 0.0141485 0
M  V30 8934 H 829.777 -3.64113 -1.84081 0
M  V30 8935 H 828.452 -4.08565 -0.77764 0
M  V30 8936 H 827.029 -2.98189 -2.23914 0
M  V30 8937 N 829.214 0.302327 -1.54673 0
M  V30 8938 C 830.625 0.875409 -1.64904 0
M  V30 8939 C 830.976 1.88132 -0.55684 0
M  V30 8940 O 830.101 2.14215 0.306754 0
M  V30 8941 C 830.696 1.59457 -2.9893 0
M  V30 8942 C 829.255 2.11607 -3.11287 0
M  V30 8943 C 828.402 0.948324 -2.6058 0
M  V30 8944 H 831.353 0.079362 -1.58501 0
M  V30 8945 H 831.374 2.46005 -2.90279 0
M  V30 8946 H 830.886 0.8622 -3.78402 0
M  V30 8947 H 828.987 2.87895 -2.36532 0
M  V30 8948 H 829.1 2.35151 -4.17422 0
M  V30 8949 H 827.464 1.33352 -2.17001 0
M  V30 8950 H 828.247 0.229936 -3.42529 0
M  V30 8951 N 830.692 1.47107 0.565454 0
M  V30 8952 C 831.922 1.56681 1.34664 0
M  V30 8953 C 832.33 0.213011 1.87997 0
M  V30 8954 O 831.673 -0.802629 1.65238 0
M  V30 8955 C 831.735 2.52528 2.55871 0
M  V30 8956 C 831.399 3.98403 2.23883 0
M  V30 8957 C 832.396 4.87125 1.81673 0
M  V30 8958 C 830.081 4.43674 2.35496 0
M  V30 8959 C 832.075 6.19135 1.51494 0
M  V30 8960 C 829.762 5.75714 2.0493 0
M  V30 8961 C 830.76 6.63266 1.62996 0
M  V30 8962 O 830.448 7.92853 1.32813 0
M  V30 8963 H 830.18 0.531967 0.417117 0
M  V30 8964 H 832.734 1.93368 0.692669 0
M  V30 8965 H 830.964 2.10893 3.24131 0
M  V30 8966 H 832.653 2.5232 3.17945 0
M  V30 8967 H 833.419 4.534 1.72201 0
M  V30 8968 H 829.298 3.7574 2.67096 0
M  V30 8969 H 832.842 6.87429 1.1869 0
M  V30 8970 H 828.739 6.08983 2.14031 0
M  V30 8971 H 829.507 8.0528 1.46513 0
M  V30 8972 N 832.17 -0.811516 1.35101 0
M  V30 8973 C 833.08 -1.95475 1.29718 0
M  V30 8974 C 834.096 -1.72813 0.202909 0
M  V30 8975 O 835.272 -1.96725 0.431414 0
M  V30 8976 C 832.337 -3.29975 1.06385 0
M  V30 8977 C 831.398 -3.65566 2.25077 0
M  V30 8978 C 830.631 -4.93648 2.02848 0
M  V30 8979 O 830.854 -5.617 0.992442 0
M  V30 8980 O 829.788 -5.27384 2.90087 0
M  V30 8981 H 833.614 -2.02961 2.25921 0
M  V30 8982 H 831.199 -0.948583 1.15422 0
M  V30 8983 H 833.081 -4.10506 0.951999 0
M  V30 8984 H 831.756 -3.2343 0.132294 0
M  V30 8985 H 830.663 -2.85432 2.41825 0
M  V30 8986 H 831.996 -3.7681 3.16662 0
M  V30 8987 N 833.648 -1.19017 -1.03309 0
M  V30 8988 C 834.894 -1.0017 -1.77024 0
M  V30 8989 C 835.249 0.463062 -1.86744 0
M  V30 8990 O 834.542 1.33937 -1.37009 0
M  V30 8991 C 834.736 -1.59927 -3.19622 0
M  V30 8992 C 834.565 -3.12062 -3.23802 0
M  V30 8993 C 833.335 -3.80932 -3.31992 0
M  V30 8994 C 835.533 -4.0947 -3.1119 0
M  V30 8995 N 833.515 -5.20502 -3.25502 0
M  V30 8996 C 834.886 -5.3561 -3.12285 0
M  V30 8997 C 836.941 -4.00887 -2.95287 0
M  V30 8998 C 835.644 -6.54161 -2.99109 0
M  V30 8999 C 837.67 -5.19042 -2.83459 0
M  V30 9000 C 837.032 -6.44079 -2.85205 0
M  V30 9001 H 833.131 -0.420633 -0.659236 0
M  V30 9002 H 835.715 -1.5092 -1.23009 0
M  V30 9003 H 833.886 -1.11785 -3.71966 0
M  V30 9004 H 835.618 -1.34557 -3.81676 0
M  V30 9005 H 832.373 -3.31702 -3.38039 0
M  V30 9006 H 832.797 -5.93519 -3.25675 0
M  V30 9007 H 837.439 -3.05042 -2.92762 0
M  V30 9008 H 835.157 -7.50196 -3.00386 0
M  V30 9009 H 838.743 -5.14199 -2.72197 0
M  V30 9010 H 837.623 -7.33969 -2.7615 0
M  V30 9011 N 835.127 1.22348 -0.993418 0
M  V30 9012 C 836.077 2.221 -0.515333 0
M  V30 9013 C 837.061 1.55409 0.416762 0
M  V30 9014 O 838.253 1.75317 0.243497 0
M  V30 9015 C 835.382 3.42888 0.168173 0
M  V30 9016 C 834.468 4.16786 -0.784257 0
M  V30 9017 N 834.859 4.67435 -1.93231 0
M  V30 9018 C 833.157 4.41942 -0.600243 0
M  V30 9019 C 833.858 5.23792 -2.53016 0
M  V30 9020 N 832.834 5.12483 -1.8128 0
M  V30 9021 H 836.636 2.58902 -1.39093 0
M  V30 9022 H 834.15 1.38024 -0.855747 0
M  V30 9023 H 836.147 4.13542 0.528069 0
M  V30 9024 H 834.807 3.07598 1.03989 0
M  V30 9025 H 835.818 4.63375 -2.31309 0
M  V30 9026 H 832.495 4.16891 0.225369 0
M  V30 9027 H 833.885 5.73515 -3.50043 0
M  V30 9028 N 836.605 0.766683 1.37694 0
M  V30 9029 C 837.83 0.338715 2.04615 0
M  V30 9030 C 838.255 -1.02918 1.57447 0
M  V30 9031 O 837.613 -1.65849 0.732386 0
M  V30 9032 C 837.661 0.385284 3.58536 0
M  V30 9033 O 836.765 -0.616081 4.07772 0
M  V30 9034 H 836.106 0.147527 0.647404 0
M  V30 9035 H 838.636 1.04146 1.7611 0
M  V30 9036 H 838.646 0.240782 4.07289 0
M  V30 9037 H 837.321 1.38325 3.92223 0
M  V30 9038 H 835.898 -0.435115 3.70353 0
M  V30 9039 N 838.083 -1.48885 0.516809 0
M  V30 9040 C 838.993 -2.33185 -0.257293 0
M  V30 9041 C 840.009 -1.4565 -0.951952 0
M  V30 9042 O 841.185 -1.78651 -0.929834 0
M  V30 9043 C 838.25 -3.21465 -1.29851 0
M  V30 9044 C 837.311 -4.24863 -0.615608 0
M  V30 9045 C 836.544 -5.08925 -1.60722 0
M  V30 9046 O 836.767 -4.9475 -2.83863 0
M  V30 9047 O 835.701 -5.90737 -1.15384 0
M  V30 9048 H 839.527 -3.00596 0.433131 0
M  V30 9049 H 837.112 -1.46792 0.277908 0
M  V30 9050 H 838.994 -3.76108 -1.90055 0
M  V30 9051 H 837.669 -2.5673 -1.97158 0
M  V30 9052 H 836.576 -3.74091 0.0265829 0
M  V30 9053 H 837.909 -4.92198 0.0152871 0
M  V30 9054 N 839.561 -0.251338 -1.55583 0
M  V30 9055 C 840.471 0.656978 -2.25213 0
M  V30 9056 C 841.487 1.18966 -1.26977 0
M  V30 9057 O 842.663 1.22499 -1.59862 0
M  V30 9058 C 839.728 1.83527 -2.94141 0
M  V30 9059 C 838.789 1.34162 -4.07798 0
M  V30 9060 C 838.022 2.46375 -4.73429 0
M  V30 9061 O 838.245 3.65205 -4.38157 0
M  V30 9062 O 837.179 2.15881 -5.61853 0
M  V30 9063 H 841.005 0.0936395 -3.03556 0
M  V30 9064 H 838.59 -0.0196638 -1.49387 0
M  V30 9065 H 840.472 2.52279 -3.3754 0
M  V30 9066 H 839.147 2.38614 -2.18735 0
M  V30 9067 H 838.054 0.621249 -3.68906 0
M  V30 9068 H 839.387 0.836779 -4.85035 0
M  V30 9069 N 841.039 1.57585 0.0217189 0
M  V30 9070 C 842.286 1.89606 0.711045 0
M  V30 9071 C 842.614 0.849535 1.74966 0
M  V30 9072 O 841.869 -0.14856 1.95135 0
M  V30 9073 C 842.168 3.28377 1.41079 0
M  V30 9074 C 841.834 4.48035 0.507454 0
M  V30 9075 C 840.496 4.80504 0.258672 0
M  V30 9076 C 842.848 5.21071 -0.115793 0
M  V30 9077 C 840.176 5.83393 -0.622013 0
M  V30 9078 C 842.528 6.24897 -0.984224 0
M  V30 9079 C 841.192 6.55836 -1.2424 0
M  V30 9080 H 840.462 0.693817 0.26019 0
M  V30 9081 H 843.109 1.91478 -0.0291424 0
M  V30 9082 H 841.414 3.22528 2.22448 0
M  V30 9083 H 843.111 3.50404 1.94982 0
M  V30 9084 H 839.701 4.22653 0.711516 0
M  V30 9085 H 843.885 4.96259 0.0634327 0
M  V30 9086 H 839.141 6.05736 -0.830267 0
M  V30 9087 H 843.315 6.8063 -1.47363 0
M  V30 9088 H 840.942 7.35383 -1.92653 0
M  V30 9089 N 842.517 -0.29412 1.54831 0
M  V30 9090 C 843.427 -1.3854 1.89325 0
M  V30 9091 C 844.443 -1.55127 0.788133 0
M  V30 9092 O 845.619 -1.6966 1.08524 0
M  V30 9093 C 842.684 -2.72809 2.13954 0
M  V30 9094 C 841.745 -2.65148 3.37631 0
M  V30 9095 C 840.978 -3.93014 3.61076 0
M  V30 9096 O 841.201 -4.927 2.87406 0
M  V30 9097 O 840.135 -3.94491 4.54599 0
M  V30 9098 H 843.961 -1.12289 2.82179 0
M  V30 9099 H 841.546 -0.490793 1.41108 0
M  V30 9100 H 843.428 -3.52238 2.31315 0
M  V30 9101 H 842.103 -2.9889 1.24285 0
M  V30 9102 H 841.01 -1.84168 3.25627 0
M  V30 9103 H 842.343 -2.4402 4.27452 0
M  V30 9104 N 843.995 -1.47404 -0.557645 0
M  V30 9105 C 844.905 -1.62491 -1.69216 0
M  V30 9106 C 845.921 -0.507764 -1.66426 0
M  V30 9107 O 847.097 -0.775241 -1.85882 0
M  V30 9108 C 844.162 -1.63511 -3.05721 0
M  V30 9109 C 843.223 -2.86648 -3.1958 0
M  V30 9110 C 842.456 -2.87609 -4.49574 0
M  V30 9111 O 842.679 -1.97799 -5.35006 0
M  V30 9112 O 841.613 -3.79465 -4.67215 0
M  V30 9113 H 845.439 -2.58487 -1.59431 0
M  V30 9114 H 843.024 -1.30485 -0.7276 0
M  V30 9115 H 844.906 -1.66863 -3.86956 0
M  V30 9116 H 843.581 -0.706812 -3.15889 0
M  V30 9117 H 842.488 -2.8884 -2.37744 0
M  V30 9118 H 843.821 -3.7877 -3.14316 0
M  V30 9119 N 845.473 0.80434 -1.35529 0
M  V30 9120 C 846.721 1.55845 -1.28673 0
M  V30 9121 C 847.042 1.94511 0.137976 0
M  V30 9122 O 846.312 1.63775 1.07492 0
M  V30 9123 H 844.892 0.577931 -0.473291 0
M  V30 9124 H 847.554 0.959293 -1.69657 0
M  V30 9125 H 846.65 2.47285 -1.90411 0
M  V30 9126 N 846.951 1.19563 1.02676 0
M  V30 9127 C 848.367 0.948304 1.28372 0
M  V30 9128 C 848.567 -0.378096 1.97921 0
M  V30 9129 O 847.623 -1.1091 2.26838 0
M  V30 9130 C 848.936 2.12381 2.12873 0
M  V30 9131 C 850.484 2.16366 2.26174 0
M  V30 9132 C 850.959 3.33374 3.14048 0
M  V30 9133 N 852.45 3.33323 3.21636 0
M  V30 9134 C 853.185 4.20504 3.89825 0
M  V30 9135 N 852.681 5.17845 4.60227 0
M  V30 9136 N 854.474 4.08375 3.86246 0
M  V30 9137 H 846.625 2.04899 0.559485 0
M  V30 9138 H 848.888 0.89606 0.309484 0
M  V30 9139 H 848.594 3.08383 1.69094 0
M  V30 9140 H 848.468 2.09621 3.1359 0
M  V30 9141 H 850.855 1.20933 2.69182 0
M  V30 9142 H 850.936 2.23179 1.25 0
M  V30 9143 H 850.58 4.29087 2.71747 0
M  V30 9144 H 850.51 3.23798 4.15286 0
M  V30 9145 H 853.001 2.62863 2.71498 0
M  V30 9146 H 853.314 5.80712 5.09896 0
M  V30 9147 H 851.659 5.21791 4.59085 0
M  V30 9148 H 854.85 3.31606 3.30386 0
M  V30 9149 H 855.023 4.76532 4.39114 0
M  V30 9150 N 848.429 -1.21819 0.999893 0
M  V30 9151 C 849.706 -1.86318 0.595384 0
M  V30 9152 C 850.086 -1.8965 -0.927143 0
M  V30 9153 O 849.434 -1.3921 -1.81199 0
M  V30 9154 C 849.644 -3.26837 1.22387 0
M  V30 9155 C 850.992 -4.03272 1.32878 0
M  V30 9156 O 852.016 -3.36129 1.1788 0
M  V30 9157 O 850.875 -5.23477 1.56952 0
M  V30 9158 H 847.969 -0.801638 0.203238 0
M  V30 9159 H 850.515 -1.29542 1.09622 0
M  V30 9160 H 849.287 -3.19084 2.26497 0
M  V30 9161 H 848.91 -3.91226 0.709069 0
M  V30 9162 N 849.908 -0.773975 -1.37286 0
M  V30 9163 C 850.84 -0.119938 -2.28886 0
M  V30 9164 C 851.853 0.661822 -1.48741 0
M  V30 9165 O 853.042 0.499548 -1.71367 0
M  V30 9166 C 850.142 0.853703 -3.27971 0
M  V30 9167 C 849.315 0.125286 -4.37221 0
M  V30 9168 C 848.374 1.01261 -5.16365 0
M  V30 9169 O 847.4 0.475565 -5.6721 0
M  V30 9170 N 848.602 2.33864 -5.31308 0
M  V30 9171 H 851.367 -0.906702 -2.85655 0
M  V30 9172 H 848.928 -0.626519 -1.49286 0
M  V30 9173 H 850.92 1.4508 -3.77801 0
M  V30 9174 H 849.49 1.54142 -2.71954 0
M  V30 9175 H 848.71 -0.652742 -3.88758 0
M  V30 9176 H 849.998 -0.377959 -5.07394 0
M  V30 9177 H 849.396 2.79929 -4.91585 0
M  V30 9178 H 847.953 2.88575 -5.84438 0
M  V30 9179 N 851.386 1.48609 -0.524698 0
M  V30 9180 C 852.614 2.06899 0.00742946 0
M  V30 9181 C 853.029 1.38196 1.28637 0
M  V30 9182 O 852.386 0.467771 1.76403 0
M  V30 9183 C 852.437 3.60699 0.240548 0
M  V30 9184 O 852.158 4.26821 -0.987715 0
M  V30 9185 C 853.659 4.35769 0.813652 0
M  V30 9186 H 850.879 0.670278 -0.0311294 0
M  V30 9187 H 853.423 1.91071 -0.728832 0
M  V30 9188 H 851.578 3.76149 0.926845 0
M  V30 9189 H 851.992 5.18889 -0.765175 0
M  V30 9190 H 853.466 5.44174 0.926219 0
M  V30 9191 H 853.943 3.9984 1.81728 0
M  V30 9192 H 854.549 4.24983 0.164086 0
M  V30 9193 N 852.864 0.259585 1.55447 0
M  V30 9194 C 854.092 -0.365392 2.03648 0
M  V30 9195 C 854.507 -1.50613 1.13847 0
M  V30 9196 O 853.864 -1.81837 0.155414 0
M  V30 9197 C 853.915 -0.861172 3.51093 0
M  V30 9198 O 853.636 0.234121 4.37474 0
M  V30 9199 C 855.137 -1.55555 4.15111 0
M  V30 9200 H 852.357 -0.0853439 0.66555 0
M  V30 9201 H 854.901 0.387151 2.00802 0
M  V30 9202 H 853.056 -1.56385 3.54433 0
M  V30 9203 H 853.47 -0.1444 5.24301 0
M  V30 9204 H 854.944 -1.85403 5.19932 0
M  V30 9205 H 855.421 -2.48185 3.62355 0
M  V30 9206 H 856.027 -0.89712 4.15731 0
M  V30 9207 N 854.342 -1.57594 -0.0133615 0
M  V30 9208 C 855.567 -1.94649 -0.715996 0
M  V30 9209 C 855.992 -0.860786 -1.67249 0
M  V30 9210 O 855.35 0.182228 -1.80382 0
M  V30 9211 C 855.398 -3.30789 -1.43566 0
M  V30 9212 O 854.502 -3.24148 -2.54955 0
M  V30 9213 H 853.843 -0.635801 -0.191449 0
M  V30 9214 H 856.373 -2.04569 0.0358478 0
M  V30 9215 H 856.383 -3.66045 -1.80208 0
M  V30 9216 H 855.058 -4.09367 -0.734263 0
M  V30 9217 H 853.635 -3.00548 -2.20739 0
M  V30 9218 N 855.82 0.285905 -1.54985 0
M  V30 9219 C 857.097 1.0397 -1.65679 0
M  V30 9220 C 857.477 2.04725 -0.514851 0
M  V30 9221 O 856.825 2.23257 0.486663 0
M  V30 9222 C 857.035 1.70807 -3.04345 0
M  V30 9223 C 858.383 2.22447 -3.61666 0
M  V30 9224 O 859.407 1.80815 -3.06895 0
M  V30 9225 O 858.266 2.98773 -4.57599 0
M  V30 9226 H 855.36 0.481473 -0.672394 0
M  V30 9227 H 857.906 0.282789 -1.67327 0
M  V30 9228 H 856.678 0.977271 -3.789 0
M  V30 9229 H 856.301 2.53217 -3.06541 0
M  V30 9230 N 857.298 1.47698 0.54982 0
M  V30 9231 C 858.23 1.56806 1.67166 0
M  V30 9232 C 859.243 0.453709 1.5635 0
M  V30 9233 O 860.432 0.723663 1.63173 0
M  V30 9234 C 857.532 1.4632 3.05686 0
M  V30 9235 C 856.705 2.72452 3.42182 0
M  V30 9236 C 855.764 2.55698 4.59897 0
M  V30 9237 O 854.79 3.29534 4.64108 0
M  V30 9238 N 855.992 1.64009 5.56849 0
M  V30 9239 H 858.757 2.53545 1.59797 0
M  V30 9240 H 856.318 1.44171 0.736635 0
M  V30 9241 H 858.31 1.32835 3.82279 0
M  V30 9242 H 856.88 0.57634 3.07241 0
M  V30 9243 H 856.1 3.00644 2.54964 0
M  V30 9244 H 857.388 3.56172 3.63344 0
M  V30 9245 H 856.786 1.03186 5.5621 0
M  V30 9246 H 855.343 1.56473 6.3274 0
M  V30 9247 N 858.776 -0.797141 1.35954 0
M  V30 9248 C 860.001 -1.59097 1.33053 0
M  V30 9249 C 860.426 -1.87897 -0.0874592 0
M  V30 9250 O 859.784 -1.47291 -1.05712 0
M  V30 9251 C 859.832 -2.89346 2.152 0
M  V30 9252 O 858.936 -3.826 1.5392 0
M  V30 9253 H 858.277 -0.482895 0.45575 0
M  V30 9254 H 860.807 -0.988633 1.79129 0
M  V30 9255 H 860.817 -3.38686 2.27499 0
M  V30 9256 H 859.492 -2.6771 3.18283 0
M  V30 9257 H 858.069 -3.41174 1.50516 0
M  V30 9258 N 860.254 -1.20106 -1.0204 0
M  V30 9259 C 861.202 -0.943231 -2.12617 0
M  V30 9260 C 862.196 0.104042 -1.6908 0
M  V30 9261 O 863.402 -0.0459732 -1.79941 0
M  V30 9262 H 859.777 -0.28767 -0.694802 0
M  V30 9263 H 861.748 -1.88221 -2.3155 0
M  V30 9264 C 860.497 -0.50771 -3.43973 0
M  V30 9265 H 859.82 -1.30514 -3.77897 0
M  V30 9266 H 861.26 -0.366486 -4.22413 0
M  V30 9267 C 859.719 0.77939 -3.27761 0
M  V30 9268 O 860.249 1.83876 -3.57145 0
M  V30 9269 N 858.455 0.739931 -2.81022 0
M  V30 9270 H 858.002 -0.122426 -2.57309 0
M  V30 9271 H 857.96 1.60147 -2.70556 0
M  V30 9272 N 861.732 1.21287 -1.00634 0
M  V30 9273 C 862.642 2.27388 -0.577226 0
M  V30 9274 C 863.658 1.69791 0.380399 0
M  V30 9275 O 864.834 1.99918 0.2439 0
M  V30 9276 C 861.899 3.46588 0.0880532 0
M  V30 9277 C 860.96 4.19453 -0.914222 0
M  V30 9278 C 860.193 5.32962 -0.280596 0
M  V30 9279 O 860.416 5.62895 0.922265 0
M  V30 9280 O 859.35 5.93666 -0.992196 0
M  V30 9281 H 863.176 2.66289 -1.46028 0
M  V30 9282 H 860.761 1.2771 -0.775283 0
M  V30 9283 H 862.643 4.18881 0.460094 0
M  V30 9284 H 861.318 3.09585 0.945461 0
M  V30 9285 H 860.225 3.49376 -1.33744 0
M  V30 9286 H 861.558 4.6037 -1.74126 0
M  V30 9287 N 863.21 0.781244 1.36873 0
M  V30 9288 C 864.457 0.349889 1.99454 0
M  V30 9289 C 864.785 -1.07621 1.62013 0
M  V30 9290 O 864.04 -1.75665 0.86258 0
M  V30 9291 C 864.339 0.45146 3.54537 0
M  V30 9292 C 864.005 1.83718 4.11775 0
M  V30 9293 C 862.667 2.21634 4.2712 0
M  V30 9294 C 865.019 2.7449 4.43063 0
M  V30 9295 C 862.347 3.49742 4.7106 0
M  V30 9296 C 864.699 4.02017 4.88431 0
M  V30 9297 C 863.363 4.39967 5.01982 0
M  V30 9298 H 862.633 0.128033 0.729855 0
M  V30 9299 H 865.28 0.997117 1.63493 0
M  V30 9300 H 863.585 -0.279288 3.90803 0
M  V30 9301 H 865.282 0.0988609 4.00878 0
M  V30 9302 H 861.872 1.53251 4.00265 0
M  V30 9303 H 866.056 2.46453 4.30783 0
M  V30 9304 H 861.312 3.79026 4.79738 0
M  V30 9305 H 865.486 4.72475 5.11605 0
M  V30 9306 H 863.113 5.39291 5.35788 0
M  V30 9307 N 864.689 -1.48329 0.532571 0
M  V30 9308 C 865.937 -2.021 -0.000581206 0
M  V30 9309 C 866.258 -1.4117 -1.34522 0
M  V30 9310 O 865.528 -0.578005 -1.87179 0
M  V30 9311 H 864.108 -0.746993 -0.00320281 0
M  V30 9312 H 866.77 -1.82011 0.696991 0
M  V30 9313 H 865.866 -3.11917 -0.106991 0
M  V30 9314 N 866.167 -0.267825 -1.55308 0
M  V30 9315 C 867.416 0.351635 -1.98611 0
M  V30 9316 C 867.729 1.57522 -1.15957 0
M  V30 9317 O 868.935 2.26717 -1.49371 0
M  V30 9318 C 867.391 0.676986 -3.53475 0
M  V30 9319 C 866.999 -0.526385 -4.44897 0
M  V30 9320 C 868.743 1.25948 -4.05386 0
M  V30 9321 C 866.65 -0.176026 -5.91138 0
M  V30 9322 H 865.58 0.13516 -0.741787 0
M  V30 9323 H 868.231 -0.371333 -1.79704 0
M  V30 9324 H 866.613 1.45866 -3.68156 0
M  V30 9325 H 867.787 -1.30339 -4.41982 0
M  V30 9326 H 866.102 -1.02522 -4.03582 0
M  V30 9327 H 868.699 1.53529 -5.12184 0
M  V30 9328 H 869.042 2.19094 -3.53982 0
M  V30 9329 H 869.575 0.540253 -3.94114 0
M  V30 9330 H 866.314 -1.07518 -6.46622 0
M  V30 9331 H 865.834 0.564363 -5.97139 0
M  V30 9332 H 867.513 0.234365 -6.46575 0
M  V30 9333 N 867.645 1.57599 0.00500368 0
M  V30 9334 C 868.892 1.90349 0.690895 0
M  V30 9335 C 869.22 0.868045 1.74055 0
M  V30 9336 O 868.475 -0.127855 1.95282 0
M  V30 9337 C 868.774 3.29855 1.37588 0
M  V30 9338 C 868.44 4.48548 0.459906 0
M  V30 9339 C 867.102 4.80752 0.207693 0
M  V30 9340 C 869.454 5.20919 -0.171054 0
M  V30 9341 C 866.782 5.82701 -0.683855 0
M  V30 9342 C 869.134 6.23818 -1.05045 0
M  V30 9343 C 867.798 6.54481 -1.31189 0
M  V30 9344 H 867.068 0.696538 0.252816 0
M  V30 9345 H 869.715 1.91436 -0.0494495 0
M  V30 9346 H 868.02 3.24869 2.19015 0
M  V30 9347 H 869.717 3.52452 1.91255 0
M  V30 9348 H 866.307 4.23384 0.666648 0
M  V30 9349 H 870.491 4.96299 0.0107942 0
M  V30 9350 H 865.747 6.04822 -0.894467 0
M  V30 9351 H 869.921 6.79029 -1.54574 0
M  V30 9352 H 867.548 7.33299 -2.00442 0
M  V30 9353 N 869.123 -0.277682 1.55134 0
M  V30 9354 C 870.071 -1.36305 1.88478 0
M  V30 9355 C 871.065 -1.51362 0.760654 0
M  V30 9356 O 872.271 -1.53202 0.944943 0
M  V30 9357 H 868.646 -0.45577 0.598146 0
M  V30 9358 H 870.617 -1.05431 2.79154 0
M  V30 9359 C 869.366 -2.71739 2.16918 0
M  V30 9360 H 868.689 -2.60942 3.02901 0
M  V30 9361 H 870.129 -3.46635 2.44172 0
M  V30 9362 C 868.588 -3.22476 0.975239 0
M  V30 9363 O 869.118 -4.01164 0.207497 0
M  V30 9364 N 867.324 -2.80097 0.774219 0
M  V30 9365 H 866.871 -2.16221 1.40022 0
M  V30 9366 H 866.829 -3.14392 -0.023021 0
M  V30 9367 N 870.601 -1.47988 -0.541979 0
M  V30 9368 C 871.826 -1.59286 -1.32826 0
M  V30 9369 C 872.251 -0.24894 -1.86445 0
M  V30 9370 O 871.609 0.777581 -1.63778 0
M  V30 9371 C 871.657 -2.6334 -2.46343 0
M  V30 9372 O 870.761 -2.19667 -3.49028 0
M  V30 9373 H 870.102 -0.534543 -0.393903 0
M  V30 9374 H 872.632 -1.93885 -0.653427 0
M  V30 9375 H 872.642 -2.84238 -2.92699 0
M  V30 9376 H 871.317 -3.60913 -2.06675 0
M  V30 9377 H 869.894 -2.08932 -3.08872 0
M  V30 9378 N 872.079 0.78992 -1.36375 0
M  V30 9379 C 873.009 1.91683 -1.33341 0
M  V30 9380 C 873.99 1.68861 -0.204965 0
M  V30 9381 O 875.175 1.89982 -0.402531 0
M  V30 9382 C 872.305 3.28696 -1.12143 0
M  V30 9383 C 871.259 3.66041 -2.21806 0
M  V30 9384 C 870.585 5.01399 -1.85751 0
M  V30 9385 C 871.885 3.74677 -3.63888 0
M  V30 9386 H 873.579 1.94478 -2.27637 0
M  V30 9387 H 871.125 0.934271 -1.09578 0
M  V30 9388 H 873.078 4.07151 -1.08656 0
M  V30 9389 H 871.802 3.26287 -0.142974 0
M  V30 9390 H 870.461 2.89883 -2.24418 0
M  V30 9391 H 870.109 4.9551 -0.864817 0
M  V30 9392 H 869.809 5.27355 -2.59173 0
M  V30 9393 H 871.333 5.82274 -1.83819 0
M  V30 9394 H 872.747 4.43324 -3.63506 0
M  V30 9395 H 871.144 4.12118 -4.3621 0
M  V30 9396 H 872.214 2.75795 -3.9883 0
M  V30 9397 N 873.557 1.20646 1.01402 0
M  V30 9398 C 874.803 1.02974 1.75408 0
M  V30 9399 C 875.158 -0.433294 1.87458 0
M  V30 9400 O 874.451 -1.31741 1.39122 0
M  V30 9401 C 874.645 1.64991 3.17037 0
M  V30 9402 C 874.474 3.17174 3.18796 0
M  V30 9403 C 873.244 3.86165 3.2589 0
M  V30 9404 C 875.442 4.14369 3.04636 0
M  V30 9405 N 873.424 5.25614 3.1718 0
M  V30 9406 C 874.795 5.4051 3.03724 0
M  V30 9407 C 876.85 4.05534 2.88872 0
M  V30 9408 C 875.553 6.58836 2.88664 0
M  V30 9409 C 877.579 5.23486 2.75166 0
M  V30 9410 C 876.941 6.48535 2.74922 0
M  V30 9411 H 873.04 0.431068 0.65246 0
M  V30 9412 H 875.624 1.52858 1.20593 0
M  V30 9413 H 873.795 1.17688 3.70141 0
M  V30 9414 H 875.527 1.40612 3.79487 0
M  V30 9415 H 872.282 3.37038 3.32719 0
M  V30 9416 H 872.706 5.98625 3.16192 0
M  V30 9417 H 877.348 3.09661 2.87872 0
M  V30 9418 H 875.066 7.5488 2.88413 0
M  V30 9419 H 878.652 5.18464 2.63982 0
M  V30 9420 H 877.532 7.3827 2.64439 0
M  V30 9421 N 875.035 -1.20752 1.01276 0
M  V30 9422 C 876.282 -1.90021 0.699887 0
M  V30 9423 C 876.61 -1.78604 -0.770113 0
M  V30 9424 O 875.865 -1.16195 -1.57471 0
M  V30 9425 C 876.164 -3.40808 1.07633 0
M  V30 9426 C 875.83 -3.72423 2.54189 0
M  V30 9427 C 874.492 -3.80762 2.94234 0
M  V30 9428 C 876.844 -3.87025 3.49086 0
M  V30 9429 C 874.172 -4.01158 4.28123 0
M  V30 9430 C 876.524 -4.0893 4.82658 0
M  V30 9431 C 875.188 -4.15498 5.22415 0
M  V30 9432 H 874.458 -0.695335 0.256107 0
M  V30 9433 H 877.105 -1.43096 1.27263 0
M  V30 9434 H 875.41 -3.89521 0.421944 0
M  V30 9435 H 877.107 -3.92693 0.811997 0
M  V30 9436 H 873.697 -3.66529 2.22158 0
M  V30 9437 H 877.881 -3.79942 3.19309 0
M  V30 9438 H 873.137 -4.04476 4.58486 0
M  V30 9439 H 877.311 -4.19172 5.56119 0
M  V30 9440 H 874.938 -4.31055 6.26176 0
M  V30 9441 N 876.513 -0.788492 -1.36457 0
M  V30 9442 C 877.738 -0.371224 -2.04051 0
M  V30 9443 C 878.163 1.004 -1.59064 0
M  V30 9444 O 877.521 1.64663 -0.758679 0
M  V30 9445 C 877.569 -0.442275 -3.57877 0
M  V30 9446 O 876.673 0.55113 -4.08701 0
M  V30 9447 H 876.014 -0.157808 -0.644975 0
M  V30 9448 H 878.544 -1.06935 -1.74431 0
M  V30 9449 H 878.554 -0.305548 -4.06854 0
M  V30 9450 H 877.229 -1.44547 -3.89973 0
M  V30 9451 H 875.806 0.37614 -3.70998 0
M  V30 9452 N 877.991 1.48044 -0.54043 0
M  V30 9453 C 878.921 2.32597 0.205178 0
M  V30 9454 C 879.902 1.42748 0.925041 0
M  V30 9455 O 881.087 1.71624 0.908784 0
M  V30 9456 C 878.217 3.24175 1.24612 0
M  V30 9457 C 877.171 4.23131 0.64376 0
M  V30 9458 C 876.497 5.03915 1.78812 0
M  V30 9459 C 877.797 5.20831 -0.39144 0
M  V30 9460 H 879.491 2.95184 -0.500676 0
M  V30 9461 H 877.037 1.41948 -0.242225 0
M  V30 9462 H 878.99 3.82158 1.77576 0
M  V30 9463 H 877.714 2.59608 1.98169 0
M  V30 9464 H 876.373 3.66349 0.135554 0
M  V30 9465 H 876.021 4.35765 2.51232 0
M  V30 9466 H 875.721 5.709 1.39094 0
M  V30 9467 H 877.245 5.64753 2.32134 0
M  V30 9468 H 878.659 5.73277 0.0515064 0
M  V30 9469 H 877.056 5.95926 -0.706569 0
M  V30 9470 H 878.126 4.6733 -1.29345 0
M  V30 9471 N 879.47 0.276058 1.55163 0
M  V30 9472 C 880.718 -0.339782 1.99223 0
M  V30 9473 C 881.039 -1.56307 1.16589 0
M  V30 9474 O 880.309 -1.94225 0.25564 0
M  V30 9475 H 878.889 -0.128534 0.735859 0
M  V30 9476 H 881.551 0.381612 1.91128 0
M  V30 9477 H 880.647 -0.629 3.05696 0
M  V30 9478 N 880.948 -1.576 0.00335426 0
M  V30 9479 C 881.911 -2.07576 -0.971838 0
M  V30 9480 C 882.911 -0.985796 -1.27038 0
M  V30 9481 O 884.101 -1.24833 -1.21501 0
M  V30 9482 C 881.233 -2.52003 -2.29581 0
M  V30 9483 H 882.426 -2.95008 -0.539481 0
M  V30 9484 H 879.979 -1.54381 -0.244186 0
M  V30 9485 H 880.714 -1.67825 -2.77498 0
M  V30 9486 H 880.499 -3.31609 -2.09231 0
M  V30 9487 H 881.989 -2.90983 -2.99531 0
M  V30 9488 N 882.426 0.269451 -1.5528 0
M  V30 9489 C 883.673 1.00058 -1.76053 0
M  V30 9490 C 884.001 1.86156 -0.563592 0
M  V30 9491 O 883.256 1.90366 0.453806 0
M  V30 9492 C 883.555 1.91 -3.02082 0
M  V30 9493 C 883.221 1.20623 -4.34466 0
M  V30 9494 C 881.883 1.01165 -4.70446 0
M  V30 9495 C 884.235 0.705695 -5.164 0
M  V30 9496 C 881.563 0.303865 -5.85913 0
M  V30 9497 C 883.915 0.0114838 -6.32599 0
M  V30 9498 C 882.579 -0.19478 -6.67216 0
M  V30 9499 H 881.849 0.366138 -0.644223 0
M  V30 9500 H 884.496 0.272563 -1.8955 0
M  V30 9501 H 882.801 2.70435 -2.835 0
M  V30 9502 H 884.498 2.47698 -3.15352 0
M  V30 9503 H 881.088 1.36781 -4.06188 0
M  V30 9504 H 885.272 0.84364 -4.89077 0
M  V30 9505 H 880.528 0.133368 -6.11255 0
M  V30 9506 H 884.702 -0.384111 -6.9534 0
M  V30 9507 H 882.329 -0.745201 -7.56539 0
M  V30 9508 N 883.904 1.48273 0.534124 0
M  V30 9509 C 884.837 1.57053 1.65559 0
M  V30 9510 C 885.815 0.421213 1.5705 0
M  V30 9511 O 886.999 0.632242 1.77581 0
M  V30 9512 C 884.126 1.49465 3.03937 0
M  V30 9513 C 883.172 2.69186 3.30819 0
M  V30 9514 S 884.005 4.31192 3.17543 0
M  V30 9515 C 885.161 4.26197 4.58375 0
M  V30 9516 H 885.394 2.51927 1.57861 0
M  V30 9517 H 882.927 1.36755 0.716763 0
M  V30 9518 H 884.885 1.45775 3.83745 0
M  V30 9519 H 883.546 0.559357 3.09079 0
M  V30 9520 H 882.739 2.60005 4.31756 0
M  V30 9521 H 882.341 2.70118 2.58674 0
M  V30 9522 H 884.633 3.95874 5.49809 0
M  V30 9523 H 885.576 5.27299 4.72611 0
M  V30 9524 H 885.984 3.56723 4.37503 0
M  V30 9525 N 885.382 -0.782676 1.36792 0
M  V30 9526 C 886.314 -1.9044 1.27536 0
M  V30 9527 C 887.327 -1.61647 0.193426 0
M  V30 9528 O 888.516 -1.72769 0.448692 0
M  V30 9529 C 885.616 -3.2541 0.946641 0
M  V30 9530 C 884.789 -3.81932 2.13183 0
M  V30 9531 C 883.848 -4.95355 1.7751 0
M  V30 9532 O 882.874 -5.11517 2.49678 0
M  V30 9533 N 884.076 -5.76108 0.712755 0
M  V30 9534 H 886.841 -1.98899 2.24186 0
M  V30 9535 H 884.402 -0.96127 1.30274 0
M  V30 9536 H 886.394 -3.98791 0.689043 0
M  V30 9537 H 884.964 -3.12524 0.0690591 0
M  V30 9538 H 884.184 -3.00459 2.55183 0
M  V30 9539 H 885.472 -4.16426 2.92347 0
M  V30 9540 H 884.87 -5.65586 0.113662 0
M  V30 9541 H 883.427 -6.49762 0.514995 0
M  V30 9542 N 886.86 -1.21182 -1.00761 0
M  V30 9543 C 887.792 -0.926523 -2.09638 0
M  V30 9544 C 888.805 0.0892511 -1.62555 0
M  V30 9545 O 889.994 -0.142915 -1.77927 0
M  V30 9546 C 887.094 -0.369175 -3.36883 0
M  V30 9547 C 886.267 -1.43866 -4.13063 0
M  V30 9548 C 885.326 -0.891015 -5.18601 0
M  V30 9549 O 884.352 -1.57384 -5.47009 0
M  V30 9550 N 885.554 0.295057 -5.7975 0
M  V30 9551 H 888.319 -1.8638 -2.34697 0
M  V30 9552 H 885.88 -1.11671 -1.17223 0
M  V30 9553 H 887.872 0.011534 -4.04698 0
M  V30 9554 H 886.442 0.472861 -3.09003 0
M  V30 9555 H 885.662 -1.99332 -3.40089 0
M  V30 9556 H 886.95 -2.15866 -4.60738 0
M  V30 9557 H 886.348 0.8669 -5.59018 0
M  V30 9558 H 884.905 0.617306 -6.4887 0
M  V30 9559 N 888.338 1.20213 -1.01915 0
M  V30 9560 C 889.586 1.89272 -0.708552 0
M  V30 9561 C 889.907 1.79394 0.76438 0
M  V30 9562 O 889.177 1.198 1.54999 0
M  V30 9563 H 887.757 0.700628 -0.259094 0
M  V30 9564 H 890.419 1.45985 -1.29129 0
M  V30 9565 H 889.515 2.95841 -0.994215 0
M  V30 9566 N 889.816 0.795718 1.36037 0
M  V30 9567 C 891.056 0.376514 2.00902 0
M  V30 9568 C 891.42 -1.03405 1.61776 0
M  V30 9569 O 892.621 -1.55468 2.19279 0
M  V30 9570 C 890.892 0.542086 3.53265 0
M  V30 9571 S 892.451 0.211694 4.38289 0
M  V30 9572 H 889.269 0.143527 0.696363 0
M  V30 9573 H 891.871 1.03559 1.65819 0
M  V30 9574 H 890.575 1.56888 3.79229 0
M  V30 9575 H 890.106 -0.132698 3.93176 0
M  V30 9576 H 892.121 -0.98452 4.86335 0
M  V30 9577 N 891.294 -1.47756 0.548274 0
M  V30 9578 C 892.571 -1.9555 -0.0443603 0
M  V30 9579 C 892.951 -1.49079 -1.49462 0
M  V30 9580 O 892.299 -0.725538 -2.16675 0
M  V30 9581 C 892.509 -3.48879 0.0918425 0
M  V30 9582 C 893.857 -4.2456 -0.0580879 0
M  V30 9583 O 894.881 -3.56195 0.018946 0
M  V30 9584 O 893.74 -5.46048 -0.222261 0
M  V30 9585 H 890.834 -0.824106 -0.0691235 0
M  V30 9586 H 893.38 -1.58196 0.614166 0
M  V30 9587 H 892.152 -3.7548 1.10137 0
M  V30 9588 H 891.775 -3.92975 -0.604704 0
M  V30 9589 N 892.772 -0.284283 -1.55015 0
M  V30 9590 C 894.021 0.33055 -1.98973 0
M  V30 9591 C 894.334 1.56284 -1.17621 0
M  V30 9592 O 895.54 2.2512 -1.51767 0
M  V30 9593 C 893.996 0.639457 -3.54174 0
M  V30 9594 C 893.604 -0.573543 -4.44313 0
M  V30 9595 C 895.348 1.21641 -4.06699 0
M  V30 9596 C 893.255 -0.238715 -5.90918 0
M  V30 9597 H 892.185 0.127285 -0.743179 0
M  V30 9598 H 894.836 -0.390372 -1.793 0
M  V30 9599 H 893.218 1.41953 -3.69683 0
M  V30 9600 H 894.392 -1.3502 -4.40575 0
M  V30 9601 H 892.707 -1.06797 -4.02472 0
M  V30 9602 H 895.304 1.48088 -5.13784 0
M  V30 9603 H 895.647 2.15328 -3.56286 0
M  V30 9604 H 896.18 0.498422 -3.94665 0
M  V30 9605 H 892.919 -1.1437 -6.45445 0
M  V30 9606 H 892.439 0.500997 -5.97704 0
M  V30 9607 H 894.118 0.165774 -6.46788 0
M  V30 9608 N 894.251 1.57596 -0.0117121 0
M  V30 9609 C 895.476 1.95764 0.684938 0
M  V30 9610 C 895.901 0.887285 1.65858 0
M  V30 9611 O 895.259 -0.153508 1.80649 0
M  V30 9612 C 895.307 3.33031 1.38285 0
M  V30 9613 O 894.411 3.28163 2.49765 0
M  V30 9614 H 893.752 0.638767 0.181309 0
M  V30 9615 H 896.282 2.04486 -0.0683883 0
M  V30 9616 H 896.292 3.68866 1.74362 0
M  V30 9617 H 894.967 4.10483 0.669043 0
M  V30 9618 H 893.544 3.04021 2.15929 0
M  V30 9619 N 895.729 -0.261212 1.5542 0
M  V30 9620 C 897.14 -0.83138 1.67167 0
M  V30 9621 C 897.491 -1.8659 0.606525 0
M  V30 9622 O 896.616 -2.14953 -0.24985 0
M  V30 9623 C 897.211 -1.51475 3.03052 0
M  V30 9624 C 895.77 -2.0328 3.16787 0
M  V30 9625 C 894.917 -0.878903 2.63003 0
M  V30 9626 H 897.868 -0.0373102 1.58656 0
M  V30 9627 H 897.889 -2.38222 2.96699 0
M  V30 9628 H 897.401 -0.76157 3.80554 0
M  V30 9629 H 895.502 -2.81523 2.44082 0
M  V30 9630 H 895.615 -2.24001 4.2351 0
M  V30 9631 H 893.979 -1.27551 2.2046 0
M  V30 9632 H 894.762 -0.13904 3.43018 0
M  V30 9633 N 897.207 -1.48554 -0.526253 0
M  V30 9634 C 898.623 -1.34757 -0.855138 0
M  V30 9635 C 898.823 -0.36142 -1.98232 0
M  V30 9636 O 897.879 0.216026 -2.51574 0
M  V30 9637 C 899.192 -2.74877 -1.21915 0
M  V30 9638 C 900.74 -2.83393 -1.32882 0
M  V30 9639 C 901.215 -4.24223 -1.72624 0
M  V30 9640 N 902.706 -4.26913 -1.7972 0
M  V30 9641 C 903.441 -5.32824 -2.11863 0
M  V30 9642 N 902.937 -6.49008 -2.42405 0
M  V30 9643 N 904.73 -5.20221 -2.12901 0
M  V30 9644 H 896.881 -2.11284 0.217422 0
M  V30 9645 H 899.144 -0.947367 0.0346362 0
M  V30 9646 H 898.85 -3.48619 -0.464486 0
M  V30 9647 H 898.724 -3.0864 -2.16844 0
M  V30 9648 H 901.111 -2.09904 -2.07424 0
M  V30 9649 H 901.192 -2.53245 -0.360638 0
M  V30 9650 H 900.836 -4.98229 -0.986411 0
M  V30 9651 H 900.766 -4.51817 -2.70498 0
M  V30 9652 H 903.257 -3.4311 -1.58379 0
M  V30 9653 H 903.57 -7.25561 -2.66048 0
M  V30 9654 H 901.915 -6.52277 -2.39917 0
M  V30 9655 H 905.106 -4.28469 -1.885 0
M  V30 9656 H 905.279 -6.02861 -2.37619 0
M  V30 9657 N 898.685 0.775411 -1.37205 0
M  V30 9658 C 899.91 1.5696 -1.35567 0
M  V30 9659 C 900.335 1.88012 0.0575554 0
M  V30 9660 O 899.693 1.48954 1.03355 0
M  V30 9661 C 899.741 2.85886 -2.19776 0
M  V30 9662 O 898.845 3.80103 -1.59987 0
M  V30 9663 H 898.186 0.475583 -0.463375 0
M  V30 9664 H 900.716 0.96001 -1.80679 0
M  V30 9665 H 900.726 3.35024 -2.32859 0
M  V30 9666 H 899.401 2.62613 -3.22502 0
M  V30 9667 H 897.978 3.38736 -1.55924 0
M  V30 9668 N 900.163 1.21714 1.00117 0
M  V30 9669 C 901.093 1.00397 2.10815 0
M  V30 9670 C 902.074 -0.0723502 1.69946 0
M  V30 9671 O 903.259 0.0882398 1.93999 0
M  V30 9672 C 900.389 0.572001 3.42557 0
M  V30 9673 C 899.343 1.59331 3.97237 0
M  V30 9674 C 898.669 1.01746 5.2493 0
M  V30 9675 C 899.969 2.98117 4.28863 0
M  V30 9676 H 901.663 1.92983 2.28906 0
M  V30 9677 H 899.209 0.929273 1.10002 0
M  V30 9678 H 901.162 0.410018 4.19401 0
M  V30 9679 H 899.886 -0.38951 3.24269 0
M  V30 9680 H 898.545 1.74293 3.22518 0
M  V30 9681 H 898.193 0.0475491 5.02978 0
M  V30 9682 H 897.893 1.69969 5.62481 0
M  V30 9683 H 899.417 0.866881 6.04415 0
M  V30 9684 H 900.831 2.86578 4.96534 0
M  V30 9685 H 899.228 3.63389 4.77565 0
M  V30 9686 H 900.298 3.48674 3.36979 0
M  V30 9687 N 901.641 -1.19671 1.02551 0
M  V30 9688 C 902.866 -1.93774 0.739363 0
M  V30 9689 C 903.291 -1.74787 -0.695064 0
M  V30 9690 O 902.649 -1.04796 -1.47944 0
M  V30 9691 C 902.697 -3.43684 1.09149 0
M  V30 9692 O 901.801 -4.11874 0.208213 0
M  V30 9693 H 901.142 -0.605064 0.273484 0
M  V30 9694 H 903.672 -1.51846 1.37128 0
M  V30 9695 H 903.682 -3.94339 1.04695 0
M  V30 9696 H 902.357 -3.56826 2.13654 0
M  V30 9697 H 900.934 -3.716 0.311045 0
M  V30 9698 N 903.119 -0.802921 -1.35613 0
M  V30 9699 C 904.367 -0.380822 -1.9848 0
M  V30 9700 C 904.688 1.05464 -1.6402 0
M  V30 9701 O 903.958 1.72908 -0.920854 0
M  V30 9702 H 902.538 -0.137824 -0.734176 0
M  V30 9703 H 905.2 -1.02795 -1.65587 0
M  V30 9704 H 904.296 -0.483565 -3.08331 0
M  V30 9705 N 904.597 1.47463 -0.556102 0
M  V30 9706 C 906.013 1.58134 -0.21579 0
M  V30 9707 C 906.213 1.55486 1.28166 0
M  V30 9708 O 905.269 1.45768 2.06174 0
M  V30 9709 C 906.582 2.88686 -0.841464 0
M  V30 9710 C 908.13 3.02268 -0.812591 0
M  V30 9711 C 908.605 4.35518 -1.41731 0
M  V30 9712 N 910.096 4.42151 -1.38045 0
M  V30 9713 C 910.831 5.43817 -1.81799 0
M  V30 9714 N 910.327 6.52299 -2.33404 0
M  V30 9715 N 912.12 5.34855 -1.72877 0
M  V30 9716 H 904.271 1.47428 -1.52901 0
M  V30 9717 H 906.534 0.701586 -0.637559 0
M  V30 9718 H 906.24 2.96358 -1.8938 0
M  V30 9719 H 906.114 3.7572 -0.333846 0
M  V30 9720 H 908.501 2.94194 0.231056 0
M  V30 9721 H 908.582 2.16779 -1.35796 0
M  V30 9722 H 908.226 4.44348 -2.46002 0
M  V30 9723 H 908.156 5.19737 -0.847402 0
M  V30 9724 H 910.647 3.64348 -1.00296 0
M  V30 9725 H 910.96 7.26047 -2.64717 0
M  V30 9726 H 909.305 6.53192 -2.37414 0
M  V30 9727 H 912.496 4.49004 -1.32338 0
M  V30 9728 H 912.669 6.13949 -2.07294 0
M  V30 9729 N 906.075 0.2925 1.54862 0
M  V30 9730 C 907.324 -0.319994 1.99146 0
M  V30 9731 C 907.637 -1.55658 1.18448 0
M  V30 9732 O 908.843 -2.24312 1.52959 0
M  V30 9733 C 907.299 -0.620665 3.54508 0
M  V30 9734 C 906.907 0.597098 4.44003 0
M  V30 9735 C 908.651 -1.19482 4.07338 0
M  V30 9736 C 906.558 0.270049 5.90783 0
M  V30 9737 H 905.488 -0.123342 0.743843 0
M  V30 9738 H 908.139 0.399876 1.7909 0
M  V30 9739 H 906.521 -1.3999 3.7043 0
M  V30 9740 H 907.695 1.37354 4.39853 0
M  V30 9741 H 906.01 1.0893 4.019 0
M  V30 9742 H 908.607 -1.45362 5.14562 0
M  V30 9743 H 908.95 -2.13435 3.57423 0
M  V30 9744 H 909.483 -0.477485 3.94924 0
M  V30 9745 H 906.222 1.17791 6.4483 0
M  V30 9746 H 905.742 -0.469292 5.97961 0
M  V30 9747 H 907.421 -0.131471 6.46866 0
M  V30 9748 N 907.553 -1.57587 0.0200696 0
M  V30 9749 C 908.799 -1.91708 -0.661503 0
M  V30 9750 C 909.132 -0.895968 -1.72296 0
M  V30 9751 O 908.407 0.082577 -1.94325 0
M  V30 9752 C 908.69 -3.36344 -1.28627 0
M  V30 9753 C 908.543 -4.49186 -0.234982 0
M  V30 9754 C 909.862 -3.80771 -2.20685 0
M  V30 9755 H 906.981 -0.69717 -0.239005 0
M  V30 9756 H 909.623 -1.8985 0.0754764 0
M  V30 9757 H 907.773 -3.38058 -1.91439 0
M  V30 9758 H 909.445 -4.59606 0.395011 0
M  V30 9759 H 907.688 -4.31557 0.440565 0
M  V30 9760 H 908.359 -5.47395 -0.711558 0
M  V30 9761 H 910.835 -3.80735 -1.67868 0
M  V30 9762 H 909.711 -4.82685 -2.61356 0
M  V30 9763 H 909.972 -3.15764 -3.09428 0
M  V30 9764 N 909.032 0.252966 -1.55557 0
M  V30 9765 C 910.28 0.979912 -1.76754 0
M  V30 9766 C 910.601 1.86083 -0.582944 0
M  V30 9767 O 909.871 1.91742 0.401497 0
M  V30 9768 H 908.451 0.364805 -0.651864 0
M  V30 9769 H 911.113 0.272372 -1.92987 0
M  V30 9770 H 910.209 1.60518 -2.67657 0
M  V30 9771 N 910.51 1.48831 0.518367 0
M  V30 9772 C 911.758 1.57128 1.27103 0
M  V30 9773 C 912.079 0.252098 1.93364 0
M  V30 9774 O 911.349 -0.727281 1.819 0
M  V30 9775 H 909.929 0.578891 0.472116 0
M  V30 9776 H 912.591 1.85361 0.602262 0
M  V30 9777 H 911.687 2.35838 2.04418 0
M  V30 9778 N 911.988 -0.768124 1.37614 0
M  V30 9779 C 913.234 -1.52907 1.33219 0
M  V30 9780 C 913.567 -1.94026 -0.0821218 0
M  V30 9781 O 912.842 -1.64345 -1.04023 0
M  V30 9782 C 913.125 -2.79164 2.27463 0
M  V30 9783 C 912.978 -2.44276 3.7769 0
M  V30 9784 C 914.297 -3.81115 2.20089 0
M  V30 9785 H 911.416 -0.554712 0.485246 0
M  V30 9786 H 914.058 -0.880911 1.68345 0
M  V30 9787 H 912.208 -3.34472 1.97639 0
M  V30 9788 H 913.88 -1.94855 4.18126 0
M  V30 9789 H 912.123 -1.76925 3.96081 0
M  V30 9790 H 912.794 -3.34544 4.39072 0
M  V30 9791 H 915.27 -3.35311 2.46386 0
M  V30 9792 H 914.146 -4.67174 2.88166 0
M  V30 9793 H 914.407 -4.25644 1.19498 0
M  V30 9794 N 913.466 -1.22244 -0.994698 0
M  V30 9795 C 914.712 -1.05752 -1.73747 0
M  V30 9796 C 915.067 0.403416 -1.88123 0
M  V30 9797 O 914.36 1.29511 -1.412 0
M  V30 9798 C 914.554 -1.70014 -3.14372 0
M  V30 9799 C 914.383 -3.22205 -3.1371 0
M  V30 9800 C 913.153 -3.91301 -3.19705 0
M  V30 9801 C 915.351 -4.19163 -2.98005 0
M  V30 9802 N 913.333 -5.30594 -3.08778 0
M  V30 9803 C 914.704 -5.45274 -2.95087 0
M  V30 9804 C 916.759 -4.10078 -2.82383 0
M  V30 9805 C 915.462 -6.63345 -2.78146 0
M  V30 9806 C 917.488 -5.27797 -2.66803 0
M  V30 9807 C 916.85 -6.52826 -2.6457 0
M  V30 9808 H 912.949 -0.441393 -0.64552 0
M  V30 9809 H 915.533 -1.54757 -1.18146 0
M  V30 9810 H 913.704 -1.23562 -3.68221 0
M  V30 9811 H 915.436 -1.46631 -3.77202 0
M  V30 9812 H 912.191 -3.42289 -3.27315 0
M  V30 9813 H 912.615 -6.0358 -3.06628 0
M  V30 9814 H 917.257 -3.14201 -2.82909 0
M  V30 9815 H 914.975 -7.59373 -2.76367 0
M  V30 9816 H 918.561 -5.22598 -2.557 0
M  V30 9817 H 917.441 -7.42383 -2.5266 0
M  V30 9818 N 914.944 1.19125 -1.03184 0
M  V30 9819 C 916.19 1.89428 -0.740857 0
M  V30 9820 C 916.545 1.78302 0.72291 0
M  V30 9821 O 915.838 1.16656 1.51994 0
M  V30 9822 C 916.032 3.39052 -1.13041 0
M  V30 9823 C 915.861 3.64739 -2.6305 0
M  V30 9824 C 914.631 3.82603 -3.30066 0
M  V30 9825 C 916.829 3.66052 -3.61262 0
M  V30 9826 N 914.811 3.95947 -4.69147 0
M  V30 9827 C 916.182 3.85003 -4.85976 0
M  V30 9828 C 918.237 3.49093 -3.55019 0
M  V30 9829 C 916.94 3.88753 -6.05197 0
M  V30 9830 C 918.966 3.54122 -4.73658 0
M  V30 9831 C 918.328 3.73561 -5.97187 0
M  V30 9832 H 914.427 0.71217 -0.323014 0
M  V30 9833 H 917.011 1.43146 -1.31974 0
M  V30 9834 H 915.182 3.8405 -0.579699 0
M  V30 9835 H 916.914 3.96887 -0.791369 0
M  V30 9836 H 913.669 3.81615 -2.80476 0
M  V30 9837 H 914.093 4.06461 -5.41404 0
M  V30 9838 H 918.735 3.33018 -2.60497 0
M  V30 9839 H 916.453 4.03619 -7.00084 0
M  V30 9840 H 920.039 3.42286 -4.70459 0
M  V30 9841 H 918.919 3.7733 -6.87453 0
M  V30 9842 N 916.422 0.810101 1.35185 0
M  V30 9843 C 917.669 0.392117 1.98667 0
M  V30 9844 C 917.997 -1.0416 1.64259 0
M  V30 9845 O 917.252 -1.73795 0.899647 0
M  V30 9846 C 917.551 0.526561 3.535 0
M  V30 9847 C 917.217 1.92411 4.07785 0
M  V30 9848 C 915.879 2.30644 4.22323 0
M  V30 9849 C 918.231 2.83827 4.37141 0
M  V30 9850 C 915.559 3.59655 4.63536 0
M  V30 9851 C 917.911 4.12287 4.79794 0
M  V30 9852 C 916.575 4.50515 4.92536 0
M  V30 9853 H 915.845 0.143486 0.726975 0
M  V30 9854 H 918.492 1.03157 1.61341 0
M  V30 9855 H 916.797 -0.19633 3.91308 0
M  V30 9856 H 918.494 0.183871 4.00578 0
M  V30 9857 H 915.084 1.61707 3.96924 0
M  V30 9858 H 919.268 2.55536 4.25459 0
M  V30 9859 H 914.524 3.89117 4.71591 0
M  V30 9860 H 918.698 4.83221 5.01468 0
M  V30 9861 H 916.325 5.50535 5.24229 0
M  V30 9862 N 917.9 -1.47166 0.563914 0
M  V30 9863 C 919.147 -2.02456 0.042371 0
M  V30 9864 C 919.475 -1.43753 -1.31016 0
M  V30 9865 O 918.73 -0.585287 -1.86743 0
M  V30 9866 C 919.029 -3.57279 -0.0931797 0
M  V30 9867 C 918.695 -4.34932 1.18933 0
M  V30 9868 C 917.357 -4.55867 1.54073 0
M  V30 9869 C 919.709 -4.79665 2.03889 0
M  V30 9870 C 917.037 -5.18785 2.74005 0
M  V30 9871 C 919.389 -5.43907 3.23029 0
M  V30 9872 C 918.053 -5.63074 3.58475 0
M  V30 9873 H 917.323 -0.740838 0.0155047 0
M  V30 9874 H 919.97 -1.76759 0.736776 0
M  V30 9875 H 918.275 -3.82005 -0.870596 0
M  V30 9876 H 919.972 -3.97716 -0.512176 0
M  V30 9877 H 916.562 -4.18921 0.905718 0
M  V30 9878 H 920.746 -4.63264 1.78046 0
M  V30 9879 H 916.002 -5.31818 3.01628 0
M  V30 9880 H 920.176 -5.77531 3.89141 0
M  V30 9881 H 917.803 -6.11598 4.515 0
M  V30 9882 N 919.378 -0.300708 -1.54705 0
M  V30 9883 C 920.606 0.31127 -2.04545 0
M  V30 9884 C 921.021 1.47542 -1.178 0
M  V30 9885 O 920.378 1.81361 -0.203571 0
M  V30 9886 C 920.429 0.767783 -3.53253 0
M  V30 9887 O 920.15 -0.350027 -4.36699 0
M  V30 9888 C 921.651 1.44494 -4.1909 0
M  V30 9889 H 918.871 0.067668 -0.667579 0
M  V30 9890 H 921.415 -0.440254 -1.99705 0
M  V30 9891 H 919.57 1.46933 -3.58454 0
M  V30 9892 H 919.984 0.00534038 -5.245 0
M  V30 9893 H 921.458 1.71553 -5.24665 0
M  V30 9894 H 921.935 2.3849 -3.68808 0
M  V30 9895 H 922.541 0.786581 -4.17963 0
M  V30 9896 N 920.856 1.57574 -0.0284266 0
M  V30 9897 C 921.786 2.1321 0.952039 0
M  V30 9898 C 922.767 1.04806 1.33977 0
M  V30 9899 O 923.952 1.32635 1.41851 0
M  V30 9900 C 921.082 2.65862 2.23461 0
M  V30 9901 C 920.036 3.79047 1.98765 0
M  V30 9902 C 919.362 4.18124 3.33281 0
M  V30 9903 C 920.662 5.05151 1.32739 0
M  V30 9904 H 922.356 2.95385 0.488705 0
M  V30 9905 H 919.902 1.42092 0.233628 0
M  V30 9906 H 921.855 3.03417 2.92431 0
M  V30 9907 H 920.579 1.80848 2.71959 0
M  V30 9908 H 919.238 3.41929 1.32213 0
M  V30 9909 H 918.886 3.30092 3.79537 0
M  V30 9910 H 918.586 4.94396 3.17563 0
M  V30 9911 H 920.11 4.58262 4.0352 0
M  V30 9912 H 921.524 5.40297 1.91708 0
M  V30 9913 H 919.921 5.86416 1.27421 0
M  V30 9914 H 920.991 4.83969 0.300261 0
M  V30 9915 N 922.334 -0.244713 1.55689 0
M  V30 9916 C 923.583 -0.970373 1.76824 0
M  V30 9917 C 923.896 -1.86402 0.592764 0
M  V30 9918 O 925.102 -2.62659 0.687186 0
M  V30 9919 C 923.558 -1.77547 3.13058 0
M  V30 9920 C 923.166 -0.929104 4.3826 0
M  V30 9921 C 924.91 -2.49373 3.43531 0
M  V30 9922 C 922.817 -1.73021 5.65524 0
M  V30 9923 H 921.747 -0.366048 0.659185 0
M  V30 9924 H 924.398 -0.224964 1.82116 0
M  V30 9925 H 922.78 -2.56291 3.01879 0
M  V30 9926 H 923.954 -0.183836 4.60433 0
M  V30 9927 H 922.269 -0.324071 4.15137 0
M  V30 9928 H 924.866 -3.09767 4.35831 0
M  V30 9929 H 925.209 -3.21099 2.64955 0
M  V30 9930 H 925.742 -1.77637 3.55935 0
M  V30 9931 H 922.481 -1.05666 6.46927 0
M  V30 9932 H 922.001 -2.45071 5.47449 0
M  V30 9933 H 923.68 -2.2968 6.0486 0
M  V30 9934 N 923.813 -1.49104 -0.510467 0
M  V30 9935 C 925.062 -1.57362 -1.26175 0
M  V30 9936 C 925.375 -0.261218 -1.93848 0
M  V30 9937 O 926.581 -0.222238 -2.70589 0
M  V30 9938 C 925.037 -2.77606 -2.29048 0
M  V30 9939 C 924.645 -4.15567 -1.67357 0
M  V30 9940 C 926.389 -2.95188 -3.05064 0
M  V30 9941 C 924.296 -5.27046 -2.68285 0
M  V30 9942 H 923.226 -0.585887 -0.474608 0
M  V30 9943 H 925.877 -1.75474 -0.536753 0
M  V30 9944 H 924.259 -2.52968 -3.04669 0
M  V30 9945 H 925.433 -4.50304 -0.977924 0
M  V30 9946 H 923.748 -4.03264 -1.03765 0
M  V30 9947 H 926.345 -3.75643 -3.80521 0
M  V30 9948 H 926.688 -2.05385 -3.62108 0
M  V30 9949 H 927.221 -3.19821 -2.36558 0
M  V30 9950 H 923.96 -6.18878 -2.16034 0
M  V30 9951 H 923.48 -4.96774 -3.36118 0
M  V30 9952 H 925.159 -5.55983 -3.30896 0
M  V30 9953 N 925.291 0.760815 -1.38019 0
M  V30 9954 C 926.54 1.51506 -1.3315 0
M  V30 9955 C 926.853 1.95444 0.0782124 0
M  V30 9956 O 928.059 2.70352 0.249418 0
M  V30 9957 C 926.515 2.73636 -2.33776 0
M  V30 9958 C 926.123 2.36753 -3.80332 0
M  V30 9959 C 927.867 3.51548 -2.37937 0
M  V30 9960 C 925.774 3.55451 -4.72661 0
M  V30 9961 H 924.704 0.568844 -0.494907 0
M  V30 9962 H 927.355 0.832343 -1.63537 0
M  V30 9963 H 925.737 3.43852 -1.96422 0
M  V30 9964 H 926.911 1.7425 -4.26584 0
M  V30 9965 H 925.226 1.71991 -3.7922 0
M  V30 9966 H 927.823 4.39791 -3.04119 0
M  V30 9967 H 928.166 3.9219 -1.39617 0
M  V30 9968 H 928.699 2.88339 -2.74054 0
M  V30 9969 H 925.438 3.19882 -5.7215 0
M  V30 9970 H 924.958 4.17022 -4.31107 0
M  V30 9971 H 926.637 4.22125 -4.90326 0
M  V30 9972 N 926.769 1.22769 0.988202 0
M  V30 9973 C 927.994 1.08239 1.76915 0
M  V30 9974 C 928.419 -0.362519 1.84574 0
M  V30 9975 O 927.777 -1.26202 1.30165 0
M  V30 9976 C 927.825 1.70363 3.17819 0
M  V30 9977 O 926.929 0.960484 4.01059 0
M  V30 9978 H 926.27 0.379872 0.544604 0
M  V30 9979 H 928.8 1.62663 1.24104 0
M  V30 9980 H 928.81 1.7528 3.6843 0
M  V30 9981 H 927.485 2.75505 3.1156 0
M  V30 9982 H 926.062 0.987667 3.59582 0
M  V30 9983 N 928.247 -1.18576 1.03814 0
M  V30 9984 C 929.472 -1.92978 0.759873 0
M  V30 9985 C 929.897 -1.75514 -0.676486 0
M  V30 9986 O 929.255 -1.06359 -1.46824 0
M  V30 9987 C 929.303 -3.42507 1.12788 0
M  V30 9988 O 928.407 -4.1163 0.251886 0
M  V30 9989 H 927.748 -0.602129 0.279886 0
M  V30 9990 H 930.278 -1.50383 1.3873 0
M  V30 9991 H 930.288 -3.93206 1.08872 0
M  V30 9992 H 928.963 -3.5454 2.17427 0
M  V30 9993 H 927.54 -3.7125 0.350441 0
M  V30 9994 N 929.725 -0.817259 -1.34754 0
M  V30 9995 C 930.955 -0.414849 -2.02392 0
M  V30 9996 C 931.363 0.982186 -1.61709 0
M  V30 9997 O 930.706 1.64607 -0.815481 0
M  V30 9998 C 930.768 -0.430981 -3.56907 0
M  V30 9999 C 930.432 -1.78037 -4.20894 0
M  V30 10000 C 931.429 -2.74034 -4.41816 0
M  V30 10001 C 929.114 -2.0673 -4.57786 0
M  V30 10002 C 931.108 -3.96901 -4.98747 0
M  V30 10003 C 928.795 -3.29858 -5.14429 0
M  V30 10004 C 929.793 -4.24761 -5.34853 0
M  V30 10005 O 929.481 -5.45714 -5.90298 0
M  V30 10006 H 929.213 -0.165392 -0.655455 0
M  V30 10007 H 931.767 -1.10524 -1.73129 0
M  V30 10008 H 929.997 0.316074 -3.85406 0
M  V30 10009 H 931.686 -0.0494067 -4.0587 0
M  V30 10010 H 932.452 -2.53161 -4.13684 0
M  V30 10011 H 928.331 -1.33666 -4.41197 0
M  V30 10012 H 931.875 -4.70987 -5.14604 0
M  V30 10013 H 927.772 -3.50597 -5.41989 0
M  V30 10014 H 928.54 -5.47157 -6.08738 0
M  V30 10015 N 931.203 1.46865 -0.571711 0
M  V30 10016 C 932.431 2.06818 -0.0583975 0
M  V30 10017 C 932.846 1.42218 1.24175 0
M  V30 10018 O 932.203 0.523655 1.74826 0
M  V30 10019 C 932.254 3.61281 0.125673 0
M  V30 10020 O 931.975 4.23462 -1.123 0
M  V30 10021 C 933.476 4.38137 0.674604 0
M  V30 10022 H 930.696 0.668948 -0.052438 0
M  V30 10023 H 933.24 1.88656 -0.789251 0
M  V30 10024 H 931.395 3.78908 0.806707 0
M  V30 10025 H 931.809 5.16192 -0.929869 0
M  V30 10026 H 933.283 5.46845 0.752626 0
M  V30 10027 H 933.76 4.05419 1.68915 0
M  V30 10028 H 934.366 4.2529 0.0287979 0
M  V30 10029 N 932.681 0.308908 1.54543 0
M  V30 10030 C 933.644 -0.550857 2.22482 0
M  V30 10031 C 934.644 -1.0551 1.21344 0
M  V30 10032 O 935.834 -0.949866 1.46025 0
M  V30 10033 C 932.966 -1.76354 2.9174 0
M  V30 10034 H 934.159 0.0428395 2.99869 0
M  V30 10035 H 931.712 0.059825 1.56185 0
M  V30 10036 H 932.447 -2.39686 2.18451 0
M  V30 10037 H 932.232 -1.40954 3.65889 0
M  V30 10038 H 933.722 -2.37417 3.43545 0
M  V30 10039 N 934.159 -1.57557 0.0367827 0
M  V30 10040 C 935.107 -2.11844 -0.960454 0
M  V30 10041 C 936.101 -1.04681 -1.33185 0
M  V30 10042 O 937.307 -1.23108 -1.31318 0
M  V30 10043 H 933.682 -0.676921 -0.32754 0
M  V30 10044 H 935.653 -2.94557 -0.477346 0
M  V30 10045 C 934.402 -2.66683 -2.23105 0
M  V30 10046 H 933.725 -3.48795 -1.95403 0
M  V30 10047 H 935.165 -3.08305 -2.91074 0
M  V30 10048 C 933.624 -1.59782 -2.96599 0
M  V30 10049 O 934.154 -1.00214 -3.88999 0
M  V30 10050 N 932.36 -1.31644 -2.59072 0
M  V30 10051 H 931.907 -1.80272 -1.8401 0
M  V30 10052 H 931.865 -0.603457 -3.08554 0
M  V30 10053 N 935.637 0.236453 -1.55816 0
M  V30 10054 C 936.567 1.29639 -1.94206 0
M  V30 10055 C 937.548 1.49667 -0.808319 0
M  V30 10056 O 938.733 1.621 -1.06945 0
M  V30 10057 C 935.863 2.64914 -2.24584 0
M  V30 10058 C 934.817 2.59565 -3.40308 0
M  V30 10059 C 934.143 3.98732 -3.56254 0
M  V30 10060 C 935.443 2.15642 -4.75706 0
M  V30 10061 H 937.137 0.977552 -2.82992 0
M  V30 10062 H 934.683 0.468804 -1.36155 0
M  V30 10063 H 936.636 3.39209 -2.50031 0
M  V30 10064 H 935.36 2.98455 -1.32636 0
M  V30 10065 H 934.019 1.87728 -3.14887 0
M  V30 10066 H 933.667 4.29556 -2.61707 0
M  V30 10067 H 933.367 3.96039 -4.34082 0
M  V30 10068 H 934.891 4.74711 -3.84033 0
M  V30 10069 H 936.305 2.79673 -5.00456 0
M  V30 10070 H 934.702 2.24039 -5.56711 0
M  V30 10071 H 935.772 1.10831 -4.72064 0
M  V30 10072 N 937.115 1.49373 0.502552 0
M  V30 10073 C 938.078 1.65413 1.58654 0
M  V30 10074 C 939.078 0.526003 1.51953 0
M  V30 10075 O 940.268 0.792421 1.55133 0
M  V30 10076 C 937.4 1.65005 2.98306 0
M  V30 10077 H 938.593 2.62095 1.45762 0
M  V30 10078 H 936.146 1.38381 0.726672 0
M  V30 10079 H 936.881 0.699014 3.16677 0
M  V30 10080 H 936.666 2.46931 3.04578 0
M  V30 10081 H 938.156 1.79477 3.77065 0
M  V30 10082 N 938.594 -0.753485 1.38421 0
M  V30 10083 C 939.557 -1.84888 1.35459 0
M  V30 10084 C 940.557 -1.58764 0.255083 0
M  V30 10085 O 941.747 -1.66507 0.511978 0
M  V30 10086 C 938.879 -3.22361 1.10888 0
M  V30 10087 H 940.072 -1.88922 2.32913 0
M  V30 10088 H 937.625 -0.955199 1.23716 0
M  V30 10089 H 938.36 -3.23996 0.1404 0
M  V30 10090 H 938.145 -3.42717 1.90492 0
M  V30 10091 H 939.635 -4.02437 1.1151 0
M  V30 10092 N 940.072 -1.23292 -0.981677 0
M  V30 10093 C 941.319 -1.06424 -1.72279 0
M  V30 10094 C 941.647 0.399055 -1.90362 0
M  V30 10095 O 940.902 1.31181 -1.45224 0
M  V30 10096 C 941.201 -1.73339 -3.12551 0
M  V30 10097 C 940.867 -3.23256 -3.14351 0
M  V30 10098 C 939.529 -3.64159 -3.14549 0
M  V30 10099 C 941.881 -4.1916 -3.09765 0
M  V30 10100 C 939.209 -4.99428 -3.07877 0
M  V30 10101 C 941.561 -5.54419 -3.04635 0
M  V30 10102 C 940.225 -5.94688 -3.03154 0
M  V30 10103 H 939.495 -0.389434 -0.630415 0
M  V30 10104 H 942.142 -1.53208 -1.1489 0
M  V30 10105 H 940.447 -1.18911 -3.73319 0
M  V30 10106 H 942.144 -1.57767 -3.68661 0
M  V30 10107 H 938.734 -2.90693 -3.14953 0
M  V30 10108 H 942.918 -3.88569 -3.08753 0
M  V30 10109 H 938.174 -5.29844 -3.05083 0
M  V30 10110 H 942.348 -6.28448 -3.00043 0
M  V30 10111 H 939.975 -6.99468 -2.97739 0
M  V30 10112 N 941.55 1.18024 -1.04442 0
M  V30 10113 C 942.48 2.23988 -0.659683 0
M  V30 10114 C 943.461 1.6669 0.338904 0
M  V30 10115 O 944.646 1.92971 0.21817 0
M  V30 10116 C 941.776 3.4729 -0.0257672 0
M  V30 10117 C 940.73 4.17362 -0.948299 0
M  V30 10118 C 940.056 5.34401 -0.17866 0
M  V30 10119 C 941.356 4.70435 -2.26909 0
M  V30 10120 H 943.05 2.56425 -1.54553 0
M  V30 10121 H 940.596 1.23256 -0.744575 0
M  V30 10122 H 942.549 4.20627 0.255131 0
M  V30 10123 H 941.273 3.14098 0.894981 0
M  V30 10124 H 939.932 3.45928 -1.21364 0
M  V30 10125 H 939.58 4.97458 0.744614 0
M  V30 10126 H 939.28 5.8222 -0.793294 0
M  V30 10127 H 940.804 6.10526 0.0951315 0
M  V30 10128 H 942.218 5.35447 -2.04864 0
M  V30 10129 H 940.615 5.28803 -2.83703 0
M  V30 10130 H 941.685 3.87653 -2.91296 0
M  V30 10131 N 943.028 0.824394 1.34319 0
M  V30 10132 C 944.256 0.426194 2.02463 0
M  V30 10133 C 944.671 -0.968298 1.62078 0
M  V30 10134 O 944.028 -1.62689 0.82696 0
M  V30 10135 C 944.079 0.520465 3.57734 0
M  V30 10136 O 943.8 1.86 3.96656 0
M  V30 10137 C 945.301 0.117353 4.43145 0
M  V30 10138 H 942.521 0.170864 0.648881 0
M  V30 10139 H 945.065 1.11296 1.71562 0
M  V30 10140 H 943.22 -0.118233 3.8722 0
M  V30 10141 H 943.634 1.83528 4.91343 0
M  V30 10142 H 945.108 0.234395 5.51502 0
M  V30 10143 H 945.585 -0.939271 4.29039 0
M  V30 10144 H 946.191 0.729908 4.1899 0
M  V30 10145 N 944.506 -1.46559 0.579492 0
M  V30 10146 C 945.752 -2.02699 0.0639363 0
M  V30 10147 C 946.085 -1.4504 -1.29139 0
M  V30 10148 O 945.36 -0.614284 -1.84545 0
M  V30 10149 C 945.643 -3.601 -0.00528618 0
M  V30 10150 C 945.496 -4.28149 1.37871 0
M  V30 10151 C 946.815 -4.34375 -0.707537 0
M  V30 10152 H 943.934 -0.736586 0.0247085 0
M  V30 10153 H 946.576 -1.74739 0.746071 0
M  V30 10154 H 944.726 -3.84052 -0.586206 0
M  V30 10155 H 946.398 -4.1547 2.00455 0
M  V30 10156 H 944.641 -3.87636 1.94732 0
M  V30 10157 H 945.312 -5.36888 1.28278 0
M  V30 10158 H 947.788 -4.15549 -0.214064 0
M  V30 10159 H 946.664 -5.44091 -0.724992 0
M  V30 10160 H 946.925 -4.052 -1.7682 0
M  V30 10161 N 945.984 -0.3171 -1.54377 0
M  V30 10162 C 946.894 0.560867 -2.27797 0
M  V30 10163 C 947.91 1.13473 -1.31908 0
M  V30 10164 O 949.086 1.15608 -1.64914 0
M  V30 10165 C 946.151 1.70886 -3.0166 0
M  V30 10166 C 945.212 1.16745 -4.13121 0
M  V30 10167 C 944.445 2.26073 -4.83453 0
M  V30 10168 O 944.668 3.46292 -4.53252 0
M  V30 10169 O 943.602 1.91856 -5.70504 0
M  V30 10170 H 947.428 -0.035193 -3.0368 0
M  V30 10171 H 945.013 -0.0830062 -1.49169 0
M  V30 10172 H 946.895 2.37736 -3.47936 0
M  V30 10173 H 945.57 2.29122 -2.28658 0
M  V30 10174 H 944.477 0.464224 -3.71209 0
M  V30 10175 H 945.81 0.630307 -4.88147 0
M  V30 10176 N 947.462 1.57535 -0.0451378 0
M  V30 10177 C 948.878 1.56533 0.311373 0
M  V30 10178 C 949.078 1.05225 1.71843 0
M  V30 10179 O 948.134 0.706144 2.42425 0
M  V30 10180 C 949.447 3.00349 0.145348 0
M  V30 10181 C 950.995 3.12248 0.216908 0
M  V30 10182 C 951.47 4.57931 0.0794834 0
M  V30 10183 N 952.961 4.63 0.135954 0
M  V30 10184 C 953.696 5.73375 0.0536426 0
M  V30 10185 N 953.192 6.92753 -0.0806725 0
M  V30 10186 N 954.985 5.61995 0.108789 0
M  V30 10187 H 947.136 1.89211 -0.965044 0
M  V30 10188 H 949.399 0.871068 -0.374091 0
M  V30 10189 H 949.105 3.41898 -0.824533 0
M  V30 10190 H 948.979 3.66086 0.908903 0
M  V30 10191 H 951.366 2.70601 1.17726 0
M  V30 10192 H 951.447 2.49201 -0.577299 0
M  V30 10193 H 951.091 5.00262 -0.877516 0
M  V30 10194 H 951.021 5.18977 0.892758 0
M  V30 10195 H 953.512 3.77142 0.23926 0
M  V30 10196 H 953.825 7.7268 -0.136351 0
M  V30 10197 H 952.17 6.94904 -0.115675 0
M  V30 10198 H 955.361 4.67619 0.212235 0
M  V30 10199 H 955.534 6.47987 0.0411822 0
M  V30 10200 N 948.94 -0.228186 1.55939 0
M  V30 10201 C 949.873 -1.30971 1.86874 0
M  V30 10202 C 950.851 -1.45517 0.725496 0
M  V30 10203 O 952.035 -1.61436 0.973181 0
M  V30 10204 C 949.162 -2.68089 2.06992 0
M  V30 10205 C 948.208 -2.70594 3.29669 0
M  V30 10206 S 949.041 -2.25325 4.85787 0
M  V30 10207 C 950.197 -3.64331 5.08934 0
M  V30 10208 H 950.43 -1.04536 2.78315 0
M  V30 10209 H 947.963 -0.430103 1.48288 0
M  V30 10210 H 949.921 -3.47033 2.19267 0
M  V30 10211 H 948.582 -2.91752 1.16359 0
M  V30 10212 H 947.775 -3.71338 3.4077 0
M  V30 10213 H 947.377 -1.99708 3.16216 0
M  V30 10214 H 949.669 -4.59972 4.97425 0
M  V30 10215 H 950.612 -3.58151 6.10847 0
M  V30 10216 H 951.02 -3.57711 4.36695 0
M  V30 10217 N 950.418 -1.49637 -0.494624 0
M  V30 10218 C 951.664 -1.59681 -1.25019 0
M  V30 10219 C 951.997 -0.285511 -1.9209 0
M  V30 10220 O 951.272 0.711398 -1.81023 0
M  V30 10221 C 951.555 -2.76058 -2.31222 0
M  V30 10222 C 951.408 -4.17002 -1.68611 0
M  V30 10223 C 952.727 -2.88056 -3.32734 0
M  V30 10224 H 949.846 -0.581209 -0.453172 0
M  V30 10225 H 952.488 -1.81944 -0.547391 0
M  V30 10226 H 950.638 -2.57207 -2.91164 0
M  V30 10227 H 952.31 -4.47385 -1.12447 0
M  V30 10228 H 950.553 -4.22352 -0.989991 0
M  V30 10229 H 951.224 -4.94316 -2.45674 0
M  V30 10230 H 953.7 -3.05237 -2.82789 0
M  V30 10231 H 952.576 -3.71151 -4.04399 0
M  V30 10232 H 952.837 -1.97676 -3.95445 0
M  V30 10233 N 951.896 0.746133 -1.38819 0
M  V30 10234 C 953.121 1.54049 -1.38866 0
M  V30 10235 C 953.546 1.88092 0.0176624 0
M  V30 10236 O 952.904 1.51113 1.00173 0
M  V30 10237 C 952.952 2.8116 -2.25791 0
M  V30 10238 O 952.056 3.76623 -1.68014 0
M  V30 10239 H 951.397 0.465648 -0.473359 0
M  V30 10240 H 953.927 0.921469 -1.82675 0
M  V30 10241 H 953.937 3.30009 -2.39913 0
M  V30 10242 H 952.612 2.55713 -3.27999 0
M  V30 10243 H 951.189 3.35352 -1.63074 0
M  V30 10244 N 953.375 1.23811 0.975125 0
M  V30 10245 C 954.786 1.0675 1.53171 0
M  V30 10246 C 955.137 -0.363475 1.92804 0
M  V30 10247 O 954.262 -1.25089 1.76583 0
M  V30 10248 C 954.857 1.93161 2.78342 0
M  V30 10249 C 953.416 1.80346 3.30382 0
M  V30 10250 C 952.563 1.88544 2.03338 0
M  V30 10251 H 955.514 1.37396 0.79423 0
M  V30 10252 H 955.535 1.45951 3.51395 0
M  V30 10253 H 955.047 2.97302 2.49465 0
M  V30 10254 H 953.148 0.790077 3.64127 0
M  V30 10255 H 953.261 2.64026 3.99784 0
M  V30 10256 H 951.625 1.32186 2.17713 0
M  V30 10257 H 952.408 2.94252 1.76836 0
M  V30 10258 N 954.853 -1.17469 1.05066 0
M  V30 10259 C 956.102 -1.87032 0.755114 0
M  V30 10260 C 956.415 -1.81844 -0.720572 0
M  V30 10261 O 957.621 -2.46866 -1.13002 0
M  V30 10262 C 956.077 -3.35581 1.30052 0
M  V30 10263 C 955.685 -3.49274 2.80556 0
M  V30 10264 C 957.429 -4.1048 1.08196 0
M  V30 10265 C 955.336 -4.91838 3.28404 0
M  V30 10266 H 954.266 -0.70057 0.278779 0
M  V30 10267 H 956.917 -1.32663 1.26779 0
M  V30 10268 H 955.299 -3.89479 0.715667 0
M  V30 10269 H 956.473 -3.05598 3.44886 0
M  V30 10270 H 954.788 -2.87793 3.00939 0
M  V30 10271 H 957.385 -5.15652 1.41447 0
M  V30 10272 H 957.728 -4.16295 0.0196603 0
M  V30 10273 H 958.261 -3.62784 1.63195 0
M  V30 10274 H 955 -4.91196 4.34058 0
M  V30 10275 H 954.52 -5.36189 2.68815 0
M  V30 10276 H 956.199 -5.60602 3.23009 0
M  V30 10277 N 956.331 -0.831506 -1.3388 0
M  V30 10278 C 957.241 -0.261688 -2.33136 0
M  V30 10279 C 958.257 0.608429 -1.63016 0
M  V30 10280 O 959.433 0.514297 -1.94723 0
M  V30 10281 C 956.498 0.559957 -3.42148 0
M  V30 10282 C 955.559 -0.333569 -4.28002 0
M  V30 10283 C 954.792 0.448956 -5.31808 0
M  V30 10284 O 955.015 1.6814 -5.45055 0
M  V30 10285 O 953.949 -0.173197 -6.01651 0
M  V30 10286 H 957.775 -1.08343 -2.83717 0
M  V30 10287 H 955.36 -0.593849 -1.3709 0
M  V30 10288 H 957.242 1.02712 -4.08691 0
M  V30 10289 H 955.917 1.35888 -2.93796 0
M  V30 10290 H 954.824 -0.848416 -3.64352 0
M  V30 10291 H 956.157 -1.09707 -4.79818 0
M  V30 10292 N 957.809 1.4625 -0.587256 0
M  V30 10293 C 959.034 2.07252 -0.0784517 0
M  V30 10294 C 959.459 1.43239 1.21919 0
M  V30 10295 O 958.817 0.517791 1.73749 0
M  V30 10296 C 958.865 3.60534 0.0691037 0
M  V30 10297 O 957.969 3.96773 1.12448 0
M  V30 10298 H 957.31 0.660825 -0.064859 0
M  V30 10299 H 959.84 1.87819 -0.811491 0
M  V30 10300 H 959.85 4.0708 0.273826 0
M  V30 10301 H 958.525 4.06516 -0.878514 0
M  V30 10302 H 957.102 3.6193 0.897852 0
M  V30 10303 N 959.287 0.325282 1.54207 0
M  V30 10304 C 960.25 -0.527228 2.23054 0
M  V30 10305 C 961.25 -1.04217 1.22456 0
M  V30 10306 O 962.44 -0.934325 1.47024 0
M  V30 10307 C 959.572 -1.7325 2.93594 0
M  V30 10308 H 960.765 0.0746423 2.99807 0
M  V30 10309 H 958.318 0.0763872 1.56113 0
M  V30 10310 H 959.053 -2.37356 2.20981 0
M  V30 10311 H 958.838 -1.37065 3.67363 0
M  V30 10312 H 960.328 -2.3376 3.46043 0
M  V30 10313 N 960.765 -1.57509 0.0534917 0
M  V30 10314 C 961.675 -2.15152 -0.935249 0
M  V30 10315 C 962.691 -1.10991 -1.34003 0
M  V30 10316 O 963.867 -1.43171 -1.41648 0
M  V30 10317 C 960.932 -2.68699 -2.19093 0
M  V30 10318 C 959.993 -3.87666 -1.84428 0
M  V30 10319 C 959.226 -4.3865 -3.0401 0
M  V30 10320 O 959.449 -3.887 -4.17455 0
M  V30 10321 O 958.383 -5.30209 -2.84889 0
M  V30 10322 H 962.209 -2.99962 -0.475009 0
M  V30 10323 H 959.794 -1.48446 -0.16854 0
M  V30 10324 H 961.676 -3.03098 -2.92762 0
M  V30 10325 H 960.351 -1.86958 -2.6425 0
M  V30 10326 H 959.258 -3.58151 -1.08068 0
M  V30 10327 H 960.591 -4.70643 -1.44068 0
M  V30 10328 N 962.243 0.219913 -1.56058 0
M  V30 10329 C 963.52 0.968493 -1.6994 0
M  V30 10330 C 963.9 2.02358 -0.601219 0
M  V30 10331 O 963.248 2.25121 0.391534 0
M  V30 10332 C 963.458 1.57745 -3.11316 0
M  V30 10333 C 964.806 2.06908 -3.70775 0
M  V30 10334 O 965.83 1.67636 -3.14288 0
M  V30 10335 O 964.689 2.79096 -4.69859 0
M  V30 10336 H 961.783 0.452521 -0.692209 0
M  V30 10337 H 964.329 0.211566 -1.68376 0
M  V30 10338 H 963.101 0.815687 -3.82704 0
M  V30 10339 H 962.724 2.39987 -3.17005 0
M  V30 10340 N 963.721 1.49897 0.486681 0
M  V30 10341 C 964.651 1.7054 1.59494 0
M  V30 10342 C 965.632 0.554184 1.60819 0
M  V30 10343 O 966.817 0.791617 1.77333 0
M  V30 10344 C 963.947 1.78517 2.97908 0
M  V30 10345 C 962.901 2.93571 3.11449 0
M  V30 10346 C 962.227 2.86674 4.51356 0
M  V30 10347 C 963.527 4.34308 2.90127 0
M  V30 10348 H 965.221 2.63329 1.42472 0
M  V30 10349 H 962.767 1.2672 0.683969 0
M  V30 10350 H 964.72 1.91544 3.75352 0
M  V30 10351 H 963.444 0.823381 3.16051 0
M  V30 10352 H 962.103 2.80169 2.36433 0
M  V30 10353 H 961.751 1.88373 4.66395 0
M  V30 10354 H 961.451 3.63903 4.61355 0
M  V30 10355 H 962.975 3.01728 5.30841 0
M  V30 10356 H 964.389 4.48317 3.57331 0
M  V30 10357 H 962.786 5.12869 3.11585 0
M  V30 10358 H 963.856 4.47759 1.86119 0
M  V30 10359 N 965.199 -0.738761 1.39212 0
M  V30 10360 C 966.162 -1.83441 1.37412 0
M  V30 10361 C 967.162 -1.58484 0.271908 0
M  V30 10362 O 968.352 -1.65954 0.529609 0
M  V30 10363 C 965.484 -3.21167 1.143 0
M  V30 10364 H 966.677 -1.86441 2.34904 0
M  V30 10365 H 964.23 -0.942023 1.24722 0
M  V30 10366 H 964.965 -3.23829 0.174756 0
M  V30 10367 H 964.75 -3.40678 1.94116 0
M  V30 10368 H 966.24 -4.01231 1.15773 0
M  V30 10369 N 966.677 -1.24326 -0.968545 0
M  V30 10370 C 967.624 -1.0349 -2.06297 0
M  V30 10371 C 968.594 0.0515333 -1.6602 0
M  V30 10372 O 969.779 -0.102924 -1.90522 0
M  V30 10373 C 966.919 -0.64487 -3.39021 0
M  V30 10374 C 966.032 -1.80469 -3.92498 0
M  V30 10375 C 965.167 -1.36032 -5.13487 0
M  V30 10376 C 964.206 -2.49014 -5.59159 0
M  V30 10377 N 963.343 -2.05451 -6.71367 0
M  V30 10378 H 968.183 -1.97161 -2.23454 0
M  V30 10379 H 965.72 -0.982028 -1.0952 0
M  V30 10380 H 967.678 -0.399771 -4.1528 0
M  V30 10381 H 966.308 0.254845 -3.21792 0
M  V30 10382 H 965.36 -2.16348 -3.12886 0
M  V30 10383 H 966.672 -2.65365 -4.22354 0
M  V30 10384 H 965.826 -1.07405 -5.97117 0
M  V30 10385 H 964.565 -0.481887 -4.85313 0
M  V30 10386 H 963.57 -2.78402 -4.74102 0
M  V30 10387 H 964.795 -3.37413 -5.89346 0
M  V30 10388 H 962.741 -1.20004 -6.4493 0
M  V30 10389 H 962.658 -2.83901 -7.00668 0
M  V30 10390 H 963.926 -1.79962 -7.58442 0
M  V30 10391 N 968.156 1.1691 -1.05688 0
M  V30 10392 C 969.088 2.20648 -0.620237 0
M  V30 10393 C 970.101 1.59652 0.318604 0
M  V30 10394 O 971.29 1.78157 0.110553 0
M  V30 10395 C 968.39 3.38716 0.111729 0
M  V30 10396 C 967.563 4.29277 -0.839062 0
M  V30 10397 C 966.622 5.25993 -0.147453 0
M  V30 10398 O 965.648 5.63787 -0.783151 0
M  V30 10399 N 966.85 5.69725 1.11327 0
M  V30 10400 H 969.615 2.58731 -1.51256 0
M  V30 10401 H 967.176 1.31858 -0.939412 0
M  V30 10402 H 969.168 4.00455 0.584657 0
M  V30 10403 H 967.738 2.99189 0.905784 0
M  V30 10404 H 966.958 3.64894 -1.4915 0
M  V30 10405 H 968.246 4.86669 -1.48428 0
M  V30 10406 H 967.644 5.41103 1.64999 0
M  V30 10407 H 966.201 6.33584 1.53018 0
M  V30 10408 N 969.634 0.838594 1.33437 0
M  V30 10409 C 970.862 0.447644 2.01999 0
M  V30 10410 C 971.277 -0.951053 1.63096 0
M  V30 10411 O 970.634 -1.61802 0.844169 0
M  V30 10412 C 970.685 0.558378 3.57162 0
M  V30 10413 O 970.406 1.90196 3.94661 0
M  V30 10414 C 971.907 0.164348 4.42995 0
M  V30 10415 H 969.127 0.177736 0.647032 0
M  V30 10416 H 971.671 1.13109 1.70372 0
M  V30 10417 H 969.826 -0.0771563 3.87323 0
M  V30 10418 H 970.24 1.88729 4.89369 0
M  V30 10419 H 971.714 0.292876 5.51222 0
M  V30 10420 H 972.191 -0.893713 4.30011 0
M  V30 10421 H 972.797 0.774306 4.18192 0
M  V30 10422 N 971.112 -1.45937 0.595003 0
M  V30 10423 C 972.022 -2.34221 -0.133325 0
M  V30 10424 C 973.038 -1.50491 -0.873407 0
M  V30 10425 O 974.214 -1.83328 -0.833828 0
M  V30 10426 C 971.279 -3.27896 -1.12628 0
M  V30 10427 C 970.34 -4.27529 -0.389532 0
M  V30 10428 C 969.573 -5.16729 -1.33519 0
M  V30 10429 O 969.796 -5.09102 -2.57238 0
M  V30 10430 O 968.73 -5.96023 -0.839084 0
M  V30 10431 H 972.556 -2.97877 0.591861 0
M  V30 10432 H 970.141 -1.45113 0.355329 0
M  V30 10433 H 972.023 -3.85654 -1.69851 0
M  V30 10434 H 970.698 -2.6682 -1.83272 0
M  V30 10435 H 969.605 -3.73424 0.224843 0
M  V30 10436 H 970.938 -4.91425 0.276169 0
M  V30 10437 N 972.59 -0.333456 -1.54032 0
M  V30 10438 C 973.839 0.267081 -1.99924 0
M  V30 10439 C 974.152 1.52463 -1.22534 0
M  V30 10440 O 975.358 2.20178 -1.58852 0
M  V30 10441 C 973.814 0.526456 -3.56029 0
M  V30 10442 C 973.422 -0.714607 -4.42264 0
M  V30 10443 C 975.166 1.0864 -4.10363 0
M  V30 10444 C 973.073 -0.42659 -5.89859 0
M  V30 10445 H 972.003 0.103577 -0.746852 0
M  V30 10446 H 974.654 -0.447218 -1.77967 0
M  V30 10447 H 973.036 1.3012 -3.74012 0
M  V30 10448 H 974.21 -1.48968 -4.36056 0
M  V30 10449 H 972.525 -1.19547 -3.9887 0
M  V30 10450 H 975.122 1.31668 -5.18235 0
M  V30 10451 H 975.465 2.03884 -3.62956 0
M  V30 10452 H 975.998 0.37261 -3.96051 0
M  V30 10453 H 972.737 -1.34847 -6.4148 0
M  V30 10454 H 972.257 0.310588 -5.98995 0
M  V30 10455 H 973.936 -0.0400807 -6.46988 0
M  V30 10456 N 974.068 1.57479 -0.061844 0
M  V30 10457 C 975.031 2.1104 0.894127 0
M  V30 10458 C 976.031 1.03227 1.23292 0
M  V30 10459 O 977.221 1.29256 1.16784 0
M  V30 10460 C 974.353 2.6035 2.20069 0
M  V30 10461 H 975.546 2.96807 0.429619 0
M  V30 10462 H 973.099 1.55181 0.18672 0
M  V30 10463 H 973.834 1.78008 2.71079 0
M  V30 10464 H 973.619 3.39146 1.9678 0
M  V30 10465 H 975.109 3.019 2.88525 0
M  V30 10466 N 975.546 -0.211634 1.56173 0
M  V30 10467 C 976.776 -0.949805 1.83473 0
M  V30 10468 C 977.184 -1.78045 0.640053 0
M  V30 10469 O 976.527 -1.79277 -0.400702 0
M  V30 10470 C 976.589 -1.90868 3.04647 0
M  V30 10471 C 976.253 -1.26159 4.39241 0
M  V30 10472 C 977.25 -0.646597 5.15863 0
M  V30 10473 C 974.935 -1.27039 4.85969 0
M  V30 10474 C 976.929 -0.0490313 6.37381 0
M  V30 10475 C 974.616 -0.668987 6.07427 0
M  V30 10476 C 975.614 -0.0593687 6.82974 0
M  V30 10477 O 975.302 0.532656 8.02133 0
M  V30 10478 H 975.034 -0.283458 0.6137 0
M  V30 10479 H 977.588 -0.22894 2.0412 0
M  V30 10480 H 975.818 -2.6688 2.79843 0
M  V30 10481 H 977.507 -2.51323 3.18734 0
M  V30 10482 H 978.273 -0.632056 4.80864 0
M  V30 10483 H 974.152 -1.73429 4.27134 0
M  V30 10484 H 977.696 0.427414 6.96289 0
M  V30 10485 H 973.593 -0.680975 6.41898 0
M  V30 10486 H 974.361 0.427942 8.17381 0
M  V30 10487 N 977.024 -1.50153 -0.478725 0
M  V30 10488 C 978.272 -1.60443 -1.22892 0
M  V30 10489 C 978.593 -0.303276 -1.92627 0
M  V30 10490 O 977.863 0.678798 -1.83764 0
M  V30 10491 H 976.443 -0.591205 -0.456602 0
M  V30 10492 H 979.105 -1.86893 -0.552905 0
M  V30 10493 H 978.201 -2.41175 -1.98094 0
M  V30 10494 N 978.502 0.731368 -1.39602 0
M  V30 10495 C 979.73 1.52059 -1.40305 0
M  V30 10496 C 980.145 1.888 0.00147921 0
M  V30 10497 O 979.502 1.54354 0.973715 0
M  V30 10498 C 979.553 2.80588 -2.27931 0
M  V30 10499 O 979.274 2.45406 -3.62915 0
M  V30 10500 C 980.775 3.74592 -2.37056 0
M  V30 10501 H 977.995 0.469787 -0.479104 0
M  V30 10502 H 980.539 0.903436 -1.83462 0
M  V30 10503 H 978.694 3.38626 -1.88178 0
M  V30 10504 H 979.108 3.27996 -4.09291 0
M  V30 10505 H 980.582 4.61662 -3.02609 0
M  V30 10506 H 981.059 4.16597 -1.39081 0
M  V30 10507 H 981.665 3.22471 -2.77295 0
M  V30 10508 N 979.98 1.24838 0.961938 0
M  V30 10509 C 980.91 1.07053 2.07514 0
M  V30 10510 C 981.891 -0.0182465 1.7009 0
M  V30 10511 O 983.076 0.149915 1.9362 0
M  V30 10512 C 980.206 0.680693 3.40564 0
M  V30 10513 C 979.16 1.71889 3.91967 0
M  V30 10514 C 978.486 1.18395 5.21428 0
M  V30 10515 C 979.786 3.1161 4.19161 0
M  V30 10516 H 981.48 2.00167 2.22651 0
M  V30 10517 H 979.026 0.963799 1.0699 0
M  V30 10518 H 980.979 0.54324 4.17884 0
M  V30 10519 H 979.703 -0.28615 3.25344 0
M  V30 10520 H 978.362 1.84465 3.16809 0
M  V30 10521 H 978.01 0.207543 5.02572 0
M  V30 10522 H 977.71 1.87778 5.56788 0
M  V30 10523 H 979.234 1.05873 6.01351 0
M  V30 10524 H 980.648 3.0223 4.87165 0
M  V30 10525 H 979.045 3.78398 4.65763 0
M  V30 10526 H 980.115 3.59218 3.25715 0
M  V30 10527 N 981.458 -1.16348 1.06306 0
M  V30 10528 C 982.368 -2.24375 0.685059 0
M  V30 10529 C 983.384 -1.71413 -0.298956 0
M  V30 10530 O 984.56 -2.00854 -0.148239 0
M  V30 10531 C 981.625 -3.46614 0.0774088 0
M  V30 10532 C 980.686 -4.14613 1.11331 0
M  V30 10533 C 979.919 -5.31016 0.534559 0
M  V30 10534 O 980.142 -5.66654 -0.65265 0
M  V30 10535 O 979.076 -5.88256 1.27431 0
M  V30 10536 H 982.902 -2.59018 1.58566 0
M  V30 10537 H 980.487 -1.23865 0.835332 0
M  V30 10538 H 982.369 -4.20599 -0.259716 0
M  V30 10539 H 981.044 -3.13743 -0.796677 0
M  V30 10540 H 979.951 -3.42597 1.50261 0
M  V30 10541 H 981.284 -4.51538 1.95893 0
M  V30 10542 N 982.937 -0.845659 -1.3299 0
M  V30 10543 C 983.9 -0.288905 -2.27372 0
M  V30 10544 C 984.9 0.546263 -1.51237 0
M  V30 10545 O 986.09 0.359072 -1.70459 0
M  V30 10546 C 983.222 0.59224 -3.35716 0
M  V30 10547 H 984.415 -1.12181 -2.78128 0
M  V30 10548 H 981.968 -0.619276 -1.43508 0
M  V30 10549 H 982.703 1.44732 -2.90212 0
M  V30 10550 H 982.488 -0.00543255 -3.921 0
M  V30 10551 H 983.978 0.974848 -4.06062 0
M  V30 10552 N 984.415 1.45619 -0.602734 0
M  V30 10553 C 985.663 2.01873 -0.095844 0
M  V30 10554 C 985.984 1.47427 1.27633 0
M  V30 10555 O 985.254 0.666652 1.84208 0
M  V30 10556 H 983.834 0.746295 -0.0324408 0
M  V30 10557 H 986.496 1.78478 -0.783037 0
M  V30 10558 H 985.592 3.12072 -0.0419507 0
M  V30 10559 N 985.893 0.34162 1.53853 0
M  V30 10560 C 987.118 -0.259608 2.05769 0
M  V30 10561 C 987.543 -1.43588 1.21507 0
M  V30 10562 O 986.901 -1.79856 0.228364 0
M  V30 10563 C 986.949 -0.654455 3.54611 0
M  V30 10564 O 986.053 -1.75472 3.73207 0
M  V30 10565 H 985.394 -0.0434621 0.662576 0
M  V30 10566 H 987.924 0.495274 1.98515 0
M  V30 10567 H 987.934 -0.932142 3.97209 0
M  V30 10568 H 986.609 0.205779 4.15391 0
M  V30 10569 H 985.186 -1.47444 3.42512 0
M  V30 10570 N 987.371 -1.57444 0.0701946 0
M  V30 10571 C 988.599 -1.97754 -0.608358 0
M  V30 10572 C 989.014 -0.948496 -1.63245 0
M  V30 10573 O 988.371 0.065046 -1.82384 0
M  V30 10574 C 988.422 -3.38142 -1.27836 0
M  V30 10575 O 988.143 -4.37104 -0.295255 0
M  V30 10576 C 989.644 -3.93318 -2.04489 0
M  V30 10577 H 986.864 -0.650398 -0.164997 0
M  V30 10578 H 989.408 -2.04006 0.142124 0
M  V30 10579 H 987.563 -3.32982 -1.97994 0
M  V30 10580 H 987.977 -5.18732 -0.77574 0
M  V30 10581 H 989.451 -4.93774 -2.46762 0
M  V30 10582 H 989.928 -3.29774 -2.90079 0
M  V30 10583 H 990.534 -4.01875 -1.39201 0
M  V30 10584 N 988.849 0.203349 -1.56283 0
M  V30 10585 C 989.796 1.25205 -1.93888 0
M  V30 10586 C 990.766 1.45654 -0.798376 0
M  V30 10587 O 991.951 1.58924 -1.05583 0
M  V30 10588 C 989.091 2.59355 -2.27659 0
M  V30 10589 C 988.204 2.46553 -3.54733 0
M  V30 10590 C 987.339 3.73351 -3.77865 0
M  V30 10591 C 986.378 3.55347 -4.98392 0
M  V30 10592 N 985.515 4.74137 -5.17821 0
M  V30 10593 H 990.355 0.924356 -2.83301 0
M  V30 10594 H 987.892 0.445082 -1.40205 0
M  V30 10595 H 989.85 3.375 -2.45254 0
M  V30 10596 H 988.48 2.90184 -1.41396 0
M  V30 10597 H 987.532 1.59749 -3.45231 0
M  V30 10598 H 988.844 2.2918 -4.43033 0
M  V30 10599 H 987.998 4.59937 -3.95655 0
M  V30 10600 H 986.737 3.9367 -2.8788 0
M  V30 10601 H 985.742 2.67146 -4.80534 0
M  V30 10602 H 986.967 3.36482 -5.89879 0
M  V30 10603 H 984.913 4.94735 -4.30782 0
M  V30 10604 H 984.83 4.59558 -6.00285 0
M  V30 10605 H 986.098 5.62098 -5.40061 0
M  V30 10606 N 990.327 1.50405 0.470755 0
M  V30 10607 C 991.237 1.7208 1.59454 0
M  V30 10608 C 992.253 0.603932 1.63183 0
M  V30 10609 O 993.429 0.882296 1.81046 0
M  V30 10610 C 990.494 1.81057 2.95667 0
M  V30 10611 C 989.555 3.04792 3.02324 0
M  V30 10612 C 988.788 3.13332 4.3204 0
M  V30 10613 O 989.011 2.28655 5.22564 0
M  V30 10614 O 987.945 4.0606 4.44296 0
M  V30 10615 H 991.771 2.67343 1.44089 0
M  V30 10616 H 989.356 1.34505 0.650286 0
M  V30 10617 H 991.238 1.8914 3.76569 0
M  V30 10618 H 989.913 0.889782 3.11231 0
M  V30 10619 H 988.82 3.0221 2.205 0
M  V30 10620 H 990.153 3.96451 2.91698 0
M  V30 10621 N 991.805 -0.723954 1.39988 0
M  V30 10622 C 993.052 -1.48371 1.37812 0
M  V30 10623 C 993.38 -1.94487 -0.0223285 0
M  V30 10624 O 992.635 -1.67906 -1.00529 0
M  V30 10625 C 992.934 -2.73004 2.30659 0
M  V30 10626 C 992.6 -2.45698 3.78078 0
M  V30 10627 C 991.262 -2.37961 4.18244 0
M  V30 10628 C 993.614 -2.22601 4.71273 0
M  V30 10629 C 990.942 -2.05183 5.49652 0
M  V30 10630 C 993.294 -1.91339 6.0297 0
M  V30 10631 C 991.958 -1.82078 6.42187 0
M  V30 10632 H 991.228 -0.542929 0.504291 0
M  V30 10633 H 993.875 -0.829986 1.72579 0
M  V30 10634 H 992.18 -3.43174 1.89048 0
M  V30 10635 H 993.877 -3.31068 2.26263 0
M  V30 10636 H 990.467 -2.52603 3.46251 0
M  V30 10637 H 994.651 -2.2754 4.41066 0
M  V30 10638 H 989.907 -1.96544 5.78948 0
M  V30 10639 H 994.081 -1.72479 6.74703 0
M  V30 10640 H 991.708 -1.56446 7.43928 0
M  V30 10641 N 993.283 -1.25346 -0.955304 0
M  V30 10642 C 994.53 -1.10055 -1.69983 0
M  V30 10643 C 994.858 0.358586 -1.91166 0
M  V30 10644 O 994.113 1.28071 -1.47974 0
M  V30 10645 C 994.412 -1.7993 -3.08804 0
M  V30 10646 C 994.078 -3.29851 -3.07424 0
M  V30 10647 C 992.74 -3.7075 -3.06754 0
M  V30 10648 C 995.092 -4.25636 -3.00805 0
M  V30 10649 C 992.42 -5.05847 -2.97214 0
M  V30 10650 C 994.772 -5.60756 -2.92806 0
M  V30 10651 C 993.436 -6.00984 -2.90472 0
M  V30 10652 H 992.706 -0.402718 -0.622012 0
M  V30 10653 H 995.353 -1.5561 -1.11614 0
M  V30 10654 H 993.658 -1.26803 -3.70713 0
M  V30 10655 H 995.355 -1.65551 -3.65231 0
M  V30 10656 H 991.945 -2.97308 -3.08716 0
M  V30 10657 H 996.129 -3.9503 -3.00441 0
M  V30 10658 H 991.385 -5.36196 -2.93775 0
M  V30 10659 H 995.559 -6.34671 -2.86645 0
M  V30 10660 H 993.186 -7.05626 -2.82835 0
M  V30 10661 N 994.761 1.15782 -1.06922 0
M  V30 10662 C 996.177 1.38454 -0.793896 0
M  V30 10663 C 996.377 1.92238 0.603875 0
M  V30 10664 O 995.433 2.1253 1.36335 0
M  V30 10665 C 996.746 2.3595 -1.86408 0
M  V30 10666 C 998.294 2.49622 -1.88833 0
M  V30 10667 C 998.769 3.50406 -2.94923 0
M  V30 10668 N 1000.26 3.57938 -2.93997 0
M  V30 10669 C 1001 4.35728 -3.72731 0
M  V30 10670 N 1000.49 5.16888 -4.61301 0
M  V30 10671 N 1002.28 4.30774 -3.61096 0
M  V30 10672 H 994.435 0.792101 -1.97077 0
M  V30 10673 H 996.698 0.410779 -0.85438 0
M  V30 10674 H 996.404 2.03537 -2.86819 0
M  V30 10675 H 996.278 3.35677 -1.72049 0
M  V30 10676 H 998.665 2.81335 -0.890759 0
M  V30 10677 H 998.746 1.49909 -2.0727 0
M  V30 10678 H 998.39 3.19429 -3.94877 0
M  V30 10679 H 998.32 4.49864 -2.73734 0
M  V30 10680 H 1000.81 3.00007 -2.29791 0
M  V30 10681 H 1001.12 5.73477 -5.18019 0
M  V30 10682 H 999.469 5.16209 -4.65353 0
M  V30 10683 H 1002.66 3.66432 -2.91282 0
M  V30 10684 H 1002.83 4.91151 -4.22699 0
M  V30 10685 N 996.239 0.8527 1.3254 0
M  V30 10686 C 997.655 0.542298 1.50104 0
M  V30 10687 C 997.855 -0.927465 1.78886 0
M  V30 10688 O 996.911 -1.7106 1.85728 0
M  V30 10689 C 998.224 1.4276 2.64651 0
M  V30 10690 C 999.772 1.42782 2.78536 0
M  V30 10691 C 1000.25 2.29828 3.9616 0
M  V30 10692 N 1001.74 2.27613 4.03418 0
M  V30 10693 C 1002.47 2.91696 4.93661 0
M  V30 10694 N 1001.97 3.64883 5.88925 0
M  V30 10695 N 1003.76 2.81094 4.86768 0
M  V30 10696 H 995.913 1.80395 1.12123 0
M  V30 10697 H 998.176 0.770394 0.552446 0
M  V30 10698 H 997.882 2.47266 2.50105 0
M  V30 10699 H 997.756 1.11358 3.60388 0
M  V30 10700 H 1000.14 0.390417 2.92506 0
M  V30 10701 H 1000.22 1.78198 1.83519 0
M  V30 10702 H 999.868 3.33635 3.82949 0
M  V30 10703 H 999.798 1.91746 4.9045 0
M  V30 10704 H 1002.29 1.74402 3.3525 0
M  V30 10705 H 1002.6 4.10952 6.54476 0
M  V30 10706 H 1000.95 3.68991 5.88957 0
M  V30 10707 H 1004.14 2.23469 4.11314 0
M  V30 10708 H 1004.31 3.31318 5.56895 0
M  V30 10709 N 997.718 -1.45297 0.610449 0
M  V30 10710 C 998.943 -2.07101 0.111414 0
M  V30 10711 C 999.368 -1.45161 -1.19625 0
M  V30 10712 O 998.726 -0.545368 -1.72903 0
M  V30 10713 C 998.774 -3.60598 -0.0117372 0
M  V30 10714 O 997.878 -3.98512 -1.06122 0
M  V30 10715 H 997.219 -0.659709 0.075364 0
M  V30 10716 H 999.749 -1.86504 0.841269 0
M  V30 10717 H 999.759 -4.07464 -0.209028 0
M  V30 10718 H 998.434 -4.05067 0.943076 0
M  V30 10719 H 997.011 -3.63312 -0.840158 0
M  V30 10720 N 999.196 -0.349774 -1.5367 0
M  V30 10721 C 1000.14 0.504121 -2.25227 0
M  V30 10722 C 1001.11 1.09048 -1.2529 0
M  V30 10723 O 1002.3 1.12594 -1.54037 0
M  V30 10724 C 999.438 1.64601 -3.03316 0
M  V30 10725 C 998.551 1.08635 -4.18118 0
M  V30 10726 C 997.686 2.19605 -4.83681 0
M  V30 10727 C 996.725 1.61023 -5.90541 0
M  V30 10728 N 995.862 2.6576 -6.49858 0
M  V30 10729 H 1000.7 -0.112621 -2.97787 0
M  V30 10730 H 998.239 -0.0673503 -1.46946 0
M  V30 10731 H 1000.2 2.31836 -3.46854 0
M  V30 10732 H 998.827 2.23364 -2.33041 0
M  V30 10733 H 997.879 0.304748 -3.79177 0
M  V30 10734 H 999.191 0.617911 -4.94958 0
M  V30 10735 H 998.345 2.94693 -5.30322 0
M  V30 10736 H 997.084 2.69795 -4.06278 0
M  V30 10737 H 996.089 0.844428 -5.43277 0
M  V30 10738 H 997.314 1.11677 -6.69855 0
M  V30 10739 H 995.26 3.15193 -5.75317 0
M  V30 10740 H 995.177 2.23557 -7.2219 0
M  V30 10741 H 996.445 3.40598 -7.01151 0
M  V30 10742 N 1000.67 1.57404 -0.0785433 0
M  V30 10743 C 1001.92 1.9292 0.588626 0
M  V30 10744 C 1002.24 0.961106 1.70359 0
M  V30 10745 O 1003.44 1.20934 2.43079 0
M  V30 10746 C 1001.9 3.42729 1.09839 0
M  V30 10747 C 1001.51 4.47998 0.0140773 0
M  V30 10748 C 1003.25 3.87235 1.73924 0
M  V30 10749 C 1001.16 5.88945 0.538269 0
M  V30 10750 H 1000.09 0.720069 0.223645 0
M  V30 10751 H 1002.74 1.8287 -0.15187 0
M  V30 10752 H 1001.12 3.47875 1.89207 0
M  V30 10753 H 1002.29 4.54476 -0.760773 0
M  V30 10754 H 1000.61 4.13001 -0.53095 0
M  V30 10755 H 1003.21 4.89927 2.14186 0
M  V30 10756 H 1003.55 3.24971 2.60191 0
M  V30 10757 H 1004.08 3.84721 1.01168 0
M  V30 10758 H 1000.82 6.5487 -0.287395 0
M  V30 10759 H 1000.34 5.85972 1.28049 0
M  V30 10760 H 1002.02 6.39028 1.01253 0
M  V30 10761 N 1002.15 -0.195058 1.56388 0
M  V30 10762 C 1003.11 -1.2254 1.93692 0
M  V30 10763 C 1004.11 -1.38437 0.81804 0
M  V30 10764 O 1005.3 -1.36248 1.08545 0
M  V30 10765 C 1002.44 -2.59476 2.21099 0
M  V30 10766 H 1003.63 -0.906544 2.8587 0
M  V30 10767 H 1001.18 -0.436577 1.50079 0
M  V30 10768 H 1001.92 -2.96417 1.31558 0
M  V30 10769 H 1001.7 -2.4931 3.02634 0
M  V30 10770 H 1003.19 -3.33777 2.50964 0
M  V30 10771 N 1003.63 -1.50653 -0.462772 0
M  V30 10772 C 1004.88 -1.62297 -1.21603 0
M  V30 10773 C 1005.21 -0.326191 -1.91441 0
M  V30 10774 O 1004.48 0.67284 -1.82491 0
M  V30 10775 C 1004.77 -2.80901 -2.25315 0
M  V30 10776 C 1004.62 -4.20484 -1.59728 0
M  V30 10777 C 1005.94 -2.95049 -3.26549 0
M  V30 10778 H 1003.06 -0.590691 -0.440741 0
M  V30 10779 H 1005.7 -1.83064 -0.508675 0
M  V30 10780 H 1003.85 -2.63325 -2.85643 0
M  V30 10781 H 1005.52 -4.49669 -1.02932 0
M  V30 10782 H 1003.76 -4.24357 -0.900181 0
M  V30 10783 H 1004.44 -4.99416 -2.35133 0
M  V30 10784 H 1006.91 -3.11166 -2.76251 0
M  V30 10785 H 1005.79 -3.79645 -3.96435 0
M  V30 10786 H 1006.05 -2.06019 -3.91163 0
M  V30 10787 N 1005.11 0.71652 -1.4037 0
M  V30 10788 C 1006.36 1.47638 -1.38597 0
M  V30 10789 C 1006.68 1.94496 0.0120141 0
M  V30 10790 O 1005.94 1.68437 0.996373 0
M  V30 10791 C 1006.24 2.71777 -2.32103 0
M  V30 10792 C 1005.9 2.43689 -3.79376 0
M  V30 10793 C 1004.57 2.35739 -4.195 0
M  V30 10794 C 1006.92 2.20099 -4.72447 0
M  V30 10795 C 1004.25 2.02265 -5.50732 0
M  V30 10796 C 1006.6 1.88138 -6.03976 0
M  V30 10797 C 1005.26 1.78669 -6.43143 0
M  V30 10798 H 1004.53 0.540246 -0.507163 0
M  V30 10799 H 1007.18 0.820822 -1.73017 0
M  V30 10800 H 1005.48 3.42166 -1.90865 0
M  V30 10801 H 1007.18 3.29864 -2.28015 0
M  V30 10802 H 1003.77 2.50763 -3.47585 0
M  V30 10803 H 1007.95 2.25198 -4.42266 0
M  V30 10804 H 1003.21 1.93471 -5.79982 0
M  V30 10805 H 1007.38 1.68898 -6.75608 0
M  V30 10806 H 1005.01 1.52498 -7.44747 0
M  V30 10807 N 1006.59 1.25851 0.948643 0
M  V30 10808 C 1007.5 1.08516 2.07994 0
M  V30 10809 C 1008.51 0.0206696 1.73988 0
M  V30 10810 O 1009.69 0.222854 2.00163 0
M  V30 10811 C 1006.75 0.712145 3.39307 0
M  V30 10812 C 1005.81 1.85523 3.87143 0
M  V30 10813 C 1005.05 1.49992 5.1219 0
M  V30 10814 O 1005.27 0.398268 5.69008 0
M  V30 10815 O 1004.2 2.33215 5.54882 0
M  V30 10816 H 1008.03 2.03405 2.25522 0
M  V30 10817 H 1005.62 1.04844 1.06433 0
M  V30 10818 H 1007.5 0.516512 4.18223 0
M  V30 10819 H 1006.17 -0.207416 3.23035 0
M  V30 10820 H 1005.08 2.10578 3.09205 0
M  V30 10821 H 1006.41 2.75425 4.07924 0
M  V30 10822 N 1008.06 -1.15214 1.07534 0
M  V30 10823 C 1009.01 -2.20013 0.697337 0
M  V30 10824 C 1009.98 -1.6314 -0.312168 0
M  V30 10825 O 1011.17 -1.89768 -0.198196 0
M  V30 10826 C 1008.31 -3.44945 0.103293 0
M  V30 10827 C 1007.42 -4.16009 1.1645 0
M  V30 10828 C 1006.55 -5.28496 0.535261 0
M  V30 10829 C 1005.59 -5.9138 1.57912 0
M  V30 10830 N 1004.73 -6.95335 0.972332 0
M  V30 10831 H 1009.57 -2.51698 1.59538 0
M  V30 10832 H 1007.11 -1.2361 0.797431 0
M  V30 10833 H 1009.07 -4.16397 -0.258766 0
M  V30 10834 H 1007.7 -3.13772 -0.758096 0
M  V30 10835 H 1006.75 -3.43035 1.64411 0
M  V30 10836 H 1008.06 -4.58853 1.9559 0
M  V30 10837 H 1007.21 -6.06579 0.120942 0
M  V30 10838 H 1005.95 -4.8685 -0.287889 0
M  V30 10839 H 1004.96 -5.12008 2.0032 0
M  V30 10840 H 1006.18 -6.35103 2.40459 0
M  V30 10841 H 1004.13 -6.55779 0.170119 0
M  V30 10842 H 1004.05 -7.36616 1.70095 0
M  V30 10843 H 1005.31 -7.77312 0.583577 0
M  V30 10844 N 1009.54 -0.859717 -1.32086 0
M  V30 10845 C 1010.48 -0.252764 -2.26796 0
M  V30 10846 C 1011.45 0.612178 -1.50636 0
M  V30 10847 O 1012.64 0.567865 -1.79743 0
M  V30 10848 C 1009.76 0.643017 -3.3254 0
M  V30 10849 C 1008.81 -0.149211 -4.26239 0
M  V30 10850 S 1009.64 -1.52097 -5.13446 0
M  V30 10851 C 1010.8 -0.631035 -6.22711 0
M  V30 10852 H 1011.03 -1.05563 -2.77928 0
M  V30 10853 H 1008.57 -0.657639 -1.39694 0
M  V30 10854 H 1010.52 1.15418 -3.9394 0
M  V30 10855 H 1009.18 1.41974 -2.80183 0
M  V30 10856 H 1008.38 0.53328 -5.01171 0
M  V30 10857 H 1007.98 -0.592128 -3.69283 0
M  V30 10858 H 1010.27 0.162638 -6.77305 0
M  V30 10859 H 1011.21 -1.35116 -6.95089 0
M  V30 10860 H 1011.62 -0.203131 -5.64134 0
M  V30 10861 N 1011.02 1.44971 -0.618145 0
M  V30 10862 C 1012.27 2.03009 -0.126125 0
M  V30 10863 C 1012.62 1.47656 1.23351 0
M  V30 10864 O 1011.91 0.645901 1.80385 0
M  V30 10865 C 1012.11 3.57378 -0.0394861 0
M  V30 10866 C 1011.94 4.27706 -1.38918 0
M  V30 10867 C 1010.71 4.65206 -1.97261 0
M  V30 10868 C 1012.91 4.58987 -2.32024 0
M  V30 10869 N 1010.89 5.2044 -3.256 0
M  V30 10870 C 1012.26 5.15167 -3.44969 0
M  V30 10871 C 1014.31 4.40932 -2.31265 0
M  V30 10872 C 1013.02 5.55193 -4.57333 0
M  V30 10873 C 1015.04 4.81997 -3.42684 0
M  V30 10874 C 1014.4 5.38279 -4.54352 0
M  V30 10875 H 1010.5 0.77683 -0.0897695 0
M  V30 10876 H 1013.09 1.76646 -0.818805 0
M  V30 10877 H 1011.26 3.8338 0.622441 0
M  V30 10878 H 1012.99 4.02075 0.460165 0
M  V30 10879 H 1009.75 4.49102 -1.50348 0
M  V30 10880 H 1010.17 5.52546 -3.9118 0
M  V30 10881 H 1014.81 3.96723 -1.46187 0
M  V30 10882 H 1012.53 5.98362 -5.43128 0
M  V30 10883 H 1016.12 4.69751 -3.43257 0
M  V30 10884 H 1015 5.6947 -5.39142 0
M  V30 10885 N 1012.5 0.357919 1.53482 0
M  V30 10886 C 1013.73 -0.23514 2.05559 0
M  V30 10887 C 1014.14 -1.43068 1.23195 0
M  V30 10888 O 1013.5 -1.80481 0.270741 0
M  V30 10889 C 1013.55 -0.636147 3.55859 0
M  V30 10890 O 1013.27 0.511864 4.35099 0
M  V30 10891 C 1014.77 -1.28841 4.24164 0
M  V30 10892 H 1011.99 -0.0428446 0.669631 0
M  V30 10893 H 1014.54 0.51407 1.97933 0
M  V30 10894 H 1012.69 -1.33528 3.63661 0
M  V30 10895 H 1013.1 0.189328 5.24158 0
M  V30 10896 H 1014.58 -1.51962 5.30671 0
M  V30 10897 H 1015.06 -2.24638 3.77405 0
M  V30 10898 H 1015.66 -0.630914 4.20594 0
M  V30 10899 N 1013.98 -1.5736 0.0868897 0
M  V30 10900 C 1015.21 -1.981 -0.586498 0
M  V30 10901 C 1015.61 -0.96455 -1.62767 0
M  V30 10902 O 1014.96 0.0551801 -1.83617 0
M  V30 10903 C 1015.02 -3.35193 -1.29947 0
M  V30 10904 C 1014.68 -4.55157 -0.410012 0
M  V30 10905 C 1015.68 -5.18797 0.338532 0
M  V30 10906 C 1013.37 -5.01212 -0.33047 0
M  V30 10907 C 1015.36 -6.26854 1.15468 0
M  V30 10908 C 1013.05 -6.09138 0.48934 0
M  V30 10909 C 1014.04 -6.71823 1.23057 0
M  V30 10910 O 1013.73 -7.77669 2.03683 0
M  V30 10911 H 1013.46 -0.656166 -0.16255 0
M  V30 10912 H 1016.02 -2.04773 0.160379 0
M  V30 10913 H 1014.25 -3.25179 -2.09274 0
M  V30 10914 H 1015.94 -3.60435 -1.86658 0
M  V30 10915 H 1016.7 -4.84151 0.286764 0
M  V30 10916 H 1012.58 -4.52188 -0.897058 0
M  V30 10917 H 1016.13 -6.75712 1.73374 0
M  V30 10918 H 1012.02 -6.43215 0.542618 0
M  V30 10919 H 1012.79 -7.94618 1.96277 0
M  V30 10920 N 1015.45 0.186762 -1.56489 0
M  V30 10921 C 1016.39 1.25971 -1.9028 0
M  V30 10922 C 1017.37 1.43543 -0.763822 0
M  V30 10923 O 1018.55 1.58799 -1.01564 0
M  V30 10924 C 1015.68 2.62507 -2.14028 0
M  V30 10925 C 1014.72 2.61758 -3.36727 0
M  V30 10926 S 1015.56 2.12366 -4.9159 0
M  V30 10927 C 1016.71 3.5071 -5.18414 0
M  V30 10928 H 1016.94 0.971203 -2.80989 0
M  V30 10929 H 1014.48 0.390636 -1.49377 0
M  V30 10930 H 1016.44 3.41098 -2.28391 0
M  V30 10931 H 1015.1 2.88564 -1.24054 0
M  V30 10932 H 1014.29 3.62173 -3.50495 0
M  V30 10933 H 1013.89 1.91254 -3.214 0
M  V30 10934 H 1016.18 4.46622 -5.09445 0
M  V30 10935 H 1017.13 3.41829 -6.20128 0
M  V30 10936 H 1017.53 3.46008 -4.46026 0
M  V30 10937 N 1016.93 1.50896 0.454776 0
M  V30 10938 C 1017.88 1.70947 1.55067 0
M  V30 10939 C 1018.85 0.550899 1.56698 0
M  V30 10940 O 1020.03 0.783352 1.73978 0
M  V30 10941 C 1017.17 1.82455 2.92924 0
M  V30 10942 C 1016.29 3.09919 3.00956 0
M  V30 10943 C 1015.42 3.12125 4.29827 0
M  V30 10944 C 1014.46 4.33975 4.31662 0
M  V30 10945 N 1013.6 4.33828 5.5203 0
M  V30 10946 H 1018.44 2.645 1.37273 0
M  V30 10947 H 1015.98 1.31101 0.667148 0
M  V30 10948 H 1017.93 1.87108 3.72889 0
M  V30 10949 H 1016.56 0.92327 3.09315 0
M  V30 10950 H 1015.62 3.14659 2.13761 0
M  V30 10951 H 1016.93 3.99869 2.98172 0
M  V30 10952 H 1016.08 3.15598 5.18154 0
M  V30 10953 H 1014.82 2.20033 4.35243 0
M  V30 10954 H 1013.83 4.30697 3.41731 0
M  V30 10955 H 1015.05 5.27312 4.27924 0
M  V30 10956 H 1013 3.44598 5.58201 0
M  V30 10957 H 1012.91 5.17566 5.51055 0
M  V30 10958 H 1014.18 4.4147 6.42437 0
M  V30 10959 N 1018.41 -0.709066 1.40748 0
M  V30 10960 C 1019.64 -1.50313 1.42901 0
M  V30 10961 C 1020.06 -1.88072 0.032213 0
M  V30 10962 O 1019.42 -1.53716 -0.96131 0
M  V30 10963 C 1019.47 -2.75074 2.33166 0
M  V30 10964 O 1018.57 -3.72036 1.7794 0
M  V30 10965 H 1017.91 -0.452934 0.485538 0
M  V30 10966 H 1020.44 -0.872712 1.85054 0
M  V30 10967 H 1020.45 -3.23532 2.48578 0
M  V30 10968 H 1019.13 -2.46927 3.34664 0
M  V30 10969 H 1017.7 -3.30911 1.71908 0
M  V30 10970 N 1019.89 -1.26353 -0.941956 0
M  V30 10971 C 1020.85 -1.07904 -2.02211 0
M  V30 10972 C 1021.85 -0.0276283 -1.60776 0
M  V30 10973 O 1023.04 -0.270965 -1.7208 0
M  V30 10974 C 1020.17 -0.641084 -3.34818 0
M  V30 10975 H 1021.37 -2.03804 -2.20009 0
M  V30 10976 H 1018.92 -1.08939 -1.12081 0
M  V30 10977 H 1019.66 0.319943 -3.22718 0
M  V30 10978 H 1019.44 -1.40027 -3.66244 0
M  V30 10979 H 1020.93 -0.533826 -4.14174 0
M  V30 10980 N 1021.37 1.14642 -1.08144 0
M  V30 10981 C 1022.28 2.23257 -0.720668 0
M  V30 10982 C 1023.29 1.71866 0.271648 0
M  V30 10983 O 1024.47 2.01064 0.116266 0
M  V30 10984 C 1021.53 3.46447 -0.132542 0
M  V30 10985 C 1020.6 4.12789 -1.17913 0
M  V30 10986 C 1019.83 5.30099 -0.618971 0
M  V30 10987 O 1020.05 5.6762 0.562418 0
M  V30 10988 O 1018.99 5.86154 -1.36774 0
M  V30 10989 H 1022.81 2.56463 -1.62667 0
M  V30 10990 H 1020.4 1.22521 -0.854932 0
M  V30 10991 H 1022.28 4.20959 0.19277 0
M  V30 10992 H 1020.95 3.14971 0.746662 0
M  V30 10993 H 1019.86 3.40163 -1.55693 0
M  V30 10994 H 1021.19 4.48365 -2.03051 0
M  V30 10995 N 1022.85 0.866709 1.31628 0
M  V30 10996 C 1024.26 0.529032 1.79048 0
M  V30 10997 C 1024.61 -0.953871 1.71452 0
M  V30 10998 O 1023.73 -1.74462 1.28031 0
M  V30 10999 C 1024.33 0.953522 3.25105 0
M  V30 11000 C 1022.89 0.667554 3.70433 0
M  V30 11001 C 1022.03 1.14664 2.52483 0
M  V30 11002 H 1024.98 1.05275 1.18756 0
M  V30 11003 H 1025.01 0.274844 3.79506 0
M  V30 11004 H 1024.52 2.03283 3.30602 0
M  V30 11005 H 1022.62 -0.400532 3.70441 0
M  V30 11006 H 1022.73 1.2423 4.62714 0
M  V30 11007 H 1021.1 0.566502 2.4832 0
M  V30 11008 H 1021.88 2.2333 2.60727 0
M  V30 11009 N 1024.32 -1.44642 0.625825 0
M  V30 11010 C 1025.55 -2.06971 0.133373 0
M  V30 11011 C 1025.97 -1.46421 -1.18078 0
M  V30 11012 O 1025.33 -0.563676 -1.72315 0
M  V30 11013 C 1025.38 -3.6059 0.0265097 0
M  V30 11014 O 1024.48 -3.99615 -1.01889 0
M  V30 11015 H 1023.82 -0.658873 0.0823568 0
M  V30 11016 H 1026.35 -1.85601 0.861002 0
M  V30 11017 H 1026.36 -4.07663 -0.1658 0
M  V30 11018 H 1025.04 -4.04043 0.985986 0
M  V30 11019 H 1023.62 -3.64183 -0.801577 0
M  V30 11020 N 1025.8 -0.366053 -1.5329 0
M  V30 11021 C 1027.05 0.223824 -2.01561 0
M  V30 11022 C 1027.38 1.48382 -1.25286 0
M  V30 11023 O 1026.66 1.91385 -0.34669 0
M  V30 11024 C 1026.94 0.5153 -3.56394 0
M  V30 11025 C 1026.79 -0.758357 -4.43361 0
M  V30 11026 C 1028.11 1.31568 -4.19974 0
M  V30 11027 H 1025.23 0.0798751 -0.732659 0
M  V30 11028 H 1027.87 -0.491038 -1.83545 0
M  V30 11029 H 1026.02 1.12429 -3.71876 0
M  V30 11030 H 1027.69 -1.39584 -4.39675 0
M  V30 11031 H 1025.94 -1.37862 -4.11311 0
M  V30 11032 H 1026.61 -0.509366 -5.49645 0
M  V30 11033 H 1029.08 0.800514 -4.08327 0
M  V30 11034 H 1027.96 1.48837 -5.28336 0
M  V30 11035 H 1028.22 2.32432 -3.76069 0
M  V30 11036 N 1027.28 1.57312 -0.0952337 0
M  V30 11037 C 1028.53 1.94358 0.568442 0
M  V30 11038 C 1028.85 0.97698 1.68182 0
M  V30 11039 O 1028.11 -0.00340398 1.957 0
M  V30 11040 C 1028.41 3.37937 1.16332 0
M  V30 11041 C 1028.07 4.50565 0.173715 0
M  V30 11042 C 1026.74 4.81099 -0.0984673 0
M  V30 11043 C 1029.09 5.18777 -0.501992 0
M  V30 11044 C 1026.42 5.77172 -1.05305 0
M  V30 11045 C 1028.77 6.15874 -1.44505 0
M  V30 11046 C 1027.43 6.44813 -1.72546 0
M  V30 11047 H 1026.7 0.711206 0.208007 0
M  V30 11048 H 1029.35 1.90734 -0.171096 0
M  V30 11049 H 1027.65 3.3814 1.97911 0
M  V30 11050 H 1029.35 3.63902 1.68453 0
M  V30 11051 H 1025.94 4.26766 0.396042 0
M  V30 11052 H 1030.13 4.95363 -0.304855 0
M  V30 11053 H 1025.38 5.97909 -1.2773 0
M  V30 11054 H 1029.56 6.67824 -1.97444 0
M  V30 11055 H 1027.18 7.19067 -2.46671 0
M  V30 11056 N 1028.76 -0.17846 1.56586 0
M  V30 11057 C 1030 -0.897562 1.81856 0
M  V30 11058 C 1030.34 -1.82204 0.671955 0
M  V30 11059 O 1029.61 -1.91739 -0.326535 0
M  V30 11060 C 1029.89 -1.69942 3.17477 0
M  V30 11061 C 1029.75 -0.798545 4.42655 0
M  V30 11062 C 1031.07 -2.66861 3.49962 0
M  V30 11063 H 1028.19 -0.324863 0.661539 0
M  V30 11064 H 1030.83 -0.164106 1.8929 0
M  V30 11065 H 1028.98 -2.32471 3.11271 0
M  V30 11066 H 1030.65 -0.18668 4.60922 0
M  V30 11067 H 1028.89 -0.106181 4.3367 0
M  V30 11068 H 1029.56 -1.39496 5.34083 0
M  V30 11069 H 1032.04 -2.1446 3.56576 0
M  V30 11070 H 1030.92 -3.20037 4.45946 0
M  V30 11071 H 1031.18 -3.46715 2.74301 0
M  V30 11072 N 1030.24 -1.51135 -0.446768 0
M  V30 11073 C 1031.65 -1.39101 -0.782504 0
M  V30 11074 C 1031.85 -0.46599 -1.96038 0
M  V30 11075 O 1030.91 0.0823679 -2.52366 0
M  V30 11076 C 1032.22 -2.80953 -1.07173 0
M  V30 11077 C 1033.77 -2.90038 -1.17673 0
M  V30 11078 C 1034.24 -4.32777 -1.49894 0
M  V30 11079 N 1035.73 -4.3584 -1.56837 0
M  V30 11080 C 1036.47 -5.43305 -1.83322 0
M  V30 11081 N 1035.97 -6.60945 -2.07662 0
M  V30 11082 N 1037.76 -5.30775 -1.85026 0
M  V30 11083 H 1029.91 -2.09835 0.329114 0
M  V30 11084 H 1032.17 -0.944199 0.0848054 0
M  V30 11085 H 1031.88 -3.50591 -0.279037 0
M  V30 11086 H 1031.75 -3.197 -2.00179 0
M  V30 11087 H 1034.14 -2.20603 -1.96005 0
M  V30 11088 H 1034.22 -2.54801 -0.225892 0
M  V30 11089 H 1033.86 -5.02757 -0.720924 0
M  V30 11090 H 1033.79 -4.6552 -2.46168 0
M  V30 11091 H 1036.29 -3.51023 -1.39968 0
M  V30 11092 H 1036.6 -7.38643 -2.27214 0
M  V30 11093 H 1034.94 -6.64077 -2.05003 0
M  V30 11094 H 1038.13 -4.37858 -1.65523 0
M  V30 11095 H 1038.31 -6.14609 -2.05329 0
M  V30 11096 N 1031.71 0.701592 -1.41122 0
M  V30 11097 C 1032.94 1.49049 -1.43499 0
M  V30 11098 C 1033.36 1.88761 -0.0385684 0
M  V30 11099 O 1032.71 1.56384 0.940755 0
M  V30 11100 C 1032.76 2.7569 -2.33832 0
M  V30 11101 O 1032.49 2.37653 -3.68039 0
M  V30 11102 C 1033.99 3.69479 -2.44949 0
M  V30 11103 H 1031.21 0.459519 -0.488961 0
M  V30 11104 H 1033.75 0.864318 -1.85337 0
M  V30 11105 H 1031.91 3.34559 -1.95318 0
M  V30 11106 H 1032.32 3.19241 -4.16156 0
M  V30 11107 H 1033.79 4.55139 -3.12334 0
M  V30 11108 H 1034.27 4.13553 -1.47887 0
M  V30 11109 H 1034.88 3.16517 -2.84072 0
M  V30 11110 N 1033.19 1.2685 0.935242 0
M  V30 11111 C 1034.42 1.15538 1.71635 0
M  V30 11112 C 1034.83 -0.288698 1.8658 0
M  V30 11113 O 1034.19 -1.19721 1.37743 0
M  V30 11114 C 1034.24 1.8259 3.11999 0
M  V30 11115 O 1033.96 3.21355 2.97763 0
M  V30 11116 C 1035.46 1.77307 4.06297 0
M  V30 11117 H 1032.68 0.402055 0.537208 0
M  V30 11118 H 1035.23 1.67582 1.17203 0
M  V30 11119 H 1033.38 1.3447 3.63313 0
M  V30 11120 H 1033.8 3.54626 3.86446 0
M  V30 11121 H 1035.27 2.28851 5.02326 0
M  V30 11122 H 1035.75 0.740823 4.32907 0
M  V30 11123 H 1036.35 2.25007 3.60904 0
M  V30 11124 N 1034.67 -1.14067 1.0875 0
M  V30 11125 C 1035.58 -2.22871 0.732498 0
M  V30 11126 C 1036.6 -1.72008 -0.26253 0
M  V30 11127 O 1037.77 -2.01123 -0.105601 0
M  V30 11128 C 1034.84 -3.46371 0.150913 0
M  V30 11129 C 1033.9 -4.12158 1.201 0
M  V30 11130 C 1033.13 -5.29763 0.647075 0
M  V30 11131 O 1033.35 -5.67911 -0.532307 0
M  V30 11132 O 1032.29 -5.8542 1.3988 0
M  V30 11133 H 1036.11 -2.55596 1.64025 0
M  V30 11134 H 1033.7 -1.22065 0.861417 0
M  V30 11135 H 1035.58 -4.21055 -0.170442 0
M  V30 11136 H 1034.26 -3.15362 -0.729948 0
M  V30 11137 H 1033.16 -3.39332 1.57494 0
M  V30 11138 H 1034.5 -4.47282 2.05426 0
M  V30 11139 N 1036.15 -0.873678 -1.31166 0
M  V30 11140 C 1037.06 -0.335726 -2.32185 0
M  V30 11141 C 1038.07 0.556259 -1.64869 0
M  V30 11142 O 1039.25 0.452087 -1.9626 0
M  V30 11143 C 1036.32 0.450822 -3.43756 0
M  V30 11144 C 1035.38 -0.469565 -4.26724 0
M  V30 11145 C 1034.61 0.279538 -5.32967 0
M  V30 11146 O 1034.83 1.50715 -5.50128 0
M  V30 11147 O 1033.77 -0.36452 -6.00795 0
M  V30 11148 H 1037.59 -1.17314 -2.80127 0
M  V30 11149 H 1035.18 -0.637163 -1.35132 0
M  V30 11150 H 1037.06 0.896582 -4.11752 0
M  V30 11151 H 1035.73 1.26472 -2.9797 0
M  V30 11152 H 1034.64 -0.963902 -3.61469 0
M  V30 11153 H 1035.97 -1.24916 -4.76085 0
M  V30 11154 N 1037.63 1.44308 -0.633487 0
M  V30 11155 C 1038.87 2.01624 -0.138643 0
M  V30 11156 C 1039.2 1.50101 1.24477 0
M  V30 11157 O 1038.47 0.705575 1.82752 0
M  V30 11158 H 1037.05 0.745439 -0.0482636 0
M  V30 11159 H 1039.71 1.76777 -0.820719 0
M  V30 11160 H 1038.8 3.11913 -0.108136 0
M  V30 11161 N 1039.1 0.374177 1.53094 0
M  V30 11162 C 1040.04 -0.511995 2.22382 0
M  V30 11163 C 1041.02 -1.07617 1.2189 0
M  V30 11164 O 1042.2 -1.13068 1.50824 0
M  V30 11165 C 1039.33 -1.70724 2.92525 0
M  V30 11166 C 1038.37 -1.26972 4.07161 0
M  V30 11167 S 1039.21 -0.263835 5.3485 0
M  V30 11168 C 1040.36 -1.46521 6.08508 0
M  V30 11169 H 1040.59 0.0764311 2.97202 0
M  V30 11170 H 1038.13 0.158307 1.53586 0
M  V30 11171 H 1040.09 -2.39279 3.3355 0
M  V30 11172 H 1038.75 -2.26693 2.17414 0
M  V30 11173 H 1037.94 -2.16172 4.55286 0
M  V30 11174 H 1037.54 -0.663273 3.68072 0
M  V30 11175 H 1039.83 -2.39483 6.33762 0
M  V30 11176 H 1040.78 -1.02517 7.0064 0
M  V30 11177 H 1041.18 -1.67516 5.39072 0
M  V30 11178 N 1040.58 -1.57259 0.103575 0
M  V30 11179 C 1041.83 -1.93832 -0.55786 0
M  V30 11180 C 1042.14 -0.988087 -1.68808 0
M  V30 11181 O 1043.35 -1.24786 -2.41124 0
M  V30 11182 C 1041.81 -3.44433 -1.04373 0
M  V30 11183 C 1041.41 -4.47963 0.0571971 0
M  V30 11184 C 1043.16 -3.89953 -1.67742 0
M  V30 11185 C 1041.07 -5.89727 -0.444505 0
M  V30 11186 H 1040 -0.723536 -0.212161 0
M  V30 11187 H 1042.65 -1.82606 0.180944 0
M  V30 11188 H 1041.03 -3.50841 -1.83648 0
M  V30 11189 H 1042.2 -4.53209 0.83298 0
M  V30 11190 H 1040.52 -4.12104 0.596588 0
M  V30 11191 H 1043.11 -4.93272 -2.06365 0
M  V30 11192 H 1043.46 -3.2907 -2.54988 0
M  V30 11193 H 1043.99 -3.86281 -0.950342 0
M  V30 11194 H 1040.73 -6.5433 0.391543 0
M  V30 11195 H 1040.25 -5.87935 -1.18711 0
M  V30 11196 H 1041.93 -6.40558 -0.910739 0
M  V30 11197 N 1042.06 0.170153 -1.56679 0
M  V30 11198 C 1043.48 0.521966 -1.50823 0
M  V30 11199 C 1043.68 1.84589 -0.808037 0
M  V30 11200 O 1042.73 2.49791 -0.368891 0
M  V30 11201 C 1044.05 0.553648 -2.95559 0
M  V30 11202 C 1045.59 0.640769 -3.06371 0
M  V30 11203 C 1046.07 0.703332 -4.52567 0
M  V30 11204 N 1047.56 0.76619 -4.56819 0
M  V30 11205 C 1048.29 0.835192 -5.67285 0
M  V30 11206 N 1047.79 0.864957 -6.87379 0
M  V30 11207 N 1049.58 0.874302 -5.55259 0
M  V30 11208 H 1041.73 -0.697952 -2.00605 0
M  V30 11209 H 1044 -0.251787 -0.913952 0
M  V30 11210 H 1043.7 -0.350498 -3.49949 0
M  V30 11211 H 1043.58 1.39973 -3.50268 0
M  V30 11212 H 1045.96 1.53534 -2.52015 0
M  V30 11213 H 1046.05 -0.232008 -2.54746 0
M  V30 11214 H 1045.69 -0.186986 -5.07556 0
M  V30 11215 H 1045.62 1.59227 -5.0195 0
M  V30 11216 H 1048.11 0.751424 -3.70354 0
M  V30 11217 H 1048.42 0.918814 -7.67318 0
M  V30 11218 H 1046.77 0.833215 -6.89987 0
M  V30 11219 H 1049.96 0.848057 -4.60354 0
M  V30 11220 H 1050.13 0.924615 -6.4137 0
M  V30 11221 N 1043.54 1.5137 0.438746 0
M  V30 11222 C 1044.78 1.64211 1.19006 0
M  V30 11223 C 1045.12 0.356607 1.90898 0
M  V30 11224 O 1044.39 -0.643722 1.83539 0
M  V30 11225 C 1044.68 2.8445 2.20817 0
M  V30 11226 C 1044.53 4.22972 1.53018 0
M  V30 11227 C 1045.85 3.00207 3.21813 0
M  V30 11228 H 1042.97 0.597628 0.431288 0
M  V30 11229 H 1045.61 1.8385 0.479487 0
M  V30 11230 H 1043.76 2.67836 2.81418 0
M  V30 11231 H 1045.43 4.5125 0.957654 0
M  V30 11232 H 1043.67 4.25736 0.832556 0
M  V30 11233 H 1044.34 5.03094 2.27158 0
M  V30 11234 H 1046.82 3.15522 2.71266 0
M  V30 11235 H 1045.7 3.85904 3.90345 0
M  V30 11236 H 1045.96 2.12216 3.87836 0
M  V30 11237 N 1045.02 -0.694098 1.41492 0
M  V30 11238 C 1046.43 -1.00487 1.23994 0
M  V30 11239 C 1046.63 -2.01078 0.130346 0
M  V30 11240 O 1045.69 -2.47403 -0.504775 0
M  V30 11241 C 1047 -1.52808 2.58979 0
M  V30 11242 C 1048.55 -1.64684 2.66173 0
M  V30 11243 C 1049.02 -2.20406 4.01479 0
M  V30 11244 N 1050.52 -2.27765 4.03333 0
M  V30 11245 C 1051.25 -2.7191 5.04829 0
M  V30 11246 N 1050.75 -3.1565 6.16714 0
M  V30 11247 N 1052.54 -2.71487 4.9219 0
M  V30 11248 H 1044.69 -0.027746 2.12382 0
M  V30 11249 H 1046.95 -0.0748741 0.945039 0
M  V30 11250 H 1046.66 -0.863519 3.40934 0
M  V30 11251 H 1046.53 -2.50998 2.81566 0
M  V30 11252 H 1048.92 -2.30251 1.84576 0
M  V30 11253 H 1049 -0.65035 2.47395 0
M  V30 11254 H 1048.65 -1.55454 4.83525 0
M  V30 11255 H 1048.58 -3.2081 4.17599 0
M  V30 11256 H 1051.07 -1.96899 3.22551 0
M  V30 11257 H 1051.38 -3.47966 6.90029 0
M  V30 11258 H 1049.72 -3.13555 6.20248 0
M  V30 11259 H 1052.92 -2.36666 4.03865 0
M  V30 11260 H 1053.09 -3.05573 5.71427 0
M  V30 11261 N 1046.49 -1.27344 -0.928501 0
M  V30 11262 C 1047.44 -1.10001 -2.029 0
M  V30 11263 C 1048.41 -0.00131084 -1.661 0
M  V30 11264 O 1049.6 -0.163485 -1.90098 0
M  V30 11265 C 1046.74 -0.7524 -3.36798 0
M  V30 11266 C 1045.85 -1.92865 -3.86558 0
M  V30 11267 C 1044.98 -1.52299 -5.08899 0
M  V30 11268 C 1044.02 -2.66677 -5.50953 0
M  V30 11269 N 1043.16 -2.26706 -6.64491 0
M  V30 11270 H 1048 -2.0417 -2.17068 0
M  V30 11271 H 1045.54 -1.01637 -1.0634 0
M  V30 11272 H 1047.5 -0.531687 -4.13798 0
M  V30 11273 H 1046.13 0.15234 -3.2244 0
M  V30 11274 H 1045.18 -2.26192 -3.05845 0
M  V30 11275 H 1046.49 -2.78668 -4.13698 0
M  V30 11276 H 1045.64 -1.26348 -5.93398 0
M  V30 11277 H 1044.38 -0.636042 -4.83535 0
M  V30 11278 H 1043.39 -2.93344 -4.65004 0
M  V30 11279 H 1044.61 -3.55992 -5.78313 0
M  V30 11280 H 1042.56 -1.40462 -6.40786 0
M  V30 11281 H 1042.48 -3.06049 -6.91281 0
M  V30 11282 H 1043.74 -2.04 -7.52333 0
M  V30 11283 N 1047.97 1.13488 -1.09353 0
M  V30 11284 C 1049.2 1.89133 -0.85108 0
M  V30 11285 C 1049.62 1.78542 0.591976 0
M  V30 11286 O 1048.98 1.13243 1.41583 0
M  V30 11287 C 1049.03 3.36736 -1.29001 0
M  V30 11288 O 1048.13 4.09959 -0.447993 0
M  V30 11289 H 1047.47 0.58809 -0.308296 0
M  V30 11290 H 1050 1.43593 -1.45747 0
M  V30 11291 H 1050.01 3.87564 -1.27508 0
M  V30 11292 H 1048.69 3.43762 -2.34095 0
M  V30 11293 H 1047.27 3.69155 -0.52717 0
M  V30 11294 N 1049.45 0.880621 1.30701 0
M  V30 11295 C 1050.4 0.342397 2.28246 0
M  V30 11296 C 1051.37 -0.565023 1.56194 0
M  V30 11297 O 1052.55 -0.494377 1.84284 0
M  V30 11298 C 1049.69 -0.440859 3.42272 0
M  V30 11299 C 1048.81 0.495284 4.29151 0
M  V30 11300 C 1047.94 -0.303141 5.30334 0
M  V30 11301 C 1046.98 0.628751 6.08862 0
M  V30 11302 N 1046.12 -0.13408 7.01972 0
M  V30 11303 H 1050.96 1.17938 2.73669 0
M  V30 11304 H 1048.49 0.59296 1.34619 0
M  V30 11305 H 1050.45 -0.910854 4.07135 0
M  V30 11306 H 1049.08 -1.24245 2.97931 0
M  V30 11307 H 1048.13 1.08376 3.64635 0
M  V30 11308 H 1049.45 1.2094 4.83916 0
M  V30 11309 H 1048.6 -0.835181 6.00924 0
M  V30 11310 H 1047.34 -1.05049 4.76252 0
M  V30 11311 H 1046.34 1.17246 5.37153 0
M  V30 11312 H 1047.57 1.37512 6.65032 0
M  V30 11313 H 1045.52 -0.864046 6.50285 0
M  V30 11314 H 1045.43 0.520486 7.54206 0
M  V30 11315 H 1046.7 -0.647005 7.7681 0
M  V30 11316 N 1050.93 -1.4397 0.641131 0
M  V30 11317 C 1052.18 -2.01548 0.149333 0
M  V30 11318 C 1052.5 -1.50759 -1.23679 0
M  V30 11319 O 1051.77 -0.715257 -1.82376 0
M  V30 11320 H 1050.35 -0.745173 0.0522161 0
M  V30 11321 H 1053.01 -1.7634 0.830082 0
M  V30 11322 H 1052.11 -3.11851 0.124676 0
M  V30 11323 N 1052.41 -0.382291 -1.52893 0
M  V30 11324 C 1053.35 0.456234 -2.26246 0
M  V30 11325 C 1054.32 1.06366 -1.27575 0
M  V30 11326 O 1055.51 1.09301 -1.5639 0
M  V30 11327 C 1052.65 1.5813 -3.06739 0
M  V30 11328 C 1051.76 0.997416 -4.20328 0
M  V30 11329 C 1050.9 2.09296 -4.8823 0
M  V30 11330 C 1049.94 1.4846 -5.93823 0
M  V30 11331 N 1049.07 2.51916 -6.55349 0
M  V30 11332 H 1053.91 -0.175761 -2.97481 0
M  V30 11333 H 1051.45 -0.0985046 -1.4677 0
M  V30 11334 H 1053.41 2.24426 -3.51694 0
M  V30 11335 H 1052.04 2.18371 -2.37727 0
M  V30 11336 H 1051.09 0.224251 -3.79738 0
M  V30 11337 H 1052.4 0.512784 -4.96157 0
M  V30 11338 H 1051.56 2.83377 -5.36453 0
M  V30 11339 H 1050.3 2.61116 -4.1191 0
M  V30 11340 H 1049.3 0.729001 -5.44946 0
M  V30 11341 H 1050.53 0.97443 -6.72073 0
M  V30 11342 H 1048.47 3.02919 -5.81873 0
M  V30 11343 H 1048.39 2.08188 -7.26769 0
M  V30 11344 H 1049.66 3.25649 -7.08218 0
M  V30 11345 N 1053.89 1.57202 -0.111913 0
M  V30 11346 C 1055.12 1.99008 0.554907 0
M  V30 11347 C 1055.52 0.990323 1.61212 0
M  V30 11348 O 1054.87 -0.0259612 1.83682 0
M  V30 11349 C 1054.93 3.37218 1.24598 0
M  V30 11350 C 1054.59 4.55752 0.337549 0
M  V30 11351 C 1055.59 5.18192 -0.421026 0
M  V30 11352 C 1053.27 5.01674 0.25069 0
M  V30 11353 C 1055.27 6.24938 -1.25426 0
M  V30 11354 C 1052.96 6.08282 -0.586186 0
M  V30 11355 C 1053.95 6.6978 -1.3373 0
M  V30 11356 O 1053.64 7.7433 -2.16029 0
M  V30 11357 H 1053.37 0.658669 0.152091 0
M  V30 11358 H 1055.93 2.04492 -0.192937 0
M  V30 11359 H 1054.16 3.28467 2.04074 0
M  V30 11360 H 1055.85 3.63359 1.809 0
M  V30 11361 H 1056.61 4.83634 -0.363752 0
M  V30 11362 H 1052.49 4.53558 0.825005 0
M  V30 11363 H 1056.04 6.72869 -1.84102 0
M  V30 11364 H 1051.93 6.42271 -0.64488 0
M  V30 11365 H 1052.7 7.91395 -2.08894 0
M  V30 11366 N 1055.36 -0.161842 1.56767 0
M  V30 11367 C 1056.33 -1.18404 1.96247 0
M  V30 11368 C 1057.33 -1.3667 0.84722 0
M  V30 11369 O 1058.52 -1.33915 1.11411 0
M  V30 11370 C 1055.65 -2.54728 2.26553 0
M  V30 11371 H 1056.84 -0.845703 2.87729 0
M  V30 11372 H 1054.39 -0.404645 1.50971 0
M  V30 11373 H 1055.13 -2.93559 1.37816 0
M  V30 11374 H 1054.91 -2.42834 3.07854 0
M  V30 11375 H 1056.4 -3.28378 2.57987 0
M  V30 11376 N 1056.84 -1.516 -0.430713 0
M  V30 11377 C 1058.07 -1.68169 -1.20011 0
M  V30 11378 C 1058.48 -0.381406 -1.85316 0
M  V30 11379 O 1057.82 0.6506 -1.71793 0
M  V30 11380 C 1057.88 -2.7454 -2.32095 0
M  V30 11381 C 1057.55 -4.16942 -1.87104 0
M  V30 11382 C 1058.55 -5.01503 -1.37078 0
M  V30 11383 C 1056.23 -4.63075 -1.94594 0
M  V30 11384 C 1058.22 -6.3026 -0.951362 0
M  V30 11385 C 1055.91 -5.91827 -1.52264 0
M  V30 11386 C 1056.91 -6.75247 -1.02618 0
M  V30 11387 O 1056.6 -8.01591 -0.608905 0
M  V30 11388 H 1056.33 -0.567361 -0.367528 0
M  V30 11389 H 1058.88 -1.98819 -0.515759 0
M  V30 11390 H 1057.11 -2.39219 -3.03828 0
M  V30 11391 H 1058.8 -2.79921 -2.93937 0
M  V30 11392 H 1059.57 -4.67063 -1.30681 0
M  V30 11393 H 1055.45 -3.98262 -2.32182 0
M  V30 11394 H 1058.99 -6.95323 -0.563163 0
M  V30 11395 H 1054.89 -6.2578 -1.58333 0
M  V30 11396 H 1055.66 -8.15201 -0.73416 0
M  V30 11397 N 1058.32 0.686584 -1.41858 0
M  V30 11398 C 1059.25 1.81264 -1.47193 0
M  V30 11399 C 1060.23 1.66875 -0.329657 0
M  V30 11400 O 1061.42 1.86473 -0.542347 0
M  V30 11401 C 1058.55 3.19472 -1.36216 0
M  V30 11402 C 1057.5 3.4858 -2.48347 0
M  V30 11403 C 1056.83 4.86239 -2.22432 0
M  V30 11404 C 1058.13 3.46653 -3.90678 0
M  V30 11405 H 1059.82 1.77057 -2.41436 0
M  V30 11406 H 1057.37 0.850415 -1.16206 0
M  V30 11407 H 1059.32 3.97969 -1.38558 0
M  V30 11408 H 1058.04 3.24327 -0.384611 0
M  V30 11409 H 1056.7 2.72437 -2.45303 0
M  V30 11410 H 1056.35 4.8773 -1.22999 0
M  V30 11411 H 1056.05 5.06677 -2.97577 0
M  V30 11412 H 1057.57 5.67034 -2.26505 0
M  V30 11413 H 1058.99 4.15139 -3.95389 0
M  V30 11414 H 1057.38 3.78625 -4.65578 0
M  V30 11415 H 1058.45 2.45451 -4.18189 0
M  V30 11416 N 1059.8 1.27835 0.921735 0
M  V30 11417 C 1060.73 1.136 2.04003 0
M  V30 11418 C 1061.71 0.0358756 1.70062 0
M  V30 11419 O 1062.89 0.211438 1.93046 0
M  V30 11420 C 1060.02 0.788697 3.38226 0
M  V30 11421 C 1058.98 1.84272 3.863 0
M  V30 11422 C 1058.3 1.34923 5.17397 0
M  V30 11423 C 1059.6 3.24788 4.09035 0
M  V30 11424 H 1061.3 2.07149 2.1617 0
M  V30 11425 H 1058.84 0.997349 1.0387 0
M  V30 11426 H 1060.8 0.675911 4.15944 0
M  V30 11427 H 1059.52 -0.182499 3.2609 0
M  V30 11428 H 1058.18 1.94451 3.1078 0
M  V30 11429 H 1057.83 0.367328 5.01657 0
M  V30 11430 H 1057.53 2.05397 5.50532 0
M  V30 11431 H 1059.05 1.24951 5.97678 0
M  V30 11432 H 1060.47 3.17575 4.77304 0
M  V30 11433 H 1058.86 3.93025 4.53488 0
M  V30 11434 H 1059.93 3.69398 3.14122 0
M  V30 11435 N 1061.28 -1.12907 1.09954 0
M  V30 11436 C 1062.19 -2.22082 0.756095 0
M  V30 11437 C 1063.2 -1.72277 -0.244272 0
M  V30 11438 O 1064.38 -2.01224 -0.0842637 0
M  V30 11439 C 1061.44 -3.46192 0.187642 0
M  V30 11440 C 1060.5 -4.10861 1.24465 0
M  V30 11441 C 1059.74 -5.29047 0.703227 0
M  V30 11442 O 1059.96 -5.68443 -0.472043 0
M  V30 11443 O 1058.89 -5.83904 1.46082 0
M  V30 11444 H 1062.72 -2.53842 1.66727 0
M  V30 11445 H 1060.3 -1.21145 0.874316 0
M  V30 11446 H 1062.19 -4.21212 -0.125774 0
M  V30 11447 H 1060.86 -3.16119 -0.696459 0
M  V30 11448 H 1059.77 -3.37643 1.61085 0
M  V30 11449 H 1061.1 -4.45078 2.10159 0
M  V30 11450 N 1062.75 -0.88754 -1.30232 0
M  V30 11451 C 1063.98 -0.521562 -2.00735 0
M  V30 11452 C 1064.4 0.883247 -1.66073 0
M  V30 11453 O 1063.76 1.58581 -0.878731 0
M  V30 11454 C 1063.81 -0.706521 -3.53611 0
M  V30 11455 O 1062.91 0.246447 -4.11663 0
M  V30 11456 H 1062.25 -0.205216 -0.631492 0
M  V30 11457 H 1064.78 -1.19579 -1.66018 0
M  V30 11458 H 1064.79 -0.606501 -4.03467 0
M  V30 11459 H 1063.47 -1.73076 -3.78177 0
M  V30 11460 H 1062.05 0.0999062 -3.72766 0
M  V30 11461 N 1064.23 1.43628 -0.648757 0
M  V30 11462 C 1065.46 2.06217 -0.167945 0
M  V30 11463 C 1065.88 1.486 1.16462 0
M  V30 11464 O 1065.23 0.61559 1.71804 0
M  V30 11465 C 1065.28 3.6144 -0.0660114 0
M  V30 11466 O 1065 4.16914 -1.34589 0
M  V30 11467 C 1066.51 4.41097 0.441408 0
M  V30 11468 H 1063.73 0.665228 -0.0878237 0
M  V30 11469 H 1066.27 1.84207 -0.888144 0
M  V30 11470 H 1064.42 3.82651 0.604722 0
M  V30 11471 H 1064.84 5.10537 -1.20218 0
M  V30 11472 H 1066.31 5.50066 0.461697 0
M  V30 11473 H 1066.79 4.13803 1.47187 0
M  V30 11474 H 1067.4 4.24845 -0.19668 0
M  V30 11475 N 1065.71 0.390394 1.52688 0
M  V30 11476 C 1066.64 -0.48838 2.22913 0
M  V30 11477 C 1067.62 -1.06319 1.23025 0
M  V30 11478 O 1068.81 -1.11462 1.52015 0
M  V30 11479 C 1065.93 -1.67612 2.9432 0
M  V30 11480 C 1064.98 -1.22646 4.08485 0
M  V30 11481 S 1065.81 -0.207092 5.35099 0
M  V30 11482 C 1066.97 -1.40058 6.10028 0
M  V30 11483 H 1067.2 0.107949 2.97104 0
M  V30 11484 H 1064.73 0.174588 1.5341 0
M  V30 11485 H 1066.69 -2.35728 3.36069 0
M  V30 11486 H 1065.35 -2.24375 2.19806 0
M  V30 11487 H 1064.55 -2.11331 4.57554 0
M  V30 11488 H 1064.15 -0.624197 3.68754 0
M  V30 11489 H 1066.44 -2.32747 6.36266 0
M  V30 11490 H 1067.38 -0.950804 7.01687 0
M  V30 11491 H 1067.79 -1.61789 5.40818 0
M  V30 11492 N 1067.19 -1.57141 0.120249 0
M  V30 11493 C 1068.14 -2.16638 -0.846809 0
M  V30 11494 C 1069.13 -1.11594 -1.27449 0
M  V30 11495 O 1070.34 -1.29895 -1.24608 0
M  V30 11496 H 1066.71 -0.693331 -0.291197 0
M  V30 11497 H 1068.68 -2.96673 -0.320536 0
M  V30 11498 C 1067.43 -2.78134 -2.08655 0
M  V30 11499 H 1066.75 -3.58662 -1.76639 0
M  V30 11500 H 1068.19 -3.23301 -2.74322 0
M  V30 11501 C 1066.65 -1.7528 -2.87713 0
M  V30 11502 O 1067.18 -1.20693 -3.8314 0
M  V30 11503 N 1065.39 -1.45192 -2.51729 0
M  V30 11504 H 1064.94 -1.89773 -1.74195 0
M  V30 11505 H 1064.89 -0.766166 -3.04922 0
M  V30 11506 N 1068.67 0.153526 -1.5685 0
M  V30 11507 C 1069.58 1.20932 -2.01029 0
M  V30 11508 C 1070.59 1.47401 -0.924598 0
M  V30 11509 O 1071.77 1.592 -1.23359 0
M  V30 11510 C 1068.83 2.52438 -2.37647 0
M  V30 11511 C 1067.89 2.33673 -3.60132 0
M  V30 11512 C 1067.13 3.58909 -3.94994 0
M  V30 11513 O 1067.35 4.64823 -3.30599 0
M  V30 11514 O 1066.28 3.5196 -4.8827 0
M  V30 11515 H 1070.11 0.864273 -2.91143 0
M  V30 11516 H 1067.7 0.361755 -1.44954 0
M  V30 11517 H 1069.58 3.29981 -2.62088 0
M  V30 11518 H 1068.25 2.86486 -1.5069 0
M  V30 11519 H 1067.16 1.54102 -3.40886 0
M  V30 11520 H 1068.49 2.04544 -4.47686 0
M  V30 11521 N 1070.14 1.51827 0.422667 0
M  V30 11522 C 1071.37 1.68803 1.19117 0
M  V30 11523 C 1071.78 0.391228 1.85111 0
M  V30 11524 O 1071.13 -0.64148 1.72136 0
M  V30 11525 C 1071.19 2.75767 2.30636 0
M  V30 11526 C 1070.85 4.17929 1.8489 0
M  V30 11527 C 1071.85 5.02223 1.34416 0
M  V30 11528 C 1069.53 4.641 1.92136 0
M  V30 11529 C 1071.53 6.30756 0.917925 0
M  V30 11530 C 1069.21 5.92626 1.49123 0
M  V30 11531 C 1070.21 6.75782 0.990352 0
M  V30 11532 O 1069.9 8.01902 0.566386 0
M  V30 11533 H 1069.63 0.569303 0.364514 0
M  V30 11534 H 1072.19 1.9909 0.505208 0
M  V30 11535 H 1070.42 2.40827 3.02555 0
M  V30 11536 H 1072.11 2.81476 2.92448 0
M  V30 11537 H 1072.87 4.67749 1.28202 0
M  V30 11538 H 1068.75 3.99488 2.30066 0
M  V30 11539 H 1072.29 6.95612 0.52628 0
M  V30 11540 H 1068.19 6.26611 1.55012 0
M  V30 11541 H 1068.96 8.15579 0.690918 0
M  V30 11542 N 1071.62 -0.679052 1.4222 0
M  V30 11543 C 1072.87 -1.43485 1.41757 0
M  V30 11544 C 1073.18 -1.95567 0.0358698 0
M  V30 11545 O 1074.39 -2.71346 -0.0913713 0
M  V30 11546 C 1072.85 -2.59541 2.49332 0
M  V30 11547 C 1072.45 -2.14176 3.93488 0
M  V30 11548 C 1074.2 -3.37078 2.58029 0
M  V30 11549 C 1072.11 -3.27289 4.92581 0
M  V30 11550 H 1071.04 -0.539022 0.52723 0
M  V30 11551 H 1073.69 -0.735581 1.68111 0
M  V30 11552 H 1072.07 -3.31815 2.16135 0
M  V30 11553 H 1073.24 -1.49082 4.36017 0
M  V30 11554 H 1071.56 -1.49589 3.88603 0
M  V30 11555 H 1074.15 -4.21312 3.29242 0
M  V30 11556 H 1074.5 -3.83383 1.62245 0
M  V30 11557 H 1075.03 -2.7187 2.90399 0
M  V30 11558 H 1071.77 -2.8598 5.89827 0
M  V30 11559 H 1071.29 -3.91178 4.54687 0
M  V30 11560 H 1072.97 -3.9282 5.14103 0
M  V30 11561 N 1073.1 -1.28322 -0.914942 0
M  V30 11562 C 1074.01 -1.13993 -2.05043 0
M  V30 11563 C 1075.03 -0.0667921 -1.73872 0
M  V30 11564 O 1076.2 -0.275845 -1.99502 0
M  V30 11565 C 1073.27 -0.801856 -3.373 0
M  V30 11566 C 1072.33 -1.95723 -3.82088 0
M  V30 11567 C 1071.56 -1.63519 -5.08033 0
M  V30 11568 O 1071.78 -0.54899 -5.67752 0
M  V30 11569 O 1070.72 -2.47844 -5.48504 0
M  V30 11570 H 1074.54 -2.09313 -2.2005 0
M  V30 11571 H 1072.13 -1.0763 -1.03616 0
M  V30 11572 H 1074.01 -0.627214 -4.16706 0
M  V30 11573 H 1072.69 0.121696 -3.23471 0
M  V30 11574 H 1071.59 -2.18702 -3.03514 0
M  V30 11575 H 1072.93 -2.86144 -4.00478 0
M  V30 11576 N 1074.58 1.12322 -1.10551 0
M  V30 11577 C 1075.51 2.17819 -0.713263 0
M  V30 11578 C 1076.52 1.6086 0.250604 0
M  V30 11579 O 1077.71 1.78466 0.0348909 0
M  V30 11580 C 1074.81 3.38885 -0.0320325 0
M  V30 11581 C 1073.99 4.25332 -1.02038 0
M  V30 11582 C 1073.04 5.24895 -0.370412 0
M  V30 11583 O 1072.07 5.59958 -1.02157 0
M  V30 11584 N 1073.27 5.73934 0.870633 0
M  V30 11585 H 1076.04 2.52083 -1.62094 0
M  V30 11586 H 1073.6 1.27755 -0.994492 0
M  V30 11587 H 1075.59 4.02574 0.414285 0
M  V30 11588 H 1074.16 3.02762 0.778072 0
M  V30 11589 H 1073.38 3.5824 -1.64492 0
M  V30 11590 H 1074.67 4.79936 -1.68936 0
M  V30 11591 H 1074.07 5.47614 1.419 0
M  V30 11592 H 1072.62 6.39504 1.26008 0
M  V30 11593 N 1076.06 0.894434 1.2976 0
M  V30 11594 C 1077.47 0.589778 1.48303 0
M  V30 11595 C 1077.67 -0.870085 1.81746 0
M  V30 11596 O 1076.73 -1.65065 1.91076 0
M  V30 11597 C 1078.04 1.51107 2.59975 0
M  V30 11598 C 1079.59 1.51571 2.73853 0
M  V30 11599 C 1080.06 2.42316 3.88648 0
M  V30 11600 N 1081.56 2.40333 3.95973 0
M  V30 11601 C 1082.29 3.07254 4.84131 0
M  V30 11602 N 1081.79 3.83435 5.77018 0
M  V30 11603 N 1083.58 2.96438 4.77578 0
M  V30 11604 H 1075.73 1.83871 1.06327 0
M  V30 11605 H 1077.99 0.78758 0.527657 0
M  V30 11606 H 1077.7 2.55097 2.42112 0
M  V30 11607 H 1077.57 1.22767 3.56662 0
M  V30 11608 H 1079.96 0.483277 2.91116 0
M  V30 11609 H 1080.04 1.83946 1.77757 0
M  V30 11610 H 1079.69 3.4565 3.72141 0
M  V30 11611 H 1079.62 2.07252 4.84101 0
M  V30 11612 H 1082.11 1.84979 3.29532 0
M  V30 11613 H 1082.42 4.31565 6.4107 0
M  V30 11614 H 1080.76 3.87542 5.7692 0
M  V30 11615 H 1083.96 2.36442 4.03996 0
M  V30 11616 H 1084.13 3.48867 5.46073 0
M  V30 11617 N 1077.53 -1.43282 0.656365 0
M  V30 11618 C 1078.48 -2.30776 -0.0333155 0
M  V30 11619 C 1079.45 -1.44928 -0.811493 0
M  V30 11620 O 1080.64 -1.73792 -0.787465 0
M  V30 11621 C 1077.78 -3.30548 -0.991566 0
M  V30 11622 C 1076.89 -4.31493 -0.209159 0
M  V30 11623 C 1076.02 -5.18346 -1.16149 0
M  V30 11624 C 1075.06 -6.10983 -0.369699 0
M  V30 11625 N 1074.2 -6.90449 -1.27378 0
M  V30 11626 H 1079.04 -2.89204 0.718668 0
M  V30 11627 H 1076.58 -1.4247 0.366161 0
M  V30 11628 H 1078.54 -3.86905 -1.56078 0
M  V30 11629 H 1077.17 -2.73762 -1.71039 0
M  V30 11630 H 1076.22 -3.77405 0.476394 0
M  V30 11631 H 1077.53 -4.97142 0.406394 0
M  V30 11632 H 1076.68 -5.79345 -1.80124 0
M  V30 11633 H 1075.42 -4.52831 -1.81095 0
M  V30 11634 H 1074.43 -5.49069 0.283377 0
M  V30 11635 H 1075.65 -6.78541 0.275399 0
M  V30 11636 H 1073.6 -6.27579 -1.90999 0
M  V30 11637 H 1073.52 -7.52631 -0.71287 0
M  V30 11638 H 1074.78 -7.5595 -1.90158 0
M  V30 11639 N 1079.01 -0.398486 -1.52479 0
M  V30 11640 C 1080.42 0.0735015 -1.86555 0
M  V30 11641 C 1080.78 1.45361 -1.31775 0
M  V30 11642 O 1079.9 2.0632 -0.652759 0
M  V30 11643 C 1080.5 0.140152 -3.3851 0
M  V30 11644 C 1079.05 0.556451 -3.72264 0
M  V30 11645 C 1078.2 -0.275792 -2.75925 0
M  V30 11646 H 1081.15 -0.615991 -1.46257 0
M  V30 11647 H 1081.17 0.957507 -3.68255 0
M  V30 11648 H 1080.69 -0.864442 -3.7835 0
M  V30 11649 H 1078.79 1.56808 -3.37997 0
M  V30 11650 H 1078.9 0.308227 -4.78107 0
M  V30 11651 H 1077.26 0.260304 -2.53366 0
M  V30 11652 H 1078.05 -1.27854 -3.18604 0
M  V30 11653 N 1080.49 1.57075 -0.12858 0
M  V30 11654 C 1081.73 1.97408 0.530059 0
M  V30 11655 C 1082.1 1.01087 1.63234 0
M  V30 11656 O 1083.3 1.30394 2.35055 0
M  V30 11657 C 1081.57 3.41928 1.04021 0
M  V30 11658 S 1083.13 4.04277 1.70603 0
M  V30 11659 H 1079.94 0.689884 0.17199 0
M  V30 11660 H 1082.55 1.94304 -0.215933 0
M  V30 11661 H 1081.25 4.09772 0.226928 0
M  V30 11662 H 1080.78 3.48703 1.82125 0
M  V30 11663 H 1082.8 3.95819 2.99235 0
M  V30 11664 N 1081.97 -0.145205 1.5693 0
M  V30 11665 C 1083.25 -0.88631 1.74367 0
M  V30 11666 C 1083.63 -1.99259 0.697081 0
M  V30 11667 O 1082.97 -2.26732 -0.28368 0
M  V30 11668 C 1083.18 -1.42712 3.18488 0
M  V30 11669 C 1084.53 -1.88982 3.80225 0
M  V30 11670 O 1085.56 -1.5245 3.21928 0
M  V30 11671 O 1084.42 -2.56361 4.8264 0
M  V30 11672 H 1081.51 -0.418979 0.713011 0
M  V30 11673 H 1084.06 -0.130991 1.69194 0
M  V30 11674 H 1082.83 -0.632165 3.8616 0
M  V30 11675 H 1082.45 -2.24589 3.28094 0
M  V30 11676 N 1083.45 -1.52049 -0.414609 0
M  V30 11677 C 1084.68 -1.69679 -1.18392 0
M  V30 11678 C 1085.09 -0.403881 -1.84429 0
M  V30 11679 O 1084.45 0.619636 -1.71659 0
M  V30 11680 C 1084.5 -2.82855 -2.25112 0
M  V30 11681 O 1084.22 -4.07138 -1.61772 0
M  V30 11682 C 1085.72 -3.11948 -3.14965 0
M  V30 11683 H 1082.94 -0.56879 -0.355977 0
M  V30 11684 H 1085.48 -1.9858 -0.488505 0
M  V30 11685 H 1083.64 -2.56488 -2.90332 0
M  V30 11686 H 1084.05 -4.70163 -2.32479 0
M  V30 11687 H 1085.53 -3.94665 -3.85932 0
M  V30 11688 H 1086 -2.25276 -3.77024 0
M  V30 11689 H 1086.61 -3.40059 -2.55421 0
M  V30 11690 N 1084.93 0.6715 -1.42579 0
M  V30 11691 C 1085.86 1.79625 -1.40749 0
M  V30 11692 C 1086.84 1.6032 -0.271312 0
M  V30 11693 O 1088.02 1.82749 -0.46205 0
M  V30 11694 C 1085.15 3.16672 -1.20153 0
M  V30 11695 C 1084.19 3.54718 -2.36807 0
M  V30 11696 S 1085.03 3.56771 -3.99343 0
M  V30 11697 C 1086.18 4.96505 -3.81095 0
M  V30 11698 H 1086.42 1.80903 -2.35926 0
M  V30 11699 H 1083.95 0.842469 -1.2939 0
M  V30 11700 H 1085.91 3.95776 -1.08956 0
M  V30 11701 H 1084.57 3.12976 -0.265545 0
M  V30 11702 H 1083.76 4.54341 -2.18152 0
M  V30 11703 H 1083.36 2.82982 -2.44535 0
M  V30 11704 H 1085.65 5.84674 -3.4229 0
M  V30 11705 H 1086.6 5.20207 -4.80406 0
M  V30 11706 H 1087.01 4.69178 -3.13898 0
M  V30 11707 N 1086.4 1.28806 0.908124 0
M  V30 11708 C 1087.35 1.13215 2.01125 0
M  V30 11709 C 1088.32 0.0277357 1.66077 0
M  V30 11710 O 1089.51 0.193707 1.89814 0
M  V30 11711 C 1086.65 0.805887 3.35558 0
M  V30 11712 C 1085.76 1.9899 3.83441 0
M  V30 11713 C 1084.89 1.60376 5.06412 0
M  V30 11714 C 1083.93 2.75409 5.46641 0
M  V30 11715 N 1083.07 2.37249 6.60801 0
M  V30 11716 H 1087.91 2.07598 2.13792 0
M  V30 11717 H 1085.45 1.03316 1.0471 0
M  V30 11718 H 1087.4 0.597451 4.129 0
M  V30 11719 H 1086.03 -0.101023 3.22642 0
M  V30 11720 H 1085.09 2.31029 3.02208 0
M  V30 11721 H 1086.4 2.85214 4.09212 0
M  V30 11722 H 1085.55 1.35772 5.91313 0
M  V30 11723 H 1084.29 0.712888 4.82462 0
M  V30 11724 H 1083.3 3.00705 4.60279 0
M  V30 11725 H 1084.52 3.65148 5.72577 0
M  V30 11726 H 1082.47 1.50638 6.3847 0
M  V30 11727 H 1082.38 3.17008 6.86325 0
M  V30 11728 H 1083.65 2.15943 7.48992 0
M  V30 11729 N 1087.88 -1.11734 1.11145 0
M  V30 11730 C 1089.13 -1.83677 0.859684 0
M  V30 11731 C 1089.46 -1.84265 -0.613182 0
M  V30 11732 O 1088.74 -1.29351 -1.45254 0
M  V30 11733 C 1089.02 -3.31003 1.41805 0
M  V30 11734 C 1088.87 -3.38827 2.95831 0
M  V30 11735 C 1090.19 -4.26984 1.06645 0
M  V30 11736 H 1087.31 -0.666879 0.313754 0
M  V30 11737 H 1089.95 -1.31038 1.37583 0
M  V30 11738 H 1088.1 -3.75961 0.979054 0
M  V30 11739 H 1089.77 -3.02451 3.48312 0
M  V30 11740 H 1088.02 -2.79143 3.32056 0
M  V30 11741 H 1088.69 -4.42508 3.29986 0
M  V30 11742 H 1091.16 -3.9019 1.44537 0
M  V30 11743 H 1090.04 -5.2846 1.48394 0
M  V30 11744 H 1090.3 -4.42094 -0.0231866 0
M  V30 11745 N 1089.36 -0.901303 -1.29284 0
M  V30 11746 C 1090.61 -0.527 -1.95108 0
M  V30 11747 C 1090.93 0.930065 -1.71391 0
M  V30 11748 O 1090.2 1.65601 -1.04658 0
M  V30 11749 H 1088.78 -0.191903 -0.721929 0
M  V30 11750 H 1091.44 -1.14795 -1.57506 0
M  V30 11751 H 1090.54 -0.710945 -3.03895 0
M  V30 11752 N 1090.84 1.42931 -0.663954 0
M  V30 11753 C 1092.09 2.01284 -0.181379 0
M  V30 11754 C 1092.41 1.52708 1.21265 0
M  V30 11755 O 1091.68 0.744181 1.81215 0
M  V30 11756 H 1090.26 0.744248 -0.0640646 0
M  V30 11757 H 1092.92 1.74997 -0.858031 0
M  V30 11758 H 1092.01 3.11613 -0.174273 0
M  V30 11759 N 1092.32 0.406567 1.52266 0
M  V30 11760 C 1093.26 -0.43489 2.28498 0
M  V30 11761 C 1094.26 -1.04806 1.33086 0
M  V30 11762 O 1095.46 -0.986557 1.50556 0
M  V30 11763 H 1091.84 -0.159023 0.734994 0
M  V30 11764 H 1093.81 0.229316 2.97518 0
M  V30 11765 C 1092.56 -1.54073 3.117 0
M  V30 11766 H 1091.88 -1.07824 3.84986 0
M  V30 11767 H 1093.32 -2.10337 3.6815 0
M  V30 11768 C 1091.78 -2.50662 2.251 0
M  V30 11769 O 1092.31 -3.54486 1.88951 0
M  V30 11770 N 1090.52 -2.20811 1.8892 0
M  V30 11771 H 1090.06 -1.36413 2.18516 0
M  V30 11772 H 1090.02 -2.85684 1.3127 0
M  V30 11773 N 1093.79 -1.57004 0.136909 0
M  V30 11774 C 1094.72 -2.19262 -0.802902 0
M  V30 11775 C 1095.71 -1.13786 -1.26439 0
M  V30 11776 O 1096.89 -1.42091 -1.32377 0
M  V30 11777 C 1094.02 -2.80624 -2.04615 0
M  V30 11778 C 1092.97 -3.91839 -1.72181 0
M  V30 11779 C 1092.3 -4.4009 -3.03686 0
M  V30 11780 C 1093.6 -5.13095 -0.976249 0
M  V30 11781 H 1095.29 -2.98049 -0.28406 0
M  V30 11782 H 1092.84 -1.43364 -0.135189 0
M  V30 11783 H 1094.79 -3.22842 -2.70834 0
M  V30 11784 H 1093.52 -1.99153 -2.58855 0
M  V30 11785 H 1092.18 -3.50224 -1.08344 0
M  V30 11786 H 1091.82 -3.55454 -3.55896 0
M  V30 11787 H 1091.52 -5.15098 -2.82751 0
M  V30 11788 H 1093.05 -4.84971 -3.70993 0
M  V30 11789 H 1094.46 -5.5222 -1.54033 0
M  V30 11790 H 1092.86 -5.93801 -0.867214 0
M  V30 11791 H 1093.93 -4.84888 0.0338488 0
M  V30 11792 N 1095.27 0.136881 -1.57004 0
M  V30 11793 C 1096.55 0.87705 -1.74835 0
M  V30 11794 C 1096.93 1.98886 -0.707639 0
M  V30 11795 O 1096.28 2.26879 0.271652 0
M  V30 11796 C 1096.49 1.41021 -3.1924 0
M  V30 11797 C 1097.84 1.86963 -3.81222 0
M  V30 11798 O 1098.86 1.5074 -3.22732 0
M  V30 11799 O 1097.72 2.53798 -4.83993 0
M  V30 11800 H 1094.81 0.415192 -0.715223 0
M  V30 11801 H 1097.36 0.122016 -1.69261 0
M  V30 11802 H 1096.13 0.611677 -3.8649 0
M  V30 11803 H 1095.75 2.22846 -3.2928 0
M  V30 11804 N 1096.75 1.52266 0.40654 0
M  V30 11805 C 1097.98 1.70598 1.17945 0
M  V30 11806 C 1098.4 0.415793 1.83447 0
M  V30 11807 O 1097.76 -0.626968 1.70114 0
M  V30 11808 C 1097.81 2.84449 2.21633 0
M  V30 11809 O 1096.91 2.50199 3.27833 0
M  V30 11810 H 1096.25 0.567837 0.344177 0
M  V30 11811 H 1098.78 1.98981 0.476211 0
M  V30 11812 H 1098.79 3.09436 2.65919 0
M  V30 11813 H 1097.47 3.78055 1.73341 0
M  V30 11814 H 1096.04 2.35892 2.88807 0
M  V30 11815 N 1098.23 -0.663929 1.42933 0
M  V30 11816 C 1099.18 -1.77717 1.47259 0
M  V30 11817 C 1100.15 -1.62922 0.323387 0
M  V30 11818 O 1101.33 -1.83319 0.529021 0
M  V30 11819 C 1098.47 -3.15814 1.39124 0
M  V30 11820 C 1097.58 -3.4182 2.64165 0
M  V30 11821 C 1096.72 -4.69705 2.48094 0
M  V30 11822 C 1095.76 -4.88781 3.68456 0
M  V30 11823 N 1094.89 -6.07915 3.51261 0
M  V30 11824 H 1099.73 -1.73355 2.42388 0
M  V30 11825 H 1097.27 -0.846121 1.2033 0
M  V30 11826 H 1099.23 -3.95633 1.32403 0
M  V30 11827 H 1097.86 -3.19274 0.475829 0
M  V30 11828 H 1096.91 -2.56176 2.81208 0
M  V30 11829 H 1098.22 -3.51805 3.53602 0
M  V30 11830 H 1097.38 -5.57632 2.39021 0
M  V30 11831 H 1096.12 -4.62022 1.56164 0
M  V30 11832 H 1095.12 -3.99292 3.7795 0
M  V30 11833 H 1096.35 -4.98301 4.61381 0
M  V30 11834 H 1094.29 -6.01384 2.62057 0
M  V30 11835 H 1094.21 -6.1881 4.34293 0
M  V30 11836 H 1095.48 -6.98492 3.4602 0
M  V30 11837 N 1099.71 -1.29285 -0.901281 0
M  V30 11838 C 1100.95 -1.16934 -1.64836 0
M  V30 11839 C 1101.28 0.279826 -1.92982 0
M  V30 11840 O 1100.55 1.19179 -1.55478 0
M  V30 11841 H 1099.13 -0.429768 -0.61099 0
M  V30 11842 H 1101.79 -1.62189 -1.08077 0
M  V30 11843 H 1100.88 -1.71821 -2.60545 0
M  V30 11844 N 1101.18 1.11143 -1.11736 0
M  V30 11845 C 1102.41 1.86474 -0.889435 0
M  V30 11846 C 1102.82 1.80584 0.564438 0
M  V30 11847 O 1102.17 1.18743 1.40163 0
M  V30 11848 C 1102.23 3.36066 -1.27671 0
M  V30 11849 C 1101.89 3.65721 -2.74038 0
M  V30 11850 C 1102.89 3.62941 -3.7225 0
M  V30 11851 C 1100.57 3.94629 -3.10762 0
M  V30 11852 C 1102.57 3.88651 -5.05202 0
M  V30 11853 C 1100.25 4.19997 -4.43899 0
M  V30 11854 C 1101.25 4.16996 -5.40928 0
M  V30 11855 O 1100.94 4.41724 -6.71666 0
M  V30 11856 H 1100.67 0.596438 -0.318178 0
M  V30 11857 H 1103.23 1.41465 -1.48918 0
M  V30 11858 H 1101.46 3.81695 -0.620124 0
M  V30 11859 H 1103.15 3.92769 -1.02409 0
M  V30 11860 H 1103.91 3.40655 -3.45223 0
M  V30 11861 H 1099.79 3.96099 -2.35853 0
M  V30 11862 H 1103.33 3.86224 -5.80927 0
M  V30 11863 H 1099.23 4.4176 -4.70657 0
M  V30 11864 H 1100 4.59276 -6.77501 0
M  V30 11865 N 1102.66 0.908147 1.28804 0
M  V30 11866 C 1103.91 0.53734 1.94826 0
M  V30 11867 C 1104.23 -0.920962 1.71882 0
M  V30 11868 O 1103.5 -1.65043 1.05534 0
M  V30 11869 H 1102.08 0.195729 0.720902 0
M  V30 11870 H 1104.74 1.15628 1.56895 0
M  V30 11871 H 1103.84 0.727052 3.03513 0
M  V30 11872 N 1104.14 -1.42577 0.671525 0
M  V30 11873 C 1105.39 -2.00806 0.189663 0
M  V30 11874 C 1105.7 -1.537 -1.20978 0
M  V30 11875 O 1106.91 -2.04325 -1.78784 0
M  V30 11876 C 1105.36 -3.58744 0.288227 0
M  V30 11877 C 1104.97 -4.14839 1.69152 0
M  V30 11878 C 1106.72 -4.24285 -0.13509 0
M  V30 11879 C 1104.62 -5.65131 1.74302 0
M  V30 11880 H 1103.55 -0.751004 0.067146 0
M  V30 11881 H 1106.2 -1.63338 0.83623 0
M  V30 11882 H 1104.59 -3.937 -0.426175 0
M  V30 11883 H 1105.76 -3.91349 2.43274 0
M  V30 11884 H 1104.08 -3.61738 2.0624 0
M  V30 11885 H 1106.67 -5.34573 -0.116709 0
M  V30 11886 H 1107.02 -3.99527 -1.16977 0
M  V30 11887 H 1107.55 -3.94278 0.528191 0
M  V30 11888 H 1104.29 -5.94682 2.75742 0
M  V30 11889 H 1103.81 -5.90621 1.04531 0
M  V30 11890 H 1105.49 -6.29491 1.49498 0
M  V30 11891 N 1105.62 -0.414636 -1.52048 0
M  V30 11892 C 1106.58 0.396285 -2.25748 0
M  V30 11893 C 1107.58 0.969003 -1.28324 0
M  V30 11894 O 1108.77 0.847016 -1.52221 0
M  V30 11895 C 1105.9 1.55838 -3.03195 0
M  V30 11896 H 1107.1 -0.249311 -2.98862 0
M  V30 11897 H 1104.65 -0.167276 -1.55402 0
M  V30 11898 H 1105.38 2.24068 -2.34444 0
M  V30 11899 H 1105.17 1.15414 -3.74729 0
M  V30 11900 H 1106.66 2.13187 -3.59084 0
M  V30 11901 N 1107.1 1.56929 -0.145233 0
M  V30 11902 C 1108.32 2.00431 0.513314 0
M  V30 11903 C 1108.74 1.0253 1.58534 0
M  V30 11904 O 1108.1 0.0220459 1.82487 0
M  V30 11905 C 1108.15 3.43856 1.11557 0
M  V30 11906 O 1107.87 4.38015 0.0863707 0
M  V30 11907 C 1109.37 4.02627 1.8549 0
M  V30 11908 H 1106.59 0.657529 0.133778 0
M  V30 11909 H 1109.13 2.03095 -0.239296 0
M  V30 11910 H 1107.29 3.4205 1.81881 0
M  V30 11911 H 1107.7 5.21842 0.527363 0
M  V30 11912 H 1109.18 5.04985 2.22923 0
M  V30 11913 H 1109.65 3.43239 2.74014 0
M  V30 11914 H 1110.26 4.08058 1.19869 0
M  V30 11915 N 1108.58 -0.128553 1.57075 0
M  V30 11916 C 1109.99 -0.686713 1.73612 0
M  V30 11917 C 1110.34 -1.80778 0.762478 0
M  V30 11918 O 1109.46 -2.16297 -0.0667779 0
M  V30 11919 C 1110.06 -1.25246 3.148 0
M  V30 11920 C 1108.62 -1.757 3.32876 0
M  V30 11921 C 1107.76 -0.652844 2.69506 0
M  V30 11922 H 1110.71 0.0972859 1.58402 0
M  V30 11923 H 1110.74 -2.1222 3.15821 0
M  V30 11924 H 1110.25 -0.436308 3.8564 0
M  V30 11925 H 1108.35 -2.59824 2.67063 0
M  V30 11926 H 1108.46 -1.87302 4.4097 0
M  V30 11927 H 1106.83 -1.08408 2.30477 0
M  V30 11928 H 1107.61 0.15217 3.42963 0
M  V30 11929 N 1110.05 -1.5248 -0.398459 0
M  V30 11930 C 1111 -1.76585 -1.48615 0
M  V30 11931 C 1111.97 -0.608677 -1.54546 0
M  V30 11932 O 1113.16 -0.847383 -1.7095 0
M  V30 11933 C 1110.3 -1.93201 -2.8595 0
M  V30 11934 C 1109.41 -3.20875 -2.89246 0
M  V30 11935 C 1108.54 -3.27862 -4.17947 0
M  V30 11936 C 1107.58 -4.49697 -4.15258 0
M  V30 11937 N 1106.72 -4.54017 -5.35549 0
M  V30 11938 H 1111.56 -2.69412 -1.27362 0
M  V30 11939 H 1109.1 -1.33487 -0.618031 0
M  V30 11940 H 1111.05 -2.00819 -3.65688 0
M  V30 11941 H 1109.68 -1.03743 -3.05675 0
M  V30 11942 H 1108.74 -3.22376 -2.01935 0
M  V30 11943 H 1110.05 -4.1066 -2.83125 0
M  V30 11944 H 1109.2 -3.34611 -5.06083 0
M  V30 11945 H 1107.94 -2.36035 -4.26777 0
M  V30 11946 H 1106.95 -4.43083 -3.25511 0
M  V30 11947 H 1108.17 -5.42831 -4.08059 0
M  V30 11948 H 1106.12 -3.65078 -5.45027 0
M  V30 11949 H 1106.03 -5.37661 -5.31466 0
M  V30 11950 H 1107.3 -4.65009 -6.25609 0
M  V30 11951 N 1111.53 0.65634 -1.43283 0
M  V30 11952 C 1112.78 1.41347 -1.44449 0
M  V30 11953 C 1113.1 1.94879 -0.0687217 0
M  V30 11954 O 1112.37 1.74235 0.895492 0
M  V30 11955 H 1110.95 0.524578 -0.531815 0
M  V30 11956 H 1113.61 0.774292 -1.7886 0
M  V30 11957 H 1112.71 2.25737 -2.15521 0
M  V30 11958 N 1113.01 1.29761 0.894412 0
M  V30 11959 C 1114.23 1.21064 1.68399 0
M  V30 11960 C 1114.66 -0.224608 1.86754 0
M  V30 11961 O 1114.02 -1.16199 1.39167 0
M  V30 11962 C 1114.07 1.93468 3.04306 0
M  V30 11963 O 1113.17 1.25533 3.9283 0
M  V30 11964 H 1112.51 0.419223 0.514925 0
M  V30 11965 H 1115.04 1.71421 1.11696 0
M  V30 11966 H 1115.05 2.02127 3.54413 0
M  V30 11967 H 1113.73 2.97857 2.90265 0
M  V30 11968 H 1112.3 1.25168 3.51266 0
M  V30 11969 N 1114.49 -1.10549 1.12324 0
M  V30 11970 C 1115.45 -2.15039 0.793156 0
M  V30 11971 C 1116.45 -1.59651 -0.19192 0
M  V30 11972 O 1117.64 -1.74167 0.0337262 0
M  V30 11973 C 1114.77 -3.40433 0.17842 0
M  V30 11974 H 1115.97 -2.4575 1.71892 0
M  V30 11975 H 1113.52 -1.25892 0.926333 0
M  V30 11976 H 1114.25 -3.15338 -0.757122 0
M  V30 11977 H 1114.04 -3.81921 0.887645 0
M  V30 11978 H 1115.53 -4.17584 -0.0360724 0
M  V30 11979 N 1115.97 -0.914965 -1.28321 0
M  V30 11980 C 1116.9 -0.421292 -2.29668 0
M  V30 11981 C 1117.88 0.511743 -1.6222 0
M  V30 11982 O 1119.06 0.419218 -1.89621 0
M  V30 11983 C 1116.19 0.338364 -3.45648 0
M  V30 11984 C 1115.15 -0.505646 -4.25003 0
M  V30 11985 C 1114.47 0.382421 -5.33331 0
M  V30 11986 C 1115.77 -1.76354 -4.91626 0
M  V30 11987 H 1117.47 -1.26826 -2.71211 0
M  V30 11988 H 1115.01 -0.611291 -1.30381 0
M  V30 11989 H 1116.96 0.694578 -4.15636 0
M  V30 11990 H 1115.69 1.21925 -3.02988 0
M  V30 11991 H 1114.35 -0.844395 -3.56743 0
M  V30 11992 H 1114 1.26189 -4.86914 0
M  V30 11993 H 1113.7 -0.17871 -5.87328 0
M  V30 11994 H 1115.22 0.73449 -6.06166 0
M  V30 11995 H 1116.63 -1.47616 -5.5397 0
M  V30 11996 H 1115.03 -2.26717 -5.55625 0
M  V30 11997 H 1116.1 -2.49063 -4.16048 0
M  V30 11998 N 1117.44 1.42219 -0.679077 0
M  V30 11999 C 1118.86 1.55737 -0.349034 0
M  V30 12000 C 1119.06 1.65789 1.14527 0
M  V30 12001 O 1118.12 1.62717 1.93079 0
M  V30 12002 C 1119.43 2.80516 -1.0831 0
M  V30 12003 C 1120.98 2.94294 -1.06584 0
M  V30 12004 C 1121.45 4.2194 -1.78132 0
M  V30 12005 N 1122.94 4.28861 -1.75021 0
M  V30 12006 C 1123.68 5.26453 -2.27234 0
M  V30 12007 N 1123.17 6.30171 -2.87847 0
M  V30 12008 N 1124.97 5.1828 -2.17584 0
M  V30 12009 H 1117.12 1.33939 -1.64846 0
M  V30 12010 H 1119.38 0.645029 -0.694725 0
M  V30 12011 H 1119.09 2.79241 -2.13816 0
M  V30 12012 H 1118.96 3.71539 -0.651069 0
M  V30 12013 H 1121.35 2.95094 -0.0191061 0
M  V30 12014 H 1121.43 2.04491 -1.53679 0
M  V30 12015 H 1121.07 4.21901 -2.82776 0
M  V30 12016 H 1121 5.10685 -1.28483 0
M  V30 12017 H 1123.49 3.54537 -1.30814 0
M  V30 12018 H 1123.81 7.01 -3.25298 0
M  V30 12019 H 1122.15 6.30721 -2.91918 0
M  V30 12020 H 1125.34 4.36172 -1.69916 0
M  V30 12021 H 1125.52 5.94172 -2.58581 0
M  V30 12022 N 1118.92 0.422693 1.51826 0
M  V30 12023 C 1119.87 -0.41063 2.28947 0
M  V30 12024 C 1120.86 -1.03389 1.34191 0
M  V30 12025 O 1122.07 -0.970533 1.51594 0
M  V30 12026 H 1118.44 -0.151219 0.736639 0
M  V30 12027 H 1120.42 0.260859 2.97258 0
M  V30 12028 C 1119.16 -1.50758 3.13317 0
M  V30 12029 H 1118.49 -1.03734 3.86108 0
M  V30 12030 H 1119.93 -2.0642 3.7036 0
M  V30 12031 C 1118.39 -2.48261 2.27746 0
M  V30 12032 O 1118.92 -3.52462 1.92701 0
M  V30 12033 N 1117.12 -2.18795 1.91251 0
M  V30 12034 H 1116.67 -1.34088 2.1995 0
M  V30 12035 H 1116.63 -2.84276 1.34293 0
M  V30 12036 N 1120.4 -1.5685 0.153553 0
M  V30 12037 C 1121.81 -1.83074 -0.36618 0
M  V30 12038 C 1122.16 -1.07257 -1.64288 0
M  V30 12039 O 1121.29 -0.319925 -2.14022 0
M  V30 12040 C 1121.88 -3.32086 -0.671142 0
M  V30 12041 C 1120.44 -3.58868 -1.13537 0
M  V30 12042 C 1119.59 -2.76827 -0.161887 0
M  V30 12043 H 1122.54 -1.54129 0.378139 0
M  V30 12044 H 1122.56 -3.48598 -1.52512 0
M  V30 12045 H 1122.07 -3.8724 0.258234 0
M  V30 12046 H 1120.17 -3.09107 -2.08047 0
M  V30 12047 H 1120.29 -4.67299 -1.05682 0
M  V30 12048 H 1118.65 -2.46112 -0.6558 0
M  V30 12049 H 1119.43 -3.34755 0.761195 0
M  V30 12050 N 1121.88 0.120221 -1.57141 0
M  V30 12051 C 1123.12 0.829449 -1.85062 0
M  V30 12052 C 1123.46 1.79585 -0.739116 0
M  V30 12053 O 1122.73 1.92819 0.255147 0
M  V30 12054 C 1123.01 1.58042 -3.23566 0
M  V30 12055 C 1122.87 0.633706 -4.45314 0
M  V30 12056 C 1124.19 2.53688 -3.59625 0
M  V30 12057 H 1121.31 0.300086 -0.67314 0
M  V30 12058 H 1123.95 0.0937393 -1.89769 0
M  V30 12059 H 1122.1 2.20758 -3.19684 0
M  V30 12060 H 1123.77 0.0154836 -4.61297 0
M  V30 12061 H 1122.01 -0.054846 -4.33765 0
M  V30 12062 H 1122.68 1.19577 -5.38893 0
M  V30 12063 H 1125.16 2.01078 -3.6429 0
M  V30 12064 H 1124.04 3.03265 -4.57516 0
M  V30 12065 H 1124.3 3.36296 -2.8698 0
M  V30 12066 N 1123.36 1.52689 0.390367 0
M  V30 12067 C 1124.3 1.78007 1.4972 0
M  V30 12068 C 1125.3 0.647948 1.56518 0
M  V30 12069 O 1126.5 0.830398 1.59701 0
M  V30 12070 H 1122.88 0.56322 0.498284 0
M  V30 12071 H 1124.85 2.70698 1.25559 0
M  V30 12072 C 1123.6 1.96469 2.86872 0
M  V30 12073 H 1122.92 2.83012 2.82391 0
M  V30 12074 H 1124.36 2.18174 3.6356 0
M  V30 12075 C 1122.82 0.736847 3.28743 0
M  V30 12076 O 1123.35 -0.0863743 4.01607 0
M  V30 12077 N 1121.56 0.56735 2.85008 0
M  V30 12078 H 1121.1 1.23838 2.2588 0
M  V30 12079 H 1121.06 -0.252831 3.13382 0
M  V30 12080 N 1124.83 -0.648732 1.43629 0
M  V30 12081 C 1125.76 -1.77298 1.51947 0
M  V30 12082 C 1126.75 -1.65942 0.373785 0
M  V30 12083 O 1127.93 -1.8497 0.591596 0
M  V30 12084 C 1125.06 -3.15749 1.44638 0
M  V30 12085 C 1124.01 -3.41872 2.57502 0
M  V30 12086 C 1123.34 -4.8017 2.35246 0
M  V30 12087 C 1124.64 -3.36173 3.99731 0
M  V30 12088 H 1126.33 -1.70594 2.46045 0
M  V30 12089 H 1123.88 -0.819306 1.1842 0
M  V30 12090 H 1125.83 -3.94156 1.4906 0
M  V30 12091 H 1124.56 -3.23194 0.470466 0
M  V30 12092 H 1123.22 -2.65838 2.5244 0
M  V30 12093 H 1122.86 -4.84297 1.35887 0
M  V30 12094 H 1122.56 -4.9861 3.10906 0
M  V30 12095 H 1124.09 -5.6083 2.41459 0
M  V30 12096 H 1125.5 -4.0451 4.06257 0
M  V30 12097 H 1123.9 -3.66148 4.75453 0
M  V30 12098 H 1124.97 -2.34277 4.24549 0
M  V30 12099 N 1126.31 -1.30234 -0.887518 0
M  V30 12100 C 1127.28 -1.16384 -1.97452 0
M  V30 12101 C 1128.28 -0.0957942 -1.60514 0
M  V30 12102 O 1129.47 -0.343706 -1.70776 0
M  V30 12103 C 1126.6 -0.782514 -3.31797 0
M  V30 12104 H 1127.79 -2.12952 -2.11167 0
M  V30 12105 H 1125.34 -1.13594 -1.07359 0
M  V30 12106 H 1126.08 0.18278 -3.23785 0
M  V30 12107 H 1125.86 -1.55434 -3.59976 0
M  V30 12108 H 1127.35 -0.709011 -4.11537 0
M  V30 12109 N 1127.79 1.09952 -1.12909 0
M  V30 12110 C 1129.04 1.82286 -0.888797 0
M  V30 12111 C 1129.37 1.85218 0.58379 0
M  V30 12112 O 1128.64 1.31645 1.43177 0
M  V30 12113 C 1128.93 3.28706 -1.47053 0
M  V30 12114 C 1128.78 3.34078 -3.01184 0
M  V30 12115 C 1130.1 4.25233 -1.13424 0
M  V30 12116 H 1127.22 0.661803 -0.324324 0
M  V30 12117 H 1129.86 1.28833 -1.3965 0
M  V30 12118 H 1128.01 3.74356 -1.03874 0
M  V30 12119 H 1129.68 2.96871 -3.5308 0
M  V30 12120 H 1127.93 2.73825 -3.36455 0
M  V30 12121 H 1128.6 4.37202 -3.36984 0
M  V30 12122 H 1131.07 3.87841 -1.50726 0
M  V30 12123 H 1129.95 5.26033 -1.56783 0
M  V30 12124 H 1130.21 4.42075 -0.0471496 0
M  V30 12125 N 1129.27 0.921757 1.27833 0
M  V30 12126 C 1130.2 0.433466 2.29441 0
M  V30 12127 C 1131.18 -0.503133 1.62489 0
M  V30 12128 O 1132.36 -0.409156 1.89841 0
M  V30 12129 C 1129.49 -0.320029 3.45822 0
M  V30 12130 C 1128.45 0.528178 4.24728 0
M  V30 12131 C 1127.77 -0.354132 5.33526 0
M  V30 12132 C 1129.07 1.78959 4.90684 0
M  V30 12133 H 1130.77 1.28263 2.70535 0
M  V30 12134 H 1128.31 0.618197 1.30055 0
M  V30 12135 H 1130.27 -0.672526 4.15999 0
M  V30 12136 H 1128.99 -1.20317 3.0363 0
M  V30 12137 H 1127.65 0.863302 3.5629 0
M  V30 12138 H 1127.3 -1.23605 4.87576 0
M  V30 12139 H 1127 0.209855 5.87225 0
M  V30 12140 H 1128.52 -0.702333 6.06547 0
M  V30 12141 H 1129.94 1.50552 5.53179 0
M  V30 12142 H 1128.33 2.29661 5.54415 0
M  V30 12143 H 1129.4 2.51265 4.14721 0
M  V30 12144 N 1130.75 -1.41857 0.686609 0
M  V30 12145 C 1131.69 -2.30795 0.015643 0
M  V30 12146 C 1132.66 -1.46616 -0.780569 0
M  V30 12147 O 1133.85 -1.75423 -0.750424 0
M  V30 12148 C 1130.99 -3.32577 -0.921229 0
M  V30 12149 C 1130.1 -4.3184 -0.117585 0
M  V30 12150 C 1129.24 -5.20693 -1.05128 0
M  V30 12151 C 1128.28 -6.11629 -0.240018 0
M  V30 12152 N 1127.41 -6.92995 -1.12704 0
M  V30 12153 H 1132.25 -2.87615 0.77985 0
M  V30 12154 H 1129.79 -1.41661 0.396298 0
M  V30 12155 H 1131.75 -3.90129 -1.47836 0
M  V30 12156 H 1130.38 -2.77328 -1.65193 0
M  V30 12157 H 1129.43 -3.7631 0.55634 0
M  V30 12158 H 1130.74 -4.96168 0.511753 0
M  V30 12159 H 1129.9 -5.83035 -1.67795 0
M  V30 12160 H 1128.63 -4.5657 -1.71449 0
M  V30 12161 H 1127.64 -5.48345 0.399779 0
M  V30 12162 H 1128.86 -6.77805 0.419266 0
M  V30 12163 H 1126.81 -6.31489 -1.77644 0
M  V30 12164 H 1126.73 -7.53974 -0.553065 0
M  V30 12165 H 1128 -7.59813 -1.7408 0
M  V30 12166 N 1132.22 -0.430739 -1.51599 0
M  V30 12167 C 1133.15 0.374695 -2.30474 0
M  V30 12168 C 1134.14 1.02694 -1.35602 0
M  V30 12169 O 1135.32 1.03184 -1.6452 0
M  V30 12170 C 1132.45 1.47981 -3.14196 0
M  V30 12171 C 1131.4 0.951415 -4.17291 0
M  V30 12172 C 1130.73 2.15177 -4.89492 0
M  V30 12173 C 1132.03 -0.00957951 -5.22299 0
M  V30 12174 H 1133.72 -0.283508 -2.98055 0
M  V30 12175 H 1131.27 -0.13779 -1.43339 0
M  V30 12176 H 1133.22 2.05043 -3.68151 0
M  V30 12177 H 1131.95 2.16621 -2.44424 0
M  V30 12178 H 1130.61 0.403052 -3.64378 0
M  V30 12179 H 1130.25 2.82421 -4.1623 0
M  V30 12180 H 1129.95 1.80464 -5.59202 0
M  V30 12181 H 1131.48 2.72806 -5.46269 0
M  V30 12182 H 1132.89 0.470527 -5.71366 0
M  V30 12183 H 1131.29 -0.268959 -5.99497 0
M  V30 12184 H 1132.36 -0.948297 -4.75537 0
M  V30 12185 N 1133.7 1.56767 -0.161869 0
M  V30 12186 C 1134.65 2.18807 0.789074 0
M  V30 12187 C 1135.64 1.14934 1.24445 0
M  V30 12188 O 1136.85 1.33154 1.2112 0
M  V30 12189 H 1133.23 0.700808 0.272713 0
M  V30 12190 H 1135.2 2.97419 0.241766 0
M  V30 12191 C 1133.95 2.83568 2.01207 0
M  V30 12192 H 1133.27 3.63219 1.67068 0
M  V30 12193 H 1134.71 3.3046 2.65654 0
M  V30 12194 C 1133.17 1.82846 2.82964 0
M  V30 12195 O 1133.7 1.30809 3.79805 0
M  V30 12196 N 1131.9 1.51815 2.47791 0
M  V30 12197 H 1131.45 1.94325 1.69103 0
M  V30 12198 H 1131.41 0.846742 3.02783 0
M  V30 12199 N 1135.18 -0.111886 1.57202 0
M  V30 12200 C 1136.09 -1.1556 2.04165 0
M  V30 12201 C 1137.11 -1.44898 0.963354 0
M  V30 12202 O 1138.28 -1.55873 1.27536 0
M  V30 12203 C 1135.35 -2.46048 2.44256 0
M  V30 12204 C 1134.41 -2.24043 3.66201 0
M  V30 12205 C 1133.64 -3.4831 4.04371 0
M  V30 12206 O 1133.86 -4.55895 3.42806 0
M  V30 12207 O 1132.8 -3.38891 4.9743 0
M  V30 12208 H 1136.62 -0.786778 2.93332 0
M  V30 12209 H 1134.21 -0.323196 1.45862 0
M  V30 12210 H 1136.09 -3.22916 2.70745 0
M  V30 12211 H 1134.77 -2.8239 1.58233 0
M  V30 12212 H 1133.67 -1.4501 3.44852 0
M  V30 12213 H 1135.01 -1.92602 4.52952 0
M  V30 12214 N 1136.66 -1.52894 -0.382264 0
M  V30 12215 C 1137.59 -1.74413 -1.48703 0
M  V30 12216 C 1138.6 -0.624663 -1.50339 0
M  V30 12217 O 1139.79 -0.900527 -1.54119 0
M  V30 12218 C 1136.89 -1.79387 -2.8753 0
M  V30 12219 C 1136.07 -3.08794 -3.09783 0
M  V30 12220 C 1135.12 -3.05226 -4.2863 0
M  V30 12221 O 1134.15 -3.79073 -4.24609 0
M  V30 12222 N 1135.35 -2.2488 -5.35172 0
M  V30 12223 H 1138.12 -2.69734 -1.30628 0
M  V30 12224 H 1135.68 -1.51465 -0.571842 0
M  V30 12225 H 1137.67 -1.74498 -3.65147 0
M  V30 12226 H 1136.24 -0.914233 -2.98932 0
M  V30 12227 H 1135.46 -3.27118 -2.19971 0
M  V30 12228 H 1136.75 -3.94347 -3.21509 0
M  V30 12229 H 1136.15 -1.64363 -5.41296 0
M  V30 12230 H 1134.7 -2.25825 -6.1143 0
M  V30 12231 N 1138.14 0.641106 -1.43971 0
M  V30 12232 C 1139.39 1.39807 -1.4594 0
M  V30 12233 C 1139.71 1.94795 -0.0893874 0
M  V30 12234 O 1138.98 1.75175 0.876962 0
M  V30 12235 H 1137.56 0.518908 -0.537349 0
M  V30 12236 H 1140.22 0.755278 -1.79671 0
M  V30 12237 H 1139.31 2.23439 -2.17903 0
M  V30 12238 N 1139.62 1.30703 0.880598 0
M  V30 12239 C 1140.55 1.20033 2.00286 0
M  V30 12240 C 1141.53 0.0899614 1.69862 0
M  V30 12241 O 1142.71 0.272747 1.92275 0
M  V30 12242 C 1139.84 0.895902 3.35546 0
M  V30 12243 C 1138.8 1.96468 3.80242 0
M  V30 12244 C 1138.12 1.51316 5.12843 0
M  V30 12245 C 1139.42 3.37637 3.98496 0
M  V30 12246 H 1141.12 2.13922 2.0947 0
M  V30 12247 H 1138.66 1.02989 1.00644 0
M  V30 12248 H 1140.61 0.807899 4.13583 0
M  V30 12249 H 1139.34 -0.0786636 3.26505 0
M  V30 12250 H 1138 2.0424 3.04437 0
M  V30 12251 H 1137.65 0.52674 5.00234 0
M  V30 12252 H 1137.35 2.22807 5.43719 0
M  V30 12253 H 1138.87 1.43903 5.93401 0
M  V30 12254 H 1140.28 3.326 4.66959 0
M  V30 12255 H 1138.68 4.07253 4.40755 0
M  V30 12256 H 1139.75 3.79205 3.02211 0
M  V30 12257 N 1141.09 -1.09351 1.1349 0
M  V30 12258 C 1142.02 -2.18037 0.835588 0
M  V30 12259 C 1143 -1.68856 -0.205373 0
M  V30 12260 O 1144.19 -1.94094 -0.0641357 0
M  V30 12261 C 1141.32 -3.45987 0.301661 0
M  V30 12262 C 1140.27 -4.08507 1.27696 0
M  V30 12263 C 1139.6 -5.31292 0.602758 0
M  V30 12264 C 1140.9 -4.50916 2.63575 0
M  V30 12265 H 1142.59 -2.43332 1.74441 0
M  V30 12266 H 1140.14 -1.1695 0.840166 0
M  V30 12267 H 1142.09 -4.21324 0.079928 0
M  V30 12268 H 1140.82 -3.20217 -0.642552 0
M  V30 12269 H 1139.48 -3.3519 1.4847 0
M  V30 12270 H 1139.12 -5.01802 -0.346953 0
M  V30 12271 H 1138.82 -5.74075 1.25345 0
M  V30 12272 H 1140.35 -6.09351 0.390325 0
M  V30 12273 H 1141.76 -5.17474 2.46765 0
M  V30 12274 H 1140.16 -5.04586 3.24827 0
M  V30 12275 H 1141.23 -3.63279 3.2118 0
M  V30 12276 N 1142.57 -0.928524 -1.27343 0
M  V30 12277 C 1143.85 -0.487758 -1.89421 0
M  V30 12278 C 1144.23 1.03418 -1.84032 0
M  V30 12279 O 1143.58 1.8887 -1.2861 0
M  V30 12280 C 1143.79 -1.03478 -3.33307 0
M  V30 12281 C 1145.13 -1.09577 -4.10217 0
M  V30 12282 O 1146.16 -0.984463 -3.42326 0
M  V30 12283 O 1145.02 -1.2673 -5.31603 0
M  V30 12284 H 1142.11 -0.157018 -0.811957 0
M  V30 12285 H 1144.66 -1.02027 -1.35605 0
M  V30 12286 H 1143.43 -2.07861 -3.31526 0
M  V30 12287 H 1143.05 -0.483967 -3.94644 0
M  V30 12288 N 1144.05 1.41491 -0.694123 0
M  V30 12289 C 1145 2.30783 -0.0278824 0
M  V30 12290 C 1145.97 1.47028 0.772783 0
M  V30 12291 O 1147.15 1.75819 0.74111 0
M  V30 12292 C 1144.29 3.33061 0.903579 0
M  V30 12293 C 1143.4 4.31896 0.0946823 0
M  V30 12294 C 1142.54 5.21243 1.02365 0
M  V30 12295 C 1141.58 6.11748 0.207578 0
M  V30 12296 N 1140.72 6.93583 1.09028 0
M  V30 12297 H 1145.56 2.87197 -0.795092 0
M  V30 12298 H 1143.09 1.41449 -0.403806 0
M  V30 12299 H 1145.05 3.90907 1.45765 0
M  V30 12300 H 1143.68 2.782 1.6372 0
M  V30 12301 H 1142.73 3.76009 -0.576289 0
M  V30 12302 H 1144.04 4.95889 -0.538059 0
M  V30 12303 H 1143.2 5.83917 1.647 0
M  V30 12304 H 1141.94 4.57473 1.69025 0
M  V30 12305 H 1140.94 5.48125 -0.428854 0
M  V30 12306 H 1142.17 6.77573 -0.455206 0
M  V30 12307 H 1140.11 6.32422 1.74292 0
M  V30 12308 H 1140.03 7.54257 0.513073 0
M  V30 12309 H 1141.3 7.60726 1.70048 0
M  V30 12310 N 1145.53 0.438773 1.51369 0
M  V30 12311 C 1146.46 -0.362467 2.3067 0
M  V30 12312 C 1147.44 -1.01973 1.36145 0
M  V30 12313 O 1148.62 -1.0231 1.65065 0
M  V30 12314 C 1145.75 -1.46313 3.14976 0
M  V30 12315 C 1144.71 -0.929272 4.1779 0
M  V30 12316 C 1144.03 -2.12579 4.90627 0
M  V30 12317 C 1145.33 0.0372782 5.22287 0
M  V30 12318 H 1147.03 0.29931 2.979 0
M  V30 12319 H 1144.57 0.14539 1.43264 0
M  V30 12320 H 1146.53 -2.03088 3.69233 0
M  V30 12321 H 1145.25 -2.15321 2.45569 0
M  V30 12322 H 1143.91 -0.383722 3.64586 0
M  V30 12323 H 1143.56 -2.8021 4.17722 0
M  V30 12324 H 1143.26 -1.77496 5.60151 0
M  V30 12325 H 1144.78 -2.69905 5.47708 0
M  V30 12326 H 1146.2 -0.44022 5.71607 0
M  V30 12327 H 1144.59 0.300748 5.99346 0
M  V30 12328 H 1145.66 0.973503 4.75027 0
M  V30 12329 N 1147.01 -1.56678 0.170181 0
M  V30 12330 C 1147.95 -2.17909 -0.760556 0
M  V30 12331 C 1148.92 -1.11875 -1.22773 0
M  V30 12332 O 1150.11 -1.40021 -1.2961 0
M  V30 12333 C 1147.25 -2.82305 -1.9849 0
M  V30 12334 C 1146.36 -4.02796 -1.5614 0
M  V30 12335 C 1145.5 -4.55121 -2.73932 0
M  V30 12336 C 1144.53 -5.68025 -2.28067 0
M  V30 12337 N 1143.67 -6.14865 -3.38947 0
M  V30 12338 H 1148.51 -2.97098 -0.231629 0
M  V30 12339 H 1146.05 -1.46742 -0.102602 0
M  V30 12340 H 1148.01 -3.17797 -2.70298 0
M  V30 12341 H 1146.64 -2.05721 -2.48755 0
M  V30 12342 H 1145.69 -3.73131 -0.740097 0
M  V30 12343 H 1147 -4.84526 -1.18472 0
M  V30 12344 H 1146.15 -4.92789 -3.53898 0
M  V30 12345 H 1144.89 -3.72445 -3.14858 0
M  V30 12346 H 1143.9 -5.2991 -1.46546 0
M  V30 12347 H 1145.12 -6.52501 -1.88199 0
M  V30 12348 H 1143.07 -5.35119 -3.79452 0
M  V30 12349 H 1142.99 -6.91582 -3.05369 0
M  V30 12350 H 1144.25 -6.57183 -4.19203 0
M  V30 12351 N 1148.48 0.103547 -1.57259 0
M  V30 12352 C 1149.43 1.14513 -2.02459 0
M  V30 12353 C 1150.43 1.4197 -0.924163 0
M  V30 12354 O 1151.63 1.41751 -1.10936 0
M  V30 12355 H 1148.01 0.386469 -0.645094 0
M  V30 12356 H 1149.98 0.737531 -2.89142 0
M  V30 12357 C 1148.73 2.45948 -2.45775 0
M  V30 12358 H 1148.05 2.25662 -3.30026 0
M  V30 12359 H 1149.49 3.17351 -2.81184 0
M  V30 12360 C 1147.95 3.09639 -1.32759 0
M  V30 12361 O 1148.48 3.96372 -0.652059 0
M  V30 12362 N 1146.68 2.69757 -1.08072 0
M  V30 12363 H 1146.23 1.9932 -1.63185 0
M  V30 12364 H 1146.19 3.127 -0.326532 0
M  V30 12365 N 1149.96 1.53094 0.37415 0
M  V30 12366 C 1150.91 1.78927 1.45787 0
M  V30 12367 C 1151.88 0.633187 1.53558 0
M  V30 12368 O 1153.06 0.874472 1.69581 0
M  V30 12369 C 1150.2 1.97726 2.8284 0
M  V30 12370 C 1149.32 3.25436 2.84104 0
M  V30 12371 C 1148.45 3.3447 4.12678 0
M  V30 12372 C 1147.49 4.56246 4.08051 0
M  V30 12373 N 1146.63 4.6248 5.28258 0
M  V30 12374 H 1151.47 2.71404 1.2306 0
M  V30 12375 H 1149 1.34453 0.596716 0
M  V30 12376 H 1150.96 2.06611 3.62447 0
M  V30 12377 H 1149.59 1.08593 3.03986 0
M  V30 12378 H 1148.64 3.25548 1.96781 0
M  V30 12379 H 1149.96 4.15112 2.76556 0
M  V30 12380 H 1149.11 3.4262 5.00696 0
M  V30 12381 H 1147.85 2.42795 4.22968 0
M  V30 12382 H 1146.85 4.48206 3.1842 0
M  V30 12383 H 1148.08 5.49254 3.99371 0
M  V30 12384 H 1146.03 3.73703 5.3915 0
M  V30 12385 H 1145.94 5.46049 5.22845 0
M  V30 12386 H 1147.21 4.74903 6.18132 0
M  V30 12387 N 1151.44 -0.633461 1.44309 0
M  V30 12388 C 1152.69 -1.39334 1.48181 0
M  V30 12389 C 1153.04 -1.92075 0.111835 0
M  V30 12390 O 1152.33 -1.70577 -0.87258 0
M  V30 12391 C 1152.53 -2.57783 2.47554 0
M  V30 12392 C 1152.36 -2.16638 3.94079 0
M  V30 12393 C 1151.13 -2.04027 4.62278 0
M  V30 12394 C 1153.32 -1.75694 4.83359 0
M  V30 12395 N 1151.31 -1.5642 5.93638 0
M  V30 12396 C 1152.68 -1.39315 6.04145 0
M  V30 12397 C 1154.73 -1.63053 4.70445 0
M  V30 12398 C 1153.44 -0.915604 7.13449 0
M  V30 12399 C 1155.46 -1.16703 5.79771 0
M  V30 12400 C 1154.82 -0.812735 6.99696 0
M  V30 12401 H 1150.92 -0.504757 0.597281 0
M  V30 12402 H 1153.51 -0.726948 1.8062 0
M  V30 12403 H 1151.68 -3.22053 2.17109 0
M  V30 12404 H 1153.41 -3.2457 2.41737 0
M  V30 12405 H 1150.16 -2.24407 4.17059 0
M  V30 12406 H 1150.59 -1.34922 6.63419 0
M  V30 12407 H 1155.23 -1.89078 3.78166 0
M  V30 12408 H 1152.95 -0.642869 8.05539 0
M  V30 12409 H 1156.53 -1.07385 5.71804 0
M  V30 12410 H 1155.41 -0.45957 7.82852 0
M  V30 12411 N 1152.92 -1.31168 -0.873655 0
M  V30 12412 C 1154.16 -1.21831 -1.62877 0
M  V30 12413 C 1154.52 0.222272 -1.91112 0
M  V30 12414 O 1153.81 1.15463 -1.52902 0
M  V30 12415 C 1154.01 -1.99204 -2.96736 0
M  V30 12416 C 1153.84 -3.50639 -2.81571 0
M  V30 12417 C 1152.61 -4.19992 -2.80953 0
M  V30 12418 C 1154.8 -4.45658 -2.56697 0
M  V30 12419 N 1152.79 -5.57609 -2.56799 0
M  V30 12420 C 1154.16 -5.70917 -2.41771 0
M  V30 12421 C 1156.21 -4.35126 -2.42012 0
M  V30 12422 C 1154.91 -6.86837 -2.13654 0
M  V30 12423 C 1156.94 -5.50825 -2.15282 0
M  V30 12424 C 1156.3 -6.75071 -2.01142 0
M  V30 12425 H 1152.4 -0.500911 -0.60051 0
M  V30 12426 H 1154.99 -1.65313 -1.02857 0
M  V30 12427 H 1153.16 -1.58096 -3.54768 0
M  V30 12428 H 1154.89 -1.81916 -3.61509 0
M  V30 12429 H 1151.64 -3.71928 -2.932 0
M  V30 12430 H 1152.07 -6.30058 -2.47703 0
M  V30 12431 H 1156.71 -3.39736 -2.51673 0
M  V30 12432 H 1154.43 -7.82257 -2.0273 0
M  V30 12433 H 1158.01 -5.44591 -2.04725 0
M  V30 12434 H 1156.89 -7.63085 -1.8075 0
M  V30 12435 N 1154.4 1.08748 -1.14068 0
M  V30 12436 C 1155.63 1.84546 -0.928789 0
M  V30 12437 C 1156.03 1.81741 0.526007 0
M  V30 12438 O 1155.38 1.2169 1.37613 0
M  V30 12439 C 1155.44 3.33282 -1.34771 0
M  V30 12440 C 1155.1 3.59826 -2.81734 0
M  V30 12441 C 1156.1 3.54964 -3.79864 0
M  V30 12442 C 1153.79 3.87949 -3.19063 0
M  V30 12443 C 1155.78 3.77847 -5.13332 0
M  V30 12444 C 1153.47 4.10487 -4.52707 0
M  V30 12445 C 1154.46 4.05429 -5.49651 0
M  V30 12446 O 1154.15 4.27378 -6.80884 0
M  V30 12447 H 1153.88 0.589555 -0.330758 0
M  V30 12448 H 1156.44 1.38275 -1.51886 0
M  V30 12449 H 1154.67 3.80294 -0.700948 0
M  V30 12450 H 1156.36 3.90508 -1.10718 0
M  V30 12451 H 1157.12 3.33256 -3.52371 0
M  V30 12452 H 1153 3.91007 -2.44201 0
M  V30 12453 H 1156.55 3.73815 -5.88989 0
M  V30 12454 H 1152.44 4.31677 -4.79922 0
M  V30 12455 H 1153.21 4.44802 -6.8709 0
M  V30 12456 N 1155.87 0.935264 1.26849 0
M  V30 12457 C 1157.15 0.497797 1.8916 0
M  V30 12458 C 1157.53 -1.02441 1.84578 0
M  V30 12459 O 1156.88 -1.88185 1.29609 0
M  V30 12460 C 1157.09 1.05244 3.32753 0
M  V30 12461 C 1158.44 1.11751 4.0963 0
M  V30 12462 O 1159.46 1.0026 3.41799 0
M  V30 12463 O 1158.32 1.29548 5.30923 0
M  V30 12464 H 1155.41 0.161322 0.811113 0
M  V30 12465 H 1157.96 1.02744 1.35062 0
M  V30 12466 H 1156.73 2.09617 3.30419 0
M  V30 12467 H 1156.36 0.504889 3.94381 0
M  V30 12468 N 1157.35 -1.41121 0.701616 0
M  V30 12469 C 1158.3 -2.30765 0.040121 0
M  V30 12470 C 1159.27 -1.47436 -0.764975 0
M  V30 12471 O 1160.45 -1.76209 -0.731775 0
M  V30 12472 C 1157.59 -3.33535 -0.885903 0
M  V30 12473 C 1156.71 -4.3194 -0.0717765 0
M  V30 12474 C 1155.84 -5.21779 -0.995996 0
M  V30 12475 C 1154.88 -6.11849 -0.175133 0
M  V30 12476 N 1154.02 -6.94151 -1.05348 0
M  V30 12477 H 1158.86 -2.86772 0.810312 0
M  V30 12478 H 1156.4 -1.41233 0.411301 0
M  V30 12479 H 1158.35 -3.91675 -1.4369 0
M  V30 12480 H 1156.98 -2.79065 -1.62243 0
M  V30 12481 H 1156.04 -3.75698 0.596221 0
M  V30 12482 H 1157.35 -4.95597 0.56435 0
M  V30 12483 H 1156.5 -5.84782 -1.61601 0
M  V30 12484 H 1155.24 -4.58363 -1.66597 0
M  V30 12485 H 1154.25 -5.4789 0.457916 0
M  V30 12486 H 1155.47 -6.77322 0.491133 0
M  V30 12487 H 1153.42 -6.33338 -1.70936 0
M  V30 12488 H 1153.33 -7.54518 -0.473065 0
M  V30 12489 H 1154.6 -7.61617 -1.66012 0
M  V30 12490 N 1158.83 -0.446794 -1.51134 0
M  V30 12491 C 1160.08 0.116263 -2.01765 0
M  V30 12492 C 1160.4 1.42382 -1.33238 0
M  V30 12493 O 1159.67 1.9018 -0.469915 0
M  V30 12494 H 1158.25 0.0459558 -0.745585 0
M  V30 12495 H 1160.91 -0.591664 -1.85702 0
M  V30 12496 H 1160.01 0.285358 -3.10793 0
M  V30 12497 N 1160.31 1.56586 -0.178487 0
M  V30 12498 C 1161.22 2.21903 0.761321 0
M  V30 12499 C 1162.23 1.21289 1.2476 0
M  V30 12500 O 1163.41 1.53974 1.29823 0
M  V30 12501 C 1160.48 2.85259 1.97048 0
M  V30 12502 C 1159.54 4.01095 1.53039 0
M  V30 12503 C 1158.77 4.61421 2.68191 0
M  V30 12504 O 1158.99 4.20644 3.85247 0
M  V30 12505 O 1157.93 5.51171 2.41855 0
M  V30 12506 H 1161.75 3.02788 0.235141 0
M  V30 12507 H 1159.34 1.49316 0.0500442 0
M  V30 12508 H 1161.22 3.25404 2.6775 0
M  V30 12509 H 1159.89 2.07366 2.48558 0
M  V30 12510 H 1158.8 3.65606 0.792661 0
M  V30 12511 H 1160.13 4.80603 1.06213 0
M  V30 12512 N 1161.79 -0.095206 1.57312 0
M  V30 12513 C 1163.03 -0.804335 1.87909 0
M  V30 12514 C 1163.39 -1.75907 0.769465 0
M  V30 12515 O 1164.59 -2.51155 0.957846 0
M  V30 12516 C 1162.86 -1.51405 3.23746 0
M  V30 12517 S 1164.42 -2.26147 3.76036 0
M  V30 12518 H 1161.24 -0.267976 0.658567 0
M  V30 12519 H 1163.84 -0.0614682 1.95403 0
M  V30 12520 H 1162.55 -0.805066 4.02426 0
M  V30 12521 H 1162.08 -2.29681 3.1939 0
M  V30 12522 H 1164.09 -3.52284 3.49443 0
M  V30 12523 N 1163.26 -1.53291 -0.366026 0
M  V30 12524 C 1164.51 -1.69117 -1.10653 0
M  V30 12525 C 1164.83 -0.445327 -1.89847 0
M  V30 12526 O 1164.1 0.540616 -1.88293 0
M  V30 12527 H 1162.68 -0.623446 -0.41149 0
M  V30 12528 H 1165.35 -1.90479 -0.412749 0
M  V30 12529 H 1164.44 -2.55205 -1.79658 0
M  V30 12530 N 1164.74 0.6258 -1.44643 0
M  V30 12531 C 1165.97 1.41726 -1.51422 0
M  V30 12532 C 1166.39 1.87565 -0.14181 0
M  V30 12533 O 1165.75 1.59059 0.870054 0
M  V30 12534 C 1165.8 2.61012 -2.48807 0
M  V30 12535 O 1164.9 3.61029 -1.99328 0
M  V30 12536 H 1164.24 0.423855 -0.511119 0
M  V30 12537 H 1166.77 0.763336 -1.89827 0
M  V30 12538 H 1166.78 3.08489 -2.67018 0
M  V30 12539 H 1165.46 2.26995 -3.48491 0
M  V30 12540 H 1164.04 3.20325 -1.90909 0
M  V30 12541 N 1166.22 1.31629 0.866686 0
M  V30 12542 C 1167.47 1.21263 1.61678 0
M  V30 12543 C 1167.79 -0.228562 1.93656 0
M  V30 12544 O 1167.06 -1.15014 1.58583 0
M  V30 12545 H 1165.64 0.445817 0.59938 0
M  V30 12546 H 1168.3 1.64998 1.03739 0
M  V30 12547 H 1167.4 1.78669 2.55898 0
M  V30 12548 N 1167.7 -1.08142 1.14644 0
M  V30 12549 C 1168.95 -1.80225 0.914517 0
M  V30 12550 C 1169.27 -1.86778 -0.560269 0
M  V30 12551 O 1168.54 -1.36284 -1.40724 0
M  V30 12552 H 1167.12 -0.667492 0.335356 0
M  V30 12553 H 1169.78 -1.30729 1.44554 0
M  V30 12554 H 1168.88 -2.82958 1.31685 0
M  V30 12555 N 1169.18 -0.941978 -1.26351 0
M  V30 12556 C 1170.43 -0.588806 -1.93333 0
M  V30 12557 C 1170.75 0.875067 -1.74263 0
M  V30 12558 O 1170.02 1.62187 -1.09873 0
M  V30 12559 H 1168.6 -0.214774 -0.715459 0
M  V30 12560 H 1171.26 -1.19747 -1.53774 0
M  V30 12561 H 1170.35 -0.807267 -3.01479 0
M  V30 12562 N 1170.66 1.40747 -0.709091 0
M  V30 12563 C 1171.93 1.94831 -0.173246 0
M  V30 12564 C 1172.31 1.64766 1.31967 0
M  V30 12565 O 1171.66 0.961853 2.07269 0
M  V30 12566 C 1171.87 3.45697 -0.479013 0
M  V30 12567 C 1173.22 4.22576 -0.414122 0
M  V30 12568 O 1174.24 3.53778 -0.414699 0
M  V30 12569 O 1173.1 5.45135 -0.385986 0
M  V30 12570 H 1170.2 0.826683 -0.0228947 0
M  V30 12571 H 1172.74 1.50391 -0.786178 0
M  V30 12572 H 1171.51 3.60914 -1.51185 0
M  V30 12573 H 1171.14 3.97261 0.164211 0
M  V30 12574 N 1172.13 0.454803 1.50895 0
M  V30 12575 C 1173.36 -0.106259 2.07128 0
M  V30 12576 C 1173.78 -1.3418 1.31823 0
M  V30 12577 O 1173.14 -1.77667 0.361147 0
M  V30 12578 C 1173.19 -0.389609 3.58489 0
M  V30 12579 O 1172.29 -1.47305 3.85195 0
M  V30 12580 H 1171.63 0.00580588 0.663975 0
M  V30 12581 H 1174.16 0.641163 1.94294 0
M  V30 12582 H 1174.17 -0.634934 4.03029 0
M  V30 12583 H 1172.85 0.513338 4.1272 0
M  V30 12584 H 1171.43 -1.21631 3.52506 0
M  V30 12585 N 1173.61 -1.56489 0.186789 0
M  V30 12586 C 1174.56 -2.18703 -0.737402 0
M  V30 12587 C 1175.53 -1.13171 -1.21579 0
M  V30 12588 O 1176.71 -1.41388 -1.28118 0
M  V30 12589 C 1173.85 -2.84394 -1.95484 0
M  V30 12590 C 1172.97 -4.04429 -1.51859 0
M  V30 12591 C 1172.1 -4.58001 -2.69089 0
M  V30 12592 C 1171.14 -5.70412 -2.22029 0
M  V30 12593 N 1170.28 -6.18425 -3.32407 0
M  V30 12594 H 1175.12 -2.97327 -0.200105 0
M  V30 12595 H 1172.65 -1.46842 -0.087032 0
M  V30 12596 H 1174.61 -3.20646 -2.66912 0
M  V30 12597 H 1173.24 -2.08347 -2.46559 0
M  V30 12598 H 1172.29 -3.73895 -0.70048 0
M  V30 12599 H 1173.61 -4.85756 -1.13327 0
M  V30 12600 H 1172.76 -4.96515 -3.48652 0
M  V30 12601 H 1171.5 -3.75764 -3.1089 0
M  V30 12602 H 1170.5 -5.31434 -1.40918 0
M  V30 12603 H 1171.73 -6.54461 -1.81268 0
M  V30 12604 H 1169.68 -5.39113 -3.73755 0
M  V30 12605 H 1169.59 -6.94782 -2.98017 0
M  V30 12606 H 1170.86 -6.61592 -4.12209 0
M  V30 12607 N 1175.09 0.086862 -1.5736 0
M  V30 12608 C 1176.37 0.820984 -1.77537 0
M  V30 12609 C 1176.75 1.96534 -0.770554 0
M  V30 12610 O 1176.09 2.27629 0.199334 0
M  V30 12611 C 1176.3 1.30793 -3.23565 0
M  V30 12612 C 1177.65 1.7474 -3.86977 0
M  V30 12613 O 1178.68 1.40396 -3.27364 0
M  V30 12614 O 1177.54 2.38271 -4.91822 0
M  V30 12615 H 1174.63 0.392228 -0.72807 0
M  V30 12616 H 1177.18 0.0681051 -1.69563 0
M  V30 12617 H 1175.95 0.488409 -3.8824 0
M  V30 12618 H 1175.57 2.12258 -3.36203 0
M  V30 12619 N 1176.57 1.53483 0.357892 0
M  V30 12620 C 1177.51 1.80463 1.43881 0
M  V30 12621 C 1178.48 0.649438 1.52877 0
M  V30 12622 O 1179.67 0.892409 1.68644 0
M  V30 12623 C 1176.81 2.00714 2.80727 0
M  V30 12624 C 1175.92 3.28431 2.80637 0
M  V30 12625 C 1175.06 3.38828 4.09107 0
M  V30 12626 C 1174.1 4.60549 4.03189 0
M  V30 12627 N 1173.23 4.68057 5.23323 0
M  V30 12628 H 1178.07 2.72694 1.20174 0
M  V30 12629 H 1175.61 1.35079 0.582422 0
M  V30 12630 H 1177.57 2.10444 3.60235 0
M  V30 12631 H 1176.2 1.11811 3.02817 0
M  V30 12632 H 1175.25 3.27617 1.93317 0
M  V30 12633 H 1176.56 4.18022 2.72138 0
M  V30 12634 H 1175.72 3.47911 4.97034 0
M  V30 12635 H 1174.46 2.47267 4.20369 0
M  V30 12636 H 1173.46 4.51558 3.13649 0
M  V30 12637 H 1174.69 5.53459 3.93523 0
M  V30 12638 H 1172.63 3.794 5.35156 0
M  V30 12639 H 1172.55 5.51563 5.17024 0
M  V30 12640 H 1173.82 4.81433 6.1306 0
M  V30 12641 N 1178.05 -0.61812 1.44973 0
M  V30 12642 C 1179.27 -1.40429 1.51945 0
M  V30 12643 C 1179.69 -1.88215 0.148556 0
M  V30 12644 O 1179.05 -1.61603 -0.847978 0
M  V30 12645 C 1179.1 -2.61588 2.49507 0
M  V30 12646 O 1178.82 -2.15791 3.81269 0
M  V30 12647 C 1180.32 -3.5457 2.66074 0
M  V30 12648 H 1177.54 -0.43023 0.514921 0
M  V30 12649 H 1180.08 -0.754791 1.90061 0
M  V30 12650 H 1178.24 -3.22602 2.14492 0
M  V30 12651 H 1178.65 -2.94434 4.34061 0
M  V30 12652 H 1180.13 -4.36155 3.38338 0
M  V30 12653 H 1180.6 -4.04227 1.71746 0
M  V30 12654 H 1181.21 -2.99416 3.02043 0
M  V30 12655 N 1179.52 -1.32087 -0.859693 0
M  V30 12656 C 1180.75 -1.25486 -1.6513 0
M  V30 12657 C 1181.17 0.175015 -1.87284 0
M  V30 12658 O 1180.53 1.12468 -1.42199 0
M  V30 12659 C 1180.58 -2.01469 -2.9907 0
M  V30 12660 O 1179.68 -1.35904 -3.89363 0
M  V30 12661 H 1179.02 -0.432728 -0.503629 0
M  V30 12662 H 1181.55 -1.74322 -1.07112 0
M  V30 12663 H 1181.56 -2.11452 -3.4893 0
M  V30 12664 H 1180.24 -3.05448 -2.82266 0
M  V30 12665 H 1178.82 -1.34437 -3.47823 0
M  V30 12666 N 1181 1.07532 -1.15215 0
M  V30 12667 C 1181.96 2.1286 -0.84989 0
M  V30 12668 C 1182.96 1.60103 0.149524 0
M  V30 12669 O 1184.15 1.74017 -0.0798918 0
M  V30 12670 C 1181.29 3.3984 -0.268617 0
M  V30 12671 H 1182.48 2.41106 -1.78347 0
M  V30 12672 H 1180.03 1.23392 -0.959386 0
M  V30 12673 H 1180.77 3.17235 0.67325 0
M  V30 12674 H 1180.55 3.79433 -0.988592 0
M  V30 12675 H 1182.04 4.17533 -0.0746554 0
M  V30 12676 N 1182.48 0.948665 1.2585 0
M  V30 12677 C 1183.41 0.482036 2.2847 0
M  V30 12678 C 1184.39 -0.468553 1.63519 0
M  V30 12679 O 1185.58 -0.368796 1.90666 0
M  V30 12680 C 1182.71 -0.246603 3.46423 0
M  V30 12681 C 1181.66 0.61815 4.23513 0
M  V30 12682 C 1180.99 -0.240884 5.34157 0
M  V30 12683 C 1182.29 1.89327 4.86778 0
M  V30 12684 H 1183.98 1.33973 2.67753 0
M  V30 12685 H 1181.53 0.645645 1.28715 0
M  V30 12686 H 1183.48 -0.584135 4.17332 0
M  V30 12687 H 1182.2 -1.13849 3.06114 0
M  V30 12688 H 1180.86 0.938682 3.54379 0
M  V30 12689 H 1180.51 -1.13235 4.90089 0
M  V30 12690 H 1180.21 0.334367 5.86648 0
M  V30 12691 H 1181.73 -0.573517 6.07901 0
M  V30 12692 H 1183.15 1.62252 5.49861 0
M  V30 12693 H 1181.55 2.41369 5.49419 0
M  V30 12694 H 1182.62 2.60006 4.09298 0
M  V30 12695 N 1183.96 -1.40369 0.716545 0
M  V30 12696 C 1185.18 -2.05704 0.264729 0
M  V30 12697 C 1185.61 -1.53634 -1.08527 0
M  V30 12698 O 1184.97 -0.67212 -1.68381 0
M  V30 12699 C 1185.01 -3.59692 0.255778 0
M  V30 12700 O 1184.12 -4.05286 -0.762686 0
M  V30 12701 H 1183.46 -0.652301 0.124092 0
M  V30 12702 H 1185.99 -1.7975 0.977295 0
M  V30 12703 H 1186 -4.07892 0.0937944 0
M  V30 12704 H 1184.67 -3.96955 1.24095 0
M  V30 12705 H 1183.25 -3.68543 -0.568347 0
M  V30 12706 N 1185.44 -0.462799 -1.50652 0
M  V30 12707 C 1186.37 0.325724 -2.31217 0
M  V30 12708 C 1187.35 0.997942 -1.3775 0
M  V30 12709 O 1188.53 0.996707 -1.66671 0
M  V30 12710 C 1185.66 1.41283 -3.17264 0
M  V30 12711 C 1184.62 0.862687 -4.19216 0
M  V30 12712 C 1183.94 2.04746 -4.93946 0
M  V30 12713 C 1185.24 -0.120365 -5.22161 0
M  V30 12714 H 1186.94 -0.346666 -2.97386 0
M  V30 12715 H 1184.48 -0.168163 -1.43015 0
M  V30 12716 H 1186.44 1.97188 -3.72418 0
M  V30 12717 H 1185.16 2.11387 -2.48964 0
M  V30 12718 H 1183.82 0.325671 -3.65151 0
M  V30 12719 H 1183.47 2.73529 -4.22127 0
M  V30 12720 H 1183.17 1.68562 -5.62904 0
M  V30 12721 H 1184.69 2.61157 -5.51932 0
M  V30 12722 H 1186.1 0.349226 -5.72235 0
M  V30 12723 H 1184.5 -0.396061 -5.98792 0
M  V30 12724 H 1185.57 -1.04895 -4.73418 0
M  V30 12725 N 1186.91 1.56388 -0.195085 0
M  V30 12726 C 1188.14 2.02406 0.452399 0
M  V30 12727 C 1188.56 1.07432 1.54402 0
M  V30 12728 O 1187.92 0.0578246 1.81208 0
M  V30 12729 C 1187.97 3.46864 0.985778 0
M  V30 12730 O 1187.07 3.55007 2.09867 0
M  V30 12731 H 1186.42 0.65553 0.105719 0
M  V30 12732 H 1188.95 2.02299 -0.30596 0
M  V30 12733 H 1188.96 3.86655 1.30238 0
M  V30 12734 H 1187.63 4.15481 0.186662 0
M  V30 12735 H 1186.21 3.2709 1.79071 0
M  V30 12736 N 1188.39 -0.0785156 1.57404 0
M  V30 12737 C 1189.34 -1.11278 2.04255 0
M  V30 12738 C 1190.33 -1.40482 0.946633 0
M  V30 12739 O 1191.54 -1.39968 1.13177 0
M  V30 12740 H 1187.92 -0.376157 0.65116 0
M  V30 12741 H 1189.89 -0.691437 2.90279 0
M  V30 12742 C 1188.64 -2.42006 2.49656 0
M  V30 12743 H 1187.96 -2.20383 3.33574 0
M  V30 12744 H 1189.4 -3.12837 2.86197 0
M  V30 12745 C 1187.86 -3.07488 1.37669 0
M  V30 12746 O 1188.39 -3.95285 0.715036 0
M  V30 12747 N 1186.59 -2.68004 1.1235 0
M  V30 12748 H 1186.14 -1.96698 1.66336 0
M  V30 12749 H 1186.1 -3.12141 0.376238 0
M  V30 12750 N 1189.87 -1.5367 -0.349747 0
M  V30 12751 C 1191.12 -1.7087 -1.0923 0
M  V30 12752 C 1191.45 -0.467299 -1.88494 0
M  V30 12753 O 1190.72 0.535619 -1.8698 0
M  V30 12754 C 1191.01 -2.9684 -2.03858 0
M  V30 12755 C 1190.86 -4.31174 -1.28097 0
M  V30 12756 C 1192.18 -3.18459 -3.03763 0
M  V30 12757 H 1189.3 -0.621757 -0.395711 0
M  V30 12758 H 1191.94 -1.86333 -0.371481 0
M  V30 12759 H 1190.09 -2.83788 -2.65323 0
M  V30 12760 H 1191.76 -4.56066 -0.692933 0
M  V30 12761 H 1190.01 -4.29866 -0.582924 0
M  V30 12762 H 1190.68 -5.15482 -1.9744 0
M  V30 12763 H 1193.15 -3.30801 -2.52409 0
M  V30 12764 H 1192.03 -4.08006 -3.67182 0
M  V30 12765 H 1192.29 -2.34467 -3.74803 0
M  V30 12766 N 1191.35 0.610423 -1.45298 0
M  V30 12767 C 1192.31 1.70324 -1.5337 0
M  V30 12768 C 1193.31 1.55393 -0.413492 0
M  V30 12769 O 1194.5 1.60512 -0.676872 0
M  V30 12770 C 1191.63 3.09572 -1.42752 0
M  V30 12771 H 1192.83 1.64535 -2.50736 0
M  V30 12772 H 1190.38 0.825906 -1.32697 0
M  V30 12773 H 1191.11 3.2094 -0.465601 0
M  V30 12774 H 1190.9 3.21817 -2.24 0
M  V30 12775 H 1192.39 3.89178 -1.51427 0
M  V30 12776 N 1192.83 1.32541 0.852676 0
M  V30 12777 C 1194.07 1.22971 1.60383 0
M  V30 12778 C 1194.4 -0.208009 1.93887 0
M  V30 12779 O 1193.67 -1.13326 1.59794 0
M  V30 12780 H 1192.25 0.452149 0.594618 0
M  V30 12781 H 1194.91 1.66089 1.01983 0
M  V30 12782 H 1194 1.81373 2.53989 0
M  V30 12783 N 1194.3 -1.0692 1.15784 0
M  V30 12784 C 1195.55 -1.79866 0.936815 0
M  V30 12785 C 1195.88 -1.867 -0.534477 0
M  V30 12786 O 1195.16 -1.35395 -1.39637 0
M  V30 12787 C 1195.44 -3.24691 1.55717 0
M  V30 12788 C 1195.29 -3.25975 3.09936 0
M  V30 12789 C 1196.61 -4.22076 1.24658 0
M  V30 12790 H 1193.73 -0.652971 0.341756 0
M  V30 12791 H 1196.37 -1.25085 1.43016 0
M  V30 12792 H 1194.52 -3.7147 1.13763 0
M  V30 12793 H 1196.2 -2.87405 3.60827 0
M  V30 12794 H 1194.44 -2.64808 3.43597 0
M  V30 12795 H 1195.11 -4.28114 3.48458 0
M  V30 12796 H 1197.59 -3.83709 1.60956 0
M  V30 12797 H 1196.46 -5.21691 1.70675 0
M  V30 12798 H 1196.72 -4.41794 0.164341 0
M  V30 12799 N 1195.78 -0.955326 -1.25345 0
M  V30 12800 C 1197.03 -0.610484 -1.93079 0
M  V30 12801 C 1197.36 0.852591 -1.74817 0
M  V30 12802 O 1196.61 1.6272 -1.08723 0
M  V30 12803 C 1196.91 -0.916173 -3.45458 0
M  V30 12804 C 1196.58 -2.36539 -3.83875 0
M  V30 12805 C 1195.24 -2.76152 -3.94073 0
M  V30 12806 C 1197.59 -3.30652 -4.02888 0
M  V30 12807 C 1194.92 -4.08944 -4.20692 0
M  V30 12808 C 1197.27 -4.63057 -4.31 0
M  V30 12809 C 1195.94 -5.02464 -4.39415 0
M  V30 12810 H 1195.21 -0.223392 -0.706525 0
M  V30 12811 H 1197.85 -1.20449 -1.48877 0
M  V30 12812 H 1196.16 -0.23978 -3.91066 0
M  V30 12813 H 1197.85 -0.627929 -3.96053 0
M  V30 12814 H 1194.44 -2.04819 -3.76493 0
M  V30 12815 H 1198.63 -3.01237 -3.94423 0
M  V30 12816 H 1193.88 -4.39118 -4.25423 0
M  V30 12817 H 1198.06 -5.3596 -4.44657 0
M  V30 12818 H 1195.69 -6.05386 -4.59795 0
M  V30 12819 N 1197.26 1.39987 -0.723979 0
M  V30 12820 C 1198.49 2.0474 -0.276618 0
M  V30 12821 C 1198.9 1.54675 1.0896 0
M  V30 12822 O 1198.24 0.701956 1.69759 0
M  V30 12823 C 1198.3 3.59009 -0.187912 0
M  V30 12824 C 1197.97 4.32 -1.49079 0
M  V30 12825 C 1198.97 4.59385 -2.43436 0
M  V30 12826 C 1196.65 4.70753 -1.75204 0
M  V30 12827 C 1198.64 5.24519 -3.62159 0
M  V30 12828 C 1196.33 5.35617 -2.94206 0
M  V30 12829 C 1197.33 5.62431 -3.87506 0
M  V30 12830 O 1197.02 6.25952 -5.0442 0
M  V30 12831 H 1196.75 0.665164 -0.120554 0
M  V30 12832 H 1199.3 1.80226 -0.98527 0
M  V30 12833 H 1197.53 3.82375 0.576753 0
M  V30 12834 H 1199.22 4.0527 0.225993 0
M  V30 12835 H 1199.99 4.29902 -2.24519 0
M  V30 12836 H 1195.87 4.49247 -1.03433 0
M  V30 12837 H 1199.41 5.45364 -4.34999 0
M  V30 12838 H 1195.31 5.64521 -3.13029 0
M  V30 12839 H 1196.08 6.44448 -5.04608 0
M  V30 12840 N 1198.74 0.470782 1.50404 0
M  V30 12841 C 1199.99 -0.0859981 2.01517 0
M  V30 12842 C 1200.3 -1.40811 1.35763 0
M  V30 12843 O 1201.51 -2.04982 1.7803 0
M  V30 12844 C 1199.96 -0.203773 3.59323 0
M  V30 12845 C 1199.57 1.10989 4.34034 0
M  V30 12846 C 1201.32 -0.712528 4.18477 0
M  V30 12847 C 1199.22 0.955928 5.83623 0
M  V30 12848 H 1198.15 -0.0359142 0.753144 0
M  V30 12849 H 1200.8 0.605631 1.73218 0
M  V30 12850 H 1199.19 -0.959177 3.84208 0
M  V30 12851 H 1200.36 1.87623 4.20873 0
M  V30 12852 H 1198.67 1.54973 3.86487 0
M  V30 12853 H 1201.27 -0.844745 5.27985 0
M  V30 12854 H 1201.61 -1.70377 3.79838 0
M  V30 12855 H 1202.15 -0.0145179 3.97797 0
M  V30 12856 H 1198.89 1.92054 6.26734 0
M  V30 12857 H 1198.41 0.22997 5.99359 0
M  V30 12858 H 1200.09 0.622423 6.43999 0
M  V30 12859 N 1200.22 -1.56282 0.203376 0
M  V30 12860 C 1201.15 -2.2247 -0.709183 0
M  V30 12861 C 1202.13 -1.19046 -1.21499 0
M  V30 12862 O 1203.31 -1.47578 -1.26231 0
M  V30 12863 C 1200.44 -2.8905 -1.92529 0
M  V30 12864 C 1199.4 -3.98789 -1.55407 0
M  V30 12865 C 1198.72 -4.52574 -2.84747 0
M  V30 12866 C 1200.02 -5.16774 -0.75775 0
M  V30 12867 H 1201.72 -2.98986 -0.157392 0
M  V30 12868 H 1199.26 -1.43808 -0.0742613 0
M  V30 12869 H 1201.22 -3.34038 -2.56898 0
M  V30 12870 H 1199.94 -2.09952 -2.50175 0
M  V30 12871 H 1198.6 -3.54504 -0.933928 0
M  V30 12872 H 1198.25 -3.70229 -3.40499 0
M  V30 12873 H 1197.95 -5.26627 -2.6065 0
M  V30 12874 H 1199.47 -5.00269 -3.5009 0
M  V30 12875 H 1200.89 -5.58256 -1.30472 0
M  V30 12876 H 1199.28 -5.96945 -0.614583 0
M  V30 12877 H 1200.35 -4.84308 0.239476 0
M  V30 12878 N 1201.7 0.070167 -1.57444 0
M  V30 12879 C 1202.94 0.767842 -1.86513 0
M  V30 12880 C 1203.26 1.78659 -0.796257 0
M  V30 12881 O 1204.46 2.53395 -0.974845 0
M  V30 12882 C 1202.92 1.41654 -3.30851 0
M  V30 12883 C 1202.53 0.436273 -4.45871 0
M  V30 12884 C 1204.27 2.09649 -3.69117 0
M  V30 12885 C 1202.18 1.09098 -5.8125 0
M  V30 12886 H 1201.11 0.290519 -0.695784 0
M  V30 12887 H 1203.76 0.0211697 -1.83488 0
M  V30 12888 H 1202.14 2.21153 -3.28493 0
M  V30 12889 H 1203.32 -0.329022 -4.59624 0
M  V30 12890 H 1201.63 -0.139314 -4.16167 0
M  V30 12891 H 1204.23 2.59411 -4.67558 0
M  V30 12892 H 1204.57 2.89663 -2.99 0
M  V30 12893 H 1205.1 1.36979 -3.73472 0
M  V30 12894 H 1201.84 0.331128 -6.54663 0
M  V30 12895 H 1201.36 1.8271 -5.71294 0
M  V30 12896 H 1203.04 1.61034 -6.2664 0
M  V30 12897 N 1203.17 1.53854 0.341593 0
M  V30 12898 C 1204.42 1.70856 1.07948 0
M  V30 12899 C 1204.74 0.475474 1.89114 0
M  V30 12900 O 1204.01 -0.510592 1.89129 0
M  V30 12901 H 1202.59 0.629914 0.401519 0
M  V30 12902 H 1205.25 1.91112 0.382393 0
M  V30 12903 H 1204.35 2.5803 1.75575 0
M  V30 12904 N 1204.65 -0.602709 1.4562 0
M  V30 12905 C 1205.9 -1.35889 1.49595 0
M  V30 12906 C 1206.22 -1.9449 0.141002 0
M  V30 12907 O 1205.49 -1.77438 -0.830209 0
M  V30 12908 H 1204.07 -0.504478 0.550918 0
M  V30 12909 H 1206.73 -0.707376 1.8161 0
M  V30 12910 H 1205.83 -2.17583 2.2375 0
M  V30 12911 N 1206.13 -1.32992 -0.845635 0
M  V30 12912 C 1207.06 -1.25301 -1.97033 0
M  V30 12913 C 1208.04 -0.134966 -1.69564 0
M  V30 12914 O 1209.23 -0.323629 -1.91484 0
M  V30 12915 C 1206.36 -0.984551 -3.33052 0
M  V30 12916 C 1205.31 -2.06481 -3.749 0
M  V30 12917 C 1204.64 -1.6486 -5.08651 0
M  V30 12918 C 1205.94 -3.48083 -3.89404 0
M  V30 12919 H 1207.63 -2.194 -2.03725 0
M  V30 12920 H 1205.18 -1.05621 -0.978783 0
M  V30 12921 H 1207.13 -0.917269 -4.11296 0
M  V30 12922 H 1205.85 -0.00793116 -3.26599 0
M  V30 12923 H 1204.51 -2.1224 -2.98915 0
M  V30 12924 H 1204.16 -0.659183 -4.98662 0
M  V30 12925 H 1203.86 -2.37145 -5.37621 0
M  V30 12926 H 1205.38 -1.59585 -5.89377 0
M  V30 12927 H 1206.8 -3.44863 -4.57976 0
M  V30 12928 H 1205.19 -4.18796 -4.29802 0
M  V30 12929 H 1206.26 -3.87084 -2.92051 0
M  V30 12930 N 1207.61 1.06304 -1.1635 0
M  V30 12931 C 1208.86 1.78747 -0.943074 0
M  V30 12932 C 1209.18 1.87646 0.530483 0
M  V30 12933 O 1208.45 1.38506 1.38538 0
M  V30 12934 H 1207.03 0.662072 -0.345932 0
M  V30 12935 H 1209.69 1.28413 -1.46615 0
M  V30 12936 H 1208.78 2.80828 -1.3617 0
M  V30 12937 N 1209.09 0.96196 1.24836 0
M  V30 12938 C 1210.02 0.506241 2.27946 0
M  V30 12939 C 1211 -0.451183 1.64007 0
M  V30 12940 O 1212.18 -0.348552 1.91046 0
M  V30 12941 C 1209.31 -0.209846 3.46665 0
M  V30 12942 C 1208.27 0.663035 4.22833 0
M  V30 12943 C 1207.59 -0.184216 5.34383 0
M  V30 12944 C 1208.89 1.94479 4.84742 0
M  V30 12945 H 1210.59 1.36805 2.66317 0
M  V30 12946 H 1208.13 0.65926 1.28023 0
M  V30 12947 H 1210.08 -0.539838 4.17928 0
M  V30 12948 H 1208.81 -1.10596 3.07305 0
M  V30 12949 H 1207.47 0.976216 3.53363 0
M  V30 12950 H 1207.12 -1.08031 4.91262 0
M  V30 12951 H 1206.82 0.39657 5.8626 0
M  V30 12952 H 1208.34 -0.509009 6.08475 0
M  V30 12953 H 1209.75 1.68074 5.48109 0
M  V30 12954 H 1208.15 2.47183 5.46828 0
M  V30 12955 H 1209.22 2.64332 4.06517 0
M  V30 12956 N 1210.56 -1.39601 0.731392 0
M  V30 12957 C 1211.53 -2.28992 0.0976037 0
M  V30 12958 C 1212.53 -1.46135 -0.670917 0
M  V30 12959 O 1213.72 -1.66856 -0.50047 0
M  V30 12960 C 1210.85 -3.29582 -0.871124 0
M  V30 12961 H 1212.04 -2.86541 0.885112 0
M  V30 12962 H 1209.59 -1.48188 0.497002 0
M  V30 12963 H 1210.33 -2.77082 -1.68512 0
M  V30 12964 H 1210.11 -3.9077 -0.322735 0
M  V30 12965 H 1211.6 -3.96479 -1.31126 0
M  V30 12966 N 1212.04 -0.478751 -1.50152 0
M  V30 12967 C 1212.98 0.357584 -2.25381 0
M  V30 12968 C 1213.95 0.98965 -1.29014 0
M  V30 12969 O 1215.14 1.02409 -1.58255 0
M  V30 12970 C 1212.26 1.50167 -3.03591 0
M  V30 12971 C 1211.31 0.986215 -4.14941 0
M  V30 12972 S 1212.14 -0.105239 -5.35397 0
M  V30 12973 C 1213.3 1.04254 -6.17156 0
M  V30 12974 H 1213.53 -0.280985 -2.95969 0
M  V30 12975 H 1211.07 -0.263734 -1.52131 0
M  V30 12976 H 1213.02 2.15733 -3.49241 0
M  V30 12977 H 1211.68 2.11178 -2.32514 0
M  V30 12978 H 1210.88 1.84295 -4.69096 0
M  V30 12979 H 1210.48 0.408141 -3.71766 0
M  V30 12980 H 1212.77 1.95255 -6.48754 0
M  V30 12981 H 1213.71 0.540083 -7.06037 0
M  V30 12982 H 1214.12 1.29983 -5.49331 0
M  V30 12983 N 1213.52 1.56172 -0.211661 0
M  V30 12984 C 1214.45 2.22843 0.697375 0
M  V30 12985 C 1215.43 1.19689 1.20866 0
M  V30 12986 O 1216.62 1.48245 1.25447 0
M  V30 12987 C 1213.75 2.90067 1.90993 0
M  V30 12988 C 1212.7 3.99608 1.5329 0
M  V30 12989 C 1212.03 4.54078 2.82343 0
M  V30 12990 C 1213.33 5.17169 0.730333 0
M  V30 12991 H 1215.02 2.99065 0.141533 0
M  V30 12992 H 1212.57 1.43846 0.0666337 0
M  V30 12993 H 1214.52 3.35396 2.55123 0
M  V30 12994 H 1213.24 2.11276 2.49058 0
M  V30 12995 H 1211.9 3.54995 0.915115 0
M  V30 12996 H 1211.55 3.72029 3.38531 0
M  V30 12997 H 1211.25 5.28001 2.57853 0
M  V30 12998 H 1212.77 5.02119 3.47432 0
M  V30 12999 H 1214.19 5.5894 1.2751 0
M  V30 13000 H 1212.59 5.97262 0.582916 0
M  V30 13001 H 1213.66 4.84174 -0.265157 0
M  V30 13002 N 1215 -0.0618163 1.57479 0
M  V30 13003 C 1216.24 -0.760193 1.88013 0
M  V30 13004 C 1216.58 -1.76718 0.805258 0
M  V30 13005 O 1215.85 -1.93633 -0.183408 0
M  V30 13006 C 1216.14 -1.45924 3.29208 0
M  V30 13007 C 1215.99 -0.467994 4.47359 0
M  V30 13008 C 1217.31 -2.40166 3.68793 0
M  V30 13009 H 1214.43 -0.274896 0.683814 0
M  V30 13010 H 1217.07 -0.0232433 1.89986 0
M  V30 13011 H 1215.22 -2.08741 3.27657 0
M  V30 13012 H 1216.89 0.155735 4.61037 0
M  V30 13013 H 1215.13 0.215797 4.33263 0
M  V30 13014 H 1215.8 -0.994942 5.42959 0
M  V30 13015 H 1218.28 -1.87419 3.71501 0
M  V30 13016 H 1217.16 -2.86076 4.68457 0
M  V30 13017 H 1217.42 -3.25413 2.99264 0
M  V30 13018 N 1216.48 -1.54033 -0.333429 0
M  V30 13019 C 1217.44 -1.82021 -1.39288 0
M  V30 13020 C 1218.44 -0.691623 -1.45166 0
M  V30 13021 O 1219.63 -0.959925 -1.45365 0
M  V30 13022 C 1216.76 -1.97136 -2.78119 0
M  V30 13023 H 1217.95 -2.76671 -1.1573 0
M  V30 13024 H 1215.51 -1.45599 -0.568376 0
M  V30 13025 H 1216.24 -1.04663 -3.06946 0
M  V30 13026 H 1216.03 -2.79251 -2.75247 0
M  V30 13027 H 1217.52 -2.20271 -3.54782 0
M  V30 13028 N 1217.95 0.594978 -1.45938 0
M  V30 13029 C 1218.88 1.71536 -1.58422 0
M  V30 13030 C 1219.87 1.64441 -0.435116 0
M  V30 13031 O 1221.05 1.82647 -0.659839 0
M  V30 13032 C 1218.18 3.10163 -1.56257 0
M  V30 13033 C 1217.13 3.3208 -2.70013 0
M  V30 13034 C 1216.46 4.71108 -2.52905 0
M  V30 13035 C 1217.76 3.21105 -4.11933 0
M  V30 13036 H 1219.45 1.61344 -2.52207 0
M  V30 13037 H 1217 0.774791 -1.2138 0
M  V30 13038 H 1218.95 3.88352 -1.63587 0
M  V30 13039 H 1217.68 3.21225 -0.590093 0
M  V30 13040 H 1216.34 2.56286 -2.62132 0
M  V30 13041 H 1215.98 4.7892 -1.53768 0
M  V30 13042 H 1215.68 4.86727 -3.29197 0
M  V30 13043 H 1217.21 5.51482 -2.62107 0
M  V30 13044 H 1218.62 3.89153 -4.2099 0
M  V30 13045 H 1217.02 3.4825 -4.88715 0
M  V30 13046 H 1218.09 2.18359 -4.32952 0
M  V30 13047 N 1219.43 1.33438 0.838571 0
M  V30 13048 C 1220.68 1.24259 1.58879 0
M  V30 13049 C 1220.99 -0.189957 1.94675 0
M  V30 13050 O 1222.2 -0.40376 2.68481 0
M  V30 13051 C 1220.66 2.1773 2.86569 0
M  V30 13052 C 1220.26 3.66156 2.58135 0
M  V30 13053 C 1222.01 2.17424 3.64591 0
M  V30 13054 C 1219.92 4.5154 3.81923 0
M  V30 13055 H 1218.85 0.461534 0.59624 0
M  V30 13056 H 1221.5 1.58504 0.924588 0
M  V30 13057 H 1219.88 1.76418 3.54532 0
M  V30 13058 H 1221.05 4.1591 1.98382 0
M  V30 13059 H 1219.37 3.68754 1.93416 0
M  V30 13060 H 1221.96 2.78446 4.56478 0
M  V30 13061 H 1222.31 1.16939 3.99539 0
M  V30 13062 H 1222.84 2.571 3.03553 0
M  V30 13063 H 1219.58 5.52902 3.52107 0
M  V30 13064 H 1219.1 4.06529 4.41015 0
M  V30 13065 H 1220.78 4.65359 4.495 0
M  V30 13066 N 1220.91 -1.05686 1.16912 0
M  V30 13067 C 1221.82 -2.16824 0.8958 0
M  V30 13068 C 1222.84 -1.73482 -0.134215 0
M  V30 13069 O 1224.01 -2.01352 0.0438776 0
M  V30 13070 C 1221.08 -3.44298 0.407427 0
M  V30 13071 C 1220.14 -4.02114 1.50342 0
M  V30 13072 C 1219.37 -5.23503 1.03826 0
M  V30 13073 O 1219.59 -5.70295 -0.109579 0
M  V30 13074 O 1218.53 -5.73432 1.8292 0
M  V30 13075 H 1222.35 -2.42725 1.82533 0
M  V30 13076 H 1219.94 -1.15339 0.949589 0
M  V30 13077 H 1221.82 -4.21159 0.142356 0
M  V30 13078 H 1220.5 -3.19908 -0.494009 0
M  V30 13079 H 1219.4 -3.26715 1.82231 0
M  V30 13080 H 1220.74 -4.30811 2.38039 0
M  V30 13081 N 1222.39 -0.968567 -1.24324 0
M  V30 13082 C 1223.64 -0.630928 -1.9242 0
M  V30 13083 C 1223.96 0.834001 -1.75712 0
M  V30 13084 O 1223.22 1.61558 -1.10442 0
M  V30 13085 C 1223.52 -0.952762 -3.44467 0
M  V30 13086 C 1223.18 -2.40597 -3.81345 0
M  V30 13087 C 1221.85 -2.80316 -3.91122 0
M  V30 13088 C 1224.2 -3.34906 -3.99359 0
M  V30 13089 C 1221.53 -4.13383 -4.16331 0
M  V30 13090 C 1223.88 -4.67602 -4.26065 0
M  V30 13091 C 1222.54 -5.07097 -4.34061 0
M  V30 13092 H 1221.81 -0.230873 -0.704116 0
M  V30 13093 H 1224.46 -1.22022 -1.47591 0
M  V30 13094 H 1222.76 -0.281244 -3.90789 0
M  V30 13095 H 1224.46 -0.6699 -3.95365 0
M  V30 13096 H 1221.05 -2.088 -3.743 0
M  V30 13097 H 1225.23 -3.05404 -3.91206 0
M  V30 13098 H 1220.49 -4.43606 -4.20742 0
M  V30 13099 H 1224.66 -5.40646 -4.38948 0
M  V30 13100 H 1222.29 -6.10229 -4.53349 0
M  V30 13101 N 1223.87 1.39211 -0.738786 0
M  V30 13102 C 1225.11 2.02287 -0.293119 0
M  V30 13103 C 1225.47 1.57361 1.10006 0
M  V30 13104 O 1226.67 2.12663 1.64402 0
M  V30 13105 C 1224.94 3.55204 -0.395547 0
M  V30 13106 S 1226.5 4.3879 -0.0302798 0
M  V30 13107 H 1223.32 0.701702 -0.114609 0
M  V30 13108 H 1225.92 1.69959 -0.966138 0
M  V30 13109 H 1224.63 3.85392 -1.41072 0
M  V30 13110 H 1224.16 3.92291 0.295163 0
M  V30 13111 H 1226.17 4.81848 1.18478 0
M  V30 13112 N 1225.34 0.486708 1.49896 0
M  V30 13113 C 1226.57 -0.0599944 2.06513 0
M  V30 13114 C 1226.98 -1.32662 1.34898 0
M  V30 13115 O 1226.33 -1.78915 0.416565 0
M  V30 13116 C 1226.39 -0.39838 3.57286 0
M  V30 13117 C 1226.05 0.768465 4.50493 0
M  V30 13118 C 1227.05 1.65495 4.92856 0
M  V30 13119 C 1224.73 0.96322 4.92978 0
M  V30 13120 C 1226.73 2.72046 5.76429 0
M  V30 13121 C 1224.41 2.03193 5.7633 0
M  V30 13122 C 1225.41 2.9089 6.17958 0
M  V30 13123 O 1225.1 3.95919 6.99645 0
M  V30 13124 H 1224.83 0.0107865 0.675914 0
M  V30 13125 H 1227.39 0.679087 1.93849 0
M  V30 13126 H 1225.62 -1.19086 3.67907 0
M  V30 13127 H 1227.31 -0.882003 3.96201 0
M  V30 13128 H 1228.07 1.51624 4.6069 0
M  V30 13129 H 1223.95 0.29004 4.60087 0
M  V30 13130 H 1227.49 3.40526 6.08841 0
M  V30 13131 H 1223.39 2.17064 6.07909 0
M  V30 13132 H 1224.16 3.93097 7.17925 0
M  V30 13133 N 1226.82 -1.56058 0.219941 0
M  V30 13134 C 1227.77 -2.20218 -0.690846 0
M  V30 13135 C 1228.74 -1.15725 -1.19151 0
M  V30 13136 O 1229.93 -1.44073 -1.2509 0
M  V30 13137 C 1227.07 -2.88477 -1.89408 0
M  V30 13138 C 1226.18 -4.07559 -1.43246 0
M  V30 13139 C 1225.31 -4.63605 -2.59314 0
M  V30 13140 C 1224.35 -5.74993 -2.0988 0
M  V30 13141 N 1223.49 -6.25337 -3.19214 0
M  V30 13142 H 1228.33 -2.97685 -0.136992 0
M  V30 13143 H 1225.87 -1.46994 -0.055865 0
M  V30 13144 H 1227.82 -3.26235 -2.60051 0
M  V30 13145 H 1226.45 -2.1353 -2.42084 0
M  V30 13146 H 1225.51 -3.75297 -0.621013 0
M  V30 13147 H 1226.82 -4.8805 -1.02997 0
M  V30 13148 H 1225.97 -5.03798 -3.38041 0
M  V30 13149 H 1224.71 -3.82274 -3.0285 0
M  V30 13150 H 1223.72 -5.34304 -1.29613 0
M  V30 13151 H 1224.94 -6.58158 -1.67345 0
M  V30 13152 H 1222.89 -5.4692 -3.62236 0
M  V30 13153 H 1222.8 -7.00947 -2.83213 0
M  V30 13154 H 1224.07 -6.70187 -3.98083 0
M  V30 13155 N 1228.3 0.053464 -1.57509 0
M  V30 13156 C 1229.53 0.765301 -1.92764 0
M  V30 13157 C 1229.95 1.69385 -0.817943 0
M  V30 13158 O 1229.31 1.7986 0.228075 0
M  V30 13159 C 1229.36 1.51938 -3.27028 0
M  V30 13160 O 1228.46 2.63121 -3.17555 0
M  V30 13161 H 1227.8 0.207567 -0.630723 0
M  V30 13162 H 1230.33 0.0162254 -2.04594 0
M  V30 13163 H 1230.34 1.89466 -3.6134 0
M  V30 13164 H 1229.02 0.838207 -4.07366 0
M  V30 13165 H 1227.59 2.28316 -2.94832 0
M  V30 13166 N 1229.78 1.54207 0.325255 0
M  V30 13167 C 1231.2 1.44879 0.669492 0
M  V30 13168 C 1231.4 0.620298 1.91715 0
M  V30 13169 O 1230.45 0.118435 2.52222 0
M  V30 13170 C 1231.76 2.88581 0.845077 0
M  V30 13171 C 1233.31 2.98472 0.942527 0
M  V30 13172 C 1233.79 4.4332 1.15029 0
M  V30 13173 N 1235.28 4.46925 1.21707 0
M  V30 13174 C 1236.01 5.56155 1.39568 0
M  V30 13175 N 1235.51 6.75357 1.54483 0
M  V30 13176 N 1237.3 5.43799 1.42263 0
M  V30 13177 H 1229.45 2.06556 -0.494819 0
M  V30 13178 H 1231.72 0.934474 -0.159568 0
M  V30 13179 H 1231.42 3.517 -0.000442996 0
M  V30 13180 H 1231.3 3.34596 1.74141 0
M  V30 13181 H 1233.68 2.35481 1.77855 0
M  V30 13182 H 1233.76 2.5579 0.0226995 0
M  V30 13183 H 1233.41 5.06896 0.319127 0
M  V30 13184 H 1233.34 4.8361 2.08397 0
M  V30 13185 H 1235.83 3.61036 1.11632 0
M  V30 13186 H 1236.14 7.54363 1.67799 0
M  V30 13187 H 1234.49 6.78268 1.51584 0
M  V30 13188 H 1237.68 4.49627 1.30205 0
M  V30 13189 H 1237.85 6.28982 1.5584 0
M  V30 13190 N 1231.26 -0.58723 1.46251 0
M  V30 13191 C 1232.48 -1.37661 1.55126 0
M  V30 13192 C 1232.91 -1.87123 0.191489 0
M  V30 13193 O 1232.27 -1.6131 -0.827576 0
M  V30 13194 C 1232.31 -2.54324 2.5564 0
M  V30 13195 O 1231.42 -3.55617 2.0883 0
M  V30 13196 H 1230.76 -0.410154 0.522178 0
M  V30 13197 H 1233.29 -0.712738 1.91784 0
M  V30 13198 H 1233.3 -3.01301 2.75103 0
M  V30 13199 H 1231.97 -2.17675 3.54387 0
M  V30 13200 H 1230.55 -3.15151 1.99335 0
M  V30 13201 N 1232.74 -1.33881 -0.831482 0
M  V30 13202 C 1233.65 -1.26802 -1.97379 0
M  V30 13203 C 1234.66 -0.177233 -1.73095 0
M  V30 13204 O 1235.84 -0.402163 -1.97344 0
M  V30 13205 C 1232.9 -1.01474 -3.31517 0
M  V30 13206 C 1231.96 -2.19626 -3.68867 0
M  V30 13207 C 1231.2 -1.95497 -4.96605 0
M  V30 13208 O 1231.42 -0.908948 -5.63111 0
M  V30 13209 O 1230.35 -2.82226 -5.31632 0
M  V30 13210 H 1234.18 -2.22883 -2.06293 0
M  V30 13211 H 1231.76 -1.14001 -0.965613 0
M  V30 13212 H 1233.65 -0.890954 -4.11874 0
M  V30 13213 H 1232.32 -0.0842656 -3.2359 0
M  V30 13214 H 1231.23 -2.37561 -2.88991 0
M  V30 13215 H 1232.56 -3.11034 -3.81469 0
M  V30 13216 N 1234.21 1.05064 -1.1747 0
M  V30 13217 C 1235.44 1.82299 -0.98903 0
M  V30 13218 C 1235.86 1.82441 0.457907 0
M  V30 13219 O 1235.22 1.23433 1.32793 0
M  V30 13220 C 1235.27 3.26239 -1.53624 0
M  V30 13221 O 1234.37 4.05507 -0.750857 0
M  V30 13222 H 1233.71 0.563601 -0.35107 0
M  V30 13223 H 1236.24 1.32386 -1.55997 0
M  V30 13224 H 1236.25 3.77038 -1.55906 0
M  V30 13225 H 1234.93 3.25451 -2.58949 0
M  V30 13226 H 1233.51 3.64227 -0.799548 0
M  V30 13227 N 1235.69 0.975146 1.23809 0
M  V30 13228 C 1236.64 0.510761 2.25077 0
M  V30 13229 C 1237.61 -0.447605 1.59955 0
M  V30 13230 O 1238.79 -0.356318 1.87443 0
M  V30 13231 C 1235.93 -0.185755 3.446 0
M  V30 13232 C 1235.05 0.812254 4.24295 0
M  V30 13233 C 1234.18 0.0910835 5.31122 0
M  V30 13234 C 1233.22 1.07866 6.02521 0
M  V30 13235 N 1232.36 0.386995 7.01033 0
M  V30 13236 H 1237.2 1.37913 2.64166 0
M  V30 13237 H 1234.73 0.691184 1.2985 0
M  V30 13238 H 1236.69 -0.606341 4.1277 0
M  V30 13239 H 1235.32 -1.01803 3.06327 0
M  V30 13240 H 1234.37 1.35125 3.55592 0
M  V30 13241 H 1235.69 1.56502 4.73612 0
M  V30 13242 H 1234.84 -0.387129 6.05464 0
M  V30 13243 H 1233.58 -0.694324 4.82732 0
M  V30 13244 H 1232.58 1.56767 5.26976 0
M  V30 13245 H 1233.81 1.86464 6.52999 0
M  V30 13246 H 1231.76 -0.3793 6.54903 0
M  V30 13247 H 1231.67 1.0785 7.48268 0
M  V30 13248 H 1232.94 -0.0690036 7.79469 0
M  V30 13249 N 1237.17 -1.38817 0.746158 0
M  V30 13250 C 1238.59 -1.53894 0.42294 0
M  V30 13251 C 1238.79 -1.71064 -1.06486 0
M  V30 13252 O 1237.84 -1.71744 -1.85095 0
M  V30 13253 C 1239.15 -2.75029 1.2157 0
M  V30 13254 C 1240.7 -2.88873 1.20504 0
M  V30 13255 C 1241.18 -4.1296 1.9806 0
M  V30 13256 N 1242.67 -4.20022 1.95283 0
M  V30 13257 C 1243.4 -5.15011 2.52093 0
M  V30 13258 N 1242.9 -6.1572 3.17586 0
M  V30 13259 N 1244.69 -5.07308 2.42064 0
M  V30 13260 H 1236.84 -1.25921 1.71049 0
M  V30 13261 H 1239.11 -0.611148 0.724708 0
M  V30 13262 H 1238.81 -2.68722 2.26895 0
M  V30 13263 H 1238.69 -3.68009 0.827593 0
M  V30 13264 H 1241.07 -2.94667 0.159877 0
M  V30 13265 H 1241.15 -1.96925 1.63261 0
M  V30 13266 H 1240.8 -4.07929 3.02583 0
M  V30 13267 H 1240.73 -5.03974 1.52702 0
M  V30 13268 H 1243.22 -3.47892 1.4758 0
M  V30 13269 H 1243.53 -6.84682 3.58373 0
M  V30 13270 H 1241.88 -6.16075 3.21678 0
M  V30 13271 H 1245.07 -4.27569 1.90532 0
M  V30 13272 H 1245.24 -5.81158 2.86635 0
M  V30 13273 N 1238.65 -0.49465 -1.49636 0
M  V30 13274 C 1239.58 0.33366 -2.25748 0
M  V30 13275 C 1240.56 0.97591 -1.30057 0
M  V30 13276 O 1241.74 1.00725 -1.59332 0
M  V30 13277 C 1238.87 1.46938 -3.05167 0
M  V30 13278 C 1237.92 0.942149 -4.15964 0
M  V30 13279 S 1238.75 -0.162019 -5.35255 0
M  V30 13280 C 1239.9 0.977022 -6.18227 0
M  V30 13281 H 1240.14 -0.312361 -2.95655 0
M  V30 13282 H 1237.67 -0.279854 -1.51843 0
M  V30 13283 H 1239.63 2.12017 -3.5151 0
M  V30 13284 H 1238.29 2.087 -2.34741 0
M  V30 13285 H 1237.48 1.79309 -4.71025 0
M  V30 13286 H 1237.08 0.368687 -3.72178 0
M  V30 13287 H 1239.38 1.88363 -6.50788 0
M  V30 13288 H 1240.32 0.465168 -7.0657 0
M  V30 13289 H 1240.73 1.24149 -5.50679 0
M  V30 13290 N 1240.13 1.55939 -0.228214 0
M  V30 13291 C 1241.07 2.20581 0.679157 0
M  V30 13292 C 1242.04 1.16355 1.18536 0
M  V30 13293 O 1243.23 1.44735 1.24324 0
M  V30 13294 C 1240.37 2.89477 1.87875 0
M  V30 13295 C 1239.48 4.08313 1.41083 0
M  V30 13296 C 1238.62 4.64974 2.56851 0
M  V30 13297 C 1237.65 5.76098 2.06828 0
M  V30 13298 N 1236.79 6.27021 3.15894 0
M  V30 13299 H 1241.63 2.97753 0.121203 0
M  V30 13300 H 1239.17 1.47021 0.0480688 0
M  V30 13301 H 1241.13 3.2761 2.58317 0
M  V30 13302 H 1239.76 2.14811 2.40948 0
M  V30 13303 H 1238.81 3.75621 0.601102 0
M  V30 13304 H 1240.12 4.8859 1.00408 0
M  V30 13305 H 1239.27 5.05584 3.35365 0
M  V30 13306 H 1238.01 3.83875 3.00818 0
M  V30 13307 H 1237.02 5.34984 1.26778 0
M  V30 13308 H 1238.24 6.59037 1.63852 0
M  V30 13309 H 1236.19 5.48833 3.5933 0
M  V30 13310 H 1236.11 7.02439 2.79491 0
M  V30 13311 H 1237.37 6.72289 3.94523 0
M  V30 13312 N 1241.6 -0.0451101 1.57535 0
M  V30 13313 C 1242.85 -0.737654 1.88157 0
M  V30 13314 C 1243.17 -1.76743 0.823817 0
M  V30 13315 O 1242.44 -1.95366 -0.144503 0
M  V30 13316 H 1241.02 -0.275431 0.694368 0
M  V30 13317 H 1243.69 -0.0148651 1.94894 0
M  V30 13318 H 1242.78 -1.23726 2.86528 0
M  V30 13319 N 1243.08 -1.54377 -0.317073 0
M  V30 13320 C 1244.33 -1.72893 -1.05424 0
M  V30 13321 C 1244.66 -0.506082 -1.87801 0
M  V30 13322 O 1243.91 0.51213 -1.8888 0
M  V30 13323 C 1244.21 -2.96066 -2.00199 0
M  V30 13324 C 1243.88 -4.30551 -1.33927 0
M  V30 13325 C 1242.54 -4.67112 -1.15584 0
M  V30 13326 C 1244.89 -5.13986 -0.864158 0
M  V30 13327 C 1242.22 -5.84701 -0.483892 0
M  V30 13328 C 1244.57 -6.32264 -0.206006 0
M  V30 13329 C 1243.24 -6.67499 -0.0104849 0
M  V30 13330 H 1242.51 -0.63266 -0.385776 0
M  V30 13331 H 1245.15 -1.88623 -0.330722 0
M  V30 13332 H 1243.46 -2.7505 -2.79024 0
M  V30 13333 H 1245.15 -3.07586 -2.57278 0
M  V30 13334 H 1241.74 -4.0179 -1.49207 0
M  V30 13335 H 1245.93 -4.86252 -0.993635 0
M  V30 13336 H 1241.18 -6.10555 -0.32127 0
M  V30 13337 H 1245.36 -6.96192 0.170108 0
M  V30 13338 H 1242.99 -7.58472 0.512209 0
M  V30 13339 N 1244.56 0.579466 -1.4656 0
M  V30 13340 C 1245.8 1.34857 -1.536 0
M  V30 13341 C 1246.16 1.91111 -0.184576 0
M  V30 13342 O 1247.37 2.68487 -0.129731 0
M  V30 13343 C 1245.64 2.44535 -2.60648 0
M  V30 13344 S 1247.2 3.31829 -2.87115 0
M  V30 13345 H 1244.01 0.459405 -0.542649 0
M  V30 13346 H 1246.62 0.665798 -1.83813 0
M  V30 13347 H 1245.32 2.01605 -3.57468 0
M  V30 13348 H 1244.85 3.17581 -2.32177 0
M  V30 13349 H 1246.87 4.43452 -2.22632 0
M  V30 13350 N 1246.04 1.3432 0.824371 0
M  V30 13351 C 1246.97 1.2842 1.95014 0
M  V30 13352 C 1247.95 0.161925 1.69328 0
M  V30 13353 O 1249.13 0.354052 1.90945 0
M  V30 13354 C 1246.26 1.03741 3.31444 0
M  V30 13355 C 1245.22 2.12419 3.71567 0
M  V30 13356 C 1244.54 1.72931 5.05963 0
M  V30 13357 C 1245.84 3.54235 3.83817 0
M  V30 13358 H 1247.54 2.22614 2.00209 0
M  V30 13359 H 1245.08 1.07165 0.961856 0
M  V30 13360 H 1247.04 0.982586 4.09784 0
M  V30 13361 H 1245.76 0.0598892 3.26545 0
M  V30 13362 H 1244.42 2.16968 2.955 0
M  V30 13363 H 1244.07 0.738433 4.9755 0
M  V30 13364 H 1243.77 2.45668 5.3378 0
M  V30 13365 H 1245.29 1.68941 5.86763 0
M  V30 13366 H 1246.71 3.52106 4.52432 0
M  V30 13367 H 1245.1 4.25581 4.23085 0
M  V30 13368 H 1246.17 3.91682 2.85856 0
M  V30 13369 N 1247.52 -1.0444 1.18026 0
M  V30 13370 C 1248.77 -1.7697 0.9677 0
M  V30 13371 C 1249.08 -1.88995 -0.503994 0
M  V30 13372 O 1250.28 -2.58342 -0.834968 0
M  V30 13373 C 1248.74 -3.1816 1.68232 0
M  V30 13374 C 1248.35 -3.14241 3.19307 0
M  V30 13375 C 1250.09 -3.95095 1.55244 0
M  V30 13376 C 1248 -4.50266 3.83425 0
M  V30 13377 H 1246.93 -0.663355 0.358436 0
M  V30 13378 H 1249.58 -1.17003 1.4136 0
M  V30 13379 H 1247.96 -3.78501 1.16418 0
M  V30 13380 H 1249.14 -2.63373 3.78115 0
M  V30 13381 H 1247.45 -2.50805 3.32394 0
M  V30 13382 H 1250.05 -4.95681 2.00511 0
M  V30 13383 H 1250.39 -4.13236 0.504125 0
M  V30 13384 H 1250.92 -3.4132 2.04317 0
M  V30 13385 H 1247.66 -4.37329 4.88286 0
M  V30 13386 H 1247.18 -5.01251 3.29404 0
M  V30 13387 H 1248.86 -5.1919 3.86071 0
M  V30 13388 N 1248.99 -0.981699 -1.2329 0
M  V30 13389 C 1250.41 -0.688087 -1.73558 0
M  V30 13390 C 1250.76 0.795633 -1.79344 0
M  V30 13391 O 1249.88 1.62227 -1.43218 0
M  V30 13392 C 1250.48 -1.24235 -3.152 0
M  V30 13393 C 1249.04 -0.998356 -3.62918 0
M  V30 13394 C 1248.18 -1.3693 -2.41134 0
M  V30 13395 H 1251.13 -1.15539 -1.08795 0
M  V30 13396 H 1251.15 -0.61541 -3.7549 0
M  V30 13397 H 1250.67 -2.32223 -3.10957 0
M  V30 13398 H 1248.77 0.0653847 -3.72543 0
M  V30 13399 H 1248.88 -1.65385 -4.49649 0
M  V30 13400 H 1247.24 -0.787773 -2.42211 0
M  V30 13401 H 1248.03 -2.45898 -2.39561 0
M  V30 13402 N 1250.47 1.3842 -0.753509 0
M  V30 13403 C 1251.4 2.29039 -0.0859463 0
M  V30 13404 C 1252.42 1.47742 0.68383 0
M  V30 13405 O 1253.61 1.70607 0.524933 0
M  V30 13406 C 1250.71 3.26668 0.902296 0
M  V30 13407 C 1249.88 4.36986 0.190178 0
M  V30 13408 C 1248.94 5.14805 1.08916 0
M  V30 13409 O 1247.96 5.66441 0.559715 0
M  V30 13410 N 1249.17 5.27777 2.41726 0
M  V30 13411 H 1251.93 2.8697 -0.864196 0
M  V30 13412 H 1249.49 1.502 -0.604288 0
M  V30 13413 H 1251.48 3.75606 1.50672 0
M  V30 13414 H 1250.05 2.69636 1.58163 0
M  V30 13415 H 1249.27 3.89684 -0.594959 0
M  V30 13416 H 1250.56 5.07899 -0.302594 0
M  V30 13417 H 1249.96 4.87376 2.87196 0
M  V30 13418 H 1248.52 5.8009 2.97219 0
M  V30 13419 N 1251.95 0.502579 1.49372 0
M  V30 13420 C 1252.88 -0.311743 2.2707 0
M  V30 13421 C 1253.9 -0.929204 1.33677 0
M  V30 13422 O 1255.08 -0.812277 1.58948 0
M  V30 13423 C 1252.18 -1.45404 3.06122 0
M  V30 13424 C 1251.36 -0.943591 4.27101 0
M  V30 13425 C 1250.42 -1.96368 4.88186 0
M  V30 13426 O 1249.44 -1.5316 5.48207 0
M  V30 13427 N 1250.64 -3.29419 4.77978 0
M  V30 13428 H 1253.41 0.354503 2.97596 0
M  V30 13429 H 1250.97 0.335222 1.58392 0
M  V30 13430 H 1252.96 -2.13404 3.43862 0
M  V30 13431 H 1251.53 -2.02441 2.38194 0
M  V30 13432 H 1250.75 -0.0884372 3.94101 0
M  V30 13433 H 1252.04 -0.580983 5.05472 0
M  V30 13434 H 1251.44 -3.67211 4.30317 0
M  V30 13435 H 1250 -3.93129 5.19897 0
M  V30 13436 N 1253.43 -1.55816 0.23648 0
M  V30 13437 C 1254.65 -2.03534 -0.398575 0
M  V30 13438 C 1255.08 -1.11488 -1.51499 0
M  V30 13439 O 1254.44 -0.105848 -1.80991 0
M  V30 13440 C 1254.48 -3.49356 -0.893467 0
M  V30 13441 O 1253.59 -3.60446 -2.00381 0
M  V30 13442 H 1252.93 -0.658102 -0.0883021 0
M  V30 13443 H 1255.46 -2.01417 0.359488 0
M  V30 13444 H 1255.47 -3.89972 -1.19941 0
M  V30 13445 H 1254.14 -4.1583 -0.0764388 0
M  V30 13446 H 1252.72 -3.31723 -1.70336 0
M  V30 13447 N 1254.91 0.036755 -1.57557 0
M  V30 13448 C 1256.16 0.728107 -1.881 0
M  V30 13449 C 1256.47 1.7693 -0.833974 0
M  V30 13450 O 1257.67 2.5127 -1.02837 0
M  V30 13451 C 1256.13 1.34604 -3.33781 0
M  V30 13452 C 1255.74 0.341599 -4.46696 0
M  V30 13453 C 1257.48 2.01772 -3.73481 0
M  V30 13454 C 1255.39 0.967444 -5.83433 0
M  V30 13455 H 1254.32 0.275695 -0.701789 0
M  V30 13456 H 1256.97 -0.0177555 -1.83491 0
M  V30 13457 H 1255.35 2.14135 -3.3311 0
M  V30 13458 H 1256.53 -0.426441 -4.58823 0
M  V30 13459 H 1254.84 -0.227558 -4.15778 0
M  V30 13460 H 1257.44 2.49435 -4.72955 0
M  V30 13461 H 1257.78 2.83255 -3.05077 0
M  V30 13462 H 1258.31 1.29026 -3.76294 0
M  V30 13463 H 1255.05 0.19219 -6.55218 0
M  V30 13464 H 1254.57 1.70551 -5.75041 0
M  V30 13465 H 1256.25 1.47705 -6.29914 0
M  V30 13466 N 1256.39 1.54543 0.308881 0
M  V30 13467 C 1257.33 1.85693 1.40074 0
M  V30 13468 C 1258.33 0.730004 1.52864 0
M  V30 13469 O 1259.53 0.913884 1.55075 0
M  V30 13470 H 1255.91 0.588842 0.467728 0
M  V30 13471 H 1257.88 2.76973 1.11034 0
M  V30 13472 C 1256.63 2.11399 2.76054 0
M  V30 13473 H 1255.95 2.97583 2.66992 0
M  V30 13474 H 1257.39 2.37139 3.51484 0
M  V30 13475 C 1255.85 0.91007 3.24375 0
M  V30 13476 O 1256.38 0.12663 4.015 0
M  V30 13477 N 1254.59 0.717629 2.816 0
M  V30 13478 H 1254.13 1.35637 2.18998 0
M  V30 13479 H 1254.09 -0.0863585 3.14281 0
M  V30 13480 N 1257.86 -0.571685 1.46866 0
M  V30 13481 C 1258.77 -1.70758 1.60869 0
M  V30 13482 C 1259.79 -1.66903 0.49186 0
M  V30 13483 O 1260.97 -1.86613 0.757468 0
M  V30 13484 C 1258.03 -3.07267 1.60586 0
M  V30 13485 C 1257.09 -3.22301 2.83585 0
M  V30 13486 C 1256.32 -4.52298 2.83306 0
M  V30 13487 O 1256.55 -5.36869 1.92685 0
M  V30 13488 O 1255.48 -4.70814 3.7499 0
M  V30 13489 H 1259.31 -1.6189 2.56954 0
M  V30 13490 H 1256.89 -0.740018 1.29785 0
M  V30 13491 H 1258.77 -3.8853 1.63163 0
M  V30 13492 H 1257.45 -3.16549 0.676637 0
M  V30 13493 H 1256.36 -2.4049 2.86558 0
M  V30 13494 H 1257.69 -3.17916 3.75753 0
M  V30 13495 N 1259.34 -1.34755 -0.817236 0
M  V30 13496 C 1260.3 -1.26687 -1.91006 0
M  V30 13497 C 1261.3 -0.180745 -1.59781 0
M  V30 13498 O 1262.49 -0.433748 -1.68714 0
M  V30 13499 C 1259.63 -0.957293 -3.27183 0
M  V30 13500 H 1260.82 -2.23846 -1.99582 0
M  V30 13501 H 1258.37 -1.19125 -1.01187 0
M  V30 13502 H 1259.11 0.0108917 -3.24298 0
M  V30 13503 H 1258.89 -1.74297 -3.5123 0
M  V30 13504 H 1260.38 -0.926161 -4.072 0
M  V30 13505 N 1260.82 1.03812 -1.18578 0
M  V30 13506 C 1262.07 1.76455 -0.977071 0
M  V30 13507 C 1262.38 1.8926 0.493964 0
M  V30 13508 O 1263.59 2.58781 0.821256 0
M  V30 13509 C 1262.04 3.17264 -1.69917 0
M  V30 13510 C 1261.65 3.12543 -3.20969 0
M  V30 13511 C 1263.4 3.94266 -1.57337 0
M  V30 13512 C 1261.3 4.48226 -3.85807 0
M  V30 13513 H 1260.23 0.661445 -0.361949 0
M  V30 13514 H 1262.88 1.16252 -1.41978 0
M  V30 13515 H 1261.27 3.77878 -1.18424 0
M  V30 13516 H 1262.44 2.61364 -3.79507 0
M  V30 13517 H 1260.75 2.49039 -3.33719 0
M  V30 13518 H 1263.35 4.9461 -2.03137 0
M  V30 13519 H 1263.69 4.12963 -0.526033 0
M  V30 13520 H 1264.23 3.40232 -2.06124 0
M  V30 13521 H 1260.97 4.34734 -4.90599 0
M  V30 13522 H 1260.49 4.99497 -3.32058 0
M  V30 13523 H 1262.17 5.17135 -3.88819 0
M  V30 13524 N 1262.3 0.988223 1.22768 0
M  V30 13525 C 1263.71 0.69816 1.4352 0
M  V30 13526 C 1263.91 -0.732872 1.877 0
M  V30 13527 O 1262.97 -1.50436 2.02793 0
M  V30 13528 C 1264.28 1.69975 2.4805 0
M  V30 13529 C 1265.83 1.71467 2.61855 0
M  V30 13530 C 1266.31 2.70477 3.69603 0
M  V30 13531 N 1267.8 2.69043 3.77055 0
M  V30 13532 C 1268.53 3.42319 4.60006 0
M  V30 13533 N 1268.03 4.2518 5.46986 0
M  V30 13534 N 1269.82 3.31047 4.54274 0
M  V30 13535 H 1261.97 1.91251 0.923948 0
M  V30 13536 H 1264.23 0.82455 0.467783 0
M  V30 13537 H 1263.94 2.72354 2.22523 0
M  V30 13538 H 1263.81 1.48885 3.46573 0
M  V30 13539 H 1266.2 0.697889 2.86729 0
M  V30 13540 H 1266.28 1.96625 1.63622 0
M  V30 13541 H 1265.93 3.72302 3.45476 0
M  V30 13542 H 1265.86 2.42591 4.67394 0
M  V30 13543 H 1268.35 2.08914 3.14902 0
M  V30 13544 H 1268.66 4.77929 6.07292 0
M  V30 13545 H 1267.01 4.29268 5.46584 0
M  V30 13546 H 1270.2 2.65758 3.85345 0
M  V30 13547 H 1270.37 3.88413 5.1869 0
M  V30 13548 N 1263.78 -1.38018 0.760839 0
M  V30 13549 C 1265 -2.04231 0.331285 0
M  V30 13550 C 1265.42 -1.57385 -1.04285 0
M  V30 13551 O 1264.78 -0.750168 -1.66369 0
M  V30 13552 C 1264.83 -3.59772 0.353021 0
M  V30 13553 O 1264.55 -4.049 1.67294 0
M  V30 13554 C 1266.05 -4.4321 -0.0894942 0
M  V30 13555 H 1263.27 -0.656145 0.140408 0
M  V30 13556 H 1265.81 -1.76567 1.03172 0
M  V30 13557 H 1263.97 -3.86246 -0.298735 0
M  V30 13558 H 1264.38 -4.99369 1.60408 0
M  V30 13559 H 1265.86 -5.51995 -0.0231262 0
M  V30 13560 H 1266.33 -4.2419 -1.13839 0
M  V30 13561 H 1266.94 -4.21939 0.533661 0
M  V30 13562 N 1265.25 -0.510493 -1.49103 0
M  V30 13563 C 1266.48 0.0293113 -2.07379 0
M  V30 13564 C 1266.9 1.29195 -1.36713 0
M  V30 13565 O 1266.26 1.76204 -0.426838 0
M  V30 13566 C 1266.31 0.25629 -3.59688 0
M  V30 13567 O 1265.41 1.32907 -3.90397 0
M  V30 13568 H 1264.75 -0.0304449 -0.663302 0
M  V30 13569 H 1267.28 -0.712832 -1.91781 0
M  V30 13570 H 1267.29 0.484915 -4.05108 0
M  V30 13571 H 1265.97 -0.666163 -4.1053 0
M  V30 13572 H 1264.55 1.08464 -3.56777 0
M  V30 13573 N 1266.73 1.55688 -0.24474 0
M  V30 13574 C 1267.96 2.0329 0.384808 0
M  V30 13575 C 1268.37 1.12405 1.51692 0
M  V30 13576 O 1267.73 0.138056 1.81977 0
M  V30 13577 C 1267.78 3.50255 0.894635 0
M  V30 13578 O 1267.5 4.37677 -0.192365 0
M  V30 13579 C 1269 4.13608 1.59509 0
M  V30 13580 H 1266.22 0.664706 0.0916908 0
M  V30 13581 H 1268.77 2.01162 -0.367973 0
M  V30 13582 H 1266.92 3.52924 1.5976 0
M  V30 13583 H 1267.34 5.2414 0.194424 0
M  V30 13584 H 1268.81 5.1814 1.90356 0
M  V30 13585 H 1269.29 3.5997 2.51631 0
M  V30 13586 H 1269.89 4.14856 0.936749 0
M  V30 13587 N 1268.21 -0.0283989 1.57574 0
M  V30 13588 C 1269.14 -1.02828 2.09639 0
M  V30 13589 C 1270.12 -1.37668 0.999076 0
M  V30 13590 O 1271.31 -1.4654 1.27435 0
M  V30 13591 C 1268.44 -2.329 2.57633 0
M  V30 13592 C 1267.39 -2.12301 3.71635 0
M  V30 13593 C 1266.72 -3.48138 4.05837 0
M  V30 13594 C 1268.02 -1.50864 5.00037 0
M  V30 13595 H 1269.71 -0.594876 2.93431 0
M  V30 13596 H 1267.26 -0.284701 1.41158 0
M  V30 13597 H 1269.21 -3.03179 2.92678 0
M  V30 13598 H 1267.93 -2.78302 1.70926 0
M  V30 13599 H 1266.59 -1.44454 3.3694 0
M  V30 13600 H 1266.24 -3.9119 3.16195 0
M  V30 13601 H 1265.94 -3.3518 4.82626 0
M  V30 13602 H 1267.46 -4.19779 4.43417 0
M  V30 13603 H 1268.88 -2.11062 5.33035 0
M  V30 13604 H 1267.27 -1.48479 5.81441 0
M  V30 13605 H 1268.34 -0.474541 4.82572 0
M  V30 13606 N 1269.69 -1.54705 -0.300681 0
M  V30 13607 C 1271.1 -1.64998 -0.873654 0
M  V30 13608 C 1271.45 -0.558842 -1.88073 0
M  V30 13609 O 1270.57 0.304474 -2.14247 0
M  V30 13610 C 1271.17 -2.99099 -1.59138 0
M  V30 13611 C 1269.73 -3.11512 -2.11276 0
M  V30 13612 C 1268.88 -2.60681 -0.945551 0
M  V30 13613 H 1271.83 -1.5851 -0.0776752 0
M  V30 13614 H 1271.85 -2.9054 -2.45696 0
M  V30 13615 H 1271.36 -3.78493 -0.858172 0
M  V30 13616 H 1269.46 -2.36838 -2.87643 0
M  V30 13617 H 1269.57 -4.17672 -2.34707 0
M  V30 13618 H 1267.94 -2.17143 -1.33121 0
M  V30 13619 H 1268.72 -3.42553 -0.226291 0
M  V30 13620 N 1271.17 0.563888 -1.47167 0
M  V30 13621 C 1272.58 0.889156 -1.32537 0
M  V30 13622 C 1272.78 1.99088 -0.310854 0
M  V30 13623 O 1271.84 2.50943 0.27998 0
M  V30 13624 C 1273.15 1.28871 -2.71685 0
M  V30 13625 C 1274.7 1.40051 -2.79919 0
M  V30 13626 C 1275.17 1.83364 -4.19692 0
M  V30 13627 N 1276.67 1.90526 -4.22201 0
M  V30 13628 C 1277.4 2.25355 -5.2726 0
M  V30 13629 N 1276.9 2.58844 -6.42629 0
M  V30 13630 N 1278.69 2.26071 -5.14634 0
M  V30 13631 H 1270.84 -0.163581 -2.11769 0
M  V30 13632 H 1273.1 -0.0105151 -0.947942 0
M  V30 13633 H 1272.81 0.553057 -3.47324 0
M  V30 13634 H 1272.68 2.24629 -3.03021 0
M  V30 13635 H 1275.07 2.12698 -2.04557 0
M  V30 13636 H 1275.15 0.424971 -2.52245 0
M  V30 13637 H 1274.8 1.11289 -4.95557 0
M  V30 13638 H 1274.73 2.81909 -4.44786 0
M  V30 13639 H 1277.22 1.67059 -3.38968 0
M  V30 13640 H 1277.53 2.84427 -7.18555 0
M  V30 13641 H 1275.87 2.56439 -6.4596 0
M  V30 13642 H 1279.07 1.99343 -4.23533 0
M  V30 13643 H 1279.24 2.52885 -5.96618 0
M  V30 13644 N 1272.64 1.35187 0.810078 0
M  V30 13645 C 1273.59 1.27848 1.94313 0
M  V30 13646 C 1274.59 0.174081 1.68503 0
M  V30 13647 O 1275.79 0.339848 1.76763 0
M  V30 13648 H 1272.17 0.397504 0.638353 0
M  V30 13649 H 1274.14 2.23579 1.97623 0
M  V30 13650 C 1272.89 1.06382 3.31026 0
M  V30 13651 H 1272.21 1.90601 3.51441 0
M  V30 13652 H 1273.65 1.05287 4.1072 0
M  V30 13653 C 1272.11 -0.232462 3.36097 0
M  V30 13654 O 1272.64 -1.22946 3.82423 0
M  V30 13655 N 1270.85 -0.270028 2.89343 0
M  V30 13656 H 1270.39 0.541891 2.51836 0
M  V30 13657 H 1270.35 -1.13708 2.93117 0
M  V30 13658 N 1274.12 -1.03182 1.19127 0
M  V30 13659 C 1275.35 -1.80703 1.01791 0
M  V30 13660 C 1275.77 -1.83147 -0.428824 0
M  V30 13661 O 1275.13 -1.2553 -1.30812 0
M  V30 13662 C 1275.18 -3.23754 1.58794 0
M  V30 13663 O 1274.28 -4.04261 0.815274 0
M  V30 13664 H 1273.62 -0.557944 0.359992 0
M  V30 13665 H 1276.15 -1.29887 1.58084 0
M  V30 13666 H 1276.16 -3.7451 1.61884 0
M  V30 13667 H 1274.84 -3.2129 2.64094 0
M  V30 13668 H 1273.42 -3.62909 0.857392 0
M  V30 13669 N 1275.6 -0.99472 -1.22242 0
M  V30 13670 C 1276.85 -0.670275 -1.90661 0
M  V30 13671 C 1277.17 0.800369 -1.77818 0
M  V30 13672 O 1276.44 1.57381 -1.16653 0
M  V30 13673 H 1275.02 -0.244925 -0.705706 0
M  V30 13674 H 1277.68 -1.26162 -1.48557 0
M  V30 13675 H 1276.78 -0.934408 -2.97784 0
M  V30 13676 N 1277.08 1.37613 -0.768148 0
M  V30 13677 C 1278.04 2.28653 -0.158283 0
M  V30 13678 C 1279.04 1.47862 0.631936 0
M  V30 13679 O 1280.23 1.68124 0.456055 0
M  V30 13680 C 1277.36 3.31776 0.783435 0
M  V30 13681 H 1278.56 2.84094 -0.960772 0
M  V30 13682 H 1276.11 1.46818 -0.536116 0
M  V30 13683 H 1276.84 2.81452 1.61106 0
M  V30 13684 H 1276.63 3.91488 0.219016 0
M  V30 13685 H 1278.12 3.99816 1.20568 0
M  V30 13686 N 1278.56 0.518393 1.4883 0
M  V30 13687 C 1279.8 -0.019866 2.0209 0
M  V30 13688 C 1280.13 -1.35863 1.3988 0
M  V30 13689 O 1279.4 -1.87722 0.560117 0
M  V30 13690 H 1277.98 -0.0103306 0.746929 0
M  V30 13691 H 1280.64 0.679591 1.82668 0
M  V30 13692 H 1279.73 -0.136749 3.118 0
M  V30 13693 N 1280.03 -1.55556 0.252993 0
M  V30 13694 C 1281 -2.20351 -0.630705 0
M  V30 13695 C 1282 -1.17461 -1.09816 0
M  V30 13696 O 1283.19 -1.42505 -1.00189 0
M  V30 13697 C 1280.32 -2.85192 -1.86757 0
M  V30 13698 H 1281.51 -2.99829 -0.0652939 0
M  V30 13699 H 1279.07 -1.563 0.00347982 0
M  V30 13700 H 1279.8 -2.09669 -2.47406 0
M  V30 13701 H 1279.59 -3.60569 -1.54053 0
M  V30 13702 H 1281.08 -3.34762 -2.49648 0
M  V30 13703 N 1281.51 0.0200419 -1.57587 0
M  V30 13704 C 1282.74 0.724241 -1.94344 0
M  V30 13705 C 1283.16 1.67612 -0.853688 0
M  V30 13706 O 1282.52 1.80303 0.189873 0
M  V30 13707 C 1282.57 1.44967 -3.30177 0
M  V30 13708 O 1281.67 2.56326 -3.23064 0
M  V30 13709 H 1281.01 0.194142 -0.634984 0
M  V30 13710 H 1283.54 -0.0271756 -2.04582 0
M  V30 13711 H 1283.55 1.81758 -3.65278 0
M  V30 13712 H 1282.23 0.75161 -4.09052 0
M  V30 13713 H 1280.81 2.22011 -2.99609 0
M  V30 13714 N 1282.99 1.54862 0.292472 0
M  V30 13715 C 1284.22 1.78877 1.04966 0
M  V30 13716 C 1284.64 0.550724 1.79857 0
M  V30 13717 O 1284 -0.499054 1.74296 0
M  V30 13718 C 1284.05 3.00106 1.99922 0
M  V30 13719 O 1283.15 2.73827 3.0837 0
M  V30 13720 H 1282.49 0.591802 0.301108 0
M  V30 13721 H 1285.02 2.01965 0.3273 0
M  V30 13722 H 1285.03 3.28309 2.42233 0
M  V30 13723 H 1283.71 3.89872 1.44821 0
M  V30 13724 H 1282.28 2.56665 2.70513 0
M  V30 13725 N 1284.47 -0.556076 1.47464 0
M  V30 13726 C 1285.72 -1.31061 1.53842 0
M  V30 13727 C 1286.04 -1.93943 0.202806 0
M  V30 13728 O 1285.31 -1.7999 -0.773338 0
M  V30 13729 H 1283.89 -0.486696 0.566689 0
M  V30 13730 H 1286.55 -0.64924 1.83769 0
M  V30 13731 H 1285.65 -2.10354 2.30559 0
M  V30 13732 N 1285.95 -1.35615 -0.802897 0
M  V30 13733 C 1287.2 -1.28839 -1.55708 0
M  V30 13734 C 1287.52 0.135906 -1.94526 0
M  V30 13735 O 1286.79 1.07317 -1.6389 0
M  V30 13736 H 1285.37 -0.473906 -0.577427 0
M  V30 13737 H 1288.03 -1.69759 -0.957487 0
M  V30 13738 H 1287.12 -1.90675 -2.47082 0
M  V30 13739 N 1287.43 1.02549 -1.19673 0
M  V30 13740 C 1288.65 1.8016 -1.02748 0
M  V30 13741 C 1289.08 1.83372 0.419105 0
M  V30 13742 O 1288.43 1.26222 1.30144 0
M  V30 13743 C 1288.48 3.22907 -1.60509 0
M  V30 13744 O 1287.59 4.03823 -0.836702 0
M  V30 13745 H 1286.93 0.556027 -0.362946 0
M  V30 13746 H 1289.46 1.29047 -1.5877 0
M  V30 13747 H 1289.47 3.73646 -1.63868 0
M  V30 13748 H 1288.14 3.19885 -2.65794 0
M  V30 13749 H 1286.72 3.6245 -0.876626 0
M  V30 13750 N 1288.9 1.00119 1.21713 0
M  V30 13751 C 1290.15 0.680377 1.90303 0
M  V30 13752 C 1290.47 -0.790927 1.7824 0
M  V30 13753 O 1289.74 -1.5676 1.17486 0
M  V30 13754 H 1288.32 0.248665 0.704397 0
M  V30 13755 H 1290.98 1.26948 1.47886 0
M  V30 13756 H 1290.08 0.950188 2.97284 0
M  V30 13757 N 1290.38 -1.37203 0.775435 0
M  V30 13758 C 1291.29 -2.34019 0.165062 0
M  V30 13759 C 1292.31 -1.6036 -0.675316 0
M  V30 13760 O 1293.48 -1.9243 -0.594375 0
M  V30 13761 C 1290.55 -3.3954 -0.700957 0
M  V30 13762 C 1289.61 -4.29015 0.156304 0
M  V30 13763 C 1288.84 -5.29497 -0.668476 0
M  V30 13764 O 1289.07 -5.37636 -1.90535 0
M  V30 13765 O 1288 -6.01852 -0.0757351 0
M  V30 13766 H 1291.83 -2.87955 0.965184 0
M  V30 13767 H 1289.41 -1.39429 0.536654 0
M  V30 13768 H 1291.29 -4.04094 -1.19524 0
M  V30 13769 H 1289.97 -2.87926 -1.4792 0
M  V30 13770 H 1288.87 -3.67549 0.69703 0
M  V30 13771 H 1290.21 -4.83944 0.897725 0
M  V30 13772 N 1291.86 -0.526279 -1.48553 0
M  V30 13773 C 1292.81 0.251938 -2.31232 0
M  V30 13774 C 1293.8 0.938991 -1.40994 0
M  V30 13775 O 1295.01 0.863798 -1.57919 0
M  V30 13776 H 1291.38 0.100114 -0.745306 0
M  V30 13777 H 1293.35 -0.465013 -2.94754 0
M  V30 13778 C 1292.1 1.28816 -3.22958 0
M  V30 13779 H 1291.43 0.768899 -3.92337 0
M  V30 13780 H 1292.87 1.80417 -3.837 0
M  V30 13781 C 1291.32 2.31982 -2.44307 0
M  V30 13782 O 1291.85 3.3835 -2.16523 0
M  V30 13783 N 1290.06 2.051 -2.05869 0
M  V30 13784 H 1289.61 1.18618 -2.28665 0
M  V30 13785 H 1289.57 2.74349 -1.53557 0
M  V30 13786 N 1293.34 1.5542 -0.261239 0
M  V30 13787 C 1294.59 1.9889 0.358777 0
M  V30 13788 C 1294.91 1.15092 1.57413 0
M  V30 13789 O 1294.18 0.237095 1.9446 0
M  V30 13790 H 1292.76 0.734599 0.13555 0
M  V30 13791 H 1295.42 1.91483 -0.363357 0
M  V30 13792 H 1294.51 3.05082 0.658142 0
M  V30 13793 N 1294.82 -0.0116844 1.57596 0
M  V30 13794 C 1296.23 -0.367602 1.55309 0
M  V30 13795 C 1296.43 -1.75524 0.98962 0
M  V30 13796 O 1295.49 -2.44813 0.618289 0
M  V30 13797 C 1296.8 -0.253532 2.99629 0
M  V30 13798 C 1298.35 -0.329335 3.11263 0
M  V30 13799 C 1298.82 -0.24452 4.57347 0
M  V30 13800 N 1300.31 -0.302782 4.62209 0
M  V30 13801 C 1301.05 -0.260315 5.72809 0
M  V30 13802 N 1300.55 -0.169124 6.92594 0
M  V30 13803 N 1302.34 -0.311323 5.61237 0
M  V30 13804 H 1294.49 0.896204 1.92567 0
M  V30 13805 H 1296.75 0.342445 0.883988 0
M  V30 13806 H 1296.46 0.70074 3.44648 0
M  V30 13807 H 1296.33 -1.04029 3.62571 0
M  V30 13808 H 1298.72 -1.27405 2.66181 0
M  V30 13809 H 1298.8 0.487084 2.5112 0
M  V30 13810 H 1298.44 0.696597 5.031 0
M  V30 13811 H 1298.37 -1.07927 5.15421 0
M  V30 13812 H 1300.87 -0.375067 3.76034 0
M  V30 13813 H 1301.18 -0.142296 7.72669 0
M  V30 13814 H 1299.52 -0.134919 6.94869 0
M  V30 13815 H 1302.71 -0.380678 4.6655 0
M  V30 13816 H 1302.89 -0.274761 6.47417 0
M  V30 13817 N 1296.29 -1.55015 -0.284256 0
M  V30 13818 C 1297.54 -1.7535 -1.01884 0
M  V30 13819 C 1297.87 -0.546825 -1.86342 0
M  V30 13820 O 1297.15 0.455832 -1.89083 0
M  V30 13821 C 1297.43 -3.05219 -1.91084 0
M  V30 13822 C 1297.28 -4.36219 -1.09694 0
M  V30 13823 C 1298.6 -3.31056 -2.89983 0
M  V30 13824 H 1295.72 -0.637981 -0.368984 0
M  V30 13825 H 1298.36 -1.87741 -0.292116 0
M  V30 13826 H 1296.51 -2.94786 -2.53048 0
M  V30 13827 H 1298.19 -4.58594 -0.498876 0
M  V30 13828 H 1296.43 -4.31951 -0.400078 0
M  V30 13829 H 1297.1 -5.23392 -1.75399 0
M  V30 13830 H 1299.58 -3.41209 -2.38151 0
M  V30 13831 H 1298.45 -4.23212 -3.49547 0
M  V30 13832 H 1298.71 -2.50153 -3.64521 0
M  V30 13833 N 1297.77 0.548248 -1.47757 0
M  V30 13834 C 1299.02 1.30694 -1.55071 0
M  V30 13835 C 1299.35 1.92994 -0.216075 0
M  V30 13836 O 1298.63 1.78341 0.776196 0
M  V30 13837 C 1298.91 2.41024 -2.67543 0
M  V30 13838 C 1298.76 1.83534 -4.10652 0
M  V30 13839 C 1300.08 3.42902 -2.75874 0
M  V30 13840 H 1297.2 0.47383 -0.564494 0
M  V30 13841 H 1299.84 0.612628 -1.79852 0
M  V30 13842 H 1297.99 3.00248 -2.46543 0
M  V30 13843 H 1299.66 1.28503 -4.4304 0
M  V30 13844 H 1297.91 1.14161 -4.18509 0
M  V30 13845 H 1298.58 2.63335 -4.85138 0
M  V30 13846 H 1301.05 2.9361 -2.94843 0
M  V30 13847 H 1299.93 4.17516 -3.5633 0
M  V30 13848 H 1300.19 4.02314 -1.83291 0
M  V30 13849 N 1299.25 1.36039 0.795694 0
M  V30 13850 C 1300.47 1.33222 1.58955 0
M  V30 13851 C 1300.9 -0.0854596 1.87906 0
M  V30 13852 O 1300.26 -1.05555 1.47403 0
M  V30 13853 C 1300.31 2.15508 2.89117 0
M  V30 13854 O 1299.41 1.54327 3.82436 0
M  V30 13855 H 1298.75 0.456264 0.48241 0
M  V30 13856 H 1301.28 1.79234 0.986726 0
M  V30 13857 H 1301.29 2.2786 3.38444 0
M  V30 13858 H 1299.97 3.18568 2.67371 0
M  V30 13859 H 1298.54 1.50879 3.41013 0
M  V30 13860 N 1300.73 -1.01913 1.20215 0
M  V30 13861 C 1301.68 -2.08774 0.916367 0
M  V30 13862 C 1302.66 -1.60431 -0.122796 0
M  V30 13863 O 1303.85 -1.76799 0.0842336 0
M  V30 13864 C 1300.98 -3.40102 0.467517 0
M  V30 13865 C 1300.07 -3.95153 1.53997 0
M  V30 13866 N 1300.46 -4.23745 2.76178 0
M  V30 13867 C 1298.76 -4.23274 1.40554 0
M  V30 13868 C 1299.46 -4.681 3.45336 0
M  V30 13869 N 1298.44 -4.70224 2.72745 0
M  V30 13870 H 1302.24 -2.28786 1.84484 0
M  V30 13871 H 1299.75 -1.19861 1.09577 0
M  V30 13872 H 1301.75 -4.16184 0.244195 0
M  V30 13873 H 1300.41 -3.21505 -0.454358 0
M  V30 13874 H 1301.42 -4.12728 3.12852 0
M  V30 13875 H 1298.1 -4.1389 0.547877 0
M  V30 13876 H 1299.49 -4.99063 4.49873 0
M  V30 13877 N 1302.21 -1.00763 -1.2118 0
M  V30 13878 C 1303.48 -0.607236 -1.85935 0
M  V30 13879 C 1303.86 0.915048 -1.90237 0
M  V30 13880 O 1303.21 1.80308 -1.40361 0
M  V30 13881 C 1303.42 -1.24466 -3.26051 0
M  V30 13882 C 1304.77 -1.35443 -4.02418 0
M  V30 13883 O 1305.79 -1.20018 -3.35372 0
M  V30 13884 O 1304.65 -1.60282 -5.22467 0
M  V30 13885 H 1301.75 -0.208338 -0.800328 0
M  V30 13886 H 1304.29 -1.10444 -1.28842 0
M  V30 13887 H 1303.06 -2.28524 -3.17635 0
M  V30 13888 H 1302.69 -0.733966 -3.90767 0
M  V30 13889 N 1303.68 1.3679 -0.7827 0
M  V30 13890 C 1304.93 1.99417 -0.352011 0
M  V30 13891 C 1305.26 1.62127 1.07448 0
M  V30 13892 O 1304.51 0.864449 1.75573 0
M  V30 13893 C 1304.81 3.54489 -0.455232 0
M  V30 13894 C 1304.48 4.11579 -1.84156 0
M  V30 13895 C 1303.14 4.26884 -2.22089 0
M  V30 13896 C 1305.49 4.4277 -2.74962 0
M  V30 13897 C 1302.82 4.70688 -3.50243 0
M  V30 13898 C 1305.17 4.88003 -4.02537 0
M  V30 13899 C 1303.84 5.01513 -4.40501 0
M  V30 13900 H 1303.11 0.729718 -0.12881 0
M  V30 13901 H 1305.75 1.63386 -0.998856 0
M  V30 13902 H 1304.06 3.90833 0.275129 0
M  V30 13903 H 1305.76 4.00867 -0.103127 0
M  V30 13904 H 1302.35 4.00102 -1.53677 0
M  V30 13905 H 1306.53 4.30521 -2.46912 0
M  V30 13906 H 1301.79 4.79335 -3.79537 0
M  V30 13907 H 1305.96 5.11102 -4.73019 0
M  V30 13908 H 1303.59 5.35214 -5.39861 0
M  V30 13909 N 1305.16 0.53415 1.48272 0
M  V30 13910 C 1306.57 0.0947592 1.86459 0
M  V30 13911 C 1306.92 -1.32906 1.44328 0
M  V30 13912 O 1306.05 -1.99605 0.835866 0
M  V30 13913 C 1306.64 0.16519 3.38397 0
M  V30 13914 C 1305.2 -0.219029 3.75762 0
M  V30 13915 C 1304.35 0.523097 2.72321 0
M  V30 13916 H 1307.3 0.74517 1.40117 0
M  V30 13917 H 1307.32 -0.622065 3.75381 0
M  V30 13918 H 1306.83 1.20157 3.69031 0
M  V30 13919 H 1304.94 -1.2574 3.50742 0
M  V30 13920 H 1305.05 0.123482 4.78941 0
M  V30 13921 H 1303.41 -0.0311323 2.54681 0
M  V30 13922 H 1304.2 1.56019 3.05799 0
M  V30 13923 N 1306.64 -1.55279 0.269478 0
M  V30 13924 C 1307.59 -2.22304 -0.620435 0
M  V30 13925 C 1308.56 -1.19457 -1.15409 0
M  V30 13926 O 1309.74 -1.4798 -1.20443 0
M  V30 13927 C 1306.88 -2.94356 -1.80134 0
M  V30 13928 C 1306 -4.1191 -1.30207 0
M  V30 13929 C 1305.13 -4.71621 -2.44433 0
M  V30 13930 C 1304.17 -5.81379 -1.91481 0
M  V30 13931 N 1303.31 -6.35176 -2.99158 0
M  V30 13932 H 1308.15 -2.9797 -0.0422165 0
M  V30 13933 H 1305.68 -1.47097 -0.00907173 0
M  V30 13934 H 1307.64 -3.34343 -2.4954 0
M  V30 13935 H 1306.27 -2.21124 -2.35168 0
M  V30 13936 H 1305.32 -3.77082 -0.501301 0
M  V30 13937 H 1306.64 -4.9108 -0.874183 0
M  V30 13938 H 1305.79 -5.14298 -3.21842 0
M  V30 13939 H 1304.53 -3.91715 -2.90535 0
M  V30 13940 H 1303.53 -5.38157 -1.12549 0
M  V30 13941 H 1304.76 -6.63149 -1.46322 0
M  V30 13942 H 1302.7 -5.58167 -3.44652 0
M  V30 13943 H 1302.62 -7.09602 -2.60769 0
M  V30 13944 H 1303.89 -6.82512 -3.7656 0
M  V30 13945 N 1308.12 0.00332656 -1.576 0
M  V30 13946 C 1309.34 0.703587 -1.95101 0
M  V30 13947 C 1309.77 1.66697 -0.871418 0
M  V30 13948 O 1309.13 1.80494 0.170739 0
M  V30 13949 C 1309.17 1.41457 -3.31696 0
M  V30 13950 O 1308.28 2.52885 -3.25765 0
M  V30 13951 H 1307.62 0.187396 -0.637008 0
M  V30 13952 H 1310.15 -0.0488727 -2.04542 0
M  V30 13953 H 1310.16 1.77874 -3.67185 0
M  V30 13954 H 1308.83 0.708182 -4.09826 0
M  V30 13955 H 1307.41 2.18821 -3.01947 0
M  V30 13956 N 1309.6 1.55164 0.276031 0
M  V30 13957 C 1310.53 1.82758 1.36656 0
M  V30 13958 C 1311.51 0.680405 1.4768 0
M  V30 13959 O 1312.69 0.923078 1.64352 0
M  V30 13960 C 1309.82 1.98651 2.74328 0
M  V30 13961 C 1308.86 3.21192 2.80603 0
M  V30 13962 S 1309.7 4.78628 2.40156 0
M  V30 13963 C 1310.85 4.9749 3.79809 0
M  V30 13964 H 1311.09 2.74969 1.13045 0
M  V30 13965 H 1308.62 1.46896 0.4755 0
M  V30 13966 H 1310.58 2.08492 3.53612 0
M  V30 13967 H 1309.24 1.07333 2.95192 0
M  V30 13968 H 1308.43 3.29189 3.81642 0
M  V30 13969 H 1308.03 3.09926 2.09337 0
M  V30 13970 H 1310.33 4.83045 4.75051 0
M  V30 13971 H 1311.27 5.99544 3.76765 0
M  V30 13972 H 1311.68 4.25489 3.70971 0
M  V30 13973 N 1311.07 -0.540404 1.48045 0
M  V30 13974 C 1312.01 -1.66164 1.57867 0
M  V30 13975 C 1313.02 -1.56058 0.463655 0
M  V30 13976 O 1314.21 -1.62709 0.734038 0
M  V30 13977 C 1311.31 -3.04748 1.48263 0
M  V30 13978 C 1310.48 -3.40441 2.74625 0
M  V30 13979 C 1309.54 -4.58259 2.58621 0
M  V30 13980 O 1308.57 -4.62 3.32482 0
M  V30 13981 N 1309.77 -5.55794 1.67551 0
M  V30 13982 H 1312.53 -1.58179 2.54557 0
M  V30 13983 H 1310.09 -0.727441 1.44637 0
M  V30 13984 H 1312.09 -3.81425 1.35267 0
M  V30 13985 H 1310.66 -3.06868 0.595892 0
M  V30 13986 H 1309.88 -2.53044 3.02262 0
M  V30 13987 H 1311.16 -3.61069 3.58478 0
M  V30 13988 H 1310.56 -5.55541 1.06725 0
M  V30 13989 H 1309.12 -6.3173 1.60499 0
M  V30 13990 N 1312.55 -1.36459 -0.788468 0
M  V30 13991 C 1313.78 -1.34063 -1.58246 0
M  V30 13992 C 1314.2 0.0754933 -1.87948 0
M  V30 13993 O 1313.56 1.04772 -1.47961 0
M  V30 13994 C 1313.61 -2.17038 -2.8797 0
M  V30 13995 O 1312.71 -1.56353 -3.81612 0
M  V30 13996 H 1312.05 -0.458816 -0.479983 0
M  V30 13997 H 1314.58 -1.79755 -0.977207 0
M  V30 13998 H 1314.59 -2.29651 -3.3723 0
M  V30 13999 H 1313.27 -3.19981 -2.65678 0
M  V30 14000 H 1311.85 -1.52685 -3.40208 0
M  V30 14001 N 1314.03 1.01274 -1.20754 0
M  V30 14002 C 1315.28 1.74342 -1.01428 0
M  V30 14003 C 1315.59 1.90265 0.453708 0
M  V30 14004 O 1316.8 2.60465 0.76618 0
M  V30 14005 C 1315.25 3.13588 -1.76609 0
M  V30 14006 C 1314.86 3.05664 -3.27526 0
M  V30 14007 C 1316.61 3.9084 -1.65664 0
M  V30 14008 C 1314.51 4.39942 -3.95228 0
M  V30 14009 H 1313.44 0.653619 -0.375897 0
M  V30 14010 H 1316.09 1.13214 -1.44412 0
M  V30 14011 H 1314.48 3.75281 -1.26413 0
M  V30 14012 H 1315.65 2.53256 -3.84965 0
M  V30 14013 H 1313.97 2.41904 -3.38927 0
M  V30 14014 H 1316.56 4.9019 -2.13583 0
M  V30 14015 H 1316.91 4.11754 -0.61351 0
M  V30 14016 H 1317.44 3.35783 -2.13294 0
M  V30 14017 H 1314.18 4.24229 -4.9971 0
M  V30 14018 H 1313.7 4.92342 -3.42578 0
M  V30 14019 H 1315.38 5.08771 -3.99701 0
M  V30 14020 N 1315.51 1.01404 1.20644 0
M  V30 14021 C 1316.92 0.73386 1.71672 0
M  V30 14022 C 1317.27 -0.747803 1.8139 0
M  V30 14023 O 1316.4 -1.58372 1.47469 0
M  V30 14024 C 1316.99 1.32549 3.11795 0
M  V30 14025 C 1315.55 1.09423 3.60144 0
M  V30 14026 C 1314.7 1.43275 2.37419 0
M  V30 14027 H 1317.65 1.18383 1.05694 0
M  V30 14028 H 1317.67 0.714749 3.73727 0
M  V30 14029 H 1317.18 2.40386 3.0469 0
M  V30 14030 H 1315.28 0.0334113 3.72585 0
M  V30 14031 H 1315.4 1.77248 4.45107 0
M  V30 14032 H 1313.76 0.851714 2.40037 0
M  V30 14033 H 1314.54 2.52163 2.32957 0
M  V30 14034 N 1316.99 -1.36373 0.789944 0
M  V30 14035 C 1318.23 -2.0106 0.367995 0
M  V30 14036 C 1318.59 -1.61336 -1.0409 0
M  V30 14037 O 1319.79 -2.18618 -1.56396 0
M  V30 14038 C 1318.06 -3.53492 0.527106 0
M  V30 14039 S 1319.62 -4.38375 0.193113 0
M  V30 14040 H 1316.44 -0.696965 0.140573 0
M  V30 14041 H 1319.04 -1.66256 1.02855 0
M  V30 14042 H 1317.75 -3.7989 1.55279 0
M  V30 14043 H 1317.28 -3.93116 -0.149364 0
M  V30 14044 H 1319.29 -4.85913 -1.00513 0
M  V30 14045 N 1318.47 -0.542005 -1.47987 0
M  V30 14046 C 1319.4 0.261671 -2.26695 0
M  V30 14047 C 1320.38 0.93404 -1.33096 0
M  V30 14048 O 1321.56 0.956051 -1.62456 0
M  V30 14049 C 1318.69 1.37155 -3.09687 0
M  V30 14050 C 1317.73 0.809337 -4.18751 0
M  V30 14051 S 1318.57 -0.332224 -5.34468 0
M  V30 14052 C 1319.72 0.779843 -6.21023 0
M  V30 14053 H 1319.96 -0.406263 -2.94511 0
M  V30 14054 H 1317.49 -0.32802 -1.50875 0
M  V30 14055 H 1319.45 2.00726 -3.58077 0
M  V30 14056 H 1318.11 2.01126 -2.41262 0
M  V30 14057 H 1317.3 1.64233 -4.76491 0
M  V30 14058 H 1316.9 0.250095 -3.73163 0
M  V30 14059 H 1319.19 1.67564 -6.56452 0
M  V30 14060 H 1320.14 0.240142 -7.07693 0
M  V30 14061 H 1320.55 1.06567 -5.5435 0
M  V30 14062 N 1319.94 1.55134 -0.277709 0
M  V30 14063 C 1321.17 2.04519 0.344472 0
M  V30 14064 C 1321.59 1.15466 1.4849 0
M  V30 14065 O 1320.95 0.153798 1.80646 0
M  V30 14066 C 1321 3.51602 0.800527 0
M  V30 14067 O 1320.1 3.65632 1.90754 0
M  V30 14068 H 1319.44 0.660212 0.0708226 0
M  V30 14069 H 1321.97 2.00393 -0.412764 0
M  V30 14070 H 1321.98 3.93015 1.09559 0
M  V30 14071 H 1320.66 4.15886 -0.033838 0
M  V30 14072 H 1319.24 3.36122 1.61481 0
M  V30 14073 N 1321.42 0.00503138 1.57599 0
M  V30 14074 C 1322.37 -0.993379 2.05222 0
M  V30 14075 C 1323.36 -1.30013 0.947919 0
M  V30 14076 O 1324.55 -1.29027 1.21166 0
M  V30 14077 C 1321.68 -2.28375 2.5632 0
M  V30 14078 C 1320.76 -2.00642 3.73636 0
M  V30 14079 N 1321.15 -1.43087 4.85139 0
M  V30 14080 C 1319.45 -2.30759 3.81662 0
M  V30 14081 C 1320.15 -1.31939 5.66539 0
M  V30 14082 N 1319.13 -1.80672 5.12697 0
M  V30 14083 H 1322.93 -0.542951 2.88841 0
M  V30 14084 H 1320.44 -0.20055 1.61157 0
M  V30 14085 H 1322.44 -3.00748 2.88715 0
M  V30 14086 H 1321.1 -2.74066 1.74121 0
M  V30 14087 H 1322.11 -1.10901 5.05887 0
M  V30 14088 H 1318.79 -2.7929 3.10327 0
M  V30 14089 H 1320.18 -0.876391 6.6616 0
M  V30 14090 N 1322.9 -1.55308 -0.267798 0
M  V30 14091 C 1324.12 -1.80524 -1.02107 0
M  V30 14092 C 1324.55 -0.579268 -1.78958 0
M  V30 14093 O 1323.91 0.471262 -1.75068 0
M  V30 14094 C 1323.96 -3.03248 -1.95123 0
M  V30 14095 O 1323.06 -2.78699 -3.03975 0
M  V30 14096 H 1322.4 -0.596518 -0.291655 0
M  V30 14097 H 1324.93 -2.0246 -0.295128 0
M  V30 14098 H 1324.94 -3.32121 -2.3698 0
M  V30 14099 H 1323.62 -3.92126 -1.386 0
M  V30 14100 H 1322.19 -2.60936 -2.66396 0
M  V30 14101 N 1324.38 0.532545 -1.4833 0
M  V30 14102 C 1325.6 1.31809 -1.60129 0
M  V30 14103 C 1326.03 1.86283 -0.260807 0
M  V30 14104 O 1325.39 1.6427 0.767137 0
M  V30 14105 C 1325.43 2.44661 -2.64903 0
M  V30 14106 O 1324.54 3.47622 -2.21885 0
M  V30 14107 H 1323.88 0.390492 -0.53704 0
M  V30 14108 H 1326.41 0.641068 -1.94297 0
M  V30 14109 H 1326.42 2.90883 -2.86096 0
M  V30 14110 H 1325.09 2.04373 -3.62222 0
M  V30 14111 H 1323.67 3.07536 -2.10894 0
M  V30 14112 N 1325.86 1.36875 0.78122 0
M  V30 14113 C 1327.1 1.31299 1.53639 0
M  V30 14114 C 1327.42 -0.104942 1.94717 0
M  V30 14115 O 1326.69 -1.04696 1.65576 0
M  V30 14116 H 1325.27 0.483032 0.569815 0
M  V30 14117 H 1327.94 1.71261 0.930359 0
M  V30 14118 H 1327.03 1.94581 2.44018 0
M  V30 14119 N 1327.33 -1.00632 1.21289 0
M  V30 14120 C 1328.27 -2.09085 0.914258 0
M  V30 14121 C 1329.24 -1.62016 -0.137697 0
M  V30 14122 O 1330.43 -1.88498 -0.00902131 0
M  V30 14123 C 1327.56 -3.36645 0.37254 0
M  V30 14124 C 1326.6 -4.0262 1.40709 0
M  V30 14125 S 1327.43 -4.45203 2.97582 0
M  V30 14126 C 1328.59 -5.75951 2.45013 0
M  V30 14127 H 1328.82 -2.34094 1.83268 0
M  V30 14128 H 1326.36 -1.13893 1.04248 0
M  V30 14129 H 1328.31 -4.10446 0.0665561 0
M  V30 14130 H 1326.98 -3.09689 -0.524546 0
M  V30 14131 H 1326.17 -4.94427 0.977642 0
M  V30 14132 H 1325.77 -3.35088 1.66108 0
M  V30 14133 H 1328.06 -6.51634 1.85416 0
M  V30 14134 H 1329.01 -6.23706 3.35257 0
M  V30 14135 H 1329.41 -5.32707 1.8677 0
M  V30 14136 N 1328.81 -1.02043 -1.20104 0
M  V30 14137 C 1330.22 -0.742954 -1.71281 0
M  V30 14138 C 1330.57 0.738173 -1.81784 0
M  V30 14139 O 1329.7 1.57588 -1.48307 0
M  V30 14140 C 1330.29 -1.342 -3.11088 0
M  V30 14141 C 1328.85 -1.11331 -3.59559 0
M  V30 14142 C 1328 -1.44532 -2.36655 0
M  V30 14143 H 1330.95 -1.18942 -1.05064 0
M  V30 14144 H 1330.97 -0.734558 -3.73342 0
M  V30 14145 H 1330.48 -2.41998 -3.03411 0
M  V30 14146 H 1328.58 -0.05317 -3.72562 0
M  V30 14147 H 1328.7 -1.79606 -4.4416 0
M  V30 14148 H 1327.06 -0.864431 -2.39582 0
M  V30 14149 H 1327.84 -2.53394 -2.31616 0
M  V30 14150 N 1330.29 1.35952 -0.797165 0
M  V30 14151 C 1331.22 2.32506 -0.215277 0
M  V30 14152 C 1332.2 1.57023 0.654046 0
M  V30 14153 O 1333.39 1.85139 0.586268 0
M  V30 14154 C 1330.52 3.41266 0.644557 0
M  V30 14155 C 1329.47 4.27816 -0.125501 0
M  V30 14156 C 1328.8 5.27813 0.855428 0
M  V30 14157 C 1330.1 5.05367 -1.31913 0
M  V30 14158 H 1331.79 2.8142 -1.02193 0
M  V30 14159 H 1329.34 1.35303 -0.492862 0
M  V30 14160 H 1331.29 4.07808 1.06163 0
M  V30 14161 H 1330.01 2.90938 1.484 0
M  V30 14162 H 1328.67 3.62841 -0.523639 0
M  V30 14163 H 1328.32 4.73755 1.69011 0
M  V30 14164 H 1328.02 5.86589 0.344566 0
M  V30 14165 H 1329.54 5.97227 1.2709 0
M  V30 14166 H 1330.96 5.64907 -0.977418 0
M  V30 14167 H 1329.36 5.73593 -1.76382 0
M  V30 14168 H 1330.43 4.36558 -2.11057 0
M  V30 14169 N 1331.77 0.549846 1.47697 0
M  V30 14170 C 1333.02 0.0230048 2.02087 0
M  V30 14171 C 1333.34 -1.32865 1.4273 0
M  V30 14172 O 1332.61 -1.86492 0.59981 0
M  V30 14173 H 1331.19 0.00551514 0.74698 0
M  V30 14174 H 1333.85 0.718185 1.81185 0
M  V30 14175 H 1332.95 -0.0705813 3.1202 0
M  V30 14176 N 1333.25 -1.54984 0.285932 0
M  V30 14177 C 1334.21 -2.2164 -0.583824 0
M  V30 14178 C 1335.21 -1.19764 -1.073 0
M  V30 14179 O 1336.4 -1.44598 -0.971439 0
M  V30 14180 C 1333.53 -2.8909 -1.80665 0
M  V30 14181 H 1334.72 -2.999 -0.00168109 0
M  V30 14182 H 1332.28 -1.56257 0.0366325 0
M  V30 14183 H 1333.01 -2.14869 -2.42903 0
M  V30 14184 H 1332.8 -3.63756 -1.4637 0
M  V30 14185 H 1334.29 -3.39982 -2.42491 0
M  V30 14186 N 1334.72 -0.0133892 -1.57594 0
M  V30 14187 C 1335.95 0.679255 -1.95432 0
M  V30 14188 C 1336.37 1.66558 -0.889028 0
M  V30 14189 O 1335.72 1.82031 0.130755 0
M  V30 14190 C 1335.78 1.39943 -3.33314 0
M  V30 14191 O 1335.5 0.452643 -4.35755 0
M  V30 14192 C 1337 2.18535 -3.85691 0
M  V30 14193 H 1334.22 0.188337 -0.644026 0
M  V30 14194 H 1336.76 -0.0684861 -2.04385 0
M  V30 14195 H 1334.92 2.0987 -3.25628 0
M  V30 14196 H 1335.33 0.962243 -5.15598 0
M  V30 14197 H 1336.8 2.64403 -4.84557 0
M  V30 14198 H 1337.28 3.01779 -3.19102 0
M  V30 14199 H 1337.89 1.53598 -3.96595 0
M  V30 14200 N 1336.2 1.55448 0.259558 0
M  V30 14201 C 1337.45 1.76337 0.987396 0
M  V30 14202 C 1337.77 0.57505 1.86328 0
M  V30 14203 O 1337.04 -0.409621 1.9157 0
M  V30 14204 H 1335.62 0.650312 0.367565 0
M  V30 14205 H 1338.28 1.9287 0.280551 0
M  V30 14206 H 1337.38 2.66975 1.61651 0
M  V30 14207 N 1337.68 -0.524672 1.4861 0
M  V30 14208 C 1338.61 -1.63782 1.66426 0
M  V30 14209 C 1339.59 -1.62177 0.513077 0
M  V30 14210 O 1340.78 -1.7929 0.74623 0
M  V30 14211 C 1337.91 -3.02354 1.70877 0
M  V30 14212 C 1336.86 -3.18819 2.85549 0
M  V30 14213 C 1336.19 -4.58506 2.75094 0
M  V30 14214 C 1337.49 -3.01086 4.26784 0
M  V30 14215 H 1339.18 -1.49127 2.59618 0
M  V30 14216 H 1336.73 -0.715997 1.24938 0
M  V30 14217 H 1338.68 -3.80105 1.81929 0
M  V30 14218 H 1337.4 -3.18044 0.742682 0
M  V30 14219 H 1336.06 -2.43487 2.74061 0
M  V30 14220 H 1335.71 -4.71038 1.76443 0
M  V30 14221 H 1335.41 -4.70466 3.52044 0
M  V30 14222 H 1336.93 -5.38348 2.88121 0
M  V30 14223 H 1338.35 -3.68624 4.39077 0
M  V30 14224 H 1336.75 -3.24536 5.04774 0
M  V30 14225 H 1337.82 -1.97454 4.42877 0
M  V30 14226 O 1339.2 -1.46959 -0.669714 0
M  V30 14227 H 1339.89 -1.41517 -1.32259 0
M  V30 END ATOM
M  V30 BEGIN BOND
M  V30 END BOND
M  V30 END CTAB
M  END
$$$$
