drugbank_target|P07097 Acetyl-CoA acetyltransferase (DB01915; DB01992; DB02039; DB02160; DB03045; DB03059; DB08328; DB08408)
 OpenBabel12092119543D

  0  0  0     0  0            999 V3000
M  V30 BEGIN CTAB
M  V30 COUNTS 5667 5709 0 0 0
M  V30 BEGIN ATOM
M  V30 1 H -0.908 1.98254 -0.117106 0
M  V30 2 N 0 1.576 0 0
M  V30 3 C 0.933 2.03868 1.02534 0
M  V30 4 C 1.911 0.928543 1.3348 0
M  V30 5 O 3.095 1.19667 1.45644 0
M  V30 6 C 0.222 2.43627 2.35294 0
M  V30 7 C -0.732 3.65373 2.2001 0
M  V30 8 S 0.101 5.13292 1.52614 0
M  V30 9 C 1.257 5.56322 2.86805 0
M  V30 10 H 1.49 2.90518 0.631377 0
M  V30 11 H -0.977 1.52953 0.210867 0
M  V30 12 H 0.981 2.67203 3.11629 0
M  V30 13 H -0.358 1.57376 2.7183 0
M  V30 14 H -1.165 3.90944 3.18086 0
M  V30 15 H -1.563 3.418 1.51819 0
M  V30 16 H 0.729 5.58782 3.83104 0
M  V30 17 H 1.672 6.56266 2.65933 0
M  V30 18 H 2.08 4.83886 2.90714 0
M  V30 19 N 1.4781 -0.272755 1.55222 0
M  V30 20 C 2.7031 -1.02683 1.80197 0
M  V30 21 C 3.1281 -1.79142 0.573551 0
M  V30 22 O 2.4861 -1.74917 -0.476849 0
M  V30 23 C 2.5341 -1.9609 3.02624 0
M  V30 24 O 1.6381 -3.04863 2.77727 0
M  V30 25 H 0.9791 -0.293557 0.595584 0
M  V30 26 H 3.5091 -0.30159 2.02365 0
M  V30 27 H 3.5191 -2.38039 3.31363 0
M  V30 28 H 2.1941 -1.39851 3.91682 0
M  V30 29 H 0.7711 -2.67228 2.60084 0
M  V30 30 N 2.9562 -1.48159 -0.537278 0
M  V30 31 C 4.1842 -1.59454 -1.31841 0
M  V30 32 C 4.5992 -0.252065 -1.8711 0
M  V30 33 O 3.9562 0.757621 -1.66031 0
M  V30 34 C 4.0072 -2.63546 -2.47439 0
M  V30 35 O 3.7282 -3.92583 -1.94449 0
M  V30 36 C 5.2292 -2.85212 -3.39366 0
M  V30 37 H 2.4492 -0.53785 -0.401196 0
M  V30 38 H 4.9932 -1.93932 -0.648891 0
M  V30 39 H 3.1482 -2.31946 -3.1029 0
M  V30 40 H 3.5622 -4.49629 -2.70063 0
M  V30 41 H 5.0362 -3.61863 -4.16844 0
M  V30 42 H 5.5132 -1.93765 -3.94147 0
M  V30 43 H 6.1192 -3.18086 -2.82314 0
M  V30 44 N 4.4343 0.785586 -1.36625 0
M  V30 45 C 5.8453 1.36101 -1.27803 0
M  V30 46 C 6.1963 1.96035 0.0804875 0
M  V30 47 O 5.3213 1.92834 0.982042 0
M  V30 48 C 5.9163 2.47442 -2.31426 0
M  V30 49 C 4.4753 3.00789 -2.26281 0
M  V30 50 C 3.6223 1.73896 -2.15999 0
M  V30 51 H 6.5733 0.586928 -1.47448 0
M  V30 52 H 6.5943 3.2656 -1.95291 0
M  V30 53 H 6.1063 2.03791 -3.30289 0
M  V30 54 H 4.2073 3.48851 -1.30896 0
M  V30 55 H 4.3203 3.57343 -3.19128 0
M  V30 56 H 2.6843 1.9628 -1.62316 0
M  V30 57 H 3.4673 1.32368 -3.16755 0
M  V30 58 N 5.9124 1.20967 1.01018 0
M  V30 59 C 7.1374 1.0503 1.78839 0
M  V30 60 C 7.5624 -0.395752 1.8389 0
M  V30 61 O 6.9204 -1.28529 1.27867 0
M  V30 62 C 6.9684 1.64602 3.2084 0
M  V30 63 O 6.0724 0.887988 4.02726 0
M  V30 64 H 5.4134 0.369987 0.551367 0
M  V30 65 H 7.9434 1.60399 1.27018 0
M  V30 66 H 7.9534 1.68607 3.71532 0
M  V30 67 H 6.6284 2.69841 3.16479 0
M  V30 68 H 5.2054 0.922648 3.61305 0
M  V30 69 N 7.3905 -1.2043 1.01659 0
M  V30 70 C 8.6395 -1.89118 0.701237 0
M  V30 71 C 8.9525 -1.79705 -0.772358 0
M  V30 72 O 10.1585 -2.43528 -1.20026 0
M  V30 73 C 8.6145 -3.39168 1.20388 0
M  V30 74 C 8.2225 -3.57166 2.70438 0
M  V30 75 C 9.9665 -4.1341 0.963953 0
M  V30 76 C 7.8735 -5.01042 3.14183 0
M  V30 77 H 6.8035 -0.708267 0.2586 0
M  V30 78 H 9.4545 -1.36239 1.22927 0
M  V30 79 H 7.8365 -3.91369 0.603824 0
M  V30 80 H 9.0105 -3.15351 3.35992 0
M  V30 81 H 7.3255 -2.96294 2.92572 0
M  V30 82 H 9.9225 -5.19491 1.26621 0
M  V30 83 H 10.2655 -4.16181 -0.099578 0
M  V30 84 H 10.7985 -3.67309 1.52738 0
M  V30 85 H 7.5375 -5.03426 4.19812 0
M  V30 86 H 7.0575 -5.43668 2.53348 0
M  V30 87 H 8.7365 -5.69623 3.0682 0
M  V30 88 N 8.8686 -0.792821 -1.36206 0
M  V30 89 C 10.1146 -0.36733 -1.99446 0
M  V30 90 C 10.4476 1.05917 -1.62774 0
M  V30 91 O 9.7226 1.7324 -0.88421 0
M  V30 92 C 10.0056 -0.535044 -3.56103 0
M  V30 93 C 9.8586 -2.00548 -4.02617 0
M  V30 94 C 11.1776 0.0478191 -4.40074 0
M  V30 95 H 8.2966 -0.134941 -0.724541 0
M  V30 96 H 10.9386 -0.999794 -1.61568 0
M  V30 97 H 9.0886 0.00336329 -3.885 0
M  V30 98 H 10.7606 -2.60521 -3.80692 0
M  V30 99 H 9.0036 -2.50686 -3.54032 0
M  V30 100 H 9.6746 -2.07377 -5.11565 0
M  V30 101 H 12.1506 -0.411822 -4.14057 0
M  V30 102 H 11.0266 -0.0995336 -5.4881 0
M  V30 103 H 11.2876 1.14025 -4.27142 0
M  V30 104 N 10.3467 1.47872 -0.545128 0
M  V30 105 C 11.5957 2.01695 -0.0145033 0
M  V30 106 C 11.9087 1.42609 1.33873 0
M  V30 107 O 13.1147 1.88021 1.95858 0
M  V30 108 C 11.5707 3.59892 0.0245068 0
M  V30 109 C 11.1787 4.27966 -1.32475 0
M  V30 110 C 12.9227 4.21507 0.50316 0
M  V30 111 C 10.8297 5.78136 -1.2455 0
M  V30 112 H 9.7597 0.753998 -0.00165172 0
M  V30 113 H 12.4107 1.69985 -0.691175 0
M  V30 114 H 10.7927 3.88509 0.766575 0
M  V30 115 H 11.9667 4.11003 -2.08357 0
M  V30 116 H 10.2817 3.78286 -1.74036 0
M  V30 117 H 12.8787 5.31538 0.580656 0
M  V30 118 H 13.2217 3.87855 1.51243 0
M  V30 119 H 13.7547 3.97376 -0.183681 0
M  V30 120 H 10.4937 6.16388 -2.23039 0
M  V30 121 H 10.0137 5.97469 -0.528282 0
M  V30 122 H 11.6927 6.40099 -0.942488 0
M  V30 123 N 11.8248 0.280983 1.55075 0
M  V30 124 C 12.7878 -0.590896 2.21452 0
M  V30 125 C 13.7878 -1.07682 1.19421 0
M  V30 126 O 14.9778 -0.97605 1.44288 0
M  V30 127 C 12.1098 -1.81587 2.88511 0
M  V30 128 H 13.3028 -0.0112554 2.99898 0
M  V30 129 H 10.8558 0.0316438 1.56268 0
M  V30 130 H 11.5908 -2.43587 2.14093 0
M  V30 131 H 11.3758 -1.4753 3.63287 0
M  V30 132 H 12.8658 -2.43575 3.39206 0
M  V30 133 N 13.3029 -1.57598 0.00835791 0
M  V30 134 C 14.5279 -1.95617 -0.689103 0
M  V30 135 C 14.9529 -0.883753 -1.66046 0
M  V30 136 O 14.3109 0.157352 -1.80616 0
M  V30 137 C 14.3589 -3.32736 -1.38994 0
M  V30 138 O 13.4629 -3.27631 -2.50463 0
M  V30 139 H 12.8039 -0.638379 -0.182668 0
M  V30 140 H 15.3339 -2.045 0.064036 0
M  V30 141 H 15.3439 -3.68494 -1.75147 0
M  V30 142 H 14.0189 -4.1034 -0.677778 0
M  V30 143 H 12.5959 -3.03561 -2.16576 0
M  V30 144 N 14.781 0.264519 -1.55364 0
M  V30 145 C 15.744 1.31046 -1.88042 0
M  V30 146 C 16.744 1.41943 -0.755569 0
M  V30 147 O 17.934 1.40947 -1.02369 0
M  V30 148 C 15.066 2.69067 -2.09323 0
M  V30 149 H 16.259 1.03297 -2.81549 0
M  V30 150 H 13.812 0.502989 -1.47986 0
M  V30 151 H 14.547 3.01982 -1.18226 0
M  V30 152 H 14.332 2.62542 -2.91229 0
M  V30 153 H 15.822 3.44623 -2.35848 0
M  V30 154 N 16.2591 1.48442 0.529413 0
M  V30 155 C 17.6751 1.34575 0.858004 0
M  V30 156 C 17.8751 0.3572 1.98309 0
M  V30 157 O 16.9311 -0.221379 2.51528 0
M  V30 158 C 18.2441 2.74617 1.22499 0
M  V30 159 C 19.7921 2.83109 1.33484 0
M  V30 160 C 20.2671 4.23854 1.73526 0
M  V30 161 N 21.7581 4.2653 1.80628 0
M  V30 162 C 22.4931 5.32372 2.12997 0
M  V30 163 N 21.9891 6.48491 2.43786 0
M  V30 164 N 23.7821 5.19766 2.14008 0
M  V30 165 H 15.9331 2.1133 -0.212925 0
M  V30 166 H 18.1961 0.947439 -0.0326199 0
M  V30 167 H 17.9021 3.4852 0.471905 0
M  V30 168 H 17.7761 3.08177 2.17501 0
M  V30 169 H 20.1631 2.09462 2.0787 0
M  V30 170 H 20.2441 2.53168 0.366027 0
M  V30 171 H 19.8881 4.98018 0.997013 0
M  V30 172 H 19.8181 4.5124 2.71459 0
M  V30 173 H 22.3091 3.42772 1.59108 0
M  V30 174 H 22.6221 7.24993 2.67592 0
M  V30 175 H 20.9671 6.51765 2.41304 0
M  V30 176 H 24.1581 4.28066 1.89412 0
M  V30 177 H 24.3311 6.02354 2.38902 0
M  V30 178 N 17.7372 -0.778329 1.37039 0
M  V30 179 C 18.9652 -1.56734 1.35063 0
M  V30 180 C 19.3802 -1.88686 -0.0655597 0
M  V30 181 O 18.7372 -1.5096 -1.02554 0
M  V30 182 C 18.7882 -2.88163 2.18276 0
M  V30 183 O 18.5092 -2.57583 3.54376 0
M  V30 184 C 20.0102 -3.82422 2.24206 0
M  V30 185 H 17.2302 -0.485778 0.462883 0
M  V30 186 H 19.7742 -0.965185 1.8029 0
M  V30 187 H 17.9292 -3.44818 1.76576 0
M  V30 188 H 18.3432 -3.41699 3.97922 0
M  V30 189 H 19.8172 -4.71667 2.86765 0
M  V30 190 H 20.2942 -4.21078 1.24861 0
M  V30 191 H 20.9002 -3.31697 2.6619 0
M  V30 192 N 19.2153 -1.21501 -1.00376 0
M  V30 193 C 20.1783 -0.976927 -2.07337 0
M  V30 194 C 21.1783 0.0525322 -1.60714 0
M  V30 195 O 22.3683 -0.184869 -1.73216 0
M  V30 196 C 19.5003 -0.473423 -3.37597 0
M  V30 197 H 20.6933 -1.92587 -2.29892 0
M  V30 198 H 18.2463 -1.03217 -1.17371 0
M  V30 199 H 18.9813 0.480379 -3.20722 0
M  V30 200 H 18.7663 -1.216 -3.72768 0
M  V30 201 H 20.2563 -0.32675 -4.1632 0
M  V30 202 N 20.6934 1.19889 -1.02296 0
M  V30 203 C 21.9394 1.89701 -0.717033 0
M  V30 204 C 22.2724 1.7905 0.751989 0
M  V30 205 O 21.5474 1.17891 1.547 0
M  V30 206 C 21.8304 3.40858 -1.16136 0
M  V30 207 C 21.6834 3.60411 -2.69117 0
M  V30 208 C 23.0024 4.33876 -0.737549 0
M  V30 209 H 20.1214 0.688874 -0.261957 0
M  V30 210 H 22.7634 1.41154 -1.27183 0
M  V30 211 H 20.9134 3.82335 -0.689342 0
M  V30 212 H 22.5854 3.28145 -3.2422 0
M  V30 213 H 20.8284 3.03665 -3.0979 0
M  V30 214 H 21.4994 4.66396 -2.95261 0
M  V30 215 H 23.9754 4.00081 -1.14344 0
M  V30 216 H 22.8514 5.38242 -1.0764 0
M  V30 217 H 23.1124 4.40628 0.360436 0
M  V30 218 N 22.1715 0.800033 1.35784 0
M  V30 219 C 23.4195 0.376597 1.9856 0
M  V30 220 C 23.7405 -1.05812 1.63795 0
M  V30 221 O 23.0105 -1.73103 0.917171 0
M  V30 222 H 21.5905 0.136261 0.734467 0
M  V30 223 H 24.2525 1.02442 1.65806 0
M  V30 224 H 23.3485 0.477002 3.08433 0
M  V30 225 N 23.6496 -1.47581 0.552962 0
M  V30 226 C 24.8746 -2.07378 0.0300593 0
M  V30 227 C 25.2996 -1.40355 -1.25229 0
M  V30 228 O 24.6576 -0.477099 -1.7491 0
M  V30 229 C 24.7056 -3.60274 -0.153231 0
M  V30 230 O 23.8096 -3.94041 -1.21678 0
M  V30 231 H 23.1506 -0.662158 0.0494182 0
M  V30 232 H 25.6806 -1.89662 0.767434 0
M  V30 233 H 25.6906 -4.0633 -0.368761 0
M  V30 234 H 24.3656 -4.08455 0.783397 0
M  V30 235 H 22.9426 -3.59735 -0.982079 0
M  V30 236 N 25.1277 -0.289203 -1.54924 0
M  V30 237 C 26.3747 0.323519 -1.99899 0
M  V30 238 C 26.7027 1.54797 -1.17762 0
M  V30 239 O 25.9577 1.94237 -0.238835 0
M  V30 240 C 26.2567 0.736119 -3.49737 0
M  V30 241 C 25.9227 -0.385276 -4.49251 0
M  V30 242 C 24.5847 -0.693156 -4.76181 0
M  V30 243 C 26.9367 -1.14021 -5.08575 0
M  V30 244 C 24.2647 -1.7593 -5.59701 0
M  V30 245 C 26.6167 -2.19619 -5.93254 0
M  V30 246 C 25.2807 -2.51026 -6.185 0
M  V30 247 H 24.5507 0.118384 -0.731482 0
M  V30 248 H 27.1977 -0.405847 -1.8715 0
M  V30 249 H 25.5027 1.54539 -3.60035 0
M  V30 250 H 27.1997 1.22118 -3.81953 0
M  V30 251 H 23.7897 -0.135202 -4.28387 0
M  V30 252 H 27.9737 -0.915611 -4.87781 0
M  V30 253 H 23.2297 -2.0075 -5.77503 0
M  V30 254 H 27.4037 -2.78581 -6.38252 0
M  V30 255 H 25.0307 -3.33772 -6.83008 0
M  V30 256 N 26.6058 1.57591 -0.0167156 0
M  V30 257 C 27.5538 2.10604 0.987353 0
M  V30 258 C 28.5478 1.02977 1.34507 0
M  V30 259 O 29.7538 1.21425 1.32875 0
M  V30 260 H 26.1288 0.672695 0.336134 0
M  V30 261 H 28.0998 2.93925 0.514817 0
M  V30 262 C 26.8488 2.6382 2.26483 0
M  V30 263 H 26.1718 3.46278 1.99829 0
M  V30 264 H 27.6118 3.04573 2.94977 0
M  V30 265 C 26.0708 1.55992 2.9861 0
M  V30 266 O 26.6008 0.952521 3.90243 0
M  V30 267 N 24.8068 1.28335 2.60727 0
M  V30 268 H 24.3538 1.77914 1.86291 0
M  V30 269 H 24.3118 0.564115 3.09298 0
M  V30 270 N 28.0839 -0.256276 1.55502 0
M  V30 271 C 29.3319 -0.983672 1.76545 0
M  V30 272 C 29.6529 -1.86206 0.578982 0
M  V30 273 O 28.9229 -1.91656 -0.405577 0
M  V30 274 H 27.5029 -0.366191 0.651086 0
M  V30 275 H 30.1649 -0.276479 1.92929 0
M  V30 276 H 29.2609 -1.61087 2.67315 0
M  V30 277 N 29.562 -1.4872 -0.521534 0
M  V30 278 C 30.525 -1.63379 -1.60748 0
M  V30 279 C 31.525 -0.50661 -1.52611 0
M  V30 280 O 32.715 -0.772601 -1.5613 0
M  V30 281 C 29.847 -1.61192 -3.00383 0
M  V30 282 H 31.04 -2.60217 -1.49087 0
M  V30 283 H 28.593 -1.37444 -0.744235 0
M  V30 284 H 29.328 -0.65863 -3.17541 0
M  V30 285 H 29.113 -2.43032 -3.07698 0
M  V30 286 H 30.603 -1.7466 -3.7932 0
M  V30 287 N 31.0401 0.771051 -1.3745 0
M  V30 288 C 32.2871 1.52963 -1.32697 0
M  V30 289 C 32.6151 1.94299 0.0883274 0
M  V30 290 O 31.8701 1.64397 1.0617 0
M  V30 291 C 32.1691 2.80676 -2.2126 0
M  V30 292 C 31.8351 2.58389 -3.69521 0
M  V30 293 C 30.4971 2.52019 -4.09927 0
M  V30 294 C 32.8491 2.38469 -4.63446 0
M  V30 295 C 30.1771 2.23721 -5.42371 0
M  V30 296 C 32.5291 2.11694 -5.96128 0
M  V30 297 C 31.1931 2.03769 -6.35637 0
M  V30 298 H 30.4631 0.559732 -0.485573 0
M  V30 299 H 33.1101 0.888083 -1.69662 0
M  V30 300 H 31.4151 3.49392 -1.77291 0
M  V30 301 H 33.1121 3.38557 -2.14895 0
M  V30 302 H 29.7021 2.6421 -3.37478 0
M  V30 303 H 33.8861 2.4238 -4.33089 0
M  V30 304 H 29.1421 2.16081 -5.71943 0
M  V30 305 H 33.3161 1.9528 -6.6846 0
M  V30 306 H 30.9431 1.81606 -7.38189 0
M  V30 307 N 32.5182 1.22032 0.997298 0
M  V30 308 C 33.4812 0.987909 2.06816 0
M  V30 309 C 34.4812 -0.0440084 1.6074 0
M  V30 310 O 35.6712 0.194053 1.73116 0
M  V30 311 C 32.8032 0.49132 3.37341 0
M  V30 312 H 33.9962 1.93803 2.28868 0
M  V30 313 H 31.5492 1.03838 1.16822 0
M  V30 314 H 32.2842 -0.463364 3.20973 0
M  V30 315 H 32.0692 1.23575 3.72118 0
M  V30 316 H 33.5592 0.348824 4.16141 0
M  V30 317 N 33.9963 -1.19345 1.0293 0
M  V30 318 C 34.9443 -2.24621 0.604001 0
M  V30 319 C 35.9383 -1.65452 -0.363587 0
M  V30 320 O 37.1443 -1.78497 -0.23212 0
M  V30 321 H 33.5193 -0.730858 0.177061 0
M  V30 322 H 35.4903 -2.5781 1.50255 0
M  V30 323 C 34.2393 -3.47688 -0.0289127 0
M  V30 324 H 33.5623 -3.93505 0.706651 0
M  V30 325 H 35.0023 -4.23011 -0.289432 0
M  V30 326 C 33.4613 -3.11817 -1.2756 0
M  V30 327 O 33.9913 -3.2451 -2.36762 0
M  V30 328 N 32.1973 -2.66246 -1.16453 0
M  V30 329 H 31.7443 -2.56118 -0.275914 0
M  V30 330 H 31.7023 -2.42617 -1.99961 0
M  V30 331 N 35.4744 -0.807222 -1.35358 0
M  V30 332 C 36.7024 -0.400377 -2.02989 0
M  V30 333 C 37.1174 0.988859 -1.60832 0
M  V30 334 O 36.4744 1.63729 -0.806175 0
M  V30 335 C 36.5254 -0.474867 -3.58368 0
M  V30 336 O 36.2464 -1.80933 -3.98992 0
M  V30 337 C 37.7474 -0.0609112 -4.43258 0
M  V30 338 H 34.9674 -0.162587 -0.651004 0
M  V30 339 H 37.5114 -1.09102 -1.72965 0
M  V30 340 H 35.6664 0.167534 -3.87038 0
M  V30 341 H 36.0804 -1.77256 -4.9364 0
M  V30 342 H 37.5544 -0.164145 -5.51756 0
M  V30 343 H 38.0314 0.993831 -4.27808 0
M  V30 344 H 38.6374 -0.676492 -4.19885 0
M  V30 345 N 36.9525 1.47285 -0.560781 0
M  V30 346 C 38.3635 1.86258 -0.128343 0
M  V30 347 C 38.7145 1.46699 1.30284 0
M  V30 348 O 37.8395 0.871698 1.98067 0
M  V30 349 C 38.4345 3.38044 -0.22614 0
M  V30 350 C 36.9935 3.76096 0.151283 0
M  V30 351 C 36.1405 2.71335 -0.572084 0
M  V30 352 H 39.0915 1.38752 -0.770297 0
M  V30 353 H 39.1125 3.76441 0.554322 0
M  V30 354 H 38.6245 3.66806 -1.26788 0
M  V30 355 H 36.7255 3.52951 1.19399 0
M  V30 356 H 36.8385 4.78641 -0.209765 0
M  V30 357 H 35.2025 2.54696 -0.0147653 0
M  V30 358 H 35.9855 3.02938 -1.61504 0
M  V30 359 N 38.4306 0.297415 1.54768 0
M  V30 360 C 39.3936 -0.567375 2.22066 0
M  V30 361 C 40.3936 -1.06409 1.20556 0
M  V30 362 O 41.5836 -0.960691 1.45315 0
M  V30 363 C 38.7156 -1.78517 2.90421 0
M  V30 364 H 39.9086 0.0205534 2.99893 0
M  V30 365 H 37.4616 0.0482163 1.56226 0
M  V30 366 H 38.1966 -2.41303 2.16664 0
M  V30 367 H 37.9816 -1.43669 3.64831 0
M  V30 368 H 39.4716 -2.39964 3.41771 0
M  V30 369 N 39.9087 -1.5758 0.0250728 0
M  V30 370 C 40.8587 -2.06468 -0.967201 0
M  V30 371 C 41.8427 -0.964376 -1.28797 0
M  V30 372 O 43.0347 -1.22797 -1.27475 0
M  V30 373 C 40.1637 -2.59203 -2.25097 0
M  V30 374 C 39.2497 -3.76157 -1.95874 0
M  V30 375 N 39.6407 -4.86919 -1.36905 0
M  V30 376 C 37.9387 -3.84566 -2.25887 0
M  V30 377 C 38.6397 -5.68172 -1.24724 0
M  V30 378 N 37.6157 -5.14953 -1.74138 0
M  V30 379 H 41.4177 -2.89508 -0.506176 0
M  V30 380 H 38.9317 -1.61399 -0.18004 0
M  V30 381 H 40.9287 -2.92517 -2.97052 0
M  V30 382 H 39.5887 -1.77592 -2.71829 0
M  V30 383 H 40.5997 -5.07256 -1.04459 0
M  V30 384 H 37.2767 -3.13854 -2.75321 0
M  V30 385 H 38.6667 -6.67221 -0.791605 0
M  V30 386 N 41.3868 0.248026 -1.55636 0
M  V30 387 C 42.2968 1.32859 -1.93354 0
M  V30 388 C 43.3128 1.52719 -0.833838 0
M  V30 389 O 44.4888 1.66363 -1.13513 0
M  V30 390 C 41.5538 2.66337 -2.21958 0
M  V30 391 C 40.6148 2.55008 -3.45354 0
M  V30 392 C 39.8478 3.82121 -3.72584 0
M  V30 393 O 40.0708 4.83951 -3.01907 0
M  V30 394 O 39.0048 3.80822 -4.6611 0
M  V30 395 H 42.8308 1.03862 -2.85388 0
M  V30 396 H 40.4158 0.448686 -1.42503 0
M  V30 397 H 42.2978 3.45216 -2.4167 0
M  V30 398 H 40.9728 2.95068 -1.33103 0
M  V30 399 H 39.8798 1.7442 -3.30951 0
M  V30 400 H 41.2128 2.31222 -4.34508 0
M  V30 401 N 42.8649 1.48995 0.513639 0
M  V30 402 C 43.7949 1.67636 1.62544 0
M  V30 403 C 44.7759 0.525087 1.61793 0
M  V30 404 O 45.9609 0.759502 1.78732 0
M  V30 405 C 43.0909 1.73114 3.01079 0
M  V30 406 C 42.0449 2.87905 3.16693 0
M  V30 407 C 41.3709 2.78486 4.56453 0
M  V30 408 C 42.6709 4.29005 2.97913 0
M  V30 409 H 44.3649 2.60716 1.47198 0
M  V30 410 H 41.9109 1.25465 0.706714 0
M  V30 411 H 43.8639 1.84742 3.78746 0
M  V30 412 H 42.5879 0.766241 3.17484 0
M  V30 413 H 41.2469 2.75859 2.41448 0
M  V30 414 H 40.8949 1.7993 4.69717 0
M  V30 415 H 40.5949 3.55523 4.67843 0
M  V30 416 H 42.1189 2.92104 5.36197 0
M  V30 417 H 43.5329 4.41798 3.65359 0
M  V30 418 H 41.9299 5.07166 3.20785 0
M  V30 419 H 42.9999 4.44329 1.94165 0
M  V30 420 N 44.343 -0.763751 1.37857 0
M  V30 421 C 45.591 -1.51957 1.33243 0
M  V30 422 C 45.912 -1.94835 -0.0801709 0
M  V30 423 O 45.182 -1.66894 -1.02582 0
M  V30 424 H 43.762 -0.563626 0.49024 0
M  V30 425 H 46.424 -0.908504 1.7243 0
M  V30 426 H 45.52 -2.41523 1.97669 0
M  V30 427 N 45.8211 -1.22559 -0.990812 0
M  V30 428 C 46.7841 -0.998863 -2.0629 0
M  V30 429 C 47.7841 0.0354834 -1.60761 0
M  V30 430 O 48.9741 -0.203231 -1.7301 0
M  V30 431 C 46.1061 -0.509203 -3.37076 0
M  V30 432 H 47.2991 -1.95014 -2.27837 0
M  V30 433 H 44.8521 -1.04456 -1.16269 0
M  V30 434 H 45.5871 0.446335 -3.21214 0
M  V30 435 H 45.3721 -1.25547 -3.71457 0
M  V30 436 H 46.8621 -0.370888 -4.1595 0
M  V30 437 N 47.2992 1.18797 -1.03562 0
M  V30 438 C 48.5272 1.92599 -0.755869 0
M  V30 439 C 48.9422 1.75886 0.686271 0
M  V30 440 O 48.2992 1.08517 1.46732 0
M  V30 441 C 48.3502 3.44159 -1.10619 0
M  V30 442 O 48.0712 3.60341 -2.4917 0
M  V30 443 C 49.5722 4.3507 -0.850214 0
M  V30 444 H 46.7922 0.611587 -0.276048 0
M  V30 445 H 49.3362 1.50742 -1.38192 0
M  V30 446 H 47.4912 3.83823 -0.525194 0
M  V30 447 H 47.9052 4.54128 -2.62427 0
M  V30 448 H 49.3792 5.39989 -1.14523 0
M  V30 449 H 49.8562 4.38673 0.215176 0
M  V30 450 H 50.4622 4.01097 -1.41426 0
M  V30 451 N 48.7773 0.814389 1.34928 0
M  V30 452 C 50.0233 0.399013 1.98836 0
M  V30 453 C 50.3563 -1.03314 1.64438 0
M  V30 454 O 49.6313 -1.71811 0.911659 0
M  V30 455 C 49.9143 0.591629 3.55207 0
M  V30 456 C 49.7673 2.06928 3.99376 0
M  V30 457 C 51.0863 0.022199 4.40094 0
M  V30 458 H 48.2053 0.146451 0.722303 0
M  V30 459 H 50.8473 1.02537 1.59957 0
M  V30 460 H 48.9973 0.0584441 3.88456 0
M  V30 461 H 50.6693 2.66544 3.76499 0
M  V30 462 H 48.9123 2.56287 3.49999 0
M  V30 463 H 49.5833 2.1549 5.08201 0
M  V30 464 H 52.0593 0.477643 4.13349 0
M  V30 465 H 50.9353 0.186832 5.48582 0
M  V30 466 H 51.1963 -1.07215 4.28902 0
M  V30 467 N 50.2554 -1.46986 0.568584 0
M  V30 468 C 51.5044 -2.01646 0.0465894 0
M  V30 469 C 51.8174 -1.44721 -1.31587 0
M  V30 470 O 53.0234 -1.91113 -1.92842 0
M  V30 471 C 51.4794 -3.59885 0.032752 0
M  V30 472 C 51.0874 -4.25804 1.39266 0
M  V30 473 C 52.8314 -4.22255 -0.436038 0
M  V30 474 C 50.7384 -5.76081 1.33732 0
M  V30 475 H 49.6684 -0.753876 0.013647 0
M  V30 476 H 52.3194 -1.68864 0.718131 0
M  V30 477 H 50.7014 -3.8968 -0.704669 0
M  V30 478 H 51.8754 -4.07637 2.1487 0
M  V30 479 H 50.1904 -3.7547 1.80032 0
M  V30 480 H 52.7874 -5.32394 -0.49602 0
M  V30 481 H 53.1304 -3.90212 -1.45053 0
M  V30 482 H 53.6634 -3.97033 0.246877 0
M  V30 483 H 50.4024 -6.12761 2.32817 0
M  V30 484 H 49.9224 -5.96553 0.623267 0
M  V30 485 H 51.6014 -6.38518 1.0442 0
M  V30 486 N 51.7335 -0.305618 -1.54608 0
M  V30 487 C 52.9585 0.307562 -2.05107 0
M  V30 488 C 53.3835 1.46385 -1.18123 0
M  V30 489 O 52.7415 1.8034 -0.186324 0
M  V30 490 C 52.7895 0.73704 -3.52987 0
M  V30 491 O 51.8935 1.84134 -3.6901 0
M  V30 492 H 51.2345 0.0589143 -0.661381 0
M  V30 493 H 53.7645 -0.448807 -1.99617 0
M  V30 494 H 53.7745 1.02459 -3.94925 0
M  V30 495 H 52.4495 -0.108773 -4.15758 0
M  V30 496 H 51.0265 1.55398 -3.38978 0
M  V30 497 N 53.2116 1.57565 -0.0334293 0
M  V30 498 C 54.1746 2.09393 0.932048 0
M  V30 499 C 55.1746 1.00986 1.25134 0
M  V30 500 O 56.3646 1.27129 1.19096 0
M  V30 501 C 53.4966 2.56338 2.2473 0
M  V30 502 H 54.6896 2.95984 0.483085 0
M  V30 503 H 52.2426 1.54819 0.21468 0
M  V30 504 H 52.9776 1.7309 2.74245 0
M  V30 505 H 52.7626 3.35542 2.02865 0
M  V30 506 H 54.2526 2.96646 2.93923 0
M  V30 507 N 54.6897 -0.239769 1.55765 0
M  V30 508 C 55.9357 -0.968234 1.78194 0
M  V30 509 C 56.2687 -1.84701 0.599938 0
M  V30 510 O 55.5437 -1.9031 -0.401524 0
M  V30 511 C 55.8267 -1.8227 3.10564 0
M  V30 512 C 55.6797 -0.971633 4.3918 0
M  V30 513 C 56.9987 -2.80388 3.39221 0
M  V30 514 H 54.1177 -0.350572 0.648281 0
M  V30 515 H 56.7597 -0.238259 1.885 0
M  V30 516 H 54.9097 -2.44507 3.01908 0
M  V30 517 H 56.5817 -0.367408 4.59835 0
M  V30 518 H 54.8247 -0.276276 4.32919 0
M  V30 519 H 55.4957 -1.60346 5.28198 0
M  V30 520 H 57.9717 -2.28287 3.47885 0
M  V30 521 H 56.8477 -3.3729 4.33044 0
M  V30 522 H 57.1087 -3.57212 2.60484 0
M  V30 523 N 56.1678 -1.49265 -0.50573 0
M  V30 524 C 57.0978 -1.68495 -1.61653 0
M  V30 525 C 58.0788 -0.53366 -1.61512 0
M  V30 526 O 59.2638 -0.76897 -1.78327 0
M  V30 527 C 56.3938 -1.74709 -3.00157 0
M  V30 528 C 55.3478 -2.89581 -3.15162 0
M  V30 529 C 54.6738 -2.80903 -4.5497 0
M  V30 530 C 55.9738 -4.30578 -2.95634 0
M  V30 531 H 57.6678 -2.61493 -1.45814 0
M  V30 532 H 55.2138 -1.25838 -0.70005 0
M  V30 533 H 57.1668 -1.86748 -3.77761 0
M  V30 534 H 55.8908 -0.783067 -3.17074 0
M  V30 535 H 54.5498 -2.77136 -2.39982 0
M  V30 536 H 54.1978 -1.82419 -4.68756 0
M  V30 537 H 53.8978 -3.57999 -4.65951 0
M  V30 538 H 55.4218 -2.94944 -5.34641 0
M  V30 539 H 56.8358 -4.4373 -3.63011 0
M  V30 540 H 55.2328 -5.0886 -3.18091 0
M  V30 541 H 56.3028 -4.45352 -1.91806 0
M  V30 542 N 57.6459 0.756429 -1.3826 0
M  V30 543 C 58.5559 1.9009 -1.37488 0
M  V30 544 C 59.5719 1.71855 -0.272366 0
M  V30 545 O 60.7479 1.94827 -0.510318 0
M  V30 546 C 57.8129 3.25421 -1.19592 0
M  V30 547 C 56.8739 3.56202 -2.39622 0
M  V30 548 C 56.1069 4.85075 -2.2257 0
M  V30 549 O 56.3299 5.57246 -1.21793 0
M  V30 550 O 55.2639 5.15269 -3.11098 0
M  V30 551 H 59.0899 1.93695 -2.33914 0
M  V30 552 H 56.6749 0.901313 -1.1915 0
M  V30 553 H 58.5569 4.06337 -1.11661 0
M  V30 554 H 57.2319 3.22634 -0.262486 0
M  V30 555 H 56.1389 2.75458 -2.53128 0
M  V30 556 H 57.4719 3.63747 -3.31586 0
M  V30 557 N 59.124 1.23083 0.984299 0
M  V30 558 C 60.54 0.992637 1.24975 0
M  V30 559 C 60.74 -0.308618 1.99123 0
M  V30 560 O 59.796 -1.02905 2.30579 0
M  V30 561 C 61.109 2.19698 2.05312 0
M  V30 562 C 62.657 2.24147 2.18465 0
M  V30 563 C 63.132 3.44157 3.02192 0
M  V30 564 N 64.623 3.44372 3.09777 0
M  V30 565 C 65.358 4.33886 3.74874 0
M  V30 566 N 64.854 5.3363 4.41827 0
M  V30 567 N 66.647 4.21639 3.71721 0
M  V30 568 H 58.798 2.06731 0.487453 0
M  V30 569 H 61.061 0.906339 0.277944 0
M  V30 570 H 60.767 3.1411 1.58201 0
M  V30 571 H 60.641 2.20465 3.06064 0
M  V30 572 H 63.028 1.30277 2.64786 0
M  V30 573 H 63.109 2.27415 1.17115 0
M  V30 574 H 62.753 4.38332 2.56568 0
M  V30 575 H 62.683 3.3813 4.03702 0
M  V30 576 H 65.174 2.72201 2.62135 0
M  V30 577 H 65.487 5.98196 4.89266 0
M  V30 578 H 63.832 5.37534 4.40548 0
M  V30 579 H 67.023 3.42962 3.18582 0
M  V30 580 H 67.196 4.91604 4.22173 0
M  V30 581 N 60.6021 -1.18246 1.0419 0
M  V30 582 C 61.5651 -2.20128 0.638452 0
M  V30 583 C 62.5651 -1.57885 -0.304805 0
M  V30 584 O 63.7551 -1.73967 -0.0900369 0
M  V30 585 C 60.8871 -3.4084 -0.0637751 0
M  V30 586 H 62.0801 -2.57336 1.54007 0
M  V30 587 H 59.6331 -1.32152 0.834598 0
M  V30 588 H 60.3681 -3.09166 -0.979136 0
M  V30 589 H 60.1531 -3.8726 0.614198 0
M  V30 590 H 61.6431 -4.16274 -0.332512 0
M  V30 591 N 62.0802 -0.821533 -1.34494 0
M  V30 592 C 63.3282 -0.408139 -1.97936 0
M  V30 593 C 63.6492 1.03193 -1.65457 0
M  V30 594 O 62.9192 1.71622 -0.944595 0
M  V30 595 H 61.4992 -0.147928 -0.732206 0
M  V30 596 H 64.1612 -1.05067 -1.64155 0
M  V30 597 H 63.2572 -0.52601 -3.07635 0
M  V30 598 N 63.5583 1.46682 -0.576371 0
M  V30 599 C 64.8043 2.02712 -0.0596221 0
M  V30 600 C 65.1373 1.44765 1.29448 0
M  V30 601 O 64.4123 0.610355 1.84675 0
M  V30 602 C 64.6953 3.60098 0.0129503 0
M  V30 603 C 64.5483 4.28441 -1.3696 0
M  V30 604 C 65.8673 4.34224 0.71678 0
M  V30 605 H 62.9863 0.736637 -0.0231407 0
M  V30 606 H 65.6283 1.74898 -0.742351 0
M  V30 607 H 63.7783 3.83926 0.594378 0
M  V30 608 H 65.4503 4.15896 -1.9957 0
M  V30 609 H 63.6933 3.8805 -1.93907 0
M  V30 610 H 64.3643 5.3716 -1.27135 0
M  V30 611 H 66.8403 4.15503 0.222908 0
M  V30 612 H 65.7163 5.43936 0.73657 0
M  V30 613 H 65.9773 4.04823 1.77682 0
M  V30 614 N 65.0364 0.313813 1.54444 0
M  V30 615 C 65.9994 -0.54379 2.22656 0
M  V30 616 C 66.9994 -1.05124 1.21678 0
M  V30 617 O 68.1894 -0.945225 1.46325 0
M  V30 618 C 65.3214 -1.75427 2.92298 0
M  V30 619 H 66.5144 0.0523599 2.99854 0
M  V30 620 H 64.0674 0.0647834 1.56166 0
M  V30 621 H 64.8024 -2.38991 2.19211 0
M  V30 622 H 64.5874 -1.39791 3.66334 0
M  V30 623 H 66.0774 -2.36325 3.44297 0
M  V30 624 N 66.5145 -1.57545 0.0417849 0
M  V30 625 C 67.4775 -2.09885 -0.92093 0
M  V30 626 C 68.4775 -1.01648 -1.24596 0
M  V30 627 O 69.6675 -1.27759 -1.1842 0
M  V30 628 C 66.7995 -2.57527 -2.23367 0
M  V30 629 H 67.9925 -2.96236 -0.467382 0
M  V30 630 H 65.5455 -1.5493 -0.206467 0
M  V30 631 H 66.2805 -1.74542 -2.73323 0
M  V30 632 H 66.0655 -3.36613 -2.01083 0
M  V30 633 H 67.5555 -2.98201 -2.92346 0
M  V30 634 N 67.9926 0.231505 -1.5589 0
M  V30 635 C 69.2406 0.955461 -1.78088 0
M  V30 636 C 69.5616 1.85262 -0.608533 0
M  V30 637 O 68.8316 1.92277 0.375035 0
M  V30 638 H 67.4116 0.355787 -0.656829 0
M  V30 639 H 70.0736 0.245751 -1.93344 0
M  V30 640 H 69.1696 1.56814 -2.69844 0
M  V30 641 N 69.4707 1.49531 0.497807 0
M  V30 642 C 70.3807 1.69176 1.62532 0
M  V30 643 C 71.3967 0.5744 1.64246 0
M  V30 644 O 72.5727 0.849497 1.82608 0
M  V30 645 C 69.6377 1.75695 2.98885 0
M  V30 646 C 68.6987 2.9929 3.07773 0
M  V30 647 C 67.9317 3.05488 4.37622 0
M  V30 648 O 68.1547 2.19192 5.26603 0
M  V30 649 O 67.0887 3.9798 4.51548 0
M  V30 650 H 70.9147 2.647 1.48887 0
M  V30 651 H 68.4997 1.3331 0.674441 0
M  V30 652 H 70.3817 1.82317 3.79919 0
M  V30 653 H 69.0567 0.8335 3.12785 0
M  V30 654 H 67.9637 2.98183 2.25915 0
M  V30 655 H 69.2967 3.91125 2.98801 0
M  V30 656 N 70.9488 -0.749086 1.3866 0
M  V30 657 C 72.1948 -1.51056 1.35314 0
M  V30 658 C 72.5278 -1.94121 -0.0553751 0
M  V30 659 O 71.8028 -1.65763 -1.01749 0
M  V30 660 C 72.0858 -2.76003 2.31288 0
M  V30 661 C 71.9388 -2.39047 3.8102 0
M  V30 662 C 73.2578 -3.78046 2.2532 0
M  V30 663 H 70.3768 -0.547972 0.492844 0
M  V30 664 H 73.0188 -0.857628 1.69543 0
M  V30 665 H 71.1688 -3.31716 2.02229 0
M  V30 666 H 72.8408 -1.89074 4.20771 0
M  V30 667 H 71.0838 -1.71449 3.98482 0
M  V30 668 H 71.7548 -3.28462 4.4364 0
M  V30 669 H 74.2308 -3.31884 2.50983 0
M  V30 670 H 73.1068 -4.63159 2.94576 0
M  V30 671 H 73.3678 -4.23957 1.25352 0
M  V30 672 N 72.4269 -1.23603 -0.977757 0
M  V30 673 C 73.3749 -1.01704 -2.09187 0
M  V30 674 C 74.3689 0.0448214 -1.69341 0
M  V30 675 O 75.5749 -0.108902 -1.7967 0
M  V30 676 H 71.9499 -0.311803 -0.684312 0
M  V30 677 H 73.9209 -1.96207 -2.24823 0
M  V30 678 C 72.6699 -0.627746 -3.41986 0
M  V30 679 H 71.9929 -1.43656 -3.73099 0
M  V30 680 H 73.4329 -0.514053 -4.20872 0
M  V30 681 C 71.8919 0.664238 -3.30287 0
M  V30 682 O 72.4219 1.71268 -3.6336 0
M  V30 683 N 70.6279 0.641156 -2.83439 0
M  V30 684 H 70.1749 -0.212376 -2.56723 0
M  V30 685 H 70.1329 1.50583 -2.75993 0
M  V30 686 N 73.905 1.17692 -1.04816 0
M  V30 687 C 74.815 2.25229 -0.65643 0
M  V30 688 C 75.831 1.71018 0.320761 0
M  V30 689 O 77.007 2.00649 0.173805 0
M  V30 690 C 74.072 3.46684 -0.0332629 0
M  V30 691 C 73.133 4.15997 -1.06042 0
M  V30 692 C 72.366 5.31654 -0.466893 0
M  V30 693 O 72.589 5.65777 0.724758 0
M  V30 694 O 71.523 5.89831 -1.1993 0
M  V30 695 H 75.349 2.61016 -1.55255 0
M  V30 696 H 72.934 1.24919 -0.81949 0
M  V30 697 H 74.816 4.20234 0.313256 0
M  V30 698 H 73.491 3.12703 0.836566 0
M  V30 699 H 72.398 3.44482 -1.45886 0
M  V30 700 H 73.731 4.53996 -1.90127 0
M  V30 701 N 75.3831 0.828654 1.34056 0
M  V30 702 C 76.6291 0.42008 1.98402 0
M  V30 703 C 76.9621 -1.01564 1.65525 0
M  V30 704 O 76.2371 -1.70834 0.929831 0
M  V30 705 C 76.5201 0.62927 3.54559 0
M  V30 706 C 76.3731 2.11152 3.97159 0
M  V30 707 C 77.6921 0.0688756 4.40046 0
M  V30 708 H 74.8111 0.154104 0.720709 0
M  V30 709 H 77.4531 1.04228 1.5886 0
M  V30 710 H 75.6031 0.0996418 3.88372 0
M  V30 711 H 77.2751 2.70522 3.73651 0
M  V30 712 H 75.5181 2.59985 3.47261 0
M  V30 713 H 76.1891 2.20868 5.05887 0
M  V30 714 H 78.6651 0.521458 4.1282 0
M  V30 715 H 77.5411 0.245006 5.48353 0
M  V30 716 H 77.8021 -1.0266 4.30015 0
M  V30 717 N 76.8612 -1.46375 0.584142 0
M  V30 718 C 78.1102 -2.01585 0.0679741 0
M  V30 719 C 78.4232 -1.46109 -1.30045 0
M  V30 720 O 79.6292 -1.93148 -1.90804 0
M  V30 721 C 78.0852 -3.5983 0.0709207 0
M  V30 722 C 77.6932 -4.24303 1.43775 0
M  V30 723 C 79.4372 -4.22693 -0.391228 0
M  V30 724 C 77.3442 -5.74631 1.39834 0
M  V30 725 H 76.2742 -0.753689 0.0216421 0
M  V30 726 H 78.9252 -1.68093 0.736001 0
M  V30 727 H 77.3072 -3.90405 -0.663299 0
M  V30 728 H 78.4812 -4.05335 2.19181 0
M  V30 729 H 76.7962 -3.73539 1.84004 0
M  V30 730 H 79.3932 -5.3289 -0.439524 0
M  V30 731 H 79.7362 -3.91728 -1.40906 0
M  V30 732 H 80.2692 -3.96749 0.288974 0
M  V30 733 H 77.0082 -6.10258 2.39303 0
M  V30 734 H 76.5282 -5.95858 0.686505 0
M  V30 735 H 78.2072 -6.37375 1.11187 0
M  V30 736 N 78.3393 -0.321999 -1.54275 0
M  V30 737 C 79.2693 0.537411 -2.27231 0
M  V30 738 C 80.2503 1.12064 -1.27968 0
M  V30 739 O 81.4353 1.14606 -1.56777 0
M  V30 740 C 78.5653 1.69919 -3.02894 0
M  V30 741 C 77.5193 1.24534 -4.09482 0
M  V30 742 C 76.8453 2.49394 -4.72977 0
M  V30 743 C 78.1453 0.361335 -5.21049 0
M  V30 744 H 79.8393 -0.0711406 -2.99315 0
M  V30 745 H 77.3853 -0.0356555 -1.43956 0
M  V30 746 H 79.3383 2.30668 -3.52662 0
M  V30 747 H 78.0623 2.33431 -2.28424 0
M  V30 748 H 76.7213 0.660782 -3.60596 0
M  V30 749 H 76.3693 3.11265 -3.95124 0
M  V30 750 H 76.0693 2.19718 -5.44975 0
M  V30 751 H 77.5933 3.10908 -5.25517 0
M  V30 752 H 79.0073 0.875072 -5.66582 0
M  V30 753 H 77.4043 0.157428 -5.99893 0
M  V30 754 H 78.4743 -0.60822 -4.8107 0
M  V30 755 N 79.8174 1.5752 -0.0501392 0
M  V30 756 C 81.0654 1.9227 0.622642 0
M  V30 757 C 81.3864 0.929083 1.71444 0
M  V30 758 O 80.6564 -0.0262186 1.95882 0
M  V30 759 H 79.2364 0.709739 0.232981 0
M  V30 760 H 81.8984 1.94628 -0.102898 0
M  V30 761 H 80.9944 2.93479 1.06191 0
M  V30 762 N 81.2955 -0.223234 1.56011 0
M  V30 763 C 82.2275 -1.30006 1.88762 0
M  V30 764 C 83.2405 -1.43129 0.775746 0
M  V30 765 O 84.4295 -1.44057 1.05403 0
M  V30 766 C 81.5295 -2.67589 2.07965 0
M  V30 767 C 80.7025 -2.76434 3.38973 0
M  V30 768 C 79.7615 -3.95019 3.47629 0
M  V30 769 O 78.7875 -3.83436 4.20672 0
M  V30 770 N 79.9895 -5.09249 2.78649 0
M  V30 771 H 82.7545 -1.02238 2.81722 0
M  V30 772 H 80.3155 -0.413278 1.56536 0
M  V30 773 H 82.3075 -3.45297 2.11073 0
M  V30 774 H 80.8775 -2.87964 1.21638 0
M  V30 775 H 80.0975 -1.85216 3.47978 0
M  V30 776 H 81.3855 -2.79313 4.25278 0
M  V30 777 H 80.7835 -5.21556 2.19081 0
M  V30 778 H 79.3405 -5.85007 2.8742 0
M  V30 779 N 82.7736 -1.49793 -0.48987 0
M  V30 780 C 84.0196 -1.60078 -1.24511 0
M  V30 781 C 84.3526 -0.291608 -1.91998 0
M  V30 782 O 83.6276 0.705647 -1.81248 0
M  V30 783 C 83.9106 -2.76791 -2.30345 0
M  V30 784 C 83.7636 -4.17535 -1.67286 0
M  V30 785 C 85.0826 -2.89111 -3.31817 0
M  V30 786 H 82.2016 -0.582645 -0.451324 0
M  V30 787 H 84.8436 -1.82117 -0.541612 0
M  V30 788 H 82.9936 -2.5813 -2.90346 0
M  V30 789 H 84.6656 -4.4774 -1.11026 0
M  V30 790 H 82.9086 -4.22665 -0.976577 0
M  V30 791 H 83.5796 -4.95094 -2.44103 0
M  V30 792 H 86.0556 -3.06133 -2.81819 0
M  V30 793 H 84.9316 -3.72433 -4.03219 0
M  V30 794 H 85.1926 -1.9893 -3.94815 0
M  V30 795 N 84.2517 0.741722 -1.39055 0
M  V30 796 C 85.1817 1.869 -1.39966 0
M  V30 797 C 86.1627 1.6804 -0.26392 0
M  V30 798 O 87.3477 1.88458 -0.468755 0
M  V30 799 C 84.4777 3.24572 -1.23574 0
M  V30 800 C 83.4317 3.58056 -2.34477 0
M  V30 801 C 82.7577 4.94593 -2.0318 0
M  V30 802 C 84.0577 3.61716 -3.76774 0
M  V30 803 H 85.7517 1.86395 -2.34302 0
M  V30 804 H 83.2977 0.895361 -1.1278 0
M  V30 805 H 85.2507 4.031 -1.22834 0
M  V30 806 H 83.9747 3.25587 -0.257045 0
M  V30 807 H 82.6337 2.81854 -2.34423 0
M  V30 808 H 82.2817 4.92181 -1.03765 0
M  V30 809 H 81.9817 5.17964 -2.77465 0
M  V30 810 H 83.5057 5.75486 -2.04079 0
M  V30 811 H 84.9197 4.30335 -3.78794 0
M  V30 812 H 83.3167 3.96603 -4.50362 0
M  V30 813 H 84.3867 2.61672 -4.08235 0
M  V30 814 N 85.7298 1.2412 0.971189 0
M  V30 815 C 87.1408 1.07236 1.52831 0
M  V30 816 C 87.4918 -0.357352 1.92918 0
M  V30 817 O 86.6168 -1.24528 1.76979 0
M  V30 818 C 87.2118 1.94043 2.77728 0
M  V30 819 C 85.7708 1.81394 3.29808 0
M  V30 820 C 84.9178 1.89189 2.02738 0
M  V30 821 H 87.8688 1.37648 0.789864 0
M  V30 822 H 87.8898 1.47066 3.5093 0
M  V30 823 H 87.4018 2.98093 2.4852 0
M  V30 824 H 85.5028 0.801634 3.63874 0
M  V30 825 H 85.6158 2.65294 3.98944 0
M  V30 826 H 83.9798 1.32877 2.17292 0
M  V30 827 H 84.7628 2.94812 1.759 0
M  V30 828 N 87.2079 -1.17134 1.05439 0
M  V30 829 C 88.1709 -2.19439 0.661764 0
M  V30 830 C 89.1709 -1.58199 -0.288042 0
M  V30 831 O 90.3609 -1.74053 -0.0715803 0
M  V30 832 C 87.4929 -3.40889 -0.0276209 0
M  V30 833 H 88.6859 -2.55688 1.56728 0
M  V30 834 H 86.2389 -1.31259 0.848567 0
M  V30 835 H 86.9739 -3.10187 -0.94629 0
M  V30 836 H 86.7589 -3.86586 0.655238 0
M  V30 837 H 88.2489 -4.16603 -0.288342 0
M  V30 838 N 88.686 -0.835752 -1.33615 0
M  V30 839 C 89.934 -0.429109 -1.97492 0
M  V30 840 C 90.255 1.01433 -1.66543 0
M  V30 841 O 89.525 1.70611 -0.962744 0
M  V30 842 H 88.105 -0.155686 -0.730596 0
M  V30 843 H 90.767 -1.06802 -1.63031 0
M  V30 844 H 89.863 -0.55861 -3.0706 0
M  V30 845 N 90.1641 1.46063 -0.591896 0
M  V30 846 C 91.0741 2.34192 0.13831 0
M  V30 847 C 92.0901 1.50305 0.876608 0
M  V30 848 O 93.2661 1.8315 0.837728 0
M  V30 849 C 90.3311 3.27656 1.13326 0
M  V30 850 C 89.3921 4.27445 0.39863 0
M  V30 851 C 88.6251 5.16443 1.34618 0
M  V30 852 O 88.8481 5.08553 2.58321 0
M  V30 853 O 87.7821 5.95843 0.851768 0
M  V30 854 H 91.6081 2.98002 -0.58552 0
M  V30 855 H 89.1931 1.45188 -0.352239 0
M  V30 856 H 91.0751 3.85291 1.70671 0
M  V30 857 H 89.7501 2.6643 1.83839 0
M  V30 858 H 88.6571 3.73471 -0.216895 0
M  V30 859 H 89.9901 4.91482 -0.265709 0
M  V30 860 N 91.6422 0.330177 1.54103 0
M  V30 861 C 92.8902 -0.269871 2.0029 0
M  V30 862 C 93.2112 -1.52133 1.21986 0
M  V30 863 O 92.4812 -1.93212 0.323438 0
M  V30 864 H 91.0612 -0.10271 0.739905 0
M  V30 865 H 93.7232 0.448249 1.89675 0
M  V30 866 H 92.8192 -0.52166 3.07709 0
M  V30 867 N 93.1203 -1.57491 0.0584922 0
M  V30 868 C 94.0523 -2.08916 -0.942694 0
M  V30 869 C 95.0653 -1.0185 -1.27006 0
M  V30 870 O 96.2543 -1.29398 -1.22957 0
M  V30 871 C 93.3543 -2.52341 -2.26224 0
M  V30 872 C 92.5273 -3.82827 -2.1157 0
M  V30 873 C 91.5863 -4.12487 -3.26712 0
M  V30 874 O 90.6123 -4.82295 -3.02292 0
M  V30 875 N 91.8143 -3.64978 -4.5141 0
M  V30 876 H 94.5793 -2.95437 -0.503722 0
M  V30 877 H 92.1403 -1.61397 -0.12757 0
M  V30 878 H 94.1323 -2.69254 -3.02133 0
M  V30 879 H 92.7023 -1.7103 -2.61663 0
M  V30 880 H 91.9223 -3.75425 -1.20208 0
M  V30 881 H 93.2103 -4.68263 -1.99015 0
M  V30 882 H 92.6083 -3.08558 -4.7414 0
M  V30 883 H 91.1653 -3.87115 -5.2439 0
M  V30 884 N 94.5984 0.214957 -1.56127 0
M  V30 885 C 95.5464 1.28601 -1.93816 0
M  V30 886 C 96.5404 1.48175 -0.821016 0
M  V30 887 O 97.7464 1.49271 -1.0059 0
M  V30 888 H 94.1214 0.431302 -0.616022 0
M  V30 889 H 96.0924 0.940991 -2.83175 0
M  V30 890 C 94.8414 2.62779 -2.27689 0
M  V30 891 H 94.1644 2.48527 -3.13168 0
M  V30 892 H 95.6044 3.36517 -2.57939 0
M  V30 893 C 94.0634 3.18285 -1.10436 0
M  V30 894 O 94.5934 4.00002 -0.368945 0
M  V30 895 N 92.7994 2.7675 -0.886433 0
M  V30 896 H 92.3464 2.10404 -1.48619 0
M  V30 897 H 92.3044 3.14229 -0.103656 0
M  V30 898 N 96.0765 1.50051 0.48192 0
M  V30 899 C 97.4875 1.5348 1.06305 0
M  V30 900 C 97.8385 0.331997 1.93371 0
M  V30 901 O 96.9635 -0.556256 2.09129 0
M  V30 902 C 97.5585 2.7813 1.93466 0
M  V30 903 C 96.1175 2.84275 2.46707 0
M  V30 904 C 95.2645 2.47637 1.24785 0
M  V30 905 H 98.2155 1.56472 0.264995 0
M  V30 906 H 98.2365 2.59372 2.78399 0
M  V30 907 H 97.7485 3.65654 1.30072 0
M  V30 908 H 95.8495 2.01077 3.13686 0
M  V30 909 H 95.9625 3.8691 2.82555 0
M  V30 910 H 94.3265 1.99835 1.57918 0
M  V30 911 H 95.1095 3.37457 0.630694 0
M  V30 912 N 97.5546 -0.734337 1.39446 0
M  V30 913 C 98.5176 -1.83004 1.37994 0
M  V30 914 C 99.5176 -1.58397 0.276938 0
M  V30 915 O 100.708 -1.65785 0.534875 0
M  V30 916 C 97.8396 -3.20802 1.1532 0
M  V30 917 H 99.0326 -1.85694 2.35494 0
M  V30 918 H 96.5856 -0.938059 1.25021 0
M  V30 919 H 97.3206 -3.23772 0.185036 0
M  V30 920 H 97.1056 -3.4006 1.95197 0
M  V30 921 H 98.5956 -4.00862 1.17046 0
M  V30 922 N 99.0327 -1.24633 -0.964593 0
M  V30 923 C 100.449 -1.01239 -1.2338 0
M  V30 924 C 100.649 0.2769 -1.99588 0
M  V30 925 O 99.7047 0.992241 -2.32187 0
M  V30 926 C 101.018 -2.22937 -2.01791 0
M  V30 927 C 102.566 -2.27594 -2.14872 0
M  V30 928 C 103.041 -3.48921 -2.96678 0
M  V30 929 N 104.532 -3.49257 -3.04259 0
M  V30 930 C 105.267 -4.39795 -3.67924 0
M  V30 931 N 104.763 -5.40591 -4.33281 0
M  V30 932 N 106.556 -4.275 -3.64966 0
M  V30 933 H 98.7067 -2.0748 -0.454502 0
M  V30 934 H 100.97 -0.910647 -0.26349 0
M  V30 935 H 100.676 -3.16587 -1.53184 0
M  V30 936 H 100.55 -2.25306 -3.02518 0
M  V30 937 H 102.937 -1.34473 -2.6268 0
M  V30 938 H 103.018 -2.2925 -1.13482 0
M  V30 939 H 102.662 -4.42359 -2.49562 0
M  V30 940 H 102.592 -3.4451 -3.98272 0
M  V30 941 H 105.083 -2.76337 -2.57771 0
M  V30 942 H 105.396 -6.05904 -4.79687 0
M  V30 943 H 103.741 -5.44475 -4.3194 0
M  V30 944 H 106.932 -3.47987 -3.13086 0
M  V30 945 H 107.105 -4.98258 -4.14298 0
M  V30 946 N 100.511 1.16574 -1.06058 0
M  V30 947 C 101.443 2.2045 -0.627239 0
M  V30 948 C 102.456 1.59752 0.313534 0
M  V30 949 O 103.645 1.78192 0.104896 0
M  V30 950 C 100.745 3.3875 0.100974 0
M  V30 951 C 99.9178 4.29008 -0.852687 0
M  V30 952 C 98.9768 5.25944 -0.164152 0
M  V30 953 O 98.0028 5.63535 -0.801047 0
M  V30 954 N 99.2048 5.70075 1.09518 0
M  V30 955 H 101.97 2.58249 -1.52077 0
M  V30 956 H 99.5308 1.3156 -0.943594 0
M  V30 957 H 101.523 4.00638 0.57194 0
M  V30 958 H 100.093 2.99476 0.89628 0
M  V30 959 H 99.3128 3.64419 -1.50308 0
M  V30 960 H 100.601 4.86195 -1.49972 0
M  V30 961 H 99.9988 5.41624 1.6328 0
M  V30 962 H 98.5558 6.34067 1.51006 0
M  V30 963 N 101.989 0.842826 1.3317 0
M  V30 964 C 102.952 0.284065 2.27433 0
M  V30 965 C 103.952 -0.54948 1.5112 0
M  V30 966 O 105.142 -0.362699 1.70382 0
M  V30 967 C 102.274 -0.599384 3.35589 0
M  V30 968 H 103.467 1.11589 2.78366 0
M  V30 969 H 101.02 0.616221 1.4364 0
M  V30 970 H 101.755 -1.45349 2.89904 0
M  V30 971 H 101.54 -0.00291266 3.921 0
M  V30 972 H 103.03 -0.983488 4.05854 0
M  V30 973 N 103.467 -1.45747 0.599634 0
M  V30 974 C 104.43 -2.28917 -0.113835 0
M  V30 975 C 105.43 -1.3933 -0.802729 0
M  V30 976 O 106.62 -1.61534 -0.652103 0
M  V30 977 C 103.752 -3.20152 -1.17114 0
M  V30 978 H 104.945 -2.93478 0.617289 0
M  V30 979 H 102.498 -1.52137 0.358327 0
M  V30 980 H 103.233 -2.60374 -1.93329 0
M  V30 981 H 103.018 -3.86133 -0.681468 0
M  V30 982 H 104.508 -3.82708 -1.67105 0
M  V30 983 N 104.945 -0.338344 -1.53925 0
M  V30 984 C 105.878 0.563758 -2.21127 0
M  V30 985 C 106.856 1.10433 -1.19345 0
M  V30 986 O 108.04 1.16557 -1.48144 0
M  V30 987 C 105.167 1.77505 -2.88461 0
M  V30 988 C 104.213 1.3644 -4.04087 0
M  V30 989 S 105.046 0.388593 -5.34088 0
M  V30 990 C 106.202 1.60683 -6.04923 0
M  V30 991 H 106.435 -0.00704546 -2.97299 0
M  V30 992 H 103.968 -0.122418 -1.53914 0
M  V30 993 H 105.926 2.46999 -3.27875 0
M  V30 994 H 104.587 2.31706 -2.12064 0
M  V30 995 H 103.78 2.26739 -4.50117 0
M  V30 996 H 103.382 0.748998 -3.66423 0
M  V30 997 H 105.674 2.54209 -6.28 0
M  V30 998 H 106.617 1.18842 -6.98056 0
M  V30 999 H 107.025 1.80052 -5.35015 0
M  V30 1000 N 106.423 1.57458 -0.0668435 0
M  V30 1001 C 107.37 2.12439 0.902122 0
M  V30 1002 C 108.34 1.03565 1.2986 0
M  V30 1003 O 109.525 1.312 1.38532 0
M  V30 1004 C 106.665 2.6865 2.16614 0
M  V30 1005 C 105.778 3.91663 1.82274 0
M  V30 1006 C 104.913 4.36134 3.0325 0
M  V30 1007 C 103.952 5.51808 2.64904 0
M  V30 1008 N 103.089 5.9126 3.78624 0
M  V30 1009 H 107.929 2.94934 0.426382 0
M  V30 1010 H 105.466 1.4575 0.198819 0
M  V30 1011 H 107.424 2.99346 2.90599 0
M  V30 1012 H 106.054 1.88928 2.61737 0
M  V30 1013 H 105.106 3.6746 0.983719 0
M  V30 1014 H 106.418 4.75693 1.50059 0
M  V30 1015 H 105.572 4.68465 3.85519 0
M  V30 1016 H 104.311 3.50948 3.38655 0
M  V30 1017 H 103.316 5.19133 1.81055 0
M  V30 1018 H 104.541 6.38722 2.30675 0
M  V30 1019 H 102.487 5.09024 4.138 0
M  V30 1020 H 102.404 6.70018 3.5016 0
M  V30 1021 H 103.672 6.28212 4.61486 0
M  V30 1022 N 107.901 -0.206675 1.56239 0
M  V30 1023 C 108.864 -1.23976 1.92776 0
M  V30 1024 C 109.864 -1.39041 0.807729 0
M  V30 1025 O 111.054 -1.37051 1.0753 0
M  V30 1026 C 108.186 -2.61112 2.19165 0
M  V30 1027 H 109.379 -0.927764 2.85189 0
M  V30 1028 H 106.932 -0.447718 1.4975 0
M  V30 1029 H 107.667 -2.97386 1.29352 0
M  V30 1030 H 107.452 -2.51552 3.00772 0
M  V30 1031 H 108.942 -3.35633 2.48476 0
M  V30 1032 N 109.379 -1.50304 -0.473955 0
M  V30 1033 C 110.627 -1.60832 -1.22382 0
M  V30 1034 C 110.948 -0.30939 -1.9253 0
M  V30 1035 O 110.218 0.67296 -1.83978 0
M  V30 1036 H 108.798 -0.592652 -0.454723 0
M  V30 1037 H 111.46 -1.87068 -0.546968 0
M  V30 1038 H 110.556 -2.41803 -1.97327 0
M  V30 1039 N 110.857 0.726932 -1.39834 0
M  V30 1040 C 112.103 1.48884 -1.377 0
M  V30 1041 C 112.436 1.94185 0.0244852 0
M  V30 1042 O 111.711 1.67361 0.990986 0
M  V30 1043 C 111.994 2.72288 -2.3565 0
M  V30 1044 C 111.847 2.32956 -3.84775 0
M  V30 1045 C 113.166 3.74414 -2.31306 0
M  V30 1046 H 110.285 0.540062 -0.5015 0
M  V30 1047 H 112.927 0.830547 -1.70886 0
M  V30 1048 H 111.077 3.28457 -2.07481 0
M  V30 1049 H 112.749 1.82356 -4.23726 0
M  V30 1050 H 110.992 1.65088 -4.01159 0
M  V30 1051 H 111.663 3.21362 -4.4881 0
M  V30 1052 H 114.139 3.27849 -2.56231 0
M  V30 1053 H 113.015 4.58414 -3.01907 0
M  V30 1054 H 113.276 4.21909 -1.32081 0
M  V30 1055 N 112.336 1.25143 0.95797 0
M  V30 1056 C 113.747 1.08851 1.51685 0
M  V30 1057 C 114.098 -0.33687 1.93286 0
M  V30 1058 O 113.223 -1.22644 1.7829 0
M  V30 1059 C 113.818 1.96978 2.75654 0
M  V30 1060 C 112.377 1.84881 3.27866 0
M  V30 1061 C 111.524 1.91329 2.0072 0
M  V30 1062 H 114.475 1.38478 0.77522 0
M  V30 1063 H 114.496 1.5078 3.4935 0
M  V30 1064 H 114.008 3.00712 2.45345 0
M  V30 1065 H 112.109 0.840182 3.63004 0
M  V30 1066 H 112.222 2.6951 3.96107 0
M  V30 1067 H 110.586 1.35174 2.15871 0
M  V30 1068 H 111.369 2.96661 1.72764 0
M  V30 1069 N 113.814 -1.1601 1.06675 0
M  V30 1070 C 114.746 -2.20115 0.638921 0
M  V30 1071 C 115.759 -1.59916 -0.305057 0
M  V30 1072 O 116.948 -1.78245 -0.0954446 0
M  V30 1073 C 114.048 -3.38798 -0.0830083 0
M  V30 1074 C 113.221 -4.2855 0.875426 0
M  V30 1075 C 112.28 -5.25849 0.192042 0
M  V30 1076 O 111.306 -5.63102 0.830921 0
M  V30 1077 N 112.508 -5.70648 -1.06493 0
M  V30 1078 H 115.273 -2.57439 1.53444 0
M  V30 1079 H 112.834 -1.31057 0.950557 0
M  V30 1080 H 114.826 -4.00936 -0.550685 0
M  V30 1081 H 113.396 -2.99947 -0.880386 0
M  V30 1082 H 112.616 -3.63617 1.52238 0
M  V30 1083 H 113.904 -4.85393 1.52548 0
M  V30 1084 H 113.302 -5.42482 -1.60405 0
M  V30 1085 H 111.859 -6.34859 -1.47641 0
M  V30 1086 N 115.292 -0.849877 -1.32721 0
M  V30 1087 C 116.202 -0.293791 -2.32753 0
M  V30 1088 C 117.218 0.585906 -1.63839 0
M  V30 1089 O 118.394 0.487413 -1.95413 0
M  V30 1090 C 115.459 0.512752 -3.42887 0
M  V30 1091 C 114.52 -0.39252 -4.27502 0
M  V30 1092 C 113.753 0.375625 -5.32377 0
M  V30 1093 O 113.976 1.60613 -5.4732 0
M  V30 1094 O 112.91 -0.256094 -6.01355 0
M  V30 1095 H 116.736 -1.12242 -2.82197 0
M  V30 1096 H 114.321 -0.612685 -1.36259 0
M  V30 1097 H 116.203 0.970704 -4.10067 0
M  V30 1098 H 114.878 1.31826 -2.95641 0
M  V30 1099 H 113.785 -0.898547 -3.63149 0
M  V30 1100 H 115.118 -1.16309 -4.7826 0
M  V30 1101 N 116.77 1.45427 -0.607355 0
M  V30 1102 C 117.733 2.28974 0.101693 0
M  V30 1103 C 118.733 1.39754 0.795329 0
M  V30 1104 O 119.923 1.61878 0.643527 0
M  V30 1105 C 117.055 3.20768 1.15414 0
M  V30 1106 H 118.248 2.93147 -0.632844 0
M  V30 1107 H 115.801 1.51945 -0.366391 0
M  V30 1108 H 116.536 2.61395 1.91945 0
M  V30 1109 H 116.321 3.86489 0.66098 0
M  V30 1110 H 117.811 3.83589 1.65073 0
M  V30 1111 N 118.248 0.346503 1.53744 0
M  V30 1112 C 119.476 -0.25041 2.05379 0
M  V30 1113 C 119.891 -1.43979 1.22129 0
M  V30 1114 O 119.248 -1.80677 0.257321 0
M  V30 1115 C 119.299 -0.662575 3.55376 0
M  V30 1116 O 119.02 0.479515 4.35468 0
M  V30 1117 C 120.521 -1.31989 4.23195 0
M  V30 1118 H 117.741 -0.0478198 0.669294 0
M  V30 1119 H 120.285 0.499346 1.9831 0
M  V30 1120 H 118.44 -1.36227 3.62658 0
M  V30 1121 H 118.854 0.15037 5.24284 0
M  V30 1122 H 120.328 -1.55902 5.29527 0
M  V30 1123 H 120.805 -2.27436 3.75725 0
M  V30 1124 H 121.411 -0.662154 4.20114 0
M  V30 1125 N 119.726 -1.57421 0.075193 0
M  V30 1126 C 120.689 -2.11791 -0.876203 0
M  V30 1127 C 121.689 -1.04268 -1.22412 0
M  V30 1128 O 122.879 -1.30242 -1.15684 0
M  V30 1129 C 120.011 -2.62207 -2.17854 0
M  V30 1130 H 121.204 -2.9716 -0.40444 0
M  V30 1131 H 118.757 -1.55333 -0.173557 0
M  V30 1132 H 119.492 -1.803 -2.6956 0
M  V30 1133 H 119.277 -3.40802 -1.93897 0
M  V30 1134 H 120.767 -3.04335 -2.85955 0
M  V30 1135 N 121.204 0.198386 -1.56346 0
M  V30 1136 C 122.45 0.916115 -1.81601 0
M  V30 1137 C 122.805 1.81025 -0.651744 0
M  V30 1138 O 122.098 1.88316 0.353229 0
M  V30 1139 C 122.292 1.77031 -3.10475 0
M  V30 1140 C 122.121 0.960365 -4.39326 0
M  V30 1141 C 120.891 0.646093 -5.01152 0
M  V30 1142 C 123.089 0.314628 -5.13337 0
M  V30 1143 N 121.071 -0.182828 -6.13628 0
M  V30 1144 C 122.442 -0.37664 -6.18855 0
M  V30 1145 C 124.497 0.230019 -4.97368 0
M  V30 1146 C 123.2 -1.14445 -7.10137 0
M  V30 1147 C 125.226 -0.524389 -5.89071 0
M  V30 1148 C 124.588 -1.20412 -6.94032 0
M  V30 1149 H 120.687 0.314732 -0.715868 0
M  V30 1150 H 123.271 0.185102 -1.93818 0
M  V30 1151 H 121.442 2.47295 -2.99499 0
M  V30 1152 H 123.174 2.42727 -3.2383 0
M  V30 1153 H 119.929 0.969724 -4.63566 0
M  V30 1154 H 120.353 -0.586802 -6.74452 0
M  V30 1155 H 124.995 0.741184 -4.16253 0
M  V30 1156 H 122.713 -1.66706 -7.90718 0
M  V30 1157 H 126.299 -0.591167 -5.78789 0
M  V30 1158 H 125.179 -1.77853 -7.63766 0
M  V30 1159 N 122.682 1.50554 0.465978 0
M  V30 1160 C 123.93 1.61479 1.21528 0
M  V30 1161 C 124.251 0.319596 1.92363 0
M  V30 1162 O 123.521 -0.663194 1.84333 0
M  V30 1163 H 122.101 0.595055 0.451573 0
M  V30 1164 H 124.763 1.87355 0.53704 0
M  V30 1165 H 123.859 2.42846 1.96042 0
M  V30 1166 N 124.16 -0.719506 1.40217 0
M  V30 1167 C 125.093 -1.84298 1.34571 0
M  V30 1168 C 126.071 -1.61149 0.216741 0
M  V30 1169 O 127.255 -1.84212 0.399756 0
M  V30 1170 C 124.382 -3.20568 1.09335 0
M  V30 1171 C 123.428 -3.62551 2.24631 0
M  V30 1172 S 124.261 -3.7012 3.87004 0
M  V30 1173 C 125.417 -5.09154 3.64024 0
M  V30 1174 H 125.65 -1.88807 2.2965 0
M  V30 1175 H 123.183 -0.885901 1.26456 0
M  V30 1176 H 125.141 -3.99246 0.954602 0
M  V30 1177 H 123.802 -3.13696 0.159164 0
M  V30 1178 H 122.995 -4.61483 2.02606 0
M  V30 1179 H 122.597 -2.91119 2.34789 0
M  V30 1180 H 124.889 -5.95955 3.22248 0
M  V30 1181 H 125.832 -5.36213 4.62473 0
M  V30 1182 H 126.24 -4.79562 2.97793 0
M  V30 1183 N 125.638 -1.25649 -0.95132 0
M  V30 1184 C 126.586 -1.06118 -2.06982 0
M  V30 1185 C 127.58 0.00889169 -1.69398 0
M  V30 1186 O 128.786 -0.146988 -1.79399 0
M  V30 1187 H 125.161 -0.326248 -0.677544 0
M  V30 1188 H 127.132 -2.00932 -2.2061 0
M  V30 1189 C 125.881 -0.700145 -3.40578 0
M  V30 1190 H 125.204 -1.51537 -3.69968 0
M  V30 1191 H 126.644 -0.603211 -4.19687 0
M  V30 1192 C 125.103 0.59403 -3.31622 0
M  V30 1193 O 125.633 1.63522 -3.66911 0
M  V30 1194 N 123.839 0.58089 -2.84735 0
M  V30 1195 H 123.386 -0.266783 -2.56215 0
M  V30 1196 H 123.344 1.44695 -2.79125 0
M  V30 1197 N 127.117 1.15442 -1.07289 0
M  V30 1198 C 128.049 2.19773 -0.650585 0
M  V30 1199 C 129.062 1.60076 0.296572 0
M  V30 1200 O 130.251 1.78293 0.0859905 0
M  V30 1201 C 127.351 3.38838 0.0650398 0
M  V30 1202 C 126.524 4.2808 -0.898141 0
M  V30 1203 C 125.583 5.2574 -0.219926 0
M  V30 1204 O 124.609 5.62654 -0.860773 0
M  V30 1205 N 125.811 5.71205 1.03466 0
M  V30 1206 H 128.576 2.56622 -1.54808 0
M  V30 1207 H 126.137 1.30551 -0.957494 0
M  V30 1208 H 128.129 4.01222 0.529415 0
M  V30 1209 H 126.699 3.00409 0.864466 0
M  V30 1210 H 125.919 3.62804 -1.54165 0
M  V30 1211 H 127.207 4.84577 -1.5512 0
M  V30 1212 H 126.605 5.43325 1.57526 0
M  V30 1213 H 125.162 6.35633 1.44272 0
M  V30 1214 N 128.595 0.856903 1.32268 0
M  V30 1215 C 129.525 0.31858 2.31316 0
M  V30 1216 C 130.506 -0.583487 1.59779 0
M  V30 1217 O 131.691 -0.503259 1.87566 0
M  V30 1218 C 128.821 -0.491979 3.43798 0
M  V30 1219 C 127.775 0.315849 4.26833 0
M  V30 1220 C 127.101 -0.619586 5.31098 0
M  V30 1221 C 128.401 1.54282 4.98993 0
M  V30 1222 H 130.095 1.14621 2.76591 0
M  V30 1223 H 127.641 0.552613 1.32974 0
M  V30 1224 H 129.594 -0.879012 4.1213 0
M  V30 1225 H 128.318 -1.35299 2.97257 0
M  V30 1226 H 126.977 0.684664 3.6015 0
M  V30 1227 H 126.625 -1.47751 4.8081 0
M  V30 1228 H 126.325 -0.0830621 5.87541 0
M  V30 1229 H 127.849 -1.00375 6.02293 0
M  V30 1230 H 129.263 1.22796 5.59995 0
M  V30 1231 H 127.66 2.01745 5.65172 0
M  V30 1232 H 128.73 2.30285 4.26728 0
M  V30 1233 N 130.073 -1.45103 0.615059 0
M  V30 1234 C 131.313 -2.04069 0.116282 0
M  V30 1235 C 131.677 -1.4721 -1.2326 0
M  V30 1236 O 132.878 -1.97577 -1.82255 0
M  V30 1237 C 131.149 -3.57298 0.085482 0
M  V30 1238 S 132.708 -4.37394 -0.351015 0
M  V30 1239 H 129.526 -0.709006 0.0532183 0
M  V30 1240 H 132.128 -1.77709 0.81484 0
M  V30 1241 H 130.832 -3.9619 1.0706 0
M  V30 1242 H 130.363 -3.88244 -0.634835 0
M  V30 1243 H 132.378 -4.69734 -1.59889 0
M  V30 1244 N 131.551 -0.354651 -1.53558 0
M  V30 1245 C 132.799 0.237972 -2.00694 0
M  V30 1246 C 133.12 1.50173 -1.24391 0
M  V30 1247 O 132.39 1.92673 -0.354135 0
M  V30 1248 H 130.97 0.0909256 -0.741446 0
M  V30 1249 H 133.632 -0.478368 -1.88938 0
M  V30 1250 H 132.728 0.47264 -3.085 0
M  V30 1251 N 133.029 1.57378 -0.0835403 0
M  V30 1252 C 134.254 1.98682 0.594987 0
M  V30 1253 C 134.679 0.961969 1.61641 0
M  V30 1254 O 134.037 -0.0709989 1.81161 0
M  V30 1255 C 134.085 3.38988 1.2296 0
M  V30 1256 O 133.189 3.39208 2.34546 0
M  V30 1257 H 132.53 0.646368 0.152002 0
M  V30 1258 H 135.06 2.03961 -0.161533 0
M  V30 1259 H 135.07 3.76431 1.57366 0
M  V30 1260 H 133.745 4.13107 0.481228 0
M  V30 1261 H 132.322 3.13548 2.01846 0
M  V30 1262 N 134.507 -0.190092 1.56449 0
M  V30 1263 C 135.755 -0.907908 1.80559 0
M  V30 1264 C 136.076 -1.83583 0.657438 0
M  V30 1265 O 135.346 -1.93203 -0.323924 0
M  V30 1266 H 133.926 -0.338247 0.666032 0
M  V30 1267 H 136.588 -0.194403 1.93928 0
M  V30 1268 H 135.684 -1.49604 2.73907 0
M  V30 1269 N 135.985 -1.50799 -0.457987 0
M  V30 1270 C 136.915 -1.73553 -1.5621 0
M  V30 1271 C 137.896 -0.584774 -1.59732 0
M  V30 1272 O 139.081 -0.825314 -1.7579 0
M  V30 1273 C 136.211 -1.84169 -2.94447 0
M  V30 1274 C 135.165 -2.99461 -3.0579 0
M  V30 1275 C 134.491 -2.95235 -4.45803 0
M  V30 1276 C 135.791 -4.39766 -2.81786 0
M  V30 1277 H 137.485 -2.66 -1.37421 0
M  V30 1278 H 135.031 -1.28002 -0.659662 0
M  V30 1279 H 136.984 -1.98672 -3.71628 0
M  V30 1280 H 135.708 -0.883545 -3.14422 0
M  V30 1281 H 134.367 -2.8463 -2.31044 0
M  V30 1282 H 134.015 -1.97239 -4.62715 0
M  V30 1283 H 133.715 -3.72642 -4.54326 0
M  V30 1284 H 135.239 -3.11803 -5.24987 0
M  V30 1285 H 136.653 -4.55054 -3.4871 0
M  V30 1286 H 135.05 -5.18722 -3.0174 0
M  V30 1287 H 136.12 -4.51229 -1.7754 0
M  V30 1288 N 137.463 0.71206 -1.40597 0
M  V30 1289 C 138.879 1.02058 -1.22704 0
M  V30 1290 C 139.079 2.01228 -0.104729 0
M  V30 1291 O 138.135 2.4674 0.53624 0
M  V30 1292 C 139.448 1.56094 -2.57012 0
M  V30 1293 C 140.996 1.6806 -2.64054 0
M  V30 1294 C 141.471 2.25501 -3.9864 0
M  V30 1295 N 142.962 2.32882 -4.004 0
M  V30 1296 C 143.697 2.78317 -5.01325 0
M  V30 1297 N 143.193 3.23478 -6.12645 0
M  V30 1298 N 144.986 2.77733 -4.88693 0
M  V30 1299 H 137.137 0.0547896 -2.12329 0
M  V30 1300 H 139.4 0.0869027 -0.944008 0
M  V30 1301 H 139.106 0.906865 -3.39807 0
M  V30 1302 H 138.98 2.54564 -2.78347 0
M  V30 1303 H 141.367 2.32583 -1.81629 0
M  V30 1304 H 141.448 0.681802 -2.46546 0
M  V30 1305 H 141.092 1.61598 -4.81506 0
M  V30 1306 H 141.022 3.26102 -4.13479 0
M  V30 1307 H 143.513 2.00991 -3.20017 0
M  V30 1308 H 143.826 3.56725 -6.85542 0
M  V30 1309 H 142.171 3.21429 -6.16205 0
M  V30 1310 H 145.362 2.4179 -4.00818 0
M  V30 1311 H 145.535 3.12826 -5.67489 0
M  V30 1312 N 138.941 1.26152 0.944643 0
M  V30 1313 C 139.904 1.07474 2.0244 0
M  V30 1314 C 140.904 0.0242064 1.60782 0
M  V30 1315 O 142.094 0.267302 1.72137 0
M  V30 1316 C 139.226 0.633956 3.34953 0
M  V30 1317 H 140.419 2.03336 2.20442 0
M  V30 1318 H 137.972 1.087 1.12312 0
M  V30 1319 H 138.707 -0.326811 3.22649 0
M  V30 1320 H 138.492 1.39247 3.66542 0
M  V30 1321 H 139.982 0.52501 4.14287 0
M  V30 1322 N 140.419 -1.14872 1.07899 0
M  V30 1323 C 141.665 -1.86064 0.806725 0
M  V30 1324 C 141.998 -1.82434 -0.665706 0
M  V30 1325 O 141.273 -1.25138 -1.48899 0
M  V30 1326 C 141.556 -3.34929 1.32267 0
M  V30 1327 C 141.409 -3.47161 2.86006 0
M  V30 1328 C 142.728 -4.29863 0.943717 0
M  V30 1329 H 139.847 -0.675591 0.294526 0
M  V30 1330 H 142.489 -1.34925 1.33773 0
M  V30 1331 H 140.639 -3.78611 0.870974 0
M  V30 1332 H 142.311 -3.12302 3.39507 0
M  V30 1333 H 140.554 -2.88539 3.23925 0
M  V30 1334 H 141.225 -4.51777 3.17177 0
M  V30 1335 H 143.701 -3.9417 1.33302 0
M  V30 1336 H 142.577 -5.32494 1.33198 0
M  V30 1337 H 142.838 -4.41846 -0.149796 0
M  V30 1338 N 141.898 -0.863906 -1.31812 0
M  V30 1339 C 142.861 -0.320212 -2.26952 0
M  V30 1340 C 143.861 0.525369 -1.51975 0
M  V30 1341 O 145.051 0.335547 -1.70938 0
M  V30 1342 C 142.183 0.545919 -3.365 0
M  V30 1343 H 143.376 -1.16004 -2.76556 0
M  V30 1344 H 140.929 -0.638995 -1.42641 0
M  V30 1345 H 141.664 1.40718 -2.92179 0
M  V30 1346 H 141.449 -0.0594674 -3.92055 0
M  V30 1347 H 142.939 0.918796 -4.07367 0
M  V30 1348 N 143.376 1.44774 -0.622745 0
M  V30 1349 C 144.306 2.33382 0.0741861 0
M  V30 1350 C 145.287 1.47719 0.843387 0
M  V30 1351 O 146.472 1.76458 0.810934 0
M  V30 1352 C 143.602 3.30663 1.06204 0
M  V30 1353 C 142.556 4.26079 0.405037 0
M  V30 1354 C 141.882 5.13165 1.5022 0
M  V30 1355 C 143.182 5.1781 -0.683414 0
M  V30 1356 H 144.876 2.91905 -0.665713 0
M  V30 1357 H 142.422 1.40363 -0.321587 0
M  V30 1358 H 144.375 3.9153 1.55827 0
M  V30 1359 H 143.099 2.70331 1.83272 0
M  V30 1360 H 141.758 3.66532 -0.0704683 0
M  V30 1361 H 141.406 4.49191 2.26355 0
M  V30 1362 H 141.106 5.77812 1.06803 0
M  V30 1363 H 142.63 5.76902 2.00041 0
M  V30 1364 H 144.044 5.72661 -0.270631 0
M  V30 1365 H 142.441 5.91015 -1.04023 0
M  V30 1366 H 143.511 4.59326 -1.55395 0
M  V30 1367 N 144.854 0.36279 1.53368 0
M  V30 1368 C 146.102 -0.227326 2.00817 0
M  V30 1369 C 146.423 -1.49511 1.25186 0
M  V30 1370 O 145.693 -1.92482 0.364348 0
M  V30 1371 H 144.273 -0.0869923 0.741917 0
M  V30 1372 H 146.935 0.488381 1.88682 0
M  V30 1373 H 146.031 -0.456273 3.08747 0
M  V30 1374 N 146.332 -1.57332 0.0918853 0
M  V30 1375 C 147.265 -2.09499 -0.904735 0
M  V30 1376 C 148.243 -1.00479 -1.27839 0
M  V30 1377 O 149.427 -1.27954 -1.38419 0
M  V30 1378 C 146.554 -2.56931 -2.2069 0
M  V30 1379 C 145.6 -3.77579 -1.98334 0
M  V30 1380 S 146.433 -5.21317 -1.22428 0
M  V30 1381 C 147.589 -5.72097 -2.53882 0
M  V30 1382 H 147.822 -2.93705 -0.460922 0
M  V30 1383 H 145.355 -1.53923 -0.121332 0
M  V30 1384 H 147.313 -2.84917 -2.95521 0
M  V30 1385 H 145.974 -1.72956 -2.62192 0
M  V30 1386 H 145.167 -4.08824 -2.94752 0
M  V30 1387 H 144.769 -3.5007 -1.31633 0
M  V30 1388 H 147.061 -5.80168 -3.49874 0
M  V30 1389 H 148.004 -6.70654 -2.27219 0
M  V30 1390 H 148.412 -5.00012 -2.62007 0
M  V30 1391 N 147.81 0.181792 -1.56548 0
M  V30 1392 C 148.742 1.24956 -1.92142 0
M  V30 1393 C 149.755 1.41022 -0.813422 0
M  V30 1394 O 150.944 1.41212 -1.09186 0
M  V30 1395 C 148.044 2.61981 -2.14987 0
M  V30 1396 C 147.217 2.6735 -3.46183 0
M  V30 1397 C 146.276 3.85664 -3.5798 0
M  V30 1398 O 145.302 3.72148 -4.30691 0
M  V30 1399 N 146.504 5.01683 -2.92053 0
M  V30 1400 H 149.269 0.947329 -2.84334 0
M  V30 1401 H 146.83 0.371629 -1.57577 0
M  V30 1402 H 148.822 3.3958 -2.20154 0
M  V30 1403 H 147.392 2.84637 -1.2923 0
M  V30 1404 H 146.612 1.75925 -3.52766 0
M  V30 1405 H 147.9 2.67939 -4.32534 0
M  V30 1406 H 147.298 5.15564 -2.32832 0
M  V30 1407 H 145.855 5.77181 -3.0283 0
M  V30 1408 N 149.288 1.51039 0.449983 0
M  V30 1409 C 150.22 1.67617 1.56324 0
M  V30 1410 C 151.233 0.557083 1.52972 0
M  V30 1411 O 152.422 0.830989 1.57977 0
M  V30 1412 C 149.522 1.66402 2.95235 0
M  V30 1413 C 148.695 2.9469 3.23229 0
M  V30 1414 C 147.754 2.85832 4.41799 0
M  V30 1415 O 146.78 3.59785 4.41071 0
M  V30 1416 N 147.982 2.00821 5.44657 0
M  V30 1417 H 150.747 2.63648 1.42512 0
M  V30 1418 H 148.308 1.48767 0.638737 0
M  V30 1419 H 150.3 1.58062 3.72557 0
M  V30 1420 H 148.87 0.780182 3.02708 0
M  V30 1421 H 148.09 3.16996 2.34323 0
M  V30 1422 H 149.378 3.79636 3.38754 0
M  V30 1423 H 148.776 1.40091 5.48079 0
M  V30 1424 H 147.333 1.98368 6.20881 0
M  V30 1425 N 150.766 -0.704594 1.40972 0
M  V30 1426 C 152.015 -1.46018 1.39146 0
M  V30 1427 C 152.328 -1.956 0.000589254 0
M  V30 1428 O 153.534 -2.71137 -0.1403 0
M  V30 1429 C 151.99 -2.63996 2.4461 0
M  V30 1430 C 151.598 -2.21238 3.89561 0
M  V30 1431 C 153.342 -3.41677 2.51907 0
M  V30 1432 C 151.249 -3.3612 4.86598 0
M  V30 1433 H 150.179 -0.548444 0.517422 0
M  V30 1434 H 152.83 -0.765784 1.66757 0
M  V30 1435 H 151.212 -3.3566 2.10115 0
M  V30 1436 H 152.386 -1.56923 4.33257 0
M  V30 1437 H 150.701 -1.56574 3.85841 0
M  V30 1438 H 153.298 -4.27182 3.2159 0
M  V30 1439 H 153.641 -3.86247 1.55303 0
M  V30 1440 H 154.174 -2.77064 2.85448 0
M  V30 1441 H 150.913 -2.96572 5.84573 0
M  V30 1442 H 150.433 -3.99315 4.47557 0
M  V30 1443 H 152.112 -4.02029 5.06934 0
M  V30 1444 N 152.244 -1.26651 -0.937939 0
M  V30 1445 C 153.207 -1.08546 -2.01867 0
M  V30 1446 C 154.207 -0.0327327 -1.60767 0
M  V30 1447 O 155.397 -0.276427 -1.71993 0
M  V30 1448 C 152.529 -0.651711 -3.34613 0
M  V30 1449 H 153.722 -2.04502 -2.1936 0
M  V30 1450 H 151.275 -1.09294 -1.11734 0
M  V30 1451 H 152.01 0.309696 -3.22818 0
M  V30 1452 H 151.795 -1.41189 -3.65798 0
M  V30 1453 H 153.285 -0.546973 -4.14002 0
M  V30 1454 N 153.722 1.14298 -1.08507 0
M  V30 1455 C 154.95 1.89219 -0.836876 0
M  V30 1456 C 155.365 1.78638 0.611054 0
M  V30 1457 O 154.722 1.14643 1.41998 0
M  V30 1458 C 154.773 3.39158 -1.25116 0
M  V30 1459 O 154.494 3.49449 -2.64229 0
M  V30 1460 C 155.995 4.31073 -1.03398 0
M  V30 1461 H 153.215 0.599328 -0.301739 0
M  V30 1462 H 155.759 1.44746 -1.44461 0
M  V30 1463 H 153.914 3.81251 -0.687514 0
M  V30 1464 H 154.328 4.42589 -2.81452 0
M  V30 1465 H 155.802 5.34646 -1.37323 0
M  V30 1466 H 156.279 4.3919 0.0289259 0
M  V30 1467 H 156.885 3.94738 -1.58311 0
M  V30 1468 N 155.201 0.870884 1.31352 0
M  V30 1469 C 156.449 0.48132 1.96285 0
M  V30 1470 C 156.77 -0.969813 1.69173 0
M  V30 1471 O 156.04 -1.67998 1.00764 0
M  V30 1472 H 154.62 0.175002 0.726212 0
M  V30 1473 H 157.282 1.11087 1.60143 0
M  V30 1474 H 156.378 0.639825 3.05471 0
M  V30 1475 N 156.679 -1.44442 0.630414 0
M  V30 1476 C 157.956 -1.9549 0.0655657 0
M  V30 1477 C 158.336 -1.5724 -1.40851 0
M  V30 1478 O 157.684 -0.846116 -2.12257 0
M  V30 1479 C 157.894 -3.47812 0.287691 0
M  V30 1480 C 159.242 -4.24216 0.180513 0
M  V30 1481 O 160.266 -3.55526 0.219019 0
M  V30 1482 O 159.125 -5.46434 0.0848493 0
M  V30 1483 H 156.219 -0.826688 -0.0227177 0
M  V30 1484 H 158.765 -1.54496 0.702068 0
M  V30 1485 H 157.537 -3.687 1.31056 0
M  V30 1486 H 157.16 -3.95751 -0.382984 0
M  V30 1487 N 158.157 -0.370918 -1.53173 0
M  V30 1488 C 159.12 0.460778 -2.24521 0
M  V30 1489 C 160.12 1.00536 -1.25496 0
M  V30 1490 O 161.31 0.890266 -1.49733 0
M  V30 1491 C 158.442 1.64457 -2.98608 0
M  V30 1492 H 159.635 -0.163613 -2.99453 0
M  V30 1493 H 157.188 -0.122699 -1.55818 0
M  V30 1494 H 157.923 2.30691 -2.2793 0
M  V30 1495 H 157.708 1.26099 -3.7127 0
M  V30 1496 H 159.198 2.23384 -3.5283 0
M  V30 1497 N 159.635 1.57281 -0.100228 0
M  V30 1498 C 160.86 1.99302 0.573881 0
M  V30 1499 C 161.285 0.979059 1.60611 0
M  V30 1500 O 160.643 -0.0517803 1.81226 0
M  V30 1501 C 160.691 3.40274 1.19358 0
M  V30 1502 O 159.795 3.41676 2.30935 0
M  V30 1503 H 159.136 0.647944 0.145138 0
M  V30 1504 H 161.666 2.03779 -0.183156 0
M  V30 1505 H 161.676 3.78078 1.53365 0
M  V30 1506 H 160.351 4.13594 0.437385 0
M  V30 1507 H 158.928 3.15672 1.98509 0
M  V30 1508 N 161.113 -0.173488 1.56642 0
M  V30 1509 C 162.362 -0.888758 1.81063 0
M  V30 1510 C 162.675 -1.83506 0.67712 0
M  V30 1511 O 163.881 -2.59254 0.806206 0
M  V30 1512 C 162.337 -1.63091 3.20826 0
M  V30 1513 C 161.945 -0.728357 4.4204 0
M  V30 1514 C 163.689 -2.33454 3.54541 0
M  V30 1515 C 161.596 -1.47062 5.72823 0
M  V30 1516 H 160.526 -0.335618 0.675186 0
M  V30 1517 H 163.177 -0.141712 1.82952 0
M  V30 1518 H 161.559 -2.42263 3.13248 0
M  V30 1519 H 162.733 0.0262449 4.60793 0
M  V30 1520 H 161.048 -0.134492 4.16183 0
M  V30 1521 H 163.645 -2.89578 4.49498 0
M  V30 1522 H 163.988 -3.08687 2.79317 0
M  V30 1523 H 164.521 -1.61227 3.63663 0
M  V30 1524 H 161.26 -0.760658 6.51072 0
M  V30 1525 H 160.78 -2.1986 5.58052 0
M  V30 1526 H 162.459 -2.01868 6.14702 0
M  V30 1527 N 162.591 -1.51276 -0.441967 0
M  V30 1528 C 163.84 -1.6295 -1.18871 0
M  V30 1529 C 164.153 -0.349312 -1.92456 0
M  V30 1530 O 165.359 -0.345355 -2.69295 0
M  V30 1531 C 163.815 -2.87759 -2.16155 0
M  V30 1532 C 163.423 -4.22764 -1.48239 0
M  V30 1533 C 165.167 -3.08788 -2.91291 0
M  V30 1534 C 163.074 -5.38728 -2.4398 0
M  V30 1535 H 162.004 -0.606913 -0.447406 0
M  V30 1536 H 164.655 -1.77739 -0.456205 0
M  V30 1537 H 163.037 -2.66593 -2.92821 0
M  V30 1538 H 164.211 -4.54293 -0.771635 0
M  V30 1539 H 162.526 -4.07575 -0.852741 0
M  V30 1540 H 165.123 -3.92599 -3.63002 0
M  V30 1541 H 165.466 -2.21679 -3.5237 0
M  V30 1542 H 165.999 -3.30272 -2.21733 0
M  V30 1543 H 162.738 -6.28082 -1.87598 0
M  V30 1544 H 162.258 -5.1158 -3.13123 0
M  V30 1545 H 163.937 -5.70489 -3.05207 0
M  V30 1546 N 164.069 0.697108 -1.41344 0
M  V30 1547 C 165.315 1.4593 -1.40827 0
M  V30 1548 C 165.648 1.94193 -0.0167098 0
M  V30 1549 O 164.923 1.69425 0.955263 0
M  V30 1550 C 165.206 2.67229 -2.41373 0
M  V30 1551 C 165.059 2.24741 -3.8963 0
M  V30 1552 C 166.378 3.69423 -2.39196 0
M  V30 1553 H 163.497 0.529303 -0.512842 0
M  V30 1554 H 166.139 0.794112 -1.72609 0
M  V30 1555 H 164.289 3.23982 -2.14401 0
M  V30 1556 H 165.961 1.73327 -4.27499 0
M  V30 1557 H 164.204 1.56542 -4.0457 0
M  V30 1558 H 164.875 3.1177 -4.55525 0
M  V30 1559 H 167.351 3.2234 -2.63128 0
M  V30 1560 H 166.227 4.51907 -3.11563 0
M  V30 1561 H 166.488 4.19012 -1.41001 0
M  V30 1562 N 165.547 1.27147 0.931209 0
M  V30 1563 C 166.51 1.09615 2.01289 0
M  V30 1564 C 167.51 0.0412581 1.60747 0
M  V30 1565 O 168.7 0.285545 1.71844 0
M  V30 1566 C 165.832 0.669447 3.34262 0
M  V30 1567 H 167.025 2.05662 2.18273 0
M  V30 1568 H 164.578 1.09885 1.11153 0
M  V30 1569 H 165.313 -0.292572 3.22978 0
M  V30 1570 H 165.098 1.43127 3.65044 0
M  V30 1571 H 166.588 0.568921 4.13706 0
M  V30 1572 N 167.025 -1.13721 1.09112 0
M  V30 1573 C 168.273 -1.84559 0.823562 0
M  V30 1574 C 168.594 -1.83754 -0.652658 0
M  V30 1575 O 167.864 -1.29102 -1.47342 0
M  V30 1576 H 166.444 -0.683376 0.301673 0
M  V30 1577 H 169.106 -1.37771 1.37859 0
M  V30 1578 H 168.202 -2.8917 1.17419 0
M  V30 1579 N 168.503 -0.877838 -1.30888 0
M  V30 1580 C 169.751 -0.491723 -1.96027 0
M  V30 1581 C 170.072 0.960827 -1.69685 0
M  V30 1582 O 169.342 1.67462 -1.01654 0
M  V30 1583 H 167.922 -0.17885 -0.725273 0
M  V30 1584 H 170.584 -1.11935 -1.59551 0
M  V30 1585 H 169.68 -0.656016 -3.05128 0
M  V30 1586 N 169.982 1.44106 -0.638065 0
M  V30 1587 C 170.915 2.27924 0.112161 0
M  V30 1588 C 171.893 1.38945 0.844574 0
M  V30 1589 O 173.077 1.68386 0.847248 0
M  V30 1590 C 170.204 3.18029 1.16512 0
M  V30 1591 C 169.25 4.23163 0.532458 0
M  V30 1592 S 170.083 5.31131 -0.682666 0
M  V30 1593 C 171.239 6.24805 0.37013 0
M  V30 1594 H 171.472 2.91205 -0.598887 0
M  V30 1595 H 169.005 1.48394 -0.426441 0
M  V30 1596 H 170.963 3.70492 1.76766 0
M  V30 1597 H 169.624 2.53955 1.8484 0
M  V30 1598 H 168.817 4.86252 1.32571 0
M  V30 1599 H 168.419 3.74 0.00437644 0
M  V30 1600 H 170.711 6.66042 1.24071 0
M  V30 1601 H 171.654 7.07741 -0.225349 0
M  V30 1602 H 172.062 5.60154 0.699141 0
M  V30 1603 N 171.46 0.379036 1.52974 0
M  V30 1604 C 172.37 -0.468639 2.29872 0
M  V30 1605 C 173.386 -1.08067 1.36373 0
M  V30 1606 O 174.562 -1.08871 1.69438 0
M  V30 1607 C 171.627 -1.58594 3.083 0
M  V30 1608 C 170.688 -1.00007 4.17489 0
M  V30 1609 C 169.921 -2.06413 4.92168 0
M  V30 1610 O 170.144 -3.27751 4.66835 0
M  V30 1611 O 169.078 -1.68717 5.7777 0
M  V30 1612 H 172.904 0.157508 3.03291 0
M  V30 1613 H 170.489 0.143035 1.48714 0
M  V30 1614 H 172.371 -2.23525 3.57232 0
M  V30 1615 H 171.046 -2.19724 2.37703 0
M  V30 1616 H 169.953 -0.314299 3.72777 0
M  V30 1617 H 171.286 -0.433135 4.90291 0
M  V30 1618 N 172.938 -1.57226 0.108567 0
M  V30 1619 C 174.163 -1.99604 -0.563303 0
M  V30 1620 C 174.588 -0.987563 -1.6009 0
M  V30 1621 O 173.946 0.0421687 -1.81251 0
M  V30 1622 C 173.994 -3.40902 -1.17552 0
M  V30 1623 O 173.098 -3.42896 -2.2912 0
M  V30 1624 H 172.439 -0.648704 -0.1417 0
M  V30 1625 H 174.969 -2.03679 0.193961 0
M  V30 1626 H 174.979 -3.78886 -1.51357 0
M  V30 1627 H 173.654 -4.1382 -0.415445 0
M  V30 1628 H 172.231 -3.1672 -1.96832 0
M  V30 1629 N 174.416 0.165178 -1.56732 0
M  V30 1630 C 175.349 1.23336 -1.91998 0
M  V30 1631 C 176.327 1.42476 -0.783531 0
M  V30 1632 O 177.511 1.57384 -1.03743 0
M  V30 1633 C 174.638 2.59533 -2.17625 0
M  V30 1634 C 173.684 2.57093 -3.40302 0
M  V30 1635 S 174.517 2.05571 -4.9447 0
M  V30 1636 C 175.673 3.43532 -5.23198 0
M  V30 1637 H 175.906 0.932387 -2.82301 0
M  V30 1638 H 173.439 0.370013 -1.49901 0
M  V30 1639 H 175.397 3.37918 -2.3307 0
M  V30 1640 H 174.058 2.86827 -1.28019 0
M  V30 1641 H 173.251 3.57308 -3.55453 0
M  V30 1642 H 172.853 1.86806 -3.24005 0
M  V30 1643 H 175.145 4.39559 -5.15552 0
M  V30 1644 H 176.088 3.33251 -6.2478 0
M  V30 1645 H 176.496 3.39828 -4.50752 0
M  V30 1646 N 175.894 1.51508 0.433938 0
M  V30 1647 C 177.119 1.68443 1.21003 0
M  V30 1648 C 177.544 0.382636 1.84167 0
M  V30 1649 O 176.902 -0.65755 1.68956 0
M  V30 1650 C 176.95 2.80405 2.26727 0
M  V30 1651 O 176.054 2.44245 3.32292 0
M  V30 1652 H 175.395 0.561536 0.354363 0
M  V30 1653 H 177.925 1.9809 0.512024 0
M  V30 1654 H 177.935 3.0459 2.71457 0
M  V30 1655 H 176.61 3.74867 1.80132 0
M  V30 1656 H 175.187 2.30644 2.93015 0
M  V30 1657 N 177.372 -0.689602 1.41712 0
M  V30 1658 C 178.305 -1.81403 1.3845 0
M  V30 1659 C 179.283 -1.60653 0.250874 0
M  V30 1660 O 180.467 -1.83323 0.43874 0
M  V30 1661 C 177.594 -3.18176 1.1611 0
M  V30 1662 C 176.64 -3.57705 2.3227 0
M  V30 1663 S 177.473 -3.61827 3.94767 0
M  V30 1664 C 178.629 -5.01318 3.74742 0
M  V30 1665 H 178.862 -1.83893 2.33603 0
M  V30 1666 H 176.395 -0.858878 1.28307 0
M  V30 1667 H 178.353 -3.97132 1.03907 0
M  V30 1668 H 177.014 -3.13288 0.225668 0
M  V30 1669 H 176.207 -4.57082 2.12349 0
M  V30 1670 H 175.809 -2.86073 2.40911 0
M  V30 1671 H 178.101 -5.88986 3.34817 0
M  V30 1672 H 179.044 -5.26283 4.73743 0
M  V30 1673 H 179.452 -4.73138 3.07898 0
M  V30 1674 N 178.85 -1.27639 -0.924453 0
M  V30 1675 C 179.813 -1.10681 -2.00705 0
M  V30 1676 C 180.813 -0.0497823 -1.60723 0
M  V30 1677 O 182.003 -0.294654 -1.7169 0
M  V30 1678 C 179.135 -0.687164 -3.33902 0
M  V30 1679 H 180.328 -2.06817 -2.17179 0
M  V30 1680 H 177.881 -1.10473 -1.10569 0
M  V30 1681 H 178.616 0.275439 -3.23128 0
M  V30 1682 H 178.401 -1.45061 -3.6428 0
M  V30 1683 H 179.891 -0.590853 -4.13399 0
M  V30 1684 N 180.328 1.1314 -1.09713 0
M  V30 1685 C 181.739 1.66029 -0.853885 0
M  V30 1686 C 182.09 1.86241 0.617142 0
M  V30 1687 O 181.215 1.5834 1.47503 0
M  V30 1688 C 181.81 3.01599 -1.5435 0
M  V30 1689 C 180.369 3.51467 -1.34714 0
M  V30 1690 C 179.516 2.26648 -1.59769 0
M  V30 1691 H 182.467 0.970226 -1.25588 0
M  V30 1692 H 182.488 3.67709 -0.978267 0
M  V30 1693 H 182 2.86856 -2.6141 0
M  V30 1694 H 180.101 3.71408 -0.297838 0
M  V30 1695 H 180.214 4.314 -2.08401 0
M  V30 1696 H 178.578 2.33385 -1.01998 0
M  V30 1697 H 179.361 2.14467 -2.68065 0
M  V30 1698 N 181.806 0.884767 1.30421 0
M  V30 1699 C 182.756 0.322846 2.25703 0
M  V30 1700 C 183.74 -0.548582 1.51259 0
M  V30 1701 O 184.932 -0.39304 1.72581 0
M  V30 1702 C 182.061 -0.461787 3.4018 0
M  V30 1703 C 181.147 0.423717 4.21978 0
M  V30 1704 N 181.538 1.52408 4.82292 0
M  V30 1705 C 179.836 0.218795 4.45463 0
M  V30 1706 C 180.537 2.07136 5.43571 0
M  V30 1707 N 179.513 1.36635 5.26148 0
M  V30 1708 H 183.315 1.16363 2.69883 0
M  V30 1709 H 180.829 0.73415 1.44859 0
M  V30 1710 H 182.826 -0.880985 4.07485 0
M  V30 1711 H 181.486 -1.30001 2.9754 0
M  V30 1712 H 182.497 1.90693 4.81515 0
M  V30 1713 H 179.174 -0.582275 4.1342 0
M  V30 1714 H 180.564 2.99538 6.01437 0
M  V30 1715 N 183.284 -1.43765 0.645699 0
M  V30 1716 C 184.524 -2.03776 0.159542 0
M  V30 1717 C 184.888 -1.49792 -1.2011 0
M  V30 1718 O 186.089 -2.01398 -1.78023 0
M  V30 1719 C 184.36 -3.57036 0.161251 0
M  V30 1720 S 185.919 -4.3804 -0.258159 0
M  V30 1721 H 182.737 -0.707717 0.0682454 0
M  V30 1722 H 185.339 -1.75941 0.852352 0
M  V30 1723 H 184.043 -3.9383 1.15439 0
M  V30 1724 H 183.574 -3.89503 -0.552339 0
M  V30 1725 H 185.589 -4.7302 -1.49889 0
M  V30 1726 N 184.763 -0.387143 -1.52771 0
M  V30 1727 C 185.726 0.436939 -2.24997 0
M  V30 1728 C 186.726 0.991991 -1.26555 0
M  V30 1729 O 187.916 0.874335 -1.50669 0
M  V30 1730 C 185.048 1.61281 -3.00335 0
M  V30 1731 H 186.241 -0.195365 -2.99263 0
M  V30 1732 H 183.794 -0.139218 -1.55679 0
M  V30 1733 H 184.529 2.2826 -2.30364 0
M  V30 1734 H 184.314 1.22154 -3.72587 0
M  V30 1735 H 185.804 2.19629 -3.5518 0
M  V30 1736 N 186.241 1.57166 -0.116904 0
M  V30 1737 C 187.191 2.11756 0.845178 0
M  V30 1738 C 188.175 1.03783 1.22955 0
M  V30 1739 O 189.367 1.3002 1.20099 0
M  V30 1740 C 186.496 2.71886 2.09602 0
M  V30 1741 C 185.582 3.86937 1.7361 0
M  V30 1742 N 185.973 4.94073 1.08284 0
M  V30 1743 C 184.271 3.97082 2.03082 0
M  V30 1744 C 184.972 5.74477 0.913855 0
M  V30 1745 N 183.948 5.2423 1.43818 0
M  V30 1746 H 187.75 2.91967 0.336523 0
M  V30 1747 H 185.264 1.62174 0.0856332 0
M  V30 1748 H 187.261 3.09338 2.79492 0
M  V30 1749 H 185.921 1.93138 2.61013 0
M  V30 1750 H 186.932 5.12483 0.747067 0
M  V30 1751 H 183.609 3.29372 2.56554 0
M  V30 1752 H 184.999 6.70701 0.40125 0
M  V30 1753 N 187.719 -0.156864 1.56817 0
M  V30 1754 C 188.649 -1.19589 2.00551 0
M  V30 1755 C 189.63 -1.4536 0.883426 0
M  V30 1756 O 190.815 -1.56449 1.15054 0
M  V30 1757 C 187.945 -2.53143 2.37773 0
M  V30 1758 C 186.899 -2.41913 3.53075 0
M  V30 1759 C 186.225 -3.80088 3.76081 0
M  V30 1760 C 187.525 -1.91157 4.86062 0
M  V30 1761 H 189.219 -0.832293 2.87599 0
M  V30 1762 H 186.765 -0.398918 1.38364 0
M  V30 1763 H 188.718 -3.26047 2.66967 0
M  V30 1764 H 187.442 -2.91319 1.4765 0
M  V30 1765 H 186.101 -1.71462 3.24031 0
M  V30 1766 H 185.749 -4.15683 2.83225 0
M  V30 1767 H 185.449 -3.73439 4.53671 0
M  V30 1768 H 186.973 -4.54556 4.0769 0
M  V30 1769 H 188.387 -2.53846 5.14038 0
M  V30 1770 H 186.784 -1.95422 5.67389 0
M  V30 1771 H 187.854 -0.866673 4.77092 0
M  V30 1772 N 189.197 -1.51736 -0.425897 0
M  V30 1773 C 190.16 -1.73271 -1.50032 0
M  V30 1774 C 191.16 -0.602639 -1.4908 0
M  V30 1775 O 192.35 -0.87033 -1.509 0
M  V30 1776 C 189.482 -1.79969 -2.89523 0
M  V30 1777 H 190.675 -2.69172 -1.32237 0
M  V30 1778 H 188.228 -1.41899 -0.65532 0
M  V30 1779 H 188.963 -0.859241 -3.1271 0
M  V30 1780 H 188.748 -2.62109 -2.91619 0
M  V30 1781 H 190.238 -1.9843 -3.67444 0
M  V30 1782 N 190.675 0.682077 -1.42076 0
M  V30 1783 C 191.923 1.4393 -1.41876 0
M  V30 1784 C 192.244 1.94971 -0.0335599 0
M  V30 1785 O 191.514 1.72591 0.926773 0
M  V30 1786 H 190.094 0.534085 -0.522267 0
M  V30 1787 H 192.756 0.806427 -1.77434 0
M  V30 1788 H 191.852 2.29588 -2.11414 0
M  V30 1789 N 192.153 1.28127 0.917671 0
M  V30 1790 C 193.401 1.14825 1.66312 0
M  V30 1791 C 193.722 -0.304379 1.9261 0
M  V30 1792 O 192.992 -1.21149 1.53947 0
M  V30 1793 H 191.572 0.421953 0.616413 0
M  V30 1794 H 194.234 1.608 1.10134 0
M  V30 1795 H 193.33 1.68489 2.62712 0
M  V30 1796 N 193.631 -1.12557 1.10312 0
M  V30 1797 C 194.877 -1.84311 0.846011 0
M  V30 1798 C 195.21 -1.83805 -0.626859 0
M  V30 1799 O 194.485 -1.28268 -1.46211 0
M  V30 1800 C 194.768 -3.32048 1.39341 0
M  V30 1801 C 194.621 -3.41016 2.93305 0
M  V30 1802 C 195.94 -4.27764 1.03468 0
M  V30 1803 H 193.059 -0.669192 0.30879 0
M  V30 1804 H 195.701 -1.32057 1.36605 0
M  V30 1805 H 193.851 -3.76678 0.951087 0
M  V30 1806 H 195.523 -3.05031 3.46055 0
M  V30 1807 H 193.766 -2.81603 3.29973 0
M  V30 1808 H 194.437 -4.44948 3.26689 0
M  V30 1809 H 196.913 -3.91253 1.41633 0
M  V30 1810 H 195.789 -5.29549 1.44463 0
M  V30 1811 H 196.05 -4.42064 -0.0560404 0
M  V30 1812 N 195.109 -0.891671 -1.2995 0
M  V30 1813 C 196.056 -0.361736 -2.27948 0
M  V30 1814 C 197.026 0.551761 -1.56668 0
M  V30 1815 O 198.211 0.478736 -1.84696 0
M  V30 1816 C 195.351 0.411825 -3.42634 0
M  V30 1817 C 194.464 -0.531651 -4.28716 0
M  V30 1818 C 193.599 0.258167 -5.30572 0
M  V30 1819 C 192.638 -0.680349 -6.08307 0
M  V30 1820 N 191.775 0.0745613 -7.0206 0
M  V30 1821 H 196.615 -1.20254 -2.72659 0
M  V30 1822 H 194.152 -0.604352 -1.34112 0
M  V30 1823 H 196.11 0.876304 -4.07893 0
M  V30 1824 H 194.74 1.21715 -2.98974 0
M  V30 1825 H 193.792 -1.11463 -3.63703 0
M  V30 1826 H 195.104 -1.25038 -4.82874 0
M  V30 1827 H 194.258 0.784204 -6.0161 0
M  V30 1828 H 192.997 1.01008 -4.77126 0
M  V30 1829 H 192.002 -1.21796 -5.3614 0
M  V30 1830 H 193.227 -1.43145 -6.63842 0
M  V30 1831 H 191.173 0.808883 -6.50994 0
M  V30 1832 H 191.09 -0.584409 -7.53738 0
M  V30 1833 H 192.358 0.581123 -7.77331 0
M  V30 1834 N 196.587 1.43421 -0.653314 0
M  V30 1835 C 197.52 2.2803 0.0879804 0
M  V30 1836 C 198.498 1.39833 0.82979 0
M  V30 1837 O 199.682 1.69275 0.829341 0
M  V30 1838 C 196.809 3.19247 1.13132 0
M  V30 1839 C 195.855 4.23704 0.487546 0
M  V30 1840 S 196.688 5.30377 -0.738961 0
M  V30 1841 C 197.844 6.25162 0.30384 0
M  V30 1842 H 198.077 2.90554 -0.629739 0
M  V30 1843 H 195.61 1.47934 -0.442156 0
M  V30 1844 H 197.568 3.72346 1.72827 0
M  V30 1845 H 196.229 2.55901 1.82136 0
M  V30 1846 H 195.422 4.87631 1.27407 0
M  V30 1847 H 195.024 3.73983 -0.0352915 0
M  V30 1848 H 197.316 6.67321 1.17 0
M  V30 1849 H 198.259 7.07463 -0.300402 0
M  V30 1850 H 198.667 5.60864 0.63969 0
M  V30 1851 N 198.065 0.39524 1.52563 0
M  V30 1852 C 199.313 -0.184678 2.01254 0
M  V30 1853 C 199.634 -1.46822 1.28329 0
M  V30 1854 O 198.904 -1.91666 0.405094 0
M  V30 1855 H 197.484 -0.0712355 0.743596 0
M  V30 1856 H 200.146 0.528293 1.87603 0
M  V30 1857 H 199.242 -0.390681 3.09645 0
M  V30 1858 N 199.544 -1.57102 0.125237 0
M  V30 1859 C 200.821 -1.86953 -0.575142 0
M  V30 1860 C 201.201 -1.02749 -1.84407 0
M  V30 1861 O 200.549 -0.108144 -2.28244 0
M  V30 1862 C 200.759 -3.38198 -0.861583 0
M  V30 1863 C 202.107 -4.06937 -1.21192 0
M  V30 1864 O 203.131 -3.43252 -0.951645 0
M  V30 1865 O 201.99 -5.19364 -1.70068 0
M  V30 1866 H 199.084 -0.774147 -0.290906 0
M  V30 1867 H 201.63 -1.68942 0.160211 0
M  V30 1868 H 200.402 -3.91282 0.0373647 0
M  V30 1869 H 200.025 -3.61661 -1.65188 0
M  V30 1870 N 201.022 0.148545 -1.56898 0
M  V30 1871 C 202.269 0.861418 -1.83264 0
M  V30 1872 C 202.597 1.81239 -0.705883 0
M  V30 1873 O 201.852 1.93305 0.305212 0
M  V30 1874 C 202.151 1.67064 -3.1595 0
M  V30 1875 C 201.817 0.866591 -4.42494 0
M  V30 1876 C 200.479 0.644762 -4.76861 0
M  V30 1877 C 202.831 0.30418 -5.20312 0
M  V30 1878 C 200.159 -0.15021 -5.86508 0
M  V30 1879 C 202.511 -0.477824 -6.30793 0
M  V30 1880 C 201.175 -0.710244 -6.63711 0
M  V30 1881 H 200.445 0.315215 -0.670612 0
M  V30 1882 H 203.092 0.125142 -1.91091 0
M  V30 1883 H 201.397 2.47698 -3.03567 0
M  V30 1884 H 203.094 2.22566 -3.33565 0
M  V30 1885 H 199.684 1.04955 -4.15551 0
M  V30 1886 H 203.868 0.462844 -4.94137 0
M  V30 1887 H 199.124 -0.339796 -6.10455 0
M  V30 1888 H 203.298 -0.92076 -6.90286 0
M  V30 1889 H 200.925 -1.3281 -7.48509 0
M  V30 1890 N 202.5 1.5196 0.417844 0
M  V30 1891 C 203.447 1.74678 1.50852 0
M  V30 1892 C 204.417 0.588947 1.55308 0
M  V30 1893 O 205.602 0.825544 1.72016 0
M  V30 1894 C 202.742 1.89544 2.88387 0
M  V30 1895 C 201.855 3.17166 2.93309 0
M  V30 1896 C 200.99 3.22513 4.22088 0
M  V30 1897 C 200.029 4.44372 4.20951 0
M  V30 1898 N 199.166 4.47161 5.41287 0
M  V30 1899 H 204.006 2.67768 1.30783 0
M  V30 1900 H 201.543 1.32689 0.63498 0
M  V30 1901 H 203.501 1.96146 3.68216 0
M  V30 1902 H 202.131 0.998424 3.06971 0
M  V30 1903 H 201.183 3.19778 2.06024 0
M  V30 1904 H 202.495 4.07021 2.88332 0
M  V30 1905 H 201.649 3.28139 5.10303 0
M  V30 1906 H 200.388 2.30581 4.29748 0
M  V30 1907 H 199.393 4.38902 3.31127 0
M  V30 1908 H 200.618 5.3759 4.14938 0
M  V30 1909 H 198.564 3.58108 5.49632 0
M  V30 1910 H 198.481 5.3085 5.3827 0
M  V30 1911 H 199.749 4.57005 6.3148 0
M  V30 1912 N 203.978 -0.674533 1.42435 0
M  V30 1913 C 204.911 -1.79924 1.40366 0
M  V30 1914 C 205.889 -1.60378 0.267899 0
M  V30 1915 O 207.073 -1.82847 0.458159 0
M  V30 1916 C 204.2 -3.16927 1.19478 0
M  V30 1917 C 203.246 -3.55221 2.36051 0
M  V30 1918 S 204.079 -3.5762 3.98583 0
M  V30 1919 C 205.235 -4.97315 3.80038 0
M  V30 1920 H 205.468 -1.81405 2.35541 0
M  V30 1921 H 203.001 -0.845221 1.29211 0
M  V30 1922 H 204.959 -3.96007 1.08114 0
M  V30 1923 H 203.62 -3.13031 0.258883 0
M  V30 1924 H 202.813 -4.54804 2.17185 0
M  V30 1925 H 202.415 -2.83502 2.43932 0
M  V30 1926 H 204.707 -5.85401 3.41045 0
M  V30 1927 H 205.65 -5.21228 4.79298 0
M  V30 1928 H 206.058 -4.69845 3.12899 0
M  V30 1929 N 205.456 -1.28612 -0.910864 0
M  V30 1930 C 206.705 -1.15311 -1.65488 0
M  V30 1931 C 207.018 0.296999 -1.93332 0
M  V30 1932 O 208.224 0.551168 -2.65847 0
M  V30 1933 C 206.68 -2.01599 -2.98137 0
M  V30 1934 C 206.288 -3.51367 -2.7793 0
M  V30 1935 C 208.032 -1.96993 -3.76024 0
M  V30 1936 C 205.939 -4.29797 -4.06237 0
M  V30 1937 H 204.869 -0.42796 -0.620779 0
M  V30 1938 H 207.52 -1.53166 -1.01057 0
M  V30 1939 H 205.902 -1.56603 -3.63719 0
M  V30 1940 H 207.076 -4.0434 -2.21011 0
M  V30 1941 H 205.391 -3.57529 -2.13452 0
M  V30 1942 H 207.988 -2.52856 -4.71135 0
M  V30 1943 H 208.331 -0.94733 -4.05378 0
M  V30 1944 H 208.864 -2.39973 -3.17266 0
M  V30 1945 H 205.603 -5.32648 -3.82055 0
M  V30 1946 H 205.123 -3.81596 -4.62757 0
M  V30 1947 H 206.802 -4.39869 -4.74473 0
M  V30 1948 N 206.934 1.1197 -1.10907 0
M  V30 1949 C 208.211 1.79959 -0.766432 0
M  V30 1950 C 208.591 1.97466 0.746363 0
M  V30 1951 O 207.939 1.55491 1.67436 0
M  V30 1952 C 208.149 3.14009 -1.52314 0
M  V30 1953 C 209.497 3.89134 -1.69883 0
M  V30 1954 O 210.521 3.2368 -1.48692 0
M  V30 1955 O 209.38 5.06572 -2.05054 0
M  V30 1956 H 206.474 0.779208 -0.277062 0
M  V30 1957 H 209.02 1.18762 -1.21217 0
M  V30 1958 H 207.792 2.96587 -2.55249 0
M  V30 1959 H 207.415 3.82915 -1.07059 0
M  V30 1960 N 208.412 0.89855 1.29475 0
M  V30 1961 C 209.64 0.539261 1.99749 0
M  V30 1962 C 210.055 -0.875716 1.67262 0
M  V30 1963 O 209.412 -1.57786 0.917049 0
M  V30 1964 C 209.463 0.72061 3.54245 0
M  V30 1965 O 209.184 2.07989 3.8558 0
M  V30 1966 C 210.685 0.366118 4.41786 0
M  V30 1967 H 207.905 0.207047 0.638258 0
M  V30 1968 H 210.449 1.20758 1.65039 0
M  V30 1969 H 208.604 0.0994862 3.87272 0
M  V30 1970 H 209.018 2.10841 4.80257 0
M  V30 1971 H 210.492 0.543848 5.49314 0
M  V30 1972 H 210.969 -0.696763 4.33638 0
M  V30 1973 H 211.575 0.964135 4.14228 0
M  V30 1974 N 209.89 -1.43072 0.660911 0
M  V30 1975 C 210.823 -2.28074 -0.0758862 0
M  V30 1976 C 211.801 -1.40271 -0.822362 0
M  V30 1977 O 212.985 -1.69713 -0.820352 0
M  V30 1978 C 210.112 -3.19843 -1.11437 0
M  V30 1979 C 209.158 -4.23957 -0.465069 0
M  V30 1980 S 209.991 -5.29978 0.767078 0
M  V30 1981 C 211.147 -6.25314 -0.270682 0
M  V30 1982 H 211.38 -2.90216 0.645139 0
M  V30 1983 H 208.913 -1.47697 0.449995 0
M  V30 1984 H 210.871 -3.73257 -1.70849 0
M  V30 1985 H 209.532 -2.56863 -1.80776 0
M  V30 1986 H 208.725 -4.88299 -1.24819 0
M  V30 1987 H 208.327 -3.73959 0.0551242 0
M  V30 1988 H 210.619 -6.67932 -1.13459 0
M  V30 1989 H 211.562 -7.07293 0.337916 0
M  V30 1990 H 211.97 -5.61195 -0.609937 0
M  V30 1991 N 211.368 -0.403325 -1.52352 0
M  V30 1992 C 212.617 0.175668 -2.00934 0
M  V30 1993 C 212.93 1.46718 -1.29356 0
M  V30 1994 O 214.136 2.12708 -1.68724 0
M  V30 1995 C 212.592 0.363612 -3.58058 0
M  V30 1996 C 212.2 -0.915472 -4.38547 0
M  V30 1997 C 213.944 0.89821 -4.14888 0
M  V30 1998 C 211.851 -0.695035 -5.87302 0
M  V30 1999 H 210.781 0.0694234 -0.750797 0
M  V30 2000 H 213.432 -0.527879 -1.75743 0
M  V30 2001 H 211.814 1.12935 -3.79555 0
M  V30 2002 H 212.988 -1.68691 -4.28812 0
M  V30 2003 H 211.303 -1.37606 -3.93006 0
M  V30 2004 H 213.9 1.07907 -5.23699 0
M  V30 2005 H 214.243 1.87126 -3.71873 0
M  V30 2006 H 214.776 0.191681 -3.97338 0
M  V30 2007 H 211.515 -1.63948 -6.34666 0
M  V30 2008 H 211.035 0.0372116 -5.99788 0
M  V30 2009 H 212.714 -0.33497 -6.46132 0
M  V30 2010 N 212.846 1.57033 -0.133567 0
M  V30 2011 C 213.793 2.16074 0.811208 0
M  V30 2012 C 214.763 1.08979 1.2535 0
M  V30 2013 O 215.948 1.36958 1.32843 0
M  V30 2014 C 213.088 2.77595 2.05024 0
M  V30 2015 C 212.201 3.99042 1.65498 0
M  V30 2016 C 211.336 4.48603 2.84479 0
M  V30 2017 C 210.375 5.62547 2.41262 0
M  V30 2018 N 209.512 6.06787 3.53206 0
M  V30 2019 H 214.352 2.96477 0.300906 0
M  V30 2020 H 211.889 1.46462 0.136822 0
M  V30 2021 H 213.847 3.11402 2.77642 0
M  V30 2022 H 212.477 1.99859 2.53488 0
M  V30 2023 H 211.529 3.71302 0.826981 0
M  V30 2024 H 212.841 4.81629 1.29748 0
M  V30 2025 H 211.995 4.84395 3.65303 0
M  V30 2026 H 210.734 3.64995 3.23465 0
M  V30 2027 H 209.739 5.26345 1.58874 0
M  V30 2028 H 210.964 6.47931 2.03377 0
M  V30 2029 H 208.91 5.26117 3.91838 0
M  V30 2030 H 208.827 6.84266 3.21427 0
M  V30 2031 H 210.095 6.4722 4.34427 0
M  V30 2032 N 214.325 -0.140222 1.56975 0
M  V30 2033 C 215.602 -0.880769 1.74648 0
M  V30 2034 C 215.982 -1.99036 0.703404 0
M  V30 2035 O 215.33 -2.26821 -0.27648 0
M  V30 2036 C 215.54 -1.417 3.18939 0
M  V30 2037 C 216.888 -1.87774 3.80823 0
M  V30 2038 O 217.912 -1.51427 3.2241 0
M  V30 2039 O 216.771 -2.54827 4.83452 0
M  V30 2040 H 213.865 -0.416713 0.714338 0
M  V30 2041 H 216.411 -0.125618 1.69234 0
M  V30 2042 H 215.183 -0.619902 3.86359 0
M  V30 2043 H 214.806 -2.23546 3.28805 0
M  V30 2044 N 215.803 -1.52179 -0.40978 0
M  V30 2045 C 217.051 -1.65878 -1.15451 0
M  V30 2046 C 217.372 -0.390771 -1.91044 0
M  V30 2047 O 216.642 0.594323 -1.86667 0
M  V30 2048 H 215.222 -0.611405 -0.429177 0
M  V30 2049 H 217.884 -1.89219 -0.467134 0
M  V30 2050 H 216.98 -2.49954 -1.86894 0
M  V30 2051 N 217.281 0.66697 -1.42791 0
M  V30 2052 C 218.211 1.79218 -1.49677 0
M  V30 2053 C 219.192 1.66405 -0.352623 0
M  V30 2054 O 220.377 1.85708 -0.567993 0
M  V30 2055 C 217.507 3.17565 -1.40605 0
M  V30 2056 C 216.461 3.45124 -2.53127 0
M  V30 2057 C 215.787 4.83127 -2.29112 0
M  V30 2058 C 217.087 3.41236 -3.95418 0
M  V30 2059 H 218.781 1.73713 -2.43853 0
M  V30 2060 H 216.327 0.83432 -1.17367 0
M  V30 2061 H 218.28 3.96022 -1.44029 0
M  V30 2062 H 217.004 3.23767 -0.429271 0
M  V30 2063 H 215.663 2.69031 -2.49034 0
M  V30 2064 H 215.311 4.85988 -1.29709 0
M  V30 2065 H 215.011 5.02528 -3.04531 0
M  V30 2066 H 216.535 5.63859 -2.34297 0
M  V30 2067 H 217.949 4.09651 -4.01073 0
M  V30 2068 H 216.346 3.72173 -4.70752 0
M  V30 2069 H 217.416 2.39665 -4.21532 0
M  V30 2070 N 218.759 1.29093 0.90403 0
M  V30 2071 C 219.987 1.19689 1.68766 0
M  V30 2072 C 220.402 -0.243113 1.87228 0
M  V30 2073 O 219.759 -1.16326 1.40621 0
M  V30 2074 C 219.81 1.90144 3.07453 0
M  V30 2075 O 219.531 3.2852 2.89838 0
M  V30 2076 C 221.032 1.87162 4.01852 0
M  V30 2077 H 218.252 0.415035 0.527244 0
M  V30 2078 H 220.796 1.7039 1.13082 0
M  V30 2079 H 218.951 1.43289 3.59926 0
M  V30 2080 H 219.365 3.63944 3.77684 0
M  V30 2081 H 220.839 2.41032 4.96596 0
M  V30 2082 H 221.316 0.84617 4.30972 0
M  V30 2083 H 221.922 2.33741 3.5531 0
M  V30 2084 N 220.237 -1.11381 1.11499 0
M  V30 2085 C 221.514 -1.7955 0.775965 0
M  V30 2086 C 221.894 -1.97859 -0.73588 0
M  V30 2087 O 221.242 -1.56376 -1.66609 0
M  V30 2088 C 221.452 -3.13196 1.53977 0
M  V30 2089 C 222.8 -3.88227 1.71944 0
M  V30 2090 O 223.824 -3.22887 1.50407 0
M  V30 2091 O 222.683 -5.05477 2.07738 0
M  V30 2092 H 219.777 -0.777728 0.28119 0
M  V30 2093 H 222.323 -1.18118 1.21845 0
M  V30 2094 H 221.095 -2.95229 2.56818 0
M  V30 2095 H 220.718 -3.82342 1.09088 0
M  V30 2096 N 221.715 -0.905404 -1.28997 0
M  V30 2097 C 222.678 -0.392253 -2.25819 0
M  V30 2098 C 223.678 0.476753 -1.5357 0
M  V30 2099 O 224.868 0.280994 -1.71919 0
M  V30 2100 C 222 0.438588 -3.38067 0
M  V30 2101 H 223.193 -1.24743 -2.72725 0
M  V30 2102 H 220.746 -0.684051 -1.40536 0
M  V30 2103 H 221.481 1.31352 -2.96508 0
M  V30 2104 H 221.266 -0.184167 -3.91667 0
M  V30 2105 H 222.756 0.78873 -4.10084 0
M  V30 2106 N 223.193 1.4272 -0.668489 0
M  V30 2107 C 224.44 2.01624 -0.18814 0
M  V30 2108 C 224.768 1.5282 1.20317 0
M  V30 2109 O 224.023 0.718323 1.8204 0
M  V30 2110 C 224.322 3.57021 -0.164499 0
M  V30 2111 C 223.988 4.25232 -1.49962 0
M  V30 2112 C 222.65 4.4358 -1.8652 0
M  V30 2113 C 225.002 4.63727 -2.37921 0
M  V30 2114 C 222.33 4.97694 -3.10674 0
M  V30 2115 C 224.682 5.19218 -3.6138 0
M  V30 2116 C 223.346 5.3578 -3.98115 0
M  V30 2117 H 222.616 0.737795 -0.0688454 0
M  V30 2118 H 225.263 1.70991 -0.862225 0
M  V30 2119 H 223.568 3.87285 0.593079 0
M  V30 2120 H 225.265 4.00372 0.224271 0
M  V30 2121 H 221.855 4.11306 -1.20522 0
M  V30 2122 H 226.039 4.4923 -2.10964 0
M  V30 2123 H 221.295 5.08702 -3.39164 0
M  V30 2124 H 225.469 5.4799 -4.29743 0
M  V30 2125 H 223.096 5.77475 -4.94395 0
M  V30 2126 N 224.671 0.411399 1.52136 0
M  V30 2127 C 225.901 -0.16284 2.05957 0
M  V30 2128 C 226.309 -1.3922 1.28119 0
M  V30 2129 O 225.652 -1.80768 0.326881 0
M  V30 2130 C 225.714 -0.575946 3.54856 0
M  V30 2131 C 225.378 0.542998 4.53763 0
M  V30 2132 C 226.375 1.40726 5.00492 0
M  V30 2133 C 224.06 0.716337 4.97166 0
M  V30 2134 C 226.054 2.4298 5.8927 0
M  V30 2135 C 223.741 1.74218 5.8574 0
M  V30 2136 C 224.739 2.59731 6.31687 0
M  V30 2137 O 224.427 3.60558 7.18507 0
M  V30 2138 H 224.159 -0.0229125 0.675612 0
M  V30 2139 H 226.713 0.581634 1.96993 0
M  V30 2140 H 224.943 -1.37274 3.61515 0
M  V30 2141 H 226.632 -1.07836 3.91313 0
M  V30 2142 H 227.398 1.28476 4.67674 0
M  V30 2143 H 223.277 0.0603857 4.6096 0
M  V30 2144 H 226.821 3.0976 6.25055 0
M  V30 2145 H 222.718 1.86498 6.17971 0
M  V30 2146 H 223.486 3.56829 7.36624 0
M  V30 2147 N 226.149 -1.5696 0.141893 0
M  V30 2148 C 227.397 -1.95573 -0.509484 0
M  V30 2149 C 227.718 -1.02746 -1.65736 0
M  V30 2150 O 226.988 -0.0880311 -1.95702 0
M  V30 2151 H 225.568 -0.722115 -0.191205 0
M  V30 2152 H 228.23 -1.93697 0.216196 0
M  V30 2153 H 227.326 -2.99171 -0.889 0
M  V30 2154 N 227.627 0.131896 -1.57047 0
M  V30 2155 C 228.857 0.855219 -1.88068 0
M  V30 2156 C 229.265 1.74557 -0.729817 0
M  V30 2157 O 228.608 1.81083 0.308962 0
M  V30 2158 C 228.67 1.75119 -3.13964 0
M  V30 2159 C 228.334 1.03646 -4.45091 0
M  V30 2160 C 229.331 0.383276 -5.18485 0
M  V30 2161 C 227.016 1.02148 -4.91804 0
M  V30 2162 C 229.01 -0.275347 -6.36805 0
M  V30 2163 C 226.697 0.359047 -6.10044 0
M  V30 2164 C 227.695 -0.288222 -6.82392 0
M  V30 2165 O 227.383 -0.94011 -7.98384 0
M  V30 2166 H 227.115 0.251864 -0.627328 0
M  V30 2167 H 229.669 0.124782 -2.05021 0
M  V30 2168 H 227.899 2.52295 -2.9306 0
M  V30 2169 H 229.588 2.3478 -3.31109 0
M  V30 2170 H 230.354 0.386562 -4.83457 0
M  V30 2171 H 226.233 1.5147 -4.35405 0
M  V30 2172 H 229.777 -0.781148 -6.93213 0
M  V30 2173 H 225.674 0.35348 -6.44531 0
M  V30 2174 H 226.442 -0.84329 -8.14144 0
M  V30 2175 N 229.106 1.52395 0.401703 0
M  V30 2176 C 230.056 1.72649 1.48917 0
M  V30 2177 C 231.04 0.580436 1.50066 0
M  V30 2178 O 232.232 0.83779 1.55917 0
M  V30 2179 C 229.361 1.88729 2.86769 0
M  V30 2180 C 228.447 3.09228 2.90239 0
M  V30 2181 N 228.838 4.31805 2.63396 0
M  V30 2182 C 227.136 3.09214 3.21408 0
M  V30 2183 C 227.837 5.13326 2.73625 0
M  V30 2184 N 226.813 4.48735 3.06819 0
M  V30 2185 H 230.615 2.65058 1.26971 0
M  V30 2186 H 228.129 1.50528 0.609504 0
M  V30 2187 H 230.126 2.01358 3.65049 0
M  V30 2188 H 228.786 0.975252 3.09708 0
M  V30 2189 H 229.797 4.60154 2.37653 0
M  V30 2190 H 226.474 2.27774 3.49893 0
M  V30 2191 H 227.864 6.21003 2.56524 0
M  V30 2192 N 230.584 -0.659388 1.43143 0
M  V30 2193 C 231.517 -1.78425 1.42267 0
M  V30 2194 C 232.495 -1.60085 0.284894 0
M  V30 2195 O 233.679 -1.82351 0.477527 0
M  V30 2196 C 230.806 -3.15642 1.22833 0
M  V30 2197 C 229.852 -3.52698 2.39806 0
M  V30 2198 S 230.685 -3.53372 4.02353 0
M  V30 2199 C 231.841 -4.93256 3.85291 0
M  V30 2200 H 232.074 -1.78897 2.37452 0
M  V30 2201 H 229.607 -0.831469 1.301 0
M  V30 2202 H 231.565 -3.94838 1.12308 0
M  V30 2203 H 230.226 -3.12739 0.29207 0
M  V30 2204 H 229.419 -4.52475 2.21996 0
M  V30 2205 H 229.021 -2.80899 2.46925 0
M  V30 2206 H 231.313 -5.81751 3.47235 0
M  V30 2207 H 232.256 -5.16115 4.84799 0
M  V30 2208 H 232.664 -4.665 3.17865 0
M  V30 2209 N 232.062 -1.29571 -0.897171 0
M  V30 2210 C 233.31 -1.17456 -1.64464 0
M  V30 2211 C 233.631 0.273698 -1.9307 0
M  V30 2212 O 232.901 1.18684 -1.55855 0
M  V30 2213 H 231.481 -0.431706 -0.609622 0
M  V30 2214 H 234.143 -1.62531 -1.07562 0
M  V30 2215 H 233.239 -1.72648 -2.59998 0
M  V30 2216 N 233.54 1.10788 -1.12088 0
M  V30 2217 C 234.768 1.86461 -0.896651 0
M  V30 2218 C 235.183 1.80492 0.553912 0
M  V30 2219 O 234.54 1.19102 1.38278 0
M  V30 2220 C 234.591 3.35006 -1.35843 0
M  V30 2221 O 234.312 3.40866 -2.75213 0
M  V30 2222 C 235.813 4.27565 -1.1706 0
M  V30 2223 H 233.033 0.589425 -0.320654 0
M  V30 2224 H 235.577 1.40076 -1.48993 0
M  V30 2225 H 233.732 3.7887 -0.808458 0
M  V30 2226 H 234.146 4.33411 -2.9539 0
M  V30 2227 H 235.62 5.30007 -1.54263 0
M  V30 2228 H 236.097 4.3906 -0.110814 0
M  V30 2229 H 236.703 3.89501 -1.70789 0
M  V30 2230 N 235.018 0.912232 1.28515 0
M  V30 2231 C 236.246 0.560416 1.99166 0
M  V30 2232 C 236.661 -0.857927 1.68182 0
M  V30 2233 O 236.018 -1.56805 0.933733 0
M  V30 2234 C 236.069 0.758142 3.53461 0
M  V30 2235 O 235.79 2.12067 3.83352 0
M  V30 2236 C 237.291 0.412954 4.41372 0
M  V30 2237 H 234.511 0.213805 0.636026 0
M  V30 2238 H 237.055 1.22502 1.63749 0
M  V30 2239 H 235.21 0.140556 3.87145 0
M  V30 2240 H 235.624 2.15923 4.77993 0
M  V30 2241 H 237.098 0.60208 5.48707 0
M  V30 2242 H 237.575 -0.65073 4.34353 0
M  V30 2243 H 238.181 1.00802 4.13182 0
M  V30 2244 N 236.496 -1.42363 0.676048 0
M  V30 2245 C 237.459 -2.29199 0.00766941 0
M  V30 2246 C 238.459 -1.43389 -0.727745 0
M  V30 2247 O 239.649 -1.64764 -0.56556 0
M  V30 2248 C 236.781 -3.2591 -0.999785 0
M  V30 2249 H 237.974 -2.89794 0.771988 0
M  V30 2250 H 235.527 -1.50024 0.438468 0
M  V30 2251 H 236.262 -2.70256 -1.79255 0
M  V30 2252 H 236.047 -3.89202 -0.475829 0
M  V30 2253 H 237.537 -3.91028 -1.46583 0
M  V30 2254 N 237.974 -0.419461 -1.51915 0
M  V30 2255 C 238.884 0.407528 -2.31033 0
M  V30 2256 C 239.9 1.04413 -1.3919 0
M  V30 2257 O 241.076 1.0434 -1.72265 0
M  V30 2258 C 238.141 1.50365 -3.12396 0
M  V30 2259 C 237.202 0.889029 -4.19994 0
M  V30 2260 C 236.435 1.93291 -4.97468 0
M  V30 2261 O 236.658 3.15259 -4.75361 0
M  V30 2262 O 235.592 1.53339 -5.8204 0
M  V30 2263 H 239.418 -0.237865 -3.02767 0
M  V30 2264 H 237.003 -0.182413 -1.48282 0
M  V30 2265 H 238.885 2.13975 -3.63032 0
M  V30 2266 H 237.56 2.13345 -2.43445 0
M  V30 2267 H 236.467 0.215353 -3.7348 0
M  V30 2268 H 237.8 0.302991 -4.91267 0
M  V30 2269 N 239.452 1.56882 -0.150215 0
M  V30 2270 C 240.4 2.18214 0.805313 0
M  V30 2271 C 241.394 1.14006 1.25296 0
M  V30 2272 O 242.6 1.3225 1.22107 0
M  V30 2273 H 238.975 0.698762 0.277913 0
M  V30 2274 H 240.946 2.97231 0.263862 0
M  V30 2275 C 239.695 2.82065 2.03309 0
M  V30 2276 H 239.018 3.61968 1.69763 0
M  V30 2277 H 240.458 3.28477 2.68103 0
M  V30 2278 C 238.917 1.80739 2.84315 0
M  V30 2279 O 239.447 1.27983 3.80767 0
M  V30 2280 N 237.653 1.4997 2.48913 0
M  V30 2281 H 237.2 1.93062 1.70542 0
M  V30 2282 H 237.158 0.824217 3.03404 0
M  V30 2283 N 240.93 -0.123565 1.57115 0
M  V30 2284 C 242.176 -0.833386 1.84885 0
M  V30 2285 C 242.509 -1.79742 0.735292 0
M  V30 2286 O 241.784 -1.92764 -0.25925 0
M  V30 2287 C 242.067 -1.5873 3.23228 0
M  V30 2288 C 241.92 -0.643183 4.45178 0
M  V30 2289 C 243.239 -2.54453 3.59085 0
M  V30 2290 H 240.358 -0.301518 0.6725 0
M  V30 2291 H 243 -0.097778 1.89748 0
M  V30 2292 H 241.15 -2.21438 3.19214 0
M  V30 2293 H 242.822 -0.0253015 4.61293 0
M  V30 2294 H 241.065 0.0456139 4.33776 0
M  V30 2295 H 241.736 -1.20724 5.38637 0
M  V30 2296 H 244.212 -2.01853 3.63861 0
M  V30 2297 H 243.088 -3.04238 4.5687 0
M  V30 2298 H 243.349 -3.36906 2.86264 0
M  V30 2299 N 242.408 -1.52605 -0.393616 0
M  V30 2300 C 243.371 -1.76415 -1.46323 0
M  V30 2301 C 244.371 -0.634126 -1.47768 0
M  V30 2302 O 245.561 -0.902142 -1.4902 0
M  V30 2303 C 242.693 -1.8607 -2.85641 0
M  V30 2304 H 243.886 -2.71916 -1.26498 0
M  V30 2305 H 241.439 -1.43257 -0.625073 0
M  V30 2306 H 242.174 -0.925378 -3.10817 0
M  V30 2307 H 241.959 -2.68235 -2.85993 0
M  V30 2308 H 243.449 -2.06179 -3.63153 0
M  V30 2309 N 243.887 0.651787 -1.4349 0
M  V30 2310 C 244.834 1.76462 -1.4876 0
M  V30 2311 C 245.804 1.62641 -0.337189 0
M  V30 2312 O 246.989 1.82864 -0.544544 0
M  V30 2313 C 244.129 3.14623 -1.41796 0
M  V30 2314 C 243.242 3.39568 -2.67053 0
M  V30 2315 C 242.377 4.67585 -2.52068 0
M  V30 2316 C 241.416 4.85639 -3.72587 0
M  V30 2317 N 240.553 6.04915 -3.56402 0
M  V30 2318 H 245.393 1.71293 -2.43849 0
M  V30 2319 H 242.93 0.835889 -1.21043 0
M  V30 2320 H 244.888 3.94496 -1.35753 0
M  V30 2321 H 243.518 3.18859 -0.50288 0
M  V30 2322 H 242.57 2.53783 -2.8337 0
M  V30 2323 H 243.882 3.48795 -3.56572 0
M  V30 2324 H 243.036 5.55586 -2.4374 0
M  V30 2325 H 241.775 4.60681 -1.60075 0
M  V30 2326 H 240.78 3.96073 -3.81321 0
M  V30 2327 H 242.005 4.94372 -4.65589 0
M  V30 2328 H 239.951 5.9914 -2.67146 0
M  V30 2329 H 239.868 6.15106 -4.39524 0
M  V30 2330 H 241.136 6.95533 -3.51929 0
M  V30 2331 N 245.365 1.30045 0.890287 0
M  V30 2332 C 246.297 1.11786 2.00091 0
M  V30 2333 C 247.31 0.0626307 1.62679 0
M  V30 2334 O 248.499 0.308112 1.75821 0
M  V30 2335 C 245.599 0.681527 3.31977 0
M  V30 2336 C 244.772 1.81735 3.97858 0
M  V30 2337 C 243.831 1.37045 5.08041 0
M  V30 2338 O 242.857 2.07677 5.29961 0
M  V30 2339 N 244.059 0.246525 5.79976 0
M  V30 2340 H 246.824 2.07441 2.16306 0
M  V30 2341 H 244.385 1.2211 1.06305 0
M  V30 2342 H 246.377 0.365675 4.03045 0
M  V30 2343 H 244.947 -0.182828 3.12065 0
M  V30 2344 H 244.167 2.30159 3.20032 0
M  V30 2345 H 245.455 2.57865 4.38615 0
M  V30 2346 H 244.853 -0.34215 5.64664 0
M  V30 2347 H 243.41 -0.00990438 6.51799 0
M  V30 2348 N 246.843 -1.10192 1.12674 0
M  V30 2349 C 248.089 -1.82658 0.894847 0
M  V30 2350 C 248.444 -1.83666 -0.573107 0
M  V30 2351 O 247.737 -1.28816 -1.41835 0
M  V30 2352 C 247.931 -3.28552 1.4067 0
M  V30 2353 C 247.76 -3.41756 2.92289 0
M  V30 2354 C 246.53 -3.54021 3.60551 0
M  V30 2355 C 248.728 -3.34949 3.90274 0
M  V30 2356 N 246.71 -3.55827 5.0026 0
M  V30 2357 C 248.081 -3.43531 5.16127 0
M  V30 2358 C 250.136 -3.18565 3.8265 0
M  V30 2359 C 248.839 -3.37416 6.3525 0
M  V30 2360 C 250.865 -3.13772 5.01299 0
M  V30 2361 C 250.227 -3.22938 6.26012 0
M  V30 2362 H 246.326 -0.683044 0.380756 0
M  V30 2363 H 248.91 -1.31752 1.43351 0
M  V30 2364 H 247.081 -3.77946 0.895055 0
M  V30 2365 H 248.813 -3.88991 1.11661 0
M  V30 2366 H 245.568 -3.57135 3.1105 0
M  V30 2367 H 245.992 -3.60335 5.73138 0
M  V30 2368 H 250.634 -3.10354 2.87124 0
M  V30 2369 H 248.352 -3.44391 7.3104 0
M  V30 2370 H 251.938 -3.02242 4.97133 0
M  V30 2371 H 250.818 -3.19235 7.16281 0
M  V30 2372 N 248.321 -0.919034 -1.28029 0
M  V30 2373 C 249.253 -0.368762 -2.26214 0
M  V30 2374 C 250.266 0.495716 -1.55069 0
M  V30 2375 O 251.455 0.30974 -1.75792 0
M  V30 2376 C 248.555 0.491049 -3.35324 0
M  V30 2377 C 247.728 -0.352133 -4.3598 0
M  V30 2378 C 246.787 0.443622 -5.24327 0
M  V30 2379 O 245.813 -0.14566 -5.69014 0
M  V30 2380 N 247.015 1.74545 -5.53637 0
M  V30 2381 H 249.78 -1.21273 -2.74068 0
M  V30 2382 H 247.341 -0.785541 -1.41566 0
M  V30 2383 H 249.333 1.03026 -3.91366 0
M  V30 2384 H 247.903 1.23574 -2.87138 0
M  V30 2385 H 247.123 -1.07269 -3.79324 0
M  V30 2386 H 248.411 -0.928883 -5.00249 0
M  V30 2387 H 247.809 2.24666 -5.19174 0
M  V30 2388 H 246.366 2.23138 -6.12416 0
M  V30 2389 N 249.799 1.42003 -0.683588 0
M  V30 2390 C 250.729 2.33487 -0.024866 0
M  V30 2391 C 251.71 1.51163 0.779975 0
M  V30 2392 O 252.895 1.79739 0.735362 0
M  V30 2393 C 250.025 3.3487 0.920836 0
M  V30 2394 C 248.979 4.27414 0.223958 0
M  V30 2395 C 248.305 5.19074 1.2832 0
M  V30 2396 C 249.605 5.14445 -0.90242 0
M  V30 2397 H 251.299 2.88819 -0.788921 0
M  V30 2398 H 248.845 1.38873 -0.38083 0
M  V30 2399 H 250.798 3.97787 1.39081 0
M  V30 2400 H 249.522 2.77861 1.71642 0
M  V30 2401 H 248.181 3.65904 -0.225864 0
M  V30 2402 H 247.829 4.58387 2.071 0
M  V30 2403 H 247.529 5.81822 0.821995 0
M  V30 2404 H 249.053 5.84867 1.75392 0
M  V30 2405 H 250.467 5.70998 -0.513272 0
M  V30 2406 H 248.864 5.86072 -1.28997 0
M  V30 2407 H 249.934 4.52322 -1.74737 0
M  V30 2408 N 251.277 0.427512 1.51691 0
M  V30 2409 C 252.502 -0.143601 2.06902 0
M  V30 2410 C 252.927 -1.36536 1.29382 0
M  V30 2411 O 252.285 -1.78289 0.329043 0
M  V30 2412 C 252.333 -0.454207 3.57728 0
M  V30 2413 O 251.437 -1.54228 3.82475 0
M  V30 2414 H 250.778 -0.00617128 0.663971 0
M  V30 2415 H 253.308 0.606014 1.95419 0
M  V30 2416 H 253.318 -0.707525 4.01818 0
M  V30 2417 H 251.993 0.438812 4.13579 0
M  V30 2418 H 250.57 -1.2797 3.50254 0
M  V30 2419 N 252.755 -1.56801 0.158532 0
M  V30 2420 C 254.171 -1.5837 -0.197774 0
M  V30 2421 C 254.371 -1.17334 -1.63814 0
M  V30 2422 O 253.427 -0.878988 -2.36707 0
M  V30 2423 C 254.74 -3.00615 0.0714459 0
M  V30 2424 C 256.288 -3.12999 0.00864533 0
M  V30 2425 C 256.763 -4.57313 0.250685 0
M  V30 2426 N 258.254 -4.62777 0.198014 0
M  V30 2427 C 258.989 -5.72271 0.359642 0
M  V30 2428 N 258.485 -6.90371 0.579625 0
M  V30 2429 N 260.278 -5.61318 0.296438 0
M  V30 2430 H 252.429 -1.81765 1.09887 0
M  V30 2431 H 254.692 -0.841849 0.435884 0
M  V30 2432 H 254.398 -3.35068 1.06874 0
M  V30 2433 H 254.272 -3.71683 -0.642757 0
M  V30 2434 H 256.659 -2.7838 -0.979217 0
M  V30 2435 H 256.74 -2.44393 0.755359 0
M  V30 2436 H 256.384 -4.92639 1.2357 0
M  V30 2437 H 256.314 -5.24061 -0.516489 0
M  V30 2438 H 258.805 -3.77885 0.0331115 0
M  V30 2439 H 259.118 -7.69689 0.69275 0
M  V30 2440 H 257.463 -6.92264 0.616087 0
M  V30 2441 H 260.654 -4.67932 0.125258 0
M  V30 2442 H 260.827 -6.46599 0.425831 0
M  V30 2443 N 254.233 0.115231 -1.57178 0
M  V30 2444 C 255.51 0.852873 -1.76027 0
M  V30 2445 C 255.89 1.97892 -0.73498 0
M  V30 2446 O 255.238 2.27232 0.24036 0
M  V30 2447 C 255.448 1.36608 -3.21153 0
M  V30 2448 C 256.796 1.81692 -3.83762 0
M  V30 2449 O 257.82 1.46278 -3.24779 0
M  V30 2450 O 256.679 2.47104 -4.87444 0
M  V30 2451 H 253.773 0.405296 -0.720877 0
M  V30 2452 H 256.319 0.0986785 -1.69413 0
M  V30 2453 H 255.091 0.558357 -3.87296 0
M  V30 2454 H 254.714 2.18287 -3.3232 0
M  V30 2455 N 255.711 1.52812 0.385517 0
M  V30 2456 C 256.621 1.80766 1.49535 0
M  V30 2457 C 257.637 0.694651 1.59532 0
M  V30 2458 O 258.813 0.982611 1.75803 0
M  V30 2459 C 255.878 1.97381 2.85029 0
M  V30 2460 C 254.939 3.21295 2.84724 0
M  V30 2461 C 254.172 3.37108 4.13756 0
M  V30 2462 O 254.395 2.5765 5.08893 0
M  V30 2463 O 253.329 4.30378 4.20783 0
M  V30 2464 H 257.155 2.75015 1.28842 0
M  V30 2465 H 254.74 1.37946 0.573697 0
M  V30 2466 H 256.622 2.09996 3.65349 0
M  V30 2467 H 255.297 1.06322 3.05741 0
M  V30 2468 H 254.204 3.1412 2.03174 0
M  V30 2469 H 255.537 4.12212 2.68965 0
M  V30 2470 N 257.189 -0.644168 1.43834 0
M  V30 2471 C 258.121 -1.76955 1.45669 0
M  V30 2472 C 259.134 -1.58956 0.351666 0
M  V30 2473 O 260.323 -1.6751 0.616644 0
M  V30 2474 C 257.423 -3.14507 1.26248 0
M  V30 2475 C 256.596 -3.59083 2.49757 0
M  V30 2476 C 255.655 -4.75467 2.25427 0
M  V30 2477 O 254.681 -4.84444 2.98836 0
M  V30 2478 N 255.883 -5.66289 1.27661 0
M  V30 2479 H 258.648 -1.75856 2.42682 0
M  V30 2480 H 256.209 -0.828312 1.39106 0
M  V30 2481 H 258.201 -3.90067 1.0784 0
M  V30 2482 H 256.771 -3.10325 0.376478 0
M  V30 2483 H 255.991 -2.7387 2.8353 0
M  V30 2484 H 257.279 -3.85613 3.31934 0
M  V30 2485 H 256.677 -5.61718 0.670064 0
M  V30 2486 H 255.234 -6.41533 1.15234 0
M  V30 2487 N 258.668 -1.30515 -0.883378 0
M  V30 2488 C 259.945 -1.10086 -1.6168 0
M  V30 2489 C 260.325 0.349269 -2.08191 0
M  V30 2490 O 259.673 1.34105 -1.85008 0
M  V30 2491 C 259.883 -2.10315 -2.78511 0
M  V30 2492 C 261.231 -2.42119 -3.48803 0
M  V30 2493 O 262.255 -2.08638 -2.88702 0
M  V30 2494 O 261.114 -2.99396 -4.57192 0
M  V30 2495 H 258.208 -0.422907 -0.710689 0
M  V30 2496 H 260.754 -1.41947 -0.930015 0
M  V30 2497 H 259.526 -3.07917 -2.41459 0
M  V30 2498 H 259.149 -1.79282 -3.54886 0
M  V30 2499 N 260.146 1.09593 -1.13257 0
M  V30 2500 C 261.109 2.14359 -0.811358 0
M  V30 2501 C 262.109 1.59808 0.178377 0
M  V30 2502 O 263.299 1.74132 -0.0484911 0
M  V30 2503 C 260.431 3.40269 -0.207276 0
M  V30 2504 H 261.624 2.44284 -1.73969 0
M  V30 2505 H 259.177 1.25102 -0.936973 0
M  V30 2506 H 259.912 3.15969 0.73036 0
M  V30 2507 H 259.697 3.81154 -0.919992 0
M  V30 2508 H 261.187 4.176 0.000667944 0
M  V30 2509 N 261.624 0.925811 1.2754 0
M  V30 2510 C 262.871 0.565255 1.94451 0
M  V30 2511 C 263.199 -0.89316 1.7278 0
M  V30 2512 O 262.454 -1.65213 1.04895 0
M  V30 2513 C 262.753 0.835296 3.47502 0
M  V30 2514 C 262.419 2.27515 3.89291 0
M  V30 2515 C 261.081 2.66879 4.00411 0
M  V30 2516 C 263.433 3.21158 4.10496 0
M  V30 2517 C 260.761 3.99014 4.30122 0
M  V30 2518 C 263.113 4.52871 4.4169 0
M  V30 2519 C 261.777 4.92072 4.51023 0
M  V30 2520 H 261.047 0.206841 0.711546 0
M  V30 2521 H 263.694 1.16942 1.51647 0
M  V30 2522 H 261.999 0.148442 3.91519 0
M  V30 2523 H 263.696 0.535322 3.97411 0
M  V30 2524 H 260.286 1.95976 3.81171 0
M  V30 2525 H 264.47 2.9195 4.01346 0
M  V30 2526 H 259.726 4.2907 4.35556 0
M  V30 2527 H 263.9 5.25436 4.57045 0
M  V30 2528 H 261.527 5.9449 4.738 0
M  V30 2529 N 263.102 -1.41638 0.69111 0
M  V30 2530 C 264.065 -2.29178 0.0319786 0
M  V30 2531 C 265.065 -1.44153 -0.712496 0
M  V30 2532 O 266.255 -1.65354 -0.548053 0
M  V30 2533 C 263.387 -3.26952 -0.965161 0
M  V30 2534 H 264.58 -2.88959 0.802681 0
M  V30 2535 H 262.133 -1.4955 0.454356 0
M  V30 2536 H 262.868 -2.72142 -1.76378 0
M  V30 2537 H 262.653 -3.89685 -0.434522 0
M  V30 2538 H 264.143 -3.92561 -1.42428 0
M  V30 2539 N 264.58 -0.43555 -1.51462 0
M  V30 2540 C 265.826 0.131709 -2.02372 0
M  V30 2541 C 266.159 1.42516 -1.3192 0
M  V30 2542 O 265.434 1.89606 -0.433573 0
M  V30 2543 C 265.717 0.352301 -3.58373 0
M  V30 2544 C 265.57 -0.959676 -4.39443 0
M  V30 2545 C 266.889 1.12286 -4.25535 0
M  V30 2546 H 264.008 0.0463936 -0.735538 0
M  V30 2547 H 266.65 -0.574197 -1.81116 0
M  V30 2548 H 264.8 0.9536 -3.76615 0
M  V30 2549 H 266.472 -1.59482 -4.32855 0
M  V30 2550 H 264.715 -1.56468 -4.04599 0
M  V30 2551 H 265.386 -0.759394 -5.46752 0
M  V30 2552 H 267.862 0.613545 -4.11552 0
M  V30 2553 H 266.738 1.24598 -5.34571 0
M  V30 2554 H 266.999 2.15048 -3.86273 0
M  V30 2555 N 266.058 1.56714 -0.166846 0
M  V30 2556 C 267.021 2.16539 0.751232 0
M  V30 2557 C 268.021 1.11228 1.16125 0
M  V30 2558 O 269.211 1.36765 1.07894 0
M  V30 2559 C 266.343 2.74462 2.02196 0
M  V30 2560 H 267.536 2.99013 0.230499 0
M  V30 2561 H 265.089 1.56081 0.0826982 0
M  V30 2562 H 265.824 1.95709 2.58589 0
M  V30 2563 H 265.609 3.51527 1.73698 0
M  V30 2564 H 267.099 3.20489 2.67725 0
M  V30 2565 N 267.536 -0.106894 1.57237 0
M  V30 2566 C 268.761 -0.830287 1.90055 0
M  V30 2567 C 269.186 -1.72064 0.75998 0
M  V30 2568 O 268.544 -1.78982 -0.288991 0
M  V30 2569 C 268.592 -1.6295 3.21683 0
M  V30 2570 O 267.696 -2.73748 3.08441 0
M  V30 2571 H 267.037 -0.228855 0.623315 0
M  V30 2572 H 269.567 -0.085658 2.04421 0
M  V30 2573 H 269.577 -2.01621 3.54701 0
M  V30 2574 H 268.252 -0.975989 4.04286 0
M  V30 2575 H 266.829 -2.38192 2.86913 0
M  V30 2576 N 269.014 -1.53014 -0.377408 0
M  V30 2577 C 269.946 -1.74884 -1.48149 0
M  V30 2578 C 270.959 -0.629433 -1.5014 0
M  V30 2579 O 272.148 -0.905416 -1.53833 0
M  V30 2580 C 269.248 -1.80299 -2.86959 0
M  V30 2581 C 268.421 -3.09776 -3.08801 0
M  V30 2582 C 267.48 -3.06586 -4.27658 0
M  V30 2583 O 266.506 -3.80419 -4.23403 0
M  V30 2584 N 267.708 -2.26578 -5.34455 0
M  V30 2585 H 270.473 -2.70147 -1.29771 0
M  V30 2586 H 268.034 -1.51646 -0.56703 0
M  V30 2587 H 270.026 -1.75657 -3.64591 0
M  V30 2588 H 268.596 -0.92372 -2.98641 0
M  V30 2589 H 267.816 -3.27815 -2.18931 0
M  V30 2590 H 269.104 -3.95366 -3.20255 0
M  V30 2591 H 268.502 -1.66081 -5.40771 0
M  V30 2592 H 267.059 -2.27766 -6.10709 0
M  V30 2593 N 270.492 0.636531 -1.44174 0
M  V30 2594 C 271.44 1.76995 -1.50915 0
M  V30 2595 C 272.434 1.65053 -0.381295 0
M  V30 2596 O 273.64 1.71197 -0.55601 0
M  V30 2597 H 270.015 0.584247 -0.473455 0
M  V30 2598 H 271.986 1.68432 -2.4632 0
M  V30 2599 C 270.735 3.15314 -1.46534 0
M  V30 2600 H 270.058 3.25149 -2.32633 0
M  V30 2601 H 271.498 3.9453 -1.55312 0
M  V30 2602 C 269.957 3.3639 -0.185305 0
M  V30 2603 O 270.487 3.94699 0.746688 0
M  V30 2604 N 268.693 2.9046 -0.0901606 0
M  V30 2605 H 268.24 2.43193 -0.849416 0
M  V30 2606 H 268.198 3.04937 0.765553 0
M  V30 2607 N 271.97 1.30982 0.876444 0
M  V30 2608 C 272.917 1.18085 1.98304 0
M  V30 2609 C 273.887 0.0682263 1.6596 0
M  V30 2610 O 275.072 0.239937 1.89285 0
M  V30 2611 C 272.212 0.887475 3.33493 0
M  V30 2612 C 271.325 2.08281 3.78475 0
M  V30 2613 C 270.46 1.72678 5.0235 0
M  V30 2614 C 269.499 2.88657 5.39762 0
M  V30 2615 N 268.636 2.53292 6.54819 0
M  V30 2616 H 273.476 2.1275 2.08666 0
M  V30 2617 H 271.013 1.05839 1.02159 0
M  V30 2618 H 272.971 0.697961 4.1132 0
M  V30 2619 H 271.601 -0.022315 3.22792 0
M  V30 2620 H 270.653 2.3833 2.96484 0
M  V30 2621 H 271.965 2.95108 4.02135 0
M  V30 2622 H 271.119 1.50151 5.87826 0
M  V30 2623 H 269.858 0.830327 4.8058 0
M  V30 2624 H 268.863 3.1184 4.52809 0
M  V30 2625 H 270.088 3.79002 5.63502 0
M  V30 2626 H 268.034 1.66163 6.34607 0
M  V30 2627 H 267.951 3.3365 6.7839 0
M  V30 2628 H 269.219 2.34143 7.43503 0
M  V30 2629 N 273.449 -1.08991 1.13837 0
M  V30 2630 C 274.412 -2.13925 0.822715 0
M  V30 2631 C 275.412 -1.599 -0.1699 0
M  V30 2632 O 276.602 -1.74104 0.0577251 0
M  V30 2633 C 273.734 -3.40155 0.225318 0
M  V30 2634 H 274.927 -2.43358 1.75262 0
M  V30 2635 H 272.48 -1.24603 0.943594 0
M  V30 2636 H 273.215 -3.16352 -0.713594 0
M  V30 2637 H 273 -3.80661 0.940193 0
M  V30 2638 H 274.49 -4.17594 0.0214784 0
M  V30 2639 N 274.927 -0.932562 -1.27047 0
M  V30 2640 C 275.837 -0.441219 -2.30414 0
M  V30 2641 C 276.853 0.480525 -1.67233 0
M  V30 2642 O 278.029 0.362151 -1.98117 0
M  V30 2643 C 275.094 0.293651 -3.45454 0
M  V30 2644 C 274.155 -0.663601 -4.2414 0
M  V30 2645 C 273.388 0.0362932 -5.33688 0
M  V30 2646 O 273.611 1.2548 -5.56427 0
M  V30 2647 O 272.545 -0.638015 -5.98509 0
M  V30 2648 H 276.371 -1.29962 -2.74488 0
M  V30 2649 H 273.956 -0.6981 -1.32087 0
M  V30 2650 H 275.838 0.707951 -4.15411 0
M  V30 2651 H 274.513 1.12758 -3.03426 0
M  V30 2652 H 273.42 -1.12768 -3.56699 0
M  V30 2653 H 274.753 -1.46489 -4.69896 0
M  V30 2654 N 276.405 1.4127 -0.698611 0
M  V30 2655 C 277.368 2.29158 -0.044132 0
M  V30 2656 C 278.368 1.44529 0.704841 0
M  V30 2657 O 279.558 1.65643 0.539276 0
M  V30 2658 C 276.69 3.27459 0.947809 0
M  V30 2659 H 277.883 2.88529 -0.817994 0
M  V30 2660 H 275.436 1.49307 -0.46228 0
M  V30 2661 H 276.171 2.73073 1.74933 0
M  V30 2662 H 275.956 3.8991 0.41385 0
M  V30 2663 H 277.446 3.93311 1.40344 0
M  V30 2664 N 277.883 0.443576 1.51229 0
M  V30 2665 C 278.846 -0.353132 2.26463 0
M  V30 2666 C 279.846 -0.944338 1.3015 0
M  V30 2667 O 281.036 -0.817813 1.5381 0
M  V30 2668 C 278.168 -1.50023 3.06114 0
M  V30 2669 H 279.361 0.3063 2.98332 0
M  V30 2670 H 276.914 0.196902 1.55055 0
M  V30 2671 H 277.649 -2.19553 2.38677 0
M  V30 2672 H 277.434 -1.08241 3.76864 0
M  V30 2673 H 278.924 -2.06296 3.63087 0
M  V30 2674 N 279.361 -1.56624 0.175154 0
M  V30 2675 C 280.293 -2.15333 -0.785128 0
M  V30 2676 C 281.306 -1.1099 -1.19101 0
M  V30 2677 O 282.495 -1.38162 -1.13019 0
M  V30 2678 C 279.595 -2.68427 -2.06882 0
M  V30 2679 C 278.768 -3.97466 -1.8259 0
M  V30 2680 C 277.827 -4.35585 -2.95215 0
M  V30 2681 O 276.853 -5.03389 -2.65684 0
M  V30 2682 N 278.055 -3.97457 -4.23094 0
M  V30 2683 H 280.82 -2.98359 -0.283187 0
M  V30 2684 H 278.381 -1.61898 -0.00749817 0
M  V30 2685 H 280.373 -2.90924 -2.81328 0
M  V30 2686 H 278.943 -1.89968 -2.48256 0
M  V30 2687 H 278.163 -3.83307 -0.920287 0
M  V30 2688 H 279.451 -4.81736 -1.63733 0
M  V30 2689 H 278.849 -3.42878 -4.49945 0
M  V30 2690 H 277.406 -4.24947 -4.9423 0
M  V30 2691 N 280.839 0.0985539 -1.57292 0
M  V30 2692 C 281.786 1.11981 -2.01814 0
M  V30 2693 C 282.756 1.39999 -0.89384 0
M  V30 2694 O 283.941 1.5152 -1.15958 0
M  V30 2695 C 281.081 2.43577 -2.44467 0
M  V30 2696 C 280.194 2.2232 -3.70402 0
M  V30 2697 C 279.329 3.4729 -4.01949 0
M  V30 2698 C 278.368 3.2128 -5.21005 0
M  V30 2699 N 277.505 4.38507 -5.48321 0
M  V30 2700 H 282.345 0.733149 -2.88841 0
M  V30 2701 H 279.882 0.350482 -1.42864 0
M  V30 2702 H 281.84 3.20373 -2.6724 0
M  V30 2703 H 280.47 2.80097 -1.60455 0
M  V30 2704 H 279.522 1.36343 -3.55126 0
M  V30 2705 H 280.834 1.99089 -4.57345 0
M  V30 2706 H 279.988 4.32495 -4.25479 0
M  V30 2707 H 278.727 3.73572 -3.13521 0
M  V30 2708 H 277.732 2.34468 -4.97298 0
M  V30 2709 H 278.957 2.96348 -6.11028 0
M  V30 2710 H 276.903 4.64871 -4.62851 0
M  V30 2711 H 276.82 4.18455 -6.29628 0
M  V30 2712 H 278.088 5.24787 -5.76385 0
M  V30 2713 N 282.317 1.53212 0.369288 0
M  V30 2714 C 283.594 1.59815 1.12776 0
M  V30 2715 C 283.974 0.403402 2.0721 0
M  V30 2716 O 283.322 -0.606667 2.20299 0
M  V30 2717 C 283.532 2.94664 1.87013 0
M  V30 2718 C 284.88 3.49109 2.41677 0
M  V30 2719 O 285.904 2.96669 1.97144 0
M  V30 2720 O 284.763 4.40775 3.23079 0
M  V30 2721 H 281.857 0.645376 0.517125 0
M  V30 2722 H 284.403 1.65553 0.37285 0
M  V30 2723 H 283.175 3.73061 1.18071 0
M  V30 2724 H 282.798 2.92401 2.69421 0
M  V30 2725 N 283.795 -0.628877 1.44509 0
M  V30 2726 C 285.043 -1.38565 1.4712 0
M  V30 2727 C 285.364 -1.94712 0.105899 0
M  V30 2728 O 284.634 -1.75912 -0.862079 0
M  V30 2729 H 283.214 -0.514333 0.541729 0
M  V30 2730 H 285.876 -0.740018 1.80305 0
M  V30 2731 H 284.972 -2.21583 2.19789 0
M  V30 2732 N 285.273 -1.31445 -0.869486 0
M  V30 2733 C 286.689 -1.10113 -1.15531 0
M  V30 2734 C 286.889 0.128087 -2.01092 0
M  V30 2735 O 285.945 0.817276 -2.38908 0
M  V30 2736 C 287.258 -2.37291 -1.84698 0
M  V30 2737 C 288.806 -2.42906 -1.97397 0
M  V30 2738 C 289.281 -3.69967 -2.69979 0
M  V30 2739 N 290.772 -3.70864 -2.77514 0
M  V30 2740 C 291.507 -4.65875 -3.34287 0
M  V30 2741 N 291.003 -5.71242 -3.91988 0
M  V30 2742 N 292.796 -4.53394 -3.3225 0
M  V30 2743 H 284.947 -2.1028 -0.299347 0
M  V30 2744 H 287.21 -0.927683 -0.195214 0
M  V30 2745 H 286.916 -3.27078 -1.29278 0
M  V30 2746 H 286.79 -2.47125 -2.84972 0
M  V30 2747 H 289.177 -1.53588 -2.51982 0
M  V30 2748 H 289.258 -2.37036 -0.961643 0
M  V30 2749 H 288.902 -4.59652 -2.16062 0
M  V30 2750 H 288.832 -3.73103 -3.7162 0
M  V30 2751 H 291.323 -2.94697 -2.36563 0
M  V30 2752 H 291.636 -6.39817 -4.33421 0
M  V30 2753 H 289.981 -5.75015 -3.90362 0
M  V30 2754 H 293.172 -3.70252 -2.8641 0
M  V30 2755 H 293.345 -5.27617 -3.76197 0
M  V30 2756 N 286.751 1.08385 -1.14413 0
M  V30 2757 C 287.998 1.80776 -0.912482 0
M  V30 2758 C 288.326 1.86236 0.560934 0
M  V30 2759 O 287.581 1.33431 1.43159 0
M  V30 2760 C 287.88 3.26273 -1.45879 0
M  V30 2761 C 287.546 3.4093 -2.95089 0
M  V30 2762 C 286.208 3.44638 -3.35824 0
M  V30 2763 C 288.56 3.44591 -3.91033 0
M  V30 2764 C 285.888 3.49597 -4.71167 0
M  V30 2765 C 288.24 3.51086 -5.26233 0
M  V30 2766 C 286.904 3.53067 -5.6648 0
M  V30 2767 H 286.174 0.661507 -0.333901 0
M  V30 2768 H 288.821 1.27613 -1.42784 0
M  V30 2769 H 287.126 3.82146 -0.864376 0
M  V30 2770 H 288.823 3.80839 -1.2555 0
M  V30 2771 H 285.413 3.38736 -2.62594 0
M  V30 2772 H 289.597 3.40957 -3.60641 0
M  V30 2773 H 284.853 3.49424 -5.0171 0
M  V30 2774 H 289.027 3.52864 -6.00383 0
M  V30 2775 H 286.654 3.56662 -6.71339 0
M  V30 2776 N 288.23 0.939286 1.26551 0
M  V30 2777 C 289.177 0.446088 2.26448 0
M  V30 2778 C 290.147 -0.493234 1.58608 0
M  V30 2779 O 291.332 -0.409857 1.86346 0
M  V30 2780 C 288.472 -0.284375 3.43926 0
M  V30 2781 C 287.585 0.690399 4.26448 0
M  V30 2782 C 286.72 -0.0610712 5.31165 0
M  V30 2783 C 285.759 0.905649 6.05363 0
M  V30 2784 N 284.896 0.186055 7.01853 0
M  V30 2785 H 289.736 1.30291 2.68008 0
M  V30 2786 H 287.273 0.65371 1.31776 0
M  V30 2787 H 289.231 -0.724313 4.10864 0
M  V30 2788 H 287.861 -1.10535 3.03285 0
M  V30 2789 H 286.913 1.24885 3.59316 0
M  V30 2790 H 288.225 1.42873 4.779 0
M  V30 2791 H 287.379 -0.56038 6.04106 0
M  V30 2792 H 286.118 -0.832297 4.80546 0
M  V30 2793 H 285.123 1.4161 5.3125 0
M  V30 2794 H 286.348 1.67685 6.58072 0
M  V30 2795 H 284.294 -0.566714 6.53548 0
M  V30 2796 H 284.211 0.863752 7.51049 0
M  V30 2797 H 285.479 -0.292221 7.78952 0
M  V30 2798 N 289.708 -1.40897 0.706093 0
M  V30 2799 C 290.985 -1.94868 0.169099 0
M  V30 2800 C 291.365 -1.64485 -1.32318 0
M  V30 2801 O 290.713 -0.95744 -2.07474 0
M  V30 2802 C 290.923 -3.45798 0.471654 0
M  V30 2803 C 292.271 -4.22663 0.405127 0
M  V30 2804 O 293.295 -3.53865 0.407168 0
M  V30 2805 O 292.154 -5.45216 0.374383 0
M  V30 2806 H 289.248 -0.82673 0.0211352 0
M  V30 2807 H 291.794 -1.50558 0.782976 0
M  V30 2808 H 290.566 -3.61235 1.50416 0
M  V30 2809 H 290.189 -3.97225 -0.172666 0
M  V30 2810 N 291.186 -0.45159 -1.50991 0
M  V30 2811 C 292.096 0.358431 -2.31846 0
M  V30 2812 C 293.112 1.01438 -1.41373 0
M  V30 2813 O 294.288 1.00663 -1.74439 0
M  V30 2814 C 291.353 1.43704 -3.15515 0
M  V30 2815 C 290.414 0.799742 -4.21785 0
M  V30 2816 C 289.647 1.82696 -5.01456 0
M  V30 2817 O 289.87 3.05105 -4.81941 0
M  V30 2818 O 288.804 1.40958 -5.85162 0
M  V30 2819 H 292.63 -0.302032 -3.02194 0
M  V30 2820 H 290.215 -0.213825 -1.47862 0
M  V30 2821 H 292.097 2.06227 -3.67489 0
M  V30 2822 H 290.772 2.08133 -2.47916 0
M  V30 2823 H 289.679 0.136084 -3.73852 0
M  V30 2824 H 291.012 0.198718 -4.91799 0
M  V30 2825 N 292.664 1.56529 -0.183458 0
M  V30 2826 C 293.913 1.96419 0.458511 0
M  V30 2827 C 294.226 1.0727 1.63562 0
M  V30 2828 O 295.432 1.36893 2.34462 0
M  V30 2829 C 293.888 3.49298 0.867122 0
M  V30 2830 C 293.496 4.47092 -0.285057 0
M  V30 2831 C 295.24 3.97983 1.47683 0
M  V30 2832 C 293.147 5.91225 0.143862 0
M  V30 2833 H 292.077 0.733394 0.175071 0
M  V30 2834 H 294.728 1.81448 -0.273624 0
M  V30 2835 H 293.11 3.59731 1.65559 0
M  V30 2836 H 294.284 4.48383 -1.0625 0
M  V30 2837 H 292.599 4.08535 -0.805503 0
M  V30 2838 H 295.196 5.03134 1.80999 0
M  V30 2839 H 295.539 3.41618 2.37914 0
M  V30 2840 H 296.072 3.90617 0.752562 0
M  V30 2841 H 292.811 6.5149 -0.723974 0
M  V30 2842 H 292.331 5.93214 0.886413 0
M  V30 2843 H 294.01 6.44362 0.583628 0
M  V30 2844 N 294.142 -0.090211 1.57342 0
M  V30 2845 C 295.388 -0.793982 1.86611 0
M  V30 2846 C 295.721 -1.78142 0.773252 0
M  V30 2847 O 294.996 -1.93271 -0.218304 0
M  V30 2848 C 295.279 -1.51839 3.26523 0
M  V30 2849 C 295.132 -0.548609 4.46442 0
M  V30 2850 C 296.451 -2.46779 3.64401 0
M  V30 2851 H 293.57 -0.287186 0.678744 0
M  V30 2852 H 296.212 -0.0575076 1.89913 0
M  V30 2853 H 294.362 -2.14617 3.23839 0
M  V30 2854 H 296.034 0.0725513 4.61243 0
M  V30 2855 H 294.277 0.137614 4.33582 0
M  V30 2856 H 294.948 -1.09271 5.41076 0
M  V30 2857 H 297.424 -1.94089 3.68061 0
M  V30 2858 H 296.3 -2.94479 4.63221 0
M  V30 2859 H 296.561 -3.30758 2.93346 0
M  V30 2860 N 295.62 -1.53406 -0.361157 0
M  V30 2861 C 297.031 -1.61442 -0.937728 0
M  V30 2862 C 297.382 -0.48461 -1.90121 0
M  V30 2863 O 296.507 0.388312 -2.12888 0
M  V30 2864 C 297.102 -2.92624 -1.70753 0
M  V30 2865 C 295.661 -3.02981 -2.23337 0
M  V30 2866 C 294.808 -2.5677 -1.04712 0
M  V30 2867 H 297.759 -1.58083 -0.139816 0
M  V30 2868 H 297.78 -2.80675 -2.56908 0
M  V30 2869 H 297.292 -3.74834 -1.00604 0
M  V30 2870 H 295.393 -2.25368 -2.96715 0
M  V30 2871 H 295.506 -4.0814 -2.50916 0
M  V30 2872 H 293.87 -2.11752 -1.41539 0
M  V30 2873 H 294.653 -3.41402 -0.360539 0
M  V30 2874 N 297.098 0.621204 -1.44841 0
M  V30 2875 C 298.345 1.38055 -1.48145 0
M  V30 2876 C 298.673 1.94143 -0.117867 0
M  V30 2877 O 297.928 1.74713 0.881694 0
M  V30 2878 C 298.227 2.55675 -2.4973 0
M  V30 2879 C 297.893 2.17817 -3.94799 0
M  V30 2880 C 296.555 2.07205 -4.34303 0
M  V30 2881 C 298.907 1.88065 -4.86087 0
M  V30 2882 C 296.235 1.65045 -5.63007 0
M  V30 2883 C 298.587 1.47394 -6.15189 0
M  V30 2884 C 297.251 1.35331 -6.53637 0
M  V30 2885 H 296.521 0.505181 -0.542101 0
M  V30 2886 H 299.168 0.703477 -1.78111 0
M  V30 2887 H 297.473 3.2866 -2.13284 0
M  V30 2888 H 299.17 3.13904 -2.4953 0
M  V30 2889 H 295.76 2.26998 -3.63552 0
M  V30 2890 H 299.944 1.95168 -4.56315 0
M  V30 2891 H 295.2 1.54317 -5.91605 0
M  V30 2892 H 299.374 1.23415 -6.85377 0
M  V30 2893 H 297.001 1.02435 -7.53267 0
M  V30 2894 N 298.576 1.31904 0.862503 0
M  V30 2895 C 299.825 1.21373 1.61094 0
M  V30 2896 C 300.138 -0.22504 1.94301 0
M  V30 2897 O 301.344 -0.452121 2.67709 0
M  V30 2898 C 299.8 2.12525 2.9045 0
M  V30 2899 C 299.408 3.61441 2.64697 0
M  V30 2900 C 301.152 2.10813 3.68454 0
M  V30 2901 C 299.059 4.44578 3.90006 0
M  V30 2902 H 297.989 0.450705 0.604468 0
M  V30 2903 H 300.64 1.56811 0.953027 0
M  V30 2904 H 299.022 1.69994 3.57656 0
M  V30 2905 H 300.196 4.12264 2.05851 0
M  V30 2906 H 298.511 3.65205 2.00036 0
M  V30 2907 H 301.108 2.70167 4.61426 0
M  V30 2908 H 301.451 1.09713 4.01583 0
M  V30 2909 H 301.984 2.51583 3.08141 0
M  V30 2910 H 298.723 5.46461 3.62023 0
M  V30 2911 H 298.243 3.98508 4.48276 0
M  V30 2912 H 299.922 4.57176 4.5782 0
M  V30 2913 N 300.054 -1.07777 1.14986 0
M  V30 2914 C 301.3 -1.80557 0.923422 0
M  V30 2915 C 301.633 -1.86298 -0.548337 0
M  V30 2916 O 300.908 -1.34354 -1.40639 0
M  V30 2917 C 301.191 -3.25839 1.53299 0
M  V30 2918 C 301.044 -3.28269 3.07505 0
M  V30 2919 C 302.363 -4.22991 1.21518 0
M  V30 2920 H 299.482 -0.655493 0.336894 0
M  V30 2921 H 302.124 -1.26144 1.42083 0
M  V30 2922 H 300.274 -3.72306 1.10999 0
M  V30 2923 H 301.946 -2.90079 3.58681 0
M  V30 2924 H 300.189 -2.67355 3.4162 0
M  V30 2925 H 300.86 -4.30691 3.45266 0
M  V30 2926 H 303.336 -3.84894 1.581 0
M  V30 2927 H 302.212 -5.22945 1.66793 0
M  V30 2928 H 302.473 -4.41904 0.131505 0
M  V30 2929 N 301.532 -0.945985 -1.26051 0
M  V30 2930 C 302.479 -0.45809 -2.26208 0
M  V30 2931 C 303.449 0.484816 -1.58867 0
M  V30 2932 O 304.634 0.399969 -1.86561 0
M  V30 2933 C 301.774 0.266131 -3.44072 0
M  V30 2934 C 300.887 -0.713005 -4.26075 0
M  V30 2935 C 300.022 0.0329013 -5.3119 0
M  V30 2936 C 299.061 -0.93774 -6.04874 0
M  V30 2937 N 298.198 -0.223274 -7.01745 0
M  V30 2938 H 303.038 -1.3171 -2.67313 0
M  V30 2939 H 300.575 -0.66069 -1.31428 0
M  V30 2940 H 302.533 0.702514 -4.11243 0
M  V30 2941 H 301.163 1.08925 -3.03867 0
M  V30 2942 H 300.215 -1.26789 -3.58648 0
M  V30 2943 H 301.527 -1.45406 -4.77136 0
M  V30 2944 H 300.681 0.528335 -6.04395 0
M  V30 2945 H 299.42 0.806801 -4.8098 0
M  V30 2946 H 298.425 -1.44425 -5.30492 0
M  V30 2947 H 299.65 -1.71172 -6.57173 0
M  V30 2948 H 297.596 0.532046 -6.53839 0
M  V30 2949 H 297.513 -0.90357 -7.50581 0
M  V30 2950 H 298.781 0.250907 -7.79096 0
M  V30 2951 N 303.011 1.40521 -0.713556 0
M  V30 2952 C 304.259 2.00527 -0.251692 0
M  V30 2953 C 304.58 1.56857 1.15848 0
M  V30 2954 O 303.85 0.807127 1.785 0
M  V30 2955 H 302.43 0.741551 -0.0900646 0
M  V30 2956 H 305.092 1.71887 -0.918733 0
M  V30 2957 H 304.188 3.10813 -0.283192 0
M  V30 2958 N 304.489 0.459591 1.5075 0
M  V30 2959 C 305.905 0.113092 1.59199 0
M  V30 2960 C 306.105 -1.37951 1.46874 0
M  V30 2961 O 305.161 -2.15168 1.32132 0
M  V30 2962 C 306.474 0.653043 2.93523 0
M  V30 2963 C 308.022 0.615449 3.0689 0
M  V30 2964 C 308.497 1.13275 4.43771 0
M  V30 2965 N 309.988 1.09167 4.50152 0
M  V30 2966 C 310.723 1.46256 5.54434 0
M  V30 2967 N 310.219 1.90739 6.66026 0
M  V30 2968 N 312.012 1.37932 5.44914 0
M  V30 2969 H 304.163 1.43049 1.57005 0
M  V30 2970 H 306.426 0.590861 0.741341 0
M  V30 2971 H 306.132 1.69822 3.07983 0
M  V30 2972 H 306.006 0.0902132 3.77092 0
M  V30 2973 H 308.393 -0.420793 2.92084 0
M  V30 2974 H 308.474 1.21495 2.25106 0
M  V30 2975 H 308.118 2.16757 4.59324 0
M  V30 2976 H 308.048 0.509576 5.24129 0
M  V30 2977 H 310.539 0.76528 3.7007 0
M  V30 2978 H 310.852 2.17218 7.41644 0
M  V30 2979 H 309.197 1.94683 6.67176 0
M  V30 2980 H 312.388 1.0303 4.56621 0
M  V30 2981 H 312.561 1.67164 6.26067 0
M  V30 2982 N 305.967 -1.56429 0.191757 0
M  V30 2983 C 306.914 -2.18936 -0.730454 0
M  V30 2984 C 307.884 -1.13557 -1.21219 0
M  V30 2985 O 309.069 -1.41794 -1.27668 0
M  V30 2986 C 306.209 -2.85013 -1.9458 0
M  V30 2987 C 305.322 -4.04909 -1.50574 0
M  V30 2988 C 304.457 -4.58853 -2.67634 0
M  V30 2989 C 303.496 -5.71114 -2.20217 0
M  V30 2990 N 302.633 -6.19478 -3.30442 0
M  V30 2991 H 307.473 -2.97389 -0.190664 0
M  V30 2992 H 305.01 -1.46869 -0.0823694 0
M  V30 2993 H 306.968 -3.21492 -2.65893 0
M  V30 2994 H 305.598 -2.09129 -2.45896 0
M  V30 2995 H 304.65 -3.74115 -0.688605 0
M  V30 2996 H 305.962 -4.86113 -1.11784 0
M  V30 2997 H 305.116 -4.97619 -3.47074 0
M  V30 2998 H 303.855 -3.76749 -3.09696 0
M  V30 2999 H 302.86 -5.31879 -1.3923 0
M  V30 3000 H 304.085 -6.55033 -1.79189 0
M  V30 3001 H 302.031 -5.40297 -3.72041 0
M  V30 3002 H 301.948 -6.95725 -2.9581 0
M  V30 3003 H 303.216 -6.62898 -4.10106 0
M  V30 3004 N 307.445 0.0818655 -1.57387 0
M  V30 3005 C 308.693 0.781368 -1.86384 0
M  V30 3006 C 309.014 1.78618 -0.782342 0
M  V30 3007 O 308.284 1.94976 0.190061 0
M  V30 3008 H 306.864 0.291562 -0.687751 0
M  V30 3009 H 309.526 0.060348 -1.94807 0
M  V30 3010 H 308.622 1.3038 -2.83562 0
M  V30 3011 N 308.923 1.53595 0.353017 0
M  V30 3012 C 310.2 1.61002 1.11075 0
M  V30 3013 C 310.58 0.425356 2.0677 0
M  V30 3014 O 309.928 -0.583267 2.2093 0
M  V30 3015 C 310.138 2.96631 1.83877 0
M  V30 3016 C 311.486 3.51653 2.37961 0
M  V30 3017 O 312.51 2.98743 1.93987 0
M  V30 3018 O 311.369 4.44177 3.18386 0
M  V30 3019 H 308.463 0.650825 0.510251 0
M  V30 3020 H 311.009 1.6594 0.35527 0
M  V30 3021 H 309.781 3.74293 1.14108 0
M  V30 3022 H 309.404 2.95242 2.66304 0
M  V30 3023 N 310.401 -0.613514 1.45168 0
M  V30 3024 C 311.65 -1.36874 1.4815 0
M  V30 3025 C 311.963 -1.952 0.124982 0
M  V30 3026 O 313.169 -2.71481 0.0324176 0
M  V30 3027 C 311.625 -2.47905 2.60904 0
M  V30 3028 C 311.233 -1.96016 4.02842 0
M  V30 3029 C 312.977 -3.24965 2.73126 0
M  V30 3030 C 310.884 -3.04494 5.06988 0
M  V30 3031 H 309.814 -0.514428 0.551253 0
M  V30 3032 H 312.465 -0.658182 1.7129 0
M  V30 3033 H 310.847 -3.21618 2.31037 0
M  V30 3034 H 312.021 -1.29051 4.4236 0
M  V30 3035 H 310.336 -1.31719 3.95018 0
M  V30 3036 H 312.933 -4.05865 3.48106 0
M  V30 3037 H 313.276 -3.75588 1.79553 0
M  V30 3038 H 313.809 -2.5835 3.0249 0
M  V30 3039 H 310.548 -2.58795 6.0225 0
M  V30 3040 H 310.068 -3.70044 4.72046 0
M  V30 3041 H 311.747 -3.68976 5.31475 0
M  V30 3042 N 311.879 -1.3236 -0.855495 0
M  V30 3043 C 313.107 -1.2587 -1.64208 0
M  V30 3044 C 313.522 0.173457 -1.88002 0
M  V30 3045 O 312.879 1.11027 -1.44842 0
M  V30 3046 C 312.93 -2.01424 -3.00184 0
M  V30 3047 O 312.651 -3.39051 -2.77445 0
M  V30 3048 C 314.152 -2.01948 -3.94629 0
M  V30 3049 H 311.372 -0.434318 -0.511477 0
M  V30 3050 H 313.916 -1.74469 -1.0668 0
M  V30 3051 H 312.071 -1.56549 -3.5436 0
M  V30 3052 H 312.485 -3.77711 -3.63916 0
M  V30 3053 H 313.959 -2.59297 -4.87308 0
M  V30 3054 H 314.436 -1.00554 -4.27534 0
M  V30 3055 H 315.042 -2.46767 -3.4639 0
M  V30 3056 N 313.357 1.07166 -1.15556 0
M  V30 3057 C 314.603 1.80065 -0.932984 0
M  V30 3058 C 314.936 1.86586 0.53845 0
M  V30 3059 O 314.211 1.35098 1.39924 0
M  V30 3060 C 314.494 3.25022 -1.55025 0
M  V30 3061 C 314.347 3.26634 -3.09242 0
M  V30 3062 C 315.666 4.22341 -1.2376 0
M  V30 3063 H 312.785 0.653697 -0.340366 0
M  V30 3064 H 315.427 1.25389 -1.4275 0
M  V30 3065 H 313.577 3.71712 -1.12972 0
M  V30 3066 H 315.249 2.88173 -3.60214 0
M  V30 3067 H 313.492 2.65539 -3.43033 0
M  V30 3068 H 314.163 4.28854 -3.47546 0
M  V30 3069 H 316.639 3.8405 -1.60139 0
M  V30 3070 H 315.515 5.22053 -1.69564 0
M  V30 3071 H 315.776 4.41828 -0.154938 0
M  V30 3072 N 314.835 0.952656 1.25548 0
M  V30 3073 C 316.112 0.523818 1.88456 0
M  V30 3074 C 316.492 -0.998871 1.85973 0
M  V30 3075 O 315.84 -1.86381 1.3219 0
M  V30 3076 C 316.05 1.0982 3.31271 0
M  V30 3077 C 317.398 1.17385 4.08051 0
M  V30 3078 O 318.422 1.04961 3.40384 0
M  V30 3079 O 317.281 1.36852 5.29088 0
M  V30 3080 H 314.375 0.172485 0.808813 0
M  V30 3081 H 316.921 1.04596 1.33633 0
M  V30 3082 H 315.693 2.1415 3.27499 0
M  V30 3083 H 315.316 0.559191 3.93648 0
M  V30 3084 N 316.313 -1.40141 0.720998 0
M  V30 3085 C 317.276 -2.29058 0.0805834 0
M  V30 3086 C 318.276 -1.45632 -0.681758 0
M  V30 3087 O 319.466 -1.6648 -0.512856 0
M  V30 3088 C 316.598 -3.28925 -0.895593 0
M  V30 3089 H 317.791 -2.87191 0.863793 0
M  V30 3090 H 315.344 -1.48553 0.485975 0
M  V30 3091 H 316.079 -2.75822 -1.70566 0
M  V30 3092 H 315.864 -3.90519 -0.351766 0
M  V30 3093 H 317.354 -3.95494 -1.34069 0
M  V30 3094 N 317.792 -0.46758 -1.50504 0
M  V30 3095 C 319.069 0.15003 -1.95024 0
M  V30 3096 C 319.449 1.57304 -1.40779 0
M  V30 3097 O 318.797 2.20281 -0.607319 0
M  V30 3098 C 319.007 0.0969324 -3.48865 0
M  V30 3099 C 320.355 0.287565 -4.23625 0
M  V30 3100 O 321.379 0.173678 -3.55776 0
M  V30 3101 O 320.238 0.517186 -5.44047 0
M  V30 3102 H 317.332 0.113582 -0.819163 0
M  V30 3103 H 319.878 -0.52773 -1.61286 0
M  V30 3104 H 318.65 -0.896732 -3.80886 0
M  V30 3105 H 318.273 0.816303 -3.8913 0
M  V30 3106 N 319.27 1.56325 -0.20005 0
M  V30 3107 C 320.18 2.22931 0.730668 0
M  V30 3108 C 321.196 1.22997 1.23076 0
M  V30 3109 O 322.372 1.55748 1.27689 0
M  V30 3110 C 319.437 2.87948 1.93098 0
M  V30 3111 C 318.498 4.03166 1.47497 0
M  V30 3112 C 317.731 4.65073 2.61807 0
M  V30 3113 O 317.954 4.25913 3.79413 0
M  V30 3114 O 316.888 5.54452 2.34237 0
M  V30 3115 H 320.714 3.03084 0.193391 0
M  V30 3116 H 318.299 1.49371 0.0294621 0
M  V30 3117 H 320.181 3.29063 2.6324 0
M  V30 3118 H 318.856 2.10771 2.45677 0
M  V30 3119 H 317.763 3.66664 0.742201 0
M  V30 3120 H 319.096 4.82022 0.995796 0
M  V30 3121 N 320.748 -0.0735177 1.57428 0
M  V30 3122 C 321.978 -0.78483 1.91112 0
M  V30 3123 C 322.386 -1.71729 0.7941 0
M  V30 3124 O 321.729 -1.82105 -0.241542 0
M  V30 3125 C 321.791 -1.63346 3.20247 0
M  V30 3126 C 321.455 -0.870557 4.48632 0
M  V30 3127 C 322.452 -0.19058 5.19551 0
M  V30 3128 C 320.137 -0.838242 4.95256 0
M  V30 3129 C 322.131 0.511503 6.35344 0
M  V30 3130 C 319.818 -0.132386 6.10957 0
M  V30 3131 C 320.816 0.541288 6.80852 0
M  V30 3132 O 320.504 1.23578 7.94345 0
M  V30 3133 H 320.236 -0.228408 0.636244 0
M  V30 3134 H 322.79 -0.0486039 2.05342 0
M  V30 3135 H 321.02 -2.41245 3.02222 0
M  V30 3136 H 322.709 -2.22329 3.39595 0
M  V30 3137 H 323.475 -0.206864 4.84559 0
M  V30 3138 H 319.354 -1.35206 4.40727 0
M  V30 3139 H 322.898 1.03789 6.89836 0
M  V30 3140 H 318.795 -0.114023 6.45399 0
M  V30 3141 H 319.563 1.14487 8.10454 0
M  V30 3142 N 322.226 -1.5378 -0.344866 0
M  V30 3143 C 323.475 -1.7018 -1.08267 0
M  V30 3144 C 323.788 -0.471 -1.89845 0
M  V30 3145 O 324.994 -0.515917 -2.66553 0
M  V30 3146 C 323.45 -3.00923 -1.97417 0
M  V30 3147 C 323.058 -4.31335 -1.21053 0
M  V30 3148 C 324.802 -3.26688 -2.71063 0
M  V30 3149 C 322.709 -5.53153 -2.09225 0
M  V30 3150 H 321.639 -0.634138 -0.407903 0
M  V30 3151 H 324.29 -1.8028 -0.342246 0
M  V30 3152 H 322.672 -2.84676 -2.75274 0
M  V30 3153 H 323.846 -4.58281 -0.481159 0
M  V30 3154 H 322.161 -4.12173 -0.591813 0
M  V30 3155 H 324.758 -4.1489 -3.37299 0
M  V30 3156 H 325.101 -2.43639 -3.37558 0
M  V30 3157 H 325.634 -3.43705 -2.0028 0
M  V30 3158 H 322.373 -6.38741 -1.47274 0
M  V30 3159 H 321.893 -5.30458 -2.79955 0
M  V30 3160 H 323.572 -5.88744 -2.68308 0
M  V30 3161 N 323.704 0.605807 -1.45491 0
M  V30 3162 C 325.12 0.926751 -1.29936 0
M  V30 3163 C 325.32 1.99896 -0.253706 0
M  V30 3164 O 324.376 2.50038 0.351737 0
M  V30 3165 C 325.689 1.36599 -2.67883 0
M  V30 3166 C 327.237 1.4801 -2.75793 0
M  V30 3167 C 327.712 1.95309 -4.14268 0
M  V30 3168 N 329.203 2.0254 -4.16571 0
M  V30 3169 C 329.938 2.40363 -5.20589 0
M  V30 3170 N 329.434 2.77143 -6.34952 0
M  V30 3171 N 331.227 2.40718 -5.07948 0
M  V30 3172 H 323.378 -0.102862 -2.12151 0
M  V30 3173 H 325.641 0.016639 -0.947854 0
M  V30 3174 H 325.347 0.652306 -3.45598 0
M  V30 3175 H 325.221 2.33215 -2.96463 0
M  V30 3176 H 327.608 2.1847 -1.98381 0
M  V30 3177 H 327.689 0.497041 -2.50925 0
M  V30 3178 H 327.333 1.25436 -4.92167 0
M  V30 3179 H 327.263 2.94532 -4.3653 0
M  V30 3180 H 329.754 1.76699 -3.34045 0
M  V30 3181 H 330.067 3.0489 -7.10114 0
M  V30 3182 H 328.412 2.74834 -6.3835 0
M  V30 3183 H 331.603 2.11392 -4.1765 0
M  V30 3184 H 331.776 2.69869 -5.89131 0
M  V30 3185 N 325.182 1.32811 0.848464 0
M  V30 3186 C 326.132 1.18842 1.94578 0
M  V30 3187 C 327.116 0.0937517 1.60627 0
M  V30 3188 O 328.308 0.320887 1.74067 0
M  V30 3189 C 325.437 0.91999 3.30743 0
M  V30 3190 C 324.523 2.05665 3.70894 0
M  V30 3191 N 324.914 3.30579 3.8282 0
M  V30 3192 C 323.212 1.9612 4.00566 0
M  V30 3193 C 323.913 4.05067 4.17487 0
M  V30 3194 N 322.889 3.33419 4.2934 0
M  V30 3195 H 326.691 2.13536 2.0194 0
M  V30 3196 H 324.205 1.2468 1.0406 0
M  V30 3197 H 326.202 0.800859 4.09136 0
M  V30 3198 H 324.862 -0.0185076 3.24695 0
M  V30 3199 H 325.873 3.65441 3.66978 0
M  V30 3200 H 322.55 1.09871 4.02784 0
M  V30 3201 H 323.94 5.12815 4.34131 0
M  V30 3202 N 326.66 -1.06551 1.16123 0
M  V30 3203 C 327.908 -1.78947 0.939267 0
M  V30 3204 C 328.229 -1.87532 -0.534476 0
M  V30 3205 O 327.499 -1.38211 -1.38833 0
M  V30 3206 H 326.079 -0.662807 0.344523 0
M  V30 3207 H 328.741 -1.28725 1.46342 0
M  V30 3208 H 327.837 -2.81117 1.35572 0
M  V30 3209 N 328.138 -0.959301 -1.25041 0
M  V30 3210 C 329.101 -0.487677 -2.23952 0
M  V30 3211 C 330.101 0.41119 -1.55454 0
M  V30 3212 O 331.291 0.207825 -1.72956 0
M  V30 3213 C 328.423 0.294807 -3.39623 0
M  V30 3214 H 329.616 -1.36198 -2.67189 0
M  V30 3215 H 327.169 -0.743042 -1.37508 0
M  V30 3216 H 327.904 1.18658 -3.01813 0
M  V30 3217 H 327.689 -0.35012 -3.90534 0
M  V30 3218 H 329.179 0.614089 -4.1306 0
M  V30 3219 N 329.616 1.39756 -0.72842 0
M  V30 3220 C 330.844 2.04948 -0.283528 0
M  V30 3221 C 331.259 1.54908 1.0793 0
M  V30 3222 O 330.616 0.711135 1.68075 0
M  V30 3223 C 330.667 3.60498 -0.268957 0
M  V30 3224 O 330.388 4.08695 -1.57798 0
M  V30 3225 C 331.889 4.4288 0.192912 0
M  V30 3226 H 329.109 0.659243 -0.125056 0
M  V30 3227 H 331.653 1.78927 -0.990226 0
M  V30 3228 H 329.808 3.85444 0.388801 0
M  V30 3229 H 330.222 5.02977 -1.48709 0
M  V30 3230 H 331.696 5.51791 0.151952 0
M  V30 3231 H 332.173 4.21418 1.23708 0
M  V30 3232 H 332.779 4.23069 -0.435039 0
M  V30 3233 N 331.094 0.475555 1.50254 0
M  V30 3234 C 332.024 -0.30611 2.31485 0
M  V30 3235 C 333.005 -0.986228 1.38591 0
M  V30 3236 O 334.19 -0.982541 1.67511 0
M  V30 3237 C 331.32 -1.38588 3.1845 0
M  V30 3238 C 330.274 -0.827115 4.19932 0
M  V30 3239 C 329.6 -2.00551 4.95665 0
M  V30 3240 C 330.9 0.16463 5.2204 0
M  V30 3241 H 332.594 0.371866 2.97082 0
M  V30 3242 H 330.14 0.180282 1.42867 0
M  V30 3243 H 332.093 -1.94023 3.74076 0
M  V30 3244 H 330.817 -2.09269 2.50747 0
M  V30 3245 H 329.476 -0.294702 3.65414 0
M  V30 3246 H 329.124 -2.6994 4.2443 0
M  V30 3247 H 328.824 -1.63784 5.64313 0
M  V30 3248 H 330.348 -2.56468 5.54127 0
M  V30 3249 H 331.762 -0.300699 5.72511 0
M  V30 3250 H 330.159 0.446813 5.98434 0
M  V30 3251 H 331.229 1.08905 4.72512 0
M  V30 3252 N 332.573 -1.56217 0.208337 0
M  V30 3253 C 333.85 -1.89739 -0.475234 0
M  V30 3254 C 334.23 -1.1238 -1.78701 0
M  V30 3255 O 333.578 -0.228979 -2.2735 0
M  V30 3256 C 333.788 -3.42289 -0.681101 0
M  V30 3257 C 335.136 -4.12789 -0.994507 0
M  V30 3258 O 336.16 -3.47814 -0.768357 0
M  V30 3259 O 335.019 -5.27649 -1.42299 0
M  V30 3260 H 332.113 -0.788478 -0.249461 0
M  V30 3261 H 334.659 -1.67855 0.249538 0
M  V30 3262 H 333.431 -3.90534 0.244722 0
M  V30 3263 H 333.054 -3.69909 -1.45785 0
M  V30 3264 N 334.051 0.0651679 -1.57465 0
M  V30 3265 C 335.276 0.779605 -1.9219 0
M  V30 3266 C 335.701 1.69988 -0.805333 0
M  V30 3267 O 335.059 1.79685 0.241435 0
M  V30 3268 C 335.107 1.54364 -3.2589 0
M  V30 3269 O 334.211 2.65474 -3.1559 0
M  V30 3270 H 333.552 0.212249 -0.629163 0
M  V30 3271 H 336.082 0.0314294 -2.04576 0
M  V30 3272 H 336.092 1.92146 -3.59922 0
M  V30 3273 H 334.767 0.868457 -4.06732 0
M  V30 3274 H 333.344 2.30501 -2.93128 0
M  V30 3275 N 335.529 1.53961 0.336706 0
M  V30 3276 C 336.462 1.77255 1.43722 0
M  V30 3277 C 337.44 0.62193 1.50236 0
M  V30 3278 O 338.624 0.857874 1.67847 0
M  V30 3279 C 335.751 1.87733 2.81912 0
M  V30 3280 C 334.797 3.09933 2.92991 0
M  V30 3281 S 335.63 4.68836 2.58753 0
M  V30 3282 C 336.786 4.82202 3.99039 0
M  V30 3283 H 337.019 2.70322 1.23748 0
M  V30 3284 H 334.552 1.44917 0.532777 0
M  V30 3285 H 336.51 1.94455 3.61521 0
M  V30 3286 H 335.171 0.956666 2.99177 0
M  V30 3287 H 334.364 3.1396 3.94265 0
M  V30 3288 H 333.966 3.01472 2.21338 0
M  V30 3289 H 336.258 4.64032 4.9364 0
M  V30 3290 H 337.201 5.84298 4.00002 0
M  V30 3291 H 337.609 4.10604 3.87382 0
M  V30 3292 N 337.007 -0.598083 1.45811 0
M  V30 3293 C 337.97 -1.69018 1.54808 0
M  V30 3294 C 338.97 -1.55037 0.426652 0
M  V30 3295 O 340.16 -1.59932 0.690456 0
M  V30 3296 C 337.292 -3.0835 1.45371 0
M  V30 3297 H 338.485 -1.62403 2.52121 0
M  V30 3298 H 336.038 -0.814626 1.33392 0
M  V30 3299 H 336.773 -3.20534 0.492793 0
M  V30 3300 H 336.558 -3.19907 2.26721 0
M  V30 3301 H 338.048 -3.8788 1.54721 0
M  V30 3302 N 338.485 -1.33259 -0.841409 0
M  V30 3303 C 339.432 -1.23302 -1.95103 0
M  V30 3304 C 340.402 -0.112204 -1.65721 0
M  V30 3305 O 341.587 -0.290038 -1.88583 0
M  V30 3306 C 338.727 -0.975583 -3.31023 0
M  V30 3307 C 337.84 -2.18243 -3.72819 0
M  V30 3308 C 336.975 -1.85936 -4.97595 0
M  V30 3309 C 336.014 -3.02866 -5.3192 0
M  V30 3310 N 335.151 -2.70565 -6.47873 0
M  V30 3311 H 339.991 -2.18207 -2.02952 0
M  V30 3312 H 337.528 -1.0851 -0.993173 0
M  V30 3313 H 339.486 -0.80677 -4.09325 0
M  V30 3314 H 338.116 -0.0632755 -3.22738 0
M  V30 3315 H 337.168 -2.46107 -2.90061 0
M  V30 3316 H 338.48 -3.05666 -3.94169 0
M  V30 3317 H 337.634 -1.65684 -5.83638 0
M  V30 3318 H 336.373 -0.957452 -4.78209 0
M  V30 3319 H 335.378 -3.23736 -4.44382 0
M  V30 3320 H 336.603 -3.93809 -5.53255 0
M  V30 3321 H 334.549 -1.8293 -6.29978 0
M  V30 3322 H 334.466 -3.51519 -6.69306 0
M  V30 3323 H 335.734 -2.53774 -7.37034 0
M  V30 3324 N 339.963 1.05934 -1.16686 0
M  V30 3325 C 340.893 2.1546 -0.899949 0
M  V30 3326 C 341.874 1.69391 0.155154 0
M  V30 3327 O 343.059 1.94199 0.00648693 0
M  V30 3328 C 340.189 3.44939 -0.404241 0
M  V30 3329 C 339.143 4.04536 -1.39767 0
M  V30 3330 C 338.469 5.29268 -0.760216 0
M  V30 3331 C 339.769 4.42893 -2.76845 0
M  V30 3332 H 341.463 2.38046 -1.81588 0
M  V30 3333 H 339.009 1.14404 -0.874514 0
M  V30 3334 H 340.962 4.20901 -0.204971 0
M  V30 3335 H 339.686 3.21983 0.547206 0
M  V30 3336 H 338.345 3.30635 -1.58355 0
M  V30 3337 H 337.993 5.02611 0.197831 0
M  V30 3338 H 337.693 5.70101 -1.42332 0
M  V30 3339 H 339.217 6.07924 -0.57105 0
M  V30 3340 H 340.631 5.09921 -2.62019 0
M  V30 3341 H 339.028 4.94721 -3.39663 0
M  V30 3342 H 340.098 3.53584 -3.31823 0
M  V30 3343 N 341.441 0.965919 1.2453 0
M  V30 3344 C 342.857 0.67216 1.44756 0
M  V30 3345 C 343.057 -0.766609 1.86347 0
M  V30 3346 O 342.113 -1.5407 2.00047 0
M  V30 3347 C 343.426 1.65473 2.51076 0
M  V30 3348 C 344.974 1.66716 2.64905 0
M  V30 3349 C 345.449 2.63766 3.74421 0
M  V30 3350 N 346.94 2.62198 3.81846 0
M  V30 3351 C 347.675 3.33966 4.66106 0
M  V30 3352 N 347.171 4.15245 5.54566 0
M  V30 3353 N 348.964 3.22799 4.60171 0
M  V30 3354 H 341.115 1.89553 0.958293 0
M  V30 3355 H 343.378 0.815979 0.482579 0
M  V30 3356 H 343.084 2.68296 2.27399 0
M  V30 3357 H 342.958 1.4261 3.49202 0
M  V30 3358 H 345.345 0.646057 2.87941 0
M  V30 3359 H 345.426 1.93642 1.67142 0
M  V30 3360 H 345.07 3.6601 3.52135 0
M  V30 3361 H 345 2.34121 4.71694 0
M  V30 3362 H 347.491 2.032 3.18619 0
M  V30 3363 H 347.804 4.66898 6.15814 0
M  V30 3364 H 346.149 4.1934 5.54237 0
M  V30 3365 H 349.34 2.58764 3.90075 0
M  V30 3366 H 349.513 3.78994 5.25612 0
M  V30 3367 N 342.919 -1.39368 0.735821 0
M  V30 3368 C 344.33 -1.83313 0.354015 0
M  V30 3369 C 344.681 -1.61461 -1.11466 0
M  V30 3370 O 343.806 -1.10621 -1.85989 0
M  V30 3371 C 344.401 -3.32781 0.635769 0
M  V30 3372 C 342.96 -3.75142 0.307448 0
M  V30 3373 C 342.107 -2.62358 0.897974 0
M  V30 3374 H 345.058 -1.28349 0.933398 0
M  V30 3375 H 345.079 -3.80388 -0.0921773 0
M  V30 3376 H 344.591 -3.48654 1.70476 0
M  V30 3377 H 342.692 -3.64857 -0.755674 0
M  V30 3378 H 342.805 -4.72532 0.790583 0
M  V30 3379 H 341.169 -2.52624 0.324551 0
M  V30 3380 H 341.952 -2.81036 1.97164 0
M  V30 3381 N 344.397 -0.483516 -1.5 0
M  V30 3382 C 345.36 0.292965 -2.2732 0
M  V30 3383 C 346.36 0.909499 -1.32608 0
M  V30 3384 O 347.55 0.776745 -1.55924 0
M  V30 3385 C 344.682 1.41854 -3.09984 0
M  V30 3386 H 345.875 -0.385289 -2.97415 0
M  V30 3387 H 343.428 -0.237942 -1.54478 0
M  V30 3388 H 344.163 2.13148 -2.44414 0
M  V30 3389 H 343.948 0.982114 -3.79601 0
M  V30 3390 H 345.438 1.96597 -3.68429 0
M  V30 3391 N 345.875 1.56104 -0.216619 0
M  V30 3392 C 347.122 1.98172 0.416416 0
M  V30 3393 C 347.45 1.10413 1.60122 0
M  V30 3394 O 346.705 0.147967 1.9514 0
M  V30 3395 C 347.004 3.45923 0.898464 0
M  V30 3396 C 346.67 4.50559 -0.175288 0
M  V30 3397 C 345.332 4.78897 -0.470271 0
M  V30 3398 C 347.684 5.1334 -0.901728 0
M  V30 3399 C 345.012 5.67299 -1.4963 0
M  V30 3400 C 347.364 6.02853 -1.91705 0
M  V30 3401 C 346.028 6.29537 -2.21901 0
M  V30 3402 H 345.298 0.725164 0.152377 0
M  V30 3403 H 347.945 1.88839 -0.318103 0
M  V30 3404 H 346.25 3.52434 1.71165 0
M  V30 3405 H 347.947 3.75841 1.39803 0
M  V30 3406 H 344.537 4.28551 0.0647806 0
M  V30 3407 H 348.721 4.91521 -0.687072 0
M  V30 3408 H 343.977 5.86239 -1.73592 0
M  V30 3409 H 348.151 6.50552 -2.48505 0
M  V30 3410 H 345.778 6.97835 -3.01548 0
M  V30 3411 N 347.353 -0.0568162 1.57498 0
M  V30 3412 C 348.63 -0.786954 1.79071 0
M  V30 3413 C 349.01 -1.95028 0.80792 0
M  V30 3414 O 348.358 -2.27968 -0.155858 0
M  V30 3415 C 348.568 -1.24594 3.26002 0
M  V30 3416 C 349.916 -1.67323 3.90241 0
M  V30 3417 O 350.94 -1.34124 3.29984 0
M  V30 3418 O 349.799 -2.28842 4.9628 0
M  V30 3419 H 346.893 -0.378262 0.735423 0
M  V30 3420 H 349.439 -0.035734 1.69662 0
M  V30 3421 H 348.211 -0.41423 3.89101 0
M  V30 3422 H 347.834 -2.05803 3.40192 0
M  V30 3423 N 348.832 -1.54138 -0.328536 0
M  V30 3424 C 349.779 -1.83176 -1.40411 0
M  V30 3425 C 350.749 -0.678494 -1.5161 0
M  V30 3426 O 351.934 -0.92443 -1.6691 0
M  V30 3427 C 349.074 -2.06035 -2.76846 0
M  V30 3428 C 348.187 -3.33727 -2.74318 0
M  V30 3429 C 347.322 -3.46574 -4.02567 0
M  V30 3430 C 346.361 -4.68159 -3.94327 0
M  V30 3431 N 345.498 -4.77959 -5.14296 0
M  V30 3432 H 350.338 -2.74938 -1.14948 0
M  V30 3433 H 347.875 -1.36166 -0.556538 0
M  V30 3434 H 349.833 -2.1728 -3.56153 0
M  V30 3435 H 348.463 -1.1757 -3.00628 0
M  V30 3436 H 347.515 -3.31246 -1.8703 0
M  V30 3437 H 348.827 -4.23139 -2.64111 0
M  V30 3438 H 347.981 -3.57333 -4.90304 0
M  V30 3439 H 346.72 -2.55245 -4.15574 0
M  V30 3440 H 345.725 -4.57461 -3.04974 0
M  V30 3441 H 346.95 -5.60868 -3.82889 0
M  V30 3442 H 344.896 -3.89544 -5.27818 0
M  V30 3443 H 344.813 -5.6133 -5.06404 0
M  V30 3444 H 346.081 -4.93044 -6.03761 0
M  V30 3445 N 350.31 0.590341 -1.46126 0
M  V30 3446 C 351.22 1.72793 -1.58681 0
M  V30 3447 C 352.236 1.67516 -0.470566 0
M  V30 3448 O 353.412 1.87562 -0.733642 0
M  V30 3449 C 350.477 3.09287 -1.5666 0
M  V30 3450 C 349.538 3.25886 -2.79458 0
M  V30 3451 C 348.771 4.55869 -2.77524 0
M  V30 3452 O 348.994 5.3928 -1.85832 0
M  V30 3453 O 347.928 4.75552 -3.68964 0
M  V30 3454 H 351.754 1.65149 -2.54872 0
M  V30 3455 H 349.339 0.756486 -1.28832 0
M  V30 3456 H 351.221 3.90577 -1.58202 0
M  V30 3457 H 349.896 3.17385 -0.636271 0
M  V30 3458 H 348.803 2.44119 -2.83472 0
M  V30 3459 H 350.136 3.22675 -3.71674 0
M  V30 3460 N 351.788 1.33704 0.83433 0
M  V30 3461 C 353.036 1.25169 1.58673 0
M  V30 3462 C 353.357 -0.18127 1.94156 0
M  V30 3463 O 352.627 -1.11113 1.6134 0
M  V30 3464 H 351.207 0.4603 0.58833 0
M  V30 3465 H 353.869 1.67478 0.996847 0
M  V30 3466 H 352.965 1.84856 2.51465 0
M  V30 3467 N 353.266 -1.05314 1.17247 0
M  V30 3468 C 354.494 -1.81971 0.984593 0
M  V30 3469 C 354.909 -1.82929 -0.467166 0
M  V30 3470 O 354.266 -1.25564 -1.32438 0
M  V30 3471 C 354.317 -3.28143 1.51672 0
M  V30 3472 O 354.038 -3.27347 2.91163 0
M  V30 3473 C 355.539 -4.21493 1.37326 0
M  V30 3474 H 352.759 -0.573455 0.348411 0
M  V30 3475 H 355.303 -1.32808 1.55506 0
M  V30 3476 H 353.458 -3.74582 0.988302 0
M  V30 3477 H 353.872 -4.18824 3.15732 0
M  V30 3478 H 355.346 -5.22043 1.79375 0
M  V30 3479 H 355.823 -4.38031 0.320169 0
M  V30 3480 H 356.429 -3.80909 1.89178 0
M  V30 3481 N 354.744 -0.972509 -1.24016 0
M  V30 3482 C 355.99 -0.637978 -1.92504 0
M  V30 3483 C 356.323 0.825383 -1.75787 0
M  V30 3484 O 355.598 1.59442 -1.11393 0
M  V30 3485 C 355.881 -1.01942 -3.45369 0
M  V30 3486 C 355.734 -2.53983 -3.71231 0
M  V30 3487 C 357.053 -0.55751 -4.36555 0
M  V30 3488 H 354.172 -0.233248 -0.699117 0
M  V30 3489 H 356.814 -1.21238 -1.46292 0
M  V30 3490 H 354.964 -0.530656 -3.84859 0
M  V30 3491 H 356.636 -3.10374 -3.41271 0
M  V30 3492 H 354.879 -2.96968 -3.16216 0
M  V30 3493 H 355.55 -2.75723 -4.78206 0
M  V30 3494 H 358.026 -0.977029 -4.04467 0
M  V30 3495 H 356.902 -0.85292 -5.42233 0
M  V30 3496 H 357.163 0.542328 -4.38761 0
M  V30 3497 N 356.222 1.38976 -0.743202 0
M  V30 3498 C 357.45 2.04636 -0.30525 0
M  V30 3499 C 357.865 1.56044 1.06281 0
M  V30 3500 O 357.222 0.728921 1.67311 0
M  V30 3501 C 357.273 3.60193 -0.307177 0
M  V30 3502 O 356.994 4.06998 -1.62124 0
M  V30 3503 C 358.495 4.4306 0.145928 0
M  V30 3504 H 355.715 0.65788 -0.132041 0
M  V30 3505 H 358.259 1.77866 -1.00915 0
M  V30 3506 H 356.414 3.85835 0.347898 0
M  V30 3507 H 356.828 5.01371 -1.54036 0
M  V30 3508 H 358.302 5.51921 0.0934183 0
M  V30 3509 H 358.779 4.22706 1.19231 0
M  V30 3510 H 359.385 4.22584 -0.479886 0
M  V30 3511 N 357.7 0.491464 1.49741 0
M  V30 3512 C 358.663 -0.280906 2.27472 0
M  V30 3513 C 359.663 -0.902454 1.33088 0
M  V30 3514 O 360.853 -0.768465 1.56334 0
M  V30 3515 C 357.985 -1.40209 3.10732 0
M  V30 3516 H 359.178 0.401056 2.97206 0
M  V30 3517 H 356.731 0.246131 1.5435 0
M  V30 3518 H 357.466 -2.11849 2.45541 0
M  V30 3519 H 357.251 -0.961969 3.80117 0
M  V30 3520 H 358.741 -1.9464 3.69466 0
M  V30 3521 N 359.178 -1.55987 0.224894 0
M  V30 3522 C 360.426 -1.97998 -0.405099 0
M  V30 3523 C 360.747 -1.11387 -1.60056 0
M  V30 3524 O 360.017 -0.191645 -1.9496 0
M  V30 3525 H 358.597 -0.731235 -0.152658 0
M  V30 3526 H 361.259 -1.92279 0.318567 0
M  V30 3527 H 360.355 -3.03463 -0.729167 0
M  V30 3528 N 360.656 0.0484629 -1.57525 0
M  V30 3529 C 361.604 1.07359 -2.06341 0
M  V30 3530 C 362.598 1.3865 -0.973269 0
M  V30 3531 O 363.804 1.37783 -1.15827 0
M  V30 3532 H 360.179 0.363662 -0.65822 0
M  V30 3533 H 362.15 0.635916 -2.91545 0
M  V30 3534 C 360.899 2.37198 -2.54229 0
M  V30 3535 H 360.222 2.13977 -3.37719 0
M  V30 3536 H 361.662 3.07319 -2.92115 0
M  V30 3537 C 360.121 3.04805 -1.43511 0
M  V30 3538 O 360.651 3.93848 -0.79034 0
M  V30 3539 N 358.857 2.65811 -1.17444 0
M  V30 3540 H 358.404 1.93488 -1.70059 0
M  V30 3541 H 358.362 3.11366 -0.435737 0
M  V30 3542 N 362.134 1.5431 0.320358 0
M  V30 3543 C 363.097 1.83195 1.3774 0
M  V30 3544 C 364.097 0.703906 1.44575 0
M  V30 3545 O 365.287 0.972214 1.44546 0
M  V30 3546 C 362.419 1.99487 2.76438 0
M  V30 3547 H 363.612 2.77642 1.1338 0
M  V30 3548 H 361.165 1.46076 0.556012 0
M  V30 3549 H 361.9 1.07262 3.06048 0
M  V30 3550 H 361.685 2.81575 2.7287 0
M  V30 3551 H 363.175 2.23271 3.52902 0
M  V30 3552 N 363.613 -0.582584 1.46437 0
M  V30 3553 C 364.838 -1.37168 1.55563 0
M  V30 3554 C 365.263 -1.87061 0.19743 0
M  V30 3555 O 364.621 -1.61572 -0.822451 0
M  V30 3556 C 364.669 -2.53511 2.56446 0
M  V30 3557 O 363.773 -3.54953 2.09958 0
M  V30 3558 H 363.114 -0.408494 0.523477 0
M  V30 3559 H 365.644 -0.706646 1.9201 0
M  V30 3560 H 365.654 -3.00426 2.76058 0
M  V30 3561 H 364.329 -2.16549 3.55076 0
M  V30 3562 H 362.906 -3.14516 2.00334 0
M  V30 3563 N 365.091 -1.34144 -0.827227 0
M  V30 3564 C 366.339 -1.26009 -1.58007 0
M  V30 3565 C 366.66 0.170971 -1.94249 0
M  V30 3566 O 365.93 1.10256 -1.61927 0
M  V30 3567 H 364.51 -0.463414 -0.585881 0
M  V30 3568 H 367.172 -1.68005 -0.987951 0
M  V30 3569 H 366.268 -1.86187 -2.50481 0
M  V30 3570 N 366.569 1.04691 -1.17803 0
M  V30 3571 C 367.499 2.14494 -0.92275 0
M  V30 3572 C 368.48 1.69546 0.137179 0
M  V30 3573 O 369.665 1.94195 -0.0141108 0
M  V30 3574 C 366.795 3.44491 -0.440803 0
M  V30 3575 C 365.749 4.03031 -1.4405 0
M  V30 3576 C 365.075 5.28432 -0.81631 0
M  V30 3577 C 366.375 4.39932 -2.81527 0
M  V30 3578 H 368.069 2.36107 -1.84103 0
M  V30 3579 H 365.615 1.1347 -0.886599 0
M  V30 3580 H 367.568 4.2066 -0.249602 0
M  V30 3581 H 366.292 3.22546 0.513025 0
M  V30 3582 H 364.951 3.28937 -1.61853 0
M  V30 3583 H 364.599 5.02792 0.144511 0
M  V30 3584 H 364.299 5.68559 -1.48371 0
M  V30 3585 H 365.823 6.07284 -0.635496 0
M  V30 3586 H 367.237 5.07113 -2.67412 0
M  V30 3587 H 365.634 4.9109 -3.44892 0
M  V30 3588 H 366.704 3.50045 -3.35554 0
M  V30 3589 N 368.047 0.979072 1.23499 0
M  V30 3590 C 368.995 0.510604 2.26926 0
M  V30 3591 C 369.989 -0.431691 1.63807 0
M  V30 3592 O 371.195 -0.30573 1.77385 0
M  V30 3593 H 367.57 0.146688 0.737554 0
M  V30 3594 H 369.541 1.39466 2.63803 0
M  V30 3595 C 368.29 -0.172658 3.47271 0
M  V30 3596 H 367.613 0.543331 3.96091 0
M  V30 3597 H 369.053 -0.464101 4.21452 0
M  V30 3598 C 367.512 -1.40345 3.06276 0
M  V30 3599 O 368.042 -2.49978 3.14442 0
M  V30 3600 N 366.248 -1.27362 2.61203 0
M  V30 3601 H 365.795 -0.381584 2.54758 0
M  V30 3602 H 365.753 -2.09822 2.34141 0
M  V30 3603 N 369.525 -1.3858 0.750561 0
M  V30 3604 C 370.802 -1.94231 0.231009 0
M  V30 3605 C 371.182 -1.68611 -1.27018 0
M  V30 3606 O 370.53 -1.02296 -2.04323 0
M  V30 3607 C 370.74 -3.44123 0.581428 0
M  V30 3608 C 372.088 -4.2116 0.539389 0
M  V30 3609 O 373.112 -3.52391 0.519541 0
M  V30 3610 O 371.971 -5.43749 0.54765 0
M  V30 3611 H 369.065 -0.825639 0.0474263 0
M  V30 3612 H 371.611 -1.4799 0.830478 0
M  V30 3613 H 370.383 -3.56267 1.61833 0
M  V30 3614 H 370.006 -3.97573 -0.0462047 0
M  V30 3615 N 371.003 -0.499398 -1.49478 0
M  V30 3616 C 372.251 0.0455996 -2.02049 0
M  V30 3617 C 372.572 1.37633 -1.38138 0
M  V30 3618 O 371.842 1.8842 -0.536166 0
M  V30 3619 H 370.422 0.0198416 -0.746736 0
M  V30 3620 H 373.084 -0.656274 -1.83519 0
M  V30 3621 H 372.18 0.176445 -3.11601 0
M  V30 3622 N 372.481 1.55866 -0.233164 0
M  V30 3623 C 373.444 2.1953 0.658715 0
M  V30 3624 C 374.444 1.16053 1.11303 0
M  V30 3625 O 375.634 1.41218 1.01996 0
M  V30 3626 C 372.766 2.82791 1.90373 0
M  V30 3627 H 373.959 2.99721 0.10347 0
M  V30 3628 H 371.512 1.56291 0.0164245 0
M  V30 3629 H 372.247 2.06501 2.50056 0
M  V30 3630 H 372.032 3.58578 1.58632 0
M  V30 3631 H 373.522 3.31556 2.53891 0
M  V30 3632 N 373.959 -0.0401083 1.57549 0
M  V30 3633 C 374.922 -1.02871 2.04817 0
M  V30 3634 C 375.922 -1.29708 0.950388 0
M  V30 3635 O 377.112 -1.24897 1.21435 0
M  V30 3636 C 374.244 -2.36443 2.45576 0
M  V30 3637 H 375.437 -0.620631 2.93408 0
M  V30 3638 H 372.99 -0.286667 1.53649 0
M  V30 3639 H 373.725 -2.82021 1.60108 0
M  V30 3640 H 373.51 -2.18296 3.25713 0
M  V30 3641 H 375 -3.07441 2.82612 0
M  V30 3642 N 375.437 -1.54477 -0.31217 0
M  V30 3643 C 376.4 -1.83923 -1.36766 0
M  V30 3644 C 377.4 -0.711563 -1.44199 0
M  V30 3645 O 378.59 -0.979866 -1.44029 0
M  V30 3646 C 375.722 -2.0095 -2.75376 0
M  V30 3647 H 376.915 -2.78239 -1.11906 0
M  V30 3648 H 374.468 -1.46369 -0.548257 0
M  V30 3649 H 375.203 -1.08883 -3.05475 0
M  V30 3650 H 374.988 -2.83018 -2.71373 0
M  V30 3651 H 376.478 -2.2514 -3.51713 0
M  V30 3652 N 376.915 0.57481 -1.46744 0
M  V30 3653 C 377.878 1.66533 -1.57478 0
M  V30 3654 C 378.878 1.54338 -0.451263 0
M  V30 3655 O 380.068 1.58814 -0.715813 0
M  V30 3656 C 377.2 3.05999 -1.50259 0
M  V30 3657 H 378.393 1.58372 -2.54673 0
M  V30 3658 H 375.946 0.793301 -1.34672 0
M  V30 3659 H 376.681 3.19709 -0.543725 0
M  V30 3660 H 376.466 3.16259 -2.31781 0
M  V30 3661 H 377.956 3.8537 -1.60872 0
M  V30 3662 N 378.394 1.34581 0.820102 0
M  V30 3663 C 379.324 1.29038 1.94606 0
M  V30 3664 C 380.305 0.1673 1.69275 0
M  V30 3665 O 381.49 0.360112 1.90832 0
M  V30 3666 C 378.62 1.04793 3.31113 0
M  V30 3667 C 377.574 2.13597 3.70891 0
M  V30 3668 C 376.9 1.74537 5.05412 0
M  V30 3669 C 378.2 3.55451 3.8269 0
M  V30 3670 H 379.894 2.23248 1.99501 0
M  V30 3671 H 377.44 1.0747 0.958449 0
M  V30 3672 H 379.393 0.995592 4.0947 0
M  V30 3673 H 378.117 0.0702565 3.26524 0
M  V30 3674 H 376.776 2.17905 2.9481 0
M  V30 3675 H 376.424 0.754226 4.97313 0
M  V30 3676 H 376.124 2.47361 5.32997 0
M  V30 3677 H 377.648 1.70803 5.86224 0
M  V30 3678 H 379.062 3.5354 4.51312 0
M  V30 3679 H 377.459 4.26922 4.21732 0
M  V30 3680 H 378.529 3.92587 2.84611 0
M  V30 3681 N 379.872 -1.04064 1.18357 0
M  V30 3682 C 380.802 -2.14001 0.934113 0
M  V30 3683 C 381.783 -1.69616 -0.128186 0
M  V30 3684 O 382.968 -1.94185 0.0244093 0
M  V30 3685 C 380.098 -3.44253 0.459066 0
M  V30 3686 C 379.052 -4.02261 1.46185 0
M  V30 3687 C 378.378 -5.27992 0.844322 0
M  V30 3688 C 379.678 -4.38432 2.83856 0
M  V30 3689 H 381.372 -2.35127 1.85352 0
M  V30 3690 H 378.918 -1.12998 0.892604 0
M  V30 3691 H 380.871 -4.20522 0.271907 0
M  V30 3692 H 379.595 -3.22813 -0.495912 0
M  V30 3693 H 378.254 -3.28074 1.63595 0
M  V30 3694 H 377.902 -5.02862 -0.117845 0
M  V30 3695 H 377.602 -5.67765 1.51384 0
M  V30 3696 H 379.126 -6.06938 0.667693 0
M  V30 3697 H 380.54 -5.05688 2.70098 0
M  V30 3698 H 378.937 -4.89254 3.47491 0
M  V30 3699 H 380.007 -3.4826 3.37406 0
M  V30 3700 N 381.35 -0.985608 -1.22978 0
M  V30 3701 C 382.283 -0.47487 -2.23204 0
M  V30 3702 C 383.261 0.460865 -1.55932 0
M  V30 3703 O 384.445 0.388105 -1.84461 0
M  V30 3704 C 381.572 0.312427 -3.37256 0
M  V30 3705 C 380.618 -0.568219 -4.22698 0
M  V30 3706 S 381.451 -2.01919 -4.95973 0
M  V30 3707 C 382.607 -1.24118 -6.1347 0
M  V30 3708 H 382.84 -1.32419 -2.66181 0
M  V30 3709 H 380.373 -0.792005 -1.32539 0
M  V30 3710 H 382.331 0.760645 -4.03391 0
M  V30 3711 H 380.992 1.13693 -2.92801 0
M  V30 3712 H 380.185 0.0371657 -5.03986 0
M  V30 3713 H 379.787 -0.952897 -3.61657 0
M  V30 3714 H 382.079 -0.505121 -6.75614 0
M  V30 3715 H 383.022 -2.02907 -6.78406 0
M  V30 3716 H 383.43 -0.757669 -5.59392 0
M  V30 3717 N 382.828 1.3818 -0.7579 0
M  V30 3718 C 384.053 2.04827 -0.325679 0
M  V30 3719 C 384.478 1.56788 1.03919 0
M  V30 3720 O 383.836 0.721811 1.66312 0
M  V30 3721 C 383.884 3.58774 -0.362447 0
M  V30 3722 O 382.988 4.07372 0.642033 0
M  V30 3723 H 382.329 0.64833 -0.143402 0
M  V30 3724 H 384.859 1.7677 -1.03023 0
M  V30 3725 H 384.869 4.07434 -0.214844 0
M  V30 3726 H 383.544 3.93096 -1.35824 0
M  V30 3727 H 382.121 3.70068 0.458688 0
M  V30 3728 N 384.306 0.507319 1.49211 0
M  V30 3729 C 385.216 -0.272136 2.33016 0
M  V30 3730 C 386.232 -0.961206 1.45041 0
M  V30 3731 O 387.408 -0.941191 1.78055 0
M  V30 3732 C 384.473 -1.31895 3.20631 0
M  V30 3733 C 383.534 -0.642648 4.24463 0
M  V30 3734 C 382.767 -1.63959 5.07891 0
M  V30 3735 O 382.99 -2.87007 4.92933 0
M  V30 3736 O 381.924 -1.19143 5.8999 0
M  V30 3737 H 385.75 0.413982 3.00865 0
M  V30 3738 H 383.335 0.268556 1.46966 0
M  V30 3739 H 385.217 -1.92446 3.7489 0
M  V30 3740 H 383.892 -1.98788 2.5547 0
M  V30 3741 H 382.799 0.00276252 3.741 0
M  V30 3742 H 384.132 -0.0160534 4.92197 0
M  V30 3743 N 385.784 -1.5574 0.241426 0
M  V30 3744 C 386.747 -2.19877 -0.647063 0
M  V30 3745 C 387.747 -1.16642 -1.10686 0
M  V30 3746 O 388.937 -1.41757 -1.01245 0
M  V30 3747 C 386.069 -2.83797 -1.88871 0
M  V30 3748 H 387.262 -2.99772 -0.087574 0
M  V30 3749 H 384.815 -1.56298 -0.00813574 0
M  V30 3750 H 385.55 -2.07824 -2.48957 0
M  V30 3751 H 385.335 -3.59414 -1.56728 0
M  V30 3752 H 386.825 -3.32898 -2.52129 0
M  V30 3753 N 387.262 0.0317525 -1.57568 0
M  V30 3754 C 388.172 1.05021 -2.0978 0
M  V30 3755 C 389.188 1.39809 -1.03583 0
M  V30 3756 O 390.364 1.49182 -1.35302 0
M  V30 3757 C 387.429 2.33301 -2.56459 0
M  V30 3758 C 386.49 2.0512 -3.77127 0
M  V30 3759 C 385.723 3.27283 -4.2157 0
M  V30 3760 O 385.946 4.37861 -3.65559 0
M  V30 3761 O 384.88 3.13141 -5.14029 0
M  V30 3762 H 388.706 0.636505 -2.96955 0
M  V30 3763 H 386.291 0.248559 -1.47318 0
M  V30 3764 H 388.173 3.08722 -2.86825 0
M  V30 3765 H 386.848 2.73973 -1.72397 0
M  V30 3766 H 385.755 1.27276 -3.51784 0
M  V30 3767 H 387.088 1.69305 -4.62165 0
M  V30 3768 N 388.74 1.54641 0.303973 0
M  V30 3769 C 389.703 1.84646 1.35789 0
M  V30 3770 C 390.703 0.7192 1.4382 0
M  V30 3771 O 391.893 0.987491 1.43507 0
M  V30 3772 C 389.025 2.02407 2.74307 0
M  V30 3773 H 390.218 2.78829 1.10429 0
M  V30 3774 H 387.771 1.46658 0.540487 0
M  V30 3775 H 388.506 1.10502 3.04893 0
M  V30 3776 H 388.291 2.84453 2.69868 0
M  V30 3777 H 389.781 2.27002 3.50514 0
M  V30 3778 N 390.218 -0.567019 1.47046 0
M  V30 3779 C 391.443 -1.3551 1.57009 0
M  V30 3780 C 391.868 -1.86841 0.217259 0
M  V30 3781 O 391.226 -1.62435 -0.805268 0
M  V30 3782 C 391.274 -2.50777 2.5912 0
M  V30 3783 O 390.378 -3.52706 2.13711 0
M  V30 3784 H 389.719 -0.402919 0.52778 0
M  V30 3785 H 392.249 -0.686241 1.92748 0
M  V30 3786 H 392.259 -2.97481 2.79229 0
M  V30 3787 H 390.934 -2.12771 3.57353 0
M  V30 3788 H 389.511 -3.12374 2.03659 0
M  V30 3789 N 391.696 -1.35014 -0.812953 0
M  V30 3790 C 393.112 -1.14914 -1.10757 0
M  V30 3791 C 393.312 0.0426818 -2.01455 0
M  V30 3792 O 392.368 0.715212 -2.42159 0
M  V30 3793 C 393.681 -2.44911 -1.74468 0
M  V30 3794 C 395.229 -2.5106 -1.86917 0
M  V30 3795 C 395.704 -3.81085 -2.54044 0
M  V30 3796 N 397.195 -3.82301 -2.61535 0
M  V30 3797 C 397.93 -4.79634 -3.14227 0
M  V30 3798 N 397.426 -5.87353 -3.67407 0
M  V30 3799 N 399.219 -4.67078 -3.12721 0
M  V30 3800 H 391.37 -2.1136 -0.20989 0
M  V30 3801 H 393.633 -0.935128 -0.155692 0
M  V30 3802 H 393.339 -3.32267 -1.15289 0
M  V30 3803 H 393.213 -2.58989 -2.74234 0
M  V30 3804 H 395.6 -1.64137 -2.45241 0
M  V30 3805 H 395.681 -2.40901 -0.860242 0
M  V30 3806 H 395.325 -4.68402 -1.96372 0
M  V30 3807 H 395.255 -3.88529 -3.55461 0
M  V30 3808 H 397.746 -3.04465 -2.23851 0
M  V30 3809 H 398.059 -6.57624 -4.05894 0
M  V30 3810 H 396.404 -5.91054 -3.65623 0
M  V30 3811 H 399.595 -3.82067 -2.70449 0
M  V30 3812 H 399.768 -5.43098 -3.53481 0
M  V30 3813 N 393.175 1.03435 -1.18907 0
M  V30 3814 C 394.591 1.28973 -0.940111 0
M  V30 3815 C 394.791 1.97676 0.390691 0
M  V30 3816 O 393.847 2.26127 1.12352 0
M  V30 3817 C 395.16 2.14221 -2.11021 0
M  V30 3818 C 396.708 2.27547 -2.14922 0
M  V30 3819 C 397.183 3.16164 -3.31367 0
M  V30 3820 N 398.674 3.23752 -3.31269 0
M  V30 3821 C 399.409 3.92495 -4.18014 0
M  V30 3822 N 398.905 4.63515 -5.14904 0
M  V30 3823 N 400.698 3.88838 -4.05908 0
M  V30 3824 H 392.849 0.57252 -2.04538 0
M  V30 3825 H 395.112 0.315184 -0.894071 0
M  V30 3826 H 394.818 1.71054 -3.073 0
M  V30 3827 H 394.692 3.14919 -2.0762 0
M  V30 3828 H 397.079 2.69947 -1.19217 0
M  V30 3829 H 397.16 1.26418 -2.22378 0
M  V30 3830 H 396.804 2.74474 -4.27348 0
M  V30 3831 H 396.734 4.17339 -3.21148 0
M  V30 3832 H 399.225 2.73167 -2.61129 0
M  V30 3833 H 399.538 5.13583 -5.77453 0
M  V30 3834 H 397.883 4.62398 -5.18857 0
M  V30 3835 H 401.074 3.32491 -3.29495 0
M  V30 3836 H 401.247 4.4214 -4.73726 0
M  V30 3837 N 394.653 0.992116 1.22453 0
M  V30 3838 C 395.901 0.666215 1.90804 0
M  V30 3839 C 396.222 -0.804152 1.77647 0
M  V30 3840 O 395.492 -1.57629 1.16318 0
M  V30 3841 H 394.072 0.243423 0.706225 0
M  V30 3842 H 396.734 1.25845 1.48825 0
M  V30 3843 H 395.83 0.928069 2.97982 0
M  V30 3844 N 396.131 -1.37776 0.765217 0
M  V30 3845 C 397.38 -1.99092 0.323307 0
M  V30 3846 C 397.693 -1.61434 -1.10446 0
M  V30 3847 O 398.899 -2.15805 -1.64743 0
M  V30 3848 C 397.355 -3.56019 0.527098 0
M  V30 3849 C 396.963 -4.0262 1.96471 0
M  V30 3850 C 398.707 -4.2424 0.148483 0
M  V30 3851 C 396.614 -5.52233 2.11644 0
M  V30 3852 H 395.544 -0.744846 0.117137 0
M  V30 3853 H 398.195 -1.57391 0.943417 0
M  V30 3854 H 396.577 -3.95667 -0.162372 0
M  V30 3855 H 397.751 -3.74234 2.68859 0
M  V30 3856 H 396.066 -3.47161 2.29931 0
M  V30 3857 H 398.663 -5.34159 0.240456 0
M  V30 3858 H 399.006 -4.06446 -0.900422 0
M  V30 3859 H 399.539 -3.89872 0.79025 0
M  V30 3860 H 396.278 -5.74945 3.1483 0
M  V30 3861 H 395.798 -5.82324 1.4373 0
M  V30 3862 H 397.477 -6.18106 1.91193 0
M  V30 3863 N 397.609 -0.515225 -1.4894 0
M  V30 3864 C 398.541 0.292481 -2.27326 0
M  V30 3865 C 399.554 0.917838 -1.3446 0
M  V30 3866 O 400.743 0.798772 -1.5963 0
M  V30 3867 C 397.843 1.42803 -3.07344 0
M  V30 3868 C 397.016 0.907347 -4.27885 0
M  V30 3869 C 396.075 1.92222 -4.89834 0
M  V30 3870 O 395.101 1.48506 -5.49486 0
M  V30 3871 N 396.303 3.25355 -4.80754 0
M  V30 3872 H 399.068 -0.379721 -2.97285 0
M  V30 3873 H 396.629 -0.348638 -1.58102 0
M  V30 3874 H 398.621 2.10481 -3.45658 0
M  V30 3875 H 397.191 2.00414 -2.39902 0
M  V30 3876 H 396.411 0.0550218 -3.94162 0
M  V30 3877 H 397.699 0.538108 -5.05946 0
M  V30 3878 H 397.097 3.6355 -4.33414 0
M  V30 3879 H 395.654 3.88707 -5.23211 0
M  V30 3880 N 399.087 1.5561 -0.249682 0
M  V30 3881 C 400.498 1.84979 0.252949 0
M  V30 3882 C 400.849 1.17153 1.57384 0
M  V30 3883 O 399.974 0.450884 2.11651 0
M  V30 3884 C 400.569 3.35584 0.465732 0
M  V30 3885 C 399.128 3.65169 0.912624 0
M  V30 3886 C 398.275 2.77299 -0.00859085 0
M  V30 3887 H 401.226 1.51513 -0.47217 0
M  V30 3888 H 401.247 3.57313 1.30795 0
M  V30 3889 H 400.759 3.8492 -0.49579 0
M  V30 3890 H 398.86 3.21312 1.88652 0
M  V30 3891 H 398.973 4.72912 0.767559 0
M  V30 3892 H 397.337 2.49678 0.50327 0
M  V30 3893 H 398.12 3.29442 -0.965537 0
M  V30 3894 N 400.565 -0.0233959 1.57583 0
M  V30 3895 C 401.495 -1.02162 2.09965 0
M  V30 3896 C 402.476 -1.3735 1.00344 0
M  V30 3897 O 403.661 -1.46135 1.27899 0
M  V30 3898 C 400.791 -2.32081 2.58371 0
M  V30 3899 C 399.745 -2.1112 3.72307 0
M  V30 3900 C 399.071 -3.46848 4.06941 0
M  V30 3901 C 400.371 -1.49276 5.00514 0
M  V30 3902 H 402.065 -0.585557 2.93618 0
M  V30 3903 H 399.611 -0.280218 1.41247 0
M  V30 3904 H 401.564 -3.02249 2.93639 0
M  V30 3905 H 400.288 -2.77758 1.71808 0
M  V30 3906 H 398.947 -1.43384 3.37397 0
M  V30 3907 H 398.595 -3.90184 3.17436 0
M  V30 3908 H 398.295 -3.33646 4.83688 0
M  V30 3909 H 399.819 -4.18369 4.44747 0
M  V30 3910 H 401.233 -2.09368 5.33702 0
M  V30 3911 H 399.63 -1.46632 5.8191 0
M  V30 3912 H 400.7 -0.459217 4.82721 0
M  V30 3913 N 402.043 -1.548 -0.295768 0
M  V30 3914 C 403.291 -1.73985 -1.02828 0
M  V30 3915 C 403.612 -0.531406 -1.87619 0
M  V30 3916 O 402.882 0.454221 -1.90561 0
M  V30 3917 H 401.462 -0.641556 -0.382642 0
M  V30 3918 H 404.124 -1.92163 -0.325489 0
M  V30 3919 H 403.22 -2.63129 -1.67838 0
M  V30 3920 N 403.521 0.559213 -1.47345 0
M  V30 3921 C 404.937 0.884943 -1.32819 0
M  V30 3922 C 405.137 1.98988 -0.317173 0
M  V30 3923 O 404.193 2.51031 0.272011 0
M  V30 3924 C 405.506 1.28007 -2.72093 0
M  V30 3925 C 407.054 1.39161 -2.80363 0
M  V30 3926 C 407.529 1.82031 -4.20272 0
M  V30 3927 N 409.02 1.89185 -4.22804 0
M  V30 3928 C 409.755 2.2368 -5.27973 0
M  V30 3929 N 409.251 2.56802 -6.43447 0
M  V30 3930 N 411.044 2.24436 -5.15349 0
M  V30 3931 H 403.195 -0.170304 -2.11716 0
M  V30 3932 H 405.458 -0.0135247 -0.947904 0
M  V30 3933 H 405.164 0.542027 -3.47498 0
M  V30 3934 H 405.038 2.23665 -3.03733 0
M  V30 3935 H 407.425 2.12048 -2.05231 0
M  V30 3936 H 407.506 0.41696 -2.52379 0
M  V30 3937 H 407.15 1.09715 -4.95908 0
M  V30 3938 H 407.08 2.80495 -4.45679 0
M  V30 3939 H 409.571 1.65982 -3.39497 0
M  V30 3940 H 409.884 2.82144 -7.19454 0
M  V30 3941 H 408.229 2.54387 -6.46771 0
M  V30 3942 H 411.42 1.97998 -4.24163 0
M  V30 3943 H 411.593 2.50989 -5.97418 0
M  V30 3944 N 404.999 1.35443 0.805782 0
M  V30 3945 C 406.248 1.28097 1.55801 0
M  V30 3946 C 406.561 -0.142428 1.95081 0
M  V30 3947 O 407.767 -0.33817 2.69386 0
M  V30 3948 C 406.223 2.24653 2.81174 0
M  V30 3949 C 405.831 3.72342 2.49129 0
M  V30 3950 C 407.575 2.2625 3.59181 0
M  V30 3951 C 405.482 4.60719 3.70799 0
M  V30 3952 H 404.412 0.475937 0.584808 0
M  V30 3953 H 407.063 1.60712 0.885661 0
M  V30 3954 H 405.445 1.85011 3.50124 0
M  V30 3955 H 406.619 4.20624 1.88181 0
M  V30 3956 H 404.934 3.73361 1.84366 0
M  V30 3957 H 407.531 2.89495 4.49552 0
M  V30 3958 H 407.874 1.26647 3.96568 0
M  V30 3959 H 408.407 2.64426 2.97193 0
M  V30 3960 H 405.146 5.61324 3.3852 0
M  V30 3961 H 404.666 4.17163 4.3097 0
M  V30 3962 H 406.345 4.76182 4.38018 0
M  V30 3963 N 406.477 -1.02803 1.19454 0
M  V30 3964 C 407.723 -1.76478 0.999171 0
M  V30 3965 C 408.056 -1.88456 -0.468828 0
M  V30 3966 O 407.331 -1.40198 -1.34814 0
M  V30 3967 C 407.614 -3.19044 1.66981 0
M  V30 3968 C 407.467 -3.14932 3.21151 0
M  V30 3969 C 408.786 -4.17456 1.39349 0
M  V30 3970 H 405.905 -0.640614 0.364393 0
M  V30 3971 H 408.547 -1.20005 1.47305 0
M  V30 3972 H 406.697 -3.67263 1.2669 0
M  V30 3973 H 408.369 -2.74605 3.70661 0
M  V30 3974 H 406.612 -2.52625 3.52652 0
M  V30 3975 H 407.283 -4.1566 3.63223 0
M  V30 3976 H 409.759 -3.77842 1.74283 0
M  V30 3977 H 408.635 -5.154 1.88823 0
M  V30 3978 H 408.896 -4.40949 0.318813 0
M  V30 3979 N 407.956 -0.998596 -1.21925 0
M  V30 3980 C 409.181 -0.696015 -1.95372 0
M  V30 3981 C 409.606 0.733826 -1.73195 0
M  V30 3982 O 408.964 1.50242 -1.01474 0
M  V30 3983 C 409.012 -1.01466 -3.4603 0
M  V30 3984 O 408.116 -0.116415 -4.12236 0
M  V30 3985 H 407.457 -0.259938 -0.611006 0
M  V30 3986 H 409.987 -1.33711 -1.54863 0
M  V30 3987 H 409.997 -0.958855 -3.96573 0
M  V30 3988 H 408.672 -2.05653 -3.61497 0
M  V30 3989 H 407.249 -0.228193 -3.72201 0
M  V30 3990 N 409.434 1.37368 -0.772513 0
M  V30 3991 C 410.68 2.00423 -0.3467 0
M  V30 3992 C 411.035 1.60224 1.06518 0
M  V30 3993 O 410.328 0.838712 1.72268 0
M  V30 3994 C 410.522 3.54817 -0.428876 0
M  V30 3995 C 410.351 4.10011 -1.84719 0
M  V30 3996 C 409.121 4.40927 -2.46803 0
M  V30 3997 C 411.319 4.30955 -2.80681 0
M  V30 3998 N 409.301 4.8184 -3.80399 0
M  V30 3999 C 410.672 4.74486 -3.99078 0
M  V30 4000 C 412.727 4.1309 -2.77958 0
M  V30 4001 C 411.43 5.02023 -5.15136 0
M  V30 4002 C 413.456 4.41764 -3.9319 0
M  V30 4003 C 412.818 4.85535 -5.10328 0
M  V30 4004 H 408.917 0.762413 -0.173927 0
M  V30 4005 H 411.501 1.66666 -1.00651 0
M  V30 4006 H 409.672 3.87881 0.200757 0
M  V30 4007 H 411.404 4.04696 0.0190668 0
M  V30 4008 H 408.159 4.30033 -1.98415 0
M  V30 4009 H 408.583 5.06604 -4.49089 0
M  V30 4010 H 413.225 3.7842 -1.88568 0
M  V30 4011 H 410.943 5.35582 -6.05126 0
M  V30 4012 H 414.529 4.29528 -3.92425 0
M  V30 4013 H 413.409 5.07296 -5.98013 0
M  V30 4014 N 410.912 0.523116 1.48665 0
M  V30 4015 C 411.875 -0.232592 2.28017 0
M  V30 4016 C 412.875 -0.874021 1.34972 0
M  V30 4017 O 414.065 -0.735132 1.57929 0
M  V30 4018 C 411.197 -1.33586 3.13636 0
M  V30 4019 H 412.39 0.464008 2.96289 0
M  V30 4020 H 409.943 0.278816 1.53793 0
M  V30 4021 H 410.678 -2.06593 2.4998 0
M  V30 4022 H 410.463 -0.881125 3.82071 0
M  V30 4023 H 411.953 -1.86759 3.73511 0
M  V30 4024 N 412.39 -1.55475 0.257931 0
M  V30 4025 C 413.618 -2.03609 -0.367559 0
M  V30 4026 C 414.033 -1.13687 -1.50734 0
M  V30 4027 O 413.39 -0.153479 -1.81853 0
M  V30 4028 C 413.441 -3.51001 -0.864908 0
M  V30 4029 O 413.162 -4.37499 0.229465 0
M  V30 4030 C 414.663 -4.14946 -1.55997 0
M  V30 4031 H 411.883 -0.665459 -0.0860521 0
M  V30 4032 H 414.427 -2.00843 0.385014 0
M  V30 4033 H 412.582 -3.54266 -1.56762 0
M  V30 4034 H 412.996 -5.24286 -0.14998 0
M  V30 4035 H 414.47 -5.19735 -1.85956 0
M  V30 4036 H 414.947 -3.6209 -2.4857 0
M  V30 4037 H 415.553 -4.15635 -0.901543 0
M  V30 4038 N 413.868 0.0150385 -1.57593 0
M  V30 4039 C 415.114 0.704043 -1.90187 0
M  V30 4040 C 415.447 1.74249 -0.857366 0
M  V30 4041 O 414.722 1.94092 0.125843 0
M  V30 4042 C 415.005 1.36087 -3.33395 0
M  V30 4043 C 414.858 0.334981 -4.48551 0
M  V30 4044 C 416.177 2.29112 -3.7576 0
M  V30 4045 H 413.296 0.254475 -0.691673 0
M  V30 4046 H 415.938 -0.0331678 -1.89971 0
M  V30 4047 H 414.088 1.98922 -3.3371 0
M  V30 4048 H 415.76 -0.292534 -4.60372 0
M  V30 4049 H 414.003 -0.344325 -4.32431 0
M  V30 4050 H 414.674 0.833316 -5.45674 0
M  V30 4051 H 417.15 1.76308 -3.76902 0
M  V30 4052 H 416.026 2.72043 -4.76743 0
M  V30 4053 H 416.287 3.16385 -3.08793 0
M  V30 4054 N 415.346 1.54954 0.287554 0
M  V30 4055 C 416.594 1.74528 1.01904 0
M  V30 4056 C 416.915 0.541349 1.87335 0
M  V30 4057 O 416.185 -0.444108 1.908 0
M  V30 4058 H 414.765 0.643576 0.379235 0
M  V30 4059 H 417.427 1.92333 0.315294 0
M  V30 4060 H 416.523 2.64015 1.6644 0
M  V30 4061 N 416.824 -0.551391 1.4764 0
M  V30 4062 C 418.07 -1.31024 1.54792 0
M  V30 4063 C 418.403 -1.9304 0.211967 0
M  V30 4064 O 417.678 -1.78175 -0.77999 0
M  V30 4065 C 417.961 -2.41593 2.67029 0
M  V30 4066 C 417.814 -1.84408 4.10261 0
M  V30 4067 C 419.133 -3.43488 2.75143 0
M  V30 4068 H 416.252 -0.475031 0.563485 0
M  V30 4069 H 418.894 -0.616454 1.79722 0
M  V30 4070 H 417.044 -3.00772 2.45904 0
M  V30 4071 H 418.716 -1.29445 4.42766 0
M  V30 4072 H 416.959 -1.15051 4.18265 0
M  V30 4073 H 417.63 -2.64367 4.84576 0
M  V30 4074 H 420.106 -2.94236 2.94218 0
M  V30 4075 H 418.982 -4.18274 3.55441 0
M  V30 4076 H 419.243 -4.02703 1.82435 0
M  V30 4077 N 418.302 -1.35869 -0.798587 0
M  V30 4078 C 419.579 -1.20145 -1.54352 0
M  V30 4079 C 419.959 0.216161 -2.0999 0
M  V30 4080 O 419.307 1.22068 -1.93162 0
M  V30 4081 C 419.517 -2.27602 -2.64572 0
M  V30 4082 C 420.865 -2.63811 -3.32699 0
M  V30 4083 O 421.889 -2.26576 -2.74849 0
M  V30 4084 O 420.748 -3.27866 -4.37226 0
M  V30 4085 H 417.842 -0.467248 -0.682355 0
M  V30 4086 H 420.388 -1.47574 -0.837859 0
M  V30 4087 H 419.16 -3.2265 -2.21388 0
M  V30 4088 H 418.783 -2.01488 -3.42766 0
M  V30 4089 N 419.78 1.02168 -1.19998 0
M  V30 4090 C 421.191 1.57135 -1.00825 0
M  V30 4091 C 421.542 1.91276 0.436818 0
M  V30 4092 O 420.667 1.71679 1.3174 0
M  V30 4093 C 421.262 2.85514 -1.82393 0
M  V30 4094 C 419.821 3.37027 -1.67601 0
M  V30 4095 C 418.968 2.10388 -1.80644 0
M  V30 4096 H 421.919 0.846106 -1.34264 0
M  V30 4097 H 421.94 3.56711 -1.32429 0
M  V30 4098 H 421.452 2.60634 -2.87561 0
M  V30 4099 H 419.553 3.66878 -0.650485 0
M  V30 4100 H 419.666 4.09572 -2.4857 0
M  V30 4101 H 418.03 2.22601 -1.23778 0
M  V30 4102 H 418.813 1.8794 -2.87286 0
M  V30 4103 N 421.258 1.00505 1.21394 0
M  V30 4104 C 422.205 0.565496 2.23765 0
M  V30 4105 C 423.175 -0.408466 1.60999 0
M  V30 4106 O 424.36 -0.310503 1.88257 0
M  V30 4107 C 421.5 -0.101667 3.4495 0
M  V30 4108 C 420.613 0.915479 4.22188 0
M  V30 4109 C 419.748 0.220574 5.30742 0
M  V30 4110 C 418.787 1.22527 5.99711 0
M  V30 4111 N 417.924 0.557831 6.9988 0
M  V30 4112 H 422.764 1.44314 2.60725 0
M  V30 4113 H 420.301 0.722643 1.28126 0
M  V30 4114 H 422.259 -0.505504 4.14126 0
M  V30 4115 H 420.889 -0.94303 3.08718 0
M  V30 4116 H 419.941 1.43756 3.52191 0
M  V30 4117 H 421.253 1.68005 4.69655 0
M  V30 4118 H 420.407 -0.239368 6.06228 0
M  V30 4119 H 419.146 -0.576401 4.84282 0
M  V30 4120 H 418.151 1.69571 5.22997 0
M  V30 4121 H 419.376 2.02332 6.48258 0
M  V30 4122 H 417.322 -0.219486 6.55633 0
M  V30 4123 H 417.239 1.26065 7.45415 0
M  V30 4124 H 418.507 0.121095 7.79406 0
M  V30 4125 N 422.737 -1.36956 0.779787 0
M  V30 4126 C 423.983 -1.99787 0.348281 0
M  V30 4127 C 424.316 -1.61756 -1.07465 0
M  V30 4128 O 423.591 -0.867639 -1.74075 0
M  V30 4129 C 423.874 -3.56597 0.50104 0
M  V30 4130 C 423.727 -4.04513 1.96697 0
M  V30 4131 C 425.046 -4.40008 -0.0898097 0
M  V30 4132 H 422.165 -0.725796 0.128022 0
M  V30 4133 H 424.807 -1.62514 0.984331 0
M  V30 4134 H 422.957 -3.88479 -0.0404347 0
M  V30 4135 H 424.629 -3.83161 2.56876 0
M  V30 4136 H 422.872 -3.56408 2.47297 0
M  V30 4137 H 423.543 -5.1352 2.02486 0
M  V30 4138 H 426.019 -4.14431 0.372293 0
M  V30 4139 H 424.895 -5.4888 0.0471605 0
M  V30 4140 H 425.156 -4.26035 -1.18096 0
M  V30 4141 N 424.215 -0.530993 -1.48385 0
M  V30 4142 C 425.148 0.278511 -2.26494 0
M  V30 4143 C 426.126 0.943905 -1.32398 0
M  V30 4144 O 427.31 0.968098 -1.61741 0
M  V30 4145 C 424.437 1.39453 -3.08659 0
M  V30 4146 C 423.483 0.840434 -4.18137 0
M  V30 4147 S 424.316 -0.292496 -5.34701 0
M  V30 4148 C 425.472 0.825973 -6.20426 0
M  V30 4149 H 425.705 -0.384365 -2.94805 0
M  V30 4150 H 423.238 -0.316799 -1.51115 0
M  V30 4151 H 425.196 2.03382 -3.56575 0
M  V30 4152 H 423.857 2.02913 -2.3976 0
M  V30 4153 H 423.05 1.67769 -4.75257 0
M  V30 4154 H 422.652 0.277819 -3.72967 0
M  V30 4155 H 424.944 1.72438 -6.55188 0
M  V30 4156 H 425.887 0.292728 -7.07495 0
M  V30 4157 H 426.295 1.10683 -5.53543 0
M  V30 4158 N 425.693 1.55336 -0.266172 0
M  V30 4159 C 426.941 1.99003 0.35246 0
M  V30 4160 C 427.262 1.15591 1.57047 0
M  V30 4161 O 426.532 0.243268 1.94384 0
M  V30 4162 H 425.112 0.735025 0.133217 0
M  V30 4163 H 427.774 1.91367 -0.369434 0
M  V30 4164 H 426.87 3.05289 0.648453 0
M  V30 4165 N 427.171 -0.0066808 1.57599 0
M  V30 4166 C 428.399 -0.704087 1.94551 0
M  V30 4167 C 428.814 -1.67677 0.867746 0
M  V30 4168 O 428.171 -1.8185 -0.153925 0
M  V30 4169 C 428.222 -1.44177 3.31505 0
M  V30 4170 O 427.943 -0.508097 4.35144 0
M  V30 4171 C 429.444 -2.23429 3.82876 0
M  V30 4172 H 426.664 -0.196523 0.641576 0
M  V30 4173 H 429.208 0.042453 2.04456 0
M  V30 4174 H 427.363 -2.13999 3.22929 0
M  V30 4175 H 427.777 -1.02782 5.14331 0
M  V30 4176 H 429.251 -2.70552 4.8115 0
M  V30 4177 H 429.728 -3.05818 3.15233 0
M  V30 4178 H 430.334 -1.58636 3.94607 0
M  V30 4179 N 428.649 -1.55105 -0.279332 0
M  V30 4180 C 429.897 -1.75066 -1.00977 0
M  V30 4181 C 430.218 -0.551276 -1.87045 0
M  V30 4182 O 429.488 0.433984 -1.91032 0
M  V30 4183 H 428.068 -0.645578 -0.375816 0
M  V30 4184 H 430.73 -1.92497 -0.305089 0
M  V30 4185 H 429.826 -2.64894 -1.65038 0
M  V30 4186 N 430.127 0.543554 -1.4793 0
M  V30 4187 C 431.538 1.12561 -1.48953 0
M  V30 4188 C 431.889 1.94578 -0.251754 0
M  V30 4189 O 431.014 2.0665 0.642255 0
M  V30 4190 C 431.609 2.04801 -2.69892 0
M  V30 4191 C 430.168 2.58251 -2.73831 0
M  V30 4192 C 429.315 1.34918 -2.42265 0
M  V30 4193 H 432.266 0.32947 -1.55242 0
M  V30 4194 H 432.287 2.88886 -2.47639 0
M  V30 4195 H 431.799 1.4508 -3.59963 0
M  V30 4196 H 429.9 3.21732 -1.87934 0
M  V30 4197 H 430.013 2.98312 -3.74895 0
M  V30 4198 H 428.377 1.66046 -1.93134 0
M  V30 4199 H 429.16 0.769693 -3.3456 0
M  V30 4200 N 431.605 1.3629 0.791371 0
M  V30 4201 C 432.854 1.29742 1.54434 0
M  V30 4202 C 433.167 -0.121729 1.95221 0
M  V30 4203 O 434.373 -0.309579 2.69729 0
M  V30 4204 C 432.829 2.27623 2.78776 0
M  V30 4205 C 432.437 3.74963 2.45166 0
M  V30 4206 C 434.181 2.30047 3.56761 0
M  V30 4207 C 432.088 4.64626 3.65891 0
M  V30 4208 H 431.018 0.482113 0.579727 0
M  V30 4209 H 433.669 1.61642 0.868565 0
M  V30 4210 H 432.051 1.88714 3.48142 0
M  V30 4211 H 433.225 4.22596 1.83709 0
M  V30 4212 H 431.54 3.75295 1.80396 0
M  V30 4213 H 434.137 2.94247 4.46456 0
M  V30 4214 H 434.48 1.30846 3.95203 0
M  V30 4215 H 435.013 2.67563 2.94372 0
M  V30 4216 H 431.752 5.64883 3.32547 0
M  V30 4217 H 431.272 4.2171 4.26521 0
M  V30 4218 H 432.951 4.80801 4.32943 0
M  V30 4219 N 433.083 -1.0153 1.20538 0
M  V30 4220 C 434.494 -1.56598 1.01657 0
M  V30 4221 C 434.845 -1.91505 -0.426668 0
M  V30 4222 O 433.97 -1.72375 -1.30827 0
M  V30 4223 C 434.565 -2.84542 1.83905 0
M  V30 4224 C 433.124 -3.36133 1.69386 0
M  V30 4225 C 432.271 -2.09427 1.81757 0
M  V30 4226 H 435.222 -0.838974 1.34711 0
M  V30 4227 H 435.243 -3.56004 1.34319 0
M  V30 4228 H 434.755 -2.59105 2.8894 0
M  V30 4229 H 432.856 -3.66528 0.669933 0
M  V30 4230 H 432.969 -4.08248 2.50739 0
M  V30 4231 H 431.333 -2.21941 1.24957 0
M  V30 4232 H 432.116 -1.86414 2.88279 0
M  V30 4233 N 434.561 -1.01147 -1.20859 0
M  V30 4234 C 435.524 -0.582224 -2.21682 0
M  V30 4235 C 436.524 0.344887 -1.57058 0
M  V30 4236 O 437.714 0.134281 -1.73682 0
M  V30 4237 C 434.846 0.150496 -3.40568 0
M  V30 4238 H 436.039 -1.47408 -2.61172 0
M  V30 4239 H 433.592 -0.800695 -1.34233 0
M  V30 4240 H 434.327 1.0575 -3.06574 0
M  V30 4241 H 434.112 -0.515444 -3.88697 0
M  V30 4242 H 435.602 0.438344 -4.15293 0
M  V30 4243 N 436.039 1.36541 -0.78704 0
M  V30 4244 C 437.264 2.0409 -0.369053 0
M  V30 4245 C 437.689 1.58957 1.00569 0
M  V30 4246 O 437.047 0.756926 1.64743 0
M  V30 4247 C 437.095 3.57924 -0.438466 0
M  V30 4248 O 436.199 4.08642 0.555479 0
M  V30 4249 H 435.54 0.645142 -0.157122 0
M  V30 4250 H 438.07 1.74545 -1.06749 0
M  V30 4251 H 438.08 4.06887 -0.301218 0
M  V30 4252 H 436.755 3.90127 -1.44132 0
M  V30 4253 H 435.332 3.70958 0.380088 0
M  V30 4254 N 437.518 0.538854 1.48102 0
M  V30 4255 C 438.934 0.19732 1.58376 0
M  V30 4256 C 439.134 -1.29971 1.5398 0
M  V30 4257 O 438.19 -2.07861 1.43352 0
M  V30 4258 C 439.503 0.807716 2.89649 0
M  V30 4259 C 441.051 0.77726 3.03196 0
M  V30 4260 C 441.526 1.36639 4.37143 0
M  V30 4261 N 443.017 1.32875 4.43732 0
M  V30 4262 C 443.752 1.7544 5.45901 0
M  V30 4263 N 443.248 2.25776 6.54979 0
M  V30 4264 N 445.041 1.66623 5.36836 0
M  V30 4265 H 437.192 1.5117 1.49202 0
M  V30 4266 H 439.455 0.629327 0.708979 0
M  V30 4267 H 439.161 1.85909 2.98548 0
M  V30 4268 H 439.035 0.289975 3.76084 0
M  V30 4269 H 441.422 -0.265374 2.93904 0
M  V30 4270 H 441.503 1.33256 2.18349 0
M  V30 4271 H 441.147 2.408 4.47189 0
M  V30 4272 H 441.077 0.786689 5.20691 0
M  V30 4273 H 443.568 0.96037 3.65493 0
M  V30 4274 H 443.881 2.56226 7.29087 0
M  V30 4275 H 442.226 2.29775 6.55918 0
M  V30 4276 H 445.417 1.27089 4.50517 0
M  V30 4277 H 445.59 2.00115 6.16326 0
M  V30 4278 N 438.996 -1.55193 0.274407 0
M  V30 4279 C 439.943 -2.225 -0.613374 0
M  V30 4280 C 440.913 -1.19823 -1.15029 0
M  V30 4281 O 442.098 -1.48362 -1.19973 0
M  V30 4282 C 439.238 -2.94927 -1.79199 0
M  V30 4283 C 438.351 -4.12322 -1.28899 0
M  V30 4284 C 437.486 -4.72394 -2.42934 0
M  V30 4285 C 436.525 -5.81984 -1.89634 0
M  V30 4286 N 435.662 -6.36123 -2.9714 0
M  V30 4287 H 440.502 -2.97982 -0.032756 0
M  V30 4288 H 438.039 -1.47099 -0.00440146 0
M  V30 4289 H 439.997 -3.35134 -2.48478 0
M  V30 4290 H 438.627 -2.2187 -2.34465 0
M  V30 4291 H 437.679 -3.7724 -0.489327 0
M  V30 4292 H 438.991 -4.91355 -0.858587 0
M  V30 4293 H 438.145 -5.15317 -3.20208 0
M  V30 4294 H 436.884 -3.92636 -2.8929 0
M  V30 4295 H 435.889 -5.38511 -1.1084 0
M  V30 4296 H 437.114 -6.6361 -1.44215 0
M  V30 4297 H 435.06 -5.59259 -3.42878 0
M  V30 4298 H 434.977 -7.10427 -2.58515 0
M  V30 4299 H 436.245 -6.83704 -3.74391 0
M  V30 4300 N 440.474 -0.00167713 -1.576 0
M  V30 4301 C 441.437 0.974046 -2.07473 0
M  V30 4302 C 442.437 1.27143 -0.984444 0
M  V30 4303 O 443.627 1.21633 -1.24703 0
M  V30 4304 C 440.759 2.29849 -2.51759 0
M  V30 4305 H 441.952 0.54262 -2.9495 0
M  V30 4306 H 439.505 0.245829 -1.54355 0
M  V30 4307 H 440.24 2.77677 -1.67529 0
M  V30 4308 H 440.025 2.09584 -3.31386 0
M  V30 4309 H 441.515 2.9984 -2.90664 0
M  V30 4310 N 441.952 1.55251 0.271103 0
M  V30 4311 C 442.882 1.9127 1.33933 0
M  V30 4312 C 443.863 0.77478 1.5143 0
M  V30 4313 O 445.048 1.03307 1.64442 0
M  V30 4314 C 442.178 2.18627 2.69851 0
M  V30 4315 C 441.132 3.34442 2.67081 0
M  V30 4316 C 440.458 3.47284 4.06569 0
M  V30 4317 C 441.758 4.70784 2.26185 0
M  V30 4318 H 443.452 2.80744 1.04035 0
M  V30 4319 H 440.998 1.35077 0.499017 0
M  V30 4320 H 442.951 2.42413 3.44694 0
M  V30 4321 H 441.675 1.25955 3.01335 0
M  V30 4322 H 440.334 3.10627 1.94695 0
M  V30 4323 H 439.982 2.52074 4.35279 0
M  V30 4324 H 439.682 4.25152 4.0561 0
M  V30 4325 H 441.206 3.73363 4.83148 0
M  V30 4326 H 442.62 4.94102 2.90751 0
M  V30 4327 H 441.017 5.51582 2.36384 0
M  V30 4328 H 442.087 4.69478 1.21319 0
M  V30 4329 N 443.43 -0.535701 1.48216 0
M  V30 4330 C 444.34 -1.66785 1.64985 0
M  V30 4331 C 445.356 -1.65654 0.532414 0
M  V30 4332 O 446.532 -1.8471 0.80275 0
M  V30 4333 C 443.597 -3.0326 1.68031 0
M  V30 4334 C 442.658 -3.1529 2.9136 0
M  V30 4335 C 441.891 -4.45255 2.94252 0
M  V30 4336 O 442.114 -5.32011 2.05719 0
M  V30 4337 O 441.048 -4.6153 3.86359 0
M  V30 4338 H 444.874 -1.55576 2.60825 0
M  V30 4339 H 442.459 -0.70815 1.31551 0
M  V30 4340 H 444.341 -3.84436 1.72589 0
M  V30 4341 H 443.016 -3.14805 0.753628 0
M  V30 4342 H 441.923 -2.3343 2.92337 0
M  V30 4343 H 443.256 -3.08658 3.83394 0
M  V30 4344 N 444.908 -1.36708 -0.784132 0
M  V30 4345 C 446.324 -1.17237 -1.08294 0
M  V30 4346 C 446.524 -5.93947e-05 -2.015 0
M  V30 4347 O 445.58 0.663686 -2.43622 0
M  V30 4348 C 446.893 -2.48557 -1.69233 0
M  V30 4349 C 448.441 -2.54968 -1.8155 0
M  V30 4350 C 448.916 -3.86388 -2.45904 0
M  V30 4351 N 450.407 -3.87762 -2.53367 0
M  V30 4352 C 451.142 -4.86191 -3.03983 0
M  V30 4353 N 450.638 -5.95015 -3.54866 0
M  V30 4354 N 452.431 -4.73606 -3.02743 0
M  V30 4355 H 444.582 -2.11758 -0.16501 0
M  V30 4356 H 446.845 -0.93822 -0.135822 0
M  V30 4357 H 446.551 -3.34638 -1.08215 0
M  V30 4358 H 446.425 -2.64748 -2.68679 0
M  V30 4359 H 448.812 -1.69302 -2.41704 0
M  V30 4360 H 448.893 -2.42672 -0.80895 0
M  V30 4361 H 448.537 -4.72462 -1.86392 0
M  V30 4362 H 448.467 -3.95982 -3.4714 0
M  V30 4363 H 450.958 -3.09145 -2.17343 0
M  V30 4364 H 451.271 -6.66086 -3.91854 0
M  V30 4365 H 449.616 -5.98676 -3.53003 0
M  V30 4366 H 452.807 -3.87717 -2.62284 0
M  V30 4367 H 452.98 -5.50473 -3.41881 0
M  V30 4368 N 446.386 1.0089 -1.21074 0
M  V30 4369 C 447.349 2.0775 -0.968129 0
M  V30 4370 C 448.349 1.6069 0.0593445 0
M  V30 4371 O 449.539 1.73293 -0.177525 0
M  V30 4372 C 446.671 3.37794 -0.459108 0
M  V30 4373 H 447.864 2.30707 -1.9161 0
M  V30 4374 H 445.417 1.17807 -1.02719 0
M  V30 4375 H 446.152 3.20516 0.49397 0
M  V30 4376 H 445.937 3.7328 -1.20019 0
M  V30 4377 H 447.427 4.16454 -0.309099 0
M  V30 4378 N 447.864 1.01787 1.20321 0
M  V30 4379 C 449.112 0.706538 1.89347 0
M  V30 4380 C 449.433 -0.766289 1.79313 0
M  V30 4381 O 448.703 -1.55126 1.19635 0
M  V30 4382 H 447.283 0.258348 0.700903 0
M  V30 4383 H 449.945 1.28974 1.46122 0
M  V30 4384 H 449.041 0.991066 2.95946 0
M  V30 4385 N 449.342 -1.36122 0.79427 0
M  V30 4386 C 450.588 -1.99846 0.378542 0
M  V30 4387 C 450.943 -1.61898 -1.03955 0
M  V30 4388 O 450.236 -0.866013 -1.70912 0
M  V30 4389 C 450.43 -3.5409 0.48527 0
M  V30 4390 C 450.259 -4.0702 1.91219 0
M  V30 4391 C 449.029 -4.36944 2.53787 0
M  V30 4392 C 451.227 -4.26435 2.87502 0
M  V30 4393 N 449.209 -4.75727 3.88017 0
M  V30 4394 C 450.58 -4.68077 4.06576 0
M  V30 4395 C 452.635 -4.08616 2.84495 0
M  V30 4396 C 451.338 -4.93765 5.23057 0
M  V30 4397 C 453.364 -4.35453 4.00169 0
M  V30 4398 C 452.726 -4.77355 5.17988 0
M  V30 4399 H 448.825 -0.759549 0.186034 0
M  V30 4400 H 451.409 -1.65043 1.0329 0
M  V30 4401 H 449.58 -3.88151 -0.139023 0
M  V30 4402 H 451.312 -4.04675 0.0453192 0
M  V30 4403 H 448.067 -4.26822 2.05231 0
M  V30 4404 H 448.491 -4.99396 4.57092 0
M  V30 4405 H 453.133 -3.75373 1.94564 0
M  V30 4406 H 450.851 -5.25887 6.1357 0
M  V30 4407 H 454.437 -4.2323 3.99208 0
M  V30 4408 H 453.317 -4.97718 6.06008 0
M  V30 4409 N 450.82 -0.546701 -1.47814 0
M  V30 4410 C 451.767 0.206854 -2.29871 0
M  V30 4411 C 452.737 0.918235 -1.38411 0
M  V30 4412 O 453.922 0.915991 -1.67375 0
M  V30 4413 C 451.062 1.23746 -3.22151 0
M  V30 4414 C 450.175 0.533216 -4.28697 0
M  V30 4415 C 449.31 1.5482 -5.08138 0
M  V30 4416 C 448.349 0.828347 -6.06469 0
M  V30 4417 N 447.486 1.78966 -6.78908 0
M  V30 4418 H 452.326 -0.499037 -2.93792 0
M  V30 4419 H 449.863 -0.25793 -1.44821 0
M  V30 4420 H 451.821 1.84746 -3.74065 0
M  V30 4421 H 450.451 1.91151 -2.60117 0
M  V30 4422 H 449.503 -0.191089 -3.7992 0
M  V30 4423 H 450.815 -0.0311987 -4.9879 0
M  V30 4424 H 449.969 2.23202 -5.6415 0
M  V30 4425 H 448.708 2.14652 -4.37922 0
M  V30 4426 H 447.713 0.130539 -5.49645 0
M  V30 4427 H 448.938 0.235907 -6.7869 0
M  V30 4428 H 446.884 2.37675 -6.1143 0
M  V30 4429 H 446.801 1.27712 -7.45135 0
M  V30 4430 H 448.069 2.46496 -7.395 0
M  V30 4431 N 452.299 1.55045 -0.282633 0
M  V30 4432 C 453.548 1.98938 0.332667 0
M  V30 4433 C 453.861 1.17455 1.56409 0
M  V30 4434 O 455.067 1.51527 2.25282 0
M  V30 4435 C 453.523 3.54105 0.643226 0
M  V30 4436 C 453.131 4.44374 -0.568814 0
M  V30 4437 C 454.875 4.06569 1.22074 0
M  V30 4438 C 452.782 5.90943 -0.232426 0
M  V30 4439 H 451.712 0.743043 0.128075 0
M  V30 4440 H 454.363 1.79341 -0.388464 0
M  V30 4441 H 452.745 3.69532 1.42346 0
M  V30 4442 H 453.919 4.40718 -1.34551 0
M  V30 4443 H 452.234 4.02585 -1.06369 0
M  V30 4444 H 454.831 5.13626 1.48635 0
M  V30 4445 H 455.174 3.56057 2.15707 0
M  V30 4446 H 455.707 3.94612 0.502621 0
M  V30 4447 H 452.446 6.45567 -1.13683 0
M  V30 4448 H 451.966 5.9765 0.507357 0
M  V30 4449 H 453.645 6.4677 0.172657 0
M  V30 4450 N 453.777 0.010035 1.57597 0
M  V30 4451 C 455.025 -0.671371 1.90623 0
M  V30 4452 C 455.346 -1.73753 0.885151 0
M  V30 4453 O 454.616 -1.95752 -0.0760611 0
M  V30 4454 H 453.196 -0.250968 0.703579 0
M  V30 4455 H 455.858 0.0533325 1.94827 0
M  V30 4456 H 454.954 -1.13626 2.90681 0
M  V30 4457 N 455.255 -1.55392 -0.262866 0
M  V30 4458 C 456.532 -1.67204 -1.01499 0
M  V30 4459 C 456.912 -0.545186 -2.03939 0
M  V30 4460 O 456.26 0.453467 -2.23955 0
M  V30 4461 C 456.47 -3.06847 -1.6627 0
M  V30 4462 C 457.818 -3.64928 -2.17054 0
M  V30 4463 O 458.842 -3.09545 -1.76239 0
M  V30 4464 O 457.701 -4.61984 -2.91947 0
M  V30 4465 H 454.795 -0.679467 -0.471438 0
M  V30 4466 H 457.341 -1.67729 -0.257918 0
M  V30 4467 H 456.113 -3.80309 -0.920915 0
M  V30 4468 H 455.736 -3.10266 -2.48638 0
M  V30 4469 N 456.733 0.527833 -1.48498 0
M  V30 4470 C 457.663 1.64136 -1.66077 0
M  V30 4471 C 458.644 1.62286 -0.509625 0
M  V30 4472 O 459.829 1.79449 -0.742413 0
M  V30 4473 C 456.959 3.02717 -1.70234 0
M  V30 4474 C 455.913 3.19426 -2.8487 0
M  V30 4475 C 455.239 4.5909 -2.74118 0
M  V30 4476 C 456.539 3.01993 -4.26142 0
M  V30 4477 H 458.233 1.4968 -2.593 0
M  V30 4478 H 455.779 0.718654 -1.24785 0
M  V30 4479 H 457.732 3.80491 -1.8112 0
M  V30 4480 H 456.456 3.18201 -0.735911 0
M  V30 4481 H 455.115 2.4407 -2.73542 0
M  V30 4482 H 454.763 4.71413 -1.7544 0
M  V30 4483 H 454.463 4.71214 -3.51042 0
M  V30 4484 H 455.987 5.3896 -2.86974 0
M  V30 4485 H 457.401 3.69558 -4.38292 0
M  V30 4486 H 455.798 3.2561 -5.04082 0
M  V30 4487 H 456.868 1.98396 -4.42456 0
M  V30 4488 N 458.211 1.37122 0.776871 0
M  V30 4489 C 459.488 1.22586 1.52421 0
M  V30 4490 C 459.868 -0.182726 2.10308 0
M  V30 4491 O 459.216 -1.18979 1.9508 0
M  V30 4492 C 459.426 2.31782 2.60918 0
M  V30 4493 C 460.774 2.69071 3.2846 0
M  V30 4494 O 461.798 2.3092 2.71209 0
M  V30 4495 O 460.657 3.3478 4.31954 0
M  V30 4496 H 457.751 0.478045 0.674835 0
M  V30 4497 H 460.297 1.48888 0.814275 0
M  V30 4498 H 459.069 3.26131 2.16227 0
M  V30 4499 H 458.692 2.06916 3.39517 0
M  V30 4500 N 459.689 -1.00246 1.21608 0
M  V30 4501 C 460.619 -2.10921 1.00172 0
M  V30 4502 C 461.6 -1.69938 -0.0741587 0
M  V30 4503 O 462.785 -1.94009 0.0861753 0
M  V30 4504 C 459.915 -3.42618 0.568355 0
M  V30 4505 C 458.869 -3.97407 1.58909 0
M  V30 4506 C 458.195 -5.25038 1.01187 0
M  V30 4507 C 459.495 -4.2918 2.97661 0
M  V30 4508 H 461.189 -2.29112 1.92739 0
M  V30 4509 H 458.735 -1.10101 0.928102 0
M  V30 4510 H 460.688 -4.19444 0.405555 0
M  V30 4511 H 459.412 -3.24227 -0.392961 0
M  V30 4512 H 458.071 -3.22703 1.73949 0
M  V30 4513 H 457.719 -5.02982 0.0421965 0
M  V30 4514 H 457.419 -5.62661 1.6937 0
M  V30 4515 H 458.943 -6.04507 0.860448 0
M  V30 4516 H 460.357 -4.96839 2.86049 0
M  V30 4517 H 458.754 -4.77952 3.6288 0
M  V30 4518 H 459.824 -3.3735 3.48315 0
M  V30 4519 N 461.167 -1.02423 -1.1978 0
M  V30 4520 C 462.413 -0.719051 -1.89625 0
M  V30 4521 C 462.746 0.750083 -1.7913 0
M  V30 4522 O 462.021 1.54574 -1.18056 0
M  V30 4523 C 462.304 -1.16499 -3.40735 0
M  V30 4524 C 462.157 -2.695 -3.60125 0
M  V30 4525 C 463.476 -0.742166 -4.33797 0
M  V30 4526 H 460.595 -0.26269 -0.688595 0
M  V30 4527 H 463.237 -1.27333 -1.41018 0
M  V30 4528 H 461.387 -0.69341 -3.82262 0
M  V30 4529 H 463.059 -3.24569 -3.278 0
M  V30 4530 H 461.302 -3.10113 -3.03336 0
M  V30 4531 H 461.973 -2.95757 -4.66081 0
M  V30 4532 H 464.449 -1.1477 -3.99959 0
M  V30 4533 H 463.325 -1.08213 -5.38127 0
M  V30 4534 H 463.586 0.355747 -4.40666 0
M  V30 4535 N 462.645 1.35699 -0.801477 0
M  V30 4536 C 463.555 2.33661 -0.209691 0
M  V30 4537 C 464.571 1.6162 0.644591 0
M  V30 4538 O 465.747 1.93529 0.557545 0
M  V30 4539 C 462.812 3.40816 0.636033 0
M  V30 4540 C 461.873 4.28639 -0.238147 0
M  V30 4541 C 461.106 5.30676 0.567307 0
M  V30 4542 O 461.329 5.41174 1.8024 0
M  V30 4543 O 460.263 6.01887 -0.0391336 0
M  V30 4544 H 464.089 2.8606 -1.01996 0
M  V30 4545 H 461.674 1.38379 -0.563164 0
M  V30 4546 H 463.556 4.06301 1.11791 0
M  V30 4547 H 462.231 2.90696 1.42399 0
M  V30 4548 H 461.138 3.66152 -0.767044 0
M  V30 4549 H 462.471 4.82143 -0.989915 0
M  V30 4550 N 464.123 0.554532 1.47522 0
M  V30 4551 C 465.086 -0.184174 2.28459 0
M  V30 4552 C 466.086 -0.845195 1.36796 0
M  V30 4553 O 467.276 -0.701467 1.59452 0
M  V30 4554 C 464.408 -1.26903 3.16399 0
M  V30 4555 H 465.601 0.526751 2.95238 0
M  V30 4556 H 463.154 0.311375 1.53167 0
M  V30 4557 H 463.889 -2.01244 2.54306 0
M  V30 4558 H 463.674 -0.799883 3.83854 0
M  V30 4559 H 465.164 -1.78794 3.77389 0
M  V30 4560 N 465.601 -1.54893 0.290851 0
M  V30 4561 C 466.549 -2.24579 -0.605576 0
M  V30 4562 C 467.543 -1.24824 -1.14522 0
M  V30 4563 O 468.749 -1.42706 -1.09704 0
M  V30 4564 H 465.124 -0.720946 -0.213872 0
M  V30 4565 H 467.095 -2.984 0.0048173 0
M  V30 4566 C 465.844 -2.99224 -1.77088 0
M  V30 4567 H 465.167 -3.75782 -1.36484 0
M  V30 4568 H 466.607 -3.51281 -2.3744 0
M  V30 4569 C 465.066 -2.05602 -2.66888 0
M  V30 4570 O 465.596 -1.61745 -3.67698 0
M  V30 4571 N 463.802 -1.71771 -2.34399 0
M  V30 4572 H 463.349 -2.07633 -1.52468 0
M  V30 4573 H 463.307 -1.09403 -2.94751 0
M  V30 4574 N 467.08 -0.0183926 -1.57589 0
M  V30 4575 C 467.99 0.982943 -2.13015 0
M  V30 4576 C 469.006 1.36443 -1.07979 0
M  V30 4577 O 470.182 1.44802 -1.3998 0
M  V30 4578 C 467.247 2.25024 -2.63752 0
M  V30 4579 C 466.308 1.93018 -3.83461 0
M  V30 4580 C 465.541 3.13706 -4.31769 0
M  V30 4581 O 465.764 4.2601 -3.79305 0
M  V30 4582 O 464.698 2.96629 -5.23732 0
M  V30 4583 H 468.524 0.541709 -2.9883 0
M  V30 4584 H 466.109 0.201565 -1.48034 0
M  V30 4585 H 467.991 2.99441 -2.96502 0
M  V30 4586 H 466.666 2.68349 -1.81026 0
M  V30 4587 H 465.573 1.16019 -3.55655 0
M  V30 4588 H 466.906 1.54516 -4.67317 0
M  V30 4589 N 468.558 1.5553 0.254621 0
M  V30 4590 C 469.521 1.88872 1.29846 0
M  V30 4591 C 470.521 0.764591 1.41459 0
M  V30 4592 O 471.711 1.03265 1.40293 0
M  V30 4593 C 468.843 2.11032 2.67728 0
M  V30 4594 H 470.036 2.82201 1.01502 0
M  V30 4595 H 467.589 1.48303 0.493556 0
M  V30 4596 H 468.324 1.20146 3.01223 0
M  V30 4597 H 468.109 2.92895 2.60682 0
M  V30 4598 H 469.599 2.38038 3.43115 0
M  V30 4599 N 470.036 -0.519951 1.48776 0
M  V30 4600 C 471.283 -1.27522 1.57303 0
M  V30 4601 C 471.611 -1.92869 0.251328 0
M  V30 4602 O 470.866 -1.80372 -0.759243 0
M  V30 4603 C 471.165 -2.37864 2.6675 0
M  V30 4604 C 470.831 -1.90103 4.08867 0
M  V30 4605 C 469.493 -1.76795 4.47546 0
M  V30 4606 C 471.845 -1.54133 4.97888 0
M  V30 4607 C 469.173 -1.25868 5.73039 0
M  V30 4608 C 471.525 -1.04665 6.23881 0
M  V30 4609 C 470.189 -0.899823 6.61407 0
M  V30 4610 H 469.459 -0.466636 0.575614 0
M  V30 4611 H 472.106 -0.579109 1.82534 0
M  V30 4612 H 470.411 -3.13186 2.35418 0
M  V30 4613 H 472.108 -2.95969 2.70561 0
M  V30 4614 H 468.698 -2.01414 3.78326 0
M  V30 4615 H 472.882 -1.6327 4.68675 0
M  V30 4616 H 468.138 -1.13196 6.0083 0
M  V30 4617 H 472.312 -0.759074 6.92251 0
M  V30 4618 H 469.939 -0.503011 7.58534 0
M  V30 4619 N 471.514 -1.37532 -0.769588 0
M  V30 4620 C 472.477 -1.33292 -1.86456 0
M  V30 4621 C 473.477 -0.236537 -1.59051 0
M  V30 4622 O 474.667 -0.492511 -1.67093 0
M  V30 4623 C 471.799 -1.07118 -3.23633 0
M  V30 4624 H 472.992 -2.30692 -1.91628 0
M  V30 4625 H 470.545 -1.22593 -0.969572 0
M  V30 4626 H 471.28 -0.102578 -3.24138 0
M  V30 4627 H 471.065 -1.86479 -3.44917 0
M  V30 4628 H 472.555 -1.06806 -4.03711 0
M  V30 4629 N 472.992 0.995999 -1.22138 0
M  V30 4630 C 473.955 2.06711 -0.990109 0
M  V30 4631 C 474.955 1.60744 0.0422978 0
M  V30 4632 O 476.145 1.73095 -0.195895 0
M  V30 4633 C 473.277 3.37288 -0.49491 0
M  V30 4634 H 474.47 2.28661 -1.94047 0
M  V30 4635 H 472.023 1.16711 -1.03963 0
M  V30 4636 H 472.758 3.21022 0.459948 0
M  V30 4637 H 472.543 3.71986 -1.23971 0
M  V30 4638 H 474.033 4.16103 -0.353253 0
M  V30 4639 N 474.47 1.03057 1.19235 0
M  V30 4640 C 475.402 0.570932 2.21975 0
M  V30 4641 C 476.415 -0.354088 1.58903 0
M  V30 4642 O 477.604 -0.150211 1.77867 0
M  V30 4643 C 474.704 -0.187152 3.38383 0
M  V30 4644 C 473.877 0.743231 4.31039 0
M  V30 4645 C 472.936 0.0302493 5.26191 0
M  V30 4646 O 471.962 0.657371 5.65391 0
M  V30 4647 N 473.164 -1.23991 5.67104 0
M  V30 4648 H 475.929 1.45456 2.62036 0
M  V30 4649 H 473.49 0.909807 1.33918 0
M  V30 4650 H 475.482 -0.673715 3.99053 0
M  V30 4651 H 474.052 -0.972205 2.97098 0
M  V30 4652 H 473.272 1.40985 3.68126 0
M  V30 4653 H 474.56 1.3755 4.89854 0
M  V30 4654 H 473.958 -1.77011 5.37293 0
M  V30 4655 H 472.515 -1.67093 6.30018 0
M  V30 4656 N 475.948 -1.35272 0.808662 0
M  V30 4657 C 476.911 -2.28082 0.226093 0
M  V30 4658 C 477.911 -1.49673 -0.587762 0
M  V30 4659 O 479.101 -1.69404 -0.405943 0
M  V30 4660 C 476.233 -3.33955 -0.684596 0
M  V30 4661 H 477.426 -2.81116 1.04469 0
M  V30 4662 H 474.979 -1.45162 0.579466 0
M  V30 4663 H 475.714 -2.86111 -1.5268 0
M  V30 4664 H 475.499 -3.91965 -0.102699 0
M  V30 4665 H 476.989 -4.03219 -1.08646 0
M  V30 4666 N 477.426 -0.562348 -1.47226 0
M  V30 4667 C 478.666 -0.0426374 -2.04356 0
M  V30 4668 C 479.03 1.28487 -1.42671 0
M  V30 4669 O 480.231 1.89259 -1.90878 0
M  V30 4670 C 478.502 0.0433826 -3.57374 0
M  V30 4671 S 480.061 0.508472 -4.35844 0
M  V30 4672 H 476.879 -0.0276234 -0.710463 0
M  V30 4673 H 479.481 -0.750245 -1.80531 0
M  V30 4674 H 478.185 -0.927072 -3.99792 0
M  V30 4675 H 477.716 0.774387 -3.85703 0
M  V30 4676 H 479.731 1.76719 -4.63665 0
M  V30 4677 N 478.904 1.54736 -0.299062 0
M  V30 4678 C 479.867 2.22127 0.565012 0
M  V30 4679 C 480.867 1.20669 1.06281 0
M  V30 4680 O 482.057 1.45417 0.959145 0
M  V30 4681 C 479.189 2.90611 1.78208 0
M  V30 4682 H 480.382 2.99891 -0.0237448 0
M  V30 4683 H 477.935 1.5622 -0.0498788 0
M  V30 4684 H 478.67 2.16921 2.41072 0
M  V30 4685 H 478.455 3.64984 1.43281 0
M  V30 4686 H 479.945 3.42026 2.396 0
M  V30 4687 N 480.382 0.0267497 1.57577 0
M  V30 4688 C 481.628 -0.653371 1.91987 0
M  V30 4689 C 481.961 -1.71915 0.903263 0
M  V30 4690 O 481.236 -1.94358 -0.0743387 0
M  V30 4691 C 481.519 -1.272 3.36886 0
M  V30 4692 C 481.372 -0.215938 4.49281 0
M  V30 4693 C 482.691 -2.19069 3.81703 0
M  V30 4694 H 479.81 -0.236047 0.698177 0
M  V30 4695 H 482.452 0.0835236 1.89816 0
M  V30 4696 H 480.602 -1.90005 3.38866 0
M  V30 4697 H 482.274 0.41449 4.59434 0
M  V30 4698 H 480.517 0.458855 4.31366 0
M  V30 4699 H 481.188 -0.688347 5.47691 0
M  V30 4700 H 483.664 -1.66253 3.81444 0
M  V30 4701 H 482.54 -2.59307 4.83788 0
M  V30 4702 H 482.801 -3.08087 3.17072 0
M  V30 4703 N 481.861 -1.55662 -0.24637 0
M  V30 4704 C 482.809 -1.91186 -1.3248 0
M  V30 4705 C 483.803 -0.790996 -1.49799 0
M  V30 4706 O 485.009 -0.975617 -1.51267 0
M  V30 4707 H 481.384 -0.607207 -0.443626 0
M  V30 4708 H 483.355 -2.81221 -0.997853 0
M  V30 4709 C 482.104 -2.22349 -2.67313 0
M  V30 4710 H 481.427 -3.08097 -2.54786 0
M  V30 4711 H 482.867 -2.51107 -3.41645 0
M  V30 4712 C 481.326 -1.04001 -3.20446 0
M  V30 4713 O 481.856 -0.28828 -4.00664 0
M  V30 4714 N 480.062 -0.830494 -2.7848 0
M  V30 4715 H 479.609 -1.4435 -2.13356 0
M  V30 4716 H 479.567 -0.0403258 -3.14374 0
M  V30 4717 N 483.339 0.512053 -1.4905 0
M  V30 4718 C 484.286 1.6148 -1.64902 0
M  V30 4719 C 485.256 1.58687 -0.490673 0
M  V30 4720 O 486.441 1.76842 -0.71636 0
M  V30 4721 C 483.581 2.99676 -1.71139 0
M  V30 4722 C 482.694 3.12568 -2.98203 0
M  V30 4723 C 481.829 4.4143 -2.95487 0
M  V30 4724 C 480.868 4.47916 -4.17179 0
M  V30 4725 N 480.005 5.68191 -4.12437 0
M  V30 4726 H 484.845 1.47271 -2.59066 0
M  V30 4727 H 482.382 0.716713 -1.28459 0
M  V30 4728 H 484.34 3.79761 -1.72736 0
M  V30 4729 H 482.97 3.12614 -0.804508 0
M  V30 4730 H 482.022 2.25618 -3.06269 0
M  V30 4731 H 483.334 3.1322 -3.88194 0
M  V30 4732 H 482.488 5.29825 -2.95585 0
M  V30 4733 H 481.227 4.43326 -2.03256 0
M  V30 4734 H 480.232 3.57925 -4.17337 0
M  V30 4735 H 481.457 4.47744 -5.1059 0
M  V30 4736 H 479.403 5.7095 -3.23036 0
M  V30 4737 H 479.32 5.70413 -4.96151 0
M  V30 4738 H 480.588 6.58823 -4.16621 0
M  V30 4739 N 484.817 1.37938 0.762283 0
M  V30 4740 C 486.094 1.24196 1.51112 0
M  V30 4741 C 486.474 -0.160409 2.1049 0
M  V30 4742 O 485.822 -1.16904 1.96331 0
M  V30 4743 C 486.032 2.34537 2.58445 0
M  V30 4744 C 487.38 2.7254 3.25588 0
M  V30 4745 O 488.404 2.33783 2.68745 0
M  V30 4746 O 487.263 3.39343 4.28379 0
M  V30 4747 H 484.357 0.485175 0.669727 0
M  V30 4748 H 486.903 1.49743 0.798438 0
M  V30 4749 H 485.675 3.28406 2.12756 0
M  V30 4750 H 485.298 2.10505 3.37303 0
M  V30 4751 N 486.295 -0.989507 1.22664 0
M  V30 4752 C 487.225 -2.09847 1.02404 0
M  V30 4753 C 488.206 -1.70007 -0.0561303 0
M  V30 4754 O 489.391 -1.93906 0.106748 0
M  V30 4755 C 486.521 -3.41996 0.604663 0
M  V30 4756 C 485.475 -3.95699 1.63115 0
M  V30 4757 C 484.801 -5.23936 1.0675 0
M  V30 4758 C 486.101 -4.25999 3.02196 0
M  V30 4759 H 487.795 -2.27054 1.95158 0
M  V30 4760 H 485.341 -1.09111 0.939727 0
M  V30 4761 H 487.294 -4.1899 0.45002 0
M  V30 4762 H 486.018 -3.24626 -0.35855 0
M  V30 4763 H 484.677 -3.2084 1.77362 0
M  V30 4764 H 484.325 -5.02909 0.0955422 0
M  V30 4765 H 484.025 -5.60833 1.75328 0
M  V30 4766 H 485.549 -6.0356 0.924516 0
M  V30 4767 H 486.963 -4.93777 2.91303 0
M  V30 4768 H 485.36 -4.74076 3.67929 0
M  V30 4769 H 486.43 -3.33636 3.51873 0
M  V30 4770 N 487.773 -1.03688 -1.18687 0
M  V30 4771 C 489.021 -0.736572 -1.88199 0
M  V30 4772 C 489.342 0.737665 -1.80509 0
M  V30 4773 O 488.612 1.53204 -1.22088 0
M  V30 4774 H 487.192 -0.269466 -0.696704 0
M  V30 4775 H 489.854 -1.31282 -1.44052 0
M  V30 4776 H 488.95 -1.03802 -2.94332 0
M  V30 4777 N 489.251 1.34841 -0.815825 0
M  V30 4778 C 490.497 1.99219 -0.410288 0
M  V30 4779 C 490.852 1.63532 1.01366 0
M  V30 4780 O 490.145 0.893093 1.69512 0
M  V30 4781 C 490.339 3.53273 -0.541541 0
M  V30 4782 C 490.168 4.03927 -1.9767 0
M  V30 4783 C 488.938 4.32852 -2.60706 0
M  V30 4784 C 491.136 4.21808 -2.9425 0
M  V30 4785 N 489.118 4.69494 -3.95536 0
M  V30 4786 C 490.489 4.6155 -4.13971 0
M  V30 4787 C 492.544 4.04038 -2.9096 0
M  V30 4788 C 491.247 4.85381 -5.30847 0
M  V30 4789 C 493.273 4.29031 -4.07046 0
M  V30 4790 C 492.635 4.69054 -5.25517 0
M  V30 4791 H 488.734 0.756494 -0.198094 0
M  V30 4792 H 491.318 1.63379 -1.05902 0
M  V30 4793 H 489.489 3.88323 0.0772544 0
M  V30 4794 H 491.221 4.04551 -0.109694 0
M  V30 4795 H 487.976 4.23503 -2.11995 0
M  V30 4796 H 488.4 4.92061 -4.64979 0
M  V30 4797 H 493.042 3.7223 -2.00512 0
M  V30 4798 H 490.76 5.16059 -6.21859 0
M  V30 4799 H 494.346 4.16826 -4.05891 0
M  V30 4800 H 493.226 4.88014 -6.1385 0
M  V30 4801 N 490.729 0.570148 1.46925 0
M  V30 4802 C 492.006 -0.0153259 1.95594 0
M  V30 4803 C 492.386 -1.47232 1.51281 0
M  V30 4804 O 491.734 -2.15574 0.757624 0
M  V30 4805 C 491.944 0.143624 3.48704 0
M  V30 4806 C 493.292 0.00494484 4.246 0
M  V30 4807 O 494.316 0.0718214 3.56128 0
M  V30 4808 O 493.175 -0.141175 5.46318 0
M  V30 4809 H 490.269 -0.0568819 0.825041 0
M  V30 4810 H 492.815 0.637583 1.57267 0
M  V30 4811 H 491.587 1.15699 3.73804 0
M  V30 4812 H 491.21 -0.5463 3.93829 0
M  V30 4813 N 492.207 -1.54576 0.307264 0
M  V30 4814 C 493.618 -1.8579 -0.184121 0
M  V30 4815 C 493.969 -1.22914 -1.52927 0
M  V30 4816 O 493.094 -0.529126 -2.09831 0
M  V30 4817 C 493.689 -3.37081 -0.340862 0
M  V30 4818 C 492.248 -3.68304 -0.776465 0
M  V30 4819 C 491.395 -2.77076 0.111503 0
M  V30 4820 H 494.346 -1.49656 0.528078 0
M  V30 4821 H 494.367 -3.61922 -1.17443 0
M  V30 4822 H 493.879 -3.82815 0.638309 0
M  V30 4823 H 491.98 -3.28092 -1.76596 0
M  V30 4824 H 492.093 -4.75434 -0.591512 0
M  V30 4825 H 490.457 -2.51374 -0.410256 0
M  V30 4826 H 491.24 -3.25632 1.08714 0
M  V30 4827 N 493.685 -0.035106 -1.57561 0
M  V30 4828 C 494.91 0.655802 -1.96759 0
M  V30 4829 C 495.335 1.64523 -0.911809 0
M  V30 4830 O 494.693 1.80857 0.126673 0
M  V30 4831 C 494.741 1.33326 -3.35047 0
M  V30 4832 O 493.845 2.44866 -3.31835 0
M  V30 4833 H 493.186 0.171807 -0.641388 0
M  V30 4834 H 495.716 -0.0987369 -2.04362 0
M  V30 4835 H 495.726 1.68867 -3.71413 0
M  V30 4836 H 494.401 0.608033 -4.11431 0
M  V30 4837 H 492.978 2.11392 -3.07193 0
M  V30 4838 N 495.163 1.55791 0.238111 0
M  V30 4839 C 496.412 1.77234 0.962868 0
M  V30 4840 C 496.725 0.600661 1.86149 0
M  V30 4841 O 497.931 0.698315 2.62366 0
M  V30 4842 C 496.387 3.13808 1.76218 0
M  V30 4843 C 495.995 4.3865 0.910518 0
M  V30 4844 C 497.739 3.44585 2.47914 0
M  V30 4845 C 495.646 5.66252 1.70623 0
M  V30 4846 H 494.576 0.660731 0.36325 0
M  V30 4847 H 497.227 1.8221 0.217242 0
M  V30 4848 H 495.609 3.02963 2.55009 0
M  V30 4849 H 496.783 4.60507 0.164316 0
M  V30 4850 H 495.098 4.15271 0.30647 0
M  V30 4851 H 497.695 4.3714 3.07917 0
M  V30 4852 H 498.038 2.66314 3.19973 0
M  V30 4853 H 498.571 3.56685 1.76127 0
M  V30 4854 H 495.31 6.47369 1.02923 0
M  V30 4855 H 494.83 5.48483 2.42748 0
M  V30 4856 H 496.509 6.05829 2.27114 0
M  V30 4857 N 496.642 -0.504142 1.49319 0
M  V30 4858 C 497.888 -1.26033 1.58882 0
M  V30 4859 C 498.221 -1.92268 0.273274 0
M  V30 4860 O 497.496 -1.80567 -0.72291 0
M  V30 4861 C 497.779 -2.32976 2.7458 0
M  V30 4862 C 497.632 -1.71263 4.1592 0
M  V30 4863 C 498.951 -3.34561 2.85932 0
M  V30 4864 H 496.07 -0.456863 0.578312 0
M  V30 4865 H 498.712 -0.558965 1.81592 0
M  V30 4866 H 496.862 -2.92796 2.55348 0
M  V30 4867 H 498.534 -1.15294 4.4666 0
M  V30 4868 H 496.777 -1.01686 4.21714 0
M  V30 4869 H 497.448 -2.48816 4.92742 0
M  V30 4870 H 499.924 -2.84727 3.0343 0
M  V30 4871 H 498.8 -4.06754 3.68568 0
M  V30 4872 H 499.061 -3.96695 1.95154 0
M  V30 4873 N 498.12 -1.38341 -0.754957 0
M  V30 4874 C 499.068 -1.35573 -1.89005 0
M  V30 4875 C 500.062 -0.241824 -1.67665 0
M  V30 4876 O 501.268 -0.410785 -1.7525 0
M  V30 4877 H 497.643 -0.422898 -0.621821 0
M  V30 4878 H 499.614 -2.31359 -1.88455 0
M  V30 4879 C 498.363 -1.19631 -3.26471 0
M  V30 4880 H 497.686 -2.04605 -3.43477 0
M  V30 4881 H 499.126 -1.21748 -4.06144 0
M  V30 4882 C 497.585 0.0968705 -3.36761 0
M  V30 4883 O 498.115 1.07439 -3.87066 0
M  V30 4884 N 496.321 0.153242 -2.90196 0
M  V30 4885 H 495.868 -0.642908 -2.49448 0
M  V30 4886 H 495.826 1.01807 -2.9746 0
M  V30 4887 N 499.598 0.982988 -1.23187 0
M  V30 4888 C 500.844 1.72648 -1.06398 0
M  V30 4889 C 501.177 1.90066 0.398561 0
M  V30 4890 O 500.452 1.45105 1.29518 0
M  V30 4891 C 500.735 3.12627 -1.78707 0
M  V30 4892 C 500.588 3.02795 -3.32618 0
M  V30 4893 C 501.907 4.11997 -1.54747 0
M  V30 4894 H 499.026 0.626649 -0.387918 0
M  V30 4895 H 501.668 1.14455 -1.51658 0
M  V30 4896 H 499.818 3.62308 -1.40234 0
M  V30 4897 H 501.49 2.60659 -3.80598 0
M  V30 4898 H 499.733 2.39362 -3.61785 0
M  V30 4899 H 500.404 4.01893 -3.78399 0
M  V30 4900 H 502.88 3.71114 -1.88186 0
M  V30 4901 H 501.756 5.08037 -2.07821 0
M  V30 4902 H 502.017 4.39462 -0.482249 0
M  V30 4903 N 501.076 1.04316 1.18135 0
M  V30 4904 C 502.024 0.630175 2.23901 0
M  V30 4905 C 503.018 -0.344254 1.65865 0
M  V30 4906 O 504.224 -0.211273 1.78756 0
M  V30 4907 H 500.599 0.185578 0.728742 0
M  V30 4908 H 502.57 1.53253 2.56039 0
M  V30 4909 C 501.319 0.011666 3.47698 0
M  V30 4910 H 500.642 0.752526 3.92654 0
M  V30 4911 H 502.082 -0.240046 4.2332 0
M  V30 4912 C 500.541 -1.23913 3.13285 0
M  V30 4913 O 501.071 -2.32959 3.27251 0
M  V30 4914 N 499.277 -1.13338 2.67587 0
M  V30 4915 H 498.824 -0.246006 2.56423 0
M  V30 4916 H 498.782 -1.97116 2.44934 0
M  V30 4917 N 502.554 -1.34406 0.822964 0
M  V30 4918 C 503.802 -1.97892 0.410245 0
M  V30 4919 C 504.123 -1.65567 -1.03017 0
M  V30 4920 O 503.393 -0.94642 -1.71522 0
M  V30 4921 H 501.973 -0.732049 0.148707 0
M  V30 4922 H 504.635 -1.64043 1.05242 0
M  V30 4923 H 503.731 -3.07579 0.529284 0
M  V30 4924 N 504.032 -0.577932 -1.46621 0
M  V30 4925 C 505.28 -0.061566 -2.02006 0
M  V30 4926 C 505.601 1.30117 -1.4524 0
M  V30 4927 O 504.871 1.85313 -0.63529 0
M  V30 4928 H 503.451 -0.0197692 -0.746738 0
M  V30 4929 H 506.113 -0.752631 -1.79782 0
M  V30 4930 H 505.209 0.0110238 -3.12098 0
M  V30 4931 N 505.51 1.54411 -0.315457 0
M  V30 4932 C 506.473 2.22713 0.54142 0
M  V30 4933 C 507.473 1.2179 1.04995 0
M  V30 4934 O 508.663 1.46426 0.943667 0
M  V30 4935 C 505.795 2.92485 1.75116 0
M  V30 4936 H 506.988 2.99849 -0.0555508 0
M  V30 4937 H 504.541 1.56159 -0.0664453 0
M  V30 4938 H 505.276 2.19466 2.38758 0
M  V30 4939 H 505.061 3.66483 1.39401 0
M  V30 4940 H 506.551 3.44548 2.35959 0
M  V30 4941 N 506.988 0.0434614 1.5754 0
M  V30 4942 C 508.237 -0.631454 1.91561 0
M  V30 4943 C 508.55 -1.72457 0.92292 0
M  V30 4944 O 509.756 -2.45712 1.15489 0
M  V30 4945 C 508.212 -1.17447 3.40197 0
M  V30 4946 C 507.82 -0.113867 4.47855 0
M  V30 4947 C 509.564 -1.82507 3.83264 0
M  V30 4948 C 507.471 -0.669326 5.876 0
M  V30 4949 H 506.401 -0.239629 0.714908 0
M  V30 4950 H 509.052 0.111097 1.83163 0
M  V30 4951 H 507.434 -1.96909 3.43574 0
M  V30 4952 H 508.608 0.659348 4.56058 0
M  V30 4953 H 506.923 0.438821 4.14081 0
M  V30 4954 H 509.52 -2.25047 4.85034 0
M  V30 4955 H 509.863 -2.67365 3.19095 0
M  V30 4956 H 510.396 -1.09712 3.82372 0
M  V30 4957 H 507.135 0.141449 6.55347 0
M  V30 4958 H 506.655 -1.4107 5.82974 0
M  V30 4959 H 508.334 -1.15463 6.36614 0
M  V30 4960 N 508.466 -1.55915 -0.229846 0
M  V30 4961 C 509.429 -1.90914 -1.26824 0
M  V30 4962 C 510.429 -0.786999 -1.40225 0
M  V30 4963 O 511.619 -1.05484 -1.38632 0
M  V30 4964 C 508.751 -2.15264 -2.64337 0
M  V30 4965 H 509.944 -2.8378 -0.969998 0
M  V30 4966 H 507.497 -1.49069 -0.4699 0
M  V30 4967 H 508.232 -1.24923 -2.99274 0
M  V30 4968 H 508.017 -2.97005 -2.55989 0
M  V30 4969 H 509.507 -2.43467 -3.39284 0
M  V30 4970 N 509.944 0.496216 -1.49584 0
M  V30 4971 C 511.193 1.24668 -1.58558 0
M  V30 4972 C 511.506 1.9359 -0.279703 0
M  V30 4973 O 512.712 2.70365 -0.248048 0
M  V30 4974 C 511.168 2.26388 -2.79779 0
M  V30 4975 C 510.776 1.63384 -4.17145 0
M  V30 4976 C 512.52 3.02233 -2.98086 0
M  V30 4977 C 510.427 2.63243 -5.29582 0
M  V30 4978 H 509.357 0.468995 -0.590389 0
M  V30 4979 H 512.008 0.519985 -1.75978 0
M  V30 4980 H 510.39 3.02241 -2.55863 0
M  V30 4981 H 511.564 0.93491 -4.51216 0
M  V30 4982 H 509.879 0.999121 -4.04236 0
M  V30 4983 H 512.476 3.76919 -3.79257 0
M  V30 4984 H 512.819 3.60132 -2.08831 0
M  V30 4985 H 513.352 2.33495 -3.22063 0
M  V30 4986 H 510.091 2.10119 -6.20911 0
M  V30 4987 H 509.611 3.31363 -4.99959 0
M  V30 4988 H 511.29 3.25575 -5.59115 0
M  V30 4989 N 511.423 1.38739 0.74761 0
M  V30 4990 C 512.671 1.35007 1.50391 0
M  V30 4991 C 512.992 -0.0574274 1.94915 0
M  V30 4992 O 512.262 -1.00628 1.6808 0
M  V30 4993 H 510.842 0.496784 0.557866 0
M  V30 4994 H 513.504 1.73479 0.888319 0
M  V30 4995 H 512.6 2.00474 2.392 0
M  V30 4996 N 512.901 -0.976442 1.23707 0
M  V30 4997 C 513.851 -2.0544 0.988851 0
M  V30 4998 C 514.835 -1.60762 -0.0665901 0
M  V30 4999 O 516.027 -1.76396 0.14604 0
M  V30 5000 C 513.156 -3.38258 0.586223 0
M  V30 5001 C 512.242 -3.89523 1.67728 0
M  V30 5002 N 512.633 -4.13823 2.90834 0
M  V30 5003 C 510.931 -4.18097 1.55277 0
M  V30 5004 C 511.632 -4.55731 3.61502 0
M  V30 5005 N 510.608 -4.60394 2.8903 0
M  V30 5006 H 514.41 -2.22191 1.92376 0
M  V30 5007 H 511.924 -1.15954 1.13704 0
M  V30 5008 H 513.921 -4.15075 0.389658 0
M  V30 5009 H 512.581 -3.22898 -0.341594 0
M  V30 5010 H 513.592 -4.01529 3.271 0
M  V30 5011 H 510.269 -4.11719 0.692351 0
M  V30 5012 H 511.659 -4.83018 4.67059 0
M  V30 5013 N 514.379 -1.04941 -1.1758 0
M  V30 5014 C 515.79 -0.784501 -1.69418 0
M  V30 5015 C 516.141 0.693625 -1.8353 0
M  V30 5016 O 515.266 1.53925 -1.52106 0
M  V30 5017 C 515.861 -1.41746 -3.07723 0
M  V30 5018 C 514.42 -1.20066 -3.56737 0
M  V30 5019 C 513.567 -1.5026 -2.33061 0
M  V30 5020 H 516.518 -1.21469 -1.02133 0
M  V30 5021 H 516.539 -0.825381 -3.7144 0
M  V30 5022 H 516.051 -2.49325 -2.9742 0
M  V30 5023 H 514.152 -0.144006 -3.72322 0
M  V30 5024 H 514.265 -1.90384 -4.39648 0
M  V30 5025 H 512.629 -0.922598 -2.37403 0
M  V30 5026 H 513.412 -2.58967 -2.25368 0
M  V30 5027 N 515.857 1.33968 -0.830081 0
M  V30 5028 C 517.106 1.97323 -0.417928 0
M  V30 5029 C 517.419 1.6652 1.02618 0
M  V30 5030 O 518.625 2.2342 1.54259 0
M  V30 5031 C 517.081 3.53099 -0.696359 0
M  V30 5032 C 516.689 3.92788 -2.15457 0
M  V30 5033 C 518.433 4.23049 -0.350724 0
M  V30 5034 C 516.34 5.41506 -2.37751 0
M  V30 5035 H 515.27 0.738409 -0.152541 0
M  V30 5036 H 517.921 1.52711 -1.01744 0
M  V30 5037 H 516.303 3.95991 -0.0265904 0
M  V30 5038 H 517.477 3.6098 -2.86408 0
M  V30 5039 H 515.792 3.35795 -2.46232 0
M  V30 5040 H 518.389 5.32403 -0.495036 0
M  V30 5041 H 518.732 4.10279 0.705476 0
M  V30 5042 H 519.265 3.85657 -0.975362 0
M  V30 5043 H 516.004 5.5927 -3.41903 0
M  V30 5044 H 515.524 5.74804 -1.7135 0
M  V30 5045 H 517.203 6.0828 -2.20465 0
M  V30 5046 N 517.335 0.585699 1.46312 0
M  V30 5047 C 518.583 0.072278 2.01971 0
M  V30 5048 C 518.904 -1.29345 1.45928 0
M  V30 5049 O 518.174 -1.84973 0.645109 0
M  V30 5050 H 516.754 0.023729 0.746623 0
M  V30 5051 H 519.416 0.762155 1.7938 0
M  V30 5052 H 518.512 0.00552767 3.121 0
M  V30 5053 N 518.813 -1.54241 0.323641 0
M  V30 5054 C 519.776 -2.22997 -0.529602 0
M  V30 5055 C 520.776 -1.22345 -1.04347 0
M  V30 5056 O 521.966 -1.46924 -0.935889 0
M  V30 5057 C 519.098 -2.93409 -1.73562 0
M  V30 5058 H 520.291 -2.99815 0.0714518 0
M  V30 5059 H 517.844 -1.56121 0.0747258 0
M  V30 5060 H 518.579 -2.20729 -2.37591 0
M  V30 5061 H 518.364 -3.67217 -1.37456 0
M  V30 5062 H 519.854 -3.45794 -2.34128 0
M  V30 5063 N 520.291 -0.0518155 -1.57515 0
M  V30 5064 C 521.516 0.634896 -1.97443 0
M  V30 5065 C 521.941 1.63546 -0.929207 0
M  V30 5066 O 521.299 1.80981 0.107484 0
M  V30 5067 C 521.347 1.29765 -3.36442 0
M  V30 5068 O 520.451 2.41333 -3.34413 0
M  V30 5069 H 519.792 0.164994 -0.643174 0
M  V30 5070 H 522.322 -0.120407 -2.04245 0
M  V30 5071 H 522.332 1.64918 -3.73184 0
M  V30 5072 H 521.007 0.564361 -4.12053 0
M  V30 5073 H 519.584 2.08122 -3.09418 0
M  V30 5074 N 521.769 1.56035 0.221574 0
M  V30 5075 C 523.017 1.78693 0.944102 0
M  V30 5076 C 523.338 0.620317 1.8487 0
M  V30 5077 O 522.608 -0.362784 1.92512 0
M  V30 5078 H 521.188 0.659082 0.351597 0
M  V30 5079 H 523.85 1.93497 0.233435 0
M  V30 5080 H 522.946 2.70837 1.55093 0
M  V30 5081 N 523.247 -0.488276 1.49845 0
M  V30 5082 C 524.21 -1.57069 1.66919 0
M  V30 5083 C 525.21 -1.51445 0.540479 0
M  V30 5084 O 526.4 -1.5437 0.807188 0
M  V30 5085 C 523.532 -2.96718 1.67844 0
M  V30 5086 H 524.725 -1.43254 2.63474 0
M  V30 5087 H 522.278 -0.713435 1.39068 0
M  V30 5088 H 523.013 -3.15996 0.7292 0
M  V30 5089 H 522.798 -3.02208 2.49826 0
M  V30 5090 H 524.288 -3.75335 1.83066 0
M  V30 5091 N 524.725 -1.39134 -0.740242 0
M  V30 5092 C 526.141 -1.20623 -1.0451 0
M  V30 5093 C 526.341 -0.0641651 -2.01398 0
M  V30 5094 O 525.397 0.585843 -2.4561 0
M  V30 5095 C 526.71 -2.53815 -1.6124 0
M  V30 5096 C 528.258 -2.60615 -1.73346 0
M  V30 5097 C 528.733 -3.94015 -2.33486 0
M  V30 5098 N 530.224 -3.95627 -2.40902 0
M  V30 5099 C 530.959 -4.95616 -2.88361 0
M  V30 5100 N 530.455 -6.06003 -3.35756 0
M  V30 5101 N 532.248 -4.82998 -2.87523 0
M  V30 5102 H 524.399 -2.12176 -0.0975576 0
M  V30 5103 H 526.662 -0.942066 -0.105904 0
M  V30 5104 H 526.368 -3.37911 -0.975144 0
M  V30 5105 H 526.242 -2.73162 -2.6012 0
M  V30 5106 H 528.629 -1.76906 -2.36195 0
M  V30 5107 H 528.71 -2.45123 -0.731336 0
M  V30 5108 H 528.354 -4.78153 -1.71267 0
M  V30 5109 H 528.284 -4.06825 -3.34366 0
M  V30 5110 H 530.775 -3.15903 -2.07398 0
M  V30 5111 H 531.088 -6.78215 -3.70464 0
M  V30 5112 H 529.433 -6.09604 -3.33778 0
M  V30 5113 H 532.624 -3.95866 -2.49816 0
M  V30 5114 H 532.797 -5.61072 -3.24196 0
M  V30 5115 N 526.204 0.969867 -1.24223 0
M  V30 5116 C 527.453 1.70687 -1.07466 0
M  V30 5117 C 527.766 1.91736 0.386861 0
M  V30 5118 O 528.972 2.62986 0.674581 0
M  V30 5119 C 527.428 3.07217 -1.87472 0
M  V30 5120 C 527.036 2.94018 -3.3802 0
M  V30 5121 C 528.78 3.84804 -1.79237 0
M  V30 5122 C 526.687 4.25844 -4.10379 0
M  V30 5123 H 525.617 0.640067 -0.398536 0
M  V30 5124 H 528.268 1.08092 -1.48285 0
M  V30 5125 H 526.65 3.70628 -1.39466 0
M  V30 5126 H 527.824 2.39632 -3.9359 0
M  V30 5127 H 526.139 2.29898 -3.47183 0
M  V30 5128 H 528.736 4.82417 -2.30603 0
M  V30 5129 H 529.079 4.09356 -0.757197 0
M  V30 5130 H 529.612 3.28115 -2.24912 0
M  V30 5131 H 526.351 4.06486 -5.14246 0
M  V30 5132 H 525.871 4.80054 -3.59594 0
M  V30 5133 H 527.55 4.94475 -4.17257 0
M  V30 5134 N 527.682 1.05563 1.17022 0
M  V30 5135 C 528.612 0.681026 2.23348 0
M  V30 5136 C 529.593 -0.322983 1.67005 0
M  V30 5137 O 530.778 -0.199746 1.9317 0
M  V30 5138 C 527.908 0.0589053 3.4725 0
M  V30 5139 C 526.862 0.988082 4.16438 0
M  V30 5140 C 526.188 0.229646 5.34207 0
M  V30 5141 C 527.488 2.31388 4.68249 0
M  V30 5142 H 529.182 1.56993 2.54938 0
M  V30 5143 H 526.728 0.756302 1.2254 0
M  V30 5144 H 528.681 -0.214982 4.20851 0
M  V30 5145 H 527.405 -0.864968 3.14938 0
M  V30 5146 H 526.064 1.24659 3.44754 0
M  V30 5147 H 525.712 -0.697111 4.98146 0
M  V30 5148 H 525.412 0.848815 5.81437 0
M  V30 5149 H 526.936 -0.0368694 6.10589 0
M  V30 5150 H 528.35 2.09964 5.33468 0
M  V30 5151 H 526.747 2.88736 5.26072 0
M  V30 5152 H 527.817 2.94982 3.84855 0
M  V30 5153 N 529.16 -1.33526 0.837174 0
M  V30 5154 C 530.108 -2.31168 0.257698 0
M  V30 5155 C 531.102 -1.5806 -0.609388 0
M  V30 5156 O 532.308 -1.72941 -0.499139 0
M  V30 5157 H 528.683 -0.74922 0.0646058 0
M  V30 5158 H 530.654 -2.77552 1.09578 0
M  V30 5159 C 529.403 -3.4326 -0.553887 0
M  V30 5160 H 528.726 -3.99665 0.104008 0
M  V30 5161 H 530.166 -4.13782 -0.925219 0
M  V30 5162 C 528.625 -2.88965 -1.73207 0
M  V30 5163 O 529.155 -2.85013 -2.83073 0
M  V30 5164 N 527.361 -2.45596 -1.55342 0
M  V30 5165 H 526.908 -2.49009 -0.659705 0
M  V30 5166 H 526.866 -2.0962 -2.34322 0
M  V30 5167 N 530.638 -0.59345 -1.46 0
M  V30 5168 C 531.866 -0.0890934 -2.06708 0
M  V30 5169 C 532.281 1.2205 -1.44046 0
M  V30 5170 O 531.638 1.74029 -0.549551 0
M  V30 5171 C 531.689 0.0720263 -3.61428 0
M  V30 5172 O 531.41 -1.18574 -4.21748 0
M  V30 5173 C 532.911 0.609487 -4.3909 0
M  V30 5174 H 530.131 -0.0623628 -0.668096 0
M  V30 5175 H 532.675 -0.817171 -1.87464 0
M  V30 5176 H 530.83 0.750369 -3.80063 0
M  V30 5177 H 531.244 -1.0064 -5.14754 0
M  V30 5178 H 532.718 0.671363 -5.47902 0
M  V30 5179 H 533.195 1.62878 -4.07882 0
M  V30 5180 H 533.801 -0.03434 -4.25286 0
M  V30 5181 N 532.116 1.54067 -0.331816 0
M  V30 5182 C 533.046 2.27569 0.522932 0
M  V30 5183 C 534.027 1.28679 1.11247 0
M  V30 5184 O 535.212 1.57504 1.13605 0
M  V30 5185 C 532.342 3.0397 1.67987 0
M  V30 5186 C 531.296 4.10267 1.21924 0
M  V30 5187 C 530.622 4.74555 2.46377 0
M  V30 5188 C 531.922 5.21268 0.32815 0
M  V30 5189 H 533.616 2.99264 -0.0901977 0
M  V30 5190 H 531.162 1.4393 -0.044821 0
M  V30 5191 H 533.115 3.54123 2.28418 0
M  V30 5192 H 531.839 2.29906 2.31971 0
M  V30 5193 H 530.498 3.61009 0.637809 0
M  V30 5194 H 530.146 3.97098 3.08743 0
M  V30 5195 H 529.846 5.46363 2.16243 0
M  V30 5196 H 531.37 5.27487 3.07555 0
M  V30 5197 H 532.784 5.67128 0.838978 0
M  V30 5198 H 531.181 5.99982 0.119228 0
M  V30 5199 H 532.251 4.80673 -0.638839 0
M  V30 5200 N 533.594 0.0601682 1.57485 0
M  V30 5201 C 534.524 -0.90889 2.15085 0
M  V30 5202 C 535.505 -1.31838 1.07484 0
M  V30 5203 O 536.69 -1.3915 1.35466 0
M  V30 5204 C 533.82 -2.18059 2.7031 0
M  V30 5205 C 532.774 -1.91088 3.82974 0
M  V30 5206 C 532.1 -3.24789 4.24754 0
M  V30 5207 C 533.4 -1.22535 5.07723 0
M  V30 5208 H 535.094 -0.429093 2.96309 0
M  V30 5209 H 532.64 -0.204952 1.42534 0
M  V30 5210 H 534.593 -2.86258 3.09248 0
M  V30 5211 H 533.317 -2.6826 1.8629 0
M  V30 5212 H 531.976 -1.25297 3.44523 0
M  V30 5213 H 531.624 -3.72809 3.37672 0
M  V30 5214 H 531.324 -3.07538 5.00694 0
M  V30 5215 H 532.848 -3.94205 4.66299 0
M  V30 5216 H 534.262 -1.80783 5.4405 0
M  V30 5217 H 532.659 -1.1558 5.88864 0
M  V30 5218 H 533.729 -0.202692 4.84476 0
M  V30 5219 N 535.072 -1.5615 -0.213296 0
M  V30 5220 C 536.319 -1.79546 -0.936462 0
M  V30 5221 C 536.647 -0.630337 -1.84003 0
M  V30 5222 O 535.902 0.384883 -1.91878 0
M  V30 5223 C 536.201 -3.08772 -1.79985 0
M  V30 5224 C 535.867 -4.38532 -1.04882 0
M  V30 5225 C 534.529 -4.73787 -0.841393 0
M  V30 5226 C 536.881 -5.18609 -0.51907 0
M  V30 5227 C 534.209 -5.86627 -0.0924403 0
M  V30 5228 C 536.561 -6.32229 0.216581 0
M  V30 5229 C 535.225 -6.6608 0.435191 0
M  V30 5230 H 534.495 -0.657004 -0.342676 0
M  V30 5231 H 537.142 -1.9041 -0.204051 0
M  V30 5232 H 535.447 -2.93065 -2.60038 0
M  V30 5233 H 537.144 -3.24077 -2.36168 0
M  V30 5234 H 533.734 -4.10855 -1.22048 0
M  V30 5235 H 537.918 -4.91801 -0.666775 0
M  V30 5236 H 533.174 -6.11338 0.087081 0
M  V30 5237 H 537.348 -6.93503 0.634538 0
M  V30 5238 H 534.975 -7.5336 1.01746 0
M  V30 5239 N 536.55 0.480323 -1.50102 0
M  V30 5240 C 537.46 1.60547 -1.71061 0
M  V30 5241 C 538.476 1.63564 -0.593529 0
M  V30 5242 O 539.652 1.81604 -0.870751 0
M  V30 5243 C 536.717 2.96814 -1.79171 0
M  V30 5244 C 535.778 3.04259 -3.02861 0
M  V30 5245 C 535.011 4.34027 -3.10574 0
M  V30 5246 O 535.234 5.24009 -2.25323 0
M  V30 5247 O 534.168 4.46873 -4.03223 0
M  V30 5248 H 537.994 1.45788 -2.6642 0
M  V30 5249 H 535.579 0.658838 -1.34088 0
M  V30 5250 H 537.461 3.77765 -1.86738 0
M  V30 5251 H 536.136 3.11791 -0.869947 0
M  V30 5252 H 535.043 2.22419 -3.008 0
M  V30 5253 H 536.376 2.94216 -3.94586 0
M  V30 5254 N 538.028 1.39524 0.732853 0
M  V30 5255 C 538.961 1.32806 1.85574 0
M  V30 5256 C 539.939 0.201354 1.61348 0
M  V30 5257 O 541.123 0.38216 1.84585 0
M  V30 5258 C 538.25 1.06271 3.21596 0
M  V30 5259 C 537.296 2.21161 3.64678 0
M  V30 5260 S 538.129 3.83454 3.73796 0
M  V30 5261 C 539.285 3.59149 5.12604 0
M  V30 5262 H 539.518 2.27838 1.9099 0
M  V30 5263 H 537.051 1.25605 0.897927 0
M  V30 5264 H 539.009 0.916461 4.00139 0
M  V30 5265 H 537.67 0.129223 3.13834 0
M  V30 5266 H 536.863 1.98193 4.63396 0
M  V30 5267 H 536.465 2.32 2.93346 0
M  V30 5268 H 538.757 3.16547 5.99003 0
M  V30 5269 H 539.7 4.57335 5.40602 0
M  V30 5270 H 540.108 2.93203 4.82382 0
M  V30 5271 N 539.506 -0.963266 1.24736 0
M  V30 5272 C 540.453 -2.05857 1.04363 0
M  V30 5273 C 541.423 -1.6604 -0.0444951 0
M  V30 5274 O 542.608 -1.90477 0.110999 0
M  V30 5275 C 539.748 -3.38745 0.659235 0
M  V30 5276 C 538.861 -3.9173 1.82131 0
M  V30 5277 C 537.996 -5.12906 1.38208 0
M  V30 5278 C 537.035 -5.58098 2.51382 0
M  V30 5279 N 536.172 -6.7049 2.08295 0
M  V30 5280 H 541.012 -2.22616 1.98107 0
M  V30 5281 H 538.549 -1.09103 0.986661 0
M  V30 5282 H 540.507 -4.15107 0.417371 0
M  V30 5283 H 539.137 -3.21898 -0.241201 0
M  V30 5284 H 538.189 -3.11966 2.17672 0
M  V30 5285 H 539.501 -4.21225 2.67153 0
M  V30 5286 H 538.655 -5.96657 1.09935 0
M  V30 5287 H 537.394 -4.85105 0.502456 0
M  V30 5288 H 536.399 -4.72917 2.80409 0
M  V30 5289 H 537.624 -5.87911 3.39909 0
M  V30 5290 H 535.57 -6.44416 1.22737 0
M  V30 5291 H 535.487 -6.99458 2.86869 0
M  V30 5292 H 536.755 -7.57672 1.83175 0
M  V30 5293 N 540.985 -1.06182 -1.16461 0
M  V30 5294 C 542.401 -0.785065 -1.38956 0
M  V30 5295 C 542.601 0.616103 -1.9185 0
M  V30 5296 O 541.657 1.37686 -2.11657 0
M  V30 5297 C 542.97 -1.84902 -2.37132 0
M  V30 5298 C 544.518 -1.8724 -2.50819 0
M  V30 5299 C 544.993 -2.92686 -3.52277 0
M  V30 5300 N 546.484 -2.91712 -3.59803 0
M  V30 5301 C 547.219 -3.69949 -4.38093 0
M  V30 5302 N 546.715 -4.58 -5.19815 0
M  V30 5303 N 548.508 -3.58346 -4.33064 0
M  V30 5304 H 540.659 -1.96569 -0.804634 0
M  V30 5305 H 542.922 -0.851747 -0.416211 0
M  V30 5306 H 542.628 -2.85518 -2.0536 0
M  V30 5307 H 542.502 -1.69908 -3.36766 0
M  V30 5308 H 544.889 -0.872827 -2.81897 0
M  V30 5309 H 544.97 -2.06311 -1.51226 0
M  V30 5310 H 544.614 -3.92835 -3.21937 0
M  V30 5311 H 544.544 -2.70864 -4.51598 0
M  V30 5312 H 547.035 -2.27876 -3.01464 0
M  V30 5313 H 547.348 -5.14357 -5.76764 0
M  V30 5314 H 545.693 -4.62056 -5.19162 0
M  V30 5315 H 548.884 -2.88943 -3.68279 0
M  V30 5316 H 549.057 -4.19563 -4.93833 0
M  V30 5317 N 542.463 1.3308 -0.844243 0
M  V30 5318 C 543.879 1.50447 -0.532729 0
M  V30 5319 C 544.079 1.78292 0.938837 0
M  V30 5320 O 543.135 1.84635 1.72239 0
M  V30 5321 C 544.448 2.65555 -1.41072 0
M  V30 5322 C 545.996 2.7944 -1.41005 0
M  V30 5323 C 546.471 3.97616 -2.27301 0
M  V30 5324 N 547.962 4.0486 -2.2504 0
M  V30 5325 C 548.697 4.95508 -2.88547 0
M  V30 5326 N 548.193 5.91236 -3.61126 0
M  V30 5327 N 549.986 4.88548 -2.77989 0
M  V30 5328 H 542.137 1.13269 -1.79677 0
M  V30 5329 H 544.4 0.55734 -0.766861 0
M  V30 5330 H 544.106 2.51675 -2.45668 0
M  V30 5331 H 543.98 3.61089 -1.09061 0
M  V30 5332 H 546.367 2.92749 -0.371784 0
M  V30 5333 H 546.448 1.8465 -1.77026 0
M  V30 5334 H 546.092 3.85066 -3.3119 0
M  V30 5335 H 546.022 4.91661 -1.88619 0
M  V30 5336 H 548.513 3.36353 -1.72264 0
M  V30 5337 H 548.826 6.57079 -4.06776 0
M  V30 5338 H 547.171 5.91295 -3.65234 0
M  V30 5339 H 550.362 4.12729 -2.20846 0
M  V30 5340 H 550.535 5.58994 -3.27765 0
M  V30 5341 N 543.941 0.601185 1.45683 0
M  V30 5342 C 545.189 0.0936957 2.01883 0
M  V30 5343 C 545.51 -1.2779 1.47291 0
M  V30 5344 O 544.78 -1.84279 0.664691 0
M  V30 5345 H 543.36 0.0316466 0.746329 0
M  V30 5346 H 546.022 0.781137 1.78562 0
M  V30 5347 H 545.118 0.0386297 3.12076 0
M  V30 5348 N 545.419 -1.53889 0.339982 0
M  V30 5349 C 546.382 -2.23547 -0.50592 0
M  V30 5350 C 547.382 -1.23445 -1.03044 0
M  V30 5351 O 548.572 -1.47909 -0.920253 0
M  V30 5352 C 545.704 -2.95234 -1.7044 0
M  V30 5353 H 546.897 -2.99722 0.103247 0
M  V30 5354 H 544.45 -1.56033 0.0912804 0
M  V30 5355 H 545.185 -2.23236 -2.35236 0
M  V30 5356 H 544.97 -3.68654 -1.33553 0
M  V30 5357 H 546.46 -3.48258 -2.30447 0
M  V30 5358 N 546.897 -0.0685191 -1.57451 0
M  V30 5359 C 548.313 0.288101 -1.56978 0
M  V30 5360 C 548.513 1.70262 -1.07765 0
M  V30 5361 O 547.569 2.4135 -0.742054 0
M  V30 5362 C 548.882 0.100745 -3.00531 0
M  V30 5363 C 550.43 0.170531 -3.12535 0
M  V30 5364 C 550.905 0.0114944 -4.57999 0
M  V30 5365 N 552.396 0.0672065 -4.63151 0
M  V30 5366 C 553.131 -0.0314813 -5.73391 0
M  V30 5367 N 552.627 -0.183503 -6.92557 0
M  V30 5368 N 554.42 0.0253489 -5.62094 0
M  V30 5369 H 546.571 -0.993026 -1.87757 0
M  V30 5370 H 548.834 -0.386981 -0.865419 0
M  V30 5371 H 548.54 -0.875197 -3.40636 0
M  V30 5372 H 548.414 0.854457 -3.67395 0
M  V30 5373 H 550.801 1.13696 -2.72318 0
M  V30 5374 H 550.882 -0.614229 -2.48316 0
M  V30 5375 H 550.526 -0.951684 -4.98904 0
M  V30 5376 H 550.456 0.815617 -5.20245 0
M  V30 5377 H 552.947 0.183246 -3.77455 0
M  V30 5378 H 553.26 -0.251041 -7.72392 0
M  V30 5379 H 551.605 -0.218822 -6.94655 0
M  V30 5380 H 554.796 0.142794 -4.67882 0
M  V30 5381 H 554.969 -0.0550166 -6.47977 0
M  V30 5382 N 548.375 1.56261 0.205012 0
M  V30 5383 C 549.322 1.93754 1.25411 0
M  V30 5384 C 550.292 0.796826 1.45739 0
M  V30 5385 O 551.477 1.05414 1.59036 0
M  V30 5386 C 548.617 2.27383 2.59598 0
M  V30 5387 C 547.73 3.5447 2.46931 0
M  V30 5388 C 546.865 3.77468 3.73753 0
M  V30 5389 C 545.904 4.98014 3.55877 0
M  V30 5390 N 545.041 5.17316 4.74688 0
M  V30 5391 H 549.881 2.83203 0.92737 0
M  V30 5392 H 547.418 1.40158 0.446574 0
M  V30 5393 H 549.376 2.44895 3.37761 0
M  V30 5394 H 548.006 1.41088 2.90335 0
M  V30 5395 H 547.058 3.45061 1.60116 0
M  V30 5396 H 548.37 4.42789 2.29651 0
M  V30 5397 H 547.524 3.95165 4.60358 0
M  V30 5398 H 546.263 2.87461 3.93976 0
M  V30 5399 H 545.268 4.80249 2.67657 0
M  V30 5400 H 546.493 5.8952 3.37109 0
M  V30 5401 H 544.439 4.30255 4.95194 0
M  V30 5402 H 544.356 5.99796 4.60197 0
M  V30 5403 H 545.624 5.39463 5.62672 0
M  V30 5404 N 549.853 -0.472356 1.50355 0
M  V30 5405 C 551.101 -1.22211 1.60962 0
M  V30 5406 C 551.422 -1.92497 0.311439 0
M  V30 5407 O 550.692 -1.8405 -0.671002 0
M  V30 5408 H 549.272 -0.454092 0.593135 0
M  V30 5409 H 551.934 -0.544977 1.87126 0
M  V30 5410 H 551.03 -1.9707 2.42012 0
M  V30 5411 N 551.331 -1.39911 -0.725443 0
M  V30 5412 C 552.261 -1.42138 -1.85254 0
M  V30 5413 C 553.242 -0.283513 -1.67721 0
M  V30 5414 O 554.427 -0.490717 -1.87898 0
M  V30 5415 C 551.557 -1.27354 -3.23107 0
M  V30 5416 C 550.511 -2.3864 -3.55296 0
M  V30 5417 C 549.837 -2.08939 -4.92188 0
M  V30 5418 C 551.137 -3.8097 -3.57295 0
M  V30 5419 H 552.831 -2.36461 -1.83648 0
M  V30 5420 H 550.377 -1.13817 -0.882138 0
M  V30 5421 H 552.33 -1.2753 -4.01639 0
M  V30 5422 H 551.054 -0.295025 -3.25265 0
M  V30 5423 H 549.713 -2.37696 -2.79099 0
M  V30 5424 H 549.361 -1.09502 -4.90936 0
M  V30 5425 H 549.061 -2.83491 -5.14691 0
M  V30 5426 H 550.585 -2.10781 -5.73065 0
M  V30 5427 H 551.999 -3.8379 -4.25885 0
M  V30 5428 H 550.396 -4.5496 -3.9132 0
M  V30 5429 H 551.466 -4.11261 -2.5689 0
M  V30 5430 N 552.809 0.956637 -1.25245 0
M  V30 5431 C 553.772 2.03457 -1.05537 0
M  V30 5432 C 554.772 1.60798 -0.00886317 0
M  V30 5433 O 555.962 1.72384 -0.250865 0
M  V30 5434 C 553.094 3.35543 -0.601965 0
M  V30 5435 H 554.287 2.22372 -2.01223 0
M  V30 5436 H 551.84 1.13344 -1.07623 0
M  V30 5437 H 552.575 3.22323 0.357584 0
M  V30 5438 H 552.36 3.67854 -1.35743 0
M  V30 5439 H 553.85 4.14769 -0.485454 0
M  V30 5440 N 554.287 1.06798 1.15896 0
M  V30 5441 C 555.515 0.808694 1.90441 0
M  V30 5442 C 555.93 -0.637506 1.77711 0
M  V30 5443 O 555.287 -1.43684 1.12522 0
M  V30 5444 C 555.338 1.20068 3.40978 0
M  V30 5445 O 555.059 2.59013 3.53333 0
M  V30 5446 C 556.56 0.96987 4.3256 0
M  V30 5447 H 553.78 0.292809 0.603742 0
M  V30 5448 H 556.324 1.42296 1.46874 0
M  V30 5449 H 554.479 0.630842 3.82229 0
M  V30 5450 H 554.893 2.7485 4.46719 0
M  V30 5451 H 556.367 1.29371 5.36626 0
M  V30 5452 H 556.844 -0.0941209 4.39099 0
M  V30 5453 H 557.45 1.52433 3.97044 0
M  V30 5454 N 555.766 -1.3263 0.851289 0
M  V30 5455 C 556.696 -2.31449 0.308771 0
M  V30 5456 C 557.677 -1.59531 -0.590255 0
M  V30 5457 O 558.862 -1.87351 -0.511205 0
M  V30 5458 C 555.992 -3.43586 -0.506548 0
M  V30 5459 C 554.946 -4.26963 0.297753 0
M  V30 5460 C 554.272 -5.30831 -0.642094 0
M  V30 5461 C 555.572 -4.99643 1.52166 0
M  V30 5462 H 557.266 -2.77074 1.13447 0
M  V30 5463 H 554.812 -1.33207 0.546971 0
M  V30 5464 H 556.765 -4.11754 -0.896474 0
M  V30 5465 H 555.489 -2.96681 -1.36558 0
M  V30 5466 H 554.148 -3.60437 0.669391 0
M  V30 5467 H 553.796 -4.8018 -1.49788 0
M  V30 5468 H 553.496 -5.87501 -0.107968 0
M  V30 5469 H 555.02 -6.01862 -1.02927 0
M  V30 5470 H 556.434 -5.6051 1.20421 0
M  V30 5471 H 554.831 -5.66022 1.99347 0
M  V30 5472 H 555.901 -4.27701 2.28474 0
M  V30 5473 N 557.244 -0.608902 -1.45362 0
M  V30 5474 C 558.484 -0.10763 -2.04116 0
M  V30 5475 C 558.848 1.23883 -1.46686 0
M  V30 5476 O 560.049 1.83091 -1.96803 0
M  V30 5477 C 558.32 -0.0703351 -3.57331 0
M  V30 5478 S 559.879 0.369554 -4.37241 0
M  V30 5479 H 556.697 -0.0502123 -0.709225 0
M  V30 5480 H 559.299 -0.8073 -1.78053 0
M  V30 5481 H 558.003 -1.05379 -3.9664 0
M  V30 5482 H 557.534 0.651287 -3.87971 0
M  V30 5483 H 559.549 1.61878 -4.69052 0
M  V30 5484 N 558.722 1.53707 -0.348139 0
M  V30 5485 C 559.971 2.0017 0.247992 0
M  V30 5486 C 560.284 1.23983 1.51286 0
M  V30 5487 O 561.49 1.60946 2.18652 0
M  V30 5488 C 559.946 3.56515 0.492459 0
M  V30 5489 C 559.554 4.41562 -0.756777 0
M  V30 5490 C 561.298 4.11381 1.0472 0
M  V30 5491 C 559.205 5.89426 -0.482856 0
M  V30 5492 H 558.135 0.747806 0.0964452 0
M  V30 5493 H 560.786 1.77532 -0.464179 0
M  V30 5494 H 559.168 3.75236 1.26545 0
M  V30 5495 H 560.342 4.34615 -1.53122 0
M  V30 5496 H 558.657 3.97711 -1.23348 0
M  V30 5497 H 561.254 5.19468 1.26717 0
M  V30 5498 H 561.597 3.64885 2.00411 0
M  V30 5499 H 562.13 3.96389 0.334801 0
M  V30 5500 H 558.869 6.40164 -1.40962 0
M  V30 5501 H 558.389 5.99264 0.253416 0
M  V30 5502 H 560.068 6.4692 -0.101816 0
M  V30 5503 N 560.2 0.0768682 1.57412 0
M  V30 5504 C 561.448 -0.589918 1.93299 0
M  V30 5505 C 561.769 -1.69842 0.958049 0
M  V30 5506 O 561.039 -1.95899 0.00703261 0
M  V30 5507 H 559.619 -0.220901 0.713591 0
M  V30 5508 H 562.281 0.135917 1.94425 0
M  V30 5509 H 561.377 -1.01195 2.95239 0
M  V30 5510 N 561.678 -1.56367 -0.196722 0
M  V30 5511 C 562.926 -1.80172 -0.915554 0
M  V30 5512 C 563.247 -0.649649 -1.8386 0
M  V30 5513 O 562.517 0.332111 -1.93064 0
M  V30 5514 H 561.097 -0.664592 -0.341067 0
M  V30 5515 H 563.759 -1.93844 -0.202622 0
M  V30 5516 H 562.855 -2.7327 -1.50764 0
M  V30 5517 N 563.156 0.464375 -1.50603 0
M  V30 5518 C 564.404 1.21356 -1.61608 0
M  V30 5519 C 564.725 1.92329 -0.321643 0
M  V30 5520 O 563.995 1.84403 0.661232 0
M  V30 5521 H 562.575 0.45094 -0.595535 0
M  V30 5522 H 565.237 0.535046 -1.87412 0
M  V30 5523 H 564.333 1.95783 -2.43054 0
M  V30 5524 N 564.634 1.40294 0.718013 0
M  V30 5525 C 565.567 1.34767 1.84155 0
M  V30 5526 C 566.545 0.218455 1.61126 0
M  V30 5527 O 567.729 0.401716 1.8417 0
M  V30 5528 C 564.856 1.09676 3.20451 0
M  V30 5529 C 563.902 2.25016 3.62312 0
M  V30 5530 S 564.735 3.87397 3.69707 0
M  V30 5531 C 565.891 3.64565 5.08766 0
M  V30 5532 H 566.124 2.29851 1.88562 0
M  V30 5533 H 563.657 1.2655 0.884555 0
M  V30 5534 H 565.615 0.95885 3.99144 0
M  V30 5535 H 564.276 0.162502 3.13679 0
M  V30 5536 H 563.469 2.03097 4.61268 0
M  V30 5537 H 563.071 2.35098 2.90869 0
M  V30 5538 H 565.363 3.22882 5.95612 0
M  V30 5539 H 566.306 4.63043 5.35721 0
M  V30 5540 H 566.714 2.98303 4.79245 0
M  V30 5541 N 566.112 -0.949982 1.2575 0
M  V30 5542 C 567.36 -1.6918 1.10555 0
M  V30 5543 C 567.681 -1.91773 -0.353298 0
M  V30 5544 O 566.951 -1.50814 -1.25027 0
M  V30 5545 H 565.531 -0.626952 0.406129 0
M  V30 5546 H 568.193 -1.1419 1.57945 0
M  V30 5547 H 567.289 -2.66915 1.61749 0
M  V30 5548 N 567.59 -1.07411 -1.15328 0
M  V30 5549 C 568.836 -0.798831 -1.86404 0
M  V30 5550 C 569.169 0.673433 -1.8215 0
M  V30 5551 O 568.444 1.49428 -1.24505 0
M  V30 5552 C 568.727 -1.30846 -3.35487 0
M  V30 5553 C 568.58 -2.84532 -3.4837 0
M  V30 5554 C 569.899 -0.925486 -4.30259 0
M  V30 5555 H 567.018 -0.291659 -0.676834 0
M  V30 5556 H 569.66 -1.332 -1.35491 0
M  V30 5557 H 567.81 -0.854916 -3.78977 0
M  V30 5558 H 569.482 -3.3818 -3.13739 0
M  V30 5559 H 567.725 -3.22699 -2.8991 0
M  V30 5560 H 568.396 -3.15259 -4.53118 0
M  V30 5561 H 570.872 -1.3163 -3.94731 0
M  V30 5562 H 569.748 -1.3094 -5.33053 0
M  V30 5563 H 570.009 0.168525 -4.41779 0
M  V30 5564 N 569.068 1.32177 -0.85831 0
M  V30 5565 C 570.031 2.27086 -0.310588 0
M  V30 5566 C 571.031 1.51751 0.531806 0
M  V30 5567 O 572.221 1.70794 0.34279 0
M  V30 5568 C 569.353 3.36266 0.560179 0
M  V30 5569 H 570.546 2.77045 -1.1483 0
M  V30 5570 H 568.099 1.42911 -0.632942 0
M  V30 5571 H 568.834 2.9158 1.41956 0
M  V30 5572 H 568.619 3.92077 -0.0428473 0
M  V30 5573 H 570.109 4.06974 0.936056 0
M  V30 5574 N 570.547 0.616602 1.45037 0
M  V30 5575 C 571.48 -0.145984 2.27733 0
M  V30 5576 C 572.458 -0.865108 1.37676 0
M  V30 5577 O 573.642 -0.872152 1.6711 0
M  V30 5578 C 570.769 -1.2122 3.16265 0
M  V30 5579 C 569.815 -0.595218 4.22326 0
M  V30 5580 S 570.648 0.603744 5.32086 0
M  V30 5581 C 571.804 -0.462842 6.24186 0
M  V30 5582 H 572.037 0.555591 2.92062 0
M  V30 5583 H 569.57 0.404364 1.49011 0
M  V30 5584 H 571.528 -1.82247 3.67827 0
M  V30 5585 H 570.189 -1.88589 2.51183 0
M  V30 5586 H 569.382 -1.39775 4.8423 0
M  V30 5587 H 568.984 -0.0598965 3.73952 0
M  V30 5588 H 571.276 -1.33945 6.64127 0
M  V30 5589 H 572.219 0.120259 7.07998 0
M  V30 5590 H 572.627 -0.782219 5.59054 0
M  V30 5591 N 572.025 -1.5352 0.356285 0
M  V30 5592 C 573.265 -2.03027 -0.23649 0
M  V30 5593 C 573.629 -1.23813 -1.46746 0
M  V30 5594 O 574.83 -1.63281 -2.13525 0
M  V30 5595 C 573.101 -3.53442 -0.530415 0
M  V30 5596 S 574.66 -4.24836 -1.09819 0
M  V30 5597 H 571.478 -0.707591 -0.0695378 0
M  V30 5598 H 574.08 -1.89077 0.496999 0
M  V30 5599 H 572.784 -4.087 0.373114 0
M  V30 5600 H 572.315 -3.71536 -1.29323 0
M  V30 5601 H 574.33 -4.35228 -2.38309 0
M  V30 5602 N 573.503 -0.0852151 -1.57369 0
M  V30 5603 C 574.752 0.580443 -1.93168 0
M  V30 5604 C 575.065 1.6995 -0.968319 0
M  V30 5605 O 576.271 2.42564 -1.21963 0
M  V30 5606 C 574.727 1.08386 -3.43192 0
M  V30 5607 C 574.335 -0.00491388 -4.48 0
M  V30 5608 C 576.079 1.72281 -3.87968 0
M  V30 5609 C 573.986 0.513299 -5.89168 0
M  V30 5610 H 572.916 0.22059 -0.72101 0
M  V30 5611 H 575.567 -0.159621 -1.82804 0
M  V30 5612 H 573.949 1.8773 -3.48674 0
M  V30 5613 H 575.123 -0.780032 -4.5415 0
M  V30 5614 H 573.438 -0.548453 -4.12772 0
M  V30 5615 H 576.035 2.12108 -4.9083 0
M  V30 5616 H 576.378 2.58811 -3.26071 0
M  V30 5617 H 576.911 0.995359 -3.85146 0
M  V30 5618 H 573.65 -0.315153 -6.54742 0
M  V30 5619 H 573.17 1.25564 -5.8651 0
M  V30 5620 H 574.849 0.985433 -6.39451 0
M  V30 5621 N 574.981 1.5647 0.188427 0
M  V30 5622 C 575.891 1.98285 1.2538 0
M  V30 5623 C 576.907 0.891535 1.49424 0
M  V30 5624 O 578.083 1.19782 1.61908 0
M  V30 5625 C 575.148 2.31965 2.57669 0
M  V30 5626 C 574.209 3.54838 2.41638 0
M  V30 5627 C 573.442 3.86901 3.67618 0
M  V30 5628 O 573.665 3.20163 4.72072 0
M  V30 5629 O 572.599 4.80309 3.62749 0
M  V30 5630 H 576.425 2.89145 0.928912 0
M  V30 5631 H 574.01 1.44112 0.393955 0
M  V30 5632 H 575.892 2.54673 3.35737 0
M  V30 5633 H 574.567 1.44271 2.89771 0
M  V30 5634 H 573.474 3.37369 1.61658 0
M  V30 5635 H 574.807 4.43019 2.14465 0
M  V30 5636 N 576.459 -0.456382 1.50847 0
M  V30 5637 C 577.684 -1.2349 1.66628 0
M  V30 5638 C 578.109 -1.84715 0.355254 0
M  V30 5639 O 577.467 -1.67961 -0.682559 0
M  V30 5640 C 577.515 -2.30865 2.77009 0
M  V30 5641 O 576.619 -3.35882 2.39285 0
M  V30 5642 H 575.96 -0.36266 0.556214 0
M  V30 5643 H 578.49 -0.541374 1.97308 0
M  V30 5644 H 578.5 -2.75949 3.00526 0
M  V30 5645 H 577.175 -1.85677 3.72152 0
M  V30 5646 H 575.752 -2.96406 2.26269 0
M  V30 5647 N 577.937 -1.40673 -0.710563 0
M  V30 5648 C 578.867 -1.44095 -1.83736 0
M  V30 5649 C 579.848 -0.301286 -1.67411 0
M  V30 5650 O 581.033 -0.510618 -1.87367 0
M  V30 5651 C 578.163 -1.30773 -3.21738 0
M  V30 5652 C 577.117 -2.42395 -3.52745 0
M  V30 5653 C 576.443 -2.14147 -4.89944 0
M  V30 5654 C 577.743 -3.84738 -3.53234 0
M  V30 5655 H 579.437 -2.38396 -1.81129 0
M  V30 5656 H 576.983 -1.14746 -0.870017 0
M  V30 5657 H 578.936 -1.31783 -4.00264 0
M  V30 5658 H 577.66 -0.329507 -3.24934 0
M  V30 5659 H 576.319 -2.40643 -2.76562 0
M  V30 5660 H 575.967 -1.14703 -4.89747 0
M  V30 5661 H 575.667 -2.88934 -5.11655 0
M  V30 5662 H 577.191 -2.16848 -5.70797 0
M  V30 5663 H 578.605 -3.88286 -4.2179 0
M  V30 5664 H 577.002 -4.59085 -3.86473 0
M  V30 5665 H 578.072 -4.13962 -2.52514 0
M  V30 5666 O 579.454 0.8523 -1.37179 0
M  V30 5667 H 580.145 1.49284 -1.23425 0
M  V30 END ATOM
M  V30 BEGIN BOND
M  V30 END BOND
M  V30 END CTAB
M  END
$$$$
