drugbank_target|P13929 Beta-enolase (DB01709; DB01819; DB02726; DB03645)
 OpenBabel12092120533D

  0  0  0     0  0            999 V3000
M  V30 BEGIN CTAB
M  V30 COUNTS 6647 6703 0 0 0
M  V30 BEGIN ATOM
M  V30 1 H -0.908 1.98254 -0.117106 0
M  V30 2 N 0 1.576 0 0
M  V30 3 C 0.933 2.03868 1.02534 0
M  V30 4 C 1.911 0.928543 1.3348 0
M  V30 5 O 3.095 1.19667 1.45644 0
M  V30 6 C 0.222 2.43627 2.35294 0
M  V30 7 C -0.732 3.65373 2.2001 0
M  V30 8 S 0.101 5.13292 1.52614 0
M  V30 9 C 1.257 5.56322 2.86805 0
M  V30 10 H 1.49 2.90518 0.631377 0
M  V30 11 H -0.977 1.52953 0.210867 0
M  V30 12 H 0.981 2.67203 3.11629 0
M  V30 13 H -0.358 1.57376 2.7183 0
M  V30 14 H -1.165 3.90944 3.18086 0
M  V30 15 H -1.563 3.418 1.51819 0
M  V30 16 H 0.729 5.58782 3.83104 0
M  V30 17 H 1.672 6.56266 2.65933 0
M  V30 18 H 2.08 4.83886 2.90714 0
M  V30 19 N 1.4781 -0.272755 1.55222 0
M  V30 20 C 2.4411 -1.32041 1.87344 0
M  V30 21 C 3.4411 -1.42342 0.74803 0
M  V30 22 O 4.6311 -1.41488 1.0162 0
M  V30 23 C 1.7631 -2.70173 2.07893 0
M  V30 24 H 2.9561 -1.04789 2.80997 0
M  V30 25 H 0.5091 -0.51083 1.47717 0
M  V30 26 H 1.2441 -3.02605 1.16622 0
M  V30 27 H 1.0291 -2.64082 2.89833 0
M  V30 28 H 2.5191 -3.45869 2.34017 0
M  V30 29 N 2.9562 -1.48159 -0.537278 0
M  V30 30 C 3.8892 -1.567 -1.65893 0
M  V30 31 C 4.8672 -0.41787 -1.57139 0
M  V30 32 O 6.0512 -0.628461 -1.77715 0
M  V30 33 C 3.1782 -1.48818 -3.04255 0
M  V30 34 C 2.2242 -2.68482 -3.31391 0
M  V30 35 S 3.0572 -4.30516 -3.1846 0
M  V30 36 C 4.2132 -4.2522 -4.59281 0
M  V30 37 H 4.4462 -2.5159 -1.58397 0
M  V30 38 H 1.9792 -1.36602 -0.719672 0
M  V30 39 H 3.9372 -1.44958 -3.84054 0
M  V30 40 H 2.5982 -0.552777 -3.09198 0
M  V30 41 H 1.7912 -2.59085 -4.32309 0
M  V30 42 H 1.3932 -2.69567 -2.59248 0
M  V30 43 H 3.6852 -3.94703 -5.5065 0
M  V30 44 H 4.6282 -5.26292 -4.73732 0
M  V30 45 H 5.0362 -3.55791 -4.38261 0
M  V30 46 N 4.4343 0.785586 -1.36625 0
M  V30 47 C 5.3663 1.90711 -1.2713 0
M  V30 48 C 6.3793 1.61688 -0.189986 0
M  V30 49 O 7.5683 1.72864 -0.445014 0
M  V30 50 C 4.6683 3.25611 -0.939713 0
M  V30 51 C 3.8413 3.82385 -2.12369 0
M  V30 52 C 2.9003 4.95732 -1.76456 0
M  V30 53 O 1.9263 5.12047 -2.48589 0
M  V30 54 N 3.1283 5.76258 -0.700492 0
M  V30 55 H 5.8933 1.99376 -2.23762 0
M  V30 56 H 3.4543 0.964041 -1.30069 0
M  V30 57 H 5.4463 3.98937 -0.680554 0
M  V30 58 H 4.0163 3.12538 -0.0624074 0
M  V30 59 H 3.2363 3.01001 -2.54543 0
M  V30 60 H 4.5243 4.17047 -2.9146 0
M  V30 61 H 3.9223 5.65609 -0.101624 0
M  V30 62 H 2.4793 6.4987 -0.501165 0
M  V30 63 N 5.9124 1.20967 1.01018 0
M  V30 64 C 6.8594 0.964281 2.09691 0
M  V30 65 C 7.8294 -0.107853 1.65749 0
M  V30 66 O 9.0144 0.0381987 1.90762 0
M  V30 67 C 6.1544 0.52943 3.41015 0
M  V30 68 C 5.2674 1.67043 3.98398 0
M  V30 69 C 4.4024 1.18525 5.17808 0
M  V30 70 C 3.4414 2.29892 5.67288 0
M  V30 71 N 2.5784 1.82546 6.77954 0
M  V30 72 H 7.4184 1.89463 2.30017 0
M  V30 73 H 4.9554 0.944289 1.1279 0
M  V30 74 H 6.9134 0.258588 4.16398 0
M  V30 75 H 5.5434 -0.363919 3.20742 0
M  V30 76 H 4.5954 2.05603 3.20049 0
M  V30 77 H 5.9074 2.50877 4.31117 0
M  V30 78 H 5.0614 0.870762 6.00419 0
M  V30 79 H 3.8004 0.316887 4.86669 0
M  V30 80 H 2.8054 2.6215 4.83278 0
M  V30 81 H 4.0304 3.17216 6.00459 0
M  V30 82 H 1.9764 0.980454 6.48632 0
M  V30 83 H 1.8934 2.59956 7.09901 0
M  V30 84 H 3.1614 1.54115 7.64113 0
M  V30 85 N 7.3905 -1.2043 1.01659 0
M  V30 86 C 8.6395 -1.89118 0.701237 0
M  V30 87 C 8.9525 -1.79705 -0.772358 0
M  V30 88 O 10.1585 -2.43528 -1.20026 0
M  V30 89 C 8.6145 -3.39168 1.20388 0
M  V30 90 C 8.2225 -3.57166 2.70438 0
M  V30 91 C 9.9665 -4.1341 0.963953 0
M  V30 92 C 7.8735 -5.01042 3.14183 0
M  V30 93 H 6.8035 -0.708267 0.2586 0
M  V30 94 H 9.4545 -1.36239 1.22927 0
M  V30 95 H 7.8365 -3.91369 0.603824 0
M  V30 96 H 9.0105 -3.15351 3.35992 0
M  V30 97 H 7.3255 -2.96294 2.92572 0
M  V30 98 H 9.9225 -5.19491 1.26621 0
M  V30 99 H 10.2655 -4.16181 -0.099578 0
M  V30 100 H 10.7985 -3.67309 1.52738 0
M  V30 101 H 7.5375 -5.03426 4.19812 0
M  V30 102 H 7.0575 -5.43668 2.53348 0
M  V30 103 H 8.7365 -5.69623 3.0682 0
M  V30 104 N 8.8686 -0.792821 -1.36206 0
M  V30 105 C 10.1156 -0.366786 -1.99151 0
M  V30 106 C 10.4436 1.06243 -1.62919 0
M  V30 107 O 9.6986 1.74927 -0.877442 0
M  V30 108 C 9.9976 -0.481501 -3.54142 0
M  V30 109 C 9.6636 -1.87202 -4.10203 0
M  V30 110 C 8.3256 -2.25248 -4.25226 0
M  V30 111 C 10.6776 -2.78237 -4.40719 0
M  V30 112 C 8.0056 -3.53723 -4.68078 0
M  V30 113 C 10.3576 -4.06144 -4.85005 0
M  V30 114 C 9.0216 -4.44207 -4.98234 0
M  V30 115 H 8.2916 -0.134217 -0.728743 0
M  V30 116 H 10.9386 -1.01094 -1.62641 0
M  V30 117 H 9.2436 0.246146 -3.91026 0
M  V30 118 H 10.9406 -0.132844 -4.0078 0
M  V30 119 H 7.5306 -1.56639 -3.98951 0
M  V30 120 H 11.7146 -2.50097 -4.28679 0
M  V30 121 H 6.9706 -3.8308 -4.76508 0
M  V30 122 H 11.1446 -4.76796 -5.07581 0
M  V30 123 H 8.7716 -5.43814 -5.31197 0
M  V30 124 N 10.3467 1.47872 -0.545128 0
M  V30 125 C 11.3097 2.28337 0.198717 0
M  V30 126 C 12.3097 1.36255 0.853888 0
M  V30 127 O 13.4997 1.59003 0.711606 0
M  V30 128 C 10.6317 3.15585 1.28915 0
M  V30 129 H 11.8247 2.95567 -0.507941 0
M  V30 130 H 9.3777 1.53362 -0.301616 0
M  V30 131 H 10.1127 2.53019 2.02859 0
M  V30 132 H 9.8977 3.83337 0.824309 0
M  V30 133 H 11.3877 3.76243 1.81194 0
M  V30 134 N 11.8248 0.280983 1.55075 0
M  V30 135 C 13.2408 -0.0729964 1.59433 0
M  V30 136 C 13.4408 -1.5411 1.29817 0
M  V30 137 O 12.4968 -2.29086 1.06187 0
M  V30 138 C 13.8098 0.306921 2.9913 0
M  V30 139 C 15.3578 0.254023 3.11968 0
M  V30 140 C 15.8328 0.608467 4.5394 0
M  V30 141 N 17.3238 0.560241 4.59799 0
M  V30 142 C 18.0588 0.80722 5.6769 0
M  V30 143 N 17.5548 1.11912 6.83701 0
M  V30 144 N 19.3478 0.735623 5.57266 0
M  V30 145 H 11.4988 1.238 1.7259 0
M  V30 146 H 13.7618 0.500547 0.805082 0
M  V30 147 H 13.4678 1.32816 3.25657 0
M  V30 148 H 13.3418 -0.349363 3.75579 0
M  V30 149 H 15.7288 -0.75794 2.852 0
M  V30 150 H 15.8098 0.944649 2.37718 0
M  V30 151 H 15.4538 1.61814 4.81434 0
M  V30 152 H 15.3838 -0.104013 5.26497 0
M  V30 153 H 17.8748 0.329288 3.76463 0
M  V30 154 H 18.1878 1.29409 7.61888 0
M  V30 155 H 16.5328 1.15695 6.85303 0
M  V30 156 H 19.7238 0.491752 4.6551 0
M  V30 157 H 19.8968 0.931482 6.4127 0
M  V30 158 N 13.3029 -1.57598 0.00835791 0
M  V30 159 C 14.2129 -2.12385 -0.996487 0
M  V30 160 C 15.2289 -1.07108 -1.37127 0
M  V30 161 O 16.4049 -1.39055 -1.4569 0
M  V30 162 C 13.4699 -2.62314 -2.26699 0
M  V30 163 C 12.5309 -3.82225 -1.95456 0
M  V30 164 C 11.7639 -4.29763 -3.16449 0
M  V30 165 O 11.9869 -3.76584 -4.28416 0
M  V30 166 O 10.9209 -5.21832 -2.99958 0
M  V30 167 H 14.7469 -2.98479 -0.560725 0
M  V30 168 H 12.3319 -1.47903 -0.210987 0
M  V30 169 H 14.2139 -2.94589 -3.01322 0
M  V30 170 H 12.8889 -1.79313 -2.69497 0
M  V30 171 H 11.7959 -3.54909 -1.18282 0
M  V30 172 H 13.1289 -4.66324 -1.57489 0
M  V30 173 N 14.781 0.264519 -1.55364 0
M  V30 174 C 16.03 0.992812 -1.75574 0
M  V30 175 C 16.343 1.87142 -0.568979 0
M  V30 176 O 17.549 2.63513 -0.653682 0
M  V30 177 C 16.005 1.81519 -3.10771 0
M  V30 178 C 15.613 0.984839 -4.37041 0
M  V30 179 C 17.357 2.53727 -3.40327 0
M  V30 180 C 15.264 1.80209 -5.63275 0
M  V30 181 H 14.194 0.374412 -0.65447 0
M  V30 182 H 16.845 0.248138 -1.81815 0
M  V30 183 H 15.227 2.60115 -2.98591 0
M  V30 184 H 16.401 0.242455 -4.60162 0
M  V30 185 H 14.716 0.37691 -4.14691 0
M  V30 186 H 17.313 3.15292 -4.3185 0
M  V30 187 H 17.656 3.24447 -2.60845 0
M  V30 188 H 18.189 1.82156 -3.53644 0
M  V30 189 H 14.928 1.13896 -6.45529 0
M  V30 190 H 14.448 2.52022 -5.44284 0
M  V30 191 H 16.127 2.37364 -6.01887 0
M  V30 192 N 16.2591 1.48442 0.529413 0
M  V30 193 C 17.1891 1.65902 1.64313 0
M  V30 194 C 18.1701 0.507897 1.6234 0
M  V30 195 O 19.3551 0.740503 1.79528 0
M  V30 196 C 16.4851 1.69911 3.02898 0
M  V30 197 C 15.4391 2.8453 3.19729 0
M  V30 198 C 14.7651 2.73629 4.59381 0
M  V30 199 C 16.0651 4.25821 3.02447 0
M  V30 200 H 17.7591 2.5914 1.49955 0
M  V30 201 H 15.3051 1.24709 0.719982 0
M  V30 202 H 17.2581 1.80715 3.80684 0
M  V30 203 H 15.9821 0.732524 3.18279 0
M  V30 204 H 14.6411 2.73283 2.44361 0
M  V30 205 H 14.2891 1.74938 4.71599 0
M  V30 206 H 13.9891 3.50541 4.71588 0
M  V30 207 H 15.5131 2.86401 5.39265 0
M  V30 208 H 16.9271 4.37898 3.70024 0
M  V30 209 H 15.3241 5.03735 3.26146 0
M  V30 210 H 16.3941 4.42244 1.98867 0
M  V30 211 N 17.7372 -0.778329 1.37039 0
M  V30 212 C 19.0142 -1.52551 1.22424 0
M  V30 213 C 19.3942 -2.10288 -0.184964 0
M  V30 214 O 18.7422 -1.94953 -1.19187 0
M  V30 215 C 18.9522 -2.61164 2.31504 0
M  V30 216 C 20.3002 -3.28746 2.68721 0
M  V30 217 O 21.3242 -2.71455 2.30631 0
M  V30 218 O 20.1832 -4.3231 3.3432 0
M  V30 219 H 17.2772 -0.675343 0.477326 0
M  V30 220 H 19.8232 -0.815859 1.48801 0
M  V30 221 H 18.5952 -2.16574 3.25901 0
M  V30 222 H 18.2182 -3.39737 2.06554 0
M  V30 223 N 19.2153 -1.21501 -1.00376 0
M  V30 224 C 20.4403 -1.05977 -1.78279 0
M  V30 225 C 20.8653 0.385994 -1.84097 0
M  V30 226 O 20.2233 1.27849 -1.28547 0
M  V30 227 C 20.2713 -1.66302 -3.19963 0
M  V30 228 O 19.3753 -0.909333 -4.0225 0
M  V30 229 H 18.7163 -0.372906 -0.549397 0
M  V30 230 H 21.2463 -1.6107 -1.26165 0
M  V30 231 H 21.2563 -1.70574 -3.70632 0
M  V30 232 H 19.9313 -2.71515 -3.15043 0
M  V30 233 H 18.5083 -0.941795 -3.60811 0
M  V30 234 N 20.6934 1.19889 -1.02296 0
M  V30 235 C 22.1094 1.41462 -0.738954 0
M  V30 236 C 22.3094 1.89721 0.678846 0
M  V30 237 O 21.3654 2.07016 1.4457 0
M  V30 238 C 22.6784 2.43083 -1.77005 0
M  V30 239 C 24.2264 2.5684 -1.78892 0
M  V30 240 C 24.7014 3.61709 -2.80945 0
M  V30 241 N 26.1924 3.69199 -2.79725 0
M  V30 242 C 26.9274 4.50019 -3.55345 0
M  V30 243 N 26.4234 5.34592 -4.40662 0
M  V30 244 N 28.2164 4.44612 -3.43914 0
M  V30 245 H 20.3674 0.868827 -1.93817 0
M  V30 246 H 22.6304 0.44399 -0.837602 0
M  V30 247 H 22.3364 2.14636 -2.78612 0
M  V30 248 H 22.2104 3.4217 -1.58744 0
M  V30 249 H 24.5974 2.84614 -0.779674 0
M  V30 250 H 24.6784 1.57927 -2.01228 0
M  V30 251 H 24.3224 3.34678 -3.82038 0
M  V30 252 H 24.2524 4.60259 -2.5587 0
M  V30 253 H 26.7434 3.08794 -2.17842 0
M  V30 254 H 27.0564 5.93363 -4.95116 0
M  V30 255 H 25.4014 5.34073 -4.44737 0
M  V30 256 H 28.5924 3.7758 -2.76679 0
M  V30 257 H 28.7654 5.0736 -4.031 0
M  V30 258 N 22.1715 0.800033 1.35784 0
M  V30 259 C 23.4195 0.376597 1.9856 0
M  V30 260 C 23.7405 -1.05812 1.63795 0
M  V30 261 O 23.0105 -1.73103 0.917171 0
M  V30 262 H 21.5905 0.136261 0.734467 0
M  V30 263 H 24.2525 1.02442 1.65806 0
M  V30 264 H 23.3485 0.477002 3.08433 0
M  V30 265 N 23.6496 -1.47581 0.552962 0
M  V30 266 C 24.5976 -2.31648 -0.21023 0
M  V30 267 C 25.5916 -1.42663 -0.913432 0
M  V30 268 O 26.7976 -1.5945 -0.835201 0
M  V30 269 H 23.1726 -0.746989 -0.0866676 0
M  V30 270 H 25.1436 -2.93869 0.518051 0
M  V30 271 C 23.8926 -3.25226 -1.22976 0
M  V30 272 H 23.2156 -3.93658 -0.698077 0
M  V30 273 H 24.6556 -3.86889 -1.73473 0
M  V30 274 C 23.1146 -2.48448 -2.27542 0
M  V30 275 O 23.6446 -2.22585 -3.34393 0
M  V30 276 N 21.8506 -2.09532 -2.01357 0
M  V30 277 H 21.3976 -2.30765 -1.14478 0
M  V30 278 H 21.3556 -1.58476 -2.71538 0
M  V30 279 N 25.1277 -0.289203 -1.54924 0
M  V30 280 C 26.5387 0.205791 -1.85562 0
M  V30 281 C 26.8897 1.54351 -1.2112 0
M  V30 282 O 26.0147 2.10435 -0.504601 0
M  V30 283 C 26.6097 0.380177 -3.3666 0
M  V30 284 C 25.1687 0.819395 -3.67373 0
M  V30 285 C 24.3157 -0.079159 -2.77187 0
M  V30 286 H 27.2667 -0.510577 -1.50262 0
M  V30 287 H 27.2877 1.21659 -3.60526 0
M  V30 288 H 26.7997 -0.593589 -3.83534 0
M  V30 289 H 24.9007 1.80413 -3.26009 0
M  V30 290 H 25.0137 0.646957 -4.74712 0
M  V30 291 H 23.3777 0.439565 -2.50878 0
M  V30 292 H 24.1607 -1.04906 -3.26878 0
M  V30 293 N 26.6058 1.57591 -0.0167156 0
M  V30 294 C 27.8338 1.95575 0.675128 0
M  V30 295 C 28.2488 0.892542 1.6637 0
M  V30 296 O 27.6058 -0.126912 1.82058 0
M  V30 297 C 27.6568 3.33608 1.39239 0
M  V30 298 O 27.3778 4.3585 0.443444 0
M  V30 299 C 28.8788 3.86151 2.17721 0
M  V30 300 H 26.0988 0.644423 0.186978 0
M  V30 301 H 28.6428 2.0437 -0.0728 0
M  V30 302 H 26.7978 3.2607 2.09182 0
M  V30 303 H 27.2118 5.158 0.951358 0
M  V30 304 H 28.6858 4.85114 2.63379 0
M  V30 305 H 29.1628 3.19738 3.01105 0
M  V30 306 H 29.7688 3.96918 1.52761 0
M  V30 307 N 28.0839 -0.256276 1.55502 0
M  V30 308 C 29.3299 -0.987079 1.77157 0
M  V30 309 C 29.6629 -1.85327 0.580315 0
M  V30 310 O 28.9379 -1.89874 -0.421686 0
M  V30 311 C 29.2209 -1.85553 3.08613 0
M  V30 312 C 29.0739 -1.01816 4.38125 0
M  V30 313 C 30.3929 -2.8397 3.36228 0
M  V30 314 H 27.5119 -0.357428 0.644526 0
M  V30 315 H 30.1539 -0.258239 1.88237 0
M  V30 316 H 28.3039 -2.47695 2.99298 0
M  V30 317 H 29.9759 -0.416159 4.59419 0
M  V30 318 H 28.2189 -0.322178 4.32602 0
M  V30 319 H 28.8899 -1.65939 5.26468 0
M  V30 320 H 31.3659 -2.31964 3.45445 0
M  V30 321 H 30.2419 -3.41864 4.29442 0
M  V30 322 H 30.5029 -3.59955 2.56681 0
M  V30 323 N 29.562 -1.4872 -0.521534 0
M  V30 324 C 30.472 -1.66569 -1.65203 0
M  V30 325 C 31.488 -0.548197 -1.65139 0
M  V30 326 O 32.664 -0.820339 -1.83936 0
M  V30 327 C 29.729 -1.70917 -3.01642 0
M  V30 328 C 28.79 -2.94356 -3.12495 0
M  V30 329 C 28.023 -2.98487 -4.42426 0
M  V30 330 O 28.246 -2.10786 -5.30024 0
M  V30 331 O 27.18 -3.90746 -4.57822 0
M  V30 332 H 31.006 -2.62298 -1.5308 0
M  V30 333 H 28.591 -1.3222 -0.695565 0
M  V30 334 H 30.473 -1.7625 -3.82771 0
M  V30 335 H 29.148 -0.783633 -3.14071 0
M  V30 336 H 28.055 -2.94552 -2.3063 0
M  V30 337 H 29.388 -3.86322 -3.04986 0
M  V30 338 N 31.0401 0.771051 -1.3745 0
M  V30 339 C 32.2861 1.5319 -1.32894 0
M  V30 340 C 32.6191 1.94008 0.0862511 0
M  V30 341 O 31.8941 1.64124 1.04373 0
M  V30 342 C 32.1771 2.79648 -2.26868 0
M  V30 343 C 32.0301 2.45079 -3.77169 0
M  V30 344 C 33.3491 3.81583 -2.19277 0
M  V30 345 H 30.4681 0.555744 -0.484064 0
M  V30 346 H 33.1101 0.884492 -1.68157 0
M  V30 347 H 31.2601 3.34891 -1.96926 0
M  V30 348 H 32.9321 1.95745 -4.1771 0
M  V30 349 H 31.1751 1.77767 -3.95704 0
M  V30 350 H 31.8461 3.35478 -4.38359 0
M  V30 351 H 34.3221 3.35835 -2.45671 0
M  V30 352 H 33.1981 4.67787 -2.87171 0
M  V30 353 H 33.4591 4.25897 -1.18592 0
M  V30 354 N 32.5182 1.22032 0.997298 0
M  V30 355 C 33.7952 0.950823 1.70935 0
M  V30 356 C 34.1752 -0.535292 2.042 0
M  V30 357 O 33.5232 -1.50217 1.72183 0
M  V30 358 C 33.7332 1.84386 2.96315 0
M  V30 359 C 35.0812 2.09732 3.69185 0
M  V30 360 O 36.1052 1.81798 3.06314 0
M  V30 361 O 34.9642 2.57018 4.82291 0
M  V30 362 H 32.0582 0.357204 0.745878 0
M  V30 363 H 34.6042 1.32997 1.05404 0
M  V30 364 H 33.3762 2.84928 2.68201 0
M  V30 365 H 32.9992 1.46602 3.69586 0
M  V30 366 N 33.9963 -1.19345 1.0293 0
M  V30 367 C 34.9263 -2.2481 0.631105 0
M  V30 368 C 35.9073 -1.66245 -0.360104 0
M  V30 369 O 37.0923 -1.92677 -0.242726 0
M  V30 370 C 34.2223 -3.47295 -0.0184607 0
M  V30 371 C 33.1763 -4.18536 0.895073 0
M  V30 372 C 32.5023 -5.34586 0.110592 0
M  V30 373 C 33.8023 -4.73287 2.209 0
M  V30 374 H 35.4963 -2.58372 1.51275 0
M  V30 375 H 33.0423 -1.24194 0.728818 0
M  V30 376 H 34.9953 -4.20268 -0.308675 0
M  V30 377 H 33.7193 -3.12933 -0.934907 0
M  V30 378 H 32.3783 -3.47446 1.16949 0
M  V30 379 H 32.0263 -4.96469 -0.807902 0
M  V30 380 H 31.7263 -5.83183 0.719087 0
M  V30 381 H 33.2503 -6.10355 -0.172871 0
M  V30 382 H 34.6643 -5.38013 1.98028 0
M  V30 383 H 33.0613 -5.32373 2.76946 0
M  V30 384 H 34.1313 -3.91331 2.86336 0
M  V30 385 N 35.4744 -0.807222 -1.35358 0
M  V30 386 C 36.4244 -0.190706 -2.27201 0
M  V30 387 C 37.4084 0.635838 -1.47804 0
M  V30 388 O 38.6004 0.492991 -1.69996 0
M  V30 389 C 35.7294 0.659337 -3.36909 0
M  V30 390 C 34.8154 -0.176971 -4.23731 0
M  V30 391 N 35.2064 -1.24029 -4.90357 0
M  V30 392 C 33.5044 0.0412953 -4.45981 0
M  V30 393 C 34.2054 -1.75092 -5.54723 0
M  V30 394 N 33.1814 -1.05727 -5.33219 0
M  V30 395 H 36.9834 -1.0043 -2.76208 0
M  V30 396 H 34.4974 -0.648445 -1.48892 0
M  V30 397 H 36.4944 1.11706 -4.01656 0
M  V30 398 H 35.1544 1.47127 -2.89454 0
M  V30 399 H 36.1654 -1.62295 -4.91814 0
M  V30 400 H 32.8424 0.82232 -4.09322 0
M  V30 401 H 34.2324 -2.63963 -6.17878 0
M  V30 402 N 36.9525 1.47285 -0.560781 0
M  V30 403 C 38.1805 2.06855 -0.0430262 0
M  V30 404 C 38.5955 1.41291 1.25229 0
M  V30 405 O 37.9525 0.510648 1.7521 0
M  V30 406 C 38.0035 3.61178 0.152518 0
M  V30 407 O 37.7245 4.24285 -1.0915 0
M  V30 408 C 39.2255 4.37624 0.707145 0
M  V30 409 H 36.4455 0.669319 -0.0474652 0
M  V30 410 H 38.9895 1.89237 -0.77521 0
M  V30 411 H 37.1445 3.78298 0.834843 0
M  V30 412 H 37.5585 5.16868 -0.891482 0
M  V30 413 H 39.0325 5.46271 0.793244 0
M  V30 414 H 39.5095 4.04152 1.71923 0
M  V30 415 H 40.1155 4.25257 0.0604027 0
M  V30 416 N 38.4306 0.297415 1.54768 0
M  V30 417 C 39.3936 -0.567375 2.22066 0
M  V30 418 C 40.3936 -1.06409 1.20556 0
M  V30 419 O 41.5836 -0.960691 1.45315 0
M  V30 420 C 38.7156 -1.78517 2.90421 0
M  V30 421 H 39.9086 0.0205534 2.99893 0
M  V30 422 H 37.4616 0.0482163 1.56226 0
M  V30 423 H 38.1966 -2.41303 2.16664 0
M  V30 424 H 37.9816 -1.43669 3.64831 0
M  V30 425 H 39.4716 -2.39964 3.41771 0
M  V30 426 N 39.9087 -1.5758 0.0250728 0
M  V30 427 C 40.8557 -2.09973 -0.958129 0
M  V30 428 C 41.8257 -1.00085 -1.3256 0
M  V30 429 O 43.0107 -1.27481 -1.41962 0
M  V30 430 C 40.1507 -2.62812 -2.2366 0
M  V30 431 C 39.2637 -3.86693 -1.92594 0
M  V30 432 C 38.3987 -4.27941 -3.14707 0
M  V30 433 C 37.4377 -5.44591 -2.79442 0
M  V30 434 N 36.5747 -5.81014 -3.94167 0
M  V30 435 H 41.4147 -2.937 -0.504428 0
M  V30 436 H 38.9517 -1.45172 -0.237392 0
M  V30 437 H 40.9097 -2.91536 -2.98434 0
M  V30 438 H 39.5397 -1.81922 -2.66654 0
M  V30 439 H 38.5917 -3.64723 -1.0808 0
M  V30 440 H 39.9037 -4.71547 -1.62619 0
M  V30 441 H 39.0577 -4.58079 -3.97804 0
M  V30 442 H 37.7967 -3.41845 -3.4784 0
M  V30 443 H 36.8017 -5.1415 -1.94755 0
M  V30 444 H 38.0267 -6.32382 -2.47528 0
M  V30 445 H 35.9727 -4.97874 -4.2715 0
M  V30 446 H 35.8897 -6.60498 -3.67801 0
M  V30 447 H 37.1577 -6.15756 -4.7798 0
M  V30 448 N 41.3868 0.248026 -1.55636 0
M  V30 449 C 42.6348 0.974295 -1.77065 0
M  V30 450 C 42.9558 1.85897 -0.588849 0
M  V30 451 O 42.2258 1.91868 0.395407 0
M  V30 452 H 40.8058 0.362733 -0.653019 0
M  V30 453 H 43.4678 0.266244 -1.93073 0
M  V30 454 H 42.5638 1.59667 -2.68166 0
M  V30 455 N 42.8649 1.48995 0.513639 0
M  V30 456 C 44.2809 1.35478 0.843682 0
M  V30 457 C 44.4809 0.378213 1.97919 0
M  V30 458 O 43.5369 -0.194689 2.51748 0
M  V30 459 C 44.8499 2.75901 1.1958 0
M  V30 460 C 46.3979 2.84509 1.30474 0
M  V30 461 C 46.8729 4.25671 1.69021 0
M  V30 462 N 48.3639 4.28422 1.76094 0
M  V30 463 C 49.0989 5.34601 2.07338 0
M  V30 464 N 48.5949 6.5104 2.36894 0
M  V30 465 N 50.3879 5.22007 2.08483 0
M  V30 466 H 42.5389 2.11092 -0.235328 0
M  V30 467 H 44.8019 0.947039 -0.0426669 0
M  V30 468 H 44.5079 3.49001 0.434913 0
M  V30 469 H 44.3819 3.10467 2.1422 0
M  V30 470 H 46.7689 2.11655 2.05637 0
M  V30 471 H 46.8499 2.53542 0.339155 0
M  V30 472 H 46.4939 4.99048 0.944135 0
M  V30 473 H 46.4239 4.54094 2.66658 0
M  V30 474 H 48.9149 3.44441 1.55464 0
M  V30 475 H 49.2279 7.2779 2.59887 0
M  V30 476 H 47.5729 6.54287 2.34378 0
M  V30 477 H 50.7639 4.30051 1.84861 0
M  V30 478 H 50.9369 6.04854 2.325 0
M  V30 479 N 44.343 -0.763751 1.37857 0
M  V30 480 C 45.59 -1.52257 1.33506 0
M  V30 481 C 45.918 -1.94343 -0.078022 0
M  V30 482 O 45.173 -1.64958 -1.05297 0
M  V30 483 C 45.472 -2.79499 2.22745 0
M  V30 484 C 45.138 -2.56426 3.70886 0
M  V30 485 C 43.8 -2.49842 4.11257 0
M  V30 486 C 46.152 -2.36008 4.64704 0
M  V30 487 C 43.48 -2.20841 5.43549 0
M  V30 488 C 45.832 -2.0853 5.97242 0
M  V30 489 C 44.496 -2.00396 6.36709 0
M  V30 490 H 43.766 -0.557149 0.488534 0
M  V30 491 H 46.413 -0.879073 1.70131 0
M  V30 492 H 44.718 -3.48447 1.79142 0
M  V30 493 H 46.415 -3.37413 2.16688 0
M  V30 494 H 43.005 -2.62416 3.38874 0
M  V30 495 H 47.189 -2.40079 4.34368 0
M  V30 496 H 42.445 -2.13045 5.73081 0
M  V30 497 H 46.619 -1.91732 6.69486 0
M  V30 498 H 44.246 -1.77688 7.39142 0
M  V30 499 N 45.8211 -1.22559 -0.990812 0
M  V30 500 C 47.2371 -0.985996 -1.255 0
M  V30 501 C 47.4371 0.319173 -1.98956 0
M  V30 502 O 46.4931 1.04127 -2.3003 0
M  V30 503 C 47.8061 -2.18607 -2.06474 0
M  V30 504 C 49.3541 -2.22985 -2.19651 0
M  V30 505 C 49.8291 -3.4255 -3.04012 0
M  V30 506 N 51.3201 -3.42725 -3.11599 0
M  V30 507 C 52.0551 -4.31892 -3.7717 0
M  V30 508 N 51.5511 -5.31279 -4.44651 0
M  V30 509 N 53.3441 -4.19662 -3.73952 0
M  V30 510 H 45.4951 -2.06469 -0.49841 0
M  V30 511 H 47.7581 -0.904853 -0.282747 0
M  V30 512 H 47.4641 -3.13267 -1.59865 0
M  V30 513 H 47.3381 -2.18838 -3.07229 0
M  V30 514 H 49.7251 -1.28871 -2.65474 0
M  V30 515 H 49.8061 -2.26791 -1.18319 0
M  V30 516 H 49.4501 -4.36965 -2.58889 0
M  V30 517 H 49.3801 -3.35984 -4.0549 0
M  V30 518 H 51.8711 -2.70807 -2.63575 0
M  V30 519 H 52.1841 -5.95593 -4.92431 0
M  V30 520 H 50.5291 -5.3519 -4.43392 0
M  V30 521 H 53.7201 -3.41268 -3.20396 0
M  V30 522 H 53.8931 -4.89358 -4.24774 0
M  V30 523 N 47.2992 1.18797 -1.03562 0
M  V30 524 C 48.2622 2.20464 -0.626769 0
M  V30 525 C 49.2622 1.57721 0.313173 0
M  V30 526 O 50.4522 1.73917 0.0992615 0
M  V30 527 C 47.5842 3.40802 0.0818498 0
M  V30 528 H 48.7772 2.58149 -1.5264 0
M  V30 529 H 46.3302 1.32593 -0.827578 0
M  V30 530 H 47.0652 3.08642 0.995518 0
M  V30 531 H 46.8502 3.8758 -0.593652 0
M  V30 532 H 48.3402 4.16092 0.354584 0
M  V30 533 N 48.7773 0.814389 1.34928 0
M  V30 534 C 49.7403 0.235759 2.27984 0
M  V30 535 C 50.7403 -0.581412 1.49921 0
M  V30 536 O 51.9303 -0.398758 1.69575 0
M  V30 537 C 49.0623 -0.670433 3.34242 0
M  V30 538 H 50.2553 1.05659 2.80671 0
M  V30 539 H 47.8083 0.585614 1.44915 0
M  V30 540 H 48.5433 -1.51466 2.86755 0
M  V30 541 H 48.3283 -0.0860822 3.92005 0
M  V30 542 H 49.8183 -1.06935 4.03676 0
M  V30 543 N 50.2554 -1.46986 0.568584 0
M  V30 544 C 51.5014 -2.02741 0.0488709 0
M  V30 545 C 51.8344 -1.44077 -1.30214 0
M  V30 546 O 51.1094 -0.600552 -1.84996 0
M  V30 547 C 51.3924 -3.60086 -0.032047 0
M  V30 548 C 51.2454 -4.29162 1.34686 0
M  V30 549 C 52.5644 -4.33838 -0.739798 0
M  V30 550 H 49.6834 -0.736749 0.0192338 0
M  V30 551 H 52.3254 -1.75289 0.733065 0
M  V30 552 H 50.4754 -3.83606 -0.61473 0
M  V30 553 H 52.1474 -4.16948 1.97362 0
M  V30 554 H 50.3904 -3.89073 1.91846 0
M  V30 555 H 51.0614 -5.37826 1.24285 0
M  V30 556 H 53.5374 -4.15378 -0.244939 0
M  V30 557 H 52.4134 -5.43537 -0.765406 0
M  V30 558 H 52.6744 -4.03875 -1.79827 0
M  V30 559 N 51.7335 -0.305618 -1.54608 0
M  V30 560 C 53.1445 0.186098 -1.8577 0
M  V30 561 C 53.4955 1.53058 -1.22751 0
M  V30 562 O 52.6205 2.09888 -0.526893 0
M  V30 563 C 53.2155 0.344449 -3.37044 0
M  V30 564 C 51.7745 0.780384 -3.68221 0
M  V30 565 C 50.9215 -0.108554 -2.77087 0
M  V30 566 H 53.8725 -0.526485 -1.49712 0
M  V30 567 H 53.8935 1.17828 -3.61796 0
M  V30 568 H 53.4055 -0.634235 -3.82883 0
M  V30 569 H 51.5065 1.76945 -3.27904 0
M  V30 570 H 51.6195 0.596572 -4.75371 0
M  V30 571 H 49.9835 0.412931 -2.5133 0
M  V30 572 H 50.7665 -1.08368 -3.25747 0
M  V30 573 N 53.2116 1.57565 -0.0334293 0
M  V30 574 C 54.4366 1.96689 0.657895 0
M  V30 575 C 54.8616 0.910057 1.64619 0
M  V30 576 O 54.2196 -0.128598 1.80843 0
M  V30 577 C 54.2676 3.34905 1.33683 0
M  V30 578 O 53.3716 3.31574 2.45219 0
M  V30 579 H 52.7126 0.641205 0.172489 0
M  V30 580 H 55.2426 2.04372 -0.0965621 0
M  V30 581 H 55.2526 3.71234 1.69262 0
M  V30 582 H 53.9276 4.11366 0.612411 0
M  V30 583 H 52.5046 3.06968 2.11719 0
M  V30 584 N 54.6897 -0.239769 1.55765 0
M  V30 585 C 55.9377 -0.964892 1.77579 0
M  V30 586 C 56.2587 -1.85582 0.598699 0
M  V30 587 O 55.5287 -1.92075 -0.385226 0
M  V30 588 H 54.1087 -0.359265 0.654933 0
M  V30 589 H 56.7707 -0.256001 1.93211 0
M  V30 590 H 55.8667 -1.58243 2.69009 0
M  V30 591 N 56.1678 -1.49265 -0.50573 0
M  V30 592 C 57.1308 -1.65075 -1.59006 0
M  V30 593 C 58.1308 -0.522768 -1.52065 0
M  V30 594 O 59.3208 -0.789117 -1.55302 0
M  V30 595 C 56.4528 -1.64369 -2.98656 0
M  V30 596 H 57.6458 -2.61784 -1.46319 0
M  V30 597 H 55.1988 -1.38226 -0.729616 0
M  V30 598 H 55.9338 -0.692272 -3.16825 0
M  V30 599 H 55.7188 -2.46282 -3.05103 0
M  V30 600 H 57.2088 -1.78674 -3.77446 0
M  V30 601 N 57.6459 0.756429 -1.3826 0
M  V30 602 C 58.8709 1.55077 -1.37717 0
M  V30 603 C 59.2959 1.88073 0.03164 0
M  V30 604 O 58.6539 1.50364 1.01293 0
M  V30 605 C 58.7019 2.8283 -2.23695 0
M  V30 606 O 57.8059 3.77862 -1.6521 0
M  V30 607 H 57.1469 0.469152 -0.469885 0
M  V30 608 H 59.6769 0.935019 -1.81985 0
M  V30 609 H 59.6869 3.31783 -2.37453 0
M  V30 610 H 58.3619 2.58144 -3.2609 0
M  V30 611 H 56.9389 3.36555 -1.60578 0
M  V30 612 N 59.124 1.23083 0.984299 0
M  V30 613 C 60.352 1.08714 1.76037 0
M  V30 614 C 60.767 -0.361691 1.85303 0
M  V30 615 O 60.124 -1.25034 1.32939 0
M  V30 616 C 60.175 1.70206 3.18923 0
M  V30 617 O 59.896 3.09423 3.10144 0
M  V30 618 C 61.397 1.61227 4.12941 0
M  V30 619 H 58.617 0.380664 0.552572 0
M  V30 620 H 61.161 1.62853 1.23689 0
M  V30 621 H 59.316 1.20109 3.6831 0
M  V30 622 H 59.73 3.39188 4.00065 0
M  V30 623 H 61.204 2.08962 5.10919 0
M  V30 624 H 61.681 0.570375 4.35481 0
M  V30 625 H 62.287 2.10671 3.69456 0
M  V30 626 N 60.6021 -1.18246 1.0419 0
M  V30 627 C 61.8501 -1.87886 0.744543 0
M  V30 628 C 62.1711 -1.8082 -0.730006 0
M  V30 629 O 61.4411 -1.22736 -1.52685 0
M  V30 630 H 60.0211 -0.695556 0.272417 0
M  V30 631 H 62.6831 -1.43494 1.31892 0
M  V30 632 H 61.7791 -2.9389 1.05049 0
M  V30 633 N 62.0802 -0.821533 -1.34494 0
M  V30 634 C 63.3292 -0.405355 -1.97585 0
M  V30 635 C 63.6422 1.03677 -1.65863 0
M  V30 636 O 64.8482 1.55679 -2.22433 0
M  V30 637 C 63.3042 -0.673861 -3.53535 0
M  V30 638 C 62.9122 -2.12951 -3.94152 0
M  V30 639 C 64.6562 -0.32378 -4.23263 0
M  V30 640 C 62.5632 -2.34298 -5.43009 0
M  V30 641 H 61.4932 -0.147836 -0.739365 0
M  V30 642 H 64.1442 -1.00769 -1.53355 0
M  V30 643 H 62.5262 -0.00137554 -3.96 0
M  V30 644 H 63.7002 -2.84104 -3.62797 0
M  V30 645 H 62.0152 -2.44089 -3.37356 0
M  V30 646 H 64.6122 -0.461126 -5.32708 0
M  V30 647 H 64.9552 0.731586 -4.09821 0
M  V30 648 H 65.4882 -0.950786 -3.8627 0
M  V30 649 H 62.2272 -3.38335 -5.61435 0
M  V30 650 H 61.7472 -1.67687 -5.75883 0
M  V30 651 H 63.4262 -2.16588 -6.09671 0
M  V30 652 N 63.5583 1.46682 -0.576371 0
M  V30 653 C 64.7883 2.06498 -0.0648694 0
M  V30 654 C 65.1963 1.42665 1.24271 0
M  V30 655 O 64.5393 0.523886 1.76071 0
M  V30 656 C 64.6013 3.5904 0.181816 0
M  V30 657 C 64.2653 4.45028 -1.0392 0
M  V30 658 C 65.2623 4.81959 -1.94966 0
M  V30 659 C 62.9473 4.86259 -1.25927 0
M  V30 660 C 64.9413 5.58942 -3.06371 0
M  V30 661 C 62.6283 5.63002 -2.37638 0
M  V30 662 C 63.6263 5.99257 -3.2769 0
M  V30 663 O 63.3143 6.7445 -4.37461 0
M  V30 664 H 63.0463 0.674028 -0.0515987 0
M  V30 665 H 65.6003 1.89393 -0.794951 0
M  V30 666 H 63.8303 3.74429 0.966436 0
M  V30 667 H 65.5193 4.00806 0.641047 0
M  V30 668 H 66.2853 4.50689 -1.79177 0
M  V30 669 H 62.1643 4.57494 -0.567448 0
M  V30 670 H 65.7083 5.87158 -3.76684 0
M  V30 671 H 61.6053 5.93686 -2.53392 0
M  V30 672 H 62.3733 6.92867 -4.35749 0
M  V30 673 N 65.0364 0.313813 1.54444 0
M  V30 674 C 65.9464 -0.565714 2.27677 0
M  V30 675 C 66.9624 -1.13754 1.31666 0
M  V30 676 O 68.1384 -1.15959 1.64668 0
M  V30 677 C 65.2034 -1.71528 3.01296 0
M  V30 678 C 64.2644 -1.17624 4.12872 0
M  V30 679 C 63.4974 -2.27102 4.8297 0
M  V30 680 O 63.7204 -3.47256 4.52514 0
M  V30 681 O 62.6544 -1.9307 5.70094 0
M  V30 682 H 66.4804 0.0287296 3.03686 0
M  V30 683 H 64.0654 0.0798312 1.49187 0
M  V30 684 H 65.9474 -2.38476 3.4743 0
M  V30 685 H 64.6224 -2.29608 2.2817 0
M  V30 686 H 63.5294 -0.472124 3.71109 0
M  V30 687 H 64.8624 -0.640695 4.88012 0
M  V30 688 N 66.5145 -1.57545 0.0417849 0
M  V30 689 C 67.4775 -2.09885 -0.92093 0
M  V30 690 C 68.4775 -1.01648 -1.24596 0
M  V30 691 O 69.6675 -1.27759 -1.1842 0
M  V30 692 C 66.7995 -2.57527 -2.23367 0
M  V30 693 H 67.9925 -2.96236 -0.467382 0
M  V30 694 H 65.5455 -1.5493 -0.206467 0
M  V30 695 H 66.2805 -1.74542 -2.73323 0
M  V30 696 H 66.0655 -3.36613 -2.01083 0
M  V30 697 H 67.5555 -2.98201 -2.92346 0
M  V30 698 N 67.9926 0.231505 -1.5589 0
M  V30 699 C 68.9226 1.29022 -1.94617 0
M  V30 700 C 69.9036 1.4941 -0.813067 0
M  V30 701 O 71.0886 1.6176 -1.07459 0
M  V30 702 C 68.2186 2.64199 -2.25424 0
M  V30 703 C 67.1726 2.58484 -3.41131 0
M  V30 704 C 66.4986 3.97599 -3.57518 0
M  V30 705 C 67.7986 2.1413 -4.76388 0
M  V30 706 H 69.4926 0.968563 -2.83301 0
M  V30 707 H 67.0386 0.464479 -1.36303 0
M  V30 708 H 68.9916 3.38413 -2.51107 0
M  V30 709 H 67.7156 2.98032 -1.33583 0
M  V30 710 H 66.3746 1.86727 -3.15481 0
M  V30 711 H 66.0226 4.28723 -2.6307 0
M  V30 712 H 65.7226 3.94659 -4.35337 0
M  V30 713 H 67.2466 4.7349 -3.85538 0
M  V30 714 H 68.6606 2.78083 -5.01341 0
M  V30 715 H 67.0576 2.2227 -5.57419 0
M  V30 716 H 68.1276 1.09331 -4.72414 0
M  V30 717 N 69.4707 1.49531 0.497807 0
M  V30 718 C 70.3807 1.69176 1.62532 0
M  V30 719 C 71.3967 0.5744 1.64246 0
M  V30 720 O 72.5727 0.849497 1.82608 0
M  V30 721 C 69.6377 1.75695 2.98885 0
M  V30 722 C 68.6987 2.9929 3.07773 0
M  V30 723 C 67.9317 3.05488 4.37622 0
M  V30 724 O 68.1547 2.19192 5.26603 0
M  V30 725 O 67.0887 3.9798 4.51548 0
M  V30 726 H 70.9147 2.647 1.48887 0
M  V30 727 H 68.4997 1.3331 0.674441 0
M  V30 728 H 70.3817 1.82317 3.79919 0
M  V30 729 H 69.0567 0.8335 3.12785 0
M  V30 730 H 67.9637 2.98183 2.25915 0
M  V30 731 H 69.2967 3.91125 2.98801 0
M  V30 732 N 70.9488 -0.749086 1.3866 0
M  V30 733 C 71.8788 -1.8764 1.38973 0
M  V30 734 C 72.8598 -1.68178 0.255004 0
M  V30 735 O 74.0448 -1.88704 0.458754 0
M  V30 736 C 71.1748 -3.25222 1.21851 0
M  V30 737 C 70.1288 -3.59295 2.32575 0
M  V30 738 C 69.4548 -4.95663 2.00555 0
M  V30 739 C 70.7548 -3.63709 3.7485 0
M  V30 740 H 72.4488 -1.87635 2.3331 0
M  V30 741 H 69.9948 -0.901329 1.12303 0
M  V30 742 H 71.9478 -4.03746 1.20695 0
M  V30 743 H 70.6718 -3.25719 0.239775 0
M  V30 744 H 69.3308 -2.83093 2.32925 0
M  V30 745 H 68.9788 -4.92724 1.01154 0
M  V30 746 H 68.6788 -5.19429 2.74714 0
M  V30 747 H 70.2028 -5.7656 2.01024 0
M  V30 748 H 71.6168 -4.32338 3.76506 0
M  V30 749 H 70.0138 -3.98986 4.48252 0
M  V30 750 H 71.0838 -2.63834 4.06841 0
M  V30 751 N 72.4269 -1.23603 -0.977757 0
M  V30 752 C 73.8429 -0.999251 -1.24447 0
M  V30 753 C 74.0429 0.298053 -1.99283 0
M  V30 754 O 73.0989 1.01681 -2.31122 0
M  V30 755 C 74.4119 -2.20784 -2.04144 0
M  V30 756 C 75.9599 -2.25303 -2.17273 0
M  V30 757 C 76.4349 -3.45755 -3.00362 0
M  V30 758 N 77.9259 -3.4601 -3.07947 0
M  V30 759 C 78.6609 -4.35868 -3.72568 0
M  V30 760 N 78.1569 -5.35966 -4.38991 0
M  V30 761 N 79.9499 -4.23605 -3.6948 0
M  V30 762 H 72.1009 -2.06986 -0.476483 0
M  V30 763 H 74.3639 -0.907801 -0.273134 0
M  V30 764 H 74.0699 -3.14945 -1.56533 0
M  V30 765 H 73.9439 -2.22085 -3.04891 0
M  V30 766 H 76.3309 -1.3168 -2.64092 0
M  V30 767 H 76.4119 -2.28033 -1.15907 0
M  V30 768 H 76.0559 -4.39687 -2.5424 0
M  V30 769 H 75.9859 -3.40266 -4.01904 0
M  V30 770 H 78.4769 -2.73588 -2.60688 0
M  V30 771 H 78.7899 -6.00783 -4.86086 0
M  V30 772 H 77.1349 -5.39863 -4.37691 0
M  V30 773 H 80.3259 -3.44647 -3.16759 0
M  V30 774 H 80.4989 -4.93836 -4.1956 0
M  V30 775 N 73.905 1.17692 -1.04816 0
M  V30 776 C 75.182 1.83768 -0.669963 0
M  V30 777 C 75.562 1.93232 0.849986 0
M  V30 778 O 74.91 1.46397 1.75443 0
M  V30 779 C 75.12 3.21641 -1.35455 0
M  V30 780 C 76.468 3.97592 -1.49017 0
M  V30 781 O 77.492 3.31107 -1.31326 0
M  V30 782 O 76.351 5.16729 -1.77914 0
M  V30 783 H 73.445 0.792799 -0.235368 0
M  V30 784 H 75.991 1.25021 -1.14751 0
M  V30 785 H 74.763 3.097 -2.39168 0
M  V30 786 H 74.386 3.88052 -0.866107 0
M  V30 787 N 75.3831 0.828654 1.34056 0
M  V30 788 C 76.6311 0.41863 1.97717 0
M  V30 789 C 76.9521 -1.02314 1.66002 0
M  V30 790 O 76.2221 -1.71119 0.953683 0
M  V30 791 H 74.8021 0.151809 0.731412 0
M  V30 792 H 77.4641 1.05936 1.63596 0
M  V30 793 H 76.5601 0.542318 3.07352 0
M  V30 794 N 76.8612 -1.46375 0.584142 0
M  V30 795 C 78.1382 -1.956 0.0033388 0
M  V30 796 C 78.5182 -1.52679 -1.45782 0
M  V30 797 O 77.8662 -0.77816 -2.14842 0
M  V30 798 C 78.0762 -3.48551 0.176891 0
M  V30 799 C 79.4242 -4.24576 0.0454609 0
M  V30 800 O 80.4482 -3.56043 0.105801 0
M  V30 801 O 79.3072 -5.46427 -0.0890376 0
M  V30 802 H 76.4012 -0.825547 -0.0490066 0
M  V30 803 H 78.9472 -1.56652 0.65256 0
M  V30 804 H 77.7192 -3.72683 1.1926 0
M  V30 805 H 77.3422 -3.94332 -0.508695 0
M  V30 806 N 78.3393 -0.321999 -1.54275 0
M  V30 807 C 79.2863 0.544664 -2.24281 0
M  V30 808 C 80.2563 1.1129 -1.23303 0
M  V30 809 O 81.4413 1.15354 -1.51981 0
M  V30 810 C 78.5813 1.70045 -3.00298 0
M  V30 811 C 77.6943 1.16159 -4.1609 0
M  V30 812 C 76.8293 2.28293 -4.79641 0
M  V30 813 C 75.8683 1.71648 -5.8754 0
M  V30 814 N 75.0053 2.77438 -6.44959 0
M  V30 815 H 79.8453 -0.0588907 -2.97942 0
M  V30 816 H 77.3823 -0.0408345 -1.47043 0
M  V30 817 H 79.3403 2.38054 -3.42616 0
M  V30 818 H 77.9703 2.27531 -2.28975 0
M  V30 819 H 77.0223 0.373092 -3.78566 0
M  V30 820 H 78.3343 0.707087 -4.93763 0
M  V30 821 H 77.4883 3.0421 -5.2492 0
M  V30 822 H 76.2273 2.77079 -4.01346 0
M  V30 823 H 75.2323 0.942282 -5.41665 0
M  V30 824 H 76.4573 1.23741 -6.67731 0
M  V30 825 H 74.4033 3.25519 -5.69538 0
M  V30 826 H 74.3203 2.36547 -7.1804 0
M  V30 827 H 75.5883 3.53189 -6.94894 0
M  V30 828 N 79.8174 1.5752 -0.0501392 0
M  V30 829 C 81.0654 1.9227 0.622642 0
M  V30 830 C 81.3864 0.929083 1.71444 0
M  V30 831 O 80.6564 -0.0262186 1.95882 0
M  V30 832 H 79.2364 0.709739 0.232981 0
M  V30 833 H 81.8984 1.94628 -0.102898 0
M  V30 834 H 80.9944 2.93479 1.06191 0
M  V30 835 N 81.2955 -0.223234 1.56011 0
M  V30 836 C 82.7115 -0.572856 1.48965 0
M  V30 837 C 82.9115 -1.87225 0.74492 0
M  V30 838 O 81.9675 -2.50899 0.283896 0
M  V30 839 C 83.2805 -0.653646 2.9351 0
M  V30 840 C 84.8285 -0.744386 3.0402 0
M  V30 841 C 85.3035 -0.856535 4.49919 0
M  V30 842 N 86.7945 -0.9208 4.53955 0
M  V30 843 C 87.5295 -1.02726 5.64123 0
M  V30 844 N 87.0255 -1.09777 6.84047 0
M  V30 845 N 88.8185 -1.06226 5.51971 0
M  V30 846 H 80.9695 0.629462 2.02858 0
M  V30 847 H 83.2325 0.220621 0.921971 0
M  V30 848 H 82.9385 0.231518 3.50937 0
M  V30 849 H 82.8125 -1.51781 3.45315 0
M  V30 850 H 85.1995 -1.61999 2.46658 0
M  V30 851 H 85.2805 0.14541 2.55386 0
M  V30 852 H 84.9245 0.0146069 5.07898 0
M  V30 853 H 84.8545 -1.76172 4.96257 0
M  V30 854 H 87.3455 -0.876694 3.6759 0
M  V30 855 H 87.6585 -1.17872 7.63758 0
M  V30 856 H 86.0035 -1.06693 6.86762 0
M  V30 857 H 89.1945 -1.00382 4.5721 0
M  V30 858 H 89.3675 -1.14177 6.37862 0
M  V30 859 N 82.7736 -1.49793 -0.48987 0
M  V30 860 C 84.0036 -1.6333 -1.26518 0
M  V30 861 C 84.4116 -0.308392 -1.8667 0
M  V30 862 O 83.7546 0.717512 -1.69108 0
M  V30 863 C 83.8166 -2.6522 -2.4269 0
M  V30 864 C 83.4806 -4.09279 -2.03321 0
M  V30 865 C 84.4776 -4.95738 -1.56652 0
M  V30 866 C 82.1626 -4.55082 -2.12616 0
M  V30 867 C 84.1566 -6.26041 -1.19795 0
M  V30 868 C 81.8436 -5.85396 -1.75371 0
M  V30 869 C 82.8416 -6.707 -1.29036 0
M  V30 870 O 82.5296 -7.98584 -0.92299 0
M  V30 871 H 82.2616 -0.552502 -0.389509 0
M  V30 872 H 84.8156 -1.96642 -0.593381 0
M  V30 873 H 83.0456 -2.27112 -3.12981 0
M  V30 874 H 84.7346 -2.68171 -3.04695 0
M  V30 875 H 85.5006 -4.61575 -1.48908 0
M  V30 876 H 81.3796 -3.88844 -2.47631 0
M  V30 877 H 84.9236 -6.92578 -0.835582 0
M  V30 878 H 80.8206 -6.19085 -1.82768 0
M  V30 879 H 81.5886 -8.11692 -1.05349 0
M  V30 880 N 84.2517 0.741722 -1.39055 0
M  V30 881 C 85.1817 1.869 -1.39966 0
M  V30 882 C 86.1627 1.6804 -0.26392 0
M  V30 883 O 87.3477 1.88458 -0.468755 0
M  V30 884 C 84.4777 3.24572 -1.23574 0
M  V30 885 C 83.4317 3.58056 -2.34477 0
M  V30 886 C 82.7577 4.94593 -2.0318 0
M  V30 887 C 84.0577 3.61716 -3.76774 0
M  V30 888 H 85.7517 1.86395 -2.34302 0
M  V30 889 H 83.2977 0.895361 -1.1278 0
M  V30 890 H 85.2507 4.031 -1.22834 0
M  V30 891 H 83.9747 3.25587 -0.257045 0
M  V30 892 H 82.6337 2.81854 -2.34423 0
M  V30 893 H 82.2817 4.92181 -1.03765 0
M  V30 894 H 81.9817 5.17964 -2.77465 0
M  V30 895 H 83.5057 5.75486 -2.04079 0
M  V30 896 H 84.9197 4.30335 -3.78794 0
M  V30 897 H 83.3167 3.96603 -4.50362 0
M  V30 898 H 84.3867 2.61672 -4.08235 0
M  V30 899 N 85.7298 1.2412 0.971189 0
M  V30 900 C 86.9778 1.07668 1.71032 0
M  V30 901 C 87.2988 -0.385797 1.91146 0
M  V30 902 O 86.5688 -1.27569 1.4867 0
M  V30 903 H 85.1488 0.395429 0.633755 0
M  V30 904 H 87.8108 1.55984 1.16855 0
M  V30 905 H 86.9068 1.57195 2.69622 0
M  V30 906 N 87.2079 -1.17134 1.05439 0
M  V30 907 C 88.1549 -2.21235 0.657539 0
M  V30 908 C 89.1249 -1.62551 -0.341543 0
M  V30 909 O 90.3099 -1.89379 -0.232393 0
M  V30 910 C 87.4499 -3.45076 0.0410575 0
M  V30 911 C 86.5629 -4.18042 1.08927 0
M  V30 912 C 85.6979 -5.29376 0.439848 0
M  V30 913 C 84.7369 -5.94132 1.4722 0
M  V30 914 N 83.8739 -6.96975 0.846756 0
M  V30 915 H 88.7139 -2.54534 1.54972 0
M  V30 916 H 86.2509 -1.25028 0.775006 0
M  V30 917 H 88.2089 -4.15862 -0.33383 0
M  V30 918 H 86.8389 -3.12353 -0.814568 0
M  V30 919 H 85.8909 -3.45945 1.58196 0
M  V30 920 H 87.2029 -4.62306 1.87282 0
M  V30 921 H 86.3569 -6.06699 0.0115125 0
M  V30 922 H 85.0959 -4.86251 -0.375656 0
M  V30 923 H 84.1009 -5.15538 1.91052 0
M  V30 924 H 85.3259 -6.39337 2.28965 0
M  V30 925 H 83.2719 -6.5598 0.0518075 0
M  V30 926 H 83.1889 -7.39565 1.5678 0
M  V30 927 H 84.4569 -7.78239 0.443277 0
M  V30 928 N 88.686 -0.835752 -1.33615 0
M  V30 929 C 89.934 -0.429109 -1.97492 0
M  V30 930 C 90.255 1.01433 -1.66543 0
M  V30 931 O 89.525 1.70611 -0.962744 0
M  V30 932 H 88.105 -0.155686 -0.730596 0
M  V30 933 H 90.767 -1.06802 -1.63031 0
M  V30 934 H 89.863 -0.55861 -3.0706 0
M  V30 935 N 90.1641 1.46063 -0.591896 0
M  V30 936 C 91.4101 2.02638 -0.0811191 0
M  V30 937 C 91.7431 1.4613 1.27905 0
M  V30 938 O 91.0181 0.629908 1.84017 0
M  V30 939 C 91.3011 3.60091 -0.0252436 0
M  V30 940 C 91.1541 4.26965 -1.41496 0
M  V30 941 C 92.4731 4.3496 0.670685 0
M  V30 942 H 89.5921 0.73635 -0.0309524 0
M  V30 943 H 92.2341 1.741 -0.760859 0
M  V30 944 H 90.3841 3.84535 0.553624 0
M  V30 945 H 92.0561 4.13756 -2.0397 0
M  V30 946 H 90.2991 3.85971 -1.98011 0
M  V30 947 H 90.9701 5.35781 -1.32825 0
M  V30 948 H 93.4461 4.15716 0.178825 0
M  V30 949 H 92.3221 5.44686 0.678837 0
M  V30 950 H 92.5831 4.06685 1.73379 0
M  V30 951 N 91.6422 0.330177 1.54103 0
M  V30 952 C 92.5722 -0.525353 2.27513 0
M  V30 953 C 93.5532 -1.11383 1.2856 0
M  V30 954 O 94.7382 -1.13773 1.57383 0
M  V30 955 C 91.8682 -1.6831 3.03791 0
M  V30 956 C 90.8222 -1.2236 4.10137 0
M  V30 957 C 90.1482 -2.46882 4.74293 0
M  V30 958 C 91.4482 -0.333697 5.21233 0
M  V30 959 H 93.1422 0.087013 2.99274 0
M  V30 960 H 90.6882 0.0432893 1.43935 0
M  V30 961 H 92.6412 -2.28795 3.5388 0
M  V30 962 H 91.3652 -2.32216 2.29659 0
M  V30 963 H 90.0242 -0.64165 3.60941 0
M  V30 964 H 89.6722 -3.09165 3.96769 0
M  V30 965 H 89.3722 -2.16825 5.46133 0
M  V30 966 H 90.8962 -3.08117 5.27159 0
M  V30 967 H 92.3102 -0.845013 5.67038 0
M  V30 968 H 90.7072 -0.125612 5.99969 0
M  V30 969 H 91.7772 0.633724 4.80741 0
M  V30 970 N 93.1203 -1.57491 0.0584922 0
M  V30 971 C 94.0673 -2.11958 -0.913376 0
M  V30 972 C 95.0373 -1.02875 -1.30407 0
M  V30 973 O 96.2223 -1.30464 -1.39226 0
M  V30 974 C 93.3623 -2.67497 -2.18035 0
M  V30 975 C 92.4753 -3.90691 -1.84349 0
M  V30 976 C 91.6103 -4.3452 -3.05559 0
M  V30 977 C 90.6493 -5.50395 -2.67827 0
M  V30 978 N 89.7863 -5.89244 -3.81754 0
M  V30 979 H 94.6263 -2.94704 -0.442017 0
M  V30 980 H 92.1633 -1.45643 -0.206545 0
M  V30 981 H 94.1213 -2.978 -2.92183 0
M  V30 982 H 92.7513 -1.87537 -2.62735 0
M  V30 983 H 91.8033 -3.66934 -1.00319 0
M  V30 984 H 93.1153 -4.7489 -1.5258 0
M  V30 985 H 92.2693 -4.66414 -3.87998 0
M  V30 986 H 91.0083 -3.49147 -3.40511 0
M  V30 987 H 90.0133 -5.18165 -1.83806 0
M  V30 988 H 91.2383 -6.3749 -2.34059 0
M  V30 989 H 89.1843 -5.06823 -4.16493 0
M  V30 990 H 89.1013 -6.68151 -3.53708 0
M  V30 991 H 90.3693 -6.25756 -4.64811 0
M  V30 992 N 94.5984 0.214957 -1.56127 0
M  V30 993 C 95.5614 1.24997 -1.92116 0
M  V30 994 C 96.5614 1.39467 -0.800344 0
M  V30 995 O 97.7514 1.37619 -1.06802 0
M  V30 996 C 94.8834 2.62271 -2.17777 0
M  V30 997 H 96.0764 0.942875 -2.84693 0
M  V30 998 H 93.6294 0.455654 -1.49511 0
M  V30 999 H 94.3644 2.98068 -1.27773 0
M  V30 1000 H 94.1494 2.53143 -2.99434 0
M  V30 1001 H 95.6394 3.36946 -2.46693 0
M  V30 1002 N 96.0765 1.50051 0.48192 0
M  V30 1003 C 97.3225 1.60736 1.2366 0
M  V30 1004 C 97.6555 0.301786 1.91841 0
M  V30 1005 O 96.9305 -0.696025 1.8162 0
M  V30 1006 C 97.2135 2.78009 2.28874 0
M  V30 1007 C 97.0665 4.18416 1.65069 0
M  V30 1008 C 98.3855 2.90867 3.30279 0
M  V30 1009 H 95.5045 0.585031 0.448228 0
M  V30 1010 H 98.1465 1.82402 0.531946 0
M  V30 1011 H 96.2965 2.59667 2.88973 0
M  V30 1012 H 97.9685 4.48322 1.0865 0
M  V30 1013 H 96.2115 4.23177 0.954148 0
M  V30 1014 H 96.8825 4.96381 2.41474 0
M  V30 1015 H 99.3585 3.07623 2.80191 0
M  V30 1016 H 98.2345 3.74566 4.01238 0
M  V30 1017 H 98.4955 2.01021 3.93755 0
M  V30 1018 N 97.5546 -0.734337 1.39446 0
M  V30 1019 C 98.4646 -1.87879 1.40495 0
M  V30 1020 C 99.4806 -1.714 0.299672 0
M  V30 1021 O 100.657 -1.93991 0.541249 0
M  V30 1022 C 97.7216 -3.23477 1.24754 0
M  V30 1023 C 96.7826 -3.52344 2.45259 0
M  V30 1024 C 96.0156 -4.81473 2.30259 0
M  V30 1025 O 96.2386 -5.55237 1.30643 0
M  V30 1026 O 95.1726 -5.10254 3.19256 0
M  V30 1027 H 98.9986 -1.89949 2.36966 0
M  V30 1028 H 96.5836 -0.882243 1.20569 0
M  V30 1029 H 98.4656 -4.04509 1.18111 0
M  V30 1030 H 97.1406 -3.22176 0.313781 0
M  V30 1031 H 96.0476 -2.71396 2.57478 0
M  V30 1032 H 97.3806 -3.58426 3.37331 0
M  V30 1033 N 99.0327 -1.24633 -0.964593 0
M  V30 1034 C 99.9807 -1.03917 -2.08096 0
M  V30 1035 C 100.975 0.0268581 -1.69379 0
M  V30 1036 O 102.181 -0.127952 -1.79545 0
M  V30 1037 H 98.5557 -0.319044 -0.680966 0
M  V30 1038 H 100.527 -1.98581 -2.22729 0
M  V30 1039 C 99.2757 -0.663983 -3.41301 0
M  V30 1040 H 98.5987 -1.47605 -3.71555 0
M  V30 1041 H 100.039 -0.558663 -4.20303 0
M  V30 1042 C 98.4977 0.629169 -3.30973 0
M  V30 1043 O 99.0277 1.67404 -3.65156 0
M  V30 1044 N 97.2337 0.611057 -2.84103 0
M  V30 1045 H 96.7807 -0.239593 -2.56483 0
M  V30 1046 H 96.7387 1.47647 -2.77575 0
M  V30 1047 N 100.511 1.16574 -1.06058 0
M  V30 1048 C 101.76 1.86385 -0.770944 0
M  V30 1049 C 102.073 1.82448 0.705129 0
M  V30 1050 O 103.279 2.47815 1.10905 0
M  V30 1051 C 101.735 3.34466 -1.32893 0
M  V30 1052 C 101.343 3.46883 -2.83507 0
M  V30 1053 C 103.087 4.09548 -1.11672 0
M  V30 1054 C 100.994 4.89036 -3.32562 0
M  V30 1055 H 99.9238 0.698181 -0.284709 0
M  V30 1056 H 102.575 1.31583 -1.27899 0
M  V30 1057 H 100.957 3.88859 -0.748662 0
M  V30 1058 H 102.131 3.02663 -3.47465 0
M  V30 1059 H 100.446 2.85232 -3.03368 0
M  V30 1060 H 103.043 5.14434 -1.45814 0
M  V30 1061 H 103.386 4.16264 -0.0549535 0
M  V30 1062 H 103.919 3.61387 -1.66265 0
M  V30 1063 H 100.658 4.87499 -4.38207 0
M  V30 1064 H 100.178 5.3389 -2.73351 0
M  V30 1065 H 101.857 5.57843 -3.2775 0
M  V30 1066 N 101.989 0.842826 1.3317 0
M  V30 1067 C 102.937 0.267495 2.31057 0
M  V30 1068 C 103.931 -0.602682 1.58316 0
M  V30 1069 O 105.137 -0.491803 1.73151 0
M  V30 1070 H 101.512 0.0677813 0.748939 0
M  V30 1071 H 103.483 1.10754 2.77085 0
M  V30 1072 C 102.232 -0.539331 3.43492 0
M  V30 1073 H 101.555 0.12095 3.99617 0
M  V30 1074 H 102.995 -0.90767 4.14171 0
M  V30 1075 C 101.454 -1.71981 2.89697 0
M  V30 1076 O 101.984 -2.81862 2.86211 0
M  V30 1077 N 100.19 -1.54299 2.46252 0
M  V30 1078 H 99.7369 -0.649143 2.49287 0
M  V30 1079 H 99.6949 -2.33431 2.10612 0
M  V30 1080 N 103.467 -1.45747 0.599634 0
M  V30 1081 C 104.415 -2.322 -0.136426 0
M  V30 1082 C 105.409 -1.45497 -0.867583 0
M  V30 1083 O 106.615 -1.62027 -0.78405 0
M  V30 1084 H 102.99 -0.749368 -0.0628588 0
M  V30 1085 H 104.961 -2.92072 0.611281 0
M  V30 1086 C 103.71 -3.28974 -1.12567 0
M  V30 1087 H 103.033 -3.9568 -0.572484 0
M  V30 1088 H 104.473 -3.92212 -1.61077 0
M  V30 1089 C 102.932 -2.55561 -2.19523 0
M  V30 1090 O 103.462 -2.33111 -3.27143 0
M  V30 1091 N 101.668 -2.15832 -1.94589 0
M  V30 1092 H 101.215 -2.3429 -1.07078 0
M  V30 1093 H 101.173 -1.67034 -2.66359 0
M  V30 1094 N 104.945 -0.338344 -1.53925 0
M  V30 1095 C 106.173 0.261298 -2.05243 0
M  V30 1096 C 106.588 1.44625 -1.21363 0
M  V30 1097 O 105.945 1.80811 -0.247736 0
M  V30 1098 C 105.996 0.681412 -3.5502 0
M  V30 1099 O 105.717 -0.456414 -4.35716 0
M  V30 1100 C 107.218 1.34232 -4.22489 0
M  V30 1101 H 104.438 0.0513685 -0.669031 0
M  V30 1102 H 106.982 -0.488822 -1.98572 0
M  V30 1103 H 105.137 1.38148 -3.61931 0
M  V30 1104 H 105.551 -0.122564 -5.24357 0
M  V30 1105 H 107.025 1.58708 -5.28693 0
M  V30 1106 H 107.502 2.29426 -3.74514 0
M  V30 1107 H 108.108 0.684424 -4.19757 0
M  V30 1108 N 106.423 1.57458 -0.0668435 0
M  V30 1109 C 107.353 2.15468 0.899764 0
M  V30 1110 C 108.334 1.08042 1.31381 0
M  V30 1111 O 109.519 1.36054 1.38574 0
M  V30 1112 C 106.649 2.71232 2.16911 0
M  V30 1113 C 105.603 3.83781 1.89463 0
M  V30 1114 C 104.929 4.26127 3.22986 0
M  V30 1115 C 106.229 5.08238 1.20381 0
M  V30 1116 H 107.923 2.96488 0.416529 0
M  V30 1117 H 105.469 1.4262 0.198908 0
M  V30 1118 H 107.422 3.10458 2.84945 0
M  V30 1119 H 106.146 1.87426 2.67468 0
M  V30 1120 H 104.805 3.45051 1.23836 0
M  V30 1121 H 104.453 3.39249 3.71374 0
M  V30 1122 H 104.153 5.01993 3.05413 0
M  V30 1123 H 105.677 4.67966 3.92225 0
M  V30 1124 H 107.091 5.44811 1.78475 0
M  V30 1125 H 105.488 5.89349 1.13083 0
M  V30 1126 H 106.558 4.84558 0.182153 0
M  V30 1127 N 107.901 -0.206675 1.56239 0
M  V30 1128 C 109.149 -0.927007 1.79586 0
M  V30 1129 C 109.47 -1.8427 0.637929 0
M  V30 1130 O 108.74 -1.92849 -0.344398 0
M  V30 1131 H 107.32 -0.345292 0.662407 0
M  V30 1132 H 109.982 -0.21496 1.93711 0
M  V30 1133 H 109.078 -1.52501 2.72305 0
M  V30 1134 N 109.379 -1.50304 -0.473955 0
M  V30 1135 C 110.79 -1.54042 -1.0549 0
M  V30 1136 C 111.141 -0.342248 -1.93192 0
M  V30 1137 O 110.266 0.545157 -2.09421 0
M  V30 1138 C 110.861 -2.79152 -1.91989 0
M  V30 1139 C 109.42 -2.8558 -2.45196 0
M  V30 1140 C 108.567 -2.48295 -1.2347 0
M  V30 1141 H 111.518 -1.5661 -0.256693 0
M  V30 1142 H 111.539 -2.60845 -2.7702 0
M  V30 1143 H 111.051 -3.66339 -1.28131 0
M  V30 1144 H 109.152 -2.02738 -3.12615 0
M  V30 1145 H 109.265 -3.88403 -2.80499 0
M  V30 1146 H 107.629 -2.00669 -1.56856 0
M  V30 1147 H 108.412 -3.37787 -0.612789 0
M  V30 1148 N 110.857 0.726932 -1.39834 0
M  V30 1149 C 111.82 1.82269 -1.38962 0
M  V30 1150 C 112.82 1.58248 -0.285334 0
M  V30 1151 O 114.01 1.65499 -0.54366 0
M  V30 1152 C 111.142 3.20186 -1.17019 0
M  V30 1153 H 112.335 1.84443 -2.36476 0
M  V30 1154 H 109.888 0.931416 -1.25516 0
M  V30 1155 H 110.623 3.23669 -0.202204 0
M  V30 1156 H 110.408 3.3902 -1.96998 0
M  V30 1157 H 111.898 4.00235 -1.1917 0
M  V30 1158 N 112.336 1.25143 0.95797 0
M  V30 1159 C 113.266 1.07711 2.07173 0
M  V30 1160 C 114.247 -0.0128462 1.70095 0
M  V30 1161 O 115.432 0.156061 1.93572 0
M  V30 1162 C 112.562 0.691503 3.40346 0
M  V30 1163 C 111.516 1.73132 3.9142 0
M  V30 1164 C 110.842 1.20049 5.21049 0
M  V30 1165 C 112.142 3.1294 4.1817 0
M  V30 1166 H 113.836 2.00873 2.22014 0
M  V30 1167 H 111.382 0.967191 1.06684 0
M  V30 1168 H 113.335 0.556505 4.17709 0
M  V30 1169 H 112.059 -0.275819 3.25433 0
M  V30 1170 H 110.718 1.8547 3.16222 0
M  V30 1171 H 110.366 0.223499 5.02503 0
M  V30 1172 H 110.066 1.89545 5.56189 0
M  V30 1173 H 111.59 1.07782 6.01012 0
M  V30 1174 H 113.004 3.03775 4.86203 0
M  V30 1175 H 111.401 3.79875 4.64559 0
M  V30 1176 H 112.471 3.6025 3.24573 0
M  V30 1177 N 113.814 -1.1601 1.06675 0
M  V30 1178 C 114.744 -2.22688 0.702307 0
M  V30 1179 C 115.725 -1.67306 -0.307032 0
M  V30 1180 O 116.91 -1.93352 -0.181305 0
M  V30 1181 C 114.04 -3.47178 0.092038 0
M  V30 1182 C 112.994 -4.15477 1.02777 0
M  V30 1183 C 112.32 -5.33963 0.28061 0
M  V30 1184 C 113.62 -4.66019 2.35846 0
M  V30 1185 H 115.314 -2.53429 1.59419 0
M  V30 1186 H 112.86 -1.21813 0.767961 0
M  V30 1187 H 114.813 -4.21037 -0.174814 0
M  V30 1188 H 113.537 -3.15749 -0.834877 0
M  V30 1189 H 112.196 -3.43549 1.27944 0
M  V30 1190 H 111.844 -4.98788 -0.649545 0
M  V30 1191 H 111.544 -5.806 0.904258 0
M  V30 1192 H 113.068 -6.10596 0.021396 0
M  V30 1193 H 114.482 -5.3144 2.15045 0
M  V30 1194 H 112.879 -5.23293 2.93743 0
M  V30 1195 H 113.949 -3.82023 2.98641 0
M  V30 1196 N 115.292 -0.849877 -1.32721 0
M  V30 1197 C 116.224 -0.248332 -2.27851 0
M  V30 1198 C 117.237 0.577218 -1.52224 0
M  V30 1199 O 118.426 0.402489 -1.73903 0
M  V30 1200 C 115.526 0.668107 -3.32249 0
M  V30 1201 C 114.699 -0.120534 -4.37234 0
M  V30 1202 C 113.758 0.720932 -5.21238 0
M  V30 1203 O 112.784 0.156166 -5.68986 0
M  V30 1204 N 113.986 2.03647 -5.43607 0
M  V30 1205 H 116.751 -1.06575 -2.80111 0
M  V30 1206 H 114.312 -0.709395 -1.45531 0
M  V30 1207 H 116.304 1.23627 -3.85355 0
M  V30 1208 H 114.874 1.38621 -2.80184 0
M  V30 1209 H 114.094 -0.870108 -3.84477 0
M  V30 1210 H 115.382 -0.662406 -5.0447 0
M  V30 1211 H 114.78 2.51871 -5.06535 0
M  V30 1212 H 113.337 2.55287 -5.99727 0
M  V30 1213 N 116.77 1.45427 -0.607355 0
M  V30 1214 C 117.717 2.3053 0.111625 0
M  V30 1215 C 118.687 1.4209 0.860216 0
M  V30 1216 O 119.872 1.71019 0.845998 0
M  V30 1217 C 117.012 3.26992 1.10319 0
M  V30 1218 C 116.125 4.30535 0.355493 0
M  V30 1219 C 115.26 5.14105 1.33676 0
M  V30 1220 C 114.299 6.09376 0.576862 0
M  V30 1221 N 113.436 6.85727 1.5074 0
M  V30 1222 H 118.276 2.91477 -0.620093 0
M  V30 1223 H 115.813 1.43631 -0.317594 0
M  V30 1224 H 117.771 3.81385 1.6912 0
M  V30 1225 H 116.401 2.67799 1.80232 0
M  V30 1226 H 115.453 3.78805 -0.348023 0
M  V30 1227 H 116.765 4.98235 -0.237423 0
M  V30 1228 H 115.919 5.72897 1.99684 0
M  V30 1229 H 114.658 4.46423 1.9636 0
M  V30 1230 H 113.663 5.49715 -0.0968519 0
M  V30 1231 H 114.888 6.79085 -0.0449341 0
M  V30 1232 H 112.834 6.20735 2.12189 0
M  V30 1233 H 112.751 7.49778 0.967913 0
M  V30 1234 H 114.019 7.4906 2.15706 0
M  V30 1235 N 118.248 0.346503 1.53744 0
M  V30 1236 C 119.195 -0.508914 2.25119 0
M  V30 1237 C 120.165 -1.09315 1.25058 0
M  V30 1238 O 121.35 -1.12921 1.53797 0
M  V30 1239 C 118.49 -1.65246 3.02965 0
M  V30 1240 C 117.603 -1.09525 4.17886 0
M  V30 1241 C 116.738 -2.20634 4.83212 0
M  V30 1242 C 115.777 -1.62279 5.90196 0
M  V30 1243 N 114.914 -2.67143 6.49291 0
M  V30 1244 H 119.754 0.106283 2.9781 0
M  V30 1245 H 117.291 0.0642227 1.4696 0
M  V30 1246 H 119.249 -2.32574 3.4636 0
M  V30 1247 H 117.879 -2.2386 2.32565 0
M  V30 1248 H 116.931 -0.312818 3.79112 0
M  V30 1249 H 118.243 -0.628444 4.94825 0
M  V30 1250 H 117.397 -2.95821 5.29693 0
M  V30 1251 H 116.136 -2.70659 4.05703 0
M  V30 1252 H 115.141 -0.855989 5.43096 0
M  V30 1253 H 116.366 -1.13102 6.69615 0
M  V30 1254 H 114.312 -3.16417 5.74645 0
M  V30 1255 H 114.229 -2.25093 7.21713 0
M  V30 1256 H 115.497 -3.4209 7.00425 0
M  V30 1257 N 119.726 -1.57421 0.075193 0
M  V30 1258 C 120.656 -2.15942 -0.888324 0
M  V30 1259 C 121.637 -1.08737 -1.30806 0
M  V30 1260 O 122.822 -1.36787 -1.37851 0
M  V30 1261 C 119.952 -2.72379 -2.1547 0
M  V30 1262 C 118.906 -3.8478 -1.87425 0
M  V30 1263 C 118.232 -4.27834 -3.20721 0
M  V30 1264 C 119.532 -5.08869 -1.17684 0
M  V30 1265 H 121.226 -2.96705 -0.400799 0
M  V30 1266 H 118.772 -1.42723 -0.191342 0
M  V30 1267 H 120.725 -3.11965 -2.83295 0
M  V30 1268 H 119.449 -1.88841 -2.6647 0
M  V30 1269 H 118.108 -3.45703 -1.22004 0
M  V30 1270 H 117.756 -3.41214 -3.6957 0
M  V30 1271 H 117.456 -5.03605 -3.02746 0
M  V30 1272 H 118.98 -4.70039 -3.89738 0
M  V30 1273 H 120.394 -5.4575 -1.75584 0
M  V30 1274 H 118.791 -5.8994 -1.09956 0
M  V30 1275 H 119.861 -4.84648 -0.156453 0
M  V30 1276 N 121.204 0.198386 -1.56346 0
M  V30 1277 C 122.429 0.939682 -1.84891 0
M  V30 1278 C 122.854 1.76202 -0.658369 0
M  V30 1279 O 122.212 1.76993 0.392851 0
M  V30 1280 C 122.26 1.81428 -3.11635 0
M  V30 1281 O 121.364 2.91265 -2.91956 0
M  V30 1282 H 120.705 0.264807 -0.608912 0
M  V30 1283 H 123.235 0.204695 -2.03573 0
M  V30 1284 H 123.245 2.21958 -3.42343 0
M  V30 1285 H 121.92 1.21004 -3.97908 0
M  V30 1286 H 120.497 2.54514 -2.72538 0
M  V30 1287 N 122.682 1.50554 0.465978 0
M  V30 1288 C 123.928 1.62038 1.21949 0
M  V30 1289 C 124.261 0.322116 1.9151 0
M  V30 1290 O 123.536 -0.676723 1.82348 0
M  V30 1291 C 123.819 2.80421 2.25912 0
M  V30 1292 C 123.672 4.20144 1.60622 0
M  V30 1293 C 124.991 2.94354 3.27176 0
M  V30 1294 H 122.11 0.589752 0.441998 0
M  V30 1295 H 124.752 1.82956 0.51257 0
M  V30 1296 H 122.902 2.62717 2.86203 0
M  V30 1297 H 124.574 4.49449 1.03889 0
M  V30 1298 H 122.817 4.24165 0.909211 0
M  V30 1299 H 123.488 4.98914 2.36196 0
M  V30 1300 H 125.964 3.10578 2.76913 0
M  V30 1301 H 124.84 3.788 3.97242 0
M  V30 1302 H 125.101 2.05186 3.916 0
M  V30 1303 N 124.16 -0.719506 1.40217 0
M  V30 1304 C 125.406 -1.48152 1.38488 0
M  V30 1305 C 125.739 -1.94195 -0.0141867 0
M  V30 1306 O 125.014 -1.67884 -0.982096 0
M  V30 1307 C 125.297 -2.71035 2.37091 0
M  V30 1308 C 125.15 -2.30912 3.86005 0
M  V30 1309 C 126.469 -3.73182 2.33288 0
M  V30 1310 H 123.588 -0.537395 0.504357 0
M  V30 1311 H 126.23 -0.821472 1.71324 0
M  V30 1312 H 124.38 -3.27352 2.0922 0
M  V30 1313 H 126.052 -1.80107 4.24687 0
M  V30 1314 H 124.295 -1.62958 4.02029 0
M  V30 1315 H 124.966 -3.18978 4.50508 0
M  V30 1316 H 127.442 -3.26485 2.57966 0
M  V30 1317 H 126.318 -4.56806 3.04334 0
M  V30 1318 H 126.579 -4.21202 1.34317 0
M  V30 1319 N 125.638 -1.25649 -0.95132 0
M  V30 1320 C 126.915 -1.01361 -1.67288 0
M  V30 1321 C 127.295 0.459135 -2.06046 0
M  V30 1322 O 126.643 1.43723 -1.7764 0
M  V30 1323 C 126.853 -1.95256 -2.89268 0
M  V30 1324 C 128.201 -2.23289 -3.61147 0
M  V30 1325 O 129.225 -1.93041 -2.99355 0
M  V30 1326 O 128.084 -2.74741 -4.72419 0
M  V30 1327 H 125.178 -0.38464 -0.732107 0
M  V30 1328 H 127.724 -1.36817 -1.00395 0
M  V30 1329 H 126.496 -2.94685 -2.57442 0
M  V30 1330 H 126.119 -1.60218 -3.6389 0
M  V30 1331 N 127.117 1.15442 -1.07289 0
M  V30 1332 C 128.049 2.19773 -0.650585 0
M  V30 1333 C 129.062 1.60076 0.296572 0
M  V30 1334 O 130.251 1.78293 0.0859905 0
M  V30 1335 C 127.351 3.38838 0.0650398 0
M  V30 1336 C 126.524 4.2808 -0.898141 0
M  V30 1337 C 125.583 5.2574 -0.219926 0
M  V30 1338 O 124.609 5.62654 -0.860773 0
M  V30 1339 N 125.811 5.71205 1.03466 0
M  V30 1340 H 128.576 2.56622 -1.54808 0
M  V30 1341 H 126.137 1.30551 -0.957494 0
M  V30 1342 H 128.129 4.01222 0.529415 0
M  V30 1343 H 126.699 3.00409 0.864466 0
M  V30 1344 H 125.919 3.62804 -1.54165 0
M  V30 1345 H 127.207 4.84577 -1.5512 0
M  V30 1346 H 126.605 5.43325 1.57526 0
M  V30 1347 H 125.162 6.35633 1.44272 0
M  V30 1348 N 128.595 0.856903 1.32268 0
M  V30 1349 C 129.505 0.306131 2.32594 0
M  V30 1350 C 130.521 -0.577209 1.64147 0
M  V30 1351 O 131.697 -0.477043 1.95669 0
M  V30 1352 C 128.762 -0.494561 3.43154 0
M  V30 1353 C 127.823 0.415186 4.27288 0
M  V30 1354 C 127.056 -0.347387 5.32568 0
M  V30 1355 O 127.279 -1.57708 5.48165 0
M  V30 1356 O 126.213 0.287982 6.01211 0
M  V30 1357 H 130.039 1.13737 2.81598 0
M  V30 1358 H 127.624 0.619902 1.35932 0
M  V30 1359 H 129.506 -0.948944 4.10576 0
M  V30 1360 H 128.181 -1.30257 2.96336 0
M  V30 1361 H 127.088 0.917793 3.62667 0
M  V30 1362 H 128.421 1.18844 4.77637 0
M  V30 1363 N 130.073 -1.45103 0.615059 0
M  V30 1364 C 131.02 -2.30586 -0.0993978 0
M  V30 1365 C 131.99 -1.42544 -0.852669 0
M  V30 1366 O 133.175 -1.71465 -0.836917 0
M  V30 1367 C 130.315 -3.27572 -1.08583 0
M  V30 1368 C 129.428 -4.30717 -0.332656 0
M  V30 1369 C 128.563 -5.14807 -1.30947 0
M  V30 1370 C 127.602 -6.09673 -0.544538 0
M  V30 1371 N 126.739 -6.86517 -1.47101 0
M  V30 1372 H 131.579 -2.91144 0.635542 0
M  V30 1373 H 129.116 -1.4346 0.325206 0
M  V30 1374 H 131.074 -3.82276 -1.67095 0
M  V30 1375 H 129.704 -2.68751 -1.78809 0
M  V30 1376 H 128.756 -3.78615 0.368107 0
M  V30 1377 H 130.068 -4.98102 0.263842 0
M  V30 1378 H 129.222 -5.73948 -1.96643 0
M  V30 1379 H 127.961 -4.47458 -1.9399 0
M  V30 1380 H 126.966 -5.49656 0.126003 0
M  V30 1381 H 128.191 -6.79052 0.080947 0
M  V30 1382 H 126.137 -6.21851 -2.08895 0
M  V30 1383 H 126.054 -7.50281 -0.928137 0
M  V30 1384 H 127.322 -7.50194 -2.11731 0
M  V30 1385 N 131.551 -0.354651 -1.53558 0
M  V30 1386 C 132.797 0.238797 -2.01389 0
M  V30 1387 C 133.13 1.49309 -1.2418 0
M  V30 1388 O 132.405 1.91638 -0.332457 0
M  V30 1389 C 132.688 0.541771 -3.56001 0
M  V30 1390 C 132.541 -0.725388 -4.43912 0
M  V30 1391 C 133.86 1.34685 -4.18984 0
M  V30 1392 H 130.979 0.0853177 -0.732045 0
M  V30 1393 H 133.621 -0.477384 -1.83905 0
M  V30 1394 H 131.771 1.15189 -3.71031 0
M  V30 1395 H 133.443 -1.36313 -4.407 0
M  V30 1396 H 131.686 -1.34801 -4.12324 0
M  V30 1397 H 132.357 -0.468505 -5.50008 0
M  V30 1398 H 134.833 0.830837 -4.07721 0
M  V30 1399 H 133.709 1.52759 -5.27215 0
M  V30 1400 H 133.97 2.35221 -3.74331 0
M  V30 1401 N 133.029 1.57378 -0.0835403 0
M  V30 1402 C 134.306 1.85363 0.624507 0
M  V30 1403 C 134.686 0.978239 1.87066 0
M  V30 1404 O 134.034 0.0475908 2.2845 0
M  V30 1405 C 134.244 3.35795 0.950947 0
M  V30 1406 C 135.592 4.03581 1.31939 0
M  V30 1407 O 136.616 3.40609 1.04232 0
M  V30 1408 O 135.475 5.14672 1.83779 0
M  V30 1409 H 132.569 0.766162 0.311329 0
M  V30 1410 H 135.115 1.69307 -0.115362 0
M  V30 1411 H 133.887 3.91244 0.0663899 0
M  V30 1412 H 133.51 3.57154 1.74719 0
M  V30 1413 N 134.507 -0.190092 1.56449 0
M  V30 1414 C 135.454 -1.23557 1.94942 0
M  V30 1415 C 136.424 -1.44972 0.810696 0
M  V30 1416 O 137.609 -1.58023 1.06927 0
M  V30 1417 C 134.749 -2.57416 2.2985 0
M  V30 1418 C 133.862 -2.43537 3.5681 0
M  V30 1419 C 132.997 -3.70134 3.81017 0
M  V30 1420 C 132.036 -3.51109 5.01387 0
M  V30 1421 N 131.173 -4.6973 5.21822 0
M  V30 1422 H 136.013 -0.900304 2.84075 0
M  V30 1423 H 133.55 -0.43318 1.40577 0
M  V30 1424 H 135.508 -3.35409 2.48106 0
M  V30 1425 H 134.138 -2.88975 1.43852 0
M  V30 1426 H 133.19 -1.56816 3.46573 0
M  V30 1427 H 134.502 -2.25415 4.4496 0
M  V30 1428 H 133.656 -4.56566 3.9954 0
M  V30 1429 H 132.395 -3.91215 2.91207 0
M  V30 1430 H 131.4 -2.63063 4.82782 0
M  V30 1431 H 132.625 -3.31468 5.9271 0
M  V30 1432 H 130.571 -4.91065 4.34961 0
M  V30 1433 H 130.488 -4.54452 6.0416 0
M  V30 1434 H 131.756 -5.57499 5.44808 0
M  V30 1435 N 135.985 -1.50799 -0.457987 0
M  V30 1436 C 137.232 -1.62442 -1.20908 0
M  V30 1437 C 137.56 -0.330865 -1.91665 0
M  V30 1438 O 136.815 0.68401 -1.83357 0
M  V30 1439 C 137.114 -2.76358 -2.2663 0
M  V30 1440 C 136.78 -4.16378 -1.73033 0
M  V30 1441 C 135.442 -4.54473 -1.58138 0
M  V30 1442 C 137.794 -5.03836 -1.33413 0
M  V30 1443 C 135.122 -5.77754 -1.02065 0
M  V30 1444 C 137.474 -6.27676 -0.78778 0
M  V30 1445 C 136.138 -6.64562 -0.625561 0
M  V30 1446 H 135.408 -0.594417 -0.442435 0
M  V30 1447 H 138.055 -1.84772 -0.503136 0
M  V30 1448 H 136.36 -2.48167 -3.03184 0
M  V30 1449 H 138.057 -2.82568 -2.84528 0
M  V30 1450 H 134.647 -3.86331 -1.85598 0
M  V30 1451 H 138.831 -4.75026 -1.4375 0
M  V30 1452 H 134.087 -6.04997 -0.882547 0
M  V30 1453 H 138.261 -6.94797 -0.472177 0
M  V30 1454 H 135.888 -7.59965 -0.188926 0
M  V30 1455 N 137.463 0.71206 -1.40597 0
M  V30 1456 C 138.396 1.83582 -1.35546 0
M  V30 1457 C 139.374 1.61032 -0.225284 0
M  V30 1458 O 140.558 1.83998 -0.409519 0
M  V30 1459 C 137.685 3.19983 -1.11034 0
M  V30 1460 C 136.731 3.61355 -2.2655 0
M  V30 1461 S 137.564 3.68062 -3.88961 0
M  V30 1462 C 138.72 5.07216 -3.66719 0
M  V30 1463 H 138.953 1.87586 -2.30648 0
M  V30 1464 H 136.486 0.879182 -1.26924 0
M  V30 1465 H 138.444 3.98734 -0.975761 0
M  V30 1466 H 137.105 3.13608 -0.175798 0
M  V30 1467 H 136.298 4.60403 -2.0505 0
M  V30 1468 H 135.9 2.8987 -2.36329 0
M  V30 1469 H 138.192 5.94238 -3.25404 0
M  V30 1470 H 139.135 5.33753 -4.6531 0
M  V30 1471 H 139.543 4.77976 -3.00332 0
M  V30 1472 N 138.941 1.26152 0.944643 0
M  V30 1473 C 140.19 1.10883 1.68487 0
M  V30 1474 C 140.503 -0.348153 1.92477 0
M  V30 1475 O 141.709 -0.621459 2.64292 0
M  V30 1476 C 140.165 1.93624 3.03377 0
M  V30 1477 C 139.773 3.43875 2.87148 0
M  V30 1478 C 141.517 1.86954 3.81115 0
M  V30 1479 C 139.424 4.18875 4.1749 0
M  V30 1480 H 138.354 0.41135 0.631907 0
M  V30 1481 H 141.005 1.50433 1.05082 0
M  V30 1482 H 139.387 1.46904 3.67743 0
M  V30 1483 H 140.561 3.98338 2.31653 0
M  V30 1484 H 138.876 3.51744 2.22856 0
M  V30 1485 H 141.473 2.40275 4.77673 0
M  V30 1486 H 141.816 0.839518 4.07747 0
M  V30 1487 H 142.349 2.31477 3.23517 0
M  V30 1488 H 139.088 5.22332 3.96043 0
M  V30 1489 H 138.608 3.69193 4.72712 0
M  V30 1490 H 140.287 4.27134 4.85968 0
M  V30 1491 N 140.419 -1.14872 1.07899 0
M  V30 1492 C 141.329 -2.2341 0.715915 0
M  V30 1493 C 142.345 -1.71808 -0.275306 0
M  V30 1494 O 143.521 -2.01039 -0.120545 0
M  V30 1495 C 140.586 -3.46474 0.125168 0
M  V30 1496 C 139.647 -4.13039 1.17034 0
M  V30 1497 C 138.88 -5.30229 0.607688 0
M  V30 1498 O 139.103 -5.675 -0.574497 0
M  V30 1499 O 138.037 -5.86444 1.35526 0
M  V30 1500 H 141.863 -2.56808 1.62121 0
M  V30 1501 H 139.448 -1.22702 0.852322 0
M  V30 1502 H 141.33 -4.20917 -0.201729 0
M  V30 1503 H 140.005 -3.14811 -0.753364 0
M  V30 1504 H 138.912 -3.40493 1.54968 0
M  V30 1505 H 140.245 -4.48796 2.02097 0
M  V30 1506 N 141.898 -0.863906 -1.31812 0
M  V30 1507 C 142.828 -0.330843 -2.31144 0
M  V30 1508 C 143.809 0.575005 -1.60087 0
M  V30 1509 O 144.994 0.493304 -1.8783 0
M  V30 1510 C 142.124 0.47374 -3.44054 0
M  V30 1511 C 141.078 -0.338481 -4.26659 0
M  V30 1512 C 140.404 0.591412 -5.31419 0
M  V30 1513 C 141.704 -1.56926 -4.98168 0
M  V30 1514 H 143.398 -1.16086 -2.75979 0
M  V30 1515 H 140.944 -0.559657 -1.32679 0
M  V30 1516 H 142.897 0.857143 -4.12591 0
M  V30 1517 H 141.621 1.33721 -2.9797 0
M  V30 1518 H 140.28 -0.703754 -3.59782 0
M  V30 1519 H 139.928 1.45199 -4.81587 0
M  V30 1520 H 139.628 0.0519022 -5.87577 0
M  V30 1521 H 141.152 0.97179 -6.02817 0
M  V30 1522 H 142.566 -1.25764 -5.59336 0
M  V30 1523 H 140.963 -2.04739 -5.64094 0
M  V30 1524 H 142.033 -2.32544 -4.25501 0
M  V30 1525 N 143.376 1.44774 -0.622745 0
M  V30 1526 C 144.653 1.95522 -0.0551974 0
M  V30 1527 C 145.033 1.5649 1.41683 0
M  V30 1528 O 144.381 0.834848 2.12703 0
M  V30 1529 C 144.591 3.4796 -0.269242 0
M  V30 1530 C 145.939 4.24306 -0.158014 0
M  V30 1531 O 146.963 3.55637 -0.200162 0
M  V30 1532 O 145.822 5.46471 -0.0558693 0
M  V30 1533 H 142.916 0.826556 0.0271015 0
M  V30 1534 H 145.462 1.54866 -0.693864 0
M  V30 1535 H 144.234 3.6939 -1.29099 0
M  V30 1536 H 143.857 3.95543 0.403966 0
M  V30 1537 N 144.854 0.36279 1.53368 0
M  V30 1538 C 146.102 -0.227326 2.00817 0
M  V30 1539 C 146.423 -1.49511 1.25186 0
M  V30 1540 O 145.693 -1.92482 0.364348 0
M  V30 1541 H 144.273 -0.0869923 0.741917 0
M  V30 1542 H 146.935 0.488381 1.88682 0
M  V30 1543 H 146.031 -0.456273 3.08747 0
M  V30 1544 N 146.332 -1.57332 0.0918853 0
M  V30 1545 C 147.56 -1.98574 -0.581048 0
M  V30 1546 C 147.975 -0.970903 -1.61923 0
M  V30 1547 O 147.332 0.0399054 -1.82456 0
M  V30 1548 C 147.383 -3.39872 -1.23164 0
M  V30 1549 O 147.104 -4.37469 -0.234989 0
M  V30 1550 C 148.605 -3.96099 -1.99049 0
M  V30 1551 H 145.825 -0.65261 -0.156018 0
M  V30 1552 H 148.369 -2.0379 0.170225 0
M  V30 1553 H 146.524 -3.35679 -1.93386 0
M  V30 1554 H 146.938 -5.19751 -0.70418 0
M  V30 1555 H 148.412 -4.97127 -2.39934 0
M  V30 1556 H 148.889 -3.3374 -2.85507 0
M  V30 1557 H 149.495 -4.03755 -1.3365 0
M  V30 1558 N 147.81 0.181792 -1.56548 0
M  V30 1559 C 148.72 1.24538 -1.98815 0
M  V30 1560 C 149.736 1.49045 -0.897861 0
M  V30 1561 O 150.912 1.61399 -1.20467 0
M  V30 1562 C 147.977 2.56683 -2.33055 0
M  V30 1563 C 147.038 2.40131 -3.55859 0
M  V30 1564 C 146.271 3.65975 -3.88456 0
M  V30 1565 O 146.494 4.70711 -3.22161 0
M  V30 1566 O 145.428 3.6071 -4.81842 0
M  V30 1567 H 149.254 0.916647 -2.89536 0
M  V30 1568 H 146.839 0.387842 -1.44278 0
M  V30 1569 H 148.721 3.34655 -2.56094 0
M  V30 1570 H 147.396 2.89157 -1.45498 0
M  V30 1571 H 146.303 1.60226 -3.38051 0
M  V30 1572 H 147.636 2.12585 -4.43924 0
M  V30 1573 N 149.288 1.51039 0.449983 0
M  V30 1574 C 150.236 1.71995 1.5659 0
M  V30 1575 C 151.23 0.586029 1.5894 0
M  V30 1576 O 152.436 0.76709 1.62837 0
M  V30 1577 H 148.811 0.543233 0.520001 0
M  V30 1578 H 150.782 2.65562 1.36085 0
M  V30 1579 C 149.531 1.8506 2.9436 0
M  V30 1580 H 148.854 2.71712 2.93279 0
M  V30 1581 H 150.294 2.0374 3.71842 0
M  V30 1582 C 148.753 0.607277 3.31382 0
M  V30 1583 O 149.283 -0.243903 4.00959 0
M  V30 1584 N 147.489 0.455073 2.87015 0
M  V30 1585 H 147.036 1.14879 2.30566 0
M  V30 1586 H 146.994 -0.375611 3.12148 0
M  V30 1587 N 150.766 -0.704594 1.40972 0
M  V30 1588 C 151.713 -1.81862 1.42109 0
M  V30 1589 C 152.683 -1.63781 0.276593 0
M  V30 1590 O 153.868 -1.84759 0.4763 0
M  V30 1591 C 151.008 -3.19669 1.30022 0
M  V30 1592 C 150.121 -3.49246 2.54267 0
M  V30 1593 C 149.256 -4.76618 2.3454 0
M  V30 1594 C 148.295 -4.99133 3.54306 0
M  V30 1595 N 147.432 -6.17726 3.33706 0
M  V30 1596 H 152.272 -1.80226 2.37324 0
M  V30 1597 H 149.809 -0.880238 1.17857 0
M  V30 1598 H 151.767 -3.99263 1.21018 0
M  V30 1599 H 150.397 -3.20506 0.384192 0
M  V30 1600 H 149.449 -2.64125 2.73756 0
M  V30 1601 H 150.761 -3.61788 3.43381 0
M  V30 1602 H 149.915 -5.64249 2.22952 0
M  V30 1603 H 148.654 -4.66305 1.42867 0
M  V30 1604 H 147.659 -4.09953 3.66359 0
M  V30 1605 H 148.884 -5.11311 4.4692 0
M  V30 1606 H 146.83 -6.08642 2.44725 0
M  V30 1607 H 146.747 -6.30995 4.16391 0
M  V30 1608 H 148.015 -7.08115 3.25873 0
M  V30 1609 N 152.244 -1.26651 -0.937939 0
M  V30 1610 C 153.469 -1.15279 -1.72411 0
M  V30 1611 C 153.894 0.287866 -1.85884 0
M  V30 1612 O 153.252 1.20855 -1.35143 0
M  V30 1613 C 153.3 -1.83028 -3.10698 0
M  V30 1614 O 152.404 -1.12128 -3.96864 0
M  V30 1615 H 151.745 -0.401504 -0.528858 0
M  V30 1616 H 154.275 -1.67531 -1.1745 0
M  V30 1617 H 154.285 -1.89981 -3.6107 0
M  V30 1618 H 152.96 -2.87833 -3.00208 0
M  V30 1619 H 151.537 -1.13173 -3.55312 0
M  V30 1620 N 153.722 1.14298 -1.08507 0
M  V30 1621 C 154.669 2.19414 -0.715965 0
M  V30 1622 C 155.639 1.63399 0.298326 0
M  V30 1623 O 156.824 1.89929 0.182101 0
M  V30 1624 C 153.964 3.44845 -0.132534 0
M  V30 1625 C 153.077 4.15007 -1.19973 0
M  V30 1626 C 152.212 5.28024 -0.580048 0
M  V30 1627 C 151.251 5.9002 -1.62921 0
M  V30 1628 N 150.388 6.94485 -1.03125 0
M  V30 1629 H 155.228 2.50336 -1.61666 0
M  V30 1630 H 152.765 1.2293 -0.807882 0
M  V30 1631 H 154.723 4.16601 0.223454 0
M  V30 1632 H 153.353 3.14403 0.731467 0
M  V30 1633 H 152.405 3.41629 -1.67313 0
M  V30 1634 H 153.717 4.57178 -1.99473 0
M  V30 1635 H 152.871 6.06455 -0.172364 0
M  V30 1636 H 151.61 4.87076 0.246603 0
M  V30 1637 H 150.615 5.10291 -2.04654 0
M  V30 1638 H 151.84 6.33042 -2.45835 0
M  V30 1639 H 149.786 6.55612 -0.225711 0
M  V30 1640 H 149.703 7.35148 -1.76334 0
M  V30 1641 H 150.971 7.7679 -0.649458 0
M  V30 1642 N 155.201 0.870884 1.31352 0
M  V30 1643 C 156.448 0.482273 1.96673 0
M  V30 1644 C 156.776 -0.965638 1.68836 0
M  V30 1645 O 156.031 -1.69514 0.977937 0
M  V30 1646 C 156.33 0.687157 3.50732 0
M  V30 1647 C 155.996 2.108 3.9859 0
M  V30 1648 C 154.658 2.49656 4.1137 0
M  V30 1649 C 157.01 3.03459 4.23748 0
M  V30 1650 C 154.338 3.80412 4.46659 0
M  V30 1651 C 156.69 4.3373 4.60501 0
M  V30 1652 C 155.354 4.725 4.71487 0
M  V30 1653 H 154.624 0.176476 0.719679 0
M  V30 1654 H 157.271 1.10405 1.56471 0
M  V30 1655 H 155.576 -0.0177476 3.91796 0
M  V30 1656 H 157.273 0.366284 3.99324 0
M  V30 1657 H 153.863 1.79633 3.8914 0
M  V30 1658 H 158.047 2.74665 4.13368 0
M  V30 1659 H 153.303 4.1021 4.53362 0
M  V30 1660 H 157.477 5.05578 4.78919 0
M  V30 1661 H 155.104 5.73859 4.98588 0
M  V30 1662 N 156.679 -1.44442 0.630414 0
M  V30 1663 C 157.927 -2.01653 0.134351 0
M  V30 1664 C 158.248 -1.49836 -1.24796 0
M  V30 1665 O 157.518 -0.701684 -1.82902 0
M  V30 1666 H 156.098 -0.74554 0.0466769 0
M  V30 1667 H 158.76 -1.76952 0.816955 0
M  V30 1668 H 157.856 -3.11935 0.101498 0
M  V30 1669 N 158.157 -0.370918 -1.53173 0
M  V30 1670 C 159.12 0.460778 -2.24521 0
M  V30 1671 C 160.12 1.00536 -1.25496 0
M  V30 1672 O 161.31 0.890266 -1.49733 0
M  V30 1673 C 158.442 1.64457 -2.98608 0
M  V30 1674 H 159.635 -0.163613 -2.99453 0
M  V30 1675 H 157.188 -0.122699 -1.55818 0
M  V30 1676 H 157.923 2.30691 -2.2793 0
M  V30 1677 H 157.708 1.26099 -3.7127 0
M  V30 1678 H 159.198 2.23384 -3.5283 0
M  V30 1679 N 159.635 1.57281 -0.100228 0
M  V30 1680 C 160.583 2.15542 0.874328 0
M  V30 1681 C 161.577 1.09962 1.28859 0
M  V30 1682 O 162.783 1.28298 1.26252 0
M  V30 1683 H 159.158 0.689567 0.300003 0
M  V30 1684 H 161.129 2.96241 0.35829 0
M  V30 1685 C 159.878 2.75454 2.1218 0
M  V30 1686 H 159.201 3.56384 1.81193 0
M  V30 1687 H 160.641 3.19781 2.78417 0
M  V30 1688 C 159.1 1.71602 2.89921 0
M  V30 1689 O 159.63 1.15804 3.84646 0
M  V30 1690 N 157.836 1.41975 2.53558 0
M  V30 1691 H 157.383 1.87539 1.76598 0
M  V30 1692 H 157.341 0.727274 3.05873 0
M  V30 1693 N 161.113 -0.173488 1.56642 0
M  V30 1694 C 162.076 -1.19859 1.95362 0
M  V30 1695 C 163.076 -1.37296 0.83704 0
M  V30 1696 O 164.266 -1.34739 1.10413 0
M  V30 1697 C 161.398 -2.56405 2.24654 0
M  V30 1698 H 162.591 -0.867062 2.87092 0
M  V30 1699 H 160.144 -0.415853 1.50666 0
M  V30 1700 H 160.879 -2.94576 1.35631 0
M  V30 1701 H 160.664 -2.45115 3.06041 0
M  V30 1702 H 162.154 -3.30287 2.5554 0
M  V30 1703 N 162.591 -1.51276 -0.441967 0
M  V30 1704 C 163.84 -1.6295 -1.18871 0
M  V30 1705 C 164.153 -0.349312 -1.92456 0
M  V30 1706 O 165.359 -0.345355 -2.69295 0
M  V30 1707 C 163.815 -2.87759 -2.16155 0
M  V30 1708 C 163.423 -4.22764 -1.48239 0
M  V30 1709 C 165.167 -3.08788 -2.91291 0
M  V30 1710 C 163.074 -5.38728 -2.4398 0
M  V30 1711 H 162.004 -0.606913 -0.447406 0
M  V30 1712 H 164.655 -1.77739 -0.456205 0
M  V30 1713 H 163.037 -2.66593 -2.92821 0
M  V30 1714 H 164.211 -4.54293 -0.771635 0
M  V30 1715 H 162.526 -4.07575 -0.852741 0
M  V30 1716 H 165.123 -3.92599 -3.63002 0
M  V30 1717 H 165.466 -2.21679 -3.5237 0
M  V30 1718 H 165.999 -3.30272 -2.21733 0
M  V30 1719 H 162.738 -6.28082 -1.87598 0
M  V30 1720 H 162.258 -5.1158 -3.13123 0
M  V30 1721 H 163.937 -5.70489 -3.05207 0
M  V30 1722 N 164.069 0.697108 -1.41344 0
M  V30 1723 C 164.999 1.82353 -1.45841 0
M  V30 1724 C 165.98 1.67115 -0.317247 0
M  V30 1725 O 167.165 1.86871 -0.528474 0
M  V30 1726 C 164.295 3.20476 -1.33838 0
M  V30 1727 C 163.249 3.50415 -2.4575 0
M  V30 1728 C 162.575 4.87878 -2.18813 0
M  V30 1729 C 163.875 3.49546 -3.88091 0
M  V30 1730 H 165.569 1.78846 -2.40113 0
M  V30 1731 H 163.115 0.859028 -1.15571 0
M  V30 1732 H 165.068 3.98988 -1.35596 0
M  V30 1733 H 163.792 3.24604 -0.360498 0
M  V30 1734 H 162.451 2.74253 -2.43271 0
M  V30 1735 H 162.099 4.8863 -1.19371 0
M  V30 1736 H 161.799 5.08875 -2.93803 0
M  V30 1737 H 163.323 5.68702 -2.22284 0
M  V30 1738 H 164.737 4.18066 -3.92293 0
M  V30 1739 H 163.134 3.82075 -4.62751 0
M  V30 1740 H 164.204 2.48552 -4.16353 0
M  V30 1741 N 165.547 1.27147 0.931209 0
M  V30 1742 C 166.795 1.13055 1.6752 0
M  V30 1743 C 167.116 -0.324791 1.92276 0
M  V30 1744 O 166.386 -1.22775 1.52654 0
M  V30 1745 H 164.966 0.415391 0.620854 0
M  V30 1746 H 167.628 1.59623 1.11833 0
M  V30 1747 H 166.724 1.65694 2.64485 0
M  V30 1748 N 167.025 -1.13721 1.09112 0
M  V30 1749 C 168.271 -1.85198 0.826414 0
M  V30 1750 C 168.604 -1.83129 -0.646319 0
M  V30 1751 O 167.879 -1.2671 -1.47563 0
M  V30 1752 C 168.162 -3.33507 1.35812 0
M  V30 1753 C 168.015 -3.44108 2.89672 0
M  V30 1754 C 169.334 -4.28838 0.989256 0
M  V30 1755 H 166.453 -0.67243 0.301675 0
M  V30 1756 H 169.095 -1.33499 1.35197 0
M  V30 1757 H 167.245 -3.77666 0.911082 0
M  V30 1758 H 168.917 -3.08684 3.428 0
M  V30 1759 H 167.16 -2.85087 3.26967 0
M  V30 1760 H 167.831 -4.48388 3.21951 0
M  V30 1761 H 170.307 -3.92734 1.37475 0
M  V30 1762 H 169.183 -5.31051 1.38838 0
M  V30 1763 H 169.444 -4.4198 -0.102924 0
M  V30 1764 N 168.503 -0.877838 -1.30888 0
M  V30 1765 C 169.728 -0.506629 -2.01117 0
M  V30 1766 C 170.153 0.895564 -1.65412 0
M  V30 1767 O 169.511 1.5923 -0.866922 0
M  V30 1768 C 169.559 -0.680223 -3.54126 0
M  V30 1769 O 168.663 0.277033 -4.11468 0
M  V30 1770 H 168.004 -0.200518 -0.633 0
M  V30 1771 H 170.534 -1.18342 -1.66902 0
M  V30 1772 H 170.544 -0.5765 -4.03907 0
M  V30 1773 H 169.219 -1.70261 -3.79452 0
M  V30 1774 H 167.796 0.127606 -3.72682 0
M  V30 1775 N 169.982 1.44106 -0.638065 0
M  V30 1776 C 170.912 2.33448 0.0494287 0
M  V30 1777 C 171.893 1.48606 0.827672 0
M  V30 1778 O 173.078 1.77308 0.792173 0
M  V30 1779 C 170.208 3.31771 1.02691 0
M  V30 1780 C 169.162 4.26485 0.359823 0
M  V30 1781 C 168.488 5.14729 1.44769 0
M  V30 1782 C 169.788 5.17056 -0.738296 0
M  V30 1783 H 171.482 2.91183 -0.696636 0
M  V30 1784 H 169.028 1.40014 -0.336456 0
M  V30 1785 H 170.981 3.93161 1.51666 0
M  V30 1786 H 169.705 2.7226 1.80395 0
M  V30 1787 H 168.364 3.66437 -0.10934 0
M  V30 1788 H 168.012 4.51566 2.21578 0
M  V30 1789 H 167.712 5.78913 1.00668 0
M  V30 1790 H 169.236 5.78991 1.93911 0
M  V30 1791 H 170.65 5.72342 -0.331354 0
M  V30 1792 H 169.047 5.89879 -1.10286 0
M  V30 1793 H 170.117 4.57652 -1.60258 0
M  V30 1794 N 171.46 0.379036 1.52974 0
M  V30 1795 C 172.423 -0.448865 2.24762 0
M  V30 1796 C 173.423 -0.998689 1.26027 0
M  V30 1797 O 174.613 -0.882313 1.50203 0
M  V30 1798 C 171.745 -1.62872 2.99476 0
M  V30 1799 H 172.938 0.179491 2.99362 0
M  V30 1800 H 170.491 0.13096 1.5575 0
M  V30 1801 H 171.226 -2.29479 2.29151 0
M  V30 1802 H 171.011 -1.24128 3.71934 0
M  V30 1803 H 172.501 -2.2151 3.5401 0
M  V30 1804 N 172.938 -1.57226 0.108567 0
M  V30 1805 C 174.184 -1.95121 -0.552761 0
M  V30 1806 C 174.517 -0.991345 -1.66991 0
M  V30 1807 O 173.792 -0.0267211 -1.94482 0
M  V30 1808 C 174.075 -3.43039 -1.09528 0
M  V30 1809 C 173.928 -4.49797 0.0177332 0
M  V30 1810 C 175.247 -3.92567 -1.98945 0
M  V30 1811 H 172.366 -0.709496 -0.199461 0
M  V30 1812 H 175.008 -1.89126 0.182011 0
M  V30 1813 H 173.158 -3.48279 -1.72146 0
M  V30 1814 H 174.83 -4.56661 0.652584 0
M  V30 1815 H 173.073 -4.284 0.682309 0
M  V30 1816 H 173.744 -5.50528 -0.402919 0
M  V30 1817 H 176.22 -3.89565 -1.46214 0
M  V30 1818 H 175.096 -4.96605 -2.33827 0
M  V30 1819 H 175.357 -3.32648 -2.91201 0
M  V30 1820 N 174.416 0.165178 -1.56732 0
M  V30 1821 C 175.656 0.887231 -1.8414 0
M  V30 1822 C 176.02 1.79159 -0.690353 0
M  V30 1823 O 177.221 2.55172 -0.845032 0
M  V30 1824 C 175.492 1.65674 -3.16681 0
M  V30 1825 S 177.051 2.42671 -3.6559 0
M  V30 1826 H 173.869 0.297042 -0.645978 0
M  V30 1827 H 176.471 0.148439 -1.94936 0
M  V30 1828 H 175.175 0.983507 -3.98441 0
M  V30 1829 H 174.706 2.43679 -3.08843 0
M  V30 1830 H 176.721 3.67499 -3.33406 0
M  V30 1831 N 175.894 1.51508 0.433938 0
M  V30 1832 C 176.841 1.73068 1.52696 0
M  V30 1833 C 177.811 0.572441 1.55924 0
M  V30 1834 O 178.996 0.807253 1.72882 0
M  V30 1835 C 176.136 1.86474 2.90381 0
M  V30 1836 C 175.249 3.14037 2.96656 0
M  V30 1837 C 174.384 3.18019 4.25485 0
M  V30 1838 C 173.423 4.39882 4.2564 0
M  V30 1839 N 172.56 4.41394 5.45999 0
M  V30 1840 H 177.4 2.66366 1.33615 0
M  V30 1841 H 174.937 1.32008 0.649018 0
M  V30 1842 H 176.895 1.92229 3.70275 0
M  V30 1843 H 175.525 0.965809 3.08013 0
M  V30 1844 H 174.577 3.17575 2.09404 0
M  V30 1845 H 175.889 4.0394 2.92633 0
M  V30 1846 H 175.043 3.22708 5.13755 0
M  V30 1847 H 173.782 2.2601 4.3217 0
M  V30 1848 H 172.787 4.35366 3.35763 0
M  V30 1849 H 174.012 5.33159 4.20617 0
M  V30 1850 H 171.958 3.52258 5.53399 0
M  V30 1851 H 171.875 5.25111 5.4387 0
M  V30 1852 H 173.143 4.50281 6.36292 0
M  V30 1853 N 177.372 -0.689602 1.41712 0
M  V30 1854 C 178.335 -1.78521 1.43746 0
M  V30 1855 C 179.335 -1.57436 0.327191 0
M  V30 1856 O 180.525 -1.64 0.587348 0
M  V30 1857 C 177.657 -3.16971 1.25467 0
M  V30 1858 H 178.85 -1.78108 2.41283 0
M  V30 1859 H 176.403 -0.89781 1.27942 0
M  V30 1860 H 177.138 -3.23019 0.287948 0
M  V30 1861 H 176.923 -3.33678 2.05917 0
M  V30 1862 H 178.413 -3.96935 1.2974 0
M  V30 1863 N 178.85 -1.27639 -0.924453 0
M  V30 1864 C 180.098 -1.13941 -1.66918 0
M  V30 1865 C 180.419 0.314589 -1.92446 0
M  V30 1866 O 179.689 1.21964 -1.53303 0
M  V30 1867 H 178.269 -0.418678 -0.618642 0
M  V30 1868 H 180.931 -1.60213 -1.10985 0
M  V30 1869 H 180.027 -1.67094 -2.63602 0
M  V30 1870 N 180.328 1.1314 -1.09713 0
M  V30 1871 C 181.291 2.16831 -0.742751 0
M  V30 1872 C 182.291 1.59159 0.229129 0
M  V30 1873 O 183.481 1.74199 0.00693237 0
M  V30 1874 C 180.613 3.40756 -0.0989168 0
M  V30 1875 H 181.806 2.49695 -1.66109 0
M  V30 1876 H 179.359 1.2802 -0.896699 0
M  V30 1877 H 180.094 3.13485 0.830514 0
M  V30 1878 H 179.879 3.83888 -0.798265 0
M  V30 1879 H 181.369 4.17386 0.133524 0
M  V30 1880 N 181.806 0.884767 1.30421 0
M  V30 1881 C 182.769 0.356277 2.26414 0
M  V30 1882 C 183.769 -0.501124 1.52792 0
M  V30 1883 O 184.959 -0.30831 1.7145 0
M  V30 1884 C 182.091 -0.492316 3.37326 0
M  V30 1885 H 183.284 1.20389 2.74675 0
M  V30 1886 H 180.837 0.661607 1.41607 0
M  V30 1887 H 181.572 -1.36052 2.94381 0
M  V30 1888 H 181.357 0.121832 3.91911 0
M  V30 1889 H 182.847 -0.853871 4.08777 0
M  V30 1890 N 183.284 -1.43765 0.645699 0
M  V30 1891 C 184.194 -2.34544 -0.0512957 0
M  V30 1892 C 185.21 -1.53455 -0.82022 0
M  V30 1893 O 186.386 -1.86133 -0.769176 0
M  V30 1894 C 183.451 -3.31636 -1.01087 0
M  V30 1895 C 182.512 -4.2863 -0.239712 0
M  V30 1896 C 181.745 -5.21084 -1.15358 0
M  V30 1897 O 181.968 -5.1779 -2.39269 0
M  V30 1898 O 180.902 -5.98593 -0.630038 0
M  V30 1899 H 184.728 -2.95624 0.695718 0
M  V30 1900 H 182.313 -1.43781 0.405882 0
M  V30 1901 H 184.195 -3.9136 -1.56254 0
M  V30 1902 H 182.87 -2.73069 -1.73824 0
M  V30 1903 H 181.777 -3.72408 0.355356 0
M  V30 1904 H 183.11 -4.90157 0.447936 0
M  V30 1905 N 184.763 -0.387143 -1.52771 0
M  V30 1906 C 185.71 0.449048 -2.26389 0
M  V30 1907 C 186.68 1.05961 -1.27912 0
M  V30 1908 O 187.865 1.08804 -1.56737 0
M  V30 1909 C 185.005 1.57155 -3.0724 0
M  V30 1910 C 184.118 0.984066 -4.20643 0
M  V30 1911 C 183.253 2.07745 -4.88892 0
M  V30 1912 C 182.292 1.46574 -5.94292 0
M  V30 1913 N 181.429 2.49834 -6.56146 0
M  V30 1914 H 186.269 -0.185205 -2.97424 0
M  V30 1915 H 183.806 -0.103164 -1.46738 0
M  V30 1916 H 185.764 2.23309 -3.52405 0
M  V30 1917 H 184.394 2.17615 -2.38419 0
M  V30 1918 H 183.446 0.212193 -3.79808 0
M  V30 1919 H 184.758 0.497029 -4.96318 0
M  V30 1920 H 183.912 2.81673 -5.3735 0
M  V30 1921 H 182.651 2.59807 -4.12737 0
M  V30 1922 H 181.656 0.711696 -5.45174 0
M  V30 1923 H 182.881 0.953088 -6.72379 0
M  V30 1924 H 180.827 3.0107 -5.82832 0
M  V30 1925 H 180.744 2.05879 -7.27427 0
M  V30 1926 H 182.012 3.23399 -7.09249 0
M  V30 1927 N 186.241 1.57166 -0.116904 0
M  V30 1928 C 187.489 1.94737 0.540533 0
M  V30 1929 C 187.81 1.00096 1.67349 0
M  V30 1930 O 187.08 0.0568854 1.95817 0
M  V30 1931 H 185.66 0.718981 0.202669 0
M  V30 1932 H 188.322 1.94017 -0.185353 0
M  V30 1933 H 187.418 2.97719 0.936483 0
M  V30 1934 N 187.719 -0.156864 1.56817 0
M  V30 1935 C 188.965 -0.872416 1.83076 0
M  V30 1936 C 189.298 -1.81261 0.697001 0
M  V30 1937 O 188.573 -1.92171 -0.30008 0
M  V30 1938 C 188.856 -1.65551 3.19789 0
M  V30 1939 C 188.709 -0.737467 4.43713 0
M  V30 1940 C 190.028 -2.62012 3.53606 0
M  V30 1941 H 187.147 -0.315715 0.665953 0
M  V30 1942 H 189.789 -0.138004 1.89498 0
M  V30 1943 H 187.939 -2.28159 3.14445 0
M  V30 1944 H 189.611 -0.123143 4.61136 0
M  V30 1945 H 187.854 -0.0464067 4.33775 0
M  V30 1946 H 188.525 -1.32122 5.35955 0
M  V30 1947 H 191.001 -2.09525 3.59497 0
M  V30 1948 H 189.877 -3.13861 4.50314 0
M  V30 1949 H 190.138 -3.42902 2.79053 0
M  V30 1950 N 189.197 -1.51736 -0.425897 0
M  V30 1951 C 190.608 -1.5732 -1.00536 0
M  V30 1952 C 190.959 -0.403537 -1.92005 0
M  V30 1953 O 190.084 0.478256 -2.11049 0
M  V30 1954 C 190.679 -2.85119 -1.8301 0
M  V30 1955 C 189.238 -2.93236 -2.35987 0
M  V30 1956 C 188.385 -2.52098 -1.15508 0
M  V30 1957 H 191.336 -1.57348 -0.206739 0
M  V30 1958 H 191.357 -2.69526 -2.68581 0
M  V30 1959 H 190.869 -3.7023 -1.16411 0
M  V30 1960 H 188.97 -2.12581 -3.06007 0
M  V30 1961 H 189.083 -3.9713 -2.68001 0
M  V30 1962 H 187.447 -2.05558 -1.50393 0
M  V30 1963 H 188.23 -3.39565 -0.505014 0
M  V30 1964 N 190.675 0.682077 -1.42076 0
M  V30 1965 C 191.605 1.80796 -1.47767 0
M  V30 1966 C 192.586 1.6677 -0.334954 0
M  V30 1967 O 193.771 1.863 -0.548264 0
M  V30 1968 C 190.901 3.19038 -1.37229 0
M  V30 1969 C 189.855 3.47789 -2.49453 0
M  V30 1970 C 189.181 4.8553 -2.23975 0
M  V30 1971 C 190.481 3.45411 -3.91776 0
M  V30 1972 H 192.175 1.7629 -2.41997 0
M  V30 1973 H 189.721 0.846721 -1.16476 0
M  V30 1974 H 191.674 3.97528 -1.39821 0
M  V30 1975 H 190.398 3.24204 -0.394907 0
M  V30 1976 H 189.057 2.71657 -2.46166 0
M  V30 1977 H 188.705 4.87337 -1.24547 0
M  V30 1978 H 188.405 5.0573 -2.99184 0
M  V30 1979 H 189.929 5.66312 -2.28304 0
M  V30 1980 H 191.343 4.13882 -3.96705 0
M  V30 1981 H 189.74 3.77145 -4.66778 0
M  V30 1982 H 190.81 2.44122 -4.18966 0
M  V30 1983 N 192.153 1.28127 0.917671 0
M  V30 1984 C 193.383 1.17722 1.6978 0
M  V30 1985 C 193.791 -0.267261 1.87303 0
M  V30 1986 O 193.134 -1.19286 1.39702 0
M  V30 1987 C 193.196 1.79958 3.11216 0
M  V30 1988 C 192.86 3.29187 3.16993 0
M  V30 1989 C 193.857 4.25679 2.98485 0
M  V30 1990 C 191.542 3.70075 3.39632 0
M  V30 1991 C 193.536 5.61035 3.02521 0
M  V30 1992 C 191.223 5.05557 3.433 0
M  V30 1993 C 192.221 6.00847 3.24764 0
M  V30 1994 O 191.909 7.33859 3.28187 0
M  V30 1995 H 191.641 0.409788 0.537634 0
M  V30 1996 H 194.195 1.69694 1.15728 0
M  V30 1997 H 192.425 1.22475 3.66793 0
M  V30 1998 H 194.114 1.64125 3.71238 0
M  V30 1999 H 194.88 3.95426 2.80826 0
M  V30 2000 H 190.759 2.96373 3.53106 0
M  V30 2001 H 194.303 6.35388 2.87971 0
M  V30 2002 H 190.2 5.35462 3.60486 0
M  V30 2003 H 190.968 7.42436 3.44575 0
M  V30 2004 N 193.631 -1.12557 1.10312 0
M  V30 2005 C 195.047 -1.36036 0.834649 0
M  V30 2006 C 195.247 -1.93946 -0.546539 0
M  V30 2007 O 194.303 -2.16484 -1.29966 0
M  V30 2008 C 195.616 -2.30312 1.9333 0
M  V30 2009 C 197.164 -2.43906 1.9616 0
M  V30 2010 C 197.639 -3.41496 3.05195 0
M  V30 2011 N 199.13 -3.49053 3.04494 0
M  V30 2012 C 199.865 -4.24471 3.85502 0
M  V30 2013 N 199.361 -5.02966 4.76442 0
M  V30 2014 N 201.154 -4.19864 3.73725 0
M  V30 2015 H 193.305 -0.733246 1.99342 0
M  V30 2016 H 195.568 -0.385234 0.866198 0
M  V30 2017 H 195.274 -1.94933 2.92735 0
M  V30 2018 H 195.148 -3.30421 1.81939 0
M  V30 2019 H 197.535 -2.78567 0.973886 0
M  V30 2020 H 197.616 -1.4369 2.11629 0
M  V30 2021 H 197.26 -3.07565 4.04186 0
M  V30 2022 H 197.19 -4.41539 2.86968 0
M  V30 2023 H 199.681 -2.93053 2.38596 0
M  V30 2024 H 199.994 -5.57846 5.34815 0
M  V30 2025 H 198.339 -5.02167 4.80472 0
M  V30 2026 H 201.53 -3.57623 3.02032 0
M  V30 2027 H 201.703 -4.78386 4.37093 0
M  V30 2028 N 195.109 -0.891671 -1.2995 0
M  V30 2029 C 196.059 -0.334811 -2.25528 0
M  V30 2030 C 197.043 0.540553 -1.51548 0
M  V30 2031 O 198.235 0.383882 -1.72787 0
M  V30 2032 C 195.364 0.44374 -3.4042 0
M  V30 2033 C 194.45 -0.44609 -4.21747 0
M  V30 2034 N 194.841 -1.54963 -4.81477 0
M  V30 2035 C 193.139 -0.242415 -4.45341 0
M  V30 2036 C 193.84 -2.10015 -5.42465 0
M  V30 2037 N 192.816 -1.39423 -5.25416 0
M  V30 2038 H 196.618 -1.17792 -2.69262 0
M  V30 2039 H 194.132 -0.741822 -1.44467 0
M  V30 2040 H 196.129 0.859362 -4.07947 0
M  V30 2041 H 194.789 1.28421 -2.98225 0
M  V30 2042 H 195.8 -1.93244 -4.80497 0
M  V30 2043 H 192.477 0.560342 -4.13723 0
M  V30 2044 H 193.867 -3.02724 -5.9984 0
M  V30 2045 N 196.587 1.43421 -0.653314 0
M  V30 2046 C 197.836 2.01032 -0.164076 0
M  V30 2047 C 198.149 1.52147 1.22926 0
M  V30 2048 O 199.355 2.02031 1.81371 0
M  V30 2049 C 197.811 3.59082 -0.24252 0
M  V30 2050 C 197.419 4.1696 -1.63855 0
M  V30 2051 C 199.163 4.24079 0.18911 0
M  V30 2052 C 197.07 5.67304 -1.67092 0
M  V30 2053 H 196 0.751798 -0.0575769 0
M  V30 2054 H 198.651 1.6439 -0.815362 0
M  V30 2055 H 197.033 3.93125 0.476276 0
M  V30 2056 H 198.207 3.94416 -2.38271 0
M  V30 2057 H 196.522 3.64335 -2.01616 0
M  V30 2058 H 199.119 5.34381 0.184775 0
M  V30 2059 H 199.462 3.98005 1.22056 0
M  V30 2060 H 199.995 3.94918 -0.477938 0
M  V30 2061 H 196.734 5.98145 -2.68146 0
M  V30 2062 H 196.254 5.91904 -0.970014 0
M  V30 2063 H 197.933 6.31344 -1.4147 0
M  V30 2064 N 198.065 0.39524 1.52563 0
M  V30 2065 C 199.028 -0.425001 2.25225 0
M  V30 2066 C 200.028 -0.985266 1.27079 0
M  V30 2067 O 201.218 -0.866332 1.5113 0
M  V30 2068 C 198.35 -1.59686 3.01186 0
M  V30 2069 H 199.543 0.211233 2.99155 0
M  V30 2070 H 197.096 0.147472 1.55603 0
M  V30 2071 H 197.831 -2.27035 2.31572 0
M  V30 2072 H 197.616 -1.20176 3.73229 0
M  V30 2073 H 199.106 -2.17743 3.5634 0
M  V30 2074 N 199.544 -1.57102 0.125237 0
M  V30 2075 C 200.821 -1.86953 -0.575142 0
M  V30 2076 C 201.201 -1.02749 -1.84407 0
M  V30 2077 O 200.549 -0.108144 -2.28244 0
M  V30 2078 C 200.759 -3.38198 -0.861583 0
M  V30 2079 C 202.107 -4.06937 -1.21192 0
M  V30 2080 O 203.131 -3.43252 -0.951645 0
M  V30 2081 O 201.99 -5.19364 -1.70068 0
M  V30 2082 H 199.084 -0.774147 -0.290906 0
M  V30 2083 H 201.63 -1.68942 0.160211 0
M  V30 2084 H 200.402 -3.91282 0.0373647 0
M  V30 2085 H 200.025 -3.61661 -1.65188 0
M  V30 2086 N 201.022 0.148545 -1.56898 0
M  V30 2087 C 201.952 1.18524 -2.01182 0
M  V30 2088 C 202.933 1.4489 -0.891123 0
M  V30 2089 O 204.118 1.55836 -1.15882 0
M  V30 2090 C 201.248 2.51879 -2.39112 0
M  V30 2091 C 200.202 2.40038 -3.54353 0
M  V30 2092 C 199.528 3.78089 -3.78091 0
M  V30 2093 C 200.828 1.88577 -4.87069 0
M  V30 2094 H 202.522 0.817029 -2.88036 0
M  V30 2095 H 200.068 0.391575 -1.38574 0
M  V30 2096 H 202.021 3.24627 -2.68692 0
M  V30 2097 H 200.745 2.90532 -1.49193 0
M  V30 2098 H 199.404 1.69742 -3.24936 0
M  V30 2099 H 199.052 4.14175 -2.85426 0
M  V30 2100 H 198.752 3.71028 -4.55645 0
M  V30 2101 H 200.276 4.52387 -4.10095 0
M  V30 2102 H 201.69 2.51117 -5.15377 0
M  V30 2103 H 200.087 1.9241 -5.68417 0
M  V30 2104 H 201.157 0.84136 -4.77545 0
M  V30 2105 N 202.5 1.5196 0.417844 0
M  V30 2106 C 203.463 1.74065 1.49111 0
M  V30 2107 C 204.463 0.610537 1.48758 0
M  V30 2108 O 205.653 0.87832 1.50437 0
M  V30 2109 C 202.785 1.81502 2.88565 0
M  V30 2110 H 203.978 2.69869 1.30807 0
M  V30 2111 H 201.531 1.42244 0.647785 0
M  V30 2112 H 202.266 0.875813 3.1225 0
M  V30 2113 H 202.051 2.63651 2.90225 0
M  V30 2114 H 203.541 2.00376 3.66387 0
M  V30 2115 N 203.978 -0.674533 1.42435 0
M  V30 2116 C 205.226 -1.43175 1.42637 0
M  V30 2117 C 205.547 -1.94951 0.0438992 0
M  V30 2118 O 204.817 -1.7308 -0.917607 0
M  V30 2119 H 203.397 -0.531307 0.525092 0
M  V30 2120 H 206.059 -0.797006 1.77859 0
M  V30 2121 H 205.155 -2.28463 2.12629 0
M  V30 2122 N 205.456 -1.28612 -0.910864 0
M  V30 2123 C 206.404 -1.1265 -2.03501 0
M  V30 2124 C 207.398 -0.0450054 -1.6934 0
M  V30 2125 O 208.604 -0.203988 -1.7884 0
M  V30 2126 H 204.979 -0.347639 -0.666822 0
M  V30 2127 H 206.95 -2.07849 -2.14106 0
M  V30 2128 C 205.699 -0.808143 -3.38178 0
M  V30 2129 H 205.022 -1.63231 -3.6496 0
M  V30 2130 H 206.462 -0.736426 -4.17556 0
M  V30 2131 C 204.921 0.488226 -3.33344 0
M  V30 2132 O 205.451 1.51766 -3.71927 0
M  V30 2133 N 203.657 0.490009 -2.86439 0
M  V30 2134 H 203.204 -0.348161 -2.55236 0
M  V30 2135 H 203.162 1.35741 -2.83587 0
M  V30 2136 N 206.934 1.1197 -1.10907 0
M  V30 2137 C 208.345 1.65114 -0.871446 0
M  V30 2138 C 208.696 1.86885 0.597353 0
M  V30 2139 O 207.821 1.59896 1.45816 0
M  V30 2140 C 208.416 2.99944 -1.5754 0
M  V30 2141 C 206.975 3.50018 -1.38435 0
M  V30 2142 C 206.122 2.24941 -1.62164 0
M  V30 2143 H 209.073 0.956851 -1.2661 0
M  V30 2144 H 209.094 3.66651 -1.01721 0
M  V30 2145 H 208.606 2.84067 -2.64438 0
M  V30 2146 H 206.707 3.71071 -0.337214 0
M  V30 2147 H 206.82 4.29165 -2.12965 0
M  V30 2148 H 205.184 2.3229 -1.04467 0
M  V30 2149 H 205.967 2.11612 -2.70324 0
M  V30 2150 N 208.412 0.89855 1.29475 0
M  V30 2151 C 209.689 0.443416 1.90508 0
M  V30 2152 C 210.069 -1.07685 1.81569 0
M  V30 2153 O 209.417 -1.9182 1.24166 0
M  V30 2154 C 209.627 0.956708 3.35631 0
M  V30 2155 C 210.975 0.999728 4.12663 0
M  V30 2156 O 211.999 0.904299 3.4453 0
M  V30 2157 O 210.858 1.14289 5.34416 0
M  V30 2158 H 207.952 0.138025 0.815401 0
M  V30 2159 H 210.498 0.98834 1.37949 0
M  V30 2160 H 209.27 2.00067 3.36287 0
M  V30 2161 H 208.893 0.391728 3.95666 0
M  V30 2162 N 209.89 -1.43072 0.660911 0
M  V30 2163 C 210.82 -2.33497 -0.0122829 0
M  V30 2164 C 211.801 -1.49903 -0.803925 0
M  V30 2165 O 212.986 -1.78546 -0.763864 0
M  V30 2166 C 210.116 -3.33363 -0.973994 0
M  V30 2167 C 209.07 -4.27003 -0.291928 0
M  V30 2168 C 208.396 -5.16967 -1.36562 0
M  V30 2169 C 209.696 -5.15816 0.820462 0
M  V30 2170 H 211.39 -2.90038 0.742873 0
M  V30 2171 H 208.936 -1.39461 0.358688 0
M  V30 2172 H 210.889 -3.95524 -1.45392 0
M  V30 2173 H 209.613 -2.75095 -1.7604 0
M  V30 2174 H 208.272 -3.66217 0.167623 0
M  V30 2175 H 207.92 -4.55034 -2.14366 0
M  V30 2176 H 207.62 -5.80441 -0.914454 0
M  V30 2177 H 209.144 -5.82003 -1.84675 0
M  V30 2178 H 210.558 -5.71742 0.422366 0
M  V30 2179 H 208.955 -5.8805 1.19656 0
M  V30 2180 H 210.025 -4.55045 1.67518 0
M  V30 2181 N 211.368 -0.403325 -1.52352 0
M  V30 2182 C 212.617 0.175668 -2.00934 0
M  V30 2183 C 212.93 1.46718 -1.29356 0
M  V30 2184 O 214.136 2.12708 -1.68724 0
M  V30 2185 C 212.592 0.363612 -3.58058 0
M  V30 2186 C 212.2 -0.915472 -4.38547 0
M  V30 2187 C 213.944 0.89821 -4.14888 0
M  V30 2188 C 211.851 -0.695035 -5.87302 0
M  V30 2189 H 210.781 0.0694234 -0.750797 0
M  V30 2190 H 213.432 -0.527879 -1.75743 0
M  V30 2191 H 211.814 1.12935 -3.79555 0
M  V30 2192 H 212.988 -1.68691 -4.28812 0
M  V30 2193 H 211.303 -1.37606 -3.93006 0
M  V30 2194 H 213.9 1.07907 -5.23699 0
M  V30 2195 H 214.243 1.87126 -3.71873 0
M  V30 2196 H 214.776 0.191681 -3.97338 0
M  V30 2197 H 211.515 -1.63948 -6.34666 0
M  V30 2198 H 211.035 0.0372116 -5.99788 0
M  V30 2199 H 212.714 -0.33497 -6.46132 0
M  V30 2200 N 212.846 1.57033 -0.133567 0
M  V30 2201 C 213.776 2.1909 0.807567 0
M  V30 2202 C 214.757 1.13517 1.26681 0
M  V30 2203 O 215.942 1.41809 1.32679 0
M  V30 2204 C 213.072 2.80188 2.05212 0
M  V30 2205 C 212.026 3.91471 1.73015 0
M  V30 2206 C 211.352 4.39443 3.04622 0
M  V30 2207 C 212.652 5.12886 0.987168 0
M  V30 2208 H 214.346 2.97988 0.290403 0
M  V30 2209 H 211.892 1.43335 0.138239 0
M  V30 2210 H 213.845 3.22264 2.71521 0
M  V30 2211 H 212.569 1.98601 2.59278 0
M  V30 2212 H 211.228 3.49993 1.0909 0
M  V30 2213 H 210.876 3.54695 3.56651 0
M  V30 2214 H 210.576 5.14495 2.83847 0
M  V30 2215 H 212.1 4.8418 3.72024 0
M  V30 2216 H 213.514 5.51891 1.55208 0
M  V30 2217 H 211.911 5.93615 0.87985 0
M  V30 2218 H 212.981 4.84894 -0.0235286 0
M  V30 2219 N 214.325 -0.140222 1.56975 0
M  V30 2220 C 215.736 -0.699596 1.73097 0
M  V30 2221 C 216.087 -1.8134 0.749022 0
M  V30 2222 O 215.212 -2.16241 -0.0828503 0
M  V30 2223 C 215.807 -1.27582 3.1386 0
M  V30 2224 C 214.366 -1.78169 3.31561 0
M  V30 2225 C 213.513 -0.672855 2.69013 0
M  V30 2226 H 216.464 0.0855115 1.58469 0
M  V30 2227 H 216.485 -2.14561 3.14235 0
M  V30 2228 H 215.997 -0.464955 3.85305 0
M  V30 2229 H 214.098 -2.61801 2.65124 0
M  V30 2230 H 214.211 -1.90574 4.39566 0
M  V30 2231 H 212.575 -1.10118 2.29665 0
M  V30 2232 H 213.358 0.126679 3.43066 0
M  V30 2233 N 215.803 -1.52179 -0.40978 0
M  V30 2234 C 217.049 -1.66453 -1.15851 0
M  V30 2235 C 217.382 -0.392972 -1.90182 0
M  V30 2236 O 216.657 0.608579 -1.84734 0
M  V30 2237 C 216.94 -2.88612 -2.15349 0
M  V30 2238 C 216.793 -4.25815 -1.44918 0
M  V30 2239 C 218.112 -3.06294 -3.16026 0
M  V30 2240 H 215.231 -0.60575 -0.419805 0
M  V30 2241 H 217.873 -1.84732 -0.444314 0
M  V30 2242 H 216.023 -2.73158 -2.76255 0
M  V30 2243 H 217.695 -4.52995 -0.871365 0
M  V30 2244 H 215.938 -4.27247 -0.751159 0
M  V30 2245 H 216.609 -5.07337 -2.17516 0
M  V30 2246 H 219.085 -3.20641 -2.65195 0
M  V30 2247 H 217.961 -3.93283 -3.8291 0
M  V30 2248 H 218.222 -2.19579 -3.83715 0
M  V30 2249 N 217.281 0.66697 -1.42791 0
M  V30 2250 C 218.692 1.2478 -1.38877 0
M  V30 2251 C 219.043 1.96012 -0.0859426 0
M  V30 2252 O 218.168 2.00463 0.815081 0
M  V30 2253 C 218.763 2.26938 -2.51564 0
M  V30 2254 C 217.322 2.80529 -2.50959 0
M  V30 2255 C 216.469 1.54965 -2.29959 0
M  V30 2256 H 219.42 0.459853 -1.51892 0
M  V30 2257 H 219.441 3.08834 -2.22265 0
M  V30 2258 H 218.953 1.75065 -3.46372 0
M  V30 2259 H 217.054 3.36502 -1.59991 0
M  V30 2260 H 217.167 3.29012 -3.48265 0
M  V30 2261 H 215.531 1.81817 -1.78366 0
M  V30 2262 H 216.314 1.05047 -3.26833 0
M  V30 2263 N 218.759 1.29093 0.90403 0
M  V30 2264 C 219.722 1.1386 1.98919 0
M  V30 2265 C 220.722 0.0753457 1.60623 0
M  V30 2266 O 221.912 0.321931 1.71199 0
M  V30 2267 C 219.044 0.740198 3.32767 0
M  V30 2268 H 220.237 2.10246 2.13861 0
M  V30 2269 H 217.79 1.12218 1.08797 0
M  V30 2270 H 218.525 -0.223997 3.23525 0
M  V30 2271 H 218.31 1.50838 3.61926 0
M  V30 2272 H 219.8 0.656546 4.12407 0
M  V30 2273 N 220.237 -1.11381 1.11499 0
M  V30 2274 C 221.484 -1.83132 0.864231 0
M  V30 2275 C 221.812 -1.84683 -0.610114 0
M  V30 2276 O 221.067 -1.29589 -1.46646 0
M  V30 2277 C 221.366 -3.30026 1.37177 0
M  V30 2278 C 221.032 -3.48634 2.85946 0
M  V30 2279 C 219.694 -3.53421 3.26569 0
M  V30 2280 C 222.046 -3.54837 3.81759 0
M  V30 2281 C 219.374 -3.61967 4.61733 0
M  V30 2282 C 221.726 -3.64915 5.1674 0
M  V30 2283 C 220.39 -3.67962 5.5692 0
M  V30 2284 H 219.66 -0.670127 0.316245 0
M  V30 2285 H 222.307 -1.31354 1.3935 0
M  V30 2286 H 220.612 -3.84304 0.762753 0
M  V30 2287 H 222.309 -3.84034 1.15408 0
M  V30 2288 H 218.899 -3.45579 2.53521 0
M  V30 2289 H 223.083 -3.50399 3.51474 0
M  V30 2290 H 218.339 -3.62603 4.92269 0
M  V30 2291 H 222.513 -3.68658 5.90816 0
M  V30 2292 H 220.14 -3.74336 6.61647 0
M  V30 2293 N 221.715 -0.905404 -1.28997 0
M  V30 2294 C 222.663 -0.377431 -2.29517 0
M  V30 2295 C 223.657 0.526461 -1.61012 0
M  V30 2296 O 224.863 0.40863 -1.753 0
M  V30 2297 H 221.238 -0.103437 -0.744852 0
M  V30 2298 H 223.209 -1.23848 -2.71485 0
M  V30 2299 C 221.958 0.374833 -3.45674 0
M  V30 2300 H 221.281 -0.311474 -3.98585 0
M  V30 2301 H 222.721 0.70903 -4.1803 0
M  V30 2302 C 221.18 1.57963 -2.97572 0
M  V30 2303 O 221.71 2.67886 -2.99333 0
M  V30 2304 N 219.916 1.42375 -2.53333 0
M  V30 2305 H 219.463 0.529466 -2.521 0
M  V30 2306 H 219.421 2.23117 -2.21509 0
M  V30 2307 N 223.193 1.4272 -0.668489 0
M  V30 2308 C 224.439 2.01923 -0.188419 0
M  V30 2309 C 224.772 1.52704 1.19979 0
M  V30 2310 O 224.047 0.726566 1.8042 0
M  V30 2311 C 224.33 3.59451 -0.216085 0
M  V30 2312 C 224.183 4.18864 -1.6393 0
M  V30 2313 C 225.502 4.37903 0.439179 0
M  V30 2314 H 222.621 0.733674 -0.0699412 0
M  V30 2315 H 225.263 1.69822 -0.852076 0
M  V30 2316 H 223.413 3.86929 0.349012 0
M  V30 2317 H 225.085 4.02362 -2.25616 0
M  V30 2318 H 223.328 3.74933 -2.18193 0
M  V30 2319 H 223.999 5.27987 -1.61039 0
M  V30 2320 H 226.475 4.16079 -0.0417878 0
M  V30 2321 H 225.351 5.47519 0.389157 0
M  V30 2322 H 225.612 4.15303 1.51577 0
M  V30 2323 N 224.671 0.411399 1.52136 0
M  V30 2324 C 225.92 -0.165009 2.01024 0
M  V30 2325 C 226.233 -1.4603 1.30133 0
M  V30 2326 O 227.439 -2.1181 1.69849 0
M  V30 2327 C 225.895 -0.344618 3.58246 0
M  V30 2328 C 225.503 0.938716 4.38055 0
M  V30 2329 C 227.247 -0.876195 4.15359 0
M  V30 2330 C 225.154 0.726172 5.86925 0
M  V30 2331 H 224.084 -0.0654407 0.751155 0
M  V30 2332 H 226.735 0.537192 1.75461 0
M  V30 2333 H 225.117 -1.10921 3.80148 0
M  V30 2334 H 226.291 1.70963 4.27912 0
M  V30 2335 H 224.606 1.39688 3.92271 0
M  V30 2336 H 227.203 -1.05128 5.24263 0
M  V30 2337 H 227.546 -1.85152 3.7286 0
M  V30 2338 H 228.079 -0.170607 3.97434 0
M  V30 2339 H 224.818 1.67312 6.33788 0
M  V30 2340 H 224.338 -0.00540283 5.998 0
M  V30 2341 H 226.017 0.369231 6.45946 0
M  V30 2342 N 226.149 -1.5696 0.141893 0
M  V30 2343 C 227.097 -2.17784 -0.816874 0
M  V30 2344 C 228.091 -1.1334 -1.25899 0
M  V30 2345 O 229.297 -1.316 -1.22806 0
M  V30 2346 H 225.672 -0.697278 -0.281615 0
M  V30 2347 H 227.643 -2.97087 -0.279621 0
M  V30 2348 C 226.392 -2.80983 -2.04802 0
M  V30 2349 H 225.715 -3.61062 -1.7168 0
M  V30 2350 H 227.155 -3.2705 -2.69841 0
M  V30 2351 C 225.614 -1.79228 -2.8527 0
M  V30 2352 O 226.144 -1.25962 -3.8144 0
M  V30 2353 N 224.35 -1.48647 -2.49704 0
M  V30 2354 H 223.897 -1.92155 -1.71564 0
M  V30 2355 H 223.855 -0.808115 -3.03837 0
M  V30 2356 N 227.627 0.131896 -1.57047 0
M  V30 2357 C 228.875 0.840269 -1.83804 0
M  V30 2358 C 229.196 1.81017 -0.72512 0
M  V30 2359 O 228.466 1.94272 0.251995 0
M  V30 2360 H 227.046 0.313294 -0.678127 0
M  V30 2361 H 229.708 0.122294 -1.94516 0
M  V30 2362 H 228.804 1.39335 -2.79271 0
M  V30 2363 N 229.106 1.52395 0.401703 0
M  V30 2364 C 230.354 1.66488 1.14569 0
M  V30 2365 C 230.675 0.400897 1.90835 0
M  V30 2366 O 229.945 -0.584415 1.8698 0
M  V30 2367 H 228.525 0.613672 0.425929 0
M  V30 2368 H 231.187 1.89464 0.457093 0
M  V30 2369 H 230.283 2.50942 1.85566 0
M  V30 2370 N 230.584 -0.659388 1.43143 0
M  V30 2371 C 231.809 -1.45221 1.48073 0
M  V30 2372 C 232.234 -1.87845 0.097995 0
M  V30 2373 O 231.592 -1.56985 -0.90694 0
M  V30 2374 C 231.64 -2.66748 2.42647 0
M  V30 2375 O 230.744 -3.65583 1.90848 0
M  V30 2376 H 230.085 -0.435669 0.501088 0
M  V30 2377 H 232.615 -0.807432 1.87994 0
M  V30 2378 H 232.625 -3.14637 2.59745 0
M  V30 2379 H 231.3 -2.35067 3.43098 0
M  V30 2380 H 229.877 -3.24693 1.83381 0
M  V30 2381 N 232.062 -1.29571 -0.897171 0
M  V30 2382 C 233.012 -1.11539 -1.98855 0
M  V30 2383 C 233.996 -0.0340716 -1.60864 0
M  V30 2384 O 235.188 -0.256062 -1.75138 0
M  V30 2385 C 232.317 -0.796603 -3.3393 0
M  V30 2386 C 231.403 -1.91758 -3.78272 0
M  V30 2387 N 231.794 -3.16143 -3.94826 0
M  V30 2388 C 230.092 -1.81119 -4.07568 0
M  V30 2389 C 230.793 -3.89293 -4.32233 0
M  V30 2390 N 229.769 -3.17255 -4.41419 0
M  V30 2391 H 233.571 -2.05894 -2.09726 0
M  V30 2392 H 231.085 -1.20732 -1.08616 0
M  V30 2393 H 233.082 -0.648459 -4.11826 0
M  V30 2394 H 231.742 0.139003 -3.24402 0
M  V30 2395 H 232.753 -3.5157 -3.80288 0
M  V30 2396 H 229.43 -0.948461 -4.06584 0
M  V30 2397 H 230.82 -4.9635 -4.52865 0
M  V30 2398 N 233.54 1.10788 -1.12088 0
M  V30 2399 C 234.503 2.15207 -0.788577 0
M  V30 2400 C 235.503 1.59609 0.195317 0
M  V30 2401 O 236.693 1.74174 -0.0300193 0
M  V30 2402 C 233.825 3.4047 -0.171174 0
M  V30 2403 H 235.018 2.46116 -1.71368 0
M  V30 2404 H 232.571 1.26089 -0.923652 0
M  V30 2405 H 233.306 3.15176 0.763832 0
M  V30 2406 H 233.091 3.82109 -0.879514 0
M  V30 2407 H 234.581 4.17576 0.04496 0
M  V30 2408 N 235.018 0.912232 1.28515 0
M  V30 2409 C 236.266 0.543523 1.94654 0
M  V30 2410 C 236.587 -0.9155 1.72173 0
M  V30 2411 O 235.857 -1.64708 1.06058 0
M  V30 2412 H 234.437 0.198017 0.720277 0
M  V30 2413 H 237.099 1.16126 1.56527 0
M  V30 2414 H 236.195 0.736684 3.03281 0
M  V30 2415 N 236.496 -1.42363 0.676048 0
M  V30 2416 C 237.444 -2.32596 -0.0131507 0
M  V30 2417 C 238.438 -1.49891 -0.789238 0
M  V30 2418 O 239.644 -1.65955 -0.697061 0
M  V30 2419 H 236.019 -0.751647 -0.0230481 0
M  V30 2420 H 237.99 -2.88421 0.765243 0
M  V30 2421 C 236.739 -3.34479 -0.949702 0
M  V30 2422 H 236.062 -3.98158 -0.361938 0
M  V30 2423 H 237.502 -4.00199 -1.4006 0
M  V30 2424 C 235.961 -2.66838 -2.05667 0
M  V30 2425 O 236.491 -2.50124 -3.14326 0
M  V30 2426 N 234.697 -2.25843 -1.82875 0
M  V30 2427 H 234.244 -2.39637 -0.945085 0
M  V30 2428 H 234.202 -1.80918 -2.5713 0
M  V30 2429 N 237.974 -0.419461 -1.51915 0
M  V30 2430 C 238.921 0.400927 -2.27291 0
M  V30 2431 C 239.891 1.03224 -1.30131 0
M  V30 2432 O 241.076 1.05455 -1.59009 0
M  V30 2433 C 238.216 1.50603 -3.10504 0
M  V30 2434 C 237.329 0.89462 -4.22635 0
M  V30 2435 C 236.464 1.97328 -4.93189 0
M  V30 2436 C 235.503 1.33935 -5.97267 0
M  V30 2437 N 234.64 2.3586 -6.61298 0
M  V30 2438 H 239.48 -0.248251 -2.96964 0
M  V30 2439 H 237.017 -0.134266 -1.46486 0
M  V30 2440 H 238.975 2.15783 -3.57062 0
M  V30 2441 H 237.605 2.12509 -2.42981 0
M  V30 2442 H 236.657 0.131583 -3.80172 0
M  V30 2443 H 237.969 0.391641 -4.9726 0
M  V30 2444 H 237.123 2.70211 -5.43204 0
M  V30 2445 H 235.862 2.50994 -4.18155 0
M  V30 2446 H 234.867 0.595896 -5.46561 0
M  V30 2447 H 236.092 0.810252 -6.74249 0
M  V30 2448 H 234.038 2.88639 -5.89087 0
M  V30 2449 H 233.955 1.90403 -7.3163 0
M  V30 2450 H 235.223 3.08282 -7.15949 0
M  V30 2451 N 239.452 1.56882 -0.150215 0
M  V30 2452 C 240.382 2.19935 0.784284 0
M  V30 2453 C 241.363 1.14854 1.25469 0
M  V30 2454 O 242.548 1.43209 1.31168 0
M  V30 2455 C 239.678 2.82349 2.02229 0
M  V30 2456 C 238.632 3.93285 1.68853 0
M  V30 2457 C 237.958 4.42649 2.99944 0
M  V30 2458 C 239.258 5.13904 0.932714 0
M  V30 2459 H 240.952 2.9828 0.258781 0
M  V30 2460 H 238.498 1.43473 0.123029 0
M  V30 2461 H 240.451 3.25126 2.68088 0
M  V30 2462 H 239.175 2.0134 2.57157 0
M  V30 2463 H 237.834 3.5113 1.05371 0
M  V30 2464 H 237.482 3.58458 3.52869 0
M  V30 2465 H 237.182 5.17476 2.78374 0
M  V30 2466 H 238.706 4.88099 3.66868 0
M  V30 2467 H 240.12 5.53506 1.49345 0
M  V30 2468 H 238.517 5.94515 0.81684 0
M  V30 2469 H 239.587 4.84842 -0.0749568 0
M  V30 2470 N 240.93 -0.123565 1.57115 0
M  V30 2471 C 241.893 -1.13583 1.99076 0
M  V30 2472 C 242.893 -1.34564 0.880296 0
M  V30 2473 O 244.083 -1.31158 1.14644 0
M  V30 2474 C 241.215 -2.49128 2.32698 0
M  V30 2475 H 242.408 -0.775287 2.89706 0
M  V30 2476 H 239.961 -0.36771 1.51913 0
M  V30 2477 H 240.696 -2.90111 1.44934 0
M  V30 2478 H 240.481 -2.35255 3.13684 0
M  V30 2479 H 241.971 -3.2199 2.65918 0
M  V30 2480 N 242.408 -1.52605 -0.393616 0
M  V30 2481 C 243.341 -1.71798 -1.50202 0
M  V30 2482 C 244.319 -0.565743 -1.52441 0
M  V30 2483 O 245.503 -0.794987 -1.70916 0
M  V30 2484 C 242.63 -1.7714 -2.88685 0
M  V30 2485 C 241.676 -2.98845 -3.04292 0
M  V30 2486 S 242.509 -4.58909 -2.75976 0
M  V30 2487 C 243.665 -4.6706 -4.1666 0
M  V30 2488 H 243.898 -2.65542 -1.33696 0
M  V30 2489 H 241.431 -1.42839 -0.586195 0
M  V30 2490 H 243.389 -1.80903 -3.68489 0
M  V30 2491 H 242.05 -0.844969 -3.02521 0
M  V30 2492 H 241.243 -2.99111 -4.05646 0
M  V30 2493 H 240.845 -2.9305 -2.32374 0
M  V30 2494 H 243.137 -4.45391 -5.10523 0
M  V30 2495 H 244.08 -5.6905 -4.21412 0
M  V30 2496 H 244.488 -3.95944 -4.02354 0
M  V30 2497 N 243.887 0.651787 -1.4349 0
M  V30 2498 C 244.819 1.77725 -1.44729 0
M  V30 2499 C 245.832 1.59141 -0.343231 0
M  V30 2500 O 247.021 1.67835 -0.607751 0
M  V30 2501 C 244.121 3.15172 -1.24579 0
M  V30 2502 C 243.294 3.60402 -2.47849 0
M  V30 2503 C 242.353 4.76656 -2.22902 0
M  V30 2504 O 241.379 4.86022 -2.96263 0
M  V30 2505 N 242.581 5.66958 -1.24656 0
M  V30 2506 H 245.346 1.77141 -2.41746 0
M  V30 2507 H 242.907 0.835678 -1.38665 0
M  V30 2508 H 244.899 3.90634 -1.0577 0
M  V30 2509 H 243.469 3.1052 -0.360015 0
M  V30 2510 H 242.689 2.75369 -2.82073 0
M  V30 2511 H 243.977 3.87368 -3.29884 0
M  V30 2512 H 243.375 5.62065 -0.640265 0
M  V30 2513 H 241.932 6.42135 -1.1183 0
M  V30 2514 N 245.365 1.30045 0.890287 0
M  V30 2515 C 246.275 1.17885 2.02831 0
M  V30 2516 C 247.291 0.0999609 1.73713 0
M  V30 2517 O 248.467 0.313867 1.98939 0
M  V30 2518 C 245.532 0.866079 3.35708 0
M  V30 2519 C 244.593 2.02979 3.78283 0
M  V30 2520 C 243.826 1.73184 5.0482 0
M  V30 2521 O 244.049 0.657237 5.66601 0
M  V30 2522 O 242.983 2.58267 5.43674 0
M  V30 2523 H 246.809 2.13474 2.16015 0
M  V30 2524 H 244.394 1.09587 1.01543 0
M  V30 2525 H 246.276 0.706623 4.15433 0
M  V30 2526 H 244.951 -0.0599443 3.23644 0
M  V30 2527 H 243.858 2.24454 2.99285 0
M  V30 2528 H 245.191 2.93734 3.94944 0
M  V30 2529 N 246.843 -1.10192 1.12674 0
M  V30 2530 C 248.09 -1.82205 0.883606 0
M  V30 2531 C 248.418 -1.8532 -0.590492 0
M  V30 2532 O 247.673 -1.31137 -1.45264 0
M  V30 2533 C 247.972 -3.28552 1.4067 0
M  V30 2534 C 247.638 -3.45582 2.89627 0
M  V30 2535 C 246.3 -3.49937 3.30299 0
M  V30 2536 C 248.652 -3.50768 3.85501 0
M  V30 2537 C 245.98 -3.57049 4.65546 0
M  V30 2538 C 248.332 -3.59414 5.20581 0
M  V30 2539 C 246.996 -3.62034 5.60792 0
M  V30 2540 H 246.266 -0.666735 0.323334 0
M  V30 2541 H 248.913 -1.29868 1.40736 0
M  V30 2542 H 247.218 -3.83473 0.80347 0
M  V30 2543 H 248.915 -3.82788 1.19475 0
M  V30 2544 H 245.505 -3.42871 2.57172 0
M  V30 2545 H 249.689 -3.46651 3.55171 0
M  V30 2546 H 244.945 -3.57361 4.96088 0
M  V30 2547 H 249.119 -3.62371 5.94693 0
M  V30 2548 H 246.746 -3.67298 6.6558 0
M  V30 2549 N 248.321 -0.919034 -1.28029 0
M  V30 2550 C 249.254 -0.355887 -2.25408 0
M  V30 2551 C 250.232 0.542874 -1.5327 0
M  V30 2552 O 251.416 0.485338 -1.82145 0
M  V30 2553 C 248.543 0.490759 -3.35126 0
M  V30 2554 C 247.589 -0.343358 -4.25116 0
M  V30 2555 S 248.422 -1.75344 -5.05979 0
M  V30 2556 C 249.578 -0.914244 -6.19187 0
M  V30 2557 H 249.811 -1.18123 -2.72826 0
M  V30 2558 H 247.344 -0.720636 -1.36551 0
M  V30 2559 H 249.302 0.973404 -3.98792 0
M  V30 2560 H 247.963 1.29054 -2.86363 0
M  V30 2561 H 247.156 0.304266 -5.03081 0
M  V30 2562 H 246.758 -0.759851 -3.662 0
M  V30 2563 H 249.05 -0.146282 -6.77342 0
M  V30 2564 H 249.993 -1.66661 -6.88208 0
M  V30 2565 H 250.401 -0.460082 -5.62622 0
M  V30 2566 N 249.799 1.42003 -0.683588 0
M  V30 2567 C 251.048 2.00638 -0.206681 0
M  V30 2568 C 251.361 1.5472 1.19671 0
M  V30 2569 O 252.567 2.05833 1.77045 0
M  V30 2570 C 251.023 3.58487 -0.318632 0
M  V30 2571 C 250.631 4.1339 -1.72663 0
M  V30 2572 C 252.375 4.24384 0.0991141 0
M  V30 2573 C 250.282 5.63633 -1.79087 0
M  V30 2574 H 249.212 0.750408 -0.0735107 0
M  V30 2575 H 251.863 1.62624 -0.850048 0
M  V30 2576 H 250.245 3.94047 0.392781 0
M  V30 2577 H 251.419 3.89273 -2.46583 0
M  V30 2578 H 249.734 3.59976 -2.09299 0
M  V30 2579 H 252.331 5.34652 0.0713833 0
M  V30 2580 H 252.674 4.00505 1.13586 0
M  V30 2581 H 253.207 3.93816 -0.561599 0
M  V30 2582 H 249.946 5.92323 -2.80774 0
M  V30 2583 H 249.466 5.89714 -1.09535 0
M  V30 2584 H 251.145 6.28201 -1.5483 0
M  V30 2585 N 251.277 0.427512 1.51691 0
M  V30 2586 C 252.207 -0.3796 2.30394 0
M  V30 2587 C 253.188 -1.02982 1.35384 0
M  V30 2588 O 254.373 -1.03534 1.643 0
M  V30 2589 C 251.503 -1.48649 3.1388 0
M  V30 2590 C 250.457 -0.960294 4.17088 0
M  V30 2591 C 249.783 -2.16219 4.89033 0
M  V30 2592 C 251.083 -0.00153679 5.223 0
M  V30 2593 H 252.777 0.277164 2.98114 0
M  V30 2594 H 250.323 0.134739 1.43368 0
M  V30 2595 H 252.276 -2.05826 3.67714 0
M  V30 2596 H 251 -2.1714 2.43962 0
M  V30 2597 H 249.659 -0.410806 3.64291 0
M  V30 2598 H 249.307 -2.83307 4.15628 0
M  V30 2599 H 249.007 -1.81654 5.58816 0
M  V30 2600 H 250.531 -2.73968 5.45687 0
M  V30 2601 H 251.945 -0.482687 5.71264 0
M  V30 2602 H 250.342 0.256199 5.99553 0
M  V30 2603 H 251.412 0.938174 4.75738 0
M  V30 2604 N 252.755 -1.56801 0.158532 0
M  V30 2605 C 254.166 -1.83189 -0.360366 0
M  V30 2606 C 254.517 -1.07778 -1.63946 0
M  V30 2607 O 253.642 -0.326718 -2.13919 0
M  V30 2608 C 254.237 -3.32297 -0.660595 0
M  V30 2609 C 252.796 -3.59227 -1.12398 0
M  V30 2610 C 251.943 -2.76877 -0.153097 0
M  V30 2611 H 254.894 -1.54008 0.383031 0
M  V30 2612 H 254.915 -3.4908 -1.51405 0
M  V30 2613 H 254.427 -3.87156 0.270527 0
M  V30 2614 H 252.528 -3.09766 -2.07064 0
M  V30 2615 H 252.641 -4.67632 -1.04197 0
M  V30 2616 H 251.005 -2.46319 -0.647983 0
M  V30 2617 H 251.788 -3.34511 0.77182 0
M  V30 2618 N 254.233 0.115231 -1.57178 0
M  V30 2619 C 255.479 0.82357 -1.85325 0
M  V30 2620 C 255.812 1.79349 -0.744814 0
M  V30 2621 O 255.087 1.92899 0.249024 0
M  V30 2622 C 255.37 1.57014 -3.24066 0
M  V30 2623 C 255.223 0.619565 -4.45513 0
M  V30 2624 C 256.542 2.52545 -3.60429 0
M  V30 2625 H 253.661 0.297948 -0.674089 0
M  V30 2626 H 256.303 0.0877138 -1.89797 0
M  V30 2627 H 254.453 2.19742 -3.20383 0
M  V30 2628 H 256.125 0.000837639 -4.613 0
M  V30 2629 H 254.368 -0.0686174 -4.33746 0
M  V30 2630 H 255.039 1.17866 -5.3927 0
M  V30 2631 H 257.515 1.9992 -3.64926 0
M  V30 2632 H 256.391 3.01811 -4.58477 0
M  V30 2633 H 256.652 3.35383 -2.88047 0
M  V30 2634 N 255.711 1.52812 0.385517 0
M  V30 2635 C 256.959 1.67694 1.12797 0
M  V30 2636 C 257.28 0.421115 1.90399 0
M  V30 2637 O 256.55 -0.564551 1.87589 0
M  V30 2638 H 255.13 0.618155 0.419396 0
M  V30 2639 H 257.792 1.89938 0.436972 0
M  V30 2640 H 256.888 2.52896 1.82894 0
M  V30 2641 N 257.189 -0.644168 1.43834 0
M  V30 2642 C 258.152 -1.73857 1.49353 0
M  V30 2643 C 259.152 -1.56315 0.377112 0
M  V30 2644 O 260.342 -1.62048 0.639226 0
M  V30 2645 C 257.474 -3.12819 1.35488 0
M  V30 2646 H 258.667 -1.70342 2.46827 0
M  V30 2647 H 256.22 -0.856652 1.30733 0
M  V30 2648 H 256.955 -3.2194 0.390569 0
M  V30 2649 H 256.74 -3.26958 2.16428 0
M  V30 2650 H 258.23 -3.92606 1.42302 0
M  V30 2651 N 258.668 -1.30515 -0.883378 0
M  V30 2652 C 259.893 -1.22487 -1.67367 0
M  V30 2653 C 260.318 0.208767 -1.86938 0
M  V30 2654 O 259.676 1.15015 -1.40148 0
M  V30 2655 C 259.724 -1.96041 -3.02655 0
M  V30 2656 O 258.828 -1.28859 -3.91751 0
M  V30 2657 H 258.169 -0.423573 -0.511353 0
M  V30 2658 H 260.699 -1.72362 -1.10239 0
M  V30 2659 H 260.709 -2.05124 -3.52687 0
M  V30 2660 H 259.384 -3.00307 -2.8773 0
M  V30 2661 H 257.961 -1.28141 -3.50192 0
M  V30 2662 N 260.146 1.09593 -1.13257 0
M  V30 2663 C 261.371 1.8604 -0.916732 0
M  V30 2664 C 261.796 1.80504 0.529146 0
M  V30 2665 O 261.154 1.18127 1.37534 0
M  V30 2666 C 261.202 3.32017 -1.40703 0
M  V30 2667 O 260.306 4.08141 -0.591153 0
M  V30 2668 H 259.647 0.576943 -0.328683 0
M  V30 2669 H 262.177 1.38405 -1.50682 0
M  V30 2670 H 262.187 3.82865 -1.4099 0
M  V30 2671 H 260.862 3.35361 -2.45979 0
M  V30 2672 H 259.439 3.67084 -0.656005 0
M  V30 2673 N 261.624 0.925811 1.2754 0
M  V30 2674 C 262.871 0.565255 1.94451 0
M  V30 2675 C 263.199 -0.89316 1.7278 0
M  V30 2676 O 262.454 -1.65213 1.04895 0
M  V30 2677 C 262.753 0.835296 3.47502 0
M  V30 2678 C 262.419 2.27515 3.89291 0
M  V30 2679 C 261.081 2.66879 4.00411 0
M  V30 2680 C 263.433 3.21158 4.10496 0
M  V30 2681 C 260.761 3.99014 4.30122 0
M  V30 2682 C 263.113 4.52871 4.4169 0
M  V30 2683 C 261.777 4.92072 4.51023 0
M  V30 2684 H 261.047 0.206841 0.711546 0
M  V30 2685 H 263.694 1.16942 1.51647 0
M  V30 2686 H 261.999 0.148442 3.91519 0
M  V30 2687 H 263.696 0.535322 3.97411 0
M  V30 2688 H 260.286 1.95976 3.81171 0
M  V30 2689 H 264.47 2.9195 4.01346 0
M  V30 2690 H 259.726 4.2907 4.35556 0
M  V30 2691 H 263.9 5.25436 4.57045 0
M  V30 2692 H 261.527 5.9449 4.738 0
M  V30 2693 N 263.102 -1.41638 0.69111 0
M  V30 2694 C 264.049 -2.30789 0.0229705 0
M  V30 2695 C 265.019 -1.46863 -0.775911 0
M  V30 2696 O 266.204 -1.75661 -0.74485 0
M  V30 2697 C 263.344 -3.32868 -0.910666 0
M  V30 2698 C 262.457 -4.31875 -0.103874 0
M  V30 2699 C 261.592 -5.21024 -1.03475 0
M  V30 2700 C 260.631 -6.11702 -0.220598 0
M  V30 2701 N 259.768 -6.93349 -1.10504 0
M  V30 2702 H 264.608 -2.87366 0.788978 0
M  V30 2703 H 262.145 -1.41535 0.400794 0
M  V30 2704 H 264.103 -3.90596 -1.46597 0
M  V30 2705 H 262.733 -2.77851 -1.64312 0
M  V30 2706 H 261.785 -3.76131 0.568285 0
M  V30 2707 H 263.097 -4.96003 0.527504 0
M  V30 2708 H 262.251 -5.83565 -1.65943 0
M  V30 2709 H 260.99 -4.57112 -1.69999 0
M  V30 2710 H 259.995 -5.48215 0.417187 0
M  V30 2711 H 261.22 -6.77668 0.440784 0
M  V30 2712 H 259.166 -6.3205 -1.75638 0
M  V30 2713 H 259.083 -7.54146 -0.529125 0
M  V30 2714 H 260.351 -7.60362 -1.71667 0
M  V30 2715 N 264.58 -0.43555 -1.51462 0
M  V30 2716 C 265.49 0.383001 -2.31453 0
M  V30 2717 C 266.506 1.02931 -1.4029 0
M  V30 2718 O 267.682 1.02507 -1.73362 0
M  V30 2719 C 264.747 1.47043 -3.13973 0
M  V30 2720 C 263.808 0.844433 -4.20913 0
M  V30 2721 C 263.041 1.88004 -4.9949 0
M  V30 2722 O 263.264 3.10199 -4.78678 0
M  V30 2723 O 262.198 1.47157 -5.83634 0
M  V30 2724 H 266.024 -0.269964 -3.02498 0
M  V30 2725 H 263.609 -0.19813 -1.4808 0
M  V30 2726 H 265.491 2.10113 -3.65281 0
M  V30 2727 H 264.166 2.10751 -2.45695 0
M  V30 2728 H 263.073 0.175729 -3.73687 0
M  V30 2729 H 264.406 0.250869 -4.9156 0
M  V30 2730 N 266.058 1.56714 -0.166846 0
M  V30 2731 C 267.021 2.16539 0.751232 0
M  V30 2732 C 268.021 1.11228 1.16125 0
M  V30 2733 O 269.211 1.36765 1.07894 0
M  V30 2734 C 266.343 2.74462 2.02196 0
M  V30 2735 H 267.536 2.99013 0.230499 0
M  V30 2736 H 265.089 1.56081 0.0826982 0
M  V30 2737 H 265.824 1.95709 2.58589 0
M  V30 2738 H 265.609 3.51527 1.73698 0
M  V30 2739 H 267.099 3.20489 2.67725 0
M  V30 2740 N 267.536 -0.106894 1.57237 0
M  V30 2741 C 268.469 -1.16125 1.96444 0
M  V30 2742 C 269.447 -1.3947 0.835871 0
M  V30 2743 O 270.631 -1.53425 1.09513 0
M  V30 2744 C 267.758 -2.51277 2.27107 0
M  V30 2745 C 266.804 -2.44285 3.4961 0
M  V30 2746 S 267.637 -1.87077 5.01759 0
M  V30 2747 C 268.793 -3.23877 5.35588 0
M  V30 2748 H 269.026 -0.826971 2.85567 0
M  V30 2749 H 266.559 -0.314124 1.51171 0
M  V30 2750 H 268.517 -3.29035 2.45451 0
M  V30 2751 H 267.178 -2.81879 1.38576 0
M  V30 2752 H 266.371 -3.4387 3.68469 0
M  V30 2753 H 265.973 -1.74652 3.30715 0
M  V30 2754 H 268.265 -4.20122 5.31511 0
M  V30 2755 H 269.208 -3.09833 6.36717 0
M  V30 2756 H 269.616 -3.22864 4.63054 0
M  V30 2757 N 269.014 -1.53014 -0.377408 0
M  V30 2758 C 270.43 -1.42523 -0.718281 0
M  V30 2759 C 270.63 -0.55487 -1.9371 0
M  V30 2760 O 269.686 -0.0327593 -2.52479 0
M  V30 2761 C 270.999 -2.85546 -0.942539 0
M  V30 2762 C 272.547 -2.95101 -1.04329 0
M  V30 2763 C 273.022 -4.3916 -1.3001 0
M  V30 2764 N 274.513 -4.42536 -1.36806 0
M  V30 2765 C 275.248 -5.51097 -1.58364 0
M  V30 2766 N 274.744 -6.69724 -1.77317 0
M  V30 2767 N 276.537 -5.38657 -1.60638 0
M  V30 2768 H 268.688 -2.08116 0.424426 0
M  V30 2769 H 270.951 -0.939352 0.127759 0
M  V30 2770 H 270.657 -3.51499 -0.118929 0
M  V30 2771 H 270.531 -3.28493 -1.85397 0
M  V30 2772 H 272.918 -2.29309 -1.85745 0
M  V30 2773 H 272.999 -2.55566 -0.109505 0
M  V30 2774 H 272.643 -5.05521 -0.490991 0
M  V30 2775 H 272.573 -4.76258 -2.24691 0
M  V30 2776 H 275.064 -3.57039 -1.23821 0
M  V30 2777 H 275.377 -7.48233 -1.93306 0
M  V30 2778 H 273.722 -6.72732 -1.74518 0
M  V30 2779 H 276.913 -4.44948 -1.45391 0
M  V30 2780 H 277.086 -6.2333 -1.77098 0
M  V30 2781 N 270.492 0.636531 -1.44174 0
M  V30 2782 C 271.741 1.39213 -1.45954 0
M  V30 2783 C 272.054 1.95374 -0.0939119 0
M  V30 2784 O 273.26 2.71498 0.0107767 0
M  V30 2785 C 271.716 2.52025 -2.56927 0
M  V30 2786 C 271.324 2.024 -3.99673 0
M  V30 2787 C 273.068 3.29269 -2.67922 0
M  V30 2788 C 270.975 3.12521 -5.0208 0
M  V30 2789 H 269.905 0.523132 -0.542999 0
M  V30 2790 H 272.556 0.685349 -1.70221 0
M  V30 2791 H 270.938 3.25253 -2.25891 0
M  V30 2792 H 272.112 1.36073 -4.40251 0
M  V30 2793 H 270.427 1.37987 -3.92872 0
M  V30 2794 H 273.024 4.11352 -3.41605 0
M  V30 2795 H 273.367 3.78397 -1.73555 0
M  V30 2796 H 273.9 2.63129 -2.98342 0
M  V30 2797 H 270.639 2.68343 -5.98057 0
M  V30 2798 H 270.159 3.77507 -4.66099 0
M  V30 2799 H 271.838 3.77385 -5.25538 0
M  V30 2800 N 271.97 1.30982 0.876444 0
M  V30 2801 C 273.218 1.20058 1.62575 0
M  V30 2802 C 273.539 -0.242947 1.93481 0
M  V30 2803 O 272.809 -1.1619 1.57724 0
M  V30 2804 H 271.389 0.44135 0.602677 0
M  V30 2805 H 274.051 1.64222 1.04962 0
M  V30 2806 H 273.147 1.76762 2.57219 0
M  V30 2807 N 273.449 -1.08991 1.13837 0
M  V30 2808 C 274.412 -2.13925 0.822715 0
M  V30 2809 C 275.412 -1.599 -0.1699 0
M  V30 2810 O 276.602 -1.74104 0.0577251 0
M  V30 2811 C 273.734 -3.40155 0.225318 0
M  V30 2812 H 274.927 -2.43358 1.75262 0
M  V30 2813 H 272.48 -1.24603 0.943594 0
M  V30 2814 H 273.215 -3.16352 -0.713594 0
M  V30 2815 H 273 -3.80661 0.940193 0
M  V30 2816 H 274.49 -4.17594 0.0214784 0
M  V30 2817 N 274.927 -0.932562 -1.27047 0
M  V30 2818 C 275.837 -0.441219 -2.30414 0
M  V30 2819 C 276.853 0.480525 -1.67233 0
M  V30 2820 O 278.029 0.362151 -1.98117 0
M  V30 2821 C 275.094 0.293651 -3.45454 0
M  V30 2822 C 274.155 -0.663601 -4.2414 0
M  V30 2823 C 273.388 0.0362932 -5.33688 0
M  V30 2824 O 273.611 1.2548 -5.56427 0
M  V30 2825 O 272.545 -0.638015 -5.98509 0
M  V30 2826 H 276.371 -1.29962 -2.74488 0
M  V30 2827 H 273.956 -0.6981 -1.32087 0
M  V30 2828 H 275.838 0.707951 -4.15411 0
M  V30 2829 H 274.513 1.12758 -3.03426 0
M  V30 2830 H 273.42 -1.12768 -3.56699 0
M  V30 2831 H 274.753 -1.46489 -4.69896 0
M  V30 2832 N 276.405 1.4127 -0.698611 0
M  V30 2833 C 277.651 2.01478 -0.231207 0
M  V30 2834 C 277.984 1.55215 1.16713 0
M  V30 2835 O 277.259 0.764672 1.78838 0
M  V30 2836 C 277.542 3.58912 -0.292281 0
M  V30 2837 C 277.395 4.15293 -1.72778 0
M  V30 2838 C 278.714 4.38736 0.346194 0
M  V30 2839 H 275.833 0.732025 -0.0854878 0
M  V30 2840 H 278.475 1.67977 -0.887906 0
M  V30 2841 H 276.625 3.87582 0.26686 0
M  V30 2842 H 278.297 3.97486 -2.341 0
M  V30 2843 H 276.54 3.7022 -2.26096 0
M  V30 2844 H 277.211 5.24452 -1.72202 0
M  V30 2845 H 279.687 4.15897 -0.130035 0
M  V30 2846 H 278.563 5.48221 0.272932 0
M  V30 2847 H 278.824 4.18425 1.42734 0
M  V30 2848 N 277.883 0.443576 1.51229 0
M  V30 2849 C 279.113 -0.119117 2.06256 0
M  V30 2850 C 279.521 -1.36471 1.31043 0
M  V30 2851 O 278.864 -1.80034 0.365151 0
M  V30 2852 C 278.926 -0.500546 3.55998 0
M  V30 2853 C 278.59 0.639125 4.52509 0
M  V30 2854 C 279.587 1.51311 4.97394 0
M  V30 2855 C 277.272 0.821632 4.95535 0
M  V30 2856 C 279.266 2.55425 5.83984 0
M  V30 2857 C 276.953 1.86603 5.81913 0
M  V30 2858 C 277.951 2.73072 6.26036 0
M  V30 2859 O 277.639 3.75718 7.10698 0
M  V30 2860 H 277.371 -0.00857665 0.675946 0
M  V30 2861 H 279.925 0.623288 1.95715 0
M  V30 2862 H 278.155 -1.29575 3.64345 0
M  V30 2863 H 279.844 -0.995116 3.93513 0
M  V30 2864 H 280.61 1.38367 4.64844 0
M  V30 2865 H 276.489 0.158149 4.60729 0
M  V30 2866 H 280.033 3.22949 6.18344 0
M  V30 2867 H 275.93 1.99564 6.13876 0
M  V30 2868 H 276.698 3.72374 7.2889 0
M  V30 2869 N 279.361 -1.56624 0.175154 0
M  V30 2870 C 280.311 -2.14747 -0.766004 0
M  V30 2871 C 281.295 -1.08275 -1.19018 0
M  V30 2872 O 282.487 -1.34388 -1.15191 0
M  V30 2873 C 279.616 -2.79478 -1.99366 0
M  V30 2874 C 278.702 -3.93114 -1.5913 0
M  V30 2875 N 279.093 -4.97752 -0.89872 0
M  V30 2876 C 277.391 -4.04345 -1.88204 0
M  V30 2877 C 278.092 -5.77473 -0.700012 0
M  V30 2878 N 277.068 -5.29207 -1.24263 0
M  V30 2879 H 280.87 -2.93015 -0.22793 0
M  V30 2880 H 278.384 -1.6238 -0.0253843 0
M  V30 2881 H 280.381 -3.19498 -2.67818 0
M  V30 2882 H 279.041 -2.02692 -2.53665 0
M  V30 2883 H 280.052 -5.14903 -0.556347 0
M  V30 2884 H 276.729 -3.38667 -2.44153 0
M  V30 2885 H 278.119 -6.71728 -0.152047 0
M  V30 2886 N 280.839 0.0985539 -1.57292 0
M  V30 2887 C 281.789 1.1261 -1.9825 0
M  V30 2888 C 282.773 1.35961 -0.860426 0
M  V30 2889 O 283.965 1.36711 -1.12424 0
M  V30 2890 C 281.094 2.44727 -2.40757 0
M  V30 2891 C 280.18 2.24764 -3.59642 0
M  V30 2892 N 280.571 1.74661 -4.74687 0
M  V30 2893 C 278.869 2.55344 -3.65672 0
M  V30 2894 C 279.57 1.68887 -5.56644 0
M  V30 2895 N 278.546 2.13976 -4.99715 0
M  V30 2896 H 282.348 0.731604 -2.84648 0
M  V30 2897 H 279.862 0.306029 -1.59491 0
M  V30 2898 H 281.859 3.19072 -2.68326 0
M  V30 2899 H 280.519 2.84917 -1.55733 0
M  V30 2900 H 281.53 1.43908 -4.97505 0
M  V30 2901 H 278.207 2.99081 -2.91302 0
M  V30 2902 H 279.597 1.3123 -6.5896 0
M  V30 2903 N 282.317 1.53212 0.369288 0
M  V30 2904 C 283.247 1.82365 1.45826 0
M  V30 2905 C 284.228 0.676907 1.56051 0
M  V30 2906 O 285.413 0.926401 1.70679 0
M  V30 2907 C 282.543 2.01023 2.83208 0
M  V30 2908 C 281.497 3.1678 2.8781 0
M  V30 2909 C 280.823 3.20724 4.27832 0
M  V30 2910 C 282.123 4.55447 2.55667 0
M  V30 2911 H 283.817 2.73559 1.21678 0
M  V30 2912 H 281.363 1.3163 0.583911 0
M  V30 2913 H 283.316 2.20001 3.59413 0
M  V30 2914 H 282.04 1.06536 3.08736 0
M  V30 2915 H 280.699 2.97616 2.14056 0
M  V30 2916 H 280.347 2.23882 4.50429 0
M  V30 2917 H 280.047 3.98496 4.31827 0
M  V30 2918 H 281.571 3.41881 5.05915 0
M  V30 2919 H 282.985 4.74611 3.21586 0
M  V30 2920 H 281.382 5.35432 2.70984 0
M  V30 2921 H 282.452 4.60812 1.5093 0
M  V30 2922 N 283.795 -0.628877 1.44509 0
M  V30 2923 C 284.742 -1.74074 1.51549 0
M  V30 2924 C 285.712 -1.62084 0.363021 0
M  V30 2925 O 286.897 -1.81975 0.573567 0
M  V30 2926 C 284.037 -3.12328 1.46784 0
M  V30 2927 C 283.15 -3.35277 2.72422 0
M  V30 2928 C 282.285 -4.63515 2.59475 0
M  V30 2929 C 281.324 -4.7965 3.80266 0
M  V30 2930 N 280.461 -5.99168 3.65981 0
M  V30 2931 H 285.301 -1.67392 2.46544 0
M  V30 2932 H 282.838 -0.816527 1.22357 0
M  V30 2933 H 284.796 -3.92286 1.42012 0
M  V30 2934 H 283.426 -3.18018 0.553544 0
M  V30 2935 H 282.478 -2.49242 2.87372 0
M  V30 2936 H 283.79 -3.43078 3.62076 0
M  V30 2937 H 282.944 -5.51638 2.52548 0
M  V30 2938 H 281.683 -4.58076 1.67384 0
M  V30 2939 H 280.688 -3.89957 3.87574 0
M  V30 2940 H 281.913 -4.86902 4.73395 0
M  V30 2941 H 279.859 -5.94814 2.76644 0
M  V30 2942 H 279.776 -6.08035 4.49254 0
M  V30 2943 H 281.044 -6.89846 3.6295 0
M  V30 2944 N 285.273 -1.31445 -0.869486 0
M  V30 2945 C 286.521 -1.20918 -1.61936 0
M  V30 2946 C 286.842 0.232683 -1.93607 0
M  V30 2947 O 286.112 1.15352 -1.58338 0
M  V30 2948 H 284.692 -0.44454 -0.600328 0
M  V30 2949 H 287.354 -1.64776 -1.0409 0
M  V30 2950 H 286.45 -1.78124 -2.56278 0
M  V30 2951 N 286.751 1.08385 -1.14413 0
M  V30 2952 C 287.997 1.81044 -0.913834 0
M  V30 2953 C 288.33 1.86004 0.558209 0
M  V30 2954 O 287.605 1.33606 1.4135 0
M  V30 2955 C 287.888 3.26648 -1.51569 0
M  V30 2956 C 287.741 3.29895 -3.0576 0
M  V30 2957 C 289.06 4.23629 -1.19273 0
M  V30 2958 H 286.179 0.65727 -0.333414 0
M  V30 2959 H 288.821 1.26896 -1.41412 0
M  V30 2960 H 286.971 3.72889 -1.09023 0
M  V30 2961 H 288.643 2.91977 -3.57137 0
M  V30 2962 H 286.886 2.69163 -3.40197 0
M  V30 2963 H 287.557 4.32516 -3.42977 0
M  V30 2964 H 290.033 3.85727 -1.56057 0
M  V30 2965 H 288.909 5.23822 -1.64017 0
M  V30 2966 H 289.17 4.41968 -0.108068 0
M  V30 2967 N 288.23 0.939286 1.26551 0
M  V30 2968 C 289.479 0.581601 1.93133 0
M  V30 2969 C 289.792 -0.883224 1.74524 0
M  V30 2970 O 290.998 -1.3502 2.35546 0
M  V30 2971 C 289.454 0.989425 3.46032 0
M  V30 2972 C 289.062 2.47573 3.73379 0
M  V30 2973 C 290.806 0.703544 4.18629 0
M  V30 2974 C 288.713 2.82235 5.19709 0
M  V30 2975 H 287.643 0.213803 0.723052 0
M  V30 2976 H 290.294 1.14167 1.4366 0
M  V30 2977 H 288.676 0.357902 3.94379 0
M  V30 2978 H 289.85 3.15614 3.35744 0
M  V30 2979 H 288.165 2.73471 3.1401 0
M  V30 2980 H 290.762 0.938869 5.26393 0
M  V30 2981 H 291.105 -0.359639 4.14744 0
M  V30 2982 H 291.638 1.2947 3.76141 0
M  V30 2983 H 288.377 3.87509 5.28694 0
M  V30 2984 H 287.897 2.18854 5.58447 0
M  V30 2985 H 289.576 2.70599 5.87695 0
M  V30 2986 N 289.708 -1.40897 0.706093 0
M  V30 2987 C 290.655 -2.30751 0.0474474 0
M  V30 2988 C 291.625 -1.47678 -0.76029 0
M  V30 2989 O 292.81 -1.76441 -0.726177 0
M  V30 2990 C 289.95 -3.33815 -0.875309 0
M  V30 2991 C 289.063 -4.31961 -0.0580623 0
M  V30 2992 C 288.198 -5.22093 -0.979425 0
M  V30 2993 C 287.237 -6.11902 -0.155706 0
M  V30 2994 N 286.374 -6.94482 -1.03144 0
M  V30 2995 H 291.214 -2.86513 0.819413 0
M  V30 2996 H 288.751 -1.41102 0.415783 0
M  V30 2997 H 290.709 -3.92129 -1.42446 0
M  V30 2998 H 289.339 -2.79579 -1.61356 0
M  V30 2999 H 288.391 -3.75507 0.608147 0
M  V30 3000 H 289.703 -4.95415 0.580082 0
M  V30 3001 H 288.857 -5.85292 -1.59744 0
M  V30 3002 H 287.596 -4.5889 -1.65141 0
M  V30 3003 H 286.601 -5.47742 0.475309 0
M  V30 3004 H 287.826 -6.77162 0.512635 0
M  V30 3005 H 285.772 -6.33877 -1.68924 0
M  V30 3006 H 285.689 -7.54665 -0.449108 0
M  V30 3007 H 286.957 -7.6214 -1.63593 0
M  V30 3008 N 291.186 -0.45159 -1.50991 0
M  V30 3009 C 292.149 0.341117 -2.26647 0
M  V30 3010 C 293.149 0.937422 -1.30649 0
M  V30 3011 O 294.339 0.809644 -1.54241 0
M  V30 3012 C 291.471 1.48398 -3.06905 0
M  V30 3013 H 292.664 -0.322117 -2.98165 0
M  V30 3014 H 290.217 -0.205122 -1.54948 0
M  V30 3015 H 290.952 2.18284 -2.39838 0
M  V30 3016 H 290.737 1.06241 -3.77432 0
M  V30 3017 H 292.227 2.04367 -3.64176 0
M  V30 3018 N 292.664 1.56529 -0.183458 0
M  V30 3019 C 293.611 2.18546 0.742055 0
M  V30 3020 C 294.581 1.12912 1.2182 0
M  V30 3021 O 295.766 1.41115 1.28418 0
M  V30 3022 C 292.906 2.83977 1.96089 0
M  V30 3023 C 292.019 4.04105 1.52719 0
M  V30 3024 C 291.154 4.57427 2.70063 0
M  V30 3025 C 290.193 5.69938 2.23243 0
M  V30 3026 N 289.33 6.17717 3.33722 0
M  V30 3027 H 294.17 2.97284 0.206432 0
M  V30 3028 H 291.707 1.46823 0.0901571 0
M  V30 3029 H 293.665 3.20077 2.67594 0
M  V30 3030 H 292.295 2.07822 2.47002 0
M  V30 3031 H 291.347 3.73745 0.708436 0
M  V30 3032 H 292.659 4.85513 1.1436 0
M  V30 3033 H 291.813 4.95772 3.49708 0
M  V30 3034 H 290.552 3.75101 3.11689 0
M  V30 3035 H 289.557 5.31133 1.42048 0
M  V30 3036 H 290.782 6.54073 1.82661 0
M  V30 3037 H 288.728 5.38317 3.74902 0
M  V30 3038 H 288.645 6.94146 2.99495 0
M  V30 3039 H 289.913 6.60713 4.13616 0
M  V30 3040 N 294.142 -0.090211 1.57342 0
M  V30 3041 C 295.372 -0.805055 1.90269 0
M  V30 3042 C 295.78 -1.72561 0.775842 0
M  V30 3043 O 295.123 -1.81839 -0.260843 0
M  V30 3044 C 295.185 -1.66734 3.18497 0
M  V30 3045 C 294.849 -0.918092 4.47683 0
M  V30 3046 C 295.846 -0.245674 5.19319 0
M  V30 3047 C 293.531 -0.890724 4.94339 0
M  V30 3048 C 295.525 0.444088 6.35851 0
M  V30 3049 C 293.212 -0.197179 6.10782 0
M  V30 3050 C 294.21 0.469044 6.81388 0
M  V30 3051 O 293.898 1.15146 7.95611 0
M  V30 3052 H 293.63 -0.235143 0.633785 0
M  V30 3053 H 296.184 -0.0703805 2.05279 0
M  V30 3054 H 294.414 -2.44437 2.99646 0
M  V30 3055 H 296.103 -2.25919 3.37217 0
M  V30 3056 H 296.869 -0.258246 4.84312 0
M  V30 3057 H 292.748 -1.39873 4.39268 0
M  V30 3058 H 296.292 0.964667 6.90898 0
M  V30 3059 H 292.189 -0.18247 6.45242 0
M  V30 3060 H 292.957 1.05885 8.11622 0
M  V30 3061 N 295.62 -1.53406 -0.361157 0
M  V30 3062 C 296.868 -1.69467 -1.10115 0
M  V30 3063 C 297.189 -0.451352 -1.89705 0
M  V30 3064 O 296.459 0.534636 -1.88463 0
M  V30 3065 H 295.039 -0.624749 -0.409508 0
M  V30 3066 H 297.701 -1.90609 -0.406699 0
M  V30 3067 H 296.797 -2.55774 -1.78847 0
M  V30 3068 N 297.098 0.621204 -1.44841 0
M  V30 3069 C 298.045 1.73267 -1.5247 0
M  V30 3070 C 299.015 1.6189 -0.371611 0
M  V30 3071 O 300.2 1.81668 -0.58321 0
M  V30 3072 C 297.34 3.11545 -1.48438 0
M  V30 3073 C 296.453 3.33827 -2.74196 0
M  V30 3074 C 295.588 4.62133 -2.61929 0
M  V30 3075 C 294.627 4.77627 -3.82804 0
M  V30 3076 N 293.764 5.97219 -3.69153 0
M  V30 3077 H 298.604 1.66082 -2.47428 0
M  V30 3078 H 296.141 0.810026 -1.22788 0
M  V30 3079 H 298.099 3.91528 -1.4409 0
M  V30 3080 H 296.729 3.1772 -0.570402 0
M  V30 3081 H 295.781 2.47715 -2.88689 0
M  V30 3082 H 297.093 3.41153 -3.6389 0
M  V30 3083 H 296.247 5.50291 -2.5547 0
M  V30 3084 H 294.986 4.57182 -1.69811 0
M  V30 3085 H 293.991 3.87896 -3.89637 0
M  V30 3086 H 295.216 4.84385 -4.75971 0
M  V30 3087 H 293.162 5.93339 -2.79794 0
M  V30 3088 H 293.079 6.05644 -4.52472 0
M  V30 3089 H 294.347 6.87912 -3.66603 0
M  V30 3090 N 298.576 1.31904 0.862503 0
M  V30 3091 C 299.853 1.12644 1.59908 0
M  V30 3092 C 300.233 -0.316104 2.0872 0
M  V30 3093 O 299.581 -1.31145 1.87118 0
M  V30 3094 C 299.791 2.1472 2.7513 0
M  V30 3095 C 301.139 2.47637 3.44907 0
M  V30 3096 O 302.163 2.13205 2.85346 0
M  V30 3097 O 301.022 3.06632 4.52371 0
M  V30 3098 H 298.116 0.43416 0.703871 0
M  V30 3099 H 300.662 1.43408 0.907314 0
M  V30 3100 H 299.434 3.1172 2.3653 0
M  V30 3101 H 299.057 1.84905 3.51989 0
M  V30 3102 N 300.054 -1.07777 1.14986 0
M  V30 3103 C 301.017 -2.13041 0.845358 0
M  V30 3104 C 302.017 -1.60071 -0.152931 0
M  V30 3105 O 303.207 -1.74033 0.0761879 0
M  V30 3106 C 300.339 -3.39896 0.261383 0
M  V30 3107 H 301.532 -2.41485 1.77834 0
M  V30 3108 H 299.085 -1.23595 0.956757 0
M  V30 3109 H 299.82 -3.17091 -0.68 0
M  V30 3110 H 299.605 -3.79642 0.980514 0
M  V30 3111 H 301.095 -4.17548 0.0657687 0
M  V30 3112 N 301.532 -0.945985 -1.26051 0
M  V30 3113 C 302.76 -0.613025 -1.9761 0
M  V30 3114 C 303.175 0.813035 -1.70397 0
M  V30 3115 O 302.532 1.54274 -0.974979 0
M  V30 3116 C 302.583 -0.85159 -3.51326 0
M  V30 3117 O 302.304 -2.22157 -3.77595 0
M  V30 3118 C 303.805 -0.529831 -4.40122 0
M  V30 3119 H 301.025 -0.230593 -0.630133 0
M  V30 3120 H 303.569 -1.268 -1.60443 0
M  V30 3121 H 301.724 -0.243151 -3.86636 0
M  V30 3122 H 302.138 -2.2852 -4.721 0
M  V30 3123 H 303.612 -0.747348 -5.46917 0
M  V30 3124 H 304.089 0.535341 -4.35925 0
M  V30 3125 H 304.695 -1.11721 -4.10364 0
M  V30 3126 N 303.011 1.40521 -0.713556 0
M  V30 3127 C 303.959 2.32549 -0.0485227 0
M  V30 3128 C 304.953 1.51931 0.74922 0
M  V30 3129 O 306.159 1.67745 0.652816 0
M  V30 3130 H 302.534 0.751994 0.00311138 0
M  V30 3131 H 304.505 2.86291 -0.841443 0
M  V30 3132 C 303.254 3.36879 0.860687 0
M  V30 3133 H 302.577 3.98978 0.256246 0
M  V30 3134 H 304.017 4.03772 1.294 0
M  V30 3135 C 302.476 2.72197 1.9852 0
M  V30 3136 O 303.006 2.5837 3.07584 0
M  V30 3137 N 301.212 2.30612 1.76823 0
M  V30 3138 H 300.759 2.42059 0.881217 0
M  V30 3139 H 300.717 1.87672 2.52243 0
M  V30 3140 N 304.489 0.459591 1.5075 0
M  V30 3141 C 305.735 -0.0994966 2.02556 0
M  V30 3142 C 306.068 -1.40399 1.3417 0
M  V30 3143 O 305.343 -1.88892 0.463683 0
M  V30 3144 C 305.626 -0.295242 3.58888 0
M  V30 3145 C 305.479 1.02947 4.37861 0
M  V30 3146 C 306.798 -1.05502 4.27267 0
M  V30 3147 H 303.917 -0.034686 0.736183 0
M  V30 3148 H 306.559 0.602938 1.8018 0
M  V30 3149 H 304.709 -0.893563 3.78084 0
M  V30 3150 H 306.381 1.66348 4.30263 0
M  V30 3151 H 304.624 1.62885 4.02058 0
M  V30 3152 H 305.295 0.846281 5.45474 0
M  V30 3153 H 307.771 -0.547993 4.12476 0
M  V30 3154 H 306.647 -1.16077 5.36486 0
M  V30 3155 H 306.908 -2.08875 3.89645 0
M  V30 3156 N 305.967 -1.56429 0.191757 0
M  V30 3157 C 307.215 -1.97095 -0.447006 0
M  V30 3158 C 307.536 -1.07967 -1.62383 0
M  V30 3159 O 306.806 -0.150248 -1.95323 0
M  V30 3160 H 305.386 -0.727832 -0.168135 0
M  V30 3161 H 308.048 -1.92911 0.27771 0
M  V30 3162 H 307.144 -3.01848 -0.793371 0
M  V30 3163 N 307.445 0.0818655 -1.57387 0
M  V30 3164 C 308.722 0.815343 -1.77796 0
M  V30 3165 C 309.102 1.96289 -0.77679 0
M  V30 3166 O 308.45 2.27691 0.192106 0
M  V30 3167 C 308.66 1.29765 -3.23978 0
M  V30 3168 C 310.008 1.7351 -3.8753 0
M  V30 3169 O 311.032 1.39356 -3.27808 0
M  V30 3170 O 309.891 2.36708 -4.92576 0
M  V30 3171 H 306.985 0.389914 -0.729312 0
M  V30 3172 H 309.531 0.0627213 -1.69584 0
M  V30 3173 H 308.303 0.47608 -3.88393 0
M  V30 3174 H 307.926 2.11189 -3.36875 0
M  V30 3175 N 308.923 1.53595 0.353017 0
M  V30 3176 C 309.833 1.83897 1.45667 0
M  V30 3177 C 310.849 0.728334 1.58023 0
M  V30 3178 O 312.025 1.01968 1.73679 0
M  V30 3179 C 309.09 2.03383 2.80778 0
M  V30 3180 C 308.151 3.27262 2.77845 0
M  V30 3181 C 307.384 3.45809 4.06512 0
M  V30 3182 O 307.607 2.68387 5.03314 0
M  V30 3183 O 306.541 4.39207 4.11559 0
M  V30 3184 H 310.367 2.77686 1.2298 0
M  V30 3185 H 307.952 1.39132 0.544308 0
M  V30 3186 H 309.834 2.17698 3.60812 0
M  V30 3187 H 308.509 1.12783 3.03417 0
M  V30 3188 H 307.416 3.18359 1.96465 0
M  V30 3189 H 308.749 4.17824 2.60161 0
M  V30 3190 N 310.401 -0.613514 1.45168 0
M  V30 3191 C 311.649 -1.36997 1.48581 0
M  V30 3192 C 311.97 -1.94589 0.126545 0
M  V30 3193 O 311.24 -1.76816 -0.843372 0
M  V30 3194 H 309.82 -0.508558 0.547154 0
M  V30 3195 H 312.482 -0.720853 1.81079 0
M  V30 3196 H 311.578 -2.1924 2.22127 0
M  V30 3197 N 311.879 -1.3236 -0.855495 0
M  V30 3198 C 313.127 -1.22629 -1.60644 0
M  V30 3199 C 313.448 0.212136 -1.93843 0
M  V30 3200 O 312.718 1.13666 -1.59552 0
M  V30 3201 H 311.298 -0.450882 -0.595579 0
M  V30 3202 H 313.96 -1.65871 -1.02337 0
M  V30 3203 H 313.056 -1.80832 -2.54374 0
M  V30 3204 N 313.357 1.07166 -1.15556 0
M  V30 3205 C 314.604 1.79798 -0.931604 0
M  V30 3206 C 314.932 1.8682 0.54115 0
M  V30 3207 O 314.187 1.34942 1.41736 0
M  V30 3208 C 314.486 3.24707 -1.49332 0
M  V30 3209 C 314.152 3.37781 -2.98688 0
M  V30 3210 C 312.814 3.41057 -3.39461 0
M  V30 3211 C 315.166 3.40424 -3.94665 0
M  V30 3212 C 312.494 3.4458 -4.74849 0
M  V30 3213 C 314.846 3.45485 -5.29927 0
M  V30 3214 C 313.51 3.47039 -5.70193 0
M  V30 3215 H 312.78 0.657928 -0.340898 0
M  V30 3216 H 315.427 1.26091 -1.44129 0
M  V30 3217 H 313.732 3.81208 -0.904859 0
M  V30 3218 H 315.429 3.79486 -1.29582 0
M  V30 3219 H 312.019 3.35932 -2.66172 0
M  V30 3220 H 316.203 3.37113 -3.64237 0
M  V30 3221 H 311.459 3.44083 -5.05388 0
M  V30 3222 H 315.633 3.46476 -6.04092 0
M  V30 3223 H 313.26 3.49522 -6.75084 0
M  V30 3224 N 314.835 0.952656 1.25548 0
M  V30 3225 C 315.798 0.475794 2.24207 0
M  V30 3226 C 316.798 -0.419428 1.55234 0
M  V30 3227 O 317.988 -0.216994 1.72843 0
M  V30 3228 C 315.12 -0.312814 3.39462 0
M  V30 3229 H 316.313 1.34779 2.67908 0
M  V30 3230 H 313.866 0.735739 1.37901 0
M  V30 3231 H 314.601 -1.20257 3.01179 0
M  V30 3232 H 314.386 0.329404 3.90714 0
M  V30 3233 H 315.876 -0.635986 4.12729 0
M  V30 3234 N 316.313 -1.40141 0.720998 0
M  V30 3235 C 317.724 -1.83678 0.334553 0
M  V30 3236 C 318.075 -1.6027 -1.13173 0
M  V30 3237 O 317.2 -1.08643 -1.87152 0
M  V30 3238 C 317.795 -3.33437 0.600437 0
M  V30 3239 C 316.354 -3.75447 0.267642 0
M  V30 3240 C 315.501 -2.63296 0.870097 0
M  V30 3241 H 318.452 -1.29331 0.919732 0
M  V30 3242 H 318.473 -3.80269 -0.132517 0
M  V30 3243 H 317.985 -3.50442 1.66768 0
M  V30 3244 H 316.086 -3.64035 -0.794329 0
M  V30 3245 H 316.199 -4.73344 0.74042 0
M  V30 3246 H 314.563 -2.52954 0.297739 0
M  V30 3247 H 315.346 -2.83112 1.94172 0
M  V30 3248 N 317.792 -0.46758 -1.50504 0
M  V30 3249 C 318.74 0.342482 -2.30065 0
M  V30 3250 C 319.734 0.993596 -1.37201 0
M  V30 3251 O 320.94 0.925102 -1.54408 0
M  V30 3252 H 317.315 0.129283 -0.740803 0
M  V30 3253 H 319.286 -0.34899 -2.96352 0
M  V30 3254 C 318.035 1.4139 -3.17654 0
M  V30 3255 H 317.358 0.922264 -3.89017 0
M  V30 3256 H 318.798 1.95335 -3.76325 0
M  V30 3257 C 317.257 2.4139 -2.35016 0
M  V30 3258 O 317.787 3.46586 -2.03079 0
M  V30 3259 N 315.993 2.13021 -1.97662 0
M  V30 3260 H 315.54 1.27499 -2.23834 0
M  V30 3261 H 315.498 2.80164 -1.42673 0
M  V30 3262 N 319.27 1.56325 -0.20005 0
M  V30 3263 C 320.519 1.96895 0.437652 0
M  V30 3264 C 320.832 1.08999 1.62415 0
M  V30 3265 O 322.038 1.39372 2.32997 0
M  V30 3266 C 320.494 3.50198 0.830025 0
M  V30 3267 C 320.102 4.46765 -0.332461 0
M  V30 3268 C 321.846 3.99526 1.43453 0
M  V30 3269 C 319.753 5.91344 0.0811468 0
M  V30 3270 H 318.683 0.735209 0.167282 0
M  V30 3271 H 321.334 1.81148 -0.292853 0
M  V30 3272 H 319.716 3.61467 1.61734 0
M  V30 3273 H 320.89 4.47231 -1.11 0
M  V30 3274 H 319.205 4.07657 -0.848789 0
M  V30 3275 H 321.802 5.05025 1.75652 0
M  V30 3276 H 322.145 3.44122 2.34277 0
M  V30 3277 H 322.678 3.91393 0.71109 0
M  V30 3278 H 319.417 6.50685 -0.793033 0
M  V30 3279 H 318.937 5.94121 0.823445 0
M  V30 3280 H 320.616 6.44945 0.515252 0
M  V30 3281 N 320.748 -0.0735177 1.57428 0
M  V30 3282 C 321.678 -1.0879 2.06608 0
M  V30 3283 C 322.659 -1.40473 0.959237 0
M  V30 3284 O 323.844 -1.5013 1.23185 0
M  V30 3285 C 320.974 -2.40183 2.50857 0
M  V30 3286 C 319.928 -2.22858 3.65402 0
M  V30 3287 C 319.254 -3.59619 3.957 0
M  V30 3288 C 320.554 -1.65123 4.95511 0
M  V30 3289 H 322.248 -0.678673 2.91607 0
M  V30 3290 H 319.794 -0.325013 1.40284 0
M  V30 3291 H 321.747 -3.11437 2.83874 0
M  V30 3292 H 320.471 -2.83083 1.62885 0
M  V30 3293 H 319.13 -1.54045 3.32664 0
M  V30 3294 H 318.778 -4.00086 3.04861 0
M  V30 3295 H 318.478 -3.48866 4.72828 0
M  V30 3296 H 320.002 -4.32306 4.31212 0
M  V30 3297 H 321.416 -2.26241 5.26771 0
M  V30 3298 H 319.813 -1.65071 5.7695 0
M  V30 3299 H 320.883 -0.612559 4.81015 0
M  V30 3300 N 322.226 -1.5378 -0.344866 0
M  V30 3301 C 323.136 -1.84667 -1.4469 0
M  V30 3302 C 324.152 -0.736704 -1.57635 0
M  V30 3303 O 325.328 -1.02888 -1.73136 0
M  V30 3304 C 322.393 -2.04869 -2.79696 0
M  V30 3305 C 321.454 -3.28731 -2.76106 0
M  V30 3306 C 320.687 -3.4796 -4.04673 0
M  V30 3307 O 320.91 -2.71052 -5.01883 0
M  V30 3308 O 319.844 -4.41383 -4.09224 0
M  V30 3309 H 323.67 -2.78334 -1.21506 0
M  V30 3310 H 321.255 -1.39418 -0.536921 0
M  V30 3311 H 323.137 -2.19609 -3.59652 0
M  V30 3312 H 321.812 -1.14391 -3.02814 0
M  V30 3313 H 320.719 -3.19396 -1.94774 0
M  V30 3314 H 322.052 -4.19198 -2.57941 0
M  V30 3315 N 323.704 0.605807 -1.45491 0
M  V30 3316 C 324.652 1.73754 -1.54636 0
M  V30 3317 C 325.646 1.64207 -0.416219 0
M  V30 3318 O 326.852 1.69979 -0.592199 0
M  V30 3319 H 323.227 0.574073 -0.485741 0
M  V30 3320 H 325.198 1.63169 -2.49837 0
M  V30 3321 C 323.947 3.12135 -1.53189 0
M  V30 3322 H 323.27 3.20141 -2.39478 0
M  V30 3323 H 324.71 3.91147 -1.63645 0
M  V30 3324 C 323.169 3.35921 -0.256616 0
M  V30 3325 O 323.699 3.96194 0.662798 0
M  V30 3326 N 321.905 2.90204 -0.151751 0
M  V30 3327 H 321.452 2.41336 -0.90081 0
M  V30 3328 H 321.41 3.06492 0.700699 0
M  V30 3329 N 325.182 1.32811 0.848464 0
M  V30 3330 C 326.13 1.22231 1.97895 0
M  V30 3331 C 327.124 0.125749 1.68933 0
M  V30 3332 O 328.33 0.289083 1.77663 0
M  V30 3333 H 324.705 0.379058 0.649476 0
M  V30 3334 H 326.676 2.17828 2.03945 0
M  V30 3335 C 325.425 0.968572 3.33937 0
M  V30 3336 H 324.748 1.80458 3.56756 0
M  V30 3337 H 326.188 0.934808 4.13567 0
M  V30 3338 C 324.647 -0.328628 3.35293 0
M  V30 3339 O 325.177 -1.33848 3.78745 0
M  V30 3340 N 323.383 -0.352788 2.88451 0
M  V30 3341 H 322.93 0.469541 2.53285 0
M  V30 3342 H 322.888 -1.22057 2.89741 0
M  V30 3343 N 326.66 -1.06551 1.16123 0
M  V30 3344 C 327.57 -2.17484 0.879662 0
M  V30 3345 C 328.586 -1.73377 -0.147104 0
M  V30 3346 O 329.762 -2.01379 0.0289128 0
M  V30 3347 C 326.827 -3.44591 0.381829 0
M  V30 3348 C 325.888 -4.0322 1.4735 0
M  V30 3349 C 325.121 -5.24261 0.999324 0
M  V30 3350 O 325.344 -5.70198 -0.151957 0
M  V30 3351 O 324.278 -5.74775 1.78653 0
M  V30 3352 H 328.104 -2.44075 1.80724 0
M  V30 3353 H 325.689 -1.16042 0.940992 0
M  V30 3354 H 327.571 -4.21254 0.111053 0
M  V30 3355 H 326.246 -3.19532 -0.51777 0
M  V30 3356 H 325.153 -3.2806 1.79798 0
M  V30 3357 H 326.486 -4.32568 2.34831 0
M  V30 3358 N 328.138 -0.959301 -1.25041 0
M  V30 3359 C 329.101 -0.487677 -2.23952 0
M  V30 3360 C 330.101 0.41119 -1.55454 0
M  V30 3361 O 331.291 0.207825 -1.72956 0
M  V30 3362 C 328.423 0.294807 -3.39623 0
M  V30 3363 H 329.616 -1.36198 -2.67189 0
M  V30 3364 H 327.169 -0.743042 -1.37508 0
M  V30 3365 H 327.904 1.18658 -3.01813 0
M  V30 3366 H 327.689 -0.35012 -3.90534 0
M  V30 3367 H 329.179 0.614089 -4.1306 0
M  V30 3368 N 329.616 1.39756 -0.72842 0
M  V30 3369 C 330.546 2.33289 -0.0991354 0
M  V30 3370 C 331.527 1.53568 0.731489 0
M  V30 3371 O 332.712 1.81987 0.677807 0
M  V30 3372 C 329.842 3.3763 0.813834 0
M  V30 3373 C 328.796 4.2791 0.0878663 0
M  V30 3374 C 328.122 5.22894 1.11741 0
M  V30 3375 C 329.422 5.11314 -1.06563 0
M  V30 3376 H 331.116 2.86163 -0.880408 0
M  V30 3377 H 328.662 1.37591 -0.424819 0
M  V30 3378 H 330.615 4.0201 1.26355 0
M  V30 3379 H 329.339 2.83181 1.62715 0
M  V30 3380 H 327.998 3.65 -0.342159 0
M  V30 3381 H 327.646 4.64744 1.92412 0
M  V30 3382 H 327.346 5.84143 0.636477 0
M  V30 3383 H 328.87 5.90151 1.56697 0
M  V30 3384 H 330.284 5.69076 -0.694671 0
M  V30 3385 H 328.681 5.81671 -1.47577 0
M  V30 3386 H 329.751 4.46534 -1.89038 0
M  V30 3387 N 331.094 0.475555 1.50254 0
M  V30 3388 C 332.004 -0.321501 2.32387 0
M  V30 3389 C 333.02 -0.991755 1.42969 0
M  V30 3390 O 334.196 -0.978747 1.76018 0
M  V30 3391 C 331.261 -1.38667 3.17762 0
M  V30 3392 C 330.322 -0.732538 4.23004 0
M  V30 3393 C 329.555 -1.74695 5.04299 0
M  V30 3394 O 329.778 -2.97399 4.86734 0
M  V30 3395 O 328.712 -1.31631 5.8733 0
M  V30 3396 H 332.538 0.350071 3.01676 0
M  V30 3397 H 330.123 0.237321 1.47503 0
M  V30 3398 H 332.005 -2.00354 3.70724 0
M  V30 3399 H 330.68 -2.04163 2.51196 0
M  V30 3400 H 329.587 -0.0765902 3.74022 0
M  V30 3401 H 330.92 -0.120452 4.92053 0
M  V30 3402 N 332.573 -1.56217 0.208337 0
M  V30 3403 C 333.503 -2.22694 -0.702116 0
M  V30 3404 C 334.484 -1.19432 -1.2112 0
M  V30 3405 O 335.669 -1.47978 -1.25762 0
M  V30 3406 C 332.799 -2.8966 -1.9161 0
M  V30 3407 C 331.753 -3.9928 -1.5414 0
M  V30 3408 C 331.079 -4.53476 -2.83308 0
M  V30 3409 C 332.379 -5.17012 -0.741339 0
M  V30 3410 H 334.073 -2.99034 -0.147898 0
M  V30 3411 H 331.619 -1.43831 -0.0696951 0
M  V30 3412 H 333.572 -3.34852 -2.55836 0
M  V30 3413 H 332.296 -2.10746 -2.49507 0
M  V30 3414 H 330.955 -3.54799 -0.922668 0
M  V30 3415 H 330.603 -3.71308 -3.39322 0
M  V30 3416 H 330.303 -5.27451 -2.58976 0
M  V30 3417 H 331.827 -5.01378 -3.485 0
M  V30 3418 H 333.241 -5.58667 -1.28699 0
M  V30 3419 H 331.638 -5.97137 -0.595627 0
M  V30 3420 H 332.708 -4.8423 0.254851 0
M  V30 3421 N 334.051 0.0651679 -1.57465 0
M  V30 3422 C 334.981 1.07693 -2.07182 0
M  V30 3423 C 335.962 1.39962 -0.966673 0
M  V30 3424 O 337.147 1.49475 -1.2398 0
M  V30 3425 C 334.277 2.3885 -2.52127 0
M  V30 3426 C 333.231 2.20917 -3.66579 0
M  V30 3427 C 332.557 3.57515 -3.97601 0
M  V30 3428 C 333.857 1.62493 -4.9638 0
M  V30 3429 H 335.551 0.663199 -2.91962 0
M  V30 3430 H 333.097 0.317569 -1.40455 0
M  V30 3431 H 335.05 3.09928 -2.85522 0
M  V30 3432 H 333.774 2.82215 -1.64384 0
M  V30 3433 H 332.433 1.52279 -3.33477 0
M  V30 3434 H 332.081 3.98463 -3.06979 0
M  V30 3435 H 331.781 3.46353 -4.74672 0
M  V30 3436 H 333.305 4.30013 -4.33499 0
M  V30 3437 H 334.719 2.23445 -5.27963 0
M  V30 3438 H 333.116 1.62009 -5.77818 0
M  V30 3439 H 334.186 0.587041 -4.81333 0
M  V30 3440 N 335.529 1.53961 0.336706 0
M  V30 3441 C 336.476 1.82428 1.41381 0
M  V30 3442 C 337.446 0.670444 1.51968 0
M  V30 3443 O 338.631 0.915565 1.67398 0
M  V30 3444 C 335.771 2.04564 2.77934 0
M  V30 3445 C 334.884 3.32267 2.76084 0
M  V30 3446 C 334.019 3.44434 4.04399 0
M  V30 3447 C 333.058 4.66061 3.96804 0
M  V30 3448 N 332.195 4.75224 5.16823 0
M  V30 3449 H 337.035 2.74324 1.16405 0
M  V30 3450 H 334.572 1.35869 0.563752 0
M  V30 3451 H 336.53 2.15388 3.57301 0
M  V30 3452 H 335.16 1.15974 3.01247 0
M  V30 3453 H 334.212 3.3025 1.88784 0
M  V30 3454 H 335.524 4.21733 2.66351 0
M  V30 3455 H 334.678 3.54728 4.92192 0
M  V30 3456 H 333.417 2.53037 4.16921 0
M  V30 3457 H 332.422 4.55838 3.07396 0
M  V30 3458 H 333.647 5.58829 3.85858 0
M  V30 3459 H 331.593 3.86739 5.29876 0
M  V30 3460 H 331.51 5.58636 5.09374 0
M  V30 3461 H 332.778 4.89835 6.06367 0
M  V30 3462 N 337.007 -0.598083 1.45811 0
M  V30 3463 C 338.235 -1.38322 1.53866 0
M  V30 3464 C 338.65 -1.87992 0.174479 0
M  V30 3465 O 338.007 -1.62756 -0.825627 0
M  V30 3466 C 338.058 -2.58125 2.53089 0
M  V30 3467 O 337.779 -2.10516 3.84206 0
M  V30 3468 C 339.28 -3.50869 2.70935 0
M  V30 3469 H 336.5 -0.423093 0.520801 0
M  V30 3470 H 339.044 -0.728527 1.91083 0
M  V30 3471 H 337.199 -3.19615 2.18917 0
M  V30 3472 H 337.613 -2.88425 4.38077 0
M  V30 3473 H 339.087 -4.31451 3.44317 0
M  V30 3474 H 339.564 -4.01822 1.77301 0
M  V30 3475 H 340.17 -2.95225 3.06141 0
M  V30 3476 N 338.485 -1.33259 -0.841409 0
M  V30 3477 C 339.448 -1.23221 -1.9326 0
M  V30 3478 C 340.448 -0.151895 -1.60081 0
M  V30 3479 O 341.638 -0.403246 -1.69468 0
M  V30 3480 C 338.77 -0.898123 -3.28856 0
M  V30 3481 H 339.963 -2.2021 -2.03587 0
M  V30 3482 H 337.516 -1.17281 -1.03319 0
M  V30 3483 H 338.251 0.0693841 -3.24226 0
M  V30 3484 H 338.036 -1.67934 -3.54317 0
M  V30 3485 H 339.526 -0.852563 -4.08805 0
M  V30 3486 N 339.963 1.05934 -1.16686 0
M  V30 3487 C 341.212 1.78188 -0.945085 0
M  V30 3488 C 341.525 1.88338 0.528021 0
M  V30 3489 O 342.731 2.57258 0.867799 0
M  V30 3490 C 341.187 3.20277 -1.64167 0
M  V30 3491 C 340.795 3.18281 -3.15279 0
M  V30 3492 C 342.539 3.97039 -1.502 0
M  V30 3493 C 340.446 4.55112 -3.7766 0
M  V30 3494 H 339.376 0.667866 -0.349959 0
M  V30 3495 H 342.027 1.18794 -1.39858 0
M  V30 3496 H 340.409 3.79952 -1.11589 0
M  V30 3497 H 341.583 2.68167 -3.74731 0
M  V30 3498 H 339.898 2.55018 -3.29173 0
M  V30 3499 H 342.495 4.98194 -1.94183 0
M  V30 3500 H 342.838 4.13845 -0.451461 0
M  V30 3501 H 343.371 3.43894 -1.99954 0
M  V30 3502 H 340.11 4.43512 -4.82677 0
M  V30 3503 H 339.63 5.05406 -3.22994 0
M  V30 3504 H 341.309 5.24064 -3.79428 0
M  V30 3505 N 341.441 0.965919 1.2453 0
M  V30 3506 C 342.373 0.452465 2.2469 0
M  V30 3507 C 343.386 -0.437821 1.56802 0
M  V30 3508 O 344.575 -0.244283 1.76821 0
M  V30 3509 C 341.675 -0.366258 3.36915 0
M  V30 3510 C 340.848 0.513701 4.34373 0
M  V30 3511 C 339.907 -0.248716 5.25612 0
M  V30 3512 O 338.933 0.356745 5.68081 0
M  V30 3513 N 340.135 -1.53877 5.59734 0
M  V30 3514 H 342.9 1.31361 2.69378 0
M  V30 3515 H 340.461 0.837541 1.38553 0
M  V30 3516 H 342.453 -0.884297 3.94921 0
M  V30 3517 H 341.023 -1.12832 2.91526 0
M  V30 3518 H 340.243 1.21273 3.75082 0
M  V30 3519 H 341.531 1.11391 4.96457 0
M  V30 3520 H 340.929 -2.05243 5.27154 0
M  V30 3521 H 339.486 -2.00254 6.20275 0
M  V30 3522 N 342.919 -1.39368 0.735821 0
M  V30 3523 C 343.882 -2.2896 0.104874 0
M  V30 3524 C 344.882 -1.46347 -0.666274 0
M  V30 3525 O 346.072 -1.67014 -0.49517 0
M  V30 3526 C 343.204 -3.29857 -0.860656 0
M  V30 3527 H 344.397 -2.86259 0.894205 0
M  V30 3528 H 341.95 -1.48029 0.501704 0
M  V30 3529 H 342.685 -2.77615 -1.67631 0
M  V30 3530 H 342.47 -3.9087 -0.310327 0
M  V30 3531 H 343.96 -3.96893 -1.29867 0
M  V30 3532 N 344.397 -0.483516 -1.5 0
M  V30 3533 C 345.36 0.292965 -2.2732 0
M  V30 3534 C 346.36 0.909499 -1.32608 0
M  V30 3535 O 347.55 0.776745 -1.55924 0
M  V30 3536 C 344.682 1.41854 -3.09984 0
M  V30 3537 H 345.875 -0.385289 -2.97415 0
M  V30 3538 H 343.428 -0.237942 -1.54478 0
M  V30 3539 H 344.163 2.13148 -2.44414 0
M  V30 3540 H 343.948 0.982114 -3.79601 0
M  V30 3541 H 345.438 1.96597 -3.68429 0
M  V30 3542 N 345.875 1.56104 -0.216619 0
M  V30 3543 C 347.123 1.97781 0.415593 0
M  V30 3544 C 347.444 1.10536 1.60645 0
M  V30 3545 O 346.714 0.181303 1.95059 0
M  V30 3546 H 345.294 0.730415 0.156534 0
M  V30 3547 H 347.956 1.92445 -0.308366 0
M  V30 3548 H 347.052 3.03072 0.74525 0
M  V30 3549 N 347.353 -0.0568162 1.57498 0
M  V30 3550 C 348.583 -0.764515 1.91934 0
M  V30 3551 C 348.991 -1.70877 0.81227 0
M  V30 3552 O 348.334 -1.82351 -0.222213 0
M  V30 3553 C 348.396 -1.5994 3.21962 0
M  V30 3554 C 348.06 -0.822925 4.4953 0
M  V30 3555 C 349.057 -0.135464 5.19723 0
M  V30 3556 C 346.742 -0.785666 4.96117 0
M  V30 3557 C 348.736 0.578861 6.34766 0
M  V30 3558 C 346.423 -0.0675784 6.11063 0
M  V30 3559 C 347.421 0.613471 6.80239 0
M  V30 3560 O 347.109 1.31996 7.92989 0
M  V30 3561 H 346.841 -0.221647 0.63863 0
M  V30 3562 H 349.395 -0.0268218 2.05382 0
M  V30 3563 H 347.625 -2.38026 3.04763 0
M  V30 3564 H 349.314 -2.18715 3.41934 0
M  V30 3565 H 350.08 -0.155458 4.84751 0
M  V30 3566 H 345.959 -1.30524 4.42136 0
M  V30 3567 H 349.503 1.111 6.88696 0
M  V30 3568 H 345.4 -0.0455636 6.45484 0
M  V30 3569 H 346.168 1.23077 8.09194 0
M  V30 3570 N 348.832 -1.54138 -0.328536 0
M  V30 3571 C 350.243 -1.63395 -0.903272 0
M  V30 3572 C 350.594 -0.524828 -1.8905 0
M  V30 3573 O 349.719 0.343068 -2.13663 0
M  V30 3574 C 350.314 -2.9618 -1.64507 0
M  V30 3575 C 348.873 -3.0765 -2.1686 0
M  V30 3576 C 348.02 -2.58933 -0.992416 0
M  V30 3577 H 350.971 -1.58344 -0.106253 0
M  V30 3578 H 350.992 -2.86061 -2.50897 0
M  V30 3579 H 350.504 -3.76884 -0.926302 0
M  V30 3580 H 348.605 -2.31611 -2.91868 0
M  V30 3581 H 348.718 -4.1337 -2.42202 0
M  V30 3582 H 347.082 -2.14706 -1.37016 0
M  V30 3583 H 347.865 -3.42089 -0.288041 0
M  V30 3584 N 350.31 0.590341 -1.46126 0
M  V30 3585 C 351.587 1.35029 -1.41515 0
M  V30 3586 C 351.967 2.10888 -0.0946472 0
M  V30 3587 O 351.315 2.08998 0.923693 0
M  V30 3588 C 351.525 2.28269 -2.63997 0
M  V30 3589 C 352.873 2.90338 -3.09821 0
M  V30 3590 O 353.897 2.38585 -2.64492 0
M  V30 3591 O 352.756 3.84321 -3.88535 0
M  V30 3592 H 349.85 0.606317 -0.562413 0
M  V30 3593 H 352.396 0.611994 -1.58281 0
M  V30 3594 H 351.168 1.71591 -3.51671 0
M  V30 3595 H 350.791 3.0945 -2.49652 0
M  V30 3596 N 351.788 1.33704 0.83433 0
M  V30 3597 C 352.735 1.24335 1.94447 0
M  V30 3598 C 353.705 0.120991 1.65659 0
M  V30 3599 O 354.89 0.300035 1.88426 0
M  V30 3600 C 352.03 0.993124 3.30501 0
M  V30 3601 C 351.143 2.20217 3.71657 0
M  V30 3602 C 350.278 1.88572 4.96602 0
M  V30 3603 C 349.317 3.05683 5.30306 0
M  V30 3604 N 348.454 2.73997 6.46429 0
M  V30 3605 H 353.294 2.1928 2.01792 0
M  V30 3606 H 350.831 1.09035 0.987404 0
M  V30 3607 H 352.789 0.828467 4.08892 0
M  V30 3608 H 351.419 0.0803902 3.227 0
M  V30 3609 H 350.471 2.47642 2.88752 0
M  V30 3610 H 351.783 3.07752 3.92543 0
M  V30 3611 H 350.937 1.68776 5.82752 0
M  V30 3612 H 349.676 0.982799 4.77695 0
M  V30 3613 H 348.681 3.26088 4.42659 0
M  V30 3614 H 349.906 3.96737 5.51159 0
M  V30 3615 H 347.852 1.86268 6.28999 0
M  V30 3616 H 347.769 3.55064 6.67432 0
M  V30 3617 H 349.037 2.57679 7.35678 0
M  V30 3618 N 353.266 -1.05314 1.17247 0
M  V30 3619 C 354.512 -1.78557 0.961513 0
M  V30 3620 C 354.845 -1.87419 -0.508697 0
M  V30 3621 O 354.12 -1.37307 -1.37757 0
M  V30 3622 C 354.403 -3.22514 1.60176 0
M  V30 3623 C 354.256 -3.21673 3.14399 0
M  V30 3624 C 355.575 -4.20318 1.30463 0
M  V30 3625 H 352.694 -0.6482 0.350723 0
M  V30 3626 H 355.336 -1.23102 1.44727 0
M  V30 3627 H 353.486 -3.69867 1.18871 0
M  V30 3628 H 355.158 -2.82405 3.64753 0
M  V30 3629 H 353.401 -2.60048 3.47214 0
M  V30 3630 H 354.072 -4.23271 3.54324 0
M  V30 3631 H 356.548 -3.81454 1.66229 0
M  V30 3632 H 355.424 -5.19289 1.77848 0
M  V30 3633 H 355.685 -4.41526 0.22521 0
M  V30 3634 N 354.744 -0.972509 -1.24016 0
M  V30 3635 C 355.99 -0.637978 -1.92504 0
M  V30 3636 C 356.323 0.825383 -1.75787 0
M  V30 3637 O 355.598 1.59442 -1.11393 0
M  V30 3638 C 355.881 -1.01942 -3.45369 0
M  V30 3639 C 355.734 -2.53983 -3.71231 0
M  V30 3640 C 357.053 -0.55751 -4.36555 0
M  V30 3641 H 354.172 -0.233248 -0.699117 0
M  V30 3642 H 356.814 -1.21238 -1.46292 0
M  V30 3643 H 354.964 -0.530656 -3.84859 0
M  V30 3644 H 356.636 -3.10374 -3.41271 0
M  V30 3645 H 354.879 -2.96968 -3.16216 0
M  V30 3646 H 355.55 -2.75723 -4.78206 0
M  V30 3647 H 358.026 -0.977029 -4.04467 0
M  V30 3648 H 356.902 -0.85292 -5.42233 0
M  V30 3649 H 357.163 0.542328 -4.38761 0
M  V30 3650 N 356.222 1.38976 -0.743202 0
M  V30 3651 C 357.471 1.99581 -0.291592 0
M  V30 3652 C 357.784 1.59656 1.13001 0
M  V30 3653 O 358.99 2.13157 1.68156 0
M  V30 3654 C 357.446 3.56813 -0.470391 0
M  V30 3655 C 357.054 4.05695 -1.90041 0
M  V30 3656 C 358.798 4.24423 -0.0809709 0
M  V30 3657 C 356.705 5.5553 -2.02832 0
M  V30 3658 H 355.635 0.746615 -0.105272 0
M  V30 3659 H 358.286 1.58872 -0.918258 0
M  V30 3660 H 356.668 3.95359 0.225299 0
M  V30 3661 H 357.842 3.78464 -2.62872 0
M  V30 3662 H 356.157 3.50775 -2.24379 0
M  V30 3663 H 358.754 5.34474 -0.155445 0
M  V30 3664 H 359.097 4.04962 0.96497 0
M  V30 3665 H 359.63 3.9108 -0.728124 0
M  V30 3666 H 356.369 5.79881 -3.05643 0
M  V30 3667 H 355.889 5.84537 -1.34448 0
M  V30 3668 H 357.568 6.21069 -1.81335 0
M  V30 3669 N 357.7 0.491464 1.49741 0
M  V30 3670 C 358.948 -0.0563141 2.02022 0
M  V30 3671 C 359.269 -1.38363 1.37407 0
M  V30 3672 O 358.539 -1.88702 0.526166 0
M  V30 3673 H 357.119 -0.0238014 0.746621 0
M  V30 3674 H 359.781 0.646533 1.83864 0
M  V30 3675 H 358.877 -0.192967 3.11503 0
M  V30 3676 N 359.178 -1.55987 0.224894 0
M  V30 3677 C 360.111 -2.16413 -0.723929 0
M  V30 3678 C 361.089 -1.10952 -1.18863 0
M  V30 3679 O 362.273 -1.39225 -1.27077 0
M  V30 3680 C 359.4 -2.74711 -1.98121 0
M  V30 3681 C 358.446 -3.9303 -1.6562 0
M  V30 3682 S 359.279 -5.29817 -0.778058 0
M  V30 3683 C 360.435 -5.91555 -2.04483 0
M  V30 3684 H 360.668 -2.96555 -0.210347 0
M  V30 3685 H 358.201 -1.54397 0.00955457 0
M  V30 3686 H 360.159 -3.08938 -2.70311 0
M  V30 3687 H 358.82 -1.94555 -2.46591 0
M  V30 3688 H 358.013 -4.32334 -2.59043 0
M  V30 3689 H 357.615 -3.59966 -1.01491 0
M  V30 3690 H 359.907 -6.07732 -2.99446 0
M  V30 3691 H 360.85 -6.87498 -1.69563 0
M  V30 3692 H 361.258 -5.20419 -2.18688 0
M  V30 3693 N 360.656 0.0484629 -1.57525 0
M  V30 3694 C 361.933 0.777447 -1.79486 0
M  V30 3695 C 362.313 1.94597 -0.818251 0
M  V30 3696 O 361.661 2.28047 0.143767 0
M  V30 3697 C 361.871 1.22864 -3.26658 0
M  V30 3698 C 363.219 1.65251 -3.91123 0
M  V30 3699 O 364.243 1.32372 -3.3069 0
M  V30 3700 O 363.102 2.26207 -4.97486 0
M  V30 3701 H 360.196 0.374357 -0.737419 0
M  V30 3702 H 362.742 0.0267359 -1.69679 0
M  V30 3703 H 361.514 0.393589 -3.89316 0
M  V30 3704 H 361.137 2.03996 -3.41279 0
M  V30 3705 N 362.134 1.5431 0.320358 0
M  V30 3706 C 363.38 1.72924 1.05949 0
M  V30 3707 C 363.713 0.503185 1.87568 0
M  V30 3708 O 362.988 -0.499839 1.87968 0
M  V30 3709 C 363.271 3.00676 1.98156 0
M  V30 3710 C 363.124 4.3354 1.19845 0
M  V30 3711 C 364.443 3.24198 2.9763 0
M  V30 3712 H 361.562 0.629195 0.383774 0
M  V30 3713 H 364.204 1.87008 0.335854 0
M  V30 3714 H 362.354 2.888 2.59859 0
M  V30 3715 H 364.026 4.57305 0.605773 0
M  V30 3716 H 362.269 4.309 0.500784 0
M  V30 3717 H 362.94 5.19156 1.87567 0
M  V30 3718 H 365.416 3.35557 2.4605 0
M  V30 3719 H 364.292 4.14938 3.59329 0
M  V30 3720 H 364.553 2.41577 3.7026 0
M  V30 3721 N 363.613 -0.582584 1.46437 0
M  V30 3722 C 364.576 -1.67366 1.56592 0
M  V30 3723 C 365.576 -1.54575 0.443072 0
M  V30 3724 O 366.766 -1.59191 0.707381 0
M  V30 3725 C 363.898 -3.06791 1.48634 0
M  V30 3726 H 365.091 -1.5972 2.5383 0
M  V30 3727 H 362.644 -0.800432 1.34249 0
M  V30 3728 H 363.379 -3.19993 0.526763 0
M  V30 3729 H 363.164 -3.17484 2.30101 0
M  V30 3730 H 364.654 -3.86218 1.58826 0
M  V30 3731 N 365.091 -1.34144 -0.827227 0
M  V30 3732 C 366.054 -1.25264 -1.91942 0
M  V30 3733 C 367.054 -0.168866 -1.59911 0
M  V30 3734 O 368.244 -0.421198 -1.69031 0
M  V30 3735 C 365.376 -0.932952 -3.27885 0
M  V30 3736 H 366.569 -2.22357 -2.0124 0
M  V30 3737 H 364.122 -1.1837 -1.0207 0
M  V30 3738 H 364.857 0.0349917 -3.24281 0
M  V30 3739 H 364.642 -1.71682 -3.52516 0
M  V30 3740 H 366.132 -0.895874 -4.07877 0
M  V30 3741 N 366.569 1.04691 -1.17803 0
M  V30 3742 C 367.794 1.81984 -0.994813 0
M  V30 3743 C 368.219 1.82586 0.452112 0
M  V30 3744 O 367.577 1.23854 1.324 0
M  V30 3745 C 367.625 3.2575 -1.54659 0
M  V30 3746 O 366.729 4.05267 -0.763728 0
M  V30 3747 H 366.07 0.562483 -0.352857 0
M  V30 3748 H 368.6 1.3189 -1.56417 0
M  V30 3749 H 368.61 3.76541 -1.57102 0
M  V30 3750 H 367.285 3.24627 -2.59981 0
M  V30 3751 H 365.862 3.63972 -0.811108 0
M  V30 3752 N 368.047 0.979072 1.23499 0
M  V30 3753 C 368.957 0.526431 2.28617 0
M  V30 3754 C 369.973 -0.418126 1.68901 0
M  V30 3755 O 371.149 -0.288372 1.99325 0
M  V30 3756 C 368.214 -0.165235 3.46306 0
M  V30 3757 C 367.275 0.82056 4.21385 0
M  V30 3758 C 366.508 0.161807 5.33455 0
M  V30 3759 O 366.731 -1.04742 5.60701 0
M  V30 3760 O 365.665 0.859708 5.95729 0
M  V30 3761 H 369.491 1.4006 2.69475 0
M  V30 3762 H 367.076 0.746643 1.29405 0
M  V30 3763 H 368.958 -0.553287 4.17752 0
M  V30 3764 H 367.633 -1.01419 3.07402 0
M  V30 3765 H 366.54 1.25929 3.52268 0
M  V30 3766 H 367.873 1.63828 4.64135 0
M  V30 3767 N 369.525 -1.3858 0.750561 0
M  V30 3768 C 370.772 -2.00184 0.305373 0
M  V30 3769 C 371.1 -1.59575 -1.11203 0
M  V30 3770 O 370.355 -0.823236 -1.77542 0
M  V30 3771 C 370.654 -3.55455 0.372373 0
M  V30 3772 C 370.32 -4.15765 1.745 0
M  V30 3773 C 368.982 -4.31951 2.12065 0
M  V30 3774 C 371.334 -4.49067 2.64553 0
M  V30 3775 C 368.662 -4.78734 3.39162 0
M  V30 3776 C 371.014 -4.97265 3.91038 0
M  V30 3777 C 369.678 -5.11658 4.28676 0
M  V30 3778 H 368.948 -0.732526 0.111744 0
M  V30 3779 H 371.595 -1.65673 0.960451 0
M  V30 3780 H 369.9 -3.90084 -0.366272 0
M  V30 3781 H 371.597 -4.00999 0.00953918 0
M  V30 3782 H 368.187 -4.03579 1.44297 0
M  V30 3783 H 372.371 -4.36166 2.36796 0
M  V30 3784 H 367.627 -4.88062 3.68246 0
M  V30 3785 H 371.801 -5.22003 4.60962 0
M  V30 3786 H 369.428 -5.47668 5.27222 0
M  V30 3787 N 371.003 -0.499398 -1.49478 0
M  V30 3788 C 372.233 0.0424839 -2.06556 0
M  V30 3789 C 372.641 1.31514 -1.36018 0
M  V30 3790 O 371.984 1.78555 -0.431718 0
M  V30 3791 C 372.046 0.368074 -3.57611 0
M  V30 3792 C 371.71 -0.806631 -4.49825 0
M  V30 3793 C 372.707 -1.69667 -4.91436 0
M  V30 3794 C 370.392 -1.00498 -4.92144 0
M  V30 3795 C 372.386 -2.76923 -5.74101 0
M  V30 3796 C 370.073 -2.08072 -5.74586 0
M  V30 3797 C 371.071 -2.96119 -6.15469 0
M  V30 3798 O 370.759 -4.01836 -6.96264 0
M  V30 3799 H 370.491 -0.0165165 -0.675798 0
M  V30 3800 H 373.045 -0.695497 -1.93267 0
M  V30 3801 H 371.275 1.15963 -3.68903 0
M  V30 3802 H 372.964 0.848381 -3.96935 0
M  V30 3803 H 373.73 -1.55524 -4.59388 0
M  V30 3804 H 369.609 -0.329036 -4.59824 0
M  V30 3805 H 373.153 -3.45676 -6.05932 0
M  V30 3806 H 369.05 -2.22211 -6.06047 0
M  V30 3807 H 369.818 -3.9917 -7.14567 0
M  V30 3808 N 372.481 1.55866 -0.233164 0
M  V30 3809 C 373.897 1.59133 0.121988 0
M  V30 3810 C 374.097 1.25016 1.58029 0
M  V30 3811 O 373.153 0.990922 2.32243 0
M  V30 3812 C 374.466 2.99932 -0.214792 0
M  V30 3813 C 376.014 3.12601 -0.157971 0
M  V30 3814 C 376.489 4.55597 -0.46859 0
M  V30 3815 N 377.98 4.61305 -0.418585 0
M  V30 3816 C 378.715 5.69903 -0.63227 0
M  V30 3817 N 378.211 6.86819 -0.90835 0
M  V30 3818 N 380.004 5.59264 -0.563913 0
M  V30 3819 H 372.155 1.76315 -1.18434 0
M  V30 3820 H 374.418 0.820093 -0.475553 0
M  V30 3821 H 374.124 3.29588 -1.22739 0
M  V30 3822 H 373.998 3.74327 0.464691 0
M  V30 3823 H 376.385 2.82735 0.845283 0
M  V30 3824 H 376.466 2.40511 -0.871102 0
M  V30 3825 H 376.11 4.86182 -1.46934 0
M  V30 3826 H 376.04 5.25928 0.265865 0
M  V30 3827 H 378.531 3.77297 -0.213368 0
M  V30 3828 H 378.844 7.65507 -1.05919 0
M  V30 3829 H 377.189 6.88536 -0.945673 0
M  V30 3830 H 380.38 4.66802 -0.348372 0
M  V30 3831 H 380.553 6.43831 -0.733847 0
M  V30 3832 N 373.959 -0.0401083 1.57549 0
M  V30 3833 C 374.907 -1.06264 2.06908 0
M  V30 3834 C 375.901 -1.38132 0.980608 0
M  V30 3835 O 377.107 -1.37167 1.16556 0
M  V30 3836 H 373.482 -0.360166 0.660139 0
M  V30 3837 H 375.453 -0.620445 2.91878 0
M  V30 3838 C 374.202 -2.35846 2.55483 0
M  V30 3839 H 373.525 -2.12183 3.38849 0
M  V30 3840 H 374.965 -3.05765 2.93741 0
M  V30 3841 C 373.424 -3.0404 1.45126 0
M  V30 3842 O 373.954 -3.93424 0.811216 0
M  V30 3843 N 372.16 -2.65184 1.18852 0
M  V30 3844 H 371.707 -1.92584 1.71083 0
M  V30 3845 H 371.665 -3.1113 0.452244 0
M  V30 3846 N 375.437 -1.54477 -0.31217 0
M  V30 3847 C 376.685 -1.72884 -1.04668 0
M  V30 3848 C 377.006 -0.511477 -1.88173 0
M  V30 3849 O 376.276 0.474407 -1.90069 0
M  V30 3850 H 374.856 -0.637461 -0.389425 0
M  V30 3851 H 377.518 -1.91807 -0.345852 0
M  V30 3852 H 376.614 -2.61334 -1.70619 0
M  V30 3853 N 376.915 0.57481 -1.46744 0
M  V30 3854 C 377.862 1.68329 -1.57905 0
M  V30 3855 C 378.832 1.60625 -0.422927 0
M  V30 3856 O 380.017 1.79721 -0.640711 0
M  V30 3857 C 377.157 3.06665 -1.58274 0
M  V30 3858 C 376.27 3.24935 -2.84678 0
M  V30 3859 C 375.405 4.53566 -2.76499 0
M  V30 3860 C 374.444 4.65207 -3.97806 0
M  V30 3861 N 373.581 5.85172 -3.87967 0
M  V30 3862 H 378.421 1.58127 -2.52587 0
M  V30 3863 H 375.958 0.770552 -1.25303 0
M  V30 3864 H 377.916 3.86745 -1.56473 0
M  V30 3865 H 376.546 3.15745 -0.671194 0
M  V30 3866 H 375.598 2.38405 -2.96424 0
M  V30 3867 H 376.91 3.29403 -3.7456 0
M  V30 3868 H 376.064 5.41885 -2.72848 0
M  V30 3869 H 374.803 4.51548 -1.8427 0
M  V30 3870 H 373.808 3.75304 -4.0178 0
M  V30 3871 H 375.033 4.68997 -4.9114 0
M  V30 3872 H 372.979 5.84137 -2.98529 0
M  V30 3873 H 372.896 5.90943 -4.71511 0
M  V30 3874 H 374.164 6.759 -3.88303 0
M  V30 3875 N 378.394 1.34581 0.820102 0
M  V30 3876 C 379.624 1.29991 1.6058 0
M  V30 3877 C 380.032 -0.127588 1.88769 0
M  V30 3878 O 379.375 -1.08595 1.48165 0
M  V30 3879 C 379.437 2.02548 2.9701 0
M  V30 3880 C 379.101 3.51794 2.91701 0
M  V30 3881 C 380.098 4.46647 2.66087 0
M  V30 3882 C 377.783 3.94249 3.11245 0
M  V30 3883 C 379.777 5.81929 2.60071 0
M  V30 3884 C 377.464 5.2963 3.04853 0
M  V30 3885 C 378.462 6.23282 2.793 0
M  V30 3886 O 378.15 7.56181 2.72847 0
M  V30 3887 H 377.882 0.448539 0.505756 0
M  V30 3888 H 380.436 1.77811 1.02822 0
M  V30 3889 H 378.666 1.49345 3.56697 0
M  V30 3890 H 380.355 1.91211 3.58041 0
M  V30 3891 H 381.121 4.15168 2.5072 0
M  V30 3892 H 377 3.21749 3.30149 0
M  V30 3893 H 380.544 6.54999 2.40046 0
M  V30 3894 H 376.441 5.60727 3.19774 0
M  V30 3895 H 377.209 7.6595 2.88553 0
M  V30 3896 N 379.872 -1.04064 1.18357 0
M  V30 3897 C 381.149 -1.74252 0.888581 0
M  V30 3898 C 381.529 -2.02138 -0.60856 0
M  V30 3899 O 380.877 -1.66656 -1.56327 0
M  V30 3900 C 381.087 -3.0277 1.73584 0
M  V30 3901 C 382.435 -3.76506 1.96286 0
M  V30 3902 O 383.459 -3.12668 1.70637 0
M  V30 3903 O 382.318 -4.91243 2.39464 0
M  V30 3904 H 379.412 -0.758271 0.330082 0
M  V30 3905 H 381.958 -1.1013 1.2911 0
M  V30 3906 H 380.73 -2.78299 2.75073 0
M  V30 3907 H 380.353 -3.74631 1.33183 0
M  V30 3908 N 381.35 -0.985608 -1.22978 0
M  V30 3909 C 382.28 -0.549649 -2.26939 0
M  V30 3910 C 383.261 0.419803 -1.64838 0
M  V30 3911 O 384.446 0.31203 -1.91677 0
M  V30 3912 C 381.576 0.143652 -3.47003 0
M  V30 3913 C 380.53 -0.743606 -4.21491 0
M  V30 3914 C 379.856 0.0822027 -5.34637 0
M  V30 3915 C 381.156 -2.03694 -4.80943 0
M  V30 3916 H 382.85 -1.41862 -2.63658 0
M  V30 3917 H 380.396 -0.683571 -1.26741 0
M  V30 3918 H 382.349 0.459985 -4.18882 0
M  V30 3919 H 381.073 1.04711 -3.09359 0
M  V30 3920 H 379.732 -1.04347 -3.51436 0
M  V30 3921 H 379.38 0.986359 -4.93234 0
M  V30 3922 H 379.08 -0.508377 -5.85397 0
M  V30 3923 H 380.604 0.392797 -6.09335 0
M  V30 3924 H 382.018 -1.78504 -5.44802 0
M  V30 3925 H 380.415 -2.57573 -5.42011 0
M  V30 3926 H 381.485 -2.72042 -4.01399 0
M  V30 3927 N 382.828 1.3818 -0.7579 0
M  V30 3928 C 384.105 1.94106 -0.241306 0
M  V30 3929 C 384.485 1.69282 1.26122 0
M  V30 3930 O 383.833 1.03378 2.03777 0
M  V30 3931 C 384.043 3.43809 -0.59967 0
M  V30 3932 C 385.391 4.20868 -0.561717 0
M  V30 3933 O 386.415 3.5211 -0.538222 0
M  V30 3934 O 385.274 5.43451 -0.576478 0
M  V30 3935 H 382.368 0.825376 -0.0518042 0
M  V30 3936 H 384.914 1.47548 -0.838315 0
M  V30 3937 H 383.686 3.55403 -1.6372 0
M  V30 3938 H 383.309 3.97592 0.0251197 0
M  V30 3939 N 384.306 0.507319 1.49211 0
M  V30 3940 C 385.553 -0.0349529 2.0247 0
M  V30 3941 C 385.881 -1.36409 1.38647 0
M  V30 3942 O 385.136 -1.88841 0.513566 0
M  V30 3943 C 385.435 -0.229513 3.56662 0
M  V30 3944 C 385.101 1.02241 4.39156 0
M  V30 3945 C 383.763 1.36557 4.61417 0
M  V30 3946 C 386.115 1.85428 4.871 0
M  V30 3947 C 383.443 2.53999 5.28868 0
M  V30 3948 C 385.795 3.02028 5.55843 0
M  V30 3949 C 384.459 3.36717 5.76349 0
M  V30 3950 H 383.729 -0.0127902 0.74089 0
M  V30 3951 H 386.376 0.668756 1.79443 0
M  V30 3952 H 384.681 -1.0158 3.78403 0
M  V30 3953 H 386.378 -0.663641 3.9547 0
M  V30 3954 H 382.968 0.745124 4.22073 0
M  V30 3955 H 387.152 1.6023 4.69723 0
M  V30 3956 H 382.408 2.81105 5.42946 0
M  V30 3957 H 386.582 3.66808 5.91967 0
M  V30 3958 H 384.209 4.27821 6.28389 0
M  V30 3959 N 385.784 -1.5574 0.241426 0
M  V30 3960 C 386.731 -2.21149 -0.660432 0
M  V30 3961 C 387.701 -1.17356 -1.17545 0
M  V30 3962 O 388.886 -1.45784 -1.23093 0
M  V30 3963 C 386.026 -2.91059 -1.85414 0
M  V30 3964 C 385.139 -4.09495 -1.37616 0
M  V30 3965 C 384.274 -4.67135 -2.529 0
M  V30 3966 C 383.313 -5.77831 -2.01936 0
M  V30 3967 N 382.45 -6.29677 -3.10566 0
M  V30 3968 H 387.29 -2.97845 -0.095955 0
M  V30 3969 H 384.827 -1.47057 -0.0356024 0
M  V30 3970 H 386.785 -3.29788 -2.5553 0
M  V30 3971 H 385.415 -2.16846 -2.39118 0
M  V30 3972 H 384.467 -3.76117 -0.569235 0
M  V30 3973 H 385.779 -4.89423 -0.962618 0
M  V30 3974 H 384.933 -5.08409 -3.31067 0
M  V30 3975 H 383.672 -3.86411 -2.97553 0
M  V30 3976 H 382.677 -5.36039 -1.22238 0
M  V30 3977 H 383.902 -6.60402 -1.58259 0
M  V30 3978 H 381.848 -5.5186 -3.54664 0
M  V30 3979 H 381.765 -7.04783 -2.73526 0
M  V30 3980 H 383.033 -6.75609 -3.88809 0
M  V30 3981 N 387.262 0.0317525 -1.57568 0
M  V30 3982 C 388.487 0.738664 -1.938 0
M  V30 3983 C 388.912 1.68242 -0.841208 0
M  V30 3984 O 388.27 1.80157 0.203267 0
M  V30 3985 C 388.318 1.47417 -3.29091 0
M  V30 3986 O 387.422 2.5872 -3.2115 0
M  V30 3987 H 386.763 0.198856 -0.633524 0
M  V30 3988 H 389.293 -0.0119713 -2.04596 0
M  V30 3989 H 389.303 1.84468 -3.63917 0
M  V30 3990 H 387.978 0.781988 -4.08482 0
M  V30 3991 H 386.555 2.24231 -2.97951 0
M  V30 3992 N 388.74 1.54641 0.303973 0
M  V30 3993 C 390.151 1.64811 0.877163 0
M  V30 3994 C 390.502 0.554838 1.88191 0
M  V30 3995 O 389.627 -0.309033 2.14182 0
M  V30 3996 C 390.222 2.9876 1.59775 0
M  V30 3997 C 388.781 3.11061 2.11938 0
M  V30 3998 C 387.928 2.60479 0.951097 0
M  V30 3999 H 390.879 1.58493 0.0810486 0
M  V30 4000 H 390.9 2.90017 2.46314 0
M  V30 4001 H 390.412 3.7831 0.866226 0
M  V30 4002 H 388.513 2.36225 2.88146 0
M  V30 4003 H 388.626 4.17171 2.35595 0
M  V30 4004 H 386.99 2.16859 1.33583 0
M  V30 4005 H 387.773 3.42504 0.233581 0
M  V30 4006 N 390.218 -0.567019 1.47046 0
M  V30 4007 C 391.495 -1.3276 1.43646 0
M  V30 4008 C 391.875 -2.1071 0.128186 0
M  V30 4009 O 391.223 -2.10441 -0.890326 0
M  V30 4010 C 391.433 -2.2404 2.67595 0
M  V30 4011 C 392.781 -2.85372 3.14401 0
M  V30 4012 O 393.805 -2.34346 2.68254 0
M  V30 4013 O 392.664 -3.78091 3.946 0
M  V30 4014 H 389.758 -0.597293 0.571988 0
M  V30 4015 H 392.304 -0.586735 1.59234 0
M  V30 4016 H 391.076 -1.65975 3.54356 0
M  V30 4017 H 390.699 -3.05439 2.54544 0
M  V30 4018 N 391.696 -1.35014 -0.812953 0
M  V30 4019 C 392.973 -1.18502 -1.55617 0
M  V30 4020 C 393.353 0.238421 -2.09749 0
M  V30 4021 O 392.701 1.2411 -1.91857 0
M  V30 4022 C 392.911 -2.24783 -2.66971 0
M  V30 4023 C 394.259 -2.60268 -3.35478 0
M  V30 4024 O 395.283 -2.23648 -2.77236 0
M  V30 4025 O 394.142 -3.2321 -4.40678 0
M  V30 4026 H 391.236 -0.459984 -0.687272 0
M  V30 4027 H 393.782 -1.46677 -0.853464 0
M  V30 4028 H 392.554 -3.20284 -2.24798 0
M  V30 4029 H 392.177 -1.97841 -3.44884 0
M  V30 4030 N 393.175 1.03435 -1.18907 0
M  V30 4031 C 394.586 1.58195 -0.991523 0
M  V30 4032 C 394.937 1.90801 0.457081 0
M  V30 4033 O 394.062 1.70272 1.33553 0
M  V30 4034 C 394.657 2.87432 -1.79355 0
M  V30 4035 C 393.216 3.38785 -1.64017 0
M  V30 4036 C 392.363 2.12292 -1.78402 0
M  V30 4037 H 395.314 0.860299 -1.33359 0
M  V30 4038 H 395.335 3.58096 -1.28638 0
M  V30 4039 H 394.847 2.63669 -2.84781 0
M  V30 4040 H 392.948 3.67547 -0.611536 0
M  V30 4041 H 393.061 4.12186 -2.44212 0
M  V30 4042 H 391.425 2.23901 -1.2141 0
M  V30 4043 H 392.208 1.90977 -2.85277 0
M  V30 4044 N 394.653 0.992116 1.22453 0
M  V30 4045 C 395.616 0.546883 2.2258 0
M  V30 4046 C 396.616 -0.369829 1.56489 0
M  V30 4047 O 397.806 -0.161896 1.73446 0
M  V30 4048 C 394.938 -0.204659 3.40285 0
M  V30 4049 H 396.131 1.43234 2.63484 0
M  V30 4050 H 393.684 0.779239 1.3549 0
M  V30 4051 H 394.419 -1.10614 3.04853 0
M  V30 4052 H 394.204 0.45354 3.89468 0
M  V30 4053 H 395.694 -0.504358 4.14543 0
M  V30 4054 N 396.131 -1.37776 0.765217 0
M  V30 4055 C 397.547 -1.53297 0.444108 0
M  V30 4056 C 397.747 -1.72515 -1.04119 0
M  V30 4057 O 396.803 -1.74278 -1.82711 0
M  V30 4058 C 398.116 -2.73328 1.25349 0
M  V30 4059 C 399.664 -2.87185 1.24473 0
M  V30 4060 C 400.139 -4.10191 2.03733 0
M  V30 4061 N 401.63 -4.17291 2.01053 0
M  V30 4062 C 402.365 -5.11488 2.59166 0
M  V30 4063 N 401.861 -6.11285 3.26041 0
M  V30 4064 N 403.654 -5.03924 2.49032 0
M  V30 4065 H 395.805 -1.23552 1.72768 0
M  V30 4066 H 398.068 -0.601103 0.733062 0
M  V30 4067 H 397.774 -2.6557 2.30577 0
M  V30 4068 H 397.648 -3.66834 0.87823 0
M  V30 4069 H 400.035 -2.94418 0.20047 0
M  V30 4070 H 400.116 -1.94657 1.65959 0
M  V30 4071 H 399.76 -4.0372 3.08176 0
M  V30 4072 H 399.69 -5.01821 1.59633 0
M  V30 4073 H 402.181 -3.45825 1.5236 0
M  V30 4074 H 402.494 -6.79678 3.67774 0
M  V30 4075 H 400.839 -6.11583 3.30138 0
M  V30 4076 H 404.03 -4.24902 1.96407 0
M  V30 4077 H 404.203 -5.77152 2.94617 0
M  V30 4078 N 397.609 -0.515225 -1.4894 0
M  V30 4079 C 398.559 0.275113 -2.26334 0
M  V30 4080 C 399.543 0.923007 -1.31793 0
M  V30 4081 O 400.735 0.828254 -1.56426 0
M  V30 4082 C 397.864 1.33041 -3.16473 0
M  V30 4083 C 396.95 0.688051 -4.18481 0
M  V30 4084 N 397.341 -0.217638 -5.05332 0
M  V30 4085 C 395.639 0.94699 -4.3583 0
M  V30 4086 C 396.34 -0.58676 -5.78733 0
M  V30 4087 N 395.316 0.0486966 -5.43578 0
M  V30 4088 H 399.118 -0.421876 -2.90856 0
M  V30 4089 H 396.632 -0.332249 -1.58965 0
M  V30 4090 H 398.629 1.9102 -3.70563 0
M  V30 4091 H 397.289 2.02894 -2.53504 0
M  V30 4092 H 398.3 -0.589343 -5.14536 0
M  V30 4093 H 394.977 1.63719 -3.8406 0
M  V30 4094 H 396.367 -1.32855 -6.58634 0
M  V30 4095 N 399.087 1.5561 -0.249682 0
M  V30 4096 C 400.336 1.98187 0.37479 0
M  V30 4097 C 400.649 1.14111 1.58865 0
M  V30 4098 O 401.855 1.46714 2.28445 0
M  V30 4099 C 400.311 3.52661 0.718192 0
M  V30 4100 C 399.919 4.45481 -0.474428 0
M  V30 4101 C 401.663 4.03888 1.3067 0
M  V30 4102 C 399.57 5.91303 -0.107026 0
M  V30 4103 H 398.5 0.740159 0.143808 0
M  V30 4104 H 401.151 1.80125 -0.350336 0
M  V30 4105 H 399.533 3.66429 1.50152 0
M  V30 4106 H 400.707 4.43473 -1.25172 0
M  V30 4107 H 399.022 4.04751 -0.978052 0
M  V30 4108 H 401.619 5.10358 1.59496 0
M  V30 4109 H 401.962 3.51401 2.23211 0
M  V30 4110 H 402.495 3.93457 0.586211 0
M  V30 4111 H 399.234 6.47833 -0.999642 0
M  V30 4112 H 398.754 5.9644 0.634013 0
M  V30 4113 H 400.433 6.46258 0.309807 0
M  V30 4114 N 400.565 -0.0233959 1.57583 0
M  V30 4115 C 401.793 -0.724682 1.93794 0
M  V30 4116 C 402.208 -1.68588 0.849912 0
M  V30 4117 O 401.565 -1.81676 -0.173204 0
M  V30 4118 C 401.616 -1.47684 3.29957 0
M  V30 4119 O 401.337 -0.554222 4.3458 0
M  V30 4120 C 402.838 -2.27477 3.80485 0
M  V30 4121 H 400.058 -0.203317 0.639455 0
M  V30 4122 H 402.602 0.0207653 2.04489 0
M  V30 4123 H 400.757 -2.17412 3.20641 0
M  V30 4124 H 401.171 -1.08232 5.13212 0
M  V30 4125 H 402.645 -2.7564 4.78254 0
M  V30 4126 H 403.122 -3.09144 3.11972 0
M  V30 4127 H 403.728 -1.62813 3.92902 0
M  V30 4128 N 402.043 -1.548 -0.295768 0
M  V30 4129 C 403.291 -1.73985 -1.02828 0
M  V30 4130 C 403.612 -0.531406 -1.87619 0
M  V30 4131 O 402.882 0.454221 -1.90561 0
M  V30 4132 H 401.462 -0.641556 -0.382642 0
M  V30 4133 H 404.124 -1.92163 -0.325489 0
M  V30 4134 H 403.22 -2.63129 -1.67838 0
M  V30 4135 N 403.521 0.559213 -1.47345 0
M  V30 4136 C 404.431 1.69388 -1.62311 0
M  V30 4137 C 405.447 1.6648 -0.505993 0
M  V30 4138 O 406.623 1.85964 -0.773262 0
M  V30 4139 C 403.688 3.05894 -1.63185 0
M  V30 4140 C 402.749 3.19885 -2.86307 0
M  V30 4141 C 401.982 4.49879 -2.87131 0
M  V30 4142 O 402.205 5.35217 -1.97229 0
M  V30 4143 O 401.139 4.67618 -3.78968 0
M  V30 4144 H 404.965 1.59706 -2.58317 0
M  V30 4145 H 402.55 0.728989 -1.30407 0
M  V30 4146 H 404.432 3.87133 -1.66451 0
M  V30 4147 H 403.107 3.15964 -0.70345 0
M  V30 4148 H 402.014 2.38052 -2.88587 0
M  V30 4149 H 403.347 3.14718 -3.78435 0
M  V30 4150 N 404.999 1.35443 0.805782 0
M  V30 4151 C 405.946 1.28431 1.91766 0
M  V30 4152 C 406.916 0.156102 1.65365 0
M  V30 4153 O 408.101 0.339936 1.87747 0
M  V30 4154 C 405.241 1.06301 3.2832 0
M  V30 4155 C 404.354 2.2805 3.66902 0
M  V30 4156 C 403.489 1.99064 4.92491 0
M  V30 4157 C 402.528 3.16863 5.23703 0
M  V30 4158 N 401.665 2.87647 6.40471 0
M  V30 4159 H 406.505 2.23511 1.97096 0
M  V30 4160 H 404.042 1.11105 0.964054 0
M  V30 4161 H 406 0.915012 4.07042 0
M  V30 4162 H 404.63 0.148822 3.22457 0
M  V30 4163 H 403.682 2.53711 2.83434 0
M  V30 4164 H 404.994 3.1601 3.85927 0
M  V30 4165 H 404.148 1.81099 5.7904 0
M  V30 4166 H 402.887 1.0839 4.75503 0
M  V30 4167 H 401.892 3.35404 4.35642 0
M  V30 4168 H 403.117 4.08339 5.4262 0
M  V30 4169 H 401.063 1.99568 6.24907 0
M  V30 4170 H 400.98 3.69141 6.59751 0
M  V30 4171 H 402.248 2.73226 7.30047 0
M  V30 4172 N 406.477 -1.02803 1.19454 0
M  V30 4173 C 407.407 -2.12999 0.956758 0
M  V30 4174 C 408.388 -1.69743 -0.110188 0
M  V30 4175 O 409.573 -1.94148 0.0450038 0
M  V30 4176 C 406.703 -3.43746 0.495553 0
M  V30 4177 C 405.657 -4.00688 1.50443 0
M  V30 4178 C 404.983 -5.27067 0.900275 0
M  V30 4179 C 406.283 -4.35397 2.8849 0
M  V30 4180 H 407.977 -2.33148 1.87836 0
M  V30 4181 H 405.523 -1.12045 0.904539 0
M  V30 4182 H 407.476 -4.2021 0.316493 0
M  V30 4183 H 406.2 -3.23321 -0.461646 0
M  V30 4184 H 404.859 -3.2632 1.67065 0
M  V30 4185 H 404.507 -5.02959 -0.064503 0
M  V30 4186 H 404.207 -5.66127 1.57397 0
M  V30 4187 H 405.731 -6.06196 0.73203 0
M  V30 4188 H 407.145 -5.02795 2.75446 0
M  V30 4189 H 405.542 -4.85541 3.52661 0
M  V30 4190 H 406.612 -3.44662 3.41081 0
M  V30 4191 N 407.956 -0.998596 -1.21925 0
M  V30 4192 C 409.204 -0.676325 -1.90448 0
M  V30 4193 C 409.525 0.794719 -1.78071 0
M  V30 4194 O 408.795 1.5701 -1.17152 0
M  V30 4195 H 407.375 -0.247165 -0.704925 0
M  V30 4196 H 410.037 -1.26633 -1.48156 0
M  V30 4197 H 409.133 -0.943858 -2.97486 0
M  V30 4198 N 409.434 1.37368 -0.772513 0
M  V30 4199 C 410.344 2.34053 -0.160081 0
M  V30 4200 C 411.36 1.60216 0.678728 0
M  V30 4201 O 412.536 1.92303 0.59847 0
M  V30 4202 C 409.601 3.3939 0.708182 0
M  V30 4203 C 408.662 4.29048 -0.147172 0
M  V30 4204 C 407.895 5.29354 0.679744 0
M  V30 4205 O 408.118 5.3723 1.91678 0
M  V30 4206 O 407.052 6.01835 0.0885444 0
M  V30 4207 H 410.878 2.88159 -0.959053 0
M  V30 4208 H 408.463 1.39543 -0.533685 0
M  V30 4209 H 410.345 4.03839 1.20384 0
M  V30 4210 H 409.02 2.8761 1.48533 0
M  V30 4211 H 407.927 3.67697 -0.689205 0
M  V30 4212 H 409.26 4.84134 -0.887423 0
M  V30 4213 N 410.912 0.523116 1.48665 0
M  V30 4214 C 411.842 -0.23231 2.32342 0
M  V30 4215 C 412.823 -0.941637 1.41659 0
M  V30 4216 O 414.008 -0.928751 1.70552 0
M  V30 4217 C 411.138 -1.28387 3.22698 0
M  V30 4218 C 410.092 -0.693098 4.22351 0
M  V30 4219 C 409.418 -1.8468 5.01794 0
M  V30 4220 C 410.718 0.33063 5.21252 0
M  V30 4221 H 412.412 0.466192 2.95748 0
M  V30 4222 H 409.958 0.225643 1.42221 0
M  V30 4223 H 411.911 -1.82024 3.80059 0
M  V30 4224 H 410.635 -2.01186 2.57278 0
M  V30 4225 H 409.294 -0.178299 3.66166 0
M  V30 4226 H 408.942 -2.56301 4.32804 0
M  V30 4227 H 408.642 -1.45747 5.69238 0
M  V30 4228 H 410.166 -2.38709 5.62006 0
M  V30 4229 H 411.58 -0.118407 5.73178 0
M  V30 4230 H 409.977 0.636974 5.9671 0
M  V30 4231 H 411.047 1.23883 4.68808 0
M  V30 4232 N 412.39 -1.55475 0.257931 0
M  V30 4233 C 413.62 -2.03314 -0.367026 0
M  V30 4234 C 414.028 -1.13625 -1.51281 0
M  V30 4235 O 413.371 -0.145334 -1.83124 0
M  V30 4236 C 413.433 -3.47362 -0.926284 0
M  V30 4237 C 413.097 -4.56914 0.0886584 0
M  V30 4238 C 414.094 -5.12013 0.902123 0
M  V30 4239 C 411.779 -5.01827 0.217936 0
M  V30 4240 C 413.773 -6.10529 1.83122 0
M  V30 4241 C 411.46 -6.00172 1.15052 0
M  V30 4242 C 412.458 -6.54402 1.95568 0
M  V30 4243 O 412.146 -7.50827 2.87253 0
M  V30 4244 H 411.878 -0.669976 -0.0900443 0
M  V30 4245 H 414.432 -2.01804 0.382673 0
M  V30 4246 H 412.662 -3.46056 -1.72575 0
M  V30 4247 H 414.351 -3.78637 -1.46249 0
M  V30 4248 H 415.117 -4.78139 0.812891 0
M  V30 4249 H 410.996 -4.59272 -0.398721 0
M  V30 4250 H 414.54 -6.52783 2.46008 0
M  V30 4251 H 410.437 -6.33465 1.24064 0
M  V30 4252 H 411.205 -7.68483 2.81739 0
M  V30 4253 N 413.868 0.0150385 -1.57593 0
M  V30 4254 C 414.815 1.01126 -2.07466 0
M  V30 4255 C 415.785 1.35064 -0.966794 0
M  V30 4256 O 416.97 1.4516 -1.23827 0
M  V30 4257 C 414.11 2.30276 -2.57035 0
M  V30 4258 C 413.223 2.02373 -3.81666 0
M  V30 4259 C 412.358 3.25496 -4.19793 0
M  V30 4260 C 411.397 2.93211 -5.37303 0
M  V30 4261 N 410.534 4.08826 -5.70794 0
M  V30 4262 H 415.374 0.57901 -2.92321 0
M  V30 4263 H 412.911 0.27426 -1.44521 0
M  V30 4264 H 414.869 3.05757 -2.83846 0
M  V30 4265 H 413.499 2.71197 -1.75077 0
M  V30 4266 H 412.551 1.17327 -3.61854 0
M  V30 4267 H 413.863 1.74567 -4.67256 0
M  V30 4268 H 413.017 4.09333 -4.47807 0
M  V30 4269 H 411.756 3.56428 -3.32882 0
M  V30 4270 H 410.761 2.07777 -5.09027 0
M  V30 4271 H 411.986 2.63542 -6.25877 0
M  V30 4272 H 409.932 4.39682 -4.86842 0
M  V30 4273 H 409.849 3.84491 -6.50924 0
M  V30 4274 H 411.117 4.93496 -6.03392 0
M  V30 4275 N 415.346 1.54954 0.287554 0
M  V30 4276 C 416.571 1.79209 1.04397 0
M  V30 4277 C 416.996 0.556431 1.79682 0
M  V30 4278 O 416.354 -0.493518 1.74454 0
M  V30 4279 C 416.402 3.00739 1.98969 0
M  V30 4280 O 415.506 2.74805 3.075 0
M  V30 4281 H 414.847 0.592755 0.299227 0
M  V30 4282 H 417.377 2.02068 0.320886 0
M  V30 4283 H 417.387 3.29077 2.4119 0
M  V30 4284 H 416.062 3.90329 1.43582 0
M  V30 4285 H 414.639 2.57523 2.69697 0
M  V30 4286 N 416.824 -0.551391 1.4764 0
M  V30 4287 C 418.071 -1.3083 1.54563 0
M  V30 4288 C 418.399 -1.93359 0.210361 0
M  V30 4289 O 417.654 -1.78721 -0.797332 0
M  V30 4290 C 417.953 -2.43469 2.61644 0
M  V30 4291 C 417.619 -1.98732 4.04742 0
M  V30 4292 C 416.281 -1.86248 4.43695 0
M  V30 4293 C 418.633 -1.64659 4.94507 0
M  V30 4294 C 415.961 -1.37995 5.70241 0
M  V30 4295 C 418.313 -1.17875 6.21521 0
M  V30 4296 C 416.977 -1.03992 6.5935 0
M  V30 4297 H 416.247 -0.478741 0.565587 0
M  V30 4298 H 418.894 -0.617697 1.81264 0
M  V30 4299 H 417.199 -3.18109 2.28722 0
M  V30 4300 H 418.896 -3.01642 2.64222 0
M  V30 4301 H 415.486 -2.09393 3.73968 0
M  V30 4302 H 419.67 -1.73174 4.65107 0
M  V30 4303 H 414.926 -1.25915 5.98294 0
M  V30 4304 H 419.1 -0.905739 6.90485 0
M  V30 4305 H 416.727 -0.663794 7.57296 0
M  V30 4306 N 418.302 -1.35869 -0.798587 0
M  V30 4307 C 419.551 -1.28921 -1.5512 0
M  V30 4308 C 419.864 0.13208 -1.95154 0
M  V30 4309 O 421.07 0.323879 -2.69561 0
M  V30 4310 C 419.526 -2.26141 -2.79979 0
M  V30 4311 C 419.134 -3.73658 -2.47151 0
M  V30 4312 C 420.878 -2.28152 -3.57976 0
M  V30 4313 C 418.785 -4.62679 -3.6835 0
M  V30 4314 H 417.715 -0.479031 -0.582276 0
M  V30 4315 H 420.366 -1.61179 -0.877125 0
M  V30 4316 H 418.748 -1.86865 -3.49138 0
M  V30 4317 H 419.922 -4.21616 -1.85947 0
M  V30 4318 H 418.237 -3.74333 -1.82383 0
M  V30 4319 H 420.834 -2.91875 -4.4801 0
M  V30 4320 H 421.177 -1.28748 -3.95891 0
M  V30 4321 H 421.71 -2.65998 -2.95787 0
M  V30 4322 H 418.449 -5.63111 -3.35538 0
M  V30 4323 H 417.969 -4.19442 -4.28752 0
M  V30 4324 H 419.648 -4.78498 -4.35487 0
M  V30 4325 N 419.78 1.02168 -1.19998 0
M  V30 4326 C 420.727 2.10601 -0.944228 0
M  V30 4327 C 421.697 1.65639 0.123664 0
M  V30 4328 O 422.882 1.9079 -0.0199941 0
M  V30 4329 C 420.022 3.41504 -0.496865 0
M  V30 4330 C 419.135 3.99973 -1.63234 0
M  V30 4331 C 418.27 5.18915 -1.13579 0
M  V30 4332 C 417.309 5.69456 -2.24468 0
M  V30 4333 N 416.446 6.79665 -1.76068 0
M  V30 4334 H 421.286 2.31814 -1.8726 0
M  V30 4335 H 418.823 1.13686 -0.933483 0
M  V30 4336 H 420.781 4.16626 -0.218843 0
M  V30 4337 H 419.411 3.2038 0.394508 0
M  V30 4338 H 418.463 3.21997 -2.0254 0
M  V30 4339 H 419.775 4.33492 -2.46752 0
M  V30 4340 H 418.929 6.01222 -0.813429 0
M  V30 4341 H 417.668 4.8695 -0.270434 0
M  V30 4342 H 416.673 4.85757 -2.57526 0
M  V30 4343 H 417.898 6.03459 -3.11472 0
M  V30 4344 H 415.844 6.49538 -0.918516 0
M  V30 4345 H 415.761 7.12349 -2.5317 0
M  V30 4346 H 417.029 7.65549 -1.46817 0
M  V30 4347 N 421.258 1.00505 1.21394 0
M  V30 4348 C 422.206 0.558623 2.25792 0
M  V30 4349 C 423.2 -0.396848 1.64686 0
M  V30 4350 O 424.406 -0.268035 1.77993 0
M  V30 4351 H 420.781 0.1623 0.734277 0
M  V30 4352 H 422.752 1.4503 2.60785 0
M  V30 4353 C 421.501 -0.0989574 3.47559 0
M  V30 4354 H 420.824 0.627225 3.94849 0
M  V30 4355 H 422.264 -0.3746 4.22342 0
M  V30 4356 C 420.723 -1.33817 3.09184 0
M  V30 4357 O 421.253 -2.43252 3.19674 0
M  V30 4358 N 419.459 -1.21793 2.63846 0
M  V30 4359 H 419.006 -0.32746 2.5551 0
M  V30 4360 H 418.964 -2.04809 2.38539 0
M  V30 4361 N 422.737 -1.36956 0.779787 0
M  V30 4362 C 423.967 -2.03459 0.358877 0
M  V30 4363 C 424.375 -1.58939 -1.02641 0
M  V30 4364 O 423.718 -0.769777 -1.66794 0
M  V30 4365 C 423.78 -3.5796 0.332393 0
M  V30 4366 C 423.444 -4.25644 1.66362 0
M  V30 4367 C 424.441 -4.49205 2.61746 0
M  V30 4368 C 422.126 -4.63313 1.94027 0
M  V30 4369 C 424.12 -5.09503 3.82996 0
M  V30 4370 C 421.807 -5.2333 3.15546 0
M  V30 4371 C 422.805 -5.46363 4.0985 0
M  V30 4372 O 422.493 -6.05122 5.29228 0
M  V30 4373 H 422.225 -0.659767 0.147254 0
M  V30 4374 H 424.779 -1.76111 1.05708 0
M  V30 4375 H 423.009 -3.84388 -0.422237 0
M  V30 4376 H 424.698 -4.05852 -0.0625389 0
M  V30 4377 H 425.464 -4.20508 2.41657 0
M  V30 4378 H 421.343 -4.44715 1.21448 0
M  V30 4379 H 424.887 -5.27397 4.56617 0
M  V30 4380 H 420.784 -5.51451 3.35517 0
M  V30 4381 H 421.552 -6.23595 5.30161 0
M  V30 4382 N 424.215 -0.530993 -1.48385 0
M  V30 4383 C 425.626 -0.0907905 -1.86479 0
M  V30 4384 C 425.977 1.33213 -1.44044 0
M  V30 4385 O 425.102 1.99783 -0.831615 0
M  V30 4386 C 425.697 -0.157987 -3.38431 0
M  V30 4387 C 424.256 0.227026 -3.75715 0
M  V30 4388 C 423.403 -0.5173 -2.72432 0
M  V30 4389 H 426.354 -0.742186 -1.40276 0
M  V30 4390 H 426.375 0.630053 -3.75247 0
M  V30 4391 H 425.887 -1.19372 -3.69286 0
M  V30 4392 H 423.988 1.26486 -3.50474 0
M  V30 4393 H 424.101 -0.113288 -4.78966 0
M  V30 4394 H 422.465 0.0365527 -2.54674 0
M  V30 4395 H 423.248 -1.55368 -3.0613 0
M  V30 4396 N 425.693 1.55336 -0.266172 0
M  V30 4397 C 426.939 1.99692 0.353681 0
M  V30 4398 C 427.272 1.1543 1.56172 0
M  V30 4399 O 426.547 0.222218 1.93226 0
M  V30 4400 C 426.83 3.52316 0.74466 0
M  V30 4401 C 426.683 4.47337 -0.470101 0
M  V30 4402 C 428.002 4.10588 1.58447 0
M  V30 4403 H 425.121 0.725961 0.12708 0
M  V30 4404 H 427.763 1.86336 -0.371333 0
M  V30 4405 H 425.913 3.63829 1.36239 0
M  V30 4406 H 427.585 4.4778 -1.10864 0
M  V30 4407 H 425.828 4.19364 -1.10978 0
M  V30 4408 H 426.499 5.51788 -0.15291 0
M  V30 4409 H 428.975 4.02297 1.06286 0
M  V30 4410 H 427.851 5.17607 1.82686 0
M  V30 4411 H 428.112 3.60253 2.56262 0
M  V30 4412 N 427.171 -0.0066808 1.57599 0
M  V30 4413 C 428.417 -0.693947 1.90558 0
M  V30 4414 C 428.75 -1.73792 0.866594 0
M  V30 4415 O 428.025 -1.94156 -0.115548 0
M  V30 4416 C 428.308 -1.34317 3.34112 0
M  V30 4417 C 428.161 -0.311189 4.48722 0
M  V30 4418 C 429.48 -2.27116 3.7697 0
M  V30 4419 H 426.599 -0.250803 0.693013 0
M  V30 4420 H 429.241 0.043242 1.89951 0
M  V30 4421 H 427.391 -1.9715 3.3476 0
M  V30 4422 H 429.063 0.316944 4.6021 0
M  V30 4423 H 427.306 0.367253 4.32243 0
M  V30 4424 H 427.977 -0.804366 5.46108 0
M  V30 4425 H 430.453 -1.74306 3.77831 0
M  V30 4426 H 429.329 -2.69511 4.78179 0
M  V30 4427 H 429.59 -3.14743 3.10466 0
M  V30 4428 N 428.649 -1.55105 -0.279332 0
M  V30 4429 C 429.874 -1.7976 -1.03446 0
M  V30 4430 C 430.299 -0.565952 -1.79384 0
M  V30 4431 O 429.657 0.484259 -1.74713 0
M  V30 4432 C 429.705 -3.0179 -1.97371 0
M  V30 4433 O 428.809 -2.76432 -3.06038 0
M  V30 4434 H 428.15 -0.594334 -0.29608 0
M  V30 4435 H 430.68 -2.02235 -0.310165 0
M  V30 4436 H 430.69 -3.30351 -2.39441 0
M  V30 4437 H 429.365 -3.91085 -1.4151 0
M  V30 4438 H 427.942 -2.58949 -2.68328 0
M  V30 4439 N 430.127 0.543554 -1.4793 0
M  V30 4440 C 431.376 1.29649 -1.54512 0
M  V30 4441 C 431.689 1.94382 -0.217973 0
M  V30 4442 O 432.895 2.71017 -0.161908 0
M  V30 4443 C 431.351 2.35175 -2.72435 0
M  V30 4444 C 430.959 1.76572 -4.11736 0
M  V30 4445 C 432.703 3.11564 -2.8832 0
M  V30 4446 C 430.61 2.79958 -5.20939 0
M  V30 4447 H 429.54 0.487541 -0.57517 0
M  V30 4448 H 432.191 0.575708 -1.74235 0
M  V30 4449 H 430.573 3.10229 -2.46118 0
M  V30 4450 H 431.747 1.07799 -4.48013 0
M  V30 4451 H 430.062 1.12722 -4.00852 0
M  V30 4452 H 432.659 3.88794 -3.67074 0
M  V30 4453 H 433.002 3.66594 -1.97268 0
M  V30 4454 H 433.535 2.43623 -3.14472 0
M  V30 4455 H 430.274 2.29766 -6.13912 0
M  V30 4456 H 429.794 3.47101 -4.89164 0
M  V30 4457 H 431.473 3.43198 -5.48474 0
M  V30 4458 N 431.605 1.3629 0.791371 0
M  V30 4459 C 432.515 1.32606 1.93527 0
M  V30 4460 C 433.531 0.228541 1.72493 0
M  V30 4461 O 434.707 0.460571 1.96063 0
M  V30 4462 C 431.772 1.11271 3.28359 0
M  V30 4463 C 430.833 2.3048 3.62185 0
M  V30 4464 C 430.066 2.10154 4.90583 0
M  V30 4465 O 430.289 1.07572 5.60165 0
M  V30 4466 O 429.223 2.97884 5.23019 0
M  V30 4467 H 433.049 2.28909 1.99585 0
M  V30 4468 H 430.634 1.16818 0.931344 0
M  V30 4469 H 432.516 1.01283 4.09047 0
M  V30 4470 H 431.191 0.180292 3.23198 0
M  V30 4471 H 430.098 2.46036 2.81811 0
M  V30 4472 H 431.431 3.22221 3.72068 0
M  V30 4473 N 433.083 -1.0153 1.20538 0
M  V30 4474 C 434.36 -1.72327 0.925343 0
M  V30 4475 C 434.74 -2.03383 -0.565547 0
M  V30 4476 O 434.088 -1.69934 -1.52757 0
M  V30 4477 C 434.298 -2.9902 1.79967 0
M  V30 4478 C 435.646 -3.72258 2.04228 0
M  V30 4479 O 436.67 -3.08979 1.77231 0
M  V30 4480 O 435.529 -4.86053 2.4983 0
M  V30 4481 H 432.623 -0.751099 0.346092 0
M  V30 4482 H 435.169 -1.07366 1.31417 0
M  V30 4483 H 433.941 -2.72402 2.80915 0
M  V30 4484 H 433.564 -3.71721 1.41099 0
M  V30 4485 N 434.561 -1.01147 -1.20859 0
M  V30 4486 C 435.972 -0.730205 -1.71828 0
M  V30 4487 C 436.323 0.751662 -1.8123 0
M  V30 4488 O 435.448 1.58686 -1.47132 0
M  V30 4489 C 436.043 -1.31885 -3.12077 0
M  V30 4490 C 434.602 -1.08656 -3.60376 0
M  V30 4491 C 433.749 -1.42769 -2.37723 0
M  V30 4492 H 436.7 -1.18158 -1.05945 0
M  V30 4493 H 436.721 -0.706793 -3.73878 0
M  V30 4494 H 436.233 -2.39737 -3.05201 0
M  V30 4495 H 434.334 -0.0254814 -3.72591 0
M  V30 4496 H 434.447 -1.76301 -4.45483 0
M  V30 4497 H 432.811 -0.846603 -2.40218 0
M  V30 4498 H 433.594 -2.51666 -2.33493 0
M  V30 4499 N 436.039 1.36541 -0.78704 0
M  V30 4500 C 437.286 1.99304 -0.358341 0
M  V30 4501 C 437.614 1.62467 1.06933 0
M  V30 4502 O 436.869 0.870019 1.75297 0
M  V30 4503 C 437.168 3.54343 -0.466485 0
M  V30 4504 C 436.834 4.10993 -1.85461 0
M  V30 4505 C 435.496 4.26177 -2.23443 0
M  V30 4506 C 437.848 4.41895 -2.76366 0
M  V30 4507 C 435.176 4.69573 -3.51736 0
M  V30 4508 C 437.528 4.86722 -4.04084 0
M  V30 4509 C 436.192 5.00112 -4.42091 0
M  V30 4510 H 435.462 0.729306 -0.131126 0
M  V30 4511 H 438.109 1.63068 -1.00404 0
M  V30 4512 H 436.414 3.90918 0.262719 0
M  V30 4513 H 438.111 4.00833 -0.115854 0
M  V30 4514 H 434.701 3.99612 -1.54946 0
M  V30 4515 H 438.885 4.29735 -2.48277 0
M  V30 4516 H 434.141 4.78127 -3.81057 0
M  V30 4517 H 438.315 5.09598 -4.7464 0
M  V30 4518 H 435.942 5.33498 -5.41557 0
M  V30 4519 N 437.518 0.538854 1.48102 0
M  V30 4520 C 438.795 -0.0568108 1.95517 0
M  V30 4521 C 439.175 -1.50408 1.48124 0
M  V30 4522 O 438.523 -2.17133 0.711727 0
M  V30 4523 C 438.733 0.0696262 3.48931 0
M  V30 4524 C 440.081 -0.0851202 4.24515 0
M  V30 4525 O 441.105 -0.0037347 3.562 0
M  V30 4526 O 439.964 -0.257025 5.45895 0
M  V30 4527 H 437.058 -0.0743695 0.823649 0
M  V30 4528 H 439.604 0.604081 1.58584 0
M  V30 4529 H 438.376 1.07744 3.76174 0
M  V30 4530 H 437.999 -0.629714 3.92582 0
M  V30 4531 N 438.996 -1.55193 0.274407 0
M  V30 4532 C 439.928 -2.1989 -0.646595 0
M  V30 4533 C 440.941 -1.1834 -1.11801 0
M  V30 4534 O 442.13 -1.4507 -1.04004 0
M  V30 4535 C 439.23 -2.8104 -1.89393 0
M  V30 4536 C 438.403 -4.08274 -1.56943 0
M  V30 4537 C 437.462 -4.53478 -2.66916 0
M  V30 4538 O 436.488 -5.19267 -2.33132 0
M  V30 4539 N 437.69 -4.2356 -3.9696 0
M  V30 4540 H 440.455 -2.99556 -0.0928686 0
M  V30 4541 H 438.016 -1.61618 0.0954783 0
M  V30 4542 H 440.008 -3.08226 -2.62257 0
M  V30 4543 H 438.578 -2.05372 -2.35672 0
M  V30 4544 H 437.798 -3.88384 -0.674655 0
M  V30 4545 H 439.086 -4.91173 -1.32764 0
M  V30 4546 H 438.484 -3.70799 -4.27229 0
M  V30 4547 H 437.041 -4.55518 -4.66205 0
M  V30 4548 N 440.474 -0.00167713 -1.576 0
M  V30 4549 C 441.751 0.719951 -1.81868 0
M  V30 4550 C 442.131 1.91895 -0.879747 0
M  V30 4551 O 441.479 2.28389 0.0711423 0
M  V30 4552 C 441.689 1.12409 -3.30402 0
M  V30 4553 C 443.037 1.52724 -3.96182 0
M  V30 4554 O 444.061 1.21784 -3.34734 0
M  V30 4555 O 442.92 2.10265 -5.04431 0
M  V30 4556 H 440.014 0.350707 -0.748955 0
M  V30 4557 H 442.56 -0.0272597 -1.69678 0
M  V30 4558 H 441.332 0.269532 -3.90371 0
M  V30 4559 H 440.955 1.93035 -3.47596 0
M  V30 4560 N 441.952 1.55251 0.271103 0
M  V30 4561 C 443.229 1.66664 1.02384 0
M  V30 4562 C 443.609 0.534363 2.04225 0
M  V30 4563 O 442.957 -0.465337 2.23712 0
M  V30 4564 C 443.167 3.05961 1.67895 0
M  V30 4565 C 444.515 3.63772 2.18986 0
M  V30 4566 O 445.539 3.08606 1.77878 0
M  V30 4567 O 444.398 4.60429 2.94393 0
M  V30 4568 H 441.492 0.676957 0.475035 0
M  V30 4569 H 444.038 1.67589 0.26681 0
M  V30 4570 H 442.81 3.79815 0.941071 0
M  V30 4571 H 442.433 3.08943 2.5028 0
M  V30 4572 N 443.43 -0.535701 1.48216 0
M  V30 4573 C 444.676 -1.2913 1.57153 0
M  V30 4574 C 445.031 -1.90899 0.239823 0
M  V30 4575 O 444.324 -1.76022 -0.756748 0
M  V30 4576 C 444.518 -2.4068 2.64212 0
M  V30 4577 C 444.347 -1.89844 4.07663 0
M  V30 4578 C 443.117 -1.72708 4.74869 0
M  V30 4579 C 445.315 -1.43031 4.94011 0
M  V30 4580 N 443.297 -1.16437 6.02757 0
M  V30 4581 C 444.668 -0.986691 6.12098 0
M  V30 4582 C 446.723 -1.3128 4.80281 0
M  V30 4583 C 445.426 -0.437231 7.1797 0
M  V30 4584 C 447.452 -0.777346 5.86269 0
M  V30 4585 C 446.814 -0.343774 7.03561 0
M  V30 4586 H 442.913 -0.463753 0.629648 0
M  V30 4587 H 445.497 -0.604736 1.8507 0
M  V30 4588 H 443.668 -3.06839 2.38126 0
M  V30 4589 H 445.4 -3.07706 2.62867 0
M  V30 4590 H 442.155 -1.96061 4.31111 0
M  V30 4591 H 442.579 -0.903281 6.70947 0
M  V30 4592 H 447.221 -1.63408 3.89946 0
M  V30 4593 H 444.939 -0.103621 8.08034 0
M  V30 4594 H 448.525 -0.689688 5.77698 0
M  V30 4595 H 447.405 0.0641219 7.84174 0
M  V30 4596 N 444.908 -1.36708 -0.784132 0
M  V30 4597 C 445.871 -1.31307 -1.87859 0
M  V30 4598 C 446.871 -0.219654 -1.59293 0
M  V30 4599 O 448.061 -0.47476 -1.67606 0
M  V30 4600 C 445.193 -1.03679 -3.24751 0
M  V30 4601 H 446.386 -2.28647 -1.94064 0
M  V30 4602 H 443.939 -1.21558 -0.98252 0
M  V30 4603 H 444.674 -0.0681936 -3.24228 0
M  V30 4604 H 444.459 -1.82811 -3.46876 0
M  V30 4605 H 445.949 -1.02518 -4.04821 0
M  V30 4606 N 446.386 1.0089 -1.21074 0
M  V30 4607 C 447.614 1.78191 -1.05145 0
M  V30 4608 C 448.029 1.84537 0.398952 0
M  V30 4609 O 447.386 1.30393 1.27687 0
M  V30 4610 C 447.437 3.22288 -1.63746 0
M  V30 4611 O 447.158 3.16315 -3.03111 0
M  V30 4612 C 448.659 4.16106 -1.52875 0
M  V30 4613 H 445.879 0.560129 -0.369454 0
M  V30 4614 H 448.423 1.26945 -1.60328 0
M  V30 4615 H 446.578 3.70655 -1.12664 0
M  V30 4616 H 446.992 4.06817 -3.31059 0
M  V30 4617 H 448.466 5.15026 -1.98626 0
M  V30 4618 H 448.943 4.36541 -0.482521 0
M  V30 4619 H 449.549 3.73625 -2.03185 0
M  V30 4620 N 447.864 1.01787 1.20321 0
M  V30 4621 C 449.11 0.718699 1.90279 0
M  V30 4622 C 449.465 -0.743669 1.77447 0
M  V30 4623 O 448.758 -1.53345 1.14874 0
M  V30 4624 C 448.952 1.09076 3.40349 0
M  V30 4625 C 448.781 2.58775 3.67784 0
M  V30 4626 C 447.551 3.25578 3.86428 0
M  V30 4627 C 449.749 3.56966 3.70243 0
M  V30 4628 N 447.731 4.64495 4.01395 0
M  V30 4629 C 449.102 4.8145 3.90649 0
M  V30 4630 C 451.157 3.5092 3.53213 0
M  V30 4631 C 449.86 6.00619 3.95789 0
M  V30 4632 C 451.886 4.69493 3.59625 0
M  V30 4633 C 451.248 5.92786 3.80505 0
M  V30 4634 H 447.347 0.31468 0.715891 0
M  V30 4635 H 449.931 1.30295 1.44677 0
M  V30 4636 H 448.102 0.534839 3.847 0
M  V30 4637 H 449.834 0.744997 3.97784 0
M  V30 4638 H 446.589 2.76003 3.84862 0
M  V30 4639 H 447.013 5.36624 4.12752 0
M  V30 4640 H 451.655 2.56593 3.36035 0
M  V30 4641 H 449.373 6.95326 4.11762 0
M  V30 4642 H 452.959 4.66432 3.47754 0
M  V30 4643 H 451.839 6.83003 3.85327 0
M  V30 4644 N 449.342 -1.36122 0.79427 0
M  V30 4645 C 450.57 -2.03362 0.380989 0
M  V30 4646 C 450.985 -1.59881 -1.00416 0
M  V30 4647 O 450.342 -0.790515 -1.6449 0
M  V30 4648 C 450.393 -3.58804 0.440649 0
M  V30 4649 O 450.114 -4.007 1.77118 0
M  V30 4650 C 451.615 -4.43296 0.0186117 0
M  V30 4651 H 448.835 -0.652526 0.156367 0
M  V30 4652 H 451.379 -1.73998 1.07447 0
M  V30 4653 H 449.534 -3.8686 -0.204458 0
M  V30 4654 H 449.948 -4.95309 1.72538 0
M  V30 4655 H 451.422 -5.51887 0.111488 0
M  V30 4656 H 451.899 -4.2684 -1.03461 0
M  V30 4657 H 452.505 -4.20512 0.636395 0
M  V30 4658 N 450.82 -0.546701 -1.47814 0
M  V30 4659 C 452.045 -0.021268 -2.07389 0
M  V30 4660 C 452.47 1.25822 -1.39822 0
M  V30 4661 O 451.828 1.75111 -0.46968 0
M  V30 4662 C 451.876 0.168502 -3.60206 0
M  V30 4663 O 450.98 1.23347 -3.93522 0
M  V30 4664 H 450.321 -0.0466108 -0.662362 0
M  V30 4665 H 452.851 -0.759387 -1.89985 0
M  V30 4666 H 452.861 0.385982 -4.0617 0
M  V30 4667 H 451.536 -0.766075 -4.08784 0
M  V30 4668 H 450.113 0.997319 -3.59316 0
M  V30 4669 N 452.299 1.55045 -0.282633 0
M  V30 4670 C 453.546 1.9976 0.33199 0
M  V30 4671 C 453.874 1.17105 1.55295 0
M  V30 4672 O 453.129 0.230599 1.94337 0
M  V30 4673 C 453.428 3.49422 0.750938 0
M  V30 4674 C 453.094 4.4941 -0.366228 0
M  V30 4675 C 451.756 4.76471 -0.672964 0
M  V30 4676 C 454.108 5.09054 -1.11864 0
M  V30 4677 C 451.436 5.60442 -1.73556 0
M  V30 4678 C 453.788 5.9418 -2.17102 0
M  V30 4679 C 452.452 6.19558 -2.48402 0
M  V30 4680 H 451.722 0.730974 0.121484 0
M  V30 4681 H 454.369 1.8732 -0.39791 0
M  V30 4682 H 452.674 3.59377 1.56063 0
M  V30 4683 H 454.371 3.81432 1.23736 0
M  V30 4684 H 450.961 4.2844 -0.117041 0
M  V30 4685 H 455.145 4.88165 -0.894925 0
M  V30 4686 H 450.401 5.78349 -1.983 0
M  V30 4687 H 454.575 6.39427 -2.75873 0
M  V30 4688 H 452.202 6.84417 -3.30874 0
M  V30 4689 N 453.777 0.010035 1.57597 0
M  V30 4690 C 454.707 -0.976857 2.12084 0
M  V30 4691 C 455.688 -1.35191 1.03235 0
M  V30 4692 O 456.873 -1.43389 1.3097 0
M  V30 4693 C 454.003 -2.26548 2.63236 0
M  V30 4694 C 452.957 -2.03175 3.76701 0
M  V30 4695 C 452.283 -3.38138 4.14206 0
M  V30 4696 C 453.583 -1.38625 5.03568 0
M  V30 4697 H 455.277 -0.523145 2.94794 0
M  V30 4698 H 452.823 -0.250195 1.4181 0
M  V30 4699 H 454.776 -2.95952 2.99984 0
M  V30 4700 H 453.5 -2.74051 1.77661 0
M  V30 4701 H 452.159 -1.36195 3.40362 0
M  V30 4702 H 451.807 -3.83363 3.25641 0
M  V30 4703 H 451.507 -3.23312 4.90656 0
M  V30 4704 H 453.031 -4.08841 4.53521 0
M  V30 4705 H 454.445 -1.98 5.38023 0
M  V30 4706 H 452.842 -1.34256 5.84889 0
M  V30 4707 H 453.912 -0.356722 4.83586 0
M  V30 4708 N 455.255 -1.55392 -0.262866 0
M  V30 4709 C 456.48 -1.80847 -1.01533 0
M  V30 4710 C 456.905 -0.584946 -1.78774 0
M  V30 4711 O 456.263 0.465701 -1.75217 0
M  V30 4712 C 456.311 -3.03866 -1.94159 0
M  V30 4713 O 455.415 -2.79662 -3.03089 0
M  V30 4714 H 454.756 -0.597441 -0.289759 0
M  V30 4715 H 457.286 -2.02553 -0.288698 0
M  V30 4716 H 457.296 -3.32872 -2.35924 0
M  V30 4717 H 455.971 -3.92564 -1.37354 0
M  V30 4718 H 454.548 -2.61781 -2.65566 0
M  V30 4719 N 456.733 0.527833 -1.48498 0
M  V30 4720 C 457.981 1.28101 -1.56316 0
M  V30 4721 C 458.302 1.9352 -0.239781 0
M  V30 4722 O 457.572 1.81433 0.738849 0
M  V30 4723 H 456.152 0.475793 -0.575873 0
M  V30 4724 H 458.814 0.614052 -1.84974 0
M  V30 4725 H 457.91 2.05916 -2.34532 0
M  V30 4726 N 458.211 1.37122 0.776871 0
M  V30 4727 C 459.457 1.32243 1.53752 0
M  V30 4728 C 459.79 -0.0944745 1.9397 0
M  V30 4729 O 459.065 -1.05068 1.6368 0
M  V30 4730 C 459.348 2.25681 2.80607 0
M  V30 4731 C 459.201 3.76127 2.46676 0
M  V30 4732 C 460.52 2.17657 3.82509 0
M  V30 4733 H 457.639 0.481704 0.557791 0
M  V30 4734 H 460.281 1.6778 0.891612 0
M  V30 4735 H 458.431 1.95505 3.35723 0
M  V30 4736 H 460.103 4.16877 1.97513 0
M  V30 4737 H 458.346 3.94946 1.79443 0
M  V30 4738 H 459.017 4.36933 3.37333 0
M  V30 4739 H 461.493 2.44245 3.36873 0
M  V30 4740 H 460.369 2.85185 4.69 0
M  V30 4741 H 460.63 1.16785 4.26396 0
M  V30 4742 N 459.689 -1.00246 1.21608 0
M  V30 4743 C 460.637 -2.11193 0.97469 0
M  V30 4744 C 461.631 -1.69216 -0.0789303 0
M  V30 4745 O 462.837 -1.79853 0.0726806 0
M  V30 4746 H 459.212 -0.690455 0.297953 0
M  V30 4747 H 461.183 -2.2873 1.91638 0
M  V30 4748 C 459.932 -3.43182 0.558717 0
M  V30 4749 H 459.255 -3.75918 1.3611 0
M  V30 4750 H 460.695 -4.21823 0.429154 0
M  V30 4751 C 459.154 -3.28882 -0.730648 0
M  V30 4752 O 459.684 -3.59835 -1.78554 0
M  V30 4753 N 457.89 -2.8209 -0.698131 0
M  V30 4754 H 457.437 -2.57099 0.16061 0
M  V30 4755 H 457.395 -2.72903 -1.56113 0
M  V30 4756 N 461.167 -1.02423 -1.1978 0
M  V30 4757 C 462.416 -0.713265 -1.88667 0
M  V30 4758 C 462.729 0.7609 -1.80193 0
M  V30 4759 O 463.935 1.18473 -2.44288 0
M  V30 4760 C 462.391 -1.22545 -3.38394 0
M  V30 4761 C 461.999 -2.72706 -3.55437 0
M  V30 4762 C 463.743 -0.990257 -4.12788 0
M  V30 4763 C 461.65 -3.17367 -4.99031 0
M  V30 4764 H 460.58 -0.263105 -0.706606 0
M  V30 4765 H 463.231 -1.23792 -1.35454 0
M  V30 4766 H 461.613 -0.628732 -3.90977 0
M  V30 4767 H 462.787 -3.37993 -3.13205 0
M  V30 4768 H 461.102 -2.94453 -2.94425 0
M  V30 4769 H 463.699 -1.29926 -5.18675 0
M  V30 4770 H 464.042 0.0730761 -4.16236 0
M  V30 4771 H 464.575 -1.55074 -3.66329 0
M  V30 4772 H 461.314 -4.23009 -5.00743 0
M  V30 4773 H 460.834 -2.56805 -5.42044 0
M  V30 4774 H 462.513 -3.10441 -5.67658 0
M  V30 4775 N 462.645 1.35699 -0.801477 0
M  V30 4776 C 463.577 2.28598 -0.166028 0
M  V30 4777 C 464.59 1.50044 0.631721 0
M  V30 4778 O 465.779 1.72339 0.464921 0
M  V30 4779 C 462.879 3.29625 0.787451 0
M  V30 4780 C 462.052 4.37384 0.037171 0
M  V30 4781 C 461.111 5.183 0.908375 0
M  V30 4782 O 460.137 5.68053 0.361189 0
M  V30 4783 N 461.339 5.35912 2.23112 0
M  V30 4784 H 464.104 2.83771 -0.964071 0
M  V30 4785 H 461.665 1.47994 -0.656469 0
M  V30 4786 H 463.657 3.80648 1.37439 0
M  V30 4787 H 462.227 2.75004 1.48632 0
M  V30 4788 H 461.447 3.87364 -0.730935 0
M  V30 4789 H 462.735 5.0653 -0.480109 0
M  V30 4790 H 462.133 4.97125 2.69968 0
M  V30 4791 H 460.69 5.90133 2.76741 0
M  V30 4792 N 464.123 0.554532 1.47522 0
M  V30 4793 C 465.372 0.0273458 2.01681 0
M  V30 4794 C 465.685 -1.32962 1.43459 0
M  V30 4795 O 466.891 -1.94657 1.89265 0
M  V30 4796 C 465.347 -0.00159057 3.599 0
M  V30 4797 C 464.955 1.35197 4.27113 0
M  V30 4798 C 466.699 -0.476311 4.21819 0
M  V30 4799 C 464.606 1.28229 5.77331 0
M  V30 4800 H 463.536 0.00645269 0.753972 0
M  V30 4801 H 466.187 0.701985 1.69542 0
M  V30 4802 H 464.569 -0.741821 3.8899 0
M  V30 4803 H 465.743 2.1097 4.09668 0
M  V30 4804 H 464.058 1.76441 3.77171 0
M  V30 4805 H 466.655 -0.5468 5.31897 0
M  V30 4806 H 466.998 -1.4877 3.8881 0
M  V30 4807 H 467.531 0.20898 3.97251 0
M  V30 4808 H 464.27 2.26959 6.14955 0
M  V30 4809 H 463.79 0.566314 5.97121 0
M  V30 4810 H 465.469 0.983226 6.39485 0
M  V30 4811 N 465.601 -1.54893 0.290851 0
M  V30 4812 C 466.847 -2.0023 -0.321867 0
M  V30 4813 C 467.18 -1.179 -1.54316 0
M  V30 4814 O 466.455 -0.25293 -1.92848 0
M  V30 4815 C 466.738 -3.53456 -0.688515 0
M  V30 4816 C 466.591 -4.46532 0.541209 0
M  V30 4817 C 467.91 -4.13057 -1.51895 0
M  V30 4818 H 465.029 -0.727891 -0.115515 0
M  V30 4819 H 467.671 -1.85722 0.400931 0
M  V30 4820 H 465.821 -3.6595 -1.30433 0
M  V30 4821 H 467.493 -4.4596 1.17973 0
M  V30 4822 H 465.736 -4.17545 1.17636 0
M  V30 4823 H 466.407 -5.51475 0.240675 0
M  V30 4824 H 468.883 -4.03937 -0.99872 0
M  V30 4825 H 467.759 -5.20448 -1.74429 0
M  V30 4826 H 468.02 -3.64284 -2.50498 0
M  V30 4827 N 467.08 -0.0183926 -1.57589 0
M  V30 4828 C 468.328 0.661253 -1.90976 0
M  V30 4829 C 468.649 1.73281 -0.894353 0
M  V30 4830 O 467.919 1.9579 0.0656788 0
M  V30 4831 H 466.499 0.247233 -0.704901 0
M  V30 4832 H 469.161 -0.0636639 -1.94796 0
M  V30 4833 H 468.257 1.12083 -2.9128 0
M  V30 4834 N 468.558 1.5553 0.254621 0
M  V30 4835 C 469.835 1.6774 1.00611 0
M  V30 4836 C 470.215 0.555993 2.03647 0
M  V30 4837 O 469.563 -0.441583 2.24193 0
M  V30 4838 C 469.773 3.07725 1.6464 0
M  V30 4839 C 471.121 3.66074 2.15116 0
M  V30 4840 O 472.145 3.10476 1.74595 0
M  V30 4841 O 471.004 4.63526 2.89493 0
M  V30 4842 H 468.098 0.681958 0.467828 0
M  V30 4843 H 470.644 1.67863 0.24902 0
M  V30 4844 H 469.416 3.80792 0.900734 0
M  V30 4845 H 469.039 3.1158 2.46989 0
M  V30 4846 N 470.036 -0.519951 1.48776 0
M  V30 4847 C 471.313 -1.28123 1.47797 0
M  V30 4848 C 471.693 -2.10196 0.195157 0
M  V30 4849 O 471.041 -2.13167 -0.822925 0
M  V30 4850 C 471.251 -2.15413 2.74587 0
M  V30 4851 C 472.599 -2.75225 3.23321 0
M  V30 4852 O 473.623 -2.25694 2.75574 0
M  V30 4853 O 472.482 -3.65346 4.06429 0
M  V30 4854 H 469.576 -0.578793 0.590701 0
M  V30 4855 H 472.122 -0.535779 1.6102 0
M  V30 4856 H 470.894 -1.54617 3.59457 0
M  V30 4857 H 470.517 -2.97186 2.64132 0
M  V30 4858 N 471.514 -1.37532 -0.769588 0
M  V30 4859 C 472.444 -1.36172 -1.89682 0
M  V30 4860 C 473.425 -0.23001 -1.68538 0
M  V30 4861 O 474.61 -0.43069 -1.89364 0
M  V30 4862 C 471.74 -1.1701 -3.26995 0
M  V30 4863 C 470.694 -2.27216 -3.62708 0
M  V30 4864 C 470.02 -1.93174 -4.98586 0
M  V30 4865 C 471.32 -3.6941 -3.69234 0
M  V30 4866 H 473.014 -2.30499 -1.91078 0
M  V30 4867 H 470.56 -1.10953 -0.917902 0
M  V30 4868 H 472.513 -1.14688 -4.05493 0
M  V30 4869 H 471.237 -0.191395 -3.26039 0
M  V30 4870 H 469.896 -2.28697 -2.86519 0
M  V30 4871 H 469.544 -0.938281 -4.94171 0
M  V30 4872 H 469.244 -2.66973 -5.23449 0
M  V30 4873 H 470.768 -1.92443 -5.79481 0
M  V30 4874 H 472.182 -3.70047 -4.37879 0
M  V30 4875 H 470.579 -4.4228 -4.05597 0
M  V30 4876 H 471.649 -4.0288 -2.69844 0
M  V30 4877 N 472.992 0.995999 -1.22138 0
M  V30 4878 C 474.22 1.77066 -1.07029 0
M  V30 4879 C 474.635 1.8495 0.379357 0
M  V30 4880 O 473.992 1.3174 1.26297 0
M  V30 4881 C 474.043 3.20533 -1.67155 0
M  V30 4882 O 473.764 3.13082 -3.06449 0
M  V30 4883 C 475.265 4.14461 -1.5728 0
M  V30 4884 H 472.485 0.556179 -0.375374 0
M  V30 4885 H 475.029 1.25238 -1.61666 0
M  V30 4886 H 473.184 3.6944 -1.16589 0
M  V30 4887 H 473.598 4.03283 -3.35355 0
M  V30 4888 H 475.072 5.1289 -2.04078 0
M  V30 4889 H 475.549 4.36005 -0.528795 0
M  V30 4890 H 476.155 3.71449 -2.07136 0
M  V30 4891 N 474.47 1.03057 1.19235 0
M  V30 4892 C 475.716 0.729098 1.89241 0
M  V30 4893 C 476.049 -0.740573 1.79525 0
M  V30 4894 O 475.324 -1.53946 1.18874 0
M  V30 4895 C 475.607 1.18304 3.40112 0
M  V30 4896 C 475.46 2.71406 3.5869 0
M  V30 4897 C 476.779 0.765161 4.33397 0
M  V30 4898 H 473.898 0.266338 0.687192 0
M  V30 4899 H 476.54 1.28079 1.40341 0
M  V30 4900 H 474.69 0.713672 3.81889 0
M  V30 4901 H 476.362 3.26303 3.26074 0
M  V30 4902 H 474.605 3.11717 3.01687 0
M  V30 4903 H 475.276 2.98225 4.64506 0
M  V30 4904 H 477.752 1.16889 3.99345 0
M  V30 4905 H 476.628 1.11065 5.37546 0
M  V30 4906 H 476.889 -0.332372 4.40849 0
M  V30 4907 N 475.948 -1.35272 0.808662 0
M  V30 4908 C 477.176 -2.02946 0.402537 0
M  V30 4909 C 477.591 -1.60937 -0.987147 0
M  V30 4910 O 476.948 -0.807917 -1.63643 0
M  V30 4911 C 476.999 -3.58317 0.47868 0
M  V30 4912 O 476.72 -3.98799 1.81358 0
M  V30 4913 C 478.221 -4.43251 0.0656281 0
M  V30 4914 H 475.441 -0.650831 0.163279 0
M  V30 4915 H 477.985 -1.72849 1.09286 0
M  V30 4916 H 476.14 -3.87055 -0.163415 0
M  V30 4917 H 476.554 -4.93451 1.77781 0
M  V30 4918 H 478.028 -5.51738 0.170017 0
M  V30 4919 H 478.505 -4.27913 -0.989278 0
M  V30 4920 H 479.111 -4.19813 0.68096 0
M  V30 4921 N 477.426 -0.562348 -1.47226 0
M  V30 4922 C 478.374 0.195476 -2.31777 0
M  V30 4923 C 479.368 0.90433 -1.43242 0
M  V30 4924 O 480.574 0.825031 -1.59979 0
M  V30 4925 H 476.949 0.0819095 -0.747526 0
M  V30 4926 H 478.92 -0.536753 -2.93533 0
M  V30 4927 C 477.669 1.20902 -3.26003 0
M  V30 4928 H 476.992 0.672997 -3.94095 0
M  V30 4929 H 478.432 1.71006 -3.87986 0
M  V30 4930 C 476.891 2.25955 -2.49891 0
M  V30 4931 O 477.421 3.32969 -2.2471 0
M  V30 4932 N 475.627 2.00019 -2.1081 0
M  V30 4933 H 475.174 1.13006 -2.31489 0
M  V30 4934 H 475.132 2.70523 -1.60201 0
M  V30 4935 N 478.904 1.54736 -0.299062 0
M  V30 4936 C 480.315 1.8569 0.193971 0
M  V30 4937 C 480.666 1.22101 1.53577 0
M  V30 4938 O 479.791 0.51799 2.10109 0
M  V30 4939 C 480.386 3.36895 0.358733 0
M  V30 4940 C 478.945 3.67887 0.795986 0
M  V30 4941 C 478.092 2.77131 -0.096807 0
M  V30 4942 H 481.043 1.49934 -0.520134 0
M  V30 4943 H 481.064 3.61294 1.19361 0
M  V30 4944 H 480.576 3.83148 -0.617998 0
M  V30 4945 H 478.677 3.27151 1.78334 0
M  V30 4946 H 478.79 4.75114 0.616718 0
M  V30 4947 H 477.154 2.51153 0.423581 0
M  V30 4948 H 477.937 3.26204 -1.06986 0
M  V30 4949 N 480.382 0.0267497 1.57577 0
M  V30 4950 C 481.329 -0.955894 2.10075 0
M  V30 4951 C 482.299 -1.32453 1.00226 0
M  V30 4952 O 483.484 -1.41826 1.27632 0
M  V30 4953 C 480.624 -2.2338 2.6305 0
M  V30 4954 C 479.737 -1.92183 3.86898 0
M  V30 4955 C 478.872 -3.14251 4.28275 0
M  V30 4956 C 477.911 -2.78862 5.44888 0
M  V30 4957 N 477.048 -3.93548 5.81433 0
M  V30 4958 H 481.888 -0.501303 2.93753 0
M  V30 4959 H 479.425 -0.235847 1.45197 0
M  V30 4960 H 481.383 -2.98124 2.91853 0
M  V30 4961 H 480.013 -2.6646 1.82205 0
M  V30 4962 H 479.065 -1.07692 3.64838 0
M  V30 4963 H 480.377 -1.62117 4.7172 0
M  V30 4964 H 479.531 -3.97317 4.58502 0
M  V30 4965 H 478.27 -3.47476 3.42215 0
M  V30 4966 H 477.275 -1.94208 5.14357 0
M  V30 4967 H 478.5 -2.46855 6.32645 0
M  V30 4968 H 476.446 -4.2662 4.98328 0
M  V30 4969 H 476.363 -3.67098 6.6089 0
M  V30 4970 H 477.631 -4.77325 6.16264 0
M  V30 4971 N 481.861 -1.55662 -0.24637 0
M  V30 4972 C 483.277 -1.48098 -0.594907 0
M  V30 4973 C 483.477 -0.717044 -1.8831 0
M  V30 4974 O 482.533 -0.246618 -2.51293 0
M  V30 4975 C 483.846 -2.92507 -0.697146 0
M  V30 4976 C 485.394 -3.02881 -0.789436 0
M  V30 4977 C 485.869 -4.48598 -0.923232 0
M  V30 4978 N 487.36 -4.52538 -0.988088 0
M  V30 4979 C 488.095 -5.62536 -1.11089 0
M  V30 4980 N 487.591 -6.82342 -1.19919 0
M  V30 4981 N 489.384 -5.50334 -1.14408 0
M  V30 4982 H 481.535 -2.0377 0.599278 0
M  V30 4983 H 483.798 -0.925145 0.20691 0
M  V30 4984 H 483.504 -3.51242 0.179396 0
M  V30 4985 H 483.378 -3.43024 -1.5689 0
M  V30 4986 H 485.765 -2.44226 -1.65643 0
M  V30 4987 H 485.846 -2.55574 0.107482 0
M  V30 4988 H 485.49 -5.07864 -0.0607927 0
M  V30 4989 H 485.42 -4.93587 -1.8352 0
M  V30 4990 H 487.911 -3.66248 -0.931167 0
M  V30 4991 H 488.224 -7.61924 -1.29197 0
M  V30 4992 H 486.569 -6.85102 -1.16876 0
M  V30 4993 H 489.76 -4.5567 -1.07158 0
M  V30 4994 H 489.933 -6.36096 -1.23634 0
M  V30 4995 N 483.339 0.512053 -1.4905 0
M  V30 4996 C 484.588 1.26343 -1.57227 0
M  V30 4997 C 484.901 1.93876 -0.259155 0
M  V30 4998 O 486.107 2.70612 -0.219358 0
M  V30 4999 C 484.563 2.29343 -2.77362 0
M  V30 5000 C 484.171 1.67799 -4.15388 0
M  V30 5001 C 485.915 3.05378 -2.94864 0
M  V30 5002 C 483.822 2.68845 -5.2676 0
M  V30 5003 H 482.752 0.475231 -0.585382 0
M  V30 5004 H 485.403 0.53862 -1.75417 0
M  V30 5005 H 483.785 3.04938 -2.52643 0
M  V30 5006 H 484.959 0.982715 -4.50199 0
M  V30 5007 H 483.274 1.04194 -4.03153 0
M  V30 5008 H 485.871 3.80921 -3.75238 0
M  V30 5009 H 486.214 3.62327 -2.05 0
M  V30 5010 H 486.747 2.36898 -3.19569 0
M  V30 5011 H 483.486 2.16692 -6.18647 0
M  V30 5012 H 483.006 3.36647 -4.96416 0
M  V30 5013 H 484.685 3.31487 -5.5563 0
M  V30 5014 N 484.817 1.37938 0.762283 0
M  V30 5015 C 485.78 1.34279 1.85747 0
M  V30 5016 C 486.78 0.244969 1.58923 0
M  V30 5017 O 487.97 0.501365 1.66829 0
M  V30 5018 C 485.102 1.08833 3.23061 0
M  V30 5019 H 486.295 2.31705 1.90401 0
M  V30 5020 H 483.848 1.23105 0.963057 0
M  V30 5021 H 484.583 0.119767 3.24079 0
M  V30 5022 H 484.368 1.88306 3.43923 0
M  V30 5023 H 485.858 1.08946 4.03138 0
M  V30 5024 N 486.295 -0.989507 1.22664 0
M  V30 5025 C 487.227 -2.0824 0.957542 0
M  V30 5026 C 488.24 -1.6267 -0.0651098 0
M  V30 5027 O 489.429 -1.77695 0.169312 0
M  V30 5028 C 486.529 -3.36298 0.419145 0
M  V30 5029 C 485.702 -4.10882 1.49982 0
M  V30 5030 C 484.761 -5.17221 0.967904 0
M  V30 5031 O 483.787 -5.44613 1.65487 0
M  V30 5032 N 484.989 -5.80124 -0.20896 0
M  V30 5033 H 487.754 -2.31904 1.89843 0
M  V30 5034 H 485.315 -1.15552 1.13399 0
M  V30 5035 H 487.307 -4.04671 0.0485451 0
M  V30 5036 H 485.877 -3.09671 -0.426937 0
M  V30 5037 H 485.097 -3.37092 2.04359 0
M  V30 5038 H 486.385 -4.57482 2.22682 0
M  V30 5039 H 485.783 -5.60244 -0.783818 0
M  V30 5040 H 484.34 -6.49715 -0.520913 0
M  V30 5041 N 487.773 -1.03688 -1.18687 0
M  V30 5042 C 488.736 -0.629115 -2.20397 0
M  V30 5043 C 489.736 0.311495 -1.57754 0
M  V30 5044 O 490.926 0.0974107 -1.73927 0
M  V30 5045 C 488.058 0.0782231 -3.4081 0
M  V30 5046 H 489.251 -1.52915 -2.57987 0
M  V30 5047 H 486.804 -0.828988 -1.32505 0
M  V30 5048 H 487.539 0.992233 -3.08748 0
M  V30 5049 H 487.324 -0.597776 -3.87517 0
M  V30 5050 H 488.814 0.350156 -4.16129 0
M  V30 5051 N 489.251 1.34841 -0.815825 0
M  V30 5052 C 490.497 1.98793 -0.401129 0
M  V30 5053 C 490.83 1.64548 1.03139 0
M  V30 5054 O 490.105 0.913487 1.71714 0
M  V30 5055 C 490.388 3.55143 -0.595409 0
M  V30 5056 C 490.241 3.99155 -2.07352 0
M  V30 5057 C 491.56 4.40092 -0.0268823 0
M  V30 5058 H 488.679 0.722146 -0.14722 0
M  V30 5059 H 491.321 1.59847 -1.02707 0
M  V30 5060 H 489.471 3.8845 -0.0625779 0
M  V30 5061 H 491.143 3.76216 -2.66945 0
M  V30 5062 H 489.386 3.49726 -2.56659 0
M  V30 5063 H 490.057 5.07971 -2.1603 0
M  V30 5064 H 492.533 4.13298 -0.482042 0
M  V30 5065 H 491.409 5.48562 -0.19267 0
M  V30 5066 H 491.67 4.29016 1.06759 0
M  V30 5067 N 490.729 0.570148 1.46925 0
M  V30 5068 C 491.639 -0.173061 2.33961 0
M  V30 5069 C 492.655 -0.898825 1.48987 0
M  V30 5070 O 493.831 -0.864825 1.81887 0
M  V30 5071 C 490.896 -1.18177 3.25937 0
M  V30 5072 C 489.957 -0.462041 4.26806 0
M  V30 5073 C 489.19 -1.4227 5.14388 0
M  V30 5074 O 489.413 -2.65842 5.04662 0
M  V30 5075 O 488.347 -0.940127 5.94513 0
M  V30 5076 H 492.173 0.541216 2.98839 0
M  V30 5077 H 489.758 0.330647 1.45695 0
M  V30 5078 H 491.64 -1.76372 3.82715 0
M  V30 5079 H 490.315 -1.87774 2.63671 0
M  V30 5080 H 489.222 0.161429 3.73752 0
M  V30 5081 H 490.555 0.192719 4.91823 0
M  V30 5082 N 492.207 -1.54576 0.307264 0
M  V30 5083 C 493.154 -2.23751 -0.56604 0
M  V30 5084 C 494.124 -1.22235 -1.12462 0
M  V30 5085 O 495.309 -1.50873 -1.16799 0
M  V30 5086 C 492.449 -2.98661 -1.72903 0
M  V30 5087 C 491.562 -4.14963 -1.20124 0
M  V30 5088 C 490.697 -4.77441 -2.3286 0
M  V30 5089 C 489.736 -5.85875 -1.77247 0
M  V30 5090 N 488.873 -6.42282 -2.8358 0
M  V30 5091 H 493.713 -2.97984 0.0304578 0
M  V30 5092 H 491.25 -1.47076 0.0268015 0
M  V30 5093 H 493.208 -3.40329 -2.41313 0
M  V30 5094 H 491.838 -2.26793 -2.29706 0
M  V30 5095 H 490.89 -3.78193 -0.409198 0
M  V30 5096 H 492.202 -4.93066 -0.754171 0
M  V30 5097 H 491.356 -5.21993 -3.09205 0
M  V30 5098 H 490.095 -3.98684 -2.80896 0
M  V30 5099 H 489.1 -5.40741 -0.993926 0
M  V30 5100 H 490.325 -6.6652 -1.30107 0
M  V30 5101 H 488.271 -5.66406 -3.30939 0
M  V30 5102 H 488.188 -7.1575 -2.43388 0
M  V30 5103 H 489.456 -6.91492 -3.59804 0
M  V30 5104 N 493.685 -0.035106 -1.57561 0
M  V30 5105 C 494.632 0.94474 -2.10578 0
M  V30 5106 C 495.602 1.3192 -1.00927 0
M  V30 5107 O 496.787 1.41147 -1.28382 0
M  V30 5108 C 493.927 2.21982 -2.64231 0
M  V30 5109 C 493.04 1.90128 -3.87911 0
M  V30 5110 C 492.175 3.11975 -4.29936 0
M  V30 5111 C 491.214 2.75968 -5.46359 0
M  V30 5112 N 490.351 3.90459 -5.83512 0
M  V30 5113 H 495.191 0.485717 -2.94015 0
M  V30 5114 H 492.728 0.228143 -1.4532 0
M  V30 5115 H 494.686 2.96572 -2.9343 0
M  V30 5116 H 493.316 2.6549 -1.83616 0
M  V30 5117 H 492.368 1.05755 -3.65404 0
M  V30 5118 H 493.68 1.59613 -4.72573 0
M  V30 5119 H 492.834 3.9488 -4.60603 0
M  V30 5120 H 491.573 3.45657 -3.44053 0
M  V30 5121 H 490.578 1.91478 -5.1538 0
M  V30 5122 H 491.803 2.43497 -6.33945 0
M  V30 5123 H 489.749 4.23971 -5.00584 0
M  V30 5124 H 489.666 3.63588 -6.62827 0
M  V30 5125 H 490.934 4.7405 -6.18787 0
M  V30 5126 N 495.163 1.55791 0.238111 0
M  V30 5127 C 496.126 1.90239 1.27835 0
M  V30 5128 C 497.126 0.779552 1.4064 0
M  V30 5129 O 498.316 1.04747 1.3919 0
M  V30 5130 C 495.448 2.13859 2.65475 0
M  V30 5131 H 496.641 2.83262 0.985034 0
M  V30 5132 H 494.194 1.48818 0.477799 0
M  V30 5133 H 494.929 1.23334 2.99932 0
M  V30 5134 H 494.714 2.95643 2.57561 0
M  V30 5135 H 496.204 2.41664 3.40571 0
M  V30 5136 N 496.642 -0.504142 1.49319 0
M  V30 5137 C 497.882 -1.26867 1.60263 0
M  V30 5138 C 498.246 -1.89924 0.281578 0
M  V30 5139 O 499.447 -2.67479 0.266176 0
M  V30 5140 C 497.718 -2.30956 2.72753 0
M  V30 5141 S 499.277 -3.1679 3.03628 0
M  V30 5142 H 496.095 -0.431198 0.565322 0
M  V30 5143 H 498.697 -0.571407 1.86963 0
M  V30 5144 H 497.401 -1.83156 3.67263 0
M  V30 5145 H 496.932 -3.05356 2.48035 0
M  V30 5146 H 498.947 -4.31549 2.44908 0
M  V30 5147 N 498.12 -1.38341 -0.754957 0
M  V30 5148 C 499.068 -1.35573 -1.89005 0
M  V30 5149 C 500.062 -0.241824 -1.67665 0
M  V30 5150 O 501.268 -0.410785 -1.7525 0
M  V30 5151 H 497.643 -0.422898 -0.621821 0
M  V30 5152 H 499.614 -2.31359 -1.88455 0
M  V30 5153 C 498.363 -1.19631 -3.26471 0
M  V30 5154 H 497.686 -2.04605 -3.43477 0
M  V30 5155 H 499.126 -1.21748 -4.06144 0
M  V30 5156 C 497.585 0.0968705 -3.36761 0
M  V30 5157 O 498.115 1.07439 -3.87066 0
M  V30 5158 N 496.321 0.153242 -2.90196 0
M  V30 5159 H 495.868 -0.642908 -2.49448 0
M  V30 5160 H 495.826 1.01807 -2.9746 0
M  V30 5161 N 499.598 0.982988 -1.23187 0
M  V30 5162 C 500.838 1.73903 -1.07412 0
M  V30 5163 C 501.202 1.88146 0.382764 0
M  V30 5164 O 502.403 2.6053 0.661638 0
M  V30 5165 C 500.674 3.10105 -1.77678 0
M  V30 5166 S 502.233 4.01323 -1.77441 0
M  V30 5167 H 499.051 0.598093 -0.384456 0
M  V30 5168 H 501.653 1.17456 -1.56283 0
M  V30 5169 H 500.357 2.97388 -2.82822 0
M  V30 5170 H 499.888 3.71622 -1.29077 0
M  V30 5171 H 501.903 4.89189 -0.831162 0
M  V30 5172 N 501.076 1.04316 1.18135 0
M  V30 5173 C 502.006 0.657299 2.24058 0
M  V30 5174 C 502.987 -0.340678 1.66654 0
M  V30 5175 O 504.172 -0.220223 1.92947 0
M  V30 5176 C 501.302 0.0220715 3.47293 0
M  V30 5177 C 500.256 0.943857 4.17463 0
M  V30 5178 C 499.582 0.172973 5.3442 0
M  V30 5179 C 500.882 2.26409 4.70677 0
M  V30 5180 H 502.576 1.5428 2.56589 0
M  V30 5181 H 500.122 0.743263 1.23335 0
M  V30 5182 H 502.075 -0.259607 4.206 0
M  V30 5183 H 500.799 -0.898323 3.14003 0
M  V30 5184 H 499.458 1.20996 3.46057 0
M  V30 5185 H 499.106 -0.749907 4.97379 0
M  V30 5186 H 498.806 0.787098 5.82304 0
M  V30 5187 H 500.33 -0.101628 6.10515 0
M  V30 5188 H 501.744 2.04294 5.35665 0
M  V30 5189 H 500.141 2.8314 5.29105 0
M  V30 5190 H 501.211 2.90883 3.87962 0
M  V30 5191 N 502.554 -1.34406 0.822964 0
M  V30 5192 C 503.484 -2.32052 0.259608 0
M  V30 5193 C 504.465 -1.58243 -0.623961 0
M  V30 5194 O 505.65 -1.86224 -0.55083 0
M  V30 5195 C 502.78 -3.42434 -0.579314 0
M  V30 5196 C 501.734 -4.27499 0.20712 0
M  V30 5197 C 501.06 -5.29349 -0.754547 0
M  V30 5198 C 502.36 -5.02758 1.41533 0
M  V30 5199 H 504.054 -2.79418 1.07545 0
M  V30 5200 H 501.6 -1.34338 0.518593 0
M  V30 5201 H 503.553 -4.0976 -0.983612 0
M  V30 5202 H 502.277 -2.93717 -1.4282 0
M  V30 5203 H 500.936 -3.61776 0.592787 0
M  V30 5204 H 500.584 -4.76895 -1.59939 0
M  V30 5205 H 500.284 -5.8714 -0.232561 0
M  V30 5206 H 501.808 -5.99544 -1.1567 0
M  V30 5207 H 503.222 -5.62938 1.08504 0
M  V30 5208 H 501.619 -5.70123 1.87296 0
M  V30 5209 H 502.689 -4.32451 2.1935 0
M  V30 5210 N 504.032 -0.577932 -1.46621 0
M  V30 5211 C 504.962 0.145917 -2.33044 0
M  V30 5212 C 505.943 0.888412 -1.45056 0
M  V30 5213 O 507.128 0.864812 -1.73881 0
M  V30 5214 C 504.258 1.16322 -3.27241 0
M  V30 5215 C 503.212 0.535868 -4.24632 0
M  V30 5216 C 502.538 1.65929 -5.08303 0
M  V30 5217 C 503.838 -0.523861 -5.19666 0
M  V30 5218 H 505.532 -0.575636 -2.93814 0
M  V30 5219 H 503.078 -0.278272 -1.41286 0
M  V30 5220 H 505.031 1.67793 -3.86553 0
M  V30 5221 H 503.755 1.91498 -2.64567 0
M  V30 5222 H 502.414 0.0422759 -3.66576 0
M  V30 5223 H 502.062 2.40061 -4.42018 0
M  V30 5224 H 501.762 1.2452 -5.74255 0
M  V30 5225 H 503.286 2.17686 -5.70478 0
M  V30 5226 H 504.7 -0.0944059 -5.73222 0
M  V30 5227 H 503.097 -0.858 -5.93935 0
M  V30 5228 H 504.167 -1.41197 -4.63887 0
M  V30 5229 N 505.51 1.54411 -0.315457 0
M  V30 5230 C 506.457 2.24048 0.554166 0
M  V30 5231 C 507.427 1.2283 1.11812 0
M  V30 5232 O 508.612 1.51491 1.15997 0
M  V30 5233 C 505.752 2.99574 1.71316 0
M  V30 5234 C 504.865 4.15594 1.17922 0
M  V30 5235 C 504 4.78669 2.30324 0
M  V30 5236 C 503.039 5.86807 1.74137 0
M  V30 5237 N 502.176 6.43777 2.8017 0
M  V30 5238 H 507.016 2.97964 -0.0462602 0
M  V30 5239 H 504.553 1.47059 -0.0346009 0
M  V30 5240 H 506.511 3.41604 2.39505 0
M  V30 5241 H 505.141 2.28008 2.285 0
M  V30 5242 H 504.193 3.78404 0.389136 0
M  V30 5243 H 505.505 4.93459 0.728012 0
M  V30 5244 H 504.659 5.23626 3.06433 0
M  V30 5245 H 503.398 4.00168 2.78778 0
M  V30 5246 H 502.403 5.41261 0.965236 0
M  V30 5247 H 503.628 6.67201 1.2657 0
M  V30 5248 H 501.574 5.68153 3.2793 0
M  V30 5249 H 501.491 7.17031 2.39588 0
M  V30 5250 H 502.759 6.9339 3.56132 0
M  V30 5251 N 506.988 0.0434614 1.5754 0
M  V30 5252 C 508.234 -0.632971 1.92669 0
M  V30 5253 C 508.567 -1.70947 0.921446 0
M  V30 5254 O 507.842 -1.94426 -0.0537202 0
M  V30 5255 C 508.125 -1.23619 3.38216 0
M  V30 5256 C 507.978 -0.168274 4.49485 0
M  V30 5257 C 509.297 -2.15008 3.84005 0
M  V30 5258 H 506.416 -0.228629 0.700641 0
M  V30 5259 H 509.058 0.103651 1.89717 0
M  V30 5260 H 507.208 -1.864 3.40863 0
M  V30 5261 H 508.88 0.463196 4.58969 0
M  V30 5262 H 507.123 0.504581 4.30855 0
M  V30 5263 H 507.794 -0.630218 5.48391 0
M  V30 5264 H 510.27 -1.62198 3.83185 0
M  V30 5265 H 509.146 -2.54161 4.86511 0
M  V30 5266 H 509.407 -3.04707 3.20322 0
M  V30 5267 N 508.466 -1.55915 -0.229846 0
M  V30 5268 C 509.414 -1.9258 -1.30444 0
M  V30 5269 C 510.408 -0.806839 -1.48951 0
M  V30 5270 O 511.614 -0.991606 -1.50224 0
M  V30 5271 H 507.989 -0.611878 -0.437161 0
M  V30 5272 H 509.96 -2.82264 -0.96797 0
M  V30 5273 C 508.709 -2.25171 -2.6494 0
M  V30 5274 H 508.032 -3.10782 -2.51504 0
M  V30 5275 H 509.472 -2.54716 -3.38963 0
M  V30 5276 C 507.931 -1.07394 -3.19324 0
M  V30 5277 O 508.461 -0.330759 -4.00336 0
M  V30 5278 N 506.667 -0.859984 -2.77584 0
M  V30 5279 H 506.214 -1.46605 -2.11813 0
M  V30 5280 H 506.172 -0.0736671 -3.14314 0
M  V30 5281 N 509.944 0.496216 -1.49584 0
M  V30 5282 C 510.876 1.61404 -1.62731 0
M  V30 5283 C 511.889 1.54613 -0.50978 0
M  V30 5284 O 513.078 1.60458 -0.782017 0
M  V30 5285 C 510.178 3.00212 -1.57245 0
M  V30 5286 C 509.351 3.32138 -2.84611 0
M  V30 5287 C 508.41 4.5038 -2.72112 0
M  V30 5288 O 507.436 4.51926 -3.46051 0
M  V30 5289 N 508.638 5.50575 -1.83977 0
M  V30 5290 H 511.403 1.50552 -2.59141 0
M  V30 5291 H 508.964 0.684182 -1.46733 0
M  V30 5292 H 510.956 3.77241 -1.4653 0
M  V30 5293 H 509.526 3.04964 -0.686729 0
M  V30 5294 H 508.746 2.4396 -3.09641 0
M  V30 5295 H 510.034 3.50268 -3.69039 0
M  V30 5296 H 509.432 5.52128 -1.23171 0
M  V30 5297 H 507.989 6.26687 -1.79182 0
M  V30 5298 N 511.423 1.38739 0.74761 0
M  V30 5299 C 512.672 1.3459 1.50228 0
M  V30 5300 C 512.985 -0.0595592 1.95509 0
M  V30 5301 O 514.191 -0.22361 2.70578 0
M  V30 5302 C 512.647 2.36377 2.71393 0
M  V30 5303 C 512.255 3.82573 2.33113 0
M  V30 5304 C 513.999 2.41281 3.49262 0
M  V30 5305 C 511.906 4.76032 3.50924 0
M  V30 5306 H 510.836 0.500312 0.564096 0
M  V30 5307 H 513.487 1.64324 0.8167 0
M  V30 5308 H 511.869 1.99694 3.41962 0
M  V30 5309 H 513.043 4.28227 1.70171 0
M  V30 5310 H 511.358 3.80844 1.68365 0
M  V30 5311 H 513.955 3.08301 4.36869 0
M  V30 5312 H 514.298 1.43353 3.9084 0
M  V30 5313 H 514.831 2.76793 2.85711 0
M  V30 5314 H 511.57 5.75177 3.14408 0
M  V30 5315 H 511.09 4.35066 4.12889 0
M  V30 5316 H 512.769 4.94331 4.17427 0
M  V30 5317 N 512.901 -0.976442 1.23707 0
M  V30 5318 C 514.149 -1.71487 1.06942 0
M  V30 5319 C 514.47 -1.9098 -0.393897 0
M  V30 5320 O 513.74 -1.48128 -1.28198 0
M  V30 5321 H 512.32 -0.635425 0.392739 0
M  V30 5322 H 514.982 -1.17515 1.55487 0
M  V30 5323 H 514.078 -2.70286 1.56051 0
M  V30 5324 N 514.379 -1.04941 -1.1758 0
M  V30 5325 C 515.604 -0.778253 -1.92245 0
M  V30 5326 C 516.029 0.659707 -1.76152 0
M  V30 5327 O 515.387 1.45803 -1.07755 0
M  V30 5328 C 515.435 -1.16051 -3.41416 0
M  V30 5329 O 514.539 -0.291153 -4.11371 0
M  V30 5330 H 513.88 -0.285619 -0.599431 0
M  V30 5331 H 516.41 -1.40159 -1.49052 0
M  V30 5332 H 516.42 -1.12619 -3.92149 0
M  V30 5333 H 515.095 -2.208 -3.52449 0
M  V30 5334 H 513.672 -0.385851 -3.70898 0
M  V30 5335 N 515.857 1.33968 -0.830081 0
M  V30 5336 C 517.103 1.98357 -0.422191 0
M  V30 5337 C 517.436 1.65633 1.01387 0
M  V30 5338 O 516.711 0.931648 1.70735 0
M  V30 5339 C 516.994 3.54492 -0.633043 0
M  V30 5340 C 516.847 3.96934 -2.11574 0
M  V30 5341 C 518.166 4.40039 -0.0735584 0
M  V30 5342 H 515.285 0.720544 -0.154871 0
M  V30 5343 H 517.927 1.58749 -1.04397 0
M  V30 5344 H 516.077 3.88361 -0.103775 0
M  V30 5345 H 517.749 3.73363 -2.7092 0
M  V30 5346 H 515.992 3.46984 -2.60354 0
M  V30 5347 H 516.663 5.05651 -2.21406 0
M  V30 5348 H 519.139 4.12764 -0.52585 0
M  V30 5349 H 518.015 5.48327 -0.250841 0
M  V30 5350 H 518.276 4.30124 1.02202 0
M  V30 5351 N 517.335 0.585699 1.46312 0
M  V30 5352 C 518.563 0.0781299 2.06752 0
M  V30 5353 C 518.978 -1.22812 1.43396 0
M  V30 5354 O 518.335 -1.74318 0.540314 0
M  V30 5355 C 518.386 -0.0911927 3.61385 0
M  V30 5356 O 518.107 1.16336 4.22371 0
M  V30 5357 C 519.608 -0.632765 4.38761 0
M  V30 5358 H 516.828 0.0588188 0.668417 0
M  V30 5359 H 519.372 0.807218 1.87894 0
M  V30 5360 H 517.527 -0.770514 3.7966 0
M  V30 5361 H 517.941 0.979082 5.15281 0
M  V30 5362 H 519.415 -0.70041 5.47538 0
M  V30 5363 H 519.892 -1.65039 4.07012 0
M  V30 5364 H 520.498 0.0117856 4.25298 0
M  V30 5365 N 518.813 -1.54241 0.323641 0
M  V30 5366 C 519.723 -2.28033 -0.551205 0
M  V30 5367 C 520.739 -1.32388 -1.12913 0
M  V30 5368 O 521.915 -1.65403 -1.14908 0
M  V30 5369 C 518.98 -3.02382 -1.69606 0
M  V30 5370 C 518.041 -4.13612 -1.14993 0
M  V30 5371 C 517.274 -4.84407 -2.24022 0
M  V30 5372 O 517.497 -4.54716 -3.44368 0
M  V30 5373 O 516.431 -5.71312 -1.89436 0
M  V30 5374 H 520.257 -3.03662 0.048066 0
M  V30 5375 H 517.842 -1.49133 0.0893289 0
M  V30 5376 H 519.724 -3.48941 -2.36259 0
M  V30 5377 H 518.399 -2.29628 -2.28151 0
M  V30 5378 H 517.306 -3.71402 -0.448484 0
M  V30 5379 H 518.639 -4.8841 -0.609608 0
M  V30 5380 N 520.291 -0.0518155 -1.57515 0
M  V30 5381 C 521.516 0.634896 -1.97443 0
M  V30 5382 C 521.941 1.63546 -0.929207 0
M  V30 5383 O 521.299 1.80981 0.107484 0
M  V30 5384 C 521.347 1.29765 -3.36442 0
M  V30 5385 O 520.451 2.41333 -3.34413 0
M  V30 5386 H 519.792 0.164994 -0.643174 0
M  V30 5387 H 522.322 -0.120407 -2.04245 0
M  V30 5388 H 522.332 1.64918 -3.73184 0
M  V30 5389 H 521.007 0.564361 -4.12053 0
M  V30 5390 H 519.584 2.08122 -3.09418 0
M  V30 5391 N 521.769 1.56035 0.221574 0
M  V30 5392 C 523.018 1.78245 0.944016 0
M  V30 5393 C 523.331 0.620371 1.85501 0
M  V30 5394 O 524.537 0.726103 2.6161 0
M  V30 5395 C 522.993 3.15659 1.7288 0
M  V30 5396 C 522.601 4.39591 0.863942 0
M  V30 5397 C 524.345 3.47195 2.44246 0
M  V30 5398 C 522.252 5.6803 1.64607 0
M  V30 5399 H 521.182 0.664547 0.356222 0
M  V30 5400 H 523.833 1.8243 0.197904 0
M  V30 5401 H 522.215 3.0565 2.51781 0
M  V30 5402 H 523.389 4.60655 0.115464 0
M  V30 5403 H 521.704 4.15572 0.262407 0
M  V30 5404 H 524.301 4.40381 3.03263 0
M  V30 5405 H 524.644 2.69693 3.1713 0
M  V30 5406 H 525.177 3.58533 1.72334 0
M  V30 5407 H 521.916 6.48425 0.960507 0
M  V30 5408 H 521.436 5.51027 2.36917 0
M  V30 5409 H 523.115 6.08203 2.20675 0
M  V30 5410 N 523.247 -0.488276 1.49845 0
M  V30 5411 C 524.179 -1.60539 1.63584 0
M  V30 5412 C 525.192 -1.5434 0.517972 0
M  V30 5413 O 526.381 -1.60041 0.790516 0
M  V30 5414 C 523.481 -2.99374 1.58835 0
M  V30 5415 C 522.654 -3.30624 2.86368 0
M  V30 5416 C 521.713 -4.4893 2.74496 0
M  V30 5417 O 520.739 -4.50085 3.48443 0
M  V30 5418 N 521.941 -5.49591 1.86894 0
M  V30 5419 H 524.706 -1.49176 2.59936 0
M  V30 5420 H 522.267 -0.67639 1.47094 0
M  V30 5421 H 524.259 -3.76459 1.48529 0
M  V30 5422 H 522.829 -3.04595 0.702892 0
M  V30 5423 H 522.049 -2.42314 3.1093 0
M  V30 5424 H 523.337 -3.48305 3.70892 0
M  V30 5425 H 522.735 -5.51467 1.26097 0
M  V30 5426 H 521.292 -6.25728 1.82503 0
M  V30 5427 N 524.725 -1.39134 -0.740242 0
M  V30 5428 C 525.688 -1.37217 -1.83587 0
M  V30 5429 C 526.688 -0.270221 -1.58513 0
M  V30 5430 O 527.878 -0.527843 -1.6601 0
M  V30 5431 C 525.01 -1.13959 -3.21288 0
M  V30 5432 H 526.203 -2.34705 -1.86691 0
M  V30 5433 H 523.756 -1.24622 -0.94335 0
M  V30 5434 H 524.491 -0.17131 -3.23847 0
M  V30 5435 H 524.276 -1.93754 -3.40884 0
M  V30 5436 H 525.766 -1.15346 -4.01354 0
M  V30 5437 N 526.204 0.969867 -1.24223 0
M  V30 5438 C 527.444 1.72754 -1.0925 0
M  V30 5439 C 527.808 1.88541 0.362787 0
M  V30 5440 O 529.009 2.61217 0.633969 0
M  V30 5441 C 527.28 3.08204 -1.80957 0
M  V30 5442 S 528.839 3.99418 -1.81688 0
M  V30 5443 H 525.657 0.593981 -0.390778 0
M  V30 5444 H 528.259 1.15792 -1.5752 0
M  V30 5445 H 526.963 2.94372 -2.85961 0
M  V30 5446 H 526.494 3.70232 -1.33012 0
M  V30 5447 H 528.509 4.8828 -0.883001 0
M  V30 5448 N 527.682 1.05563 1.17022 0
M  V30 5449 C 528.629 0.659893 2.21165 0
M  V30 5450 C 529.599 -0.339813 1.62587 0
M  V30 5451 O 530.784 -0.230378 1.89404 0
M  V30 5452 C 527.924 0.0447297 3.45071 0
M  V30 5453 C 527.037 1.09372 4.17926 0
M  V30 5454 C 526.172 0.445481 5.29329 0
M  V30 5455 C 525.211 1.47852 5.93975 0
M  V30 5456 N 524.348 0.854172 6.96885 0
M  V30 5457 H 529.188 1.55243 2.54369 0
M  V30 5458 H 526.725 0.776336 1.24946 0
M  V30 5459 H 528.683 -0.329404 4.15898 0
M  V30 5460 H 527.313 -0.811244 3.1244 0
M  V30 5461 H 526.365 1.58564 3.45777 0
M  V30 5462 H 527.677 1.87773 4.62107 0
M  V30 5463 H 526.831 0.0179688 6.06697 0
M  V30 5464 H 525.57 -0.370481 4.86291 0
M  V30 5465 H 524.575 1.91601 5.15334 0
M  V30 5466 H 525.8 2.29645 6.39093 0
M  V30 5467 H 523.746 0.0587882 6.55974 0
M  V30 5468 H 523.663 1.57567 7.39397 0
M  V30 5469 H 524.931 0.451559 7.78191 0
M  V30 5470 N 529.16 -1.33526 0.837174 0
M  V30 5471 C 530.09 -2.31764 0.284206 0
M  V30 5472 C 531.071 -1.58896 -0.607142 0
M  V30 5473 O 532.256 -1.86798 -0.531047 0
M  V30 5474 C 529.386 -3.43029 -0.542962 0
M  V30 5475 C 528.34 -4.27255 0.252451 0
M  V30 5476 C 527.666 -5.3012 -0.69836 0
M  V30 5477 C 528.966 -5.01229 1.46858 0
M  V30 5478 H 530.66 -2.78262 1.10502 0
M  V30 5479 H 528.206 -1.3378 0.532812 0
M  V30 5480 H 530.159 -4.1078 -0.940096 0
M  V30 5481 H 528.883 -2.95216 -1.39697 0
M  V30 5482 H 527.542 -3.61127 0.631124 0
M  V30 5483 H 527.19 -4.78564 -1.54872 0
M  V30 5484 H 526.89 -5.87353 -0.170274 0
M  V30 5485 H 528.414 -6.00737 -1.09305 0
M  V30 5486 H 529.828 -5.61756 1.14469 0
M  V30 5487 H 528.225 -5.68104 1.93333 0
M  V30 5488 H 529.295 -4.301 2.23924 0
M  V30 5489 N 530.638 -0.59345 -1.46 0
M  V30 5490 C 531.601 0.123538 -2.28867 0
M  V30 5491 C 532.601 0.808628 -1.38989 0
M  V30 5492 O 533.791 0.658945 -1.61256 0
M  V30 5493 C 530.923 1.1847 -3.19653 0
M  V30 5494 H 532.116 -0.604843 -2.93737 0
M  V30 5495 H 529.669 -0.351875 -1.52288 0
M  V30 5496 H 530.404 1.94431 -2.59552 0
M  V30 5497 H 530.189 0.69783 -3.8584 0
M  V30 5498 H 531.679 1.68726 -3.81997 0
M  V30 5499 N 532.116 1.54067 -0.331816 0
M  V30 5500 C 533.048 2.22139 0.564538 0
M  V30 5501 C 534.061 1.22408 1.07332 0
M  V30 5502 O 535.25 1.4883 0.985481 0
M  V30 5503 C 532.35 2.87876 1.78831 0
M  V30 5504 C 531.523 4.13817 1.41682 0
M  V30 5505 C 530.582 4.63072 2.49901 0
M  V30 5506 O 529.608 5.27562 2.13699 0
M  V30 5507 N 530.81 4.38001 3.80967 0
M  V30 5508 H 533.575 2.99694 -0.0183736 0
M  V30 5509 H 531.136 1.61153 -0.155396 0
M  V30 5510 H 533.128 3.17747 2.50637 0
M  V30 5511 H 531.698 2.13977 2.27887 0
M  V30 5512 H 530.918 3.9062 0.530044 0
M  V30 5513 H 532.206 4.95762 1.14443 0
M  V30 5514 H 531.604 3.864 4.13173 0
M  V30 5515 H 530.161 4.72507 4.48977 0
M  V30 5516 N 533.594 0.0601682 1.57485 0
M  V30 5517 C 534.819 -0.624416 1.97777 0
M  V30 5518 C 535.244 -1.63051 0.937867 0
M  V30 5519 O 534.602 -1.81036 -0.0978845 0
M  V30 5520 C 534.65 -1.27979 3.37126 0
M  V30 5521 O 533.754 -2.39556 3.35688 0
M  V30 5522 H 533.095 -0.161581 0.64404 0
M  V30 5523 H 535.625 0.131237 2.04179 0
M  V30 5524 H 535.635 -1.62937 3.74053 0
M  V30 5525 H 534.31 -0.542501 4.12347 0
M  V30 5526 H 532.887 -2.06478 3.10517 0
M  V30 5527 N 535.072 -1.5615 -0.213296 0
M  V30 5528 C 536.02 -1.93953 -1.28394 0
M  V30 5529 C 537.014 -0.822592 -1.48087 0
M  V30 5530 O 538.22 -1.00748 -1.49164 0
M  V30 5531 H 534.595 -0.61648 -0.430646 0
M  V30 5532 H 536.566 -2.83275 -0.937977 0
M  V30 5533 C 535.315 -2.27969 -2.62537 0
M  V30 5534 H 534.638 -3.13432 -2.48194 0
M  V30 5535 H 536.078 -2.58297 -3.36242 0
M  V30 5536 C 534.537 -1.10775 -3.18167 0
M  V30 5537 O 535.067 -0.373201 -3.99963 0
M  V30 5538 N 533.273 -0.889377 -2.76656 0
M  V30 5539 H 532.82 -1.48843 -2.10246 0
M  V30 5540 H 532.778 -0.107 -3.14218 0
M  V30 5541 N 536.55 0.480323 -1.50102 0
M  V30 5542 C 537.798 1.23063 -1.60312 0
M  V30 5543 C 538.119 1.92659 -0.301226 0
M  V30 5544 O 537.389 1.83691 0.680753 0
M  V30 5545 H 535.969 0.457231 -0.590719 0
M  V30 5546 H 538.631 0.554893 -1.86834 0
M  V30 5547 H 537.727 1.9835 -2.40964 0
M  V30 5548 N 538.028 1.39524 0.732853 0
M  V30 5549 C 539.274 1.38072 1.49358 0
M  V30 5550 C 539.629 -0.0227943 1.92386 0
M  V30 5551 O 538.922 -0.98976 1.64056 0
M  V30 5552 C 539.116 2.28916 2.74468 0
M  V30 5553 C 538.945 3.7796 2.43673 0
M  V30 5554 C 537.715 4.46874 2.35863 0
M  V30 5555 C 539.913 4.69886 2.09074 0
M  V30 5556 N 537.895 5.81242 1.97561 0
M  V30 5557 C 539.266 5.9292 1.81234 0
M  V30 5558 C 541.321 4.57887 1.95561 0
M  V30 5559 C 540.024 7.05297 1.41242 0
M  V30 5560 C 542.05 5.70187 1.56972 0
M  V30 5561 C 541.412 6.92297 1.30018 0
M  V30 5562 H 537.511 0.56051 0.5453 0
M  V30 5563 H 540.095 1.75093 0.85151 0
M  V30 5564 H 538.266 1.9405 3.36451 0
M  V30 5565 H 539.998 2.18441 3.40684 0
M  V30 5566 H 536.753 4.00341 2.5303 0
M  V30 5567 H 537.177 6.52356 1.80997 0
M  V30 5568 H 541.819 3.64014 2.15067 0
M  V30 5569 H 539.537 7.99069 1.20476 0
M  V30 5570 H 543.123 5.62892 1.47119 0
M  V30 5571 H 542.003 7.7772 1.00605 0
M  V30 5572 N 539.506 -0.963266 1.24736 0
M  V30 5573 C 540.754 -1.70343 1.08755 0
M  V30 5574 C 541.075 -1.91387 -0.373619 0
M  V30 5575 O 540.345 -1.4948 -1.2662 0
M  V30 5576 H 538.925 -0.631224 0.399456 0
M  V30 5577 H 541.587 -1.15859 1.56725 0
M  V30 5578 H 540.683 -2.68616 1.58909 0
M  V30 5579 N 540.985 -1.06182 -1.16461 0
M  V30 5580 C 542.231 -0.779015 -1.87241 0
M  V30 5581 C 542.564 0.692715 -1.81425 0
M  V30 5582 O 541.839 1.5074 -1.22913 0
M  V30 5583 C 542.122 -1.2728 -3.36856 0
M  V30 5584 C 541.975 -2.80821 -3.51368 0
M  V30 5585 C 543.294 -0.879799 -4.31216 0
M  V30 5586 H 540.413 -0.284464 -0.679889 0
M  V30 5587 H 543.055 -1.31755 -1.36896 0
M  V30 5588 H 541.205 -0.814673 -3.79862 0
M  V30 5589 H 542.877 -3.34833 -3.17308 0
M  V30 5590 H 541.12 -3.19606 -2.93316 0
M  V30 5591 H 541.791 -3.10435 -4.56436 0
M  V30 5592 H 544.267 -1.27436 -3.96105 0
M  V30 5593 H 543.143 -1.25278 -5.34412 0
M  V30 5594 H 543.404 0.215372 -4.41575 0
M  V30 5595 N 542.463 1.3308 -0.844243 0
M  V30 5596 C 543.396 2.27075 -0.226279 0
M  V30 5597 C 544.374 1.49911 0.629716 0
M  V30 5598 O 545.558 1.79068 0.588803 0
M  V30 5599 C 542.685 3.31767 0.681782 0
M  V30 5600 C 541.731 4.26384 -0.0994565 0
M  V30 5601 S 542.564 5.15186 -1.46094 0
M  V30 5602 C 543.72 6.23405 -0.558319 0
M  V30 5603 H 543.953 2.79141 -1.02312 0
M  V30 5604 H 541.486 1.40452 -0.641292 0
M  V30 5605 H 543.444 3.92566 1.20008 0
M  V30 5606 H 542.105 2.78507 1.45234 0
M  V30 5607 H 541.298 5.00514 0.591733 0
M  V30 5608 H 540.9 3.69949 -0.548991 0
M  V30 5609 H 543.192 6.77069 0.241672 0
M  V30 5610 H 544.135 6.96619 -1.26995 0
M  V30 5611 H 544.543 5.64333 -0.13728 0
M  V30 5612 N 543.941 0.601185 1.45683 0
M  V30 5613 C 545.187 0.0940202 2.02582 0
M  V30 5614 C 545.52 -1.26972 1.46941 0
M  V30 5615 O 544.795 -1.83613 0.641612 0
M  V30 5616 C 545.078 0.0481715 3.60068 0
M  V30 5617 C 544.931 1.44212 4.26055 0
M  V30 5618 C 546.25 -0.642975 4.35378 0
M  V30 5619 H 543.369 0.0356404 0.736138 0
M  V30 5620 H 546.011 0.771929 1.73612 0
M  V30 5621 H 544.161 -0.529128 3.8488 0
M  V30 5622 H 545.833 2.06601 4.12449 0
M  V30 5623 H 544.076 2.00465 3.84703 0
M  V30 5624 H 544.747 1.36234 5.34925 0
M  V30 5625 H 547.223 -0.152351 4.15821 0
M  V30 5626 H 546.099 -0.644141 5.45107 0
M  V30 5627 H 546.36 -1.70785 4.0778 0
M  V30 5628 N 545.419 -1.53889 0.339982 0
M  V30 5629 C 546.644 -2.05741 -0.261798 0
M  V30 5630 C 547.069 -1.21354 -1.43718 0
M  V30 5631 O 546.427 -0.22645 -1.7988 0
M  V30 5632 C 546.475 -3.54542 -0.658228 0
M  V30 5633 O 545.579 -3.7302 -1.75869 0
M  V30 5634 H 544.92 -0.662529 -0.0441672 0
M  V30 5635 H 547.45 -1.98568 0.493161 0
M  V30 5636 H 547.46 -3.9711 -0.936368 0
M  V30 5637 H 546.135 -4.15412 0.201358 0
M  V30 5638 H 544.712 -3.42355 -1.47809 0
M  V30 5639 N 546.897 -0.0685191 -1.57451 0
M  V30 5640 C 547.847 0.909895 -2.09057 0
M  V30 5641 C 548.831 1.26088 -0.999528 0
M  V30 5642 O 550.023 1.24041 -1.26265 0
M  V30 5643 C 547.152 2.17863 -2.65312 0
M  V30 5644 C 546.238 1.85427 -3.81415 0
M  V30 5645 N 546.629 1.23426 -4.9051 0
M  V30 5646 C 544.927 2.15196 -3.90649 0
M  V30 5647 C 545.628 1.09008 -5.71395 0
M  V30 5648 N 544.604 1.59871 -5.1956 0
M  V30 5649 H 548.406 0.426145 -2.90794 0
M  V30 5650 H 545.92 0.135462 -1.61834 0
M  V30 5651 H 547.917 2.88872 -3.00597 0
M  V30 5652 H 546.577 2.66829 -1.85021 0
M  V30 5653 H 547.588 0.904305 -5.09944 0
M  V30 5654 H 544.265 2.66562 -3.21327 0
M  V30 5655 H 545.655 0.607305 -6.6915 0
M  V30 5656 N 548.375 1.56261 0.205012 0
M  V30 5657 C 549.791 1.49623 0.555433 0
M  V30 5658 C 549.991 0.766719 1.86343 0
M  V30 5659 O 549.047 0.313158 2.50551 0
M  V30 5660 C 550.36 2.94253 0.619347 0
M  V30 5661 C 551.908 3.04868 0.708855 0
M  V30 5662 C 552.383 4.50888 0.803969 0
M  V30 5663 N 553.874 4.54999 0.867758 0
M  V30 5664 C 554.609 5.65284 0.96135 0
M  V30 5665 N 554.105 6.85282 1.01786 0
M  V30 5666 N 555.898 5.53174 0.997771 0
M  V30 5667 H 548.049 2.0211 -0.653094 0
M  V30 5668 H 550.312 0.919333 -0.231366 0
M  V30 5669 H 550.018 3.50643 -0.272458 0
M  V30 5670 H 549.892 3.47063 1.47741 0
M  V30 5671 H 552.279 2.48532 1.5911 0
M  V30 5672 H 552.36 2.55199 -0.175205 0
M  V30 5673 H 552.004 5.07846 -0.0738798 0
M  V30 5674 H 551.934 4.98279 1.70369 0
M  V30 5675 H 554.425 3.68588 0.833735 0
M  V30 5676 H 554.738 7.65081 1.08951 0
M  V30 5677 H 553.083 6.8796 0.986706 0
M  V30 5678 H 556.274 4.5835 0.950392 0
M  V30 5679 H 556.447 6.39151 1.06725 0
M  V30 5680 N 549.853 -0.472356 1.50355 0
M  V30 5681 C 551.078 -1.25251 1.65309 0
M  V30 5682 C 551.503 -1.85081 0.335643 0
M  V30 5683 O 550.861 -1.67227 -0.700335 0
M  V30 5684 C 550.909 -2.3379 2.74544 0
M  V30 5685 O 550.013 -3.38401 2.35709 0
M  V30 5686 H 549.354 -0.368539 0.552336 0
M  V30 5687 H 551.884 -0.562271 1.96722 0
M  V30 5688 H 551.894 -2.79121 2.97583 0
M  V30 5689 H 550.569 -1.89614 3.70161 0
M  V30 5690 H 549.146 -2.9879 2.23112 0
M  V30 5691 N 551.331 -1.39911 -0.725443 0
M  V30 5692 C 552.579 -1.37382 -1.48224 0
M  V30 5693 C 552.9 0.0264107 -1.94982 0
M  V30 5694 O 552.17 0.979408 -1.6966 0
M  V30 5695 H 550.75 -0.505596 -0.549892 0
M  V30 5696 H 553.412 -1.7487 -0.860608 0
M  V30 5697 H 552.508 -2.04254 -2.3598 0
M  V30 5698 N 552.809 0.956637 -1.25245 0
M  V30 5699 C 553.719 2.0868 -1.0719 0
M  V30 5700 C 554.735 1.73997 -0.00959074 0
M  V30 5701 O 555.911 2.00301 -0.210104 0
M  V30 5702 C 552.976 3.39754 -0.690526 0
M  V30 5703 C 552.037 3.88316 -1.83055 0
M  V30 5704 C 551.27 5.13134 -1.46728 0
M  V30 5705 O 551.493 5.6925 -0.362029 0
M  V30 5706 O 550.427 5.56356 -2.29677 0
M  V30 5707 H 554.253 2.26813 -2.01965 0
M  V30 5708 H 551.838 1.07098 -1.04165 0
M  V30 5709 H 553.72 4.18543 -0.489871 0
M  V30 5710 H 552.395 3.22896 0.227981 0
M  V30 5711 H 551.302 3.1054 -2.08604 0
M  V30 5712 H 552.635 4.09669 -2.72822 0
M  V30 5713 N 554.287 1.06798 1.15896 0
M  V30 5714 C 555.515 0.808694 1.90441 0
M  V30 5715 C 555.93 -0.637506 1.77711 0
M  V30 5716 O 555.287 -1.43684 1.12522 0
M  V30 5717 C 555.338 1.20068 3.40978 0
M  V30 5718 O 555.059 2.59013 3.53333 0
M  V30 5719 C 556.56 0.96987 4.3256 0
M  V30 5720 H 553.78 0.292809 0.603742 0
M  V30 5721 H 556.324 1.42296 1.46874 0
M  V30 5722 H 554.479 0.630842 3.82229 0
M  V30 5723 H 554.893 2.7485 4.46719 0
M  V30 5724 H 556.367 1.29371 5.36626 0
M  V30 5725 H 556.844 -0.0941209 4.39099 0
M  V30 5726 H 557.45 1.52433 3.97044 0
M  V30 5727 N 555.766 -1.3263 0.851289 0
M  V30 5728 C 556.676 -2.32722 0.296268 0
M  V30 5729 C 557.692 -1.63901 -0.584162 0
M  V30 5730 O 558.868 -1.95465 -0.485334 0
M  V30 5731 C 555.933 -3.42942 -0.509103 0
M  V30 5732 C 554.994 -4.2746 0.397069 0
M  V30 5733 C 554.227 -5.32416 -0.36996 0
M  V30 5734 O 554.45 -5.47491 -1.6003 0
M  V30 5735 O 553.384 -6.01327 0.262493 0
M  V30 5736 H 557.21 -2.82078 1.12543 0
M  V30 5737 H 554.795 -1.36194 0.614135 0
M  V30 5738 H 556.677 -4.1017 -0.96634 0
M  V30 5739 H 555.352 -2.95781 -1.31512 0
M  V30 5740 H 554.259 -3.63053 0.902411 0
M  V30 5741 H 555.592 -4.78136 1.16818 0
M  V30 5742 N 557.244 -0.608902 -1.45362 0
M  V30 5743 C 558.521 -0.0365378 -1.95566 0
M  V30 5744 C 558.901 1.43169 -1.55131 0
M  V30 5745 O 558.249 2.1349 -0.814513 0
M  V30 5746 C 558.459 -0.236026 -3.48201 0
M  V30 5747 C 559.807 -0.117518 -4.24437 0
M  V30 5748 O 560.831 -0.166217 -3.55812 0
M  V30 5749 O 559.69 -0.00372127 -5.465 0
M  V30 5750 H 556.784 0.0349874 -0.82626 0
M  V30 5751 H 559.33 -0.679055 -1.55521 0
M  V30 5752 H 558.102 -1.25569 -3.70605 0
M  V30 5753 H 557.725 0.441691 -3.95139 0
M  V30 5754 N 558.722 1.53707 -0.348139 0
M  V30 5755 C 559.95 2.05406 0.248224 0
M  V30 5756 C 560.365 1.22282 1.43849 0
M  V30 5757 O 559.722 0.259244 1.80649 0
M  V30 5758 C 559.773 3.55446 0.658793 0
M  V30 5759 O 559.494 4.35417 -0.484149 0
M  V30 5760 C 560.995 4.23335 1.31539 0
M  V30 5761 H 558.215 0.669344 0.0471075 0
M  V30 5762 H 560.759 1.98257 -0.501456 0
M  V30 5763 H 558.914 3.62803 1.35841 0
M  V30 5764 H 559.328 5.24268 -0.155949 0
M  V30 5765 H 560.802 5.29692 1.55338 0
M  V30 5766 H 561.279 3.75967 2.27036 0
M  V30 5767 H 561.885 4.20184 0.657683 0
M  V30 5768 N 560.2 0.0768682 1.57412 0
M  V30 5769 C 561.447 -0.591085 1.93681 0
M  V30 5770 C 561.775 -1.69311 0.957286 0
M  V30 5771 O 561.03 -1.95682 -0.0262428 0
M  V30 5772 C 561.329 -1.20268 3.36557 0
M  V30 5773 C 560.995 -0.226286 4.50332 0
M  V30 5774 C 559.657 0.0423142 4.81181 0
M  V30 5775 C 562.009 0.441415 5.19327 0
M  V30 5776 C 559.337 0.985616 5.78362 0
M  V30 5777 C 561.689 1.37307 6.17519 0
M  V30 5778 C 560.353 1.65009 6.46783 0
M  V30 5779 H 559.623 -0.216293 0.70873 0
M  V30 5780 H 562.27 0.148824 1.90921 0
M  V30 5781 H 560.575 -2.01844 3.35807 0
M  V30 5782 H 562.272 -1.72688 3.61911 0
M  V30 5783 H 558.862 -0.445821 4.26275 0
M  V30 5784 H 563.046 0.247023 4.95685 0
M  V30 5785 H 558.302 1.20743 5.99359 0
M  V30 5786 H 562.476 1.89637 6.70083 0
M  V30 5787 H 560.103 2.38263 7.21897 0
M  V30 5788 N 561.678 -1.56367 -0.196722 0
M  V30 5789 C 562.927 -1.79724 -0.915539 0
M  V30 5790 C 563.24 -0.649804 -1.84491 0
M  V30 5791 O 564.446 -0.767631 -2.60422 0
M  V30 5792 C 562.902 -3.18369 -1.67836 0
M  V30 5793 C 562.51 -4.4091 -0.793897 0
M  V30 5794 C 564.254 -3.51037 -2.38691 0
M  V30 5795 C 562.161 -5.70577 -1.55549 0
M  V30 5796 H 561.091 -0.67013 -0.345604 0
M  V30 5797 H 563.742 -1.82721 -0.168856 0
M  V30 5798 H 562.124 -3.09617 -2.46887 0
M  V30 5799 H 563.298 -4.60781 -0.042163 0
M  V30 5800 H 561.613 -4.15937 -0.19626 0
M  V30 5801 H 564.21 -4.4515 -2.96219 0
M  V30 5802 H 564.553 -2.74704 -3.12799 0
M  V30 5803 H 565.086 -3.61229 -1.66608 0
M  V30 5804 H 561.825 -6.49871 -0.857226 0
M  V30 5805 H 561.345 -5.54726 -2.2812 0
M  V30 5806 H 563.024 -6.11637 -2.10971 0
M  V30 5807 N 563.156 0.464375 -1.50603 0
M  V30 5808 C 564.119 1.54393 -1.69397 0
M  V30 5809 C 565.119 1.50566 -0.564504 0
M  V30 5810 O 566.309 1.53066 -0.831645 0
M  V30 5811 C 563.441 2.9401 -1.72543 0
M  V30 5812 H 564.634 1.39044 -2.65719 0
M  V30 5813 H 562.187 0.69122 -1.40185 0
M  V30 5814 H 562.922 3.14795 -0.77938 0
M  V30 5815 H 562.707 2.98195 -2.54602 0
M  V30 5816 H 564.197 3.72375 -1.89015 0
M  V30 5817 N 564.634 1.40294 0.718013 0
M  V30 5818 C 565.911 1.2894 1.47084 0
M  V30 5819 C 566.291 -0.0933625 2.10893 0
M  V30 5820 O 565.639 -1.10598 1.99951 0
M  V30 5821 C 565.849 2.4264 2.50852 0
M  V30 5822 C 567.197 2.8276 3.16752 0
M  V30 5823 O 568.221 2.42215 2.61171 0
M  V30 5824 O 567.08 3.528 4.17366 0
M  V30 5825 H 564.174 0.506236 0.653952 0
M  V30 5826 H 566.72 1.52208 0.750394 0
M  V30 5827 H 565.492 3.35009 2.022 0
M  V30 5828 H 565.115 2.21129 3.30435 0
M  V30 5829 N 566.112 -0.949982 1.2575 0
M  V30 5830 C 567.042 -2.06483 1.09028 0
M  V30 5831 C 568.023 -1.701 -0.00201532 0
M  V30 5832 O 569.208 -1.93469 0.168383 0
M  V30 5833 C 566.338 -3.39899 0.71316 0
M  V30 5834 C 565.292 -3.90309 1.75621 0
M  V30 5835 C 564.618 -5.20274 1.23365 0
M  V30 5836 C 565.918 -4.16169 3.15596 0
M  V30 5837 H 567.612 -2.20731 2.02283 0
M  V30 5838 H 565.158 -1.06066 0.973964 0
M  V30 5839 H 567.111 -4.17346 0.58309 0
M  V30 5840 H 565.835 -3.25602 -0.255091 0
M  V30 5841 H 564.494 -3.15035 1.8748 0
M  V30 5842 H 564.142 -5.02351 0.255491 0
M  V30 5843 H 563.842 -5.54971 1.93082 0
M  V30 5844 H 565.366 -6.00314 1.11607 0
M  V30 5845 H 566.78 -4.84259 3.06864 0
M  V30 5846 H 565.177 -4.62131 3.82825 0
M  V30 5847 H 566.247 -3.22273 3.6231 0
M  V30 5848 N 567.59 -1.07411 -1.15328 0
M  V30 5849 C 568.836 -0.798831 -1.86404 0
M  V30 5850 C 569.169 0.673433 -1.8215 0
M  V30 5851 O 568.444 1.49428 -1.24505 0
M  V30 5852 C 568.727 -1.30846 -3.35487 0
M  V30 5853 C 568.58 -2.84532 -3.4837 0
M  V30 5854 C 569.899 -0.925486 -4.30259 0
M  V30 5855 H 567.018 -0.291659 -0.676834 0
M  V30 5856 H 569.66 -1.332 -1.35491 0
M  V30 5857 H 567.81 -0.854916 -3.78977 0
M  V30 5858 H 569.482 -3.3818 -3.13739 0
M  V30 5859 H 567.725 -3.22699 -2.8991 0
M  V30 5860 H 568.396 -3.15259 -4.53118 0
M  V30 5861 H 570.872 -1.3163 -3.94731 0
M  V30 5862 H 569.748 -1.3094 -5.33053 0
M  V30 5863 H 570.009 0.168525 -4.41779 0
M  V30 5864 N 569.068 1.32177 -0.85831 0
M  V30 5865 C 570.314 1.97417 -0.46417 0
M  V30 5866 C 570.647 1.67746 0.978514 0
M  V30 5867 O 569.922 0.967654 1.68721 0
M  V30 5868 C 570.205 3.53069 -0.708094 0
M  V30 5869 C 570.058 3.92357 -2.19946 0
M  V30 5870 C 571.377 4.39783 -0.166881 0
M  V30 5871 H 568.496 0.717097 -0.17012 0
M  V30 5872 H 571.138 1.56499 -1.07741 0
M  V30 5873 H 569.288 3.88054 -0.186128 0
M  V30 5874 H 570.96 3.67533 -2.78779 0
M  V30 5875 H 569.203 3.41384 -2.67656 0
M  V30 5876 H 569.874 5.00841 -2.32082 0
M  V30 5877 H 572.35 4.11556 -0.613285 0
M  V30 5878 H 571.226 5.47671 -0.367093 0
M  V30 5879 H 571.487 4.32196 0.930559 0
M  V30 5880 N 570.547 0.616602 1.45037 0
M  V30 5881 C 571.795 0.115103 2.01772 0
M  V30 5882 C 572.116 -1.2622 1.48639 0
M  V30 5883 O 571.386 -1.83563 0.684199 0
M  V30 5884 H 569.966 0.0395607 0.745952 0
M  V30 5885 H 572.628 0.800032 1.77723 0
M  V30 5886 H 571.724 0.0717274 3.12018 0
M  V30 5887 N 572.025 -1.5352 0.356285 0
M  V30 5888 C 572.955 -2.28372 -0.486661 0
M  V30 5889 C 573.936 -1.30432 -1.09185 0
M  V30 5890 O 575.121 -1.59291 -1.11085 0
M  V30 5891 C 572.251 -3.06604 -1.63129 0
M  V30 5892 C 571.205 -4.12154 -1.15381 0
M  V30 5893 C 570.531 -4.78415 -2.38796 0
M  V30 5894 C 571.831 -5.21724 -0.245179 0
M  V30 5895 H 573.525 -2.99083 0.137797 0
M  V30 5896 H 571.071 -1.43841 0.0677134 0
M  V30 5897 H 573.024 -3.57712 -2.22755 0
M  V30 5898 H 571.748 -2.33568 -2.28284 0
M  V30 5899 H 570.407 -3.61978 -0.580294 0
M  V30 5900 H 570.055 -4.01959 -3.02387 0
M  V30 5901 H 569.755 -5.49734 -2.07524 0
M  V30 5902 H 571.279 -5.32313 -2.99125 0
M  V30 5903 H 572.693 -5.68391 -0.748646 0
M  V30 5904 H 571.09 -6.00095 -0.0237608 0
M  V30 5905 H 572.16 -4.79596 0.715229 0
M  V30 5906 N 573.503 -0.0852151 -1.57369 0
M  V30 5907 C 574.743 0.584297 -1.95871 0
M  V30 5908 C 575.107 1.6596 -0.965473 0
M  V30 5909 O 576.308 2.38561 -1.23862 0
M  V30 5910 C 574.579 1.13411 -3.38929 0
M  V30 5911 S 576.138 1.81687 -3.99419 0
M  V30 5912 H 572.956 0.19095 -0.684879 0
M  V30 5913 H 575.558 -0.162267 -1.94825 0
M  V30 5914 H 574.262 0.339845 -4.0899 0
M  V30 5915 H 573.793 1.91672 -3.43548 0
M  V30 5916 H 575.808 3.10037 -3.87417 0
M  V30 5917 N 574.981 1.5647 0.188427 0
M  V30 5918 C 576.209 1.85131 0.923803 0
M  V30 5919 C 576.624 0.668537 1.76567 0
M  V30 5920 O 575.981 -0.362662 1.7886 0
M  V30 5921 C 576.032 3.12661 1.81453 0
M  V30 5922 O 575.753 4.26378 1.00665 0
M  V30 5923 C 577.254 3.54548 2.66103 0
M  V30 5924 H 574.474 0.614624 0.269218 0
M  V30 5925 H 577.018 2.03581 0.193671 0
M  V30 5926 H 575.173 2.96088 2.49821 0
M  V30 5927 H 575.587 4.99041 1.61425 0
M  V30 5928 H 577.061 4.4673 3.24247 0
M  V30 5929 H 577.538 2.77853 3.40139 0
M  V30 5930 H 578.144 3.73674 2.03096 0
M  V30 5931 N 576.459 -0.456382 1.50847 0
M  V30 5932 C 577.707 -1.20497 1.62249 0
M  V30 5933 C 578.028 -1.92156 0.331839 0
M  V30 5934 O 577.298 -1.84751 -0.651443 0
M  V30 5935 H 575.878 -0.447775 0.597918 0
M  V30 5936 H 578.54 -0.525099 1.87693 0
M  V30 5937 H 577.636 -1.94492 2.44089 0
M  V30 5938 N 577.937 -1.40673 -0.710563 0
M  V30 5939 C 578.869 -1.37256 -1.83558 0
M  V30 5940 C 579.882 -0.277133 -1.60424 0
M  V30 5941 O 581.071 -0.537831 -1.70205 0
M  V30 5942 C 578.171 -1.1144 -3.20054 0
M  V30 5943 C 577.344 -2.32734 -3.70342 0
M  V30 5944 C 576.403 -2.03002 -4.85465 0
M  V30 5945 O 575.429 -2.75912 -4.97857 0
M  V30 5946 N 576.631 -1.01105 -5.71627 0
M  V30 5947 H 579.396 -2.34215 -1.86985 0
M  V30 5948 H 576.957 -1.35091 -0.892301 0
M  V30 5949 H 578.949 -0.895265 -3.94673 0
M  V30 5950 H 577.519 -0.231307 -3.11743 0
M  V30 5951 H 576.739 -2.70446 -2.86798 0
M  V30 5952 H 578.027 -3.13584 -4.00678 0
M  V30 5953 H 577.425 -0.407303 -5.64232 0
M  V30 5954 H 575.982 -0.85182 -6.4621 0
M  V30 5955 N 579.415 0.9433 -1.26252 0
M  V30 5956 C 580.664 1.68369 -1.11062 0
M  V30 5957 C 580.977 1.92514 0.346104 0
M  V30 5958 O 582.183 2.64358 0.618646 0
M  V30 5959 C 580.639 3.03171 -1.93946 0
M  V30 5960 C 580.247 2.86782 -3.4418 0
M  V30 5961 C 581.991 3.80916 -1.87359 0
M  V30 5962 C 579.898 4.17044 -4.19319 0
M  V30 5963 H 578.828 0.631469 -0.412023 0
M  V30 5964 H 581.479 1.04922 -1.50544 0
M  V30 5965 H 579.861 3.67587 -1.47296 0
M  V30 5966 H 581.035 2.31229 -3.98585 0
M  V30 5967 H 579.35 2.22482 -3.51981 0
M  V30 5968 H 581.947 4.77417 -2.40784 0
M  V30 5969 H 582.29 4.07658 -0.843857 0
M  V30 5970 H 582.823 3.2327 -2.31821 0
M  V30 5971 H 579.562 3.95487 -5.22753 0
M  V30 5972 H 579.082 4.72319 -3.69696 0
M  V30 5973 H 580.761 4.85513 -4.27651 0
M  V30 5974 N 580.893 1.08022 1.14757 0
M  V30 5975 C 581.84 0.706657 2.19716 0
M  V30 5976 C 582.81 -0.30525 1.63271 0
M  V30 5977 O 583.995 -0.19015 1.8985 0
M  V30 5978 C 581.135 0.117914 3.44898 0
M  V30 5979 C 580.248 1.18212 4.15512 0
M  V30 5980 C 579.383 0.557659 5.28265 0
M  V30 5981 C 578.422 1.60418 5.90705 0
M  V30 5982 N 577.559 1.0018 6.94916 0
M  V30 5983 H 582.399 1.60603 2.51019 0
M  V30 5984 H 579.936 0.802664 1.23271 0
M  V30 5985 H 581.894 -0.241112 4.16503 0
M  V30 5986 H 580.524 -0.744788 3.1409 0
M  V30 5987 H 579.576 1.65863 3.42335 0
M  V30 5988 H 580.888 1.97533 4.5802 0
M  V30 5989 H 580.042 0.146654 6.06523 0
M  V30 5990 H 578.781 -0.267249 4.86967 0
M  V30 5991 H 577.786 2.02489 5.11154 0
M  V30 5992 H 579.011 2.43149 6.34078 0
M  V30 5993 H 576.957 0.197917 6.55701 0
M  V30 5994 H 576.874 1.73216 7.35889 0
M  V30 5995 H 578.142 0.616523 7.77058 0
M  V30 5996 N 582.371 -1.3172 0.865308 0
M  V30 5997 C 583.599 -2.01057 0.488251 0
M  V30 5998 C 584.014 -1.64979 -0.918 0
M  V30 5999 O 583.371 -0.876597 -1.60069 0
M  V30 6000 C 583.422 -3.55964 0.630224 0
M  V30 6001 O 583.143 -3.90749 1.98109 0
M  V30 6002 C 584.644 -4.42574 0.253567 0
M  V30 6003 H 581.864 -0.64332 0.190736 0
M  V30 6004 H 584.408 -1.68058 1.16519 0
M  V30 6005 H 582.563 -3.874 0.000895422 0
M  V30 6006 H 582.977 -4.85467 1.9855 0
M  V30 6007 H 584.451 -5.50521 0.403875 0
M  V30 6008 H 584.928 -4.31724 -0.806895 0
M  V30 6009 H 585.534 -4.16547 0.858404 0
M  V30 6010 N 583.85 -0.624285 -1.44708 0
M  V30 6011 C 585.098 -0.125802 -2.01708 0
M  V30 6012 C 585.418 1.2543 -1.49306 0
M  V30 6013 O 584.689 1.83198 -0.693924 0
M  V30 6014 H 583.269 -0.0435161 -0.745731 0
M  V30 6015 H 585.931 -0.809446 -1.77296 0
M  V30 6016 H 585.027 -0.0882734 -3.11975 0
M  V30 6017 N 585.328 1.53329 -0.364422 0
M  V30 6018 C 586.291 2.24323 0.470292 0
M  V30 6019 C 587.291 1.25068 1.01067 0
M  V30 6020 O 588.481 1.49354 0.896605 0
M  V30 6021 C 585.613 2.97908 1.65722 0
M  V30 6022 H 586.806 2.9952 -0.150917 0
M  V30 6023 H 584.359 1.55868 -0.116092 0
M  V30 6024 H 585.094 2.2695 2.31655 0
M  V30 6025 H 584.879 3.70732 1.27671 0
M  V30 6026 H 586.369 3.5188 2.24878 0
M  V30 6027 N 586.806 0.0935595 1.57322 0
M  V30 6028 C 588.217 -0.435807 1.81542 0
M  V30 6029 C 588.568 -1.68263 1.00907 0
M  V30 6030 O 587.693 -2.15087 0.237983 0
M  V30 6031 C 588.288 -0.797436 3.29282 0
M  V30 6032 C 586.847 -1.27155 3.54272 0
M  V30 6033 C 585.994 -0.267455 2.76007 0
M  V30 6034 H 588.945 0.31902 1.5546 0
M  V30 6035 H 588.966 -1.6571 3.42521 0
M  V30 6036 H 588.478 0.110206 3.87943 0
M  V30 6037 H 586.579 -2.19696 3.00939 0
M  V30 6038 H 586.692 -1.23445 4.62923 0
M  V30 6039 H 585.056 -0.749282 2.43429 0
M  V30 6040 H 585.839 0.632839 3.37417 0
M  V30 6041 N 588.284 -1.56567 -0.180126 0
M  V30 6042 C 589.524 -1.83285 -0.904761 0
M  V30 6043 C 589.888 -0.673226 -1.7981 0
M  V30 6044 O 591.089 -0.820645 -2.55967 0
M  V30 6045 C 589.36 -3.15086 -1.68688 0
M  V30 6046 S 590.919 -3.63258 -2.46149 0
M  V30 6047 H 587.737 -0.643114 -0.303193 0
M  V30 6048 H 590.339 -1.94785 -0.167034 0
M  V30 6049 H 589.043 -3.97484 -1.02148 0
M  V30 6050 H 588.574 -3.06504 -2.46615 0
M  V30 6051 H 590.589 -3.29884 -3.70663 0
M  V30 6052 N 589.762 0.448376 -1.51087 0
M  V30 6053 C 591.178 0.783984 -1.39017 0
M  V30 6054 C 591.378 1.96087 -0.463904 0
M  V30 6055 O 590.434 2.52357 0.0850534 0
M  V30 6056 C 591.747 1.07471 -2.80839 0
M  V30 6057 C 593.295 1.17981 -2.89913 0
M  V30 6058 C 593.77 1.50354 -4.32617 0
M  V30 6059 N 595.261 1.57301 -4.35673 0
M  V30 6060 C 595.996 1.839 -5.4311 0
M  V30 6061 N 595.492 2.08365 -6.60724 0
M  V30 6062 N 597.285 1.8559 -5.30578 0
M  V30 6063 H 589.436 -0.326881 -2.0987 0
M  V30 6064 H 591.699 -0.0838006 -0.944289 0
M  V30 6065 H 591.405 0.282768 -3.50561 0
M  V30 6066 H 591.279 2.00519 -3.19487 0
M  V30 6067 H 593.666 1.9624 -2.20395 0
M  V30 6068 H 593.747 0.228603 -2.54776 0
M  V30 6069 H 593.391 0.726273 -5.0268 0
M  V30 6070 H 593.321 2.46663 -4.65258 0
M  V30 6071 H 595.812 1.40342 -3.50874 0
M  V30 6072 H 596.125 2.27999 -7.38401 0
M  V30 6073 H 594.47 2.0571 -6.63859 0
M  V30 6074 H 597.661 1.65989 -4.37682 0
M  V30 6075 H 597.834 2.05983 -6.1439 0
M  V30 6076 N 591.24 1.41047 0.703093 0
M  V30 6077 C 592.465 1.43537 1.49706 0
M  V30 6078 C 592.89 0.0401853 1.88057 0
M  V30 6079 O 592.248 -0.954785 1.54122 0
M  V30 6080 C 592.296 2.3433 2.74084 0
M  V30 6081 O 591.4 1.79515 3.71279 0
M  V30 6082 H 590.741 0.487454 0.450871 0
M  V30 6083 H 593.271 1.85422 0.86486 0
M  V30 6084 H 593.281 2.49947 3.22476 0
M  V30 6085 H 591.956 3.35708 2.45506 0
M  V30 6086 H 590.533 1.7331 3.30179 0
M  V30 6087 N 592.718 -0.936591 1.26751 0
M  V30 6088 C 593.628 -2.06949 1.10496 0
M  V30 6089 C 594.644 -1.7396 0.037271 0
M  V30 6090 O 595.82 -1.99941 0.241944 0
M  V30 6091 C 592.885 -3.38612 0.744491 0
M  V30 6092 C 591.946 -3.85355 1.89209 0
M  V30 6093 C 591.179 -5.10735 1.54873 0
M  V30 6094 O 591.402 -5.68602 0.452546 0
M  V30 6095 O 590.336 -5.52632 2.38499 0
M  V30 6096 H 594.162 -2.23571 2.05547 0
M  V30 6097 H 591.747 -1.05428 1.05855 0
M  V30 6098 H 593.629 -4.17711 0.556396 0
M  V30 6099 H 592.304 -3.23218 -0.176582 0
M  V30 6100 H 591.211 -3.07182 2.13518 0
M  V30 6101 H 592.544 -4.05277 2.79305 0
M  V30 6102 N 594.196 -1.08629 -1.14182 0
M  V30 6103 C 595.612 -0.814363 -1.3726 0
M  V30 6104 C 595.812 0.575271 -1.93114 0
M  V30 6105 O 594.868 1.33165 -2.1453 0
M  V30 6106 C 596.181 -1.8989 -2.33157 0
M  V30 6107 C 597.729 -1.92518 -2.46791 0
M  V30 6108 C 598.204 -3.00092 -3.45989 0
M  V30 6109 N 599.695 -2.99279 -3.53534 0
M  V30 6110 C 600.43 -3.79158 -4.30147 0
M  V30 6111 N 599.926 -4.68923 -5.09983 0
M  V30 6112 N 601.719 -3.67451 -4.25366 0
M  V30 6113 H 593.87 -1.98232 -0.762758 0
M  V30 6114 H 596.133 -0.860383 -0.398051 0
M  V30 6115 H 595.839 -2.89809 -1.99257 0
M  V30 6116 H 595.713 -1.77013 -3.33086 0
M  V30 6117 H 598.1 -0.932425 -2.79982 0
M  V30 6118 H 598.181 -2.09473 -1.46816 0
M  V30 6119 H 597.825 -3.99575 -3.13532 0
M  V30 6120 H 597.755 -2.80382 -4.45751 0
M  V30 6121 H 600.246 -2.3422 -2.96563 0
M  V30 6122 H 600.559 -5.26475 -5.65724 0
M  V30 6123 H 598.904 -4.72964 -5.09244 0
M  V30 6124 H 602.095 -2.9669 -3.62067 0
M  V30 6125 H 602.268 -4.29944 -4.84822 0
M  V30 6126 N 595.674 1.31259 -0.872281 0
M  V30 6127 C 596.604 2.30929 -0.345554 0
M  V30 6128 C 597.585 1.60449 0.5648 0
M  V30 6129 O 598.77 1.8814 0.481335 0
M  V30 6130 C 595.9 3.44348 0.451823 0
M  V30 6131 C 594.854 4.26435 -0.365641 0
M  V30 6132 C 594.18 5.31785 0.557562 0
M  V30 6133 C 595.48 4.97159 -1.60095 0
M  V30 6134 H 597.174 2.75234 -1.17841 0
M  V30 6135 H 594.72 1.3232 -0.568094 0
M  V30 6136 H 596.673 4.13128 0.830854 0
M  V30 6137 H 595.397 2.98816 1.31821 0
M  V30 6138 H 594.056 3.59326 -0.726649 0
M  V30 6139 H 593.704 4.82502 1.4213 0
M  V30 6140 H 593.404 5.87598 0.0144878 0
M  V30 6141 H 594.928 6.03424 0.933387 0
M  V30 6142 H 596.342 5.58523 -1.29323 0
M  V30 6143 H 594.739 5.62779 -2.08327 0
M  V30 6144 H 595.809 4.24012 -2.35249 0
M  V30 6145 N 597.152 0.631951 1.44375 0
M  V30 6146 C 598.115 -0.0628142 2.29114 0
M  V30 6147 C 599.115 -0.771494 1.41084 0
M  V30 6148 O 600.305 -0.615959 1.62947 0
M  V30 6149 C 597.437 -1.09953 3.22681 0
M  V30 6150 H 598.63 0.682509 2.92031 0
M  V30 6151 H 596.183 0.392128 1.51301 0
M  V30 6152 H 596.918 -1.87481 2.64616 0
M  V30 6153 H 596.703 -0.595286 3.87555 0
M  V30 6154 H 598.193 -1.58538 3.86336 0
M  V30 6155 N 598.631 -1.53133 0.372548 0
M  V30 6156 C 599.578 -2.25951 -0.470631 0
M  V30 6157 C 600.548 -1.26895 -1.07176 0
M  V30 6158 O 601.733 -1.55691 -1.10294 0
M  V30 6159 C 598.873 -3.05726 -1.6008 0
M  V30 6160 C 597.986 -4.19684 -1.02416 0
M  V30 6161 C 597.121 -4.86888 -2.124 0
M  V30 6162 C 596.16 -5.92866 -1.52238 0
M  V30 6163 N 595.297 -6.53732 -2.56084 0
M  V30 6164 H 600.137 -2.97587 0.156816 0
M  V30 6165 H 597.674 -1.4683 0.0891571 0
M  V30 6166 H 599.632 -3.50258 -2.26661 0
M  V30 6167 H 598.262 -2.36331 -2.1988 0
M  V30 6168 H 597.314 -3.79588 -0.248426 0
M  V30 6169 H 598.626 -4.95821 -0.544366 0
M  V30 6170 H 597.78 -5.34638 -2.86787 0
M  V30 6171 H 596.519 -4.10239 -2.63734 0
M  V30 6172 H 595.524 -5.4447 -0.763685 0
M  V30 6173 H 596.749 -6.71439 -1.0172 0
M  V30 6174 H 594.695 -5.79932 -3.06618 0
M  V30 6175 H 594.612 -7.25429 -2.12811 0
M  V30 6176 H 595.88 -7.0613 -3.30152 0
M  V30 6177 N 600.109 -0.101901 -1.5727 0
M  V30 6178 C 601.339 0.567568 -1.98651 0
M  V30 6179 C 601.747 1.61839 -0.980037 0
M  V30 6180 O 601.09 1.83661 0.0376564 0
M  V30 6181 C 601.152 1.26742 -3.36417 0
M  V30 6182 C 600.816 0.366561 -4.55528 0
M  V30 6183 C 601.813 -0.388022 -5.1845 0
M  V30 6184 C 599.498 0.282629 -5.01504 0
M  V30 6185 C 601.492 -1.21445 -6.25724 0
M  V30 6186 C 599.179 -0.547443 -6.08643 0
M  V30 6187 C 600.177 -1.29462 -6.70618 0
M  V30 6188 O 599.865 -2.11095 -7.7569 0
M  V30 6189 H 599.597 0.156282 -0.657687 0
M  V30 6190 H 602.151 -0.179912 -2.04611 0
M  V30 6191 H 600.381 2.06162 -3.27161 0
M  V30 6192 H 602.07 1.8321 -3.622 0
M  V30 6193 H 602.836 -0.332949 -4.83856 0
M  V30 6194 H 598.715 0.853868 -4.53023 0
M  V30 6195 H 602.259 -1.79814 -6.74027 0
M  V30 6196 H 598.156 -0.603971 -6.42668 0
M  V30 6197 H 598.924 -2.03851 -7.92709 0
M  V30 6198 N 601.587 1.56661 0.17182 0
M  V30 6199 C 602.535 1.97289 1.23207 0
M  V30 6200 C 603.529 0.861566 1.45854 0
M  V30 6201 O 604.735 1.04668 1.4644 0
M  V30 6202 H 601.11 0.627681 0.41415 0
M  V30 6203 H 603.081 2.85662 0.862542 0
M  V30 6204 C 601.83 2.34849 2.564 0
M  V30 6205 H 601.153 3.19903 2.39797 0
M  V30 6206 H 602.593 2.67121 3.29276 0
M  V30 6207 C 601.052 1.19172 3.15119 0
M  V30 6208 O 601.582 0.479113 3.98833 0
M  V30 6209 N 599.788 0.962415 2.74201 0
M  V30 6210 H 599.335 1.54365 2.06226 0
M  V30 6211 H 599.293 0.190272 3.13824 0
M  V30 6212 N 603.065 -0.440357 1.51323 0
M  V30 6213 C 603.997 -1.55254 1.68609 0
M  V30 6214 C 605.01 -1.52614 0.566812 0
M  V30 6215 O 606.199 -1.57445 0.841032 0
M  V30 6216 C 603.299 -2.94169 1.68279 0
M  V30 6217 C 602.472 -3.21346 2.96742 0
M  V30 6218 C 601.531 -4.3997 2.8864 0
M  V30 6219 O 600.557 -4.38771 3.62586 0
M  V30 6220 N 601.759 -5.43367 2.04285 0
M  V30 6221 H 604.524 -1.40831 2.6455 0
M  V30 6222 H 602.085 -0.629251 1.49171 0
M  V30 6223 H 604.077 -3.71543 1.60431 0
M  V30 6224 H 602.647 -3.02205 0.799441 0
M  V30 6225 H 601.867 -2.32299 3.18482 0
M  V30 6226 H 603.155 -3.3633 3.81785 0
M  V30 6227 H 602.553 -5.47176 1.43578 0
M  V30 6228 H 601.11 -6.19605 2.02318 0
M  V30 6229 N 604.543 -1.41418 -0.695603 0
M  V30 6230 C 605.473 -1.46035 -1.82197 0
M  V30 6231 C 606.454 -0.319025 -1.67082 0
M  V30 6232 O 607.639 -0.530462 -1.86815 0
M  V30 6233 C 604.769 -1.34179 -3.20333 0
M  V30 6234 C 603.723 -2.46123 -3.50154 0
M  V30 6235 C 603.049 -2.19332 -4.87645 0
M  V30 6236 C 604.349 -3.88463 -3.49133 0
M  V30 6237 H 606.043 -2.40303 -1.78591 0
M  V30 6238 H 603.589 -1.15663 -0.857797 0
M  V30 6239 H 605.542 -1.36021 -3.98844 0
M  V30 6240 H 604.266 -0.363952 -3.24566 0
M  V30 6241 H 602.925 -2.43563 -2.73994 0
M  V30 6242 H 602.573 -1.19891 -4.88503 0
M  V30 6243 H 602.273 -2.94344 -5.08562 0
M  V30 6244 H 603.797 -2.22889 -5.68465 0
M  V30 6245 H 605.211 -3.92738 -4.17648 0
M  V30 6246 H 603.608 -4.63158 -3.81582 0
M  V30 6247 H 604.678 -4.16617 -2.48109 0
M  V30 6248 N 606.021 0.929856 -1.27246 0
M  V30 6249 C 606.954 2.03069 -1.04106 0
M  V30 6250 C 607.932 1.62556 0.0378417 0
M  V30 6251 O 609.116 1.88197 -0.106869 0
M  V30 6252 C 606.243 3.33718 -0.578778 0
M  V30 6253 C 605.289 3.93209 -1.65193 0
M  V30 6254 S 606.122 4.26068 -3.24386 0
M  V30 6255 C 607.278 5.598 -2.79954 0
M  V30 6256 H 607.511 2.22386 -1.97311 0
M  V30 6257 H 605.044 1.07269 -1.11053 0
M  V30 6258 H 607.002 4.09261 -0.31874 0
M  V30 6259 H 605.663 3.12328 0.333182 0
M  V30 6260 H 604.856 4.87482 -1.27973 0
M  V30 6261 H 604.458 3.24243 -1.86393 0
M  V30 6262 H 606.75 6.39004 -2.25123 0
M  V30 6263 H 607.693 6.01917 -3.72963 0
M  V30 6264 H 608.101 5.20219 -2.19164 0
M  V30 6265 N 607.499 1.09233 1.13605 0
M  V30 6266 C 608.915 0.82163 1.36826 0
M  V30 6267 C 609.115 -0.565021 1.93416 0
M  V30 6268 O 608.171 -1.32026 2.15234 0
M  V30 6269 C 609.484 1.91124 2.32147 0
M  V30 6270 C 611.032 1.93824 2.45767 0
M  V30 6271 C 611.507 3.01923 3.44393 0
M  V30 6272 N 612.998 3.01149 3.51942 0
M  V30 6273 C 613.733 3.81434 4.2813 0
M  V30 6274 N 613.229 4.71621 5.07489 0
M  V30 6275 N 615.022 3.69702 4.23411 0
M  V30 6276 H 607.173 1.98633 0.752234 0
M  V30 6277 H 609.436 0.862482 0.393482 0
M  V30 6278 H 609.142 2.90862 1.97717 0
M  V30 6279 H 609.016 1.78777 3.32142 0
M  V30 6280 H 611.403 0.94726 2.79483 0
M  V30 6281 H 611.484 2.10248 1.45703 0
M  V30 6282 H 611.128 4.01232 3.11408 0
M  V30 6283 H 611.058 2.82742 4.44257 0
M  V30 6284 H 613.549 2.35789 2.95317 0
M  V30 6285 H 613.862 5.29468 5.62924 0
M  V30 6286 H 612.207 4.75658 5.06729 0
M  V30 6287 H 615.398 2.98606 3.60489 0
M  V30 6288 H 615.571 4.32509 4.82535 0
M  V30 6289 N 608.977 -1.30795 0.87923 0
M  V30 6290 C 610.226 -1.95636 0.490875 0
M  V30 6291 C 610.539 -1.70214 -0.963674 0
M  V30 6292 O 611.745 -2.28991 -1.45861 0
M  V30 6293 C 610.201 -3.50271 0.826929 0
M  V30 6294 C 609.809 -3.84521 2.29886 0
M  V30 6295 C 611.553 -4.21456 0.507494 0
M  V30 6296 C 609.46 -5.32309 2.57685 0
M  V30 6297 H 608.39 -0.732238 0.179841 0
M  V30 6298 H 611.041 -1.48829 1.07341 0
M  V30 6299 H 609.423 -3.9562 0.173542 0
M  V30 6300 H 610.597 -3.50102 2.99609 0
M  V30 6301 H 608.912 -3.26425 2.58526 0
M  V30 6302 H 611.509 -5.30199 0.692293 0
M  V30 6303 H 611.852 -4.12614 -0.552718 0
M  V30 6304 H 612.385 -3.81772 1.11782 0
M  V30 6305 H 609.124 -5.46195 3.62424 0
M  V30 6306 H 608.644 -5.68048 1.92566 0
M  V30 6307 H 610.323 -5.99678 2.42889 0
M  V30 6308 N 610.455 -0.639598 -1.44038 0
M  V30 6309 C 611.365 0.0612377 -2.3452 0
M  V30 6310 C 612.381 0.826717 -1.53106 0
M  V30 6311 O 613.557 0.777059 -1.85806 0
M  V30 6312 C 610.622 1.02492 -3.31204 0
M  V30 6313 C 609.683 0.25788 -4.28525 0
M  V30 6314 C 608.916 1.17566 -5.2059 0
M  V30 6315 O 609.139 2.41461 -5.16771 0
M  V30 6316 O 608.073 0.655407 -5.98321 0
M  V30 6317 H 611.899 -0.68318 -2.95916 0
M  V30 6318 H 609.484 -0.399784 -1.43952 0
M  V30 6319 H 611.366 1.57911 -3.90694 0
M  V30 6320 H 610.041 1.7498 -2.7233 0
M  V30 6321 H 608.948 -0.339566 -3.72556 0
M  V30 6322 H 610.281 -0.427154 -4.90343 0
M  V30 6323 N 611.933 1.52934 -0.380664 0
M  V30 6324 C 612.843 2.29921 0.466192 0
M  V30 6325 C 613.859 1.36488 1.07922 0
M  V30 6326 O 615.035 1.69553 1.0869 0
M  V30 6327 C 612.1 3.08468 1.58266 0
M  V30 6328 C 611.161 4.17595 0.995627 0
M  V30 6329 C 610.394 4.92387 2.05889 0
M  V30 6330 O 610.617 4.67184 3.27254 0
M  V30 6331 O 609.551 5.77949 1.68102 0
M  V30 6332 H 613.377 3.03274 -0.160735 0
M  V30 6333 H 610.962 1.48698 -0.144617 0
M  V30 6334 H 612.844 3.57469 2.23145 0
M  V30 6335 H 611.519 2.37937 2.19471 0
M  V30 6336 H 610.426 3.72811 0.310332 0
M  V30 6337 H 611.759 4.90336 0.427918 0
M  V30 6338 N 613.412 0.11024 1.57214 0
M  V30 6339 C 614.375 -0.828808 2.1369 0
M  V30 6340 C 615.375 -1.20059 1.06969 0
M  V30 6341 O 616.565 -1.12754 1.32786 0
M  V30 6342 C 613.697 -2.11959 2.66994 0
M  V30 6343 H 614.89 -0.338146 2.97988 0
M  V30 6344 H 612.443 -0.138913 1.55681 0
M  V30 6345 H 613.178 -2.65476 1.8626 0
M  V30 6346 H 612.963 -1.86258 3.45037 0
M  V30 6347 H 614.453 -2.79105 3.10629 0
M  V30 6348 N 614.89 -1.56749 -0.16351 0
M  V30 6349 C 615.82 -2.00042 -1.20438 0
M  V30 6350 C 616.801 -0.877256 -1.45733 0
M  V30 6351 O 617.986 -1.1439 -1.56935 0
M  V30 6352 C 615.116 -2.36697 -2.54149 0
M  V30 6353 C 614.07 -3.52046 -2.43408 0
M  V30 6354 C 613.396 -3.74466 -3.81679 0
M  V30 6355 C 614.696 -4.85247 -1.93216 0
M  V30 6356 H 616.39 -2.87244 -0.844477 0
M  V30 6357 H 613.936 -1.38194 -0.40478 0
M  V30 6358 H 615.889 -2.65582 -3.27176 0
M  V30 6359 H 614.613 -1.46414 -2.91943 0
M  V30 6360 H 613.272 -3.23301 -1.72834 0
M  V30 6361 H 612.92 -2.81461 -4.1688 0
M  V30 6362 H 612.62 -4.52084 -3.75359 0
M  V30 6363 H 614.144 -4.0576 -4.5628 0
M  V30 6364 H 615.558 -5.12957 -2.56023 0
M  V30 6365 H 613.955 -5.66556 -1.97825 0
M  V30 6366 H 615.025 -4.7672 -0.88689 0
M  V30 6367 N 616.368 0.432326 -1.51554 0
M  V30 6368 C 617.616 1.17901 -1.64146 0
M  V30 6369 C 617.937 1.91604 -0.362367 0
M  V30 6370 O 617.207 1.85764 0.621968 0
M  V30 6371 H 615.787 0.438206 -0.604966 0
M  V30 6372 H 618.449 0.495172 -1.88505 0
M  V30 6373 H 617.545 1.90584 -2.47152 0
M  V30 6374 N 617.846 1.41785 0.688094 0
M  V30 6375 C 619.123 1.32031 1.44316 0
M  V30 6376 C 619.503 -0.0486079 2.11044 0
M  V30 6377 O 618.851 -1.06332 2.02252 0
M  V30 6378 C 619.061 2.47906 2.45649 0
M  V30 6379 C 620.409 2.89415 3.10683 0
M  V30 6380 O 621.433 2.477 2.55975 0
M  V30 6381 O 620.292 3.61573 4.09789 0
M  V30 6382 H 617.386 0.519994 0.643067 0
M  V30 6383 H 619.932 1.53765 0.71794 0
M  V30 6384 H 618.704 3.39222 1.95048 0
M  V30 6385 H 618.327 2.28089 3.25671 0
M  V30 6386 N 619.324 -0.923095 1.27737 0
M  V30 6387 C 620.271 -2.02432 1.1086 0
M  V30 6388 C 621.241 -1.66098 0.00835195 0
M  V30 6389 O 622.426 -1.90027 0.171542 0
M  V30 6390 C 619.566 -3.36476 0.766671 0
M  V30 6391 C 618.679 -3.85737 1.94501 0
M  V30 6392 C 617.814 -5.08249 1.54455 0
M  V30 6393 C 616.853 -5.49818 2.6901 0
M  V30 6394 N 615.99 -6.63524 2.29521 0
M  V30 6395 H 620.83 -2.16201 2.05089 0
M  V30 6396 H 618.367 -1.05909 1.02087 0
M  V30 6397 H 620.325 -4.13569 0.549223 0
M  V30 6398 H 618.955 -3.22502 -0.13867 0
M  V30 6399 H 618.007 -3.04883 2.27487 0
M  V30 6400 H 619.319 -4.12513 2.80419 0
M  V30 6401 H 618.473 -5.92857 1.28862 0
M  V30 6402 H 617.212 -4.83261 0.656534 0
M  V30 6403 H 616.217 -4.63757 2.95313 0
M  V30 6404 H 617.442 -5.76799 3.5844 0
M  V30 6405 H 615.388 -6.40185 1.43177 0
M  V30 6406 H 615.305 -6.89978 3.08977 0
M  V30 6407 H 616.573 -7.51461 2.07187 0
M  V30 6408 N 620.802 -1.09834 -1.13024 0
M  V30 6409 C 621.765 -0.745058 -2.16752 0
M  V30 6410 C 622.765 0.227435 -1.59183 0
M  V30 6411 O 623.955 0.0050786 -1.74199 0
M  V30 6412 C 621.087 -0.102543 -3.40746 0
M  V30 6413 H 622.28 -1.66375 -2.49518 0
M  V30 6414 H 619.833 -0.898061 -1.27924 0
M  V30 6415 H 620.568 0.827177 -3.13573 0
M  V30 6416 H 620.353 -0.80235 -3.83803 0
M  V30 6417 H 621.843 0.129082 -4.174 0
M  V30 6418 N 622.28 1.30327 -0.886154 0
M  V30 6419 C 623.529 1.95373 -0.501243 0
M  V30 6420 C 623.842 1.70722 0.954634 0
M  V30 6421 O 625.048 2.29761 1.44644 0
M  V30 6422 C 623.504 3.49828 -0.845493 0
M  V30 6423 C 623.112 3.83296 -2.31922 0
M  V30 6424 C 624.856 4.2118 -0.529838 0
M  V30 6425 C 622.763 5.30935 -2.60504 0
M  V30 6426 H 621.693 0.731274 -0.183722 0
M  V30 6427 H 624.344 1.48258 -1.08129 0
M  V30 6428 H 622.726 3.95522 -0.19452 0
M  V30 6429 H 623.9 3.48508 -3.01461 0
M  V30 6430 H 622.215 3.2505 -2.60253 0
M  V30 6431 H 624.812 5.29825 -0.720401 0
M  V30 6432 H 625.155 4.12902 0.530828 0
M  V30 6433 H 625.688 3.81173 -1.13806 0
M  V30 6434 H 622.427 5.44265 -3.65316 0
M  V30 6435 H 621.947 5.67019 -1.95575 0
M  V30 6436 H 623.626 5.98381 -2.46066 0
M  V30 6437 N 623.758 0.647228 1.43697 0
M  V30 6438 C 625.005 0.158188 2.01881 0
M  V30 6439 C 625.333 -1.22573 1.51017 0
M  V30 6440 O 624.588 -1.83086 0.69122 0
M  V30 6441 C 624.887 0.111481 3.57226 0
M  V30 6442 C 624.553 1.43633 4.27411 0
M  V30 6443 C 623.215 1.79915 4.463 0
M  V30 6444 C 625.567 2.31011 4.67208 0
M  V30 6445 C 622.895 3.03251 5.02251 0
M  V30 6446 C 625.247 3.53633 5.24525 0
M  V30 6447 C 623.911 3.90118 5.41631 0
M  V30 6448 H 623.181 0.0578851 0.738736 0
M  V30 6449 H 625.828 0.836746 1.72252 0
M  V30 6450 H 624.133 -0.650507 3.86362 0
M  V30 6451 H 625.83 -0.283682 3.99995 0
M  V30 6452 H 622.42 1.14403 4.1305 0
M  V30 6453 H 626.604 2.04272 4.52313 0
M  V30 6454 H 621.86 3.31575 5.13681 0
M  V30 6455 H 626.034 4.21561 5.5431 0
M  V30 6456 H 623.661 4.85768 5.84751 0
M  V30 6457 N 625.236 -1.5273 0.388769 0
M  V30 6458 C 626.199 -2.25043 -0.434544 0
M  V30 6459 C 627.199 -1.26661 -0.990644 0
M  V30 6460 O 628.389 -1.50762 -0.872731 0
M  V30 6461 C 625.521 -3.00507 -1.60961 0
M  V30 6462 H 626.714 -2.99242 0.198549 0
M  V30 6463 H 624.267 -1.55664 0.140875 0
M  V30 6464 H 625.002 -2.30607 -2.28015 0
M  V30 6465 H 624.787 -3.72716 -1.21757 0
M  V30 6466 H 626.277 -3.55413 -2.19251 0
M  V30 6467 N 626.714 -0.118576 -1.57153 0
M  V30 6468 C 627.962 0.538461 -1.94795 0
M  V30 6469 C 628.283 1.67243 -1.00274 0
M  V30 6470 O 627.553 1.95811 -0.0589692 0
M  V30 6471 H 626.133 0.201904 -0.719197 0
M  V30 6472 H 628.795 -0.187418 -1.93997 0
M  V30 6473 H 627.891 0.933315 -2.97818 0
M  V30 6474 N 628.193 1.56834 0.155195 0
M  V30 6475 C 629.609 1.51315 0.50755 0
M  V30 6476 C 629.809 0.825614 1.83809 0
M  V30 6477 O 628.865 0.39271 2.49427 0
M  V30 6478 C 630.178 2.96074 0.52542 0
M  V30 6479 C 631.726 3.06968 0.611505 0
M  V30 6480 C 632.201 4.53218 0.660115 0
M  V30 6481 N 633.692 4.5753 0.722564 0
M  V30 6482 C 634.427 5.68056 0.781023 0
M  V30 6483 N 633.923 6.88173 0.799327 0
M  V30 6484 N 635.716 5.56068 0.821278 0
M  V30 6485 H 627.867 1.9993 -0.717063 0
M  V30 6486 H 630.13 0.911507 -0.260496 0
M  V30 6487 H 629.836 3.49599 -0.383875 0
M  V30 6488 H 629.71 3.51587 1.36624 0
M  V30 6489 H 632.097 2.53468 1.51122 0
M  V30 6490 H 632.178 2.54513 -0.256306 0
M  V30 6491 H 631.822 5.07354 -0.23541 0
M  V30 6492 H 631.752 5.03447 1.5443 0
M  V30 6493 H 634.243 3.71054 0.716049 0
M  V30 6494 H 634.556 7.6816 0.845553 0
M  V30 6495 H 632.901 6.90751 0.767337 0
M  V30 6496 H 636.092 4.61142 0.804091 0
M  V30 6497 H 636.265 6.42223 0.863372 0
M  V30 6498 N 629.671 -0.424282 1.51781 0
M  V30 6499 C 630.618 -1.51591 1.74037 0
M  V30 6500 C 631.588 -1.55556 0.582358 0
M  V30 6501 O 632.773 -1.72364 0.818245 0
M  V30 6502 C 629.913 -2.89188 1.8832 0
M  V30 6503 C 629.026 -2.9465 3.1592 0
M  V30 6504 C 628.161 -4.23452 3.20721 0
M  V30 6505 C 627.2 -4.22831 4.42584 0
M  V30 6506 N 626.337 -5.43178 4.44862 0
M  V30 6507 H 631.177 -1.31917 2.67212 0
M  V30 6508 H 628.714 -0.640599 1.32419 0
M  V30 6509 H 630.672 -3.69044 1.94583 0
M  V30 6510 H 629.302 -3.07392 0.985402 0
M  V30 6511 H 628.354 -2.07378 3.18902 0
M  V30 6512 H 629.666 -2.90055 4.05795 0
M  V30 6513 H 628.82 -5.1169 3.25973 0
M  V30 6514 H 627.559 -4.30722 2.28757 0
M  V30 6515 H 626.564 -3.32984 4.37495 0
M  V30 6516 H 627.789 -4.17213 5.35826 0
M  V30 6517 H 625.735 -5.51145 3.55775 0
M  V30 6518 H 625.652 -5.40515 5.28563 0
M  V30 6519 H 626.92 -6.33412 4.54324 0
M  V30 6520 N 631.149 -1.42148 -0.680565 0
M  V30 6521 C 632.396 -1.4231 -1.44063 0
M  V30 6522 C 632.724 -0.037488 -1.94464 0
M  V30 6523 O 631.979 0.953184 -1.70918 0
M  V30 6524 C 632.278 -2.38945 -2.65782 0
M  V30 6525 C 631.944 -3.85455 -2.33956 0
M  V30 6526 C 630.606 -4.25364 -2.24987 0
M  V30 6527 C 632.958 -4.77895 -2.08004 0
M  V30 6528 C 630.286 -5.55701 -1.88184 0
M  V30 6529 C 632.638 -6.08568 -1.72706 0
M  V30 6530 C 631.302 -6.47482 -1.62244 0
M  V30 6531 H 630.572 -0.520748 -0.527164 0
M  V30 6532 H 633.219 -1.7505 -0.776524 0
M  V30 6533 H 631.524 -1.99511 -3.37198 0
M  V30 6534 H 633.221 -2.36336 -3.23954 0
M  V30 6535 H 629.811 -3.53855 -2.41836 0
M  V30 6536 H 633.995 -4.47854 -2.1387 0
M  V30 6537 H 629.251 -5.84718 -1.78648 0
M  V30 6538 H 633.425 -6.79688 -1.5165 0
M  V30 6539 H 631.052 -7.48387 -1.33496 0
M  V30 6540 N 632.627 0.916307 -1.28225 0
M  V30 6541 C 634.043 1.19425 -1.05876 0
M  V30 6542 C 634.243 2.005 0.2005 0
M  V30 6543 O 633.299 2.35806 0.902873 0
M  V30 6544 C 634.612 1.93133 -2.30478 0
M  V30 6545 C 636.16 2.06026 -2.35632 0
M  V30 6546 C 636.635 2.83141 -3.59994 0
M  V30 6547 N 638.126 2.90704 -3.60618 0
M  V30 6548 C 638.861 3.50865 -4.53521 0
M  V30 6549 N 638.357 4.12327 -5.56739 0
M  V30 6550 N 640.15 3.48379 -4.41122 0
M  V30 6551 H 632.301 0.37496 -2.09064 0
M  V30 6552 H 634.564 0.228531 -0.920042 0
M  V30 6553 H 634.27 1.40985 -3.22205 0
M  V30 6554 H 634.144 2.93696 -2.36691 0
M  V30 6555 H 636.531 2.57355 -1.44404 0
M  V30 6556 H 636.612 1.04647 -2.33415 0
M  V30 6557 H 636.256 2.32492 -4.51564 0
M  V30 6558 H 636.186 3.84829 -3.59464 0
M  V30 6559 H 638.677 2.47034 -2.85977 0
M  V30 6560 H 638.99 4.56205 -6.23776 0
M  V30 6561 H 637.335 4.10839 -5.60568 0
M  V30 6562 H 640.526 2.99572 -3.59686 0
M  V30 6563 H 640.699 3.94974 -5.13712 0
M  V30 6564 N 634.105 1.10431 1.1244 0
M  V30 6565 C 635.053 0.747974 2.20246 0
M  V30 6566 C 636.047 -0.255848 1.67457 0
M  V30 6567 O 637.253 -0.116221 1.79624 0
M  V30 6568 H 633.628 0.223946 0.71788 0
M  V30 6569 H 635.599 1.6661 2.47556 0
M  V30 6570 C 634.348 0.195957 3.47147 0
M  V30 6571 H 633.671 0.959606 3.88113 0
M  V30 6572 H 635.111 -0.0153154 4.23997 0
M  V30 6573 C 633.57 -1.07132 3.19413 0
M  V30 6574 O 634.1 -2.15284 3.3914 0
M  V30 6575 N 632.306 -0.98994 2.73219 0
M  V30 6576 H 631.853 -0.109736 2.57366 0
M  V30 6577 H 631.811 -1.83856 2.55038 0
M  V30 6578 N 635.583 -1.29855 0.893053 0
M  V30 6579 C 636.994 -1.77946 0.564998 0
M  V30 6580 C 637.345 -1.73339 -0.919134 0
M  V30 6581 O 636.47 -1.3152 -1.71847 0
M  V30 6582 C 637.065 -3.23118 1.01883 0
M  V30 6583 C 635.624 -3.69013 0.742051 0
M  V30 6584 C 634.771 -2.50121 1.19727 0
M  V30 6585 H 637.722 -1.16611 1.07646 0
M  V30 6586 H 637.743 -3.78875 0.351249 0
M  V30 6587 H 637.255 -3.26439 2.09903 0
M  V30 6588 H 635.356 -3.71173 -0.325816 0
M  V30 6589 H 635.469 -4.60117 1.33527 0
M  V30 6590 H 633.833 -2.47128 0.616418 0
M  V30 6591 H 634.616 -2.56174 2.28538 0
M  V30 6592 N 637.061 -0.65484 -1.43351 0
M  V30 6593 C 638.008 0.0357713 -2.30772 0
M  V30 6594 C 638.978 0.813035 -1.44841 0
M  V30 6595 O 640.163 0.789314 -1.73708 0
M  V30 6596 C 637.303 0.995084 -3.30442 0
M  V30 6597 C 636.416 0.21375 -4.31471 0
M  V30 6598 C 635.551 1.16701 -5.18222 0
M  V30 6599 C 634.59 0.376201 -6.10943 0
M  V30 6600 N 633.727 1.28113 -6.90313 0
M  V30 6601 H 638.567 -0.71559 -2.89281 0
M  V30 6602 H 636.104 -0.364645 -1.42509 0
M  V30 6603 H 638.062 1.5649 -3.86739 0
M  V30 6604 H 636.692 1.7133 -2.7358 0
M  V30 6605 H 635.744 -0.472377 -3.77456 0
M  V30 6606 H 637.056 -0.401103 -4.97185 0
M  V30 6607 H 636.21 1.8074 -5.79153 0
M  V30 6608 H 634.949 1.81577 -4.52638 0
M  V30 6609 H 633.954 -0.277534 -5.49099 0
M  V30 6610 H 635.179 -0.268178 -6.7857 0
M  V30 6611 H 633.125 1.91666 -6.27376 0
M  V30 6612 H 633.042 0.720879 -7.52555 0
M  V30 6613 H 634.31 1.90962 -7.55747 0
M  V30 6614 N 638.539 1.52521 -0.396863 0
M  V30 6615 C 639.502 2.2527 0.422604 0
M  V30 6616 C 640.502 1.27184 0.983913 0
M  V30 6617 O 641.692 1.51222 0.864723 0
M  V30 6618 C 638.824 3.01356 1.59365 0
M  V30 6619 H 640.017 2.99133 -0.214416 0
M  V30 6620 H 637.57 1.55587 -0.149128 0
M  V30 6621 H 638.305 2.31813 2.26789 0
M  V30 6622 H 638.09 3.73357 1.19779 0
M  V30 6623 H 639.58 3.56571 2.17363 0
M  V30 6624 N 640.017 0.126909 1.57088 0
M  V30 6625 C 640.964 -0.82036 2.15728 0
M  V30 6626 C 641.934 -1.25811 1.08447 0
M  V30 6627 O 643.119 -1.33422 1.36393 0
M  V30 6628 C 640.259 -2.06199 2.76724 0
M  V30 6629 C 639.372 -1.67188 3.98337 0
M  V30 6630 C 638.507 -2.86378 4.47393 0
M  V30 6631 C 637.546 -2.43644 5.61519 0
M  V30 6632 N 636.683 -3.55775 6.05284 0
M  V30 6633 H 641.523 -0.313472 2.96347 0
M  V30 6634 H 639.06 -0.14303 1.46403 0
M  V30 6635 H 641.018 -2.78959 3.10222 0
M  V30 6636 H 639.648 -2.54333 1.98782 0
M  V30 6637 H 638.7 -0.842714 3.70948 0
M  V30 6638 H 640.012 -1.31789 4.81075 0
M  V30 6639 H 639.166 -3.67353 4.82842 0
M  V30 6640 H 637.905 -3.25009 3.63621 0
M  V30 6641 H 636.91 -1.61104 5.25667 0
M  V30 6642 H 638.135 -2.06122 6.47063 0
M  V30 6643 H 636.081 -3.94065 5.24451 0
M  V30 6644 H 635.998 -3.24325 6.82898 0
M  V30 6645 H 637.266 -4.37166 6.45373 0
M  V30 6646 O 641.534 -1.61495 -0.0122585 0
M  V30 6647 H 642.225 -1.83148 -0.630585 0
M  V30 END ATOM
M  V30 BEGIN BOND
M  V30 END BOND
M  V30 END CTAB
M  END
$$$$
