drugbank_target|Q5HEB7 D-alanine--D-alanine ligase (DB07805)
 OpenBabel12092120463D

  0  0  0     0  0            999 V3000
M  V30 BEGIN CTAB
M  V30 COUNTS 5632 5688 0 0 0
M  V30 BEGIN ATOM
M  V30 1 H -0.908 1.98254 -0.117106 0
M  V30 2 N 0 1.576 0 0
M  V30 3 C 0.933 2.03868 1.02534 0
M  V30 4 C 1.911 0.928543 1.3348 0
M  V30 5 O 3.095 1.19667 1.45644 0
M  V30 6 C 0.222 2.43627 2.35294 0
M  V30 7 C -0.732 3.65373 2.2001 0
M  V30 8 S 0.101 5.13292 1.52614 0
M  V30 9 C 1.257 5.56322 2.86805 0
M  V30 10 H 1.49 2.90518 0.631377 0
M  V30 11 H -0.977 1.52953 0.210867 0
M  V30 12 H 0.981 2.67203 3.11629 0
M  V30 13 H -0.358 1.57376 2.7183 0
M  V30 14 H -1.165 3.90944 3.18086 0
M  V30 15 H -1.563 3.418 1.51819 0
M  V30 16 H 0.729 5.58782 3.83104 0
M  V30 17 H 1.672 6.56266 2.65933 0
M  V30 18 H 2.08 4.83886 2.90714 0
M  V30 19 N 1.4781 -0.272755 1.55222 0
M  V30 20 C 2.7061 -1.02255 1.79865 0
M  V30 21 C 3.1211 -1.79924 0.572088 0
M  V30 22 O 2.4781 -1.76638 -0.458842 0
M  V30 23 C 2.5291 -1.98094 3.02392 0
M  V30 24 O 2.2501 -1.23572 4.20311 0
M  V30 25 C 3.7511 -2.84884 3.39641 0
M  V30 26 H 0.9711 -0.302057 0.599168 0
M  V30 27 H 3.5151 -0.303465 2.02236 0
M  V30 28 H 1.6701 -2.65465 2.82147 0
M  V30 29 H 2.0841 -1.88172 4.89583 0
M  V30 30 H 3.5581 -3.47927 4.28545 0
M  V30 31 H 4.0351 -3.54665 2.59055 0
M  V30 32 H 4.6411 -2.23003 3.62146 0
M  V30 33 N 2.9562 -1.48159 -0.537278 0
M  V30 34 C 3.9032 -1.62138 -1.64256 0
M  V30 35 C 4.8732 -0.463668 -1.59497 0
M  V30 36 O 6.0582 -0.686241 -1.78032 0
M  V30 37 C 3.1982 -1.66028 -3.02537 0
M  V30 38 C 2.3112 -2.92855 -3.17585 0
M  V30 39 C 1.4462 -2.87952 -4.46382 0
M  V30 40 C 0.4852 -4.09516 -4.54932 0
M  V30 41 N -0.3778 -4.02733 -5.75109 0
M  V30 42 H 4.4622 -2.56529 -1.51647 0
M  V30 43 H 1.9992 -1.27224 -0.738414 0
M  V30 44 H 3.9572 -1.66265 -3.82638 0
M  V30 45 H 2.5872 -0.751331 -3.13934 0
M  V30 46 H 1.6392 -3.02395 -2.30784 0
M  V30 47 H 2.9512 -3.82822 -3.19764 0
M  V30 48 H 2.1052 -2.8655 -5.34765 0
M  V30 49 H 0.8442 -1.95702 -4.46712 0
M  V30 50 H -0.1508 -4.11201 -3.64957 0
M  V30 51 H 1.0742 -5.02917 -4.56346 0
M  V30 52 H -0.9798 -3.13299 -5.76351 0
M  V30 53 H -1.0628 -4.86397 -5.78752 0
M  V30 54 H 0.2052 -4.05379 -6.65799 0
M  V30 55 N 4.4343 0.785586 -1.36625 0
M  V30 56 C 5.3443 1.92964 -1.33425 0
M  V30 57 C 6.3603 1.72394 -0.235851 0
M  V30 58 O 7.5363 1.95866 -0.468878 0
M  V30 59 C 4.6013 3.27884 -1.12662 0
M  V30 60 C 3.6623 3.61204 -2.32013 0
M  V30 61 C 2.8953 4.89687 -2.12231 0
M  V30 62 O 3.1183 5.59704 -1.09945 0
M  V30 63 O 2.0523 5.21752 -3.00098 0
M  V30 64 H 5.8783 1.98613 -2.29753 0
M  V30 65 H 3.4633 0.926384 -1.17211 0
M  V30 66 H 5.3453 4.08614 -1.03016 0
M  V30 67 H 4.0203 3.23118 -0.193991 0
M  V30 68 H 2.9273 2.80765 -2.47228 0
M  V30 69 H 4.2603 3.70698 -3.23796 0
M  V30 70 N 5.9124 1.20967 1.01018 0
M  V30 71 C 6.8604 0.961223 2.1181 0
M  V30 72 C 7.8544 -0.0897034 1.69162 0
M  V30 73 O 9.0604 0.0612271 1.79896 0
M  V30 74 H 5.4354 0.29355 0.692338 0
M  V30 75 H 7.4064 1.90178 2.29946 0
M  V30 76 C 6.1554 0.536854 3.4353 0
M  V30 77 H 5.4784 1.33713 3.76777 0
M  V30 78 H 6.9184 0.402286 4.22087 0
M  V30 79 C 5.3774 -0.751574 3.2841 0
M  V30 80 O 5.9074 -1.80841 3.58691 0
M  V30 81 N 4.1134 -0.716079 2.81639 0
M  V30 82 H 3.6604 0.144236 2.57196 0
M  V30 83 H 3.6184 -1.57847 2.71904 0
M  V30 84 N 7.3905 -1.2043 1.01659 0
M  V30 85 C 8.6395 -1.89118 0.701237 0
M  V30 86 C 8.9525 -1.79705 -0.772358 0
M  V30 87 O 10.1585 -2.43528 -1.20026 0
M  V30 88 C 8.6145 -3.39168 1.20388 0
M  V30 89 C 8.2225 -3.57166 2.70438 0
M  V30 90 C 9.9665 -4.1341 0.963953 0
M  V30 91 C 7.8735 -5.01042 3.14183 0
M  V30 92 H 6.8035 -0.708267 0.2586 0
M  V30 93 H 9.4545 -1.36239 1.22927 0
M  V30 94 H 7.8365 -3.91369 0.603824 0
M  V30 95 H 9.0105 -3.15351 3.35992 0
M  V30 96 H 7.3255 -2.96294 2.92572 0
M  V30 97 H 9.9225 -5.19491 1.26621 0
M  V30 98 H 10.2655 -4.16181 -0.099578 0
M  V30 99 H 10.7985 -3.67309 1.52738 0
M  V30 100 H 7.5375 -5.03426 4.19812 0
M  V30 101 H 7.0575 -5.43668 2.53348 0
M  V30 102 H 8.7365 -5.69623 3.0682 0
M  V30 103 N 8.8686 -0.792821 -1.36206 0
M  V30 104 C 10.1086 -0.372238 -2.00982 0
M  V30 105 C 10.4726 1.03749 -1.61555 0
M  V30 106 O 11.6736 1.55934 -2.18948 0
M  V30 107 C 9.9446 -0.534566 -3.5338 0
M  V30 108 S 11.5036 -0.202365 -4.38333 0
M  V30 109 H 8.3216 -0.142044 -0.696667 0
M  V30 110 H 10.9236 -1.03206 -1.66039 0
M  V30 111 H 9.6276 -1.5608 -3.79562 0
M  V30 112 H 9.1586 0.141065 -3.93147 0
M  V30 113 H 11.1736 0.994869 -4.86124 0
M  V30 114 N 10.3467 1.47872 -0.545128 0
M  V30 115 C 11.5957 2.01695 -0.0145033 0
M  V30 116 C 11.9087 1.42609 1.33873 0
M  V30 117 O 13.1147 1.88021 1.95858 0
M  V30 118 C 11.5707 3.59892 0.0245068 0
M  V30 119 C 11.1787 4.27966 -1.32475 0
M  V30 120 C 12.9227 4.21507 0.50316 0
M  V30 121 C 10.8297 5.78136 -1.2455 0
M  V30 122 H 9.7597 0.753998 -0.00165172 0
M  V30 123 H 12.4107 1.69985 -0.691175 0
M  V30 124 H 10.7927 3.88509 0.766575 0
M  V30 125 H 11.9667 4.11003 -2.08357 0
M  V30 126 H 10.2817 3.78286 -1.74036 0
M  V30 127 H 12.8787 5.31538 0.580656 0
M  V30 128 H 13.2217 3.87855 1.51243 0
M  V30 129 H 13.7547 3.97376 -0.183681 0
M  V30 130 H 10.4937 6.16388 -2.23039 0
M  V30 131 H 10.0137 5.97469 -0.528282 0
M  V30 132 H 11.6927 6.40099 -0.942488 0
M  V30 133 N 11.8248 0.280983 1.55075 0
M  V30 134 C 13.0708 -0.33461 2.00021 0
M  V30 135 C 13.4038 -1.55063 1.16915 0
M  V30 136 O 12.6788 -1.93006 0.240646 0
M  V30 137 C 12.9618 -0.711007 3.53011 0
M  V30 138 C 12.8148 0.512766 4.46868 0
M  V30 139 C 14.1338 -1.54522 4.12081 0
M  V30 140 H 11.2528 -0.120147 0.727141 0
M  V30 141 H 13.8948 0.389097 1.85973 0
M  V30 142 H 12.0448 -1.32761 3.65112 0
M  V30 143 H 13.7168 1.15131 4.46702 0
M  V30 144 H 11.9598 1.14975 4.18286 0
M  V30 145 H 12.6308 0.205556 5.51617 0
M  V30 146 H 15.1068 -1.02442 4.03293 0
M  V30 147 H 13.9828 -1.77739 5.19327 0
M  V30 148 H 14.2438 -2.52813 3.62682 0
M  V30 149 N 13.3029 -1.57598 0.00835791 0
M  V30 150 C 14.5499 -1.90928 -0.674732 0
M  V30 151 C 14.8779 -0.88277 -1.73313 0
M  V30 152 O 14.1329 0.111294 -1.95383 0
M  V30 153 C 14.4319 -3.3101 -1.34787 0
M  V30 154 C 14.0979 -4.48922 -0.421861 0
M  V30 155 C 12.7599 -4.8091 -0.166927 0
M  V30 156 C 15.1119 -5.20755 0.215211 0
M  V30 157 C 12.4399 -5.821 0.733232 0
M  V30 158 C 14.7919 -6.22905 1.1033 0
M  V30 159 C 13.4559 -6.53346 1.36733 0
M  V30 160 H 12.7259 -0.698656 -0.246902 0
M  V30 161 H 15.3729 -1.91387 0.0656779 0
M  V30 162 H 13.6779 -3.26714 -2.16253 0
M  V30 163 H 15.3749 -3.54061 -1.8826 0
M  V30 164 H 11.9649 -4.23934 -0.630729 0
M  V30 165 H 16.1489 -4.9629 0.0312829 0
M  V30 166 H 11.4049 -6.04042 0.945712 0
M  V30 167 H 15.5789 -6.77694 1.60325 0
M  V30 168 H 13.2059 -7.31573 2.06652 0
M  V30 169 N 14.781 0.264519 -1.55364 0
M  V30 170 C 16.029 0.993021 -1.76021 0
M  V30 171 C 16.35 1.86511 -0.569099 0
M  V30 172 O 15.62 1.91438 0.415735 0
M  V30 173 H 14.2 0.369639 -0.649135 0
M  V30 174 H 16.862 0.286707 -1.9278 0
M  V30 175 H 15.958 1.62502 -2.66457 0
M  V30 176 N 16.2591 1.48442 0.529413 0
M  V30 177 C 17.5071 1.56179 1.28267 0
M  V30 178 C 17.8281 0.237721 1.93546 0
M  V30 179 O 17.0981 -0.740779 1.81354 0
M  V30 180 H 15.6781 0.575367 0.476405 0
M  V30 181 H 18.3401 1.84909 0.61602 0
M  V30 182 H 17.4361 2.34312 2.06165 0
M  V30 183 N 17.7372 -0.778329 1.37039 0
M  V30 184 C 18.6842 -1.89139 1.32269 0
M  V30 185 C 19.6542 -1.65017 0.189387 0
M  V30 186 O 20.8392 -1.87024 0.377693 0
M  V30 187 C 17.9792 -3.26112 1.12894 0
M  V30 188 C 17.0922 -3.62233 2.35396 0
M  V30 189 C 16.2272 -4.8838 2.08946 0
M  V30 190 C 15.2662 -5.17212 3.2735 0
M  V30 191 N 14.4032 -6.34546 3.00492 0
M  V30 192 H 19.2432 -1.92552 2.27437 0
M  V30 193 H 16.7802 -0.941473 1.13025 0
M  V30 194 H 18.7382 -4.05116 0.996835 0
M  V30 195 H 17.3682 -3.22091 0.213758 0
M  V30 196 H 16.4202 -2.78265 2.5937 0
M  V30 197 H 17.7322 -3.79481 3.23721 0
M  V30 198 H 16.8862 -5.75274 1.92729 0
M  V30 199 H 15.6252 -4.73222 1.17949 0
M  V30 200 H 14.6302 -4.28796 3.44113 0
M  V30 201 H 15.8552 -5.34283 4.19188 0
M  V30 202 H 13.8012 -6.20759 2.12118 0
M  V30 203 H 13.7182 -6.52179 3.82358 0
M  V30 204 H 14.9862 -7.24394 2.87879 0
M  V30 205 N 19.2153 -1.21501 -1.00376 0
M  V30 206 C 20.4403 -1.05977 -1.78279 0
M  V30 207 C 20.8653 0.385994 -1.84097 0
M  V30 208 O 20.2233 1.27849 -1.28547 0
M  V30 209 C 20.2713 -1.66302 -3.19963 0
M  V30 210 O 19.3753 -0.909333 -4.0225 0
M  V30 211 H 18.7163 -0.372906 -0.549397 0
M  V30 212 H 21.2463 -1.6107 -1.26165 0
M  V30 213 H 21.2563 -1.70574 -3.70632 0
M  V30 214 H 19.9313 -2.71515 -3.15043 0
M  V30 215 H 18.5083 -0.941795 -3.60811 0
M  V30 216 N 20.6934 1.19889 -1.02296 0
M  V30 217 C 21.6564 2.21116 -0.603351 0
M  V30 218 C 22.6564 1.5738 0.329884 0
M  V30 219 O 23.8464 1.73802 0.117702 0
M  V30 220 C 20.9784 3.40696 0.117992 0
M  V30 221 H 22.1714 2.59754 -1.49893 0
M  V30 222 H 19.7244 1.33463 -0.813468 0
M  V30 223 H 20.4594 3.07569 1.0282 0
M  V30 224 H 20.2444 3.88188 -0.552511 0
M  V30 225 H 21.7344 4.15692 0.398696 0
M  V30 226 N 22.1715 0.800033 1.35784 0
M  V30 227 C 23.0815 0.207204 2.33683 0
M  V30 228 C 24.0975 -0.64631 1.61551 0
M  V30 229 O 25.2735 -0.559604 1.93469 0
M  V30 230 C 22.3385 -0.639659 3.40748 0
M  V30 231 C 21.3995 0.233585 4.28664 0
M  V30 232 C 20.6325 -0.572954 5.30616 0
M  V30 233 O 20.8555 -1.80816 5.40982 0
M  V30 234 O 19.7895 0.0327285 6.01891 0
M  V30 235 H 23.6155 1.01692 2.86169 0
M  V30 236 H 21.2005 0.561691 1.38439 0
M  V30 237 H 23.0825 -1.12223 4.06182 0
M  V30 238 H 21.7575 -1.42708 2.90544 0
M  V30 239 H 20.6645 0.763147 3.66233 0
M  V30 240 H 21.9975 0.984784 4.82248 0
M  V30 241 N 23.6496 -1.47581 0.552962 0
M  V30 242 C 24.5996 -2.26961 -0.217423 0
M  V30 243 C 25.5836 -1.34099 -0.889168 0
M  V30 244 O 26.7756 -1.58483 -0.788176 0
M  V30 245 C 23.9046 -3.19756 -1.24944 0
M  V30 246 C 22.9906 -4.20097 -0.581327 0
M  V30 247 N 23.3816 -5.04614 0.346171 0
M  V30 248 C 21.6796 -4.38099 -0.835767 0
M  V30 249 C 22.3806 -5.77052 0.733854 0
M  V30 250 N 21.3566 -5.43526 0.0896567 0
M  V30 251 H 25.1586 -2.89688 0.495761 0
M  V30 252 H 22.6726 -1.58068 0.372597 0
M  V30 253 H 24.6696 -3.75305 -1.81527 0
M  V30 254 H 23.3296 -2.58585 -1.96376 0
M  V30 255 H 24.3406 -5.12869 0.720098 0
M  V30 256 H 21.0176 -3.88102 -1.53892 0
M  V30 257 H 22.4076 -6.5504 1.49574 0
M  V30 258 N 25.1277 -0.289203 -1.54924 0
M  V30 259 C 26.0377 0.601863 -2.26748 0
M  V30 260 C 27.0537 1.15834 -1.2984 0
M  V30 261 O 28.2297 1.18564 -1.62802 0
M  V30 262 C 25.2947 1.76299 -2.98529 0
M  V30 263 C 24.3557 1.24178 -4.10948 0
M  V30 264 C 23.5887 2.34757 -4.79296 0
M  V30 265 O 23.8117 3.54411 -4.46933 0
M  V30 266 O 22.7457 2.02115 -5.66951 0
M  V30 267 H 26.5717 0.0195879 -3.03694 0
M  V30 268 H 24.1567 -0.0560868 -1.49295 0
M  V30 269 H 26.0387 2.43973 -3.43592 0
M  V30 270 H 24.7137 2.33209 -2.24488 0
M  V30 271 H 23.6207 0.531104 -3.70311 0
M  V30 272 H 24.9537 0.718252 -4.86931 0
M  V30 273 N 26.6058 1.57591 -0.0167156 0
M  V30 274 C 27.8518 1.91567 0.665582 0
M  V30 275 C 28.1848 0.892298 1.72487 0
M  V30 276 O 27.4598 -0.0867127 1.94307 0
M  V30 277 C 27.7428 3.36069 1.29342 0
M  V30 278 C 27.5958 4.49135 0.244541 0
M  V30 279 C 28.9148 3.803 2.21495 0
M  V30 280 H 26.0338 0.69666 0.240488 0
M  V30 281 H 28.6758 1.89866 -0.0714356 0
M  V30 282 H 26.8258 3.3765 1.92158 0
M  V30 283 H 28.4978 4.59689 -0.385228 0
M  V30 284 H 26.7408 4.3165 -0.431379 0
M  V30 285 H 27.4118 5.47242 0.723207 0
M  V30 286 H 29.8878 3.80377 1.68678 0
M  V30 287 H 28.7638 4.82127 2.62382 0
M  V30 288 H 29.0248 3.15104 3.101 0
M  V30 289 N 28.0839 -0.256276 1.55502 0
M  V30 290 C 29.3089 -1.00766 1.81276 0
M  V30 291 C 29.7339 -1.78524 0.59252 0
M  V30 292 O 29.0919 -1.75413 -0.45827 0
M  V30 293 C 29.1399 -1.92869 3.04687 0
M  V30 294 O 28.2439 -3.019 2.80945 0
M  V30 295 H 27.5849 -0.287224 0.598664 0
M  V30 296 H 30.1149 -0.280109 2.02674 0
M  V30 297 H 30.1249 -2.34511 3.33869 0
M  V30 298 H 28.7999 -1.35689 3.93143 0
M  V30 299 H 27.3769 -2.64454 2.62904 0
M  V30 300 N 29.562 -1.4872 -0.521534 0
M  V30 301 C 30.811 -1.56419 -1.27341 0
M  V30 302 C 31.124 -0.246805 -1.94037 0
M  V30 303 O 32.33 -0.202122 -2.70747 0
M  V30 304 C 30.786 -2.75896 -2.31105 0
M  V30 305 C 30.394 -4.14311 -1.70441 0
M  V30 306 C 32.138 -2.92913 -3.07249 0
M  V30 307 C 30.045 -5.25038 -2.72194 0
M  V30 308 H 28.975 -0.582344 -0.478949 0
M  V30 309 H 31.626 -1.75071 -0.549779 0
M  V30 310 H 30.008 -2.50697 -3.06541 0
M  V30 311 H 31.182 -4.49564 -1.01136 0
M  V30 312 H 29.497 -4.02482 -1.06759 0
M  V30 313 H 32.094 -3.72805 -3.83302 0
M  V30 314 H 32.437 -2.02689 -3.63625 0
M  V30 315 H 32.97 -3.18054 -2.38928 0
M  V30 316 H 29.709 -6.17255 -2.20627 0
M  V30 317 H 29.229 -4.94263 -3.39801 0
M  V30 318 H 30.908 -5.53508 -3.35019 0
M  V30 319 N 31.0401 0.771051 -1.3745 0
M  V30 320 C 31.9701 1.89827 -1.3597 0
M  V30 321 C 32.9511 1.68562 -0.228216 0
M  V30 322 O 34.1361 1.8941 -0.428675 0
M  V30 323 C 31.2661 3.2712 -1.16662 0
M  V30 324 C 30.2201 3.6295 -2.2683 0
M  V30 325 C 29.5461 4.98791 -1.92644 0
M  V30 326 C 30.8461 3.69627 -3.69017 0
M  V30 327 H 32.5401 1.91323 -2.30295 0
M  V30 328 H 30.0861 0.919082 -1.10855 0
M  V30 329 H 32.0391 4.05615 -1.14256 0
M  V30 330 H 30.7631 3.26059 -0.187926 0
M  V30 331 H 29.4221 2.86763 -2.28392 0
M  V30 332 H 29.0701 4.94271 -0.933021 0
M  V30 333 H 28.7701 5.23733 -2.66416 0
M  V30 334 H 30.2941 5.79685 -1.91826 0
M  V30 335 H 31.7081 4.38273 -3.69581 0
M  V30 336 H 30.1051 4.06067 -4.41848 0
M  V30 337 H 31.1751 2.70273 -4.02592 0
M  V30 338 N 32.5182 1.22032 0.997298 0
M  V30 339 C 33.7462 1.06841 1.7718 0
M  V30 340 C 34.1612 -0.381325 1.84909 0
M  V30 341 O 33.5182 -1.26437 1.31605 0
M  V30 342 C 33.5692 1.66814 3.20711 0
M  V30 343 O 33.2902 3.06116 3.13408 0
M  V30 344 C 34.7912 1.56838 4.14628 0
M  V30 345 H 32.0112 0.374782 0.556578 0
M  V30 346 H 34.5552 1.61532 1.2541 0
M  V30 347 H 32.7102 1.16196 3.69564 0
M  V30 348 H 33.1242 3.34926 4.0364 0
M  V30 349 H 34.5982 2.03532 5.13107 0
M  V30 350 H 35.0752 0.524155 4.36061 0
M  V30 351 H 35.6812 2.06741 3.7167 0
M  V30 352 N 33.9963 -1.19345 1.0293 0
M  V30 353 C 34.9593 -2.20793 0.615069 0
M  V30 354 C 35.9593 -1.57553 -0.321533 0
M  V30 355 O 37.1493 -1.73862 -0.108483 0
M  V30 356 C 34.2813 -3.40754 -0.0999222 0
M  V30 357 H 35.4743 -2.58955 1.51269 0
M  V30 358 H 33.0273 -1.3303 0.820534 0
M  V30 359 H 33.7623 -3.0811 -1.01187 0
M  V30 360 H 33.5473 -3.87889 0.57309 0
M  V30 361 H 35.0373 -4.15898 -0.376645 0
M  V30 362 N 35.4744 -0.807222 -1.35358 0
M  V30 363 C 36.4064 -0.175717 -2.28525 0
M  V30 364 C 37.4194 0.625354 -1.5031 0
M  V30 365 O 38.6084 0.457611 -1.72535 0
M  V30 366 C 35.7084 0.773471 -3.29956 0
M  V30 367 C 34.8814 0.0186296 -4.37396 0
M  V30 368 C 33.9404 0.886395 -5.18681 0
M  V30 369 O 32.9664 0.337106 -5.68201 0
M  V30 370 N 34.1684 2.20839 -5.36852 0
M  V30 371 H 36.9334 -0.976091 -2.83359 0
M  V30 372 H 34.4944 -0.662737 -1.47714 0
M  V30 373 H 36.4864 1.35824 -3.81227 0
M  V30 374 H 35.0564 1.47465 -2.75632 0
M  V30 375 H 34.2764 -0.747349 -3.87051 0
M  V30 376 H 35.5644 -0.501577 -5.06322 0
M  V30 377 H 34.9624 2.67858 -4.98265 0
M  V30 378 H 33.5194 2.74237 -5.91301 0
M  V30 379 N 36.9525 1.47285 -0.560781 0
M  V30 380 C 37.9005 2.31756 0.197942 0
M  V30 381 C 38.8945 1.43146 0.905854 0
M  V30 382 O 40.1005 1.59891 0.826733 0
M  V30 383 H 36.4755 0.747438 0.0827049 0
M  V30 384 H 38.4465 2.9359 -0.533629 0
M  V30 385 C 37.1955 3.25874 1.21249 0
M  V30 386 H 36.5185 3.94023 0.67719 0
M  V30 387 H 37.9585 3.87803 1.71419 0
M  V30 388 C 36.4175 2.49651 2.26221 0
M  V30 389 O 36.9475 2.24355 3.33208 0
M  V30 390 N 35.1535 2.10597 2.00243 0
M  V30 391 H 34.7005 2.31369 1.13252 0
M  V30 392 H 34.6585 1.59913 2.70694 0
M  V30 393 N 38.4306 0.297415 1.54768 0
M  V30 394 C 39.6766 -0.313376 2.00364 0
M  V30 395 C 40.0096 -1.53815 1.18553 0
M  V30 396 O 39.2846 -1.92739 0.261103 0
M  V30 397 C 39.5676 -0.673525 3.53745 0
M  V30 398 C 39.4206 0.560133 4.46299 0
M  V30 399 C 40.7396 -1.50143 4.13697 0
M  V30 400 H 37.8586 -0.112428 0.728374 0
M  V30 401 H 40.5006 0.4088 1.8555 0
M  V30 402 H 38.6506 -1.28881 3.665 0
M  V30 403 H 40.3226 1.19863 4.45455 0
M  V30 404 H 38.5656 1.19405 4.17043 0
M  V30 405 H 39.2366 0.26405 5.51368 0
M  V30 406 H 41.7126 -0.981588 4.04356 0
M  V30 407 H 40.5886 -1.72221 5.21182 0
M  V30 408 H 40.8496 -2.48952 3.65343 0
M  V30 409 N 39.9087 -1.5758 0.0250728 0
M  V30 410 C 40.8387 -2.13007 -0.956575 0
M  V30 411 C 41.8197 -1.0452 -1.342 0
M  V30 412 O 43.0047 -1.32332 -1.42133 0
M  V30 413 C 40.1347 -2.65386 -2.24026 0
M  V30 414 C 39.0887 -3.78623 -1.99571 0
M  V30 415 C 38.4147 -4.17414 -3.3417 0
M  V30 416 C 39.7147 -5.04867 -1.33814 0
M  V30 417 H 41.4087 -2.9528 -0.494991 0
M  V30 418 H 38.9547 -1.42042 -0.236651 0
M  V30 419 H 40.9077 -3.02794 -2.93076 0
M  V30 420 H 39.6317 -1.80268 -2.72343 0
M  V30 421 H 38.2907 -3.41646 -1.32941 0
M  V30 422 H 37.9387 -3.29284 -3.80238 0
M  V30 423 H 37.6387 -4.93719 -3.18615 0
M  V30 424 H 39.1627 -4.57402 -4.04495 0
M  V30 425 H 40.5767 -5.39888 -1.92857 0
M  V30 426 H 38.9737 -5.86144 -1.28669 0
M  V30 427 H 40.0437 -4.83904 -0.310561 0
M  V30 428 N 41.3868 0.248026 -1.55636 0
M  V30 429 C 42.3348 1.32683 -1.91045 0
M  V30 430 C 43.3288 1.49883 -0.789401 0
M  V30 431 O 44.5348 1.51371 -0.974007 0
M  V30 432 H 40.9098 0.444272 -0.606734 0
M  V30 433 H 42.8808 1.00085 -2.81115 0
M  V30 434 C 41.6298 2.6755 -2.22064 0
M  V30 435 H 40.9528 2.55114 -3.07826 0
M  V30 436 H 42.3928 3.41912 -2.50743 0
M  V30 437 C 40.8518 3.20556 -1.0366 0
M  V30 438 O 41.3818 4.00695 -0.284016 0
M  V30 439 N 39.5878 2.78568 -0.82753 0
M  V30 440 H 39.1348 2.1351 -1.44123 0
M  V30 441 H 39.0928 3.14378 -0.0369803 0
M  V30 442 N 42.8649 1.48995 0.513639 0
M  V30 443 C 43.8279 1.64229 1.59879 0
M  V30 444 C 44.8279 0.514696 1.5234 0
M  V30 445 O 46.0179 0.78087 1.55718 0
M  V30 446 C 43.1499 1.62783 2.99524 0
M  V30 447 H 44.3429 2.61004 1.47705 0
M  V30 448 H 41.8959 1.37837 0.736936 0
M  V30 449 H 42.6309 0.675461 3.17188 0
M  V30 450 H 42.4159 2.4466 3.06404 0
M  V30 451 H 43.9059 1.76669 3.78388 0
M  V30 452 N 44.343 -0.763751 1.37857 0
M  V30 453 C 45.592 -1.51789 1.32827 0
M  V30 454 C 45.905 -1.95426 -0.0823719 0
M  V30 455 O 47.111 -2.70298 -0.255172 0
M  V30 456 C 45.567 -2.74133 2.33193 0
M  V30 457 C 45.175 -2.37562 3.79827 0
M  V30 458 C 46.919 -3.52054 2.37188 0
M  V30 459 C 44.826 -3.56456 4.71904 0
M  V30 460 H 43.756 -0.569896 0.493695 0
M  V30 461 H 46.407 -0.835822 1.63359 0
M  V30 462 H 44.789 -3.4427 1.9569 0
M  V30 463 H 45.963 -1.75157 4.26212 0
M  V30 464 H 44.278 -1.72798 3.78853 0
M  V30 465 H 46.875 -4.40437 3.03182 0
M  V30 466 H 47.218 -3.92486 1.38782 0
M  V30 467 H 47.751 -2.88921 2.7344 0
M  V30 468 H 44.49 -3.21099 5.71468 0
M  V30 469 H 44.01 -4.17938 4.30218 0
M  V30 470 H 45.689 -4.23168 4.89426 0
M  V30 471 N 45.8211 -1.22559 -0.990812 0
M  V30 472 C 47.0981 -0.959875 -1.70428 0
M  V30 473 C 47.4781 0.524455 -2.04481 0
M  V30 474 O 46.8261 1.49302 -1.72977 0
M  V30 475 C 47.0361 -1.85955 -2.95333 0
M  V30 476 C 48.3841 -2.11687 -3.68068 0
M  V30 477 O 49.4081 -1.8342 -3.05345 0
M  V30 478 O 48.2671 -2.59572 -4.80921 0
M  V30 479 H 45.3611 -0.361154 -0.743974 0
M  V30 480 H 47.9071 -1.33554 -1.04697 0
M  V30 481 H 46.6791 -2.86346 -2.66687 0
M  V30 482 H 46.3021 -1.4856 -3.68803 0
M  V30 483 N 47.2992 1.18797 -1.03562 0
M  V30 484 C 48.2462 2.22253 -0.622259 0
M  V30 485 C 49.2162 1.61987 0.36736 0
M  V30 486 O 50.4012 1.88986 0.262492 0
M  V30 487 C 47.5412 3.45097 0.0138462 0
M  V30 488 C 46.6542 4.19722 -1.02263 0
M  V30 489 C 45.7892 5.30009 -0.355573 0
M  V30 490 C 44.8282 5.96399 -1.37749 0
M  V30 491 N 43.9652 6.98234 -0.735766 0
M  V30 492 H 48.8052 2.56968 -1.50903 0
M  V30 493 H 46.3422 1.26245 -0.755017 0
M  V30 494 H 48.3002 4.15279 0.399948 0
M  V30 495 H 46.9302 3.11018 0.864158 0
M  V30 496 H 45.9822 3.48418 -1.52673 0
M  V30 497 H 47.2942 4.65227 -1.79903 0
M  V30 498 H 46.4482 6.0664 0.0850095 0
M  V30 499 H 45.1872 4.85592 0.452967 0
M  V30 500 H 44.1922 5.18512 -1.82826 0
M  V30 501 H 45.4172 6.42899 -2.18764 0
M  V30 502 H 43.3632 6.55979 0.0525597 0
M  V30 503 H 43.2802 7.41965 -1.44995 0
M  V30 504 H 44.5482 7.78845 -0.31941 0
M  V30 505 N 48.7773 0.814389 1.34928 0
M  V30 506 C 50.0543 0.321363 1.92942 0
M  V30 507 C 50.4343 -1.19014 1.74353 0
M  V30 508 O 49.7823 -1.99328 1.11716 0
M  V30 509 C 49.9923 0.741323 3.41036 0
M  V30 510 C 51.3403 0.735266 4.18185 0
M  V30 511 O 52.3643 0.68336 3.49584 0
M  V30 512 O 51.2233 0.800703 5.40602 0
M  V30 513 H 48.3173 0.0858893 0.822528 0
M  V30 514 H 50.8633 0.898609 1.43955 0
M  V30 515 H 49.6353 1.78276 3.4833 0
M  V30 516 H 49.2583 0.139307 3.97356 0
M  V30 517 N 50.2554 -1.46986 0.568584 0
M  V30 518 C 51.2024 -2.30153 -0.172707 0
M  V30 519 C 52.1724 -1.39759 -0.897586 0
M  V30 520 O 53.3574 -1.68716 -0.891044 0
M  V30 521 C 50.4974 -3.23952 -1.1895 0
M  V30 522 C 49.6104 -4.29441 -0.469517 0
M  V30 523 C 48.7454 -5.1038 -1.47259 0
M  V30 524 C 47.7844 -6.07632 -0.738225 0
M  V30 525 N 46.9214 -6.8149 -1.68868 0
M  V30 526 H 51.7614 -2.93019 0.542596 0
M  V30 527 H 49.2984 -1.44422 0.279401 0
M  V30 528 H 51.2564 -3.76767 -1.79173 0
M  V30 529 H 49.8864 -2.62926 -1.87269 0
M  V30 530 H 48.9384 -3.79594 0.247467 0
M  V30 531 H 50.2504 -4.98689 0.105241 0
M  V30 532 H 49.4044 -5.67402 -2.14803 0
M  V30 533 H 48.1434 -4.4106 -2.08128 0
M  V30 534 H 47.1484 -5.49778 -0.0489293 0
M  V30 535 H 48.3734 -6.78966 -0.135129 0
M  V30 536 H 46.3194 -6.14891 -2.28573 0
M  V30 537 H 46.2364 -7.46948 -1.16636 0
M  V30 538 H 47.5044 -7.43078 -2.3549 0
M  V30 539 N 51.7335 -0.305618 -1.54608 0
M  V30 540 C 52.9635 0.304333 -2.04346 0
M  V30 541 C 53.3715 1.47715 -1.18224 0
M  V30 542 O 52.7145 1.82591 -0.201577 0
M  V30 543 C 52.7765 0.819031 -3.50046 0
M  V30 544 C 52.4405 -0.22912 -4.56425 0
M  V30 545 C 53.4375 -1.05914 -5.08997 0
M  V30 546 C 51.1225 -0.372148 -5.0092 0
M  V30 547 C 53.1165 -2.01809 -6.04609 0
M  V30 548 C 50.8035 -1.33454 -5.9635 0
M  V30 549 C 51.8015 -2.15599 -6.48079 0
M  V30 550 O 51.4895 -3.10205 -7.41639 0
M  V30 551 H 51.2215 0.0693996 -0.672428 0
M  V30 552 H 53.7755 -0.444548 -2.00532 0
M  V30 553 H 52.0055 1.61852 -3.51199 0
M  V30 554 H 53.6945 1.34537 -3.82955 0
M  V30 555 H 54.4605 -0.959538 -4.75413 0
M  V30 556 H 50.3395 0.257304 -4.60281 0
M  V30 557 H 53.8835 -2.65966 -6.44909 0
M  V30 558 H 49.7805 -1.43485 -6.29351 0
M  V30 559 H 50.5485 -3.05237 -7.59455 0
M  V30 560 N 53.2116 1.57565 -0.0334293 0
M  V30 561 C 54.1616 2.06978 0.956237 0
M  V30 562 C 55.1456 0.971193 1.28283 0
M  V30 563 O 56.3376 1.23471 1.26822 0
M  V30 564 C 53.4666 2.60393 2.23719 0
M  V30 565 C 52.5526 3.7719 1.93877 0
M  V30 566 N 52.9436 4.87639 1.34321 0
M  V30 567 C 51.2416 3.85758 2.23845 0
M  V30 568 C 51.9426 5.68825 1.21709 0
M  V30 569 N 50.9186 5.1587 1.71404 0
M  V30 570 H 54.7206 2.89773 0.490815 0
M  V30 571 H 52.2346 1.61492 0.171478 0
M  V30 572 H 54.2316 2.94088 2.95496 0
M  V30 573 H 52.8916 1.79031 2.70884 0
M  V30 574 H 53.9026 5.07803 1.01767 0
M  V30 575 H 50.5796 3.1531 2.73653 0
M  V30 576 H 51.9696 6.67631 0.75621 0
M  V30 577 N 54.6897 -0.239769 1.55765 0
M  V30 578 C 55.9357 -0.968234 1.78194 0
M  V30 579 C 56.2687 -1.84701 0.599938 0
M  V30 580 O 55.5437 -1.9031 -0.401524 0
M  V30 581 C 55.8267 -1.8227 3.10564 0
M  V30 582 C 55.6797 -0.971633 4.3918 0
M  V30 583 C 56.9987 -2.80388 3.39221 0
M  V30 584 H 54.1177 -0.350572 0.648281 0
M  V30 585 H 56.7597 -0.238259 1.885 0
M  V30 586 H 54.9097 -2.44507 3.01908 0
M  V30 587 H 56.5817 -0.367408 4.59835 0
M  V30 588 H 54.8247 -0.276276 4.32919 0
M  V30 589 H 55.4957 -1.60346 5.28198 0
M  V30 590 H 57.9717 -2.28287 3.47885 0
M  V30 591 H 56.8477 -3.3729 4.33044 0
M  V30 592 H 57.1087 -3.57212 2.60484 0
M  V30 593 N 56.1678 -1.49265 -0.50573 0
M  V30 594 C 57.4448 -1.49012 -1.26707 0
M  V30 595 C 57.8248 -0.215205 -2.1 0
M  V30 596 O 57.1728 0.802547 -2.13943 0
M  V30 597 C 57.3828 -2.7663 -2.12783 0
M  V30 598 C 58.7308 -3.25932 -2.72127 0
M  V30 599 O 59.7548 -2.77715 -2.23054 0
M  V30 600 O 58.6138 -4.09897 -3.61451 0
M  V30 601 H 55.7078 -0.596197 -0.57313 0
M  V30 602 H 58.2538 -1.61524 -0.52039 0
M  V30 603 H 57.0258 -3.60916 -1.5118 0
M  V30 604 H 56.6488 -2.66956 -2.94653 0
M  V30 605 N 57.6459 0.756429 -1.3826 0
M  V30 606 C 58.8949 1.51082 -1.3363 0
M  V30 607 C 59.2079 1.95467 0.0720068 0
M  V30 608 O 60.4139 2.7043 0.240834 0
M  V30 609 C 58.8699 2.72893 -2.34644 0
M  V30 610 C 58.4779 2.35544 -3.81081 0
M  V30 611 C 60.2219 3.50791 -2.39052 0
M  V30 612 C 58.1289 3.53948 -4.73787 0
M  V30 613 H 57.0589 0.56727 -0.49671 0
M  V30 614 H 59.7099 0.827147 -1.638 0
M  V30 615 H 58.0919 3.43227 -1.97513 0
M  V30 616 H 59.2659 1.72894 -4.27135 0
M  V30 617 H 57.5809 1.70786 -3.79764 0
M  V30 618 H 60.1779 4.38823 -3.05513 0
M  V30 619 H 60.5209 3.91745 -1.40861 0
M  V30 620 H 61.0539 2.87467 -2.74968 0
M  V30 621 H 57.7929 3.18064 -5.73163 0
M  V30 622 H 57.3129 4.15651 -4.32428 0
M  V30 623 H 58.9919 4.20566 -4.91663 0
M  V30 624 N 59.124 1.23083 0.984299 0
M  V30 625 C 60.373 1.05466 1.71929 0
M  V30 626 C 60.686 -0.409211 1.91272 0
M  V30 627 O 61.892 -0.705226 2.62181 0
M  V30 628 C 60.348 1.83874 3.09384 0
M  V30 629 C 59.956 3.34566 2.97943 0
M  V30 630 C 61.7 1.74734 3.8687 0
M  V30 631 C 59.607 4.05381 4.30605 0
M  V30 632 H 58.537 0.391039 0.644674 0
M  V30 633 H 61.188 1.47013 1.09815 0
M  V30 634 H 59.57 1.35131 3.72231 0
M  V30 635 H 60.744 3.90767 2.44209 0
M  V30 636 H 59.059 3.44476 2.33934 0
M  V30 637 H 61.656 2.24957 4.85076 0
M  V30 638 H 61.999 0.709372 4.10212 0
M  V30 639 H 62.532 2.21067 3.30717 0
M  V30 640 H 59.271 5.09467 4.1246 0
M  V30 641 H 58.791 3.53967 4.84218 0
M  V30 642 H 60.47 4.11458 4.99311 0
M  V30 643 N 60.6021 -1.18246 1.0419 0
M  V30 644 C 61.8321 -1.91916 0.764961 0
M  V30 645 C 62.2401 -1.76485 -0.681898 0
M  V30 646 O 61.5831 -1.09275 -1.47664 0
M  V30 647 C 61.6451 -3.4373 1.05309 0
M  V30 648 C 61.3091 -3.8294 2.4941 0
M  V30 649 C 62.3061 -3.86621 3.47592 0
M  V30 650 C 59.9911 -4.142 2.84155 0
M  V30 651 C 61.9851 -4.21013 4.78568 0
M  V30 652 C 59.6721 -4.48262 4.15337 0
M  V30 653 C 60.6701 -4.51645 5.12353 0
M  V30 654 O 60.3581 -4.84911 6.41183 0
M  V30 655 H 60.0901 -0.61606 0.278292 0
M  V30 656 H 62.6441 -1.50947 1.39299 0
M  V30 657 H 60.8741 -3.84946 0.367933 0
M  V30 658 H 62.5631 -3.9865 0.763752 0
M  V30 659 H 63.3291 -3.62607 3.22089 0
M  V30 660 H 59.2081 -4.10743 2.09311 0
M  V30 661 H 62.7521 -4.23568 5.54289 0
M  V30 662 H 58.6491 -4.71737 4.40607 0
M  V30 663 H 59.4171 -5.02809 6.45852 0
M  V30 664 N 62.0802 -0.821533 -1.34494 0
M  V30 665 C 63.3292 -0.405355 -1.97585 0
M  V30 666 C 63.6422 1.03677 -1.65863 0
M  V30 667 O 64.8482 1.55679 -2.22433 0
M  V30 668 C 63.3042 -0.673861 -3.53535 0
M  V30 669 C 62.9122 -2.12951 -3.94152 0
M  V30 670 C 64.6562 -0.32378 -4.23263 0
M  V30 671 C 62.5632 -2.34298 -5.43009 0
M  V30 672 H 61.4932 -0.147836 -0.739365 0
M  V30 673 H 64.1442 -1.00769 -1.53355 0
M  V30 674 H 62.5262 -0.00137554 -3.96 0
M  V30 675 H 63.7002 -2.84104 -3.62797 0
M  V30 676 H 62.0152 -2.44089 -3.37356 0
M  V30 677 H 64.6122 -0.461126 -5.32708 0
M  V30 678 H 64.9552 0.731586 -4.09821 0
M  V30 679 H 65.4882 -0.950786 -3.8627 0
M  V30 680 H 62.2272 -3.38335 -5.61435 0
M  V30 681 H 61.7472 -1.67687 -5.75883 0
M  V30 682 H 63.4262 -2.16588 -6.09671 0
M  V30 683 N 63.5583 1.46682 -0.576371 0
M  V30 684 C 64.7863 2.06798 -0.0649635 0
M  V30 685 C 65.2013 1.42612 1.23723 0
M  V30 686 O 64.5583 0.529203 1.74659 0
M  V30 687 C 64.6093 3.6132 0.114202 0
M  V30 688 O 64.3303 4.23104 -1.13644 0
M  V30 689 C 65.8313 4.38349 0.66069 0
M  V30 690 H 63.0513 0.668778 -0.0545616 0
M  V30 691 H 65.5953 1.88404 -0.795237 0
M  V30 692 H 63.7503 3.79162 0.794673 0
M  V30 693 H 64.1643 5.15894 -0.946253 0
M  V30 694 H 65.6383 5.47081 0.73526 0
M  V30 695 H 66.1153 4.05953 1.67627 0
M  V30 696 H 66.7213 4.25297 0.0152951 0
M  V30 697 N 65.0364 0.313813 1.54444 0
M  V30 698 C 65.9844 -0.572171 2.25453 0
M  V30 699 C 66.9784 -1.12657 1.2651 0
M  V30 700 O 68.1844 -1.07573 1.44319 0
M  V30 701 H 64.5594 -0.203146 0.724041 0
M  V30 702 H 66.5304 0.0491145 2.9836 0
M  V30 703 C 65.2794 -1.72626 3.0182 0
M  V30 704 H 64.6024 -1.30891 3.77767 0
M  V30 705 H 66.0424 -2.32199 3.54767 0
M  V30 706 C 64.5014 -2.63806 2.09542 0
M  V30 707 O 65.0314 -3.65256 1.67185 0
M  V30 708 N 63.2374 -2.31824 1.75232 0
M  V30 709 H 62.7844 -1.49368 2.09873 0
M  V30 710 H 62.7424 -2.93095 1.13767 0
M  V30 711 N 66.5145 -1.57545 0.0417849 0
M  V30 712 C 67.7915 -1.83642 -0.673433 0
M  V30 713 C 68.1715 -0.928298 -1.89594 0
M  V30 714 O 67.5195 0.0129955 -2.28496 0
M  V30 715 C 67.7295 -3.33155 -1.03964 0
M  V30 716 C 69.0775 -3.99941 -1.42592 0
M  V30 717 O 70.1015 -3.37725 -1.13226 0
M  V30 718 O 68.9605 -5.09619 -1.9736 0
M  V30 719 H 66.0545 -0.757638 -0.331533 0
M  V30 720 H 68.6005 -1.69554 0.070433 0
M  V30 721 H 67.3725 -3.9093 -0.170098 0
M  V30 722 H 66.9955 -3.52396 -1.84126 0
M  V30 723 N 67.9926 0.231505 -1.5589 0
M  V30 724 C 69.2406 0.955461 -1.78088 0
M  V30 725 C 69.5616 1.85262 -0.608533 0
M  V30 726 O 68.8316 1.92277 0.375035 0
M  V30 727 H 67.4116 0.355787 -0.656829 0
M  V30 728 H 70.0736 0.245751 -1.93344 0
M  V30 729 H 69.1696 1.56814 -2.69844 0
M  V30 730 N 69.4707 1.49531 0.497807 0
M  V30 731 C 70.7477 1.49682 1.25915 0
M  V30 732 C 71.1277 0.226339 2.09883 0
M  V30 733 O 70.4757 -0.791189 2.14365 0
M  V30 734 C 70.6857 2.77755 2.11313 0
M  V30 735 C 72.0337 3.27371 2.70395 0
M  V30 736 O 73.0577 2.78894 2.21578 0
M  V30 737 O 71.9167 4.11808 3.59272 0
M  V30 738 H 69.0107 0.599228 0.56996 0
M  V30 739 H 71.5567 1.61798 0.511816 0
M  V30 740 H 70.3287 3.61713 1.49264 0
M  V30 741 H 69.9517 2.68515 2.93233 0
M  V30 742 N 70.9488 -0.749086 1.3866 0
M  V30 743 C 72.1948 -1.50959 1.36319 0
M  V30 744 C 72.5498 -1.92347 -0.0452451 0
M  V30 745 O 71.8428 -1.6289 -1.00884 0
M  V30 746 C 72.0368 -2.7712 2.25697 0
M  V30 747 C 71.8658 -2.48067 3.7509 0
M  V30 748 C 70.6358 -2.41062 4.44091 0
M  V30 749 C 72.8338 -2.14544 4.67414 0
M  V30 750 N 70.8158 -2.04331 5.78897 0
M  V30 751 C 72.1868 -1.88141 5.90765 0
M  V30 752 C 74.2418 -2.00892 4.55573 0
M  V30 753 C 72.9448 -1.49463 7.036 0
M  V30 754 C 74.9708 -1.63616 5.68317 0
M  V30 755 C 74.3328 -1.38088 6.90732 0
M  V30 756 H 70.4318 -0.551804 0.554108 0
M  V30 757 H 73.0158 -0.871886 1.74087 0
M  V30 758 H 71.1868 -3.38693 1.9011 0
M  V30 759 H 72.9188 -3.4321 2.1445 0
M  V30 760 H 69.6738 -2.57685 3.9736 0
M  V30 761 H 70.0978 -1.88598 6.502 0
M  V30 762 H 74.7398 -2.19301 3.61479 0
M  V30 763 H 72.4578 -1.29794 7.97608 0
M  V30 764 H 76.0438 -1.53678 5.61137 0
M  V30 765 H 74.9238 -1.09674 7.76493 0
M  V30 766 N 72.4269 -1.23603 -0.977757 0
M  V30 767 C 73.8429 -0.999251 -1.24447 0
M  V30 768 C 74.0429 0.298053 -1.99283 0
M  V30 769 O 73.0989 1.01681 -2.31122 0
M  V30 770 C 74.4119 -2.20784 -2.04144 0
M  V30 771 C 75.9599 -2.25303 -2.17273 0
M  V30 772 C 76.4349 -3.45755 -3.00362 0
M  V30 773 N 77.9259 -3.4601 -3.07947 0
M  V30 774 C 78.6609 -4.35868 -3.72568 0
M  V30 775 N 78.1569 -5.35966 -4.38991 0
M  V30 776 N 79.9499 -4.23605 -3.6948 0
M  V30 777 H 72.1009 -2.06986 -0.476483 0
M  V30 778 H 74.3639 -0.907801 -0.273134 0
M  V30 779 H 74.0699 -3.14945 -1.56533 0
M  V30 780 H 73.9439 -2.22085 -3.04891 0
M  V30 781 H 76.3309 -1.3168 -2.64092 0
M  V30 782 H 76.4119 -2.28033 -1.15907 0
M  V30 783 H 76.0559 -4.39687 -2.5424 0
M  V30 784 H 75.9859 -3.40266 -4.01904 0
M  V30 785 H 78.4769 -2.73588 -2.60688 0
M  V30 786 H 78.7899 -6.00783 -4.86086 0
M  V30 787 H 77.1349 -5.39863 -4.37691 0
M  V30 788 H 80.3259 -3.44647 -3.16759 0
M  V30 789 H 80.4989 -4.93836 -4.1956 0
M  V30 790 N 73.905 1.17692 -1.04816 0
M  V30 791 C 74.852 2.21581 -0.645797 0
M  V30 792 C 75.822 1.62367 0.350159 0
M  V30 793 O 77.007 1.89254 0.242433 0
M  V30 794 C 74.147 3.45092 -0.0227568 0
M  V30 795 C 73.26 4.18613 -1.06709 0
M  V30 796 C 72.395 5.29602 -0.411767 0
M  V30 797 C 71.434 5.94904 -1.44067 0
M  V30 798 N 70.571 6.97414 -0.809781 0
M  V30 799 H 75.411 2.55353 -1.5362 0
M  V30 800 H 72.948 1.25438 -0.768364 0
M  V30 801 H 74.906 4.15679 0.35588 0
M  V30 802 H 73.536 3.11917 0.831122 0
M  V30 803 H 72.588 3.46779 -1.5636 0
M  V30 804 H 73.9 4.63293 -1.84827 0
M  V30 805 H 73.054 6.06696 0.0206623 0
M  V30 806 H 71.793 4.86045 0.401438 0
M  V30 807 H 70.798 5.16544 -1.88316 0
M  V30 808 H 72.023 6.40542 -2.25571 0
M  V30 809 H 69.969 6.55998 -0.0170186 0
M  V30 810 H 69.886 7.40386 -1.52856 0
M  V30 811 H 71.154 7.78463 -0.401999 0
M  V30 812 N 75.3831 0.828654 1.34056 0
M  V30 813 C 76.3151 0.212052 2.28217 0
M  V30 814 C 77.3281 -0.601362 1.51286 0
M  V30 815 O 78.5171 -0.430104 1.73241 0
M  V30 816 C 75.6171 -0.72088 3.31144 0
M  V30 817 C 74.7901 0.0509587 4.3737 0
M  V30 818 C 73.8491 -0.803766 5.20025 0
M  V30 819 O 72.8751 -0.246667 5.68665 0
M  V30 820 N 74.0771 -2.1227 5.40298 0
M  V30 821 H 76.8421 1.02105 2.81771 0
M  V30 822 H 74.4031 0.686153 1.46641 0
M  V30 823 H 76.3951 -1.29742 3.8334 0
M  V30 824 H 74.9651 -1.43061 2.77943 0
M  V30 825 H 74.1851 0.808831 3.85813 0
M  V30 826 H 75.4731 0.582065 5.0546 0
M  V30 827 H 74.8711 -2.59898 5.02464 0
M  V30 828 H 73.4281 -2.64796 5.95589 0
M  V30 829 N 76.8612 -1.46375 0.584142 0
M  V30 830 C 77.8092 -2.32042 -0.161047 0
M  V30 831 C 78.8032 -1.44569 -0.882966 0
M  V30 832 O 80.0092 -1.61186 -0.801191 0
M  V30 833 H 76.3842 -0.748659 -0.0708033 0
M  V30 834 H 78.3552 -2.92704 0.580269 0
M  V30 835 C 77.1042 -3.27762 -1.1605 0
M  V30 836 H 76.4272 -3.95051 -0.614419 0
M  V30 837 H 77.8672 -3.90481 -1.65228 0
M  V30 838 C 76.3262 -2.53218 -2.22221 0
M  V30 839 O 76.8562 -2.29628 -3.29597 0
M  V30 840 N 75.0622 -2.13756 -1.96868 0
M  V30 841 H 74.6092 -2.33142 -1.09557 0
M  V30 842 H 74.5672 -1.642 -2.68115 0
M  V30 843 N 78.3393 -0.321999 -1.54275 0
M  V30 844 C 79.2873 0.560206 -2.25753 0
M  V30 845 C 80.2813 1.11984 -1.27106 0
M  V30 846 O 81.4873 1.06806 -1.44888 0
M  V30 847 H 77.8623 0.199304 -0.725108 0
M  V30 848 H 79.8333 -0.0649365 -2.98329 0
M  V30 849 C 78.5823 1.71023 -3.02731 0
M  V30 850 H 77.9053 1.28885 -3.78456 0
M  V30 851 H 79.3453 2.30314 -3.55993 0
M  V30 852 C 77.8043 2.62692 -2.10938 0
M  V30 853 O 78.3343 3.64364 -1.6912 0
M  V30 854 N 76.5403 2.30891 -1.76459 0
M  V30 855 H 76.0873 1.48253 -2.10663 0
M  V30 856 H 76.0453 2.92487 -1.1532 0
M  V30 857 N 79.8174 1.5752 -0.0501392 0
M  V30 858 C 81.0664 1.91827 0.623328 0
M  V30 859 C 81.3794 0.930222 1.72065 0
M  V30 860 O 82.5854 1.1653 2.4522 0
M  V30 861 C 81.0414 3.40692 1.16003 0
M  V30 862 C 80.6494 4.479 0.0948811 0
M  V30 863 C 82.3934 3.84034 1.80881 0
M  V30 864 C 80.3004 5.87879 0.644411 0
M  V30 865 H 79.2304 0.715918 0.236596 0
M  V30 866 H 81.8814 1.83115 -0.118861 0
M  V30 867 H 80.2634 3.44405 1.9545 0
M  V30 868 H 81.4374 4.55775 -0.678675 0
M  V30 869 H 79.7524 4.13892 -0.45637 0
M  V30 870 H 82.3494 4.85984 2.22988 0
M  V30 871 H 82.6924 3.20225 2.6601 0
M  V30 872 H 83.2254 3.82833 1.0809 0
M  V30 873 H 79.9644 6.55282 -0.169229 0
M  V30 874 H 79.4844 5.83567 1.38598 0
M  V30 875 H 81.1634 6.37098 1.12763 0
M  V30 876 N 81.2955 -0.223234 1.56011 0
M  V30 877 C 82.5235 -0.964812 1.83027 0
M  V30 878 C 82.9385 -1.78013 0.62904 0
M  V30 879 O 82.2955 -1.78008 -0.402414 0
M  V30 880 C 82.3465 -1.88373 3.08542 0
M  V30 881 O 82.0675 -1.10137 4.2403 0
M  V30 882 C 83.5685 -2.73934 3.48533 0
M  V30 883 H 80.7885 -0.282842 0.608475 0
M  V30 884 H 83.3325 -0.238971 2.03099 0
M  V30 885 H 81.4875 -2.56354 2.9045 0
M  V30 886 H 81.9015 -1.72501 4.95322 0
M  V30 887 H 83.3755 -3.34117 4.39397 0
M  V30 888 H 83.8525 -3.46244 2.70207 0
M  V30 889 H 84.4585 -2.11369 3.69057 0
M  V30 890 N 82.7736 -1.49793 -0.48987 0
M  V30 891 C 83.7366 -1.66752 -1.57246 0
M  V30 892 C 84.7366 -0.538867 -1.51502 0
M  V30 893 O 85.9266 -0.805545 -1.54456 0
M  V30 894 C 83.0586 -1.67528 -2.96896 0
M  V30 895 H 84.2516 -2.63321 -1.43534 0
M  V30 896 H 81.8046 -1.38992 -0.714914 0
M  V30 897 H 82.5396 -0.725837 -3.16073 0
M  V30 898 H 82.3246 -2.49504 -3.02473 0
M  V30 899 H 83.8146 -1.82667 -3.7553 0
M  V30 900 N 84.2517 0.741722 -1.39055 0
M  V30 901 C 85.1617 1.88621 -1.39496 0
M  V30 902 C 86.1777 1.71557 -0.290578 0
M  V30 903 O 87.3537 1.94275 -0.530954 0
M  V30 904 C 84.4187 3.24134 -1.23037 0
M  V30 905 C 83.4797 3.5364 -2.43387 0
M  V30 906 C 82.7127 4.82687 -2.27703 0
M  V30 907 O 82.9357 5.55922 -1.27696 0
M  V30 908 O 81.8697 5.1194 -3.16545 0
M  V30 909 H 85.6957 1.91203 -2.35956 0
M  V30 910 H 83.2807 0.888625 -1.20099 0
M  V30 911 H 85.1627 4.0513 -1.15964 0
M  V30 912 H 83.8377 3.22337 -0.296691 0
M  V30 913 H 82.7447 2.72758 -2.56035 0
M  V30 914 H 84.0777 3.60209 -3.35425 0
M  V30 915 N 85.7298 1.2412 0.971189 0
M  V30 916 C 86.9788 1.07284 1.70801 0
M  V30 917 C 87.2918 -0.388902 1.91695 0
M  V30 918 O 88.4978 -0.677379 2.62914 0
M  V30 919 C 86.9538 1.87145 3.07416 0
M  V30 920 C 86.5618 3.37707 2.94377 0
M  V30 921 C 88.3058 1.78828 3.84995 0
M  V30 922 C 86.2128 4.09925 4.26281 0
M  V30 923 H 85.1428 0.397854 0.64049 0
M  V30 924 H 87.7938 1.4817 1.0825 0
M  V30 925 H 86.1758 1.39071 3.70777 0
M  V30 926 H 87.3498 3.93335 2.4005 0
M  V30 927 H 85.6648 3.46938 2.30267 0
M  V30 928 H 88.2618 2.30089 4.82662 0
M  V30 929 H 88.6048 0.75284 4.09436 0
M  V30 930 H 89.1378 2.24563 3.28354 0
M  V30 931 H 85.8768 5.13813 4.07033 0
M  V30 932 H 85.3968 3.59083 4.80437 0
M  V30 933 H 87.0758 4.1673 4.94919 0
M  V30 934 N 87.2079 -1.17134 1.05439 0
M  V30 935 C 88.1549 -2.21235 0.657539 0
M  V30 936 C 89.1249 -1.62551 -0.341543 0
M  V30 937 O 90.3099 -1.89379 -0.232393 0
M  V30 938 C 87.4499 -3.45076 0.0410575 0
M  V30 939 C 86.5629 -4.18042 1.08927 0
M  V30 940 C 85.6979 -5.29376 0.439848 0
M  V30 941 C 84.7369 -5.94132 1.4722 0
M  V30 942 N 83.8739 -6.96975 0.846756 0
M  V30 943 H 88.7139 -2.54534 1.54972 0
M  V30 944 H 86.2509 -1.25028 0.775006 0
M  V30 945 H 88.2089 -4.15862 -0.33383 0
M  V30 946 H 86.8389 -3.12353 -0.814568 0
M  V30 947 H 85.8909 -3.45945 1.58196 0
M  V30 948 H 87.2029 -4.62306 1.87282 0
M  V30 949 H 86.3569 -6.06699 0.0115125 0
M  V30 950 H 85.0959 -4.86251 -0.375656 0
M  V30 951 H 84.1009 -5.15538 1.91052 0
M  V30 952 H 85.3259 -6.39337 2.28965 0
M  V30 953 H 83.2719 -6.5598 0.0518075 0
M  V30 954 H 83.1889 -7.39565 1.5678 0
M  V30 955 H 84.4569 -7.78239 0.443277 0
M  V30 956 N 88.686 -0.835752 -1.33615 0
M  V30 957 C 89.911 -0.442389 -2.02627 0
M  V30 958 C 90.336 0.947735 -1.62479 0
M  V30 959 O 89.694 1.61907 -0.815826 0
M  V30 960 C 89.742 -0.567216 -3.56111 0
M  V30 961 O 88.846 0.407799 -4.10379 0
M  V30 962 H 88.187 -0.180278 -0.639059 0
M  V30 963 H 90.717 -1.12972 -1.70583 0
M  V30 964 H 90.727 -0.447708 -4.05536 0
M  V30 965 H 89.402 -1.58103 -3.84677 0
M  V30 966 H 87.979 0.246107 -3.72087 0
M  V30 967 N 90.1641 1.46063 -0.591896 0
M  V30 968 C 91.3921 2.06717 -0.0868936 0
M  V30 969 C 91.8071 1.43916 1.22203 0
M  V30 970 O 91.1641 0.547698 1.74088 0
M  V30 971 C 91.2151 3.6142 0.0758725 0
M  V30 972 O 90.9361 4.21874 -1.18126 0
M  V30 973 C 92.4371 4.39025 0.61416 0
M  V30 974 H 89.6571 0.668162 -0.0616518 0
M  V30 975 H 92.2011 1.8755 -0.815175 0
M  V30 976 H 90.3561 3.79983 0.754413 0
M  V30 977 H 90.7701 5.14861 -1.00092 0
M  V30 978 H 92.2441 5.4783 0.677193 0
M  V30 979 H 92.7211 4.07708 1.63312 0
M  V30 980 H 93.3271 4.2529 -0.0298142 0
M  V30 981 N 91.6422 0.330177 1.54103 0
M  V30 982 C 92.9192 -0.325007 1.92881 0
M  V30 983 C 93.2992 -1.6934 1.26045 0
M  V30 984 O 92.6472 -2.24855 0.406526 0
M  V30 985 C 92.8572 -0.410634 3.46576 0
M  V30 986 C 94.2052 -0.667801 4.19316 0
M  V30 987 O 95.2292 -0.49329 3.52768 0
M  V30 988 O 94.0882 -1.00491 5.37181 0
M  V30 989 H 91.1822 -0.186873 0.80561 0
M  V30 990 H 93.7282 0.380376 1.65382 0
M  V30 991 H 92.5002 0.550164 3.87413 0
M  V30 992 H 92.1232 -1.16333 3.802 0
M  V30 993 N 93.1203 -1.57491 0.0584922 0
M  V30 994 C 94.0303 -2.15448 -0.928414 0
M  V30 995 C 95.0463 -1.11416 -1.3365 0
M  V30 996 O 96.2223 -1.4362 -1.41193 0
M  V30 997 C 93.2873 -2.69393 -2.18239 0
M  V30 998 C 92.3483 -3.88249 -1.83196 0
M  V30 999 C 91.5813 -4.39613 -3.02616 0
M  V30 1000 O 91.8043 -3.90023 -4.16219 0
M  V30 1001 O 90.7383 -5.31111 -2.83204 0
M  V30 1002 H 94.5643 -3.00112 -0.465483 0
M  V30 1003 H 92.1493 -1.48499 -0.163826 0
M  V30 1004 H 94.0313 -3.04026 -2.91798 0
M  V30 1005 H 92.7063 -1.87796 -2.63656 0
M  V30 1006 H 91.6133 -3.58492 -1.06931 0
M  V30 1007 H 92.9463 -4.71098 -1.42573 0
M  V30 1008 N 94.5984 0.214957 -1.56127 0
M  V30 1009 C 95.5284 1.2695 -1.95974 0
M  V30 1010 C 96.5094 1.48539 -0.828868 0
M  V30 1011 O 97.6944 1.60611 -1.09168 0
M  V30 1012 C 94.8244 2.61794 -2.28214 0
M  V30 1013 C 93.7784 2.54851 -3.43853 0
M  V30 1014 C 93.1044 3.93785 -3.61715 0
M  V30 1015 C 94.4044 2.09065 -4.78632 0
M  V30 1016 H 96.0984 0.93846 -2.84312 0
M  V30 1017 H 93.6444 0.449996 -1.36788 0
M  V30 1018 H 95.5974 3.35731 -2.54682 0
M  V30 1019 H 94.3214 2.96599 -1.36736 0
M  V30 1020 H 92.9804 1.8337 -3.17444 0
M  V30 1021 H 92.6284 4.25908 -2.67602 0
M  V30 1022 H 92.3284 3.90019 -4.39498 0
M  V30 1023 H 93.8524 4.69374 -3.90539 0
M  V30 1024 H 95.2664 2.7275 -5.04262 0
M  V30 1025 H 93.6634 2.16346 -5.59745 0
M  V30 1026 H 94.7334 1.04315 -4.73547 0
M  V30 1027 N 96.0765 1.50051 0.48192 0
M  V30 1028 C 97.0265 1.64512 1.5786 0
M  V30 1029 C 98.0105 0.500073 1.52932 0
M  V30 1030 O 99.2025 0.753964 1.60139 0
M  V30 1031 C 96.3315 1.73263 2.9637 0
M  V30 1032 C 95.4175 2.93409 3.06222 0
M  V30 1033 N 95.8085 4.17236 2.85915 0
M  V30 1034 C 94.1065 2.91742 3.37346 0
M  V30 1035 C 94.8075 4.981 3.00451 0
M  V30 1036 N 93.7835 4.3184 3.30174 0
M  V30 1037 H 97.5855 2.57955 1.40842 0
M  V30 1038 H 95.0995 1.47086 0.688439 0
M  V30 1039 H 97.0965 1.81724 3.75209 0
M  V30 1040 H 95.7565 0.809711 3.14442 0
M  V30 1041 H 96.7675 4.46909 2.6171 0
M  V30 1042 H 93.4445 2.08907 3.61475 0
M  V30 1043 H 94.8345 6.06532 2.89082 0
M  V30 1044 N 97.5546 -0.734337 1.39446 0
M  V30 1045 C 98.4846 -1.86155 1.40955 0
M  V30 1046 C 99.4656 -1.67898 0.272827 0
M  V30 1047 O 100.651 -1.88207 0.478743 0
M  V30 1048 C 97.7806 -3.23912 1.25294 0
M  V30 1049 C 96.7346 -3.56808 2.36373 0
M  V30 1050 C 96.0606 -4.93508 2.058 0
M  V30 1051 C 97.3606 -3.59713 3.78687 0
M  V30 1052 H 99.0546 -1.8515 2.35287 0
M  V30 1053 H 96.6006 -0.889367 1.13253 0
M  V30 1054 H 98.5536 -4.02443 1.2497 0
M  V30 1055 H 97.2776 -3.25446 0.274308 0
M  V30 1056 H 95.9366 -2.80606 2.35914 0
M  V30 1057 H 95.5846 -4.91623 1.06374 0
M  V30 1058 H 95.2846 -5.16486 2.80208 0
M  V30 1059 H 96.8086 -5.74396 2.07128 0
M  V30 1060 H 98.2226 -4.2832 3.81071 0
M  V30 1061 H 96.6196 -3.94209 4.52459 0
M  V30 1062 H 97.6896 -2.59504 4.09617 0
M  V30 1063 N 99.0327 -1.24633 -0.964593 0
M  V30 1064 C 99.9427 -1.05859 -2.09359 0
M  V30 1065 C 100.959 0.00148855 -1.74 0
M  V30 1066 O 102.135 -0.197346 -2.00431 0
M  V30 1067 C 99.1997 -0.668879 -3.40187 0
M  V30 1068 C 98.2607 -1.80578 -3.89474 0
M  V30 1069 C 97.4937 -1.43457 -5.14058 0
M  V30 1070 O 97.7167 -0.325775 -5.69469 0
M  V30 1071 O 96.6507 -2.2613 -5.57807 0
M  V30 1072 H 100.477 -2.00516 -2.28094 0
M  V30 1073 H 98.0617 -1.03481 -1.0776 0
M  V30 1074 H 99.9437 -0.463211 -4.18846 0
M  V30 1075 H 98.6187 0.248536 -3.22744 0
M  V30 1076 H 97.5257 -2.06623 -3.11862 0
M  V30 1077 H 98.8587 -2.70208 -4.11398 0
M  V30 1078 N 100.511 1.16574 -1.06058 0
M  V30 1079 C 101.459 2.22941 -0.663343 0
M  V30 1080 C 102.453 1.66358 0.319593 0
M  V30 1081 O 103.659 1.7905 0.184713 0
M  V30 1082 H 100.034 0.725907 -0.196376 0
M  V30 1083 H 102.005 2.53736 -1.57037 0
M  V30 1084 C 100.754 3.47642 -0.0632808 0
M  V30 1085 H 100.077 3.91493 -0.810733 0
M  V30 1086 H 101.517 4.2363 0.177177 0
M  V30 1087 C 99.9758 3.1509 1.19248 0
M  V30 1088 O 100.506 3.30673 2.28075 0
M  V30 1089 N 98.7118 2.6924 1.09353 0
M  V30 1090 H 98.2588 2.5676 0.207912 0
M  V30 1091 H 98.2168 2.47833 1.93458 0
M  V30 1092 N 101.989 0.842826 1.3317 0
M  V30 1093 C 103.237 0.439577 1.97262 0
M  V30 1094 C 103.558 -1.00548 1.67078 0
M  V30 1095 O 102.828 -1.70098 0.971779 0
M  V30 1096 H 101.408 0.159558 0.72976 0
M  V30 1097 H 104.07 1.07665 1.62463 0
M  V30 1098 H 103.166 0.574886 3.0676 0
M  V30 1099 N 103.467 -1.45747 0.599634 0
M  V30 1100 C 104.377 -2.34262 -0.125888 0
M  V30 1101 C 105.393 -1.50768 -0.868625 0
M  V30 1102 O 106.569 -1.83592 -0.828003 0
M  V30 1103 C 103.634 -3.28252 -1.11587 0
M  V30 1104 C 102.695 -4.27651 -0.375956 0
M  V30 1105 C 101.928 -5.1715 -1.31877 0
M  V30 1106 O 102.151 -5.09916 -2.55621 0
M  V30 1107 O 101.085 -5.96286 -0.820157 0
M  V30 1108 H 104.911 -2.97688 0.601315 0
M  V30 1109 H 102.496 -1.44999 0.359934 0
M  V30 1110 H 104.378 -3.86191 -1.68626 0
M  V30 1111 H 103.053 -2.67401 -1.82424 0
M  V30 1112 H 101.96 -3.7335 0.236698 0
M  V30 1113 H 103.293 -4.91334 0.29177 0
M  V30 1114 N 104.945 -0.338344 -1.53925 0
M  V30 1115 C 105.908 0.508299 -2.23493 0
M  V30 1116 C 106.908 1.03175 -1.23335 0
M  V30 1117 O 108.098 0.921826 -1.47811 0
M  V30 1118 C 105.23 1.70754 -2.95052 0
M  V30 1119 H 106.423 -0.100058 -2.99733 0
M  V30 1120 H 103.976 -0.0896198 -1.56043 0
M  V30 1121 H 104.711 2.35474 -2.22986 0
M  V30 1122 H 104.496 1.33946 -3.68512 0
M  V30 1123 H 105.986 2.30818 -3.48013 0
M  V30 1124 N 106.423 1.57458 -0.0668435 0
M  V30 1125 C 107.353 2.15468 0.899764 0
M  V30 1126 C 108.334 1.08042 1.31381 0
M  V30 1127 O 109.519 1.36054 1.38574 0
M  V30 1128 C 106.649 2.71232 2.16911 0
M  V30 1129 C 105.603 3.83781 1.89463 0
M  V30 1130 C 104.929 4.26127 3.22986 0
M  V30 1131 C 106.229 5.08238 1.20381 0
M  V30 1132 H 107.923 2.96488 0.416529 0
M  V30 1133 H 105.469 1.4262 0.198908 0
M  V30 1134 H 107.422 3.10458 2.84945 0
M  V30 1135 H 106.146 1.87426 2.67468 0
M  V30 1136 H 104.805 3.45051 1.23836 0
M  V30 1137 H 104.453 3.39249 3.71374 0
M  V30 1138 H 104.153 5.01993 3.05413 0
M  V30 1139 H 105.677 4.67966 3.92225 0
M  V30 1140 H 107.091 5.44811 1.78475 0
M  V30 1141 H 105.488 5.89349 1.13083 0
M  V30 1142 H 106.558 4.84558 0.182153 0
M  V30 1143 N 107.901 -0.206675 1.56239 0
M  V30 1144 C 108.811 -1.27686 1.96808 0
M  V30 1145 C 109.827 -1.50455 0.874035 0
M  V30 1146 O 111.003 -1.63295 1.17884 0
M  V30 1147 C 108.068 -2.60358 2.28942 0
M  V30 1148 C 107.129 -2.45762 3.51994 0
M  V30 1149 C 106.362 -3.72108 3.82585 0
M  V30 1150 O 106.585 -4.75776 3.14631 0
M  V30 1151 O 105.519 -3.6833 4.76043 0
M  V30 1152 H 109.345 -0.962593 2.88041 0
M  V30 1153 H 106.93 -0.410746 1.43643 0
M  V30 1154 H 108.812 -3.38687 2.50737 0
M  V30 1155 H 107.487 -2.91435 1.4088 0
M  V30 1156 H 106.394 -1.65584 3.35459 0
M  V30 1157 H 107.727 -2.19621 4.40486 0
M  V30 1158 N 109.379 -1.50304 -0.473955 0
M  V30 1159 C 110.628 -1.60392 -1.22301 0
M  V30 1160 C 110.941 -0.308411 -1.93153 0
M  V30 1161 O 112.147 -0.288156 -2.69966 0
M  V30 1162 C 110.603 -2.83109 -2.2221 0
M  V30 1163 C 110.211 -4.19524 -1.57173 0
M  V30 1164 C 111.955 -3.0254 -2.97775 0
M  V30 1165 C 109.862 -5.33431 -2.55353 0
M  V30 1166 H 108.792 -0.597286 -0.460179 0
M  V30 1167 H 111.443 -1.76731 -0.493803 0
M  V30 1168 H 109.825 -2.60322 -2.9841 0
M  V30 1169 H 110.999 -4.52554 -0.867824 0
M  V30 1170 H 109.314 -4.05674 -0.939002 0
M  V30 1171 H 111.911 -3.84811 -3.71248 0
M  V30 1172 H 112.254 -2.14154 -3.56992 0
M  V30 1173 H 112.787 -3.25494 -2.28688 0
M  V30 1174 H 109.526 -6.23962 -2.00878 0
M  V30 1175 H 109.046 -5.04823 -3.23904 0
M  V30 1176 H 110.725 -5.63887 -3.17239 0
M  V30 1177 N 110.857 0.726932 -1.39834 0
M  V30 1178 C 112.082 1.52121 -1.40976 0
M  V30 1179 C 112.507 1.88098 -0.00826029 0
M  V30 1180 O 111.865 1.52479 0.980807 0
M  V30 1181 C 111.913 2.78021 -2.29644 0
M  V30 1182 O 111.017 3.74272 -1.73188 0
M  V30 1183 H 110.358 0.45908 -0.479731 0
M  V30 1184 H 112.888 0.896207 -1.83927 0
M  V30 1185 H 112.898 3.26671 -2.44438 0
M  V30 1186 H 111.573 2.51169 -3.31492 0
M  V30 1187 H 110.15 3.33073 -1.6768 0
M  V30 1188 N 112.336 1.25143 0.95797 0
M  V30 1189 C 113.268 1.01023 2.05735 0
M  V30 1190 C 114.281 -0.0236902 1.62783 0
M  V30 1191 O 115.47 0.21448 1.77207 0
M  V30 1192 C 112.57 0.504595 3.35122 0
M  V30 1193 C 111.743 1.6039 4.06932 0
M  V30 1194 C 110.802 1.09922 5.14591 0
M  V30 1195 O 109.828 1.79293 5.40225 0
M  V30 1196 N 111.03 -0.0612545 5.80468 0
M  V30 1197 H 113.795 1.95683 2.26998 0
M  V30 1198 H 111.356 1.16303 1.12629 0
M  V30 1199 H 113.348 0.151516 4.04416 0
M  V30 1200 H 111.918 -0.347989 3.10657 0
M  V30 1201 H 111.138 2.12872 3.31782 0
M  V30 1202 H 112.426 2.34252 4.51667 0
M  V30 1203 H 111.824 -0.640985 5.62057 0
M  V30 1204 H 110.381 -0.355395 6.5083 0
M  V30 1205 N 113.814 -1.1601 1.06675 0
M  V30 1206 C 114.744 -2.22688 0.702307 0
M  V30 1207 C 115.725 -1.67306 -0.307032 0
M  V30 1208 O 116.91 -1.93352 -0.181305 0
M  V30 1209 C 114.04 -3.47178 0.092038 0
M  V30 1210 C 112.994 -4.15477 1.02777 0
M  V30 1211 C 112.32 -5.33963 0.28061 0
M  V30 1212 C 113.62 -4.66019 2.35846 0
M  V30 1213 H 115.314 -2.53429 1.59419 0
M  V30 1214 H 112.86 -1.21813 0.767961 0
M  V30 1215 H 114.813 -4.21037 -0.174814 0
M  V30 1216 H 113.537 -3.15749 -0.834877 0
M  V30 1217 H 112.196 -3.43549 1.27944 0
M  V30 1218 H 111.844 -4.98788 -0.649545 0
M  V30 1219 H 111.544 -5.806 0.904258 0
M  V30 1220 H 113.068 -6.10596 0.021396 0
M  V30 1221 H 114.482 -5.3144 2.15045 0
M  V30 1222 H 112.879 -5.23293 2.93743 0
M  V30 1223 H 113.949 -3.82023 2.98641 0
M  V30 1224 N 115.292 -0.849877 -1.32721 0
M  V30 1225 C 116.222 -0.306308 -2.31482 0
M  V30 1226 C 117.203 0.591952 -1.59468 0
M  V30 1227 O 118.388 0.513199 -1.87296 0
M  V30 1228 C 115.518 0.510204 -3.43532 0
M  V30 1229 C 114.472 -0.293209 -4.26994 0
M  V30 1230 C 113.798 0.647743 -5.30762 0
M  V30 1231 C 115.098 -1.51634 -4.99804 0
M  V30 1232 H 116.792 -1.13153 -2.77195 0
M  V30 1233 H 114.338 -0.545553 -1.33266 0
M  V30 1234 H 116.291 0.900856 -4.11658 0
M  V30 1235 H 115.015 1.36874 -2.96535 0
M  V30 1236 H 113.674 -0.665555 -3.60508 0
M  V30 1237 H 113.322 1.50299 -4.8002 0
M  V30 1238 H 113.022 0.11422 -5.87489 0
M  V30 1239 H 114.546 1.03567 -6.01753 0
M  V30 1240 H 115.96 -1.19824 -5.60638 0
M  V30 1241 H 114.357 -1.98745 -5.66234 0
M  V30 1242 H 115.427 -2.28018 -4.27943 0
M  V30 1243 N 116.77 1.45427 -0.607355 0
M  V30 1244 C 117.717 2.3053 0.111625 0
M  V30 1245 C 118.687 1.4209 0.860216 0
M  V30 1246 O 119.872 1.71019 0.845998 0
M  V30 1247 C 117.012 3.26992 1.10319 0
M  V30 1248 C 116.125 4.30535 0.355493 0
M  V30 1249 C 115.26 5.14105 1.33676 0
M  V30 1250 C 114.299 6.09376 0.576862 0
M  V30 1251 N 113.436 6.85727 1.5074 0
M  V30 1252 H 118.276 2.91477 -0.620093 0
M  V30 1253 H 115.813 1.43631 -0.317594 0
M  V30 1254 H 117.771 3.81385 1.6912 0
M  V30 1255 H 116.401 2.67799 1.80232 0
M  V30 1256 H 115.453 3.78805 -0.348023 0
M  V30 1257 H 116.765 4.98235 -0.237423 0
M  V30 1258 H 115.919 5.72897 1.99684 0
M  V30 1259 H 114.658 4.46423 1.9636 0
M  V30 1260 H 113.663 5.49715 -0.0968519 0
M  V30 1261 H 114.888 6.79085 -0.0449341 0
M  V30 1262 H 112.834 6.20735 2.12189 0
M  V30 1263 H 112.751 7.49778 0.967913 0
M  V30 1264 H 114.019 7.4906 2.15706 0
M  V30 1265 N 118.248 0.346503 1.53744 0
M  V30 1266 C 119.158 -0.517293 2.28826 0
M  V30 1267 C 120.174 -1.10935 1.3405 0
M  V30 1268 O 121.35 -1.1244 1.6709 0
M  V30 1269 C 118.415 -1.65098 3.04866 0
M  V30 1270 C 117.476 -1.0884 4.15274 0
M  V30 1271 C 116.709 -2.16806 4.87679 0
M  V30 1272 O 116.932 -3.3758 4.59778 0
M  V30 1273 O 115.866 -1.80934 5.74061 0
M  V30 1274 H 119.692 0.0931396 3.03557 0
M  V30 1275 H 117.277 0.111458 1.48984 0
M  V30 1276 H 119.159 -2.31053 3.5241 0
M  V30 1277 H 117.834 -2.24717 2.32989 0
M  V30 1278 H 116.741 -0.3933 3.72027 0
M  V30 1279 H 118.074 -0.537036 4.89261 0
M  V30 1280 N 119.726 -1.57421 0.075193 0
M  V30 1281 C 120.951 -1.98364 -0.605515 0
M  V30 1282 C 121.376 -0.953383 -1.62149 0
M  V30 1283 O 120.734 0.0806053 -1.81121 0
M  V30 1284 C 120.782 -3.38332 -1.24756 0
M  V30 1285 O 119.886 -3.37959 -2.36342 0
M  V30 1286 H 119.227 -0.645553 -0.155428 0
M  V30 1287 H 121.757 -2.04044 0.150714 0
M  V30 1288 H 121.767 -3.75591 -1.5936 0
M  V30 1289 H 120.442 -4.12846 -0.503129 0
M  V30 1290 H 119.019 -3.12474 -2.03506 0
M  V30 1291 N 121.204 0.198386 -1.56346 0
M  V30 1292 C 122.429 0.939682 -1.84891 0
M  V30 1293 C 122.854 1.76202 -0.658369 0
M  V30 1294 O 122.212 1.76993 0.392851 0
M  V30 1295 C 122.26 1.81428 -3.11635 0
M  V30 1296 O 121.364 2.91265 -2.91956 0
M  V30 1297 H 120.705 0.264807 -0.608912 0
M  V30 1298 H 123.235 0.204695 -2.03573 0
M  V30 1299 H 123.245 2.21958 -3.42343 0
M  V30 1300 H 121.92 1.21004 -3.97908 0
M  V30 1301 H 120.497 2.54514 -2.72538 0
M  V30 1302 N 122.682 1.50554 0.465978 0
M  V30 1303 C 123.907 1.65838 1.24549 0
M  V30 1304 C 124.332 0.343486 1.84937 0
M  V30 1305 O 123.69 -0.69324 1.67523 0
M  V30 1306 C 123.738 2.75533 2.32624 0
M  V30 1307 O 122.842 2.37142 3.37398 0
M  V30 1308 H 122.183 0.553893 0.366194 0
M  V30 1309 H 124.713 1.96959 0.553927 0
M  V30 1310 H 124.723 2.98763 2.77857 0
M  V30 1311 H 123.398 3.70962 1.88043 0
M  V30 1312 H 121.975 2.24377 2.97841 0
M  V30 1313 N 124.16 -0.719506 1.40217 0
M  V30 1314 C 125.408 -1.47641 1.3801 0
M  V30 1315 C 125.729 -1.94992 -0.018145 0
M  V30 1316 O 124.999 -1.70073 -0.972207 0
M  V30 1317 H 123.579 -0.547744 0.507923 0
M  V30 1318 H 126.241 -0.853187 1.75233 0
M  V30 1319 H 125.337 -2.35112 2.05253 0
M  V30 1320 N 125.638 -1.25649 -0.95132 0
M  V30 1321 C 126.57 -1.02112 -2.05197 0
M  V30 1322 C 127.583 0.0150571 -1.62793 0
M  V30 1323 O 128.772 -0.223874 -1.77091 0
M  V30 1324 C 125.872 -0.522361 -3.3485 0
M  V30 1325 C 125.045 -1.62546 -4.06076 0
M  V30 1326 C 124.104 -1.12649 -5.14001 0
M  V30 1327 O 123.13 -1.82156 -5.39266 0
M  V30 1328 N 124.332 0.03047 -5.80492 0
M  V30 1329 H 127.097 -1.96885 -2.25957 0
M  V30 1330 H 124.658 -1.16899 -1.1201 0
M  V30 1331 H 126.65 -0.172961 -4.0433 0
M  V30 1332 H 125.22 0.33151 -3.10837 0
M  V30 1333 H 124.44 -2.14628 -3.30649 0
M  V30 1334 H 125.728 -2.36644 -4.50419 0
M  V30 1335 H 125.126 0.611169 -5.62389 0
M  V30 1336 H 123.683 0.320875 -6.5101 0
M  V30 1337 N 127.117 1.15442 -1.07289 0
M  V30 1338 C 128.528 1.67803 -0.818475 0
M  V30 1339 C 128.879 1.8489 0.656507 0
M  V30 1340 O 128.004 1.55176 1.50829 0
M  V30 1341 C 128.599 3.04805 -1.47917 0
M  V30 1342 C 127.158 3.54245 -1.27229 0
M  V30 1343 C 126.305 2.29986 -1.54925 0
M  V30 1344 H 129.256 0.996646 -1.23502 0
M  V30 1345 H 129.277 3.69702 -0.90005 0
M  V30 1346 H 128.789 2.92336 -2.55267 0
M  V30 1347 H 126.89 3.71956 -0.21899 0
M  V30 1348 H 127.003 4.35723 -1.99203 0
M  V30 1349 H 125.367 2.35496 -0.970242 0
M  V30 1350 H 126.15 2.20105 -2.63455 0
M  V30 1351 N 128.595 0.856903 1.32268 0
M  V30 1352 C 129.825 0.47475 2.01071 0
M  V30 1353 C 130.233 -0.933746 1.64553 0
M  V30 1354 O 129.576 -1.62114 0.863989 0
M  V30 1355 C 129.638 0.536746 3.55471 0
M  V30 1356 C 129.302 1.90453 4.15423 0
M  V30 1357 C 130.299 2.87029 4.33486 0
M  V30 1358 C 127.984 2.20229 4.51447 0
M  V30 1359 C 129.978 4.11532 4.86744 0
M  V30 1360 C 127.665 3.44984 5.0441 0
M  V30 1361 C 128.663 4.40452 5.22007 0
M  V30 1362 O 128.351 5.62998 5.73837 0
M  V30 1363 H 128.083 0.184778 0.650256 0
M  V30 1364 H 130.637 1.15615 1.69771 0
M  V30 1365 H 128.867 -0.20152 3.86175 0
M  V30 1366 H 130.556 0.169875 4.05544 0
M  V30 1367 H 131.322 2.6533 4.05986 0
M  V30 1368 H 127.201 1.46705 4.37034 0
M  V30 1369 H 130.745 4.86056 5.00395 0
M  V30 1370 H 126.642 3.66532 5.31342 0
M  V30 1371 H 127.41 5.64987 5.92226 0
M  V30 1372 N 130.073 -1.45103 0.615059 0
M  V30 1373 C 131.35 -1.95549 0.0448276 0
M  V30 1374 C 131.73 -1.55737 -1.4251 0
M  V30 1375 O 131.078 -0.823556 -2.13143 0
M  V30 1376 C 131.288 -3.48098 0.250785 0
M  V30 1377 C 132.636 -4.24384 0.135509 0
M  V30 1378 O 133.66 -3.55738 0.181299 0
M  V30 1379 O 132.519 -5.46493 0.0268878 0
M  V30 1380 H 129.613 -0.8264 -0.0314845 0
M  V30 1381 H 132.159 -1.55232 0.685642 0
M  V30 1382 H 130.931 -3.7007 1.27139 0
M  V30 1383 H 130.554 -3.95323 -0.424937 0
M  V30 1384 N 131.551 -0.354651 -1.53558 0
M  V30 1385 C 132.514 0.484566 -2.24019 0
M  V30 1386 C 133.514 1.01861 -1.24422 0
M  V30 1387 O 134.704 0.906097 -1.4878 0
M  V30 1388 C 131.836 1.67615 -2.96847 0
M  V30 1389 H 133.029 -0.131843 -2.9961 0
M  V30 1390 H 130.582 -0.106165 -1.55939 0
M  V30 1391 H 131.317 2.33095 -2.25471 0
M  V30 1392 H 131.102 1.30029 -3.69912 0
M  V30 1393 H 132.592 2.27114 -3.50441 0
M  V30 1394 N 133.029 1.57378 -0.0835403 0
M  V30 1395 C 134.275 1.94217 0.583733 0
M  V30 1396 C 134.608 0.964653 1.68547 0
M  V30 1397 O 133.883 -0.00422258 1.945 0
M  V30 1398 C 134.166 3.41253 1.14972 0
M  V30 1399 C 134.019 4.49768 0.0538277 0
M  V30 1400 C 135.338 3.89352 2.05166 0
M  V30 1401 H 132.457 0.706233 0.210724 0
M  V30 1402 H 135.099 1.89392 -0.1519 0
M  V30 1403 H 133.249 3.45496 1.77665 0
M  V30 1404 H 134.921 4.57641 -0.579851 0
M  V30 1405 H 133.164 4.29432 -0.614068 0
M  V30 1406 H 133.835 5.49817 0.490452 0
M  V30 1407 H 136.311 3.87189 1.52393 0
M  V30 1408 H 135.187 4.92822 2.41698 0
M  V30 1409 H 135.448 3.27973 2.96456 0
M  V30 1410 N 134.507 -0.190092 1.56449 0
M  V30 1411 C 135.754 -0.909705 1.80916 0
M  V30 1412 C 136.082 -1.83047 0.657583 0
M  V30 1413 O 135.337 -1.92428 -0.356356 0
M  V30 1414 C 135.636 -1.75382 3.1141 0
M  V30 1415 C 135.302 -0.983606 4.40041 0
M  V30 1416 C 133.964 -0.770967 4.74984 0
M  V30 1417 C 136.316 -0.442024 5.19322 0
M  V30 1418 C 133.644 -0.0053448 5.867 0
M  V30 1419 C 135.996 0.310412 6.31838 0
M  V30 1420 C 134.66 0.534023 6.6536 0
M  V30 1421 H 133.93 -0.332885 0.662019 0
M  V30 1422 H 136.577 -0.175762 1.90692 0
M  V30 1423 H 134.882 -2.55659 2.96893 0
M  V30 1424 H 136.579 -2.31331 3.27547 0
M  V30 1425 H 133.169 -1.15936 4.12622 0
M  V30 1426 H 137.353 -0.593693 4.92736 0
M  V30 1427 H 132.609 0.177825 6.11141 0
M  V30 1428 H 136.783 0.737419 6.92485 0
M  V30 1429 H 134.41 1.12918 7.51767 0
M  V30 1430 N 135.985 -1.50799 -0.457987 0
M  V30 1431 C 137.396 -1.55152 -1.0385 0
M  V30 1432 C 137.747 -0.362719 -1.92818 0
M  V30 1433 O 136.872 0.522915 -2.09987 0
M  V30 1434 C 137.467 -2.81173 -1.89017 0
M  V30 1435 C 136.026 -2.88164 -2.42154 0
M  V30 1436 C 135.173 -2.49591 -1.20829 0
M  V30 1437 H 138.124 -1.56874 -0.240068 0
M  V30 1438 H 138.145 -2.63769 -2.74238 0
M  V30 1439 H 137.657 -3.67677 -1.24238 0
M  V30 1440 H 135.758 -2.06042 -3.10447 0
M  V30 1441 H 135.871 -3.91356 -2.76364 0
M  V30 1442 H 134.235 -2.02322 -1.54719 0
M  V30 1443 H 135.018 -3.38418 -0.576927 0
M  V30 1444 N 137.463 0.71206 -1.40597 0
M  V30 1445 C 138.393 1.83889 -1.43899 0
M  V30 1446 C 139.374 1.67442 -0.299504 0
M  V30 1447 O 140.559 1.87421 -0.508624 0
M  V30 1448 C 137.689 3.21877 -1.30431 0
M  V30 1449 C 136.643 3.53002 -2.42019 0
M  V30 1450 C 135.969 4.90172 -2.13626 0
M  V30 1451 C 137.269 3.53643 -3.84362 0
M  V30 1452 H 138.963 1.81383 -2.38203 0
M  V30 1453 H 136.509 0.871237 -1.14654 0
M  V30 1454 H 138.462 4.00404 -1.31357 0
M  V30 1455 H 137.186 3.24968 -0.326049 0
M  V30 1456 H 135.845 2.76818 -2.40349 0
M  V30 1457 H 135.493 4.89869 -1.14182 0
M  V30 1458 H 135.193 5.11962 -2.88389 0
M  V30 1459 H 136.717 5.71028 -2.1624 0
M  V30 1460 H 138.131 4.22203 -3.87837 0
M  V30 1461 H 136.528 3.86961 -4.58673 0
M  V30 1462 H 137.598 2.52954 -4.13693 0
M  V30 1463 N 138.941 1.26152 0.944643 0
M  V30 1464 C 139.871 1.09902 2.06019 0
M  V30 1465 C 140.852 0.00519538 1.70099 0
M  V30 1466 O 142.037 0.176583 1.93396 0
M  V30 1467 C 139.167 0.727562 3.39594 0
M  V30 1468 C 138.121 1.77274 3.89561 0
M  V30 1469 C 137.447 1.25569 5.19747 0
M  V30 1470 C 138.747 3.17357 4.14827 0
M  V30 1471 H 140.441 2.03217 2.19871 0
M  V30 1472 H 137.987 0.978452 1.05652 0
M  V30 1473 H 139.94 0.600777 4.17095 0
M  V30 1474 H 138.664 -0.241287 3.25707 0
M  V30 1475 H 137.323 1.88814 3.14237 0
M  V30 1476 H 136.971 0.276783 5.02238 0
M  V30 1477 H 136.671 1.95433 5.54148 0
M  V30 1478 H 138.195 1.1415 5.99835 0
M  V30 1479 H 139.609 3.08914 4.82954 0
M  V30 1480 H 138.006 3.84781 4.60504 0
M  V30 1481 H 139.076 3.63673 3.20734 0
M  V30 1482 N 140.419 -1.14872 1.07899 0
M  V30 1483 C 141.369 -2.17809 0.674027 0
M  V30 1484 C 142.353 -1.58008 -0.303699 0
M  V30 1485 O 143.545 -1.76616 -0.11654 0
M  V30 1486 C 140.674 -3.43208 0.0793318 0
M  V30 1487 C 139.76 -4.10051 1.08253 0
M  V30 1488 N 140.151 -4.52296 2.2641 0
M  V30 1489 C 138.449 -4.36469 0.917124 0
M  V30 1490 C 139.15 -5.04199 2.901 0
M  V30 1491 N 138.126 -4.98088 2.17736 0
M  V30 1492 H 141.928 -2.48207 1.57386 0
M  V30 1493 H 139.442 -1.315 0.952976 0
M  V30 1494 H 141.439 -4.16272 -0.228719 0
M  V30 1495 H 140.099 -3.14291 -0.815551 0
M  V30 1496 H 141.11 -4.45504 2.64096 0
M  V30 1497 H 137.787 -4.17432 0.0756078 0
M  V30 1498 H 139.177 -5.46802 3.90458 0
M  V30 1499 N 141.898 -0.863906 -1.31812 0
M  V30 1500 C 143.146 -0.470904 -1.96537 0
M  V30 1501 C 143.467 0.978771 -1.68657 0
M  V30 1502 O 142.737 1.6853 -0.998717 0
M  V30 1503 H 141.317 -0.171148 -0.72713 0
M  V30 1504 H 143.979 -1.10236 -1.60729 0
M  V30 1505 H 143.075 -0.623616 -3.05806 0
M  V30 1506 N 143.376 1.44774 -0.622745 0
M  V30 1507 C 144.787 1.85546 -0.207226 0
M  V30 1508 C 145.138 1.52093 1.23944 0
M  V30 1509 O 144.263 0.95492 1.94191 0
M  V30 1510 C 144.858 3.36781 -0.369313 0
M  V30 1511 C 143.417 3.76399 -0.00836847 0
M  V30 1512 C 142.564 2.68664 -0.686651 0
M  V30 1513 H 145.515 1.3536 -0.828454 0
M  V30 1514 H 145.536 3.78453 0.394162 0
M  V30 1515 H 145.048 3.61098 -1.42231 0
M  V30 1516 H 143.149 3.57698 1.04322 0
M  V30 1517 H 143.262 4.7732 -0.412584 0
M  V30 1518 H 141.626 2.54404 -0.122777 0
M  V30 1519 H 142.409 2.95815 -1.74208 0
M  V30 1520 N 144.854 0.36279 1.53368 0
M  V30 1521 C 145.802 -0.500155 2.27159 0
M  V30 1522 C 146.796 -1.08575 1.3003 0
M  V30 1523 O 148.002 -1.02927 1.47668 0
M  V30 1524 H 144.377 -0.180009 0.730138 0
M  V30 1525 H 146.348 0.14401 2.98052 0
M  V30 1526 C 145.097 -1.62937 3.07159 0
M  V30 1527 H 144.42 -1.18806 3.8174 0
M  V30 1528 H 145.86 -2.20795 3.61975 0
M  V30 1529 C 144.319 -2.57007 2.17829 0
M  V30 1530 O 144.849 -3.59752 1.78721 0
M  V30 1531 N 143.055 -2.26131 1.82518 0
M  V30 1532 H 142.602 -1.42616 2.14519 0
M  V30 1533 H 142.56 -2.89327 1.23034 0
M  V30 1534 N 146.332 -1.57332 0.0918853 0
M  V30 1535 C 147.58 -1.93853 -0.571446 0
M  V30 1536 C 147.901 -0.974212 -1.6892 0
M  V30 1537 O 147.171 -0.0257254 -1.95883 0
M  V30 1538 H 145.751 -0.715666 -0.214082 0
M  V30 1539 H 148.413 -1.94287 0.154464 0
M  V30 1540 H 147.509 -2.96191 -0.983729 0
M  V30 1541 N 147.81 0.181792 -1.56548 0
M  V30 1542 C 148.72 1.24538 -1.98815 0
M  V30 1543 C 149.736 1.49045 -0.897861 0
M  V30 1544 O 150.912 1.61399 -1.20467 0
M  V30 1545 C 147.977 2.56683 -2.33055 0
M  V30 1546 C 147.038 2.40131 -3.55859 0
M  V30 1547 C 146.271 3.65975 -3.88456 0
M  V30 1548 O 146.494 4.70711 -3.22161 0
M  V30 1549 O 145.428 3.6071 -4.81842 0
M  V30 1550 H 149.254 0.916647 -2.89536 0
M  V30 1551 H 146.839 0.387842 -1.44278 0
M  V30 1552 H 148.721 3.34655 -2.56094 0
M  V30 1553 H 147.396 2.89157 -1.45498 0
M  V30 1554 H 146.303 1.60226 -3.38051 0
M  V30 1555 H 147.636 2.12585 -4.43924 0
M  V30 1556 N 149.288 1.51039 0.449983 0
M  V30 1557 C 150.565 1.53612 1.21089 0
M  V30 1558 C 150.945 0.292997 2.09057 0
M  V30 1559 O 150.293 -0.72259 2.16774 0
M  V30 1560 C 150.503 2.84337 2.0237 0
M  V30 1561 C 151.851 3.35807 2.59843 0
M  V30 1562 O 152.875 2.85802 2.12593 0
M  V30 1563 O 151.734 4.23029 3.45989 0
M  V30 1564 H 148.828 0.617057 0.550608 0
M  V30 1565 H 151.374 1.63344 0.460082 0
M  V30 1566 H 150.146 3.66278 1.37681 0
M  V30 1567 H 149.769 2.77708 2.84542 0
M  V30 1568 N 150.766 -0.704594 1.40972 0
M  V30 1569 C 152.014 -1.46169 1.39568 0
M  V30 1570 C 152.335 -1.95 0.00253745 0
M  V30 1571 O 151.605 -1.71095 -0.954114 0
M  V30 1572 H 150.185 -0.542326 0.513704 0
M  V30 1573 H 152.847 -0.834553 1.76128 0
M  V30 1574 H 151.943 -2.32922 2.07735 0
M  V30 1575 N 152.244 -1.26651 -0.937939 0
M  V30 1576 C 153.472 -1.15173 -1.7188 0
M  V30 1577 C 153.887 0.292668 -1.86518 0
M  V30 1578 O 153.244 1.20014 -1.37488 0
M  V30 1579 C 153.295 -1.81925 -3.12387 0
M  V30 1580 O 153.016 -3.2072 -2.98446 0
M  V30 1581 C 154.517 -1.76442 -4.06673 0
M  V30 1582 H 151.737 -0.400911 -0.538063 0
M  V30 1583 H 154.281 -1.67332 -1.1756 0
M  V30 1584 H 152.436 -1.33696 -3.63599 0
M  V30 1585 H 152.85 -3.53802 -3.872 0
M  V30 1586 H 154.324 -2.27781 -5.02812 0
M  V30 1587 H 154.801 -0.731608 -4.33064 0
M  V30 1588 H 155.407 -2.24238 -3.61382 0
M  V30 1589 N 153.722 1.14298 -1.08507 0
M  V30 1590 C 154.971 1.84708 -0.810305 0
M  V30 1591 C 155.284 1.83903 0.666271 0
M  V30 1592 O 156.49 2.50112 1.05624 0
M  V30 1593 C 154.946 3.31572 -1.39957 0
M  V30 1594 C 154.554 3.40791 -2.90801 0
M  V30 1595 C 156.298 4.07087 -1.20334 0
M  V30 1596 C 154.205 4.81872 -3.4286 0
M  V30 1597 H 153.135 0.691985 -0.299454 0
M  V30 1598 H 155.786 1.28841 -1.30661 0
M  V30 1599 H 154.168 3.87183 -0.830976 0
M  V30 1600 H 155.342 2.95225 -3.53806 0
M  V30 1601 H 153.657 2.78732 -3.0935 0
M  V30 1602 H 156.254 5.11225 -1.56693 0
M  V30 1603 H 156.597 4.16054 -0.143237 0
M  V30 1604 H 157.13 3.57779 -1.73893 0
M  V30 1605 H 153.869 4.78094 -4.48449 0
M  V30 1606 H 153.389 5.27972 -2.84615 0
M  V30 1607 H 155.068 5.50765 -3.39509 0
M  V30 1608 N 155.201 0.870884 1.31352 0
M  V30 1609 C 156.133 0.28455 2.27427 0
M  V30 1610 C 157.146 -0.552927 1.53123 0
M  V30 1611 O 158.335 -0.374771 1.74521 0
M  V30 1612 C 155.435 -0.615164 3.3327 0
M  V30 1613 C 154.608 0.190079 4.36987 0
M  V30 1614 C 153.667 -0.637917 5.22319 0
M  V30 1615 O 152.693 -0.065626 5.69162 0
M  V30 1616 N 153.895 -1.94973 5.46778 0
M  V30 1617 H 156.66 1.11017 2.7838 0
M  V30 1618 H 154.221 0.732458 1.44384 0
M  V30 1619 H 156.213 -1.1748 3.87273 0
M  V30 1620 H 154.783 -1.34146 2.82354 0
M  V30 1621 H 154.003 0.931165 3.83044 0
M  V30 1622 H 155.291 0.742579 5.03352 0
M  V30 1623 H 154.689 -2.4378 5.10478 0
M  V30 1624 H 153.246 -2.45713 6.03712 0
M  V30 1625 N 156.679 -1.44442 0.630414 0
M  V30 1626 C 157.927 -2.01653 0.134351 0
M  V30 1627 C 158.248 -1.49836 -1.24796 0
M  V30 1628 O 157.518 -0.701684 -1.82902 0
M  V30 1629 H 156.098 -0.74554 0.0466769 0
M  V30 1630 H 158.76 -1.76952 0.816955 0
M  V30 1631 H 157.856 -3.11935 0.101498 0
M  V30 1632 N 158.157 -0.370918 -1.53173 0
M  V30 1633 C 159.087 0.464847 -2.28826 0
M  V30 1634 C 160.068 1.07936 -1.31468 0
M  V30 1635 O 161.253 1.0956 -1.60344 0
M  V30 1636 C 158.383 1.60196 -3.08147 0
M  V30 1637 C 157.337 1.11443 -4.13237 0
M  V30 1638 C 156.663 2.3422 -4.80672 0
M  V30 1639 C 157.963 0.195384 -5.21934 0
M  V30 1640 H 159.657 -0.166329 -2.98938 0
M  V30 1641 H 157.203 -0.0814359 -1.4377 0
M  V30 1642 H 159.156 2.19332 -3.59822 0
M  V30 1643 H 157.88 2.26045 -2.35735 0
M  V30 1644 H 156.539 0.545727 -3.62515 0
M  V30 1645 H 156.187 2.98537 -4.04827 0
M  V30 1646 H 155.887 2.02269 -5.51689 0
M  V30 1647 H 157.411 2.94032 -5.35143 0
M  V30 1648 H 158.825 0.694375 -5.69079 0
M  V30 1649 H 157.222 -0.0335027 -6.00091 0
M  V30 1650 H 158.292 -0.760961 -4.78892 0
M  V30 1651 N 159.635 1.57281 -0.100228 0
M  V30 1652 C 160.882 1.94537 0.562268 0
M  V30 1653 C 161.21 0.982315 1.67871 0
M  V30 1654 O 160.465 0.00280936 1.957 0
M  V30 1655 C 160.764 3.38305 1.15259 0
M  V30 1656 C 160.43 4.50618 0.159409 0
M  V30 1657 C 159.092 4.81066 -0.113741 0
M  V30 1658 C 161.444 5.18615 -0.518461 0
M  V30 1659 C 158.772 5.76835 -1.07137 0
M  V30 1660 C 161.124 6.15412 -1.46459 0
M  V30 1661 C 159.788 6.44262 -1.74592 0
M  V30 1662 H 159.058 0.711863 0.205748 0
M  V30 1663 H 161.705 1.90679 -0.17715 0
M  V30 1664 H 160.01 3.38766 1.96836 0
M  V30 1665 H 161.707 3.64435 1.67297 0
M  V30 1666 H 158.297 4.2689 0.382491 0
M  V30 1667 H 162.481 4.95264 -0.320581 0
M  V30 1668 H 157.737 5.975 -1.29628 0
M  V30 1669 H 161.911 6.67194 -1.99564 0
M  V30 1670 H 159.538 7.1828 -2.48953 0
M  V30 1671 N 161.113 -0.173488 1.56642 0
M  V30 1672 C 162.023 -1.23482 1.99473 0
M  V30 1673 C 163.039 -1.48567 0.905752 0
M  V30 1674 O 164.215 -1.60758 1.21321 0
M  V30 1675 C 161.28 -2.55444 2.34413 0
M  V30 1676 C 160.341 -2.38241 3.57127 0
M  V30 1677 C 159.574 -3.63909 3.90392 0
M  V30 1678 O 159.797 -4.68996 3.24653 0
M  V30 1679 O 158.731 -3.58149 4.83749 0
M  V30 1680 H 162.557 -0.901279 2.90018 0
M  V30 1681 H 160.142 -0.380185 1.44482 0
M  V30 1682 H 162.024 -3.33292 2.57865 0
M  V30 1683 H 160.699 -2.88382 1.4703 0
M  V30 1684 H 159.606 -1.58431 3.38896 0
M  V30 1685 H 160.939 -2.10228 4.45045 0
M  V30 1686 N 162.591 -1.51276 -0.441967 0
M  V30 1687 C 163.837 -1.63958 -1.19355 0
M  V30 1688 C 164.17 -0.352543 -1.90973 0
M  V30 1689 O 163.445 0.647627 -1.83401 0
M  V30 1690 C 163.728 -2.83979 -2.21422 0
M  V30 1691 C 163.581 -4.22646 -1.53918 0
M  V30 1692 C 164.9 -2.99521 -3.22451 0
M  V30 1693 H 162.019 -0.596709 -0.432559 0
M  V30 1694 H 164.661 -1.83748 -0.483398 0
M  V30 1695 H 162.811 -2.67237 -2.81987 0
M  V30 1696 H 164.483 -4.51045 -0.967256 0
M  V30 1697 H 162.726 -4.25558 -0.841615 0
M  V30 1698 H 163.397 -5.02609 -2.28229 0
M  V30 1699 H 165.873 -3.14944 -2.71937 0
M  V30 1700 H 164.749 -3.85072 -3.91166 0
M  V30 1701 H 165.01 -2.11391 -3.88287 0
M  V30 1702 N 164.069 0.697108 -1.41344 0
M  V30 1703 C 164.999 1.82353 -1.45841 0
M  V30 1704 C 165.98 1.67115 -0.317247 0
M  V30 1705 O 167.165 1.86871 -0.528474 0
M  V30 1706 C 164.295 3.20476 -1.33838 0
M  V30 1707 C 163.249 3.50415 -2.4575 0
M  V30 1708 C 162.575 4.87878 -2.18813 0
M  V30 1709 C 163.875 3.49546 -3.88091 0
M  V30 1710 H 165.569 1.78846 -2.40113 0
M  V30 1711 H 163.115 0.859028 -1.15571 0
M  V30 1712 H 165.068 3.98988 -1.35596 0
M  V30 1713 H 163.792 3.24604 -0.360498 0
M  V30 1714 H 162.451 2.74253 -2.43271 0
M  V30 1715 H 162.099 4.8863 -1.19371 0
M  V30 1716 H 161.799 5.08875 -2.93803 0
M  V30 1717 H 163.323 5.68702 -2.22284 0
M  V30 1718 H 164.737 4.18066 -3.92293 0
M  V30 1719 H 163.134 3.82075 -4.62751 0
M  V30 1720 H 164.204 2.48552 -4.16353 0
M  V30 1721 N 165.547 1.27147 0.931209 0
M  V30 1722 C 166.824 1.0401 1.65654 0
M  V30 1723 C 167.204 -0.426297 2.06751 0
M  V30 1724 O 166.552 -1.40879 1.79904 0
M  V30 1725 C 166.762 1.99834 2.86125 0
M  V30 1726 C 168.11 2.29007 3.57549 0
M  V30 1727 O 169.134 1.97779 2.96246 0
M  V30 1728 O 167.993 2.82222 4.67989 0
M  V30 1729 H 165.087 0.396239 0.725895 0
M  V30 1730 H 167.633 1.38397 0.982056 0
M  V30 1731 H 166.405 2.98744 2.52721 0
M  V30 1732 H 166.028 1.65987 3.61295 0
M  V30 1733 N 167.025 -1.13721 1.09112 0
M  V30 1734 C 168.271 -1.85198 0.826414 0
M  V30 1735 C 168.604 -1.83129 -0.646319 0
M  V30 1736 O 167.879 -1.2671 -1.47563 0
M  V30 1737 C 168.162 -3.33507 1.35812 0
M  V30 1738 C 168.015 -3.44108 2.89672 0
M  V30 1739 C 169.334 -4.28838 0.989256 0
M  V30 1740 H 166.453 -0.67243 0.301675 0
M  V30 1741 H 169.095 -1.33499 1.35197 0
M  V30 1742 H 167.245 -3.77666 0.911082 0
M  V30 1743 H 168.917 -3.08684 3.428 0
M  V30 1744 H 167.16 -2.85087 3.26967 0
M  V30 1745 H 167.831 -4.48388 3.21951 0
M  V30 1746 H 170.307 -3.92734 1.37475 0
M  V30 1747 H 169.183 -5.31051 1.38838 0
M  V30 1748 H 169.444 -4.4198 -0.102924 0
M  V30 1749 N 168.503 -0.877838 -1.30888 0
M  V30 1750 C 169.914 -0.544193 -1.78593 0
M  V30 1751 C 170.265 0.939301 -1.72254 0
M  V30 1752 O 169.39 1.7337 -1.29505 0
M  V30 1753 C 169.985 -0.98105 -3.24285 0
M  V30 1754 C 168.544 -0.698935 -3.69854 0
M  V30 1755 C 167.691 -1.168 -2.51502 0
M  V30 1756 H 170.642 -1.06278 -1.17859 0
M  V30 1757 H 170.663 -0.307009 -3.79259 0
M  V30 1758 H 170.175 -2.06079 -3.28866 0
M  V30 1759 H 168.276 0.369112 -3.70767 0
M  V30 1760 H 168.389 -1.28148 -4.61644 0
M  V30 1761 H 166.753 -0.587535 -2.47831 0
M  V30 1762 H 167.536 -2.25533 -2.58824 0
M  V30 1763 N 169.982 1.44106 -0.638065 0
M  V30 1764 C 171.212 2.06037 -0.152394 0
M  V30 1765 C 171.62 1.47808 1.18108 0
M  V30 1766 O 170.963 0.598092 1.73691 0
M  V30 1767 C 171.025 3.59488 0.0293714 0
M  V30 1768 C 170.689 4.4022 -1.22702 0
M  V30 1769 C 171.686 4.73256 -2.15232 0
M  V30 1770 C 169.371 4.8048 -1.46437 0
M  V30 1771 C 171.365 5.45444 -3.29802 0
M  V30 1772 C 169.052 5.52417 -2.61303 0
M  V30 1773 C 170.05 5.84819 -3.52811 0
M  V30 1774 O 169.738 6.55289 -4.65673 0
M  V30 1775 H 169.47 0.671233 -0.0801401 0
M  V30 1776 H 172.024 1.85851 -0.874563 0
M  V30 1777 H 170.254 3.78191 0.806758 0
M  V30 1778 H 171.943 4.03164 0.470475 0
M  V30 1779 H 172.709 4.42684 -1.98131 0
M  V30 1780 H 168.588 4.54676 -0.760977 0
M  V30 1781 H 172.132 5.70653 -4.01249 0
M  V30 1782 H 168.029 5.82404 -2.78344 0
M  V30 1783 H 168.797 6.73762 -4.64744 0
M  V30 1784 N 171.46 0.379036 1.52974 0
M  V30 1785 C 172.706 -0.206727 2.01744 0
M  V30 1786 C 173.039 -1.47314 1.26539 0
M  V30 1787 O 172.314 -1.91084 0.362903 0
M  V30 1788 C 172.597 -0.485066 3.56818 0
M  V30 1789 C 172.45 0.795919 4.42702 0
M  V30 1790 C 173.769 -1.28003 4.21074 0
M  V30 1791 H 170.888 -0.0736607 0.73331 0
M  V30 1792 H 173.53 0.506581 1.83122 0
M  V30 1793 H 171.68 -1.09272 3.72816 0
M  V30 1794 H 173.352 1.43307 4.38476 0
M  V30 1795 H 171.595 1.41344 4.10127 0
M  V30 1796 H 172.266 0.555947 5.49193 0
M  V30 1797 H 174.742 -0.765867 4.08991 0
M  V30 1798 H 173.618 -1.44352 5.29579 0
M  V30 1799 H 173.879 -2.29236 3.78026 0
M  V30 1800 N 172.938 -1.57226 0.108567 0
M  V30 1801 C 174.186 -1.94448 -0.550853 0
M  V30 1802 C 174.507 -0.992074 -1.67878 0
M  V30 1803 O 173.777 -0.0465 -1.95845 0
M  V30 1804 H 172.357 -0.717897 -0.206479 0
M  V30 1805 H 175.019 -1.94112 0.175062 0
M  V30 1806 H 174.115 -2.97218 -0.952259 0
M  V30 1807 N 174.416 0.165178 -1.56732 0
M  V30 1808 C 175.364 1.22369 -1.97809 0
M  V30 1809 C 176.358 1.45488 -0.867741 0
M  V30 1810 O 177.564 1.45995 -1.05288 0
M  V30 1811 H 173.939 0.411486 -0.629431 0
M  V30 1812 H 175.91 0.850425 -2.86025 0
M  V30 1813 C 174.659 2.55403 -2.35934 0
M  V30 1814 H 173.982 2.38438 -3.20916 0
M  V30 1815 H 175.422 3.2814 -2.68514 0
M  V30 1816 C 173.881 3.14611 -1.20506 0
M  V30 1817 O 174.411 3.98626 -0.496016 0
M  V30 1818 N 172.617 2.7379 -0.97403 0
M  V30 1819 H 172.164 2.0557 -1.55238 0
M  V30 1820 H 172.122 3.1374 -0.203573 0
M  V30 1821 N 175.894 1.51508 0.433938 0
M  V30 1822 C 177.142 1.6402 1.18075 0
M  V30 1823 C 177.463 0.360328 1.91642 0
M  V30 1824 O 176.733 -0.623945 1.85698 0
M  V30 1825 H 175.313 0.6045 0.43885 0
M  V30 1826 H 177.975 1.88452 0.497178 0
M  V30 1827 H 177.071 2.46949 1.90847 0
M  V30 1828 N 177.372 -0.689602 1.41712 0
M  V30 1829 C 178.618 -1.45181 1.41599 0
M  V30 1830 C 178.951 -1.94181 0.0270081 0
M  V30 1831 O 178.226 -1.6993 -0.946265 0
M  V30 1832 C 178.509 -2.65945 2.42787 0
M  V30 1833 C 178.362 -2.22672 3.90816 0
M  V30 1834 C 179.681 -3.68149 2.41151 0
M  V30 1835 H 176.8 -0.526576 0.515642 0
M  V30 1836 H 179.442 -0.784947 1.73028 0
M  V30 1837 H 177.592 -3.2284 2.16116 0
M  V30 1838 H 179.264 -1.71058 4.28412 0
M  V30 1839 H 177.507 -1.54394 4.05395 0
M  V30 1840 H 178.178 -3.0935 4.57172 0
M  V30 1841 H 180.654 -3.2094 2.64834 0
M  V30 1842 H 179.53 -4.50248 3.13955 0
M  V30 1843 H 179.791 -4.18259 1.43221 0
M  V30 1844 N 178.85 -1.27639 -0.924453 0
M  V30 1845 C 179.78 -1.13166 -2.04244 0
M  V30 1846 C 180.761 -0.032256 -1.70069 0
M  V30 1847 O 181.946 -0.207328 -1.9309 0
M  V30 1848 C 179.076 -0.781496 -3.38393 0
M  V30 1849 C 178.03 -1.83449 -3.86692 0
M  V30 1850 C 177.356 -1.33822 -5.17683 0
M  V30 1851 C 178.656 -3.23917 -4.09726 0
M  V30 1852 H 180.35 -2.06689 -2.1661 0
M  V30 1853 H 177.896 -0.995136 -1.04082 0
M  V30 1854 H 179.849 -0.667057 -4.16087 0
M  V30 1855 H 178.573 0.189439 -3.2605 0
M  V30 1856 H 177.232 -1.93789 -3.11193 0
M  V30 1857 H 176.88 -0.35665 -5.01734 0
M  V30 1858 H 176.58 -2.04224 -5.50968 0
M  V30 1859 H 178.104 -1.23679 -5.97943 0
M  V30 1860 H 179.518 -3.16559 -4.77978 0
M  V30 1861 H 177.915 -3.92059 -4.54324 0
M  V30 1862 H 178.985 -3.68729 -3.14908 0
M  V30 1863 N 180.328 1.1314 -1.09713 0
M  V30 1864 C 181.553 1.88862 -0.857081 0
M  V30 1865 C 181.978 1.78729 0.586304 0
M  V30 1866 O 181.336 1.13692 1.41222 0
M  V30 1867 C 181.384 3.36325 -1.30069 0
M  V30 1868 O 180.488 4.09815 -0.461007 0
M  V30 1869 H 179.829 0.587108 -0.310162 0
M  V30 1870 H 182.359 1.43129 -1.46203 0
M  V30 1871 H 182.369 3.87157 -1.28738 0
M  V30 1872 H 181.044 3.43017 -2.35185 0
M  V30 1873 H 179.621 3.68986 -0.538888 0
M  V30 1874 N 181.806 0.884767 1.30421 0
M  V30 1875 C 182.769 0.356277 2.26414 0
M  V30 1876 C 183.769 -0.501124 1.52792 0
M  V30 1877 O 184.959 -0.30831 1.7145 0
M  V30 1878 C 182.091 -0.492316 3.37326 0
M  V30 1879 H 183.284 1.20389 2.74675 0
M  V30 1880 H 180.837 0.661607 1.41607 0
M  V30 1881 H 181.572 -1.36052 2.94381 0
M  V30 1882 H 181.357 0.121832 3.91911 0
M  V30 1883 H 182.847 -0.853871 4.08777 0
M  V30 1884 N 183.284 -1.43765 0.645699 0
M  V30 1885 C 184.247 -2.29163 -0.0409488 0
M  V30 1886 C 185.247 -1.41813 -0.757996 0
M  V30 1887 O 186.437 -1.63527 -0.600382 0
M  V30 1888 C 183.569 -3.23716 -1.06869 0
M  V30 1889 H 184.762 -2.91366 0.710345 0
M  V30 1890 H 182.315 -1.5092 0.406547 0
M  V30 1891 H 183.05 -2.66393 -1.84947 0
M  V30 1892 H 182.835 -3.88105 -0.558277 0
M  V30 1893 H 184.325 -3.87831 -1.54845 0
M  V30 1894 N 184.763 -0.387143 -1.52771 0
M  V30 1895 C 185.988 0.198407 -2.06449 0
M  V30 1896 C 186.413 1.39918 -1.25716 0
M  V30 1897 O 185.771 1.79099 -0.281657 0
M  V30 1898 C 185.819 0.548893 -3.56398 0
M  V30 1899 O 184.923 1.64315 -3.78252 0
M  V30 1900 H 184.264 0.0237731 -0.663574 0
M  V30 1901 H 186.794 -0.553989 -1.96957 0
M  V30 1902 H 186.804 0.813812 -3.99801 0
M  V30 1903 H 185.479 -0.329005 -4.14597 0
M  V30 1904 H 184.056 1.37211 -3.46738 0
M  V30 1905 N 186.241 1.57166 -0.116904 0
M  V30 1906 C 187.466 1.999 0.55271 0
M  V30 1907 C 187.891 0.996039 1.59564 0
M  V30 1908 O 187.249 -0.032556 1.81271 0
M  V30 1909 C 187.297 3.4152 1.15742 0
M  V30 1910 O 186.401 3.44106 2.27299 0
M  V30 1911 H 185.742 0.649447 0.138258 0
M  V30 1912 H 188.272 2.03573 -0.204759 0
M  V30 1913 H 188.282 3.79684 1.49346 0
M  V30 1914 H 186.957 4.14034 0.393493 0
M  V30 1915 H 185.534 3.17759 1.9515 0
M  V30 1916 N 187.719 -0.156864 1.56817 0
M  V30 1917 C 188.652 -1.22316 1.9265 0
M  V30 1918 C 189.63 -1.42059 0.791076 0
M  V30 1919 O 190.814 -1.56831 1.04576 0
M  V30 1920 C 187.941 -2.58375 2.18998 0
M  V30 1921 C 186.987 -2.55284 3.41661 0
M  V30 1922 S 187.82 -2.02946 4.95553 0
M  V30 1923 C 188.976 -3.40753 5.25013 0
M  V30 1924 H 189.209 -0.917403 2.82791 0
M  V30 1925 H 186.742 -0.362059 1.50095 0
M  V30 1926 H 188.7 -3.36677 2.34859 0
M  V30 1927 H 187.361 -2.86145 1.29538 0
M  V30 1928 H 186.554 -3.55418 3.57343 0
M  V30 1929 H 186.156 -1.85086 3.24991 0
M  V30 1930 H 188.448 -4.36819 5.17876 0
M  V30 1931 H 189.391 -3.29933 6.26538 0
M  V30 1932 H 189.799 -3.37433 4.52548 0
M  V30 1933 N 189.197 -1.51736 -0.425897 0
M  V30 1934 C 190.474 -1.55519 -1.1863 0
M  V30 1935 C 190.854 -0.326219 -2.08564 0
M  V30 1936 O 190.202 0.688012 -2.17896 0
M  V30 1937 C 190.412 -2.87521 -1.9782 0
M  V30 1938 C 191.76 -3.39899 -2.54468 0
M  V30 1939 O 192.784 -2.89148 -2.08019 0
M  V30 1940 O 191.643 -4.2848 -3.39215 0
M  V30 1941 H 188.737 -0.625739 -0.540721 0
M  V30 1942 H 191.283 -1.64055 -0.434038 0
M  V30 1943 H 190.055 -3.68422 -1.31836 0
M  V30 1944 H 189.678 -2.822 -2.80088 0
M  V30 1945 N 190.675 0.682077 -1.42076 0
M  V30 1946 C 191.622 1.79578 -1.44984 0
M  V30 1947 C 192.592 1.6332 -0.302614 0
M  V30 1948 O 193.777 1.83978 -0.505633 0
M  V30 1949 C 190.917 3.1756 -1.35091 0
M  V30 1950 C 190.03 3.45156 -2.59791 0
M  V30 1951 C 189.165 4.72826 -2.42093 0
M  V30 1952 C 188.204 4.93433 -3.62202 0
M  V30 1953 N 187.341 6.12338 -3.43491 0
M  V30 1954 H 192.181 1.76427 -2.40161 0
M  V30 1955 H 189.718 0.861376 -1.19242 0
M  V30 1956 H 191.676 3.97287 -1.27354 0
M  V30 1957 H 190.306 3.19854 -0.435133 0
M  V30 1958 H 189.358 2.59736 -2.77923 0
M  V30 1959 H 190.67 3.5628 -3.49094 0
M  V30 1960 H 189.824 5.60631 -2.319 0
M  V30 1961 H 188.563 4.63973 -1.50268 0
M  V30 1962 H 187.568 4.04073 -3.72834 0
M  V30 1963 H 188.793 5.04136 -4.54998 0
M  V30 1964 H 186.739 6.04672 -2.54377 0
M  V30 1965 H 186.656 6.2429 -4.26377 0
M  V30 1966 H 187.924 7.02841 -3.37097 0
M  V30 1967 N 192.153 1.28127 0.917671 0
M  V30 1968 C 193.083 1.14248 2.03641 0
M  V30 1969 C 194.064 0.0412748 1.7005 0
M  V30 1970 O 195.249 0.217566 1.92977 0
M  V30 1971 C 192.379 0.799431 3.37974 0
M  V30 1972 C 191.333 1.85497 3.85713 0
M  V30 1973 C 190.659 1.36565 5.16966 0
M  V30 1974 C 191.959 3.26085 4.08002 0
M  V30 1975 H 193.653 2.07835 2.15511 0
M  V30 1976 H 191.199 1.00064 1.03553 0
M  V30 1977 H 193.152 0.689114 4.15727 0
M  V30 1978 H 191.876 -0.172145 3.26146 0
M  V30 1979 H 190.535 1.95437 3.10161 0
M  V30 1980 H 190.183 0.383253 5.01538 0
M  V30 1981 H 189.883 2.07143 5.49878 0
M  V30 1982 H 191.407 1.26848 5.97279 0
M  V30 1983 H 192.821 3.19089 4.76293 0
M  V30 1984 H 191.218 3.94462 4.52238 0
M  V30 1985 H 192.288 3.70394 3.12948 0
M  V30 1986 N 193.631 -1.12557 1.10312 0
M  V30 1987 C 194.877 -1.84311 0.846011 0
M  V30 1988 C 195.21 -1.83805 -0.626859 0
M  V30 1989 O 194.485 -1.28268 -1.46211 0
M  V30 1990 C 194.768 -3.32048 1.39341 0
M  V30 1991 C 194.621 -3.41016 2.93305 0
M  V30 1992 C 195.94 -4.27764 1.03468 0
M  V30 1993 H 193.059 -0.669192 0.30879 0
M  V30 1994 H 195.701 -1.32057 1.36605 0
M  V30 1995 H 193.851 -3.76678 0.951087 0
M  V30 1996 H 195.523 -3.05031 3.46055 0
M  V30 1997 H 193.766 -2.81603 3.29973 0
M  V30 1998 H 194.437 -4.44948 3.26689 0
M  V30 1999 H 196.913 -3.91253 1.41633 0
M  V30 2000 H 195.789 -5.29549 1.44463 0
M  V30 2001 H 196.05 -4.42064 -0.0560404 0
M  V30 2002 N 195.109 -0.891671 -1.2995 0
M  V30 2003 C 196.042 -0.307994 -2.26112 0
M  V30 2004 C 197.02 0.575262 -1.52084 0
M  V30 2005 O 198.204 0.523864 -1.81074 0
M  V30 2006 C 195.331 0.561734 -3.34009 0
M  V30 2007 C 194.377 -0.253107 -4.25748 0
M  V30 2008 S 195.21 -1.64572 -5.09584 0
M  V30 2009 C 196.366 -0.782699 -6.20987 0
M  V30 2010 H 196.599 -1.12309 -2.75271 0
M  V30 2011 H 194.132 -0.691509 -1.38049 0
M  V30 2012 H 196.09 1.05777 -3.96638 0
M  V30 2013 H 194.751 1.35099 -2.83561 0
M  V30 2014 H 193.944 0.410908 -5.02322 0
M  V30 2015 H 193.546 -0.682004 -3.67729 0
M  V30 2016 H 195.838 -0.00257476 -6.775 0
M  V30 2017 H 196.781 -1.52026 -6.91588 0
M  V30 2018 H 197.189 -0.340638 -5.63471 0
M  V30 2019 N 196.587 1.43421 -0.653314 0
M  V30 2020 C 197.534 2.30768 0.0382271 0
M  V30 2021 C 198.504 1.44755 0.814576 0
M  V30 2022 O 199.689 1.73624 0.791162 0
M  V30 2023 C 196.829 3.30336 0.998599 0
M  V30 2024 C 195.942 4.31448 0.218342 0
M  V30 2025 C 195.077 5.18098 1.17252 0
M  V30 2026 C 194.116 6.10902 0.382702 0
M  V30 2027 N 193.253 6.90176 1.28848 0
M  V30 2028 H 198.093 2.89357 -0.712511 0
M  V30 2029 H 195.63 1.42548 -0.363128 0
M  V30 2030 H 197.588 3.86572 1.56901 0
M  V30 2031 H 196.218 2.73397 1.71621 0
M  V30 2032 H 195.27 3.77506 -0.46836 0
M  V30 2033 H 196.582 4.97227 -0.395812 0
M  V30 2034 H 195.736 5.7896 1.81356 0
M  V30 2035 H 194.475 4.52444 1.82058 0
M  V30 2036 H 193.48 5.49128 -0.27169 0
M  V30 2037 H 194.705 6.78598 -0.260957 0
M  V30 2038 H 192.651 6.27171 1.92334 0
M  V30 2039 H 192.568 7.52478 0.728887 0
M  V30 2040 H 193.836 7.55543 1.91766 0
M  V30 2041 N 198.065 0.39524 1.52563 0
M  V30 2042 C 198.997 -0.472201 2.24283 0
M  V30 2043 C 200.01 -1.02178 1.26742 0
M  V30 2044 O 201.199 -0.923097 1.52778 0
M  V30 2045 C 198.299 -1.66775 2.95024 0
M  V30 2046 C 197.472 -1.2445 4.19322 0
M  V30 2047 C 196.531 -2.30539 4.7301 0
M  V30 2048 O 195.557 -1.91702 5.35947 0
M  V30 2049 N 196.759 -3.6253 4.53379 0
M  V30 2050 H 199.524 0.142282 2.99362 0
M  V30 2051 H 197.085 0.2219 1.60372 0
M  V30 2052 H 199.077 -2.37283 3.27839 0
M  V30 2053 H 197.647 -2.18845 2.23217 0
M  V30 2054 H 196.867 -0.368069 3.92478 0
M  V30 2055 H 198.155 -0.938457 5.0007 0
M  V30 2056 H 197.553 -3.96841 4.03154 0
M  V30 2057 H 196.11 -4.29055 4.90668 0
M  V30 2058 N 199.544 -1.57102 0.125237 0
M  V30 2059 C 200.474 -2.18659 -0.819174 0
M  V30 2060 C 201.455 -1.12843 -1.27281 0
M  V30 2061 O 202.64 -1.41104 -1.33429 0
M  V30 2062 C 199.77 -2.79096 -2.06695 0
M  V30 2063 C 198.724 -3.90548 -1.75088 0
M  V30 2064 C 198.05 -4.37821 -3.06948 0
M  V30 2065 C 199.35 -5.12356 -1.01435 0
M  V30 2066 H 201.044 -2.9783 -0.306202 0
M  V30 2067 H 198.59 -1.4326 -0.145839 0
M  V30 2068 H 200.543 -3.2082 -2.73226 0
M  V30 2069 H 199.267 -1.97223 -2.60328 0
M  V30 2070 H 197.926 -3.49409 -1.10944 0
M  V30 2071 H 197.574 -3.52799 -3.58527 0
M  V30 2072 H 197.274 -5.12982 -2.86571 0
M  V30 2073 H 198.798 -4.822 -3.74587 0
M  V30 2074 H 200.212 -5.5106 -1.58132 0
M  V30 2075 H 198.609 -5.9314 -0.911319 0
M  V30 2076 H 199.679 -4.849 -0.00218681 0
M  V30 2077 N 201.022 0.148545 -1.56898 0
M  V30 2078 C 202.269 0.861418 -1.83264 0
M  V30 2079 C 202.597 1.81239 -0.705883 0
M  V30 2080 O 201.852 1.93305 0.305212 0
M  V30 2081 C 202.151 1.67064 -3.1595 0
M  V30 2082 C 201.817 0.866591 -4.42494 0
M  V30 2083 C 200.479 0.644762 -4.76861 0
M  V30 2084 C 202.831 0.30418 -5.20312 0
M  V30 2085 C 200.159 -0.15021 -5.86508 0
M  V30 2086 C 202.511 -0.477824 -6.30793 0
M  V30 2087 C 201.175 -0.710244 -6.63711 0
M  V30 2088 H 200.445 0.315215 -0.670612 0
M  V30 2089 H 203.092 0.125142 -1.91091 0
M  V30 2090 H 201.397 2.47698 -3.03567 0
M  V30 2091 H 203.094 2.22566 -3.33565 0
M  V30 2092 H 199.684 1.04955 -4.15551 0
M  V30 2093 H 203.868 0.462844 -4.94137 0
M  V30 2094 H 199.124 -0.339796 -6.10455 0
M  V30 2095 H 203.298 -0.92076 -6.90286 0
M  V30 2096 H 200.925 -1.3281 -7.48509 0
M  V30 2097 N 202.5 1.5196 0.417844 0
M  V30 2098 C 203.41 1.77554 1.53336 0
M  V30 2099 C 204.426 0.660655 1.6097 0
M  V30 2100 O 205.602 0.945099 1.77848 0
M  V30 2101 C 202.667 1.91291 2.89152 0
M  V30 2102 C 201.728 3.15183 2.91475 0
M  V30 2103 C 200.961 3.28256 4.20813 0
M  V30 2104 O 201.184 2.46798 5.14244 0
M  V30 2105 O 200.118 4.21356 4.29817 0
M  V30 2106 H 203.944 2.7222 1.34647 0
M  V30 2107 H 201.529 1.36698 0.602828 0
M  V30 2108 H 203.411 2.02199 3.69721 0
M  V30 2109 H 202.086 0.998129 3.07927 0
M  V30 2110 H 200.993 3.09739 2.09791 0
M  V30 2111 H 202.326 4.06414 2.77648 0
M  V30 2112 N 203.978 -0.674533 1.42435 0
M  V30 2113 C 204.928 -1.7807 1.4239 0
M  V30 2114 C 205.912 -1.58169 0.295202 0
M  V30 2115 O 207.104 -1.68643 0.537449 0
M  V30 2116 C 204.233 -3.16532 1.32901 0
M  V30 2117 C 203.319 -3.42055 2.50717 0
M  V30 2118 N 203.71 -3.38162 3.76139 0
M  V30 2119 C 202.008 -3.72692 2.44983 0
M  V30 2120 C 202.709 -3.63177 4.54398 0
M  V30 2121 N 201.685 -3.83954 3.84812 0
M  V30 2122 H 205.487 -1.73454 2.37257 0
M  V30 2123 H 203.001 -0.875381 1.36788 0
M  V30 2124 H 204.998 -3.958 1.30951 0
M  V30 2125 H 203.658 -3.22345 0.390363 0
M  V30 2126 H 204.669 -3.18057 4.0873 0
M  V30 2127 H 201.346 -3.85749 1.59699 0
M  V30 2128 H 202.736 -3.66125 5.63384 0
M  V30 2129 N 205.456 -1.28612 -0.910864 0
M  V30 2130 C 206.872 -1.06381 -1.18976 0
M  V30 2131 C 207.072 0.191998 -2.00583 0
M  V30 2132 O 206.128 0.892869 -2.36187 0
M  V30 2133 C 207.441 -2.31295 -1.92154 0
M  V30 2134 C 208.989 -2.36503 -2.05025 0
M  V30 2135 C 209.464 -3.61191 -2.81612 0
M  V30 2136 N 210.955 -3.61847 -2.89172 0
M  V30 2137 C 211.69 -4.55004 -3.4894 0
M  V30 2138 N 211.186 -5.58482 -4.09963 0
M  V30 2139 N 212.979 -4.42594 -3.46506 0
M  V30 2140 H 205.13 -2.09221 -0.366094 0
M  V30 2141 H 207.393 -0.921003 -0.224629 0
M  V30 2142 H 207.099 -3.228 -1.39618 0
M  V30 2143 H 206.973 -2.37934 -2.9269 0
M  V30 2144 H 209.36 -1.45494 -2.5674 0
M  V30 2145 H 209.441 -2.33857 -1.03657 0
M  V30 2146 H 209.085 -4.52545 -2.30576 0
M  V30 2147 H 209.015 -3.61092 -3.83302 0
M  V30 2148 H 211.506 -2.87022 -2.45819 0
M  V30 2149 H 211.819 -6.25704 -4.53557 0
M  V30 2150 H 210.164 -5.62305 -4.08459 0
M  V30 2151 H 213.355 -3.60953 -2.98045 0
M  V30 2152 H 213.528 -5.15381 -3.92793 0
M  V30 2153 N 206.934 1.1197 -1.10907 0
M  V30 2154 C 208.182 1.83225 -0.852819 0
M  V30 2155 C 208.503 1.84769 0.623341 0
M  V30 2156 O 207.773 1.3143 1.45269 0
M  V30 2157 H 206.353 0.67849 -0.312507 0
M  V30 2158 H 209.015 1.3556 -1.40033 0
M  V30 2159 H 208.111 2.87265 -1.22005 0
M  V30 2160 N 208.412 0.89855 1.29475 0
M  V30 2161 C 209.342 0.39201 2.30186 0
M  V30 2162 C 210.323 -0.532359 1.61555 0
M  V30 2163 O 211.508 -0.443331 1.89072 0
M  V30 2164 C 208.638 -0.382353 3.45189 0
M  V30 2165 C 207.592 0.451483 4.25612 0
M  V30 2166 C 206.918 -0.450307 5.328 0
M  V30 2167 C 208.218 1.70079 4.93832 0
M  V30 2168 H 209.912 1.23362 2.72804 0
M  V30 2169 H 207.458 0.594638 1.31149 0
M  V30 2170 H 209.411 -0.747451 4.14718 0
M  V30 2171 H 208.135 -1.25774 3.01411 0
M  V30 2172 H 206.794 0.798897 3.57789 0
M  V30 2173 H 206.442 -1.32379 4.85268 0
M  V30 2174 H 206.142 0.103902 5.87508 0
M  V30 2175 H 207.666 -0.811623 6.05182 0
M  V30 2176 H 209.08 1.40549 5.55805 0
M  V30 2177 H 207.477 2.19623 5.58467 0
M  V30 2178 H 208.547 2.43744 4.19186 0
M  V30 2179 N 209.89 -1.43072 0.660911 0
M  V30 2180 C 211.301 -1.84932 0.256348 0
M  V30 2181 C 211.652 -1.55325 -1.19868 0
M  V30 2182 O 210.777 -1.00607 -1.91591 0
M  V30 2183 C 211.372 -3.35684 0.458475 0
M  V30 2184 C 209.931 -3.76245 0.108161 0
M  V30 2185 C 209.078 -2.66749 0.757641 0
M  V30 2186 H 212.029 -1.33116 0.864051 0
M  V30 2187 H 212.05 -3.79365 -0.293683 0
M  V30 2188 H 211.562 -3.572 1.51755 0
M  V30 2189 H 209.663 -3.60338 -0.948014 0
M  V30 2190 H 209.776 -4.76058 0.538992 0
M  V30 2191 H 208.14 -2.53989 0.190185 0
M  V30 2192 H 208.923 -2.91092 1.81989 0
M  V30 2193 N 211.368 -0.403325 -1.52352 0
M  V30 2194 C 212.3 0.4603 -2.2453 0
M  V30 2195 C 213.313 1.01505 -1.27282 0
M  V30 2196 O 214.502 0.914982 -1.53266 0
M  V30 2197 C 211.602 1.65208 -2.95905 0
M  V30 2198 C 210.775 1.22224 -4.19976 0
M  V30 2199 C 209.834 2.28028 -4.74226 0
M  V30 2200 O 208.86 1.88857 -5.36956 0
M  V30 2201 N 210.062 3.6012 -4.55295 0
M  V30 2202 H 212.827 -0.158156 -2.99282 0
M  V30 2203 H 210.388 -0.230402 -1.60252 0
M  V30 2204 H 212.38 2.35541 -3.29093 0
M  V30 2205 H 210.95 2.17658 -2.24374 0
M  V30 2206 H 210.17 0.34725 -3.92668 0
M  V30 2207 H 211.458 0.911924 -5.00561 0
M  V30 2208 H 210.856 3.94698 -4.05253 0
M  V30 2209 H 209.413 4.26447 -4.92936 0
M  V30 2210 N 212.846 1.57033 -0.133567 0
M  V30 2211 C 213.776 2.1909 0.807567 0
M  V30 2212 C 214.757 1.13517 1.26681 0
M  V30 2213 O 215.942 1.41809 1.32679 0
M  V30 2214 C 213.072 2.80188 2.05212 0
M  V30 2215 C 212.026 3.91471 1.73015 0
M  V30 2216 C 211.352 4.39443 3.04622 0
M  V30 2217 C 212.652 5.12886 0.987168 0
M  V30 2218 H 214.346 2.97988 0.290403 0
M  V30 2219 H 211.892 1.43335 0.138239 0
M  V30 2220 H 213.845 3.22264 2.71521 0
M  V30 2221 H 212.569 1.98601 2.59278 0
M  V30 2222 H 211.228 3.49993 1.0909 0
M  V30 2223 H 210.876 3.54695 3.56651 0
M  V30 2224 H 210.576 5.14495 2.83847 0
M  V30 2225 H 212.1 4.8418 3.72024 0
M  V30 2226 H 213.514 5.51891 1.55208 0
M  V30 2227 H 211.911 5.93615 0.87985 0
M  V30 2228 H 212.981 4.84894 -0.0235286 0
M  V30 2229 N 214.325 -0.140222 1.56975 0
M  V30 2230 C 215.736 -0.699596 1.73097 0
M  V30 2231 C 216.087 -1.8134 0.749022 0
M  V30 2232 O 215.212 -2.16241 -0.0828503 0
M  V30 2233 C 215.807 -1.27582 3.1386 0
M  V30 2234 C 214.366 -1.78169 3.31561 0
M  V30 2235 C 213.513 -0.672855 2.69013 0
M  V30 2236 H 216.464 0.0855115 1.58469 0
M  V30 2237 H 216.485 -2.14561 3.14235 0
M  V30 2238 H 215.997 -0.464955 3.85305 0
M  V30 2239 H 214.098 -2.61801 2.65124 0
M  V30 2240 H 214.211 -1.90574 4.39566 0
M  V30 2241 H 212.575 -1.10118 2.29665 0
M  V30 2242 H 213.358 0.126679 3.43066 0
M  V30 2243 N 215.803 -1.52179 -0.40978 0
M  V30 2244 C 217.033 -1.69807 -1.17682 0
M  V30 2245 C 217.441 -0.406908 -1.84773 0
M  V30 2246 O 216.784 0.626863 -1.72673 0
M  V30 2247 C 216.846 -2.77712 -2.2829 0
M  V30 2248 C 216.51 -4.19481 -1.81341 0
M  V30 2249 C 217.507 -5.03345 -1.30154 0
M  V30 2250 C 215.192 -4.65713 -1.88194 0
M  V30 2251 C 217.186 -6.31511 -0.864416 0
M  V30 2252 C 214.873 -5.93869 -1.44093 0
M  V30 2253 C 215.871 -6.76597 -0.933023 0
M  V30 2254 O 215.559 -8.02354 -0.49838 0
M  V30 2255 H 215.291 -0.572372 -0.359675 0
M  V30 2256 H 217.845 -1.99511 -0.488311 0
M  V30 2257 H 216.075 -2.43383 -3.00502 0
M  V30 2258 H 217.764 -2.83946 -2.90051 0
M  V30 2259 H 218.53 -4.68819 -1.24232 0
M  V30 2260 H 214.409 -4.01424 -2.26671 0
M  V30 2261 H 217.953 -6.96033 -0.467286 0
M  V30 2262 H 213.85 -6.27903 -1.49694 0
M  V30 2263 H 214.618 -8.16135 -0.621747 0
M  V30 2264 N 217.281 0.66697 -1.42791 0
M  V30 2265 C 218.53 1.42278 -1.42968 0
M  V30 2266 C 218.843 1.9553 -0.0524489 0
M  V30 2267 O 220.049 2.71414 0.068363 0
M  V30 2268 C 218.505 2.57418 -2.51524 0
M  V30 2269 C 218.113 2.10832 -3.9529 0
M  V30 2270 C 219.857 3.34878 -2.60877 0
M  V30 2271 C 217.764 3.23101 -4.95338 0
M  V30 2272 H 216.694 0.534533 -0.531781 0
M  V30 2273 H 219.345 0.721302 -1.68729 0
M  V30 2274 H 217.727 3.29971 -2.18941 0
M  V30 2275 H 218.901 1.4538 -4.37266 0
M  V30 2276 H 217.216 1.46289 -3.89857 0
M  V30 2277 H 219.813 4.18505 -3.32802 0
M  V30 2278 H 220.156 3.81993 -1.6549 0
M  V30 2279 H 220.689 2.69398 -2.92693 0
M  V30 2280 H 217.428 2.80969 -5.9223 0
M  V30 2281 H 216.948 3.87309 -4.57987 0
M  V30 2282 H 218.627 3.88447 -5.17415 0
M  V30 2283 N 218.759 1.29093 0.90403 0
M  V30 2284 C 219.984 1.19809 1.69294 0
M  V30 2285 C 220.409 -0.238481 1.86582 0
M  V30 2286 O 219.767 -1.1723 1.383 0
M  V30 2287 C 219.815 1.91202 3.05736 0
M  V30 2288 O 218.919 1.22611 3.93752 0
M  V30 2289 H 218.26 0.415385 0.518027 0
M  V30 2290 H 220.79 1.70586 1.12967 0
M  V30 2291 H 220.8 1.99487 3.55906 0
M  V30 2292 H 219.475 2.95692 2.92471 0
M  V30 2293 H 218.052 1.22554 3.52186 0
M  V30 2294 N 220.237 -1.11381 1.11499 0
M  V30 2295 C 221.484 -1.83132 0.864231 0
M  V30 2296 C 221.812 -1.84683 -0.610114 0
M  V30 2297 O 221.067 -1.29589 -1.46646 0
M  V30 2298 C 221.366 -3.30026 1.37177 0
M  V30 2299 C 221.032 -3.48634 2.85946 0
M  V30 2300 C 219.694 -3.53421 3.26569 0
M  V30 2301 C 222.046 -3.54837 3.81759 0
M  V30 2302 C 219.374 -3.61967 4.61733 0
M  V30 2303 C 221.726 -3.64915 5.1674 0
M  V30 2304 C 220.39 -3.67962 5.5692 0
M  V30 2305 H 219.66 -0.670127 0.316245 0
M  V30 2306 H 222.307 -1.31354 1.3935 0
M  V30 2307 H 220.612 -3.84304 0.762753 0
M  V30 2308 H 222.309 -3.84034 1.15408 0
M  V30 2309 H 218.899 -3.45579 2.53521 0
M  V30 2310 H 223.083 -3.50399 3.51474 0
M  V30 2311 H 218.339 -3.62603 4.92269 0
M  V30 2312 H 222.513 -3.68658 5.90816 0
M  V30 2313 H 220.14 -3.74336 6.61647 0
M  V30 2314 N 221.715 -0.905404 -1.28997 0
M  V30 2315 C 222.645 -0.404212 -2.29975 0
M  V30 2316 C 223.626 0.523784 -1.61835 0
M  V30 2317 O 224.811 0.433298 -1.89304 0
M  V30 2318 C 221.941 0.364042 -3.45387 0
M  V30 2319 C 220.895 -0.474048 -4.25367 0
M  V30 2320 C 220.221 0.422045 -5.33032 0
M  V30 2321 C 221.521 -1.72696 -4.92923 0
M  V30 2322 H 223.215 -1.24807 -2.72146 0
M  V30 2323 H 220.761 -0.601585 -1.30832 0
M  V30 2324 H 222.714 0.725447 -4.15109 0
M  V30 2325 H 221.438 1.24174 -3.02074 0
M  V30 2326 H 220.097 -0.81786 -3.57361 0
M  V30 2327 H 219.745 1.29804 -4.85963 0
M  V30 2328 H 219.445 -0.135057 -5.87445 0
M  V30 2329 H 220.969 0.779517 -6.05604 0
M  V30 2330 H 222.383 -1.43495 -5.55051 0
M  V30 2331 H 220.78 -2.22582 -5.57295 0
M  V30 2332 H 221.85 -2.45964 -4.17887 0
M  V30 2333 N 223.193 1.4272 -0.668489 0
M  V30 2334 C 224.609 1.55992 -0.33745 0
M  V30 2335 C 224.809 1.64933 1.15756 0
M  V30 2336 O 223.865 1.61278 1.94282 0
M  V30 2337 C 225.178 2.81314 -1.06222 0
M  V30 2338 C 226.726 2.95078 -1.04394 0
M  V30 2339 C 227.201 4.23252 -1.74991 0
M  V30 2340 N 228.692 4.3015 -1.71829 0
M  V30 2341 C 229.427 5.28127 -2.23315 0
M  V30 2342 N 228.923 6.32293 -2.83156 0
M  V30 2343 N 230.716 5.19882 -2.13726 0
M  V30 2344 H 222.867 1.3516 -1.63846 0
M  V30 2345 H 225.13 0.650174 -0.689912 0
M  V30 2346 H 224.836 2.80823 -2.11734 0
M  V30 2347 H 224.71 3.72012 -0.62344 0
M  V30 2348 H 227.097 2.951 0.0028244 0
M  V30 2349 H 227.178 2.05627 -1.52155 0
M  V30 2350 H 226.822 4.2399 -2.79633 0
M  V30 2351 H 226.752 5.11626 -1.24685 0
M  V30 2352 H 229.243 3.55499 -1.28175 0
M  V30 2353 H 229.556 7.03398 -3.20079 0
M  V30 2354 H 227.901 6.32873 -2.87223 0
M  V30 2355 H 231.092 4.37423 -1.66669 0
M  V30 2356 H 231.265 5.96077 -2.54158 0
M  V30 2357 N 224.671 0.411399 1.52136 0
M  V30 2358 C 225.896 -0.165538 2.06738 0
M  V30 2359 C 226.321 -1.379 1.27926 0
M  V30 2360 O 225.679 -1.78628 0.310114 0
M  V30 2361 C 225.727 -0.492124 3.57226 0
M  V30 2362 O 224.831 -1.58276 3.80818 0
M  V30 2363 H 224.172 -0.0132132 0.663869 0
M  V30 2364 H 226.702 0.585253 1.96051 0
M  V30 2365 H 226.712 -0.750104 4.01045 0
M  V30 2366 H 225.387 0.394922 4.14021 0
M  V30 2367 H 223.964 -1.31677 3.48877 0
M  V30 2368 N 226.149 -1.5696 0.141893 0
M  V30 2369 C 227.059 -2.20066 -0.812905 0
M  V30 2370 C 228.075 -1.18344 -1.27557 0
M  V30 2371 O 229.251 -1.50902 -1.33381 0
M  V30 2372 C 226.316 -2.80583 -2.03652 0
M  V30 2373 C 225.377 -3.97414 -1.62359 0
M  V30 2374 C 224.61 -4.55036 -2.78887 0
M  V30 2375 O 224.833 -4.11538 -3.94959 0
M  V30 2376 O 223.767 -5.45376 -2.54653 0
M  V30 2377 H 227.593 -3.02157 -0.305746 0
M  V30 2378 H 225.178 -1.49159 -0.0848799 0
M  V30 2379 H 227.06 -3.19067 -2.75272 0
M  V30 2380 H 225.735 -2.01508 -2.5333 0
M  V30 2381 H 224.642 -3.63656 -0.877775 0
M  V30 2382 H 225.975 -4.77994 -1.17401 0
M  V30 2383 N 227.627 0.131896 -1.57047 0
M  V30 2384 C 228.857 0.855219 -1.88068 0
M  V30 2385 C 229.265 1.74557 -0.729817 0
M  V30 2386 O 228.608 1.81083 0.308962 0
M  V30 2387 C 228.67 1.75119 -3.13964 0
M  V30 2388 C 228.334 1.03646 -4.45091 0
M  V30 2389 C 229.331 0.383276 -5.18485 0
M  V30 2390 C 227.016 1.02148 -4.91804 0
M  V30 2391 C 229.01 -0.275347 -6.36805 0
M  V30 2392 C 226.697 0.359047 -6.10044 0
M  V30 2393 C 227.695 -0.288222 -6.82392 0
M  V30 2394 O 227.383 -0.94011 -7.98384 0
M  V30 2395 H 227.115 0.251864 -0.627328 0
M  V30 2396 H 229.669 0.124782 -2.05021 0
M  V30 2397 H 227.899 2.52295 -2.9306 0
M  V30 2398 H 229.588 2.3478 -3.31109 0
M  V30 2399 H 230.354 0.386562 -4.83457 0
M  V30 2400 H 226.233 1.5147 -4.35405 0
M  V30 2401 H 229.777 -0.781148 -6.93213 0
M  V30 2402 H 225.674 0.35348 -6.44531 0
M  V30 2403 H 226.442 -0.84329 -8.14144 0
M  V30 2404 N 229.106 1.52395 0.401703 0
M  V30 2405 C 230.016 1.7917 1.51444 0
M  V30 2406 C 231.032 0.677691 1.6026 0
M  V30 2407 O 232.208 0.963909 1.76835 0
M  V30 2408 C 229.273 1.94347 2.87107 0
M  V30 2409 C 228.334 3.18257 2.88116 0
M  V30 2410 C 227.567 3.32701 4.17308 0
M  V30 2411 O 227.79 2.52238 5.11598 0
M  V30 2412 O 226.724 4.25891 4.25324 0
M  V30 2413 H 230.55 2.73633 1.31752 0
M  V30 2414 H 228.135 1.3733 0.588296 0
M  V30 2415 H 230.017 2.06109 3.67555 0
M  V30 2416 H 228.692 1.03073 3.06851 0
M  V30 2417 H 227.599 3.11947 2.06494 0
M  V30 2418 H 228.932 4.09336 2.73322 0
M  V30 2419 N 230.584 -0.659388 1.43143 0
M  V30 2420 C 231.531 -1.77249 1.47822 0
M  V30 2421 C 232.501 -1.62818 0.328558 0
M  V30 2422 O 233.686 -1.83151 0.534838 0
M  V30 2423 C 230.826 -3.15371 1.40126 0
M  V30 2424 C 229.939 -3.4098 2.65249 0
M  V30 2425 C 229.074 -4.68915 2.49584 0
M  V30 2426 C 228.113 -4.87608 3.70006 0
M  V30 2427 N 227.25 -6.06796 3.53189 0
M  V30 2428 H 232.09 -1.72584 2.42938 0
M  V30 2429 H 229.627 -0.842297 1.20598 0
M  V30 2430 H 231.585 -3.9521 1.33659 0
M  V30 2431 H 230.215 -3.19121 0.485964 0
M  V30 2432 H 229.267 -2.55282 2.8202 0
M  V30 2433 H 230.579 -3.50681 3.54717 0
M  V30 2434 H 229.733 -5.56871 2.4079 0
M  V30 2435 H 228.472 -4.61524 1.5763 0
M  V30 2436 H 227.477 -3.9809 3.79215 0
M  V30 2437 H 228.702 -4.96834 4.62961 0
M  V30 2438 H 226.648 -6.00549 2.63965 0
M  V30 2439 H 226.565 -6.17428 4.36255 0
M  V30 2440 H 227.833 -6.9739 3.48236 0
M  V30 2441 N 232.062 -1.29571 -0.897171 0
M  V30 2442 C 233.292 -1.20408 -1.67886 0
M  V30 2443 C 233.7 0.237429 -1.87704 0
M  V30 2444 O 233.043 1.17048 -1.41582 0
M  V30 2445 C 233.105 -1.84887 -3.08314 0
M  V30 2446 C 232.769 -3.34189 -3.11716 0
M  V30 2447 C 233.766 -4.30374 -2.91675 0
M  V30 2448 C 231.451 -3.75431 -3.33701 0
M  V30 2449 C 233.445 -5.65776 -2.93557 0
M  V30 2450 C 231.132 -5.10955 -3.35214 0
M  V30 2451 C 232.13 -6.05938 -3.15164 0
M  V30 2452 O 231.818 -7.38987 -3.1647 0
M  V30 2453 H 231.55 -0.418289 -0.531046 0
M  V30 2454 H 234.104 -1.71514 -1.13014 0
M  V30 2455 H 232.334 -1.28295 -3.64798 0
M  V30 2456 H 234.023 -1.70011 -3.6858 0
M  V30 2457 H 234.789 -3.99844 -2.74499 0
M  V30 2458 H 230.668 -3.01953 -3.48347 0
M  V30 2459 H 234.212 -6.39889 -2.77826 0
M  V30 2460 H 230.109 -5.4113 -3.51922 0
M  V30 2461 H 230.877 -7.47823 -3.3272 0
M  V30 2462 N 233.54 1.10788 -1.12088 0
M  V30 2463 C 234.45 2.20599 -0.798338 0
M  V30 2464 C 235.466 1.72712 0.21135 0
M  V30 2465 O 236.642 2.01348 0.0458477 0
M  V30 2466 C 233.707 3.45771 -0.253674 0
M  V30 2467 C 232.768 4.08411 -1.32283 0
M  V30 2468 C 232.001 5.27608 -0.80406 0
M  V30 2469 O 232.224 5.69241 0.363478 0
M  V30 2470 O 231.158 5.8101 -1.57198 0
M  V30 2471 H 234.984 2.50614 -1.7154 0
M  V30 2472 H 232.569 1.19454 -0.897275 0
M  V30 2473 H 234.451 4.21376 0.0453691 0
M  V30 2474 H 233.126 3.1739 0.636005 0
M  V30 2475 H 232.033 3.34507 -1.67499 0
M  V30 2476 H 233.366 4.40986 -2.18614 0
M  V30 2477 N 235.018 0.912232 1.28515 0
M  V30 2478 C 235.968 0.370649 2.24967 0
M  V30 2479 C 236.952 -0.516375 1.52389 0
M  V30 2480 O 238.144 -0.356345 1.73376 0
M  V30 2481 C 235.273 -0.389526 3.41083 0
M  V30 2482 C 234.359 0.51313 4.20984 0
M  V30 2483 N 234.75 1.62604 4.78951 0
M  V30 2484 C 233.048 0.313235 4.44899 0
M  V30 2485 C 233.749 2.18619 5.39055 0
M  V30 2486 N 232.725 1.47765 5.23132 0
M  V30 2487 H 236.527 1.22061 2.67354 0
M  V30 2488 H 234.041 0.764712 1.43269 0
M  V30 2489 H 236.038 -0.794353 4.09262 0
M  V30 2490 H 234.698 -1.2366 3.0023 0
M  V30 2491 H 235.709 2.00864 4.77362 0
M  V30 2492 H 232.386 -0.494452 4.14562 0
M  V30 2493 H 233.776 3.12228 5.94948 0
M  V30 2494 N 236.496 -1.42363 0.676048 0
M  V30 2495 C 237.444 -2.32596 -0.0131507 0
M  V30 2496 C 238.438 -1.49891 -0.789238 0
M  V30 2497 O 239.644 -1.65955 -0.697061 0
M  V30 2498 H 236.019 -0.751647 -0.0230481 0
M  V30 2499 H 237.99 -2.88421 0.765243 0
M  V30 2500 C 236.739 -3.34479 -0.949702 0
M  V30 2501 H 236.062 -3.98158 -0.361938 0
M  V30 2502 H 237.502 -4.00199 -1.4006 0
M  V30 2503 C 235.961 -2.66838 -2.05667 0
M  V30 2504 O 236.491 -2.50124 -3.14326 0
M  V30 2505 N 234.697 -2.25843 -1.82875 0
M  V30 2506 H 234.244 -2.39637 -0.945085 0
M  V30 2507 H 234.202 -1.80918 -2.5713 0
M  V30 2508 N 237.974 -0.419461 -1.51915 0
M  V30 2509 C 239.223 0.154346 -2.01109 0
M  V30 2510 C 239.536 1.45338 -1.30905 0
M  V30 2511 O 240.742 2.10906 -1.7097 0
M  V30 2512 C 239.198 0.325615 -3.58424 0
M  V30 2513 C 238.806 -0.961934 -4.37551 0
M  V30 2514 C 240.55 0.854155 -4.15818 0
M  V30 2515 C 238.457 -0.757287 -5.86531 0
M  V30 2516 H 237.387 0.0614563 -0.751491 0
M  V30 2517 H 240.038 -0.54649 -1.75173 0
M  V30 2518 H 238.42 1.08903 -3.80731 0
M  V30 2519 H 239.594 -1.7323 -4.26999 0
M  V30 2520 H 237.909 -1.41766 -3.91524 0
M  V30 2521 H 240.506 1.02346 -5.24814 0
M  V30 2522 H 240.849 1.83172 -3.73837 0
M  V30 2523 H 241.382 0.149528 -3.97519 0
M  V30 2524 H 238.121 -1.70671 -6.32892 0
M  V30 2525 H 237.641 -0.0264061 -5.99794 0
M  V30 2526 H 239.32 -0.403482 -6.45741 0
M  V30 2527 N 239.452 1.56882 -0.150215 0
M  V30 2528 C 240.382 2.19935 0.784284 0
M  V30 2529 C 241.363 1.14854 1.25469 0
M  V30 2530 O 242.548 1.43209 1.31168 0
M  V30 2531 C 239.678 2.82349 2.02229 0
M  V30 2532 C 238.632 3.93285 1.68853 0
M  V30 2533 C 237.958 4.42649 2.99944 0
M  V30 2534 C 239.258 5.13904 0.932714 0
M  V30 2535 H 240.952 2.9828 0.258781 0
M  V30 2536 H 238.498 1.43473 0.123029 0
M  V30 2537 H 240.451 3.25126 2.68088 0
M  V30 2538 H 239.175 2.0134 2.57157 0
M  V30 2539 H 237.834 3.5113 1.05371 0
M  V30 2540 H 237.482 3.58458 3.52869 0
M  V30 2541 H 237.182 5.17476 2.78374 0
M  V30 2542 H 238.706 4.88099 3.66868 0
M  V30 2543 H 240.12 5.53506 1.49345 0
M  V30 2544 H 238.517 5.94515 0.81684 0
M  V30 2545 H 239.587 4.84842 -0.0749568 0
M  V30 2546 N 240.93 -0.123565 1.57115 0
M  V30 2547 C 241.877 -1.15177 2.00007 0
M  V30 2548 C 242.847 -1.41403 0.871454 0
M  V30 2549 O 244.032 -1.53346 1.13533 0
M  V30 2550 C 241.172 -2.47436 2.40561 0
M  V30 2551 C 240.285 -2.28184 3.66819 0
M  V30 2552 C 239.42 -3.53641 3.96373 0
M  V30 2553 C 238.459 -3.29528 5.15827 0
M  V30 2554 N 237.596 -4.47175 5.41275 0
M  V30 2555 H 242.436 -0.779008 2.87638 0
M  V30 2556 H 239.973 -0.373166 1.42288 0
M  V30 2557 H 241.931 -3.24584 2.62109 0
M  V30 2558 H 240.561 -2.82614 1.55978 0
M  V30 2559 H 239.613 -1.41976 3.52912 0
M  V30 2560 H 240.925 -2.0634 4.5412 0
M  V30 2561 H 240.079 -4.39209 4.18545 0
M  V30 2562 H 238.818 -3.78512 3.07538 0
M  V30 2563 H 237.823 -2.42349 4.93505 0
M  V30 2564 H 239.048 -3.06031 6.06236 0
M  V30 2565 H 236.994 -4.72175 4.55397 0
M  V30 2566 H 236.911 -4.28419 6.22891 0
M  V30 2567 H 238.179 -5.3389 5.67963 0
M  V30 2568 N 242.408 -1.52605 -0.393616 0
M  V30 2569 C 243.338 -1.80022 -1.48709 0
M  V30 2570 C 244.319 -0.651995 -1.57108 0
M  V30 2571 O 245.504 -0.89913 -1.72132 0
M  V30 2572 C 242.634 -1.96492 -2.86371 0
M  V30 2573 C 241.588 -3.12161 -2.92813 0
M  V30 2574 C 240.914 -3.13877 -4.3288 0
M  V30 2575 C 242.214 -4.51322 -2.6288 0
M  V30 2576 H 243.908 -2.71589 -1.26015 0
M  V30 2577 H 241.454 -1.30684 -0.604778 0
M  V30 2578 H 243.407 -2.14255 -3.62867 0
M  V30 2579 H 242.131 -1.01611 -3.10391 0
M  V30 2580 H 240.79 -2.94173 -2.18764 0
M  V30 2581 H 240.438 -2.16687 -4.53933 0
M  V30 2582 H 240.138 -3.91576 -4.38112 0
M  V30 2583 H 241.662 -3.33789 -5.1129 0
M  V30 2584 H 243.076 -4.69435 -3.29096 0
M  V30 2585 H 241.473 -5.31053 -2.79468 0
M  V30 2586 H 242.543 -4.58353 -1.58242 0
M  V30 2587 N 243.887 0.651787 -1.4349 0
M  V30 2588 C 245.133 1.41376 -1.45398 0
M  V30 2589 C 245.466 1.94041 -0.0784823 0
M  V30 2590 O 244.741 1.72379 0.900878 0
M  V30 2591 C 245.024 2.59414 -2.49752 0
M  V30 2592 C 244.877 2.12232 -3.96582 0
M  V30 2593 C 246.196 3.61626 -2.50827 0
M  V30 2594 H 243.315 0.512719 -0.529422 0
M  V30 2595 H 245.957 0.738796 -1.75048 0
M  V30 2596 H 244.107 3.16997 -2.246 0
M  V30 2597 H 245.779 1.59639 -4.32797 0
M  V30 2598 H 244.022 1.43592 -4.09346 0
M  V30 2599 H 244.693 2.9712 -4.65214 0
M  V30 2600 H 247.169 3.13805 -2.7325 0
M  V30 2601 H 246.045 4.41766 -3.25783 0
M  V30 2602 H 246.306 4.14314 -1.5426 0
M  V30 2603 N 245.365 1.30045 0.890287 0
M  V30 2604 C 246.313 1.15873 2.01683 0
M  V30 2605 C 247.307 0.0719403 1.69247 0
M  V30 2606 O 248.513 0.232414 1.78493 0
M  V30 2607 H 244.888 0.358203 0.661207 0
M  V30 2608 H 246.859 2.11229 2.10772 0
M  V30 2609 C 245.608 0.861842 3.36849 0
M  V30 2610 H 244.931 1.69016 3.62317 0
M  V30 2611 H 246.371 0.802762 4.16331 0
M  V30 2612 C 244.83 -0.435132 3.34078 0
M  V30 2613 O 245.36 -1.4583 3.74295 0
M  V30 2614 N 243.566 -0.444377 2.87182 0
M  V30 2615 H 243.113 0.388723 2.5465 0
M  V30 2616 H 243.071 -1.31213 2.85711 0
M  V30 2617 N 246.843 -1.10192 1.12674 0
M  V30 2618 C 248.12 -1.78717 0.794965 0
M  V30 2619 C 248.5 -1.98628 -0.714853 0
M  V30 2620 O 247.848 -1.58135 -1.64941 0
M  V30 2621 C 248.058 -3.11546 1.5729 0
M  V30 2622 C 249.406 -3.86382 1.76052 0
M  V30 2623 O 250.43 -3.21274 1.53823 0
M  V30 2624 O 249.289 -5.03246 2.13087 0
M  V30 2625 H 246.383 -0.774702 0.289423 0
M  V30 2626 H 248.929 -1.16819 1.23091 0
M  V30 2627 H 247.701 -2.92489 2.59935 0
M  V30 2628 H 247.324 -3.81164 1.13137 0
M  V30 2629 N 248.321 -0.919034 -1.28029 0
M  V30 2630 C 249.268 -0.410005 -2.27129 0
M  V30 2631 C 250.238 0.518405 -1.57803 0
M  V30 2632 O 251.423 0.439451 -1.8567 0
M  V30 2633 C 248.563 0.339054 -3.4343 0
M  V30 2634 C 247.676 -0.622468 -4.27492 0
M  V30 2635 C 246.811 0.145567 -5.31001 0
M  V30 2636 C 245.85 -0.809226 -6.06727 0
M  V30 2637 N 244.987 -0.0743728 -7.02061 0
M  V30 2638 H 249.827 -1.26011 -2.70047 0
M  V30 2639 H 247.364 -0.632663 -1.328 0
M  V30 2640 H 249.322 0.789586 -4.0966 0
M  V30 2641 H 247.952 1.15346 -3.01488 0
M  V30 2642 H 247.004 -1.19153 -3.61257 0
M  V30 2643 H 248.316 -1.35252 -4.80113 0
M  V30 2644 H 247.47 0.656417 -6.03139 0
M  V30 2645 H 246.209 0.908643 -4.79161 0
M  V30 2646 H 245.214 -1.3314 -5.33436 0
M  V30 2647 H 246.439 -1.57194 -6.60656 0
M  V30 2648 H 244.385 0.670616 -6.52563 0
M  V30 2649 H 244.302 -0.744157 -7.52329 0
M  V30 2650 H 245.57 0.416109 -7.78389 0
M  V30 2651 N 249.799 1.42003 -0.683588 0
M  V30 2652 C 250.729 2.33487 -0.024866 0
M  V30 2653 C 251.71 1.51163 0.779975 0
M  V30 2654 O 252.895 1.79739 0.735362 0
M  V30 2655 C 250.025 3.3487 0.920836 0
M  V30 2656 C 248.979 4.27414 0.223958 0
M  V30 2657 C 248.305 5.19074 1.2832 0
M  V30 2658 C 249.605 5.14445 -0.90242 0
M  V30 2659 H 251.299 2.88819 -0.788921 0
M  V30 2660 H 248.845 1.38873 -0.38083 0
M  V30 2661 H 250.798 3.97787 1.39081 0
M  V30 2662 H 249.522 2.77861 1.71642 0
M  V30 2663 H 248.181 3.65904 -0.225864 0
M  V30 2664 H 247.829 4.58387 2.071 0
M  V30 2665 H 247.529 5.81822 0.821995 0
M  V30 2666 H 249.053 5.84867 1.75392 0
M  V30 2667 H 250.467 5.70998 -0.513272 0
M  V30 2668 H 248.864 5.86072 -1.28997 0
M  V30 2669 H 249.934 4.52322 -1.74737 0
M  V30 2670 N 251.277 0.427512 1.51691 0
M  V30 2671 C 252.225 -0.403359 2.29076 0
M  V30 2672 C 253.219 -1.02962 1.34518 0
M  V30 2673 O 254.425 -0.965715 1.51901 0
M  V30 2674 H 250.8 -0.148879 0.737115 0
M  V30 2675 H 252.771 0.270295 2.97173 0
M  V30 2676 C 251.52 -1.49763 3.13794 0
M  V30 2677 H 250.843 -1.02508 3.86435 0
M  V30 2678 H 252.283 -2.05244 3.71014 0
M  V30 2679 C 250.742 -2.47536 2.28533 0
M  V30 2680 O 251.272 -3.51848 1.93819 0
M  V30 2681 N 249.478 -2.18187 1.91945 0
M  V30 2682 H 249.025 -1.33389 2.20375 0
M  V30 2683 H 248.983 -2.83848 1.35195 0
M  V30 2684 N 252.755 -1.56801 0.158532 0
M  V30 2685 C 253.985 -2.00568 -0.495583 0
M  V30 2686 C 254.393 -1.03774 -1.58201 0
M  V30 2687 O 253.736 -0.0285797 -1.83678 0
M  V30 2688 C 253.798 -3.40768 -1.14532 0
M  V30 2689 C 253.462 -4.56553 -0.202101 0
M  V30 2690 C 254.459 -5.16714 0.574675 0
M  V30 2691 C 252.144 -5.02197 -0.101648 0
M  V30 2692 C 254.138 -6.20939 1.43924 0
M  V30 2693 C 251.825 -6.06274 0.766508 0
M  V30 2694 C 252.823 -6.65515 1.53555 0
M  V30 2695 O 252.511 -7.67575 2.38922 0
M  V30 2696 H 252.243 -0.662893 -0.13247 0
M  V30 2697 H 254.797 -2.03829 0.253559 0
M  V30 2698 H 253.027 -3.34381 -1.94233 0
M  V30 2699 H 254.716 -3.6857 -1.70033 0
M  V30 2700 H 255.482 -4.82341 0.507167 0
M  V30 2701 H 251.361 -4.55807 -0.689994 0
M  V30 2702 H 254.905 -6.67107 2.03996 0
M  V30 2703 H 250.802 -6.40073 0.835266 0
M  V30 2704 H 251.57 -7.84844 2.32296 0
M  V30 2705 N 254.233 0.115231 -1.57178 0
M  V30 2706 C 255.644 0.67197 -1.74188 0
M  V30 2707 C 255.995 1.80125 -0.777777 0
M  V30 2708 O 255.12 2.16346 0.0484376 0
M  V30 2709 C 255.715 1.22573 -3.1585 0
M  V30 2710 C 254.274 1.72872 -3.34353 0
M  V30 2711 C 253.421 0.629972 -2.70049 0
M  V30 2712 H 256.372 -0.110712 -1.58313 0
M  V30 2713 H 256.393 2.09535 -3.17609 0
M  V30 2714 H 255.905 0.403598 -3.85996 0
M  V30 2715 H 254.006 2.5755 -2.69256 0
M  V30 2716 H 254.119 1.83557 -4.42542 0
M  V30 2717 H 252.483 1.0645 -2.31388 0
M  V30 2718 H 253.266 -0.181241 -3.42821 0
M  V30 2719 N 255.711 1.52812 0.385517 0
M  V30 2720 C 256.957 1.68275 1.13188 0
M  V30 2721 C 257.29 0.423179 1.89533 0
M  V30 2722 O 256.565 -0.579113 1.85679 0
M  V30 2723 C 256.848 2.92001 2.1073 0
M  V30 2724 C 256.701 4.28067 1.38125 0
M  V30 2725 C 258.02 3.11283 3.11113 0
M  V30 2726 H 255.139 0.612352 0.410115 0
M  V30 2727 H 257.781 1.85415 0.414869 0
M  V30 2728 H 255.931 2.77519 2.71874 0
M  V30 2729 H 257.603 4.54324 0.799187 0
M  V30 2730 H 255.846 4.28388 0.683092 0
M  V30 2731 H 256.517 5.10733 2.09417 0
M  V30 2732 H 258.993 3.2482 2.6006 0
M  V30 2733 H 257.869 3.99325 3.76605 0
M  V30 2734 H 258.13 2.25656 3.80173 0
M  V30 2735 N 257.189 -0.644168 1.43834 0
M  V30 2736 C 258.436 -1.40395 1.4593 0
M  V30 2737 C 258.764 -1.94305 0.0869658 0
M  V30 2738 O 258.019 -1.73288 -0.909378 0
M  V30 2739 C 258.318 -2.59615 2.45631 0
M  V30 2740 C 257.984 -2.2407 3.91284 0
M  V30 2741 C 256.646 -2.14089 4.30952 0
M  V30 2742 C 258.998 -1.95775 4.83034 0
M  V30 2743 C 256.326 -1.73981 5.6031 0
M  V30 2744 C 258.678 -1.57163 6.12766 0
M  V30 2745 C 257.342 -1.45713 6.51402 0
M  V30 2746 H 256.612 -0.513741 0.533995 0
M  V30 2747 H 259.259 -0.731724 1.76969 0
M  V30 2748 H 257.564 -3.32011 2.08028 0
M  V30 2749 H 259.261 -3.17834 2.44504 0
M  V30 2750 H 255.851 -2.32753 3.59895 0
M  V30 2751 H 260.035 -2.02403 4.53152 0
M  V30 2752 H 255.291 -1.63709 5.89075 0
M  V30 2753 H 259.465 -1.34303 6.83327 0
M  V30 2754 H 257.092 -1.14406 7.51542 0
M  V30 2755 N 258.668 -1.30515 -0.883378 0
M  V30 2756 C 259.914 -1.19607 -1.63774 0
M  V30 2757 C 260.247 0.248314 -1.92606 0
M  V30 2758 O 259.522 1.17742 -1.54813 0
M  V30 2759 C 259.805 -2.02669 -2.97653 0
M  V30 2760 C 259.658 -3.55335 -2.75784 0
M  V30 2761 C 260.977 -1.86573 -3.98596 0
M  V30 2762 H 258.096 -0.435856 -0.594305 0
M  V30 2763 H 260.738 -1.60165 -1.02212 0
M  V30 2764 H 258.888 -1.68208 -3.50197 0
M  V30 2765 H 260.56 -3.99863 -2.30016 0
M  V30 2766 H 258.803 -3.79438 -2.1026 0
M  V30 2767 H 259.474 -4.08745 -3.70988 0
M  V30 2768 H 261.95 -2.16703 -3.55217 0
M  V30 2769 H 260.826 -2.47014 -4.90179 0
M  V30 2770 H 261.087 -0.825321 -4.34328 0
M  V30 2771 N 260.146 1.09593 -1.13257 0
M  V30 2772 C 261.093 2.1618 -0.808381 0
M  V30 2773 C 262.063 1.64517 0.228754 0
M  V30 2774 O 263.248 1.9053 0.101381 0
M  V30 2775 C 260.388 3.43973 -0.278675 0
M  V30 2776 C 259.501 4.09545 -1.37466 0
M  V30 2777 C 258.636 5.25088 -0.803479 0
M  V30 2778 C 257.675 5.82579 -1.87799 0
M  V30 2779 N 256.812 6.89486 -1.32488 0
M  V30 2780 H 261.652 2.43254 -1.72138 0
M  V30 2781 H 259.189 1.19392 -0.859294 0
M  V30 2782 H 261.147 4.17174 0.0465583 0
M  V30 2783 H 259.777 3.17223 0.597459 0
M  V30 2784 H 258.829 3.34226 -1.81652 0
M  V30 2785 H 260.141 4.48307 -2.18684 0
M  V30 2786 H 259.295 6.05178 -0.429427 0
M  V30 2787 H 258.034 4.87684 0.0397956 0
M  V30 2788 H 257.039 5.01152 -2.26113 0
M  V30 2789 H 258.264 6.22045 -2.72463 0
M  V30 2790 H 256.21 6.54064 -0.503575 0
M  V30 2791 H 256.127 7.27007 -2.07355 0
M  V30 2792 H 257.395 7.73336 -0.978336 0
M  V30 2793 N 261.624 0.925811 1.2754 0
M  V30 2794 C 263.035 0.610102 1.7645 0
M  V30 2795 C 263.386 -0.874723 1.75622 0
M  V30 2796 O 262.511 -1.68444 1.35851 0
M  V30 2797 C 263.106 1.10073 3.20421 0
M  V30 2798 C 261.665 0.835723 3.67005 0
M  V30 2799 C 260.812 1.26054 2.46993 0
M  V30 2800 H 263.763 1.10579 1.13833 0
M  V30 2801 H 263.784 0.447557 3.77859 0
M  V30 2802 H 263.296 2.18143 3.20991 0
M  V30 2803 H 261.397 -0.231249 3.71882 0
M  V30 2804 H 261.51 1.45193 4.56569 0
M  V30 2805 H 259.874 0.679111 2.45479 0
M  V30 2806 H 260.657 2.34984 2.50275 0
M  V30 2807 N 263.102 -1.41638 0.69111 0
M  V30 2808 C 264.065 -2.29178 0.0319786 0
M  V30 2809 C 265.065 -1.44153 -0.712496 0
M  V30 2810 O 266.255 -1.65354 -0.548053 0
M  V30 2811 C 263.387 -3.26952 -0.965161 0
M  V30 2812 H 264.58 -2.88959 0.802681 0
M  V30 2813 H 262.133 -1.4955 0.454356 0
M  V30 2814 H 262.868 -2.72142 -1.76378 0
M  V30 2815 H 262.653 -3.89685 -0.434522 0
M  V30 2816 H 264.143 -3.92561 -1.42428 0
M  V30 2817 N 264.58 -0.43555 -1.51462 0
M  V30 2818 C 265.528 0.391205 -2.29287 0
M  V30 2819 C 266.522 1.02247 -1.35062 0
M  V30 2820 O 267.728 0.957646 -1.52411 0
M  V30 2821 H 264.103 0.144968 -0.737895 0
M  V30 2822 H 266.074 -0.286051 -2.97026 0
M  V30 2823 C 264.823 1.48096 -3.14583 0
M  V30 2824 H 264.146 1.00457 -3.86973 0
M  V30 2825 H 265.586 2.03273 -3.72097 0
M  V30 2826 C 264.045 2.46321 -2.29843 0
M  V30 2827 O 264.575 3.50815 -1.95682 0
M  V30 2828 N 262.781 2.17166 -1.931 0
M  V30 2829 H 262.328 1.32218 -2.21079 0
M  V30 2830 H 262.286 2.83127 -1.36698 0
M  V30 2831 N 266.058 1.56714 -0.166846 0
M  V30 2832 C 266.988 2.20754 0.760913 0
M  V30 2833 C 267.969 1.16178 1.24244 0
M  V30 2834 O 269.154 1.44592 1.29641 0
M  V30 2835 C 266.284 2.84478 1.99223 0
M  V30 2836 C 265.238 3.95053 1.64672 0
M  V30 2837 C 264.564 4.45805 2.95232 0
M  V30 2838 C 265.864 5.14865 0.878155 0
M  V30 2839 H 267.558 2.98537 0.22713 0
M  V30 2840 H 265.104 1.43596 0.107805 0
M  V30 2841 H 267.057 3.27951 2.64624 0
M  V30 2842 H 265.781 2.04056 2.55007 0
M  V30 2843 H 264.44 3.52228 1.01641 0
M  V30 2844 H 264.088 3.62181 3.49047 0
M  V30 2845 H 263.788 5.204 2.7287 0
M  V30 2846 H 265.312 4.91962 3.6167 0
M  V30 2847 H 266.726 5.55059 1.43466 0
M  V30 2848 H 265.123 5.95348 0.753738 0
M  V30 2849 H 266.193 4.84735 -0.126377 0
M  V30 2850 N 267.536 -0.106894 1.57237 0
M  V30 2851 C 268.784 -0.810921 1.85117 0
M  V30 2852 C 269.105 -1.7984 0.753827 0
M  V30 2853 O 268.375 -1.94649 -0.221056 0
M  V30 2854 H 266.955 -0.302466 0.683025 0
M  V30 2855 H 269.617 -0.0913324 1.94686 0
M  V30 2856 H 268.713 -1.34875 2.81452 0
M  V30 2857 N 269.014 -1.53014 -0.377408 0
M  V30 2858 C 270.239 -1.72818 -1.14668 0
M  V30 2859 C 270.664 -0.450725 -1.8262 0
M  V30 2860 O 270.022 0.59439 -1.7128 0
M  V30 2861 C 270.07 -2.88627 -2.16164 0
M  V30 2862 O 269.174 -2.56409 -3.22998 0
M  V30 2863 H 268.515 -0.574301 -0.333278 0
M  V30 2864 H 271.045 -1.99853 -0.438152 0
M  V30 2865 H 271.055 -3.14455 -2.59966 0
M  V30 2866 H 269.73 -3.81294 -1.66095 0
M  V30 2867 H 268.307 -2.4136 -2.84253 0
M  V30 2868 N 270.492 0.636531 -1.44174 0
M  V30 2869 C 271.717 1.42847 -1.50364 0
M  V30 2870 C 272.142 1.87665 -0.127867 0
M  V30 2871 O 271.5 1.58408 0.88185 0
M  V30 2872 C 271.548 2.62854 -2.4686 0
M  V30 2873 O 270.652 3.62501 -1.9664 0
M  V30 2874 H 269.993 0.427642 -0.507955 0
M  V30 2875 H 272.523 0.777422 -1.89255 0
M  V30 2876 H 272.533 3.10465 -2.64718 0
M  V30 2877 H 271.208 2.29578 -3.46795 0
M  V30 2878 H 269.785 3.21735 -1.88523 0
M  V30 2879 N 271.97 1.30982 0.876444 0
M  V30 2880 C 273.216 1.20474 1.63138 0
M  V30 2881 C 273.549 -0.238096 1.92735 0
M  V30 2882 O 272.824 -1.1692 1.55435 0
M  V30 2883 C 273.107 2.04244 2.96574 0
M  V30 2884 C 272.96 3.56793 2.73896 0
M  V30 2885 C 274.279 1.88684 3.97601 0
M  V30 2886 H 271.398 0.439001 0.591985 0
M  V30 2887 H 274.04 1.60704 1.01361 0
M  V30 2888 H 272.19 1.70063 3.493 0
M  V30 2889 H 273.862 4.01077 2.27892 0
M  V30 2890 H 272.105 3.80548 2.08245 0
M  V30 2891 H 272.776 4.10706 3.68815 0
M  V30 2892 H 275.252 2.18584 3.54062 0
M  V30 2893 H 274.128 2.4961 4.88862 0
M  V30 2894 H 274.389 0.848343 4.33884 0
M  V30 2895 N 273.449 -1.08991 1.13837 0
M  V30 2896 C 274.697 -1.80899 0.901098 0
M  V30 2897 C 275.018 -1.86356 -0.574134 0
M  V30 2898 O 274.288 -1.35235 -1.41733 0
M  V30 2899 H 272.868 -0.669966 0.330386 0
M  V30 2900 H 275.53 -1.318 1.43578 0
M  V30 2901 H 274.626 -2.83929 1.29578 0
M  V30 2902 N 274.927 -0.932562 -1.27047 0
M  V30 2903 C 276.176 -0.571351 -1.93439 0
M  V30 2904 C 276.489 0.892467 -1.74053 0
M  V30 2905 O 277.695 1.36267 -2.34826 0
M  V30 2906 C 276.151 -0.97106 -3.46552 0
M  V30 2907 C 275.759 -2.4559 -3.74686 0
M  V30 2908 C 277.503 -0.681333 -4.18997 0
M  V30 2909 C 275.41 -2.79475 -5.21198 0
M  V30 2910 H 274.34 -0.209966 -0.724176 0
M  V30 2911 H 276.991 -1.13403 -1.44263 0
M  V30 2912 H 275.373 -0.336983 -3.94564 0
M  V30 2913 H 276.547 -3.13829 -3.37414 0
M  V30 2914 H 274.862 -2.71802 -3.15456 0
M  V30 2915 H 277.459 -0.910939 -5.26883 0
M  V30 2916 H 277.802 0.381628 -4.14547 0
M  V30 2917 H 278.335 -1.27473 -3.76823 0
M  V30 2918 H 275.074 -3.847 -5.30741 0
M  V30 2919 H 274.594 -2.1589 -5.596 0
M  V30 2920 H 276.273 -2.67478 -5.89122 0
M  V30 2921 N 276.405 1.4127 -0.698611 0
M  V30 2922 C 277.63 2.06024 -0.238512 0
M  V30 2923 C 278.055 1.5224 1.10475 0
M  V30 2924 O 277.413 0.650623 1.69223 0
M  V30 2925 C 277.461 3.59988 -0.209952 0
M  V30 2926 O 276.565 4.04282 0.814235 0
M  V30 2927 H 275.906 0.653829 -0.115775 0
M  V30 2928 H 278.436 1.8098 -0.954326 0
M  V30 2929 H 278.446 4.07979 -0.0418436 0
M  V30 2930 H 277.121 3.98503 -1.1903 0
M  V30 2931 H 275.698 3.6779 0.615234 0
M  V30 2932 N 277.883 0.443576 1.51229 0
M  V30 2933 C 278.83 -0.364716 2.279 0
M  V30 2934 C 279.8 -1.0114 1.31757 0
M  V30 2935 O 280.985 -1.02912 1.60667 0
M  V30 2936 C 278.125 -1.45644 3.12861 0
M  V30 2937 C 277.238 -0.827269 4.24005 0
M  V30 2938 C 276.373 -1.89456 4.96266 0
M  V30 2939 C 275.412 -1.24416 5.99322 0
M  V30 2940 N 274.549 -2.25309 6.64966 0
M  V30 2941 H 279.389 0.295464 2.96532 0
M  V30 2942 H 276.926 0.157554 1.46254 0
M  V30 2943 H 278.884 -2.10076 3.6045 0
M  V30 2944 H 277.514 -2.08616 2.46331 0
M  V30 2945 H 276.566 -0.0710839 3.80334 0
M  V30 2946 H 277.878 -0.312481 4.9782 0
M  V30 2947 H 277.032 -2.61535 5.47434 0
M  V30 2948 H 275.771 -2.4431 4.22095 0
M  V30 2949 H 274.776 -0.508868 5.4744 0
M  V30 2950 H 276.001 -0.702882 6.75453 0
M  V30 2951 H 273.947 -2.79231 5.93604 0
M  V30 2952 H 273.864 -1.78739 7.34567 0
M  V30 2953 H 275.132 -2.96853 7.20763 0
M  V30 2954 N 279.361 -1.56624 0.175154 0
M  V30 2955 C 280.601 -1.98894 -0.471221 0
M  V30 2956 C 280.965 -1.05889 -1.60161 0
M  V30 2957 O 282.166 -1.37315 -2.3108 0
M  V30 2958 C 280.437 -3.44865 -0.938241 0
M  V30 2959 S 281.996 -4.09164 -1.58526 0
M  V30 2960 H 278.814 -0.694686 -0.151434 0
M  V30 2961 H 281.416 -1.93577 0.27352 0
M  V30 2962 H 280.12 -4.10265 -0.10518 0
M  V30 2963 H 279.651 -3.53956 -1.71693 0
M  V30 2964 H 281.666 -4.04528 -2.87352 0
M  V30 2965 N 280.839 0.0985539 -1.57292 0
M  V30 2966 C 281.787 1.1387 -2.02821 0
M  V30 2967 C 282.781 1.41676 -0.928666 0
M  V30 2968 O 283.987 1.41398 -1.11385 0
M  V30 2969 H 280.362 0.384419 -0.646317 0
M  V30 2970 H 282.333 0.728347 -2.89375 0
M  V30 2971 C 281.082 2.45166 -2.46554 0
M  V30 2972 H 280.405 2.24613 -3.3074 0
M  V30 2973 H 281.845 3.16456 -2.8219 0
M  V30 2974 C 280.304 3.09216 -1.33742 0
M  V30 2975 O 280.834 3.96163 -0.66464 0
M  V30 2976 N 279.04 2.69413 -1.08928 0
M  V30 2977 H 278.587 1.98801 -1.63817 0
M  V30 2978 H 278.545 3.12594 -0.336458 0
M  V30 2979 N 282.317 1.53212 0.369288 0
M  V30 2980 C 283.265 1.80054 1.47253 0
M  V30 2981 C 284.259 0.669456 1.55611 0
M  V30 2982 O 285.465 0.852328 1.58541 0
M  V30 2983 H 281.84 0.570034 0.490475 0
M  V30 2984 H 283.811 2.72403 1.21817 0
M  V30 2985 C 282.56 2.00403 2.84137 0
M  V30 2986 H 281.883 2.86876 2.78464 0
M  V30 2987 H 283.323 2.23164 3.60519 0
M  V30 2988 C 281.782 0.782081 3.27697 0
M  V30 2989 O 282.312 -0.0310205 4.01688 0
M  V30 2990 N 280.518 0.606573 2.84199 0
M  V30 2991 H 280.065 1.26939 2.24152 0
M  V30 2992 H 280.023 -0.20962 3.137 0
M  V30 2993 N 283.795 -0.628877 1.44509 0
M  V30 2994 C 284.705 -1.7694 1.54044 0
M  V30 2995 C 285.721 -1.68705 0.425987 0
M  V30 2996 O 286.897 -1.89442 0.683656 0
M  V30 2997 C 283.962 -3.13332 1.48405 0
M  V30 2998 C 283.023 -3.33181 2.70719 0
M  V30 2999 C 282.256 -4.63067 2.6534 0
M  V30 3000 O 282.479 -5.44017 1.71469 0
M  V30 3001 O 281.413 -4.85167 3.56226 0
M  V30 3002 H 285.239 -1.71848 2.50403 0
M  V30 3003 H 282.824 -0.790378 1.26781 0
M  V30 3004 H 284.706 -3.94634 1.47791 0
M  V30 3005 H 283.381 -3.1896 0.551898 0
M  V30 3006 H 282.288 -2.51549 2.769 0
M  V30 3007 H 283.621 -3.32416 3.62988 0
M  V30 3008 N 285.273 -1.31445 -0.869486 0
M  V30 3009 C 286.236 -1.19094 -1.9583 0
M  V30 3010 C 287.236 -0.117906 -1.60367 0
M  V30 3011 O 288.426 -0.367208 -1.70286 0
M  V30 3012 C 285.558 -0.828165 -3.30688 0
M  V30 3013 H 286.751 -2.15842 -2.08212 0
M  V30 3014 H 284.304 -1.15063 -1.05784 0
M  V30 3015 H 285.039 0.138142 -3.24006 0
M  V30 3016 H 284.824 -1.6038 -3.578 0
M  V30 3017 H 286.314 -0.765658 -4.10521 0
M  V30 3018 N 286.751 1.08385 -1.14413 0
M  V30 3019 C 287.661 2.18856 -0.844951 0
M  V30 3020 C 288.677 1.73121 0.174668 0
M  V30 3021 O 289.853 2.014 0.00312857 0
M  V30 3022 C 286.918 3.45155 -0.32696 0
M  V30 3023 C 285.979 4.05513 -1.40916 0
M  V30 3024 C 285.212 5.25784 -0.915793 0
M  V30 3025 O 285.435 5.69884 0.242651 0
M  V30 3026 O 284.369 5.77545 -1.69487 0
M  V30 3027 H 288.195 2.46919 -1.76818 0
M  V30 3028 H 285.78 1.17524 -0.922411 0
M  V30 3029 H 287.662 4.21377 -0.0440211 0
M  V30 3030 H 286.337 3.18668 0.568539 0
M  V30 3031 H 285.244 3.30879 -1.74556 0
M  V30 3032 H 286.577 4.3625 -2.27919 0
M  V30 3033 N 288.23 0.939286 1.26551 0
M  V30 3034 C 289.16 0.465044 2.28822 0
M  V30 3035 C 290.141 -0.480692 1.63167 0
M  V30 3036 O 291.326 -0.382955 1.90387 0
M  V30 3037 C 288.456 -0.27234 3.46231 0
M  V30 3038 C 287.41 0.58666 4.2396 0
M  V30 3039 C 286.736 -0.280573 5.33963 0
M  V30 3040 C 288.036 1.85704 4.88171 0
M  V30 3041 H 289.73 1.31979 2.68741 0
M  V30 3042 H 287.276 0.636061 1.29191 0
M  V30 3043 H 289.229 -0.615133 4.16886 0
M  V30 3044 H 287.953 -1.16121 3.0526 0
M  V30 3045 H 286.612 0.91232 3.55067 0
M  V30 3046 H 286.26 -1.16874 4.89234 0
M  V30 3047 H 285.96 0.29076 5.8688 0
M  V30 3048 H 287.484 -0.618678 6.07458 0
M  V30 3049 H 288.898 1.58161 5.51052 0
M  V30 3050 H 287.295 2.37279 5.51197 0
M  V30 3051 H 288.365 2.56957 4.11219 0
M  V30 3052 N 289.708 -1.40897 0.706093 0
M  V30 3053 C 290.655 -2.30751 0.0474474 0
M  V30 3054 C 291.625 -1.47678 -0.76029 0
M  V30 3055 O 292.81 -1.76441 -0.726177 0
M  V30 3056 C 289.95 -3.33815 -0.875309 0
M  V30 3057 C 289.063 -4.31961 -0.0580623 0
M  V30 3058 C 288.198 -5.22093 -0.979425 0
M  V30 3059 C 287.237 -6.11902 -0.155706 0
M  V30 3060 N 286.374 -6.94482 -1.03144 0
M  V30 3061 H 291.214 -2.86513 0.819413 0
M  V30 3062 H 288.751 -1.41102 0.415783 0
M  V30 3063 H 290.709 -3.92129 -1.42446 0
M  V30 3064 H 289.339 -2.79579 -1.61356 0
M  V30 3065 H 288.391 -3.75507 0.608147 0
M  V30 3066 H 289.703 -4.95415 0.580082 0
M  V30 3067 H 288.857 -5.85292 -1.59744 0
M  V30 3068 H 287.596 -4.5889 -1.65141 0
M  V30 3069 H 286.601 -5.47742 0.475309 0
M  V30 3070 H 287.826 -6.77162 0.512635 0
M  V30 3071 H 285.772 -6.33877 -1.68924 0
M  V30 3072 H 285.689 -7.54665 -0.449108 0
M  V30 3073 H 286.957 -7.6214 -1.63593 0
M  V30 3074 N 291.186 -0.45159 -1.50991 0
M  V30 3075 C 292.096 0.358431 -2.31846 0
M  V30 3076 C 293.112 1.01438 -1.41373 0
M  V30 3077 O 294.288 1.00663 -1.74439 0
M  V30 3078 C 291.353 1.43704 -3.15515 0
M  V30 3079 C 290.414 0.799742 -4.21785 0
M  V30 3080 C 289.647 1.82696 -5.01456 0
M  V30 3081 O 289.87 3.05105 -4.81941 0
M  V30 3082 O 288.804 1.40958 -5.85162 0
M  V30 3083 H 292.63 -0.302032 -3.02194 0
M  V30 3084 H 290.215 -0.213825 -1.47862 0
M  V30 3085 H 292.097 2.06227 -3.67489 0
M  V30 3086 H 290.772 2.08133 -2.47916 0
M  V30 3087 H 289.679 0.136084 -3.73852 0
M  V30 3088 H 291.012 0.198718 -4.91799 0
M  V30 3089 N 292.664 1.56529 -0.183458 0
M  V30 3090 C 293.912 1.96855 0.457452 0
M  V30 3091 C 294.233 1.07104 1.62953 0
M  V30 3092 O 293.503 0.139887 1.954 0
M  V30 3093 H 292.083 0.72693 0.171992 0
M  V30 3094 H 294.745 1.93056 -0.267476 0
M  V30 3095 H 293.841 3.01423 0.809368 0
M  V30 3096 N 294.142 -0.090211 1.57342 0
M  V30 3097 C 295.391 -0.791531 1.8552 0
M  V30 3098 C 295.704 -1.79659 0.773441 0
M  V30 3099 O 296.91 -2.54616 0.942497 0
M  V30 3100 C 295.366 -1.45856 3.2902 0
M  V30 3101 C 294.974 -0.493017 4.45279 0
M  V30 3102 C 296.718 -2.14332 3.66418 0
M  V30 3103 C 294.625 -1.16491 5.79814 0
M  V30 3104 H 293.555 -0.299356 0.692027 0
M  V30 3105 H 296.206 -0.0445343 1.83446 0
M  V30 3106 H 294.588 -2.25318 3.2565 0
M  V30 3107 H 295.762 0.270464 4.60006 0
M  V30 3108 H 294.077 0.0863061 4.16311 0
M  V30 3109 H 296.674 -2.65344 4.64216 0
M  V30 3110 H 297.017 -2.93447 2.95287 0
M  V30 3111 H 297.55 -1.41724 3.71698 0
M  V30 3112 H 294.289 -0.41447 6.54188 0
M  V30 3113 H 293.809 -1.8997 5.68921 0
M  V30 3114 H 295.488 -1.69001 6.24538 0
M  V30 3115 N 295.62 -1.53406 -0.361157 0
M  V30 3116 C 296.567 -1.80156 -1.44265 0
M  V30 3117 C 297.537 -0.646183 -1.53015 0
M  V30 3118 O 298.722 -0.888818 -1.68833 0
M  V30 3119 C 295.862 -2.00116 -2.81154 0
M  V30 3120 C 294.975 -3.27833 -2.81335 0
M  V30 3121 C 294.11 -3.37957 -4.09828 0
M  V30 3122 C 293.149 -4.59689 -4.04168 0
M  V30 3123 N 292.286 -4.66942 -5.24318 0
M  V30 3124 H 297.126 -2.72438 -1.20754 0
M  V30 3125 H 294.663 -1.34954 -0.585296 0
M  V30 3126 H 296.621 -2.09677 -3.60682 0
M  V30 3127 H 295.251 -1.11167 -3.03054 0
M  V30 3128 H 294.303 -3.27204 -1.94014 0
M  V30 3129 H 295.615 -4.17442 -2.73027 0
M  V30 3130 H 294.769 -3.46853 -4.97773 0
M  V30 3131 H 293.508 -2.46372 -4.20894 0
M  V30 3132 H 292.513 -4.50889 -3.14609 0
M  V30 3133 H 293.738 -5.5262 -3.947 0
M  V30 3134 H 291.684 -3.7826 -5.35962 0
M  V30 3135 H 291.601 -5.50462 -5.18197 0
M  V30 3136 H 292.869 -4.80127 -6.14084 0
M  V30 3137 N 297.098 0.621204 -1.44841 0
M  V30 3138 C 298.008 1.7612 -1.5498 0
M  V30 3139 C 299.024 1.68477 -0.434927 0
M  V30 3140 O 300.2 1.89076 -0.693693 0
M  V30 3141 C 297.265 3.1254 -1.50065 0
M  V30 3142 C 296.326 3.31741 -2.72482 0
M  V30 3143 C 295.559 4.61653 -2.67792 0
M  V30 3144 O 295.782 5.431 -1.74352 0
M  V30 3145 O 294.716 4.83271 -3.58794 0
M  V30 3146 H 298.542 1.70518 -2.51311 0
M  V30 3147 H 296.127 0.783643 -1.27198 0
M  V30 3148 H 298.009 3.93844 -1.49882 0
M  V30 3149 H 296.684 3.18663 -0.568806 0
M  V30 3150 H 295.591 2.50077 -2.7823 0
M  V30 3151 H 296.924 3.30486 -3.64746 0
M  V30 3152 N 298.576 1.31904 0.862503 0
M  V30 3153 C 299.539 1.20131 1.95195 0
M  V30 3154 C 300.539 0.126409 1.60302 0
M  V30 3155 O 301.729 0.376234 1.70089 0
M  V30 3156 C 298.861 0.845691 3.30244 0
M  V30 3157 H 300.054 2.16943 2.07064 0
M  V30 3158 H 297.607 1.15622 1.05172 0
M  V30 3159 H 298.342 -0.120957 3.24074 0
M  V30 3160 H 298.127 1.62276 3.56944 0
M  V30 3161 H 299.617 0.787418 4.10109 0
M  V30 3162 N 300.054 -1.07777 1.14986 0
M  V30 3163 C 301.301 -1.8029 0.922056 0
M  V30 3164 C 301.629 -1.86531 -0.55105 0
M  V30 3165 O 300.884 -1.34189 -1.42449 0
M  V30 3166 C 301.183 -3.25495 1.47608 0
M  V30 3167 C 300.849 -3.39361 2.96893 0
M  V30 3168 C 299.511 -3.42852 3.37647 0
M  V30 3169 C 301.863 -3.42512 3.92854 0
M  V30 3170 C 299.191 -3.47094 4.73015 0
M  V30 3171 C 301.543 -3.4829 5.28088 0
M  V30 3172 C 300.207 -3.50058 5.68345 0
M  V30 3173 H 299.477 -0.659727 0.337404 0
M  V30 3174 H 302.124 -1.26854 1.43459 0
M  V30 3175 H 300.429 -3.81683 0.88463 0
M  V30 3176 H 302.126 -3.80168 1.27568 0
M  V30 3177 H 298.716 -3.37339 2.64387 0
M  V30 3178 H 302.9 -3.3904 3.62444 0
M  V30 3179 H 298.156 -3.46758 5.03556 0
M  V30 3180 H 302.33 -3.49675 6.02246 0
M  V30 3181 H 299.957 -3.53097 6.73221 0
M  V30 3182 N 301.532 -0.945985 -1.26051 0
M  V30 3183 C 302.464 -0.416662 -2.25381 0
M  V30 3184 C 303.477 0.462712 -1.56086 0
M  V30 3185 O 304.666 0.272383 -1.7641 0
M  V30 3186 C 301.766 0.419812 -3.3629 0
M  V30 3187 C 300.939 -0.444531 -4.35135 0
M  V30 3188 C 299.998 0.332305 -5.2515 0
M  V30 3189 O 299.024 -0.266324 -5.68577 0
M  V30 3190 N 300.226 1.62763 -5.57215 0
M  V30 3191 H 302.991 -1.27059 -2.71433 0
M  V30 3192 H 300.552 -0.815392 -1.39868 0
M  V30 3193 H 302.544 0.947013 -3.93464 0
M  V30 3194 H 301.114 1.17456 -2.89694 0
M  V30 3195 H 300.334 -1.15291 -3.76964 0
M  V30 3196 H 301.622 -1.03478 -4.98166 0
M  V30 3197 H 301.02 2.13603 -5.23823 0
M  V30 3198 H 299.577 2.10097 -6.17011 0
M  V30 3199 N 303.011 1.40521 -0.713556 0
M  V30 3200 C 304.258 2.00923 -0.25219 0
M  V30 3201 C 304.586 1.56571 1.15395 0
M  V30 3202 O 303.841 0.775874 1.79663 0
M  V30 3203 C 304.14 3.56317 -0.278 0
M  V30 3204 C 303.806 4.20246 -1.63415 0
M  V30 3205 C 302.468 4.37422 -2.00538 0
M  V30 3206 C 304.82 4.55923 -2.52554 0
M  V30 3207 C 302.148 4.87558 -3.2635 0
M  V30 3208 C 304.5 5.07458 -3.77716 0
M  V30 3209 C 303.164 5.22843 -4.14959 0
M  V30 3210 H 302.434 0.735231 -0.0922829 0
M  V30 3211 H 305.081 1.68161 -0.916188 0
M  V30 3212 H 303.386 3.88976 0.469567 0
M  V30 3213 H 305.083 4.00883 0.0967819 0
M  V30 3214 H 301.673 4.07263 -1.33546 0
M  V30 3215 H 305.857 4.42291 -2.25149 0
M  V30 3216 H 301.113 4.97654 -3.55176 0
M  V30 3217 H 305.287 5.34041 -4.4696 0
M  V30 3218 H 302.914 5.61454 -5.12516 0
M  V30 3219 N 304.489 0.459591 1.5075 0
M  V30 3220 C 305.766 -0.160371 1.94941 0
M  V30 3221 C 306.146 -1.58048 1.39943 0
M  V30 3222 O 305.494 -2.206 0.595629 0
M  V30 3223 C 305.704 -0.115432 3.48809 0
M  V30 3224 C 307.052 -0.310026 4.23467 0
M  V30 3225 O 308.076 -0.192543 3.55679 0
M  V30 3226 O 306.935 -0.546031 5.43765 0
M  V30 3227 H 304.029 -0.117925 0.818549 0
M  V30 3228 H 306.575 0.519169 1.61563 0
M  V30 3229 H 305.347 0.87652 3.81357 0
M  V30 3230 H 304.97 -0.836928 3.88692 0
M  V30 3231 N 305.967 -1.56429 0.191757 0
M  V30 3232 C 307.383 -1.58754 -0.164137 0
M  V30 3233 C 307.583 -1.20782 -1.61288 0
M  V30 3234 O 306.639 -0.928999 -2.34789 0
M  V30 3235 C 307.952 -3.00396 0.135195 0
M  V30 3236 C 309.5 -3.1291 0.0750351 0
M  V30 3237 C 309.975 -4.56679 0.347632 0
M  V30 3238 N 311.466 -4.62252 0.296131 0
M  V30 3239 C 312.201 -5.71379 0.480948 0
M  V30 3240 N 311.697 -6.88986 0.725933 0
M  V30 3241 N 313.49 -5.60563 0.415435 0
M  V30 3242 H 305.641 -1.79393 1.13718 0
M  V30 3243 H 307.904 -0.832414 0.453643 0
M  V30 3244 H 307.61 -3.32726 1.13958 0
M  V30 3245 H 307.484 -3.72963 -0.563773 0
M  V30 3246 H 309.871 -2.80394 -0.919948 0
M  V30 3247 H 309.952 -2.42736 0.807029 0
M  V30 3248 H 309.596 -4.89907 1.33992 0
M  V30 3249 H 309.526 -5.25039 -0.405212 0
M  V30 3250 H 312.017 -3.7773 0.113259 0
M  V30 3251 H 312.33 -7.68046 0.855857 0
M  V30 3252 H 310.675 -6.90801 0.762788 0
M  V30 3253 H 313.866 -4.67561 0.224486 0
M  V30 3254 H 314.039 -6.45551 0.562889 0
M  V30 3255 N 307.445 0.0818655 -1.57387 0
M  V30 3256 C 308.392 1.09834 -2.0299 0
M  V30 3257 C 309.362 1.39043 -0.908639 0
M  V30 3258 O 310.547 1.50282 -1.17559 0
M  V30 3259 C 307.687 2.40971 -2.47037 0
M  V30 3260 C 306.8 2.18379 -3.7274 0
M  V30 3261 C 305.935 3.43008 -4.0561 0
M  V30 3262 C 304.974 3.15736 -5.24383 0
M  V30 3263 N 304.111 4.32667 -5.52941 0
M  V30 3264 H 308.951 0.702472 -2.89602 0
M  V30 3265 H 306.488 0.33531 -1.43227 0
M  V30 3266 H 308.446 3.1752 -2.70623 0
M  V30 3267 H 307.076 2.78379 -1.63417 0
M  V30 3268 H 306.128 1.32569 -3.56552 0
M  V30 3269 H 307.44 1.94227 -4.59431 0
M  V30 3270 H 306.594 4.27958 -4.30043 0
M  V30 3271 H 305.333 3.70225 -3.17466 0
M  V30 3272 H 304.338 2.2918 -4.99757 0
M  V30 3273 H 305.563 2.8985 -6.14136 0
M  V30 3274 H 303.509 4.59935 -4.67756 0
M  V30 3275 H 303.426 4.11753 -6.34031 0
M  V30 3276 H 304.694 5.18644 -5.81918 0
M  V30 3277 N 308.923 1.53595 0.353017 0
M  V30 3278 C 309.853 1.83902 1.43883 0
M  V30 3279 C 310.834 0.693421 1.55324 0
M  V30 3280 O 312.019 0.944452 1.69687 0
M  V30 3281 C 309.149 2.04016 2.8106 0
M  V30 3282 C 308.103 3.19814 2.84434 0
M  V30 3283 C 307.429 3.25244 4.24406 0
M  V30 3284 C 308.729 4.58133 2.50822 0
M  V30 3285 H 310.423 2.74835 1.1877 0
M  V30 3286 H 307.969 1.32242 0.569917 0
M  V30 3287 H 309.922 2.238 3.57059 0
M  V30 3288 H 308.646 1.09804 3.07588 0
M  V30 3289 H 307.305 2.9987 2.10887 0
M  V30 3290 H 306.953 2.28646 4.48029 0
M  V30 3291 H 306.653 4.03054 4.27576 0
M  V30 3292 H 308.177 3.47228 5.0226 0
M  V30 3293 H 309.591 4.77995 3.16534 0
M  V30 3294 H 307.988 5.38276 2.6529 0
M  V30 3295 H 309.058 4.62387 1.46034 0
M  V30 3296 N 310.401 -0.613514 1.45168 0
M  V30 3297 C 311.647 -1.37471 1.49096 0
M  V30 3298 C 311.98 -1.93765 0.129901 0
M  V30 3299 O 311.255 -1.74707 -0.854858 0
M  V30 3300 C 311.538 -2.52701 2.56542 0
M  V30 3301 C 311.391 -2.01643 4.0207 0
M  V30 3302 C 312.71 -3.54849 2.60327 0
M  V30 3303 H 309.829 -0.498502 0.54283 0
M  V30 3304 H 312.471 -0.692125 1.76945 0
M  V30 3305 H 310.621 -3.10931 2.32926 0
M  V30 3306 H 312.293 -1.48108 4.36877 0
M  V30 3307 H 310.536 -1.32688 4.13009 0
M  V30 3308 H 311.207 -2.84681 4.72928 0
M  V30 3309 H 313.683 -3.0645 2.81474 0
M  V30 3310 H 312.559 -4.32973 3.37381 0
M  V30 3311 H 312.82 -4.10079 1.6519 0
M  V30 3312 N 311.879 -1.3236 -0.855495 0
M  V30 3313 C 313.128 -1.22226 -1.60448 0
M  V30 3314 C 313.441 0.214733 -1.94418 0
M  V30 3315 O 314.647 0.437917 -2.67945 0
M  V30 3316 C 313.103 -2.14063 -2.89318 0
M  V30 3317 C 312.711 -3.62839 -2.62777 0
M  V30 3318 C 314.455 -2.12764 -3.67331 0
M  V30 3319 C 312.362 -4.4664 -3.87643 0
M  V30 3320 H 311.292 -0.453904 -0.602069 0
M  V30 3321 H 313.943 -1.57314 -0.944698 0
M  V30 3322 H 312.325 -1.71889 -3.5675 0
M  V30 3323 H 313.499 -4.1335 -2.03662 0
M  V30 3324 H 311.814 -3.66261 -1.98096 0
M  V30 3325 H 314.411 -2.72611 -4.59987 0
M  V30 3326 H 314.754 -1.11841 -4.00995 0
M  V30 3327 H 315.287 -2.53214 -3.06802 0
M  V30 3328 H 312.026 -5.48373 -3.5912 0
M  V30 3329 H 311.546 -4.0088 -4.46156 0
M  V30 3330 H 313.225 -4.59597 -4.55389 0
M  V30 3331 N 313.357 1.07166 -1.15556 0
M  V30 3332 C 314.267 2.17947 -0.868116 0
M  V30 3333 C 315.283 1.73297 0.156297 0
M  V30 3334 O 316.459 2.01392 -0.0182327 0
M  V30 3335 C 313.524 3.44789 -0.36355 0
M  V30 3336 C 312.585 4.03996 -1.45209 0
M  V30 3337 C 311.818 5.24783 -0.971508 0
M  V30 3338 O 312.041 5.70109 0.182194 0
M  V30 3339 O 310.975 5.75715 -1.75603 0
M  V30 3340 H 314.801 2.4503 -1.79427 0
M  V30 3341 H 312.386 1.16539 -0.934824 0
M  V30 3342 H 314.268 4.21307 -0.0887113 0
M  V30 3343 H 312.943 3.19253 0.534708 0
M  V30 3344 H 311.85 3.29009 -1.78056 0
M  V30 3345 H 313.183 4.33808 -2.32533 0
M  V30 3346 N 314.835 0.952656 1.25548 0
M  V30 3347 C 315.767 0.428609 2.25157 0
M  V30 3348 C 316.78 -0.454428 1.56329 0
M  V30 3349 O 317.969 -0.263023 1.76552 0
M  V30 3350 C 315.069 -0.401972 3.36508 0
M  V30 3351 C 314.242 0.467601 4.34893 0
M  V30 3352 C 313.301 -0.30445 5.25319 0
M  V30 3353 O 312.327 0.296473 5.68427 0
M  V30 3354 N 313.529 -1.59805 5.5807 0
M  V30 3355 H 316.294 1.28497 2.70756 0
M  V30 3356 H 313.855 0.822798 1.39433 0
M  V30 3357 H 315.847 -0.926134 3.9396 0
M  V30 3358 H 314.417 -1.15918 2.90313 0
M  V30 3359 H 313.637 1.17288 3.76347 0
M  V30 3360 H 314.925 1.06119 4.97611 0
M  V30 3361 H 314.323 -2.10823 5.24948 0
M  V30 3362 H 312.88 -2.06822 6.18116 0
M  V30 3363 N 316.313 -1.40141 0.720998 0
M  V30 3364 C 317.561 -2.0039 0.262323 0
M  V30 3365 C 317.882 -1.57469 -1.15015 0
M  V30 3366 O 317.152 -0.816582 -1.78069 0
M  V30 3367 H 315.732 -0.741063 0.093996 0
M  V30 3368 H 318.394 -1.71398 0.927835 0
M  V30 3369 H 317.49 -3.10658 0.299671 0
M  V30 3370 N 317.792 -0.46758 -1.50504 0
M  V30 3371 C 319.038 0.0887532 -2.02606 0
M  V30 3372 C 319.371 1.39686 -1.34913 0
M  V30 3373 O 318.646 1.88644 -0.473694 0
M  V30 3374 C 318.929 0.276206 -3.59039 0
M  V30 3375 C 318.782 -1.05267 -4.37309 0
M  V30 3376 C 320.101 1.03235 -4.27821 0
M  V30 3377 H 317.22 0.0307814 -0.736357 0
M  V30 3378 H 319.862 -0.612485 -1.79857 0
M  V30 3379 H 318.012 0.8735 -3.78553 0
M  V30 3380 H 319.684 -1.68628 -4.29374 0
M  V30 3381 H 317.927 -1.65015 -4.01189 0
M  V30 3382 H 318.598 -0.875197 -5.45018 0
M  V30 3383 H 321.074 0.526111 -4.12761 0
M  V30 3384 H 319.95 1.1323 -5.37094 0
M  V30 3385 H 320.211 2.06806 -3.90748 0
M  V30 3386 N 319.27 1.56325 -0.20005 0
M  V30 3387 C 320.218 2.20666 0.735482 0
M  V30 3388 C 321.212 1.17934 1.21605 0
M  V30 3389 O 322.418 1.36068 1.17837 0
M  V30 3390 H 318.793 0.70725 0.255542 0
M  V30 3391 H 320.764 2.9792 0.169166 0
M  V30 3392 C 319.513 2.88391 1.94232 0
M  V30 3393 H 318.836 3.67185 1.58161 0
M  V30 3394 H 320.276 3.3684 2.57517 0
M  V30 3395 C 318.735 1.89692 2.78421 0
M  V30 3396 O 319.265 1.40032 3.76502 0
M  V30 3397 N 317.471 1.57813 2.44015 0
M  V30 3398 H 317.018 1.9839 1.64314 0
M  V30 3399 H 316.976 0.920325 3.00628 0
M  V30 3400 N 320.748 -0.0735177 1.57428 0
M  V30 3401 C 321.711 -1.07192 2.02589 0
M  V30 3402 C 322.711 -1.31695 0.922661 0
M  V30 3403 O 323.901 -1.27445 1.18758 0
M  V30 3404 C 321.033 -2.41599 2.40506 0
M  V30 3405 H 322.226 -0.682727 2.92025 0
M  V30 3406 H 319.779 -0.319193 1.53006 0
M  V30 3407 H 320.514 -2.85354 1.5409 0
M  V30 3408 H 320.299 -2.25156 3.21009 0
M  V30 3409 H 321.789 -3.13367 2.76027 0
M  V30 3410 N 322.226 -1.5378 -0.344866 0
M  V30 3411 C 323.642 -1.44015 -0.687888 0
M  V30 3412 C 323.842 -0.595834 -1.92489 0
M  V30 3413 O 322.898 -0.0863064 -2.52352 0
M  V30 3414 C 324.211 -2.87481 -0.881758 0
M  V30 3415 C 325.759 -2.97247 -0.980459 0
M  V30 3416 C 326.234 -4.41819 -1.20665 0
M  V30 3417 N 327.725 -4.45339 -1.27389 0
M  V30 3418 C 328.46 -5.54333 -1.46639 0
M  V30 3419 N 327.956 -6.73335 -1.63071 0
M  V30 3420 N 329.749 -5.41944 -1.49176 0
M  V30 3421 H 321.9 -2.07169 0.468475 0
M  V30 3422 H 324.163 -0.93643 0.147655 0
M  V30 3423 H 323.869 -3.51672 -0.0443444 0
M  V30 3424 H 323.743 -3.32352 -1.78388 0
M  V30 3425 H 326.13 -2.33197 -1.8084 0
M  V30 3426 H 326.211 -2.5574 -0.0552713 0
M  V30 3427 H 325.855 -5.06449 -0.383652 0
M  V30 3428 H 325.785 -4.80917 -2.14539 0
M  V30 3429 H 328.276 -3.59585 -1.1622 0
M  V30 3430 H 328.589 -7.52165 -1.77391 0
M  V30 3431 H 326.934 -6.76282 -1.60209 0
M  V30 3432 H 330.125 -4.47932 -1.3592 0
M  V30 3433 H 330.298 -6.26946 -1.63837 0
M  V30 3434 N 323.704 0.605807 -1.45491 0
M  V30 3435 C 324.614 1.74466 -1.56839 0
M  V30 3436 C 325.63 1.68006 -0.452772 0
M  V30 3437 O 326.806 1.8833 -0.713708 0
M  V30 3438 C 323.871 3.10931 -1.53371 0
M  V30 3439 C 322.932 3.28832 -2.75986 0
M  V30 3440 C 322.165 4.58787 -2.72673 0
M  V30 3441 O 322.388 5.4122 -1.80102 0
M  V30 3442 O 321.322 4.79438 -3.63899 0
M  V30 3443 H 325.148 1.67843 -2.53106 0
M  V30 3444 H 322.733 0.770108 -1.28022 0
M  V30 3445 H 324.615 3.92233 -1.54051 0
M  V30 3446 H 323.29 3.18042 -0.602572 0
M  V30 3447 H 322.197 2.47112 -2.80867 0
M  V30 3448 H 323.53 3.26599 -3.68231 0
M  V30 3449 N 325.182 1.32811 0.848464 0
M  V30 3450 C 326.431 1.23075 1.59798 0
M  V30 3451 C 326.744 -0.204419 1.94529 0
M  V30 3452 O 327.95 -0.423701 2.68173 0
M  V30 3453 C 326.406 2.15594 2.88179 0
M  V30 3454 C 326.014 3.64228 2.60849 0
M  V30 3455 C 327.758 2.14709 3.66197 0
M  V30 3456 C 325.665 4.48689 3.85269 0
M  V30 3457 H 324.595 0.457091 0.599653 0
M  V30 3458 H 327.246 1.57813 0.936342 0
M  V30 3459 H 325.628 1.73778 3.55833 0
M  V30 3460 H 326.802 4.14424 2.01467 0
M  V30 3461 H 325.117 3.67306 1.96151 0
M  V30 3462 H 327.714 2.75046 4.58534 0
M  V30 3463 H 328.057 1.13966 4.00397 0
M  V30 3464 H 328.59 2.54837 3.05455 0
M  V30 3465 H 325.329 5.5027 3.56207 0
M  V30 3466 H 324.849 4.03241 4.44024 0
M  V30 3467 H 326.528 4.62006 4.52946 0
M  V30 3468 N 326.66 -1.06551 1.16123 0
M  V30 3469 C 327.57 -2.17484 0.879662 0
M  V30 3470 C 328.586 -1.73377 -0.147104 0
M  V30 3471 O 329.762 -2.01379 0.0289128 0
M  V30 3472 C 326.827 -3.44591 0.381829 0
M  V30 3473 C 325.888 -4.0322 1.4735 0
M  V30 3474 C 325.121 -5.24261 0.999324 0
M  V30 3475 O 325.344 -5.70198 -0.151957 0
M  V30 3476 O 324.278 -5.74775 1.78653 0
M  V30 3477 H 328.104 -2.44075 1.80724 0
M  V30 3478 H 325.689 -1.16042 0.940992 0
M  V30 3479 H 327.571 -4.21254 0.111053 0
M  V30 3480 H 326.246 -3.19532 -0.51777 0
M  V30 3481 H 325.153 -3.2806 1.79798 0
M  V30 3482 H 326.486 -4.32568 2.34831 0
M  V30 3483 N 328.138 -0.959301 -1.25041 0
M  V30 3484 C 329.384 -0.617525 -1.9317 0
M  V30 3485 C 329.717 0.843981 -1.74902 0
M  V30 3486 O 328.992 1.60615 -1.09696 0
M  V30 3487 C 329.275 -0.982736 -3.46431 0
M  V30 3488 C 329.128 -2.50032 -3.73904 0
M  V30 3489 C 330.447 -0.511176 -4.37121 0
M  V30 3490 H 327.566 -0.22582 -0.701552 0
M  V30 3491 H 330.208 -1.19679 -1.4757 0
M  V30 3492 H 328.358 -0.489806 -3.854 0
M  V30 3493 H 330.03 -3.06737 -3.44544 0
M  V30 3494 H 328.273 -2.93598 -3.19348 0
M  V30 3495 H 328.944 -2.70635 -4.81103 0
M  V30 3496 H 331.42 -0.934075 -4.0548 0
M  V30 3497 H 330.296 -0.795361 -5.43107 0
M  V30 3498 H 330.557 0.588834 -4.38161 0
M  V30 3499 N 329.616 1.39756 -0.72842 0
M  V30 3500 C 330.579 2.29012 -0.0927297 0
M  V30 3501 C 331.579 1.45992 0.674025 0
M  V30 3502 O 332.769 1.66749 0.50402 0
M  V30 3503 C 329.901 3.29396 0.878137 0
M  V30 3504 H 331.094 2.86729 -0.879011 0
M  V30 3505 H 328.647 1.48293 -0.493847 0
M  V30 3506 H 329.382 2.76722 1.69101 0
M  V30 3507 H 329.167 3.907 0.331051 0
M  V30 3508 H 330.657 3.96199 1.3197 0
M  V30 3509 N 331.094 0.475555 1.50254 0
M  V30 3510 C 332.34 -0.0780073 2.0265 0
M  V30 3511 C 332.673 -1.38968 1.35652 0
M  V30 3512 O 331.948 -1.8839 0.483691 0
M  V30 3513 C 332.231 -0.257161 3.59181 0
M  V30 3514 C 332.084 1.07585 4.36744 0
M  V30 3515 C 333.403 -1.00965 4.28362 0
M  V30 3516 H 330.522 -0.0268758 0.73651 0
M  V30 3517 H 333.164 0.622015 1.7953 0
M  V30 3518 H 331.314 -0.853412 3.79011 0
M  V30 3519 H 332.986 1.70902 4.28474 0
M  V30 3520 H 331.229 1.6714 4.00308 0
M  V30 3521 H 331.9 0.904088 5.44546 0
M  V30 3522 H 334.376 -0.504214 4.13034 0
M  V30 3523 H 333.252 -1.10381 5.37687 0
M  V30 3524 H 333.513 -2.04731 3.91839 0
M  V30 3525 N 332.573 -1.56217 0.208337 0
M  V30 3526 C 333.503 -2.22694 -0.702116 0
M  V30 3527 C 334.484 -1.19432 -1.2112 0
M  V30 3528 O 335.669 -1.47978 -1.25762 0
M  V30 3529 C 332.799 -2.8966 -1.9161 0
M  V30 3530 C 331.753 -3.9928 -1.5414 0
M  V30 3531 C 331.079 -4.53476 -2.83308 0
M  V30 3532 C 332.379 -5.17012 -0.741339 0
M  V30 3533 H 334.073 -2.99034 -0.147898 0
M  V30 3534 H 331.619 -1.43831 -0.0696951 0
M  V30 3535 H 333.572 -3.34852 -2.55836 0
M  V30 3536 H 332.296 -2.10746 -2.49507 0
M  V30 3537 H 330.955 -3.54799 -0.922668 0
M  V30 3538 H 330.603 -3.71308 -3.39322 0
M  V30 3539 H 330.303 -5.27451 -2.58976 0
M  V30 3540 H 331.827 -5.01378 -3.485 0
M  V30 3541 H 333.241 -5.58667 -1.28699 0
M  V30 3542 H 331.638 -5.97137 -0.595627 0
M  V30 3543 H 332.708 -4.8423 0.254851 0
M  V30 3544 N 334.051 0.0651679 -1.57465 0
M  V30 3545 C 335.299 0.761555 -1.87202 0
M  V30 3546 C 335.62 1.77778 -0.801243 0
M  V30 3547 O 334.89 1.95166 0.16937 0
M  V30 3548 H 333.47 0.284251 -0.690804 0
M  V30 3549 H 336.132 0.0396827 -1.9486 0
M  V30 3550 H 335.228 1.27365 -2.84929 0
M  V30 3551 N 335.529 1.53961 0.336706 0
M  V30 3552 C 336.477 1.83136 1.43401 0
M  V30 3553 C 337.471 0.702313 1.54156 0
M  V30 3554 O 338.677 0.885765 1.56698 0
M  V30 3555 H 335.052 0.580309 0.478273 0
M  V30 3556 H 337.023 2.74925 1.16012 0
M  V30 3557 C 335.772 2.06385 2.79822 0
M  V30 3558 H 335.095 2.92718 2.72316 0
M  V30 3559 H 336.535 2.30761 3.55704 0
M  V30 3560 C 334.994 0.851414 3.25964 0
M  V30 3561 O 335.524 0.0541904 4.01663 0
M  V30 3562 N 333.73 0.66672 2.82848 0
M  V30 3563 H 333.277 1.31665 2.21409 0
M  V30 3564 H 333.235 -0.143032 3.14074 0
M  V30 3565 N 337.007 -0.598083 1.45811 0
M  V30 3566 C 338.284 -1.35777 1.40797 0
M  V30 3567 C 338.664 -2.10935 0.083462 0
M  V30 3568 O 338.012 -2.08505 -0.934763 0
M  V30 3569 C 338.222 -2.29666 2.62783 0
M  V30 3570 C 339.57 -2.91977 3.08277 0
M  V30 3571 O 340.594 -2.39984 2.63223 0
M  V30 3572 O 339.453 -3.86376 3.86491 0
M  V30 3573 H 336.547 -0.609291 0.55919 0
M  V30 3574 H 339.093 -0.620379 1.57954 0
M  V30 3575 H 337.865 -1.73454 3.50756 0
M  V30 3576 H 337.488 -3.1077 2.48008 0
M  V30 3577 N 338.485 -1.33259 -0.841409 0
M  V30 3578 C 339.715 -1.2742 -1.62628 0
M  V30 3579 C 340.123 0.157604 -1.88542 0
M  V30 3580 O 339.466 1.10938 -1.46419 0
M  V30 3581 C 339.528 -1.97797 -3.00194 0
M  V30 3582 C 339.192 -3.47109 -2.97261 0
M  V30 3583 C 340.189 -4.42358 -2.73159 0
M  V30 3584 C 337.874 -3.89247 -3.17478 0
M  V30 3585 C 339.868 -5.77718 -2.69296 0
M  V30 3586 C 337.555 -5.24713 -3.13241 0
M  V30 3587 C 338.553 -6.1876 -2.89181 0
M  V30 3588 O 338.241 -7.51745 -2.84843 0
M  V30 3589 H 337.973 -0.440436 -0.512827 0
M  V30 3590 H 340.527 -1.76153 -1.05638 0
M  V30 3591 H 338.757 -1.43652 -3.59028 0
M  V30 3592 H 340.446 -1.8549 -3.61038 0
M  V30 3593 H 341.212 -4.11127 -2.57294 0
M  V30 3594 H 337.091 -3.16456 -3.35226 0
M  V30 3595 H 340.635 -6.51097 -2.50436 0
M  V30 3596 H 336.532 -5.55569 -3.28654 0
M  V30 3597 H 337.3 -7.61262 -3.00702 0
M  V30 3598 N 339.963 1.05934 -1.16686 0
M  V30 3599 C 341.374 1.60263 -0.957745 0
M  V30 3600 C 341.725 1.89789 0.49745 0
M  V30 3601 O 340.85 1.67401 1.37135 0
M  V30 3602 C 341.445 2.91172 -1.73218 0
M  V30 3603 C 340.004 3.42188 -1.56794 0
M  V30 3604 C 339.151 2.16028 -1.73859 0
M  V30 3605 H 342.102 0.888392 -1.31504 0
M  V30 3606 H 342.123 3.60744 -1.21014 0
M  V30 3607 H 341.635 2.6965 -2.79124 0
M  V30 3608 H 339.736 3.68762 -0.533437 0
M  V30 3609 H 339.849 4.17273 -2.35414 0
M  V30 3610 H 338.213 2.26426 -1.16633 0
M  V30 3611 H 338.996 1.96985 -2.81161 0
M  V30 3612 N 341.441 0.965919 1.2453 0
M  V30 3613 C 342.351 0.502154 2.29163 0
M  V30 3614 C 343.367 -0.436017 1.68448 0
M  V30 3615 O 344.543 -0.309497 1.99008 0
M  V30 3616 C 341.608 -0.201956 3.46111 0
M  V30 3617 C 340.669 0.775821 4.22232 0
M  V30 3618 C 339.902 0.105217 5.33596 0
M  V30 3619 O 340.125 -1.10683 5.59558 0
M  V30 3620 O 339.059 0.796475 5.96607 0
M  V30 3621 H 342.885 1.37194 2.70946 0
M  V30 3622 H 340.47 0.732875 1.30189 0
M  V30 3623 H 342.352 -0.597564 4.17142 0
M  V30 3624 H 341.027 -1.04673 3.06309 0
M  V30 3625 H 339.934 1.22185 3.53584 0
M  V30 3626 H 341.267 1.58896 4.65846 0
M  V30 3627 N 342.919 -1.39368 0.735821 0
M  V30 3628 C 343.882 -2.2896 0.104874 0
M  V30 3629 C 344.882 -1.46347 -0.666274 0
M  V30 3630 O 346.072 -1.67014 -0.49517 0
M  V30 3631 C 343.204 -3.29857 -0.860656 0
M  V30 3632 H 344.397 -2.86259 0.894205 0
M  V30 3633 H 341.95 -1.48029 0.501704 0
M  V30 3634 H 342.685 -2.77615 -1.67631 0
M  V30 3635 H 342.47 -3.9087 -0.310327 0
M  V30 3636 H 343.96 -3.96893 -1.29867 0
M  V30 3637 N 344.397 -0.483516 -1.5 0
M  V30 3638 C 345.625 0.0644831 -2.06799 0
M  V30 3639 C 346.04 1.32399 -1.34596 0
M  V30 3640 O 345.397 1.77626 -0.418946 0
M  V30 3641 C 345.448 0.339927 -3.59898 0
M  V30 3642 O 345.169 -0.869635 -4.29382 0
M  V30 3643 C 346.67 0.933515 -4.33359 0
M  V30 3644 H 343.89 -0.0126333 -0.670881 0
M  V30 3645 H 346.434 -0.675864 -1.93009 0
M  V30 3646 H 344.589 1.03022 -3.7345 0
M  V30 3647 H 345.003 -0.62179 -5.20801 0
M  V30 3648 H 346.477 1.07593 -5.41413 0
M  V30 3649 H 346.954 1.92685 -3.94676 0
M  V30 3650 H 347.56 0.281221 -4.24369 0
M  V30 3651 N 345.875 1.56104 -0.216619 0
M  V30 3652 C 347.121 1.99219 0.410301 0
M  V30 3653 C 347.476 1.10169 1.57735 0
M  V30 3654 O 346.769 0.150598 1.91007 0
M  V30 3655 C 346.963 3.45923 0.898464 0
M  V30 3656 C 346.792 4.49163 -0.219748 0
M  V30 3657 C 345.562 5.00642 -0.684516 0
M  V30 3658 C 347.76 5.03751 -1.03629 0
M  V30 3659 N 345.742 5.87579 -1.7783 0
M  V30 3660 C 347.113 5.87566 -1.97904 0
M  V30 3661 C 349.168 4.86128 -1.07629 0
M  V30 3662 C 347.871 6.5564 -2.95851 0
M  V30 3663 C 349.897 5.54958 -2.04392 0
M  V30 3664 C 349.259 6.38536 -2.97407 0
M  V30 3665 H 345.358 0.773206 0.11695 0
M  V30 3666 H 347.942 1.9193 -0.327258 0
M  V30 3667 H 346.113 3.53669 1.6054 0
M  V30 3668 H 347.845 3.75963 1.49779 0
M  V30 3669 H 344.6 4.72807 -0.27399 0
M  V30 3670 H 345.024 6.3575 -2.32705 0
M  V30 3671 H 349.666 4.21168 -0.371099 0
M  V30 3672 H 347.384 7.19785 -3.67335 0
M  V30 3673 H 350.97 5.43289 -2.08154 0
M  V30 3674 H 349.85 6.90858 -3.71059 0
M  V30 3675 N 347.353 -0.0568162 1.57498 0
M  V30 3676 C 348.764 -0.606858 1.76562 0
M  V30 3677 C 349.115 -1.77114 0.844094 0
M  V30 3678 O 348.24 -2.16376 0.0318911 0
M  V30 3679 C 348.835 -1.10766 3.20182 0
M  V30 3680 C 347.394 -1.60344 3.40539 0
M  V30 3681 C 346.541 -0.529311 2.72201 0
M  V30 3682 H 349.492 0.169393 1.57793 0
M  V30 3683 H 349.513 -1.97602 3.25167 0
M  V30 3684 H 349.025 -0.26006 3.87228 0
M  V30 3685 H 347.126 -2.47379 2.78629 0
M  V30 3686 H 347.239 -1.67006 4.4905 0
M  V30 3687 H 345.603 -0.977893 2.35179 0
M  V30 3688 H 346.386 0.308352 3.41912 0
M  V30 3689 N 348.832 -1.54138 -0.328536 0
M  V30 3690 C 350.08 -1.71765 -1.06496 0
M  V30 3691 C 350.401 -0.49149 -1.88704 0
M  V30 3692 O 349.671 0.494539 -1.89555 0
M  V30 3693 H 348.251 -0.633295 -0.396164 0
M  V30 3694 H 350.913 -1.91429 -0.366176 0
M  V30 3695 H 350.009 -2.5951 -1.73381 0
M  V30 3696 N 350.31 0.590341 -1.46126 0
M  V30 3697 C 351.22 1.72793 -1.58681 0
M  V30 3698 C 352.236 1.67516 -0.470566 0
M  V30 3699 O 353.412 1.87562 -0.733642 0
M  V30 3700 C 350.477 3.09287 -1.5666 0
M  V30 3701 C 349.538 3.25886 -2.79458 0
M  V30 3702 C 348.771 4.55869 -2.77524 0
M  V30 3703 O 348.994 5.3928 -1.85832 0
M  V30 3704 O 347.928 4.75552 -3.68964 0
M  V30 3705 H 351.754 1.65149 -2.54872 0
M  V30 3706 H 349.339 0.756486 -1.28832 0
M  V30 3707 H 351.221 3.90577 -1.58202 0
M  V30 3708 H 349.896 3.17385 -0.636271 0
M  V30 3709 H 348.803 2.44119 -2.83472 0
M  V30 3710 H 350.136 3.22675 -3.71674 0
M  V30 3711 N 351.788 1.33704 0.83433 0
M  V30 3712 C 353.034 1.25603 1.59222 0
M  V30 3713 C 353.367 -0.176659 1.93395 0
M  V30 3714 O 352.642 -1.11915 1.59076 0
M  V30 3715 C 352.925 2.13576 2.89926 0
M  V30 3716 C 352.778 3.65326 2.62406 0
M  V30 3717 C 354.097 2.01238 3.91397 0
M  V30 3718 H 351.216 0.457613 0.577719 0
M  V30 3719 H 353.858 1.63848 0.961972 0
M  V30 3720 H 352.008 1.8109 3.43713 0
M  V30 3721 H 353.68 4.08124 2.15017 0
M  V30 3722 H 351.923 3.8698 1.96033 0
M  V30 3723 H 352.594 4.22232 3.55562 0
M  V30 3724 H 355.07 2.29738 3.46929 0
M  V30 3725 H 353.946 2.65036 4.80673 0
M  V30 3726 H 354.207 0.985951 4.30966 0
M  V30 3727 N 353.266 -1.05314 1.17247 0
M  V30 3728 C 354.512 -1.78557 0.961513 0
M  V30 3729 C 354.845 -1.87419 -0.508697 0
M  V30 3730 O 354.12 -1.37307 -1.37757 0
M  V30 3731 C 354.403 -3.22514 1.60176 0
M  V30 3732 C 354.256 -3.21673 3.14399 0
M  V30 3733 C 355.575 -4.20318 1.30463 0
M  V30 3734 H 352.694 -0.6482 0.350723 0
M  V30 3735 H 355.336 -1.23102 1.44727 0
M  V30 3736 H 353.486 -3.69867 1.18871 0
M  V30 3737 H 355.158 -2.82405 3.64753 0
M  V30 3738 H 353.401 -2.60048 3.47214 0
M  V30 3739 H 354.072 -4.23271 3.54324 0
M  V30 3740 H 356.548 -3.81454 1.66229 0
M  V30 3741 H 355.424 -5.19289 1.77848 0
M  V30 3742 H 355.685 -4.41526 0.22521 0
M  V30 3743 N 354.744 -0.972509 -1.24016 0
M  V30 3744 C 355.691 -0.505969 -2.25186 0
M  V30 3745 C 356.661 0.451009 -1.5986 0
M  V30 3746 O 357.846 0.360307 -1.87367 0
M  V30 3747 C 354.986 0.193089 -3.44559 0
M  V30 3748 C 354.099 -0.803222 -4.24467 0
M  V30 3749 C 353.234 -0.0797793 -5.3114 0
M  V30 3750 C 352.273 -1.06583 -6.02749 0
M  V30 3751 N 351.41 -0.372074 -7.01113 0
M  V30 3752 H 356.25 -1.37351 -2.64459 0
M  V30 3753 H 353.787 -0.688419 -1.29997 0
M  V30 3754 H 355.745 0.615125 -4.1264 0
M  V30 3755 H 354.375 1.02455 -3.06109 0
M  V30 3756 H 353.427 -1.34368 -3.55878 0
M  V30 3757 H 354.739 -1.55494 -4.73944 0
M  V30 3758 H 353.893 0.400015 -6.0538 0
M  V30 3759 H 352.632 0.704597 -4.82583 0
M  V30 3760 H 351.637 -1.55645 -5.27309 0
M  V30 3761 H 352.862 -1.85074 -6.53395 0
M  V30 3762 H 350.808 0.393238 -6.5482 0
M  V30 3763 H 350.725 -1.06258 -7.48495 0
M  V30 3764 H 351.993 0.0855932 -7.79453 0
M  V30 3765 N 356.222 1.38976 -0.743202 0
M  V30 3766 C 357.499 1.94351 -0.220705 0
M  V30 3767 C 357.879 1.67935 1.2791 0
M  V30 3768 O 357.227 1.01211 2.04862 0
M  V30 3769 C 357.437 3.44426 -0.563171 0
M  V30 3770 C 358.785 4.2144 -0.517046 0
M  V30 3771 O 359.809 3.52661 -0.500846 0
M  V30 3772 O 358.668 5.44032 -0.518806 0
M  V30 3773 H 355.762 0.825879 -0.043047 0
M  V30 3774 H 358.308 1.48429 -0.822618 0
M  V30 3775 H 357.08 3.5712 -1.59941 0
M  V30 3776 H 356.703 3.97543 0.0672883 0
M  V30 3777 N 357.7 0.491464 1.49741 0
M  V30 3778 C 358.946 -0.0565092 2.02721 0
M  V30 3779 C 359.279 -1.37522 1.37118 0
M  V30 3780 O 358.554 -1.87866 0.503645 0
M  V30 3781 C 358.837 -0.219051 3.59433 0
M  V30 3782 C 358.69 1.12211 4.35579 0
M  V30 3783 C 360.009 -0.964157 4.29409 0
M  V30 3784 H 357.128 -0.0190627 0.736753 0
M  V30 3785 H 359.77 0.641021 1.7886 0
M  V30 3786 H 357.92 -0.813165 3.79895 0
M  V30 3787 H 359.592 1.75437 4.26637 0
M  V30 3788 H 357.835 1.71377 3.98513 0
M  V30 3789 H 358.506 0.961794 5.43556 0
M  V30 3790 H 360.982 -0.460378 4.13545 0
M  V30 3791 H 359.858 -1.04671 5.38828 0
M  V30 3792 H 360.119 -2.00563 3.93988 0
M  V30 3793 N 359.178 -1.55987 0.224894 0
M  V30 3794 C 360.141 -2.19178 -0.670348 0
M  V30 3795 C 361.141 -1.15461 -1.11917 0
M  V30 3796 O 362.331 -1.40675 -1.02743 0
M  V30 3797 C 359.463 -2.81777 -1.9187 0
M  V30 3798 H 360.656 -2.99662 -0.119364 0
M  V30 3799 H 358.209 -1.5628 -0.0247128 0
M  V30 3800 H 358.944 -2.05172 -2.51147 0
M  V30 3801 H 358.729 -3.57732 -1.60531 0
M  V30 3802 H 360.219 -3.30205 -2.55645 0
M  V30 3803 N 360.656 0.0484629 -1.57525 0
M  V30 3804 C 361.903 0.743125 -1.88372 0
M  V30 3805 C 362.231 1.76383 -0.819715 0
M  V30 3806 O 361.486 1.94855 0.181659 0
M  V30 3807 C 361.785 1.46632 -3.25935 0
M  V30 3808 C 361.451 0.583427 -4.4711 0
M  V30 3809 C 360.113 0.340191 -4.79996 0
M  V30 3810 C 362.465 -0.0273345 -5.21193 0
M  V30 3811 C 359.793 -0.522903 -5.84365 0
M  V30 3812 C 362.145 -0.878017 -6.26477 0
M  V30 3813 C 360.809 -1.1309 -6.5785 0
M  V30 3814 H 360.079 0.271929 -0.689301 0
M  V30 3815 H 362.726 0.00336166 -1.915 0
M  V30 3816 H 361.031 2.2789 -3.18706 0
M  V30 3817 H 362.728 2.00902 -3.47044 0
M  V30 3818 H 359.318 0.783151 -4.21384 0
M  V30 3819 H 363.502 0.147654 -4.9608 0
M  V30 3820 H 358.758 -0.727335 -6.07058 0
M  V30 3821 H 362.932 -1.35789 -6.83033 0
M  V30 3822 H 360.559 -1.80144 -7.38547 0
M  V30 3823 N 362.134 1.5431 0.320358 0
M  V30 3824 C 363.364 1.7638 1.07582 0
M  V30 3825 C 363.772 0.513944 1.82086 0
M  V30 3826 O 363.115 -0.525123 1.76035 0
M  V30 3827 C 363.177 2.9055 2.1171 0
M  V30 3828 C 362.841 4.2934 1.56575 0
M  V30 3829 C 363.838 5.10077 1.00586 0
M  V30 3830 C 361.523 4.75893 1.60722 0
M  V30 3831 C 363.517 6.35477 0.494756 0
M  V30 3832 C 361.204 6.0126 1.09224 0
M  V30 3833 C 362.202 6.80886 0.53696 0
M  V30 3834 O 361.89 8.03894 0.0297371 0
M  V30 3835 H 361.622 0.592369 0.325692 0
M  V30 3836 H 364.176 2.02019 0.37116 0
M  V30 3837 H 362.406 2.60489 2.85801 0
M  V30 3838 H 364.095 3.00373 2.73003 0
M  V30 3839 H 364.861 4.75265 0.966869 0
M  V30 3840 H 360.74 4.13957 2.02882 0
M  V30 3841 H 364.284 6.97574 0.0606842 0
M  V30 3842 H 360.181 6.35562 1.12831 0
M  V30 3843 H 360.949 8.18372 0.14486 0
M  V30 3844 N 363.613 -0.582584 1.46437 0
M  V30 3845 C 364.89 -1.34276 1.4223 0
M  V30 3846 C 365.27 -2.10835 0.10583 0
M  V30 3847 O 364.618 -2.09485 -0.912596 0
M  V30 3848 C 364.828 -2.26865 2.65204 0
M  V30 3849 C 366.176 -2.88691 3.11356 0
M  V30 3850 O 367.2 -2.37178 2.65753 0
M  V30 3851 O 366.059 -3.82255 3.90568 0
M  V30 3852 H 363.153 -0.603326 0.565621 0
M  V30 3853 H 365.699 -0.603591 1.58603 0
M  V30 3854 H 364.471 -1.69724 3.52576 0
M  V30 3855 H 364.094 -3.08122 2.5129 0
M  V30 3856 N 365.091 -1.34144 -0.827227 0
M  V30 3857 C 366.321 -1.29138 -1.61267 0
M  V30 3858 C 366.729 0.137597 -1.88699 0
M  V30 3859 O 366.072 1.09379 -1.47587 0
M  V30 3860 C 366.134 -2.0097 -2.9808 0
M  V30 3861 C 365.798 -3.50242 -2.93563 0
M  V30 3862 C 366.795 -4.4523 -2.68452 0
M  V30 3863 C 364.48 -3.92592 -3.13331 0
M  V30 3864 C 366.474 -5.80542 -2.63154 0
M  V30 3865 C 364.161 -5.28005 -3.07658 0
M  V30 3866 C 365.159 -6.21792 -2.82602 0
M  V30 3867 O 364.847 -7.54723 -2.76853 0
M  V30 3868 H 364.579 -0.445851 -0.508127 0
M  V30 3869 H 367.133 -1.77263 -1.03763 0
M  V30 3870 H 365.363 -1.47451 -3.57484 0
M  V30 3871 H 367.052 -1.89309 -3.5905 0
M  V30 3872 H 367.818 -4.13832 -2.52919 0
M  V30 3873 H 363.697 -3.19994 -3.31851 0
M  V30 3874 H 367.241 -6.53717 -2.43516 0
M  V30 3875 H 363.138 -5.59023 -3.22743 0
M  V30 3876 H 363.906 -7.64409 -2.92611 0
M  V30 3877 N 366.569 1.04691 -1.17803 0
M  V30 3878 C 367.516 2.12557 -0.899343 0
M  V30 3879 C 368.486 1.65339 0.158771 0
M  V30 3880 O 369.671 1.90789 0.0204797 0
M  V30 3881 C 366.811 3.42481 -0.424315 0
M  V30 3882 C 365.924 4.03346 -1.54713 0
M  V30 3883 C 365.059 5.21208 -1.02546 0
M  V30 3884 C 364.098 5.74089 -2.12339 0
M  V30 3885 N 363.235 6.83247 -1.61612 0
M  V30 3886 H 368.075 2.35734 -1.823 0
M  V30 3887 H 365.612 1.1564 -0.909159 0
M  V30 3888 H 367.57 4.16996 -0.130421 0
M  V30 3889 H 366.2 3.19471 0.462377 0
M  V30 3890 H 365.252 3.2622 -1.95664 0
M  V30 3891 H 366.564 4.38628 -2.37501 0
M  V30 3892 H 365.718 6.02812 -0.685718 0
M  V30 3893 H 364.457 4.87414 -0.167084 0
M  V30 3894 H 363.462 4.91111 -2.47165 0
M  V30 3895 H 364.687 6.0993 -2.98601 0
M  V30 3896 H 362.633 6.5134 -0.780533 0
M  V30 3897 H 362.55 7.17559 -2.38003 0
M  V30 3898 H 363.818 7.68491 -1.30545 0
M  V30 3899 N 368.047 0.979072 1.23499 0
M  V30 3900 C 369.272 0.664845 1.96455 0
M  V30 3901 C 369.697 -0.761287 1.72006 0
M  V30 3902 O 369.055 -1.51837 0.990713 0
M  V30 3903 C 369.103 0.959479 3.47601 0
M  V30 3904 O 368.207 0.0508168 4.12369 0
M  V30 3905 H 367.548 0.250185 0.615064 0
M  V30 3906 H 370.078 1.31231 1.5697 0
M  V30 3907 H 370.088 0.895642 3.98048 0
M  V30 3908 H 368.763 1.99876 3.64723 0
M  V30 3909 H 367.34 0.16895 3.72517 0
M  V30 3910 N 369.525 -1.3858 0.750561 0
M  V30 3911 C 370.472 -2.30483 0.120835 0
M  V30 3912 C 371.442 -1.50022 -0.712923 0
M  V30 3913 O 372.627 -1.78662 -0.669676 0
M  V30 3914 C 369.767 -3.36431 -0.768666 0
M  V30 3915 C 368.88 -4.31927 0.0793922 0
M  V30 3916 C 368.015 -5.24944 -0.81283 0
M  V30 3917 C 367.054 -6.12088 0.0390447 0
M  V30 3918 N 366.191 -6.97412 -0.809969 0
M  V30 3919 H 371.031 -2.83761 0.91015 0
M  V30 3920 H 368.568 -1.39707 0.460463 0
M  V30 3921 H 370.526 -3.96462 -1.29898 0
M  V30 3922 H 369.156 -2.8457 -1.5238 0
M  V30 3923 H 368.208 -3.73382 0.727303 0
M  V30 3924 H 369.52 -4.93319 0.737401 0
M  V30 3925 H 368.674 -5.90078 -1.41042 0
M  V30 3926 H 367.413 -4.63911 -1.50458 0
M  V30 3927 H 366.418 -5.45952 0.649328 0
M  V30 3928 H 367.643 -6.75189 0.727809 0
M  V30 3929 H 365.589 -6.38931 -1.48672 0
M  V30 3930 H 365.506 -7.55712 -0.208789 0
M  V30 3931 H 366.774 -7.66959 -1.39263 0
M  V30 3932 N 371.003 -0.499398 -1.49478 0
M  V30 3933 C 372.233 0.0424839 -2.06556 0
M  V30 3934 C 372.641 1.31514 -1.36018 0
M  V30 3935 O 371.984 1.78555 -0.431718 0
M  V30 3936 C 372.046 0.368074 -3.57611 0
M  V30 3937 C 371.71 -0.806631 -4.49825 0
M  V30 3938 C 372.707 -1.69667 -4.91436 0
M  V30 3939 C 370.392 -1.00498 -4.92144 0
M  V30 3940 C 372.386 -2.76923 -5.74101 0
M  V30 3941 C 370.073 -2.08072 -5.74586 0
M  V30 3942 C 371.071 -2.96119 -6.15469 0
M  V30 3943 O 370.759 -4.01836 -6.96264 0
M  V30 3944 H 370.491 -0.0165165 -0.675798 0
M  V30 3945 H 373.045 -0.695497 -1.93267 0
M  V30 3946 H 371.275 1.15963 -3.68903 0
M  V30 3947 H 372.964 0.848381 -3.96935 0
M  V30 3948 H 373.73 -1.55524 -4.59388 0
M  V30 3949 H 369.609 -0.329036 -4.59824 0
M  V30 3950 H 373.153 -3.45676 -6.05932 0
M  V30 3951 H 369.05 -2.22211 -6.06047 0
M  V30 3952 H 369.818 -3.9917 -7.14567 0
M  V30 3953 N 372.481 1.55866 -0.233164 0
M  V30 3954 C 373.428 2.20796 0.67215 0
M  V30 3955 C 374.398 1.16731 1.18166 0
M  V30 3956 O 375.583 1.45129 1.23864 0
M  V30 3957 C 372.723 2.90072 1.86955 0
M  V30 3958 C 371.836 4.08759 1.39786 0
M  V30 3959 C 370.971 4.65787 2.55374 0
M  V30 3960 C 370.01 5.76752 2.04998 0
M  V30 3961 N 369.147 6.28021 3.13901 0
M  V30 3962 H 373.987 2.9779 0.111749 0
M  V30 3963 H 371.524 1.47036 0.0434007 0
M  V30 3964 H 373.482 3.28428 2.57276 0
M  V30 3965 H 372.112 2.15575 2.40265 0
M  V30 3966 H 371.164 3.7581 0.589173 0
M  V30 3967 H 372.476 4.88906 0.98856 0
M  V30 3968 H 371.63 5.06646 3.33758 0
M  V30 3969 H 370.369 3.84828 2.99598 0
M  V30 3970 H 369.374 5.35383 1.25079 0
M  V30 3971 H 370.599 6.59553 1.61759 0
M  V30 3972 H 368.545 5.49971 3.57586 0
M  V30 3973 H 368.462 7.03323 2.7726 0
M  V30 3974 H 369.73 6.73538 3.92386 0
M  V30 3975 N 373.959 -0.0401083 1.57549 0
M  V30 3976 C 375.236 -0.767917 1.79896 0
M  V30 3977 C 375.616 -1.9416 0.82856 0
M  V30 3978 O 374.964 -2.2812 -0.131671 0
M  V30 3979 C 375.174 -1.2113 3.27305 0
M  V30 3980 C 376.522 -1.63175 3.91994 0
M  V30 3981 O 377.546 -1.30616 3.31388 0
M  V30 3982 O 376.405 -2.23565 4.98679 0
M  V30 3983 H 373.499 -0.370441 0.739393 0
M  V30 3984 H 376.045 -0.017737 1.69691 0
M  V30 3985 H 374.817 -0.372937 3.89519 0
M  V30 3986 H 374.44 -2.02183 3.42356 0
M  V30 3987 N 375.437 -1.54477 -0.31217 0
M  V30 3988 C 376.685 -1.72884 -1.04668 0
M  V30 3989 C 377.006 -0.511477 -1.88173 0
M  V30 3990 O 376.276 0.474407 -1.90069 0
M  V30 3991 H 374.856 -0.637461 -0.389425 0
M  V30 3992 H 377.518 -1.91807 -0.345852 0
M  V30 3993 H 376.614 -2.61334 -1.70619 0
M  V30 3994 N 376.915 0.57481 -1.46744 0
M  V30 3995 C 377.862 1.68329 -1.57905 0
M  V30 3996 C 378.832 1.60625 -0.422927 0
M  V30 3997 O 380.017 1.79721 -0.640711 0
M  V30 3998 C 377.157 3.06665 -1.58274 0
M  V30 3999 C 376.27 3.24935 -2.84678 0
M  V30 4000 C 375.405 4.53566 -2.76499 0
M  V30 4001 C 374.444 4.65207 -3.97806 0
M  V30 4002 N 373.581 5.85172 -3.87967 0
M  V30 4003 H 378.421 1.58127 -2.52587 0
M  V30 4004 H 375.958 0.770552 -1.25303 0
M  V30 4005 H 377.916 3.86745 -1.56473 0
M  V30 4006 H 376.546 3.15745 -0.671194 0
M  V30 4007 H 375.598 2.38405 -2.96424 0
M  V30 4008 H 376.91 3.29403 -3.7456 0
M  V30 4009 H 376.064 5.41885 -2.72848 0
M  V30 4010 H 374.803 4.51548 -1.8427 0
M  V30 4011 H 373.808 3.75304 -4.0178 0
M  V30 4012 H 375.033 4.68997 -4.9114 0
M  V30 4013 H 372.979 5.84137 -2.98529 0
M  V30 4014 H 372.896 5.90943 -4.71511 0
M  V30 4015 H 374.164 6.759 -3.88303 0
M  V30 4016 N 378.394 1.34581 0.820102 0
M  V30 4017 C 379.64 1.27285 1.57881 0
M  V30 4018 C 379.973 -0.156137 1.93571 0
M  V30 4019 O 379.248 -1.10222 1.60254 0
M  V30 4020 C 379.531 2.16639 2.87645 0
M  V30 4021 C 379.384 3.68088 2.58517 0
M  V30 4022 C 380.703 2.05378 3.8924 0
M  V30 4023 H 377.822 0.463714 0.572833 0
M  V30 4024 H 380.464 1.64859 0.944539 0
M  V30 4025 H 378.614 1.84725 3.41773 0
M  V30 4026 H 380.286 4.10382 2.10676 0
M  V30 4027 H 378.529 3.89038 1.91917 0
M  V30 4028 H 379.2 4.2598 3.51063 0
M  V30 4029 H 381.676 2.33404 3.44473 0
M  V30 4030 H 380.552 2.7012 4.77835 0
M  V30 4031 H 380.813 1.0316 4.29896 0
M  V30 4032 N 379.872 -1.04064 1.18357 0
M  V30 4033 C 380.804 -2.12114 0.868358 0
M  V30 4034 C 381.817 -1.62247 -0.134045 0
M  V30 4035 O 383.006 -1.78253 0.0937933 0
M  V30 4036 C 380.106 -3.37773 0.276132 0
M  V30 4037 C 379.279 -4.16874 1.3242 0
M  V30 4038 C 378.338 -5.20861 0.747662 0
M  V30 4039 O 377.364 -5.51141 1.42239 0
M  V30 4040 N 378.566 -5.78715 -0.454823 0
M  V30 4041 H 381.331 -2.39748 1.79836 0
M  V30 4042 H 378.892 -1.20258 1.08396 0
M  V30 4043 H 380.884 -4.04513 -0.123133 0
M  V30 4044 H 379.454 -3.07581 -0.557895 0
M  V30 4045 H 378.674 -3.45456 1.89878 0
M  V30 4046 H 379.962 -4.66516 2.03078 0
M  V30 4047 H 379.36 -5.56415 -1.02073 0
M  V30 4048 H 377.917 -6.46921 -0.79601 0
M  V30 4049 N 381.35 -0.985608 -1.22978 0
M  V30 4050 C 382.28 -0.549649 -2.26939 0
M  V30 4051 C 383.261 0.419803 -1.64838 0
M  V30 4052 O 384.446 0.31203 -1.91677 0
M  V30 4053 C 381.576 0.143652 -3.47003 0
M  V30 4054 C 380.53 -0.743606 -4.21491 0
M  V30 4055 C 379.856 0.0822027 -5.34637 0
M  V30 4056 C 381.156 -2.03694 -4.80943 0
M  V30 4057 H 382.85 -1.41862 -2.63658 0
M  V30 4058 H 380.396 -0.683571 -1.26741 0
M  V30 4059 H 382.349 0.459985 -4.18882 0
M  V30 4060 H 381.073 1.04711 -3.09359 0
M  V30 4061 H 379.732 -1.04347 -3.51436 0
M  V30 4062 H 379.38 0.986359 -4.93234 0
M  V30 4063 H 379.08 -0.508377 -5.85397 0
M  V30 4064 H 380.604 0.392797 -6.09335 0
M  V30 4065 H 382.018 -1.78504 -5.44802 0
M  V30 4066 H 380.415 -2.57573 -5.42011 0
M  V30 4067 H 381.485 -2.72042 -4.01399 0
M  V30 4068 N 382.828 1.3818 -0.7579 0
M  V30 4069 C 383.76 2.2901 -0.0932177 0
M  V30 4070 C 384.773 1.47958 0.679136 0
M  V30 4071 O 385.962 1.70773 0.519514 0
M  V30 4072 C 383.062 3.26953 0.89192 0
M  V30 4073 C 382.235 4.37045 0.176303 0
M  V30 4074 C 381.294 5.15148 1.07281 0
M  V30 4075 O 380.32 5.66616 0.541728 0
M  V30 4076 N 381.522 5.28542 2.40049 0
M  V30 4077 H 384.287 2.86694 -0.873303 0
M  V30 4078 H 381.848 1.50007 -0.609054 0
M  V30 4079 H 383.84 3.76083 1.49479 0
M  V30 4080 H 382.41 2.70136 1.57306 0
M  V30 4081 H 381.63 3.89493 -0.607328 0
M  V30 4082 H 382.918 5.07801 -0.318718 0
M  V30 4083 H 382.316 4.88285 2.85647 0
M  V30 4084 H 380.873 5.8103 2.95376 0
M  V30 4085 N 384.306 0.507319 1.49211 0
M  V30 4086 C 385.555 -0.0368315 2.01666 0
M  V30 4087 C 385.868 -1.37459 1.39156 0
M  V30 4088 O 387.074 -2.00579 1.82976 0
M  V30 4089 C 385.53 -0.116089 3.59713 0
M  V30 4090 C 385.138 1.2154 4.31198 0
M  V30 4091 C 386.882 -0.610268 4.2009 0
M  V30 4092 C 384.789 1.09796 5.81119 0
M  V30 4093 H 383.719 -0.0175376 0.753796 0
M  V30 4094 H 386.37 0.647691 1.71689 0
M  V30 4095 H 384.752 -0.8652 3.86433 0
M  V30 4096 H 385.926 1.9783 4.16173 0
M  V30 4097 H 384.241 1.64352 3.82593 0
M  V30 4098 H 386.838 -0.715742 5.29888 0
M  V30 4099 H 387.181 -1.61064 3.8388 0
M  V30 4100 H 387.714 0.0824916 3.97714 0
M  V30 4101 H 384.453 2.0728 6.21864 0
M  V30 4102 H 383.973 0.376058 5.9862 0
M  V30 4103 H 385.652 0.779281 6.4229 0
M  V30 4104 N 385.784 -1.5574 0.241426 0
M  V30 4105 C 387.195 -1.84842 -0.262755 0
M  V30 4106 C 387.546 -1.16317 -1.58003 0
M  V30 4107 O 386.671 -0.439653 -2.11887 0
M  V30 4108 C 387.266 -3.35332 -0.483523 0
M  V30 4109 C 385.825 -3.6468 -0.931977 0
M  V30 4110 C 384.972 -2.77299 -0.0061151 0
M  V30 4111 H 387.923 -1.51761 0.464129 0
M  V30 4112 H 387.944 -3.56615 -1.32688 0
M  V30 4113 H 387.456 -3.85178 0.47537 0
M  V30 4114 H 385.557 -3.20307 -1.90353 0
M  V30 4115 H 385.67 -4.72498 -0.792628 0
M  V30 4116 H 384.034 -2.49408 -0.516503 0
M  V30 4117 H 384.817 -3.2995 0.948052 0
M  V30 4118 N 387.262 0.0317525 -1.57568 0
M  V30 4119 C 388.225 1.01783 -2.0536 0
M  V30 4120 C 389.225 1.29203 -0.957253 0
M  V30 4121 O 390.415 1.24251 -1.22095 0
M  V30 4122 C 387.547 2.35137 -2.46827 0
M  V30 4123 H 388.74 0.605062 -2.93733 0
M  V30 4124 H 386.293 0.278514 -1.53799 0
M  V30 4125 H 387.028 2.81168 -1.61602 0
M  V30 4126 H 386.813 2.16566 -3.26866 0
M  V30 4127 H 388.303 3.05938 -2.84239 0
M  V30 4128 N 388.74 1.54641 0.303973 0
M  V30 4129 C 390.017 1.64455 1.05896 0
M  V30 4130 C 390.397 0.490923 2.05312 0
M  V30 4131 O 389.745 -0.512685 2.22674 0
M  V30 4132 C 389.955 3.02331 1.74347 0
M  V30 4133 C 391.303 3.59045 2.26653 0
M  V30 4134 O 392.327 3.04764 1.84384 0
M  V30 4135 O 391.186 4.54081 3.04093 0
M  V30 4136 H 388.28 0.666729 0.489287 0
M  V30 4137 H 390.826 1.66986 0.302298 0
M  V30 4138 H 389.598 3.77734 1.02142 0
M  V30 4139 H 389.221 3.03565 2.56777 0
M  V30 4140 N 390.218 -0.567019 1.47046 0
M  V30 4141 C 391.148 -1.68482 1.61667 0
M  V30 4142 C 392.129 -1.6358 0.466418 0
M  V30 4143 O 393.314 -1.81354 0.694574 0
M  V30 4144 C 390.444 -3.07124 1.62148 0
M  V30 4145 C 389.398 -3.26867 2.76301 0
M  V30 4146 C 388.724 -4.66196 2.61849 0
M  V30 4147 C 390.024 -3.13186 4.17986 0
M  V30 4148 H 391.718 -1.56502 2.5524 0
M  V30 4149 H 389.264 -0.751486 1.22836 0
M  V30 4150 H 391.217 -3.8516 1.70968 0
M  V30 4151 H 389.941 -3.2004 0.651287 0
M  V30 4152 H 388.6 -2.51237 2.66975 0
M  V30 4153 H 388.248 -4.75898 1.62879 0
M  V30 4154 H 387.948 -4.80356 3.38425 0
M  V30 4155 H 389.472 -5.46379 2.72584 0
M  V30 4156 H 390.886 -3.81049 4.2834 0
M  V30 4157 H 389.283 -3.3886 4.95272 0
M  V30 4158 H 390.353 -2.10057 4.3704 0
M  V30 4159 N 391.696 -1.35014 -0.812953 0
M  V30 4160 C 392.973 -1.18502 -1.55617 0
M  V30 4161 C 393.353 0.238421 -2.09749 0
M  V30 4162 O 392.701 1.2411 -1.91857 0
M  V30 4163 C 392.911 -2.24783 -2.66971 0
M  V30 4164 C 394.259 -2.60268 -3.35478 0
M  V30 4165 O 395.283 -2.23648 -2.77236 0
M  V30 4166 O 394.142 -3.2321 -4.40678 0
M  V30 4167 H 391.236 -0.459984 -0.687272 0
M  V30 4168 H 393.782 -1.46677 -0.853464 0
M  V30 4169 H 392.554 -3.20284 -2.24798 0
M  V30 4170 H 392.177 -1.97841 -3.44884 0
M  V30 4171 N 393.175 1.03435 -1.18907 0
M  V30 4172 C 394.085 2.15075 -0.937015 0
M  V30 4173 C 395.101 1.73706 0.101085 0
M  V30 4174 O 396.277 2.01232 -0.0822948 0
M  V30 4175 C 393.342 3.43458 -0.473057 0
M  V30 4176 C 392.403 3.99172 -1.57989 0
M  V30 4177 C 391.636 5.21427 -1.13797 0
M  V30 4178 O 391.859 5.704 0.000725941 0
M  V30 4179 O 390.793 5.69837 -1.9383 0
M  V30 4180 H 394.619 2.39198 -1.87131 0
M  V30 4181 H 392.204 1.13506 -0.971427 0
M  V30 4182 H 394.086 4.20811 -0.222702 0
M  V30 4183 H 392.761 3.20793 0.432869 0
M  V30 4184 H 391.668 3.23178 -1.88433 0
M  V30 4185 H 393.001 4.2619 -2.46217 0
M  V30 4186 N 394.653 0.992116 1.22453 0
M  V30 4187 C 395.93 0.583508 1.86694 0
M  V30 4188 C 396.31 -0.9392 1.89056 0
M  V30 4189 O 395.658 -1.82081 1.38053 0
M  V30 4190 C 395.868 1.20304 3.2761 0
M  V30 4191 C 397.216 1.30308 4.0411 0
M  V30 4192 O 398.24 1.15737 3.36873 0
M  V30 4193 O 397.099 1.53615 5.24466 0
M  V30 4194 H 394.193 0.198129 0.802916 0
M  V30 4195 H 396.739 1.08794 1.30238 0
M  V30 4196 H 395.511 2.24461 3.2052 0
M  V30 4197 H 395.134 0.684144 3.9167 0
M  V30 4198 N 396.131 -1.37776 0.765217 0
M  V30 4199 C 397.377 -2.00145 0.327072 0
M  V30 4200 C 397.71 -1.60607 -1.09175 0
M  V30 4201 O 396.985 -0.849127 -1.74986 0
M  V30 4202 C 397.268 -3.57109 0.46319 0
M  V30 4203 C 397.121 -4.06576 1.92395 0
M  V30 4204 C 398.44 -4.39888 -0.136473 0
M  V30 4205 H 395.559 -0.727113 0.120316 0
M  V30 4206 H 398.201 -1.63549 0.967039 0
M  V30 4207 H 396.351 -3.88414 -0.0816358 0
M  V30 4208 H 398.023 -3.85864 2.52798 0
M  V30 4209 H 396.266 -3.59011 2.43503 0
M  V30 4210 H 396.937 -5.15639 1.97028 0
M  V30 4211 H 399.413 -4.14803 0.328317 0
M  V30 4212 H 398.289 -5.48899 -0.0110582 0
M  V30 4213 H 398.55 -4.24758 -1.22608 0
M  V30 4214 N 397.609 -0.515225 -1.4894 0
M  V30 4215 C 398.541 0.292481 -2.27326 0
M  V30 4216 C 399.554 0.917838 -1.3446 0
M  V30 4217 O 400.743 0.798772 -1.5963 0
M  V30 4218 C 397.843 1.42803 -3.07344 0
M  V30 4219 C 397.016 0.907347 -4.27885 0
M  V30 4220 C 396.075 1.92222 -4.89834 0
M  V30 4221 O 395.101 1.48506 -5.49486 0
M  V30 4222 N 396.303 3.25355 -4.80754 0
M  V30 4223 H 399.068 -0.379721 -2.97285 0
M  V30 4224 H 396.629 -0.348638 -1.58102 0
M  V30 4225 H 398.621 2.10481 -3.45658 0
M  V30 4226 H 397.191 2.00414 -2.39902 0
M  V30 4227 H 396.411 0.0550218 -3.94162 0
M  V30 4228 H 397.699 0.538108 -5.05946 0
M  V30 4229 H 397.097 3.6355 -4.33414 0
M  V30 4230 H 395.654 3.88707 -5.23211 0
M  V30 4231 N 399.087 1.5561 -0.249682 0
M  V30 4232 C 400.017 2.24477 0.642826 0
M  V30 4233 C 400.998 1.22601 1.17911 0
M  V30 4234 O 402.183 1.5126 1.21795 0
M  V30 4235 C 399.313 2.94638 1.83863 0
M  V30 4236 C 398.267 4.03227 1.435 0
M  V30 4237 C 397.593 4.60828 2.71186 0
M  V30 4238 C 398.893 5.18796 0.604002 0
M  V30 4239 H 400.587 2.99321 0.0685625 0
M  V30 4240 H 398.133 1.43965 0.0315363 0
M  V30 4241 H 400.086 3.41517 2.46868 0
M  V30 4242 H 398.81 2.17287 2.43832 0
M  V30 4243 H 397.469 3.57121 0.828275 0
M  V30 4244 H 397.117 3.80174 3.29358 0
M  V30 4245 H 396.817 5.34132 2.44901 0
M  V30 4246 H 398.341 5.10442 3.35084 0
M  V30 4247 H 399.755 5.61883 1.13842 0
M  V30 4248 H 398.152 5.98506 0.437097 0
M  V30 4249 H 399.222 4.83384 -0.383147 0
M  V30 4250 N 400.565 -0.0233959 1.57583 0
M  V30 4251 C 401.793 -0.724682 1.93794 0
M  V30 4252 C 402.208 -1.68588 0.849912 0
M  V30 4253 O 401.565 -1.81676 -0.173204 0
M  V30 4254 C 401.616 -1.47684 3.29957 0
M  V30 4255 O 401.337 -0.554222 4.3458 0
M  V30 4256 C 402.838 -2.27477 3.80485 0
M  V30 4257 H 400.058 -0.203317 0.639455 0
M  V30 4258 H 402.602 0.0207653 2.04489 0
M  V30 4259 H 400.757 -2.17412 3.20641 0
M  V30 4260 H 401.171 -1.08232 5.13212 0
M  V30 4261 H 402.645 -2.7564 4.78254 0
M  V30 4262 H 403.122 -3.09144 3.11972 0
M  V30 4263 H 403.728 -1.62813 3.92902 0
M  V30 4264 N 402.043 -1.548 -0.295768 0
M  V30 4265 C 402.973 -1.89115 -1.36959 0
M  V30 4266 C 403.954 -0.75059 -1.52644 0
M  V30 4267 O 405.139 -1.00678 -1.66065 0
M  V30 4268 C 402.269 -2.14307 -2.73295 0
M  V30 4269 C 401.223 -3.30151 -2.72368 0
M  V30 4270 C 400.549 -3.40772 -4.12042 0
M  V30 4271 C 401.849 -4.67126 -2.33646 0
M  V30 4272 H 403.543 -2.79053 -1.08488 0
M  V30 4273 H 401.089 -1.34266 -0.520443 0
M  V30 4274 H 403.042 -2.36898 -3.48507 0
M  V30 4275 H 401.766 -1.21145 -3.03301 0
M  V30 4276 H 400.425 -3.0749 -1.99613 0
M  V30 4277 H 400.073 -2.45117 -4.39234 0
M  V30 4278 H 399.773 -4.18645 -4.12322 0
M  V30 4279 H 401.297 -3.6563 -4.89027 0
M  V30 4280 H 402.711 -4.89414 -2.98575 0
M  V30 4281 H 401.108 -5.47751 -2.45129 0
M  V30 4282 H 402.178 -4.67489 -1.28772 0
M  V30 4283 N 403.521 0.559213 -1.47345 0
M  V30 4284 C 404.937 0.884943 -1.32819 0
M  V30 4285 C 405.137 1.98988 -0.317173 0
M  V30 4286 O 404.193 2.51031 0.272011 0
M  V30 4287 C 405.506 1.28007 -2.72093 0
M  V30 4288 C 407.054 1.39161 -2.80363 0
M  V30 4289 C 407.529 1.82031 -4.20272 0
M  V30 4290 N 409.02 1.89185 -4.22804 0
M  V30 4291 C 409.755 2.2368 -5.27973 0
M  V30 4292 N 409.251 2.56802 -6.43447 0
M  V30 4293 N 411.044 2.24436 -5.15349 0
M  V30 4294 H 403.195 -0.170304 -2.11716 0
M  V30 4295 H 405.458 -0.0135247 -0.947904 0
M  V30 4296 H 405.164 0.542027 -3.47498 0
M  V30 4297 H 405.038 2.23665 -3.03733 0
M  V30 4298 H 407.425 2.12048 -2.05231 0
M  V30 4299 H 407.506 0.41696 -2.52379 0
M  V30 4300 H 407.15 1.09715 -4.95908 0
M  V30 4301 H 407.08 2.80495 -4.45679 0
M  V30 4302 H 409.571 1.65982 -3.39497 0
M  V30 4303 H 409.884 2.82144 -7.19454 0
M  V30 4304 H 408.229 2.54387 -6.46771 0
M  V30 4305 H 411.42 1.97998 -4.24163 0
M  V30 4306 H 411.593 2.50989 -5.97418 0
M  V30 4307 N 404.999 1.35443 0.805782 0
M  V30 4308 C 405.947 1.28465 1.93906 0
M  V30 4309 C 406.941 0.17943 1.68447 0
M  V30 4310 O 408.147 0.345459 1.76654 0
M  V30 4311 H 404.522 0.399528 0.637088 0
M  V30 4312 H 406.493 2.24206 1.96912 0
M  V30 4313 C 405.242 1.07432 3.30687 0
M  V30 4314 H 404.565 1.91716 3.50835 0
M  V30 4315 H 406.005 1.06591 4.10383 0
M  V30 4316 C 404.464 -0.22179 3.36169 0
M  V30 4317 O 404.994 -1.21731 3.82811 0
M  V30 4318 N 403.2 -0.260841 2.89427 0
M  V30 4319 H 402.747 0.549884 2.51663 0
M  V30 4320 H 402.705 -1.12777 2.93477 0
M  V30 4321 N 406.477 -1.02803 1.19454 0
M  V30 4322 C 407.41 -2.107 0.876396 0
M  V30 4323 C 408.388 -1.61741 -0.166897 0
M  V30 4324 O 409.572 -1.88451 -0.0430195 0
M  V30 4325 C 406.699 -3.37262 0.311758 0
M  V30 4326 C 405.745 -4.05093 1.33424 0
M  V30 4327 S 406.578 -4.50498 2.89503 0
M  V30 4328 C 407.734 -5.80277 2.34584 0
M  V30 4329 H 407.967 -2.37362 1.79016 0
M  V30 4330 H 405.5 -1.15755 1.02177 0
M  V30 4331 H 407.458 -4.10499 -0.00748752 0
M  V30 4332 H 406.119 -3.08693 -0.58032 0
M  V30 4333 H 405.312 -4.9611 0.888302 0
M  V30 4334 H 404.914 -3.3803 1.60037 0
M  V30 4335 H 407.206 -6.54873 1.73633 0
M  V30 4336 H 408.149 -6.29651 3.23952 0
M  V30 4337 H 408.557 -5.3599 1.77131 0
M  V30 4338 N 407.956 -0.998596 -1.21925 0
M  V30 4339 C 408.919 -0.558679 -2.22287 0
M  V30 4340 C 409.919 0.361525 -1.56683 0
M  V30 4341 O 411.109 0.152695 -1.73529 0
M  V30 4342 C 408.241 0.18661 -3.40389 0
M  V30 4343 H 409.434 -1.4463 -2.62721 0
M  V30 4344 H 406.987 -0.786413 -1.35075 0
M  V30 4345 H 407.722 1.08996 -3.05435 0
M  V30 4346 H 407.507 -0.474188 -3.89222 0
M  V30 4347 H 408.997 0.482367 -4.14805 0
M  V30 4348 N 409.434 1.37368 -0.772513 0
M  V30 4349 C 410.364 2.32856 -0.173304 0
M  V30 4350 C 411.345 1.55818 0.682262 0
M  V30 4351 O 412.53 1.84052 0.619566 0
M  V30 4352 C 409.66 3.40048 0.706007 0
M  V30 4353 C 408.614 4.27973 -0.0483144 0
M  V30 4354 C 407.94 5.26184 0.950491 0
M  V30 4355 C 409.24 5.07665 -1.22776 0
M  V30 4356 H 410.934 2.83217 -0.971002 0
M  V30 4357 H 408.48 1.3617 -0.468377 0
M  V30 4358 H 410.433 4.05827 1.13501 0
M  V30 4359 H 409.157 2.88214 1.53623 0
M  V30 4360 H 407.816 3.63726 -0.458107 0
M  V30 4361 H 407.464 4.7063 1.77529 0
M  V30 4362 H 407.164 5.85872 0.450314 0
M  V30 4363 H 408.688 5.94838 1.37842 0
M  V30 4364 H 410.102 5.66578 -0.875366 0
M  V30 4365 H 408.499 5.76681 -1.66007 0
M  V30 4366 H 409.569 4.40294 -2.03149 0
M  V30 4367 N 410.912 0.523116 1.48665 0
M  V30 4368 C 411.822 -0.247406 2.33292 0
M  V30 4369 C 412.838 -0.945769 1.46052 0
M  V30 4370 O 414.014 -0.922253 1.79043 0
M  V30 4371 C 411.079 -1.28487 3.22012 0
M  V30 4372 C 410.14 -0.597592 4.2512 0
M  V30 4373 C 409.373 -1.58563 5.09601 0
M  V30 4374 O 409.596 -2.81763 4.95949 0
M  V30 4375 O 408.53 -1.12879 5.91221 0
M  V30 4376 H 412.356 0.445869 3.00409 0
M  V30 4377 H 409.941 0.284128 1.46673 0
M  V30 4378 H 411.823 -1.88459 3.7691 0
M  V30 4379 H 410.498 -1.96068 2.57564 0
M  V30 4380 H 409.405 0.0424407 3.74076 0
M  V30 4381 H 410.738 0.0361517 4.92187 0
M  V30 4382 N 412.39 -1.55475 0.257931 0
M  V30 4383 C 413.353 -2.20551 -0.623706 0
M  V30 4384 C 414.353 -1.17809 -1.09443 0
M  V30 4385 O 415.543 -1.42823 -0.997362 0
M  V30 4386 C 412.675 -2.85784 -1.8585 0
M  V30 4387 H 413.868 -2.99848 -0.0557743 0
M  V30 4388 H 411.421 -1.56298 0.0084422 0
M  V30 4389 H 412.156 -2.10453 -2.46739 0
M  V30 4390 H 411.941 -3.61057 -1.52907 0
M  V30 4391 H 413.431 -3.35553 -2.48584 0
M  V30 4392 N 413.868 0.0150385 -1.57593 0
M  V30 4393 C 415.115 0.703001 -1.89906 0
M  V30 4394 C 415.443 1.74604 -0.856944 0
M  V30 4395 O 414.698 1.95197 0.140287 0
M  V30 4396 C 414.997 1.39686 -3.28972 0
M  V30 4397 C 414.663 0.488457 -4.48246 0
M  V30 4398 C 413.325 0.2383 -4.8061 0
M  V30 4399 C 415.677 -0.137881 -5.21018 0
M  V30 4400 C 413.005 -0.646738 -5.83125 0
M  V30 4401 C 415.357 -1.0107 -6.24474 0
M  V30 4402 C 414.021 -1.27019 -6.55303 0
M  V30 4403 H 413.291 0.257246 -0.694914 0
M  V30 4404 H 415.938 -0.037259 -1.91464 0
M  V30 4405 H 414.243 2.21079 -3.23468 0
M  V30 4406 H 415.94 1.93495 -3.51227 0
M  V30 4407 H 412.53 0.693593 -4.22951 0
M  V30 4408 H 416.714 0.0423953 -4.96282 0
M  V30 4409 H 411.97 -0.855937 -6.05379 0
M  V30 4410 H 416.144 -1.50247 -6.79999 0
M  V30 4411 H 413.771 -1.95769 -7.3456 0
M  V30 4412 N 415.346 1.54954 0.287554 0
M  V30 4413 C 416.293 1.86834 1.35505 0
M  V30 4414 C 417.263 0.718452 1.49758 0
M  V30 4415 O 418.448 0.968358 1.644 0
M  V30 4416 C 415.588 2.13303 2.71286 0
M  V30 4417 C 414.701 3.40883 2.65373 0
M  V30 4418 C 413.836 3.57125 3.93236 0
M  V30 4419 C 412.875 4.78449 3.81776 0
M  V30 4420 N 412.012 4.91426 5.01443 0
M  V30 4421 H 416.852 2.77889 1.07619 0
M  V30 4422 H 414.389 1.37593 0.520241 0
M  V30 4423 H 416.347 2.26646 3.50267 0
M  V30 4424 H 414.977 1.25499 2.97405 0
M  V30 4425 H 414.029 3.36088 1.78182 0
M  V30 4426 H 415.341 4.29993 2.52799 0
M  V30 4427 H 414.495 3.70207 4.80658 0
M  V30 4428 H 413.234 2.66173 4.0866 0
M  V30 4429 H 412.239 4.65386 2.92738 0
M  V30 4430 H 413.464 5.70822 3.67884 0
M  V30 4431 H 411.41 4.03401 5.17304 0
M  V30 4432 H 411.327 5.74559 4.91343 0
M  V30 4433 H 412.595 5.08879 5.90477 0
M  V30 4434 N 416.824 -0.551391 1.4764 0
M  V30 4435 C 417.787 -1.64007 1.60107 0
M  V30 4436 C 418.787 -1.53601 0.47576 0
M  V30 4437 O 419.977 -1.57655 0.740988 0
M  V30 4438 C 417.109 -3.03569 1.55108 0
M  V30 4439 H 418.302 -1.543 2.57161 0
M  V30 4440 H 415.855 -0.771776 1.35917 0
M  V30 4441 H 416.59 -3.18804 0.594519 0
M  V30 4442 H 416.375 -3.12532 2.36783 0
M  V30 4443 H 417.865 -3.82762 1.66982 0
M  V30 4444 N 418.302 -1.35869 -0.798587 0
M  V30 4445 C 419.53 -1.32722 -1.58722 0
M  V30 4446 C 419.945 0.0935631 -1.88568 0
M  V30 4447 O 419.302 1.04784 -1.49421 0
M  V30 4448 C 419.353 -2.13974 -2.91371 0
M  V30 4449 O 419.074 -3.50514 -2.62815 0
M  V30 4450 C 420.575 -2.18504 -3.85708 0
M  V30 4451 H 417.795 -0.45562 -0.492596 0
M  V30 4452 H 420.339 -1.78837 -0.991843 0
M  V30 4453 H 418.494 -1.71438 -3.47402 0
M  V30 4454 H 418.908 -3.92806 -3.47568 0
M  V30 4455 H 420.382 -2.79732 -4.75872 0
M  V30 4456 H 420.859 -1.18597 -4.22885 0
M  V30 4457 H 421.465 -2.61236 -3.35612 0
M  V30 4458 N 419.78 1.02168 -1.19998 0
M  V30 4459 C 421.057 1.72816 -0.916191 0
M  V30 4460 C 421.437 2.03081 0.576325 0
M  V30 4461 O 420.785 1.69122 1.53656 0
M  V30 4462 C 420.995 2.9997 -1.78378 0
M  V30 4463 C 422.343 3.73336 -2.02251 0
M  V30 4464 O 423.367 3.09914 -1.75589 0
M  V30 4465 O 422.226 4.87371 -2.47249 0
M  V30 4466 H 419.32 0.752924 -0.342103 0
M  V30 4467 H 421.866 1.08062 -1.30846 0
M  V30 4468 H 420.638 2.73888 -2.79466 0
M  V30 4469 H 420.261 3.72464 -1.39126 0
M  V30 4470 N 421.258 1.00505 1.21394 0
M  V30 4471 C 422.498 0.696149 1.9218 0
M  V30 4472 C 422.862 -0.759099 1.76357 0
M  V30 4473 O 424.063 -1.17998 2.41516 0
M  V30 4474 C 422.334 1.10571 3.39866 0
M  V30 4475 S 423.893 0.91702 4.29111 0
M  V30 4476 H 420.711 0.254147 0.664026 0
M  V30 4477 H 423.313 1.28988 1.46909 0
M  V30 4478 H 422.017 2.16096 3.489 0
M  V30 4479 H 421.548 0.504268 3.90155 0
M  V30 4480 H 423.563 -0.185855 4.95852 0
M  V30 4481 N 422.737 -1.36956 0.779787 0
M  V30 4482 C 423.962 -2.04283 0.358224 0
M  V30 4483 C 424.387 -1.58422 -1.01411 0
M  V30 4484 O 423.745 -0.748179 -1.65142 0
M  V30 4485 C 423.793 -3.58152 0.419479 0
M  V30 4486 O 422.897 -4.08342 -0.577142 0
M  V30 4487 H 422.238 -0.645967 0.153698 0
M  V30 4488 H 424.768 -1.75108 1.05822 0
M  V30 4489 H 424.778 -4.07041 0.279636 0
M  V30 4490 H 423.453 -3.90886 1.42061 0
M  V30 4491 H 422.03 -3.70751 -0.399755 0
M  V30 4492 N 424.215 -0.530993 -1.48385 0
M  V30 4493 C 425.463 0.00273189 -2.021 0
M  V30 4494 C 425.784 1.34672 -1.41027 0
M  V30 4495 O 425.054 1.8724 -0.576012 0
M  V30 4496 H 423.634 0.00399774 -0.746989 0
M  V30 4497 H 426.296 -0.695054 -1.82085 0
M  V30 4498 H 425.392 0.11031 -3.11905 0
M  V30 4499 N 425.693 1.55336 -0.266172 0
M  V30 4500 C 426.623 2.25146 0.618981 0
M  V30 4501 C 427.604 1.23845 1.16604 0
M  V30 4502 O 428.789 1.52544 1.20183 0
M  V30 4503 C 425.919 2.96572 1.80728 0
M  V30 4504 C 424.873 4.04726 1.39215 0
M  V30 4505 C 424.199 4.63678 2.66283 0
M  V30 4506 C 425.499 5.19407 0.548942 0
M  V30 4507 H 427.193 2.99377 0.0368116 0
M  V30 4508 H 424.739 1.43991 0.0162651 0
M  V30 4509 H 426.692 3.44116 2.43232 0
M  V30 4510 H 425.416 2.19861 2.41514 0
M  V30 4511 H 424.075 3.57979 0.790351 0
M  V30 4512 H 423.723 3.83646 3.25308 0
M  V30 4513 H 423.423 5.367 2.39222 0
M  V30 4514 H 424.947 5.13967 3.29651 0
M  V30 4515 H 426.361 5.63059 1.07876 0
M  V30 4516 H 424.758 5.98936 0.373593 0
M  V30 4517 H 425.828 4.8295 -0.434394 0
M  V30 4518 N 427.171 -0.0066808 1.57599 0
M  V30 4519 C 428.417 -0.693947 1.90558 0
M  V30 4520 C 428.75 -1.73792 0.866594 0
M  V30 4521 O 428.025 -1.94156 -0.115548 0
M  V30 4522 C 428.308 -1.34317 3.34112 0
M  V30 4523 C 428.161 -0.311189 4.48722 0
M  V30 4524 C 429.48 -2.27116 3.7697 0
M  V30 4525 H 426.599 -0.250803 0.693013 0
M  V30 4526 H 429.241 0.043242 1.89951 0
M  V30 4527 H 427.391 -1.9715 3.3476 0
M  V30 4528 H 429.063 0.316944 4.6021 0
M  V30 4529 H 427.306 0.367253 4.32243 0
M  V30 4530 H 427.977 -0.804366 5.46108 0
M  V30 4531 H 430.453 -1.74306 3.77831 0
M  V30 4532 H 429.329 -2.69511 4.78179 0
M  V30 4533 H 429.59 -3.14743 3.10466 0
M  V30 4534 N 428.649 -1.55105 -0.279332 0
M  V30 4535 C 430.065 -1.46803 -0.626187 0
M  V30 4536 C 430.265 -0.676939 -1.89789 0
M  V30 4537 O 429.321 -0.19326 -2.51759 0
M  V30 4538 C 430.634 -2.90962 -0.759034 0
M  V30 4539 C 432.182 -3.01138 -0.853504 0
M  V30 4540 C 432.657 -4.46539 -1.01818 0
M  V30 4541 N 434.148 -4.50341 -1.08386 0
M  V30 4542 C 434.883 -5.60053 -1.22996 0
M  V30 4543 N 434.379 -6.79645 -1.34366 0
M  V30 4544 N 436.172 -5.47783 -1.26056 0
M  V30 4545 H 428.323 -2.04996 0.555921 0
M  V30 4546 H 430.586 -0.929325 0.187239 0
M  V30 4547 H 430.292 -3.51544 0.104852 0
M  V30 4548 H 430.166 -3.39619 -1.64131 0
M  V30 4549 H 432.553 -2.40658 -1.70786 0
M  V30 4550 H 432.634 -2.55745 0.0532466 0
M  V30 4551 H 432.278 -5.0762 -0.168504 0
M  V30 4552 H 432.208 -4.89583 -1.93948 0
M  V30 4553 H 434.699 -3.64191 -1.00864 0
M  V30 4554 H 435.012 -7.59012 -1.4533 0
M  V30 4555 H 433.357 -6.82469 -1.31382 0
M  V30 4556 H 436.548 -4.53294 -1.168 0
M  V30 4557 H 436.721 -6.33331 -1.37098 0
M  V30 4558 N 430.127 0.543554 -1.4793 0
M  V30 4559 C 431.09 1.63156 -1.60975 0
M  V30 4560 C 432.09 1.53346 -0.483899 0
M  V30 4561 O 433.28 1.5726 -0.749339 0
M  V30 4562 C 430.412 3.02743 -1.56716 0
M  V30 4563 H 431.605 1.52934 -2.57975 0
M  V30 4564 H 429.158 0.764557 -1.36324 0
M  V30 4565 H 429.893 3.18484 -0.611418 0
M  V30 4566 H 429.678 3.11272 -2.38438 0
M  V30 4567 H 431.168 3.81871 -1.6901 0
M  V30 4568 N 431.605 1.3629 0.791371 0
M  V30 4569 C 432.882 1.20962 1.53712 0
M  V30 4570 C 433.262 -0.205021 2.10102 0
M  V30 4571 O 432.61 -1.21042 1.93807 0
M  V30 4572 C 432.82 2.29002 2.63361 0
M  V30 4573 C 434.168 2.65572 3.31295 0
M  V30 4574 O 435.192 2.2803 2.73643 0
M  V30 4575 O 434.051 3.3018 4.35481 0
M  V30 4576 H 431.145 0.47086 0.679867 0
M  V30 4577 H 433.691 1.48016 0.830021 0
M  V30 4578 H 432.463 3.2382 2.19674 0
M  V30 4579 H 432.086 2.03303 3.41692 0
M  V30 4580 N 433.083 -1.0153 1.20538 0
M  V30 4581 C 434.33 -1.75149 1.01633 0
M  V30 4582 C 434.658 -1.89189 -0.451399 0
M  V30 4583 O 433.913 -1.41551 -1.35136 0
M  V30 4584 C 434.212 -3.17213 1.64654 0
M  V30 4585 C 433.878 -3.23146 3.14464 0
M  V30 4586 C 432.54 -3.24472 3.55347 0
M  V30 4587 C 434.892 -3.21207 4.10458 0
M  V30 4588 C 432.22 -3.21532 4.90748 0
M  V30 4589 C 434.572 -3.19808 5.45807 0
M  V30 4590 C 433.236 -3.19439 5.86102 0
M  V30 4591 H 432.506 -0.640914 0.3719 0
M  V30 4592 H 435.153 -1.19071 1.49981 0
M  V30 4593 H 433.458 -3.76457 1.08571 0
M  V30 4594 H 435.155 -3.72871 1.4754 0
M  V30 4595 H 431.745 -3.2285 2.81897 0
M  V30 4596 H 435.929 -3.19351 3.79906 0
M  V30 4597 H 431.185 -3.19578 5.21229 0
M  V30 4598 H 435.359 -3.1726 6.19935 0
M  V30 4599 H 432.986 -3.16915 6.90991 0
M  V30 4600 N 434.561 -1.01147 -1.20859 0
M  V30 4601 C 435.808 -0.697865 -1.90095 0
M  V30 4602 C 436.136 0.772014 -1.78522 0
M  V30 4603 O 435.391 1.57595 -1.16027 0
M  V30 4604 C 435.69 -1.0727 -3.40922 0
M  V30 4605 C 435.356 -2.53792 -3.72693 0
M  V30 4606 C 434.018 -2.93829 -3.81075 0
M  V30 4607 C 436.37 -3.48674 -3.87397 0
M  V30 4608 C 433.698 -4.27696 -4.01613 0
M  V30 4609 C 436.05 -4.82223 -4.09444 0
M  V30 4610 C 434.714 -5.21973 -4.16054 0
M  V30 4611 H 433.984 -0.255367 -0.695607 0
M  V30 4612 H 436.631 -1.27111 -1.43231 0
M  V30 4613 H 434.936 -0.417799 -3.89566 0
M  V30 4614 H 436.633 -0.807818 -3.92779 0
M  V30 4615 H 433.223 -2.21768 -3.66765 0
M  V30 4616 H 437.407 -3.18904 -3.80281 0
M  V30 4617 H 432.663 -4.58055 -4.04964 0
M  V30 4618 H 436.837 -5.55672 -4.19763 0
M  V30 4619 H 434.464 -6.25717 -4.31721 0
M  V30 4620 N 436.039 1.36541 -0.78704 0
M  V30 4621 C 437.285 1.99599 -0.358872 0
M  V30 4622 C 437.618 1.62323 1.06606 0
M  V30 4623 O 436.893 0.876858 1.73613 0
M  V30 4624 C 437.176 3.56327 -0.519944 0
M  V30 4625 C 437.029 4.03464 -1.98839 0
M  V30 4626 C 438.348 4.4005 0.0664737 0
M  V30 4627 H 435.467 0.725107 -0.131869 0
M  V30 4628 H 438.109 1.6199 -0.992936 0
M  V30 4629 H 436.259 3.88495 0.0198321 0
M  V30 4630 H 437.931 3.81793 -2.58905 0
M  V30 4631 H 436.174 3.55092 -2.49183 0
M  V30 4632 H 436.845 5.12439 -2.05207 0
M  V30 4633 H 439.321 4.14228 -0.394267 0
M  V30 4634 H 438.197 5.48847 -0.0762682 0
M  V30 4635 H 438.458 4.26655 1.15835 0
M  V30 4636 N 437.518 0.538854 1.48102 0
M  V30 4637 C 438.746 0.0123136 2.06896 0
M  V30 4638 C 439.161 -1.27312 1.39417 0
M  V30 4639 O 438.518 -1.75949 0.484582 0
M  V30 4640 C 438.569 -0.206118 3.60912 0
M  V30 4641 O 438.29 1.0284 4.25859 0
M  V30 4642 C 439.791 -0.772033 4.36526 0
M  V30 4643 H 437.011 0.0375239 0.66995 0
M  V30 4644 H 439.555 0.747032 1.90367 0
M  V30 4645 H 437.71 -0.89091 3.77017 0
M  V30 4646 H 438.124 0.814654 5.18135 0
M  V30 4647 H 439.598 -0.874251 5.45033 0
M  V30 4648 H 440.075 -1.77904 4.01555 0
M  V30 4649 H 440.681 -0.123526 4.25121 0
M  V30 4650 N 438.996 -1.55193 0.274407 0
M  V30 4651 C 439.906 -2.26164 -0.623473 0
M  V30 4652 C 440.922 -1.28729 -1.17068 0
M  V30 4653 O 442.098 -1.61663 -1.20112 0
M  V30 4654 C 439.163 -2.96833 -1.7914 0
M  V30 4655 C 438.224 -4.09745 -1.28093 0
M  V30 4656 C 437.457 -4.77034 -2.3932 0
M  V30 4657 O 437.68 -4.4353 -3.5866 0
M  V30 4658 O 436.614 -5.64996 -2.07516 0
M  V30 4659 H 440.44 -3.03661 -0.0485661 0
M  V30 4660 H 438.025 -1.49341 0.0418382 0
M  V30 4661 H 439.907 -3.41248 -2.4724 0
M  V30 4662 H 438.582 -2.22253 -2.35341 0
M  V30 4663 H 437.489 -3.69787 -0.566416 0
M  V30 4664 H 438.822 -4.86224 -0.764683 0
M  V30 4665 N 440.474 -0.00167713 -1.576 0
M  V30 4666 C 441.751 0.719951 -1.81868 0
M  V30 4667 C 442.131 1.91895 -0.879747 0
M  V30 4668 O 441.479 2.28389 0.0711423 0
M  V30 4669 C 441.689 1.12409 -3.30402 0
M  V30 4670 C 443.037 1.52724 -3.96182 0
M  V30 4671 O 444.061 1.21784 -3.34734 0
M  V30 4672 O 442.92 2.10265 -5.04431 0
M  V30 4673 H 440.014 0.350707 -0.748955 0
M  V30 4674 H 442.56 -0.0272597 -1.69678 0
M  V30 4675 H 441.332 0.269532 -3.90371 0
M  V30 4676 H 440.955 1.93035 -3.47596 0
M  V30 4677 N 441.952 1.55251 0.271103 0
M  V30 4678 C 442.9 1.89054 1.35504 0
M  V30 4679 C 443.894 0.767064 1.51038 0
M  V30 4680 O 445.1 0.951429 1.528 0
M  V30 4681 H 441.475 0.600072 0.45323 0
M  V30 4682 H 443.446 2.79598 1.04247 0
M  V30 4683 C 442.195 2.18068 2.70817 0
M  V30 4684 H 441.518 3.04005 2.59656 0
M  V30 4685 H 442.958 2.4564 3.45597 0
M  V30 4686 C 441.417 0.988901 3.2206 0
M  V30 4687 O 441.947 0.224501 4.01072 0
M  V30 4688 N 440.153 0.786085 2.79766 0
M  V30 4689 H 439.7 1.40937 2.15626 0
M  V30 4690 H 439.658 -0.00969349 3.14399 0
M  V30 4691 N 443.43 -0.535701 1.48216 0
M  V30 4692 C 444.362 -1.65662 1.58394 0
M  V30 4693 C 445.375 -1.5591 0.468607 0
M  V30 4694 O 446.564 -1.62475 0.7392 0
M  V30 4695 C 443.664 -3.04276 1.4923 0
M  V30 4696 C 442.837 -3.39567 2.75705 0
M  V30 4697 C 441.896 -4.57436 2.60075 0
M  V30 4698 O 440.922 -4.60942 3.33948 0
M  V30 4699 N 442.124 -5.55259 1.69315 0
M  V30 4700 H 444.889 -1.5737 2.55058 0
M  V30 4701 H 442.45 -0.722845 1.44867 0
M  V30 4702 H 444.442 -3.80994 1.36477 0
M  V30 4703 H 443.012 -3.06677 0.605632 0
M  V30 4704 H 442.232 -2.52083 3.03064 0
M  V30 4705 H 443.52 -3.59929 3.59623 0
M  V30 4706 H 442.918 -5.552 1.08489 0
M  V30 4707 H 441.475 -6.31218 1.62504 0
M  V30 4708 N 444.908 -1.36708 -0.784132 0
M  V30 4709 C 446.157 -1.30559 -1.53744 0
M  V30 4710 C 446.47 0.111374 -1.95283 0
M  V30 4711 O 447.676 0.29527 -2.6989 0
M  V30 4712 C 446.132 -2.29098 -2.77565 0
M  V30 4713 C 445.74 -3.76258 -2.43174 0
M  V30 4714 C 447.484 -2.31936 -3.55536 0
M  V30 4715 C 445.391 -4.6656 -3.63422 0
M  V30 4716 H 444.321 -0.48518 -0.577162 0
M  V30 4717 H 446.972 -1.62101 -0.859981 0
M  V30 4718 H 445.354 -1.90557 -3.47137 0
M  V30 4719 H 446.528 -4.23565 -1.81465 0
M  V30 4720 H 444.843 -3.76246 -1.78403 0
M  V30 4721 H 447.44 -2.9661 -4.44889 0
M  V30 4722 H 447.783 -1.3294 -3.94503 0
M  V30 4723 H 448.316 -2.6912 -2.92949 0
M  V30 4724 H 445.055 -5.66638 -3.29547 0
M  V30 4725 H 444.575 -4.23966 -4.24279 0
M  V30 4726 H 446.254 -4.8309 -4.30387 0
M  V30 4727 N 446.386 1.0089 -1.21074 0
M  V30 4728 C 447.616 1.77933 -1.04993 0
M  V30 4729 C 448.024 1.84847 0.403495 0
M  V30 4730 O 447.367 1.30606 1.29181 0
M  V30 4731 C 447.429 3.23541 -1.56722 0
M  V30 4732 C 447.093 3.40214 -3.05129 0
M  V30 4733 C 448.09 3.2881 -4.02716 0
M  V30 4734 C 445.775 3.65781 -3.44252 0
M  V30 4735 C 447.769 3.42732 -5.37414 0
M  V30 4736 C 445.456 3.79346 -4.79103 0
M  V30 4737 C 446.454 3.67827 -5.75493 0
M  V30 4738 O 446.142 3.80965 -7.07899 0
M  V30 4739 H 445.874 0.566157 -0.369381 0
M  V30 4740 H 448.428 1.27826 -1.60779 0
M  V30 4741 H 446.658 3.74766 -0.953285 0
M  V30 4742 H 448.347 3.82245 -1.36543 0
M  V30 4743 H 449.113 3.08986 -3.73835 0
M  V30 4744 H 444.992 3.73831 -2.69762 0
M  V30 4745 H 448.536 3.33658 -6.12632 0
M  V30 4746 H 444.433 3.98672 -5.07672 0
M  V30 4747 H 445.201 3.97937 -7.15254 0
M  V30 4748 N 447.864 1.01787 1.20321 0
M  V30 4749 C 449.113 0.703249 1.89043 0
M  V30 4750 C 449.426 -0.770445 1.79787 0
M  V30 4751 O 450.632 -1.19767 2.43656 0
M  V30 4752 C 449.088 1.20749 3.3904 0
M  V30 4753 C 448.696 2.70817 3.56878 0
M  V30 4754 C 450.44 0.968352 4.13308 0
M  V30 4755 C 448.347 3.14716 5.00708 0
M  V30 4756 H 447.277 0.259354 0.707991 0
M  V30 4757 H 449.928 1.23072 1.36108 0
M  V30 4758 H 448.31 0.607989 3.91305 0
M  V30 4759 H 449.484 3.36327 3.14993 0
M  V30 4760 H 447.799 2.92888 2.95983 0
M  V30 4761 H 450.396 1.27173 5.19356 0
M  V30 4762 H 450.739 -0.095149 4.16191 0
M  V30 4763 H 451.272 1.53129 3.67146 0
M  V30 4764 H 448.011 4.20347 5.02979 0
M  V30 4765 H 447.531 2.53927 5.43398 0
M  V30 4766 H 449.21 3.07426 5.69296 0
M  V30 4767 N 449.342 -1.36122 0.79427 0
M  V30 4768 C 450.29 -2.31871 0.184023 0
M  V30 4769 C 451.284 -1.56041 -0.659365 0
M  V30 4770 O 452.49 -1.71266 -0.553906 0
M  V30 4771 H 448.865 -0.750896 0.0407373 0
M  V30 4772 H 450.836 -2.80898 1.00693 0
M  V30 4773 C 449.585 -3.41324 -0.662813 0
M  V30 4774 H 448.908 -3.99793 -0.0231944 0
M  V30 4775 H 450.348 -4.10629 -1.05639 0
M  V30 4776 C 448.807 -2.83308 -1.82313 0
M  V30 4777 O 449.337 -2.75863 -2.91997 0
M  V30 4778 N 447.543 -2.40529 -1.63077 0
M  V30 4779 H 447.09 -2.46785 -0.738591 0
M  V30 4780 H 447.048 -2.02059 -2.40872 0
M  V30 4781 N 450.82 -0.546701 -1.47814 0
M  V30 4782 C 451.73 0.21026 -2.33656 0
M  V30 4783 C 452.746 0.922413 -1.47538 0
M  V30 4784 O 453.922 0.893652 -1.80488 0
M  V30 4785 C 450.987 1.23348 -3.24016 0
M  V30 4786 C 450.048 0.529883 -4.26017 0
M  V30 4787 C 449.281 1.50435 -5.12059 0
M  V30 4788 O 449.504 2.73837 -5.00369 0
M  V30 4789 O 448.438 1.03459 -5.92942 0
M  V30 4790 H 452.264 -0.493605 -2.99662 0
M  V30 4791 H 449.849 -0.307427 -1.46203 0
M  V30 4792 H 451.731 1.82438 -3.79861 0
M  V30 4793 H 450.406 1.91945 -2.60651 0
M  V30 4794 H 449.313 -0.101948 -3.73961 0
M  V30 4795 H 450.646 -0.11445 -4.92067 0
M  V30 4796 N 452.299 1.55045 -0.282633 0
M  V30 4797 C 453.527 2.04168 0.33512 0
M  V30 4798 C 453.942 1.16071 1.48906 0
M  V30 4799 O 453.299 0.182391 1.81586 0
M  V30 4800 C 453.35 3.52332 0.808957 0
M  V30 4801 O 453.071 4.37078 -0.299038 0
M  V30 4802 C 454.572 4.17375 1.49375 0
M  V30 4803 H 451.792 0.666744 0.0754543 0
M  V30 4804 H 454.336 2.00205 -0.416918 0
M  V30 4805 H 452.491 3.56715 1.51106 0
M  V30 4806 H 452.905 5.24458 0.0665514 0
M  V30 4807 H 454.379 5.22627 1.77664 0
M  V30 4808 H 454.856 3.65999 2.42778 0
M  V30 4809 H 455.462 4.17016 0.835305 0
M  V30 4810 N 453.777 0.010035 1.57597 0
M  V30 4811 C 454.725 -0.996272 2.10184 0
M  V30 4812 C 455.719 -1.34942 1.02406 0
M  V30 4813 O 456.925 -1.33389 1.20861 0
M  V30 4814 H 453.3 -0.338982 0.671264 0
M  V30 4815 H 455.271 -0.527272 2.93705 0
M  V30 4816 C 454.02 -2.27599 2.62857 0
M  V30 4817 H 453.343 -2.01295 3.45428 0
M  V30 4818 H 454.783 -2.96265 3.0332 0
M  V30 4819 C 453.242 -2.99269 1.54725 0
M  V30 4820 O 453.772 -3.90644 0.93597 0
M  V30 4821 N 451.978 -2.61269 1.27228 0
M  V30 4822 H 451.525 -1.87043 1.77123 0
M  V30 4823 H 451.483 -3.09534 0.550999 0
M  V30 4824 N 455.255 -1.55392 -0.262866 0
M  V30 4825 C 456.218 -1.88181 -1.30846 0
M  V30 4826 C 457.218 -0.757079 -1.41862 0
M  V30 4827 O 458.408 -1.02519 -1.40838 0
M  V30 4828 C 455.54 -2.09609 -2.68844 0
M  V30 4829 H 456.733 -2.81659 -1.02997 0
M  V30 4830 H 454.286 -1.48039 -0.501414 0
M  V30 4831 H 455.021 -1.18547 -3.01856 0
M  V30 4832 H 454.806 -2.91508 -2.62231 0
M  V30 4833 H 456.296 -2.36215 -3.44372 0
M  V30 4834 N 456.733 0.527833 -1.48498 0
M  V30 4835 C 457.666 1.64892 -1.57753 0
M  V30 4836 C 458.644 1.5687 -0.427867 0
M  V30 4837 O 459.828 1.77311 -0.639764 0
M  V30 4838 C 456.955 3.03301 -1.50752 0
M  V30 4839 C 456.001 3.29675 -2.70586 0
M  V30 4840 S 456.834 3.15712 -4.32535 0
M  V30 4841 C 457.99 4.56564 -4.28136 0
M  V30 4842 H 458.223 1.56792 -2.52594 0
M  V30 4843 H 455.756 0.710959 -1.37057 0
M  V30 4844 H 457.714 3.83123 -1.474 0
M  V30 4845 H 456.375 3.08839 -0.572454 0
M  V30 4846 H 455.568 4.3065 -2.61833 0
M  V30 4847 H 455.17 2.57526 -2.71212 0
M  V30 4848 H 457.462 5.48126 -3.98201 0
M  V30 4849 H 458.405 4.70371 -5.29298 0
M  V30 4850 H 458.813 4.35987 -3.58574 0
M  V30 4851 N 458.211 1.37122 0.776871 0
M  V30 4852 C 459.622 1.28667 1.35284 0
M  V30 4853 C 459.973 -0.0680035 1.96082 0
M  V30 4854 O 459.098 -0.969743 1.93455 0
M  V30 4855 C 459.693 2.32997 2.45963 0
M  V30 4856 C 458.252 2.28191 2.99342 0
M  V30 4857 C 457.399 2.17101 1.72517 0
M  V30 4858 H 460.35 1.47819 0.577527 0
M  V30 4859 H 460.371 1.97366 3.2531 0
M  V30 4860 H 459.883 3.3158 2.01684 0
M  V30 4861 H 457.984 1.33115 3.4801 0
M  V30 4862 H 458.097 3.21397 3.55304 0
M  V30 4863 H 456.461 1.63562 1.95242 0
M  V30 4864 H 457.244 3.17591 1.30348 0
M  V30 4865 N 459.689 -1.00246 1.21608 0
M  V30 4866 C 460.937 -1.73717 1.0328 0
M  V30 4867 C 461.258 -1.90102 -0.434318 0
M  V30 4868 O 460.528 -1.45376 -1.31311 0
M  V30 4869 H 459.108 -0.643613 0.379172 0
M  V30 4870 H 461.77 -1.20787 1.52959 0
M  V30 4871 H 460.866 -2.73535 1.50283 0
M  V30 4872 N 461.167 -1.02423 -1.1978 0
M  V30 4873 C 462.414 -0.717988 -1.89344 0
M  V30 4874 C 462.742 0.753036 -1.79331 0
M  V30 4875 O 461.997 1.56355 -1.17692 0
M  V30 4876 C 462.296 -1.1088 -3.39765 0
M  V30 4877 C 461.962 -2.57731 -3.6998 0
M  V30 4878 C 460.624 -2.97854 -3.77937 0
M  V30 4879 C 462.976 -3.52763 -3.83677 0
M  V30 4880 C 460.304 -4.31931 -3.97054 0
M  V30 4881 C 462.656 -4.86538 -4.04306 0
M  V30 4882 C 461.32 -5.26356 -4.10494 0
M  V30 4883 H 460.59 -0.26273 -0.692859 0
M  V30 4884 H 463.237 -1.28623 -1.41875 0
M  V30 4885 H 461.542 -0.459094 -3.89101 0
M  V30 4886 H 463.239 -0.849432 -3.919 0
M  V30 4887 H 459.829 -2.25646 -3.64393 0
M  V30 4888 H 464.013 -3.2292 -3.76877 0
M  V30 4889 H 459.269 -4.62324 -4.00083 0
M  V30 4890 H 463.443 -5.60093 -4.13846 0
M  V30 4891 H 461.07 -6.3026 -4.2506 0
M  V30 4892 N 462.645 1.35699 -0.801477 0
M  V30 4893 C 463.873 2.03157 -0.391768 0
M  V30 4894 C 464.288 1.60412 0.995668 0
M  V30 4895 O 463.645 0.799228 1.64069 0
M  V30 4896 C 463.696 3.58566 -0.459671 0
M  V30 4897 O 463.417 3.99756 -1.7924 0
M  V30 4898 C 464.918 4.4328 -0.0421205 0
M  V30 4899 H 462.138 0.651688 -0.159825 0
M  V30 4900 H 464.682 1.73426 -1.08368 0
M  V30 4901 H 462.837 3.86963 0.183939 0
M  V30 4902 H 463.251 4.94387 -1.75162 0
M  V30 4903 H 464.725 5.51821 -0.140754 0
M  V30 4904 H 465.202 4.27383 1.01196 0
M  V30 4905 H 465.808 4.20168 -0.658687 0
M  V30 4906 N 464.123 0.554532 1.47522 0
M  V30 4907 C 465.086 -0.184174 2.28459 0
M  V30 4908 C 466.086 -0.845195 1.36796 0
M  V30 4909 O 467.276 -0.701467 1.59452 0
M  V30 4910 C 464.408 -1.26903 3.16399 0
M  V30 4911 H 465.601 0.526751 2.95238 0
M  V30 4912 H 463.154 0.311375 1.53167 0
M  V30 4913 H 463.889 -2.01244 2.54306 0
M  V30 4914 H 463.674 -0.799883 3.83854 0
M  V30 4915 H 465.164 -1.78794 3.77389 0
M  V30 4916 N 465.601 -1.54893 0.290851 0
M  V30 4917 C 466.848 -1.99933 -0.321391 0
M  V30 4918 C 467.176 -1.17927 -1.54672 0
M  V30 4919 O 466.431 -0.240902 -1.94212 0
M  V30 4920 C 466.73 -3.49815 -0.732397 0
M  V30 4921 C 466.396 -4.4921 0.390056 0
M  V30 4922 C 465.058 -4.76107 0.698223 0
M  V30 4923 C 467.41 -5.08453 1.14562 0
M  V30 4924 C 464.738 -5.59514 1.76526 0
M  V30 4925 C 467.09 -5.9302 2.2025 0
M  V30 4926 C 465.754 -6.18232 2.51684 0
M  V30 4927 H 465.024 -0.731608 -0.117605 0
M  V30 4928 H 467.671 -1.87107 0.407839 0
M  V30 4929 H 465.976 -3.60199 -1.54155 0
M  V30 4930 H 467.673 -3.82083 -1.21712 0
M  V30 4931 H 464.263 -4.28372 0.13976 0
M  V30 4932 H 468.447 -4.87683 0.920801 0
M  V30 4933 H 463.703 -5.77289 2.01364 0
M  V30 4934 H 467.877 -6.37955 2.7926 0
M  V30 4935 H 465.504 -6.82653 3.34499 0
M  V30 4936 N 467.08 -0.0183926 -1.57589 0
M  V30 4937 C 468.305 0.676634 -1.96052 0
M  V30 4938 C 468.73 1.6548 -0.894307 0
M  V30 4939 O 468.088 1.80712 0.145849 0
M  V30 4940 C 468.136 1.36872 -3.33614 0
M  V30 4941 O 467.24 2.48372 -3.29219 0
M  V30 4942 H 466.581 0.1786 -0.63953 0
M  V30 4943 H 469.111 -0.077056 -2.04455 0
M  V30 4944 H 469.121 1.72797 -3.69601 0
M  V30 4945 H 467.796 0.651636 -4.10763 0
M  V30 4946 H 466.373 2.14639 -3.04934 0
M  V30 4947 N 468.558 1.5553 0.254621 0
M  V30 4948 C 469.491 1.84624 1.34124 0
M  V30 4949 C 470.469 0.700693 1.46728 0
M  V30 4950 O 471.653 0.94564 1.63064 0
M  V30 4951 C 468.78 2.02412 2.71564 0
M  V30 4952 C 467.826 3.25028 2.7615 0
M  V30 4953 S 468.659 4.81893 2.33538 0
M  V30 4954 C 469.815 5.02677 3.72917 0
M  V30 4955 H 470.048 2.76501 1.09245 0
M  V30 4956 H 467.581 1.47537 0.455211 0
M  V30 4957 H 469.539 2.13345 3.50705 0
M  V30 4958 H 468.2 1.11391 2.93685 0
M  V30 4959 H 467.393 3.34418 3.77069 0
M  V30 4960 H 466.995 3.12781 2.05046 0
M  V30 4961 H 469.287 4.89546 4.68349 0
M  V30 4962 H 470.23 6.0468 3.68467 0
M  V30 4963 H 470.638 4.30561 3.65072 0
M  V30 4964 N 470.036 -0.519951 1.48776 0
M  V30 4965 C 471.266 -1.29783 1.60748 0
M  V30 4966 C 471.674 -1.87253 0.27072 0
M  V30 4967 O 471.017 -1.67628 -0.751438 0
M  V30 4968 C 471.079 -2.47984 2.60277 0
M  V30 4969 C 470.743 -2.11526 4.051 0
M  V30 4970 C 471.74 -1.66608 4.92481 0
M  V30 4971 C 469.425 -2.21742 4.50706 0
M  V30 4972 C 471.419 -1.32384 6.23501 0
M  V30 4973 C 469.106 -1.87129 5.81744 0
M  V30 4974 C 470.104 -1.42523 6.67964 0
M  V30 4975 O 469.792 -1.0837 7.96562 0
M  V30 4976 H 469.524 -0.400562 0.544542 0
M  V30 4977 H 472.078 -0.632879 1.95407 0
M  V30 4978 H 470.308 -3.17493 2.2076 0
M  V30 4979 H 471.997 -3.10036 2.61978 0
M  V30 4980 H 472.763 -1.58178 4.58481 0
M  V30 4981 H 468.642 -2.55415 3.83776 0
M  V30 4982 H 472.186 -0.974949 6.90754 0
M  V30 4983 H 468.083 -1.95204 6.15277 0
M  V30 4984 H 468.851 -1.21681 8.09405 0
M  V30 4985 N 471.514 -1.37532 -0.769588 0
M  V30 4986 C 472.925 -1.29382 -1.346 0
M  V30 4987 C 473.276 0.0576039 -1.96115 0
M  V30 4988 O 472.401 0.95947 -1.93967 0
M  V30 4989 C 472.996 -2.34298 -2.44724 0
M  V30 4990 C 471.555 -2.29776 -2.98128 0
M  V30 4991 C 470.702 -2.18013 -1.71364 0
M  V30 4992 H 473.653 -1.48123 -0.56968 0
M  V30 4993 H 473.674 -1.99089 -3.24259 0
M  V30 4994 H 473.186 -3.32645 -1.99922 0
M  V30 4995 H 471.287 -1.34959 -3.47299 0
M  V30 4996 H 471.4 -3.23276 -3.53595 0
M  V30 4997 H 469.764 -1.64595 -1.94372 0
M  V30 4998 H 470.547 -3.18278 -1.28662 0
M  V30 4999 N 472.992 0.995999 -1.22138 0
M  V30 5000 C 473.939 2.08551 -0.988687 0
M  V30 5001 C 474.909 1.65864 0.0885021 0
M  V30 5002 O 476.094 1.90704 -0.0604589 0
M  V30 5003 C 473.234 3.40374 -0.569191 0
M  V30 5004 C 472.347 3.96421 -1.71681 0
M  V30 5005 C 471.482 5.1639 -1.2456 0
M  V30 5006 C 470.521 5.64567 -2.36497 0
M  V30 5007 N 469.658 6.75777 -1.90445 0
M  V30 5008 H 474.498 2.2779 -1.92135 0
M  V30 5009 H 472.035 1.1168 -0.957388 0
M  V30 5010 H 473.993 4.16068 -0.307166 0
M  V30 5011 H 472.623 3.21145 0.326462 0
M  V30 5012 H 471.675 3.17628 -2.09324 0
M  V30 5013 H 472.987 4.2816 -2.55891 0
M  V30 5014 H 472.141 5.99362 -0.940774 0
M  V30 5015 H 470.88 4.86266 -0.373662 0
M  V30 5016 H 469.885 4.80185 -2.67772 0
M  V30 5017 H 471.11 5.96716 -3.24202 0
M  V30 5018 H 469.056 6.47443 -1.05609 0
M  V30 5019 H 468.973 7.06818 -2.68223 0
M  V30 5020 H 470.241 7.62262 -1.63022 0
M  V30 5021 N 474.47 1.03057 1.19235 0
M  V30 5022 C 475.4 0.633497 2.24742 0
M  V30 5023 C 476.381 -0.358335 1.66283 0
M  V30 5024 O 477.566 -0.240676 1.92703 0
M  V30 5025 C 474.696 -0.0147648 3.47297 0
M  V30 5026 C 473.65 0.899527 4.18441 0
M  V30 5027 C 472.976 0.116281 5.34574 0
M  V30 5028 C 474.276 2.21404 4.73051 0
M  V30 5029 H 475.97 1.5155 2.58211 0
M  V30 5030 H 473.516 0.73014 1.24117 0
M  V30 5031 H 475.469 -0.304202 4.20301 0
M  V30 5032 H 474.193 -0.931577 3.13032 0
M  V30 5033 H 472.852 1.17319 3.47321 0
M  V30 5034 H 472.5 -0.802619 4.96555 0
M  V30 5035 H 472.2 0.725293 5.83107 0
M  V30 5036 H 473.724 -0.166376 6.10373 0
M  V30 5037 H 475.138 1.98601 5.37802 0
M  V30 5038 H 473.535 2.77512 5.32078 0
M  V30 5039 H 474.605 2.86752 3.91026 0
M  V30 5040 N 475.948 -1.35272 0.808662 0
M  V30 5041 C 477.194 -1.99434 0.399717 0
M  V30 5042 C 477.549 -1.62992 -1.02232 0
M  V30 5043 O 476.842 -0.884091 -1.69983 0
M  V30 5044 C 477.036 -3.53556 0.522798 0
M  V30 5045 C 476.865 -4.04969 1.95525 0
M  V30 5046 C 475.635 -4.34228 2.58407 0
M  V30 5047 C 477.833 -4.23362 2.92009 0
M  V30 5048 N 475.815 -4.71585 3.93041 0
M  V30 5049 C 477.186 -4.63739 4.11517 0
M  V30 5050 C 479.241 -4.05576 2.88813 0
M  V30 5051 C 477.944 -4.88189 5.28265 0
M  V30 5052 C 479.97 -4.31184 4.04765 0
M  V30 5053 C 479.332 -4.71834 5.23022 0
M  V30 5054 H 475.431 -0.757534 0.19408 0
M  V30 5055 H 478.015 -1.63939 1.05034 0
M  V30 5056 H 476.186 -3.88277 -0.0978471 0
M  V30 5057 H 477.918 -4.04604 0.0882378 0
M  V30 5058 H 474.673 -4.24621 2.09747 0
M  V30 5059 H 475.097 -4.9452 4.62363 0
M  V30 5060 H 479.739 -3.73288 1.98535 0
M  V30 5061 H 477.457 -5.1935 6.19113 0
M  V30 5062 H 481.043 -4.18972 4.03675 0
M  V30 5063 H 479.923 -4.91263 6.11253 0
M  V30 5064 N 477.426 -0.562348 -1.47226 0
M  V30 5065 C 478.336 0.185466 -2.33866 0
M  V30 5066 C 479.352 0.906713 -1.48508 0
M  V30 5067 O 480.528 0.874458 -1.81425 0
M  V30 5068 C 477.593 1.19904 -3.25306 0
M  V30 5069 C 476.654 0.484669 -4.26555 0
M  V30 5070 C 475.887 1.44996 -5.13626 0
M  V30 5071 O 476.11 2.68515 -5.03245 0
M  V30 5072 O 475.044 0.971642 -5.94006 0
M  V30 5073 H 478.87 -0.525361 -2.99121 0
M  V30 5074 H 476.455 -0.322916 -1.45868 0
M  V30 5075 H 478.337 1.78399 -3.81774 0
M  V30 5076 H 477.012 1.8917 -2.62672 0
M  V30 5077 H 475.919 -0.141605 -3.73832 0
M  V30 5078 H 477.252 -0.166634 -4.91918 0
M  V30 5079 N 478.904 1.54736 -0.299062 0
M  V30 5080 C 479.852 2.24897 0.593658 0
M  V30 5081 C 480.846 1.25429 1.13859 0
M  V30 5082 O 482.052 1.43286 1.08945 0
M  V30 5083 H 478.427 0.72207 0.210046 0
M  V30 5084 H 480.398 2.98393 -0.0206421 0
M  V30 5085 C 479.147 3.00159 1.75499 0
M  V30 5086 H 478.47 3.76501 1.34489 0
M  V30 5087 H 479.91 3.52535 2.35574 0
M  V30 5088 C 478.369 2.07015 2.65794 0
M  V30 5089 O 478.899 1.63692 3.66835 0
M  V30 5090 N 477.105 1.73012 2.33485 0
M  V30 5091 H 476.652 2.08439 1.51364 0
M  V30 5092 H 476.61 1.10965 2.94167 0
M  V30 5093 N 480.382 0.0267497 1.57577 0
M  V30 5094 C 481.315 -0.99059 2.05579 0
M  V30 5095 C 482.293 -1.31884 0.951065 0
M  V30 5096 O 483.477 -1.43592 1.22121 0
M  V30 5097 C 480.604 -2.31125 2.47586 0
M  V30 5098 C 479.65 -2.13777 3.69055 0
M  V30 5099 S 480.483 -1.4388 5.15809 0
M  V30 5100 C 481.639 -2.77321 5.6111 0
M  V30 5101 H 481.872 -0.581976 2.91548 0
M  V30 5102 H 479.405 -0.184876 1.53289 0
M  V30 5103 H 481.363 -3.07049 2.72454 0
M  V30 5104 H 480.024 -2.6912 1.61967 0
M  V30 5105 H 479.217 -3.11405 3.96287 0
M  V30 5106 H 478.819 -1.45996 3.44327 0
M  V30 5107 H 481.111 -3.73565 5.65204 0
M  V30 5108 H 482.054 -2.54756 6.60685 0
M  V30 5109 H 482.462 -2.82459 4.88751 0
M  V30 5110 N 481.861 -1.55662 -0.24637 0
M  V30 5111 C 483.109 -1.77168 -0.972411 0
M  V30 5112 C 483.43 -0.590827 -1.85834 0
M  V30 5113 O 482.7 0.393365 -1.9191 0
M  V30 5114 H 481.28 -0.653405 -0.362038 0
M  V30 5115 H 483.942 -1.93101 -0.264189 0
M  V30 5116 H 483.038 -2.68335 -1.59382 0
M  V30 5117 N 483.339 0.512053 -1.4905 0
M  V30 5118 C 484.269 1.62365 -1.67809 0
M  V30 5119 C 485.25 1.61737 -0.526809 0
M  V30 5120 O 486.435 1.78651 -0.761404 0
M  V30 5121 C 483.565 3.00895 -1.73435 0
M  V30 5122 C 482.519 3.16387 -2.88242 0
M  V30 5123 C 481.845 4.56157 -2.78971 0
M  V30 5124 C 483.145 2.97457 -4.29321 0
M  V30 5125 H 484.839 1.46921 -2.60873 0
M  V30 5126 H 482.385 0.705379 -1.2554 0
M  V30 5127 H 484.338 3.78549 -1.85145 0
M  V30 5128 H 483.062 3.17403 -0.769619 0
M  V30 5129 H 481.721 2.41155 -2.76116 0
M  V30 5130 H 481.369 4.69525 -1.8043 0
M  V30 5131 H 481.069 4.67465 -3.5602 0
M  V30 5132 H 482.593 5.35886 -2.92675 0
M  V30 5133 H 484.007 3.64888 -4.42187 0
M  V30 5134 H 482.404 3.20245 -5.07507 0
M  V30 5135 H 483.474 1.93692 -4.44535 0
M  V30 5136 N 484.817 1.37938 0.762283 0
M  V30 5137 C 486.042 1.37059 1.55659 0
M  V30 5138 C 486.467 -0.0396123 1.88058 0
M  V30 5139 O 485.825 -1.01929 1.49934 0
M  V30 5140 C 485.873 2.22494 2.83776 0
M  V30 5141 O 484.977 1.63607 3.78559 0
M  V30 5142 H 484.318 0.467892 0.47114 0
M  V30 5143 H 486.848 1.81587 0.942725 0
M  V30 5144 H 486.858 2.36045 3.32786 0
M  V30 5145 H 485.533 3.24993 2.59524 0
M  V30 5146 H 484.11 1.5915 3.37233 0
M  V30 5147 N 486.295 -0.989507 1.22664 0
M  V30 5148 C 487.525 -1.7624 1.0781 0
M  V30 5149 C 487.933 -1.85466 -0.374036 0
M  V30 5150 O 487.276 -1.32645 -1.27087 0
M  V30 5151 C 487.338 -3.21007 1.61849 0
M  V30 5152 C 487.002 -3.35316 3.10503 0
M  V30 5153 C 487.999 -3.22362 4.07896 0
M  V30 5154 C 485.684 -3.60258 3.50028 0
M  V30 5155 C 487.678 -3.34139 5.42798 0
M  V30 5156 C 485.365 -3.71676 4.85078 0
M  V30 5157 C 486.363 -3.58625 5.81272 0
M  V30 5158 O 486.051 -3.69655 7.1387 0
M  V30 5159 H 485.783 -0.560209 0.378341 0
M  V30 5160 H 488.337 -1.25252 1.62792 0
M  V30 5161 H 486.567 -3.73202 1.01279 0
M  V30 5162 H 488.256 -3.80024 1.42606 0
M  V30 5163 H 489.022 -3.03 3.78703 0
M  V30 5164 H 484.901 -3.69492 2.75675 0
M  V30 5165 H 488.445 -3.23869 6.17863 0
M  V30 5166 H 484.342 -3.90545 5.1395 0
M  V30 5167 H 485.11 -3.86507 7.21495 0
M  V30 5168 N 487.773 -1.03688 -1.18687 0
M  V30 5169 C 489.184 -0.766488 -1.70241 0
M  V30 5170 C 489.535 0.713052 -1.82784 0
M  V30 5171 O 488.66 1.55529 -1.50465 0
M  V30 5172 C 489.255 -1.38475 -3.09209 0
M  V30 5173 C 487.814 -1.16276 -3.5799 0
M  V30 5174 C 486.961 -1.4778 -2.34641 0
M  V30 5175 H 489.912 -1.20378 -1.03415 0
M  V30 5176 H 489.933 -0.785939 -3.72295 0
M  V30 5177 H 489.445 -2.46157 -3.00048 0
M  V30 5178 H 487.546 -0.104508 -3.72453 0
M  V30 5179 H 487.659 -1.8571 -4.41643 0
M  V30 5180 H 486.023 -0.897366 -2.38368 0
M  V30 5181 H 486.806 -2.56562 -2.28102 0
M  V30 5182 N 489.251 1.34841 -0.815825 0
M  V30 5183 C 490.161 2.33425 -0.234462 0
M  V30 5184 C 491.177 1.62295 0.627413 0
M  V30 5185 O 492.353 1.94109 0.536987 0
M  V30 5186 C 489.418 3.41471 0.599849 0
M  V30 5187 C 488.479 4.28362 -0.283596 0
M  V30 5188 C 487.712 5.31248 0.51099 0
M  V30 5189 O 487.935 5.43056 1.7449 0
M  V30 5190 O 486.869 6.01812 -0.10297 0
M  V30 5191 H 490.695 2.84962 -1.05024 0
M  V30 5192 H 488.28 1.37774 -0.577809 0
M  V30 5193 H 490.162 4.07464 1.07475 0
M  V30 5194 H 488.837 2.9219 1.39308 0
M  V30 5195 H 487.744 3.65318 -0.805836 0
M  V30 5196 H 489.077 4.81066 -1.041 0
M  V30 5197 N 490.729 0.570148 1.46925 0
M  V30 5198 C 491.659 -0.158274 2.32963 0
M  V30 5199 C 492.64 -0.896093 1.44583 0
M  V30 5200 O 493.825 -0.874022 1.7342 0
M  V30 5201 C 490.955 -1.18055 3.26619 0
M  V30 5202 C 489.909 -0.558379 4.24342 0
M  V30 5203 C 489.235 -1.68623 5.07415 0
M  V30 5204 C 490.535 0.496295 5.19937 0
M  V30 5205 H 492.229 0.560046 2.94115 0
M  V30 5206 H 489.775 0.270775 1.41431 0
M  V30 5207 H 491.728 -1.69841 3.85658 0
M  V30 5208 H 490.452 -1.92899 2.63548 0
M  V30 5209 H 489.111 -0.0617157 3.66548 0
M  V30 5210 H 488.759 -2.42402 4.40738 0
M  V30 5211 H 488.459 -1.27564 5.73586 0
M  V30 5212 H 489.983 -2.20709 5.69315 0
M  V30 5213 H 491.397 0.0640052 5.73264 0
M  V30 5214 H 489.794 0.82649 5.94381 0
M  V30 5215 H 490.864 1.38735 4.6463 0
M  V30 5216 N 492.207 -1.54576 0.307264 0
M  V30 5217 C 493.456 -1.99442 -0.300976 0
M  V30 5218 C 493.769 -1.19928 -1.5452 0
M  V30 5219 O 494.975 -1.55092 -2.22842 0
M  V30 5220 C 493.431 -3.55084 -0.586809 0
M  V30 5221 C 493.039 -4.43413 0.639438 0
M  V30 5222 C 494.783 -4.0846 -1.1559 0
M  V30 5223 C 492.69 -5.90499 0.326411 0
M  V30 5224 H 491.62 -0.744986 -0.116238 0
M  V30 5225 H 494.271 -1.787 0.416947 0
M  V30 5226 H 492.653 -3.71749 -1.36449 0
M  V30 5227 H 493.827 -4.38522 1.41545 0
M  V30 5228 H 492.142 -4.00842 1.1276 0
M  V30 5229 H 494.739 -5.15926 -1.40445 0
M  V30 5230 H 495.082 -3.59443 -2.10015 0
M  V30 5231 H 495.615 -3.95362 -0.439778 0
M  V30 5232 H 492.354 -6.43676 1.23939 0
M  V30 5233 H 491.874 -5.98382 -0.412212 0
M  V30 5234 H 493.553 -6.46962 -0.0697393 0
M  V30 5235 N 493.685 -0.035106 -1.57561 0
M  V30 5236 C 494.913 0.652258 -1.9635 0
M  V30 5237 C 495.328 1.65317 -0.911897 0
M  V30 5238 O 494.685 1.82194 0.105657 0
M  V30 5239 C 494.736 1.35337 -3.35211 0
M  V30 5240 O 494.457 0.392548 -4.36338 0
M  V30 5241 C 495.958 2.13199 -3.88666 0
M  V30 5242 H 493.178 0.179444 -0.646561 0
M  V30 5243 H 495.722 -0.0966459 -2.04271 0
M  V30 5244 H 493.877 2.05362 -3.28489 0
M  V30 5245 H 494.291 0.891097 -5.16875 0
M  V30 5246 H 495.765 2.577 -4.88154 0
M  V30 5247 H 496.242 2.97353 -3.23231 0
M  V30 5248 H 496.848 1.48118 -3.98674 0
M  V30 5249 N 495.163 1.55791 0.238111 0
M  V30 5250 C 496.11 1.9105 1.29493 0
M  V30 5251 C 497.08 0.765733 1.47397 0
M  V30 5252 O 498.265 1.02017 1.61236 0
M  V30 5253 C 495.405 2.21826 2.64362 0
M  V30 5254 C 494.518 3.49153 2.54394 0
M  V30 5255 C 493.653 3.69455 3.81676 0
M  V30 5256 C 492.692 4.90353 3.66361 0
M  V30 5257 N 491.829 5.07131 4.85554 0
M  V30 5258 H 496.669 2.81172 0.987233 0
M  V30 5259 H 494.206 1.39179 0.476203 0
M  V30 5260 H 496.164 2.37675 3.4288 0
M  V30 5261 H 494.794 1.34897 2.93262 0
M  V30 5262 H 493.846 3.41587 1.67399 0
M  V30 5263 H 495.158 4.37818 2.38991 0
M  V30 5264 H 494.312 3.85311 4.68636 0
M  V30 5265 H 493.051 2.7904 3.99985 0
M  V30 5266 H 492.056 4.74464 2.77784 0
M  V30 5267 H 493.281 5.82237 3.49538 0
M  V30 5268 H 491.227 4.19654 5.04209 0
M  V30 5269 H 491.144 5.89899 4.72816 0
M  V30 5270 H 492.412 5.27407 5.73988 0
M  V30 5271 N 496.642 -0.504142 1.49319 0
M  V30 5272 C 497.572 -1.61473 1.68667 0
M  V30 5273 C 498.553 -1.61455 0.535378 0
M  V30 5274 O 499.738 -1.78245 0.770868 0
M  V30 5275 C 496.868 -2.99971 1.75028 0
M  V30 5276 C 495.822 -3.14854 2.89916 0
M  V30 5277 C 495.148 -4.54671 2.81387 0
M  V30 5278 C 496.448 -2.95176 4.30893 0
M  V30 5279 H 498.142 -1.45535 2.61648 0
M  V30 5280 H 495.688 -0.698711 1.25913 0
M  V30 5281 H 497.641 -3.77562 1.8715 0
M  V30 5282 H 496.365 -3.1699 0.786441 0
M  V30 5283 H 495.024 -2.39687 2.77391 0
M  V30 5284 H 494.672 -4.68562 1.82917 0
M  V30 5285 H 494.372 -4.6557 3.58494 0
M  V30 5286 H 495.896 -5.34327 2.95512 0
M  V30 5287 H 497.31 -3.62538 4.44116 0
M  V30 5288 H 495.707 -3.17549 5.09198 0
M  V30 5289 H 496.777 -1.91332 4.45556 0
M  V30 5290 N 498.12 -1.38341 -0.754957 0
M  V30 5291 C 499.369 -1.33791 -1.5094 0
M  V30 5292 C 499.682 0.0699267 -1.95475 0
M  V30 5293 O 500.888 0.237956 -2.70455 0
M  V30 5294 C 499.344 -2.34934 -2.72643 0
M  V30 5295 C 498.952 -3.81332 -2.35138 0
M  V30 5296 C 500.696 -2.39425 -3.50536 0
M  V30 5297 C 498.603 -4.74164 -3.53444 0
M  V30 5298 H 497.533 -0.497314 -0.566741 0
M  V30 5299 H 500.184 -1.63888 -0.825403 0
M  V30 5300 H 498.566 -1.97878 -3.43017 0
M  V30 5301 H 499.74 -4.27319 -1.7244 0
M  V30 5302 H 498.055 -3.79946 -1.70382 0
M  V30 5303 H 500.652 -3.0598 -4.38498 0
M  V30 5304 H 500.995 -1.41278 -3.91594 0
M  V30 5305 H 501.528 -2.75274 -2.87174 0
M  V30 5306 H 498.267 -5.73501 -3.17453 0
M  V30 5307 H 497.787 -4.3287 -4.15191 0
M  V30 5308 H 499.466 -4.92111 -4.20043 0
M  V30 5309 N 499.598 0.982988 -1.23187 0
M  V30 5310 C 500.508 2.10907 -1.02739 0
M  V30 5311 C 501.524 1.73979 0.0273188 0
M  V30 5312 O 502.7 2.00702 -0.16757 0
M  V30 5313 C 499.765 3.41142 -0.618304 0
M  V30 5314 C 498.826 3.92112 -1.74777 0
M  V30 5315 C 498.059 5.16131 -1.3581 0
M  V30 5316 O 498.282 5.6989 -0.241201 0
M  V30 5317 O 497.216 5.61103 -2.17824 0
M  V30 5318 H 501.042 2.31046 -1.97108 0
M  V30 5319 H 498.627 1.09284 -1.01869 0
M  V30 5320 H 500.509 4.19488 -0.400982 0
M  V30 5321 H 499.184 3.2234 0.296421 0
M  V30 5322 H 498.091 3.14895 -2.0197 0
M  V30 5323 H 499.424 4.15364 -2.64071 0
M  V30 5324 N 501.076 1.04316 1.18135 0
M  V30 5325 C 502.006 0.657299 2.24058 0
M  V30 5326 C 502.987 -0.340678 1.66654 0
M  V30 5327 O 504.172 -0.220223 1.92947 0
M  V30 5328 C 501.302 0.0220715 3.47293 0
M  V30 5329 C 500.256 0.943857 4.17463 0
M  V30 5330 C 499.582 0.172973 5.3442 0
M  V30 5331 C 500.882 2.26409 4.70677 0
M  V30 5332 H 502.576 1.5428 2.56589 0
M  V30 5333 H 500.122 0.743263 1.23335 0
M  V30 5334 H 502.075 -0.259607 4.206 0
M  V30 5335 H 500.799 -0.898323 3.14003 0
M  V30 5336 H 499.458 1.20996 3.46057 0
M  V30 5337 H 499.106 -0.749907 4.97379 0
M  V30 5338 H 498.806 0.787098 5.82304 0
M  V30 5339 H 500.33 -0.101628 6.10515 0
M  V30 5340 H 501.744 2.04294 5.35665 0
M  V30 5341 H 500.141 2.8314 5.29105 0
M  V30 5342 H 501.211 2.90883 3.87962 0
M  V30 5343 N 502.554 -1.34406 0.822964 0
M  V30 5344 C 503.517 -2.2783 0.250271 0
M  V30 5345 C 504.517 -1.50288 -0.571854 0
M  V30 5346 O 505.707 -1.69825 -0.387952 0
M  V30 5347 C 502.839 -3.34663 -0.649137 0
M  V30 5348 H 504.032 -2.79992 1.07444 0
M  V30 5349 H 501.585 -1.44539 0.594829 0
M  V30 5350 H 502.32 -2.87714 -1.49637 0
M  V30 5351 H 502.105 -3.92052 -0.0611199 0
M  V30 5352 H 503.595 -4.04349 -1.04363 0
M  V30 5353 N 504.032 -0.577932 -1.46621 0
M  V30 5354 C 504.979 0.158048 -2.30258 0
M  V30 5355 C 505.949 0.888669 -1.40328 0
M  V30 5356 O 507.134 0.880283 -1.6928 0
M  V30 5357 C 504.274 1.16884 -3.24703 0
M  V30 5358 C 503.387 0.442163 -4.29731 0
M  V30 5359 C 502.522 1.44007 -5.11308 0
M  V30 5360 C 501.561 0.69952 -6.0809 0
M  V30 5361 N 500.698 1.64525 -6.82551 0
M  V30 5362 H 505.538 -0.561242 -2.92667 0
M  V30 5363 H 503.075 -0.288591 -1.44241 0
M  V30 5364 H 505.033 1.7677 -3.779 0
M  V30 5365 H 503.663 1.85591 -2.64113 0
M  V30 5366 H 502.715 -0.271632 -3.79429 0
M  V30 5367 H 504.027 -0.136992 -4.98612 0
M  V30 5368 H 503.181 2.11186 -5.68758 0
M  V30 5369 H 501.92 2.05315 -4.42377 0
M  V30 5370 H 500.925 0.0139217 -5.49798 0
M  V30 5371 H 502.15 0.091894 -6.79038 0
M  V30 5372 H 500.096 2.24653 -6.16334 0
M  V30 5373 H 500.013 1.11878 -7.47676 0
M  V30 5374 H 501.281 2.30754 -7.44562 0
M  V30 5375 N 505.51 1.54411 -0.315457 0
M  V30 5376 C 506.42 2.27737 0.56329 0
M  V30 5377 C 507.436 1.31787 1.13614 0
M  V30 5378 O 508.612 1.64791 1.15784 0
M  V30 5379 C 505.677 3.01478 1.71207 0
M  V30 5380 C 504.738 4.12997 1.17185 0
M  V30 5381 C 503.971 4.83212 2.26588 0
M  V30 5382 O 504.194 4.52884 3.46775 0
M  V30 5383 O 503.128 5.70299 1.92463 0
M  V30 5384 H 506.954 3.03683 -0.0319614 0
M  V30 5385 H 504.539 1.49178 -0.0814188 0
M  V30 5386 H 506.421 3.47683 2.38106 0
M  V30 5387 H 505.096 2.28414 2.29366 0
M  V30 5388 H 504.003 3.71159 0.468174 0
M  V30 5389 H 505.336 4.8808 0.635501 0
M  V30 5390 N 506.988 0.0434614 1.5754 0
M  V30 5391 C 508.404 -0.313039 1.565 0
M  V30 5392 C 508.604 -1.71954 1.05043 0
M  V30 5393 O 507.66 -2.425 0.703564 0
M  V30 5394 C 508.973 -0.148544 3.00333 0
M  V30 5395 C 510.521 -0.220231 3.12224 0
M  V30 5396 C 510.996 -0.0843565 4.57922 0
M  V30 5397 N 512.487 -0.140881 4.62986 0
M  V30 5398 C 513.222 -0.0597443 5.73369 0
M  V30 5399 N 512.718 0.0733004 6.92761 0
M  V30 5400 N 514.511 -0.11477 5.61983 0
M  V30 5401 H 506.662 0.96303 1.89313 0
M  V30 5402 H 508.925 0.373164 0.871466 0
M  V30 5403 H 508.631 0.820894 3.41986 0
M  V30 5404 H 508.505 -0.912798 3.65989 0
M  V30 5405 H 510.892 -1.18014 2.70475 0
M  V30 5406 H 510.973 0.574646 2.49262 0
M  V30 5407 H 510.617 0.872192 5.00355 0
M  V30 5408 H 510.547 -0.898281 5.18882 0
M  V30 5409 H 513.038 -0.243273 3.77116 0
M  V30 5410 H 513.351 0.128128 7.72694 0
M  V30 5411 H 511.696 0.10828 6.94916 0
M  V30 5412 H 514.887 -0.217212 4.67596 0
M  V30 5413 H 515.06 -0.0480779 6.47982 0
M  V30 5414 N 508.466 -1.55915 -0.229846 0
M  V30 5415 C 509.416 -1.8813 -1.28807 0
M  V30 5416 C 510.4 -0.743621 -1.42685 0
M  V30 5417 O 511.592 -1.00588 -1.4564 0
M  V30 5418 C 508.721 -2.19431 -2.64017 0
M  V30 5419 C 507.807 -3.39569 -2.54074 0
M  V30 5420 N 508.198 -4.58404 -2.13774 0
M  V30 5421 C 506.496 -3.43019 -2.85051 0
M  V30 5422 C 507.197 -5.40557 -2.1488 0
M  V30 5423 N 506.173 -4.80054 -2.55047 0
M  V30 5424 H 509.975 -2.77527 -0.967261 0
M  V30 5425 H 507.489 -1.5637 -0.438433 0
M  V30 5426 H 509.486 -2.40681 -3.40409 0
M  V30 5427 H 508.146 -1.31341 -2.9695 0
M  V30 5428 H 509.157 -4.83716 -1.8504 0
M  V30 5429 H 505.834 -2.65249 -3.22411 0
M  V30 5430 H 507.224 -6.45666 -1.85918 0
M  V30 5431 N 509.944 0.496216 -1.49584 0
M  V30 5432 C 510.876 1.61404 -1.62731 0
M  V30 5433 C 511.889 1.54613 -0.50978 0
M  V30 5434 O 513.078 1.60458 -0.782017 0
M  V30 5435 C 510.178 3.00212 -1.57245 0
M  V30 5436 C 509.351 3.32138 -2.84611 0
M  V30 5437 C 508.41 4.5038 -2.72112 0
M  V30 5438 O 507.436 4.51926 -3.46051 0
M  V30 5439 N 508.638 5.50575 -1.83977 0
M  V30 5440 H 511.403 1.50552 -2.59141 0
M  V30 5441 H 508.964 0.684182 -1.46733 0
M  V30 5442 H 510.956 3.77241 -1.4653 0
M  V30 5443 H 509.526 3.04964 -0.686729 0
M  V30 5444 H 508.746 2.4396 -3.09641 0
M  V30 5445 H 510.034 3.50268 -3.69039 0
M  V30 5446 H 509.432 5.52128 -1.23171 0
M  V30 5447 H 507.989 6.26687 -1.79182 0
M  V30 5448 N 511.423 1.38739 0.74761 0
M  V30 5449 C 512.7 1.25791 1.49786 0
M  V30 5450 C 513.08 -0.138075 2.10648 0
M  V30 5451 O 512.428 -1.14815 1.9756 0
M  V30 5452 C 512.638 2.37265 2.55942 0
M  V30 5453 C 513.986 2.75978 3.22679 0
M  V30 5454 O 515.01 2.36621 2.6625 0
M  V30 5455 O 513.869 3.43867 4.24756 0
M  V30 5456 H 510.963 0.492251 0.664543 0
M  V30 5457 H 513.509 1.50582 0.782511 0
M  V30 5458 H 512.281 3.30644 2.0926 0
M  V30 5459 H 511.904 2.14071 3.35051 0
M  V30 5460 N 512.901 -0.976442 1.23707 0
M  V30 5461 C 513.848 -2.06952 1.02174 0
M  V30 5462 C 514.818 -1.65984 -0.0621034 0
M  V30 5463 O 516.003 -1.90584 0.0907906 0
M  V30 5464 C 513.143 -3.39425 0.62327 0
M  V30 5465 C 512.256 -3.9364 1.77966 0
M  V30 5466 C 511.391 -5.14343 1.3276 0
M  V30 5467 C 510.43 -5.60733 2.45449 0
M  V30 5468 N 509.567 -6.72662 2.01172 0
M  V30 5469 H 514.407 -2.24704 1.95734 0
M  V30 5470 H 511.944 -1.10143 0.975034 0
M  V30 5471 H 513.902 -4.15526 0.37332 0
M  V30 5472 H 512.532 -3.21624 -0.275329 0
M  V30 5473 H 511.584 -3.14258 2.14351 0
M  V30 5474 H 512.896 -4.24035 2.62671 0
M  V30 5475 H 512.05 -5.97789 1.03601 0
M  V30 5476 H 510.789 -4.8561 0.450975 0
M  V30 5477 H 509.794 -4.75865 2.75378 0
M  V30 5478 H 511.019 -5.91483 3.33654 0
M  V30 5479 H 508.965 -6.45681 1.15895 0
M  V30 5480 H 508.882 -7.02462 2.79434 0
M  V30 5481 H 510.15 -7.59572 1.75129 0
M  V30 5482 N 514.379 -1.04941 -1.1758 0
M  V30 5483 C 515.311 -0.606174 -2.21039 0
M  V30 5484 C 516.324 0.328763 -1.59446 0
M  V30 5485 O 517.513 0.121895 -1.78083 0
M  V30 5486 C 514.613 0.133294 -3.38638 0
M  V30 5487 C 513.786 -0.811711 -4.29802 0
M  V30 5488 C 512.845 -0.113958 -5.26077 0
M  V30 5489 O 511.871 -0.747237 -5.64274 0
M  V30 5490 N 513.073 1.14953 -5.69004 0
M  V30 5491 H 515.838 -1.49606 -2.59689 0
M  V30 5492 H 513.399 -0.930997 -1.32454 0
M  V30 5493 H 515.391 0.610144 -4.00074 0
M  V30 5494 H 513.961 0.924816 -2.98607 0
M  V30 5495 H 513.181 -1.46824 -3.65837 0
M  V30 5496 H 514.469 -1.45326 -4.87604 0
M  V30 5497 H 513.867 1.68441 -5.40041 0
M  V30 5498 H 512.424 1.57049 -6.32597 0
M  V30 5499 N 515.857 1.33968 -0.830081 0
M  V30 5500 C 516.804 2.29387 -0.255008 0
M  V30 5501 C 517.774 1.53923 0.624243 0
M  V30 5502 O 518.959 1.82262 0.564372 0
M  V30 5503 C 516.099 3.4034 0.571209 0
M  V30 5504 C 515.212 4.30729 -0.331083 0
M  V30 5505 C 514.347 5.2879 0.505389 0
M  V30 5506 C 513.386 6.10819 -0.395843 0
M  V30 5507 N 512.523 7.00948 0.401979 0
M  V30 5508 H 517.363 2.77972 -1.07404 0
M  V30 5509 H 514.9 1.36785 -0.541133 0
M  V30 5510 H 516.858 4.03361 1.06562 0
M  V30 5511 H 515.488 2.9297 1.35529 0
M  V30 5512 H 514.54 3.68507 -0.943759 0
M  V30 5513 H 515.852 4.88181 -1.02377 0
M  V30 5514 H 515.006 5.97297 1.06399 0
M  V30 5515 H 513.745 4.71894 1.23155 0
M  V30 5516 H 512.75 5.41238 -0.966529 0
M  V30 5517 H 513.975 6.69797 -1.12023 0
M  V30 5518 H 511.921 6.46512 1.11168 0
M  V30 5519 H 511.838 7.55643 -0.232167 0
M  V30 5520 H 513.106 7.73774 0.943102 0
M  V30 5521 N 517.335 0.585699 1.46312 0
M  V30 5522 C 518.283 -0.158577 2.32059 0
M  V30 5523 C 519.277 -0.881427 1.44662 0
M  V30 5524 O 520.483 -0.799476 1.61271 0
M  V30 5525 H 516.858 -0.0700066 0.748734 0
M  V30 5526 H 518.829 0.583383 2.92642 0
M  V30 5527 C 517.578 -1.15701 3.27885 0
M  V30 5528 H 516.901 -0.610215 3.95116 0
M  V30 5529 H 518.341 -1.64812 3.90657 0
M  V30 5530 C 516.8 -2.21951 2.53455 0
M  V30 5531 O 517.33 -3.29352 2.29978 0
M  V30 5532 N 515.536 -1.9664 2.13965 0
M  V30 5533 H 515.083 -1.09309 2.33258 0
M  V30 5534 H 515.041 -2.6794 1.64485 0
M  V30 5535 N 518.813 -1.54241 0.323641 0
M  V30 5536 C 519.76 -2.24339 -0.542277 0
M  V30 5537 C 520.73 -1.23421 -1.11159 0
M  V30 5538 O 521.915 -1.52104 -1.15192 0
M  V30 5539 C 519.055 -3.00479 -1.69725 0
M  V30 5540 C 518.168 -4.16214 -1.15716 0
M  V30 5541 C 517.303 -4.79884 -2.27783 0
M  V30 5542 C 516.342 -5.87722 -1.71023 0
M  V30 5543 N 515.479 -6.45254 -2.76752 0
M  V30 5544 H 520.319 -2.97935 0.0620613 0
M  V30 5545 H 517.856 -1.47039 0.0423993 0
M  V30 5546 H 519.814 -3.42869 -2.3769 0
M  V30 5547 H 518.444 -2.29217 -2.27288 0
M  V30 5548 H 517.496 -3.78605 -0.369063 0
M  V30 5549 H 518.808 -4.93838 -0.701832 0
M  V30 5550 H 517.962 -5.25243 -3.03651 0
M  V30 5551 H 516.701 -4.01641 -2.76652 0
M  V30 5552 H 515.706 -5.41765 -0.936518 0
M  V30 5553 H 516.931 -6.67863 -1.2303 0
M  V30 5554 H 514.877 -5.69884 -3.24912 0
M  V30 5555 H 514.794 -7.18292 -2.35782 0
M  V30 5556 H 516.062 -6.95269 -3.5245 0
M  V30 5557 N 520.291 -0.0518155 -1.57515 0
M  V30 5558 C 521.521 0.63048 -1.96745 0
M  V30 5559 C 521.929 1.64875 -0.928054 0
M  V30 5560 O 521.272 1.83449 0.0960678 0
M  V30 5561 C 521.334 1.37381 -3.32215 0
M  V30 5562 C 520.998 0.511298 -4.54131 0
M  V30 5563 C 521.995 -0.222884 -5.19422 0
M  V30 5564 C 519.68 0.442035 -5.00351 0
M  V30 5565 C 521.674 -1.01476 -6.2927 0
M  V30 5566 C 519.361 -0.35353 -6.10077 0
M  V30 5567 C 520.359 -1.08062 -6.74397 0
M  V30 5568 O 520.047 -1.8631 -7.82013 0
M  V30 5569 H 519.779 0.177126 -0.652382 0
M  V30 5570 H 522.333 -0.114726 -2.05079 0
M  V30 5571 H 520.563 2.16466 -3.20436 0
M  V30 5572 H 522.252 1.9464 -3.56188 0
M  V30 5573 H 523.018 -0.178846 -4.8467 0
M  V30 5574 H 518.897 0.997562 -4.50077 0
M  V30 5575 H 522.441 -1.58279 -6.79407 0
M  V30 5576 H 518.338 -0.399205 -6.44264 0
M  V30 5577 H 519.106 -1.78528 -7.98793 0
M  V30 5578 N 521.769 1.56035 0.221574 0
M  V30 5579 C 522.716 1.92413 1.27459 0
M  V30 5580 C 523.686 0.781323 1.46576 0
M  V30 5581 O 524.871 1.03721 1.60145 0
M  V30 5582 C 522.011 2.24617 2.61995 0
M  V30 5583 C 521.124 3.51831 2.50677 0
M  V30 5584 C 520.259 3.73482 3.77736 0
M  V30 5585 C 519.298 4.94211 3.6114 0
M  V30 5586 N 518.435 5.12252 4.80148 0
M  V30 5587 H 523.275 2.82203 0.957355 0
M  V30 5588 H 520.812 1.39676 0.461415 0
M  V30 5589 H 522.77 2.41298 3.40339 0
M  V30 5590 H 521.4 1.38 2.91815 0
M  V30 5591 H 520.452 3.43343 1.63767 0
M  V30 5592 H 521.764 4.40328 2.34334 0
M  V30 5593 H 520.918 3.9026 4.64523 0
M  V30 5594 H 519.657 2.83266 3.97003 0
M  V30 5595 H 518.662 4.77384 2.72736 0
M  V30 5596 H 519.887 5.85912 3.43343 0
M  V30 5597 H 517.833 4.24978 4.99729 0
M  V30 5598 H 517.75 5.94881 4.66532 0
M  V30 5599 H 519.018 5.33465 5.68362 0
M  V30 5600 N 523.247 -0.488276 1.49845 0
M  V30 5601 C 524.496 -1.23826 1.59217 0
M  V30 5602 C 524.809 -1.93439 0.289966 0
M  V30 5603 O 526.015 -2.70229 0.262382 0
M  V30 5604 C 524.471 -2.24902 2.80976 0
M  V30 5605 C 524.079 -1.6117 4.18005 0
M  V30 5606 C 525.823 -3.00648 2.99685 0
M  V30 5607 C 523.73 -2.60431 5.3097 0
M  V30 5608 H 522.66 -0.465858 0.592868 0
M  V30 5609 H 525.311 -0.510645 1.76252 0
M  V30 5610 H 523.693 -3.0088 2.57463 0
M  V30 5611 H 524.867 -0.910968 4.51706 0
M  V30 5612 H 523.182 -0.97767 4.0476 0
M  V30 5613 H 525.779 -3.74903 3.81251 0
M  V30 5614 H 526.122 -3.5902 2.10738 0
M  V30 5615 H 526.655 -2.31784 3.23297 0
M  V30 5616 H 523.394 -2.06823 6.22017 0
M  V30 5617 H 522.914 -3.28707 5.01709 0
M  V30 5618 H 524.593 -3.22606 5.60834 0
M  V30 5619 N 524.725 -1.39134 -0.740242 0
M  V30 5620 C 526.002 -1.26584 -1.49117 0
M  V30 5621 C 526.382 0.126902 -2.10718 0
M  V30 5622 O 525.73 1.13765 -1.98166 0
M  V30 5623 C 525.94 -2.38619 -2.54681 0
M  V30 5624 C 527.288 -2.77685 -3.21211 0
M  V30 5625 O 528.312 -2.38029 -2.64991 0
M  V30 5626 O 527.171 -3.46115 -4.22926 0
M  V30 5627 H 524.265 -0.495769 -0.661923 0
M  V30 5628 H 526.811 -1.50995 -0.774514 0
M  V30 5629 H 525.583 -3.3175 -2.07504 0
M  V30 5630 H 525.206 -2.15845 -3.33911 0
M  V30 5631 O 526.242 0.881206 -1.3534 0
M  V30 5632 H 526.933 1.51869 -1.20231 0
M  V30 END ATOM
M  V30 BEGIN BOND
M  V30 END BOND
M  V30 END CTAB
M  END
$$$$
