drugbank_target|P13100 Thymidylate synthase (DB03541; DB03800)
 OpenBabel12092120283D

  0  0  0     0  0            999 V3000
M  V30 BEGIN CTAB
M  V30 COUNTS 4790 4852 0 0 0
M  V30 BEGIN ATOM
M  V30 1 H -0.908 1.98254 -0.117106 0
M  V30 2 N 0 1.576 0 0
M  V30 3 C 0.933 2.03868 1.02534 0
M  V30 4 C 1.911 0.928543 1.3348 0
M  V30 5 O 3.095 1.19667 1.45644 0
M  V30 6 C 0.222 2.43627 2.35294 0
M  V30 7 C -0.732 3.65373 2.2001 0
M  V30 8 S 0.101 5.13292 1.52614 0
M  V30 9 C 1.257 5.56322 2.86805 0
M  V30 10 H 1.49 2.90518 0.631377 0
M  V30 11 H -0.977 1.52953 0.210867 0
M  V30 12 H 0.981 2.67203 3.11629 0
M  V30 13 H -0.358 1.57376 2.7183 0
M  V30 14 H -1.165 3.90944 3.18086 0
M  V30 15 H -1.563 3.418 1.51819 0
M  V30 16 H 0.729 5.58782 3.83104 0
M  V30 17 H 1.672 6.56266 2.65933 0
M  V30 18 H 2.08 4.83886 2.90714 0
M  V30 19 N 1.4781 -0.272755 1.55222 0
M  V30 20 C 2.7241 -1.00581 1.761 0
M  V30 21 C 3.0571 -1.85932 0.560625 0
M  V30 22 O 2.3321 -1.89416 -0.441801 0
M  V30 23 C 2.6151 -1.88816 3.06628 0
M  V30 24 C 2.4681 -1.06457 4.37021 0
M  V30 25 C 3.7871 -2.8752 3.33197 0
M  V30 26 H 0.9061 -0.364244 0.640699 0
M  V30 27 H 3.5481 -0.278189 1.87952 0
M  V30 28 H 1.6981 -2.50856 2.96654 0
M  V30 29 H 3.3701 -0.464863 4.58952 0
M  V30 30 H 1.6131 -0.368043 4.32236 0
M  V30 31 H 2.2841 -1.71514 5.24678 0
M  V30 32 H 4.7601 -2.35615 3.42965 0
M  V30 33 H 3.6361 -3.46399 4.25792 0
M  V30 34 H 3.8971 -3.62657 2.52849 0
M  V30 35 N 2.9562 -1.48159 -0.537278 0
M  V30 36 C 3.9042 -1.62573 -1.66352 0
M  V30 37 C 4.8982 -0.492366 -1.62087 0
M  V30 38 O 6.1042 -0.670847 -1.67032 0
M  V30 39 H 2.4792 -0.511992 -0.550789 0
M  V30 40 H 4.4502 -2.57176 -1.51337 0
M  V30 41 C 3.1992 -1.67583 -3.04649 0
M  V30 42 H 2.5222 -2.54151 -3.08622 0
M  V30 43 H 3.9622 -1.81713 -3.83088 0
M  V30 44 C 2.4212 -0.413039 -3.34358 0
M  V30 45 O 2.9512 0.477259 -3.98855 0
M  V30 46 N 1.1572 -0.286961 -2.8918 0
M  V30 47 H 0.7042 -1.01241 -2.36871 0
M  V30 48 H 0.6622 0.556963 -3.09427 0
M  V30 49 N 4.4343 0.785586 -1.36625 0
M  V30 50 C 5.3973 1.87999 -1.31107 0
M  V30 51 C 6.3973 1.59316 -0.217959 0
M  V30 52 O 7.5873 1.67656 -0.472977 0
M  V30 53 C 4.7193 3.24861 -1.03334 0
M  V30 54 H 5.9123 1.94307 -2.2844 0
M  V30 55 H 3.4653 0.983813 -1.21453 0
M  V30 56 H 4.2003 3.24235 -0.0647432 0
M  V30 57 H 3.9853 3.4707 -1.82441 0
M  V30 58 H 5.4753 4.04929 -1.02088 0
M  V30 59 N 5.9124 1.20967 1.01018 0
M  V30 60 C 6.8224 0.980157 2.13143 0
M  V30 61 C 7.8384 -0.0660665 1.73875 0
M  V30 62 O 9.0144 0.122821 2.01025 0
M  V30 63 C 6.0794 0.54216 3.42435 0
M  V30 64 C 5.1404 1.65999 3.95908 0
M  V30 65 C 4.3734 1.2428 5.19028 0
M  V30 66 O 4.5964 0.114196 5.70286 0
M  V30 67 O 3.5304 2.05271 5.65816 0
M  V30 68 H 7.3564 1.91913 2.35379 0
M  V30 69 H 4.9414 0.994099 1.11526 0
M  V30 70 H 6.8234 0.30744 4.20277 0
M  V30 71 H 5.4984 -0.36815 3.216 0
M  V30 72 H 4.4054 1.94906 3.19316 0
M  V30 73 H 5.7384 2.54753 4.21143 0
M  V30 74 N 7.3905 -1.2043 1.01659 0
M  V30 75 C 8.3005 -2.2689 0.596484 0
M  V30 76 C 9.3165 -1.70107 -0.36599 0
M  V30 77 O 10.4925 -2.00117 -0.226942 0
M  V30 78 C 7.5575 -3.4665 -0.0586659 0
M  V30 79 C 6.6185 -4.18662 0.949751 0
M  V30 80 C 5.8515 -5.32705 0.32577 0
M  V30 81 O 6.0745 -5.63656 -0.874509 0
M  V30 82 O 5.0085 -5.92803 1.04249 0
M  V30 83 H 8.8345 -2.65041 1.4828 0
M  V30 84 H 6.4195 -1.27048 0.786082 0
M  V30 85 H 8.3015 -4.19256 -0.424564 0
M  V30 86 H 6.9765 -3.10375 -0.91918 0
M  V30 87 H 5.8835 -3.48229 1.36702 0
M  V30 88 H 7.2165 -4.58878 1.78023 0
M  V30 89 N 8.8686 -0.792821 -1.36206 0
M  V30 90 C 9.8006 -0.151469 -2.28699 0
M  V30 91 C 10.8136 0.641262 -1.49638 0
M  V30 92 O 12.0026 0.475885 -1.72039 0
M  V30 93 C 9.1026 0.808424 -3.29117 0
M  V30 94 C 8.2756 0.0650202 -4.37352 0
M  V30 95 C 7.3346 0.941358 -5.17711 0
M  V30 96 O 6.3606 0.397352 -5.67811 0
M  V30 97 N 7.5626 2.2652 -5.3448 0
M  V30 98 H 10.3276 -0.945982 -2.84379 0
M  V30 99 H 7.8886 -0.647032 -1.48409 0
M  V30 100 H 9.8806 1.3986 -3.79765 0
M  V30 101 H 8.4506 1.5038 -2.74052 0
M  V30 102 H 7.6706 -0.706255 -3.87822 0
M  V30 103 H 8.9586 -0.447847 -5.06825 0
M  V30 104 H 8.3566 2.73128 -4.95396 0
M  V30 105 H 6.9136 2.80493 -5.88359 0
M  V30 106 N 10.3467 1.47872 -0.545128 0
M  V30 107 C 11.2787 2.27869 0.246621 0
M  V30 108 C 12.2917 1.36282 0.890561 0
M  V30 109 O 13.4807 1.61207 0.766449 0
M  V30 110 C 10.5807 3.10159 1.36582 0
M  V30 111 C 9.7537 4.29627 0.820954 0
M  V30 112 C 8.8127 4.93607 1.82314 0
M  V30 113 O 7.8387 5.52366 1.37406 0
M  V30 114 N 9.0407 4.87211 3.15603 0
M  V30 115 H 11.8057 2.96459 -0.439539 0
M  V30 116 H 9.3667 1.57367 -0.380421 0
M  V30 117 H 11.3587 3.49829 2.03474 0
M  V30 118 H 9.9287 2.43891 1.9554 0
M  V30 119 H 9.1487 3.94192 -0.0244032 0
M  V30 120 H 10.4367 5.06928 0.436063 0
M  V30 121 H 9.8347 4.40651 3.54744 0
M  V30 122 H 8.3917 5.30937 3.78087 0
M  V30 123 N 11.8248 0.280983 1.55075 0
M  V30 124 C 13.0548 -0.336804 2.03836 0
M  V30 125 C 13.4628 -1.49577 1.15859 0
M  V30 126 O 12.8058 -1.82888 0.172503 0
M  V30 127 C 12.8678 -0.874616 3.48699 0
M  V30 128 C 12.5318 0.156478 4.56732 0
M  V30 129 C 13.5288 0.978032 5.10618 0
M  V30 130 C 11.2138 0.292409 5.01448 0
M  V30 131 C 13.2078 1.92165 6.07743 0
M  V30 132 C 10.8948 1.23949 5.98398 0
M  V30 133 C 11.8928 2.05261 6.51427 0
M  V30 134 O 11.5808 2.98367 7.4648 0
M  V30 135 H 11.3128 -0.0800885 0.671239 0
M  V30 136 H 13.8668 0.412589 2.01213 0
M  V30 137 H 12.0968 -1.67418 3.4858 0
M  V30 138 H 13.7858 -1.40612 3.80766 0
M  V30 139 H 14.5518 0.883782 4.7688 0
M  V30 140 H 10.4308 -0.330498 4.59814 0
M  V30 141 H 13.9748 2.55672 6.49059 0
M  V30 142 H 9.8718 1.33454 6.31554 0
M  V30 143 H 10.6398 2.93116 7.64215 0
M  V30 144 N 13.3029 -1.57598 0.00835791 0
M  V30 145 C 14.2329 -2.1198 -0.979113 0
M  V30 146 C 15.2139 -1.03091 -1.35301 0
M  V30 147 O 16.3989 -1.30818 -1.43528 0
M  V30 148 C 13.5289 -2.62995 -2.26828 0
M  V30 149 C 12.4829 -3.76485 -2.03576 0
M  V30 150 C 11.8089 -4.13846 -3.38579 0
M  V30 151 C 13.1089 -5.0342 -1.39161 0
M  V30 152 H 14.8029 -2.94738 -0.526281 0
M  V30 153 H 12.3489 -1.41783 -0.251704 0
M  V30 154 H 14.3019 -2.99669 -2.96271 0
M  V30 155 H 13.0259 -1.7737 -2.7424 0
M  V30 156 H 11.6849 -3.40217 -1.36557 0
M  V30 157 H 11.3329 -3.25232 -3.83709 0
M  V30 158 H 11.0329 -4.90312 -3.23834 0
M  V30 159 H 12.5569 -4.53086 -4.09323 0
M  V30 160 H 13.9709 -5.37812 -1.98573 0
M  V30 161 H 12.3679 -5.84746 -1.34878 0
M  V30 162 H 13.4379 -4.83548 -0.361868 0
M  V30 163 N 14.781 0.264519 -1.55364 0
M  V30 164 C 15.729 1.34702 -1.89626 0
M  V30 165 C 16.723 1.50712 -0.773459 0
M  V30 166 O 17.929 1.52395 -0.957897 0
M  V30 167 H 14.304 0.450682 -0.601988 0
M  V30 168 H 16.275 1.0306 -2.80038 0
M  V30 169 C 15.024 2.6989 -2.19214 0
M  V30 170 H 14.347 2.58365 -3.05103 0
M  V30 171 H 15.787 3.44553 -2.47102 0
M  V30 172 C 14.246 3.21637 -1.00254 0
M  V30 173 O 14.776 4.00973 -0.241501 0
M  V30 174 N 12.982 2.7943 -0.797938 0
M  V30 175 H 12.529 2.15026 -1.4185 0
M  V30 176 H 12.487 3.144 -0.00363422 0
M  V30 177 N 16.2591 1.48442 0.529413 0
M  V30 178 C 17.1891 1.65902 1.64313 0
M  V30 179 C 18.1701 0.507897 1.6234 0
M  V30 180 O 19.3551 0.740503 1.79528 0
M  V30 181 C 16.4851 1.69911 3.02898 0
M  V30 182 C 15.4391 2.8453 3.19729 0
M  V30 183 C 14.7651 2.73629 4.59381 0
M  V30 184 C 16.0651 4.25821 3.02447 0
M  V30 185 H 17.7591 2.5914 1.49955 0
M  V30 186 H 15.3051 1.24709 0.719982 0
M  V30 187 H 17.2581 1.80715 3.80684 0
M  V30 188 H 15.9821 0.732524 3.18279 0
M  V30 189 H 14.6411 2.73283 2.44361 0
M  V30 190 H 14.2891 1.74938 4.71599 0
M  V30 191 H 13.9891 3.50541 4.71588 0
M  V30 192 H 15.5131 2.86401 5.39265 0
M  V30 193 H 16.9271 4.37898 3.70024 0
M  V30 194 H 15.3241 5.03735 3.26146 0
M  V30 195 H 16.3941 4.42244 1.98867 0
M  V30 196 N 17.7372 -0.778329 1.37039 0
M  V30 197 C 18.9832 -1.53892 1.32079 0
M  V30 198 C 19.3162 -1.9396 -0.0965386 0
M  V30 199 O 18.5912 -1.63568 -1.05242 0
M  V30 200 C 18.8742 -2.80847 2.25382 0
M  V30 201 C 18.7272 -2.47076 3.75864 0
M  V30 202 C 20.0462 -3.82741 2.1725 0
M  V30 203 H 17.1652 -0.558303 0.48111 0
M  V30 204 H 19.8072 -0.893397 1.67685 0
M  V30 205 H 17.9572 -3.35931 1.95148 0
M  V30 206 H 19.6292 -1.97957 4.16666 0
M  V30 207 H 17.8722 -1.79863 3.94755 0
M  V30 208 H 18.5432 -3.37798 4.36574 0
M  V30 209 H 21.0192 -3.37133 2.43887 0
M  V30 210 H 19.8952 -4.69303 2.84686 0
M  V30 211 H 20.1562 -4.2652 1.16331 0
M  V30 212 N 19.2153 -1.21501 -1.00376 0
M  V30 213 C 20.1473 -0.933174 -2.09343 0
M  V30 214 C 21.1603 0.0840896 -1.62583 0
M  V30 215 O 22.3493 -0.148563 -1.77881 0
M  V30 216 C 19.4493 -0.379869 -3.36764 0
M  V30 217 C 18.6223 -1.45176 -4.12605 0
M  V30 218 C 17.6813 -0.907476 -5.18316 0
M  V30 219 O 16.7073 -1.5912 -5.46507 0
M  V30 220 N 17.9093 0.276649 -5.7984 0
M  V30 221 H 20.6743 -1.87124 -2.34104 0
M  V30 222 H 18.2353 -1.12043 -1.16867 0
M  V30 223 H 20.2273 -0.00131488 -4.047 0
M  V30 224 H 18.7973 0.463048 -3.09151 0
M  V30 225 H 18.0173 -2.00411 -3.39454 0
M  V30 226 H 19.3053 -2.17328 -4.6005 0
M  V30 227 H 18.7033 0.849147 -5.59291 0
M  V30 228 H 17.2603 0.596702 -6.49063 0
M  V30 229 N 20.6934 1.19889 -1.02296 0
M  V30 230 C 21.9234 1.93109 -0.734332 0
M  V30 231 C 22.3314 1.75377 0.709889 0
M  V30 232 O 21.6744 1.06912 1.49384 0
M  V30 233 C 21.7364 3.45362 -0.99827 0
M  V30 234 C 21.4004 3.8686 -2.43287 0
M  V30 235 C 22.3974 3.92102 -3.41397 0
M  V30 236 C 20.0824 4.18668 -2.77529 0
M  V30 237 C 22.0764 4.28573 -4.71809 0
M  V30 238 C 19.7634 4.54813 -4.08153 0
M  V30 239 C 20.7614 4.59739 -5.05103 0
M  V30 240 O 20.4494 4.95051 -6.33388 0
M  V30 241 H 20.1814 0.620409 -0.268456 0
M  V30 242 H 22.7354 1.53144 -1.3688 0
M  V30 243 H 20.9654 3.85482 -0.306645 0
M  V30 244 H 22.6544 3.99814 -0.700234 0
M  V30 245 H 23.4204 3.67685 -3.1628 0
M  V30 246 H 19.2994 4.14021 -2.0275 0
M  V30 247 H 22.8434 4.32333 -5.4748 0
M  V30 248 H 18.7404 4.78687 -4.33047 0
M  V30 249 H 19.5084 5.1302 -6.37772 0
M  V30 250 N 22.1715 0.800033 1.35784 0
M  V30 251 C 23.4205 0.37387 1.98205 0
M  V30 252 C 23.7335 -1.06302 1.64193 0
M  V30 253 O 24.9395 -1.59198 2.19928 0
M  V30 254 C 23.3955 0.617532 3.54562 0
M  V30 255 C 23.0035 2.06654 3.9749 0
M  V30 256 C 24.7475 0.256401 4.23725 0
M  V30 257 C 22.6545 2.2563 5.46667 0
M  V30 258 H 21.5845 0.136055 0.741623 0
M  V30 259 H 24.2355 0.983166 1.54939 0
M  V30 260 H 22.6175 -0.0616248 3.95952 0
M  V30 261 H 23.7915 2.78296 3.67271 0
M  V30 262 H 22.1065 2.38691 3.41197 0
M  V30 263 H 24.7035 0.376318 5.33374 0
M  V30 264 H 25.0465 -0.796692 4.08606 0
M  V30 265 H 25.5795 0.889214 3.87734 0
M  V30 266 H 22.3185 3.2936 5.66747 0
M  V30 267 H 21.8385 1.58504 5.78478 0
M  V30 268 H 23.5175 2.06861 6.1304 0
M  V30 269 N 23.6496 -1.47581 0.552962 0
M  V30 270 C 24.8986 -2.01684 0.0251995 0
M  V30 271 C 25.2116 -1.43317 -1.33115 0
M  V30 272 O 26.4176 -1.89057 -1.94858 0
M  V30 273 C 24.8736 -3.599 -0.00542052 0
M  V30 274 C 24.4816 -4.27257 1.34742 0
M  V30 275 C 26.2256 -4.21768 -0.4808 0
M  V30 276 C 24.1326 -5.77467 1.27614 0
M  V30 277 H 23.0626 -0.753979 0.00565033 0
M  V30 278 H 25.7136 -1.69616 0.70018 0
M  V30 279 H 24.0956 -3.88911 -0.745961 0
M  V30 280 H 25.2696 -4.09893 2.10534 0
M  V30 281 H 23.5846 -3.77358 1.76039 0
M  V30 282 H 26.1816 -5.31838 -0.55246 0
M  V30 283 H 26.5246 -3.88651 -1.49184 0
M  V30 284 H 27.0576 -3.97273 0.204752 0
M  V30 285 H 23.7966 -6.15196 2.26304 0
M  V30 286 H 23.3166 -5.9718 0.55996 0
M  V30 287 H 24.9956 -6.3959 0.976421 0
M  V30 288 N 25.1277 -0.289203 -1.54924 0
M  V30 289 C 26.0757 0.607966 -2.24514 0
M  V30 290 C 27.0697 1.14655 -1.24702 0
M  V30 291 O 28.2757 1.09856 -1.4259 0
M  V30 292 H 24.6507 0.21464 -0.720718 0
M  V30 293 H 26.6217 -0.00164182 -2.984 0
M  V30 294 C 25.3707 1.77406 -2.99036 0
M  V30 295 H 24.6937 1.36884 -3.75637 0
M  V30 296 H 26.1337 2.37814 -3.51028 0
M  V30 297 C 24.5927 2.67107 -2.05318 0
M  V30 298 O 25.1227 3.6787 -1.61353 0
M  V30 299 N 23.3287 2.34582 -1.71521 0
M  V30 300 H 22.8757 1.52688 -2.07471 0
M  V30 301 H 22.8337 2.94867 -1.0909 0
M  V30 302 N 26.6058 1.57591 -0.0167156 0
M  V30 303 C 27.5558 2.05953 0.978137 0
M  V30 304 C 28.5398 0.957532 1.29306 0
M  V30 305 O 29.7318 1.22119 1.28125 0
M  V30 306 C 26.8608 2.58006 2.26468 0
M  V30 307 C 25.9468 3.75113 1.97867 0
M  V30 308 N 26.3378 4.86187 1.39486 0
M  V30 309 C 24.6358 3.83363 2.27924 0
M  V30 310 C 25.3368 5.67502 1.27735 0
M  V30 311 N 24.3128 5.14023 1.76866 0
M  V30 312 H 28.1148 2.89236 0.521522 0
M  V30 313 H 25.6288 1.61301 0.188596 0
M  V30 314 H 27.6258 2.90937 2.98599 0
M  V30 315 H 26.2858 1.76148 2.72767 0
M  V30 316 H 27.2968 5.06695 1.07147 0
M  V30 317 H 23.9738 3.1239 2.76982 0
M  V30 318 H 25.3638 6.66791 0.826978 0
M  V30 319 N 28.0839 -0.256276 1.55502 0
M  V30 320 C 29.3319 -0.983672 1.76545 0
M  V30 321 C 29.6529 -1.86206 0.578982 0
M  V30 322 O 28.9229 -1.91656 -0.405577 0
M  V30 323 H 27.5029 -0.366191 0.651086 0
M  V30 324 H 30.1649 -0.276479 1.92929 0
M  V30 325 H 29.2609 -1.61087 2.67315 0
M  V30 326 N 29.562 -1.4872 -0.521534 0
M  V30 327 C 30.472 -1.66569 -1.65203 0
M  V30 328 C 31.488 -0.548197 -1.65139 0
M  V30 329 O 32.664 -0.820339 -1.83936 0
M  V30 330 C 29.729 -1.70917 -3.01642 0
M  V30 331 C 28.79 -2.94356 -3.12495 0
M  V30 332 C 28.023 -2.98487 -4.42426 0
M  V30 333 O 28.246 -2.10786 -5.30024 0
M  V30 334 O 27.18 -3.90746 -4.57822 0
M  V30 335 H 31.006 -2.62298 -1.5308 0
M  V30 336 H 28.591 -1.3222 -0.695565 0
M  V30 337 H 30.473 -1.7625 -3.82771 0
M  V30 338 H 29.148 -0.783633 -3.14071 0
M  V30 339 H 28.055 -2.94552 -2.3063 0
M  V30 340 H 29.388 -3.86322 -3.04986 0
M  V30 341 N 31.0401 0.771051 -1.3745 0
M  V30 342 C 32.3171 1.519 -1.23231 0
M  V30 343 C 32.6971 2.10383 0.173809 0
M  V30 344 O 32.0451 1.95583 1.18151 0
M  V30 345 C 32.2551 2.59933 -2.32886 0
M  V30 346 C 33.6031 3.27316 -2.70461 0
M  V30 347 O 34.6271 2.70228 -2.32068 0
M  V30 348 O 33.4861 4.30531 -3.36608 0
M  V30 349 H 30.5801 0.672803 -0.480901 0
M  V30 350 H 33.1261 0.807957 -1.49232 0
M  V30 351 H 31.8981 2.14842 -3.27045 0
M  V30 352 H 31.5211 3.38637 -2.08353 0
M  V30 353 N 32.5182 1.22032 0.997298 0
M  V30 354 C 33.9342 0.979326 1.26021 0
M  V30 355 C 34.1342 -0.32972 1.98784 0
M  V30 356 O 33.1902 -1.05345 2.29475 0
M  V30 357 C 34.5032 2.17509 2.07631 0
M  V30 358 C 36.0512 2.21817 2.2083 0
M  V30 359 C 36.5262 3.40933 3.05825 0
M  V30 360 N 38.0172 3.41067 3.13412 0
M  V30 361 C 38.7522 4.29885 3.79455 0
M  V30 362 N 38.2482 5.28914 4.47462 0
M  V30 363 N 40.0412 4.17673 3.76173 0
M  V30 364 H 32.1922 2.06202 0.509352 0
M  V30 365 H 34.4552 0.90334 0.287541 0
M  V30 366 H 34.1612 3.12415 1.61524 0
M  V30 367 H 34.0352 2.17206 3.08385 0
M  V30 368 H 36.4222 1.27462 2.66153 0
M  V30 369 H 36.5032 2.2616 1.1952 0
M  V30 370 H 36.1472 4.35586 2.61203 0
M  V30 371 H 36.0772 3.33829 4.07266 0
M  V30 372 H 38.5682 2.69406 2.65007 0
M  V30 373 H 38.8812 5.92973 4.95583 0
M  V30 374 H 37.2262 5.32831 4.46224 0
M  V30 375 H 40.4172 3.39564 3.22202 0
M  V30 376 H 40.5902 4.87098 4.27363 0
M  V30 377 N 33.9963 -1.19345 1.0293 0
M  V30 378 C 35.4073 -1.70725 0.755633 0
M  V30 379 C 35.7583 -1.82326 -0.724676 0
M  V30 380 O 34.8833 -1.49471 -1.56484 0
M  V30 381 C 35.4783 -3.10084 1.36503 0
M  V30 382 C 34.0373 -3.58723 1.13994 0
M  V30 383 C 33.1843 -2.35577 1.46283 0
M  V30 384 H 36.1353 -1.0418 1.19718 0
M  V30 385 H 36.1563 -3.72787 0.762217 0
M  V30 386 H 35.6683 -3.01609 2.44241 0
M  V30 387 H 33.7693 -3.72512 0.0807901 0
M  V30 388 H 33.8823 -4.42816 1.82894 0
M  V30 389 H 32.2463 -2.38935 0.88217 0
M  V30 390 H 33.0293 -2.29731 2.55105 0
M  V30 391 N 35.4744 -0.807222 -1.35358 0
M  V30 392 C 36.7514 -0.311126 -1.9311 0
M  V30 393 C 37.1314 1.19937 -1.73719 0
M  V30 394 O 36.4794 1.99918 -1.10657 0
M  V30 395 C 36.6894 -0.723226 -3.41424 0
M  V30 396 C 38.0374 -0.713078 -4.18569 0
M  V30 397 O 39.0614 -0.664811 -3.49941 0
M  V30 398 O 37.9204 -0.772022 -5.41019 0
M  V30 399 H 35.0144 -0.081526 -0.822972 0
M  V30 400 H 37.5604 -0.890962 -1.4443 0
M  V30 401 H 36.3324 -1.76426 -3.4927 0
M  V30 402 H 35.9554 -0.118232 -3.97424 0
M  V30 403 N 36.9525 1.47285 -0.560781 0
M  V30 404 C 38.3685 1.58065 -0.22081 0
M  V30 405 C 38.5685 1.55892 1.27671 0
M  V30 406 O 37.6245 1.46422 2.0571 0
M  V30 407 C 38.9375 2.88418 -0.850625 0
M  V30 408 C 40.4855 3.02009 -0.822184 0
M  V30 409 C 40.9605 4.35066 -1.43113 0
M  V30 410 N 42.4515 4.41711 -1.39448 0
M  V30 411 C 43.1865 5.43237 -1.83525 0
M  V30 412 N 42.6825 6.51555 -2.35474 0
M  V30 413 N 44.4755 5.34304 -1.74574 0
M  V30 414 H 36.6265 1.46941 -1.53369 0
M  V30 415 H 38.8895 0.699558 -0.639783 0
M  V30 416 H 38.5955 2.95755 -1.9032 0
M  V30 417 H 38.4695 3.75612 -0.345773 0
M  V30 418 H 40.8565 2.94266 0.221714 0
M  V30 419 H 40.9375 2.16347 -1.36483 0
M  V30 420 H 40.5815 4.43565 -2.47412 0
M  V30 421 H 40.5115 5.19465 -0.863899 0
M  V30 422 H 43.0025 3.64027 -1.01452 0
M  V30 423 H 43.3155 7.25203 -2.67021 0
M  V30 424 H 41.6605 6.52435 -2.39487 0
M  V30 425 H 44.8515 4.48581 -1.33763 0
M  V30 426 H 45.0245 6.13288 -2.09242 0
M  V30 427 N 38.4306 0.297415 1.54768 0
M  V30 428 C 39.6586 -0.315623 2.04478 0
M  V30 429 C 40.0736 -1.47792 1.17486 0
M  V30 430 O 39.4306 -1.81404 0.19971 0
M  V30 431 C 39.4816 -0.7753 3.53088 0
M  V30 432 O 39.2026 0.340732 4.36773 0
M  V30 433 C 40.7036 -1.45386 4.18781 0
M  V30 434 H 37.9236 -0.0690887 0.667434 0
M  V30 435 H 40.4676 0.436003 1.99798 0
M  V30 436 H 38.6226 -1.47696 3.58141 0
M  V30 437 H 39.0366 -0.0165035 5.24497 0
M  V30 438 H 40.5106 -1.72669 5.24299 0
M  V30 439 H 40.9876 -2.39275 3.68299 0
M  V30 440 H 41.5936 -0.795475 4.17795 0
M  V30 441 N 39.9087 -1.5758 0.0250728 0
M  V30 442 C 41.1567 -1.91255 -0.653151 0
M  V30 443 C 41.4777 -0.901691 -1.729 0
M  V30 444 O 40.7477 0.0573785 -1.95816 0
M  V30 445 H 39.3277 -0.705942 -0.244243 0
M  V30 446 H 41.9897 -1.94767 0.0719209 0
M  V30 447 H 41.0857 -2.91752 -1.10847 0
M  V30 448 N 41.3868 0.248026 -1.55636 0
M  V30 449 C 42.6148 0.993808 -1.81469 0
M  V30 450 C 43.0298 1.78991 -0.60064 0
M  V30 451 O 42.3868 1.77345 0.430682 0
M  V30 452 C 42.4378 1.93258 -3.05506 0
M  V30 453 O 42.1588 1.16869 -4.22224 0
M  V30 454 C 43.6598 2.79444 -3.4413 0
M  V30 455 H 40.8798 0.292486 -0.603898 0
M  V30 456 H 43.4238 0.271253 -2.02693 0
M  V30 457 H 41.5788 2.60943 -2.86335 0
M  V30 458 H 41.9928 1.80359 -4.92515 0
M  V30 459 H 43.4668 3.41066 -4.34026 0
M  V30 460 H 43.9438 3.50499 -2.64665 0
M  V30 461 H 44.5498 2.17214 -3.65648 0
M  V30 462 N 42.8649 1.48995 0.513639 0
M  V30 463 C 44.1129 1.57531 1.26604 0
M  V30 464 C 44.4339 0.258236 1.93283 0
M  V30 465 O 43.7039 -0.721502 1.8213 0
M  V30 466 H 42.2839 0.580387 0.470276 0
M  V30 467 H 44.9459 1.85552 0.596373 0
M  V30 468 H 44.0419 2.36486 2.03669 0
M  V30 469 N 44.343 -0.763751 1.37857 0
M  V30 470 C 45.571 -1.55293 1.36718 0
M  V30 471 C 45.986 -1.88745 -0.0455434 0
M  V30 472 O 45.343 -1.52039 -1.00947 0
M  V30 473 C 45.394 -2.85831 2.2132 0
M  V30 474 O 45.115 -2.5381 3.57089 0
M  V30 475 C 46.616 -3.80023 2.28249 0
M  V30 476 H 43.836 -0.480841 0.468009 0
M  V30 477 H 46.38 -0.946009 1.81303 0
M  V30 478 H 44.535 -3.42926 1.80223 0
M  V30 479 H 44.949 -3.37459 4.01524 0
M  V30 480 H 46.423 -4.68599 2.91752 0
M  V30 481 H 46.9 -4.1973 1.2932 0
M  V30 482 H 47.506 -3.28855 2.69693 0
M  V30 483 N 45.8211 -1.22559 -0.990812 0
M  V30 484 C 46.7511 -1.0218 -2.09956 0
M  V30 485 C 47.7321 0.0579394 -1.70001 0
M  V30 486 O 48.9171 -0.104684 -1.93918 0
M  V30 487 C 46.0471 -0.601023 -3.4206 0
M  V30 488 C 45.0011 -1.62694 -3.95872 0
M  V30 489 C 44.3271 -1.06193 -5.24049 0
M  V30 490 C 45.6271 -3.01743 -4.2632 0
M  V30 491 H 47.3211 -1.94916 -2.27262 0
M  V30 492 H 44.8671 -0.938566 -1.09211 0
M  V30 493 H 46.8201 -0.445561 -4.19038 0
M  V30 494 H 45.5441 0.362005 -3.24588 0
M  V30 495 H 44.2031 -1.77021 -3.21028 0
M  V30 496 H 43.8511 -0.0901903 -5.02919 0
M  V30 497 H 43.5511 -1.74732 -5.61019 0
M  V30 498 H 45.0751 -0.918092 -6.03658 0
M  V30 499 H 46.4891 -2.90777 -4.94087 0
M  V30 500 H 44.8861 -3.67425 -4.74467 0
M  V30 501 H 45.9561 -3.51518 -3.34011 0
M  V30 502 N 47.2992 1.18797 -1.03562 0
M  V30 503 C 48.5242 1.9314 -0.755764 0
M  V30 504 C 48.9492 1.7537 0.68022 0
M  V30 505 O 48.3072 1.06046 1.47051 0
M  V30 506 C 48.3552 3.42747 -1.12058 0
M  V30 507 O 47.4592 4.11683 -0.243124 0
M  V30 508 H 46.8002 0.602724 -0.278604 0
M  V30 509 H 49.3302 1.50678 -1.3841 0
M  V30 510 H 49.3402 3.93437 -1.08035 0
M  V30 511 H 48.0152 3.55002 -2.16672 0
M  V30 512 H 46.5922 3.71323 -0.342539 0
M  V30 513 N 48.7773 0.814389 1.34928 0
M  V30 514 C 50.0233 0.399013 1.98836 0
M  V30 515 C 50.3563 -1.03314 1.64438 0
M  V30 516 O 49.6313 -1.71811 0.911659 0
M  V30 517 C 49.9143 0.591629 3.55207 0
M  V30 518 C 49.7673 2.06928 3.99376 0
M  V30 519 C 51.0863 0.022199 4.40094 0
M  V30 520 H 48.2053 0.146451 0.722303 0
M  V30 521 H 50.8473 1.02537 1.59957 0
M  V30 522 H 48.9973 0.0584441 3.88456 0
M  V30 523 H 50.6693 2.66544 3.76499 0
M  V30 524 H 48.9123 2.56287 3.49999 0
M  V30 525 H 49.5833 2.1549 5.08201 0
M  V30 526 H 52.0593 0.477643 4.13349 0
M  V30 527 H 50.9353 0.186832 5.48582 0
M  V30 528 H 51.1963 -1.07215 4.28902 0
M  V30 529 N 50.2554 -1.46986 0.568584 0
M  V30 530 C 51.5024 -2.02441 0.0487986 0
M  V30 531 C 51.8304 -1.44169 -1.30559 0
M  V30 532 O 51.0854 -0.591213 -1.86556 0
M  V30 533 C 51.3844 -3.57306 -0.081836 0
M  V30 534 C 51.0504 -4.34552 1.20313 0
M  V30 535 C 49.7124 -4.55376 1.5552 0
M  V30 536 C 52.0644 -4.79016 2.05411 0
M  V30 537 C 49.3924 -5.17913 2.7565 0
M  V30 538 C 51.7444 -5.42879 3.24754 0
M  V30 539 C 50.4084 -5.61933 3.60261 0
M  V30 540 H 49.6784 -0.740785 0.0178567 0
M  V30 541 H 52.3254 -1.76525 0.742384 0
M  V30 542 H 50.6304 -3.8228 -0.858463 0
M  V30 543 H 52.3274 -3.97876 -0.499546 0
M  V30 544 H 48.9174 -4.18631 0.919014 0
M  V30 545 H 53.1014 -4.62696 1.79516 0
M  V30 546 H 48.3574 -5.30858 3.03315 0
M  V30 547 H 52.5314 -5.76293 3.90973 0
M  V30 548 H 50.1584 -6.10161 4.53439 0
M  V30 549 N 51.7335 -0.305618 -1.54608 0
M  V30 550 C 52.6965 0.555591 -2.22364 0
M  V30 551 C 53.6965 1.05768 -1.21119 0
M  V30 552 O 54.8865 0.952972 -1.45822 0
M  V30 553 C 52.0185 1.76974 -2.91364 0
M  V30 554 H 53.2115 -0.0364572 -2.99878 0
M  V30 555 H 50.7645 -0.0565007 -1.56198 0
M  V30 556 H 51.4995 2.40151 -2.17941 0
M  V30 557 H 51.2845 1.41732 -3.65588 0
M  V30 558 H 52.7745 2.38148 -3.43038 0
M  V30 559 N 53.2116 1.57565 -0.0334293 0
M  V30 560 C 54.6226 1.79746 0.504798 0
M  V30 561 C 54.9736 0.944091 1.71992 0
M  V30 562 O 54.0986 0.155694 2.15839 0
M  V30 563 C 54.6936 3.25997 0.922567 0
M  V30 564 C 53.2526 3.49159 1.40588 0
M  V30 565 C 52.3996 2.74785 0.372633 0
M  V30 566 H 55.3506 1.56565 -0.259436 0
M  V30 567 H 55.3716 3.35945 1.78666 0
M  V30 568 H 54.8836 3.88081 0.0379825 0
M  V30 569 H 52.9846 2.92332 2.31025 0
M  V30 570 H 53.0976 4.57873 1.41028 0
M  V30 571 H 51.4616 2.40391 0.841672 0
M  V30 572 H 52.2446 3.39587 -0.503559 0
M  V30 573 N 54.6897 -0.239769 1.55765 0
M  V30 574 C 55.9147 -0.988373 1.82335 0
M  V30 575 C 56.3397 -1.77886 0.611421 0
M  V30 576 O 55.6977 -1.75889 -0.439639 0
M  V30 577 C 55.7457 -1.89627 3.06715 0
M  V30 578 O 54.8497 -2.98904 2.84131 0
M  V30 579 H 54.1907 -0.280858 0.601677 0
M  V30 580 H 56.7207 -0.258597 2.02959 0
M  V30 581 H 56.7307 -2.30957 3.36338 0
M  V30 582 H 55.4057 -1.31511 3.9456 0
M  V30 583 H 53.9827 -2.61651 2.65694 0
M  V30 584 N 56.1678 -1.49265 -0.50573 0
M  V30 585 C 57.5788 -1.51769 -1.08734 0
M  V30 586 C 57.9298 -0.301192 -1.93874 0
M  V30 587 O 57.0548 0.589456 -2.08217 0
M  V30 588 C 57.6498 -2.75017 -1.97867 0
M  V30 589 C 56.2088 -2.80314 -2.51199 0
M  V30 590 C 55.3558 -2.4562 -1.28709 0
M  V30 591 H 58.3068 -1.56031 -0.289855 0
M  V30 592 H 58.3278 -2.5491 -2.82491 0
M  V30 593 H 57.8398 -3.63539 -1.35873 0
M  V30 594 H 55.9408 -1.96061 -3.16845 0
M  V30 595 H 56.0538 -3.82366 -2.88675 0
M  V30 596 H 54.4178 -1.97297 -1.61078 0
M  V30 597 H 55.2008 -3.36411 -0.6843 0
M  V30 598 N 57.6459 0.756429 -1.3826 0
M  V30 599 C 58.5759 1.88374 -1.37976 0
M  V30 600 C 59.5569 1.68311 -0.246082 0
M  V30 601 O 60.7419 1.88944 -0.44874 0
M  V30 602 C 57.8719 3.25864 -1.20125 0
M  V30 603 C 56.8259 3.60523 -2.30666 0
M  V30 604 C 56.1519 4.9672 -1.97923 0
M  V30 605 C 57.4519 3.65692 -3.72916 0
M  V30 606 H 59.1459 1.88869 -2.32312 0
M  V30 607 H 56.6919 0.907272 -1.11824 0
M  V30 608 H 58.6449 4.0438 -1.18552 0
M  V30 609 H 57.3689 3.25841 -0.222498 0
M  V30 610 H 56.0279 2.84324 -2.3142 0
M  V30 611 H 55.6759 4.93253 -0.985393 0
M  V30 612 H 55.3759 5.20878 -2.71955 0
M  V30 613 H 56.8999 5.77618 -1.97964 0
M  V30 614 H 58.3139 4.34328 -3.74208 0
M  V30 615 H 56.7109 4.01358 -4.4613 0
M  V30 616 H 57.7809 2.65987 -4.05436 0
M  V30 617 N 59.124 1.23083 0.984299 0
M  V30 618 C 60.071 1.00854 2.07598 0
M  V30 619 C 61.041 -0.0726709 1.65941 0
M  V30 620 O 62.226 0.0786535 1.90638 0
M  V30 621 C 59.366 0.601645 3.39815 0
M  V30 622 C 58.479 1.75456 3.94765 0
M  V30 623 C 57.614 1.29482 5.15177 0
M  V30 624 C 56.653 2.41873 5.62284 0
M  V30 625 N 55.79 1.96885 6.73929 0
M  V30 626 H 60.63 1.943 2.25946 0
M  V30 627 H 58.167 0.968001 1.10762 0
M  V30 628 H 60.125 0.346854 4.15756 0
M  V30 629 H 58.755 -0.295803 3.21442 0
M  V30 630 H 57.807 2.12346 3.15616 0
M  V30 631 H 59.119 2.59965 4.25699 0
M  V30 632 H 58.273 0.997923 5.98437 0
M  V30 633 H 57.012 0.420046 4.85888 0
M  V30 634 H 56.017 2.72342 4.77608 0
M  V30 635 H 57.242 3.29881 5.93595 0
M  V30 636 H 55.188 1.11782 6.46406 0
M  V30 637 H 55.105 2.74956 7.04227 0
M  V30 638 H 56.373 1.70289 7.60672 0
M  V30 639 N 60.6021 -1.18246 1.0419 0
M  V30 640 C 61.8491 -1.88257 0.746017 0
M  V30 641 C 62.1771 -1.80429 -0.726331 0
M  V30 642 O 61.4321 -1.2 -1.54591 0
M  V30 643 C 61.7311 -3.38082 1.15911 0
M  V30 644 C 61.3971 -3.66114 2.63195 0
M  V30 645 C 60.0591 -3.73474 3.03432 0
M  V30 646 C 62.4111 -3.78398 3.5842 0
M  V30 647 C 59.7391 -3.90599 4.37778 0
M  V30 648 C 62.0911 -3.97039 4.92487 0
M  V30 649 C 60.7551 -4.02635 5.32392 0
M  V30 650 H 60.0251 -0.688883 0.272987 0
M  V30 651 H 62.6721 -1.3995 1.30715 0
M  V30 652 H 60.9771 -3.88377 0.516806 0
M  V30 653 H 62.6741 -3.90596 0.907516 0
M  V30 654 H 59.2641 -3.61003 2.3103 0
M  V30 655 H 63.4481 -3.72042 3.28479 0
M  V30 656 H 58.7041 -3.93175 4.68213 0
M  V30 657 H 62.8781 -4.05486 5.66175 0
M  V30 658 H 60.5051 -4.15657 6.36501 0
M  V30 659 N 62.0802 -0.821533 -1.34494 0
M  V30 660 C 63.3052 -0.420873 -2.03085 0
M  V30 661 C 63.7302 0.964915 -1.61465 0
M  V30 662 O 63.0882 1.62763 -0.798607 0
M  V30 663 C 63.1362 -0.529414 -3.56693 0
M  V30 664 O 62.2402 0.451302 -4.09923 0
M  V30 665 H 61.5812 -0.173489 -0.640935 0
M  V30 666 H 64.1112 -1.11157 -1.71771 0
M  V30 667 H 64.1212 -0.404671 -4.05988 0
M  V30 668 H 62.7962 -1.54014 -3.86332 0
M  V30 669 H 61.3732 0.285558 -3.71805 0
M  V30 670 N 63.5583 1.46682 -0.576371 0
M  V30 671 C 64.4883 2.33028 0.148397 0
M  V30 672 C 65.4693 1.44961 0.889956 0
M  V30 673 O 66.6543 1.73789 0.866662 0
M  V30 674 C 63.7843 3.27117 1.1667 0
M  V30 675 C 62.7383 4.24575 0.540386 0
M  V30 676 C 62.0643 5.08126 1.6647 0
M  V30 677 C 63.3643 5.19722 -0.518331 0
M  V30 678 H 65.0583 2.93875 -0.572509 0
M  V30 679 H 62.6043 1.41315 -0.276768 0
M  V30 680 H 64.5573 3.86374 1.68204 0
M  V30 681 H 63.2813 2.64364 1.9178 0
M  V30 682 H 61.9403 3.66571 0.0461769 0
M  V30 683 H 61.5883 4.41762 2.40531 0
M  V30 684 H 61.2883 5.74122 1.25131 0
M  V30 685 H 62.8123 5.70246 2.18293 0
M  V30 686 H 64.2263 5.73232 -0.0883058 0
M  V30 687 H 62.6233 5.94026 -0.851679 0
M  V30 688 H 63.6933 4.64037 -1.40703 0
M  V30 689 N 65.0364 0.313813 1.54444 0
M  V30 690 C 66.4524 -0.0391619 1.59552 0
M  V30 691 C 66.6524 -1.51322 1.33056 0
M  V30 692 O 65.7084 -2.26782 1.11022 0
M  V30 693 C 67.0214 0.370302 2.98411 0
M  V30 694 C 68.5694 0.320139 3.11358 0
M  V30 695 C 69.0444 0.704617 4.52547 0
M  V30 696 N 70.5354 0.657645 4.58508 0
M  V30 697 C 71.2704 0.927453 5.6585 0
M  V30 698 N 70.7664 1.26389 6.81174 0
M  V30 699 N 72.5594 0.853662 5.5558 0
M  V30 700 H 64.7104 1.27433 1.69925 0
M  V30 701 H 66.9734 0.517511 0.794284 0
M  V30 702 H 66.6794 1.39694 3.22767 0
M  V30 703 H 66.5534 -0.269619 3.76235 0
M  V30 704 H 68.9404 -0.697275 2.86744 0
M  V30 705 H 69.0214 0.99486 2.35661 0
M  V30 706 H 68.6654 1.7199 4.77893 0
M  V30 707 H 68.5954 0.00768843 5.26599 0
M  V30 708 H 71.0864 0.409067 3.75679 0
M  V30 709 H 71.3994 1.4554 7.58972 0
M  V30 710 H 69.7444 1.30206 6.82694 0
M  V30 711 H 72.9354 0.590383 4.64362 0
M  V30 712 H 73.1084 1.0673 6.3915 0
M  V30 713 N 66.5145 -1.57545 0.0417849 0
M  V30 714 C 67.4625 -2.12148 -0.953723 0
M  V30 715 C 68.4565 -1.05104 -1.32852 0
M  V30 716 O 69.6625 -1.23524 -1.30927 0
M  V30 717 H 66.0375 -0.677957 -0.325389 0
M  V30 718 H 68.0085 -2.94707 -0.467991 0
M  V30 719 C 66.7575 -2.6739 -2.22257 0
M  V30 720 H 66.0805 -3.49413 -1.94295 0
M  V30 721 H 67.5205 -3.09227 -2.90094 0
M  V30 722 C 65.9795 -1.60723 -2.96091 0
M  V30 723 O 66.5095 -1.01449 -3.88679 0
M  V30 724 N 64.7155 -1.32466 -2.58652 0
M  V30 725 H 64.2625 -1.80856 -1.83437 0
M  V30 726 H 64.2205 -0.61325 -3.08361 0
M  V30 727 N 67.9926 0.231505 -1.5589 0
M  V30 728 C 68.9396 1.28682 -1.91598 0
M  V30 729 C 69.9096 1.47071 -0.771974 0
M  V30 730 O 71.0946 1.60802 -1.027 0
M  V30 731 C 68.2346 2.6342 -2.22944 0
M  V30 732 C 67.3476 2.52912 -3.50228 0
M  V30 733 C 66.4826 3.80106 -3.7107 0
M  V30 734 C 65.5216 3.64279 -4.91902 0
M  V30 735 N 64.6586 4.834 -5.09184 0
M  V30 736 H 69.4986 0.975305 -2.81588 0
M  V30 737 H 67.0356 0.470299 -1.39379 0
M  V30 738 H 68.9936 3.41869 -2.39126 0
M  V30 739 H 67.6236 2.92687 -1.36139 0
M  V30 740 H 66.6756 1.6595 -3.42294 0
M  V30 741 H 67.9876 2.37133 -4.38827 0
M  V30 742 H 67.1416 4.66999 -3.87295 0
M  V30 743 H 65.8806 3.98799 -2.80733 0
M  V30 744 H 64.8856 2.7577 -4.75637 0
M  V30 745 H 66.1106 3.47067 -5.83714 0
M  V30 746 H 64.0566 5.02425 -4.21788 0
M  V30 747 H 63.9736 4.70311 -5.91898 0
M  V30 748 H 65.2416 5.71747 -5.29835 0
M  V30 749 N 69.4707 1.49531 0.497807 0
M  V30 750 C 70.6987 1.62893 1.27567 0
M  V30 751 C 71.1137 0.301585 1.86376 0
M  V30 752 O 70.4707 -0.713335 1.67982 0
M  V30 753 C 70.5217 2.70013 2.40364 0
M  V30 754 O 70.2427 3.976 1.83972 0
M  V30 755 C 71.7437 2.94109 3.31685 0
M  V30 756 H 68.9637 0.548298 0.386794 0
M  V30 757 H 71.5077 1.95584 0.597245 0
M  V30 758 H 69.6627 2.40092 3.04031 0
M  V30 759 H 70.0767 4.56631 2.58047 0
M  V30 760 H 71.5507 3.72788 4.07104 0
M  V30 761 H 72.0277 2.04147 3.88871 0
M  V30 762 H 72.6337 3.2546 2.73781 0
M  V30 763 N 70.9488 -0.749086 1.3866 0
M  V30 764 C 72.1958 -1.50833 1.35114 0
M  V30 765 C 72.5238 -1.94415 -0.0574049 0
M  V30 766 O 71.7788 -1.66065 -1.03541 0
M  V30 767 C 72.0778 -2.7712 2.25697 0
M  V30 768 C 71.7438 -2.52477 3.73585 0
M  V30 769 C 70.4058 -2.45466 4.13884 0
M  V30 770 C 72.7578 -2.31066 4.67181 0
M  V30 771 C 70.0858 -2.15064 5.45861 0
M  V30 772 C 72.4378 -2.02183 5.9942 0
M  V30 773 C 71.1018 -1.93631 6.38798 0
M  V30 774 H 70.3718 -0.551936 0.494416 0
M  V30 775 H 73.0188 -0.860979 1.71054 0
M  V30 776 H 71.3238 -3.46528 1.82827 0
M  V30 777 H 73.0208 -3.35096 2.20254 0
M  V30 778 H 69.6108 -2.58807 3.41638 0
M  V30 779 H 73.7948 -2.35459 4.3689 0
M  V30 780 H 69.0508 -2.06954 5.75308 0
M  V30 781 H 73.2248 -1.8462 6.71482 0
M  V30 782 H 70.8518 -1.69839 7.40985 0
M  V30 783 N 72.4269 -1.23603 -0.977757 0
M  V30 784 C 73.8379 -1.06424 -1.53398 0
M  V30 785 C 74.1889 0.367578 -1.92726 0
M  V30 786 O 73.3139 1.25465 -1.76316 0
M  V30 787 C 73.9089 -1.92568 -2.78753 0
M  V30 788 C 72.4679 -1.79642 -3.30765 0
M  V30 789 C 71.6149 -1.88111 -2.03739 0
M  V30 790 H 74.5659 -1.37227 -0.797152 0
M  V30 791 H 74.5869 -1.45203 -3.51705 0
M  V30 792 H 74.0989 -2.96771 -2.50098 0
M  V30 793 H 72.1999 -0.782325 -3.64294 0
M  V30 794 H 72.3129 -2.63174 -4.00345 0
M  V30 795 H 70.6769 -1.31723 -2.17994 0
M  V30 796 H 71.4599 -2.93875 -1.77461 0
M  V30 797 N 73.905 1.17692 -1.04816 0
M  V30 798 C 74.835 2.23777 -0.666791 0
M  V30 799 C 75.816 1.66796 0.33361 0
M  V30 800 O 77.001 1.93039 0.212042 0
M  V30 801 C 74.131 3.47281 -0.0367933 0
M  V30 802 C 73.085 4.17059 -0.961546 0
M  V30 803 C 72.411 5.34342 -0.195626 0
M  V30 804 C 73.711 4.69713 -2.28402 0
M  V30 805 H 75.405 2.55933 -1.55367 0
M  V30 806 H 72.951 1.23019 -0.748484 0
M  V30 807 H 74.904 4.20706 0.241775 0
M  V30 808 H 73.628 3.14381 0.885004 0
M  V30 809 H 72.287 3.45541 -1.22462 0
M  V30 810 H 71.935 4.97692 0.728816 0
M  V30 811 H 71.635 5.81966 -0.811775 0
M  V30 812 H 73.159 6.10553 0.0757473 0
M  V30 813 H 74.573 5.34794 -2.06563 0
M  V30 814 H 72.97 5.279 -2.8538 0
M  V30 815 H 74.04 3.86726 -2.92525 0
M  V30 816 N 75.3831 0.828654 1.34056 0
M  V30 817 C 76.3131 0.269443 2.3194 0
M  V30 818 C 77.2941 -0.617247 1.58506 0
M  V30 819 O 78.4791 -0.542931 1.86456 0
M  V30 820 C 75.6091 -0.564793 3.42677 0
M  V30 821 C 74.5631 0.225241 4.27407 0
M  V30 822 C 73.8891 -0.7321 5.29664 0
M  V30 823 C 75.1891 1.43663 5.02154 0
M  V30 824 H 76.8831 1.08728 2.7896 0
M  V30 825 H 74.4291 0.524283 1.34117 0
M  V30 826 H 76.3821 -0.966233 4.10173 0
M  V30 827 H 75.1061 -1.41574 2.9432 0
M  V30 828 H 73.7651 0.608117 3.61521 0
M  V30 829 H 73.4131 -1.57916 4.77568 0
M  V30 830 H 73.1131 -0.20767 5.87233 0
M  V30 831 H 74.6371 -1.13128 6.00029 0
M  V30 832 H 76.0511 1.1089 5.62473 0
M  V30 833 H 74.4481 1.89711 5.69324 0
M  V30 834 H 75.5181 2.21181 4.31517 0
M  V30 835 N 76.8612 -1.46375 0.584142 0
M  V30 836 C 78.0892 -2.06761 0.0759296 0
M  V30 837 C 78.5042 -1.43266 -1.22965 0
M  V30 838 O 77.8612 -0.538458 -1.74376 0
M  V30 839 C 77.9122 -3.61375 -0.0950384 0
M  V30 840 O 77.6332 -4.22495 1.15887 0
M  V30 841 C 79.1342 -4.38693 -0.637434 0
M  V30 842 H 76.3542 -0.668479 0.0581075 0
M  V30 843 H 78.8982 -1.8798 0.805218 0
M  V30 844 H 77.0532 -3.79578 -0.774554 0
M  V30 845 H 77.4672 -5.15385 0.973598 0
M  V30 846 H 78.9412 -5.47464 -0.706237 0
M  V30 847 H 79.4182 -4.06836 -1.65472 0
M  V30 848 H 80.0242 -4.25299 0.00725967 0
M  V30 849 N 78.3393 -0.321999 -1.54275 0
M  V30 850 C 79.5673 0.283052 -2.04955 0
M  V30 851 C 79.9823 1.45904 -1.19823 0
M  V30 852 O 79.3393 1.81063 -0.228545 0
M  V30 853 C 79.3903 0.719028 -3.54277 0
M  V30 854 O 79.1113 -0.410175 -4.36176 0
M  V30 855 C 80.6123 1.38705 -4.21041 0
M  V30 856 H 77.8323 0.0584616 -0.668448 0
M  V30 857 H 80.3763 -0.467734 -1.99079 0
M  V30 858 H 78.5313 1.41979 -3.60445 0
M  V30 859 H 78.9453 -0.0669416 -5.24457 0
M  V30 860 H 80.4193 1.64306 -5.2698 0
M  V30 861 H 80.8963 2.33385 -3.72059 0
M  V30 862 H 81.5023 0.728906 -4.19007 0
M  V30 863 N 79.8174 1.5752 -0.0501392 0
M  V30 864 C 80.7644 2.1147 0.924603 0
M  V30 865 C 81.7344 1.02182 1.30951 0
M  V30 866 O 82.9194 1.29723 1.39916 0
M  V30 867 C 80.0594 2.66337 2.19451 0
M  V30 868 C 79.1724 3.89708 1.86418 0
M  V30 869 C 78.3074 4.32893 3.07859 0
M  V30 870 C 77.3464 5.48967 2.70742 0
M  V30 871 N 76.4834 5.87211 3.84874 0
M  V30 872 H 81.3234 2.94465 0.457639 0
M  V30 873 H 78.8604 1.45531 0.214266 0
M  V30 874 H 80.8184 2.96247 2.93758 0
M  V30 875 H 79.4484 1.86141 2.63726 0
M  V30 876 H 78.5004 3.66396 1.02264 0
M  V30 877 H 79.8124 4.74074 1.55096 0
M  V30 878 H 78.9664 4.6435 3.90466 0
M  V30 879 H 77.7054 3.47336 3.42358 0
M  V30 880 H 76.7104 5.17183 1.86551 0
M  V30 881 H 77.9354 6.3624 2.37436 0
M  V30 882 H 75.8814 5.04607 4.19175 0
M  V30 883 H 75.7984 6.66266 3.57247 0
M  V30 884 H 77.0664 6.23282 4.68123 0
M  V30 885 N 81.2955 -0.223234 1.56011 0
M  V30 886 C 82.7115 -0.572856 1.48965 0
M  V30 887 C 82.9115 -1.87225 0.74492 0
M  V30 888 O 81.9675 -2.50899 0.283896 0
M  V30 889 C 83.2805 -0.653646 2.9351 0
M  V30 890 C 84.8285 -0.744386 3.0402 0
M  V30 891 C 85.3035 -0.856535 4.49919 0
M  V30 892 N 86.7945 -0.9208 4.53955 0
M  V30 893 C 87.5295 -1.02726 5.64123 0
M  V30 894 N 87.0255 -1.09777 6.84047 0
M  V30 895 N 88.8185 -1.06226 5.51971 0
M  V30 896 H 80.9695 0.629462 2.02858 0
M  V30 897 H 83.2325 0.220621 0.921971 0
M  V30 898 H 82.9385 0.231518 3.50937 0
M  V30 899 H 82.8125 -1.51781 3.45315 0
M  V30 900 H 85.1995 -1.61999 2.46658 0
M  V30 901 H 85.2805 0.14541 2.55386 0
M  V30 902 H 84.9245 0.0146069 5.07898 0
M  V30 903 H 84.8545 -1.76172 4.96257 0
M  V30 904 H 87.3455 -0.876694 3.6759 0
M  V30 905 H 87.6585 -1.17872 7.63758 0
M  V30 906 H 86.0035 -1.06693 6.86762 0
M  V30 907 H 89.1945 -1.00382 4.5721 0
M  V30 908 H 89.3675 -1.14177 6.37862 0
M  V30 909 N 82.7736 -1.49793 -0.48987 0
M  V30 910 C 84.0196 -1.60078 -1.24511 0
M  V30 911 C 84.3526 -0.291608 -1.91998 0
M  V30 912 O 83.6276 0.705647 -1.81248 0
M  V30 913 C 83.9106 -2.76791 -2.30345 0
M  V30 914 C 83.7636 -4.17535 -1.67286 0
M  V30 915 C 85.0826 -2.89111 -3.31817 0
M  V30 916 H 82.2016 -0.582645 -0.451324 0
M  V30 917 H 84.8436 -1.82117 -0.541612 0
M  V30 918 H 82.9936 -2.5813 -2.90346 0
M  V30 919 H 84.6656 -4.4774 -1.11026 0
M  V30 920 H 82.9086 -4.22665 -0.976577 0
M  V30 921 H 83.5796 -4.95094 -2.44103 0
M  V30 922 H 86.0556 -3.06133 -2.81819 0
M  V30 923 H 84.9316 -3.72433 -4.03219 0
M  V30 924 H 85.1926 -1.9893 -3.94815 0
M  V30 925 N 84.2517 0.741722 -1.39055 0
M  V30 926 C 85.4987 1.50114 -1.35912 0
M  V30 927 C 85.8267 1.94443 0.0470937 0
M  V30 928 O 85.0817 1.66612 1.02659 0
M  V30 929 C 85.3807 2.7592 -2.27163 0
M  V30 930 C 85.0467 2.50493 -3.74919 0
M  V30 931 C 83.7087 2.43267 -4.1518 0
M  V30 932 C 86.0607 2.28585 -4.684 0
M  V30 933 C 83.3887 2.12166 -5.46994 0
M  V30 934 C 85.7407 1.99002 -6.00484 0
M  V30 935 C 84.4047 1.90241 -6.39816 0
M  V30 936 H 83.6747 0.549306 -0.497336 0
M  V30 937 H 86.3217 0.851896 -1.71508 0
M  V30 938 H 84.6267 3.45553 -1.84663 0
M  V30 939 H 86.3237 3.33923 -2.22028 0
M  V30 940 H 82.9137 2.56992 -3.43006 0
M  V30 941 H 87.0977 2.33139 -4.38132 0
M  V30 942 H 82.3537 2.03901 -5.76398 0
M  V30 943 H 86.5277 1.81057 -6.72452 0
M  V30 944 H 84.1547 1.65907 -7.41875 0
M  V30 945 N 85.7298 1.2412 0.971189 0
M  V30 946 C 86.9788 1.07284 1.70801 0
M  V30 947 C 87.2918 -0.388902 1.91695 0
M  V30 948 O 88.4978 -0.677379 2.62914 0
M  V30 949 C 86.9538 1.87145 3.07416 0
M  V30 950 C 86.5618 3.37707 2.94377 0
M  V30 951 C 88.3058 1.78828 3.84995 0
M  V30 952 C 86.2128 4.09925 4.26281 0
M  V30 953 H 85.1428 0.397854 0.64049 0
M  V30 954 H 87.7938 1.4817 1.0825 0
M  V30 955 H 86.1758 1.39071 3.70777 0
M  V30 956 H 87.3498 3.93335 2.4005 0
M  V30 957 H 85.6648 3.46938 2.30267 0
M  V30 958 H 88.2618 2.30089 4.82662 0
M  V30 959 H 88.6048 0.75284 4.09436 0
M  V30 960 H 89.1378 2.24563 3.28354 0
M  V30 961 H 85.8768 5.13813 4.07033 0
M  V30 962 H 85.3968 3.59083 4.80437 0
M  V30 963 H 87.0758 4.1673 4.94919 0
M  V30 964 N 87.2079 -1.17134 1.05439 0
M  V30 965 C 88.6239 -1.39454 0.776201 0
M  V30 966 C 88.8239 -1.91454 -0.628307 0
M  V30 967 O 87.8799 -2.10777 -1.39031 0
M  V30 968 C 89.1929 -2.38305 1.83388 0
M  V30 969 C 90.7409 -2.52006 1.85639 0
M  V30 970 C 91.2159 -3.54133 2.90437 0
M  V30 971 N 92.7069 -3.61653 2.89415 0
M  V30 972 C 93.4419 -4.4044 3.67152 0
M  V30 973 N 92.9379 -5.22721 4.54681 0
M  V30 974 N 94.7309 -4.35337 3.55581 0
M  V30 975 H 86.8819 -0.817134 1.96053 0
M  V30 976 H 89.1449 -0.421626 0.849079 0
M  V30 977 H 88.8509 -2.07173 2.84204 0
M  V30 978 H 88.7249 -3.37841 1.67761 0
M  V30 979 H 91.1119 -2.82447 0.85486 0
M  V30 980 H 91.1929 -1.52537 2.05344 0
M  V30 981 H 90.8369 -3.24431 3.90777 0
M  V30 982 H 90.7669 -4.53313 2.67983 0
M  V30 983 H 93.2579 -3.02909 2.25952 0
M  V30 984 H 93.5709 -5.80027 5.10674 0
M  V30 985 H 91.9159 -5.22093 4.58741 0
M  V30 986 H 95.1069 -3.70112 2.86592 0
M  V30 987 H 95.2799 -4.96494 4.1641 0
M  V30 988 N 88.686 -0.835752 -1.33615 0
M  V30 989 C 89.934 -0.429109 -1.97492 0
M  V30 990 C 90.255 1.01433 -1.66543 0
M  V30 991 O 89.525 1.70611 -0.962744 0
M  V30 992 H 88.105 -0.155686 -0.730596 0
M  V30 993 H 90.767 -1.06802 -1.63031 0
M  V30 994 H 89.863 -0.55861 -3.0706 0
M  V30 995 N 90.1641 1.46063 -0.591896 0
M  V30 996 C 91.4101 2.02638 -0.0811191 0
M  V30 997 C 91.7431 1.4613 1.27905 0
M  V30 998 O 91.0181 0.629908 1.84017 0
M  V30 999 C 91.3011 3.60091 -0.0252436 0
M  V30 1000 C 91.1541 4.26965 -1.41496 0
M  V30 1001 C 92.4731 4.3496 0.670685 0
M  V30 1002 H 89.5921 0.73635 -0.0309524 0
M  V30 1003 H 92.2341 1.741 -0.760859 0
M  V30 1004 H 90.3841 3.84535 0.553624 0
M  V30 1005 H 92.0561 4.13756 -2.0397 0
M  V30 1006 H 90.2991 3.85971 -1.98011 0
M  V30 1007 H 90.9701 5.35781 -1.32825 0
M  V30 1008 H 93.4461 4.15716 0.178825 0
M  V30 1009 H 92.3221 5.44686 0.678837 0
M  V30 1010 H 92.5831 4.06685 1.73379 0
M  V30 1011 N 91.6422 0.330177 1.54103 0
M  V30 1012 C 92.8912 -0.271336 1.99867 0
M  V30 1013 C 93.2042 -1.52723 1.22209 0
M  V30 1014 O 94.4102 -2.20515 1.58383 0
M  V30 1015 C 92.8662 -0.534032 3.55916 0
M  V30 1016 C 92.4742 0.705193 4.42415 0
M  V30 1017 C 94.2182 -1.09514 4.1013 0
M  V30 1018 C 92.1252 0.414035 5.89949 0
M  V30 1019 H 91.0552 -0.105166 0.74663 0
M  V30 1020 H 93.7062 0.443429 1.78062 0
M  V30 1021 H 92.0882 -1.30915 3.73734 0
M  V30 1022 H 93.2622 1.4804 4.36372 0
M  V30 1023 H 91.5772 1.18698 3.99124 0
M  V30 1024 H 94.1742 -1.3277 5.17954 0
M  V30 1025 H 94.5172 -2.04656 3.62521 0
M  V30 1026 H 95.0502 -0.381038 3.95971 0
M  V30 1027 H 91.7892 1.33481 6.41766 0
M  V30 1028 H 91.3092 -0.323336 5.98928 0
M  V30 1029 H 92.9882 0.0263105 6.46995 0
M  V30 1030 N 93.1203 -1.57491 0.0584922 0
M  V30 1031 C 94.0303 -2.15448 -0.928414 0
M  V30 1032 C 95.0463 -1.11416 -1.3365 0
M  V30 1033 O 96.2223 -1.4362 -1.41193 0
M  V30 1034 C 93.2873 -2.69393 -2.18239 0
M  V30 1035 C 92.3483 -3.88249 -1.83196 0
M  V30 1036 C 91.5813 -4.39613 -3.02616 0
M  V30 1037 O 91.8043 -3.90023 -4.16219 0
M  V30 1038 O 90.7383 -5.31111 -2.83204 0
M  V30 1039 H 94.5643 -3.00112 -0.465483 0
M  V30 1040 H 92.1493 -1.48499 -0.163826 0
M  V30 1041 H 94.0313 -3.04026 -2.91798 0
M  V30 1042 H 92.7063 -1.87796 -2.63656 0
M  V30 1043 H 91.6133 -3.58492 -1.06931 0
M  V30 1044 H 92.9463 -4.71098 -1.42573 0
M  V30 1045 N 94.5984 0.214957 -1.56127 0
M  V30 1046 C 95.5084 1.28727 -1.96129 0
M  V30 1047 C 96.5244 1.50916 -0.866044 0
M  V30 1048 O 97.7004 1.63918 -1.17016 0
M  V30 1049 C 94.7654 2.61569 -2.27558 0
M  V30 1050 C 93.8264 2.47625 -3.50685 0
M  V30 1051 C 93.0594 3.74132 -3.80606 0
M  V30 1052 O 93.2824 4.77438 -3.12104 0
M  V30 1053 O 92.2164 3.70849 -4.74083 0
M  V30 1054 H 96.0424 0.977855 -2.87527 0
M  V30 1055 H 93.6274 0.418358 -1.43423 0
M  V30 1056 H 95.5094 3.40012 -2.48938 0
M  V30 1057 H 94.1844 2.92178 -1.39332 0
M  V30 1058 H 93.0914 1.67361 -3.34576 0
M  V30 1059 H 94.4244 2.21954 -4.39315 0
M  V30 1060 N 96.0765 1.50051 0.48192 0
M  V30 1061 C 97.0065 1.71046 1.58951 0
M  V30 1062 C 97.9875 0.559288 1.60642 0
M  V30 1063 O 99.1725 0.797243 1.77081 0
M  V30 1064 C 96.3025 1.79462 2.97339 0
M  V30 1065 C 95.2565 2.94558 3.10515 0
M  V30 1066 C 94.5825 2.88105 4.50444 0
M  V30 1067 C 95.8825 4.35227 2.88747 0
M  V30 1068 H 97.5765 2.6378 1.41635 0
M  V30 1069 H 95.1225 1.26936 0.679942 0
M  V30 1070 H 97.0755 1.92734 3.74742 0
M  V30 1071 H 95.7995 0.833412 3.15788 0
M  V30 1072 H 94.4585 2.80918 2.35543 0
M  V30 1073 H 94.1065 1.89853 4.65795 0
M  V30 1074 H 93.8065 3.65366 4.60197 0
M  V30 1075 H 95.3305 3.03412 5.29881 0
M  V30 1076 H 96.7445 4.49449 3.55905 0
M  V30 1077 H 95.1415 5.13856 3.09955 0
M  V30 1078 H 96.2115 4.48347 1.84696 0
M  V30 1079 N 97.5546 -0.734337 1.39446 0
M  V30 1080 C 98.4846 -1.86155 1.40955 0
M  V30 1081 C 99.4656 -1.67898 0.272827 0
M  V30 1082 O 100.651 -1.88207 0.478743 0
M  V30 1083 C 97.7806 -3.23912 1.25294 0
M  V30 1084 C 96.7346 -3.56808 2.36373 0
M  V30 1085 C 96.0606 -4.93508 2.058 0
M  V30 1086 C 97.3606 -3.59713 3.78687 0
M  V30 1087 H 99.0546 -1.8515 2.35287 0
M  V30 1088 H 96.6006 -0.889367 1.13253 0
M  V30 1089 H 98.5536 -4.02443 1.2497 0
M  V30 1090 H 97.2776 -3.25446 0.274308 0
M  V30 1091 H 95.9366 -2.80606 2.35914 0
M  V30 1092 H 95.5846 -4.91623 1.06374 0
M  V30 1093 H 95.2846 -5.16486 2.80208 0
M  V30 1094 H 96.8086 -5.74396 2.07128 0
M  V30 1095 H 98.2226 -4.2832 3.81071 0
M  V30 1096 H 96.6196 -3.94209 4.52459 0
M  V30 1097 H 97.6896 -2.59504 4.09617 0
M  V30 1098 N 99.0327 -1.24633 -0.964593 0
M  V30 1099 C 100.279 -1.09957 -1.71117 0
M  V30 1100 C 100.634 0.357422 -1.89051 0
M  V30 1101 O 99.9267 1.26029 -1.44317 0
M  V30 1102 C 100.121 -1.7763 -3.10133 0
M  V30 1103 C 99.9497 -3.29759 -3.05759 0
M  V30 1104 C 98.7197 -3.98981 -3.10068 0
M  V30 1105 C 100.918 -4.26305 -2.87695 0
M  V30 1106 N 98.8997 -5.37966 -2.95747 0
M  V30 1107 C 100.271 -5.52308 -2.81702 0
M  V30 1108 C 102.326 -4.16842 -2.72299 0
M  V30 1109 C 101.029 -6.69931 -2.61887 0
M  V30 1110 C 103.055 -5.34147 -2.53853 0
M  V30 1111 C 102.417 -6.59084 -2.48572 0
M  V30 1112 H 98.5157 -0.457003 -0.634564 0
M  V30 1113 H 101.1 -1.57592 -1.14337 0
M  V30 1114 H 99.2707 -1.32504 -3.65099 0
M  V30 1115 H 101.003 -1.55786 -3.73514 0
M  V30 1116 H 97.7577 -3.50169 -3.18871 0
M  V30 1117 H 98.1817 -6.10877 -2.91818 0
M  V30 1118 H 102.824 -3.21007 -2.75163 0
M  V30 1119 H 100.542 -7.65886 -2.57767 0
M  V30 1120 H 104.128 -5.28678 -2.4288 0
M  V30 1121 H 103.008 -7.48324 -2.34481 0
M  V30 1122 N 100.511 1.16574 -1.06058 0
M  V30 1123 C 101.758 1.87047 -0.775873 0
M  V30 1124 C 102.086 1.81562 0.697534 0
M  V30 1125 O 101.341 1.22445 1.52662 0
M  V30 1126 C 101.64 3.36195 -1.21275 0
M  V30 1127 C 101.306 3.6188 -2.68986 0
M  V30 1128 C 99.9678 3.68599 -3.09335 0
M  V30 1129 C 102.32 3.72648 -3.64394 0
M  V30 1130 C 99.6478 3.83584 -4.43937 0
M  V30 1131 C 102 3.89154 -4.98741 0
M  V30 1132 C 100.664 3.94114 -5.3873 0
M  V30 1133 H 99.9338 0.684452 -0.283912 0
M  V30 1134 H 102.581 1.37853 -1.32925 0
M  V30 1135 H 100.886 3.87505 -0.578528 0
M  V30 1136 H 102.583 3.89103 -0.969542 0
M  V30 1137 H 99.1728 3.57281 -2.36744 0
M  V30 1138 H 103.357 3.66769 -3.34356 0
M  V30 1139 H 98.6128 3.85677 -4.74409 0
M  V30 1140 H 102.787 3.96427 -5.72554 0
M  V30 1141 H 100.414 4.05478 -6.43033 0
M  V30 1142 N 101.989 0.842826 1.3317 0
M  V30 1143 C 103.238 0.436738 1.96915 0
M  V30 1144 C 103.551 -1.01025 1.67491 0
M  V30 1145 O 104.757 -1.5212 2.24881 0
M  V30 1146 C 103.213 0.730021 3.52418 0
M  V30 1147 C 102.821 2.19195 3.90714 0
M  V30 1148 C 104.565 0.391076 4.22695 0
M  V30 1149 C 102.472 2.42907 5.39212 0
M  V30 1150 H 101.402 0.15958 0.736919 0
M  V30 1151 H 104.053 1.03196 1.51733 0
M  V30 1152 H 102.435 0.0643755 3.95948 0
M  V30 1153 H 103.609 2.8984 3.58231 0
M  V30 1154 H 101.924 2.49425 3.33431 0
M  V30 1155 H 104.521 0.545817 5.31907 0
M  V30 1156 H 104.864 -0.666294 4.10933 0
M  V30 1157 H 105.397 1.01212 3.84709 0
M  V30 1158 H 102.136 3.47224 5.55982 0
M  V30 1159 H 101.656 1.76827 5.73142 0
M  V30 1160 H 103.335 2.2626 6.06148 0
M  V30 1161 N 103.467 -1.45747 0.599634 0
M  V30 1162 C 104.883 -1.57424 0.26264 0
M  V30 1163 C 105.083 -1.59222 -1.23493 0
M  V30 1164 O 104.139 -1.51825 -2.01756 0
M  V30 1165 C 105.452 -2.86061 0.926795 0
M  V30 1166 C 107 -2.99722 0.901967 0
M  V30 1167 C 107.475 -4.31119 1.54598 0
M  V30 1168 N 108.966 -4.37858 1.5111 0
M  V30 1169 C 109.701 -5.3818 1.97863 0
M  V30 1170 N 109.197 -6.45083 2.52666 0
M  V30 1171 N 110.99 -5.29487 1.88679 0
M  V30 1172 H 103.141 -1.42823 1.57211 0
M  V30 1173 H 105.404 -0.68235 0.658105 0
M  V30 1174 H 105.11 -2.90605 1.98095 0
M  V30 1175 H 104.984 -3.74563 0.445238 0
M  V30 1176 H 107.371 -2.9475 -0.143617 0
M  V30 1177 H 107.452 -2.12652 1.42171 0
M  V30 1178 H 107.096 -4.36849 2.59085 0
M  V30 1179 H 107.026 -5.16992 1.00132 0
M  V30 1180 H 109.517 -3.61209 1.11068 0
M  V30 1181 H 109.83 -7.17869 2.86155 0
M  V30 1182 H 108.175 -6.45856 2.56701 0
M  V30 1183 H 111.366 -4.44877 1.4561 0
M  V30 1184 H 111.539 -6.07524 2.25429 0
M  V30 1185 N 104.945 -0.338344 -1.53925 0
M  V30 1186 C 106.193 0.259245 -2.0043 0
M  V30 1187 C 106.514 1.51484 -1.22791 0
M  V30 1188 O 105.784 1.93037 -0.33368 0
M  V30 1189 H 104.364 0.0987845 -0.740439 0
M  V30 1190 H 107.026 -0.458302 -1.89435 0
M  V30 1191 H 106.122 0.505334 -3.07982 0
M  V30 1192 N 106.423 1.57458 -0.0668435 0
M  V30 1193 C 107.333 2.15937 0.916975 0
M  V30 1194 C 108.349 1.12123 1.33058 0
M  V30 1195 O 109.525 1.44366 1.40429 0
M  V30 1196 C 106.59 2.70547 2.16807 0
M  V30 1197 C 105.651 3.89215 1.81135 0
M  V30 1198 C 104.884 4.41211 3.0028 0
M  V30 1199 O 105.107 3.92225 4.14144 0
M  V30 1200 O 104.041 5.32605 2.80384 0
M  V30 1201 H 107.867 3.00354 0.449561 0
M  V30 1202 H 105.452 1.48584 0.155949 0
M  V30 1203 H 107.334 3.0557 2.90181 0
M  V30 1204 H 106.009 1.89192 2.62656 0
M  V30 1205 H 104.916 3.59054 1.05028 0
M  V30 1206 H 106.249 4.71848 1.40073 0
M  V30 1207 N 107.901 -0.206675 1.56239 0
M  V30 1208 C 109.129 -0.945345 1.8404 0
M  V30 1209 C 109.544 -1.77336 0.647885 0
M  V30 1210 O 108.901 -1.78425 -0.383511 0
M  V30 1211 C 108.952 -1.8509 3.10522 0
M  V30 1212 O 108.673 -1.05634 4.25174 0
M  V30 1213 C 110.174 -2.70222 3.51418 0
M  V30 1214 H 107.394 -0.276372 0.61144 0
M  V30 1215 H 109.938 -0.217417 2.03341 0
M  V30 1216 H 108.093 -2.53259 2.93153 0
M  V30 1217 H 108.507 -1.67238 4.97124 0
M  V30 1218 H 109.981 -3.29438 4.42916 0
M  V30 1219 H 110.458 -3.43358 2.73864 0
M  V30 1220 H 111.064 -2.07443 3.71278 0
M  V30 1221 N 109.379 -1.50304 -0.473955 0
M  V30 1222 C 110.656 -1.51667 -1.23518 0
M  V30 1223 C 111.036 -0.259701 -2.09496 0
M  V30 1224 O 110.384 0.756986 -2.15597 0
M  V30 1225 C 110.594 -2.81082 -2.06868 0
M  V30 1226 C 111.942 -3.31631 -2.65153 0
M  V30 1227 O 112.966 -2.82384 -2.17113 0
M  V30 1228 O 111.825 -4.17471 -3.52675 0
M  V30 1229 H 108.919 -0.60822 -0.560355 0
M  V30 1230 H 111.465 -1.62592 -0.486011 0
M  V30 1231 H 110.237 -3.64041 -1.4349 0
M  V30 1232 H 109.86 -2.73146 -2.88924 0
M  V30 1233 N 110.857 0.726932 -1.39834 0
M  V30 1234 C 112.082 1.52121 -1.40976 0
M  V30 1235 C 112.507 1.88098 -0.00826029 0
M  V30 1236 O 111.865 1.52479 0.980807 0
M  V30 1237 C 111.913 2.78021 -2.29644 0
M  V30 1238 O 111.017 3.74272 -1.73188 0
M  V30 1239 H 110.358 0.45908 -0.479731 0
M  V30 1240 H 112.888 0.896207 -1.83927 0
M  V30 1241 H 112.898 3.26671 -2.44438 0
M  V30 1242 H 111.573 2.51169 -3.31492 0
M  V30 1243 H 110.15 3.33073 -1.6768 0
M  V30 1244 N 112.336 1.25143 0.95797 0
M  V30 1245 C 113.266 1.07711 2.07173 0
M  V30 1246 C 114.247 -0.0128462 1.70095 0
M  V30 1247 O 115.432 0.156061 1.93572 0
M  V30 1248 C 112.562 0.691503 3.40346 0
M  V30 1249 C 111.516 1.73132 3.9142 0
M  V30 1250 C 110.842 1.20049 5.21049 0
M  V30 1251 C 112.142 3.1294 4.1817 0
M  V30 1252 H 113.836 2.00873 2.22014 0
M  V30 1253 H 111.382 0.967191 1.06684 0
M  V30 1254 H 113.335 0.556505 4.17709 0
M  V30 1255 H 112.059 -0.275819 3.25433 0
M  V30 1256 H 110.718 1.8547 3.16222 0
M  V30 1257 H 110.366 0.223499 5.02503 0
M  V30 1258 H 110.066 1.89545 5.56189 0
M  V30 1259 H 111.59 1.07782 6.01012 0
M  V30 1260 H 113.004 3.03775 4.86203 0
M  V30 1261 H 111.401 3.79875 4.64559 0
M  V30 1262 H 112.471 3.6025 3.24573 0
M  V30 1263 N 113.814 -1.1601 1.06675 0
M  V30 1264 C 114.761 -2.20525 0.680967 0
M  V30 1265 C 115.731 -1.62904 -0.324283 0
M  V30 1266 O 116.916 -1.89615 -0.212294 0
M  V30 1267 C 114.056 -3.45013 0.0776551 0
M  V30 1268 C 113.169 -4.16863 1.13355 0
M  V30 1269 C 112.304 -5.2888 0.49597 0
M  V30 1270 C 111.343 -5.92537 1.53513 0
M  V30 1271 N 110.48 -6.96038 0.920631 0
M  V30 1272 H 115.32 -2.52876 1.57663 0
M  V30 1273 H 112.857 -1.24199 0.788223 0
M  V30 1274 H 114.815 -4.16193 -0.289704 0
M  V30 1275 H 113.445 -3.132 -0.781393 0
M  V30 1276 H 112.497 -3.44248 1.61857 0
M  V30 1277 H 113.809 -4.60294 1.92174 0
M  V30 1278 H 112.963 -6.06653 0.0758604 0
M  V30 1279 H 111.702 -4.86622 -0.324062 0
M  V30 1280 H 110.707 -5.13482 1.9651 0
M  V30 1281 H 111.932 -6.36873 2.35733 0
M  V30 1282 H 109.878 -6.55888 0.12138 0
M  V30 1283 H 109.795 -7.3786 1.64616 0
M  V30 1284 H 111.063 -7.77725 0.525795 0
M  V30 1285 N 115.292 -0.849877 -1.32721 0
M  V30 1286 C 116.222 -0.306308 -2.31482 0
M  V30 1287 C 117.203 0.591952 -1.59468 0
M  V30 1288 O 118.388 0.513199 -1.87296 0
M  V30 1289 C 115.518 0.510204 -3.43532 0
M  V30 1290 C 114.472 -0.293209 -4.26994 0
M  V30 1291 C 113.798 0.647743 -5.30762 0
M  V30 1292 C 115.098 -1.51634 -4.99804 0
M  V30 1293 H 116.792 -1.13153 -2.77195 0
M  V30 1294 H 114.338 -0.545553 -1.33266 0
M  V30 1295 H 116.291 0.900856 -4.11658 0
M  V30 1296 H 115.015 1.36874 -2.96535 0
M  V30 1297 H 113.674 -0.665555 -3.60508 0
M  V30 1298 H 113.322 1.50299 -4.8002 0
M  V30 1299 H 113.022 0.11422 -5.87489 0
M  V30 1300 H 114.546 1.03567 -6.01753 0
M  V30 1301 H 115.96 -1.19824 -5.60638 0
M  V30 1302 H 114.357 -1.98745 -5.66234 0
M  V30 1303 H 115.427 -2.28018 -4.27943 0
M  V30 1304 N 116.77 1.45427 -0.607355 0
M  V30 1305 C 118.186 1.57283 -0.270985 0
M  V30 1306 C 118.386 1.59875 1.22647 0
M  V30 1307 O 117.442 1.52893 2.00948 0
M  V30 1308 C 118.755 2.85566 -0.941952 0
M  V30 1309 C 120.303 2.9924 -0.917849 0
M  V30 1310 C 120.778 4.30293 -1.56882 0
M  V30 1311 N 122.269 4.37051 -1.5343 0
M  V30 1312 C 123.004 5.37123 -2.00715 0
M  V30 1313 N 122.5 6.43734 -2.56084 0
M  V30 1314 N 124.293 5.28479 -1.91484 0
M  V30 1315 H 116.444 1.41988 -1.57966 0
M  V30 1316 H 118.707 0.67885 -0.661715 0
M  V30 1317 H 118.413 2.8955 -1.99633 0
M  V30 1318 H 118.287 3.74322 -0.465096 0
M  V30 1319 H 120.674 2.94822 0.127984 0
M  V30 1320 H 120.755 2.11895 -1.43297 0
M  V30 1321 H 120.399 4.35469 -2.61398 0
M  V30 1322 H 120.329 5.16454 -1.02873 0
M  V30 1323 H 122.82 3.60615 -1.12982 0
M  V30 1324 H 123.133 7.16341 -2.89958 0
M  V30 1325 H 121.478 6.44485 -2.60122 0
M  V30 1326 H 124.669 4.44098 -1.47967 0
M  V30 1327 H 124.842 6.0632 -2.28648 0
M  V30 1328 N 118.248 0.346503 1.53744 0
M  V30 1329 C 119.158 -0.517293 2.28826 0
M  V30 1330 C 120.174 -1.10935 1.3405 0
M  V30 1331 O 121.35 -1.1244 1.6709 0
M  V30 1332 C 118.415 -1.65098 3.04866 0
M  V30 1333 C 117.476 -1.0884 4.15274 0
M  V30 1334 C 116.709 -2.16806 4.87679 0
M  V30 1335 O 116.932 -3.3758 4.59778 0
M  V30 1336 O 115.866 -1.80934 5.74061 0
M  V30 1337 H 119.692 0.0931396 3.03557 0
M  V30 1338 H 117.277 0.111458 1.48984 0
M  V30 1339 H 119.159 -2.31053 3.5241 0
M  V30 1340 H 117.834 -2.24717 2.32989 0
M  V30 1341 H 116.741 -0.3933 3.72027 0
M  V30 1342 H 118.074 -0.537036 4.89261 0
M  V30 1343 N 119.726 -1.57421 0.075193 0
M  V30 1344 C 120.673 -2.12915 -0.890843 0
M  V30 1345 C 121.643 -1.04252 -1.29309 0
M  V30 1346 O 122.828 -1.31933 -1.37834 0
M  V30 1347 C 119.968 -2.69795 -2.15186 0
M  V30 1348 C 119.081 -3.92624 -1.80194 0
M  V30 1349 C 118.216 -4.37736 -3.00933 0
M  V30 1350 C 117.255 -5.53205 -2.61974 0
M  V30 1351 N 116.392 -5.9326 -3.75483 0
M  V30 1352 H 121.232 -2.95156 -0.410735 0
M  V30 1353 H 118.769 -1.45854 -0.191086 0
M  V30 1354 H 120.727 -3.00883 -2.89008 0
M  V30 1355 H 119.357 -1.90313 -2.60731 0
M  V30 1356 H 118.409 -3.67977 -0.964218 0
M  V30 1357 H 119.721 -4.76482 -1.47534 0
M  V30 1358 H 118.875 -4.70503 -3.8303 0
M  V30 1359 H 117.614 -3.52739 -3.36789 0
M  V30 1360 H 116.619 -5.20086 -1.783 0
M  V30 1361 H 117.844 -6.39936 -2.27284 0
M  V30 1362 H 115.79 -5.11212 -4.11094 0
M  V30 1363 H 115.707 -6.71865 -3.46602 0
M  V30 1364 H 116.975 -6.30651 -4.58148 0
M  V30 1365 N 121.204 0.198386 -1.56346 0
M  V30 1366 C 122.152 1.26538 -1.95169 0
M  V30 1367 C 123.146 1.47295 -0.836685 0
M  V30 1368 O 124.352 1.48195 -1.02167 0
M  V30 1369 H 120.727 0.424744 -0.620561 0
M  V30 1370 H 122.698 0.910904 -2.84157 0
M  V30 1371 C 121.447 2.6035 -2.30463 0
M  V30 1372 H 120.77 2.45192 -3.15786 0
M  V30 1373 H 122.21 3.33762 -2.61494 0
M  V30 1374 C 120.669 3.17096 -1.13806 0
M  V30 1375 O 121.199 3.99588 -0.41135 0
M  V30 1376 N 119.405 2.75795 -0.915736 0
M  V30 1377 H 118.952 2.08816 -1.50843 0
M  V30 1378 H 118.91 3.14101 -0.136979 0
M  V30 1379 N 122.682 1.50554 0.465978 0
M  V30 1380 C 123.931 1.61038 1.21448 0
M  V30 1381 C 124.244 0.31865 1.92987 0
M  V30 1382 O 125.45 0.302469 2.6981 0
M  V30 1383 C 123.906 2.84283 2.20706 0
M  V30 1384 C 123.514 4.20352 1.54946 0
M  V30 1385 C 125.258 3.04115 2.96166 0
M  V30 1386 C 123.165 5.34778 2.5252 0
M  V30 1387 H 122.095 0.599718 0.457005 0
M  V30 1388 H 124.746 1.7699 0.484424 0
M  V30 1389 H 123.128 2.61901 2.97025 0
M  V30 1390 H 124.302 4.53008 0.843811 0
M  V30 1391 H 122.617 4.06167 0.917475 0
M  V30 1392 H 125.214 3.86774 3.69202 0
M  V30 1393 H 125.557 2.16045 3.55852 0
M  V30 1394 H 126.09 3.26702 2.26959 0
M  V30 1395 H 122.829 6.25018 1.97566 0
M  V30 1396 H 122.349 5.06534 3.21222 0
M  V30 1397 H 124.028 5.65561 3.14245 0
M  V30 1398 N 124.16 -0.719506 1.40217 0
M  V30 1399 C 125.11 -1.8251 1.36653 0
M  V30 1400 C 126.094 -1.59028 0.244732 0
M  V30 1401 O 127.286 -1.70268 0.483524 0
M  V30 1402 C 124.415 -3.20599 1.22763 0
M  V30 1403 C 123.501 -3.49858 2.39708 0
M  V30 1404 N 123.892 -3.49957 3.6519 0
M  V30 1405 C 122.19 -3.80297 2.33002 0
M  V30 1406 C 122.891 -3.77449 4.42614 0
M  V30 1407 N 121.867 -3.96002 3.72402 0
M  V30 1408 H 125.669 -1.80914 2.31619 0
M  V30 1409 H 123.183 -0.918455 1.33933 0
M  V30 1410 H 125.18 -3.99766 1.18292 0
M  V30 1411 H 123.84 -3.23424 0.287614 0
M  V30 1412 H 124.851 -3.309 3.98404 0
M  V30 1413 H 121.528 -3.90635 1.47346 0
M  V30 1414 H 122.918 -3.83863 5.51451 0
M  V30 1415 N 125.638 -1.25649 -0.95132 0
M  V30 1416 C 126.887 -1.09988 -1.69073 0
M  V30 1417 C 127.2 0.358355 -1.92289 0
M  V30 1418 O 128.406 0.635466 -2.63958 0
M  V30 1419 C 126.862 -1.92012 -3.044 0
M  V30 1420 C 126.47 -3.42347 -2.88968 0
M  V30 1421 C 128.214 -1.8493 -3.82101 0
M  V30 1422 C 126.121 -4.16655 -4.19705 0
M  V30 1423 H 125.051 -0.407993 -0.63408 0
M  V30 1424 H 127.702 -1.49873 -1.05879 0
M  V30 1425 H 126.084 -1.44952 -3.68517 0
M  V30 1426 H 127.258 -3.97104 -2.33762 0
M  V30 1427 H 125.573 -3.50557 -2.24719 0
M  V30 1428 H 128.17 -2.37739 -4.78941 0
M  V30 1429 H 128.513 -0.817883 -4.08187 0
M  V30 1430 H 129.046 -2.29758 -3.2474 0
M  V30 1431 H 125.785 -5.20224 -3.98807 0
M  V30 1432 H 125.305 -3.66681 -4.74663 0
M  V30 1433 H 126.984 -4.24551 -4.88227 0
M  V30 1434 N 127.117 1.15442 -1.07289 0
M  V30 1435 C 128.363 1.8672 -0.806679 0
M  V30 1436 C 128.718 1.80723 0.660084 0
M  V30 1437 O 128.011 1.21902 1.47819 0
M  V30 1438 C 128.205 3.3489 -1.24834 0
M  V30 1439 C 128.034 3.55313 -2.7565 0
M  V30 1440 C 126.804 3.7082 -3.4325 0
M  V30 1441 C 129.002 3.53188 -3.73848 0
M  V30 1442 N 126.984 3.7929 -4.82713 0
M  V30 1443 C 128.355 3.67765 -4.99149 0
M  V30 1444 C 130.41 3.36459 -3.67015 0
M  V30 1445 C 129.113 3.6734 -6.18428 0
M  V30 1446 C 131.139 3.37333 -4.85758 0
M  V30 1447 C 130.501 3.52438 -6.09891 0
M  V30 1448 H 126.6 0.700433 -0.347733 0
M  V30 1449 H 129.184 1.38441 -1.36902 0
M  V30 1450 H 127.355 3.81786 -0.713713 0
M  V30 1451 H 129.087 3.93875 -0.929745 0
M  V30 1452 H 125.842 3.71568 -2.93656 0
M  V30 1453 H 126.266 3.8727 -5.55294 0
M  V30 1454 H 130.908 3.237 -2.71989 0
M  V30 1455 H 128.626 3.78878 -7.13777 0
M  V30 1456 H 132.212 3.25617 -4.82146 0
M  V30 1457 H 131.092 3.53047 -7.00234 0
M  V30 1458 N 128.595 0.856903 1.32268 0
M  V30 1459 C 129.872 0.382583 1.91822 0
M  V30 1460 C 130.252 -1.13407 1.78051 0
M  V30 1461 O 129.6 -1.95673 1.18001 0
M  V30 1462 C 129.81 0.849446 3.38505 0
M  V30 1463 C 131.158 0.867936 4.15634 0
M  V30 1464 O 132.182 0.794232 3.47232 0
M  V30 1465 O 131.041 0.972286 5.37781 0
M  V30 1466 H 128.135 0.112014 0.819379 0
M  V30 1467 H 130.681 0.943952 1.41024 0
M  V30 1468 H 129.453 1.89267 3.42482 0
M  V30 1469 H 129.076 0.265652 3.96712 0
M  V30 1470 N 130.073 -1.45103 0.615059 0
M  V30 1471 C 131.036 -2.29025 -0.0895485 0
M  V30 1472 C 132.036 -1.40174 -0.787906 0
M  V30 1473 O 133.226 -1.62217 -0.634933 0
M  V30 1474 C 130.358 -3.21376 -1.13711 0
M  V30 1475 H 131.551 -2.92807 0.648382 0
M  V30 1476 H 129.104 -1.51749 0.374444 0
M  V30 1477 H 129.839 -2.6241 -1.90556 0
M  V30 1478 H 129.624 -3.86834 -0.640475 0
M  V30 1479 H 131.114 -3.84459 -1.63036 0
M  V30 1480 N 131.551 -0.354651 -1.53558 0
M  V30 1481 C 132.499 0.512195 -2.26891 0
M  V30 1482 C 133.493 1.09263 -1.29452 0
M  V30 1483 O 134.699 1.03709 -1.47121 0
M  V30 1484 H 131.074 0.183878 -0.729173 0
M  V30 1485 H 133.045 -0.128202 -2.98124 0
M  V30 1486 C 131.794 1.64563 -3.06291 0
M  V30 1487 H 131.117 1.20829 -3.81104 0
M  V30 1488 H 132.557 2.22711 -3.60799 0
M  V30 1489 C 131.016 2.58158 -2.16462 0
M  V30 1490 O 131.546 3.60695 -1.76811 0
M  V30 1491 N 129.752 2.27096 -1.81317 0
M  V30 1492 H 129.299 1.43751 -2.1376 0
M  V30 1493 H 129.257 2.89975 -1.21498 0
M  V30 1494 N 133.029 1.57378 -0.0835403 0
M  V30 1495 C 134.277 1.93547 0.581718 0
M  V30 1496 C 134.598 0.96524 1.69435 0
M  V30 1497 O 133.868 0.0153369 1.95894 0
M  V30 1498 H 132.448 0.714521 0.217874 0
M  V30 1499 H 135.11 1.94366 -0.144158 0
M  V30 1500 H 134.206 2.95665 0.999423 0
M  V30 1501 N 134.507 -0.190092 1.56449 0
M  V30 1502 C 135.732 -0.929864 1.85387 0
M  V30 1503 C 136.157 -1.7585 0.667704 0
M  V30 1504 O 135.515 -1.77198 -0.383459 0
M  V30 1505 C 135.563 -1.79773 3.12593 0
M  V30 1506 O 134.667 -2.89713 2.93496 0
M  V30 1507 H 134.008 -0.261574 0.610307 0
M  V30 1508 H 136.538 -0.193896 2.03679 0
M  V30 1509 H 136.548 -2.20139 3.43515 0
M  V30 1510 H 135.223 -1.18892 3.98544 0
M  V30 1511 H 133.8 -2.53065 2.73884 0
M  V30 1512 N 135.985 -1.50799 -0.457987 0
M  V30 1513 C 137.401 -1.38515 -0.792819 0
M  V30 1514 C 137.601 -0.451409 -1.96379 0
M  V30 1515 O 136.657 0.10112 -2.52297 0
M  V30 1516 C 137.97 -2.80149 -1.09258 0
M  V30 1517 C 139.518 -2.89156 -1.19825 0
M  V30 1518 C 139.993 -4.31651 -1.53106 0
M  V30 1519 N 141.484 -4.34662 -1.60072 0
M  V30 1520 C 142.219 -5.41928 -1.87354 0
M  V30 1521 N 141.715 -6.59384 -2.12568 0
M  V30 1522 N 143.508 -5.29385 -1.88965 0
M  V30 1523 H 135.659 -2.10073 0.313511 0
M  V30 1524 H 137.922 -0.944803 0.0777862 0
M  V30 1525 H 137.628 -3.50374 -0.305084 0
M  V30 1526 H 137.502 -3.18204 -2.02549 0
M  V30 1527 H 139.889 -2.19141 -1.97639 0
M  V30 1528 H 139.97 -2.54626 -0.244821 0
M  V30 1529 H 139.614 -5.02208 -0.758266 0
M  V30 1530 H 139.544 -4.63678 -2.49621 0
M  V30 1531 H 142.035 -3.49973 -1.42573 0
M  V30 1532 H 142.348 -7.36934 -2.32696 0
M  V30 1533 H 140.693 -6.62535 -2.09933 0
M  V30 1534 H 143.884 -4.36616 -1.68772 0
M  V30 1535 H 144.057 -6.13066 -2.09891 0
M  V30 1536 N 137.463 0.71206 -1.40597 0
M  V30 1537 C 138.373 1.8562 -1.43466 0
M  V30 1538 C 139.389 1.70902 -0.326902 0
M  V30 1539 O 140.565 1.93105 -0.572043 0
M  V30 1540 C 137.63 3.21451 -1.29884 0
M  V30 1541 C 136.691 3.48398 -2.50833 0
M  V30 1542 C 135.924 4.77749 -2.3789 0
M  V30 1543 O 136.147 5.53089 -1.39459 0
M  V30 1544 O 135.081 5.05111 -3.27333 0
M  V30 1545 H 138.907 1.86155 -2.39958 0
M  V30 1546 H 136.492 0.86295 -1.21957 0
M  V30 1547 H 138.374 4.02579 -1.24531 0
M  V30 1548 H 137.049 3.21636 -0.364997 0
M  V30 1549 H 135.956 2.67265 -2.61763 0
M  V30 1550 H 137.289 3.53014 -3.4299 0
M  V30 1551 N 138.941 1.26152 0.944643 0
M  V30 1552 C 140.171 1.14094 1.72239 0
M  V30 1553 C 140.579 -0.306931 1.86694 0
M  V30 1554 O 139.922 -1.22222 1.3714 0
M  V30 1555 C 139.984 1.73316 3.14963 0
M  V30 1556 C 139.648 3.2239 3.23904 0
M  V30 1557 C 140.645 4.19252 3.07447 0
M  V30 1558 C 138.33 3.62788 3.47405 0
M  V30 1559 C 140.324 5.54491 3.14353 0
M  V30 1560 C 138.011 4.98162 3.53947 0
M  V30 1561 C 139.009 5.93823 3.37436 0
M  V30 1562 O 138.697 7.26732 3.43679 0
M  V30 1563 H 138.429 0.398292 0.546205 0
M  V30 1564 H 140.983 1.67201 1.19301 0
M  V30 1565 H 139.213 1.14667 3.69308 0
M  V30 1566 H 140.902 1.56214 3.74636 0
M  V30 1567 H 141.668 3.8938 2.8915 0
M  V30 1568 H 137.547 2.88816 3.59313 0
M  V30 1569 H 141.091 6.29137 3.01384 0
M  V30 1570 H 136.988 5.27695 3.71763 0
M  V30 1571 H 137.756 7.3496 3.60245 0
M  V30 1572 N 140.419 -1.14872 1.07899 0
M  V30 1573 C 141.349 -2.2193 0.725887 0
M  V30 1574 C 142.33 -1.67622 -0.28927 0
M  V30 1575 O 143.515 -1.93533 -0.160787 0
M  V30 1576 C 140.645 -3.47061 0.128856 0
M  V30 1577 C 139.599 -4.14363 1.07178 0
M  V30 1578 C 138.925 -5.33636 0.337229 0
M  V30 1579 C 140.225 -4.63492 2.40775 0
M  V30 1580 H 141.919 -2.51724 1.62097 0
M  V30 1581 H 139.465 -1.20991 0.780838 0
M  V30 1582 H 141.418 -4.21199 -0.130147 0
M  V30 1583 H 140.142 -3.16617 -0.80134 0
M  V30 1584 H 138.801 -3.42173 1.3158 0
M  V30 1585 H 138.449 -4.99449 -0.596606 0
M  V30 1586 H 138.149 -5.79609 0.965788 0
M  V30 1587 H 139.673 -6.10539 0.0861567 0
M  V30 1588 H 141.087 -5.2913 2.20669 0
M  V30 1589 H 139.484 -5.20148 2.99276 0
M  V30 1590 H 140.554 -3.78834 3.02676 0
M  V30 1591 N 141.898 -0.863906 -1.31812 0
M  V30 1592 C 143.175 -0.39275 -1.91616 0
M  V30 1593 C 143.555 1.12461 -1.7865 0
M  V30 1594 O 142.903 1.95045 -1.19037 0
M  V30 1595 C 143.113 -0.867385 -3.38049 0
M  V30 1596 C 144.461 -0.889966 -4.15168 0
M  V30 1597 O 145.485 -0.812635 -3.46806 0
M  V30 1598 O 144.344 -1.00079 -5.37258 0
M  V30 1599 H 141.438 -0.116358 -0.818773 0
M  V30 1600 H 143.984 -0.951418 -1.40521 0
M  V30 1601 H 142.756 -1.91081 -3.41473 0
M  V30 1602 H 142.379 -0.286687 -3.96565 0
M  V30 1603 N 143.376 1.44774 -0.622745 0
M  V30 1604 C 144.601 2.06999 -0.128968 0
M  V30 1605 C 145.026 1.4617 1.1839 0
M  V30 1606 O 144.384 0.560007 1.72434 0
M  V30 1607 C 144.432 3.60595 -0.0188351 0
M  V30 1608 O 143.536 3.99398 1.02739 0
M  V30 1609 H 142.877 0.659047 -0.0809544 0
M  V30 1610 H 145.407 1.85784 -0.85705 0
M  V30 1611 H 145.417 4.07627 0.174476 0
M  V30 1612 H 144.092 4.04252 -0.977384 0
M  V30 1613 H 142.669 3.64011 0.809326 0
M  V30 1614 N 144.854 0.36279 1.53368 0
M  V30 1615 C 146.103 -0.22888 2.00397 0
M  V30 1616 C 146.416 -1.50096 1.25421 0
M  V30 1617 O 147.622 -2.17106 1.63025 0
M  V30 1618 C 146.078 -0.458417 3.56969 0
M  V30 1619 C 145.686 0.798877 4.4082 0
M  V30 1620 C 147.43 -1.00789 4.12361 0
M  V30 1621 C 145.337 0.539078 5.88938 0
M  V30 1622 H 144.267 -0.089305 0.748693 0
M  V30 1623 H 146.918 0.481099 1.77081 0
M  V30 1624 H 145.3 -1.22959 3.76427 0
M  V30 1625 H 146.474 1.57262 4.33134 0
M  V30 1626 H 144.789 1.27137 3.96516 0
M  V30 1627 H 147.386 -1.21754 5.20653 0
M  V30 1628 H 147.729 -1.9692 3.66781 0
M  V30 1629 H 148.262 -0.296961 3.9669 0
M  V30 1630 H 145.001 1.47064 6.3879 0
M  V30 1631 H 144.521 -0.196222 5.99479 0
M  V30 1632 H 146.2 0.163542 6.46793 0
M  V30 1633 N 146.332 -1.57332 0.0918853 0
M  V30 1634 C 147.58 -1.93853 -0.571446 0
M  V30 1635 C 147.901 -0.974212 -1.6892 0
M  V30 1636 O 147.171 -0.0257254 -1.95883 0
M  V30 1637 H 145.751 -0.715666 -0.214082 0
M  V30 1638 H 148.413 -1.94287 0.154464 0
M  V30 1639 H 147.509 -2.96191 -0.983729 0
M  V30 1640 N 147.81 0.181792 -1.56548 0
M  V30 1641 C 148.74 1.22765 -1.98623 0
M  V30 1642 C 149.721 1.46747 -0.860189 0
M  V30 1643 O 150.906 1.58259 -1.12551 0
M  V30 1644 C 148.036 2.56894 -2.33715 0
M  V30 1645 C 146.99 2.475 -3.49182 0
M  V30 1646 C 146.316 3.86023 -3.69986 0
M  V30 1647 C 147.616 1.98866 -4.82959 0
M  V30 1648 H 149.31 0.877942 -2.86239 0
M  V30 1649 H 146.856 0.42088 -1.37712 0
M  V30 1650 H 148.809 3.30253 -2.61746 0
M  V30 1651 H 147.533 2.93632 -1.42997 0
M  V30 1652 H 146.192 1.76596 -3.21262 0
M  V30 1653 H 145.84 4.20136 -2.76576 0
M  V30 1654 H 145.54 3.80609 -4.47672 0
M  V30 1655 H 147.064 4.60984 -4.00407 0
M  V30 1656 H 148.478 2.61992 -5.09934 0
M  V30 1657 H 146.875 2.04424 -5.64208 0
M  V30 1658 H 147.945 0.942465 -4.75653 0
M  V30 1659 N 149.288 1.51039 0.449983 0
M  V30 1660 C 150.516 1.66869 1.2232 0
M  V30 1661 C 150.931 0.360727 1.85322 0
M  V30 1662 O 150.288 -0.659531 1.70166 0
M  V30 1663 C 150.339 2.77524 2.31652 0
M  V30 1664 O 150.06 4.03252 1.7123 0
M  V30 1665 C 151.561 3.04512 3.2216 0
M  V30 1666 H 148.781 0.560326 0.369155 0
M  V30 1667 H 151.325 1.97385 0.534719 0
M  V30 1668 H 149.48 2.49642 2.96239 0
M  V30 1669 H 149.894 4.64609 2.43389 0
M  V30 1670 H 151.368 3.85551 3.95038 0
M  V30 1671 H 151.845 2.16415 3.8218 0
M  V30 1672 H 152.451 3.34005 2.63288 0
M  V30 1673 N 150.766 -0.704594 1.40972 0
M  V30 1674 C 151.713 -1.81862 1.42109 0
M  V30 1675 C 152.683 -1.63781 0.276593 0
M  V30 1676 O 153.868 -1.84759 0.4763 0
M  V30 1677 C 151.008 -3.19669 1.30022 0
M  V30 1678 C 150.121 -3.49246 2.54267 0
M  V30 1679 C 149.256 -4.76618 2.3454 0
M  V30 1680 C 148.295 -4.99133 3.54306 0
M  V30 1681 N 147.432 -6.17726 3.33706 0
M  V30 1682 H 152.272 -1.80226 2.37324 0
M  V30 1683 H 149.809 -0.880238 1.17857 0
M  V30 1684 H 151.767 -3.99263 1.21018 0
M  V30 1685 H 150.397 -3.20506 0.384192 0
M  V30 1686 H 149.449 -2.64125 2.73756 0
M  V30 1687 H 150.761 -3.61788 3.43381 0
M  V30 1688 H 149.915 -5.64249 2.22952 0
M  V30 1689 H 148.654 -4.66305 1.42867 0
M  V30 1690 H 147.659 -4.09953 3.66359 0
M  V30 1691 H 148.884 -5.11311 4.4692 0
M  V30 1692 H 146.83 -6.08642 2.44725 0
M  V30 1693 H 146.747 -6.30995 4.16391 0
M  V30 1694 H 148.015 -7.08115 3.25873 0
M  V30 1695 N 152.244 -1.26651 -0.937939 0
M  V30 1696 C 153.66 -1.03834 -1.21205 0
M  V30 1697 C 153.86 0.234502 -2.00131 0
M  V30 1698 O 152.916 0.942767 -2.3424 0
M  V30 1699 C 154.229 -2.27167 -1.97017 0
M  V30 1700 C 155.777 -2.32101 -2.09996 0
M  V30 1701 C 156.252 -3.55136 -2.8921 0
M  V30 1702 N 157.743 -3.55632 -2.96783 0
M  V30 1703 C 158.478 -4.475 -3.58512 0
M  V30 1704 N 157.974 -5.4966 -4.21717 0
M  V30 1705 N 159.767 -4.35145 -3.55816 0
M  V30 1706 H 151.918 -2.08398 -0.410391 0
M  V30 1707 H 154.181 -0.916031 -0.244114 0
M  V30 1708 H 153.887 -3.19765 -1.46434 0
M  V30 1709 H 153.761 -2.31672 -2.97671 0
M  V30 1710 H 156.148 -1.40015 -2.59769 0
M  V30 1711 H 156.229 -2.31605 -1.08594 0
M  V30 1712 H 155.873 -4.47553 -2.40123 0
M  V30 1713 H 155.803 -3.5288 -3.90875 0
M  V30 1714 H 158.294 -2.81743 -2.51852 0
M  V30 1715 H 158.607 -6.15943 -4.66727 0
M  V30 1716 H 156.952 -5.53514 -4.20294 0
M  V30 1717 H 160.143 -3.5455 -3.05634 0
M  V30 1718 H 160.316 -5.06934 -4.03636 0
M  V30 1719 N 153.722 1.14298 -1.08507 0
M  V30 1720 C 154.654 2.1907 -0.673859 0
M  V30 1721 C 155.667 1.60381 0.279577 0
M  V30 1722 O 156.856 1.78374 0.0670754 0
M  V30 1723 C 153.956 3.38888 0.0290979 0
M  V30 1724 C 153.129 4.27103 -0.943494 0
M  V30 1725 C 152.188 5.25477 -0.275676 0
M  V30 1726 O 151.214 5.61709 -0.920401 0
M  V30 1727 N 152.416 5.7227 0.974013 0
M  V30 1728 H 155.181 2.54965 -1.57521 0
M  V30 1729 H 152.742 1.29528 -0.971287 0
M  V30 1730 H 154.734 4.01761 0.48683 0
M  V30 1731 H 153.304 3.01309 0.832555 0
M  V30 1732 H 152.524 3.61149 -1.58004 0
M  V30 1733 H 153.812 4.82905 -1.60251 0
M  V30 1734 H 153.21 5.44965 1.51755 0
M  V30 1735 H 151.767 6.37127 1.37522 0
M  V30 1736 N 155.201 0.870884 1.31352 0
M  V30 1737 C 156.111 0.330783 2.32256 0
M  V30 1738 C 157.127 -0.559767 1.6475 0
M  V30 1739 O 158.303 -0.456263 1.96164 0
M  V30 1740 C 155.368 -0.458137 3.4366 0
M  V30 1741 C 154.429 0.460482 4.26823 0
M  V30 1742 C 153.662 -0.290881 5.32907 0
M  V30 1743 O 153.885 -1.51885 5.49806 0
M  V30 1744 O 152.819 0.351732 6.00871 0
M  V30 1745 H 156.645 1.16718 2.80376 0
M  V30 1746 H 154.23 0.634285 1.35267 0
M  V30 1747 H 156.112 -0.905343 4.1156 0
M  V30 1748 H 154.787 -1.27106 2.97701 0
M  V30 1749 H 153.694 0.956207 3.61673 0
M  V30 1750 H 155.027 1.23903 4.7635 0
M  V30 1751 N 156.679 -1.44442 0.630414 0
M  V30 1752 C 157.927 -2.01653 0.134351 0
M  V30 1753 C 158.248 -1.49836 -1.24796 0
M  V30 1754 O 157.518 -0.701684 -1.82902 0
M  V30 1755 H 156.098 -0.74554 0.0466769 0
M  V30 1756 H 158.76 -1.76952 0.816955 0
M  V30 1757 H 157.856 -3.11935 0.101498 0
M  V30 1758 N 158.157 -0.370918 -1.53173 0
M  V30 1759 C 159.434 0.273754 -1.93675 0
M  V30 1760 C 159.814 1.65938 -1.3049 0
M  V30 1761 O 159.162 2.23698 -0.465999 0
M  V30 1762 C 159.372 0.318602 -3.47543 0
M  V30 1763 C 160.72 0.556392 -4.20939 0
M  V30 1764 O 161.744 0.399587 -3.53952 0
M  V30 1765 O 160.603 0.862133 -5.39657 0
M  V30 1766 H 157.697 0.165448 -0.810281 0
M  V30 1767 H 160.243 -0.42409 -1.64315 0
M  V30 1768 H 159.015 -0.652687 -3.85818 0
M  V30 1769 H 158.638 1.06212 -3.83151 0
M  V30 1770 N 159.635 1.57281 -0.100228 0
M  V30 1771 C 160.565 2.17328 0.853857 0
M  V30 1772 C 161.546 1.10804 1.2906 0
M  V30 1773 O 162.731 1.38963 1.35657 0
M  V30 1774 C 159.861 2.75772 2.11109 0
M  V30 1775 C 158.815 3.87713 1.81279 0
M  V30 1776 C 158.141 4.32882 3.13874 0
M  V30 1777 C 159.441 5.10677 1.09574 0
M  V30 1778 H 161.135 2.97305 0.353545 0
M  V30 1779 H 158.681 1.43009 0.168612 0
M  V30 1780 H 160.634 3.16433 2.78296 0
M  V30 1781 H 159.358 1.93057 2.63432 0
M  V30 1782 H 158.017 3.476 1.16489 0
M  V30 1783 H 157.665 3.47051 3.64095 0
M  V30 1784 H 157.365 5.08358 2.94696 0
M  V30 1785 H 158.889 4.7618 3.82211 0
M  V30 1786 H 160.303 5.48474 1.66879 0
M  V30 1787 H 158.7 5.91615 1.00557 0
M  V30 1788 H 159.77 4.84835 0.0793299 0
M  V30 1789 N 161.113 -0.173488 1.56642 0
M  V30 1790 C 162.361 -0.888706 1.81512 0
M  V30 1791 C 162.682 -1.82875 0.676872 0
M  V30 1792 O 161.952 -1.93536 -0.303414 0
M  V30 1793 H 160.532 -0.331164 0.669582 0
M  V30 1794 H 163.194 -0.173823 1.94123 0
M  V30 1795 H 162.29 -1.46691 2.75478 0
M  V30 1796 N 162.591 -1.51276 -0.441967 0
M  V30 1797 C 164.002 -1.56244 -1.02199 0
M  V30 1798 C 164.353 -0.383149 -1.92422 0
M  V30 1799 O 163.478 0.500613 -2.1053 0
M  V30 1800 C 164.073 -2.83162 -1.86024 0
M  V30 1801 C 162.632 -2.90716 -2.39084 0
M  V30 1802 C 161.779 -2.50858 -1.18175 0
M  V30 1803 H 164.73 -1.5712 -0.223416 0
M  V30 1804 H 164.751 -2.66663 -2.71425 0
M  V30 1805 H 164.263 -3.68974 -1.20331 0
M  V30 1806 H 162.364 -2.09323 -3.08244 0
M  V30 1807 H 162.477 -3.94266 -2.72198 0
M  V30 1808 H 160.841 -2.03951 -1.52565 0
M  V30 1809 H 161.624 -3.3901 -0.541001 0
M  V30 1810 N 164.069 0.697108 -1.41344 0
M  V30 1811 C 165.318 1.45279 -1.39918 0
M  V30 1812 C 165.631 1.95597 -0.0109624 0
M  V30 1813 O 166.837 2.71208 0.125919 0
M  V30 1814 C 165.293 2.62695 -2.46007 0
M  V30 1815 C 164.901 2.19169 -3.90729 0
M  V30 1816 C 166.645 3.40336 -2.53715 0
M  V30 1817 C 164.552 3.33535 -4.88373 0
M  V30 1818 H 163.482 0.545692 -0.520323 0
M  V30 1819 H 166.133 0.756929 -1.67161 0
M  V30 1820 H 164.515 3.34541 -2.11892 0
M  V30 1821 H 165.689 1.54623 -4.34083 0
M  V30 1822 H 164.004 1.54525 -3.86666 0
M  V30 1823 H 166.601 4.2547 -3.2385 0
M  V30 1824 H 166.944 3.85418 -1.5735 0
M  V30 1825 H 167.477 2.75546 -2.86913 0
M  V30 1826 H 164.216 2.93468 -5.86137 0
M  V30 1827 H 163.736 3.96936 -4.49668 0
M  V30 1828 H 165.415 3.99335 -5.09059 0
M  V30 1829 N 165.547 1.27147 0.931209 0
M  V30 1830 C 166.777 1.15914 1.71019 0
M  V30 1831 C 167.185 -0.287112 1.87009 0
M  V30 1832 O 166.528 -1.20761 1.38429 0
M  V30 1833 C 166.59 1.76647 3.13107 0
M  V30 1834 C 166.254 3.25807 3.20467 0
M  V30 1835 C 167.251 4.22489 3.02983 0
M  V30 1836 C 164.936 3.66452 3.43538 0
M  V30 1837 C 166.93 5.57794 3.08454 0
M  V30 1838 C 164.617 5.01888 3.48643 0
M  V30 1839 C 165.615 5.97369 3.31119 0
M  V30 1840 O 165.303 7.30337 3.35952 0
M  V30 1841 H 165.035 0.404062 0.54195 0
M  V30 1842 H 167.589 1.68457 1.17521 0
M  V30 1843 H 165.819 1.18578 3.68071 0
M  V30 1844 H 167.508 1.60179 3.72958 0
M  V30 1845 H 168.274 3.92425 2.85004 0
M  V30 1846 H 164.153 2.92611 3.5623 0
M  V30 1847 H 167.697 6.32298 2.94694 0
M  V30 1848 H 163.594 5.31609 3.66145 0
M  V30 1849 H 164.362 7.38739 3.5243 0
M  V30 1850 N 167.025 -1.13721 1.09112 0
M  V30 1851 C 168.273 -1.84559 0.823562 0
M  V30 1852 C 168.594 -1.83754 -0.652658 0
M  V30 1853 O 167.864 -1.29102 -1.47342 0
M  V30 1854 H 166.444 -0.683376 0.301673 0
M  V30 1855 H 169.106 -1.37771 1.37859 0
M  V30 1856 H 168.202 -2.8917 1.17419 0
M  V30 1857 N 168.503 -0.877838 -1.30888 0
M  V30 1858 C 169.75 -0.492696 -1.96415 0
M  V30 1859 C 170.078 0.956671 -1.69346 0
M  V30 1860 O 169.333 1.68993 -0.986913 0
M  V30 1861 C 169.632 -0.705748 -3.50363 0
M  V30 1862 C 169.298 -2.1291 -3.97467 0
M  V30 1863 C 167.96 -2.51834 -4.1004 0
M  V30 1864 C 170.312 -3.05702 -4.22132 0
M  V30 1865 C 167.64 -3.82775 -4.44635 0
M  V30 1866 C 169.992 -4.36166 -4.58194 0
M  V30 1867 C 168.656 -4.74993 -4.68975 0
M  V30 1868 H 167.926 -0.18029 -0.718733 0
M  V30 1869 H 170.573 -1.11233 -1.55883 0
M  V30 1870 H 168.878 -0.00303058 -3.918 0
M  V30 1871 H 170.575 -0.387456 -3.99124 0
M  V30 1872 H 167.165 -1.81694 -3.88182 0
M  V30 1873 H 171.349 -2.76853 -4.11906 0
M  V30 1874 H 166.605 -4.12609 -4.51181 0
M  V30 1875 H 170.779 -5.08111 -4.76231 0
M  V30 1876 H 168.406 -5.76495 -4.95537 0
M  V30 1877 N 169.982 1.44106 -0.638065 0
M  V30 1878 C 170.914 2.28976 0.101205 0
M  V30 1879 C 171.927 1.4167 0.802088 0
M  V30 1880 O 173.116 1.65755 0.662375 0
M  V30 1881 C 170.216 3.18217 1.16581 0
M  V30 1882 C 169.389 4.33978 0.546066 0
M  V30 1883 C 168.448 5.04202 1.50554 0
M  V30 1884 O 167.474 5.59986 1.01999 0
M  V30 1885 N 168.676 5.06296 2.8398 0
M  V30 1886 H 171.441 2.93064 -0.627186 0
M  V30 1887 H 169.002 1.54629 -0.479731 0
M  V30 1888 H 170.994 3.62061 1.80815 0
M  V30 1889 H 169.564 2.55833 1.79634 0
M  V30 1890 H 168.784 3.93239 -0.275046 0
M  V30 1891 H 170.072 5.08675 0.112793 0
M  V30 1892 H 169.47 4.62319 3.26002 0
M  V30 1893 H 168.027 5.53907 3.43556 0
M  V30 1894 N 171.46 0.379036 1.52974 0
M  V30 1895 C 172.706 -0.199244 2.02422 0
M  V30 1896 C 173.061 -1.4532 1.26095 0
M  V30 1897 O 172.354 -1.88377 0.34996 0
M  V30 1898 C 172.548 -0.53096 3.53434 0
M  V30 1899 C 172.377 0.689298 4.44386 0
M  V30 1900 C 171.147 1.20546 4.9071 0
M  V30 1901 C 173.345 1.55856 4.90116 0
M  V30 1902 N 171.327 2.38434 5.65705 0
M  V30 1903 C 172.698 2.58396 5.63588 0
M  V30 1904 C 174.753 1.57986 4.7217 0
M  V30 1905 C 173.456 3.62939 6.21022 0
M  V30 1906 C 175.482 2.6143 5.30479 0
M  V30 1907 C 174.844 3.62693 6.03849 0
M  V30 1908 H 170.943 -0.0352671 0.781204 0
M  V30 1909 H 173.527 0.526614 1.87443 0
M  V30 1910 H 171.698 -1.22588 3.68547 0
M  V30 1911 H 173.43 -1.0955 3.89591 0
M  V30 1912 H 170.185 0.768022 4.67331 0
M  V30 1913 H 170.609 2.98055 6.07859 0
M  V30 1914 H 175.251 0.810475 4.14959 0
M  V30 1915 H 172.969 4.40751 6.77321 0
M  V30 1916 H 176.555 2.63949 5.18481 0
M  V30 1917 H 175.435 4.41424 6.48163 0
M  V30 1918 N 172.938 -1.57226 0.108567 0
M  V30 1919 C 174.354 -1.5766 -0.248058 0
M  V30 1920 C 174.554 -1.12063 -1.67464 0
M  V30 1921 O 173.61 -0.803236 -2.39383 0
M  V30 1922 C 174.923 -3.0069 -0.0242287 0
M  V30 1923 C 176.471 -3.12868 -0.0909372 0
M  V30 1924 C 176.946 -4.57879 0.105067 0
M  V30 1925 N 178.437 -4.63172 0.0506846 0
M  V30 1926 C 179.172 -5.73126 0.177396 0
M  V30 1927 N 178.668 -6.91866 0.359696 0
M  V30 1928 N 180.461 -5.61977 0.117709 0
M  V30 1929 H 172.612 -1.85169 1.04049 0
M  V30 1930 H 174.875 -0.85529 0.40888 0
M  V30 1931 H 174.581 -3.38299 0.961604 0
M  V30 1932 H 174.455 -3.6945 -0.76068 0
M  V30 1933 H 176.842 -2.75124 -1.06729 0
M  V30 1934 H 176.923 -2.46672 0.677225 0
M  V30 1935 H 176.567 -4.96321 1.07834 0
M  V30 1936 H 176.497 -5.22153 -0.682954 0
M  V30 1937 H 178.988 -3.778 -0.0871266 0
M  V30 1938 H 179.301 -7.71503 0.447529 0
M  V30 1939 H 177.646 -6.93874 0.395536 0
M  V30 1940 H 180.837 -4.68094 -0.0236741 0
M  V30 1941 H 181.01 -6.47627 0.219905 0
M  V30 1942 N 174.416 0.165178 -1.56732 0
M  V30 1943 C 175.366 1.20917 -1.93295 0
M  V30 1944 C 176.35 1.39488 -0.801985 0
M  V30 1945 O 177.542 1.41356 -1.06525 0
M  V30 1946 C 174.671 2.54718 -2.3016 0
M  V30 1947 C 173.757 2.39815 -3.49785 0
M  V30 1948 N 174.148 1.94637 -4.66851 0
M  V30 1949 C 172.446 2.70623 -3.54513 0
M  V30 1950 C 173.147 1.92344 -5.4898 0
M  V30 1951 N 172.123 2.34978 -4.9019 0
M  V30 1952 H 175.925 0.851675 -2.81289 0
M  V30 1953 H 173.439 0.373399 -1.58049 0
M  V30 1954 H 175.436 3.30165 -2.54552 0
M  V30 1955 H 174.096 2.91265 -1.43508 0
M  V30 1956 H 175.107 1.6488 -4.90953 0
M  V30 1957 H 171.784 3.11167 -2.78354 0
M  V30 1958 H 173.174 1.5906 -6.52801 0
M  V30 1959 N 175.894 1.51508 0.433938 0
M  V30 1960 C 177.141 1.64345 1.18309 0
M  V30 1961 C 177.469 0.361315 1.91115 0
M  V30 1962 O 176.724 -0.654753 1.84422 0
M  V30 1963 C 177.023 2.79928 2.22205 0
M  V30 1964 C 176.689 4.19078 1.66387 0
M  V30 1965 C 175.351 4.56932 1.50887 0
M  V30 1966 C 177.703 5.05894 1.25381 0
M  V30 1967 C 175.031 5.79305 0.928608 0
M  V30 1968 C 177.383 6.2885 0.687823 0
M  V30 1969 C 176.047 6.65473 0.519755 0
M  V30 1970 H 175.317 0.601381 0.432923 0
M  V30 1971 H 177.964 1.85549 0.473676 0
M  V30 1972 H 176.269 2.52959 2.99197 0
M  V30 1973 H 177.966 2.87059 2.79997 0
M  V30 1974 H 174.556 3.89234 1.79428 0
M  V30 1975 H 178.74 4.77253 1.36175 0
M  V30 1976 H 173.996 6.06324 0.786186 0
M  V30 1977 H 178.17 6.95461 0.361581 0
M  V30 1978 H 175.797 7.6017 0.0679979 0
M  V30 1979 N 177.372 -0.689602 1.41712 0
M  V30 1980 C 178.62 -1.4468 1.4111 0
M  V30 1981 C 178.941 -1.94986 0.0232196 0
M  V30 1982 O 178.211 -1.72097 -0.935913 0
M  V30 1983 H 176.791 -0.536847 0.519427 0
M  V30 1984 H 179.453 -0.815825 1.77004 0
M  V30 1985 H 178.549 -2.30706 2.10193 0
M  V30 1986 N 178.85 -1.27639 -0.924453 0
M  V30 1987 C 179.813 -1.10681 -2.00705 0
M  V30 1988 C 180.813 -0.0497823 -1.60723 0
M  V30 1989 O 182.003 -0.294654 -1.7169 0
M  V30 1990 C 179.135 -0.687164 -3.33902 0
M  V30 1991 H 180.328 -2.06817 -2.17179 0
M  V30 1992 H 177.881 -1.10473 -1.10569 0
M  V30 1993 H 178.616 0.275439 -3.23128 0
M  V30 1994 H 178.401 -1.45061 -3.6428 0
M  V30 1995 H 179.891 -0.590853 -4.13399 0
M  V30 1996 N 180.328 1.1314 -1.09713 0
M  V30 1997 C 181.238 2.22242 -0.751367 0
M  V30 1998 C 182.254 1.72224 0.247938 0
M  V30 1999 O 183.43 2.01205 0.0885463 0
M  V30 2000 C 180.495 3.46231 -0.180274 0
M  V30 2001 C 179.556 4.11125 -1.2359 0
M  V30 2002 C 178.789 5.29195 -0.691966 0
M  V30 2003 O 179.012 5.68342 0.48414 0
M  V30 2004 O 177.946 5.84214 -1.44838 0
M  V30 2005 H 181.772 2.54197 -1.66186 0
M  V30 2006 H 179.357 1.21331 -0.871735 0
M  V30 2007 H 181.239 4.21185 0.134739 0
M  V30 2008 H 179.914 3.1597 0.703185 0
M  V30 2009 H 178.821 3.37985 -1.60366 0
M  V30 2010 H 180.154 4.45524 -2.09211 0
M  V30 2011 N 181.806 0.884767 1.30421 0
M  V30 2012 C 183.036 0.517293 2.00019 0
M  V30 2013 C 183.444 -0.898632 1.66497 0
M  V30 2014 O 182.787 -1.60245 0.898181 0
M  V30 2015 C 182.849 0.612025 3.54252 0
M  V30 2016 C 182.513 1.99222 4.1129 0
M  V30 2017 C 183.51 2.9616 4.273 0
M  V30 2018 C 181.195 2.29755 4.46674 0
M  V30 2019 C 183.189 4.21764 4.77906 0
M  V30 2020 C 180.876 3.55606 4.96979 0
M  V30 2021 C 181.874 4.51425 5.12547 0
M  V30 2022 O 181.562 5.75043 5.61766 0
M  V30 2023 H 181.294 0.198529 0.64619 0
M  V30 2024 H 183.848 1.1919 1.67281 0
M  V30 2025 H 182.078 -0.119561 3.86515 0
M  V30 2026 H 183.767 0.255859 4.05093 0
M  V30 2027 H 184.533 2.73882 4.00267 0
M  V30 2028 H 180.412 1.55942 4.33824 0
M  V30 2029 H 183.956 4.96561 4.89972 0
M  V30 2030 H 179.853 3.7772 5.23448 0
M  V30 2031 H 180.621 5.77422 5.80109 0
M  V30 2032 N 183.284 -1.43765 0.645699 0
M  V30 2033 C 184.533 -2.01116 0.153412 0
M  V30 2034 C 184.846 -1.51493 -1.23731 0
M  V30 2035 O 186.052 -2.01067 -1.8244 0
M  V30 2036 C 184.508 -3.59206 0.223473 0
M  V30 2037 C 184.116 -4.17823 1.61642 0
M  V30 2038 C 185.86 -4.23972 -0.211597 0
M  V30 2039 C 183.767 -5.68183 1.64081 0
M  V30 2040 H 182.697 -0.752093 0.0535891 0
M  V30 2041 H 185.348 -1.6482 0.806633 0
M  V30 2042 H 183.73 -3.92867 -0.497118 0
M  V30 2043 H 184.904 -3.95674 2.36176 0
M  V30 2044 H 183.219 -3.65399 1.99681 0
M  V30 2045 H 185.816 -5.34275 -0.213112 0
M  V30 2046 H 186.159 -3.97352 -1.24165 0
M  V30 2047 H 186.692 -3.95166 0.456988 0
M  V30 2048 H 183.431 -5.99559 2.64971 0
M  V30 2049 H 182.951 -5.9241 0.938611 0
M  V30 2050 H 184.63 -6.32085 1.3812 0
M  V30 2051 N 184.763 -0.387143 -1.52771 0
M  V30 2052 C 186.04 0.253197 -1.93954 0
M  V30 2053 C 186.42 1.64545 -1.32243 0
M  V30 2054 O 185.768 2.23191 -0.489699 0
M  V30 2055 C 185.978 0.281722 -3.47861 0
M  V30 2056 C 187.326 0.511715 -4.21505 0
M  V30 2057 O 188.35 0.362023 -3.54356 0
M  V30 2058 O 187.209 0.804847 -5.40541 0
M  V30 2059 H 184.303 0.156845 -0.811991 0
M  V30 2060 H 186.849 -0.441494 -1.63856 0
M  V30 2061 H 185.621 -0.693571 -3.85104 0
M  V30 2062 H 185.244 1.02142 -3.84256 0
M  V30 2063 N 186.241 1.57166 -0.116904 0
M  V30 2064 C 187.481 1.97008 0.544715 0
M  V30 2065 C 187.845 0.998713 1.63981 0
M  V30 2066 O 189.046 1.28644 2.36018 0
M  V30 2067 C 187.317 3.41145 1.06559 0
M  V30 2068 S 188.876 4.02998 1.73603 0
M  V30 2069 H 185.694 0.688587 0.177112 0
M  V30 2070 H 188.296 1.94459 -0.201487 0
M  V30 2071 H 187 4.09592 0.257374 0
M  V30 2072 H 186.531 3.4734 1.84712 0
M  V30 2073 H 188.546 3.93585 3.02168 0
M  V30 2074 N 187.719 -0.156864 1.56817 0
M  V30 2075 C 188.666 -1.19394 1.97519 0
M  V30 2076 C 189.636 -1.4322 0.841265 0
M  V30 2077 O 190.821 -1.55719 1.10255 0
M  V30 2078 C 187.961 -2.52483 2.35258 0
M  V30 2079 C 187.074 -2.35914 3.61896 0
M  V30 2080 C 186.209 -3.61969 3.88782 0
M  V30 2081 C 185.248 -3.40395 5.08722 0
M  V30 2082 N 184.385 -4.58556 5.31668 0
M  V30 2083 H 189.225 -0.839845 2.85921 0
M  V30 2084 H 186.762 -0.403264 1.41464 0
M  V30 2085 H 188.72 -3.30071 2.55165 0
M  V30 2086 H 187.35 -2.85859 1.49949 0
M  V30 2087 H 186.402 -1.49429 3.49821 0
M  V30 2088 H 187.714 -2.15926 4.49641 0
M  V30 2089 H 186.868 -4.47989 4.09135 0
M  V30 2090 H 185.607 -3.84951 2.9944 0
M  V30 2091 H 184.612 -2.52763 4.88253 0
M  V30 2092 H 185.837 -3.18822 5.99608 0
M  V30 2093 H 183.783 -4.81729 4.45279 0
M  V30 2094 H 183.7 -4.41535 6.13664 0
M  V30 2095 H 184.968 -5.45817 5.5651 0
M  V30 2096 N 189.197 -1.51736 -0.425897 0
M  V30 2097 C 190.425 -1.68794 -1.1965 0
M  V30 2098 C 190.84 -0.390164 -1.84725 0
M  V30 2099 O 190.197 0.632376 -1.71194 0
M  V30 2100 C 190.248 -2.81174 -2.27208 0
M  V30 2101 O 189.969 -4.05925 -1.64793 0
M  V30 2102 C 191.47 -3.09599 -3.17275 0
M  V30 2103 H 188.69 -0.566128 -0.360194 0
M  V30 2104 H 191.234 -1.98211 -0.503249 0
M  V30 2105 H 189.389 -2.54324 -2.9223 0
M  V30 2106 H 189.803 -4.68423 -2.35967 0
M  V30 2107 H 191.277 -3.91786 -3.88854 0
M  V30 2108 H 191.754 -2.22468 -3.78688 0
M  V30 2109 H 192.36 -3.38151 -2.57941 0
M  V30 2110 N 190.675 0.682077 -1.42076 0
M  V30 2111 C 191.623 1.81707 -1.45208 0
M  V30 2112 C 192.617 1.66183 -0.328591 0
M  V30 2113 O 193.823 1.7288 -0.501264 0
M  V30 2114 H 190.198 0.599014 -0.454628 0
M  V30 2115 H 192.169 1.76183 -2.40836 0
M  V30 2116 C 190.918 3.19816 -1.36428 0
M  V30 2117 H 190.241 3.32385 -2.22171 0
M  V30 2118 H 191.681 3.99272 -1.42681 0
M  V30 2119 C 190.14 3.36809 -0.078191 0
M  V30 2120 O 190.67 3.92124 0.87188 0
M  V30 2121 N 188.876 2.906 0.00229266 0
M  V30 2122 H 188.423 2.45772 -0.771616 0
M  V30 2123 H 188.381 3.02347 0.862179 0
M  V30 2124 N 192.153 1.28127 0.917671 0
M  V30 2125 C 193.383 1.17722 1.6978 0
M  V30 2126 C 193.791 -0.267261 1.87303 0
M  V30 2127 O 193.134 -1.19286 1.39702 0
M  V30 2128 C 193.196 1.79958 3.11216 0
M  V30 2129 C 192.86 3.29187 3.16993 0
M  V30 2130 C 193.857 4.25679 2.98485 0
M  V30 2131 C 191.542 3.70075 3.39632 0
M  V30 2132 C 193.536 5.61035 3.02521 0
M  V30 2133 C 191.223 5.05557 3.433 0
M  V30 2134 C 192.221 6.00847 3.24764 0
M  V30 2135 O 191.909 7.33859 3.28187 0
M  V30 2136 H 191.641 0.409788 0.537634 0
M  V30 2137 H 194.195 1.69694 1.15728 0
M  V30 2138 H 192.425 1.22475 3.66793 0
M  V30 2139 H 194.114 1.64125 3.71238 0
M  V30 2140 H 194.88 3.95426 2.80826 0
M  V30 2141 H 190.759 2.96373 3.53106 0
M  V30 2142 H 194.303 6.35388 2.87971 0
M  V30 2143 H 190.2 5.35462 3.60486 0
M  V30 2144 H 190.968 7.42436 3.44575 0
M  V30 2145 N 193.631 -1.12557 1.10312 0
M  V30 2146 C 194.88 -1.83395 0.839588 0
M  V30 2147 C 195.193 -1.84939 -0.636929 0
M  V30 2148 O 196.399 -2.51761 -1.01631 0
M  V30 2149 C 194.855 -3.29303 1.45215 0
M  V30 2150 C 194.463 -3.36122 2.96186 0
M  V30 2151 C 196.207 -4.05121 1.26796 0
M  V30 2152 C 194.114 -4.76357 3.50483 0
M  V30 2153 H 193.044 -0.687133 0.310425 0
M  V30 2154 H 195.695 -1.26746 1.32694 0
M  V30 2155 H 194.077 -3.85812 0.892469 0
M  V30 2156 H 195.251 -2.89559 3.58458 0
M  V30 2157 H 193.566 -2.73776 3.13745 0
M  V30 2158 H 196.163 -5.08668 1.64806 0
M  V30 2159 H 196.506 -4.15773 0.209409 0
M  V30 2160 H 197.039 -3.54967 1.79563 0
M  V30 2161 H 193.778 -4.70899 4.55998 0
M  V30 2162 H 193.298 -5.23377 2.92978 0
M  V30 2163 H 194.977 -5.45294 3.48228 0
M  V30 2164 N 195.109 -0.891671 -1.2995 0
M  V30 2165 C 196.357 -0.512486 -1.95494 0
M  V30 2166 C 196.678 0.942776 -1.70695 0
M  V30 2167 O 195.948 1.66374 -1.03424 0
M  V30 2168 H 194.528 -0.186533 -0.723336 0
M  V30 2169 H 197.19 -1.13621 -1.58355 0
M  V30 2170 H 196.286 -0.688342 -3.04415 0
M  V30 2171 N 196.587 1.43421 -0.653314 0
M  V30 2172 C 197.519 2.29071 0.0769134 0
M  V30 2173 C 198.532 1.42513 0.787017 0
M  V30 2174 O 199.721 1.66449 0.644757 0
M  V30 2175 C 196.821 3.19436 1.13199 0
M  V30 2176 C 195.994 4.34533 0.500006 0
M  V30 2177 C 195.053 5.05771 1.45198 0
M  V30 2178 O 194.079 5.61037 0.960538 0
M  V30 2179 N 195.281 5.0928 2.78594 0
M  V30 2180 H 198.046 2.92382 -0.658235 0
M  V30 2181 H 195.607 1.54112 -0.496104 0
M  V30 2182 H 197.599 3.63958 1.76964 0
M  V30 2183 H 196.169 2.57724 1.7691 0
M  V30 2184 H 195.389 3.92925 -0.316738 0
M  V30 2185 H 196.677 5.08766 0.0588345 0
M  V30 2186 H 196.075 4.65751 3.2108 0
M  V30 2187 H 194.632 5.57519 3.37662 0
M  V30 2188 N 198.065 0.39524 1.52563 0
M  V30 2189 C 199.313 -0.184678 2.01254 0
M  V30 2190 C 199.634 -1.46822 1.28329 0
M  V30 2191 O 198.904 -1.91666 0.405094 0
M  V30 2192 H 197.484 -0.0712355 0.743596 0
M  V30 2193 H 200.146 0.528293 1.87603 0
M  V30 2194 H 199.242 -0.390681 3.09645 0
M  V30 2195 N 199.544 -1.57102 0.125237 0
M  V30 2196 C 200.79 -1.95697 -0.532035 0
M  V30 2197 C 201.123 -1.009 -1.6593 0
M  V30 2198 O 200.398 -0.047347 -1.94442 0
M  V30 2199 C 200.681 -3.44181 -1.05884 0
M  V30 2200 C 200.534 -4.49752 0.0654392 0
M  V30 2201 C 201.853 -3.94655 -1.9477 0
M  V30 2202 H 198.972 -0.711571 -0.191925 0
M  V30 2203 H 201.614 -1.88923 0.20206 0
M  V30 2204 H 199.764 -3.50085 -1.68442 0
M  V30 2205 H 201.436 -4.55943 0.700982 0
M  V30 2206 H 199.679 -4.27653 0.727709 0
M  V30 2207 H 200.35 -5.50924 -0.344505 0
M  V30 2208 H 202.826 -3.91094 -1.42074 0
M  V30 2209 H 201.702 -4.99057 -2.28546 0
M  V30 2210 H 201.963 -3.35718 -2.87656 0
M  V30 2211 N 201.022 0.148545 -1.56898 0
M  V30 2212 C 202.299 0.890019 -1.74178 0
M  V30 2213 C 202.679 1.99407 -0.692839 0
M  V30 2214 O 202.027 2.26671 0.288505 0
M  V30 2215 C 202.237 1.43389 -3.18183 0
M  V30 2216 C 203.585 1.89791 -3.79822 0
M  V30 2217 O 204.609 1.53134 -3.21603 0
M  V30 2218 O 203.468 2.57387 -4.82093 0
M  V30 2219 H 200.562 0.420496 -0.712118 0
M  V30 2220 H 203.108 0.134591 -1.69165 0
M  V30 2221 H 201.88 0.640383 -3.86024 0
M  V30 2222 H 201.503 2.25287 -3.27615 0
M  V30 2223 N 202.5 1.5196 0.417844 0
M  V30 2224 C 203.432 1.70895 1.52733 0
M  V30 2225 C 204.445 0.589405 1.51756 0
M  V30 2226 O 205.634 0.864312 1.56179 0
M  V30 2227 C 202.734 1.72627 2.91639 0
M  V30 2228 C 201.907 3.01479 3.16905 0
M  V30 2229 C 200.966 2.95139 4.35637 0
M  V30 2230 O 199.992 3.69059 4.3334 0
M  V30 2231 N 201.194 2.12328 5.40275 0
M  V30 2232 H 203.959 2.66612 1.36888 0
M  V30 2233 H 201.52 1.50089 0.607037 0
M  V30 2234 H 203.512 1.65928 3.6912 0
M  V30 2235 H 202.082 0.844216 3.00985 0
M  V30 2236 H 201.302 3.21895 2.27546 0
M  V30 2237 H 202.59 3.86736 3.30625 0
M  V30 2238 H 201.988 1.51685 5.44985 0
M  V30 2239 H 200.545 2.11494 6.16534 0
M  V30 2240 N 203.978 -0.674533 1.42435 0
M  V30 2241 C 204.908 -1.80009 1.48724 0
M  V30 2242 C 205.889 -1.6659 0.343793 0
M  V30 2243 O 207.074 -1.86007 0.558137 0
M  V30 2244 C 204.204 -3.18306 1.38919 0
M  V30 2245 C 203.158 -3.46461 2.51294 0
M  V30 2246 C 202.484 -4.84335 2.26547 0
M  V30 2247 C 203.784 -3.43328 3.93603 0
M  V30 2248 H 205.478 -1.75004 2.42928 0
M  V30 2249 H 203.024 -0.840533 1.16923 0
M  V30 2250 H 204.977 -3.9678 1.41927 0
M  V30 2251 H 203.701 -3.2399 0.412094 0
M  V30 2252 H 202.36 -2.70348 2.47604 0
M  V30 2253 H 202.008 -4.86669 1.2713 0
M  V30 2254 H 201.708 -5.04136 3.01861 0
M  V30 2255 H 203.232 -5.65094 2.31304 0
M  V30 2256 H 204.646 -4.11772 3.98894 0
M  V30 2257 H 203.043 -3.74664 4.68771 0
M  V30 2258 H 204.113 -2.41897 4.20255 0
M  V30 2259 N 205.456 -1.28612 -0.910864 0
M  V30 2260 C 206.419 -1.12803 -1.9952 0
M  V30 2261 C 207.419 -0.0668264 -1.60661 0
M  V30 2262 O 208.609 -0.312847 -1.71368 0
M  V30 2263 C 205.741 -0.72254 -3.33155 0
M  V30 2264 H 206.934 -2.09109 -2.14973 0
M  V30 2265 H 204.487 -1.11639 -1.09391 0
M  V30 2266 H 205.222 0.241152 -3.23402 0
M  V30 2267 H 205.007 -1.48916 -3.62721 0
M  V30 2268 H 206.497 -0.634666 -4.12749 0
M  V30 2269 N 206.934 1.1197 -1.10907 0
M  V30 2270 C 207.882 2.19927 -0.757303 0
M  V30 2271 C 208.876 1.67564 0.248747 0
M  V30 2272 O 210.082 1.79672 0.108605 0
M  V30 2273 H 206.457 0.716925 -0.226987 0
M  V30 2274 H 208.428 2.46847 -1.67658 0
M  V30 2275 C 207.177 3.47061 -0.210671 0
M  V30 2276 H 206.5 3.87703 -0.976049 0
M  V30 2277 H 207.94 4.24 -0.0026584 0
M  V30 2278 C 206.399 3.19864 1.05777 0
M  V30 2279 O 206.929 3.40049 2.13845 0
M  V30 2280 N 205.135 2.73636 0.978349 0
M  V30 2281 H 204.682 2.5741 0.0988246 0
M  V30 2282 H 204.64 2.55815 1.82773 0
M  V30 2283 N 208.412 0.89855 1.29475 0
M  V30 2284 C 209.661 0.519863 1.94885 0
M  V30 2285 C 209.974 -0.9383 1.71625 0
M  V30 2286 O 211.18 -1.42445 2.31131 0
M  V30 2287 C 209.636 0.878836 3.49005 0
M  V30 2288 C 209.244 2.35569 3.81066 0
M  V30 2289 C 210.988 0.570004 4.20656 0
M  V30 2290 C 208.895 2.65558 5.28425 0
M  V30 2291 H 207.825 0.190692 0.729488 0
M  V30 2292 H 210.476 1.09539 1.47219 0
M  V30 2293 H 208.858 0.232253 3.95318 0
M  V30 2294 H 210.032 3.04773 3.45616 0
M  V30 2295 H 208.347 2.63343 3.22552 0
M  V30 2296 H 210.944 0.770925 5.29113 0
M  V30 2297 H 211.287 -0.491404 4.1339 0
M  V30 2298 H 211.82 1.17438 3.8007 0
M  V30 2299 H 208.559 3.70493 5.40754 0
M  V30 2300 H 208.079 2.00977 5.65127 0
M  V30 2301 H 209.758 2.51765 5.96006 0
M  V30 2302 N 209.89 -1.43072 0.660911 0
M  V30 2303 C 211.139 -2.00942 0.174735 0
M  V30 2304 C 211.452 -1.52797 -1.22117 0
M  V30 2305 O 212.658 -2.02991 -1.80297 0
M  V30 2306 C 211.114 -3.58948 0.261559 0
M  V30 2307 C 210.722 -4.16085 1.66064 0
M  V30 2308 C 212.466 -4.24173 -0.166617 0
M  V30 2309 C 210.373 -5.6641 1.70098 0
M  V30 2310 H 209.303 -0.751483 0.0615631 0
M  V30 2311 H 211.954 -1.63955 0.824069 0
M  V30 2312 H 210.336 -3.93372 -0.455421 0
M  V30 2313 H 211.51 -3.93147 2.40359 0
M  V30 2314 H 209.825 -3.6326 2.03546 0
M  V30 2315 H 212.422 -5.34471 -0.156433 0
M  V30 2316 H 212.765 -3.98647 -1.19943 0
M  V30 2317 H 213.298 -3.94659 0.498875 0
M  V30 2318 H 210.037 -5.96715 2.71315 0
M  V30 2319 H 209.557 -5.91382 1.00139 0
M  V30 2320 H 211.236 -6.30585 1.44816 0
M  V30 2321 N 211.368 -0.403325 -1.52352 0
M  V30 2322 C 212.3 0.4603 -2.2453 0
M  V30 2323 C 213.313 1.01505 -1.27282 0
M  V30 2324 O 214.502 0.914982 -1.53266 0
M  V30 2325 C 211.602 1.65208 -2.95905 0
M  V30 2326 C 210.775 1.22224 -4.19976 0
M  V30 2327 C 209.834 2.28028 -4.74226 0
M  V30 2328 O 208.86 1.88857 -5.36956 0
M  V30 2329 N 210.062 3.6012 -4.55295 0
M  V30 2330 H 212.827 -0.158156 -2.99282 0
M  V30 2331 H 210.388 -0.230402 -1.60252 0
M  V30 2332 H 212.38 2.35541 -3.29093 0
M  V30 2333 H 210.95 2.17658 -2.24374 0
M  V30 2334 H 210.17 0.34725 -3.92668 0
M  V30 2335 H 211.458 0.911924 -5.00561 0
M  V30 2336 H 210.856 3.94698 -4.05253 0
M  V30 2337 H 209.413 4.26447 -4.92936 0
M  V30 2338 N 212.846 1.57033 -0.133567 0
M  V30 2339 C 213.793 2.16074 0.811208 0
M  V30 2340 C 214.763 1.08979 1.2535 0
M  V30 2341 O 215.948 1.36958 1.32843 0
M  V30 2342 C 213.088 2.77595 2.05024 0
M  V30 2343 C 212.201 3.99042 1.65498 0
M  V30 2344 C 211.336 4.48603 2.84479 0
M  V30 2345 C 210.375 5.62547 2.41262 0
M  V30 2346 N 209.512 6.06787 3.53206 0
M  V30 2347 H 214.352 2.96477 0.300906 0
M  V30 2348 H 211.889 1.46462 0.136822 0
M  V30 2349 H 213.847 3.11402 2.77642 0
M  V30 2350 H 212.477 1.99859 2.53488 0
M  V30 2351 H 211.529 3.71302 0.826981 0
M  V30 2352 H 212.841 4.81629 1.29748 0
M  V30 2353 H 211.995 4.84395 3.65303 0
M  V30 2354 H 210.734 3.64995 3.23465 0
M  V30 2355 H 209.739 5.26345 1.58874 0
M  V30 2356 H 210.964 6.47931 2.03377 0
M  V30 2357 H 208.91 5.26117 3.91838 0
M  V30 2358 H 208.827 6.84266 3.21427 0
M  V30 2359 H 210.095 6.4722 4.34427 0
M  V30 2360 N 214.325 -0.140222 1.56975 0
M  V30 2361 C 215.574 -0.850152 1.82908 0
M  V30 2362 C 215.887 -1.82028 0.715892 0
M  V30 2363 O 217.093 -2.57485 0.861016 0
M  V30 2364 C 215.549 -1.5625 3.24213 0
M  V30 2365 C 215.157 -0.63443 4.43485 0
M  V30 2366 C 216.901 -2.25881 3.59413 0
M  V30 2367 C 214.808 -1.34879 5.75814 0
M  V30 2368 H 213.738 -0.321221 0.682153 0
M  V30 2369 H 216.389 -0.102874 1.83211 0
M  V30 2370 H 214.771 -2.35565 3.18316 0
M  V30 2371 H 215.945 0.12398 4.60633 0
M  V30 2372 H 214.26 -0.0461836 4.16374 0
M  V30 2373 H 216.857 -2.79978 4.5554 0
M  V30 2374 H 217.2 -3.02693 2.85802 0
M  V30 2375 H 217.733 -1.53477 3.67001 0
M  V30 2376 H 214.472 -0.622385 6.52539 0
M  V30 2377 H 213.992 -2.07974 5.6259 0
M  V30 2378 H 215.671 -1.88784 6.18845 0
M  V30 2379 N 215.803 -1.52179 -0.40978 0
M  V30 2380 C 217.219 -1.40968 -0.74835 0
M  V30 2381 C 217.419 -0.513657 -1.94843 0
M  V30 2382 O 216.475 0.0208026 -2.52491 0
M  V30 2383 C 217.788 -2.83483 -1.0029 0
M  V30 2384 C 219.336 -2.92821 -1.10565 0
M  V30 2385 C 219.811 -4.36303 -1.39296 0
M  V30 2386 N 221.302 -4.39535 -1.46162 0
M  V30 2387 C 222.037 -5.47614 -1.70018 0
M  V30 2388 N 221.533 -6.65812 -1.91483 0
M  V30 2389 N 223.326 -5.35129 -1.72027 0
M  V30 2390 H 215.477 -2.0897 0.380186 0
M  V30 2391 H 217.74 -0.94185 0.107805 0
M  V30 2392 H 217.446 -3.51168 -0.193461 0
M  V30 2393 H 217.32 -3.24487 -1.92323 0
M  V30 2394 H 219.707 -2.25318 -1.90568 0
M  V30 2395 H 219.788 -2.55276 -0.16369 0
M  V30 2396 H 219.432 -5.04366 -0.598109 0
M  V30 2397 H 219.362 -4.71385 -2.34743 0
M  V30 2398 H 221.853 -3.54332 -1.31367 0
M  V30 2399 H 222.166 -7.43964 -2.09134 0
M  V30 2400 H 220.511 -6.68879 -1.88749 0
M  V30 2401 H 223.702 -4.41764 -1.54796 0
M  V30 2402 H 223.875 -6.19433 -1.9028 0
M  V30 2403 N 217.281 0.66697 -1.42791 0
M  V30 2404 C 218.509 1.45505 -1.47091 0
M  V30 2405 C 218.924 1.8861 -0.0845873 0
M  V30 2406 O 218.281 1.58632 0.90234 0
M  V30 2407 C 218.332 2.69906 -2.40485 0
M  V30 2408 O 218.053 2.28608 -3.73725 0
M  V30 2409 C 219.554 3.63396 -2.53886 0
M  V30 2410 H 216.774 0.447459 -0.500022 0
M  V30 2411 H 219.318 0.818866 -1.8739 0
M  V30 2412 H 217.473 3.29696 -2.03419 0
M  V30 2413 H 217.887 3.08997 -4.23817 0
M  V30 2414 H 219.361 4.47387 -3.2334 0
M  V30 2415 H 219.838 4.09824 -1.57927 0
M  V30 2416 H 220.444 3.09495 -2.91706 0
M  V30 2417 N 218.759 1.29093 0.90403 0
M  V30 2418 C 219.984 1.19809 1.69294 0
M  V30 2419 C 220.409 -0.238481 1.86582 0
M  V30 2420 O 219.767 -1.1723 1.383 0
M  V30 2421 C 219.815 1.91202 3.05736 0
M  V30 2422 O 218.919 1.22611 3.93752 0
M  V30 2423 H 218.26 0.415385 0.518027 0
M  V30 2424 H 220.79 1.70586 1.12967 0
M  V30 2425 H 220.8 1.99487 3.55906 0
M  V30 2426 H 219.475 2.95692 2.92471 0
M  V30 2427 H 218.052 1.22554 3.52186 0
M  V30 2428 N 220.237 -1.11381 1.11499 0
M  V30 2429 C 221.648 -1.6465 0.880191 0
M  V30 2430 C 221.999 -1.87199 -0.587434 0
M  V30 2431 O 221.124 -1.60667 -1.44966 0
M  V30 2432 C 221.719 -2.99105 1.59128 0
M  V30 2433 C 220.278 -3.49279 1.40289 0
M  V30 2434 C 219.425 -2.24077 1.63354 0
M  V30 2435 H 222.376 -0.950123 1.27116 0
M  V30 2436 H 222.397 -3.66107 1.03664 0
M  V30 2437 H 221.909 -2.82661 2.65941 0
M  V30 2438 H 220.01 -3.70887 0.356888 0
M  V30 2439 H 220.123 -4.2803 2.15238 0
M  V30 2440 H 218.487 -2.31733 1.05698 0
M  V30 2441 H 219.27 -2.10175 2.71443 0
M  V30 2442 N 221.715 -0.905404 -1.28997 0
M  V30 2443 C 222.945 -0.549049 -1.99171 0
M  V30 2444 C 223.353 0.87203 -1.67906 0
M  V30 2445 O 222.696 1.58796 -0.923561 0
M  V30 2446 C 222.758 -0.668306 -3.53234 0
M  V30 2447 C 222.422 -2.0574 -4.08069 0
M  V30 2448 C 223.419 -3.0292 -4.22534 0
M  V30 2449 C 221.104 -2.36833 -4.42962 0
M  V30 2450 C 223.098 -4.29314 -4.71135 0
M  V30 2451 C 220.785 -3.63467 -4.91258 0
M  V30 2452 C 221.783 -4.59522 -5.053 0
M  V30 2453 O 221.471 -5.83907 -5.52546 0
M  V30 2454 H 221.203 -0.208784 -0.64295 0
M  V30 2455 H 223.757 -1.21836 -1.65363 0
M  V30 2456 H 221.987 0.0580547 -3.86656 0
M  V30 2457 H 223.676 -0.320273 -4.04634 0
M  V30 2458 H 224.442 -2.80216 -3.95859 0
M  V30 2459 H 220.321 -1.62824 -4.31288 0
M  V30 2460 H 223.865 -5.04293 -4.8201 0
M  V30 2461 H 219.762 -3.86 -5.17372 0
M  V30 2462 H 220.53 -5.86578 -5.70849 0
M  V30 2463 N 223.193 1.4272 -0.668489 0
M  V30 2464 C 224.47 1.95248 -0.117373 0
M  V30 2465 C 224.85 1.60919 1.36632 0
M  V30 2466 O 224.198 0.902095 2.09939 0
M  V30 2467 C 224.408 3.46927 -0.379806 0
M  V30 2468 C 225.756 4.23588 -0.292923 0
M  V30 2469 O 226.78 3.5482 -0.313204 0
M  V30 2470 O 225.639 5.46017 -0.229697 0
M  V30 2471 H 222.733 0.827 0.00079152 0
M  V30 2472 H 225.279 1.52581 -0.742783 0
M  V30 2473 H 224.051 3.65096 -1.40786 0
M  V30 2474 H 223.674 3.96627 0.277923 0
M  V30 2475 N 224.671 0.411399 1.52136 0
M  V30 2476 C 226.087 0.0623865 1.59478 0
M  V30 2477 C 226.287 -1.42554 1.4241 0
M  V30 2478 O 225.343 -2.19263 1.2522 0
M  V30 2479 C 226.656 0.559331 2.95452 0
M  V30 2480 C 228.204 0.517503 3.08692 0
M  V30 2481 C 228.679 0.990994 4.4715 0
M  V30 2482 N 230.17 0.947908 4.53397 0
M  V30 2483 C 230.905 1.28544 5.58806 0
M  V30 2484 N 230.401 1.69454 6.71757 0
M  V30 2485 N 232.194 1.20526 5.49026 0
M  V30 2486 H 224.345 1.37982 1.61477 0
M  V30 2487 H 226.608 0.566977 0.759764 0
M  V30 2488 H 226.314 1.59938 3.1323 0
M  V30 2489 H 226.188 -0.0298014 3.77188 0
M  V30 2490 H 228.575 -0.513505 2.90598 0
M  V30 2491 H 228.656 1.14272 2.28857 0
M  V30 2492 H 228.3 2.02034 4.65988 0
M  V30 2493 H 228.23 0.34257 5.25485 0
M  V30 2494 H 230.721 0.647157 3.72317 0
M  V30 2495 H 231.034 1.93513 7.48179 0
M  V30 2496 H 229.379 1.73359 6.73032 0
M  V30 2497 H 232.57 0.884505 4.59667 0
M  V30 2498 H 232.743 1.47161 6.31069 0
M  V30 2499 N 226.149 -1.5696 0.141893 0
M  V30 2500 C 227.565 -1.58151 -0.21456 0
M  V30 2501 C 227.765 -1.1559 -1.65049 0
M  V30 2502 O 226.821 -0.853832 -2.37626 0
M  V30 2503 C 228.134 -3.00674 0.0395576 0
M  V30 2504 C 229.682 -3.1299 -0.0245529 0
M  V30 2505 C 230.157 -4.57554 0.202167 0
M  V30 2506 N 231.648 -4.62961 0.148919 0
M  V30 2507 C 232.383 -5.7262 0.298924 0
M  V30 2508 N 231.879 -6.90947 0.50637 0
M  V30 2509 N 233.672 -5.61601 0.236886 0
M  V30 2510 H 225.823 -1.8292 1.07953 0
M  V30 2511 H 228.086 -0.846425 0.42693 0
M  V30 2512 H 227.792 -3.36183 1.03315 0
M  V30 2513 H 227.666 -3.70981 -0.682143 0
M  V30 2514 H 230.053 -2.77326 -1.00869 0
M  V30 2515 H 230.134 -2.4518 0.729396 0
M  V30 2516 H 229.778 -4.93922 1.18338 0
M  V30 2517 H 229.708 -5.23484 -0.572044 0
M  V30 2518 H 232.199 -3.77899 -0.00697015 0
M  V30 2519 H 232.512 -7.7038 0.611076 0
M  V30 2520 H 230.857 -6.92878 0.542628 0
M  V30 2521 H 234.048 -4.68039 0.0756209 0
M  V30 2522 H 234.221 -6.47015 0.357227 0
M  V30 2523 N 227.627 0.131896 -1.57047 0
M  V30 2524 C 228.557 1.16384 -2.02428 0
M  V30 2525 C 229.538 1.43936 -0.90644 0
M  V30 2526 O 230.723 1.54599 -1.17528 0
M  V30 2527 C 227.853 2.49328 -2.4177 0
M  V30 2528 C 226.807 2.36266 -3.56879 0
M  V30 2529 C 226.133 3.74057 -3.8208 0
M  V30 2530 C 227.433 1.834 -4.89042 0
M  V30 2531 H 229.127 0.786433 -2.88887 0
M  V30 2532 H 226.673 0.376855 -1.38981 0
M  V30 2533 H 228.626 3.21759 -2.7212 0
M  V30 2534 H 227.35 2.88934 -1.52266 0
M  V30 2535 H 226.009 1.66286 -3.26718 0
M  V30 2536 H 225.657 4.11125 -2.89803 0
M  V30 2537 H 225.357 3.66174 -4.59554 0
M  V30 2538 H 226.881 4.48012 -4.1487 0
M  V30 2539 H 228.295 2.45636 -5.18011 0
M  V30 2540 H 226.692 1.8637 -5.70426 0
M  V30 2541 H 227.762 0.790662 -4.7841 0
M  V30 2542 N 229.106 1.52395 0.401703 0
M  V30 2543 C 230.355 1.66044 1.14509 0
M  V30 2544 C 230.668 0.400216 1.91462 0
M  V30 2545 O 231.874 0.416632 2.68284 0
M  V30 2546 C 230.33 2.93388 2.0845 0
M  V30 2547 C 229.938 4.26545 1.36978 0
M  V30 2548 C 231.682 3.16402 2.83001 0
M  V30 2549 C 229.589 5.45007 2.29611 0
M  V30 2550 H 228.519 0.618562 0.431158 0
M  V30 2551 H 231.17 1.78886 0.40892 0
M  V30 2552 H 229.552 2.74263 2.8565 0
M  V30 2553 H 230.726 4.56179 0.650916 0
M  V30 2554 H 229.041 4.09692 0.74438 0
M  V30 2555 H 231.638 4.02085 3.52465 0
M  V30 2556 H 231.981 2.30943 3.46368 0
M  V30 2557 H 232.514 3.36034 2.12898 0
M  V30 2558 H 229.253 6.32835 1.70879 0
M  V30 2559 H 228.773 5.19702 2.9945 0
M  V30 2560 H 230.452 5.7838 2.89974 0
M  V30 2561 N 230.584 -0.659388 1.43143 0
M  V30 2562 C 231.514 -1.78422 1.50625 0
M  V30 2563 C 232.495 -1.66216 0.361443 0
M  V30 2564 O 233.68 -1.85404 0.577834 0
M  V30 2565 C 230.81 -3.16815 1.42287 0
M  V30 2566 C 229.764 -3.43777 2.54954 0
M  V30 2567 C 229.09 -4.81905 2.31671 0
M  V30 2568 C 230.39 -3.39134 3.97222 0
M  V30 2569 H 232.084 -1.72417 2.44771 0
M  V30 2570 H 229.63 -0.828084 1.17808 0
M  V30 2571 H 231.583 -3.95253 1.46127 0
M  V30 2572 H 230.307 -3.23534 0.446435 0
M  V30 2573 H 228.966 -2.67707 2.50457 0
M  V30 2574 H 228.614 -4.85294 1.32284 0
M  V30 2575 H 228.314 -5.00906 3.07192 0
M  V30 2576 H 229.838 -5.62609 2.37284 0
M  V30 2577 H 231.252 -4.07518 4.03239 0
M  V30 2578 H 229.649 -3.69671 4.72719 0
M  V30 2579 H 230.719 -2.37426 4.22797 0
M  V30 2580 N 232.062 -1.29571 -0.897171 0
M  V30 2581 C 233.287 -1.20705 -1.68656 0
M  V30 2582 C 233.712 0.228582 -1.86706 0
M  V30 2583 O 233.07 1.16494 -1.3892 0
M  V30 2584 C 233.118 -1.9282 -3.04717 0
M  V30 2585 O 232.222 -1.24697 -3.93096 0
M  V30 2586 H 231.563 -0.418126 -0.515816 0
M  V30 2587 H 234.093 -1.71183 -1.12061 0
M  V30 2588 H 234.103 -2.01372 -3.54843 0
M  V30 2589 H 232.778 -2.97239 -2.90899 0
M  V30 2590 H 231.355 -1.2442 -3.51531 0
M  V30 2591 N 233.54 1.10788 -1.12088 0
M  V30 2592 C 234.503 2.15207 -0.788577 0
M  V30 2593 C 235.503 1.59609 0.195317 0
M  V30 2594 O 236.693 1.74174 -0.0300193 0
M  V30 2595 C 233.825 3.4047 -0.171174 0
M  V30 2596 H 235.018 2.46116 -1.71368 0
M  V30 2597 H 232.571 1.26089 -0.923652 0
M  V30 2598 H 233.306 3.15176 0.763832 0
M  V30 2599 H 233.091 3.82109 -0.879514 0
M  V30 2600 H 234.581 4.17576 0.04496 0
M  V30 2601 N 235.018 0.912232 1.28515 0
M  V30 2602 C 236.264 0.554851 1.95686 0
M  V30 2603 C 236.619 -0.89138 1.70506 0
M  V30 2604 O 235.912 -1.62529 1.01464 0
M  V30 2605 C 236.106 0.798392 3.48368 0
M  V30 2606 C 235.935 2.26674 3.88393 0
M  V30 2607 C 234.705 2.91657 4.12631 0
M  V30 2608 C 236.903 3.24303 3.99164 0
M  V30 2609 N 234.885 4.28805 4.39317 0
M  V30 2610 C 236.256 4.4661 4.30046 0
M  V30 2611 C 238.311 3.19723 3.81683 0
M  V30 2612 C 237.014 5.64915 4.45268 0
M  V30 2613 C 239.04 4.37325 3.98121 0
M  V30 2614 C 238.402 5.58406 4.29375 0
M  V30 2615 H 234.501 0.252876 0.739985 0
M  V30 2616 H 237.085 1.17565 1.55199 0
M  V30 2617 H 235.256 0.20688 3.87849 0
M  V30 2618 H 236.988 0.405193 4.02666 0
M  V30 2619 H 233.743 2.42393 4.06869 0
M  V30 2620 H 234.167 4.99712 4.56746 0
M  V30 2621 H 238.809 2.27191 3.56573 0
M  V30 2622 H 236.527 6.57927 4.6921 0
M  V30 2623 H 240.113 4.35282 3.86033 0
M  V30 2624 H 238.993 6.47889 4.41825 0
M  V30 2625 N 236.496 -1.42363 0.676048 0
M  V30 2626 C 237.444 -2.32596 -0.0131507 0
M  V30 2627 C 238.438 -1.49891 -0.789238 0
M  V30 2628 O 239.644 -1.65955 -0.697061 0
M  V30 2629 H 236.019 -0.751647 -0.0230481 0
M  V30 2630 H 237.99 -2.88421 0.765243 0
M  V30 2631 C 236.739 -3.34479 -0.949702 0
M  V30 2632 H 236.062 -3.98158 -0.361938 0
M  V30 2633 H 237.502 -4.00199 -1.4006 0
M  V30 2634 C 235.961 -2.66838 -2.05667 0
M  V30 2635 O 236.491 -2.50124 -3.14326 0
M  V30 2636 N 234.697 -2.25843 -1.82875 0
M  V30 2637 H 234.244 -2.39637 -0.945085 0
M  V30 2638 H 234.202 -1.80918 -2.5713 0
M  V30 2639 N 237.974 -0.419461 -1.51915 0
M  V30 2640 C 239.385 0.0477853 -1.86639 0
M  V30 2641 C 239.736 1.43531 -1.33766 0
M  V30 2642 O 238.861 2.05401 -0.68113 0
M  V30 2643 C 239.456 0.0934885 -3.38671 0
M  V30 2644 C 238.015 0.505097 -3.72996 0
M  V30 2645 C 237.162 -0.313792 -2.75519 0
M  V30 2646 H 240.113 -0.636088 -1.45395 0
M  V30 2647 H 240.134 0.906667 -3.6954 0
M  V30 2648 H 239.646 -0.916501 -3.77123 0
M  V30 2649 H 237.747 1.52135 -3.40126 0
M  V30 2650 H 237.86 0.242309 -4.78487 0
M  V30 2651 H 236.224 0.225363 -2.53701 0
M  V30 2652 H 237.007 -1.32232 -3.16812 0
M  V30 2653 N 239.452 1.56882 -0.150215 0
M  V30 2654 C 240.415 2.1573 0.774157 0
M  V30 2655 C 241.415 1.0999 1.17298 0
M  V30 2656 O 242.605 1.35613 1.09338 0
M  V30 2657 C 239.737 2.72302 2.05096 0
M  V30 2658 H 240.93 2.98752 0.262201 0
M  V30 2659 H 238.483 1.55985 0.099248 0
M  V30 2660 H 239.218 1.92956 2.6065 0
M  V30 2661 H 239.003 3.49665 1.77416 0
M  V30 2662 H 240.493 3.17632 2.71109 0
M  V30 2663 N 240.93 -0.123565 1.57115 0
M  V30 2664 C 242.207 -0.862196 1.75572 0
M  V30 2665 C 242.587 -1.98279 0.724475 0
M  V30 2666 O 241.935 -2.27102 -0.252407 0
M  V30 2667 C 242.145 -1.38309 3.20424 0
M  V30 2668 C 243.493 -1.83724 3.82793 0
M  V30 2669 O 244.517 -1.47999 3.23998 0
M  V30 2670 O 243.376 -2.49685 4.86127 0
M  V30 2671 H 240.47 -0.409113 0.718718 0
M  V30 2672 H 243.016 -0.107661 1.69358 0
M  V30 2673 H 241.788 -0.578889 3.86994 0
M  V30 2674 H 241.411 -2.20046 3.31158 0
M  V30 2675 N 242.408 -1.52605 -0.393616 0
M  V30 2676 C 243.338 -1.80022 -1.48709 0
M  V30 2677 C 244.319 -0.651995 -1.57108 0
M  V30 2678 O 245.504 -0.89913 -1.72132 0
M  V30 2679 C 242.634 -1.96492 -2.86371 0
M  V30 2680 C 241.588 -3.12161 -2.92813 0
M  V30 2681 C 240.914 -3.13877 -4.3288 0
M  V30 2682 C 242.214 -4.51322 -2.6288 0
M  V30 2683 H 243.908 -2.71589 -1.26015 0
M  V30 2684 H 241.454 -1.30684 -0.604778 0
M  V30 2685 H 243.407 -2.14255 -3.62867 0
M  V30 2686 H 242.131 -1.01611 -3.10391 0
M  V30 2687 H 240.79 -2.94173 -2.18764 0
M  V30 2688 H 240.438 -2.16687 -4.53933 0
M  V30 2689 H 240.138 -3.91576 -4.38112 0
M  V30 2690 H 241.662 -3.33789 -5.1129 0
M  V30 2691 H 243.076 -4.69435 -3.29096 0
M  V30 2692 H 241.473 -5.31053 -2.79468 0
M  V30 2693 H 242.543 -4.58353 -1.58242 0
M  V30 2694 N 243.887 0.651787 -1.4349 0
M  V30 2695 C 244.797 1.79368 -1.5121 0
M  V30 2696 C 245.813 1.69361 -0.399093 0
M  V30 2697 O 246.989 1.90505 -0.653431 0
M  V30 2698 C 244.054 3.15653 -1.43401 0
M  V30 2699 C 243.115 3.37446 -2.65384 0
M  V30 2700 C 242.348 4.67229 -2.57939 0
M  V30 2701 O 242.571 5.46676 -1.62792 0
M  V30 2702 O 241.505 4.90773 -3.48462 0
M  V30 2703 H 245.331 1.7581 -2.47638 0
M  V30 2704 H 242.916 0.810447 -1.25507 0
M  V30 2705 H 244.798 3.96935 -1.41494 0
M  V30 2706 H 243.473 3.19798 -0.501085 0
M  V30 2707 H 242.38 2.55923 -2.72863 0
M  V30 2708 H 243.713 3.38148 -3.57654 0
M  V30 2709 N 245.365 1.30045 0.890287 0
M  V30 2710 C 246.312 1.15976 1.99545 0
M  V30 2711 C 247.282 0.0506202 1.66023 0
M  V30 2712 O 248.467 0.219847 1.89529 0
M  V30 2713 C 245.607 0.852054 3.34416 0
M  V30 2714 C 244.72 2.04255 3.80662 0
M  V30 2715 C 243.855 1.6734 5.04154 0
M  V30 2716 C 242.894 2.82916 5.42794 0
M  V30 2717 N 242.031 2.46333 6.57468 0
M  V30 2718 H 246.871 2.10524 2.10911 0
M  V30 2719 H 244.408 1.04749 1.03276 0
M  V30 2720 H 246.366 0.654296 4.12037 0
M  V30 2721 H 244.996 -0.0565502 3.2275 0
M  V30 2722 H 244.048 2.35172 2.98995 0
M  V30 2723 H 245.36 2.90826 4.05242 0
M  V30 2724 H 244.514 1.43908 5.89386 0
M  V30 2725 H 243.253 0.779308 4.81433 0
M  V30 2726 H 242.258 3.0702 4.56091 0
M  V30 2727 H 243.483 3.73004 5.6749 0
M  V30 2728 H 241.429 1.59423 6.36334 0
M  V30 2729 H 241.346 3.26436 6.81891 0
M  V30 2730 H 242.614 2.26244 7.45945 0
M  V30 2731 N 246.843 -1.10192 1.12674 0
M  V30 2732 C 247.776 -2.15847 0.740625 0
M  V30 2733 C 248.754 -1.60352 -0.269421 0
M  V30 2734 O 249.938 -1.87796 -0.16278 0
M  V30 2735 C 247.065 -3.38562 0.096641 0
M  V30 2736 C 246.111 -4.12758 1.07391 0
M  V30 2737 S 246.944 -4.67997 2.60267 0
M  V30 2738 C 248.1 -5.94021 1.97206 0
M  V30 2739 H 248.333 -2.48266 1.63558 0
M  V30 2740 H 245.866 -1.22019 0.946087 0
M  V30 2741 H 247.824 -4.09621 -0.268535 0
M  V30 2742 H 246.485 -3.04377 -0.775462 0
M  V30 2743 H 245.678 -5.00755 0.570997 0
M  V30 2744 H 245.28 -3.47523 1.38216 0
M  V30 2745 H 247.572 -6.64589 1.31634 0
M  V30 2746 H 248.515 -6.48979 2.83253 0
M  V30 2747 H 248.923 -5.46169 1.42686 0
M  V30 2748 N 248.321 -0.919034 -1.28029 0
M  V30 2749 C 249.284 -0.416182 -2.2539 0
M  V30 2750 C 250.284 0.460438 -1.54067 0
M  V30 2751 O 251.474 0.262744 -1.72207 0
M  V30 2752 C 248.606 0.402707 -3.38513 0
M  V30 2753 H 249.799 -1.27629 -2.71387 0
M  V30 2754 H 247.352 -0.698919 -1.39803 0
M  V30 2755 H 248.087 1.282 -2.97885 0
M  V30 2756 H 247.872 -0.225698 -3.9145 0
M  V30 2757 H 249.362 0.745191 -4.10897 0
M  V30 2758 N 249.799 1.42003 -0.683588 0
M  V30 2759 C 250.729 2.33487 -0.024866 0
M  V30 2760 C 251.71 1.51163 0.779975 0
M  V30 2761 O 252.895 1.79739 0.735362 0
M  V30 2762 C 250.025 3.3487 0.920836 0
M  V30 2763 C 248.979 4.27414 0.223958 0
M  V30 2764 C 248.305 5.19074 1.2832 0
M  V30 2765 C 249.605 5.14445 -0.90242 0
M  V30 2766 H 251.299 2.88819 -0.788921 0
M  V30 2767 H 248.845 1.38873 -0.38083 0
M  V30 2768 H 250.798 3.97787 1.39081 0
M  V30 2769 H 249.522 2.77861 1.71642 0
M  V30 2770 H 248.181 3.65904 -0.225864 0
M  V30 2771 H 247.829 4.58387 2.071 0
M  V30 2772 H 247.529 5.81822 0.821995 0
M  V30 2773 H 249.053 5.84867 1.75392 0
M  V30 2774 H 250.467 5.70998 -0.513272 0
M  V30 2775 H 248.864 5.86072 -1.28997 0
M  V30 2776 H 249.934 4.52322 -1.74737 0
M  V30 2777 N 251.277 0.427512 1.51691 0
M  V30 2778 C 252.688 -0.0378867 1.86662 0
M  V30 2779 C 253.039 -1.42819 1.34525 0
M  V30 2780 O 252.164 -2.05037 0.692014 0
M  V30 2781 C 252.759 -0.0755266 3.38716 0
M  V30 2782 C 251.318 -0.485309 3.73258 0
M  V30 2783 C 250.465 0.328399 2.75349 0
M  V30 2784 H 253.416 0.64379 1.45055 0
M  V30 2785 H 253.437 -0.887056 3.70016 0
M  V30 2786 H 252.949 0.936487 3.76632 0
M  V30 2787 H 251.05 -1.50329 3.40928 0
M  V30 2788 H 251.163 -0.21693 4.78609 0
M  V30 2789 H 249.527 -0.211905 2.53817 0
M  V30 2790 H 250.31 1.3391 3.16106 0
M  V30 2791 N 252.755 -1.56801 0.158532 0
M  V30 2792 C 254.166 -1.83189 -0.360366 0
M  V30 2793 C 254.517 -1.07778 -1.63946 0
M  V30 2794 O 253.642 -0.326718 -2.13919 0
M  V30 2795 C 254.237 -3.32297 -0.660595 0
M  V30 2796 C 252.796 -3.59227 -1.12398 0
M  V30 2797 C 251.943 -2.76877 -0.153097 0
M  V30 2798 H 254.894 -1.54008 0.383031 0
M  V30 2799 H 254.915 -3.4908 -1.51405 0
M  V30 2800 H 254.427 -3.87156 0.270527 0
M  V30 2801 H 252.528 -3.09766 -2.07064 0
M  V30 2802 H 252.641 -4.67632 -1.04197 0
M  V30 2803 H 251.005 -2.46319 -0.647983 0
M  V30 2804 H 251.788 -3.34511 0.77182 0
M  V30 2805 N 254.233 0.115231 -1.57178 0
M  V30 2806 C 255.473 0.828199 -1.8687 0
M  V30 2807 C 255.837 1.76873 -0.747002 0
M  V30 2808 O 257.038 2.52354 -0.925785 0
M  V30 2809 C 255.309 1.55515 -3.21792 0
M  V30 2810 S 256.868 2.30917 -3.73125 0
M  V30 2811 H 253.686 0.27634 -0.655101 0
M  V30 2812 H 256.288 0.0863469 -1.95309 0
M  V30 2813 H 254.992 0.856248 -4.01368 0
M  V30 2814 H 254.523 2.3373 -3.16439 0
M  V30 2815 H 256.538 3.56705 -3.44929 0
M  V30 2816 N 255.711 1.52812 0.385517 0
M  V30 2817 C 256.661 1.74219 1.47078 0
M  V30 2818 C 257.645 0.59632 1.49442 0
M  V30 2819 O 258.837 0.85428 1.5502 0
M  V30 2820 C 255.966 1.9176 2.84751 0
M  V30 2821 C 255.052 3.12289 2.86943 0
M  V30 2822 N 255.443 4.34575 2.58802 0
M  V30 2823 C 253.741 3.12605 3.1811 0
M  V30 2824 C 254.442 5.162 2.68166 0
M  V30 2825 N 253.418 4.51964 3.02043 0
M  V30 2826 H 257.22 2.6639 1.24152 0
M  V30 2827 H 254.734 1.51166 0.593504 0
M  V30 2828 H 256.731 2.05218 3.62893 0
M  V30 2829 H 255.391 1.00805 3.08656 0
M  V30 2830 H 256.402 4.62649 2.32759 0
M  V30 2831 H 253.079 2.31472 3.47458 0
M  V30 2832 H 254.469 6.23689 2.49923 0
M  V30 2833 N 257.189 -0.644168 1.43834 0
M  V30 2834 C 258.122 -1.76906 1.44151 0
M  V30 2835 C 259.1 -1.59774 0.301857 0
M  V30 2836 O 260.284 -1.81834 0.496841 0
M  V30 2837 C 257.411 -3.14321 1.26174 0
M  V30 2838 C 256.457 -3.50134 2.43533 0
M  V30 2839 S 257.29 -3.49085 4.06079 0
M  V30 2840 C 258.446 -4.89142 3.90501 0
M  V30 2841 H 258.679 -1.76368 2.39336 0
M  V30 2842 H 256.212 -0.817624 1.30974 0
M  V30 2843 H 258.17 -3.93625 1.16489 0
M  V30 2844 H 256.831 -3.12412 0.325224 0
M  V30 2845 H 256.024 -4.50095 2.26783 0
M  V30 2846 H 255.626 -2.78264 2.4989 0
M  V30 2847 H 257.918 -5.78036 3.53385 0
M  V30 2848 H 258.861 -5.10945 4.90246 0
M  V30 2849 H 259.269 -4.63102 3.22795 0
M  V30 2850 N 258.668 -1.30515 -0.883378 0
M  V30 2851 C 259.915 -1.1943 -1.63532 0
M  V30 2852 C 260.243 0.250627 -1.92878 0
M  V30 2853 O 259.498 1.19556 -1.54935 0
M  V30 2854 C 259.797 -1.96994 -2.98209 0
M  V30 2855 C 259.463 -3.466 -2.88408 0
M  V30 2856 C 258.125 -3.87397 -2.85442 0
M  V30 2857 C 260.477 -4.41863 -2.76418 0
M  V30 2858 C 257.805 -5.21745 -2.68327 0
M  V30 2859 C 260.157 -5.7632 -2.60841 0
M  V30 2860 C 258.821 -6.16354 -2.56251 0
M  V30 2861 H 258.091 -0.437025 -0.598406 0
M  V30 2862 H 260.738 -1.61635 -1.02696 0
M  V30 2863 H 259.043 -1.47429 -3.63004 0
M  V30 2864 H 260.74 -1.85808 -3.55354 0
M  V30 2865 H 257.33 -3.14182 -2.91527 0
M  V30 2866 H 261.514 -4.11285 -2.77775 0
M  V30 2867 H 256.77 -5.51853 -2.63189 0
M  V30 2868 H 260.944 -6.49772 -2.50538 0
M  V30 2869 H 258.571 -7.20401 -2.42748 0
M  V30 2870 N 260.146 1.09593 -1.13257 0
M  V30 2871 C 261.386 1.83349 -0.903472 0
M  V30 2872 C 261.75 1.83641 0.560351 0
M  V30 2873 O 262.951 2.53037 0.906947 0
M  V30 2874 C 261.222 3.25629 -1.47311 0
M  V30 2875 S 262.781 4.16408 -1.38382 0
M  V30 2876 H 259.599 0.632014 -0.325699 0
M  V30 2877 H 262.201 1.31817 -1.44376 0
M  V30 2878 H 260.905 3.22991 -2.53189 0
M  V30 2879 H 260.436 3.82233 -0.930689 0
M  V30 2880 H 262.451 4.94884 -0.361113 0
M  V30 2881 N 261.624 0.925811 1.2754 0
M  V30 2882 C 262.556 0.380753 2.26015 0
M  V30 2883 C 263.569 -0.487485 1.5533 0
M  V30 2884 O 264.758 -0.300413 1.75954 0
M  V30 2885 C 261.858 -0.473259 3.35579 0
M  V30 2886 C 261.031 0.375249 4.35787 0
M  V30 2887 C 260.09 -0.415809 5.24555 0
M  V30 2888 O 259.116 0.175834 5.68928 0
M  V30 2889 N 260.318 -1.71607 5.54555 0
M  V30 2890 H 263.083 1.22725 2.73421 0
M  V30 2891 H 260.644 0.793037 1.41147 0
M  V30 2892 H 262.636 -1.00949 3.91907 0
M  V30 2893 H 261.206 -1.2205 2.87789 0
M  V30 2894 H 260.426 1.09279 3.7875 0
M  V30 2895 H 261.714 0.955399 4.99749 0
M  V30 2896 H 261.112 -2.2191 5.20358 0
M  V30 2897 H 259.669 -2.19887 6.1359 0
M  V30 2898 N 263.102 -1.41638 0.69111 0
M  V30 2899 C 264.349 -2.01299 0.220193 0
M  V30 2900 C 264.677 -1.54715 -1.17871 0
M  V30 2901 O 263.932 -0.747193 -1.80874 0
M  V30 2902 C 264.231 -3.56714 0.221277 0
M  V30 2903 C 263.897 -4.22792 1.56709 0
M  V30 2904 C 262.559 -4.40557 1.93554 0
M  V30 2905 C 264.911 -4.59883 2.45268 0
M  V30 2906 C 262.239 -4.92688 3.18552 0
M  V30 2907 C 264.591 -5.13403 3.69595 0
M  V30 2908 C 263.255 -5.29379 4.06589 0
M  V30 2909 H 262.525 -0.736606 0.0805743 0
M  V30 2910 H 265.172 -1.69598 0.889319 0
M  V30 2911 H 263.477 -3.8818 -0.531391 0
M  V30 2912 H 265.174 -4.00678 -0.160547 0
M  V30 2913 H 261.764 -4.09336 1.2705 0
M  V30 2914 H 265.948 -4.45817 2.18084 0
M  V30 2915 H 261.204 -5.03242 3.47214 0
M  V30 2916 H 265.378 -5.41084 4.38407 0
M  V30 2917 H 263.005 -5.69537 5.03519 0
M  V30 2918 N 264.58 -0.43555 -1.51462 0
M  V30 2919 C 265.81 0.130053 -2.0619 0
M  V30 2920 C 266.218 1.37164 -1.30317 0
M  V30 2921 O 265.561 1.80225 -0.355598 0
M  V30 2922 C 265.623 0.519418 -3.55728 0
M  V30 2923 C 265.287 -0.615119 -4.52841 0
M  V30 2924 C 266.284 -1.48671 -4.9819 0
M  V30 2925 C 263.969 -0.795341 -4.95963 0
M  V30 2926 C 265.963 -2.52324 -5.8533 0
M  V30 2927 C 263.65 -1.83514 -5.82894 0
M  V30 2928 C 264.648 -2.69748 -6.27475 0
M  V30 2929 O 264.336 -3.71944 -7.1268 0
M  V30 2930 H 264.068 0.0121612 -0.675891 0
M  V30 2931 H 266.622 -0.6129 -1.96043 0
M  V30 2932 H 264.852 1.31505 -3.63653 0
M  V30 2933 H 266.541 1.01597 -3.92979 0
M  V30 2934 H 267.307 -1.359 -4.65571 0
M  V30 2935 H 263.186 -0.133713 -4.60806 0
M  V30 2936 H 266.73 -3.19665 -6.20048 0
M  V30 2937 H 262.627 -1.96306 -6.14926 0
M  V30 2938 H 263.395 -3.68503 -7.30854 0
M  V30 2939 N 266.058 1.56714 -0.166846 0
M  V30 2940 C 267.304 1.97039 0.479962 0
M  V30 2941 C 267.637 1.05264 1.63197 0
M  V30 2942 O 266.912 0.0988833 1.94248 0
M  V30 2943 C 267.195 3.46867 0.967212 0
M  V30 2944 C 267.048 4.49421 -0.18466 0
M  V30 2945 C 268.367 3.9968 1.84238 0
M  V30 2946 H 265.486 0.71641 0.172992 0
M  V30 2947 H 268.128 1.8832 -0.252079 0
M  V30 2948 H 266.278 3.54428 1.59101 0
M  V30 2949 H 267.95 4.53924 -0.821621 0
M  V30 2950 H 266.193 4.25573 -0.840837 0
M  V30 2951 H 266.864 5.51644 0.198317 0
M  V30 2952 H 269.34 3.94723 1.31655 0
M  V30 2953 H 268.216 5.04941 2.15234 0
M  V30 2954 H 268.477 3.43226 2.78654 0
M  V30 2955 N 267.536 -0.106894 1.57237 0
M  V30 2956 C 268.486 -1.1366 1.9765 0
M  V30 2957 C 269.47 -1.36416 0.853203 0
M  V30 2958 O 270.662 -1.37305 1.11697 0
M  V30 2959 C 267.791 -2.46 2.39455 0
M  V30 2960 C 266.877 -2.26668 3.58445 0
M  V30 2961 N 267.268 -1.77176 4.73754 0
M  V30 2962 C 265.566 -2.57279 3.64312 0
M  V30 2963 C 266.267 -1.71836 5.5574 0
M  V30 2964 N 265.243 -2.16623 4.98573 0
M  V30 2965 H 269.045 -0.74669 2.84256 0
M  V30 2966 H 266.559 -0.314483 1.59326 0
M  V30 2967 H 268.556 -3.2049 2.6663 0
M  V30 2968 H 267.216 -2.85738 1.54219 0
M  V30 2969 H 268.227 -1.46545 4.96734 0
M  V30 2970 H 264.904 -3.00622 2.89711 0
M  V30 2971 H 266.294 -1.34723 6.58255 0
M  V30 2972 N 269.014 -1.53014 -0.377408 0
M  V30 2973 C 270.263 -1.67845 -1.11853 0
M  V30 2974 C 270.576 -0.430625 -1.90801 0
M  V30 2975 O 271.782 -0.459261 -2.67587 0
M  V30 2976 C 270.238 -2.96668 -2.03756 0
M  V30 2977 C 269.846 -4.28671 -1.30175 0
M  V30 2978 C 271.59 -3.20865 -2.77932 0
M  V30 2979 C 269.497 -5.48591 -2.20911 0
M  V30 2980 H 268.427 -0.625343 -0.421263 0
M  V30 2981 H 271.078 -1.79514 -0.380409 0
M  V30 2982 H 269.46 -2.78773 -2.8125 0
M  V30 2983 H 270.634 -4.57157 -0.578259 0
M  V30 2984 H 268.949 -4.10825 -0.679108 0
M  V30 2985 H 271.546 -4.07642 -3.46024 0
M  V30 2986 H 271.889 -2.36424 -3.4265 0
M  V30 2987 H 272.422 -3.39379 -2.07525 0
M  V30 2988 H 269.161 -6.35474 -1.6079 0
M  V30 2989 H 268.681 -5.244 -2.91144 0
M  V30 2990 H 270.36 -5.8292 -2.80736 0
M  V30 2991 N 270.492 0.636531 -1.44174 0
M  V30 2992 C 271.903 1.21806 -1.41493 0
M  V30 2993 C 272.254 1.95785 -0.1275 0
M  V30 2994 O 271.379 2.02147 0.772376 0
M  V30 2995 C 271.974 2.21551 -2.56321 0
M  V30 2996 C 270.533 2.75143 -2.56853 0
M  V30 2997 C 269.68 1.50052 -2.33195 0
M  V30 2998 H 272.631 0.427531 -1.52833 0
M  V30 2999 H 272.652 3.0405 -2.28765 0
M  V30 3000 H 272.164 1.67679 -3.50008 0
M  V30 3001 H 270.265 3.33033 -1.67093 0
M  V30 3002 H 270.378 3.2155 -3.55165 0
M  V30 3003 H 268.742 1.77993 -1.82183 0
M  V30 3004 H 269.525 0.980903 -3.28988 0
M  V30 3005 N 271.97 1.30982 0.876444 0
M  V30 3006 C 273.195 1.23373 1.66715 0
M  V30 3007 C 273.62 -0.19885 1.87046 0
M  V30 3008 O 272.978 -1.1427 1.40756 0
M  V30 3009 C 273.026 1.97644 3.01611 0
M  V30 3010 O 272.13 1.30935 3.91062 0
M  V30 3011 H 271.471 0.426279 0.509099 0
M  V30 3012 H 274.001 1.72944 1.09323 0
M  V30 3013 H 274.011 2.06992 3.51594 0
M  V30 3014 H 272.686 3.01829 2.86133 0
M  V30 3015 H 271.263 1.29996 3.49507 0
M  V30 3016 N 273.449 -1.08991 1.13837 0
M  V30 3017 C 274.397 -2.17841 0.815347 0
M  V30 3018 C 275.391 -1.68164 -0.204233 0
M  V30 3019 O 276.597 -1.79897 -0.0609304 0
M  V30 3020 H 272.972 -0.710654 0.245915 0
M  V30 3021 H 274.943 -2.42315 1.74143 0
M  V30 3022 C 273.692 -3.46381 0.302614 0
M  V30 3023 H 273.015 -3.84979 1.0785 0
M  V30 3024 H 274.455 -4.23844 0.115074 0
M  V30 3025 C 272.914 -3.22556 -0.972591 0
M  V30 3026 O 273.444 -3.45599 -2.04754 0
M  V30 3027 N 271.65 -2.76134 -0.905455 0
M  V30 3028 H 271.197 -2.57582 -0.0305421 0
M  V30 3029 H 271.155 -2.60571 -1.75926 0
M  V30 3030 N 274.927 -0.932562 -1.27047 0
M  V30 3031 C 275.875 -0.42603 -2.28665 0
M  V30 3032 C 276.869 0.49219 -1.62092 0
M  V30 3033 O 278.075 0.371355 -1.76128 0
M  V30 3034 H 274.45 -0.119213 -0.742491 0
M  V30 3035 H 276.421 -1.29579 -2.68797 0
M  V30 3036 C 275.17 0.301426 -3.46391 0
M  V30 3037 H 274.493 -0.39595 -3.97834 0
M  V30 3038 H 275.933 0.6202 -4.1944 0
M  V30 3039 C 274.392 1.51616 -3.00856 0
M  V30 3040 O 274.922 2.61476 -3.04948 0
M  V30 3041 N 273.128 1.36969 -2.56296 0
M  V30 3042 H 272.675 0.475873 -2.53166 0
M  V30 3043 H 272.633 2.18368 -2.26192 0
M  V30 3044 N 276.405 1.4127 -0.698611 0
M  V30 3045 C 277.355 2.27997 -0.0119836 0
M  V30 3046 C 278.339 1.42363 0.749765 0
M  V30 3047 O 279.531 1.65607 0.624758 0
M  V30 3048 C 276.66 3.30702 0.921458 0
M  V30 3049 C 275.746 4.23814 0.155796 0
M  V30 3050 N 276.137 4.98572 -0.852015 0
M  V30 3051 C 274.435 4.44284 0.390836 0
M  V30 3052 C 275.136 5.66744 -1.3106 0
M  V30 3053 N 274.112 5.39867 -0.635944 0
M  V30 3054 H 277.914 2.83232 -0.784649 0
M  V30 3055 H 275.428 1.53518 -0.529711 0
M  V30 3056 H 277.425 3.91661 1.42854 0
M  V30 3057 H 276.085 2.77028 1.69369 0
M  V30 3058 H 277.096 5.03024 -1.23235 0
M  V30 3059 H 273.773 4.01614 1.14071 0
M  V30 3060 H 275.163 6.36672 -2.14707 0
M  V30 3061 N 277.883 0.443576 1.51229 0
M  V30 3062 C 279.299 0.0962001 1.5931 0
M  V30 3063 C 279.499 -1.39501 1.45402 0
M  V30 3064 O 278.555 -2.16557 1.29843 0
M  V30 3065 C 279.868 0.621875 2.94199 0
M  V30 3066 C 281.416 0.582865 3.07525 0
M  V30 3067 C 281.891 1.08562 4.44948 0
M  V30 3068 N 283.382 1.04387 4.51284 0
M  V30 3069 C 284.117 1.40368 5.55954 0
M  V30 3070 N 283.613 1.83664 6.68011 0
M  V30 3071 N 285.406 1.32145 5.46346 0
M  V30 3072 H 277.557 1.41376 1.58514 0
M  V30 3073 H 279.82 0.582965 0.747567 0
M  V30 3074 H 279.526 1.66546 3.09767 0
M  V30 3075 H 279.4 0.0502125 3.77167 0
M  V30 3076 H 281.787 -0.451749 2.91622 0
M  V30 3077 H 281.868 1.191 2.26382 0
M  V30 3078 H 281.512 2.11873 4.61598 0
M  V30 3079 H 281.442 0.453956 5.2464 0
M  V30 3080 H 283.933 0.725986 3.70861 0
M  V30 3081 H 284.246 2.0934 7.43906 0
M  V30 3082 H 282.591 1.87596 6.69203 0
M  V30 3083 H 285.782 0.981808 4.57688 0
M  V30 3084 H 285.955 1.60514 6.27805 0
M  V30 3085 N 279.361 -1.56624 0.175154 0
M  V30 3086 C 280.772 -1.83561 -0.340916 0
M  V30 3087 C 281.123 -1.09511 -1.62794 0
M  V30 3088 O 280.248 -0.349389 -2.13561 0
M  V30 3089 C 280.843 -3.32979 -0.625313 0
M  V30 3090 C 279.402 -3.60399 -1.08581 0
M  V30 3091 C 278.549 -2.77024 -0.123722 0
M  V30 3092 H 281.5 -1.53593 0.399344 0
M  V30 3093 H 281.521 -3.50666 -1.47694 0
M  V30 3094 H 281.033 -3.86847 0.311575 0
M  V30 3095 H 279.134 -3.11945 -2.03767 0
M  V30 3096 H 279.247 -4.68711 -0.992317 0
M  V30 3097 H 277.611 -2.46993 -0.621821 0
M  V30 3098 H 278.394 -3.33674 0.807256 0
M  V30 3099 N 280.839 0.0985539 -1.57292 0
M  V30 3100 C 281.749 1.13824 -2.05137 0
M  V30 3101 C 282.765 1.44076 -0.975604 0
M  V30 3102 O 283.941 1.54786 -1.28853 0
M  V30 3103 C 281.006 2.43969 -2.46333 0
M  V30 3104 C 280.067 2.2093 -3.68087 0
M  V30 3105 C 279.3 3.44869 -4.0731 0
M  V30 3106 O 279.523 4.52972 -3.46659 0
M  V30 3107 O 278.457 3.34661 -5.00285 0
M  V30 3108 H 282.283 0.761881 -2.93988 0
M  V30 3109 H 279.868 0.310818 -1.46131 0
M  V30 3110 H 281.75 3.20609 -2.73473 0
M  V30 3111 H 280.425 2.81038 -1.60621 0
M  V30 3112 H 279.332 1.42081 -3.46069 0
M  V30 3113 H 280.665 1.88755 -4.54568 0
M  V30 3114 N 282.317 1.53212 0.369288 0
M  V30 3115 C 283.247 1.82365 1.45826 0
M  V30 3116 C 284.228 0.676907 1.56051 0
M  V30 3117 O 285.413 0.926401 1.70679 0
M  V30 3118 C 282.543 2.01023 2.83208 0
M  V30 3119 C 281.497 3.1678 2.8781 0
M  V30 3120 C 280.823 3.20724 4.27832 0
M  V30 3121 C 282.123 4.55447 2.55667 0
M  V30 3122 H 283.817 2.73559 1.21678 0
M  V30 3123 H 281.363 1.3163 0.583911 0
M  V30 3124 H 283.316 2.20001 3.59413 0
M  V30 3125 H 282.04 1.06536 3.08736 0
M  V30 3126 H 280.699 2.97616 2.14056 0
M  V30 3127 H 280.347 2.23882 4.50429 0
M  V30 3128 H 280.047 3.98496 4.31827 0
M  V30 3129 H 281.571 3.41881 5.05915 0
M  V30 3130 H 282.985 4.74611 3.21586 0
M  V30 3131 H 281.382 5.35432 2.70984 0
M  V30 3132 H 282.452 4.60812 1.5093 0
M  V30 3133 N 283.795 -0.628877 1.44509 0
M  V30 3134 C 285.02 -1.42048 1.5112 0
M  V30 3135 C 285.445 -1.87594 0.137818 0
M  V30 3136 O 284.803 -1.58873 -0.873437 0
M  V30 3137 C 284.851 -2.61541 2.48251 0
M  V30 3138 O 283.955 -3.61453 1.98559 0
M  V30 3139 H 283.296 -0.424942 0.510216 0
M  V30 3140 H 285.826 -0.767374 1.89664 0
M  V30 3141 H 285.836 -3.09057 2.66361 0
M  V30 3142 H 284.511 -2.27736 3.48007 0
M  V30 3143 H 283.088 -3.20731 1.90227 0
M  V30 3144 N 285.273 -1.31445 -0.869486 0
M  V30 3145 C 286.513 -1.22458 -1.63656 0
M  V30 3146 C 286.877 0.213846 -1.90805 0
M  V30 3147 O 288.078 0.427212 -2.65383 0
M  V30 3148 C 286.349 -2.04564 -2.93067 0
M  V30 3149 S 287.908 -2.12445 -3.83944 0
M  V30 3150 H 284.726 -0.436145 -0.561514 0
M  V30 3151 H 287.328 -1.66114 -1.03085 0
M  V30 3152 H 286.032 -3.0816 -2.71045 0
M  V30 3153 H 285.563 -1.6163 -3.58663 0
M  V30 3154 H 287.578 -1.26312 -4.79854 0
M  V30 3155 N 286.751 1.08385 -1.14413 0
M  V30 3156 C 287.683 2.1519 -0.789036 0
M  V30 3157 C 288.696 1.61638 0.19417 0
M  V30 3158 O 289.885 1.78479 -0.0275711 0
M  V30 3159 C 286.985 3.38565 -0.15058 0
M  V30 3160 C 286.158 4.21501 -1.16857 0
M  V30 3161 C 285.217 5.23277 -0.553832 0
M  V30 3162 O 284.243 5.56041 -1.21686 0
M  V30 3163 N 285.445 5.76629 0.669296 0
M  V30 3164 H 288.21 2.46257 -1.70814 0
M  V30 3165 H 285.771 1.24198 -1.03858 0
M  V30 3166 H 287.763 4.03777 0.273181 0
M  V30 3167 H 286.333 3.05299 0.671667 0
M  V30 3168 H 285.553 3.52265 -1.76926 0
M  V30 3169 H 286.841 4.73731 -1.85624 0
M  V30 3170 H 286.239 5.52243 1.22654 0
M  V30 3171 H 284.796 6.43521 1.03556 0
M  V30 3172 N 288.23 0.939286 1.26551 0
M  V30 3173 C 289.16 0.465044 2.28822 0
M  V30 3174 C 290.141 -0.480692 1.63167 0
M  V30 3175 O 291.326 -0.382955 1.90387 0
M  V30 3176 C 288.456 -0.27234 3.46231 0
M  V30 3177 C 287.41 0.58666 4.2396 0
M  V30 3178 C 286.736 -0.280573 5.33963 0
M  V30 3179 C 288.036 1.85704 4.88171 0
M  V30 3180 H 289.73 1.31979 2.68741 0
M  V30 3181 H 287.276 0.636061 1.29191 0
M  V30 3182 H 289.229 -0.615133 4.16886 0
M  V30 3183 H 287.953 -1.16121 3.0526 0
M  V30 3184 H 286.612 0.91232 3.55067 0
M  V30 3185 H 286.26 -1.16874 4.89234 0
M  V30 3186 H 285.96 0.29076 5.8688 0
M  V30 3187 H 287.484 -0.618678 6.07458 0
M  V30 3188 H 288.898 1.58161 5.51052 0
M  V30 3189 H 287.295 2.37279 5.51197 0
M  V30 3190 H 288.365 2.56957 4.11219 0
M  V30 3191 N 289.708 -1.40897 0.706093 0
M  V30 3192 C 290.938 -2.05075 0.250523 0
M  V30 3193 C 291.346 -1.53275 -1.10921 0
M  V30 3194 O 290.689 -0.680281 -1.7064 0
M  V30 3195 C 290.751 -3.59219 0.142178 0
M  V30 3196 C 290.415 -4.33864 1.43566 0
M  V30 3197 C 291.412 -4.62448 2.37566 0
M  V30 3198 C 289.097 -4.72946 1.69195 0
M  V30 3199 C 291.091 -5.29088 3.5545 0
M  V30 3200 C 288.778 -5.3932 2.87362 0
M  V30 3201 C 289.776 -5.6732 3.80312 0
M  V30 3202 O 289.464 -6.32325 4.96408 0
M  V30 3203 H 289.196 -0.666645 0.112074 0
M  V30 3204 H 291.75 -1.81467 0.962239 0
M  V30 3205 H 289.98 -3.81609 -0.6254 0
M  V30 3206 H 291.669 -4.0495 -0.277584 0
M  V30 3207 H 292.435 -4.32727 2.19027 0
M  V30 3208 H 288.314 -4.50527 0.977042 0
M  V30 3209 H 291.858 -5.50859 4.28018 0
M  V30 3210 H 287.755 -5.68461 3.05814 0
M  V30 3211 H 288.523 -6.50821 4.9636 0
M  V30 3212 N 291.186 -0.45159 -1.50991 0
M  V30 3213 C 292.118 0.388634 -2.25881 0
M  V30 3214 C 293.131 0.974041 -1.30446 0
M  V30 3215 O 294.32 0.865758 -1.56099 0
M  V30 3216 C 291.42 1.5571 -3.01011 0
M  V30 3217 C 290.593 1.08801 -4.23652 0
M  V30 3218 C 289.652 2.12825 -4.8124 0
M  V30 3219 O 288.678 1.71678 -5.42693 0
M  V30 3220 N 289.88 3.45453 -4.66522 0
M  V30 3221 H 292.645 -0.25329 -2.98628 0
M  V30 3222 H 290.206 -0.281268 -1.59438 0
M  V30 3223 H 292.198 2.24952 -3.3642 0
M  V30 3224 H 290.768 2.10409 -2.31186 0
M  V30 3225 H 289.988 0.22215 -3.93574 0
M  V30 3226 H 291.276 0.752213 -5.03209 0
M  V30 3227 H 290.674 3.81605 -4.17605 0
M  V30 3228 H 289.231 4.10549 -5.06254 0
M  V30 3229 N 292.664 1.56529 -0.183458 0
M  V30 3230 C 294.08 1.58664 0.172554 0
M  V30 3231 C 294.28 1.19925 1.61926 0
M  V30 3232 O 293.336 0.916534 2.35278 0
M  V30 3233 C 294.649 3.00463 -0.119262 0
M  V30 3234 C 296.197 3.12945 -0.0584396 0
M  V30 3235 C 296.672 4.56857 -0.323408 0
M  V30 3236 N 298.163 4.62403 -0.271612 0
M  V30 3237 C 298.898 5.71626 -0.450639 0
M  V30 3238 N 298.394 6.89362 -0.689384 0
M  V30 3239 N 300.187 5.60775 -0.385701 0
M  V30 3240 H 292.338 1.79994 -1.12765 0
M  V30 3241 H 294.601 0.834808 -0.449222 0
M  V30 3242 H 294.307 3.33326 -1.12192 0
M  V30 3243 H 294.181 3.72659 0.583544 0
M  V30 3244 H 296.568 2.79902 0.934805 0
M  V30 3245 H 296.649 2.4316 -0.794144 0
M  V30 3246 H 296.293 4.9061 -1.31392 0
M  V30 3247 H 296.223 5.24816 0.43305 0
M  V30 3248 H 298.714 3.77785 -0.0932256 0
M  V30 3249 H 299.027 7.68489 -0.815113 0
M  V30 3250 H 297.372 6.91196 -0.726142 0
M  V30 3251 H 300.563 4.67674 -0.199687 0
M  V30 3252 H 300.736 6.4584 -0.528646 0
M  V30 3253 N 294.142 -0.090211 1.57342 0
M  V30 3254 C 295.367 -0.810082 1.90925 0
M  V30 3255 C 295.792 -1.71248 0.778187 0
M  V30 3256 O 295.15 -1.79278 -0.269991 0
M  V30 3257 C 295.198 -1.59529 3.23393 0
M  V30 3258 O 294.302 -2.70461 3.11327 0
M  V30 3259 H 293.643 -0.222231 0.625707 0
M  V30 3260 H 296.173 -0.0639716 2.045 0
M  V30 3261 H 296.183 -1.97847 3.5682 0
M  V30 3262 H 294.858 -0.933055 4.05299 0
M  V30 3263 H 293.435 -2.35135 2.89423 0
M  V30 3264 N 295.62 -1.53406 -0.361157 0
M  V30 3265 C 296.86 -1.71507 -1.11197 0
M  V30 3266 C 297.224 -0.459337 -1.86425 0
M  V30 3267 O 298.425 -0.517102 -2.63779 0
M  V30 3268 C 296.696 -2.93307 -2.0422 0
M  V30 3269 S 298.255 -3.32135 -2.86761 0
M  V30 3270 H 295.073 -0.603448 -0.375995 0
M  V30 3271 H 297.675 -1.91516 -0.392642 0
M  V30 3272 H 296.379 -3.82891 -1.47724 0
M  V30 3273 H 295.91 -2.75712 -2.80618 0
M  V30 3274 H 297.925 -2.84493 -4.06544 0
M  V30 3275 N 297.098 0.621204 -1.44841 0
M  V30 3276 C 298.375 1.38 -1.38619 0
M  V30 3277 C 298.755 2.11041 -0.0498935 0
M  V30 3278 O 298.103 2.06992 0.967816 0
M  V30 3279 C 298.313 2.33817 -2.59096 0
M  V30 3280 C 299.661 2.96844 -3.03593 0
M  V30 3281 O 300.685 2.44141 -2.59371 0
M  V30 3282 O 299.544 3.92476 -3.80296 0
M  V30 3283 H 296.638 0.61811 -0.549426 0
M  V30 3284 H 299.184 0.645429 -1.56947 0
M  V30 3285 H 297.956 1.79012 -3.47952 0
M  V30 3286 H 297.579 3.14676 -2.43032 0
M  V30 3287 N 298.576 1.31904 0.862503 0
M  V30 3288 C 299.509 1.14514 1.97388 0
M  V30 3289 C 300.487 0.0466493 1.62533 0
M  V30 3290 O 301.671 0.204484 1.87388 0
M  V30 3291 C 298.798 0.751347 3.30261 0
M  V30 3292 C 297.844 1.85395 3.84098 0
M  V30 3293 S 298.677 3.46081 4.08642 0
M  V30 3294 C 299.833 3.08655 5.44502 0
M  V30 3295 H 300.066 2.08597 2.11836 0
M  V30 3296 H 297.599 1.16475 1.01356 0
M  V30 3297 H 299.557 0.530901 4.07052 0
M  V30 3298 H 298.218 -0.170493 3.13637 0
M  V30 3299 H 297.411 1.53122 4.80177 0
M  V30 3300 H 297.013 2.02984 3.14123 0
M  V30 3301 H 299.305 2.58012 6.26447 0
M  V30 3302 H 300.248 4.03726 5.81731 0
M  V30 3303 H 300.656 2.45891 5.08132 0
M  V30 3304 N 300.054 -1.07777 1.14986 0
M  V30 3305 C 301.302 -1.79934 0.920235 0
M  V30 3306 C 301.623 -1.86955 -0.554336 0
M  V30 3307 O 300.893 -1.36731 -1.40291 0
M  V30 3308 H 299.473 -0.666424 0.337473 0
M  V30 3309 H 302.135 -1.3027 1.44968 0
M  V30 3310 H 301.231 -2.82539 1.32583 0
M  V30 3311 N 301.532 -0.945985 -1.26051 0
M  V30 3312 C 302.462 -0.477172 -2.28572 0
M  V30 3313 C 303.443 0.472032 -1.63419 0
M  V30 3314 O 304.628 0.372853 -1.90587 0
M  V30 3315 C 301.758 0.253975 -3.4637 0
M  V30 3316 C 300.712 -0.609135 -4.23643 0
M  V30 3317 C 300.038 0.252252 -5.34105 0
M  V30 3318 C 301.338 -1.8829 -4.8718 0
M  V30 3319 H 303.032 -1.33402 -2.68038 0
M  V30 3320 H 300.578 -0.642904 -1.28852 0
M  V30 3321 H 302.531 0.593016 -4.17207 0
M  V30 3322 H 301.255 1.145 -3.05871 0
M  V30 3323 H 299.914 -0.931138 -3.54578 0
M  V30 3324 H 299.562 1.14278 -4.89846 0
M  V30 3325 H 299.262 -0.32188 -5.86718 0
M  V30 3326 H 300.786 0.586454 -6.07777 0
M  V30 3327 H 302.2 -1.61081 -5.50205 0
M  V30 3328 H 300.597 -2.40199 -5.49931 0
M  V30 3329 H 301.667 -2.59134 -4.09851 0
M  V30 3330 N 303.011 1.40521 -0.713556 0
M  V30 3331 C 304.259 2.00527 -0.251692 0
M  V30 3332 C 304.58 1.56857 1.15848 0
M  V30 3333 O 303.85 0.807127 1.785 0
M  V30 3334 H 302.43 0.741551 -0.0900646 0
M  V30 3335 H 305.092 1.71887 -0.918733 0
M  V30 3336 H 304.188 3.10813 -0.283192 0
M  V30 3337 N 304.489 0.459591 1.5075 0
M  V30 3338 C 305.735 -0.0994966 2.02556 0
M  V30 3339 C 306.068 -1.40399 1.3417 0
M  V30 3340 O 305.343 -1.88892 0.463683 0
M  V30 3341 C 305.626 -0.295242 3.58888 0
M  V30 3342 C 305.479 1.02947 4.37861 0
M  V30 3343 C 306.798 -1.05502 4.27267 0
M  V30 3344 H 303.917 -0.034686 0.736183 0
M  V30 3345 H 306.559 0.602938 1.8018 0
M  V30 3346 H 304.709 -0.893563 3.78084 0
M  V30 3347 H 306.381 1.66348 4.30263 0
M  V30 3348 H 304.624 1.62885 4.02058 0
M  V30 3349 H 305.295 0.846281 5.45474 0
M  V30 3350 H 307.771 -0.547993 4.12476 0
M  V30 3351 H 306.647 -1.16077 5.36486 0
M  V30 3352 H 306.908 -2.08875 3.89645 0
M  V30 3353 N 305.967 -1.56429 0.191757 0
M  V30 3354 C 307.378 -1.83912 -0.321428 0
M  V30 3355 C 307.729 -1.11231 -1.61623 0
M  V30 3356 O 306.854 -0.37202 -2.13178 0
M  V30 3357 C 307.449 -3.33624 -0.589961 0
M  V30 3358 C 306.008 -3.6153 -1.04753 0
M  V30 3359 C 305.155 -2.7714 -0.0943327 0
M  V30 3360 H 308.106 -1.53161 0.415612 0
M  V30 3361 H 308.127 -3.52213 -1.43966 0
M  V30 3362 H 307.639 -3.86495 0.352588 0
M  V30 3363 H 305.74 -3.14089 -2.00447 0
M  V30 3364 H 305.853 -4.69737 -0.942549 0
M  V30 3365 H 304.217 -2.47638 -0.595589 0
M  V30 3366 H 305 -3.32799 0.842601 0
M  V30 3367 N 307.445 0.0818655 -1.57387 0
M  V30 3368 C 308.692 0.782914 -1.86753 0
M  V30 3369 C 309.02 1.78082 -0.782118 0
M  V30 3370 O 308.275 1.94426 0.22295 0
M  V30 3371 C 308.574 1.53513 -3.22752 0
M  V30 3372 C 308.24 0.678134 -4.45771 0
M  V30 3373 C 306.902 0.441929 -4.79166 0
M  V30 3374 C 309.254 0.0832243 -5.21134 0
M  V30 3375 C 306.582 -0.398833 -5.85343 0
M  V30 3376 C 308.934 -0.744935 -6.28199 0
M  V30 3377 C 307.598 -0.991107 -6.60101 0
M  V30 3378 H 306.868 0.286489 -0.683378 0
M  V30 3379 H 309.515 0.0439808 -1.91449 0
M  V30 3380 H 307.82 2.34599 -3.138 0
M  V30 3381 H 309.517 2.08218 -3.42705 0
M  V30 3382 H 306.107 0.872357 -4.19628 0
M  V30 3383 H 310.291 0.252847 -4.95655 0
M  V30 3384 H 305.547 -0.598405 -6.08465 0
M  V30 3385 H 309.721 -1.21271 -6.8576 0
M  V30 3386 H 307.348 -1.64437 -7.42202 0
M  V30 3387 N 308.923 1.53595 0.353017 0
M  V30 3388 C 309.871 1.81605 1.45335 0
M  V30 3389 C 310.865 0.685923 1.54892 0
M  V30 3390 O 312.071 0.869095 1.57628 0
M  V30 3391 H 308.446 0.575204 0.484401 0
M  V30 3392 H 310.417 2.73679 1.18921 0
M  V30 3393 C 309.166 2.03406 2.81995 0
M  V30 3394 H 308.489 2.89814 2.75405 0
M  V30 3395 H 309.929 2.26975 3.58132 0
M  V30 3396 C 308.388 0.816794 3.26849 0
M  V30 3397 O 308.918 0.0115856 4.01698 0
M  V30 3398 N 307.124 0.636682 2.8354 0
M  V30 3399 H 306.671 1.2931 2.22793 0
M  V30 3400 H 306.629 -0.176336 3.13905 0
M  V30 3401 N 310.401 -0.613514 1.45168 0
M  V30 3402 C 311.65 -1.36874 1.4815 0
M  V30 3403 C 311.963 -1.952 0.124982 0
M  V30 3404 O 313.169 -2.71481 0.0324176 0
M  V30 3405 C 311.625 -2.47905 2.60904 0
M  V30 3406 C 311.233 -1.96016 4.02842 0
M  V30 3407 C 312.977 -3.24965 2.73126 0
M  V30 3408 C 310.884 -3.04494 5.06988 0
M  V30 3409 H 309.814 -0.514428 0.551253 0
M  V30 3410 H 312.465 -0.658182 1.7129 0
M  V30 3411 H 310.847 -3.21618 2.31037 0
M  V30 3412 H 312.021 -1.29051 4.4236 0
M  V30 3413 H 310.336 -1.31719 3.95018 0
M  V30 3414 H 312.933 -4.05865 3.48106 0
M  V30 3415 H 313.276 -3.75588 1.79553 0
M  V30 3416 H 313.809 -2.5835 3.0249 0
M  V30 3417 H 310.548 -2.58795 6.0225 0
M  V30 3418 H 310.068 -3.70044 4.72046 0
M  V30 3419 H 311.747 -3.68976 5.31475 0
M  V30 3420 N 311.879 -1.3236 -0.855495 0
M  V30 3421 C 312.842 -1.21164 -1.94556 0
M  V30 3422 C 313.842 -0.134908 -1.60233 0
M  V30 3423 O 315.032 -0.385249 -1.69887 0
M  V30 3424 C 312.164 -0.863192 -3.29791 0
M  V30 3425 H 313.357 -2.18038 -2.05911 0
M  V30 3426 H 310.91 -1.16179 -1.04557 0
M  V30 3427 H 311.645 0.103769 -3.24134 0
M  V30 3428 H 311.43 -1.64166 -3.56078 0
M  V30 3429 H 312.92 -0.809156 -4.09686 0
M  V30 3430 N 313.357 1.07166 -1.15556 0
M  V30 3431 C 314.582 1.84053 -0.955988 0
M  V30 3432 C 315.007 1.81586 0.490739 0
M  V30 3433 O 314.365 1.21018 1.34997 0
M  V30 3434 C 314.413 3.28957 -1.47714 0
M  V30 3435 O 313.517 4.06795 -0.677593 0
M  V30 3436 H 312.858 0.569842 -0.340847 0
M  V30 3437 H 315.388 1.35178 -1.53584 0
M  V30 3438 H 315.398 3.79788 -1.4908 0
M  V30 3439 H 314.073 3.30068 -2.53037 0
M  V30 3440 H 312.65 3.6561 -0.733721 0
M  V30 3441 N 314.835 0.952656 1.25548 0
M  V30 3442 C 316.065 0.622592 1.96996 0
M  V30 3443 C 316.473 -0.809112 1.71026 0
M  V30 3444 O 315.816 -1.55258 0.981861 0
M  V30 3445 C 315.878 0.798946 3.5051 0
M  V30 3446 C 315.542 2.20744 4.00151 0
M  V30 3447 C 316.539 3.18394 4.11001 0
M  V30 3448 C 314.224 2.5311 4.33867 0
M  V30 3449 C 316.218 4.46504 4.54877 0
M  V30 3450 C 313.905 3.8145 4.7743 0
M  V30 3451 C 314.903 4.77959 4.87897 0
M  V30 3452 O 314.591 6.04012 5.30494 0
M  V30 3453 H 314.323 0.232503 0.634758 0
M  V30 3454 H 316.877 1.2789 1.60728 0
M  V30 3455 H 315.107 0.0854903 3.86605 0
M  V30 3456 H 316.796 0.47023 4.03167 0
M  V30 3457 H 317.562 2.94715 3.85186 0
M  V30 3458 H 313.441 1.78719 4.24948 0
M  V30 3459 H 316.985 5.21835 4.62962 0
M  V30 3460 H 312.882 4.04936 5.0269 0
M  V30 3461 H 313.65 6.0736 5.48685 0
M  V30 3462 N 316.313 -1.40141 0.720998 0
M  V30 3463 C 317.276 -2.29058 0.0805834 0
M  V30 3464 C 318.276 -1.45632 -0.681758 0
M  V30 3465 O 319.466 -1.6648 -0.512856 0
M  V30 3466 C 316.598 -3.28925 -0.895593 0
M  V30 3467 H 317.791 -2.87191 0.863793 0
M  V30 3468 H 315.344 -1.48553 0.485975 0
M  V30 3469 H 316.079 -2.75822 -1.70566 0
M  V30 3470 H 315.864 -3.90519 -0.351766 0
M  V30 3471 H 317.354 -3.95494 -1.34069 0
M  V30 3472 N 317.792 -0.46758 -1.50504 0
M  V30 3473 C 318.722 0.318381 -2.31319 0
M  V30 3474 C 319.703 0.993564 -1.38066 0
M  V30 3475 O 320.888 0.991411 -1.66987 0
M  V30 3476 C 318.018 1.40275 -3.17711 0
M  V30 3477 C 316.972 0.849373 -4.19487 0
M  V30 3478 C 316.298 2.03177 -4.94594 0
M  V30 3479 C 317.598 -0.136942 -5.2212 0
M  V30 3480 H 319.292 -0.356106 -2.97275 0
M  V30 3481 H 316.838 -0.172703 -1.42961 0
M  V30 3482 H 318.791 1.96004 -3.73042 0
M  V30 3483 H 317.515 2.10596 -2.49634 0
M  V30 3484 H 316.174 0.314076 -3.65252 0
M  V30 3485 H 315.822 2.72187 -4.22993 0
M  V30 3486 H 315.522 1.66774 -5.63436 0
M  V30 3487 H 317.046 2.59403 -5.52759 0
M  V30 3488 H 318.46 0.331056 -5.72343 0
M  V30 3489 H 316.857 -0.41507 -5.98663 0
M  V30 3490 H 317.927 -1.06398 -4.73083 0
M  V30 3491 N 319.27 1.56325 -0.20005 0
M  V30 3492 C 320.2 2.22318 0.713916 0
M  V30 3493 C 321.181 1.18788 1.21752 0
M  V30 3494 O 322.366 1.47309 1.26545 0
M  V30 3495 C 319.496 2.88639 1.93144 0
M  V30 3496 C 318.45 3.98457 1.56255 0
M  V30 3497 C 317.776 4.51967 2.85709 0
M  V30 3498 C 319.076 5.16612 0.768747 0
M  V30 3499 H 320.77 2.98952 0.163755 0
M  V30 3500 H 318.316 1.43792 0.0773219 0
M  V30 3501 H 320.269 3.33491 2.57608 0
M  V30 3502 H 318.993 2.09419 2.50621 0
M  V30 3503 H 317.652 3.54305 0.941471 0
M  V30 3504 H 317.3 3.69503 3.41287 0
M  V30 3505 H 317 5.26071 2.6177 0
M  V30 3506 H 318.524 4.99523 3.51154 0
M  V30 3507 H 319.938 5.57977 1.3166 0
M  V30 3508 H 318.335 5.96812 0.627286 0
M  V30 3509 H 319.405 4.84358 -0.229168 0
M  V30 3510 N 320.748 -0.0735177 1.57428 0
M  V30 3511 C 321.976 -0.785969 1.9139 0
M  V30 3512 C 322.391 -1.71207 0.795847 0
M  V30 3513 O 321.748 -1.81033 -0.230915 0
M  V30 3514 C 321.799 -1.58107 3.25091 0
M  V30 3515 O 321.52 -0.6922 4.32597 0
M  V30 3516 C 323.021 -2.39467 3.73055 0
M  V30 3517 H 320.241 -0.223558 0.632663 0
M  V30 3518 H 322.785 -0.044302 2.04452 0
M  V30 3519 H 320.94 -2.27503 3.13562 0
M  V30 3520 H 321.354 -1.24504 5.09508 0
M  V30 3521 H 322.828 -2.90716 4.69242 0
M  V30 3522 H 323.305 -3.18913 3.01979 0
M  V30 3523 H 323.911 -1.7523 3.87523 0
M  V30 3524 N 322.226 -1.5378 -0.344866 0
M  V30 3525 C 323.466 -1.72677 -1.09371 0
M  V30 3526 C 323.83 -0.479084 -1.85927 0
M  V30 3527 O 325.031 -0.54505 -2.63216 0
M  V30 3528 C 323.302 -2.95457 -2.01097 0
M  V30 3529 S 324.861 -3.35158 -2.83222 0
M  V30 3530 H 321.679 -0.607402 -0.369573 0
M  V30 3531 H 324.281 -1.91922 -0.372307 0
M  V30 3532 H 322.985 -3.84437 -1.43655 0
M  V30 3533 H 322.516 -2.78673 -2.77678 0
M  V30 3534 H 324.531 -2.88789 -4.03504 0
M  V30 3535 N 323.704 0.605807 -1.45491 0
M  V30 3536 C 324.637 1.73022 -1.48791 0
M  V30 3537 C 325.615 1.58917 -0.344112 0
M  V30 3538 O 326.799 1.80453 -0.544876 0
M  V30 3539 C 323.926 3.10865 -1.34463 0
M  V30 3540 C 322.972 3.43554 -2.5273 0
M  V30 3541 S 323.805 3.38196 -4.15191 0
M  V30 3542 C 324.961 4.78616 -4.03333 0
M  V30 3543 H 325.194 1.69961 -2.43928 0
M  V30 3544 H 322.727 0.782611 -1.33096 0
M  V30 3545 H 324.685 3.90398 -1.26884 0
M  V30 3546 H 323.346 3.1144 -0.40794 0
M  V30 3547 H 322.539 4.43924 -2.38637 0
M  V30 3548 H 322.141 2.71541 -2.5718 0
M  V30 3549 H 324.433 5.68463 -3.68587 0
M  V30 3550 H 325.376 4.97767 -5.03621 0
M  V30 3551 H 325.784 4.54381 -3.34959 0
M  V30 3552 N 325.182 1.32811 0.848464 0
M  V30 3553 C 326.431 1.23075 1.59798 0
M  V30 3554 C 326.744 -0.204419 1.94529 0
M  V30 3555 O 327.95 -0.423701 2.68173 0
M  V30 3556 C 326.406 2.15594 2.88179 0
M  V30 3557 C 326.014 3.64228 2.60849 0
M  V30 3558 C 327.758 2.14709 3.66197 0
M  V30 3559 C 325.665 4.48689 3.85269 0
M  V30 3560 H 324.595 0.457091 0.599653 0
M  V30 3561 H 327.246 1.57813 0.936342 0
M  V30 3562 H 325.628 1.73778 3.55833 0
M  V30 3563 H 326.802 4.14424 2.01467 0
M  V30 3564 H 325.117 3.67306 1.96151 0
M  V30 3565 H 327.714 2.75046 4.58534 0
M  V30 3566 H 328.057 1.13966 4.00397 0
M  V30 3567 H 328.59 2.54837 3.05455 0
M  V30 3568 H 325.329 5.5027 3.56207 0
M  V30 3569 H 324.849 4.03241 4.44024 0
M  V30 3570 H 326.528 4.62006 4.52946 0
M  V30 3571 N 326.66 -1.06551 1.16123 0
M  V30 3572 C 327.623 -2.12132 0.867906 0
M  V30 3573 C 328.623 -1.60224 -0.135944 0
M  V30 3574 O 329.813 -1.73943 0.0946422 0
M  V30 3575 C 326.945 -3.396 0.297419 0
M  V30 3576 H 328.138 -2.39586 1.80385 0
M  V30 3577 H 325.691 -1.22574 0.969812 0
M  V30 3578 H 326.426 -3.17794 -0.64633 0
M  V30 3579 H 326.211 -3.78581 1.02073 0
M  V30 3580 H 327.701 -4.17455 0.110052 0
M  V30 3581 N 328.138 -0.959301 -1.25041 0
M  V30 3582 C 329.088 -0.453888 -2.23436 0
M  V30 3583 C 330.072 0.459461 -1.542 0
M  V30 3584 O 331.264 0.291752 -1.74579 0
M  V30 3585 C 328.393 0.262667 -3.42294 0
M  V30 3586 C 327.479 -0.669022 -4.1879 0
M  V30 3587 N 327.87 -1.80267 -4.72586 0
M  V30 3588 C 326.168 -0.47814 -4.4343 0
M  V30 3589 C 326.869 -2.38475 -5.3057 0
M  V30 3590 N 325.845 -1.67078 -5.17287 0
M  V30 3591 H 329.647 -1.319 -2.6264 0
M  V30 3592 H 327.161 -0.817358 -1.40332 0
M  V30 3593 H 329.158 0.641911 -4.11929 0
M  V30 3594 H 327.818 1.12432 -3.04613 0
M  V30 3595 H 328.829 -2.18442 -4.69578 0
M  V30 3596 H 325.506 0.340249 -4.16111 0
M  V30 3597 H 326.896 -3.34094 -5.8295 0
M  V30 3598 N 329.616 1.39756 -0.72842 0
M  V30 3599 C 330.862 2.00942 -0.273892 0
M  V30 3600 C 331.195 1.57656 1.13394 0
M  V30 3601 O 330.47 0.802434 1.77176 0
M  V30 3602 C 330.753 3.58211 -0.368346 0
M  V30 3603 C 330.606 4.11534 -1.81548 0
M  V30 3604 C 331.925 4.39372 0.253054 0
M  V30 3605 H 329.044 0.730047 -0.100996 0
M  V30 3606 H 331.686 1.66056 -0.923337 0
M  V30 3607 H 329.836 3.88061 0.184588 0
M  V30 3608 H 331.508 3.92431 -2.42478 0
M  V30 3609 H 329.751 3.65341 -2.33898 0
M  V30 3610 H 330.422 5.20682 -1.83288 0
M  V30 3611 H 332.898 4.15527 -0.218224 0
M  V30 3612 H 331.774 5.48677 0.156585 0
M  V30 3613 H 332.035 4.21358 1.33826 0
M  V30 3614 N 331.094 0.475555 1.50254 0
M  V30 3615 C 332.334 -0.0765802 2.04256 0
M  V30 3616 C 332.698 -1.36587 1.34937 0
M  V30 3617 O 333.899 -2.00066 1.79519 0
M  V30 3618 C 332.17 -0.251668 3.56513 0
M  V30 3619 S 333.729 -0.761716 4.32138 0
M  V30 3620 H 330.547 -0.0138456 0.710865 0
M  V30 3621 H 333.149 0.643714 1.84598 0
M  V30 3622 H 331.853 0.692404 4.04517 0
M  V30 3623 H 331.384 -0.997946 3.80532 0
M  V30 3624 H 333.399 -2.03451 4.52573 0
M  V30 3625 N 332.573 -1.56217 0.208337 0
M  V30 3626 C 333.85 -1.89739 -0.475234 0
M  V30 3627 C 334.23 -1.1238 -1.78701 0
M  V30 3628 O 333.578 -0.228979 -2.2735 0
M  V30 3629 C 333.788 -3.42289 -0.681101 0
M  V30 3630 C 335.136 -4.12789 -0.994507 0
M  V30 3631 O 336.16 -3.47814 -0.768357 0
M  V30 3632 O 335.019 -5.27649 -1.42299 0
M  V30 3633 H 332.113 -0.788478 -0.249461 0
M  V30 3634 H 334.659 -1.67855 0.249538 0
M  V30 3635 H 333.431 -3.90534 0.244722 0
M  V30 3636 H 333.054 -3.69909 -1.45785 0
M  V30 3637 N 334.051 0.0651679 -1.57465 0
M  V30 3638 C 334.981 1.07693 -2.07182 0
M  V30 3639 C 335.962 1.39962 -0.966673 0
M  V30 3640 O 337.147 1.49475 -1.2398 0
M  V30 3641 C 334.277 2.3885 -2.52127 0
M  V30 3642 C 333.231 2.20917 -3.66579 0
M  V30 3643 C 332.557 3.57515 -3.97601 0
M  V30 3644 C 333.857 1.62493 -4.9638 0
M  V30 3645 H 335.551 0.663199 -2.91962 0
M  V30 3646 H 333.097 0.317569 -1.40455 0
M  V30 3647 H 335.05 3.09928 -2.85522 0
M  V30 3648 H 333.774 2.82215 -1.64384 0
M  V30 3649 H 332.433 1.52279 -3.33477 0
M  V30 3650 H 332.081 3.98463 -3.06979 0
M  V30 3651 H 331.781 3.46353 -4.74672 0
M  V30 3652 H 333.305 4.30013 -4.33499 0
M  V30 3653 H 334.719 2.23445 -5.27963 0
M  V30 3654 H 333.116 1.62009 -5.77818 0
M  V30 3655 H 334.186 0.587041 -4.81333 0
M  V30 3656 N 335.529 1.53961 0.336706 0
M  V30 3657 C 336.806 1.62171 1.09361 0
M  V30 3658 C 337.186 0.447263 2.06307 0
M  V30 3659 O 336.534 -0.559802 2.21537 0
M  V30 3660 C 336.744 2.98565 1.80721 0
M  V30 3661 C 338.092 3.54157 2.34218 0
M  V30 3662 O 339.116 3.00784 1.90807 0
M  V30 3663 O 337.975 4.47528 3.13657 0
M  V30 3664 H 335.069 0.6562 0.503319 0
M  V30 3665 H 337.615 1.66307 0.33765 0
M  V30 3666 H 336.387 3.75482 1.10132 0
M  V30 3667 H 336.01 2.9805 2.63158 0
M  V30 3668 N 337.007 -0.598083 1.45811 0
M  V30 3669 C 338.418 -1.18011 1.44673 0
M  V30 3670 C 338.769 -1.95378 0.179364 0
M  V30 3671 O 337.894 -2.04124 -0.718509 0
M  V30 3672 C 338.489 -2.14677 2.62105 0
M  V30 3673 C 337.048 -2.68236 2.64057 0
M  V30 3674 C 336.195 -1.43816 2.37091 0
M  V30 3675 H 339.146 -0.38686 1.53913 0
M  V30 3676 H 339.167 -2.97878 2.36746 0
M  V30 3677 H 338.679 -1.5834 3.5433 0
M  V30 3678 H 336.78 -3.28486 1.75864 0
M  V30 3679 H 336.893 -3.12021 3.63566 0
M  V30 3680 H 335.257 -1.731 1.86838 0
M  V30 3681 H 336.04 -0.893333 3.31473 0
M  V30 3682 N 338.485 -1.33259 -0.841409 0
M  V30 3683 C 339.733 -1.24326 -1.59334 0
M  V30 3684 C 340.054 0.191564 -1.94057 0
M  V30 3685 O 339.324 1.11967 -1.60749 0
M  V30 3686 H 337.904 -0.457174 -0.590763 0
M  V30 3687 H 340.566 -1.66947 -1.00571 0
M  V30 3688 H 339.662 -1.8352 -2.52442 0
M  V30 3689 N 339.963 1.05934 -1.16686 0
M  V30 3690 C 341.24 1.75643 -0.860747 0
M  V30 3691 C 341.62 2.01144 0.640641 0
M  V30 3692 O 340.968 1.64147 1.58959 0
M  V30 3693 C 341.178 3.05493 -1.68745 0
M  V30 3694 C 342.526 3.79581 -1.90271 0
M  V30 3695 O 343.55 3.15344 -1.65641 0
M  V30 3696 O 342.409 4.9499 -2.31618 0
M  V30 3697 H 339.503 0.763426 -0.317977 0
M  V30 3698 H 342.049 1.1217 -1.27342 0
M  V30 3699 H 340.821 2.8264 -2.70611 0
M  V30 3700 H 340.444 3.76702 -1.27206 0
M  V30 3701 N 341.441 0.965919 1.2453 0
M  V30 3702 C 342.688 0.626831 1.92554 0
M  V30 3703 C 343.016 -0.837739 1.75534 0
M  V30 3704 O 342.271 -1.61793 1.10098 0
M  V30 3705 C 342.57 0.945428 3.44669 0
M  V30 3706 C 342.236 2.39785 3.81856 0
M  V30 3707 C 340.898 2.79483 3.91718 0
M  V30 3708 C 343.25 3.34055 4.00071 0
M  V30 3709 C 340.578 4.12496 4.1721 0
M  V30 3710 C 342.93 4.66694 4.27059 0
M  V30 3711 C 341.594 5.06172 4.3514 0
M  V30 3712 H 340.864 0.229374 0.704605 0
M  V30 3713 H 343.511 1.21707 1.4785 0
M  V30 3714 H 341.816 0.272926 3.90848 0
M  V30 3715 H 343.513 0.661484 3.95507 0
M  V30 3716 H 340.103 2.08003 3.74743 0
M  V30 3717 H 344.287 3.04571 3.91855 0
M  V30 3718 H 339.543 4.42709 4.21685 0
M  V30 3719 H 343.717 5.3971 4.40097 0
M  V30 3720 H 341.344 6.09262 4.54646 0
M  V30 3721 N 342.919 -1.39368 0.735821 0
M  V30 3722 C 344.168 -1.99733 0.281004 0
M  V30 3723 C 344.481 -1.59055 -1.13846 0
M  V30 3724 O 345.687 -2.12262 -1.69284 0
M  V30 3725 C 344.143 -3.57057 0.451462 0
M  V30 3726 C 343.751 -4.06697 1.87886 0
M  V30 3727 C 345.495 -4.2446 0.0584616 0
M  V30 3728 C 343.402 -5.56598 1.99883 0
M  V30 3729 H 342.332 -0.747163 0.101311 0
M  V30 3730 H 344.983 -1.59357 0.909819 0
M  V30 3731 H 343.365 -3.95234 -0.246263 0
M  V30 3732 H 344.539 -3.79853 2.60861 0
M  V30 3733 H 342.854 -3.5196 2.22515 0
M  V30 3734 H 345.451 -5.34549 0.127099 0
M  V30 3735 H 345.794 -4.04444 -0.986433 0
M  V30 3736 H 346.327 -3.9146 0.707374 0
M  V30 3737 H 343.066 -5.81494 3.02564 0
M  V30 3738 H 342.586 -5.85242 1.31346 0
M  V30 3739 H 344.265 -6.22022 1.78039 0
M  V30 3740 N 344.397 -0.483516 -1.5 0
M  V30 3741 C 345.347 0.32306 -2.257 0
M  V30 3742 C 346.331 0.950755 -1.29805 0
M  V30 3743 O 347.523 0.861247 -1.54634 0
M  V30 3744 C 344.652 1.39724 -3.13579 0
M  V30 3745 C 343.738 0.776663 -4.16928 0
M  V30 3746 N 344.129 -0.1104 -5.0568 0
M  V30 3747 C 342.427 1.03922 -4.33724 0
M  V30 3748 C 343.128 -0.46387 -5.79848 0
M  V30 3749 N 342.104 0.163987 -5.43353 0
M  V30 3750 H 345.906 -0.360086 -2.91686 0
M  V30 3751 H 343.42 -0.298456 -1.59634 0
M  V30 3752 H 345.417 1.98837 -3.66428 0
M  V30 3753 H 344.077 2.08225 -2.49143 0
M  V30 3754 H 345.088 -0.480069 -5.1567 0
M  V30 3755 H 341.765 1.71829 -3.80501 0
M  V30 3756 H 343.155 -1.18854 -6.61304 0
M  V30 3757 N 345.875 1.56104 -0.216619 0
M  V30 3758 C 347.121 1.98466 0.417033 0
M  V30 3759 C 347.454 1.10403 1.59765 0
M  V30 3760 O 346.729 0.160632 1.93836 0
M  V30 3761 C 347.012 3.49769 0.85637 0
M  V30 3762 C 346.865 4.48606 -0.327546 0
M  V30 3763 C 348.184 4.05339 1.7143 0
M  V30 3764 H 345.303 0.721551 0.150112 0
M  V30 3765 H 347.945 1.87423 -0.311864 0
M  V30 3766 H 346.095 3.5931 1.47745 0
M  V30 3767 H 347.767 4.5108 -0.965618 0
M  V30 3768 H 346.01 4.22682 -0.975805 0
M  V30 3769 H 346.681 5.51995 0.0227149 0
M  V30 3770 H 349.157 3.98712 1.19031 0
M  V30 3771 H 348.033 5.11533 1.99061 0
M  V30 3772 H 348.294 3.51918 2.67593 0
M  V30 3773 N 347.353 -0.0568162 1.57498 0
M  V30 3774 C 348.286 -1.09817 2.00039 0
M  V30 3775 C 349.264 -1.3674 0.879819 0
M  V30 3776 O 350.448 -1.49863 1.14338 0
M  V30 3777 C 347.575 -2.43924 2.34986 0
M  V30 3778 C 346.621 -2.33039 3.57204 0
M  V30 3779 S 347.454 -1.7102 5.07457 0
M  V30 3780 C 348.61 -3.06674 5.45621 0
M  V30 3781 H 348.843 -0.735701 2.88053 0
M  V30 3782 H 346.376 -0.265871 1.52094 0
M  V30 3783 H 348.334 -3.2106 2.55795 0
M  V30 3784 H 346.995 -2.77327 1.47474 0
M  V30 3785 H 346.188 -3.31973 3.79223 0
M  V30 3786 H 345.79 -1.64043 3.36104 0
M  V30 3787 H 348.082 -4.03 5.44608 0
M  V30 3788 H 349.025 -2.8942 6.46252 0
M  V30 3789 H 349.433 -3.07969 4.73091 0
M  V30 3790 N 348.832 -1.54138 -0.328536 0
M  V30 3791 C 350.08 -1.71765 -1.06496 0
M  V30 3792 C 350.401 -0.49149 -1.88704 0
M  V30 3793 O 349.671 0.494539 -1.89555 0
M  V30 3794 H 348.251 -0.633295 -0.396164 0
M  V30 3795 H 350.913 -1.91429 -0.366176 0
M  V30 3796 H 350.009 -2.5951 -1.73381 0
M  V30 3797 N 350.31 0.590341 -1.46126 0
M  V30 3798 C 351.587 1.35029 -1.41515 0
M  V30 3799 C 351.967 2.10888 -0.0946472 0
M  V30 3800 O 351.315 2.08998 0.923693 0
M  V30 3801 C 351.525 2.28269 -2.63997 0
M  V30 3802 C 352.873 2.90338 -3.09821 0
M  V30 3803 O 353.897 2.38585 -2.64492 0
M  V30 3804 O 352.756 3.84321 -3.88535 0
M  V30 3805 H 349.85 0.606317 -0.562413 0
M  V30 3806 H 352.396 0.611994 -1.58281 0
M  V30 3807 H 351.168 1.71591 -3.51671 0
M  V30 3808 H 350.791 3.0945 -2.49652 0
M  V30 3809 N 351.788 1.33704 0.83433 0
M  V30 3810 C 353.028 1.26754 1.60352 0
M  V30 3811 C 353.392 -0.163182 1.91305 0
M  V30 3812 O 354.593 -0.3567 2.66423 0
M  V30 3813 C 352.864 2.12262 2.8754 0
M  V30 3814 S 354.423 2.22549 3.78176 0
M  V30 3815 H 351.241 0.450879 0.549753 0
M  V30 3816 H 353.843 1.68788 0.986444 0
M  V30 3817 H 352.547 3.15238 2.62779 0
M  V30 3818 H 352.078 1.71082 3.54252 0
M  V30 3819 H 354.093 1.3899 4.76336 0
M  V30 3820 N 353.266 -1.05314 1.17247 0
M  V30 3821 C 354.216 -2.11313 0.856196 0
M  V30 3822 C 355.2 -1.60013 -0.168694 0
M  V30 3823 O 356.392 -1.76968 0.0335624 0
M  V30 3824 C 353.521 -3.41301 0.369917 0
M  V30 3825 C 352.607 -3.99401 1.42616 0
M  V30 3826 N 352.998 -4.31481 2.63928 0
M  V30 3827 C 351.296 -4.27126 1.28373 0
M  V30 3828 C 351.997 -4.77799 3.31787 0
M  V30 3829 N 350.973 -4.77843 2.59166 0
M  V30 3830 H 354.775 -2.33976 1.77856 0
M  V30 3831 H 352.289 -1.2295 1.06099 0
M  V30 3832 H 354.286 -4.16713 0.124897 0
M  V30 3833 H 352.946 -3.20072 -0.546253 0
M  V30 3834 H 353.957 -4.21519 3.00902 0
M  V30 3835 H 350.634 -4.15289 0.429111 0
M  V30 3836 H 352.024 -5.11743 4.35395 0
M  V30 3837 N 354.744 -0.972509 -1.24016 0
M  V30 3838 C 355.993 -0.632603 -1.91523 0
M  V30 3839 C 356.306 0.836641 -1.76804 0
M  V30 3840 O 357.512 1.28728 -2.39043 0
M  V30 3841 C 355.968 -1.08082 -3.43287 0
M  V30 3842 C 355.576 -2.57386 -3.66683 0
M  V30 3843 C 357.32 -0.814288 -4.16617 0
M  V30 3844 C 355.227 -2.95915 -5.12043 0
M  V30 3845 H 354.157 -0.232898 -0.717129 0
M  V30 3846 H 356.808 -1.17936 -1.40582 0
M  V30 3847 H 355.19 -0.462339 -3.93292 0
M  V30 3848 H 356.364 -3.24405 -3.27258 0
M  V30 3849 H 354.679 -2.81701 -3.06649 0
M  V30 3850 H 357.276 -1.0781 -5.23718 0
M  V30 3851 H 357.619 0.24955 -4.15551 0
M  V30 3852 H 358.152 -1.39397 -3.72577 0
M  V30 3853 H 354.891 -4.0139 -5.18234 0
M  V30 3854 H 354.411 -2.33584 -5.52448 0
M  V30 3855 H 356.09 -2.86086 -5.80314 0
M  V30 3856 N 356.222 1.38976 -0.743202 0
M  V30 3857 C 357.452 2.04339 -0.304807 0
M  V30 3858 C 357.86 1.56162 1.06819 0
M  V30 3859 O 357.203 0.725284 1.68776 0
M  V30 3860 C 357.265 3.58716 -0.237369 0
M  V30 3861 C 356.929 4.29905 -1.55018 0
M  V30 3862 C 357.926 4.55987 -2.49744 0
M  V30 3863 C 355.611 4.68294 -1.81675 0
M  V30 3864 C 357.605 5.19478 -3.69353 0
M  V30 3865 C 355.292 5.31512 -3.0156 0
M  V30 3866 C 356.29 5.57037 -3.9522 0
M  V30 3867 O 355.978 6.18941 -5.12998 0
M  V30 3868 H 355.71 0.663439 -0.12971 0
M  V30 3869 H 358.264 1.78852 -1.01001 0
M  V30 3870 H 356.494 3.83133 0.524003 0
M  V30 3871 H 358.183 4.05543 0.170121 0
M  V30 3872 H 358.949 4.26767 -2.30423 0
M  V30 3873 H 354.828 4.47779 -1.09615 0
M  V30 3874 H 358.372 5.39318 -4.42473 0
M  V30 3875 H 354.269 5.60153 -3.20778 0
M  V30 3876 H 355.037 6.37433 -5.13441 0
M  V30 3877 N 357.7 0.491464 1.49741 0
M  V30 3878 C 358.647 -0.292027 2.28945 0
M  V30 3879 C 359.617 -0.968973 1.34908 0
M  V30 3880 O 360.802 -0.97748 1.6386 0
M  V30 3881 C 357.942 -1.35617 3.17336 0
M  V30 3882 C 357.055 -0.691957 4.26422 0
M  V30 3883 C 356.19 -1.73572 5.02042 0
M  V30 3884 C 355.229 -1.05286 6.02977 0
M  V30 3885 N 354.366 -2.0404 6.71798 0
M  V30 3886 H 359.206 0.389654 2.95442 0
M  V30 3887 H 356.743 0.204003 1.45679 0
M  V30 3888 H 358.701 -1.98502 3.66951 0
M  V30 3889 H 357.331 -2.00674 2.52844 0
M  V30 3890 H 356.383 0.0499523 3.80367 0
M  V30 3891 H 357.695 -0.153946 4.98562 0
M  V30 3892 H 356.849 -2.43987 5.55478 0
M  V30 3893 H 355.588 -2.30757 4.29654 0
M  V30 3894 H 354.593 -0.334446 5.48782 0
M  V30 3895 H 355.818 -0.487636 6.77347 0
M  V30 3896 H 353.764 -2.60205 6.02187 0
M  V30 3897 H 353.681 -1.55279 7.39881 0
M  V30 3898 H 354.949 -2.73772 7.29842 0
M  V30 3899 N 359.178 -1.55987 0.224894 0
M  V30 3900 C 360.455 -1.90232 -0.455083 0
M  V30 3901 C 360.835 -1.14269 -1.77499 0
M  V30 3902 O 360.183 -0.253079 -2.27094 0
M  V30 3903 C 360.393 -3.42993 -0.644758 0
M  V30 3904 C 361.741 -4.13821 -0.950669 0
M  V30 3905 O 362.765 -3.4861 -0.731423 0
M  V30 3906 O 361.624 -5.29128 -1.36695 0
M  V30 3907 H 358.718 -0.79108 -0.241084 0
M  V30 3908 H 361.264 -1.67581 0.267327 0
M  V30 3909 H 360.036 -3.90252 0.28613 0
M  V30 3910 H 359.659 -3.71434 -1.41853 0
M  V30 3911 N 360.656 0.0484629 -1.57525 0
M  V30 3912 C 361.606 1.06246 -2.01732 0
M  V30 3913 C 362.59 1.33155 -0.903245 0
M  V30 3914 O 363.782 1.33065 -1.16717 0
M  V30 3915 C 360.911 2.36943 -2.48421 0
M  V30 3916 C 359.997 2.13208 -3.6661 0
M  V30 3917 N 360.388 1.5947 -4.80003 0
M  V30 3918 C 358.686 2.43581 -3.7361 0
M  V30 3919 C 359.387 1.51092 -5.61735 0
M  V30 3920 N 358.363 1.9797 -5.0627 0
M  V30 3921 H 362.165 0.640675 -2.86832 0
M  V30 3922 H 359.679 0.255134 -1.60383 0
M  V30 3923 H 361.676 3.10374 -2.78341 0
M  V30 3924 H 360.336 2.79818 -1.64718 0
M  V30 3925 H 361.347 1.28008 -5.01831 0
M  V30 3926 H 358.024 2.89662 -3.00669 0
M  V30 3927 H 359.414 1.10199 -6.62801 0
M  V30 3928 N 362.134 1.5431 0.320358 0
M  V30 3929 C 363.383 1.7188 1.05546 0
M  V30 3930 C 363.696 0.501143 1.89071 0
M  V30 3931 O 364.902 0.558258 2.65699 0
M  V30 3932 C 363.358 3.04025 1.92605 0
M  V30 3933 C 362.966 4.33207 1.14176 0
M  V30 3934 C 364.71 3.30959 2.65832 0
M  V30 3935 C 362.617 5.56412 2.00399 0
M  V30 3936 H 361.547 0.640547 0.397763 0
M  V30 3937 H 364.198 1.80802 0.313522 0
M  V30 3938 H 362.58 2.89019 2.7071 0
M  V30 3939 H 363.754 4.58989 0.40819 0
M  V30 3940 H 362.069 4.13062 0.526165 0
M  V30 3941 H 364.666 4.20203 3.30656 0
M  V30 3942 H 365.009 2.48979 3.33639 0
M  V30 3943 H 365.542 3.46847 1.94787 0
M  V30 3944 H 362.281 6.41004 1.37094 0
M  V30 3945 H 361.801 5.34844 2.7148 0
M  V30 3946 H 363.48 5.92938 2.58908 0
M  V30 3947 N 363.613 -0.582584 1.46437 0
M  V30 3948 C 364.523 -1.71949 1.59595 0
M  V30 3949 C 365.539 -1.67264 0.479443 0
M  V30 3950 O 366.715 -1.87171 0.743579 0
M  V30 3951 C 363.78 -3.08452 1.58298 0
M  V30 3952 C 362.841 -3.244 2.81182 0
M  V30 3953 C 362.074 -4.54391 2.79937 0
M  V30 3954 O 362.297 -5.38287 1.8869 0
M  V30 3955 O 361.231 -4.73588 3.71481 0
M  V30 3956 H 365.057 -1.63795 2.55744 0
M  V30 3957 H 362.642 -0.749643 1.29231 0
M  V30 3958 H 364.524 -3.89732 1.60271 0
M  V30 3959 H 363.199 -3.17043 0.653094 0
M  V30 3960 H 362.106 -2.42613 2.84763 0
M  V30 3961 H 363.439 -3.20699 3.7338 0
M  V30 3962 N 365.091 -1.34144 -0.827227 0
M  V30 3963 C 366.054 -1.25264 -1.91942 0
M  V30 3964 C 367.054 -0.168866 -1.59911 0
M  V30 3965 O 368.244 -0.421198 -1.69031 0
M  V30 3966 C 365.376 -0.932952 -3.27885 0
M  V30 3967 H 366.569 -2.22357 -2.0124 0
M  V30 3968 H 364.122 -1.1837 -1.0207 0
M  V30 3969 H 364.857 0.0349917 -3.24281 0
M  V30 3970 H 364.642 -1.71682 -3.52516 0
M  V30 3971 H 366.132 -0.895874 -4.07877 0
M  V30 3972 N 366.569 1.04691 -1.17803 0
M  V30 3973 C 367.499 2.14494 -0.92275 0
M  V30 3974 C 368.48 1.69546 0.137179 0
M  V30 3975 O 369.665 1.94195 -0.0141108 0
M  V30 3976 C 366.795 3.44491 -0.440803 0
M  V30 3977 C 365.749 4.03031 -1.4405 0
M  V30 3978 C 365.075 5.28432 -0.81631 0
M  V30 3979 C 366.375 4.39932 -2.81527 0
M  V30 3980 H 368.069 2.36107 -1.84103 0
M  V30 3981 H 365.615 1.1347 -0.886599 0
M  V30 3982 H 367.568 4.2066 -0.249602 0
M  V30 3983 H 366.292 3.22546 0.513025 0
M  V30 3984 H 364.951 3.28937 -1.61853 0
M  V30 3985 H 364.599 5.02792 0.144511 0
M  V30 3986 H 364.299 5.68559 -1.48371 0
M  V30 3987 H 365.823 6.07284 -0.635496 0
M  V30 3988 H 367.237 5.07113 -2.67412 0
M  V30 3989 H 365.634 4.9109 -3.44892 0
M  V30 3990 H 366.704 3.50045 -3.35554 0
M  V30 3991 N 368.047 0.979072 1.23499 0
M  V30 3992 C 368.979 0.476271 2.24197 0
M  V30 3993 C 369.992 -0.421166 1.57258 0
M  V30 3994 O 371.181 -0.225515 1.7707 0
M  V30 3995 C 368.281 -0.330503 3.37285 0
M  V30 3996 C 367.454 0.559744 4.33804 0
M  V30 3997 C 366.513 -0.192954 5.25846 0
M  V30 3998 O 365.539 0.416978 5.67671 0
M  V30 3999 N 366.741 -1.47932 5.61334 0
M  V30 4000 H 369.506 1.34211 2.67969 0
M  V30 4001 H 367.067 0.852189 1.37657 0
M  V30 4002 H 369.059 -0.842361 3.95836 0
M  V30 4003 H 367.629 -1.09734 2.92707 0
M  V30 4004 H 366.849 1.25245 3.73775 0
M  V30 4005 H 368.137 1.1665 4.95248 0
M  V30 4006 H 367.535 -1.9964 5.29302 0
M  V30 4007 H 366.092 -1.93664 6.22364 0
M  V30 4008 N 369.525 -1.3858 0.750561 0
M  V30 4009 C 370.457 -2.29057 0.0810714 0
M  V30 4010 C 371.47 -1.47596 -0.686973 0
M  V30 4011 O 372.659 -1.70495 -0.528563 0
M  V30 4012 C 369.759 -3.26475 -0.909247 0
M  V30 4013 C 368.932 -4.36945 -0.199478 0
M  V30 4014 C 367.991 -5.14572 -1.10011 0
M  V30 4015 O 367.017 -5.66321 -0.57177 0
M  V30 4016 N 368.219 -5.27262 -2.42849 0
M  V30 4017 H 370.984 -2.87153 0.858087 0
M  V30 4018 H 368.545 -1.50328 0.60109 0
M  V30 4019 H 370.537 -3.75285 -1.51471 0
M  V30 4020 H 369.107 -2.69298 -1.58736 0
M  V30 4021 H 368.327 -3.8981 0.586664 0
M  V30 4022 H 369.615 -5.07963 0.291783 0
M  V30 4023 H 369.013 -4.86763 -2.88233 0
M  V30 4024 H 367.57 -5.79456 -2.98453 0
M  V30 4025 N 371.003 -0.499398 -1.49478 0
M  V30 4026 C 371.935 0.316575 -2.27003 0
M  V30 4027 C 372.948 0.932047 -1.33479 0
M  V30 4028 O 374.137 0.815658 -1.58774 0
M  V30 4029 C 371.237 1.46055 -3.05812 0
M  V30 4030 C 370.41 0.952679 -4.26899 0
M  V30 4031 C 369.469 1.97407 -4.87767 0
M  V30 4032 O 368.495 1.54326 -5.4788 0
M  V30 4033 N 369.697 3.30436 -4.77276 0
M  V30 4034 H 372.462 -0.348168 -2.97671 0
M  V30 4035 H 370.023 -0.33185 -1.58463 0
M  V30 4036 H 372.015 2.14135 -3.43407 0
M  V30 4037 H 370.585 2.02948 -2.37762 0
M  V30 4038 H 369.805 0.0968248 -3.94081 0
M  V30 4039 H 371.093 0.59174 -5.05347 0
M  V30 4040 H 370.491 3.68126 -4.29534 0
M  V30 4041 H 369.048 3.94235 -5.19059 0
M  V30 4042 N 372.481 1.55866 -0.233164 0
M  V30 4043 C 373.411 2.23783 0.666599 0
M  V30 4044 C 374.392 1.21343 1.19205 0
M  V30 4045 O 375.577 1.4996 1.23392 0
M  V30 4046 C 372.707 2.92671 1.86978 0
M  V30 4047 C 371.661 4.01682 1.47768 0
M  V30 4048 C 370.987 4.57926 2.76058 0
M  V30 4049 C 372.287 5.18126 0.658993 0
M  V30 4050 H 373.981 2.99232 0.100306 0
M  V30 4051 H 371.527 1.43924 0.046804 0
M  V30 4052 H 373.48 3.3888 2.50476 0
M  V30 4053 H 372.204 2.14688 2.46123 0
M  V30 4054 H 370.863 3.56222 0.866106 0
M  V30 4055 H 370.511 3.76659 3.33372 0
M  V30 4056 H 370.211 5.31505 2.50552 0
M  V30 4057 H 371.735 5.06859 3.40479 0
M  V30 4058 H 373.149 5.60644 1.19795 0
M  V30 4059 H 371.546 5.98009 0.500552 0
M  V30 4060 H 372.616 4.83763 -0.331856 0
M  V30 4061 N 373.959 -0.0401083 1.57549 0
M  V30 4062 C 375.187 -0.745196 1.93014 0
M  V30 4063 C 375.602 -1.6948 0.831984 0
M  V30 4064 O 374.959 -1.81482 -0.192463 0
M  V30 4065 C 375.01 -1.51176 3.28372 0
M  V30 4066 O 374.731 -0.600284 4.33968 0
M  V30 4067 C 376.232 -2.315 3.78051 0
M  V30 4068 H 373.452 -0.210088 0.637263 0
M  V30 4069 H 375.996 -0.000924689 2.045 0
M  V30 4070 H 374.151 -2.20801 3.18317 0
M  V30 4071 H 374.565 -1.13669 5.12035 0
M  V30 4072 H 376.039 -2.80697 4.75303 0
M  V30 4073 H 376.516 -3.12436 3.08675 0
M  V30 4074 H 377.122 -1.66971 3.91153 0
M  V30 4075 N 375.437 -1.54477 -0.31217 0
M  V30 4076 C 376.853 -1.45442 -0.657185 0
M  V30 4077 C 377.053 -0.63653 -1.91182 0
M  V30 4078 O 376.109 -0.139815 -2.52113 0
M  V30 4079 C 377.422 -2.89287 -0.82058 0
M  V30 4080 C 378.97 -2.9926 -0.917188 0
M  V30 4081 C 379.445 -4.44279 -1.11267 0
M  V30 4082 N 380.936 -4.4794 -1.17914 0
M  V30 4083 C 381.671 -5.57318 -1.34848 0
M  V30 4084 N 381.167 -6.76642 -1.48752 0
M  V30 4085 N 382.96 -5.44986 -1.37647 0
M  V30 4086 H 375.111 -2.06129 0.512313 0
M  V30 4087 H 377.374 -0.933088 0.167485 0
M  V30 4088 H 377.08 -3.51687 0.0302604 0
M  V30 4089 H 376.954 -3.36061 -1.71298 0
M  V30 4090 H 379.341 -2.36981 -1.75852 0
M  V30 4091 H 379.422 -2.558 -0.00101257 0
M  V30 4092 H 379.066 -5.07149 -0.27614 0
M  V30 4093 H 378.996 -4.85359 -2.04289 0
M  V30 4094 H 381.487 -3.61969 -1.08567 0
M  V30 4095 H 381.8 -7.55758 -1.61397 0
M  V30 4096 H 380.145 -6.79529 -1.45828 0
M  V30 4097 H 383.336 -4.50715 -1.26388 0
M  V30 4098 H 383.509 -6.3028 -1.50501 0
M  V30 4099 N 376.915 0.57481 -1.46744 0
M  V30 4100 C 378.14 1.36341 -1.56288 0
M  V30 4101 C 378.565 1.86954 -0.207347 0
M  V30 4102 O 377.923 1.62006 0.813871 0
M  V30 4103 C 377.971 2.52147 -2.57787 0
M  V30 4104 O 377.075 3.53834 -2.11838 0
M  V30 4105 H 376.416 0.405713 -0.525636 0
M  V30 4106 H 378.946 0.696453 -1.92382 0
M  V30 4107 H 378.956 2.98958 -2.77648 0
M  V30 4108 H 377.631 2.14663 -3.5622 0
M  V30 4109 H 376.208 3.1345 -2.01999 0
M  V30 4110 N 378.394 1.34581 0.820102 0
M  V30 4111 C 379.805 1.24298 1.39309 0
M  V30 4112 C 380.156 -0.130351 1.95767 0
M  V30 4113 O 379.281 -1.0308 1.90272 0
M  V30 4114 C 379.876 2.25054 2.53251 0
M  V30 4115 C 378.435 2.18552 3.0645 0
M  V30 4116 C 377.582 2.11503 1.79337 0
M  V30 4117 H 380.533 1.45906 0.624262 0
M  V30 4118 H 380.554 1.86917 3.31425 0
M  V30 4119 H 380.066 3.24996 2.1213 0
M  V30 4120 H 378.167 1.21976 3.52069 0
M  V30 4121 H 378.28 3.0993 3.65349 0
M  V30 4122 H 376.644 1.57268 2.00347 0
M  V30 4123 H 377.427 3.13284 1.40386 0
M  V30 4124 N 379.872 -1.04064 1.18357 0
M  V30 4125 C 381.288 -1.2947 0.933258 0
M  V30 4126 C 381.488 -1.97466 -0.401169 0
M  V30 4127 O 380.544 -2.25528 -1.13549 0
M  V30 4128 C 381.857 -2.15337 2.09882 0
M  V30 4129 C 383.405 -2.28683 2.13712 0
M  V30 4130 C 383.88 -3.17917 3.29686 0
M  V30 4131 N 385.371 -3.25504 3.29547 0
M  V30 4132 C 386.106 -3.94706 4.15926 0
M  V30 4133 N 385.602 -4.66239 5.12439 0
M  V30 4134 N 387.395 -3.90986 4.0384 0
M  V30 4135 H 379.546 -0.583359 2.04232 0
M  V30 4136 H 381.809 -0.319921 0.892387 0
M  V30 4137 H 381.515 -1.72682 3.06389 0
M  V30 4138 H 381.389 -3.16015 2.05947 0
M  V30 4139 H 383.776 -2.70575 1.17784 0
M  V30 4140 H 383.857 -1.27596 2.21705 0
M  V30 4141 H 383.501 -2.76736 4.25887 0
M  V30 4142 H 383.431 -4.19036 3.1893 0
M  V30 4143 H 385.922 -2.74547 2.59677 0
M  V30 4144 H 386.235 -5.16638 5.74722 0
M  V30 4145 H 384.58 -4.65143 5.16398 0
M  V30 4146 H 387.771 -3.34234 3.27727 0
M  V30 4147 H 387.944 -4.44646 4.71375 0
M  V30 4148 N 381.35 -0.985608 -1.22978 0
M  V30 4149 C 382.761 -0.693593 -1.73338 0
M  V30 4150 C 383.112 0.789935 -1.79595 0
M  V30 4151 O 382.237 1.61771 -1.43733 0
M  V30 4152 C 382.832 -1.25235 -3.14804 0
M  V30 4153 C 381.391 -1.00987 -3.626 0
M  V30 4154 C 380.538 -1.37695 -2.40698 0
M  V30 4155 H 383.489 -1.15884 -1.08428 0
M  V30 4156 H 383.51 -0.627329 -3.75293 0
M  V30 4157 H 383.022 -2.33209 -3.10218 0
M  V30 4158 H 381.123 0.0535565 -3.72562 0
M  V30 4159 H 381.236 -1.66812 -4.49122 0
M  V30 4160 H 379.6 -0.795459 -2.4196 0
M  V30 4161 H 380.383 -2.46657 -2.38779 0
M  V30 4162 N 382.828 1.3818 -0.7579 0
M  V30 4163 C 384.075 2.00019 -0.315985 0
M  V30 4164 C 384.403 1.60163 1.10355 0
M  V30 4165 O 383.658 0.83264 1.77103 0
M  V30 4166 C 383.957 3.55252 -0.391218 0
M  V30 4167 C 383.623 4.14834 -1.76702 0
M  V30 4168 C 382.285 4.30821 -2.14353 0
M  V30 4169 C 384.637 4.47658 -2.66931 0
M  V30 4170 C 381.965 4.76928 -3.41696 0
M  V30 4171 C 384.317 4.95184 -3.93669 0
M  V30 4172 C 382.981 5.09377 -4.31383 0
M  V30 4173 H 382.251 0.731923 -0.115627 0
M  V30 4174 H 384.898 1.65161 -0.969223 0
M  V30 4175 H 383.203 3.90273 0.34558 0
M  V30 4176 H 384.9 4.00988 -0.030805 0
M  V30 4177 H 381.49 4.02808 -1.46435 0
M  V30 4178 H 385.674 4.34904 -2.39106 0
M  V30 4179 H 380.93 4.86103 -3.70829 0
M  V30 4180 H 385.104 5.19551 -4.63724 0
M  V30 4181 H 382.731 5.44865 -5.30119 0
M  V30 4182 N 384.306 0.507319 1.49211 0
M  V30 4183 C 385.717 0.0611118 1.866 0
M  V30 4184 C 386.068 -1.35488 1.41907 0
M  V30 4185 O 385.193 -2.0108 0.799726 0
M  V30 4186 C 385.788 0.104125 3.3864 0
M  V30 4187 C 384.347 -0.28677 3.75306 0
M  V30 4188 C 383.494 0.473893 2.73221 0
M  V30 4189 H 386.445 0.719775 1.41439 0
M  V30 4190 H 386.466 -0.689672 3.74198 0
M  V30 4191 H 385.978 1.13482 3.71138 0
M  V30 4192 H 384.079 -1.32046 3.48417 0
M  V30 4193 H 384.192 0.0370745 4.79086 0
M  V30 4194 H 382.556 -0.0770644 2.54583 0
M  V30 4195 H 383.339 1.50478 3.08563 0
M  V30 4196 N 385.784 -1.5574 0.241426 0
M  V30 4197 C 387.012 -2.03208 -0.389134 0
M  V30 4198 C 387.427 -1.12082 -1.51931 0
M  V30 4199 O 386.784 -0.134183 -1.82006 0
M  V30 4200 C 386.835 -3.50064 -0.902087 0
M  V30 4201 O 386.556 -4.37717 0.18305 0
M  V30 4202 C 388.057 -4.13268 -1.60389 0
M  V30 4203 H 385.277 -0.664509 -0.0931053 0
M  V30 4204 H 387.821 -2.0124 0.36369 0
M  V30 4205 H 385.976 -3.52583 -1.60511 0
M  V30 4206 H 386.39 -5.24097 -0.205579 0
M  V30 4207 H 387.864 -5.17733 -1.91458 0
M  V30 4208 H 388.341 -3.59434 -2.52397 0
M  V30 4209 H 388.947 -4.14655 -0.945576 0
M  V30 4210 N 387.262 0.0317525 -1.57568 0
M  V30 4211 C 388.192 1.03274 -2.0942 0
M  V30 4212 C 389.173 1.3788 -0.996143 0
M  V30 4213 O 390.358 1.46811 -1.27122 0
M  V30 4214 C 387.488 2.33448 -2.57137 0
M  V30 4215 C 386.442 2.13091 -3.71182 0
M  V30 4216 C 385.768 3.49001 -4.05095 0
M  V30 4217 C 387.068 1.51928 -4.99715 0
M  V30 4218 H 388.762 0.60112 -2.93303 0
M  V30 4219 H 386.308 0.287705 -1.41097 0
M  V30 4220 H 388.261 3.03802 -2.92032 0
M  V30 4221 H 386.985 2.78665 -1.70333 0
M  V30 4222 H 385.644 1.45171 -3.36632 0
M  V30 4223 H 385.292 3.91862 -3.15362 0
M  V30 4224 H 384.992 3.36207 -4.81911 0
M  V30 4225 H 386.516 4.20721 -4.42522 0
M  V30 4226 H 387.93 2.12196 -5.32584 0
M  V30 4227 H 386.327 1.49716 -5.81124 0
M  V30 4228 H 387.397 0.484811 -4.8247 0
M  V30 4229 N 388.74 1.54641 0.303973 0
M  V30 4230 C 389.965 1.78092 1.06292 0
M  V30 4231 C 390.39 0.537342 1.80262 0
M  V30 4232 O 389.748 -0.511993 1.7392 0
M  V30 4233 C 389.796 2.98612 2.02147 0
M  V30 4234 O 388.9 2.71528 3.10397 0
M  V30 4235 H 388.241 0.589548 0.305497 0
M  V30 4236 H 390.771 2.01716 0.3423 0
M  V30 4237 H 390.781 3.265 2.44667 0
M  V30 4238 H 389.456 3.88785 1.47714 0
M  V30 4239 H 388.033 2.54648 2.72413 0
M  V30 4240 N 390.218 -0.567019 1.47046 0
M  V30 4241 C 391.148 -1.68482 1.61667 0
M  V30 4242 C 392.129 -1.6358 0.466418 0
M  V30 4243 O 393.314 -1.81354 0.694574 0
M  V30 4244 C 390.444 -3.07124 1.62148 0
M  V30 4245 C 389.398 -3.26867 2.76301 0
M  V30 4246 C 388.724 -4.66196 2.61849 0
M  V30 4247 C 390.024 -3.13186 4.17986 0
M  V30 4248 H 391.718 -1.56502 2.5524 0
M  V30 4249 H 389.264 -0.751486 1.22836 0
M  V30 4250 H 391.217 -3.8516 1.70968 0
M  V30 4251 H 389.941 -3.2004 0.651287 0
M  V30 4252 H 388.6 -2.51237 2.66975 0
M  V30 4253 H 388.248 -4.75898 1.62879 0
M  V30 4254 H 387.948 -4.80356 3.38425 0
M  V30 4255 H 389.472 -5.46379 2.72584 0
M  V30 4256 H 390.886 -3.81049 4.2834 0
M  V30 4257 H 389.283 -3.3886 4.95272 0
M  V30 4258 H 390.353 -2.10057 4.3704 0
M  V30 4259 N 391.696 -1.35014 -0.812953 0
M  V30 4260 C 392.644 -1.27435 -1.94585 0
M  V30 4261 C 393.638 -0.170494 -1.6854 0
M  V30 4262 O 394.844 -0.336085 -1.76835 0
M  V30 4263 H 391.219 -0.396144 -0.639198 0
M  V30 4264 H 393.19 -2.23158 -1.98098 0
M  V30 4265 C 391.939 -1.05677 -3.31252 0
M  V30 4266 H 391.262 -1.89853 -3.51846 0
M  V30 4267 H 392.702 -1.04413 -4.10943 0
M  V30 4268 C 391.161 0.239615 -3.36047 0
M  V30 4269 O 391.691 1.23759 -3.8216 0
M  V30 4270 N 389.897 0.276186 -2.89285 0
M  V30 4271 H 389.444 -0.53653 -2.51951 0
M  V30 4272 H 389.402 1.14332 -2.92875 0
M  V30 4273 N 393.175 1.03435 -1.18907 0
M  V30 4274 C 394.591 1.28973 -0.940111 0
M  V30 4275 C 394.791 1.97676 0.390691 0
M  V30 4276 O 393.847 2.26127 1.12352 0
M  V30 4277 C 395.16 2.14221 -2.11021 0
M  V30 4278 C 396.708 2.27547 -2.14922 0
M  V30 4279 C 397.183 3.16164 -3.31367 0
M  V30 4280 N 398.674 3.23752 -3.31269 0
M  V30 4281 C 399.409 3.92495 -4.18014 0
M  V30 4282 N 398.905 4.63515 -5.14904 0
M  V30 4283 N 400.698 3.88838 -4.05908 0
M  V30 4284 H 392.849 0.57252 -2.04538 0
M  V30 4285 H 395.112 0.315184 -0.894071 0
M  V30 4286 H 394.818 1.71054 -3.073 0
M  V30 4287 H 394.692 3.14919 -2.0762 0
M  V30 4288 H 397.079 2.69947 -1.19217 0
M  V30 4289 H 397.16 1.26418 -2.22378 0
M  V30 4290 H 396.804 2.74474 -4.27348 0
M  V30 4291 H 396.734 4.17339 -3.21148 0
M  V30 4292 H 399.225 2.73167 -2.61129 0
M  V30 4293 H 399.538 5.13583 -5.77453 0
M  V30 4294 H 397.883 4.62398 -5.18857 0
M  V30 4295 H 401.074 3.32491 -3.29495 0
M  V30 4296 H 401.247 4.4214 -4.73726 0
M  V30 4297 N 394.653 0.992116 1.22453 0
M  V30 4298 C 395.878 0.685644 1.95739 0
M  V30 4299 C 396.303 -0.743 1.72804 0
M  V30 4300 O 395.661 -1.50778 1.00676 0
M  V30 4301 C 395.709 0.996293 3.46564 0
M  V30 4302 O 394.813 0.0945512 4.12292 0
M  V30 4303 H 394.154 0.256694 0.612376 0
M  V30 4304 H 396.684 1.32888 1.5557 0
M  V30 4305 H 396.694 0.93781 3.97076 0
M  V30 4306 H 395.369 2.03733 3.62582 0
M  V30 4307 H 393.946 0.208451 3.72317 0
M  V30 4308 N 396.131 -1.37776 0.765217 0
M  V30 4309 C 397.38 -1.99092 0.323307 0
M  V30 4310 C 397.693 -1.61434 -1.10446 0
M  V30 4311 O 398.899 -2.15805 -1.64743 0
M  V30 4312 C 397.355 -3.56019 0.527098 0
M  V30 4313 C 396.963 -4.0262 1.96471 0
M  V30 4314 C 398.707 -4.2424 0.148483 0
M  V30 4315 C 396.614 -5.52233 2.11644 0
M  V30 4316 H 395.544 -0.744846 0.117137 0
M  V30 4317 H 398.195 -1.57391 0.943417 0
M  V30 4318 H 396.577 -3.95667 -0.162372 0
M  V30 4319 H 397.751 -3.74234 2.68859 0
M  V30 4320 H 396.066 -3.47161 2.29931 0
M  V30 4321 H 398.663 -5.34159 0.240456 0
M  V30 4322 H 399.006 -4.06446 -0.900422 0
M  V30 4323 H 399.539 -3.89872 0.79025 0
M  V30 4324 H 396.278 -5.74945 3.1483 0
M  V30 4325 H 395.798 -5.82324 1.4373 0
M  V30 4326 H 397.477 -6.18106 1.91193 0
M  V30 4327 N 397.609 -0.515225 -1.4894 0
M  V30 4328 C 398.837 0.0206034 -2.0689 0
M  V30 4329 C 399.252 1.29514 -1.37374 0
M  V30 4330 O 398.609 1.76698 -0.456529 0
M  V30 4331 C 398.66 0.26351 -3.60538 0
M  V30 4332 O 398.381 -0.960517 -4.27441 0
M  V30 4333 C 399.882 0.841383 -4.35242 0
M  V30 4334 H 397.102 -0.0268608 -0.670462 0
M  V30 4335 H 399.646 -0.716651 -1.91532 0
M  V30 4336 H 397.801 0.950777 -3.75552 0
M  V30 4337 H 398.215 -0.73212 -5.19365 0
M  V30 4338 H 399.689 0.96085 -5.43573 0
M  V30 4339 H 400.166 1.8427 -3.98674 0
M  V30 4340 H 400.772 0.191143 -4.2487 0
M  V30 4341 N 399.087 1.5561 -0.249682 0
M  V30 4342 C 400.364 1.90932 0.424761 0
M  V30 4343 C 400.744 1.17078 1.75658 0
M  V30 4344 O 400.092 0.289176 2.26663 0
M  V30 4345 C 400.302 3.43975 0.590109 0
M  V30 4346 C 401.65 4.15281 0.884714 0
M  V30 4347 O 402.674 3.49729 0.67587 0
M  V30 4348 O 401.533 5.31236 1.28259 0
M  V30 4349 H 398.627 0.794815 0.228468 0
M  V30 4350 H 401.173 1.67135 -0.293954 0
M  V30 4351 H 399.945 3.89748 -0.34818 0
M  V30 4352 H 399.568 3.73644 1.35926 0
M  V30 4353 N 400.565 -0.0233959 1.57583 0
M  V30 4354 C 401.814 -0.712133 1.8871 0
M  V30 4355 C 402.127 -1.76217 0.848944 0
M  V30 4356 O 403.333 -2.50389 1.04964 0
M  V30 4357 C 401.789 -1.3177 3.3491 0
M  V30 4358 C 401.397 -0.303715 4.46969 0
M  V30 4359 C 403.141 -1.98598 3.75179 0
M  V30 4360 C 401.048 -0.917945 5.84233 0
M  V30 4361 H 399.978 -0.269735 0.704101 0
M  V30 4362 H 402.629 0.0333114 1.8347 0
M  V30 4363 H 401.011 -2.11304 3.34913 0
M  V30 4364 H 402.185 0.465325 4.58445 0
M  V30 4365 H 400.5 0.2628 4.1557 0
M  V30 4366 H 403.097 -2.45416 4.75053 0
M  V30 4367 H 403.44 -2.80659 3.07468 0
M  V30 4368 H 403.973 -1.25831 3.77374 0
M  V30 4369 H 400.712 -0.136633 6.55358 0
M  V30 4370 H 400.232 -1.65669 5.76467 0
M  V30 4371 H 401.911 -1.4236 6.31144 0
M  V30 4372 N 402.043 -1.548 -0.295768 0
M  V30 4373 C 402.953 -1.89177 -1.38742 0
M  V30 4374 C 403.969 -0.786481 -1.55211 0
M  V30 4375 O 405.145 -1.08344 -1.69775 0
M  V30 4376 C 402.21 -2.13663 -2.73036 0
M  V30 4377 C 401.271 -3.37349 -2.65508 0
M  V30 4378 C 400.504 -3.60658 -3.93398 0
M  V30 4379 O 400.727 -2.86882 -4.93006 0
M  V30 4380 O 399.661 -4.54179 -3.94975 0
M  V30 4381 H 403.487 -2.82059 -1.12589 0
M  V30 4382 H 401.072 -1.41056 -0.492295 0
M  V30 4383 H 402.954 -2.3094 -3.52484 0
M  V30 4384 H 401.629 -1.23967 -2.99022 0
M  V30 4385 H 400.536 -3.25431 -1.84514 0
M  V30 4386 H 401.869 -4.27192 -2.44474 0
M  V30 4387 N 403.521 0.559213 -1.47345 0
M  V30 4388 C 404.798 1.31997 -1.44348 0
M  V30 4389 C 405.178 2.1064 -0.139358 0
M  V30 4390 O 404.526 2.1091 0.879153 0
M  V30 4391 C 404.736 2.22618 -2.68779 0
M  V30 4392 C 406.084 2.83701 -3.1591 0
M  V30 4393 O 407.108 2.32921 -2.69493 0
M  V30 4394 O 405.967 3.75993 -3.966 0
M  V30 4395 H 403.061 0.594251 -0.575147 0
M  V30 4396 H 405.607 0.578282 -1.59543 0
M  V30 4397 H 404.379 1.64093 -3.55231 0
M  V30 4398 H 404.002 3.04085 -2.5616 0
M  V30 4399 N 404.999 1.35443 0.805782 0
M  V30 4400 C 406.246 1.28761 1.56291 0
M  V30 4401 C 406.574 -0.137747 1.94012 0
M  V30 4402 O 405.829 -1.1032 1.61642 0
M  V30 4403 C 406.128 2.14045 2.86216 0
M  V30 4404 C 405.794 3.62826 2.67709 0
M  V30 4405 C 404.456 4.0338 2.6237 0
M  V30 4406 C 406.808 4.57227 2.50186 0
M  V30 4407 C 404.136 5.36501 2.37451 0
M  V30 4408 C 406.488 5.90547 2.26797 0
M  V30 4409 C 405.152 6.30245 2.1988 0
M  V30 4410 H 404.422 0.471171 0.571908 0
M  V30 4411 H 407.069 1.67347 0.930974 0
M  V30 4412 H 405.374 1.68342 3.53791 0
M  V30 4413 H 407.071 2.0621 3.43917 0
M  V30 4414 H 403.661 3.30644 2.72713 0
M  V30 4415 H 407.845 4.2678 2.53323 0
M  V30 4416 H 403.101 5.66259 2.30567 0
M  V30 4417 H 407.275 6.63274 2.12228 0
M  V30 4418 H 404.902 7.33328 2.00333 0
M  V30 4419 N 406.477 -1.02803 1.19454 0
M  V30 4420 C 407.705 -1.79841 1.02297 0
M  V30 4421 C 408.12 -1.83879 -0.428259 0
M  V30 4422 O 407.477 -1.28345 -1.29745 0
M  V30 4423 C 407.528 -3.24852 1.58598 0
M  V30 4424 O 407.249 -3.21097 2.98041 0
M  V30 4425 C 408.75 -4.18485 1.46236 0
M  V30 4426 H 405.97 -0.565936 0.360496 0
M  V30 4427 H 408.514 -1.2948 1.58288 0
M  V30 4428 H 406.669 -3.72401 1.06753 0
M  V30 4429 H 407.083 -4.12033 3.24545 0
M  V30 4430 H 408.557 -5.18121 1.90407 0
M  V30 4431 H 409.034 -4.37254 0.41301 0
M  V30 4432 H 409.64 -3.76811 1.97215 0
M  V30 4433 N 407.956 -0.998596 -1.21925 0
M  V30 4434 C 408.886 -0.573688 -2.26343 0
M  V30 4435 C 409.867 0.402296 -1.65274 0
M  V30 4436 O 411.052 0.291683 -1.91997 0
M  V30 4437 C 408.182 0.106839 -3.47136 0
M  V30 4438 C 407.136 -0.788269 -4.20678 0
M  V30 4439 C 406.462 0.0254927 -5.34694 0
M  V30 4440 C 407.762 -2.08784 -4.78755 0
M  V30 4441 H 409.456 -1.44651 -2.62138 0
M  V30 4442 H 407.002 -0.696975 -1.26009 0
M  V30 4443 H 408.955 0.415531 -4.19346 0
M  V30 4444 H 407.679 1.01424 -3.10452 0
M  V30 4445 H 406.338 -1.08069 -3.50309 0
M  V30 4446 H 405.986 0.933989 -4.94253 0
M  V30 4447 H 405.686 -0.570437 -5.84825 0
M  V30 4448 H 407.21 0.328147 -6.09718 0
M  V30 4449 H 408.624 -1.84272 -5.42878 0
M  V30 4450 H 407.021 -2.63307 -5.39249 0
M  V30 4451 H 408.091 -2.76284 -3.98491 0
M  V30 4452 N 409.434 1.37368 -0.772513 0
M  V30 4453 C 410.711 1.93839 -0.26188 0
M  V30 4454 C 411.091 1.7061 1.24319 0
M  V30 4455 O 410.439 1.05534 2.02669 0
M  V30 4456 C 410.649 3.43154 -0.636102 0
M  V30 4457 C 411.997 4.20249 -0.606324 0
M  V30 4458 O 413.021 3.5152 -0.575538 0
M  V30 4459 O 411.88 5.42809 -0.634086 0
M  V30 4460 H 408.974 0.82478 -0.0605555 0
M  V30 4461 H 411.52 1.4665 -0.853917 0
M  V30 4462 H 410.292 3.53647 -1.6748 0
M  V30 4463 H 409.915 3.97596 -0.0170516 0
M  V30 4464 N 410.912 0.523116 1.48665 0
M  V30 4465 C 412.189 -0.0775449 1.95446 0
M  V30 4466 C 412.569 -1.5197 1.4652 0
M  V30 4467 O 411.917 -2.17876 0.688657 0
M  V30 4468 C 412.127 0.0326135 3.48985 0
M  V30 4469 C 413.475 -0.130141 4.24401 0
M  V30 4470 O 414.499 -0.0415142 3.56176 0
M  V30 4471 O 413.358 -0.31491 5.45592 0
M  V30 4472 H 410.452 -0.0831012 0.822814 0
M  V30 4473 H 412.998 0.587227 1.59216 0
M  V30 4474 H 411.77 1.03748 3.77296 0
M  V30 4475 H 411.393 -0.671317 3.91892 0
M  V30 4476 N 412.39 -1.55475 0.257931 0
M  V30 4477 C 413.637 -1.99207 -0.363728 0
M  V30 4478 C 413.965 -1.1462 -1.57139 0
M  V30 4479 O 413.22 -0.199653 -1.94679 0
M  V30 4480 C 413.519 -3.48183 -0.806433 0
M  V30 4481 C 413.185 -4.49936 0.294684 0
M  V30 4482 C 411.847 -4.77481 0.597076 0
M  V30 4483 C 414.199 -5.10769 1.03751 0
M  V30 4484 C 411.527 -5.63132 1.64618 0
M  V30 4485 C 413.879 -5.97558 2.07622 0
M  V30 4486 C 412.543 -6.23432 2.38514 0
M  V30 4487 H 411.813 -0.728949 -0.133097 0
M  V30 4488 H 414.46 -1.8793 0.368059 0
M  V30 4489 H 412.765 -3.56848 -1.61761 0
M  V30 4490 H 414.462 -3.79415 -1.29789 0
M  V30 4491 H 411.052 -4.28572 0.0488649 0
M  V30 4492 H 415.236 -4.89527 0.817149 0
M  V30 4493 H 410.492 -5.8143 1.89074 0
M  V30 4494 H 414.666 -6.43735 2.65666 0
M  V30 4495 H 412.293 -6.89594 3.19943 0
M  V30 4496 N 413.868 0.0150385 -1.57593 0
M  V30 4497 C 414.816 1.02958 -2.08572 0
M  V30 4498 C 415.81 1.36554 -1.00246 0
M  V30 4499 O 417.016 1.35295 -1.18724 0
M  V30 4500 H 413.391 0.349619 -0.665786 0
M  V30 4501 H 415.362 0.573932 -2.92829 0
M  V30 4502 C 414.111 2.31752 -2.59203 0
M  V30 4503 H 413.434 2.06765 -3.42182 0
M  V30 4504 H 414.874 3.01053 -2.98568 0
M  V30 4505 C 413.333 3.01692 -1.49945 0
M  V30 4506 O 413.863 3.92083 -0.873704 0
M  V30 4507 N 412.069 2.6326 -1.23056 0
M  V30 4508 H 411.616 1.89838 -1.74125 0
M  V30 4509 H 411.574 3.10372 -0.501685 0
M  V30 4510 N 415.346 1.54954 0.287554 0
M  V30 4511 C 416.595 1.74081 1.01877 0
M  V30 4512 C 416.908 0.541135 1.87966 0
M  V30 4513 O 418.114 0.614491 2.64455 0
M  V30 4514 C 416.57 3.08042 1.86113 0
M  V30 4515 C 416.178 4.35531 1.04961 0
M  V30 4516 C 417.922 3.36523 2.58752 0
M  V30 4517 C 415.829 5.60538 1.88551 0
M  V30 4518 H 414.759 0.64884 0.384087 0
M  V30 4519 H 417.41 1.81426 0.275101 0
M  V30 4520 H 415.792 2.94696 2.64519 0
M  V30 4521 H 416.966 4.59751 0.31074 0
M  V30 4522 H 415.281 4.14085 0.43843 0
M  V30 4523 H 417.878 4.27122 3.21668 0
M  V30 4524 H 418.221 2.56 3.28283 0
M  V30 4525 H 418.754 3.50901 1.87386 0
M  V30 4526 H 415.493 6.43767 1.23466 0
M  V30 4527 H 415.013 5.40483 2.60074 0
M  V30 4528 H 416.692 5.98297 2.46273 0
M  V30 4529 N 416.824 -0.551391 1.4764 0
M  V30 4530 C 417.756 -1.67333 1.56628 0
M  V30 4531 C 418.769 -1.56398 0.452045 0
M  V30 4532 O 419.958 -1.6325 0.721926 0
M  V30 4533 C 417.058 -3.05841 1.45994 0
M  V30 4534 C 416.231 -3.42472 2.72088 0
M  V30 4535 C 415.29 -4.60168 2.55209 0
M  V30 4536 O 414.316 -4.64458 3.2904 0
M  V30 4537 N 415.518 -5.57024 1.63416 0
M  V30 4538 H 418.283 -1.60066 2.53375 0
M  V30 4539 H 415.844 -0.738169 1.44093 0
M  V30 4540 H 417.836 -3.8242 1.32428 0
M  V30 4541 H 416.406 -3.07302 0.573071 0
M  V30 4542 H 415.626 -2.55284 3.00373 0
M  V30 4543 H 416.914 -3.63723 3.55785 0
M  V30 4544 H 416.312 -5.56319 1.02594 0
M  V30 4545 H 414.869 -6.32906 1.558 0
M  V30 4546 N 418.302 -1.35869 -0.798587 0
M  V30 4547 C 419.25 -1.29491 -1.93222 0
M  V30 4548 C 420.244 -0.18836 -1.6835 0
M  V30 4549 O 421.45 -0.354822 -1.76468 0
M  V30 4550 H 417.825 -0.402901 -0.63496 0
M  V30 4551 H 419.796 -2.25247 -1.9572 0
M  V30 4552 C 418.545 -1.09184 -3.30112 0
M  V30 4553 H 417.868 -1.93574 -3.49813 0
M  V30 4554 H 419.308 -1.08766 -4.09812 0
M  V30 4555 C 417.767 0.203959 -3.36282 0
M  V30 4556 O 418.297 1.19699 -3.83451 0
M  V30 4557 N 416.503 0.245488 -2.89561 0
M  V30 4558 H 416.05 -0.563223 -2.51367 0
M  V30 4559 H 416.008 1.11219 -2.94071 0
M  V30 4560 N 419.78 1.02168 -1.19998 0
M  V30 4561 C 421.01 1.79036 -1.031 0
M  V30 4562 C 421.418 1.84409 0.423078 0
M  V30 4563 O 420.761 1.29228 1.30559 0
M  V30 4564 C 420.823 3.25185 -1.53281 0
M  V30 4565 C 420.487 3.43431 -3.01503 0
M  V30 4566 C 421.484 3.33063 -3.99206 0
M  V30 4567 C 419.169 3.69412 -3.40353 0
M  V30 4568 C 421.163 3.48413 -5.33748 0
M  V30 4569 C 418.85 3.84406 -4.75053 0
M  V30 4570 C 419.848 3.7391 -5.71559 0
M  V30 4571 O 419.536 3.88452 -7.03818 0
M  V30 4572 H 419.268 0.570043 -0.363355 0
M  V30 4573 H 421.822 1.29524 -1.59414 0
M  V30 4574 H 420.052 3.75756 -0.913483 0
M  V30 4575 H 421.741 3.83671 -1.32481 0
M  V30 4576 H 422.507 3.12934 -3.70537 0
M  V30 4577 H 418.386 3.76671 -2.65782 0
M  V30 4578 H 421.93 3.40137 -6.09059 0
M  V30 4579 H 417.827 4.04035 -5.03415 0
M  V30 4580 H 418.595 4.055 -7.10993 0
M  V30 4581 N 421.258 1.00505 1.21394 0
M  V30 4582 C 422.208 0.536503 2.21598 0
M  V30 4583 C 423.192 -0.401914 1.55799 0
M  V30 4584 O 424.384 -0.226757 1.75541 0
M  V30 4585 C 421.513 -0.135446 3.43033 0
M  V30 4586 C 420.599 0.823992 4.16018 0
M  V30 4587 N 420.99 1.97683 4.6557 0
M  V30 4588 C 419.288 0.642387 4.4135 0
M  V30 4589 C 419.989 2.58003 5.21354 0
M  V30 4590 N 418.965 1.86162 5.1073 0
M  V30 4591 H 422.767 1.41557 2.57563 0
M  V30 4592 H 420.281 0.868878 1.37202 0
M  V30 4593 H 422.278 -0.488584 4.14027 0
M  V30 4594 H 420.938 -1.01049 3.08576 0
M  V30 4595 H 421.949 2.3572 4.61147 0
M  V30 4596 H 418.626 -0.185578 4.17087 0
M  V30 4597 H 420.016 3.555 5.70149 0
M  V30 4598 N 422.737 -1.36956 0.779787 0
M  V30 4599 C 424.148 -1.82094 0.412156 0
M  V30 4600 C 424.499 -1.64926 -1.06273 0
M  V30 4601 O 423.624 -1.16483 -1.82375 0
M  V30 4602 C 424.219 -3.3059 0.741319 0
M  V30 4603 C 422.778 -3.73974 0.426641 0
M  V30 4604 C 421.925 -2.59368 0.980987 0
M  V30 4605 H 424.876 -1.25314 0.973758 0
M  V30 4606 H 424.897 -3.80489 0.028887 0
M  V30 4607 H 424.409 -3.43054 1.81482 0
M  V30 4608 H 422.51 -3.67076 -0.639215 0
M  V30 4609 H 422.623 -4.69778 0.940515 0
M  V30 4610 H 420.987 -2.51463 0.404757 0
M  V30 4611 H 421.77 -2.74621 2.06005 0
M  V30 4612 N 424.215 -0.530993 -1.48385 0
M  V30 4613 C 425.445 -0.00133928 -2.066 0
M  V30 4614 C 425.853 1.28599 -1.38777 0
M  V30 4615 O 425.196 1.77599 -0.469495 0
M  V30 4616 C 425.258 0.292137 -3.58311 0
M  V30 4617 C 424.922 -0.901864 -4.48013 0
M  V30 4618 C 425.919 -1.80053 -4.87726 0
M  V30 4619 C 423.604 -1.10915 -4.89901 0
M  V30 4620 C 425.598 -2.89038 -5.68098 0
M  V30 4621 C 423.285 -2.20213 -5.70043 0
M  V30 4622 C 424.283 -3.09107 -6.0905 0
M  V30 4623 O 423.971 -4.16514 -6.87583 0
M  V30 4624 H 423.703 -0.0308475 -0.675296 0
M  V30 4625 H 426.257 -0.736335 -1.91748 0
M  V30 4626 H 424.487 1.08112 -3.7128 0
M  V30 4627 H 426.176 0.763994 -3.98645 0
M  V30 4628 H 426.942 -1.65234 -4.55986 0
M  V30 4629 H 422.821 -0.426498 -4.59023 0
M  V30 4630 H 426.365 -3.58451 -5.98464 0
M  V30 4631 H 422.262 -2.35016 -6.01197 0
M  V30 4632 H 423.03 -4.14237 -7.05939 0
M  V30 4633 N 425.693 1.55336 -0.266172 0
M  V30 4634 C 426.603 2.2583 0.635458 0
M  V30 4635 C 427.619 1.28106 1.17749 0
M  V30 4636 O 428.795 1.61024 1.20968 0
M  V30 4637 C 425.86 2.95879 1.80712 0
M  V30 4638 C 424.921 4.09059 1.30265 0
M  V30 4639 C 424.154 4.75759 2.41846 0
M  V30 4640 O 424.377 4.41622 3.61007 0
M  V30 4641 O 423.311 5.63888 2.1051 0
M  V30 4642 H 427.137 3.03631 0.0646693 0
M  V30 4643 H 424.722 1.49361 -0.0339177 0
M  V30 4644 H 426.604 3.39932 2.49047 0
M  V30 4645 H 425.279 2.21002 2.36516 0
M  V30 4646 H 424.186 3.69482 0.586019 0
M  V30 4647 H 425.519 4.85811 0.790458 0
M  V30 4648 N 427.171 -0.0066808 1.57599 0
M  V30 4649 C 428.399 -0.704087 1.94551 0
M  V30 4650 C 428.814 -1.67677 0.867746 0
M  V30 4651 O 428.171 -1.8185 -0.153925 0
M  V30 4652 C 428.222 -1.44177 3.31505 0
M  V30 4653 O 427.943 -0.508097 4.35144 0
M  V30 4654 C 429.444 -2.23429 3.82876 0
M  V30 4655 H 426.664 -0.196523 0.641576 0
M  V30 4656 H 429.208 0.042453 2.04456 0
M  V30 4657 H 427.363 -2.13999 3.22929 0
M  V30 4658 H 427.777 -1.02782 5.14331 0
M  V30 4659 H 429.251 -2.70552 4.8115 0
M  V30 4660 H 429.728 -3.05818 3.15233 0
M  V30 4661 H 430.334 -1.58636 3.94607 0
M  V30 4662 N 428.649 -1.55105 -0.279332 0
M  V30 4663 C 429.898 -1.74618 -1.00952 0
M  V30 4664 C 430.211 -0.551096 -1.87676 0
M  V30 4665 O 431.417 -0.628507 -2.64125 0
M  V30 4666 C 429.873 -3.09025 -1.84476 0
M  V30 4667 C 429.481 -4.36081 -1.0265 0
M  V30 4668 C 431.225 -3.37891 -2.56963 0
M  V30 4669 C 429.132 -5.6153 -1.85576 0
M  V30 4670 H 428.062 -0.650868 -0.38064 0
M  V30 4671 H 430.713 -1.81569 -0.265475 0
M  V30 4672 H 429.095 -2.96095 -2.62952 0
M  V30 4673 H 430.269 -4.59909 -0.286354 0
M  V30 4674 H 428.584 -4.14312 -0.416464 0
M  V30 4675 H 431.181 -4.28822 -3.19399 0
M  V30 4676 H 431.524 -2.57737 -3.26921 0
M  V30 4677 H 432.057 -3.5189 -1.85522 0
M  V30 4678 H 428.796 -6.44413 -1.2005 0
M  V30 4679 H 428.316 -5.41854 -2.57204 0
M  V30 4680 H 429.995 -5.99594 -2.43096 0
M  V30 4681 N 430.127 0.543554 -1.4793 0
M  V30 4682 C 431.074 1.64942 -1.6144 0
M  V30 4683 C 432.044 1.59692 -0.456903 0
M  V30 4684 O 433.229 1.78321 -0.678688 0
M  V30 4685 C 430.369 3.03238 -1.64744 0
M  V30 4686 C 429.482 3.18823 -2.91506 0
M  V30 4687 C 428.617 4.47599 -2.86057 0
M  V30 4688 C 427.656 4.56664 -4.07584 0
M  V30 4689 N 426.793 5.76811 -4.00292 0
M  V30 4690 H 431.633 1.52733 -2.55884 0
M  V30 4691 H 429.17 0.7438 -1.2691 0
M  V30 4692 H 431.128 3.83339 -1.64641 0
M  V30 4693 H 429.758 3.1425 -0.738017 0
M  V30 4694 H 428.81 2.32064 -3.01414 0
M  V30 4695 H 430.122 3.21384 -3.81463 0
M  V30 4696 H 429.276 5.35975 -2.84281 0
M  V30 4697 H 428.015 4.47538 -1.93807 0
M  V30 4698 H 427.02 3.66697 -4.09651 0
M  V30 4699 H 428.245 4.58474 -5.00978 0
M  V30 4700 H 426.191 5.77673 -3.10853 0
M  V30 4701 H 426.108 5.80808 -4.8394 0
M  V30 4702 H 427.376 6.67512 -4.02553 0
M  V30 4703 N 431.605 1.3629 0.791371 0
M  V30 4704 C 432.538 1.24816 1.9104 0
M  V30 4705 C 433.516 0.132739 1.62057 0
M  V30 4706 O 434.7 0.303527 1.8604 0
M  V30 4707 C 431.827 0.925355 3.25814 0
M  V30 4708 C 430.873 2.05495 3.7373 0
M  V30 4709 S 431.706 3.67255 3.89723 0
M  V30 4710 C 432.862 3.37084 5.27376 0
M  V30 4711 H 433.095 2.19533 2.00481 0
M  V30 4712 H 430.628 1.21684 0.950393 0
M  V30 4713 H 432.586 0.745924 4.03666 0
M  V30 4714 H 431.247 -0.00400098 3.141 0
M  V30 4715 H 430.44 1.7836 4.71385 0
M  V30 4716 H 430.042 2.1935 3.02922 0
M  V30 4717 H 432.334 2.90856 6.1189 0
M  V30 4718 H 433.277 4.33995 5.59512 0
M  V30 4719 H 433.685 2.7248 4.94383 0
M  V30 4720 N 433.083 -1.0153 1.20538 0
M  V30 4721 C 434.03 -2.10098 0.955383 0
M  V30 4722 C 435 -1.65702 -0.114878 0
M  V30 4723 O 436.185 -1.90776 0.0301118 0
M  V30 4724 C 433.325 -3.41236 0.514969 0
M  V30 4725 C 432.438 -3.99102 1.65353 0
M  V30 4726 C 431.573 -5.18306 1.16329 0
M  V30 4727 C 430.612 -5.68258 2.27485 0
M  V30 4728 N 429.749 -6.78722 1.7967 0
M  V30 4729 H 434.589 -2.30818 1.88486 0
M  V30 4730 H 432.126 -1.13189 0.939499 0
M  V30 4731 H 434.084 -4.16504 0.240935 0
M  V30 4732 H 432.714 -3.20585 -0.377512 0
M  V30 4733 H 431.766 -3.20918 2.04245 0
M  V30 4734 H 433.078 -4.32177 2.49047 0
M  V30 4735 H 432.232 -6.00782 0.845302 0
M  V30 4736 H 430.971 -4.86799 0.296254 0
M  V30 4737 H 429.976 -4.84385 2.60099 0
M  V30 4738 H 431.201 -6.01798 3.14667 0
M  V30 4739 H 429.147 -6.49042 0.95295 0
M  V30 4740 H 429.064 -7.10996 2.56944 0
M  V30 4741 H 430.332 -7.64759 1.50875 0
M  V30 4742 N 434.561 -1.01147 -1.20859 0
M  V30 4743 C 435.494 -0.522108 -2.22147 0
M  V30 4744 C 436.472 0.427686 -1.56874 0
M  V30 4745 O 437.656 0.34889 -1.85243 0
M  V30 4746 C 434.783 0.240819 -3.37843 0
M  V30 4747 C 433.829 -0.657752 -4.21398 0
M  V30 4748 S 434.662 -2.12393 -4.91578 0
M  V30 4749 C 435.818 -1.37102 -6.10699 0
M  V30 4750 H 436.051 -1.38035 -2.63313 0
M  V30 4751 H 433.584 -0.819941 -1.30829 0
M  V30 4752 H 435.542 0.674908 -4.04914 0
M  V30 4753 H 434.203 1.07457 -2.95147 0
M  V30 4754 H 433.396 -0.0697456 -5.03952 0
M  V30 4755 H 432.998 -1.0294 -3.59555 0
M  V30 4756 H 435.29 -0.648315 -6.74391 0
M  V30 4757 H 436.233 -2.17252 -6.73949 0
M  V30 4758 H 436.641 -0.876154 -5.57659 0
M  V30 4759 N 436.039 1.36541 -0.78704 0
M  V30 4760 C 437.264 2.0409 -0.369053 0
M  V30 4761 C 437.689 1.58957 1.00569 0
M  V30 4762 O 437.047 0.756926 1.64743 0
M  V30 4763 C 437.095 3.57924 -0.438466 0
M  V30 4764 O 436.199 4.08642 0.555479 0
M  V30 4765 H 435.54 0.645142 -0.157122 0
M  V30 4766 H 438.07 1.74545 -1.06749 0
M  V30 4767 H 438.08 4.06887 -0.301218 0
M  V30 4768 H 436.755 3.90127 -1.44132 0
M  V30 4769 H 435.332 3.70958 0.380088 0
M  V30 4770 N 437.518 0.538854 1.48102 0
M  V30 4771 C 438.767 0.0059532 2.01699 0
M  V30 4772 C 439.08 -1.34476 1.42041 0
M  V30 4773 O 440.286 -1.96653 1.87189 0
M  V30 4774 C 438.742 -0.0397627 3.59878 0
M  V30 4775 C 438.35 1.30659 4.28523 0
M  V30 4776 C 440.094 -0.521024 4.2129 0
M  V30 4777 C 438.001 1.22098 5.78659 0
M  V30 4778 H 436.931 -0.00154456 0.753998 0
M  V30 4779 H 439.582 0.683963 1.70277 0
M  V30 4780 H 437.964 -0.783037 3.88181 0
M  V30 4781 H 439.138 2.06613 4.11883 0
M  V30 4782 H 437.453 1.7243 3.79021 0
M  V30 4783 H 440.05 -0.603184 5.31287 0
M  V30 4784 H 440.393 -1.52885 3.8721 0
M  V30 4785 H 440.926 0.166834 3.9745 0
M  V30 4786 H 437.665 2.20424 6.17328 0
M  V30 4787 H 437.185 0.50295 5.97688 0
M  V30 4788 H 438.864 0.915345 6.40492 0
M  V30 4789 O 439.035 -1.56041 0.416352 0
M  V30 4790 H 439.726 -1.93313 -0.122438 0
M  V30 END ATOM
M  V30 BEGIN BOND
M  V30 END BOND
M  V30 END CTAB
M  END
$$$$
