drugbank_target|P22188 UDP-N-acetylmuramoyl-L-alanyl-D-glutamate--2,6-diaminopimelate ligase (DB02314; DB03590; DB03801)
 OpenBabel12092119553D

  0  0  0     0  0            999 V3000
M  V30 BEGIN CTAB
M  V30 COUNTS 7444 7514 0 0 0
M  V30 BEGIN ATOM
M  V30 1 H -0.908 1.98254 -0.117106 0
M  V30 2 N 0 1.576 0 0
M  V30 3 C 0.933 2.03868 1.02534 0
M  V30 4 C 1.911 0.928543 1.3348 0
M  V30 5 O 3.095 1.19667 1.45644 0
M  V30 6 C 0.222 2.43627 2.35294 0
M  V30 7 C -0.732 3.65373 2.2001 0
M  V30 8 S 0.101 5.13292 1.52614 0
M  V30 9 C 1.257 5.56322 2.86805 0
M  V30 10 H 1.49 2.90518 0.631377 0
M  V30 11 H -0.977 1.52953 0.210867 0
M  V30 12 H 0.981 2.67203 3.11629 0
M  V30 13 H -0.358 1.57376 2.7183 0
M  V30 14 H -1.165 3.90944 3.18086 0
M  V30 15 H -1.563 3.418 1.51819 0
M  V30 16 H 0.729 5.58782 3.83104 0
M  V30 17 H 1.672 6.56266 2.65933 0
M  V30 18 H 2.08 4.83886 2.90714 0
M  V30 19 N 1.4781 -0.272755 1.55222 0
M  V30 20 C 2.4411 -1.32041 1.87344 0
M  V30 21 C 3.4411 -1.42342 0.74803 0
M  V30 22 O 4.6311 -1.41488 1.0162 0
M  V30 23 C 1.7631 -2.70173 2.07893 0
M  V30 24 H 2.9561 -1.04789 2.80997 0
M  V30 25 H 0.5091 -0.51083 1.47717 0
M  V30 26 H 1.2441 -3.02605 1.16622 0
M  V30 27 H 1.0291 -2.64082 2.89833 0
M  V30 28 H 2.5191 -3.45869 2.34017 0
M  V30 29 N 2.9562 -1.48159 -0.537278 0
M  V30 30 C 4.2332 -1.46291 -1.29839 0
M  V30 31 C 4.6132 -0.170613 -2.10409 0
M  V30 32 O 3.9612 0.847746 -2.12192 0
M  V30 33 C 4.1712 -2.72055 -2.18603 0
M  V30 34 C 5.5192 -3.20087 -2.7898 0
M  V30 35 O 6.5432 -2.72921 -2.28894 0
M  V30 36 O 5.4022 -4.02138 -3.70064 0
M  V30 37 H 2.4962 -0.583906 -0.585647 0
M  V30 38 H 5.0422 -1.60384 -0.554534 0
M  V30 39 H 3.8142 -3.57628 -1.58801 0
M  V30 40 H 3.4372 -2.60646 -3.00249 0
M  V30 41 N 4.4343 0.785586 -1.36625 0
M  V30 42 C 5.8503 1.08419 -1.17122 0
M  V30 43 C 6.0503 2.015 0.00208491 0
M  V30 44 O 5.1063 2.43551 0.666278 0
M  V30 45 C 6.4193 1.69498 -2.48377 0
M  V30 46 C 7.9673 1.81821 -2.54775 0
M  V30 47 C 8.4423 2.46315 -3.86126 0
M  V30 48 N 9.9333 2.53779 -3.87492 0
M  V30 49 C 10.6683 3.045 -4.85868 0
M  V30 50 N 10.1643 3.55499 -5.94637 0
M  V30 51 N 11.9573 3.03247 -4.73284 0
M  V30 52 H 4.1083 0.167264 -2.1174 0
M  V30 53 H 6.3713 0.13682 -0.938075 0
M  V30 54 H 6.0773 1.08571 -3.34522 0
M  V30 55 H 5.9513 2.6896 -2.64462 0
M  V30 56 H 8.3383 2.41884 -1.69045 0
M  V30 57 H 8.4193 0.811532 -2.42586 0
M  V30 58 H 8.0633 1.86895 -4.72263 0
M  V30 59 H 7.9933 3.47561 -3.95612 0
M  V30 60 H 10.4843 2.17672 -3.08913 0
M  V30 61 H 10.7973 3.92562 -6.65669 0
M  V30 62 H 9.1423 3.5364 -5.98301 0
M  V30 63 H 12.3333 2.62696 -3.87438 0
M  V30 64 H 12.5063 3.42467 -5.50109 0
M  V30 65 N 5.9124 1.20967 1.01018 0
M  V30 66 C 6.8604 0.961223 2.1181 0
M  V30 67 C 7.8544 -0.0897034 1.69162 0
M  V30 68 O 9.0604 0.0612271 1.79896 0
M  V30 69 H 5.4354 0.29355 0.692338 0
M  V30 70 H 7.4064 1.90178 2.29946 0
M  V30 71 C 6.1554 0.536854 3.4353 0
M  V30 72 H 5.4784 1.33713 3.76777 0
M  V30 73 H 6.9184 0.402286 4.22087 0
M  V30 74 C 5.3774 -0.751574 3.2841 0
M  V30 75 O 5.9074 -1.80841 3.58691 0
M  V30 76 N 4.1134 -0.716079 2.81639 0
M  V30 77 H 3.6604 0.144236 2.57196 0
M  V30 78 H 3.6184 -1.57847 2.71904 0
M  V30 79 N 7.3905 -1.2043 1.01659 0
M  V30 80 C 8.3205 -2.25466 0.607226 0
M  V30 81 C 9.3015 -1.65853 -0.377716 0
M  V30 82 O 10.4865 -1.92409 -0.263149 0
M  V30 83 C 7.6165 -3.47256 -0.0552949 0
M  V30 84 C 6.5705 -4.19462 0.850632 0
M  V30 85 C 5.8965 -5.34673 0.0538859 0
M  V30 86 C 7.1965 -4.75603 2.15868 0
M  V30 87 H 8.8905 -2.59962 1.48526 0
M  V30 88 H 6.4365 -1.2496 0.715605 0
M  V30 89 H 8.3895 -4.19917 -0.353233 0
M  V30 90 H 7.1135 -3.11924 -0.968045 0
M  V30 91 H 5.7725 -3.48667 1.13257 0
M  V30 92 H 5.4205 -4.95585 -0.860514 0
M  V30 93 H 5.1205 -5.83913 0.657192 0
M  V30 94 H 6.6445 -6.10138 -0.237598 0
M  V30 95 H 8.0585 -5.40083 1.92311 0
M  V30 96 H 6.4555 -5.3528 2.71284 0
M  V30 97 H 7.5255 -3.94346 2.82169 0
M  V30 98 N 8.8686 -0.792821 -1.36206 0
M  V30 99 C 10.2846 -0.474903 -1.52371 0
M  V30 100 C 10.4846 1.00622 -1.74578 0
M  V30 101 O 9.5406 1.79162 -1.77924 0
M  V30 102 C 10.8536 -1.3083 -2.70747 0
M  V30 103 C 12.4016 -1.30234 -2.84619 0
M  V30 104 C 12.8766 -2.11956 -4.06004 0
M  V30 105 N 14.3676 -2.09419 -4.13156 0
M  V30 106 C 15.1026 -2.69419 -5.06163 0
M  V30 107 N 14.5986 -3.3829 -6.04592 0
M  V30 108 N 16.3916 -2.59134 -4.98804 0
M  V30 109 H 8.5426 -1.75222 -1.20046 0
M  V30 110 H 10.8056 -0.745024 -0.586211 0
M  V30 111 H 10.5116 -2.35881 -2.6087 0
M  V30 112 H 10.3856 -0.95196 -3.6499 0
M  V30 113 H 12.7726 -0.259748 -2.93955 0
M  V30 114 H 12.8536 -1.69847 -1.91274 0
M  V30 115 H 12.4976 -3.16248 -3.97429 0
M  V30 116 H 12.4276 -1.69711 -4.98503 0
M  V30 117 H 14.9186 -1.59297 -3.42685 0
M  V30 118 H 15.2316 -3.81394 -6.7213 0
M  V30 119 H 13.5766 -3.42393 -6.04807 0
M  V30 120 H 16.7676 -2.04927 -4.20859 0
M  V30 121 H 16.9406 -3.06185 -5.711 0
M  V30 122 N 10.3467 1.47872 -0.545128 0
M  V30 123 C 11.6237 1.9554 0.0485222 0
M  V30 124 C 12.0037 1.4876 1.49779 0
M  V30 125 O 11.3517 0.720925 2.16829 0
M  V30 126 C 11.5617 3.48898 -0.084417 0
M  V30 127 C 12.9097 4.24547 0.0671239 0
M  V30 128 O 13.9337 3.56198 -0.0113649 0
M  V30 129 O 12.7927 5.45999 0.233882 0
M  V30 130 H 9.8867 0.823957 0.0708773 0
M  V30 131 H 12.4327 1.58327 -0.610798 0
M  V30 132 H 11.2047 3.75714 -1.09337 0
M  V30 133 H 10.8277 3.92845 0.613066 0
M  V30 134 N 11.8248 0.280983 1.55075 0
M  V30 135 C 12.7548 -0.597469 2.25727 0
M  V30 136 C 13.7358 -1.15417 1.24952 0
M  V30 137 O 14.9208 -1.18722 1.53684 0
M  V30 138 C 12.0508 -1.7789 2.98283 0
M  V30 139 C 11.0048 -1.35347 4.06036 0
M  V30 140 C 10.3308 -2.61846 4.66198 0
M  V30 141 C 11.6308 -0.499354 5.19907 0
M  V30 142 H 13.3248 -0.00824265 2.99399 0
M  V30 143 H 10.8708 -0.0025244 1.44 0
M  V30 144 H 12.8238 -2.39937 3.46422 0
M  V30 145 H 11.5478 -2.39405 2.22155 0
M  V30 146 H 10.2068 -0.756156 3.58717 0
M  V30 147 H 9.8548 -3.21632 3.86732 0
M  V30 148 H 9.5548 -2.3409 5.38958 0
M  V30 149 H 11.0788 -3.24732 5.1709 0
M  V30 150 H 12.4928 -1.02498 5.64063 0
M  V30 151 H 10.8898 -0.316424 5.99265 0
M  V30 152 H 11.9598 0.480459 4.82514 0
M  V30 153 N 13.3029 -1.57598 0.00835791 0
M  V30 154 C 14.2329 -2.1198 -0.979113 0
M  V30 155 C 15.2139 -1.03091 -1.35301 0
M  V30 156 O 16.3989 -1.30818 -1.43528 0
M  V30 157 C 13.5289 -2.62995 -2.26828 0
M  V30 158 C 12.4829 -3.76485 -2.03576 0
M  V30 159 C 11.8089 -4.13846 -3.38579 0
M  V30 160 C 13.1089 -5.0342 -1.39161 0
M  V30 161 H 14.8029 -2.94738 -0.526281 0
M  V30 162 H 12.3489 -1.41783 -0.251704 0
M  V30 163 H 14.3019 -2.99669 -2.96271 0
M  V30 164 H 13.0259 -1.7737 -2.7424 0
M  V30 165 H 11.6849 -3.40217 -1.36557 0
M  V30 166 H 11.3329 -3.25232 -3.83709 0
M  V30 167 H 11.0329 -4.90312 -3.23834 0
M  V30 168 H 12.5569 -4.53086 -4.09323 0
M  V30 169 H 13.9709 -5.37812 -1.98573 0
M  V30 170 H 12.3679 -5.84746 -1.34878 0
M  V30 171 H 13.4379 -4.83548 -0.361868 0
M  V30 172 N 14.781 0.264519 -1.55364 0
M  V30 173 C 15.744 1.31046 -1.88042 0
M  V30 174 C 16.744 1.41943 -0.755569 0
M  V30 175 O 17.934 1.40947 -1.02369 0
M  V30 176 C 15.066 2.69067 -2.09323 0
M  V30 177 H 16.259 1.03297 -2.81549 0
M  V30 178 H 13.812 0.502989 -1.47986 0
M  V30 179 H 14.547 3.01982 -1.18226 0
M  V30 180 H 14.332 2.62542 -2.91229 0
M  V30 181 H 15.822 3.44623 -2.35848 0
M  V30 182 N 16.2591 1.48442 0.529413 0
M  V30 183 C 17.6701 1.5002 1.11134 0
M  V30 184 C 18.0211 0.27031 1.94329 0
M  V30 185 O 17.1461 -0.622507 2.07253 0
M  V30 186 C 17.7411 2.71834 2.02217 0
M  V30 187 C 16.3001 2.76283 2.55627 0
M  V30 188 C 15.4471 2.43542 1.326 0
M  V30 189 H 18.3981 1.5555 0.314641 0
M  V30 190 H 18.4191 2.50384 2.8651 0
M  V30 191 H 17.9311 3.61331 1.41639 0
M  V30 192 H 16.0321 1.90995 3.19924 0
M  V30 193 H 16.1451 3.77725 2.94721 0
M  V30 194 H 14.5091 1.94709 1.64196 0
M  V30 195 H 15.2921 3.3528 0.737734 0
M  V30 196 N 17.7372 -0.778329 1.37039 0
M  V30 197 C 18.9832 -1.53817 1.33086 0
M  V30 198 C 19.3382 -1.92208 -0.0860346 0
M  V30 199 O 18.6312 -1.60713 -1.04316 0
M  V30 200 C 18.8252 -2.81845 2.19768 0
M  V30 201 C 18.6542 -2.55967 3.69744 0
M  V30 202 C 17.4242 -2.50428 4.38878 0
M  V30 203 C 19.6222 -2.2441 4.62758 0
M  V30 204 N 17.6042 -2.16564 5.74433 0
M  V30 205 C 18.9752 -2.0063 5.86641 0
M  V30 206 C 21.0302 -2.1051 4.5121 0
M  V30 207 C 19.7332 -1.64354 7.00272 0
M  V30 208 C 21.7592 -1.75634 5.64718 0
M  V30 209 C 21.1212 -1.52709 6.87648 0
M  V30 210 H 17.2202 -0.563434 0.542279 0
M  V30 211 H 19.8042 -0.908617 1.72198 0
M  V30 212 H 17.9752 -3.42649 1.82883 0
M  V30 213 H 19.7072 -3.47682 2.07122 0
M  V30 214 H 16.4622 -2.66056 3.91805 0
M  V30 215 H 16.8862 -2.02348 6.46053 0
M  V30 216 H 21.5282 -2.26919 3.56746 0
M  V30 217 H 19.2462 -1.46683 7.94676 0
M  V30 218 H 22.8322 -1.65546 5.57751 0
M  V30 219 H 21.7122 -1.2612 7.73992 0
M  V30 220 N 19.2153 -1.21501 -1.00376 0
M  V30 221 C 20.4613 -1.03452 -1.74429 0
M  V30 222 C 20.7943 0.430764 -1.89362 0
M  V30 223 O 20.0693 1.31962 -1.42886 0
M  V30 224 C 20.3523 -1.73375 -3.15615 0
M  V30 225 C 20.2053 -3.27431 -3.08397 0
M  V30 226 C 21.5243 -1.47732 -4.14564 0
M  V30 227 H 18.6433 -0.377226 -0.633143 0
M  V30 228 H 21.2853 -1.49693 -1.17013 0
M  V30 229 H 19.4353 -1.34064 -3.64636 0
M  V30 230 H 21.1073 -3.76119 -2.67081 0
M  V30 231 H 19.3503 -3.5767 -2.45468 0
M  V30 232 H 20.0213 -3.71524 -4.08258 0
M  V30 233 H 22.4973 -1.8186 -3.74254 0
M  V30 234 H 21.3733 -1.99169 -5.11491 0
M  V30 235 H 21.6343 -0.407589 -4.40217 0
M  V30 236 N 20.6934 1.19889 -1.02296 0
M  V30 237 C 22.1044 1.71124 -0.746568 0
M  V30 238 C 22.4554 1.81939 0.734335 0
M  V30 239 O 21.5804 1.48639 1.57275 0
M  V30 240 C 22.1754 3.10804 -1.34857 0
M  V30 241 C 20.7344 3.59323 -1.1209 0
M  V30 242 C 19.8814 2.3635 -1.45031 0
M  V30 243 H 22.8324 1.04813 -1.19163 0
M  V30 244 H 22.8534 3.73186 -0.742437 0
M  V30 245 H 22.3654 3.029 -2.42638 0
M  V30 246 H 20.4664 3.7255 -0.0610337 0
M  V30 247 H 20.5794 4.4378 -1.80544 0
M  V30 248 H 18.9434 2.39399 -0.869487 0
M  V30 249 H 19.7264 2.31081 -2.53883 0
M  V30 250 N 22.1715 0.800033 1.35784 0
M  V30 251 C 23.4485 0.30088 1.93272 0
M  V30 252 C 23.8285 -1.20857 1.73081 0
M  V30 253 O 23.1765 -2.00502 1.09596 0
M  V30 254 C 23.3865 0.70511 3.41803 0
M  V30 255 C 24.7345 0.690871 4.18942 0
M  V30 256 O 25.7585 0.646244 3.50289 0
M  V30 257 O 24.6175 0.74332 5.41421 0
M  V30 258 H 21.7115 0.0771605 0.823393 0
M  V30 259 H 24.2575 0.88329 1.449 0
M  V30 260 H 23.0295 1.74571 3.50201 0
M  V30 261 H 22.6525 0.0971541 3.97481 0
M  V30 262 N 23.6496 -1.47581 0.552962 0
M  V30 263 C 24.6126 -2.28439 -0.186605 0
M  V30 264 C 25.6126 -1.36706 -0.84665 0
M  V30 265 O 26.8026 -1.59378 -0.703164 0
M  V30 266 C 23.9346 -3.16264 -1.2724 0
M  V30 267 H 25.1276 -2.95294 0.523609 0
M  V30 268 H 22.6806 -1.532 0.309745 0
M  V30 269 H 23.4156 -2.54091 -2.01514 0
M  V30 270 H 23.2006 -3.83769 -0.803968 0
M  V30 271 H 24.6906 -3.77198 -1.79196 0
M  V30 272 N 25.1277 -0.289203 -1.54924 0
M  V30 273 C 26.5387 0.205791 -1.85562 0
M  V30 274 C 26.8897 1.54351 -1.2112 0
M  V30 275 O 26.0147 2.10435 -0.504601 0
M  V30 276 C 26.6097 0.380177 -3.3666 0
M  V30 277 C 25.1687 0.819395 -3.67373 0
M  V30 278 C 24.3157 -0.079159 -2.77187 0
M  V30 279 H 27.2667 -0.510577 -1.50262 0
M  V30 280 H 27.2877 1.21659 -3.60526 0
M  V30 281 H 26.7997 -0.593589 -3.83534 0
M  V30 282 H 24.9007 1.80413 -3.26009 0
M  V30 283 H 25.0137 0.646957 -4.74712 0
M  V30 284 H 23.3777 0.439565 -2.50878 0
M  V30 285 H 24.1607 -1.04906 -3.26878 0
M  V30 286 N 26.6058 1.57591 -0.0167156 0
M  V30 287 C 27.8308 1.9598 0.67872 0
M  V30 288 C 28.2558 0.892546 1.65575 0
M  V30 289 O 27.6138 -0.147772 1.80697 0
M  V30 290 C 27.6618 3.33468 1.37227 0
M  V30 291 O 26.7658 3.28954 2.48722 0
M  V30 292 H 26.1068 0.639339 0.17928 0
M  V30 293 H 28.6368 2.04463 -0.0748802 0
M  V30 294 H 28.6468 3.69417 1.7319 0
M  V30 295 H 27.3218 4.10694 0.656007 0
M  V30 296 H 25.8988 3.04705 2.14963 0
M  V30 297 N 28.0839 -0.256276 1.55502 0
M  V30 298 C 29.4999 -0.604325 1.47716 0
M  V30 299 C 29.6999 -1.88763 0.705039 0
M  V30 300 O 28.7559 -2.51445 0.230613 0
M  V30 301 C 30.0689 -0.715756 2.92057 0
M  V30 302 C 31.6169 -0.808706 3.02372 0
M  V30 303 C 32.0919 -0.951777 4.48001 0
M  V30 304 N 33.5829 -1.01688 4.519 0
M  V30 305 C 34.3179 -1.14668 5.61817 0
M  V30 306 N 33.8139 -1.24261 6.81565 0
M  V30 307 N 35.6069 -1.1791 5.49594 0
M  V30 308 H 27.7579 0.586291 2.04148 0
M  V30 309 H 30.0209 0.201015 0.926443 0
M  V30 310 H 29.7269 0.157027 3.51349 0
M  V30 311 H 29.6009 -1.59071 3.42018 0
M  V30 312 H 31.9879 -1.67195 2.43166 0
M  V30 313 H 32.0689 0.0912063 2.55637 0
M  V30 314 H 31.7129 -0.0931291 5.07815 0
M  V30 315 H 31.6429 -1.86659 4.92408 0
M  V30 316 H 34.1339 -0.954468 3.65648 0
M  V30 317 H 34.4469 -1.34046 7.61086 0
M  V30 318 H 32.7919 -1.21236 6.84344 0
M  V30 319 H 35.9829 -1.10057 4.54978 0
M  V30 320 H 36.1559 -1.27681 6.35296 0
M  V30 321 N 29.562 -1.4872 -0.521534 0
M  V30 322 C 30.525 -1.63379 -1.60748 0
M  V30 323 C 31.525 -0.50661 -1.52611 0
M  V30 324 O 32.715 -0.772601 -1.5613 0
M  V30 325 C 29.847 -1.61192 -3.00383 0
M  V30 326 H 31.04 -2.60217 -1.49087 0
M  V30 327 H 28.593 -1.37444 -0.744235 0
M  V30 328 H 29.328 -0.65863 -3.17541 0
M  V30 329 H 29.113 -2.43032 -3.07698 0
M  V30 330 H 30.603 -1.7466 -3.7932 0
M  V30 331 N 31.0401 0.771051 -1.3745 0
M  V30 332 C 31.9701 1.89827 -1.3597 0
M  V30 333 C 32.9511 1.68562 -0.228216 0
M  V30 334 O 34.1361 1.8941 -0.428675 0
M  V30 335 C 31.2661 3.2712 -1.16662 0
M  V30 336 C 30.2201 3.6295 -2.2683 0
M  V30 337 C 29.5461 4.98791 -1.92644 0
M  V30 338 C 30.8461 3.69627 -3.69017 0
M  V30 339 H 32.5401 1.91323 -2.30295 0
M  V30 340 H 30.0861 0.919082 -1.10855 0
M  V30 341 H 32.0391 4.05615 -1.14256 0
M  V30 342 H 30.7631 3.26059 -0.187926 0
M  V30 343 H 29.4221 2.86763 -2.28392 0
M  V30 344 H 29.0701 4.94271 -0.933021 0
M  V30 345 H 28.7701 5.23733 -2.66416 0
M  V30 346 H 30.2941 5.79685 -1.91826 0
M  V30 347 H 31.7081 4.38273 -3.69581 0
M  V30 348 H 30.1051 4.06067 -4.41848 0
M  V30 349 H 31.1751 2.70273 -4.02592 0
M  V30 350 N 32.5182 1.22032 0.997298 0
M  V30 351 C 33.9342 0.979326 1.26021 0
M  V30 352 C 34.1342 -0.32972 1.98784 0
M  V30 353 O 33.1902 -1.05345 2.29475 0
M  V30 354 C 34.5032 2.17509 2.07631 0
M  V30 355 C 36.0512 2.21817 2.2083 0
M  V30 356 C 36.5262 3.40933 3.05825 0
M  V30 357 N 38.0172 3.41067 3.13412 0
M  V30 358 C 38.7522 4.29885 3.79455 0
M  V30 359 N 38.2482 5.28914 4.47462 0
M  V30 360 N 40.0412 4.17673 3.76173 0
M  V30 361 H 32.1922 2.06202 0.509352 0
M  V30 362 H 34.4552 0.90334 0.287541 0
M  V30 363 H 34.1612 3.12415 1.61524 0
M  V30 364 H 34.0352 2.17206 3.08385 0
M  V30 365 H 36.4222 1.27462 2.66153 0
M  V30 366 H 36.5032 2.2616 1.1952 0
M  V30 367 H 36.1472 4.35586 2.61203 0
M  V30 368 H 36.0772 3.33829 4.07266 0
M  V30 369 H 38.5682 2.69406 2.65007 0
M  V30 370 H 38.8812 5.92973 4.95583 0
M  V30 371 H 37.2262 5.32831 4.46224 0
M  V30 372 H 40.4172 3.39564 3.22202 0
M  V30 373 H 40.5902 4.87098 4.27363 0
M  V30 374 N 33.9963 -1.19345 1.0293 0
M  V30 375 C 34.9063 -2.26245 0.620515 0
M  V30 376 C 35.9223 -1.70486 -0.347928 0
M  V30 377 O 37.0983 -2.00347 -0.205704 0
M  V30 378 C 34.1633 -3.46693 -0.0218957 0
M  V30 379 C 33.2243 -4.17632 0.994102 0
M  V30 380 C 32.4573 -5.32329 0.382253 0
M  V30 381 O 32.6803 -5.64552 -0.814676 0
M  V30 382 O 31.6143 -5.91664 1.10531 0
M  V30 383 H 35.4403 -2.63453 1.51083 0
M  V30 384 H 33.0253 -1.26207 0.799513 0
M  V30 385 H 34.9073 -4.19683 -0.380072 0
M  V30 386 H 33.5823 -3.11333 -0.886209 0
M  V30 387 H 32.4893 -3.4676 1.40387 0
M  V30 388 H 33.8223 -4.56964 1.8288 0
M  V30 389 N 35.4744 -0.807222 -1.35358 0
M  V30 390 C 36.4074 -0.163572 -2.27613 0
M  V30 391 C 37.3854 0.670817 -1.48118 0
M  V30 392 O 38.5694 0.63796 -1.77376 0
M  V30 393 C 35.6964 0.773015 -3.29761 0
M  V30 394 C 34.7424 0.0181653 -4.26496 0
M  V30 395 S 35.5754 -1.31831 -5.19019 0
M  V30 396 C 36.7314 -0.38619 -6.24707 0
M  V30 397 H 36.9644 -0.945757 -2.81856 0
M  V30 398 H 34.4974 -0.602315 -1.42167 0
M  V30 399 H 36.4554 1.30788 -3.89108 0
M  V30 400 H 35.1164 1.52859 -2.74396 0
M  V30 401 H 34.3094 0.729534 -4.98692 0
M  V30 402 H 33.9114 -0.446761 -3.71322 0
M  V30 403 H 36.2034 0.428295 -6.76145 0
M  V30 404 H 37.1464 -1.07736 -6.99856 0
M  V30 405 H 37.5544 0.018398 -5.64497 0
M  V30 406 N 36.9525 1.47285 -0.560781 0
M  V30 407 C 38.1805 2.06855 -0.0430262 0
M  V30 408 C 38.5955 1.41291 1.25229 0
M  V30 409 O 37.9525 0.510648 1.7521 0
M  V30 410 C 38.0035 3.61178 0.152518 0
M  V30 411 O 37.7245 4.24285 -1.0915 0
M  V30 412 C 39.2255 4.37624 0.707145 0
M  V30 413 H 36.4455 0.669319 -0.0474652 0
M  V30 414 H 38.9895 1.89237 -0.77521 0
M  V30 415 H 37.1445 3.78298 0.834843 0
M  V30 416 H 37.5585 5.16868 -0.891482 0
M  V30 417 H 39.0325 5.46271 0.793244 0
M  V30 418 H 39.5095 4.04152 1.71923 0
M  V30 419 H 40.1155 4.25257 0.0604027 0
M  V30 420 N 38.4306 0.297415 1.54768 0
M  V30 421 C 39.3606 -0.573494 2.26348 0
M  V30 422 C 40.3416 -1.14085 1.26169 0
M  V30 423 O 41.5266 -1.17086 1.54934 0
M  V30 424 C 38.6566 -1.74716 3.00153 0
M  V30 425 C 37.6106 -1.31032 4.07449 0
M  V30 426 C 36.9366 -2.56887 4.68949 0
M  V30 427 C 38.2366 -0.444183 5.20408 0
M  V30 428 H 39.9306 0.0235131 2.99391 0
M  V30 429 H 37.4766 0.0127488 1.43994 0
M  V30 430 H 39.4296 -2.3625 3.48947 0
M  V30 431 H 38.1536 -2.37035 2.24682 0
M  V30 432 H 36.8126 -0.718066 3.59499 0
M  V30 433 H 36.4606 -3.17512 3.90122 0
M  V30 434 H 36.1606 -2.2836 5.41411 0
M  V30 435 H 37.6846 -3.19229 5.20505 0
M  V30 436 H 39.0986 -0.9651 5.65118 0
M  V30 437 H 37.4956 -0.252846 5.99567 0
M  V30 438 H 38.5656 0.531609 4.81977 0
M  V30 439 N 39.9087 -1.5758 0.0250728 0
M  V30 440 C 41.1857 -1.82917 -0.692873 0
M  V30 441 C 41.5657 -0.908137 -1.90568 0
M  V30 442 O 40.9137 0.0372298 -2.2847 0
M  V30 443 C 41.1237 -3.32034 -1.07492 0
M  V30 444 C 42.4717 -3.98406 -1.46826 0
M  V30 445 O 43.4957 -3.36505 -1.16801 0
M  V30 446 O 42.3547 -5.07497 -2.02754 0
M  V30 447 H 39.4487 -0.754079 -0.33955 0
M  V30 448 H 41.9947 -1.69619 0.0524456 0
M  V30 449 H 40.7667 -3.90728 -0.211552 0
M  V30 450 H 40.3897 -3.50424 -1.87854 0
M  V30 451 N 41.3868 0.248026 -1.55636 0
M  V30 452 C 42.6118 0.998028 -1.81808 0
M  V30 453 C 43.0368 1.78207 -0.601979 0
M  V30 454 O 42.3948 1.75653 0.448961 0
M  V30 455 C 42.4428 1.9125 -3.05705 0
M  V30 456 O 41.5468 3.00406 -2.82542 0
M  V30 457 H 40.8878 0.284045 -0.600179 0
M  V30 458 H 43.4178 0.269357 -2.02819 0
M  V30 459 H 43.4278 2.32737 -3.35108 0
M  V30 460 H 42.1028 1.33602 -3.93857 0
M  V30 461 H 40.6798 2.63056 -2.64303 0
M  V30 462 N 42.8649 1.48995 0.513639 0
M  V30 463 C 44.2809 1.35478 0.843682 0
M  V30 464 C 44.4809 0.378213 1.97919 0
M  V30 465 O 43.5369 -0.194689 2.51748 0
M  V30 466 C 44.8499 2.75901 1.1958 0
M  V30 467 C 46.3979 2.84509 1.30474 0
M  V30 468 C 46.8729 4.25671 1.69021 0
M  V30 469 N 48.3639 4.28422 1.76094 0
M  V30 470 C 49.0989 5.34601 2.07338 0
M  V30 471 N 48.5949 6.5104 2.36894 0
M  V30 472 N 50.3879 5.22007 2.08483 0
M  V30 473 H 42.5389 2.11092 -0.235328 0
M  V30 474 H 44.8019 0.947039 -0.0426669 0
M  V30 475 H 44.5079 3.49001 0.434913 0
M  V30 476 H 44.3819 3.10467 2.1422 0
M  V30 477 H 46.7689 2.11655 2.05637 0
M  V30 478 H 46.8499 2.53542 0.339155 0
M  V30 479 H 46.4939 4.99048 0.944135 0
M  V30 480 H 46.4239 4.54094 2.66658 0
M  V30 481 H 48.9149 3.44441 1.55464 0
M  V30 482 H 49.2279 7.2779 2.59887 0
M  V30 483 H 47.5729 6.54287 2.34378 0
M  V30 484 H 50.7639 4.30051 1.84861 0
M  V30 485 H 50.9369 6.04854 2.325 0
M  V30 486 N 44.343 -0.763751 1.37857 0
M  V30 487 C 45.589 -1.52483 1.33704 0
M  V30 488 C 45.922 -1.94051 -0.0759612 0
M  V30 489 O 45.197 -1.64675 -1.03501 0
M  V30 490 C 45.48 -2.78441 2.28348 0
M  V30 491 C 45.333 -2.43075 3.78463 0
M  V30 492 C 46.652 -3.80415 2.21298 0
M  V30 493 H 43.771 -0.553169 0.487005 0
M  V30 494 H 46.413 -0.875562 1.68624 0
M  V30 495 H 44.563 -3.33842 1.987 0
M  V30 496 H 46.235 -1.93527 4.18742 0
M  V30 497 H 44.478 -1.75666 3.96641 0
M  V30 498 H 45.149 -3.33149 4.40132 0
M  V30 499 H 47.625 -3.34527 2.47449 0
M  V30 500 H 46.501 -4.66257 2.89647 0
M  V30 501 H 46.762 -4.25262 1.20849 0
M  V30 502 N 45.8211 -1.22559 -0.990812 0
M  V30 503 C 46.7841 -0.998863 -2.0629 0
M  V30 504 C 47.7841 0.0354834 -1.60761 0
M  V30 505 O 48.9741 -0.203231 -1.7301 0
M  V30 506 C 46.1061 -0.509203 -3.37076 0
M  V30 507 H 47.2991 -1.95014 -2.27837 0
M  V30 508 H 44.8521 -1.04456 -1.16269 0
M  V30 509 H 45.5871 0.446335 -3.21214 0
M  V30 510 H 45.3721 -1.25547 -3.71457 0
M  V30 511 H 46.8621 -0.370888 -4.1595 0
M  V30 512 N 47.2992 1.18797 -1.03562 0
M  V30 513 C 48.2622 2.20464 -0.626769 0
M  V30 514 C 49.2622 1.57721 0.313173 0
M  V30 515 O 50.4522 1.73917 0.0992615 0
M  V30 516 C 47.5842 3.40802 0.0818498 0
M  V30 517 H 48.7772 2.58149 -1.5264 0
M  V30 518 H 46.3302 1.32593 -0.827578 0
M  V30 519 H 47.0652 3.08642 0.995518 0
M  V30 520 H 46.8502 3.8758 -0.593652 0
M  V30 521 H 48.3402 4.16092 0.354584 0
M  V30 522 N 48.7773 0.814389 1.34928 0
M  V30 523 C 49.7403 0.235759 2.27984 0
M  V30 524 C 50.7403 -0.581412 1.49921 0
M  V30 525 O 51.9303 -0.398758 1.69575 0
M  V30 526 C 49.0623 -0.670433 3.34242 0
M  V30 527 H 50.2553 1.05659 2.80671 0
M  V30 528 H 47.8083 0.585614 1.44915 0
M  V30 529 H 48.5433 -1.51466 2.86755 0
M  V30 530 H 48.3283 -0.0860822 3.92005 0
M  V30 531 H 49.8183 -1.06935 4.03676 0
M  V30 532 N 50.2554 -1.46986 0.568584 0
M  V30 533 C 51.5034 -2.02041 0.0487022 0
M  V30 534 C 51.8244 -1.44408 -1.31039 0
M  V30 535 O 51.0944 -0.623477 -1.85714 0
M  V30 536 H 49.6744 -0.746849 0.015014 0
M  V30 537 H 52.3364 -1.80257 0.741168 0
M  V30 538 H 51.4324 -3.12085 -0.0308961 0
M  V30 539 N 51.7335 -0.305618 -1.54608 0
M  V30 540 C 53.0105 0.355652 -1.92339 0
M  V30 541 C 53.3905 1.71324 -1.23335 0
M  V30 542 O 52.7385 2.25473 -0.370702 0
M  V30 543 C 52.9485 0.46572 -3.45879 0
M  V30 544 C 54.2965 0.734426 -4.182 0
M  V30 545 O 55.3205 0.54935 -3.51938 0
M  V30 546 O 54.1795 1.09024 -5.35515 0
M  V30 547 H 51.2735 0.199666 -0.802535 0
M  V30 548 H 53.8195 -0.354017 -1.65966 0
M  V30 549 H 52.5915 -0.488461 -3.88239 0
M  V30 550 H 52.2145 1.22367 -3.78301 0
M  V30 551 N 53.2116 1.57565 -0.0334293 0
M  V30 552 C 54.1416 2.13511 0.945265 0
M  V30 553 C 55.1226 1.05231 1.33643 0
M  V30 554 O 56.3076 1.33084 1.41429 0
M  V30 555 C 53.4376 2.6657 2.22616 0
M  V30 556 C 52.3916 3.79676 1.97561 0
M  V30 557 C 51.7176 4.1918 3.31952 0
M  V30 558 C 53.0176 5.0557 1.31135 0
M  V30 559 H 54.7116 2.95538 0.479325 0
M  V30 560 H 52.2576 1.42166 0.229115 0
M  V30 561 H 54.2106 3.04344 2.91466 0
M  V30 562 H 52.9346 1.8171 2.71384 0
M  V30 563 H 51.5936 3.42347 1.31127 0
M  V30 564 H 51.2416 3.31296 3.78487 0
M  V30 565 H 50.9416 4.95402 3.15992 0
M  V30 566 H 52.4656 4.59541 4.02063 0
M  V30 567 H 53.8796 5.40903 1.89992 0
M  V30 568 H 52.2766 5.86818 1.25559 0
M  V30 569 H 53.3466 4.84062 0.284894 0
M  V30 570 N 54.6897 -0.239769 1.55765 0
M  V30 571 C 55.9367 -0.966801 1.7793 0
M  V30 572 C 56.2647 -1.85046 0.599015 0
M  V30 573 O 55.5197 -1.91197 -0.417395 0
M  V30 574 C 55.8187 -1.852 3.05672 0
M  V30 575 C 55.4847 -1.1231 4.36689 0
M  V30 576 C 54.1467 -0.921689 4.72291 0
M  V30 577 C 56.4987 -0.607019 5.17653 0
M  V30 578 C 53.8267 -0.191996 5.86386 0
M  V30 579 C 56.1787 0.109241 6.32506 0
M  V30 580 C 54.8427 0.322073 6.66723 0
M  V30 581 H 54.1127 -0.353778 0.651093 0
M  V30 582 H 56.7597 -0.23634 1.90036 0
M  V30 583 H 55.0647 -2.64975 2.8861 0
M  V30 584 H 56.7617 -2.41635 3.20021 0
M  V30 585 H 53.3517 -1.29004 4.08725 0
M  V30 586 H 57.5357 -0.750153 4.90598 0
M  V30 587 H 52.7917 -0.0166949 6.11398 0
M  V30 588 H 56.9657 0.516737 6.9448 0
M  V30 589 H 54.5927 0.88944 7.54979 0
M  V30 590 N 56.1678 -1.49265 -0.50573 0
M  V30 591 C 57.4138 -1.58748 -1.26202 0
M  V30 592 C 57.7468 -0.271227 -1.92297 0
M  V30 593 O 57.0218 0.724831 -1.80489 0
M  V30 594 C 57.3048 -2.74332 -2.33268 0
M  V30 595 C 57.1578 -4.15737 -1.71705 0
M  V30 596 C 58.4768 -2.85576 -3.34865 0
M  V30 597 H 55.5958 -0.577826 -0.457478 0
M  V30 598 H 58.2378 -1.81532 -0.560897 0
M  V30 599 H 56.3878 -2.55036 -2.93068 0
M  V30 600 H 58.0598 -4.46537 -1.15769 0
M  V30 601 H 56.3028 -4.21605 -1.02135 0
M  V30 602 H 56.9738 -4.92477 -2.49341 0
M  V30 603 H 59.4498 -3.03127 -2.8505 0
M  V30 604 H 58.3258 -3.68135 -4.07146 0
M  V30 605 H 58.5868 -1.94732 -3.96903 0
M  V30 606 N 57.6459 0.756429 -1.3826 0
M  V30 607 C 58.6089 1.85176 -1.35065 0
M  V30 608 C 59.6089 1.58818 -0.251703 0
M  V30 609 O 60.7989 1.66615 -0.508433 0
M  V30 610 C 57.9309 3.22596 -1.10201 0
M  V30 611 H 59.1239 1.89417 -2.3251 0
M  V30 612 H 56.6769 0.95783 -1.23512 0
M  V30 613 H 57.4119 3.24025 -0.133504 0
M  V30 614 H 57.1969 3.43122 -1.89762 0
M  V30 615 H 58.6869 4.02673 -1.10654 0
M  V30 616 N 59.124 1.23083 0.984299 0
M  V30 617 C 60.37 1.06214 1.72761 0
M  V30 618 C 60.703 -0.400584 1.90024 0
M  V30 619 O 59.978 -1.29672 1.44967 0
M  V30 620 C 60.261 1.78375 3.12817 0
M  V30 621 C 60.114 3.32296 3.03149 0
M  V30 622 C 61.433 1.54309 4.12161 0
M  V30 623 H 58.552 0.387251 0.627061 0
M  V30 624 H 61.194 1.51536 1.14616 0
M  V30 625 H 59.344 1.39848 3.62457 0
M  V30 626 H 61.016 3.8032 2.61064 0
M  V30 627 H 59.259 3.6153 2.39747 0
M  V30 628 H 59.93 3.77972 4.02295 0
M  V30 629 H 62.406 1.87791 3.71314 0
M  V30 630 H 61.282 2.07281 5.08258 0
M  V30 631 H 61.543 0.477572 4.39513 0
M  V30 632 N 60.6021 -1.18246 1.0419 0
M  V30 633 C 61.8481 -1.88536 0.747122 0
M  V30 634 C 62.1811 -1.80223 -0.723409 0
M  V30 635 O 61.4561 -1.20337 -1.52804 0
M  V30 636 C 61.7391 -3.38968 1.21544 0
M  V30 637 C 61.5921 -3.56084 2.74816 0
M  V30 638 C 62.9111 -4.32648 0.806482 0
M  V30 639 H 60.0301 -0.684619 0.272883 0
M  V30 640 H 62.6721 -1.39113 1.29413 0
M  V30 641 H 60.8221 -3.8119 0.750081 0
M  V30 642 H 62.4941 -3.22946 3.29399 0
M  V30 643 H 60.7371 -2.98699 3.14582 0
M  V30 644 H 61.4081 -4.61639 3.02644 0
M  V30 645 H 63.8841 -3.98211 1.20695 0
M  V30 646 H 62.7601 -5.36462 1.1619 0
M  V30 647 H 63.0211 -4.41146 -0.29029 0
M  V30 648 N 62.0802 -0.821533 -1.34494 0
M  V30 649 C 63.3282 -0.408139 -1.97936 0
M  V30 650 C 63.6492 1.03193 -1.65457 0
M  V30 651 O 62.9192 1.71622 -0.944595 0
M  V30 652 H 61.4992 -0.147928 -0.732206 0
M  V30 653 H 64.1612 -1.05067 -1.64155 0
M  V30 654 H 63.2572 -0.52601 -3.07635 0
M  V30 655 N 63.5583 1.46682 -0.576371 0
M  V30 656 C 64.5083 2.27278 0.181288 0
M  V30 657 C 65.4923 1.35497 0.867721 0
M  V30 658 O 66.6843 1.59717 0.762863 0
M  V30 659 C 63.8133 3.21703 1.19841 0
M  V30 660 C 62.8993 4.20969 0.51442 0
M  V30 661 N 63.2903 5.03999 -0.426407 0
M  V30 662 C 61.5883 4.39373 0.765963 0
M  V30 663 C 62.2893 5.75812 -0.825565 0
M  V30 664 N 61.2653 5.43315 -0.176116 0
M  V30 665 H 65.0673 2.88863 -0.541785 0
M  V30 666 H 62.5813 1.57455 -0.397697 0
M  V30 667 H 64.5783 3.78145 1.75533 0
M  V30 668 H 63.2383 2.61677 1.92238 0
M  V30 669 H 64.2493 5.11659 -0.8016 0
M  V30 670 H 60.9263 3.90502 1.47698 0
M  V30 671 H 62.3163 6.52577 -1.59976 0
M  V30 672 N 65.0364 0.313813 1.54444 0
M  V30 673 C 65.9684 -0.590425 2.21465 0
M  V30 674 C 66.9814 -1.08753 1.21147 0
M  V30 675 O 68.1704 -1.00278 1.4767 0
M  V30 676 C 65.2704 -1.82179 2.85769 0
M  V30 677 C 64.4434 -1.46502 4.12136 0
M  V30 678 C 63.5024 -2.55288 4.60124 0
M  V30 679 O 62.5284 -2.19842 5.25032 0
M  V30 680 N 63.7304 -3.86053 4.33525 0
M  V30 681 H 66.4954 -0.0166033 2.99695 0
M  V30 682 H 64.0564 0.136578 1.61323 0
M  V30 683 H 66.0484 -2.54328 3.14801 0
M  V30 684 H 64.6184 -2.30369 2.11303 0
M  V30 685 H 63.8384 -0.575595 3.89975 0
M  V30 686 H 65.1264 -1.20221 4.94393 0
M  V30 687 H 64.5244 -4.17654 3.81552 0
M  V30 688 H 63.0814 -4.54461 4.67235 0
M  V30 689 N 66.5145 -1.57545 0.0417849 0
M  V30 690 C 67.4775 -2.09885 -0.92093 0
M  V30 691 C 68.4775 -1.01648 -1.24596 0
M  V30 692 O 69.6675 -1.27759 -1.1842 0
M  V30 693 C 66.7995 -2.57527 -2.23367 0
M  V30 694 H 67.9925 -2.96236 -0.467382 0
M  V30 695 H 65.5455 -1.5493 -0.206467 0
M  V30 696 H 66.2805 -1.74542 -2.73323 0
M  V30 697 H 66.0655 -3.36613 -2.01083 0
M  V30 698 H 67.5555 -2.98201 -2.92346 0
M  V30 699 N 67.9926 0.231505 -1.5589 0
M  V30 700 C 69.2696 0.981096 -1.69215 0
M  V30 701 C 69.6496 2.02799 -0.586164 0
M  V30 702 O 68.9976 2.24823 0.408253 0
M  V30 703 C 69.2076 1.60054 -3.10135 0
M  V30 704 C 70.5556 2.09658 -3.69227 0
M  V30 705 O 71.5796 1.69967 -3.13033 0
M  V30 706 O 70.4386 2.8258 -4.67772 0
M  V30 707 H 67.5326 0.457653 -0.688827 0
M  V30 708 H 70.0786 0.224073 -1.68214 0
M  V30 709 H 68.8506 0.844105 -3.82087 0
M  V30 710 H 68.4736 2.42336 -3.15212 0
M  V30 711 N 69.4707 1.49531 0.497807 0
M  V30 712 C 70.7187 1.58865 1.24926 0
M  V30 713 C 71.0397 0.278721 1.92998 0
M  V30 714 O 70.3097 -0.702144 1.82885 0
M  V30 715 H 68.8897 0.585343 0.464094 0
M  V30 716 H 71.5517 1.86174 0.57666 0
M  V30 717 H 70.6477 2.38633 2.01149 0
M  V30 718 N 70.9488 -0.749086 1.3866 0
M  V30 719 C 72.3648 -1.05276 1.19955 0
M  V30 720 C 72.5648 -2.01435 0.05134 0
M  V30 721 O 71.6208 -2.45232 -0.60147 0
M  V30 722 C 72.9338 -1.62853 2.52783 0
M  V30 723 C 74.4818 -1.75002 2.59506 0
M  V30 724 C 74.9568 -2.35991 3.92521 0
M  V30 725 N 76.4478 -2.43416 3.94085 0
M  V30 726 C 77.1828 -2.91511 4.9377 0
M  V30 727 N 76.6788 -3.39608 6.03853 0
M  V30 728 N 78.4718 -2.90592 4.81157 0
M  V30 729 H 70.6228 -0.111066 2.12109 0
M  V30 730 H 72.8858 -0.111901 0.941373 0
M  V30 731 H 72.5918 -0.99664 3.37283 0
M  V30 732 H 72.4658 -2.61854 2.715 0
M  V30 733 H 74.8528 -2.37317 1.75398 0
M  V30 734 H 74.9338 -0.74693 2.44652 0
M  V30 735 H 74.5778 -1.74308 4.77053 0
M  V30 736 H 74.5078 -3.3695 4.04688 0
M  V30 737 H 76.9988 -2.09405 3.14576 0
M  V30 738 H 77.3118 -3.74775 6.75843 0
M  V30 739 H 75.6568 -3.37653 6.07466 0
M  V30 740 H 78.8478 -2.52332 3.94267 0
M  V30 741 H 79.0208 -3.27762 5.58996 0
M  V30 742 N 72.4269 -1.23603 -0.977757 0
M  V30 743 C 73.8429 -0.999251 -1.24447 0
M  V30 744 C 74.0429 0.298053 -1.99283 0
M  V30 745 O 73.0989 1.01681 -2.31122 0
M  V30 746 C 74.4119 -2.20784 -2.04144 0
M  V30 747 C 75.9599 -2.25303 -2.17273 0
M  V30 748 C 76.4349 -3.45755 -3.00362 0
M  V30 749 N 77.9259 -3.4601 -3.07947 0
M  V30 750 C 78.6609 -4.35868 -3.72568 0
M  V30 751 N 78.1569 -5.35966 -4.38991 0
M  V30 752 N 79.9499 -4.23605 -3.6948 0
M  V30 753 H 72.1009 -2.06986 -0.476483 0
M  V30 754 H 74.3639 -0.907801 -0.273134 0
M  V30 755 H 74.0699 -3.14945 -1.56533 0
M  V30 756 H 73.9439 -2.22085 -3.04891 0
M  V30 757 H 76.3309 -1.3168 -2.64092 0
M  V30 758 H 76.4119 -2.28033 -1.15907 0
M  V30 759 H 76.0559 -4.39687 -2.5424 0
M  V30 760 H 75.9859 -3.40266 -4.01904 0
M  V30 761 H 78.4769 -2.73588 -2.60688 0
M  V30 762 H 78.7899 -6.00783 -4.86086 0
M  V30 763 H 77.1349 -5.39863 -4.37691 0
M  V30 764 H 80.3259 -3.44647 -3.16759 0
M  V30 765 H 80.4989 -4.93836 -4.1956 0
M  V30 766 N 73.905 1.17692 -1.04816 0
M  V30 767 C 75.135 1.91508 -0.775128 0
M  V30 768 C 75.543 1.76844 0.67253 0
M  V30 769 O 74.886 1.10057 1.47082 0
M  V30 770 C 74.948 3.43167 -1.0713 0
M  V30 771 C 74.612 3.81612 -2.51438 0
M  V30 772 C 75.609 3.84772 -3.49638 0
M  V30 773 C 73.294 4.12687 -2.86348 0
M  V30 774 C 75.288 4.18469 -4.80794 0
M  V30 775 C 72.975 4.46053 -4.17708 0
M  V30 776 C 73.973 4.48921 -5.14741 0
M  V30 777 O 73.661 4.81504 -6.43746 0
M  V30 778 H 73.393 0.614575 -0.281555 0
M  V30 779 H 75.947 1.50206 -1.40098 0
M  V30 780 H 74.177 3.84745 -0.388342 0
M  V30 781 H 75.866 3.98239 -0.784883 0
M  V30 782 H 76.632 3.60893 -3.24008 0
M  V30 783 H 72.511 4.09627 -2.11486 0
M  V30 784 H 76.055 4.20623 -5.56527 0
M  V30 785 H 71.952 4.69393 -4.43103 0
M  V30 786 H 72.72 4.99377 -6.4851 0
M  V30 787 N 75.3831 0.828654 1.34056 0
M  V30 788 C 76.6321 0.415828 1.97367 0
M  V30 789 C 76.9451 -1.02796 1.6641 0
M  V30 790 O 78.1511 -1.54497 2.23255 0
M  V30 791 C 76.6071 0.692601 3.53173 0
M  V30 792 C 76.2151 2.15038 3.93017 0
M  V30 793 C 77.9591 0.346222 4.23086 0
M  V30 794 C 75.8661 2.37174 5.41758 0
M  V30 795 H 74.7961 0.151755 0.738571 0
M  V30 796 H 77.4471 1.01581 1.52819 0
M  V30 797 H 75.8291 0.0223764 3.95994 0
M  V30 798 H 77.0031 2.86024 3.61285 0
M  V30 799 H 75.3181 2.45875 3.36057 0
M  V30 800 H 77.9151 0.48937 5.32456 0
M  V30 801 H 78.2581 -0.709842 4.10204 0
M  V30 802 H 78.7911 0.971258 3.85761 0
M  V30 803 H 75.5301 3.41308 5.59633 0
M  V30 804 H 75.0501 1.70738 5.74986 0
M  V30 805 H 76.7291 2.19818 6.08514 0
M  V30 806 N 76.8612 -1.46375 0.584142 0
M  V30 807 C 78.2722 -1.86031 0.157959 0
M  V30 808 C 78.6232 -1.48753 -1.27933 0
M  V30 809 O 77.7482 -0.903098 -1.96655 0
M  V30 810 C 78.3432 -3.37642 0.279892 0
M  V30 811 C 76.9022 -3.76289 -0.09143 0
M  V30 812 C 76.0492 -2.7039 0.615178 0
M  V30 813 H 79.0002 -1.37509 0.792274 0
M  V30 814 H 79.0212 -3.77275 -0.494364 0
M  V30 815 H 78.5332 -3.64742 1.32607 0
M  V30 816 H 76.6342 -3.54806 -1.13769 0
M  V30 817 H 76.7472 -4.78246 0.285886 0
M  V30 818 H 75.1112 -2.5464 0.0552833 0
M  V30 819 H 75.8942 -3.0033 1.66303 0
M  V30 820 N 78.3393 -0.321999 -1.54275 0
M  V30 821 C 79.2713 0.578671 -2.21775 0
M  V30 822 C 80.2843 1.08109 -1.21722 0
M  V30 823 O 81.4733 0.994938 -1.482 0
M  V30 824 C 78.5733 1.80661 -2.86731 0
M  V30 825 C 77.7463 1.44314 -4.12907 0
M  V30 826 C 76.8053 2.52845 -4.61472 0
M  V30 827 O 75.8313 2.17054 -5.2619 0
M  V30 828 N 77.0333 3.83748 -4.35566 0
M  V30 829 H 79.7983 0.000709447 -2.997 0
M  V30 830 H 77.3593 -0.145132 -1.61248 0
M  V30 831 H 79.3513 2.52655 -3.16145 0
M  V30 832 H 77.9213 2.29245 -2.12521 0
M  V30 833 H 77.1413 0.554906 -3.90275 0
M  V30 834 H 78.4293 1.17598 -4.95023 0
M  V30 835 H 77.8273 4.15625 -3.83761 0
M  V30 836 H 76.3843 4.51977 -4.69638 0
M  V30 837 N 79.8174 1.5752 -0.0501392 0
M  V30 838 C 80.7804 2.1037 0.909786 0
M  V30 839 C 81.7804 1.02308 1.24056 0
M  V30 840 O 82.9704 1.28385 1.17741 0
M  V30 841 C 80.1024 2.58708 2.21998 0
M  V30 842 H 81.2954 2.96479 0.451665 0
M  V30 843 H 78.8484 1.55038 0.198248 0
M  V30 844 H 79.5834 1.75989 2.72394 0
M  V30 845 H 79.3684 3.37675 1.99295 0
M  V30 846 H 80.8584 2.99747 2.9076 0
M  V30 847 N 81.2955 -0.223234 1.56011 0
M  V30 848 C 82.5445 -0.945912 1.78144 0
M  V30 849 C 82.8575 -1.85567 0.618396 0
M  V30 850 O 84.0635 -2.61688 0.723318 0
M  V30 851 C 82.5195 -1.73216 3.15475 0
M  V30 852 C 82.1275 -0.868619 4.39499 0
M  V30 853 C 83.8715 -2.44615 3.46935 0
M  V30 854 C 81.7785 -1.65212 5.67855 0
M  V30 855 H 80.7085 -0.356929 0.664167 0
M  V30 856 H 83.3595 -0.199845 1.82409 0
M  V30 857 H 81.7415 -2.52107 3.05382 0
M  V30 858 H 82.9155 -0.120366 4.60643 0
M  V30 859 H 81.2305 -0.26683 4.15544 0
M  V30 860 H 83.8275 -3.03732 4.40058 0
M  V30 861 H 84.1705 -3.17417 2.69355 0
M  V30 862 H 84.7035 -1.72715 3.58349 0
M  V30 863 H 81.4425 -0.967407 6.48322 0
M  V30 864 H 80.9625 -2.37503 5.50774 0
M  V30 865 H 82.6415 -2.21322 6.07968 0
M  V30 866 N 82.7736 -1.49793 -0.48987 0
M  V30 867 C 83.7366 -1.66752 -1.57246 0
M  V30 868 C 84.7366 -0.538867 -1.51502 0
M  V30 869 O 85.9266 -0.805545 -1.54456 0
M  V30 870 C 83.0586 -1.67528 -2.96896 0
M  V30 871 H 84.2516 -2.63321 -1.43534 0
M  V30 872 H 81.8046 -1.38992 -0.714914 0
M  V30 873 H 82.5396 -0.725837 -3.16073 0
M  V30 874 H 82.3246 -2.49504 -3.02473 0
M  V30 875 H 83.8146 -1.82667 -3.7553 0
M  V30 876 N 84.2517 0.741722 -1.39055 0
M  V30 877 C 85.1837 1.8657 -1.33133 0
M  V30 878 C 86.1967 1.61001 -0.241329 0
M  V30 879 O 87.3857 1.7136 -0.499784 0
M  V30 880 C 84.4857 3.22457 -1.04283 0
M  V30 881 C 83.6587 3.75435 -2.24427 0
M  V30 882 C 82.7177 4.89867 -1.92138 0
M  V30 883 O 81.7437 5.03879 -2.64754 0
M  V30 884 N 82.9457 5.73738 -0.88347 0
M  V30 885 H 85.7107 1.92156 -2.29991 0
M  V30 886 H 83.2717 0.922172 -1.3307 0
M  V30 887 H 85.2637 3.9657 -0.807128 0
M  V30 888 H 83.8337 3.12181 -0.161807 0
M  V30 889 H 83.0537 2.92751 -2.6399 0
M  V30 890 H 84.3417 4.07563 -3.04581 0
M  V30 891 H 83.7397 5.64999 -0.281517 0
M  V30 892 H 82.2967 6.47947 -0.707662 0
M  V30 893 N 85.7298 1.2412 0.971189 0
M  V30 894 C 86.9778 1.07668 1.71032 0
M  V30 895 C 87.2988 -0.385797 1.91146 0
M  V30 896 O 86.5688 -1.27569 1.4867 0
M  V30 897 H 85.1488 0.395429 0.633755 0
M  V30 898 H 87.8108 1.55984 1.16855 0
M  V30 899 H 86.9068 1.57195 2.69622 0
M  V30 900 N 87.2079 -1.17134 1.05439 0
M  V30 901 C 88.4539 -1.87733 0.767077 0
M  V30 902 C 88.7869 -1.8098 -0.704253 0
M  V30 903 O 88.0619 -1.21951 -1.5152 0
M  V30 904 C 88.3449 -3.37659 1.25133 0
M  V30 905 C 88.1979 -3.53149 2.78578 0
M  V30 906 C 89.5169 -4.31768 0.852324 0
M  V30 907 H 86.6359 -0.681687 0.280129 0
M  V30 908 H 89.2779 -1.37732 1.30881 0
M  V30 909 H 87.4279 -3.80373 0.790469 0
M  V30 910 H 89.0999 -3.19434 3.32806 0
M  V30 911 H 87.3429 -2.95345 3.17732 0
M  V30 912 H 88.0139 -4.58403 3.07523 0
M  V30 913 H 90.4899 -3.96909 1.24911 0
M  V30 914 H 89.3659 -5.35199 1.21873 0
M  V30 915 H 89.6269 -4.41429 -0.243485 0
M  V30 916 N 88.686 -0.835752 -1.33615 0
M  V30 917 C 89.649 -0.272 -2.2758 0
M  V30 918 C 90.649 0.557487 -1.50827 0
M  V30 919 O 91.839 0.37173 -1.70188 0
M  V30 920 C 88.971 0.617173 -3.35267 0
M  V30 921 H 90.164 -1.10111 -2.78954 0
M  V30 922 H 87.717 -0.608594 -1.43965 0
M  V30 923 H 88.452 1.46884 -2.89129 0
M  V30 924 H 88.237 0.0237066 -3.92093 0
M  V30 925 H 89.727 1.005 -4.05326 0
M  V30 926 N 90.1641 1.46063 -0.591896 0
M  V30 927 C 91.1271 2.28854 0.125973 0
M  V30 928 C 92.1271 1.38903 0.810107 0
M  V30 929 O 93.3171 1.61186 0.66066 0
M  V30 930 C 90.4491 3.19526 1.1881 0
M  V30 931 H 91.6421 2.93802 -0.601717 0
M  V30 932 H 89.1951 1.52325 -0.350254 0
M  V30 933 H 89.9301 2.59345 1.94707 0
M  V30 934 H 89.7151 3.85766 0.701936 0
M  V30 935 H 91.2051 3.81817 1.69132 0
M  V30 936 N 91.6422 0.330177 1.54103 0
M  V30 937 C 92.8912 -0.271336 1.99867 0
M  V30 938 C 93.2042 -1.52723 1.22209 0
M  V30 939 O 94.4102 -2.20515 1.58383 0
M  V30 940 C 92.8662 -0.534032 3.55916 0
M  V30 941 C 92.4742 0.705193 4.42415 0
M  V30 942 C 94.2182 -1.09514 4.1013 0
M  V30 943 C 92.1252 0.414035 5.89949 0
M  V30 944 H 91.0552 -0.105166 0.74663 0
M  V30 945 H 93.7062 0.443429 1.78062 0
M  V30 946 H 92.0882 -1.30915 3.73734 0
M  V30 947 H 93.2622 1.4804 4.36372 0
M  V30 948 H 91.5772 1.18698 3.99124 0
M  V30 949 H 94.1742 -1.3277 5.17954 0
M  V30 950 H 94.5172 -2.04656 3.62521 0
M  V30 951 H 95.0502 -0.381038 3.95971 0
M  V30 952 H 91.7892 1.33481 6.41766 0
M  V30 953 H 91.3092 -0.323336 5.98928 0
M  V30 954 H 92.9882 0.0263105 6.46995 0
M  V30 955 N 93.1203 -1.57491 0.0584922 0
M  V30 956 C 94.3693 -1.92155 -0.613146 0
M  V30 957 C 94.6823 -0.939334 -1.71569 0
M  V30 958 O 95.8883 -1.17829 -2.44599 0
M  V30 959 C 94.3443 -3.41303 -1.14195 0
M  V30 960 C 93.9523 -4.47944 -0.0711265 0
M  V30 961 C 95.6963 -3.84988 -1.78841 0
M  V30 962 C 93.6033 -5.88212 -0.613225 0
M  V30 963 H 92.5333 -0.717162 -0.232796 0
M  V30 964 H 95.1843 -1.83049 0.12857 0
M  V30 965 H 93.5663 -3.45437 -1.93621 0
M  V30 966 H 94.7403 -4.55408 0.702836 0
M  V30 967 H 93.0553 -4.13644 0.478313 0
M  V30 968 H 95.6523 -4.87159 -2.20408 0
M  V30 969 H 95.9953 -3.21632 -2.64308 0
M  V30 970 H 96.5283 -3.83401 -1.06059 0
M  V30 971 H 93.2673 -6.55183 0.203978 0
M  V30 972 H 92.7873 -5.84294 -1.35501 0
M  V30 973 H 94.4663 -6.37687 -1.09383 0
M  V30 974 N 94.5984 0.214957 -1.56127 0
M  V30 975 C 95.5614 1.24997 -1.92116 0
M  V30 976 C 96.5614 1.39467 -0.800344 0
M  V30 977 O 97.7514 1.37619 -1.06802 0
M  V30 978 C 94.8834 2.62271 -2.17777 0
M  V30 979 H 96.0764 0.942875 -2.84693 0
M  V30 980 H 93.6294 0.455654 -1.49511 0
M  V30 981 H 94.3644 2.98068 -1.27773 0
M  V30 982 H 94.1494 2.53143 -2.99434 0
M  V30 983 H 95.6394 3.36946 -2.46693 0
M  V30 984 N 96.0765 1.50051 0.48192 0
M  V30 985 C 96.9865 1.7089 1.60728 0
M  V30 986 C 98.0025 0.591788 1.63627 0
M  V30 987 O 99.1785 0.868817 1.81696 0
M  V30 988 C 96.2435 1.78855 2.97005 0
M  V30 989 C 95.3045 3.02537 3.04581 0
M  V30 990 C 94.5375 3.10112 4.34357 0
M  V30 991 O 94.7605 2.24765 5.24249 0
M  V30 992 O 93.6945 4.02747 4.47301 0
M  V30 993 H 97.5205 2.66264 1.46072 0
M  V30 994 H 95.1055 1.34018 0.660264 0
M  V30 995 H 96.9875 1.86336 3.77964 0
M  V30 996 H 95.6625 0.866628 3.11883 0
M  V30 997 H 94.5695 3.00563 2.22739 0
M  V30 998 H 95.9025 3.94272 2.94636 0
M  V30 999 N 97.5546 -0.734337 1.39446 0
M  V30 1000 C 98.5176 -1.83004 1.37994 0
M  V30 1001 C 99.5176 -1.58397 0.276938 0
M  V30 1002 O 100.708 -1.65785 0.534875 0
M  V30 1003 C 97.8396 -3.20802 1.1532 0
M  V30 1004 H 99.0326 -1.85694 2.35494 0
M  V30 1005 H 96.5856 -0.938059 1.25021 0
M  V30 1006 H 97.3206 -3.23772 0.185036 0
M  V30 1007 H 97.1056 -3.4006 1.95197 0
M  V30 1008 H 98.5956 -4.00862 1.17046 0
M  V30 1009 N 99.0327 -1.24633 -0.964593 0
M  V30 1010 C 99.9797 -1.04144 -2.05968 0
M  V30 1011 C 100.95 0.046262 -1.66036 0
M  V30 1012 O 102.135 -0.108972 -1.90489 0
M  V30 1013 C 99.2747 -0.65563 -3.38815 0
M  V30 1014 C 98.3877 -1.81714 -3.91923 0
M  V30 1015 C 97.5227 -1.37662 -5.13052 0
M  V30 1016 C 96.5617 -2.50788 -5.58365 0
M  V30 1017 N 95.6987 -2.07582 -6.70712 0
M  V30 1018 H 100.539 -1.9787 -2.22827 0
M  V30 1019 H 98.0757 -0.9855 -1.09208 0
M  V30 1020 H 100.034 -0.412954 -4.15151 0
M  V30 1021 H 98.6637 0.244627 -3.21872 0
M  V30 1022 H 97.7157 -2.1734 -3.12198 0
M  V30 1023 H 99.0277 -2.66705 -4.21509 0
M  V30 1024 H 98.1817 -1.093 -5.96773 0
M  V30 1025 H 96.9207 -0.497293 -4.85158 0
M  V30 1026 H 95.9257 -2.79906 -4.73215 0
M  V30 1027 H 97.1507 -3.39283 -5.88272 0
M  V30 1028 H 95.0967 -1.22051 -6.44546 0
M  V30 1029 H 95.0137 -2.86125 -6.99763 0
M  V30 1030 H 96.2817 -1.82369 -7.57867 0
M  V30 1031 N 100.511 1.16574 -1.06058 0
M  V30 1032 C 101.788 1.83048 -0.689416 0
M  V30 1033 C 102.168 1.94122 0.829443 0
M  V30 1034 O 101.516 1.48249 1.7388 0
M  V30 1035 C 101.726 3.20186 -1.38859 0
M  V30 1036 C 103.074 3.95989 -1.53226 0
M  V30 1037 O 104.098 3.29696 -1.3483 0
M  V30 1038 O 102.957 5.14813 -1.83384 0
M  V30 1039 H 100.051 0.790258 -0.243764 0
M  V30 1040 H 102.597 1.23797 -1.16071 0
M  V30 1041 H 101.369 3.07146 -2.4244 0
M  V30 1042 H 100.992 3.87112 -0.907216 0
M  V30 1043 N 101.989 0.842826 1.3317 0
M  V30 1044 C 102.899 0.281444 2.32906 0
M  V30 1045 C 103.915 -0.594587 1.63526 0
M  V30 1046 O 105.091 -0.49777 1.95152 0
M  V30 1047 C 102.156 -0.530929 3.42611 0
M  V30 1048 C 101.217 0.369843 4.27704 0
M  V30 1049 C 100.45 -0.403853 5.3217 0
M  V30 1050 O 100.673 -1.63513 5.46461 0
M  V30 1051 O 99.6069 0.224199 6.01482 0
M  V30 1052 H 103.433 1.10744 2.82789 0
M  V30 1053 H 101.018 0.60545 1.36582 0
M  V30 1054 H 102.9 -0.992437 4.09547 0
M  V30 1055 H 101.575 -1.33392 2.94938 0
M  V30 1056 H 100.482 0.879275 3.6362 0
M  V30 1057 H 101.815 1.13771 4.78871 0
M  V30 1058 N 103.467 -1.45747 0.599634 0
M  V30 1059 C 104.43 -2.28917 -0.113835 0
M  V30 1060 C 105.43 -1.3933 -0.802729 0
M  V30 1061 O 106.62 -1.61534 -0.652103 0
M  V30 1062 C 103.752 -3.20152 -1.17114 0
M  V30 1063 H 104.945 -2.93478 0.617289 0
M  V30 1064 H 102.498 -1.52137 0.358327 0
M  V30 1065 H 103.233 -2.60374 -1.93329 0
M  V30 1066 H 103.018 -3.86133 -0.681468 0
M  V30 1067 H 104.508 -3.82708 -1.67105 0
M  V30 1068 N 104.945 -0.338344 -1.53925 0
M  V30 1069 C 106.173 0.261298 -2.05243 0
M  V30 1070 C 106.588 1.44625 -1.21363 0
M  V30 1071 O 105.945 1.80811 -0.247736 0
M  V30 1072 C 105.996 0.681412 -3.5502 0
M  V30 1073 O 105.717 -0.456414 -4.35716 0
M  V30 1074 C 107.218 1.34232 -4.22489 0
M  V30 1075 H 104.438 0.0513685 -0.669031 0
M  V30 1076 H 106.982 -0.488822 -1.98572 0
M  V30 1077 H 105.137 1.38148 -3.61931 0
M  V30 1078 H 105.551 -0.122564 -5.24357 0
M  V30 1079 H 107.025 1.58708 -5.28693 0
M  V30 1080 H 107.502 2.29426 -3.74514 0
M  V30 1081 H 108.108 0.684424 -4.19757 0
M  V30 1082 N 106.423 1.57458 -0.0668435 0
M  V30 1083 C 107.7 1.8469 0.644132 0
M  V30 1084 C 108.08 0.958343 1.88093 0
M  V30 1085 O 107.428 0.0233579 2.28488 0
M  V30 1086 C 107.638 3.34767 0.986509 0
M  V30 1087 C 108.986 4.02159 1.36212 0
M  V30 1088 O 110.01 3.39484 1.07839 0
M  V30 1089 O 108.869 5.12694 1.89227 0
M  V30 1090 H 105.963 0.762816 0.319437 0
M  V30 1091 H 108.509 1.6942 -0.0973986 0
M  V30 1092 H 107.281 3.91151 0.107883 0
M  V30 1093 H 106.904 3.55281 1.78497 0
M  V30 1094 N 107.901 -0.206675 1.56239 0
M  V30 1095 C 109.149 -0.927007 1.79586 0
M  V30 1096 C 109.47 -1.8427 0.637929 0
M  V30 1097 O 108.74 -1.92849 -0.344398 0
M  V30 1098 H 107.32 -0.345292 0.662407 0
M  V30 1099 H 109.982 -0.21496 1.93711 0
M  V30 1100 H 109.078 -1.52501 2.72305 0
M  V30 1101 N 109.379 -1.50304 -0.473955 0
M  V30 1102 C 110.289 -1.7174 -1.5982 0
M  V30 1103 C 111.305 -0.600457 -1.63311 0
M  V30 1104 O 112.481 -0.878441 -1.81233 0
M  V30 1105 C 109.546 -1.80427 -2.96052 0
M  V30 1106 C 108.607 -3.04148 -3.02972 0
M  V30 1107 C 107.84 -3.12411 -4.32706 0
M  V30 1108 O 108.063 -2.27542 -5.23049 0
M  V30 1109 O 106.997 -4.05113 -4.45159 0
M  V30 1110 H 110.823 -2.67035 -1.44657 0
M  V30 1111 H 108.408 -1.34366 -0.653148 0
M  V30 1112 H 110.29 -1.88338 -3.7697 0
M  V30 1113 H 108.965 -0.883156 -3.11419 0
M  V30 1114 H 107.872 -3.0174 -2.21142 0
M  V30 1115 H 109.205 -3.95829 -2.92541 0
M  V30 1116 N 110.857 0.726932 -1.39834 0
M  V30 1117 C 112.106 1.48214 -1.36805 0
M  V30 1118 C 112.419 1.95576 0.0305291 0
M  V30 1119 O 113.625 2.7088 0.183417 0
M  V30 1120 C 112.081 2.67854 -2.40379 0
M  V30 1121 C 111.689 2.27408 -3.85992 0
M  V30 1122 C 113.433 3.45641 -2.46439 0
M  V30 1123 C 111.34 3.43819 -4.81189 0
M  V30 1124 H 110.27 0.556606 -0.508631 0
M  V30 1125 H 112.921 0.792216 -1.65518 0
M  V30 1126 H 111.303 3.3896 -2.04749 0
M  V30 1127 H 112.477 1.63795 -4.30706 0
M  V30 1128 H 110.792 1.62692 -3.83302 0
M  V30 1129 H 113.389 4.32244 -3.14753 0
M  V30 1130 H 113.732 3.88669 -1.49139 0
M  V30 1131 H 114.265 2.8157 -2.81004 0
M  V30 1132 H 111.004 3.05834 -5.79781 0
M  V30 1133 H 110.524 4.06385 -4.41148 0
M  V30 1134 H 112.203 4.10043 -5.00474 0
M  V30 1135 N 112.336 1.25143 0.95797 0
M  V30 1136 C 113.752 1.01892 1.22842 0
M  V30 1137 C 113.952 -0.266311 1.99732 0
M  V30 1138 O 113.008 -0.979913 2.3271 0
M  V30 1139 C 114.321 2.24004 2.00606 0
M  V30 1140 C 115.869 2.28731 2.13662 0
M  V30 1141 C 116.344 3.5049 2.94823 0
M  V30 1142 N 117.835 3.50866 3.02403 0
M  V30 1143 C 118.57 4.4174 3.65586 0
M  V30 1144 N 118.066 5.42882 4.30408 0
M  V30 1145 N 119.859 4.29429 3.62694 0
M  V30 1146 H 112.01 2.07718 0.443493 0
M  V30 1147 H 114.273 0.912031 0.258657 0
M  V30 1148 H 113.979 3.17395 1.51503 0
M  V30 1149 H 113.853 2.26907 3.01319 0
M  V30 1150 H 116.24 1.35865 2.61963 0
M  V30 1151 H 116.321 2.29848 1.12265 0
M  V30 1152 H 115.965 4.43676 2.47213 0
M  V30 1153 H 115.895 3.46617 3.96439 0
M  V30 1154 H 118.386 2.777 2.56302 0
M  V30 1155 H 118.699 6.0844 4.76467 0
M  V30 1156 H 117.044 5.46758 4.29047 0
M  V30 1157 H 120.235 3.49643 3.11236 0
M  V30 1158 H 120.408 5.00448 4.1165 0
M  V30 1159 N 113.814 -1.1601 1.06675 0
M  V30 1160 C 114.724 -2.24156 0.692179 0
M  V30 1161 C 115.74 -1.71507 -0.293513 0
M  V30 1162 O 116.916 -2.009 -0.141861 0
M  V30 1163 C 113.981 -3.46587 0.0884131 0
M  V30 1164 C 113.042 -4.14257 1.12646 0
M  V30 1165 C 112.275 -5.30844 0.551416 0
M  V30 1166 O 112.498 -5.66858 -0.634656 0
M  V30 1167 O 111.432 -5.87848 1.29298 0
M  V30 1168 H 115.258 -2.58513 1.59388 0
M  V30 1169 H 112.843 -1.23599 0.83926 0
M  V30 1170 H 114.725 -4.20679 -0.246361 0
M  V30 1171 H 113.4 -3.13994 -0.786712 0
M  V30 1172 H 112.307 -3.42118 1.51348 0
M  V30 1173 H 113.64 -4.50914 1.97325 0
M  V30 1174 N 115.292 -0.849877 -1.32721 0
M  V30 1175 C 116.225 -0.235903 -2.26977 0
M  V30 1176 C 117.203 0.623355 -1.50177 0
M  V30 1177 O 118.387 0.581207 -1.79316 0
M  V30 1178 C 115.514 0.667712 -3.32053 0
M  V30 1179 C 114.56 -0.11753 -4.26338 0
M  V30 1180 S 115.393 -1.48277 -5.14562 0
M  V30 1181 C 116.549 -0.584741 -6.23163 0
M  V30 1182 H 116.782 -1.03495 -2.78704 0
M  V30 1183 H 114.315 -0.64724 -1.40179 0
M  V30 1184 H 116.273 1.18343 -3.93072 0
M  V30 1185 H 114.934 1.44052 -2.7912 0
M  V30 1186 H 114.127 0.57051 -5.00761 0
M  V30 1187 H 113.729 -0.564668 -3.69713 0
M  V30 1188 H 116.021 0.212968 -6.77165 0
M  V30 1189 H 116.964 -1.29947 -6.96074 0
M  V30 1190 H 117.372 -0.161202 -5.6427 0
M  V30 1191 N 116.77 1.45427 -0.607355 0
M  V30 1192 C 117.72 2.27612 0.133038 0
M  V30 1193 C 118.704 1.37307 0.838785 0
M  V30 1194 O 119.896 1.61299 0.728813 0
M  V30 1195 C 117.025 3.24173 1.12991 0
M  V30 1196 C 116.111 4.21965 0.425011 0
M  V30 1197 N 116.502 5.02982 -0.533217 0
M  V30 1198 C 114.8 4.40899 0.672593 0
M  V30 1199 C 115.501 5.73931 -0.947518 0
M  V30 1200 N 114.477 5.42819 -0.291321 0
M  V30 1201 H 118.279 2.87649 -0.602935 0
M  V30 1202 H 115.793 1.56576 -0.431006 0
M  V30 1203 H 117.79 3.81783 1.67473 0
M  V30 1204 H 116.45 2.65696 1.86644 0
M  V30 1205 H 117.461 5.09843 -0.90995 0
M  V30 1206 H 114.138 3.93547 1.39382 0
M  V30 1207 H 115.528 6.49037 -1.73782 0
M  V30 1208 N 118.248 0.346503 1.53744 0
M  V30 1209 C 119.496 -0.248612 2.00565 0
M  V30 1210 C 119.817 -1.5083 1.23593 0
M  V30 1211 O 119.087 -1.92858 0.343912 0
M  V30 1212 H 117.667 -0.0948564 0.740953 0
M  V30 1213 H 120.329 0.468341 1.89189 0
M  V30 1214 H 119.425 -0.488994 3.08245 0
M  V30 1215 N 119.726 -1.57421 0.075193 0
M  V30 1216 C 120.972 -1.93905 -0.594025 0
M  V30 1217 C 121.305 -0.955701 -1.69056 0
M  V30 1218 O 120.58 0.0145373 -1.94495 0
M  V30 1219 C 120.863 -3.40638 -1.1678 0
M  V30 1220 C 120.716 -4.49733 -0.0776792 0
M  V30 1221 C 122.035 -3.88259 -2.07228 0
M  V30 1222 H 119.154 -0.705105 -0.214466 0
M  V30 1223 H 121.796 -1.8947 0.141854 0
M  V30 1224 H 119.946 -3.44549 -1.79494 0
M  V30 1225 H 121.618 -4.57942 0.555573 0
M  V30 1226 H 119.861 -4.29751 0.591286 0
M  V30 1227 H 120.532 -5.49549 -0.519603 0
M  V30 1228 H 123.008 -3.86376 -1.54445 0
M  V30 1229 H 121.884 -4.91533 -2.44308 0
M  V30 1230 H 122.145 -3.26396 -2.98191 0
M  V30 1231 N 121.204 0.198386 -1.56346 0
M  V30 1232 C 122.615 0.763358 -1.70381 0
M  V30 1233 C 122.966 1.83995 -0.681203 0
M  V30 1234 O 122.091 2.15785 0.16305 0
M  V30 1235 C 122.686 1.39143 -3.08909 0
M  V30 1236 C 121.245 1.90352 -3.2472 0
M  V30 1237 C 120.392 0.772233 -2.6633 0
M  V30 1238 H 123.343 -0.0266377 -1.58678 0
M  V30 1239 H 123.364 2.26076 -3.06055 0
M  V30 1240 H 122.876 0.607638 -3.83314 0
M  V30 1241 H 120.977 2.71461 -2.55225 0
M  V30 1242 H 121.09 2.06757 -4.3219 0
M  V30 1243 H 119.454 1.18566 -2.2542 0
M  V30 1244 H 120.237 0.00073556 -3.433 0
M  V30 1245 N 122.682 1.50554 0.465978 0
M  V30 1246 C 123.928 1.62038 1.21949 0
M  V30 1247 C 124.261 0.322116 1.9151 0
M  V30 1248 O 123.536 -0.676723 1.82348 0
M  V30 1249 C 123.819 2.80421 2.25912 0
M  V30 1250 C 123.672 4.20144 1.60622 0
M  V30 1251 C 124.991 2.94354 3.27176 0
M  V30 1252 H 122.11 0.589752 0.441998 0
M  V30 1253 H 124.752 1.82956 0.51257 0
M  V30 1254 H 122.902 2.62717 2.86203 0
M  V30 1255 H 124.574 4.49449 1.03889 0
M  V30 1256 H 122.817 4.24165 0.909211 0
M  V30 1257 H 123.488 4.98914 2.36196 0
M  V30 1258 H 125.964 3.10578 2.76913 0
M  V30 1259 H 124.84 3.788 3.97242 0
M  V30 1260 H 125.101 2.05186 3.916 0
M  V30 1261 N 124.16 -0.719506 1.40217 0
M  V30 1262 C 125.409 -1.47486 1.37589 0
M  V30 1263 C 125.722 -1.9559 -0.0201568 0
M  V30 1264 O 126.928 -2.70973 -0.169049 0
M  V30 1265 C 125.384 -2.66575 2.41796 0
M  V30 1266 C 124.992 -2.25358 3.87192 0
M  V30 1267 C 126.736 -3.4433 2.48269 0
M  V30 1268 C 124.643 -3.41262 4.83005 0
M  V30 1269 H 123.573 -0.553901 0.511576 0
M  V30 1270 H 126.224 -0.783427 1.65936 0
M  V30 1271 H 124.606 -3.3787 2.06543 0
M  V30 1272 H 125.78 -1.61509 4.31569 0
M  V30 1273 H 124.095 -1.60657 3.84159 0
M  V30 1274 H 126.692 -4.30569 3.17041 0
M  V30 1275 H 127.035 -3.87872 1.51198 0
M  V30 1276 H 127.568 -2.80076 2.82493 0
M  V30 1277 H 124.307 -3.02755 5.81394 0
M  V30 1278 H 123.827 -4.0404 4.43297 0
M  V30 1279 H 125.506 -4.07383 5.02641 0
M  V30 1280 N 125.638 -1.25649 -0.95132 0
M  V30 1281 C 126.868 -1.13179 -1.72841 0
M  V30 1282 C 127.276 0.316827 -1.86528 0
M  V30 1283 O 126.619 1.22948 -1.3649 0
M  V30 1284 C 126.681 -1.71644 -3.15878 0
M  V30 1285 C 126.345 -3.20667 -3.25609 0
M  V30 1286 C 127.342 -4.17616 -3.09666 0
M  V30 1287 C 125.027 -3.6094 -3.49324 0
M  V30 1288 C 127.021 -5.52817 -3.17289 0
M  V30 1289 C 124.708 -4.96278 -3.56584 0
M  V30 1290 C 125.706 -5.92025 -3.40581 0
M  V30 1291 O 125.394 -7.24899 -3.47528 0
M  V30 1292 H 125.126 -0.395389 -0.54831 0
M  V30 1293 H 127.68 -1.66566 -1.20187 0
M  V30 1294 H 125.91 -1.12707 -3.69911 0
M  V30 1295 H 127.599 -1.54225 -3.75459 0
M  V30 1296 H 128.365 -3.87842 -2.91211 0
M  V30 1297 H 124.244 -2.86907 -3.6084 0
M  V30 1298 H 127.788 -6.2753 -3.04716 0
M  V30 1299 H 123.685 -5.25716 -3.74556 0
M  V30 1300 H 124.453 -7.33039 -3.64138 0
M  V30 1301 N 127.117 1.15442 -1.07289 0
M  V30 1302 C 128.047 2.22312 -0.714107 0
M  V30 1303 C 129.028 1.67467 0.298155 0
M  V30 1304 O 130.213 1.93445 0.171048 0
M  V30 1305 C 127.343 3.47124 -0.110448 0
M  V30 1306 C 126.297 4.14926 -1.04979 0
M  V30 1307 C 125.623 5.33807 -0.308924 0
M  V30 1308 C 126.923 4.64762 -2.38314 0
M  V30 1309 H 128.617 2.5258 -1.6076 0
M  V30 1310 H 126.163 1.21404 -0.77441 0
M  V30 1311 H 128.116 4.21124 0.152482 0
M  V30 1312 H 126.84 3.16187 0.81812 0
M  V30 1313 H 125.499 3.42866 -1.29764 0
M  V30 1314 H 125.147 4.99126 0.623084 0
M  V30 1315 H 124.847 5.80113 -0.935036 0
M  V30 1316 H 126.371 6.10576 -0.0537771 0
M  V30 1317 H 127.785 5.30292 -2.1786 0
M  V30 1318 H 126.182 5.21728 -2.96514 0
M  V30 1319 H 127.252 3.80434 -3.00663 0
M  V30 1320 N 128.595 0.856903 1.32268 0
M  V30 1321 C 129.82 0.474569 2.01897 0
M  V30 1322 C 130.245 -0.921766 1.63967 0
M  V30 1323 O 129.603 -1.60589 0.84148 0
M  V30 1324 C 129.651 0.623799 3.55164 0
M  V30 1325 O 128.755 -0.342459 4.10976 0
M  V30 1326 H 128.096 0.190422 0.63611 0
M  V30 1327 H 130.626 1.15672 1.68764 0
M  V30 1328 H 130.636 0.512169 4.04773 0
M  V30 1329 H 129.311 1.64202 3.82113 0
M  V30 1330 H 127.888 -0.18688 3.72431 0
M  V30 1331 N 130.073 -1.45103 0.615059 0
M  V30 1332 C 131.005 -2.28786 -0.13762 0
M  V30 1333 C 132.018 -1.40376 -0.824525 0
M  V30 1334 O 133.207 -1.64681 -0.688662 0
M  V30 1335 C 130.307 -3.16322 -1.21628 0
M  V30 1336 C 129.48 -4.33054 -0.615039 0
M  V30 1337 C 128.539 -5.01743 -1.58556 0
M  V30 1338 O 127.565 -5.58293 -1.10895 0
M  V30 1339 N 128.767 -5.01714 -2.91998 0
M  V30 1340 H 131.532 -2.94025 0.580483 0
M  V30 1341 H 129.093 -1.55373 0.45507 0
M  V30 1342 H 131.085 -3.59139 -1.86552 0
M  V30 1343 H 129.655 -2.52943 -1.83681 0
M  V30 1344 H 128.875 -3.93627 0.21245 0
M  V30 1345 H 130.163 -5.08431 -0.193704 0
M  V30 1346 H 129.561 -4.57075 -3.33316 0
M  V30 1347 H 128.118 -5.48371 -3.52325 0
M  V30 1348 N 131.551 -0.354651 -1.53558 0
M  V30 1349 C 132.481 0.489091 -2.2832 0
M  V30 1350 C 133.462 1.09324 -1.30316 0
M  V30 1351 O 134.647 1.11255 -1.59173 0
M  V30 1352 C 131.777 1.63456 -3.0643 0
M  V30 1353 C 130.731 1.1582 -4.12031 0
M  V30 1354 C 130.057 2.39305 -4.7816 0
M  V30 1355 C 131.357 0.250731 -5.21698 0
M  V30 1356 H 133.051 -0.134614 -2.99097 0
M  V30 1357 H 130.597 -0.0661826 -1.43848 0
M  V30 1358 H 132.55 2.23136 -3.57475 0
M  V30 1359 H 131.274 2.28533 -2.33325 0
M  V30 1360 H 129.933 0.584146 -3.61916 0
M  V30 1361 H 129.581 3.02814 -4.01637 0
M  V30 1362 H 129.281 2.08109 -5.49513 0
M  V30 1363 H 130.805 2.99691 -5.31994 0
M  V30 1364 H 132.219 0.754695 -5.68311 0
M  V30 1365 H 130.616 0.0301468 -6.00092 0
M  V30 1366 H 131.686 -0.710125 -4.79672 0
M  V30 1367 N 133.029 1.57378 -0.0835403 0
M  V30 1368 C 133.977 2.14602 0.89714 0
M  V30 1369 C 134.971 1.08589 1.30018 0
M  V30 1370 O 136.177 1.26952 1.27606 0
M  V30 1371 H 132.552 0.686346 0.3073 0
M  V30 1372 H 134.523 2.95845 0.38969 0
M  V30 1373 C 133.272 2.73188 2.15089 0
M  V30 1374 H 132.595 3.54442 1.84962 0
M  V30 1375 H 134.035 3.1681 2.81793 0
M  V30 1376 C 132.494 1.68517 2.91725 0
M  V30 1377 O 133.024 1.11718 3.85852 0
M  V30 1378 N 131.23 1.39277 2.55049 0
M  V30 1379 H 130.777 1.85655 1.78577 0
M  V30 1380 H 130.735 0.694791 3.06627 0
M  V30 1381 N 134.507 -0.190092 1.56449 0
M  V30 1382 C 135.417 -1.25591 1.98152 0
M  V30 1383 C 136.433 -1.49519 0.889944 0
M  V30 1384 O 137.609 -1.62036 1.19609 0
M  V30 1385 C 134.674 -2.57916 2.3169 0
M  V30 1386 C 133.735 -2.42015 3.5458 0
M  V30 1387 C 132.968 -3.6803 3.8651 0
M  V30 1388 O 133.191 -4.72413 3.1966 0
M  V30 1389 O 132.125 -3.6326 4.79923 0
M  V30 1390 H 135.951 -0.931988 2.89046 0
M  V30 1391 H 133.536 -0.395488 1.4407 0
M  V30 1392 H 135.418 -3.36008 2.54316 0
M  V30 1393 H 134.093 -2.89925 1.43963 0
M  V30 1394 H 133 -1.62017 3.37196 0
M  V30 1395 H 134.333 -2.14937 4.4279 0
M  V30 1396 N 135.985 -1.50799 -0.457987 0
M  V30 1397 C 137.401 -1.38515 -0.792819 0
M  V30 1398 C 137.601 -0.451409 -1.96379 0
M  V30 1399 O 136.657 0.10112 -2.52297 0
M  V30 1400 C 137.97 -2.80149 -1.09258 0
M  V30 1401 C 139.518 -2.89156 -1.19825 0
M  V30 1402 C 139.993 -4.31651 -1.53106 0
M  V30 1403 N 141.484 -4.34662 -1.60072 0
M  V30 1404 C 142.219 -5.41928 -1.87354 0
M  V30 1405 N 141.715 -6.59384 -2.12568 0
M  V30 1406 N 143.508 -5.29385 -1.88965 0
M  V30 1407 H 135.659 -2.10073 0.313511 0
M  V30 1408 H 137.922 -0.944803 0.0777862 0
M  V30 1409 H 137.628 -3.50374 -0.305084 0
M  V30 1410 H 137.502 -3.18204 -2.02549 0
M  V30 1411 H 139.889 -2.19141 -1.97639 0
M  V30 1412 H 139.97 -2.54626 -0.244821 0
M  V30 1413 H 139.614 -5.02208 -0.758266 0
M  V30 1414 H 139.544 -4.63678 -2.49621 0
M  V30 1415 H 142.035 -3.49973 -1.42573 0
M  V30 1416 H 142.348 -7.36934 -2.32696 0
M  V30 1417 H 140.693 -6.62535 -2.09933 0
M  V30 1418 H 143.884 -4.36616 -1.68772 0
M  V30 1419 H 144.057 -6.13066 -2.09891 0
M  V30 1420 N 137.463 0.71206 -1.40597 0
M  V30 1421 C 138.393 1.83889 -1.43899 0
M  V30 1422 C 139.374 1.67442 -0.299504 0
M  V30 1423 O 140.559 1.87421 -0.508624 0
M  V30 1424 C 137.689 3.21877 -1.30431 0
M  V30 1425 C 136.643 3.53002 -2.42019 0
M  V30 1426 C 135.969 4.90172 -2.13626 0
M  V30 1427 C 137.269 3.53643 -3.84362 0
M  V30 1428 H 138.963 1.81383 -2.38203 0
M  V30 1429 H 136.509 0.871237 -1.14654 0
M  V30 1430 H 138.462 4.00404 -1.31357 0
M  V30 1431 H 137.186 3.24968 -0.326049 0
M  V30 1432 H 135.845 2.76818 -2.40349 0
M  V30 1433 H 135.493 4.89869 -1.14182 0
M  V30 1434 H 135.193 5.11962 -2.88389 0
M  V30 1435 H 136.717 5.71028 -2.1624 0
M  V30 1436 H 138.131 4.22203 -3.87837 0
M  V30 1437 H 136.528 3.86961 -4.58673 0
M  V30 1438 H 137.598 2.52954 -4.13693 0
M  V30 1439 N 138.941 1.26152 0.944643 0
M  V30 1440 C 140.166 1.14363 1.7302 0
M  V30 1441 C 140.591 -0.29772 1.85729 0
M  V30 1442 O 139.949 -1.2157 1.34501 0
M  V30 1443 C 139.997 1.81378 3.11664 0
M  V30 1444 O 139.101 1.10022 3.97453 0
M  V30 1445 H 138.442 0.398694 0.53098 0
M  V30 1446 H 140.972 1.66906 1.18337 0
M  V30 1447 H 140.982 1.88064 3.62072 0
M  V30 1448 H 139.657 2.86237 3.0173 0
M  V30 1449 H 138.234 1.11287 3.55907 0
M  V30 1450 N 140.419 -1.14872 1.07899 0
M  V30 1451 C 141.382 -2.17986 0.708161 0
M  V30 1452 C 142.382 -1.58775 -0.25442 0
M  V30 1453 O 143.572 -1.74166 -0.034645 0
M  V30 1454 C 140.704 -3.40871 0.0446929 0
M  V30 1455 H 141.897 -2.52306 1.62116 0
M  V30 1456 H 139.45 -1.2943 0.876218 0
M  V30 1457 H 140.185 -3.12124 -0.880281 0
M  V30 1458 H 139.97 -3.8511 0.737091 0
M  V30 1459 H 141.46 -4.17121 -0.19991 0
M  V30 1460 N 141.898 -0.863906 -1.31812 0
M  V30 1461 C 142.828 -0.330843 -2.31144 0
M  V30 1462 C 143.809 0.575005 -1.60087 0
M  V30 1463 O 144.994 0.493304 -1.8783 0
M  V30 1464 C 142.124 0.47374 -3.44054 0
M  V30 1465 C 141.078 -0.338481 -4.26659 0
M  V30 1466 C 140.404 0.591412 -5.31419 0
M  V30 1467 C 141.704 -1.56926 -4.98168 0
M  V30 1468 H 143.398 -1.16086 -2.75979 0
M  V30 1469 H 140.944 -0.559657 -1.32679 0
M  V30 1470 H 142.897 0.857143 -4.12591 0
M  V30 1471 H 141.621 1.33721 -2.9797 0
M  V30 1472 H 140.28 -0.703754 -3.59782 0
M  V30 1473 H 139.928 1.45199 -4.81587 0
M  V30 1474 H 139.628 0.0519022 -5.87577 0
M  V30 1475 H 141.152 0.97179 -6.02817 0
M  V30 1476 H 142.566 -1.25764 -5.59336 0
M  V30 1477 H 140.963 -2.04739 -5.64094 0
M  V30 1478 H 142.033 -2.32544 -4.25501 0
M  V30 1479 N 143.376 1.44774 -0.622745 0
M  V30 1480 C 144.339 2.29069 0.0774015 0
M  V30 1481 C 145.339 1.4059 0.780461 0
M  V30 1482 O 146.529 1.62551 0.626322 0
M  V30 1483 C 143.661 3.21974 1.12006 0
M  V30 1484 H 144.854 2.92459 -0.663901 0
M  V30 1485 H 142.407 1.51548 -0.382486 0
M  V30 1486 H 143.142 2.63417 1.89162 0
M  V30 1487 H 142.927 3.87168 0.619951 0
M  V30 1488 H 144.417 3.85318 1.60995 0
M  V30 1489 N 144.854 0.36279 1.53368 0
M  V30 1490 C 146.102 -0.227326 2.00817 0
M  V30 1491 C 146.423 -1.49511 1.25186 0
M  V30 1492 O 145.693 -1.92482 0.364348 0
M  V30 1493 H 144.273 -0.0869923 0.741917 0
M  V30 1494 H 146.935 0.488381 1.88682 0
M  V30 1495 H 146.031 -0.456273 3.08747 0
M  V30 1496 N 146.332 -1.57332 0.0918853 0
M  V30 1497 C 147.748 -1.57389 -0.264766 0
M  V30 1498 C 147.948 -1.10281 -1.68643 0
M  V30 1499 O 147.004 -0.777801 -2.40222 0
M  V30 1500 C 148.317 -3.00648 -0.0561195 0
M  V30 1501 C 149.865 -3.12754 -0.124116 0
M  V30 1502 C 150.34 -4.57965 0.0564972 0
M  V30 1503 N 151.831 -4.632 0.00155611 0
M  V30 1504 C 152.566 -5.73281 0.116598 0
M  V30 1505 N 152.062 -6.92208 0.286294 0
M  V30 1506 N 153.855 -5.6207 0.0580973 0
M  V30 1507 H 146.006 -1.86262 1.02079 0
M  V30 1508 H 148.269 -0.859579 0.399786 0
M  V30 1509 H 147.975 -3.393 0.925669 0
M  V30 1510 H 147.849 -3.68623 -0.799823 0
M  V30 1511 H 150.236 -2.73976 -1.09641 0
M  V30 1512 H 150.317 -2.47377 0.651024 0
M  V30 1513 H 149.961 -4.97436 1.02564 0
M  V30 1514 H 149.891 -5.21399 -0.738297 0
M  V30 1515 H 152.382 -3.77686 -0.127192 0
M  V30 1516 H 152.695 -7.71934 0.365676 0
M  V30 1517 H 151.04 -6.94254 0.32192 0
M  V30 1518 H 154.231 -4.68043 -0.0733204 0
M  V30 1519 H 154.404 -6.47824 0.151203 0
M  V30 1520 N 147.81 0.181792 -1.56548 0
M  V30 1521 C 149.057 0.900097 -1.81396 0
M  V30 1522 C 149.385 1.82695 -0.667281 0
M  V30 1523 O 148.64 1.92614 0.346146 0
M  V30 1524 C 148.939 1.73728 -3.12335 0
M  V30 1525 C 148.605 0.960255 -4.40556 0
M  V30 1526 C 147.267 0.745766 -4.75386 0
M  V30 1527 C 149.619 0.414477 -5.19549 0
M  V30 1528 C 146.947 -0.0257694 -5.86694 0
M  V30 1529 C 149.299 -0.343916 -6.31664 0
M  V30 1530 C 147.963 -0.569301 -6.65068 0
M  V30 1531 H 147.233 0.329369 -0.663775 0
M  V30 1532 H 149.88 0.165647 -1.90782 0
M  V30 1533 H 148.185 2.54081 -2.98245 0
M  V30 1534 H 149.882 2.29591 -3.28769 0
M  V30 1535 H 146.472 1.13746 -4.13231 0
M  V30 1536 H 150.656 0.567554 -4.93044 0
M  V30 1537 H 145.912 -0.210233 -6.11038 0
M  V30 1538 H 150.086 -0.774133 -6.92084 0
M  V30 1539 H 147.713 -1.16903 -7.51158 0
M  V30 1540 N 149.288 1.51039 0.449983 0
M  V30 1541 C 150.518 1.66627 1.22143 0
M  V30 1542 C 150.926 0.357776 1.85786 0
M  V30 1543 O 150.269 -0.672424 1.70951 0
M  V30 1544 C 150.331 2.71562 2.35573 0
M  V30 1545 C 149.995 4.14526 1.92399 0
M  V30 1546 C 150.992 4.99717 1.43453 0
M  V30 1547 C 148.677 4.60559 2.00475 0
M  V30 1548 C 150.671 6.28998 1.03155 0
M  V30 1549 C 148.358 5.8984 1.59788 0
M  V30 1550 C 149.356 6.73886 1.11208 0
M  V30 1551 O 149.044 8.0075 0.710935 0
M  V30 1552 H 148.776 0.562635 0.374724 0
M  V30 1553 H 151.33 1.98146 0.541036 0
M  V30 1554 H 149.56 2.3533 3.06849 0
M  V30 1555 H 151.249 2.76156 2.97478 0
M  V30 1556 H 152.015 4.65361 1.36618 0
M  V30 1557 H 147.894 3.95273 2.37235 0
M  V30 1558 H 151.438 6.9455 0.651663 0
M  V30 1559 H 147.335 6.23713 1.66289 0
M  V30 1560 H 148.103 8.142 0.837913 0
M  V30 1561 N 150.766 -0.704594 1.40972 0
M  V30 1562 C 151.716 -1.81051 1.38581 0
M  V30 1563 C 152.7 -1.58759 0.261585 0
M  V30 1564 O 153.892 -1.69745 0.501556 0
M  V30 1565 C 151.021 -3.19279 1.26157 0
M  V30 1566 C 150.107 -3.47296 2.43405 0
M  V30 1567 N 150.498 -3.46064 3.68881 0
M  V30 1568 C 148.796 -3.77804 2.37023 0
M  V30 1569 C 149.497 -3.72733 4.46592 0
M  V30 1570 N 148.473 -3.9203 3.76581 0
M  V30 1571 H 152.275 -1.78448 2.33525 0
M  V30 1572 H 149.789 -0.904198 1.349 0
M  V30 1573 H 151.786 -3.98488 1.22526 0
M  V30 1574 H 150.446 -3.231 0.321902 0
M  V30 1575 H 151.457 -3.26656 4.01891 0
M  V30 1576 H 148.134 -3.8905 1.51481 0
M  V30 1577 H 149.524 -3.77993 5.55492 0
M  V30 1578 N 152.244 -1.26651 -0.937939 0
M  V30 1579 C 153.154 -1.10276 -2.07066 0
M  V30 1580 C 154.17 -0.0354197 -1.73964 0
M  V30 1581 O 155.346 -0.239816 -1.99967 0
M  V30 1582 C 152.411 -0.740887 -3.38691 0
M  V30 1583 C 151.472 -1.88799 -3.85556 0
M  V30 1584 C 150.705 -1.54329 -5.10899 0
M  V30 1585 O 150.928 -0.446494 -5.6865 0
M  V30 1586 O 149.862 -2.37911 -5.52885 0
M  V30 1587 H 153.688 -2.05309 -2.23789 0
M  V30 1588 H 151.273 -1.05743 -1.0554 0
M  V30 1589 H 153.155 -0.55195 -4.1777 0
M  V30 1590 H 151.83 0.180022 -3.23199 0
M  V30 1591 H 150.737 -2.13191 -3.07409 0
M  V30 1592 H 152.07 -2.78874 -4.05574 0
M  V30 1593 N 153.722 1.14298 -1.08507 0
M  V30 1594 C 155.133 1.66926 -0.836227 0
M  V30 1595 C 155.484 1.85576 0.63686 0
M  V30 1596 O 154.609 1.56767 1.49175 0
M  V30 1597 C 155.204 3.03219 -1.51142 0
M  V30 1598 C 153.763 3.52876 -1.30979 0
M  V30 1599 C 152.91 2.2833 -1.57356 0
M  V30 1600 H 155.861 0.983491 -1.24552 0
M  V30 1601 H 155.882 3.68726 -0.939211 0
M  V30 1602 H 155.394 2.89612 -2.58353 0
M  V30 1603 H 153.495 3.71703 -0.258429 0
M  V30 1604 H 153.608 4.33586 -2.03814 0
M  V30 1605 H 151.972 2.34454 -0.995164 0
M  V30 1606 H 152.755 2.17298 -2.65775 0
M  V30 1607 N 155.201 0.870884 1.31352 0
M  V30 1608 C 156.426 0.495957 2.01383 0
M  V30 1609 C 156.851 -0.904324 1.64935 0
M  V30 1610 O 156.209 -1.59687 0.858466 0
M  V30 1611 C 156.257 0.661433 3.54482 0
M  V30 1612 O 155.361 -0.298851 4.11316 0
M  V30 1613 H 154.702 0.197158 0.634054 0
M  V30 1614 H 157.232 1.17455 1.67527 0
M  V30 1615 H 157.242 0.555072 4.04207 0
M  V30 1616 H 155.917 1.68246 3.8035 0
M  V30 1617 H 154.494 -0.147368 3.72609 0
M  V30 1618 N 156.679 -1.44442 0.630414 0
M  V30 1619 C 157.956 -1.9549 0.0655657 0
M  V30 1620 C 158.336 -1.5724 -1.40851 0
M  V30 1621 O 157.684 -0.846116 -2.12257 0
M  V30 1622 C 157.894 -3.47812 0.287691 0
M  V30 1623 C 159.242 -4.24216 0.180513 0
M  V30 1624 O 160.266 -3.55526 0.219019 0
M  V30 1625 O 159.125 -5.46434 0.0848493 0
M  V30 1626 H 156.219 -0.826688 -0.0227177 0
M  V30 1627 H 158.765 -1.54496 0.702068 0
M  V30 1628 H 157.537 -3.687 1.31056 0
M  V30 1629 H 157.16 -3.95751 -0.382984 0
M  V30 1630 N 158.157 -0.370918 -1.53173 0
M  V30 1631 C 159.105 0.488101 -2.27421 0
M  V30 1632 C 160.099 1.07884 -1.30604 0
M  V30 1633 O 161.305 1.02143 -1.48212 0
M  V30 1634 H 157.68 0.176134 -0.731082 0
M  V30 1635 H 159.651 -0.159815 -2.97972 0
M  V30 1636 C 158.4 1.61306 -3.08019 0
M  V30 1637 H 157.723 1.1678 -3.82364 0
M  V30 1638 H 159.163 2.18872 -3.63141 0
M  V30 1639 C 157.622 2.55848 -2.19188 0
M  V30 1640 O 158.152 3.58799 -1.80626 0
M  V30 1641 N 156.358 2.2516 -1.83715 0
M  V30 1642 H 155.905 1.41476 -2.15273 0
M  V30 1643 H 155.863 2.8867 -1.24567 0
M  V30 1644 N 159.635 1.57281 -0.100228 0
M  V30 1645 C 160.565 2.17328 0.853857 0
M  V30 1646 C 161.546 1.10804 1.2906 0
M  V30 1647 O 162.731 1.38963 1.35657 0
M  V30 1648 C 159.861 2.75772 2.11109 0
M  V30 1649 C 158.815 3.87713 1.81279 0
M  V30 1650 C 158.141 4.32882 3.13874 0
M  V30 1651 C 159.441 5.10677 1.09574 0
M  V30 1652 H 161.135 2.97305 0.353545 0
M  V30 1653 H 158.681 1.43009 0.168612 0
M  V30 1654 H 160.634 3.16433 2.78296 0
M  V30 1655 H 159.358 1.93057 2.63432 0
M  V30 1656 H 158.017 3.476 1.16489 0
M  V30 1657 H 157.665 3.47051 3.64095 0
M  V30 1658 H 157.365 5.08358 2.94696 0
M  V30 1659 H 158.889 4.7618 3.82211 0
M  V30 1660 H 160.303 5.48474 1.66879 0
M  V30 1661 H 158.7 5.91615 1.00557 0
M  V30 1662 H 159.77 4.84835 0.0793299 0
M  V30 1663 N 161.113 -0.173488 1.56642 0
M  V30 1664 C 162.529 -0.525174 1.50712 0
M  V30 1665 C 162.729 -1.8476 0.804107 0
M  V30 1666 O 161.785 -2.49869 0.363574 0
M  V30 1667 C 163.098 -0.559937 2.95441 0
M  V30 1668 C 164.646 -0.647288 3.06234 0
M  V30 1669 C 165.121 -0.712963 4.52417 0
M  V30 1670 N 166.612 -0.775911 4.56655 0
M  V30 1671 C 167.347 -0.847264 5.67106 0
M  V30 1672 N 166.843 -0.879585 6.87194 0
M  V30 1673 N 168.636 -0.886117 5.55071 0
M  V30 1674 H 160.787 0.693681 2.00753 0
M  V30 1675 H 163.05 0.249841 0.914485 0
M  V30 1676 H 162.756 0.343049 3.50023 0
M  V30 1677 H 162.63 -1.40718 3.49969 0
M  V30 1678 H 165.017 -1.5407 2.51687 0
M  V30 1679 H 165.098 0.226586 2.54794 0
M  V30 1680 H 164.742 0.176183 5.07594 0
M  V30 1681 H 164.672 -1.60295 5.0161 0
M  V30 1682 H 167.163 -0.759304 3.70193 0
M  V30 1683 H 167.476 -0.935144 7.67121 0
M  V30 1684 H 165.821 -0.847898 6.89808 0
M  V30 1685 H 169.012 -0.857853 4.60172 0
M  V30 1686 H 169.185 -0.938263 6.41171 0
M  V30 1687 N 162.591 -1.51276 -0.441967 0
M  V30 1688 C 163.521 -1.752 -1.54361 0
M  V30 1689 C 164.502 -0.601682 -1.59103 0
M  V30 1690 O 165.687 -0.843913 -1.74905 0
M  V30 1691 C 162.817 -1.87282 -2.92477 0
M  V30 1692 C 161.771 -3.02687 -3.02596 0
M  V30 1693 C 161.097 -2.99947 -4.42647 0
M  V30 1694 C 162.397 -4.4273 -2.77106 0
M  V30 1695 H 164.091 -2.67442 -1.34592 0
M  V30 1696 H 161.637 -1.28694 -0.646048 0
M  V30 1697 H 163.59 -2.02602 -3.695 0
M  V30 1698 H 162.314 -0.916844 -3.13467 0
M  V30 1699 H 160.973 -2.87065 -2.28012 0
M  V30 1700 H 160.621 -2.02136 -4.60597 0
M  V30 1701 H 160.321 -3.77439 -4.50348 0
M  V30 1702 H 161.845 -3.17354 -5.2165 0
M  V30 1703 H 163.259 -4.58727 -3.43864 0
M  V30 1704 H 161.656 -5.21893 -2.96222 0
M  V30 1705 H 162.726 -4.53087 -1.72744 0
M  V30 1706 N 164.069 0.697108 -1.41344 0
M  V30 1707 C 165.315 1.4593 -1.40827 0
M  V30 1708 C 165.648 1.94193 -0.0167098 0
M  V30 1709 O 164.923 1.69425 0.955263 0
M  V30 1710 C 165.206 2.67229 -2.41373 0
M  V30 1711 C 165.059 2.24741 -3.8963 0
M  V30 1712 C 166.378 3.69423 -2.39196 0
M  V30 1713 H 163.497 0.529303 -0.512842 0
M  V30 1714 H 166.139 0.794112 -1.72609 0
M  V30 1715 H 164.289 3.23982 -2.14401 0
M  V30 1716 H 165.961 1.73327 -4.27499 0
M  V30 1717 H 164.204 1.56542 -4.0457 0
M  V30 1718 H 164.875 3.1177 -4.55525 0
M  V30 1719 H 167.351 3.2234 -2.63128 0
M  V30 1720 H 166.227 4.51907 -3.11563 0
M  V30 1721 H 166.488 4.19012 -1.41001 0
M  V30 1722 N 165.547 1.27147 0.931209 0
M  V30 1723 C 166.795 1.13055 1.6752 0
M  V30 1724 C 167.116 -0.324791 1.92276 0
M  V30 1725 O 166.386 -1.22775 1.52654 0
M  V30 1726 H 164.966 0.415391 0.620854 0
M  V30 1727 H 167.628 1.59623 1.11833 0
M  V30 1728 H 166.724 1.65694 2.64485 0
M  V30 1729 N 167.025 -1.13721 1.09112 0
M  V30 1730 C 168.271 -1.85198 0.826414 0
M  V30 1731 C 168.604 -1.83129 -0.646319 0
M  V30 1732 O 167.879 -1.2671 -1.47563 0
M  V30 1733 C 168.162 -3.33507 1.35812 0
M  V30 1734 C 168.015 -3.44108 2.89672 0
M  V30 1735 C 169.334 -4.28838 0.989256 0
M  V30 1736 H 166.453 -0.67243 0.301675 0
M  V30 1737 H 169.095 -1.33499 1.35197 0
M  V30 1738 H 167.245 -3.77666 0.911082 0
M  V30 1739 H 168.917 -3.08684 3.428 0
M  V30 1740 H 167.16 -2.85087 3.26967 0
M  V30 1741 H 167.831 -4.48388 3.21951 0
M  V30 1742 H 170.307 -3.92734 1.37475 0
M  V30 1743 H 169.183 -5.31051 1.38838 0
M  V30 1744 H 169.444 -4.4198 -0.102924 0
M  V30 1745 N 168.503 -0.877838 -1.30888 0
M  V30 1746 C 169.731 -0.507414 -2.00581 0
M  V30 1747 C 170.146 0.902216 -1.65848 0
M  V30 1748 O 169.503 1.59225 -0.891831 0
M  V30 1749 C 169.554 -0.664162 -3.55347 0
M  V30 1750 O 169.275 -2.01829 -3.8884 0
M  V30 1751 C 170.776 -0.295787 -4.42312 0
M  V30 1752 H 167.996 -0.196866 -0.641471 0
M  V30 1753 H 170.54 -1.18117 -1.66939 0
M  V30 1754 H 168.695 -0.0378619 -3.87381 0
M  V30 1755 H 169.109 -2.03174 -4.8355 0
M  V30 1756 H 170.583 -0.456388 -5.5011 0
M  V30 1757 H 171.06 0.765663 -4.32475 0
M  V30 1758 H 171.666 -0.898113 -4.15709 0
M  V30 1759 N 169.982 1.44106 -0.638065 0
M  V30 1760 C 171.23 2.01579 -0.145043 0
M  V30 1761 C 171.551 1.50496 1.24 0
M  V30 1762 O 170.821 0.711374 1.82527 0
M  V30 1763 H 169.401 0.745282 -0.05063 0
M  V30 1764 H 172.063 1.76516 -0.826327 0
M  V30 1765 H 171.159 3.11877 -0.118039 0
M  V30 1766 N 171.46 0.379036 1.52974 0
M  V30 1767 C 172.688 -0.20679 2.05864 0
M  V30 1768 C 173.103 -1.41356 1.25155 0
M  V30 1769 O 172.46 -1.8009 0.295588 0
M  V30 1770 C 172.511 -0.587045 3.56702 0
M  V30 1771 O 172.232 0.571776 4.34353 0
M  V30 1772 C 173.733 -1.22983 4.25899 0
M  V30 1773 H 170.953 -0.0336123 0.670158 0
M  V30 1774 H 173.497 0.541298 1.97206 0
M  V30 1775 H 171.652 -1.28504 3.65466 0
M  V30 1776 H 172.066 0.261544 5.23847 0
M  V30 1777 H 173.54 -1.44635 5.32715 0
M  V30 1778 H 174.017 -2.19416 3.80465 0
M  V30 1779 H 174.623 -0.572892 4.21424 0
M  V30 1780 N 172.938 -1.57226 0.108567 0
M  V30 1781 C 173.886 -2.16002 -0.862885 0
M  V30 1782 C 174.88 -1.10644 -1.28274 0
M  V30 1783 O 176.086 -1.28966 -1.2557 0
M  V30 1784 H 172.461 -0.691148 -0.296342 0
M  V30 1785 H 174.432 -2.96427 -0.342575 0
M  V30 1786 C 173.181 -2.76576 -2.10716 0
M  V30 1787 H 172.504 -3.5734 -1.793 0
M  V30 1788 H 173.944 -3.21253 -2.76717 0
M  V30 1789 C 172.403 -1.73137 -2.89007 0
M  V30 1790 O 172.933 -1.17842 -3.84026 0
M  V30 1791 N 171.139 -1.43317 -2.52801 0
M  V30 1792 H 170.686 -1.88473 -1.75601 0
M  V30 1793 H 170.644 -0.743485 -3.05483 0
M  V30 1794 N 174.416 0.165178 -1.56732 0
M  V30 1795 C 175.664 0.879068 -1.8198 0
M  V30 1796 C 175.985 1.82514 -0.686561 0
M  V30 1797 O 175.255 1.93694 0.293146 0
M  V30 1798 H 173.835 0.327608 -0.671329 0
M  V30 1799 H 176.497 0.163526 -1.94213 0
M  V30 1800 H 175.593 1.45228 -2.76252 0
M  V30 1801 N 175.894 1.51508 0.433938 0
M  V30 1802 C 176.841 1.73068 1.52696 0
M  V30 1803 C 177.811 0.572441 1.55924 0
M  V30 1804 O 178.996 0.807253 1.72882 0
M  V30 1805 C 176.136 1.86474 2.90381 0
M  V30 1806 C 175.249 3.14037 2.96656 0
M  V30 1807 C 174.384 3.18019 4.25485 0
M  V30 1808 C 173.423 4.39882 4.2564 0
M  V30 1809 N 172.56 4.41394 5.45999 0
M  V30 1810 H 177.4 2.66366 1.33615 0
M  V30 1811 H 174.937 1.32008 0.649018 0
M  V30 1812 H 176.895 1.92229 3.70275 0
M  V30 1813 H 175.525 0.965809 3.08013 0
M  V30 1814 H 174.577 3.17575 2.09404 0
M  V30 1815 H 175.889 4.0394 2.92633 0
M  V30 1816 H 175.043 3.22708 5.13755 0
M  V30 1817 H 173.782 2.2601 4.3217 0
M  V30 1818 H 172.787 4.35366 3.35763 0
M  V30 1819 H 174.012 5.33159 4.20617 0
M  V30 1820 H 171.958 3.52258 5.53399 0
M  V30 1821 H 171.875 5.25111 5.4387 0
M  V30 1822 H 173.143 4.50281 6.36292 0
M  V30 1823 N 177.372 -0.689602 1.41712 0
M  V30 1824 C 178.6 -1.47827 1.44758 0
M  V30 1825 C 179.015 -1.88721 0.0545703 0
M  V30 1826 O 178.372 -1.57176 -0.927463 0
M  V30 1827 C 178.423 -2.73698 2.3616 0
M  V30 1828 O 178.144 -2.34524 3.7004 0
M  V30 1829 C 179.645 -3.67389 2.48072 0
M  V30 1830 H 176.865 -0.455357 0.49284 0
M  V30 1831 H 179.409 -0.848574 1.86063 0
M  V30 1832 H 177.564 -3.32891 1.98148 0
M  V30 1833 H 177.978 -3.15701 4.18847 0
M  V30 1834 H 179.452 -4.52475 3.16181 0
M  V30 1835 H 179.929 -4.12284 1.51388 0
M  V30 1836 H 180.535 -3.14097 2.86746 0
M  V30 1837 N 178.85 -1.27639 -0.924453 0
M  V30 1838 C 180.078 -1.16989 -1.70649 0
M  V30 1839 C 180.493 0.272869 -1.86818 0
M  V30 1840 O 179.85 1.18549 -1.38753 0
M  V30 1841 C 179.901 -1.85229 -3.10439 0
M  V30 1842 O 179.622 -3.23868 -2.95028 0
M  V30 1843 C 181.123 -1.80746 -4.04779 0
M  V30 1844 H 178.343 -0.406595 -0.53378 0
M  V30 1845 H 180.887 -1.68569 -1.15778 0
M  V30 1846 H 179.042 -1.37545 -3.6216 0
M  V30 1847 H 179.456 -3.57889 -3.83426 0
M  V30 1848 H 180.93 -2.33101 -5.00368 0
M  V30 1849 H 181.407 -0.777499 -4.32263 0
M  V30 1850 H 182.013 -2.28059 -3.58984 0
M  V30 1851 N 180.328 1.1314 -1.09713 0
M  V30 1852 C 181.556 1.88321 -0.856898 0
M  V30 1853 C 181.971 1.79276 0.592073 0
M  V30 1854 O 181.328 1.16142 1.40774 0
M  V30 1855 C 181.379 3.37812 -1.28706 0
M  V30 1856 O 181.1 3.46627 -2.67921 0
M  V30 1857 C 182.601 4.29952 -1.07964 0
M  V30 1858 H 179.821 0.596094 -0.308079 0
M  V30 1859 H 182.365 1.43205 -1.45988 0
M  V30 1860 H 180.52 3.805 -0.727912 0
M  V30 1861 H 180.934 4.39579 -2.8613 0
M  V30 1862 H 182.408 5.33159 -1.42986 0
M  V30 1863 H 182.885 4.39196 -0.0176577 0
M  V30 1864 H 183.491 3.93036 -1.62489 0
M  V30 1865 N 181.806 0.884767 1.30421 0
M  V30 1866 C 183.034 0.518044 2.0031 0
M  V30 1867 C 183.449 -0.893408 1.66324 0
M  V30 1868 O 182.806 -1.5875 0.900262 0
M  V30 1869 C 182.857 0.682997 3.54989 0
M  V30 1870 O 182.578 2.03888 3.87764 0
M  V30 1871 C 184.079 0.31924 4.42149 0
M  V30 1872 H 181.299 0.200265 0.640418 0
M  V30 1873 H 183.843 1.19001 1.6631 0
M  V30 1874 H 181.998 0.0584052 3.87356 0
M  V30 1875 H 182.412 2.05735 4.82466 0
M  V30 1876 H 183.886 0.485555 5.4986 0
M  V30 1877 H 184.363 -0.742717 4.32875 0
M  V30 1878 H 184.969 0.920147 4.15227 0
M  V30 1879 N 183.284 -1.43765 0.645699 0
M  V30 1880 C 184.216 -2.29027 -0.0890605 0
M  V30 1881 C 185.229 -1.42093 -0.794563 0
M  V30 1882 O 186.418 -1.66104 -0.653575 0
M  V30 1883 C 183.518 -3.18831 -1.14891 0
M  V30 1884 C 182.691 -4.34261 -0.523043 0
M  V30 1885 C 181.75 -5.04994 -1.47878 0
M  V30 1886 O 180.776 -5.6052 -0.990277 0
M  V30 1887 N 181.978 -5.07795 -2.81291 0
M  V30 1888 H 184.743 -2.92727 0.64272 0
M  V30 1889 H 182.304 -1.54373 0.487924 0
M  V30 1890 H 184.296 -3.63015 -1.78892 0
M  V30 1891 H 182.866 -2.56782 -1.78275 0
M  V30 1892 H 182.086 -3.93088 0.295896 0
M  V30 1893 H 183.374 -5.08728 -0.0858147 0
M  V30 1894 H 182.772 -4.64042 -3.23546 0
M  V30 1895 H 181.329 -5.55721 -3.40614 0
M  V30 1896 N 184.763 -0.387143 -1.52771 0
M  V30 1897 C 185.693 0.440551 -2.29306 0
M  V30 1898 C 186.674 1.06535 -1.32606 0
M  V30 1899 O 187.859 1.07853 -1.61497 0
M  V30 1900 C 184.989 1.56919 -3.09829 0
M  V30 1901 C 183.943 1.07054 -4.14395 0
M  V30 1902 C 183.269 2.29109 -4.83129 0
M  V30 1903 C 184.569 0.140015 -5.22112 0
M  V30 1904 H 186.263 -0.198026 -2.98744 0
M  V30 1905 H 183.809 -0.09668 -1.43675 0
M  V30 1906 H 185.762 2.15503 -3.62128 0
M  V30 1907 H 184.486 2.23532 -2.3812 0
M  V30 1908 H 183.145 0.507247 -3.63074 0
M  V30 1909 H 182.793 2.94227 -4.0797 0
M  V30 1910 H 182.493 1.96406 -5.53804 0
M  V30 1911 H 184.017 2.88339 -5.38231 0
M  V30 1912 H 185.431 0.633978 -5.69784 0
M  V30 1913 H 183.828 -0.0971485 -6.00021 0
M  V30 1914 H 184.898 -0.811711 -4.78058 0
M  V30 1915 N 186.241 1.57166 -0.116904 0
M  V30 1916 C 187.171 2.18222 0.830759 0
M  V30 1917 C 188.152 1.12167 1.27877 0
M  V30 1918 O 189.337 1.40394 1.34176 0
M  V30 1919 C 186.467 2.77996 2.08172 0
M  V30 1920 C 185.421 3.89614 1.77157 0
M  V30 1921 C 184.747 4.36187 3.09265 0
M  V30 1922 C 186.047 5.1181 1.04151 0
M  V30 1923 H 187.741 2.97664 0.321992 0
M  V30 1924 H 185.287 1.4318 0.153434 0
M  V30 1925 H 187.24 3.19366 2.74924 0
M  V30 1926 H 185.964 1.9584 2.6137 0
M  V30 1927 H 184.623 3.48816 1.12796 0
M  V30 1928 H 184.271 3.50893 3.60393 0
M  V30 1929 H 183.971 5.11455 2.89288 0
M  V30 1930 H 185.495 4.80207 3.77139 0
M  V30 1931 H 186.909 5.50214 1.61052 0
M  V30 1932 H 185.306 5.92648 0.942762 0
M  V30 1933 H 186.376 4.84892 0.0279022 0
M  V30 1934 N 187.719 -0.156864 1.56817 0
M  V30 1935 C 188.682 -1.17781 1.96622 0
M  V30 1936 C 189.682 -1.36401 0.851555 0
M  V30 1937 O 190.872 -1.33561 1.11836 0
M  V30 1938 C 188.004 -2.54008 2.27361 0
M  V30 1939 H 189.197 -0.836564 2.87996 0
M  V30 1940 H 186.75 -0.39985 1.51099 0
M  V30 1941 H 187.485 -2.9312 1.38748 0
M  V30 1942 H 187.27 -2.41856 3.08623 0
M  V30 1943 H 188.76 -3.27558 2.59029 0
M  V30 1944 N 189.197 -1.51736 -0.425897 0
M  V30 1945 C 190.129 -1.70083 -1.53638 0
M  V30 1946 C 191.142 -0.581349 -1.52066 0
M  V30 1947 O 192.331 -0.856017 -1.56635 0
M  V30 1948 C 189.431 -1.71078 -2.9255 0
M  V30 1949 C 188.604 -2.99795 -3.185 0
M  V30 1950 C 187.663 -2.92825 -4.37196 0
M  V30 1951 O 186.689 -3.66756 -4.35291 0
M  V30 1952 N 187.891 -2.0946 -5.41393 0
M  V30 1953 H 190.656 -2.65882 -1.383 0
M  V30 1954 H 188.217 -1.49765 -0.614988 0
M  V30 1955 H 190.209 -1.63969 -3.69995 0
M  V30 1956 H 188.779 -0.828242 -3.01428 0
M  V30 1957 H 187.999 -3.20684 -2.2925 0
M  V30 1958 H 189.287 -3.84977 -3.32671 0
M  V30 1959 H 188.685 -1.48792 -5.45781 0
M  V30 1960 H 187.242 -2.08221 -6.17647 0
M  V30 1961 N 190.675 0.682077 -1.42076 0
M  V30 1962 C 191.921 1.44283 -1.43366 0
M  V30 1963 C 192.276 1.92344 -0.0465775 0
M  V30 1964 O 191.569 1.67517 0.929973 0
M  V30 1965 C 191.763 2.66036 -2.38662 0
M  V30 1966 C 191.592 2.29889 -3.86499 0
M  V30 1967 C 190.362 2.19599 -4.55087 0
M  V30 1968 C 192.56 1.91999 -4.77117 0
M  V30 1969 N 190.542 1.76478 -5.87987 0
M  V30 1970 C 191.913 1.59741 -5.99068 0
M  V30 1971 C 193.968 1.78927 -4.64639 0
M  V30 1972 C 192.671 1.15723 -7.0993 0
M  V30 1973 C 194.697 1.36314 -5.75476 0
M  V30 1974 C 194.059 1.04975 -6.96534 0
M  V30 1975 H 190.158 0.524739 -0.579805 0
M  V30 1976 H 192.742 0.787834 -1.78048 0
M  V30 1977 H 190.913 3.29237 -2.06053 0
M  V30 1978 H 192.645 3.32588 -2.30581 0
M  V30 1979 H 189.4 2.38433 -4.09202 0
M  V30 1980 H 189.824 1.57362 -6.58458 0
M  V30 1981 H 194.466 2.01805 -3.7153 0
M  V30 1982 H 192.184 0.91591 -8.02893 0
M  V30 1983 H 195.77 1.26731 -5.6783 0
M  V30 1984 H 194.65 0.725017 -7.80841 0
M  V30 1985 N 192.153 1.28127 0.917671 0
M  V30 1986 C 193.378 1.18007 1.70555 0
M  V30 1987 C 193.803 -0.258257 1.86319 0
M  V30 1988 O 193.161 -1.1869 1.37049 0
M  V30 1989 C 193.209 1.87948 3.07746 0
M  V30 1990 O 192.313 1.18427 3.9503 0
M  V30 1991 H 191.654 0.409867 0.522403 0
M  V30 1992 H 194.184 1.69379 1.1477 0
M  V30 1993 H 194.194 1.95701 3.58001 0
M  V30 1994 H 192.869 2.92573 2.95591 0
M  V30 1995 H 191.446 1.18811 3.53466 0
M  V30 1996 N 193.631 -1.12557 1.10312 0
M  V30 1997 C 194.563 -2.17971 0.708625 0
M  V30 1998 C 195.576 -1.60806 -0.254027 0
M  V30 1999 O 196.765 -1.78458 -0.0386891 0
M  V30 2000 C 193.865 -3.38891 0.0248198 0
M  V30 2001 C 193.038 -4.25548 1.01132 0
M  V30 2002 C 192.097 -5.24972 0.35924 0
M  V30 2003 O 191.123 -5.60174 1.00965 0
M  V30 2004 N 192.325 -5.73747 -0.882847 0
M  V30 2005 H 195.09 -2.52427 1.61557 0
M  V30 2006 H 192.651 -1.27967 0.991771 0
M  V30 2007 H 194.643 -4.02485 -0.422852 0
M  V30 2008 H 193.213 -3.02596 -0.784514 0
M  V30 2009 H 192.433 -3.58589 1.6373 0
M  V30 2010 H 193.721 -4.80294 1.67914 0
M  V30 2011 H 193.119 -5.4731 -1.43065 0
M  V30 2012 H 191.676 -6.39234 -1.27369 0
M  V30 2013 N 195.109 -0.891671 -1.2995 0
M  V30 2014 C 196.039 -0.379797 -2.30391 0
M  V30 2015 C 197.02 0.540919 -1.6127 0
M  V30 2016 O 198.205 0.453352 -1.88834 0
M  V30 2017 C 195.335 0.400654 -3.44981 0
M  V30 2018 C 194.289 -0.428905 -4.25846 0
M  V30 2019 C 193.615 0.478557 -5.32554 0
M  V30 2020 C 194.915 -1.67458 -4.94727 0
M  V30 2021 H 196.609 -1.21914 -2.73454 0
M  V30 2022 H 194.155 -0.587675 -1.31462 0
M  V30 2023 H 196.108 0.769434 -4.14316 0
M  V30 2024 H 194.832 1.27371 -3.0074 0
M  V30 2025 H 193.491 -0.779911 -3.58208 0
M  V30 2026 H 193.139 1.34951 -4.84559 0
M  V30 2027 H 192.839 -0.0727433 -5.87555 0
M  V30 2028 H 194.363 0.843705 -6.04743 0
M  V30 2029 H 195.777 -1.376 -5.56542 0
M  V30 2030 H 194.174 -2.16659 -5.59624 0
M  V30 2031 H 195.244 -2.41518 -4.20473 0
M  V30 2032 N 196.587 1.43421 -0.653314 0
M  V30 2033 C 197.517 2.33487 0.0246656 0
M  V30 2034 C 198.498 1.49475 0.811863 0
M  V30 2035 O 199.683 1.78139 0.773322 0
M  V30 2036 C 196.813 3.32841 0.99166 0
M  V30 2037 C 195.767 4.26842 0.314568 0
M  V30 2038 C 195.093 5.16236 1.39302 0
M  V30 2039 C 196.393 5.16243 -0.793095 0
M  V30 2040 H 198.087 2.90427 -0.727481 0
M  V30 2041 H 195.633 1.39649 -0.351287 0
M  V30 2042 H 197.586 3.94747 1.47487 0
M  V30 2043 H 196.31 2.74158 1.77497 0
M  V30 2044 H 194.969 3.663 -0.148199 0
M  V30 2045 H 194.617 4.53891 2.16776 0
M  V30 2046 H 194.317 5.79948 0.945223 0
M  V30 2047 H 195.841 5.81015 1.87759 0
M  V30 2048 H 197.255 5.71958 -0.392039 0
M  V30 2049 H 195.652 5.88676 -1.16536 0
M  V30 2050 H 196.722 4.55927 -1.65103 0
M  V30 2051 N 198.065 0.39524 1.52563 0
M  V30 2052 C 199.313 -0.184678 2.01254 0
M  V30 2053 C 199.634 -1.46822 1.28329 0
M  V30 2054 O 198.904 -1.91666 0.405094 0
M  V30 2055 H 197.484 -0.0712355 0.743596 0
M  V30 2056 H 200.146 0.528293 1.87603 0
M  V30 2057 H 199.242 -0.390681 3.09645 0
M  V30 2058 N 199.544 -1.57102 0.125237 0
M  V30 2059 C 200.454 -2.19191 -0.8362 0
M  V30 2060 C 201.47 -1.16985 -1.28805 0
M  V30 2061 O 202.646 -1.49479 -1.34974 0
M  V30 2062 C 199.711 -2.78407 -2.06617 0
M  V30 2063 C 198.772 -3.9567 -1.66565 0
M  V30 2064 C 198.005 -4.52052 -2.83698 0
M  V30 2065 O 198.228 -4.07326 -3.99302 0
M  V30 2066 O 197.162 -5.42645 -2.60423 0
M  V30 2067 H 200.988 -3.01816 -0.337776 0
M  V30 2068 H 198.573 -1.4906 -0.100695 0
M  V30 2069 H 200.455 -3.16129 -2.7864 0
M  V30 2070 H 199.13 -1.9881 -2.55453 0
M  V30 2071 H 198.037 -3.62705 -0.916296 0
M  V30 2072 H 199.37 -4.76722 -1.22464 0
M  V30 2073 N 201.022 0.148545 -1.56898 0
M  V30 2074 C 202.271 0.85984 -1.82454 0
M  V30 2075 C 202.584 1.82406 -0.706229 0
M  V30 2076 O 203.79 2.57938 -0.847349 0
M  V30 2077 C 202.246 1.57967 -3.2338 0
M  V30 2078 C 201.854 0.65794 -4.43142 0
M  V30 2079 C 203.598 2.27784 -3.58211 0
M  V30 2080 C 201.505 1.3793 -5.75091 0
M  V30 2081 H 200.435 0.324834 -0.68044 0
M  V30 2082 H 203.086 0.112588 -1.83154 0
M  V30 2083 H 201.468 2.37249 -3.17063 0
M  V30 2084 H 202.642 -0.0995497 -4.60692 0
M  V30 2085 H 200.957 0.0682643 -4.16344 0
M  V30 2086 H 203.554 2.8239 -4.54048 0
M  V30 2087 H 203.897 3.04204 -2.84193 0
M  V30 2088 H 204.43 1.55421 -3.66182 0
M  V30 2089 H 201.169 0.656982 -6.52199 0
M  V30 2090 H 200.689 2.10954 -5.61479 0
M  V30 2091 H 202.368 1.92063 -6.17835 0
M  V30 2092 N 202.5 1.5196 0.417844 0
M  V30 2093 C 203.725 1.69717 1.1921 0
M  V30 2094 C 204.15 0.402148 1.83751 0
M  V30 2095 O 203.508 -0.639593 1.69643 0
M  V30 2096 C 203.556 2.82794 2.2374 0
M  V30 2097 O 202.66 2.47756 3.29683 0
M  V30 2098 H 202.001 0.565263 0.348387 0
M  V30 2099 H 204.531 1.98621 0.490985 0
M  V30 2100 H 204.541 3.07452 2.68212 0
M  V30 2101 H 203.216 3.76756 1.76146 0
M  V30 2102 H 201.793 2.33739 2.90552 0
M  V30 2103 N 203.978 -0.674533 1.42435 0
M  V30 2104 C 204.941 -1.76986 1.45632 0
M  V30 2105 C 205.941 -1.5708 0.343871 0
M  V30 2106 O 207.131 -1.63367 0.604709 0
M  V30 2107 C 204.263 -3.15623 1.28822 0
M  V30 2108 H 205.456 -1.75539 2.43158 0
M  V30 2109 H 203.009 -0.884189 1.28887 0
M  V30 2110 H 203.744 -3.22696 0.322193 0
M  V30 2111 H 203.529 -3.31475 2.09444 0
M  V30 2112 H 205.019 -3.95537 1.33942 0
M  V30 2113 N 205.456 -1.28612 -0.910864 0
M  V30 2114 C 206.702 -1.16106 -1.66274 0
M  V30 2115 C 207.035 0.289113 -1.92036 0
M  V30 2116 O 206.31 1.21 -1.52281 0
M  V30 2117 C 206.593 -1.96309 -3.01885 0
M  V30 2118 C 206.446 -3.49405 -2.8326 0
M  V30 2119 C 207.765 -1.78076 -4.02463 0
M  V30 2120 H 204.884 -0.423152 -0.603417 0
M  V30 2121 H 207.526 -1.57961 -1.05586 0
M  V30 2122 H 205.676 -1.60742 -3.53687 0
M  V30 2123 H 207.348 -3.94894 -2.38446 0
M  V30 2124 H 205.591 -3.74893 -2.18261 0
M  V30 2125 H 206.262 -4.00784 -3.79574 0
M  V30 2126 H 208.738 -2.0912 -3.59733 0
M  V30 2127 H 207.614 -2.36561 -4.95308 0
M  V30 2128 H 207.875 -0.733008 -4.35981 0
M  V30 2129 N 206.934 1.1197 -1.10907 0
M  V30 2130 C 207.867 2.16998 -0.706192 0
M  V30 2131 C 208.845 1.59903 0.294897 0
M  V30 2132 O 210.029 1.87513 0.192636 0
M  V30 2133 C 207.156 3.38673 -0.0427664 0
M  V30 2134 C 206.202 4.14414 -1.00811 0
M  V30 2135 S 207.035 4.72079 -2.52789 0
M  V30 2136 C 208.191 5.97083 -1.87731 0
M  V30 2137 H 208.424 2.50837 -1.59587 0
M  V30 2138 H 205.957 1.23508 -0.926555 0
M  V30 2139 H 207.915 4.09142 0.333668 0
M  V30 2140 H 206.576 3.03105 0.823788 0
M  V30 2141 H 205.769 5.016 -0.491259 0
M  V30 2142 H 205.371 3.49678 -1.3267 0
M  V30 2143 H 207.663 6.66599 -1.21044 0
M  V30 2144 H 208.606 6.53403 -2.72892 0
M  V30 2145 H 209.014 5.4837 -1.33979 0
M  V30 2146 N 208.412 0.89855 1.29475 0
M  V30 2147 C 209.66 0.522847 1.9522 0
M  V30 2148 C 209.981 -0.93371 1.71192 0
M  V30 2149 O 209.251 -1.65823 1.04305 0
M  V30 2150 H 207.831 0.190366 0.722336 0
M  V30 2151 H 210.493 1.14459 1.5775 0
M  V30 2152 H 209.589 0.704476 3.04045 0
M  V30 2153 N 209.89 -1.43072 0.660911 0
M  V30 2154 C 211.118 -2.06067 0.185422 0
M  V30 2155 C 211.533 -1.49582 -1.15198 0
M  V30 2156 O 210.89 -0.630134 -1.71276 0
M  V30 2157 C 210.941 -3.61371 0.0966523 0
M  V30 2158 O 210.662 -4.15758 1.38119 0
M  V30 2159 C 212.163 -4.41455 -0.403996 0
M  V30 2160 H 209.383 -0.664459 0.0934604 0
M  V30 2161 H 211.927 -1.83447 0.90373 0
M  V30 2162 H 210.082 -3.8315 -0.572259 0
M  V30 2163 H 210.496 -5.09499 1.24542 0
M  V30 2164 H 211.97 -5.50437 -0.415045 0
M  V30 2165 H 212.447 -4.15036 -1.43674 0
M  V30 2166 H 213.053 -4.24663 0.232691 0
M  V30 2167 N 211.368 -0.403325 -1.52352 0
M  V30 2168 C 212.614 0.174605 -2.02047 0
M  V30 2169 C 212.947 1.45282 -1.28867 0
M  V30 2170 O 212.222 1.90483 -0.393257 0
M  V30 2171 C 212.505 0.428238 -3.57545 0
M  V30 2172 C 212.358 -0.866248 -4.4138 0
M  V30 2173 C 213.677 1.21287 -4.23057 0
M  V30 2174 H 210.796 0.0619851 -0.734389 0
M  V30 2175 H 213.438 -0.53565 -1.82293 0
M  V30 2176 H 211.588 1.03327 -3.74507 0
M  V30 2177 H 213.26 -1.50265 -4.3614 0
M  V30 2178 H 211.503 -1.47851 -4.07827 0
M  V30 2179 H 212.174 -0.643249 -5.48239 0
M  V30 2180 H 214.65 0.700703 -4.10158 0
M  V30 2181 H 213.526 1.35909 -5.31808 0
M  V30 2182 H 213.787 2.23193 -3.81625 0
M  V30 2183 N 212.846 1.57033 -0.133567 0
M  V30 2184 C 214.094 1.953 0.519848 0
M  V30 2185 C 214.415 1.01866 1.66278 0
M  V30 2186 O 213.685 0.0776513 1.95746 0
M  V30 2187 H 212.265 0.721091 0.195032 0
M  V30 2188 H 214.927 1.93809 -0.205921 0
M  V30 2189 H 214.023 2.98695 0.904854 0
M  V30 2190 N 214.325 -0.140222 1.56975 0
M  V30 2191 C 215.273 -1.19207 1.99731 0
M  V30 2192 C 216.267 -1.44089 0.890777 0
M  V30 2193 O 217.473 -1.44301 1.07597 0
M  V30 2194 H 213.848 -0.40142 0.635898 0
M  V30 2195 H 215.819 -0.804813 2.87342 0
M  V30 2196 C 214.568 -2.51617 2.39967 0
M  V30 2197 H 213.891 -2.33303 3.24669 0
M  V30 2198 H 215.331 -3.23827 2.73701 0
M  V30 2199 C 213.79 -3.12654 1.25496 0
M  V30 2200 O 214.32 -3.97786 0.559371 0
M  V30 2201 N 212.526 -2.72206 1.01746 0
M  V30 2202 H 212.073 -2.03074 1.58489 0
M  V30 2203 H 212.031 -3.13377 0.253461 0
M  V30 2204 N 215.803 -1.52179 -0.40978 0
M  V30 2205 C 217.051 -1.65878 -1.15451 0
M  V30 2206 C 217.372 -0.390771 -1.91044 0
M  V30 2207 O 216.642 0.594323 -1.86667 0
M  V30 2208 H 215.222 -0.611405 -0.429177 0
M  V30 2209 H 217.884 -1.89219 -0.467134 0
M  V30 2210 H 216.98 -2.49954 -1.86894 0
M  V30 2211 N 217.281 0.66697 -1.42791 0
M  V30 2212 C 218.211 1.79218 -1.49677 0
M  V30 2213 C 219.192 1.66405 -0.352623 0
M  V30 2214 O 220.377 1.85708 -0.567993 0
M  V30 2215 C 217.507 3.17565 -1.40605 0
M  V30 2216 C 216.461 3.45124 -2.53127 0
M  V30 2217 C 215.787 4.83127 -2.29112 0
M  V30 2218 C 217.087 3.41236 -3.95418 0
M  V30 2219 H 218.781 1.73713 -2.43853 0
M  V30 2220 H 216.327 0.83432 -1.17367 0
M  V30 2221 H 218.28 3.96022 -1.44029 0
M  V30 2222 H 217.004 3.23767 -0.429271 0
M  V30 2223 H 215.663 2.69031 -2.49034 0
M  V30 2224 H 215.311 4.85988 -1.29709 0
M  V30 2225 H 215.011 5.02528 -3.04531 0
M  V30 2226 H 216.535 5.63859 -2.34297 0
M  V30 2227 H 217.949 4.09651 -4.01073 0
M  V30 2228 H 216.346 3.72173 -4.70752 0
M  V30 2229 H 217.416 2.39665 -4.21532 0
M  V30 2230 N 218.759 1.29093 0.90403 0
M  V30 2231 C 219.689 1.16401 2.02418 0
M  V30 2232 C 220.67 0.0593085 1.69997 0
M  V30 2233 O 221.855 0.238021 1.92736 0
M  V30 2234 C 218.985 0.835233 3.37107 0
M  V30 2235 C 217.939 1.89578 3.83724 0
M  V30 2236 C 217.265 1.42041 5.15489 0
M  V30 2237 C 218.565 3.30394 4.04521 0
M  V30 2238 H 220.259 2.10109 2.13295 0
M  V30 2239 H 217.805 1.01157 1.02486 0
M  V30 2240 H 219.758 0.733169 4.14973 0
M  V30 2241 H 218.482 -0.137543 3.2631 0
M  V30 2242 H 217.141 1.98715 3.08071 0
M  V30 2243 H 216.789 0.436426 5.01103 0
M  V30 2244 H 216.489 2.12964 5.4765 0
M  V30 2245 H 218.013 1.33176 5.959 0
M  V30 2246 H 219.427 3.24123 4.72882 0
M  V30 2247 H 217.824 3.99237 4.48029 0
M  V30 2248 H 218.894 3.73692 3.09002 0
M  V30 2249 N 220.237 -1.11381 1.11499 0
M  V30 2250 C 221.485 -1.8277 0.862524 0
M  V30 2251 C 221.806 -1.85097 -0.613534 0
M  V30 2252 O 221.076 -1.32198 -1.4457 0
M  V30 2253 H 219.656 -0.676823 0.316101 0
M  V30 2254 H 222.318 -1.34816 1.4075 0
M  V30 2255 H 221.414 -2.86614 1.23527 0
M  V30 2256 N 221.715 -0.905404 -1.28997 0
M  V30 2257 C 222.662 -0.385892 -2.27551 0
M  V30 2258 C 223.632 0.535113 -1.57244 0
M  V30 2259 O 224.817 0.459119 -1.85194 0
M  V30 2260 C 221.957 0.375461 -3.43051 0
M  V30 2261 C 221.07 -0.577092 -4.28128 0
M  V30 2262 C 220.205 0.201879 -5.30816 0
M  V30 2263 C 219.244 -0.744829 -6.07551 0
M  V30 2264 N 218.381 9.42587e-05 -7.021 0
M  V30 2265 H 223.221 -1.23139 -2.71368 0
M  V30 2266 H 220.758 -0.618542 -1.33463 0
M  V30 2267 H 222.716 0.832992 -4.088 0
M  V30 2268 H 221.346 1.18537 -3.00248 0
M  V30 2269 H 220.398 -1.15315 -3.62501 0
M  V30 2270 H 221.71 -1.30152 -4.8152 0
M  V30 2271 H 220.864 0.720351 -6.02408 0
M  V30 2272 H 219.603 0.959413 -4.7817 0
M  V30 2273 H 218.608 -1.27475 -5.34818 0
M  V30 2274 H 219.833 -1.50178 -6.62286 0
M  V30 2275 H 217.779 0.739791 -6.51815 0
M  V30 2276 H 217.696 -0.664321 -7.53076 0
M  V30 2277 H 218.964 0.498644 -7.77903 0
M  V30 2278 N 223.193 1.4272 -0.668489 0
M  V30 2279 C 224.439 2.01923 -0.188419 0
M  V30 2280 C 224.772 1.52704 1.19979 0
M  V30 2281 O 224.047 0.726566 1.8042 0
M  V30 2282 C 224.33 3.59451 -0.216085 0
M  V30 2283 C 224.183 4.18864 -1.6393 0
M  V30 2284 C 225.502 4.37903 0.439179 0
M  V30 2285 H 222.621 0.733674 -0.0699412 0
M  V30 2286 H 225.263 1.69822 -0.852076 0
M  V30 2287 H 223.413 3.86929 0.349012 0
M  V30 2288 H 225.085 4.02362 -2.25616 0
M  V30 2289 H 223.328 3.74933 -2.18193 0
M  V30 2290 H 223.999 5.27987 -1.61039 0
M  V30 2291 H 226.475 4.16079 -0.0417878 0
M  V30 2292 H 225.351 5.47519 0.389157 0
M  V30 2293 H 225.612 4.15303 1.51577 0
M  V30 2294 N 224.671 0.411399 1.52136 0
M  V30 2295 C 225.92 -0.165009 2.01024 0
M  V30 2296 C 226.233 -1.4603 1.30133 0
M  V30 2297 O 227.439 -2.1181 1.69849 0
M  V30 2298 C 225.895 -0.344618 3.58246 0
M  V30 2299 C 225.503 0.938716 4.38055 0
M  V30 2300 C 227.247 -0.876195 4.15359 0
M  V30 2301 C 225.154 0.726172 5.86925 0
M  V30 2302 H 224.084 -0.0654407 0.751155 0
M  V30 2303 H 226.735 0.537192 1.75461 0
M  V30 2304 H 225.117 -1.10921 3.80148 0
M  V30 2305 H 226.291 1.70963 4.27912 0
M  V30 2306 H 224.606 1.39688 3.92271 0
M  V30 2307 H 227.203 -1.05128 5.24263 0
M  V30 2308 H 227.546 -1.85152 3.7286 0
M  V30 2309 H 228.079 -0.170607 3.97434 0
M  V30 2310 H 224.818 1.67312 6.33788 0
M  V30 2311 H 224.338 -0.00540283 5.998 0
M  V30 2312 H 226.017 0.369231 6.45946 0
M  V30 2313 N 226.149 -1.5696 0.141893 0
M  V30 2314 C 227.56 -1.82797 -0.379776 0
M  V30 2315 C 227.911 -1.06033 -1.6508 0
M  V30 2316 O 227.036 -0.304011 -2.14254 0
M  V30 2317 C 227.631 -3.31578 -0.695802 0
M  V30 2318 C 226.19 -3.58014 -1.16201 0
M  V30 2319 C 225.337 -2.76699 -0.182455 0
M  V30 2320 H 228.288 -1.54406 0.366675 0
M  V30 2321 H 228.309 -3.47454 -1.55099 0
M  V30 2322 H 227.821 -3.87421 0.229449 0
M  V30 2323 H 225.922 -3.07553 -2.10338 0
M  V30 2324 H 226.035 -4.66501 -1.09151 0
M  V30 2325 H 224.399 -2.45618 -0.674072 0
M  V30 2326 H 225.182 -3.35311 0.736297 0
M  V30 2327 N 227.627 0.131896 -1.57047 0
M  V30 2328 C 228.855 0.856461 -1.88341 0
M  V30 2329 C 229.27 1.74042 -0.731757 0
M  V30 2330 O 228.627 1.80051 0.297945 0
M  V30 2331 C 228.678 1.70064 -3.18999 0
M  V30 2332 O 228.399 0.852278 -4.2973 0
M  V30 2333 C 229.9 2.53148 -3.63911 0
M  V30 2334 H 227.12 0.246885 -0.62393 0
M  V30 2335 H 229.664 0.120152 -2.04147 0
M  V30 2336 H 227.819 2.38984 -3.04902 0
M  V30 2337 H 228.233 1.43329 -5.04537 0
M  V30 2338 H 229.707 3.07931 -4.58129 0
M  V30 2339 H 230.184 3.29901 -2.89935 0
M  V30 2340 H 230.79 1.89492 -3.80753 0
M  V30 2341 N 229.106 1.52395 0.401703 0
M  V30 2342 C 230.016 1.7917 1.51444 0
M  V30 2343 C 231.032 0.677691 1.6026 0
M  V30 2344 O 232.208 0.963909 1.76835 0
M  V30 2345 C 229.273 1.94347 2.87107 0
M  V30 2346 C 228.334 3.18257 2.88116 0
M  V30 2347 C 227.567 3.32701 4.17308 0
M  V30 2348 O 227.79 2.52238 5.11598 0
M  V30 2349 O 226.724 4.25891 4.25324 0
M  V30 2350 H 230.55 2.73633 1.31752 0
M  V30 2351 H 228.135 1.3733 0.588296 0
M  V30 2352 H 230.017 2.06109 3.67555 0
M  V30 2353 H 228.692 1.03073 3.06851 0
M  V30 2354 H 227.599 3.11947 2.06494 0
M  V30 2355 H 228.932 4.09336 2.73322 0
M  V30 2356 N 230.584 -0.659388 1.43143 0
M  V30 2357 C 231.532 -1.79374 1.4808 0
M  V30 2358 C 232.526 -1.65639 0.354988 0
M  V30 2359 O 233.732 -1.7206 0.528704 0
M  V30 2360 H 230.107 -0.591705 0.4641 0
M  V30 2361 H 232.078 -1.72329 2.43609 0
M  V30 2362 C 230.827 -3.17606 1.41499 0
M  V30 2363 H 230.15 -3.28809 2.27431 0
M  V30 2364 H 231.59 -3.96951 1.49015 0
M  V30 2365 C 230.049 -3.36642 0.131765 0
M  V30 2366 O 230.579 -3.93461 -0.809386 0
M  V30 2367 N 228.785 -2.90567 0.0439396 0
M  V30 2368 H 228.332 -2.44513 0.810619 0
M  V30 2369 H 228.29 -3.03681 -0.813969 0
M  V30 2370 N 232.062 -1.29571 -0.897171 0
M  V30 2371 C 233.29 -1.20583 -1.68129 0
M  V30 2372 C 233.705 0.233181 -1.87354 0
M  V30 2373 O 233.062 1.15579 -1.41236 0
M  V30 2374 C 233.113 -1.91772 -3.06441 0
M  V30 2375 O 232.834 -3.30053 -2.88091 0
M  V30 2376 C 234.335 -1.89291 -4.00854 0
M  V30 2377 H 231.555 -0.417826 -0.525036 0
M  V30 2378 H 234.099 -1.70987 -1.12177 0
M  V30 2379 H 232.254 -1.45196 -3.59161 0
M  V30 2380 H 232.668 -3.65942 -3.75748 0
M  V30 2381 H 234.142 -2.43662 -4.95311 0
M  V30 2382 H 234.619 -0.869014 -4.30517 0
M  V30 2383 H 235.225 -2.35622 -3.54066 0
M  V30 2384 N 233.54 1.10788 -1.12088 0
M  V30 2385 C 234.768 1.86461 -0.896651 0
M  V30 2386 C 235.183 1.80492 0.553912 0
M  V30 2387 O 234.54 1.19102 1.38278 0
M  V30 2388 C 234.591 3.35006 -1.35843 0
M  V30 2389 O 234.312 3.40866 -2.75213 0
M  V30 2390 C 235.813 4.27565 -1.1706 0
M  V30 2391 H 233.033 0.589425 -0.320654 0
M  V30 2392 H 235.577 1.40076 -1.48993 0
M  V30 2393 H 233.732 3.7887 -0.808458 0
M  V30 2394 H 234.146 4.33411 -2.9539 0
M  V30 2395 H 235.62 5.30007 -1.54263 0
M  V30 2396 H 236.097 4.3906 -0.110814 0
M  V30 2397 H 236.703 3.89501 -1.70789 0
M  V30 2398 N 235.018 0.912232 1.28515 0
M  V30 2399 C 236.266 0.543523 1.94654 0
M  V30 2400 C 236.587 -0.9155 1.72173 0
M  V30 2401 O 235.857 -1.64708 1.06058 0
M  V30 2402 H 234.437 0.198017 0.720277 0
M  V30 2403 H 237.099 1.16126 1.56527 0
M  V30 2404 H 236.195 0.736684 3.03281 0
M  V30 2405 N 236.496 -1.42363 0.676048 0
M  V30 2406 C 237.721 -2.06377 0.205705 0
M  V30 2407 C 238.146 -1.50463 -1.12883 0
M  V30 2408 O 237.504 -0.623619 -1.70237 0
M  V30 2409 C 237.552 -3.60277 0.152655 0
M  V30 2410 O 236.656 -4.02935 -0.87845 0
M  V30 2411 H 235.997 -0.655588 0.105359 0
M  V30 2412 H 238.527 -1.82475 0.925412 0
M  V30 2413 H 238.537 -4.07993 -0.0230675 0
M  V30 2414 H 237.212 -4.00346 1.12675 0
M  V30 2415 H 235.789 -3.66764 -0.673668 0
M  V30 2416 N 237.974 -0.419461 -1.51915 0
M  V30 2417 C 238.937 0.389116 -2.25873 0
M  V30 2418 C 239.937 0.964924 -1.28631 0
M  V30 2419 O 241.127 0.842179 -1.52489 0
M  V30 2420 C 238.259 1.54874 -3.03689 0
M  V30 2421 H 239.452 -0.258799 -2.98781 0
M  V30 2422 H 237.005 -0.172209 -1.55348 0
M  V30 2423 H 237.74 2.23323 -2.35154 0
M  V30 2424 H 237.525 1.14223 -3.75094 0
M  V30 2425 H 239.015 2.12046 -3.59759 0
M  V30 2426 N 239.452 1.56882 -0.150215 0
M  V30 2427 C 240.698 1.96518 0.500834 0
M  V30 2428 C 241.031 1.03527 1.64304 0
M  V30 2429 O 240.306 0.0782751 1.94342 0
M  V30 2430 C 240.589 3.45822 1.00395 0
M  V30 2431 C 240.442 4.49591 -0.136983 0
M  V30 2432 C 241.761 3.97704 1.88467 0
M  V30 2433 H 238.88 0.714535 0.18058 0
M  V30 2434 H 241.522 1.88577 -0.232091 0
M  V30 2435 H 239.672 3.5272 1.62851 0
M  V30 2436 H 241.344 4.5477 -0.77343 0
M  V30 2437 H 239.587 4.26441 -0.795652 0
M  V30 2438 H 240.258 5.51402 0.256815 0
M  V30 2439 H 242.734 3.93304 1.35834 0
M  V30 2440 H 241.61 5.0263 2.20578 0
M  V30 2441 H 241.871 3.40252 2.82279 0
M  V30 2442 N 240.93 -0.123565 1.57115 0
M  V30 2443 C 242.207 -0.862196 1.75572 0
M  V30 2444 C 242.587 -1.98279 0.724475 0
M  V30 2445 O 241.935 -2.27102 -0.252407 0
M  V30 2446 C 242.145 -1.38309 3.20424 0
M  V30 2447 C 243.493 -1.83724 3.82793 0
M  V30 2448 O 244.517 -1.47999 3.23998 0
M  V30 2449 O 243.376 -2.49685 4.86127 0
M  V30 2450 H 240.47 -0.409113 0.718718 0
M  V30 2451 H 243.016 -0.107661 1.69358 0
M  V30 2452 H 241.788 -0.578889 3.86994 0
M  V30 2453 H 241.411 -2.20046 3.31158 0
M  V30 2454 N 242.408 -1.52605 -0.393616 0
M  V30 2455 C 243.654 -1.67672 -1.14079 0
M  V30 2456 C 243.987 -0.413121 -1.89755 0
M  V30 2457 O 243.262 0.588952 -1.85369 0
M  V30 2458 C 243.545 -2.9088 -2.12276 0
M  V30 2459 C 243.398 -4.27329 -1.40394 0
M  V30 2460 C 244.717 -3.09628 -3.12759 0
M  V30 2461 H 241.836 -0.610168 -0.413356 0
M  V30 2462 H 244.478 -1.85193 -0.424696 0
M  V30 2463 H 242.628 -2.76073 -2.73342 0
M  V30 2464 H 244.3 -4.53894 -0.82327 0
M  V30 2465 H 242.543 -4.2802 -0.705801 0
M  V30 2466 H 243.214 -5.09615 -2.12123 0
M  V30 2467 H 245.69 -3.23436 -2.61779 0
M  V30 2468 H 244.566 -3.97322 -3.78717 0
M  V30 2469 H 244.827 -2.23637 -3.81365 0
M  V30 2470 N 243.887 0.651787 -1.4349 0
M  V30 2471 C 244.819 1.77725 -1.44729 0
M  V30 2472 C 245.832 1.59141 -0.343231 0
M  V30 2473 O 247.021 1.67835 -0.607751 0
M  V30 2474 C 244.121 3.15172 -1.24579 0
M  V30 2475 C 243.294 3.60402 -2.47849 0
M  V30 2476 C 242.353 4.76656 -2.22902 0
M  V30 2477 O 241.379 4.86022 -2.96263 0
M  V30 2478 N 242.581 5.66958 -1.24656 0
M  V30 2479 H 245.346 1.77141 -2.41746 0
M  V30 2480 H 242.907 0.835678 -1.38665 0
M  V30 2481 H 244.899 3.90634 -1.0577 0
M  V30 2482 H 243.469 3.1052 -0.360015 0
M  V30 2483 H 242.689 2.75369 -2.82073 0
M  V30 2484 H 243.977 3.87368 -3.29884 0
M  V30 2485 H 243.375 5.62065 -0.640265 0
M  V30 2486 H 241.932 6.42135 -1.1183 0
M  V30 2487 N 245.365 1.30045 0.890287 0
M  V30 2488 C 246.315 1.12592 1.9826 0
M  V30 2489 C 247.299 0.0426021 1.60844 0
M  V30 2490 O 248.491 0.265346 1.75 0
M  V30 2491 C 245.62 0.814301 3.33503 0
M  V30 2492 C 244.706 1.93761 3.7725 0
M  V30 2493 N 245.097 3.18232 3.93143 0
M  V30 2494 C 243.395 1.83277 4.06602 0
M  V30 2495 C 244.096 3.9158 4.30163 0
M  V30 2496 N 243.072 3.19591 4.3973 0
M  V30 2497 H 246.874 2.07003 2.08631 0
M  V30 2498 H 244.388 1.21307 1.07974 0
M  V30 2499 H 246.385 0.67029 4.11476 0
M  V30 2500 H 245.045 -0.121797 3.24471 0
M  V30 2501 H 246.056 3.53581 3.78419 0
M  V30 2502 H 242.733 0.97001 4.06075 0
M  V30 2503 H 244.123 4.98744 4.50226 0
M  V30 2504 N 246.843 -1.10192 1.12674 0
M  V30 2505 C 247.753 -2.20172 0.810026 0
M  V30 2506 C 248.769 -1.72821 -0.202188 0
M  V30 2507 O 249.945 -2.01369 -0.0351691 0
M  V30 2508 C 247.01 -3.45631 0.272007 0
M  V30 2509 C 246.071 -4.07704 1.34447 0
M  V30 2510 C 245.304 -5.27175 0.832029 0
M  V30 2511 O 245.527 -5.69425 -0.333284 0
M  V30 2512 O 244.461 -5.80168 1.60277 0
M  V30 2513 H 248.287 -2.49701 1.72867 0
M  V30 2514 H 245.872 -1.18977 0.903597 0
M  V30 2515 H 247.754 -4.21394 -0.0230219 0
M  V30 2516 H 246.429 -3.17723 -0.619164 0
M  V30 2517 H 245.336 -3.33614 1.6927 0
M  V30 2518 H 246.669 -4.3982 2.2095 0
M  V30 2519 N 248.321 -0.919034 -1.28029 0
M  V30 2520 C 249.251 -0.428581 -2.29533 0
M  V30 2521 C 250.232 0.50659 -1.62381 0
M  V30 2522 O 251.417 0.413195 -1.89753 0
M  V30 2523 C 248.547 0.327388 -3.45753 0
M  V30 2524 C 247.501 -0.519137 -4.2484 0
M  V30 2525 C 246.827 0.365486 -5.33449 0
M  V30 2526 C 248.127 -1.77914 -4.91064 0
M  V30 2527 H 249.821 -1.27687 -2.70807 0
M  V30 2528 H 247.367 -0.615428 -1.30186 0
M  V30 2529 H 249.32 0.681378 -4.15855 0
M  V30 2530 H 248.044 1.20963 -3.03374 0
M  V30 2531 H 246.703 -0.855717 -3.56473 0
M  V30 2532 H 246.351 1.24642 -4.87312 0
M  V30 2533 H 246.051 -0.197356 -5.87268 0
M  V30 2534 H 247.575 0.715241 -6.06396 0
M  V30 2535 H 248.989 -1.49374 -5.53498 0
M  V30 2536 H 247.386 -2.2848 -5.54903 0
M  V30 2537 H 248.456 -2.50382 -4.15255 0
M  V30 2538 N 249.799 1.42003 -0.683588 0
M  V30 2539 C 250.762 2.29191 -0.0198243 0
M  V30 2540 C 251.762 1.43773 0.72013 0
M  V30 2541 O 252.952 1.65061 0.556815 0
M  V30 2542 C 250.084 3.26435 0.982487 0
M  V30 2543 H 251.277 2.8938 -0.787345 0
M  V30 2544 H 248.83 1.49789 -0.446418 0
M  V30 2545 H 249.565 2.71203 1.77819 0
M  V30 2546 H 249.35 3.89449 0.455182 0
M  V30 2547 H 250.84 3.918 1.44508 0
M  V30 2548 N 251.277 0.427512 1.51691 0
M  V30 2549 C 252.525 -0.141948 2.01601 0
M  V30 2550 C 252.846 -1.44067 1.31414 0
M  V30 2551 O 252.116 -1.90763 0.445658 0
M  V30 2552 H 250.696 -0.0554468 0.744939 0
M  V30 2553 H 253.358 0.567968 1.86441 0
M  V30 2554 H 252.454 -0.324913 3.10404 0
M  V30 2555 N 252.755 -1.56801 0.158532 0
M  V30 2556 C 253.685 -2.20347 -0.772609 0
M  V30 2557 C 254.666 -1.15518 -1.24859 0
M  V30 2558 O 255.851 -1.43902 -1.30406 0
M  V30 2559 C 252.981 -2.83417 -2.00729 0
M  V30 2560 C 251.935 -3.94174 -1.66765 0
M  V30 2561 C 251.261 -4.44233 -2.97592 0
M  V30 2562 C 252.561 -5.14392 -0.905447 0
M  V30 2563 H 254.255 -2.98413 -0.242959 0
M  V30 2564 H 251.801 -1.43537 -0.115419 0
M  V30 2565 H 253.754 -3.26543 -2.6636 0
M  V30 2566 H 252.478 -2.02701 -2.56086 0
M  V30 2567 H 251.137 -3.51684 -1.03508 0
M  V30 2568 H 250.785 -3.60325 -3.50963 0
M  V30 2569 H 250.485 -5.18945 -2.75626 0
M  V30 2570 H 252.009 -4.90037 -3.64274 0
M  V30 2571 H 253.423 -5.5429 -1.46408 0
M  V30 2572 H 251.82 -5.9494 -0.7853 0
M  V30 2573 H 252.89 -4.84795 0.100668 0
M  V30 2574 N 254.233 0.115231 -1.57178 0
M  V30 2575 C 255.479 0.82357 -1.85325 0
M  V30 2576 C 255.812 1.79349 -0.744814 0
M  V30 2577 O 255.087 1.92899 0.249024 0
M  V30 2578 C 255.37 1.57014 -3.24066 0
M  V30 2579 C 255.223 0.619565 -4.45513 0
M  V30 2580 C 256.542 2.52545 -3.60429 0
M  V30 2581 H 253.661 0.297948 -0.674089 0
M  V30 2582 H 256.303 0.0877138 -1.89797 0
M  V30 2583 H 254.453 2.19742 -3.20383 0
M  V30 2584 H 256.125 0.000837639 -4.613 0
M  V30 2585 H 254.368 -0.0686174 -4.33746 0
M  V30 2586 H 255.039 1.17866 -5.3927 0
M  V30 2587 H 257.515 1.9992 -3.64926 0
M  V30 2588 H 256.391 3.01811 -4.58477 0
M  V30 2589 H 256.652 3.35383 -2.88047 0
M  V30 2590 N 255.711 1.52812 0.385517 0
M  V30 2591 C 256.988 1.5861 1.14465 0
M  V30 2592 C 257.368 0.381402 2.07626 0
M  V30 2593 O 256.716 -0.629999 2.19643 0
M  V30 2594 C 256.926 2.92664 1.90128 0
M  V30 2595 C 258.274 3.46526 2.45367 0
M  V30 2596 O 259.298 2.94562 2.0028 0
M  V30 2597 O 258.157 4.37323 3.27736 0
M  V30 2598 H 255.251 0.639855 0.523941 0
M  V30 2599 H 257.797 1.65149 0.390389 0
M  V30 2600 H 256.569 3.71788 1.22022 0
M  V30 2601 H 256.192 2.89527 2.72507 0
M  V30 2602 N 257.189 -0.644168 1.43834 0
M  V30 2603 C 258.121 -1.76955 1.45669 0
M  V30 2604 C 259.134 -1.58956 0.351666 0
M  V30 2605 O 260.323 -1.6751 0.616644 0
M  V30 2606 C 257.423 -3.14507 1.26248 0
M  V30 2607 C 256.596 -3.59083 2.49757 0
M  V30 2608 C 255.655 -4.75467 2.25427 0
M  V30 2609 O 254.681 -4.84444 2.98836 0
M  V30 2610 N 255.883 -5.66289 1.27661 0
M  V30 2611 H 258.648 -1.75856 2.42682 0
M  V30 2612 H 256.209 -0.828312 1.39106 0
M  V30 2613 H 258.201 -3.90067 1.0784 0
M  V30 2614 H 256.771 -3.10325 0.376478 0
M  V30 2615 H 255.991 -2.7387 2.8353 0
M  V30 2616 H 257.279 -3.85613 3.31934 0
M  V30 2617 H 256.677 -5.61718 0.670064 0
M  V30 2618 H 255.234 -6.41533 1.15234 0
M  V30 2619 N 258.668 -1.30515 -0.883378 0
M  V30 2620 C 259.916 -1.19194 -1.63209 0
M  V30 2621 C 260.237 0.253205 -1.93349 0
M  V30 2622 O 259.507 1.17025 -1.57105 0
M  V30 2623 H 258.087 -0.438148 -0.605009 0
M  V30 2624 H 260.749 -1.63663 -1.05832 0
M  V30 2625 H 259.845 -1.75396 -2.58153 0
M  V30 2626 N 260.146 1.09593 -1.13257 0
M  V30 2627 C 261.109 2.14359 -0.811358 0
M  V30 2628 C 262.109 1.59808 0.178377 0
M  V30 2629 O 263.299 1.74132 -0.0484911 0
M  V30 2630 C 260.431 3.40269 -0.207276 0
M  V30 2631 H 261.624 2.44284 -1.73969 0
M  V30 2632 H 259.177 1.25102 -0.936973 0
M  V30 2633 H 259.912 3.15969 0.73036 0
M  V30 2634 H 259.697 3.81154 -0.919992 0
M  V30 2635 H 261.187 4.176 0.000667944 0
M  V30 2636 N 261.624 0.925811 1.2754 0
M  V30 2637 C 262.852 0.581509 1.9856 0
M  V30 2638 C 263.267 -0.840041 1.69082 0
M  V30 2639 O 262.624 -1.55805 0.950312 0
M  V30 2640 C 262.675 0.795589 3.52637 0
M  V30 2641 O 262.396 2.16121 3.81082 0
M  V30 2642 C 263.897 0.459744 4.4091 0
M  V30 2643 H 261.117 0.220538 0.633722 0
M  V30 2644 H 263.661 1.24232 1.6244 0
M  V30 2645 H 261.816 0.18161 3.86974 0
M  V30 2646 H 262.23 2.2098 4.75676 0
M  V30 2647 H 263.704 0.660244 5.48037 0
M  V30 2648 H 264.181 -0.604625 4.35018 0
M  V30 2649 H 264.787 1.05178 4.12089 0
M  V30 2650 N 263.102 -1.41638 0.69111 0
M  V30 2651 C 264.349 -2.01299 0.220193 0
M  V30 2652 C 264.677 -1.54715 -1.17871 0
M  V30 2653 O 263.932 -0.747193 -1.80874 0
M  V30 2654 C 264.231 -3.56714 0.221277 0
M  V30 2655 C 263.897 -4.22792 1.56709 0
M  V30 2656 C 262.559 -4.40557 1.93554 0
M  V30 2657 C 264.911 -4.59883 2.45268 0
M  V30 2658 C 262.239 -4.92688 3.18552 0
M  V30 2659 C 264.591 -5.13403 3.69595 0
M  V30 2660 C 263.255 -5.29379 4.06589 0
M  V30 2661 H 262.525 -0.736606 0.0805743 0
M  V30 2662 H 265.172 -1.69598 0.889319 0
M  V30 2663 H 263.477 -3.8818 -0.531391 0
M  V30 2664 H 265.174 -4.00678 -0.160547 0
M  V30 2665 H 261.764 -4.09336 1.2705 0
M  V30 2666 H 265.948 -4.45817 2.18084 0
M  V30 2667 H 261.204 -5.03242 3.47214 0
M  V30 2668 H 265.378 -5.41084 4.38407 0
M  V30 2669 H 263.005 -5.69537 5.03519 0
M  V30 2670 N 264.58 -0.43555 -1.51462 0
M  V30 2671 C 265.82 0.130708 -2.03982 0
M  V30 2672 C 266.184 1.40117 -1.31268 0
M  V30 2673 O 267.385 2.04755 -1.74152 0
M  V30 2674 C 265.656 0.346102 -3.5572 0
M  V30 2675 S 267.215 0.876022 -4.29967 0
M  V30 2676 H 264.033 0.0326881 -0.710248 0
M  V30 2677 H 266.635 -0.594544 -1.8624 0
M  V30 2678 H 265.339 -0.584911 -4.0621 0
M  V30 2679 H 264.87 1.09849 -3.77752 0
M  V30 2680 H 266.885 2.15379 -4.47019 0
M  V30 2681 N 266.058 1.56714 -0.166846 0
M  V30 2682 C 267.021 2.16539 0.751232 0
M  V30 2683 C 268.021 1.11228 1.16125 0
M  V30 2684 O 269.211 1.36765 1.07894 0
M  V30 2685 C 266.343 2.74462 2.02196 0
M  V30 2686 H 267.536 2.99013 0.230499 0
M  V30 2687 H 265.089 1.56081 0.0826982 0
M  V30 2688 H 265.824 1.95709 2.58589 0
M  V30 2689 H 265.609 3.51527 1.73698 0
M  V30 2690 H 267.099 3.20489 2.67725 0
M  V30 2691 N 267.536 -0.106894 1.57237 0
M  V30 2692 C 268.469 -1.16125 1.96444 0
M  V30 2693 C 269.447 -1.3947 0.835871 0
M  V30 2694 O 270.631 -1.53425 1.09513 0
M  V30 2695 C 267.758 -2.51277 2.27107 0
M  V30 2696 C 266.804 -2.44285 3.4961 0
M  V30 2697 S 267.637 -1.87077 5.01759 0
M  V30 2698 C 268.793 -3.23877 5.35588 0
M  V30 2699 H 269.026 -0.826971 2.85567 0
M  V30 2700 H 266.559 -0.314124 1.51171 0
M  V30 2701 H 268.517 -3.29035 2.45451 0
M  V30 2702 H 267.178 -2.81879 1.38576 0
M  V30 2703 H 266.371 -3.4387 3.68469 0
M  V30 2704 H 265.973 -1.74652 3.30715 0
M  V30 2705 H 268.265 -4.20122 5.31511 0
M  V30 2706 H 269.208 -3.09833 6.36717 0
M  V30 2707 H 269.616 -3.22864 4.63054 0
M  V30 2708 N 269.014 -1.53014 -0.377408 0
M  V30 2709 C 269.924 -1.81557 -1.48574 0
M  V30 2710 C 270.94 -0.703102 -1.59162 0
M  V30 2711 O 272.116 -0.99192 -1.75279 0
M  V30 2712 C 269.181 -1.9889 -2.83978 0
M  V30 2713 C 268.242 -3.22801 -2.83016 0
M  V30 2714 C 267.475 -3.39298 -4.11962 0
M  V30 2715 O 267.698 -2.60345 -5.0752 0
M  V30 2716 O 266.632 -4.32604 -4.18494 0
M  V30 2717 H 270.458 -2.75695 -1.27382 0
M  V30 2718 H 268.043 -1.38248 -0.566373 0
M  V30 2719 H 269.925 -2.11931 -3.6423 0
M  V30 2720 H 268.6 -1.07942 -3.05172 0
M  V30 2721 H 267.507 -3.15193 -2.01505 0
M  V30 2722 H 268.84 -4.13632 -2.66775 0
M  V30 2723 N 270.492 0.636531 -1.44174 0
M  V30 2724 C 271.738 1.39826 -1.4689 0
M  V30 2725 C 272.071 1.93947 -0.0990585 0
M  V30 2726 O 271.346 1.73325 0.882544 0
M  V30 2727 C 271.629 2.56751 -2.5249 0
M  V30 2728 C 271.482 2.08014 -3.98811 0
M  V30 2729 C 272.801 3.58946 -2.54649 0
M  V30 2730 H 269.92 0.507075 -0.53483 0
M  V30 2731 H 272.562 0.720188 -1.75822 0
M  V30 2732 H 270.712 3.14597 -2.2795 0
M  V30 2733 H 272.384 1.5504 -4.34466 0
M  V30 2734 H 270.627 1.39242 -4.10846 0
M  V30 2735 H 271.298 2.92169 -4.68339 0
M  V30 2736 H 273.774 3.1089 -2.76563 0
M  V30 2737 H 272.65 4.38286 -3.3045 0
M  V30 2738 H 272.911 4.12655 -1.58646 0
M  V30 2739 N 271.97 1.30982 0.876444 0
M  V30 2740 C 273.195 1.23373 1.66715 0
M  V30 2741 C 273.62 -0.19885 1.87046 0
M  V30 2742 O 272.978 -1.1427 1.40756 0
M  V30 2743 C 273.026 1.97644 3.01611 0
M  V30 2744 O 272.13 1.30935 3.91062 0
M  V30 2745 H 271.471 0.426279 0.509099 0
M  V30 2746 H 274.001 1.72944 1.09323 0
M  V30 2747 H 274.011 2.06992 3.51594 0
M  V30 2748 H 272.686 3.01829 2.86133 0
M  V30 2749 H 271.263 1.29996 3.49507 0
M  V30 2750 N 273.449 -1.08991 1.13837 0
M  V30 2751 C 274.674 -1.85551 0.926585 0
M  V30 2752 C 275.099 -1.80782 -0.519566 0
M  V30 2753 O 274.457 -1.18855 -1.36906 0
M  V30 2754 C 274.505 -3.31266 1.42462 0
M  V30 2755 O 273.609 -4.07822 0.612789 0
M  V30 2756 H 272.95 -0.575192 0.331738 0
M  V30 2757 H 275.48 -1.37604 1.51414 0
M  V30 2758 H 275.49 -3.82112 1.43019 0
M  V30 2759 H 274.165 -3.34052 2.47754 0
M  V30 2760 H 272.742 -3.66731 0.675463 0
M  V30 2761 N 274.927 -0.932562 -1.27047 0
M  V30 2762 C 275.877 -0.406392 -2.24349 0
M  V30 2763 C 276.861 0.492066 -1.53191 0
M  V30 2764 O 278.053 0.328717 -1.73921 0
M  V30 2765 C 275.182 0.335214 -3.41659 0
M  V30 2766 C 274.268 -0.58004 -4.20115 0
M  V30 2767 N 274.659 -1.70203 -4.76303 0
M  V30 2768 C 272.957 -0.383974 -4.44344 0
M  V30 2769 C 273.658 -2.27167 -5.35509 0
M  V30 2770 N 272.634 -1.56068 -5.20715 0
M  V30 2771 H 276.436 -1.26299 -2.65378 0
M  V30 2772 H 273.95 -0.787408 -1.42034 0
M  V30 2773 H 275.947 0.729142 -4.10474 0
M  V30 2774 H 274.607 1.18868 -3.0216 0
M  V30 2775 H 275.618 -2.08433 -4.74106 0
M  V30 2776 H 272.295 0.428436 -4.15296 0
M  V30 2777 H 273.685 -3.21654 -5.89905 0
M  V30 2778 N 276.405 1.4127 -0.698611 0
M  V30 2779 C 277.653 2.00782 -0.230409 0
M  V30 2780 C 277.974 1.5562 1.17505 0
M  V30 2781 O 277.244 0.78815 1.79346 0
M  V30 2782 H 275.824 0.742464 -0.0821944 0
M  V30 2783 H 278.486 1.72852 -0.90045 0
M  V30 2784 H 277.582 3.11095 -0.25021 0
M  V30 2785 N 277.883 0.443576 1.51229 0
M  V30 2786 C 278.813 -0.355142 2.30783 0
M  V30 2787 C 279.794 -1.0154 1.36468 0
M  V30 2788 O 280.979 -1.01785 1.65389 0
M  V30 2789 C 278.109 -1.45312 3.15439 0
M  V30 2790 C 277.063 -0.916002 4.18083 0
M  V30 2791 C 276.389 -2.1102 4.91299 0
M  V30 2792 C 277.689 0.0538602 5.22272 0
M  V30 2793 H 279.383 0.308767 2.97804 0
M  V30 2794 H 276.929 0.149937 1.43217 0
M  V30 2795 H 278.882 -2.01914 3.69876 0
M  V30 2796 H 277.606 -2.14541 2.46252 0
M  V30 2797 H 276.265 -0.372145 3.64706 0
M  V30 2798 H 275.913 -2.78882 4.18609 0
M  V30 2799 H 275.613 -1.75717 5.60712 0
M  V30 2800 H 277.137 -2.68164 5.48562 0
M  V30 2801 H 278.551 -0.422069 5.71744 0
M  V30 2802 H 276.948 0.319776 5.99247 0
M  V30 2803 H 278.018 0.98858 4.74716 0
M  V30 2804 N 279.361 -1.56624 0.175154 0
M  V30 2805 C 280.607 -1.9729 -0.469506 0
M  V30 2806 C 280.94 -1.06128 -1.62636 0
M  V30 2807 O 280.215 -0.109183 -1.94193 0
M  V30 2808 C 280.498 -3.47375 -0.948804 0
M  V30 2809 C 280.351 -4.49317 0.208491 0
M  V30 2810 C 281.67 -4.00652 -1.82116 0
M  V30 2811 H 278.789 -0.717317 -0.16919 0
M  V30 2812 H 281.431 -1.88184 0.262062 0
M  V30 2813 H 279.581 -3.55267 -1.57219 0
M  V30 2814 H 281.253 -4.53482 0.845682 0
M  V30 2815 H 279.496 -4.25121 0.863395 0
M  V30 2816 H 280.167 -5.51741 -0.169059 0
M  V30 2817 H 282.643 -3.95416 -1.2956 0
M  V30 2818 H 281.519 -5.06075 -2.12554 0
M  V30 2819 H 281.78 -3.44699 -2.7683 0
M  V30 2820 N 280.839 0.0985539 -1.57292 0
M  V30 2821 C 281.771 1.14595 -1.98496 0
M  V30 2822 C 282.784 1.36512 -0.887031 0
M  V30 2823 O 283.973 1.35225 -1.16518 0
M  V30 2824 C 281.073 2.50216 -2.28572 0
M  V30 2825 C 280.246 2.48624 -3.59868 0
M  V30 2826 C 279.305 3.66146 -3.7792 0
M  V30 2827 O 278.331 3.48795 -4.49812 0
M  V30 2828 N 279.533 4.85496 -3.18235 0
M  V30 2829 H 282.298 0.795277 -2.88956 0
M  V30 2830 H 279.859 0.287579 -1.59325 0
M  V30 2831 H 281.851 3.27432 -2.37845 0
M  V30 2832 H 280.421 2.77387 -1.44136 0
M  V30 2833 H 279.641 1.56978 -3.61596 0
M  V30 2834 H 280.929 2.44635 -4.46129 0
M  V30 2835 H 280.327 5.02497 -2.59833 0
M  V30 2836 H 278.884 5.60317 -3.32999 0
M  V30 2837 N 282.317 1.53212 0.369288 0
M  V30 2838 C 283.267 1.75769 1.45222 0
M  V30 2839 C 284.251 0.612136 1.48801 0
M  V30 2840 O 285.443 0.870674 1.54105 0
M  V30 2841 C 282.572 1.94769 2.82701 0
M  V30 2842 C 281.658 3.15315 2.83615 0
M  V30 2843 N 282.049 4.37295 2.54178 0
M  V30 2844 C 280.347 3.15962 3.14776 0
M  V30 2845 C 281.048 5.19015 2.62675 0
M  V30 2846 N 280.024 4.55142 2.97232 0
M  V30 2847 H 283.826 2.67691 1.2132 0
M  V30 2848 H 281.34 1.51787 0.577438 0
M  V30 2849 H 283.337 2.09056 3.60696 0
M  V30 2850 H 281.997 1.04073 3.07569 0
M  V30 2851 H 283.008 4.65091 2.27839 0
M  V30 2852 H 279.685 2.35144 3.44983 0
M  V30 2853 H 281.075 6.26305 2.43294 0
M  V30 2854 N 283.795 -0.628877 1.44509 0
M  V30 2855 C 285.211 -0.947305 1.28446 0
M  V30 2856 C 285.411 -2.00275 0.221872 0
M  V30 2857 O 284.467 -2.49447 -0.391471 0
M  V30 2858 C 285.78 -1.40843 2.65676 0
M  V30 2859 C 287.328 -1.52379 2.73404 0
M  V30 2860 C 287.803 -2.01875 4.11109 0
M  V30 2861 N 289.294 -2.09142 4.13296 0
M  V30 2862 C 290.029 -2.48615 5.16699 0
M  V30 2863 N 289.525 -2.87209 6.30462 0
M  V30 2864 N 291.318 -2.48768 5.04054 0
M  V30 2865 H 283.469 0.0690977 2.12288 0
M  V30 2866 H 285.732 -0.0317164 0.947469 0
M  V30 2867 H 285.438 -0.707206 3.44516 0
M  V30 2868 H 285.312 -2.37902 2.92716 0
M  V30 2869 H 287.699 -2.21598 1.9488 0
M  V30 2870 H 287.78 -0.536898 2.50102 0
M  V30 2871 H 287.424 -1.3325 4.90109 0
M  V30 2872 H 287.354 -3.0144 4.31789 0
M  V30 2873 H 289.845 -1.81991 3.31191 0
M  V30 2874 H 290.158 -3.16149 7.05174 0
M  V30 2875 H 288.503 -2.84955 6.33897 0
M  V30 2876 H 291.694 -2.18009 4.14234 0
M  V30 2877 H 291.867 -2.79207 5.84763 0
M  V30 2878 N 285.273 -1.31445 -0.869486 0
M  V30 2879 C 286.519 -1.21337 -1.62496 0
M  V30 2880 C 286.852 0.227872 -1.92858 0
M  V30 2881 O 286.127 1.16094 -1.56053 0
M  V30 2882 C 286.41 -2.05814 -2.95487 0
M  V30 2883 C 286.263 -3.5824 -2.72 0
M  V30 2884 C 287.582 -1.9079 -3.96594 0
M  V30 2885 H 284.701 -0.442135 -0.589649 0
M  V30 2886 H 287.343 -1.6124 -1.00507 0
M  V30 2887 H 285.493 -1.71913 -3.48394 0
M  V30 2888 H 287.165 -4.0228 -2.25762 0
M  V30 2889 H 285.408 -3.81647 -2.06224 0
M  V30 2890 H 286.079 -4.12657 -3.66631 0
M  V30 2891 H 288.555 -2.20459 -3.52898 0
M  V30 2892 H 287.431 -2.52199 -4.87531 0
M  V30 2893 H 287.692 -0.871341 -4.33428 0
M  V30 2894 N 286.751 1.08385 -1.14413 0
M  V30 2895 C 287.714 2.13486 -0.834048 0
M  V30 2896 C 288.714 1.59988 0.161418 0
M  V30 2897 O 289.904 1.74071 -0.0669575 0
M  V30 2898 C 287.036 3.4003 -0.243354 0
M  V30 2899 H 288.229 2.42425 -1.7655 0
M  V30 2900 H 285.782 1.24101 -0.950189 0
M  V30 2901 H 286.517 3.16726 0.696807 0
M  V30 2902 H 286.302 3.80157 -0.960367 0
M  V30 2903 H 287.792 4.17577 -0.0436242 0
M  V30 2904 N 288.23 0.939286 1.26551 0
M  V30 2905 C 289.193 0.451987 2.24699 0
M  V30 2906 C 290.193 -0.435869 1.5478 0
M  V30 2907 O 291.383 -0.235314 1.72603 0
M  V30 2908 C 288.515 -0.348801 3.39111 0
M  V30 2909 H 289.708 1.3193 2.69322 0
M  V30 2910 H 287.261 0.721072 1.38673 0
M  V30 2911 H 287.996 -1.23444 2.99887 0
M  V30 2912 H 287.781 0.287945 3.91041 0
M  V30 2913 H 289.271 -0.679726 4.12031 0
M  V30 2914 N 289.708 -1.40897 0.706093 0
M  V30 2915 C 290.638 -2.33418 0.0620085 0
M  V30 2916 C 291.619 -1.52385 -0.755827 0
M  V30 2917 O 292.804 -1.80886 -0.706674 0
M  V30 2918 C 289.934 -3.36293 -0.867445 0
M  V30 2919 C 288.888 -4.27716 -0.155932 0
M  V30 2920 C 288.214 -5.2105 -1.20046 0
M  V30 2921 C 289.514 -5.12944 0.984149 0
M  V30 2922 H 291.208 -2.87527 0.83477 0
M  V30 2923 H 288.754 -1.38249 0.402875 0
M  V30 2924 H 290.707 -3.99949 -1.32735 0
M  V30 2925 H 289.431 -2.80556 -1.67199 0
M  V30 2926 H 288.09 -3.65498 0.284047 0
M  V30 2927 H 287.738 -4.61624 -1.99781 0
M  V30 2928 H 287.438 -5.83056 -0.729328 0
M  V30 2929 H 288.962 -5.87584 -1.66066 0
M  V30 2930 H 290.376 -5.70109 0.604048 0
M  V30 2931 H 288.773 -5.83945 1.38304 0
M  V30 2932 H 289.843 -4.49485 1.81911 0
M  V30 2933 N 291.186 -0.45159 -1.50991 0
M  V30 2934 C 292.133 0.352625 -2.2809 0
M  V30 2935 C 293.103 1.0044 -1.32291 0
M  V30 2936 O 294.288 1.02058 -1.6121 0
M  V30 2937 C 291.428 1.43983 -3.13629 0
M  V30 2938 C 290.541 0.804772 -4.24438 0
M  V30 2939 C 289.676 1.86822 -4.97263 0
M  V30 2940 C 288.715 1.21236 -5.99973 0
M  V30 2941 N 287.852 2.2178 -6.66152 0
M  V30 2942 H 292.692 -0.311186 -2.96371 0
M  V30 2943 H 290.229 -0.165308 -1.46168 0
M  V30 2944 H 292.187 2.08161 -3.61559 0
M  V30 2945 H 290.817 2.07307 -2.47434 0
M  V30 2946 H 289.869 0.0509129 -3.80366 0
M  V30 2947 H 291.181 0.286076 -4.97979 0
M  V30 2948 H 290.335 2.58628 -5.48813 0
M  V30 2949 H 289.074 2.42068 -4.23385 0
M  V30 2950 H 288.079 0.479828 -5.47702 0
M  V30 2951 H 289.304 0.667051 -6.75816 0
M  V30 2952 H 287.25 2.76079 -5.95077 0
M  V30 2953 H 287.167 1.74841 -7.35504 0
M  V30 2954 H 288.435 2.93026 -7.22327 0
M  V30 2955 N 292.664 1.56529 -0.183458 0
M  V30 2956 C 293.911 1.97244 0.458357 0
M  V30 2957 C 294.239 1.06992 1.62428 0
M  V30 2958 O 293.494 0.106542 1.9541 0
M  V30 2959 C 293.793 3.43939 0.971637 0
M  V30 2960 C 293.459 4.5083 -0.0796784 0
M  V30 2961 C 292.121 4.79786 -0.368584 0
M  V30 2962 C 294.473 5.15138 -0.792638 0
M  V30 2963 C 291.801 5.70345 -1.37563 0
M  V30 2964 C 294.153 6.06784 -1.78875 0
M  V30 2965 C 292.817 6.34102 -2.08497 0
M  V30 2966 H 292.087 0.721768 0.167725 0
M  V30 2967 H 294.734 1.89472 -0.277976 0
M  V30 2968 H 293.039 3.48724 1.78602 0
M  V30 2969 H 294.736 3.72791 1.47744 0
M  V30 2970 H 291.326 4.28317 0.155668 0
M  V30 2971 H 295.51 4.92868 -0.582659 0
M  V30 2972 H 290.766 5.89789 -1.61118 0
M  V30 2973 H 294.94 6.55677 -2.3465 0
M  V30 2974 H 292.567 7.04074 -2.86678 0
M  V30 2975 N 294.142 -0.090211 1.57342 0
M  V30 2976 C 295.105 -1.09335 2.01441 0
M  V30 2977 C 296.105 -1.32666 0.908641 0
M  V30 2978 O 297.295 -1.28697 1.174 0
M  V30 2979 C 294.427 -2.44136 2.3793 0
M  V30 2980 H 295.62 -0.713662 2.91285 0
M  V30 2981 H 293.173 -0.335404 1.52659 0
M  V30 2982 H 293.908 -2.86972 1.51055 0
M  V30 2983 H 293.693 -2.28548 3.18603 0
M  V30 2984 H 295.183 -3.16277 2.72688 0
M  V30 2985 N 295.62 -1.53406 -0.361157 0
M  V30 2986 C 296.583 -1.79479 -1.42548 0
M  V30 2987 C 297.583 -0.665327 -1.4639 0
M  V30 2988 O 298.773 -0.933549 -1.47073 0
M  V30 2989 C 295.905 -1.92087 -2.8163 0
M  V30 2990 H 297.098 -2.74538 -1.20701 0
M  V30 2991 H 294.651 -1.4455 -0.594546 0
M  V30 2992 H 295.386 -0.991099 -3.08784 0
M  V30 2993 H 295.171 -2.74241 -2.80239 0
M  V30 2994 H 296.661 -2.13836 -3.58697 0
M  V30 2995 N 297.098 0.621204 -1.44841 0
M  V30 2996 C 298.323 1.41244 -1.51871 0
M  V30 2997 C 298.748 1.87519 -0.147764 0
M  V30 2998 O 298.106 1.59334 0.865 0
M  V30 2999 C 298.154 2.60221 -2.49634 0
M  V30 3000 O 297.258 3.60395 -2.00473 0
M  V30 3001 H 296.599 0.42223 -0.512463 0
M  V30 3002 H 299.129 0.757305 -1.90069 0
M  V30 3003 H 299.139 3.0764 -2.67996 0
M  V30 3004 H 297.814 2.25887 -3.4921 0
M  V30 3005 H 296.391 3.19717 -1.91925 0
M  V30 3006 N 298.576 1.31904 0.862503 0
M  V30 3007 C 299.822 1.22197 1.61851 0
M  V30 3008 C 300.155 -0.217641 1.92977 0
M  V30 3009 O 299.43 -1.15264 1.56666 0
M  V30 3010 C 299.713 2.07378 2.94391 0
M  V30 3011 C 299.566 3.59678 2.70096 0
M  V30 3012 C 300.885 1.92891 3.95577 0
M  V30 3013 H 298.004 0.445255 0.587296 0
M  V30 3014 H 300.646 1.6177 0.99651 0
M  V30 3015 H 298.796 1.73758 3.47477 0
M  V30 3016 H 300.468 4.03472 2.23625 0
M  V30 3017 H 298.711 3.82735 2.04197 0
M  V30 3018 H 299.382 4.14595 3.64438 0
M  V30 3019 H 301.858 2.22327 3.51724 0
M  V30 3020 H 300.734 2.54781 4.86187 0
M  V30 3021 H 300.995 0.894315 4.3296 0
M  V30 3022 N 300.054 -1.07777 1.14986 0
M  V30 3023 C 301.301 -1.8029 0.922056 0
M  V30 3024 C 301.629 -1.86531 -0.55105 0
M  V30 3025 O 300.884 -1.34189 -1.42449 0
M  V30 3026 C 301.183 -3.25495 1.47608 0
M  V30 3027 C 300.849 -3.39361 2.96893 0
M  V30 3028 C 299.511 -3.42852 3.37647 0
M  V30 3029 C 301.863 -3.42512 3.92854 0
M  V30 3030 C 299.191 -3.47094 4.73015 0
M  V30 3031 C 301.543 -3.4829 5.28088 0
M  V30 3032 C 300.207 -3.50058 5.68345 0
M  V30 3033 H 299.477 -0.659727 0.337404 0
M  V30 3034 H 302.124 -1.26854 1.43459 0
M  V30 3035 H 300.429 -3.81683 0.88463 0
M  V30 3036 H 302.126 -3.80168 1.27568 0
M  V30 3037 H 298.716 -3.37339 2.64387 0
M  V30 3038 H 302.9 -3.3904 3.62444 0
M  V30 3039 H 298.156 -3.46758 5.03556 0
M  V30 3040 H 302.33 -3.49675 6.02246 0
M  V30 3041 H 299.957 -3.53097 6.73221 0
M  V30 3042 N 301.532 -0.945985 -1.26051 0
M  V30 3043 C 302.76 -0.613025 -1.9761 0
M  V30 3044 C 303.175 0.813035 -1.70397 0
M  V30 3045 O 302.532 1.54274 -0.974979 0
M  V30 3046 C 302.583 -0.85159 -3.51326 0
M  V30 3047 O 302.304 -2.22157 -3.77595 0
M  V30 3048 C 303.805 -0.529831 -4.40122 0
M  V30 3049 H 301.025 -0.230593 -0.630133 0
M  V30 3050 H 303.569 -1.268 -1.60443 0
M  V30 3051 H 301.724 -0.243151 -3.86636 0
M  V30 3052 H 302.138 -2.2852 -4.721 0
M  V30 3053 H 303.612 -0.747348 -5.46917 0
M  V30 3054 H 304.089 0.535341 -4.35925 0
M  V30 3055 H 304.695 -1.11721 -4.10364 0
M  V30 3056 N 303.011 1.40521 -0.713556 0
M  V30 3057 C 303.959 2.32549 -0.0485227 0
M  V30 3058 C 304.953 1.51931 0.74922 0
M  V30 3059 O 306.159 1.67745 0.652816 0
M  V30 3060 H 302.534 0.751994 0.00311138 0
M  V30 3061 H 304.505 2.86291 -0.841443 0
M  V30 3062 C 303.254 3.36879 0.860687 0
M  V30 3063 H 302.577 3.98978 0.256246 0
M  V30 3064 H 304.017 4.03772 1.294 0
M  V30 3065 C 302.476 2.72197 1.9852 0
M  V30 3066 O 303.006 2.5837 3.07584 0
M  V30 3067 N 301.212 2.30612 1.76823 0
M  V30 3068 H 300.759 2.42059 0.881217 0
M  V30 3069 H 300.717 1.87672 2.52243 0
M  V30 3070 N 304.489 0.459591 1.5075 0
M  V30 3071 C 305.419 -0.330644 2.31147 0
M  V30 3072 C 306.4 -1.00087 1.37538 0
M  V30 3073 O 307.585 -1.00025 1.66459 0
M  V30 3074 C 304.715 -1.41958 3.16962 0
M  V30 3075 C 303.669 -0.871608 4.19031 0
M  V30 3076 C 302.995 -2.05797 4.9351 0
M  V30 3077 C 304.295 0.109251 5.22186 0
M  V30 3078 H 305.989 0.340336 2.97459 0
M  V30 3079 H 303.535 0.165119 1.4305 0
M  V30 3080 H 305.488 -1.9798 3.71997 0
M  V30 3081 H 304.212 -2.11917 2.48513 0
M  V30 3082 H 302.871 -0.333442 3.6508 0
M  V30 3083 H 302.519 -2.74427 4.21544 0
M  V30 3084 H 302.219 -1.6976 5.62544 0
M  V30 3085 H 303.743 -2.62331 5.51375 0
M  V30 3086 H 305.157 -0.361405 5.7216 0
M  V30 3087 H 303.554 0.383316 5.98875 0
M  V30 3088 H 304.624 1.03887 4.73641 0
M  V30 3089 N 305.967 -1.56429 0.191757 0
M  V30 3090 C 307.192 -2.02309 -0.456706 0
M  V30 3091 C 307.617 -1.07103 -1.5463 0
M  V30 3092 O 306.975 -0.0539677 -1.8122 0
M  V30 3093 C 307.023 -3.46654 -0.993159 0
M  V30 3094 O 306.127 -3.54559 -2.10622 0
M  V30 3095 H 305.468 -0.655303 -0.107114 0
M  V30 3096 H 307.998 -2.02364 0.301653 0
M  V30 3097 H 308.008 -3.86377 -1.31061 0
M  V30 3098 H 306.683 -4.1544 -0.195504 0
M  V30 3099 H 305.26 -3.26708 -1.79767 0
M  V30 3100 N 307.445 0.0818655 -1.57387 0
M  V30 3101 C 308.861 0.436412 -1.53517 0
M  V30 3102 C 309.061 1.79758 -0.910459 0
M  V30 3103 O 308.117 2.47324 -0.508636 0
M  V30 3104 C 309.43 0.386734 -2.98203 0
M  V30 3105 C 310.978 0.467644 -3.09487 0
M  V30 3106 C 311.453 0.447978 -4.55804 0
M  V30 3107 N 312.944 0.508348 -4.60402 0
M  V30 3108 C 313.679 0.515184 -5.71081 0
M  V30 3109 N 313.175 0.477435 -6.91153 0
M  V30 3110 N 314.968 0.560988 -5.59294 0
M  V30 3111 H 307.119 -0.809546 -1.96367 0
M  V30 3112 H 309.382 -0.302733 -0.898363 0
M  V30 3113 H 309.088 -0.546539 -3.47427 0
M  V30 3114 H 308.962 1.20075 -3.57578 0
M  V30 3115 H 311.349 1.39134 -2.60242 0
M  V30 3116 H 311.43 -0.374753 -2.5304 0
M  V30 3117 H 311.074 -0.471826 -5.05704 0
M  V30 3118 H 311.004 1.30777 -5.10103 0
M  V30 3119 H 313.495 0.54218 -3.7399 0
M  V30 3120 H 313.808 0.486299 -7.71268 0
M  V30 3121 H 312.153 0.444278 -6.93579 0
M  V30 3122 H 315.344 0.5881 -4.64391 0
M  V30 3123 H 315.517 0.562846 -6.45551 0
M  V30 3124 N 308.923 1.53595 0.353017 0
M  V30 3125 C 310.2 1.61002 1.11075 0
M  V30 3126 C 310.58 0.425356 2.0677 0
M  V30 3127 O 309.928 -0.583267 2.2093 0
M  V30 3128 C 310.138 2.96631 1.83877 0
M  V30 3129 C 311.486 3.51653 2.37961 0
M  V30 3130 O 312.51 2.98743 1.93987 0
M  V30 3131 O 311.369 4.44177 3.18386 0
M  V30 3132 H 308.463 0.650825 0.510251 0
M  V30 3133 H 311.009 1.6594 0.35527 0
M  V30 3134 H 309.781 3.74293 1.14108 0
M  V30 3135 H 309.404 2.95242 2.66304 0
M  V30 3136 N 310.401 -0.613514 1.45168 0
M  V30 3137 C 311.351 -1.71871 1.49815 0
M  V30 3138 C 312.335 -1.56774 0.362021 0
M  V30 3139 O 313.527 -1.66212 0.608493 0
M  V30 3140 C 310.656 -3.1061 1.46207 0
M  V30 3141 C 309.742 -3.31114 2.64999 0
M  V30 3142 N 310.133 -3.21904 3.90143 0
M  V30 3143 C 308.431 -3.61966 2.6057 0
M  V30 3144 C 309.132 -3.43577 4.69393 0
M  V30 3145 N 308.108 -3.67287 4.00751 0
M  V30 3146 H 311.91 -1.63235 2.444 0
M  V30 3147 H 309.424 -0.816577 1.40377 0
M  V30 3148 H 311.421 -3.8989 1.4762 0
M  V30 3149 H 310.081 -3.20399 0.52673 0
M  V30 3150 H 311.092 -3.00436 4.21852 0
M  V30 3151 H 307.769 -3.78629 1.75916 0
M  V30 3152 H 309.159 -3.41901 5.78406 0
M  V30 3153 N 311.879 -1.3236 -0.855495 0
M  V30 3154 C 312.809 -1.23833 -1.97958 0
M  V30 3155 C 313.79 -0.122361 -1.69659 0
M  V30 3156 O 314.975 -0.30939 -1.9172 0
M  V30 3157 C 312.105 -0.959772 -3.33775 0
M  V30 3158 C 311.059 -2.03689 -3.76424 0
M  V30 3159 C 310.385 -1.61075 -5.09862 0
M  V30 3160 C 311.685 -3.4518 -3.9198 0
M  V30 3161 H 313.379 -2.1788 -2.0535 0
M  V30 3162 H 310.925 -1.04891 -0.986605 0
M  V30 3163 H 312.878 -0.886678 -4.11966 0
M  V30 3164 H 311.602 0.0163404 -3.26596 0
M  V30 3165 H 310.261 -2.10012 -3.00484 0
M  V30 3166 H 309.909 -0.622107 -4.99138 0
M  V30 3167 H 309.609 -2.33143 -5.39368 0
M  V30 3168 H 311.133 -1.55201 -5.90546 0
M  V30 3169 H 312.547 -3.4145 -4.60526 0
M  V30 3170 H 310.944 -4.1559 -4.32903 0
M  V30 3171 H 312.014 -3.84903 -2.94919 0
M  V30 3172 N 313.357 1.07166 -1.15556 0
M  V30 3173 C 314.634 1.76546 -0.842069 0
M  V30 3174 C 315.014 2.00453 0.661939 0
M  V30 3175 O 314.362 1.62452 1.60691 0
M  V30 3176 C 314.572 3.07266 -1.65495 0
M  V30 3177 C 315.92 3.81578 -1.86234 0
M  V30 3178 O 316.944 3.17083 -1.62287 0
M  V30 3179 O 315.803 4.97419 -2.26355 0
M  V30 3180 H 312.897 0.766756 -0.309862 0
M  V30 3181 H 315.443 1.13514 -1.26145 0
M  V30 3182 H 314.215 2.85494 -2.67598 0
M  V30 3183 H 313.838 3.7803 -1.23203 0
M  V30 3184 N 314.835 0.952656 1.25548 0
M  V30 3185 C 316.065 0.622592 1.96996 0
M  V30 3186 C 316.473 -0.809112 1.71026 0
M  V30 3187 O 315.816 -1.55258 0.981861 0
M  V30 3188 C 315.878 0.798946 3.5051 0
M  V30 3189 C 315.542 2.20744 4.00151 0
M  V30 3190 C 316.539 3.18394 4.11001 0
M  V30 3191 C 314.224 2.5311 4.33867 0
M  V30 3192 C 316.218 4.46504 4.54877 0
M  V30 3193 C 313.905 3.8145 4.7743 0
M  V30 3194 C 314.903 4.77959 4.87897 0
M  V30 3195 O 314.591 6.04012 5.30494 0
M  V30 3196 H 314.323 0.232503 0.634758 0
M  V30 3197 H 316.877 1.2789 1.60728 0
M  V30 3198 H 315.107 0.0854903 3.86605 0
M  V30 3199 H 316.796 0.47023 4.03167 0
M  V30 3200 H 317.562 2.94715 3.85186 0
M  V30 3201 H 313.441 1.78719 4.24948 0
M  V30 3202 H 316.985 5.21835 4.62962 0
M  V30 3203 H 312.882 4.04936 5.0269 0
M  V30 3204 H 313.65 6.0736 5.48685 0
M  V30 3205 N 316.313 -1.40141 0.720998 0
M  V30 3206 C 317.263 -2.27949 0.0482544 0
M  V30 3207 C 318.247 -1.43538 -0.727021 0
M  V30 3208 O 319.439 -1.6658 -0.598332 0
M  V30 3209 C 316.568 -3.32126 -0.868729 0
M  V30 3210 C 315.654 -4.24008 -0.0883515 0
M  V30 3211 N 316.045 -4.97154 0.931226 0
M  V30 3212 C 314.343 -4.4485 -0.320105 0
M  V30 3213 C 315.044 -5.64587 1.4006 0
M  V30 3214 N 314.02 -5.38787 0.721752 0
M  V30 3215 H 317.822 -2.81948 0.829609 0
M  V30 3216 H 315.336 -1.52656 0.554067 0
M  V30 3217 H 317.333 -3.93884 -1.36605 0
M  V30 3218 H 315.993 -2.79687 -1.6494 0
M  V30 3219 H 317.004 -5.01 1.31222 0
M  V30 3220 H 313.681 -4.03378 -1.07668 0
M  V30 3221 H 315.071 -6.33175 2.24808 0
M  V30 3222 N 317.792 -0.46758 -1.50504 0
M  V30 3223 C 319.04 0.0884469 -2.01906 0
M  V30 3224 C 319.361 1.40532 -1.35188 0
M  V30 3225 O 318.631 1.89515 -0.496079 0
M  V30 3226 H 317.211 0.0356765 -0.746148 0
M  V30 3227 H 319.873 -0.6172 -1.84869 0
M  V30 3228 H 318.969 0.2425 -3.11156 0
M  V30 3229 N 319.27 1.56325 -0.20005 0
M  V30 3230 C 320.547 1.89484 0.48529 0
M  V30 3231 C 320.927 1.1143 1.79294 0
M  V30 3232 O 320.275 0.216919 2.27468 0
M  V30 3233 C 320.485 3.41923 0.699243 0
M  V30 3234 C 321.833 4.12256 1.01638 0
M  V30 3235 O 322.857 3.47402 0.786792 0
M  V30 3236 O 321.716 5.26887 1.45095 0
M  V30 3237 H 318.81 0.787144 0.253639 0
M  V30 3238 H 321.356 1.67985 -0.240633 0
M  V30 3239 H 320.128 3.90658 -0.224008 0
M  V30 3240 H 319.751 3.69131 1.47744 0
M  V30 3241 N 320.748 -0.0735177 1.57428 0
M  V30 3242 C 321.681 -1.11932 1.98863 0
M  V30 3243 C 322.659 -1.37666 0.865266 0
M  V30 3244 O 323.843 -1.51068 1.12742 0
M  V30 3245 C 320.97 -2.46403 2.32386 0
M  V30 3246 C 320.016 -2.36815 3.54713 0
M  V30 3247 S 320.849 -1.76392 5.05614 0
M  V30 3248 C 322.005 -3.12444 5.42337 0
M  V30 3249 H 322.238 -0.766212 2.87257 0
M  V30 3250 H 319.771 -0.281987 1.51803 0
M  V30 3251 H 321.729 -3.23755 2.52375 0
M  V30 3252 H 320.39 -2.78876 1.44524 0
M  V30 3253 H 319.583 -3.35977 3.7568 0
M  V30 3254 H 319.185 -1.67598 3.34345 0
M  V30 3255 H 321.477 -4.08753 5.40303 0
M  V30 3256 H 322.42 -2.96258 6.43146 0
M  V30 3257 H 322.828 -3.1297 4.69798 0
M  V30 3258 N 322.226 -1.5378 -0.344866 0
M  V30 3259 C 323.136 -1.84667 -1.4469 0
M  V30 3260 C 324.152 -0.736704 -1.57635 0
M  V30 3261 O 325.328 -1.02888 -1.73136 0
M  V30 3262 C 322.393 -2.04869 -2.79696 0
M  V30 3263 C 321.454 -3.28731 -2.76106 0
M  V30 3264 C 320.687 -3.4796 -4.04673 0
M  V30 3265 O 320.91 -2.71052 -5.01883 0
M  V30 3266 O 319.844 -4.41383 -4.09224 0
M  V30 3267 H 323.67 -2.78334 -1.21506 0
M  V30 3268 H 321.255 -1.39418 -0.536921 0
M  V30 3269 H 323.137 -2.19609 -3.59652 0
M  V30 3270 H 321.812 -1.14391 -3.02814 0
M  V30 3271 H 320.719 -3.19396 -1.94774 0
M  V30 3272 H 322.052 -4.19198 -2.57941 0
M  V30 3273 N 323.704 0.605807 -1.45491 0
M  V30 3274 C 324.654 1.71074 -1.50724 0
M  V30 3275 C 325.638 1.5658 -0.37033 0
M  V30 3276 O 326.83 1.65887 -0.617299 0
M  V30 3277 C 323.959 3.0983 -1.47852 0
M  V30 3278 C 323.045 3.29704 -2.66751 0
M  V30 3279 N 323.436 3.19831 -3.91844 0
M  V30 3280 C 321.734 3.60579 -2.62486 0
M  V30 3281 C 322.435 3.41083 -4.71208 0
M  V30 3282 N 321.411 3.65157 -4.02693 0
M  V30 3283 H 325.213 1.61937 -2.45263 0
M  V30 3284 H 322.727 0.80912 -1.40808 0
M  V30 3285 H 324.724 3.89101 -1.49686 0
M  V30 3286 H 323.384 3.20115 -0.543714 0
M  V30 3287 H 324.395 2.98194 -4.23439 0
M  V30 3288 H 321.072 3.7769 -1.77922 0
M  V30 3289 H 322.462 3.38828 -5.80211 0
M  V30 3290 N 325.182 1.32811 0.848464 0
M  V30 3291 C 326.412 1.26556 1.63301 0
M  V30 3292 C 326.82 -0.1676 1.88456 0
M  V30 3293 O 326.163 -1.11713 1.45828 0
M  V30 3294 C 326.225 1.96202 3.01239 0
M  V30 3295 C 325.889 3.45528 2.99098 0
M  V30 3296 C 326.886 4.40903 2.75501 0
M  V30 3297 C 324.571 3.87558 3.19537 0
M  V30 3298 C 326.565 5.76282 2.72356 0
M  V30 3299 C 324.252 5.23044 3.16019 0
M  V30 3300 C 325.25 6.17217 2.92458 0
M  V30 3301 O 324.938 7.50223 2.88825 0
M  V30 3302 H 324.67 0.43771 0.515156 0
M  V30 3303 H 327.224 1.7559 1.0657 0
M  V30 3304 H 325.454 1.41746 3.59785 0
M  V30 3305 H 327.143 1.83573 3.62016 0
M  V30 3306 H 327.909 4.09756 2.5947 0
M  V30 3307 H 323.788 3.14674 3.369 0
M  V30 3308 H 327.332 6.4976 2.53886 0
M  V30 3309 H 323.229 5.53818 3.31596 0
M  V30 3310 H 323.997 7.59657 3.04735 0
M  V30 3311 N 326.66 -1.06551 1.16123 0
M  V30 3312 C 327.57 -2.17484 0.879662 0
M  V30 3313 C 328.586 -1.73377 -0.147104 0
M  V30 3314 O 329.762 -2.01379 0.0289128 0
M  V30 3315 C 326.827 -3.44591 0.381829 0
M  V30 3316 C 325.888 -4.0322 1.4735 0
M  V30 3317 C 325.121 -5.24261 0.999324 0
M  V30 3318 O 325.344 -5.70198 -0.151957 0
M  V30 3319 O 324.278 -5.74775 1.78653 0
M  V30 3320 H 328.104 -2.44075 1.80724 0
M  V30 3321 H 325.689 -1.16042 0.940992 0
M  V30 3322 H 327.571 -4.21254 0.111053 0
M  V30 3323 H 326.246 -3.19532 -0.51777 0
M  V30 3324 H 325.153 -3.2806 1.79798 0
M  V30 3325 H 326.486 -4.32568 2.34831 0
M  V30 3326 N 328.138 -0.959301 -1.25041 0
M  V30 3327 C 329.101 -0.487677 -2.23952 0
M  V30 3328 C 330.101 0.41119 -1.55454 0
M  V30 3329 O 331.291 0.207825 -1.72956 0
M  V30 3330 C 328.423 0.294807 -3.39623 0
M  V30 3331 H 329.616 -1.36198 -2.67189 0
M  V30 3332 H 327.169 -0.743042 -1.37508 0
M  V30 3333 H 327.904 1.18658 -3.01813 0
M  V30 3334 H 327.689 -0.35012 -3.90534 0
M  V30 3335 H 329.179 0.614089 -4.1306 0
M  V30 3336 N 329.616 1.39756 -0.72842 0
M  V30 3337 C 330.579 2.29012 -0.0927297 0
M  V30 3338 C 331.579 1.45992 0.674025 0
M  V30 3339 O 332.769 1.66749 0.50402 0
M  V30 3340 C 329.901 3.29396 0.878137 0
M  V30 3341 H 331.094 2.86729 -0.879011 0
M  V30 3342 H 328.647 1.48293 -0.493847 0
M  V30 3343 H 329.382 2.76722 1.69101 0
M  V30 3344 H 329.167 3.907 0.331051 0
M  V30 3345 H 330.657 3.96199 1.3197 0
M  V30 3346 N 331.094 0.475555 1.50254 0
M  V30 3347 C 332.041 -0.316293 2.28622 0
M  V30 3348 C 333.011 -0.983227 1.33873 0
M  V30 3349 O 334.196 -0.994805 1.62814 0
M  V30 3350 C 331.336 -1.38975 3.1588 0
M  V30 3351 C 330.449 -0.737146 4.25664 0
M  V30 3352 C 329.584 -1.78887 5.00173 0
M  V30 3353 C 328.623 -1.11676 6.01826 0
M  V30 3354 N 327.76 -2.11154 6.69596 0
M  V30 3355 H 332.6 0.358297 2.95838 0
M  V30 3356 H 330.137 0.188541 1.45887 0
M  V30 3357 H 332.095 -2.02383 3.64825 0
M  V30 3358 H 330.725 -2.03344 2.50701 0
M  V30 3359 H 329.777 0.0096065 3.80399 0
M  V30 3360 H 331.089 -0.206816 4.98371 0
M  V30 3361 H 330.243 -2.49865 5.52859 0
M  V30 3362 H 328.982 -2.35302 4.27182 0
M  V30 3363 H 327.987 -0.392633 5.48396 0
M  V30 3364 H 329.212 -0.55945 6.76792 0
M  V30 3365 H 327.158 -2.66577 5.99394 0
M  V30 3366 H 327.075 -1.63118 7.38193 0
M  V30 3367 H 328.343 -2.81497 7.26897 0
M  V30 3368 N 332.573 -1.56217 0.208337 0
M  V30 3369 C 333.819 -1.98998 -0.42086 0
M  V30 3370 C 334.174 -1.09331 -1.58317 0
M  V30 3371 O 333.467 -0.140466 -1.91084 0
M  V30 3372 C 333.661 -3.45441 -0.916797 0
M  V30 3373 C 333.49 -4.49273 0.195925 0
M  V30 3374 C 332.26 -5.00998 0.657956 0
M  V30 3375 C 334.458 -5.04294 1.00956 0
M  V30 3376 N 332.44 -5.88514 1.74712 0
M  V30 3377 C 333.811 -5.88607 1.94785 0
M  V30 3378 C 335.866 -4.86692 1.05049 0
M  V30 3379 C 334.569 -6.572 2.9237 0
M  V30 3380 C 336.595 -5.56034 2.01446 0
M  V30 3381 C 335.957 -6.40105 2.94016 0
M  V30 3382 H 332.056 -0.772574 -0.121048 0
M  V30 3383 H 334.64 -1.92101 0.317075 0
M  V30 3384 H 332.811 -3.52812 -1.62413 0
M  V30 3385 H 334.543 -3.75164 -1.51771 0
M  V30 3386 H 331.298 -4.72945 0.248912 0
M  V30 3387 H 331.722 -6.36975 2.2933 0
M  V30 3388 H 336.364 -4.21359 0.348759 0
M  V30 3389 H 334.082 -7.21723 3.63512 0
M  V30 3390 H 337.668 -5.44385 2.0527 0
M  V30 3391 H 336.548 -6.92816 3.6739 0
M  V30 3392 N 334.051 0.0651679 -1.57465 0
M  V30 3393 C 334.981 1.07693 -2.07182 0
M  V30 3394 C 335.962 1.39962 -0.966673 0
M  V30 3395 O 337.147 1.49475 -1.2398 0
M  V30 3396 C 334.277 2.3885 -2.52127 0
M  V30 3397 C 333.231 2.20917 -3.66579 0
M  V30 3398 C 332.557 3.57515 -3.97601 0
M  V30 3399 C 333.857 1.62493 -4.9638 0
M  V30 3400 H 335.551 0.663199 -2.91962 0
M  V30 3401 H 333.097 0.317569 -1.40455 0
M  V30 3402 H 335.05 3.09928 -2.85522 0
M  V30 3403 H 333.774 2.82215 -1.64384 0
M  V30 3404 H 332.433 1.52279 -3.33477 0
M  V30 3405 H 332.081 3.98463 -3.06979 0
M  V30 3406 H 331.781 3.46353 -4.74672 0
M  V30 3407 H 333.305 4.30013 -4.33499 0
M  V30 3408 H 334.719 2.23445 -5.27963 0
M  V30 3409 H 333.116 1.62009 -5.77818 0
M  V30 3410 H 334.186 0.587041 -4.81333 0
M  V30 3411 N 335.529 1.53961 0.336706 0
M  V30 3412 C 336.459 1.85417 1.41925 0
M  V30 3413 C 337.44 0.709856 1.5458 0
M  V30 3414 O 338.625 0.962396 1.68676 0
M  V30 3415 C 335.755 2.06985 2.78881 0
M  V30 3416 C 334.709 3.22813 2.81026 0
M  V30 3417 C 334.035 3.29727 4.20932 0
M  V30 3418 C 335.335 4.60767 2.45949 0
M  V30 3419 H 337.029 2.76079 1.15848 0
M  V30 3420 H 334.575 1.32839 0.555859 0
M  V30 3421 H 336.528 2.27575 3.54665 0
M  V30 3422 H 335.252 1.13061 3.06406 0
M  V30 3423 H 333.911 3.0209 2.07695 0
M  V30 3424 H 333.559 2.33385 4.45579 0
M  V30 3425 H 333.259 4.07566 4.23277 0
M  V30 3426 H 334.783 3.52536 4.98549 0
M  V30 3427 H 336.197 4.81325 3.11446 0
M  V30 3428 H 334.594 5.4106 2.59566 0
M  V30 3429 H 335.664 4.6391 1.41122 0
M  V30 3430 N 337.007 -0.598083 1.45811 0
M  V30 3431 C 338.237 -1.38121 1.53643 0
M  V30 3432 C 338.645 -1.88425 0.171081 0
M  V30 3433 O 337.988 -1.63409 -0.839237 0
M  V30 3434 C 338.05 -2.61432 2.46766 0
M  V30 3435 C 337.714 -2.32702 3.93318 0
M  V30 3436 C 338.711 -1.92479 4.82957 0
M  V30 3437 C 336.396 -2.45321 4.38318 0
M  V30 3438 C 338.39 -1.65248 6.15607 0
M  V30 3439 C 336.077 -2.17703 5.71007 0
M  V30 3440 C 337.075 -1.7773 6.5947 0
M  V30 3441 O 336.763 -1.50441 7.89698 0
M  V30 3442 H 336.495 -0.428863 0.522544 0
M  V30 3443 H 339.049 -0.73557 1.91777 0
M  V30 3444 H 337.279 -3.28749 2.0362 0
M  V30 3445 H 338.968 -3.23487 2.45175 0
M  V30 3446 H 339.734 -1.82258 4.49452 0
M  V30 3447 H 335.613 -2.75399 3.69697 0
M  V30 3448 H 339.157 -1.33973 6.84614 0
M  V30 3449 H 335.054 -2.27544 6.04065 0
M  V30 3450 H 335.822 -1.64415 8.01817 0
M  V30 3451 N 338.485 -1.33259 -0.841409 0
M  V30 3452 C 339.71 -1.2775 -1.63385 0
M  V30 3453 C 340.135 0.149188 -1.87507 0
M  V30 3454 O 339.493 1.10498 -1.43736 0
M  V30 3455 C 339.541 -2.05571 -2.96265 0
M  V30 3456 O 338.645 -1.41257 -3.87453 0
M  V30 3457 H 337.986 -0.439627 -0.497618 0
M  V30 3458 H 340.516 -1.75782 -1.04699 0
M  V30 3459 H 340.526 -2.16241 -3.45982 0
M  V30 3460 H 339.201 -3.09309 -2.7803 0
M  V30 3461 H 337.778 -1.39217 -3.45938 0
M  V30 3462 N 339.963 1.05934 -1.16686 0
M  V30 3463 C 340.873 2.17014 -0.891183 0
M  V30 3464 C 341.889 1.73453 0.137907 0
M  V30 3465 O 343.065 2.01361 -0.039592 0
M  V30 3466 C 340.13 3.44384 -0.400099 0
M  V30 3467 C 339.191 4.02433 -1.49486 0
M  V30 3468 C 338.424 5.23723 -1.02711 0
M  V30 3469 O 338.647 5.7027 0.121716 0
M  V30 3470 O 337.581 5.7382 -1.81699 0
M  V30 3471 H 341.407 2.43113 -1.82015 0
M  V30 3472 H 338.992 1.15541 -0.947132 0
M  V30 3473 H 340.874 4.21189 -0.133392 0
M  V30 3474 H 339.549 3.19802 0.500817 0
M  V30 3475 H 338.456 3.27102 -1.81535 0
M  V30 3476 H 339.789 4.31317 -2.37121 0
M  V30 3477 N 341.441 0.965919 1.2453 0
M  V30 3478 C 342.391 0.465731 2.23193 0
M  V30 3479 C 343.375 -0.451277 1.54442 0
M  V30 3480 O 344.567 -0.282489 1.74731 0
M  V30 3481 C 341.696 -0.244511 3.42428 0
M  V30 3482 C 340.782 0.691222 4.18429 0
M  V30 3483 N 341.173 1.82771 4.71623 0
M  V30 3484 C 339.471 0.501649 4.4317 0
M  V30 3485 C 340.172 2.41285 5.29298 0
M  V30 3486 N 339.148 1.69819 5.16394 0
M  V30 3487 H 342.95 1.33291 2.61937 0
M  V30 3488 H 340.464 0.824789 1.39896 0
M  V30 3489 H 342.461 -0.620056 4.12263 0
M  V30 3490 H 341.121 -1.10815 3.05205 0
M  V30 3491 H 342.132 2.20929 4.68413 0
M  V30 3492 H 338.809 -0.318177 4.16286 0
M  V30 3493 H 340.199 3.37181 5.8117 0
M  V30 3494 N 342.919 -1.39368 0.735821 0
M  V30 3495 C 343.869 -2.27885 0.0724287 0
M  V30 3496 C 344.853 -1.44301 -0.711756 0
M  V30 3497 O 346.045 -1.67206 -0.58063 0
M  V30 3498 C 343.174 -3.33029 -0.833454 0
M  V30 3499 C 342.26 -4.24078 -0.0433749 0
M  V30 3500 N 342.651 -4.96138 0.983903 0
M  V30 3501 C 340.949 -4.45164 -0.272905 0
M  V30 3502 C 341.65 -5.63069 1.4604 0
M  V30 3503 N 340.626 -5.37991 0.778857 0
M  V30 3504 H 344.428 -2.81052 0.859467 0
M  V30 3505 H 341.942 -1.5206 0.570227 0
M  V30 3506 H 343.939 -3.95311 -1.32419 0
M  V30 3507 H 342.599 -2.81421 -1.61964 0
M  V30 3508 H 343.61 -4.9958 1.36528 0
M  V30 3509 H 340.287 -4.04497 -1.03383 0
M  V30 3510 H 341.677 -6.30755 2.31511 0
M  V30 3511 N 344.397 -0.483516 -1.5 0
M  V30 3512 C 345.637 0.0657469 -2.04294 0
M  V30 3513 C 346.001 1.35869 -1.35659 0
M  V30 3514 O 347.202 1.99111 -1.80578 0
M  V30 3515 C 345.473 0.232758 -3.56641 0
M  V30 3516 S 347.032 0.738788 -4.32536 0
M  V30 3517 H 343.85 0.0100755 -0.710929 0
M  V30 3518 H 346.452 -0.653494 -1.84254 0
M  V30 3519 H 345.156 -0.713847 -4.04144 0
M  V30 3520 H 344.687 0.977751 -3.81056 0
M  V30 3521 H 346.702 2.01048 -4.53645 0
M  V30 3522 N 345.875 1.56104 -0.216619 0
M  V30 3523 C 347.123 1.97781 0.415593 0
M  V30 3524 C 347.444 1.10536 1.60645 0
M  V30 3525 O 346.714 0.181303 1.95059 0
M  V30 3526 H 345.294 0.730415 0.156534 0
M  V30 3527 H 347.956 1.92445 -0.308366 0
M  V30 3528 H 347.052 3.03072 0.74525 0
M  V30 3529 N 347.353 -0.0568162 1.57498 0
M  V30 3530 C 348.285 -1.09292 2.01464 0
M  V30 3531 C 349.298 -1.34112 0.922913 0
M  V30 3532 O 350.487 -1.32089 1.20062 0
M  V30 3533 C 347.587 -2.44068 2.35125 0
M  V30 3534 C 346.76 -2.38995 3.66333 0
M  V30 3535 C 345.819 -3.55997 3.87495 0
M  V30 3536 O 344.845 -3.36746 4.58901 0
M  V30 3537 N 346.047 -4.76888 3.30996 0
M  V30 3538 H 348.812 -0.718386 2.90963 0
M  V30 3539 H 346.373 -0.245235 1.60032 0
M  V30 3540 H 348.365 -3.21011 2.46443 0
M  V30 3541 H 346.935 -2.73468 1.5144 0
M  V30 3542 H 346.155 -1.47336 3.65631 0
M  V30 3543 H 347.443 -2.3272 4.52458 0
M  V30 3544 H 346.841 -4.95431 2.73065 0
M  V30 3545 H 345.398 -5.51291 3.47738 0
M  V30 3546 N 348.832 -1.54138 -0.328536 0
M  V30 3547 C 349.795 -1.82462 -1.38709 0
M  V30 3548 C 350.795 -0.696229 -1.44946 0
M  V30 3549 O 351.985 -0.964535 -1.4506 0
M  V30 3550 C 349.117 -1.98018 -2.77492 0
M  V30 3551 H 350.31 -2.77037 -1.14851 0
M  V30 3552 H 347.863 -1.45779 -0.563751 0
M  V30 3553 H 348.598 -1.05637 -3.06613 0
M  V30 3554 H 348.383 -2.80124 -2.74359 0
M  V30 3555 H 349.873 -2.21396 -3.54081 0
M  V30 3556 N 350.31 0.590341 -1.46126 0
M  V30 3557 C 351.559 1.34499 -1.50309 0
M  V30 3558 C 351.872 1.94977 -0.156021 0
M  V30 3559 O 353.078 2.71395 -0.0756037 0
M  V30 3560 C 351.534 2.43723 -2.64815 0
M  V30 3561 C 351.142 1.89582 -4.0591 0
M  V30 3562 C 352.886 3.20579 -2.78262 0
M  V30 3563 C 350.793 2.9639 -5.11769 0
M  V30 3564 H 349.723 0.505593 -0.559368 0
M  V30 3565 H 352.374 0.630848 -1.72315 0
M  V30 3566 H 350.756 3.17902 -2.36124 0
M  V30 3567 H 351.93 1.21997 -4.44357 0
M  V30 3568 H 350.245 1.25418 -3.97063 0
M  V30 3569 H 352.842 4.00276 -3.54519 0
M  V30 3570 H 353.185 3.72684 -1.85505 0
M  V30 3571 H 353.718 2.53505 -3.06562 0
M  V30 3572 H 350.457 2.49181 -6.06291 0
M  V30 3573 H 349.977 3.62487 -4.77873 0
M  V30 3574 H 351.656 3.60474 -5.37278 0
M  V30 3575 N 351.788 1.33704 0.83433 0
M  V30 3576 C 353.037 1.24763 1.58484 0
M  V30 3577 C 353.35 -0.183775 1.94735 0
M  V30 3578 O 354.556 -0.395234 2.68608 0
M  V30 3579 C 353.012 2.18638 2.85876 0
M  V30 3580 C 352.62 3.66974 2.56971 0
M  V30 3581 C 354.364 2.18581 3.63899 0
M  V30 3582 C 352.271 4.5275 3.80488 0
M  V30 3583 H 351.201 0.463425 0.594772 0
M  V30 3584 H 353.852 1.58797 0.919551 0
M  V30 3585 H 352.234 1.77542 3.5397 0
M  V30 3586 H 353.408 4.16538 1.9706 0
M  V30 3587 H 351.723 3.69366 1.92244 0
M  V30 3588 H 354.32 2.79894 4.55591 0
M  V30 3589 H 354.663 1.18207 3.99165 0
M  V30 3590 H 355.196 2.58062 3.02735 0
M  V30 3591 H 351.935 5.54017 3.5035 0
M  V30 3592 H 351.455 4.07927 4.39722 0
M  V30 3593 H 353.134 4.66784 4.4802 0
M  V30 3594 N 353.266 -1.05314 1.17247 0
M  V30 3595 C 354.214 -2.15137 0.884238 0
M  V30 3596 C 355.208 -1.68729 -0.15063 0
M  V30 3597 O 356.414 -1.8 -0.00366673 0
M  V30 3598 H 352.789 -0.702471 0.2684 0
M  V30 3599 H 354.76 -2.36652 1.81764 0
M  V30 3600 C 353.509 -3.45243 0.412659 0
M  V30 3601 H 352.832 -3.81352 1.20043 0
M  V30 3602 H 354.272 -4.23263 0.249858 0
M  V30 3603 C 352.731 -3.25487 -0.86948 0
M  V30 3604 O 353.261 -3.51938 -1.93655 0
M  V30 3605 N 351.467 -2.78875 -0.817147 0
M  V30 3606 H 351.014 -2.57549 0.0514211 0
M  V30 3607 H 350.972 -2.66036 -1.67547 0
M  V30 3608 N 354.744 -0.972509 -1.24016 0
M  V30 3609 C 355.707 -0.511403 -2.23422 0
M  V30 3610 C 356.707 0.394679 -1.55881 0
M  V30 3611 O 357.897 0.189469 -1.73167 0
M  V30 3612 C 355.029 0.258769 -3.39916 0
M  V30 3613 H 356.222 -1.39024 -2.6573 0
M  V30 3614 H 353.775 -0.757585 -1.36713 0
M  V30 3615 H 354.51 1.1545 -3.03054 0
M  V30 3616 H 354.295 -0.391522 -3.9014 0
M  V30 3617 H 355.785 0.570244 -4.13688 0
M  V30 3618 N 356.222 1.38976 -0.743202 0
M  V30 3619 C 357.499 1.94351 -0.220705 0
M  V30 3620 C 357.879 1.67935 1.2791 0
M  V30 3621 O 357.227 1.01211 2.04862 0
M  V30 3622 C 357.437 3.44426 -0.563171 0
M  V30 3623 C 358.785 4.2144 -0.517046 0
M  V30 3624 O 359.809 3.52661 -0.500846 0
M  V30 3625 O 358.668 5.44032 -0.518806 0
M  V30 3626 H 355.762 0.825879 -0.043047 0
M  V30 3627 H 358.308 1.48429 -0.822618 0
M  V30 3628 H 357.08 3.5712 -1.59941 0
M  V30 3629 H 356.703 3.97543 0.0672883 0
M  V30 3630 N 357.7 0.491464 1.49741 0
M  V30 3631 C 358.977 -0.118984 1.95238 0
M  V30 3632 C 359.357 -1.55044 1.43264 0
M  V30 3633 O 358.705 -2.19287 0.642287 0
M  V30 3634 C 358.915 -0.0414187 3.48975 0
M  V30 3635 C 360.263 -0.220133 4.24029 0
M  V30 3636 O 361.287 -0.117055 3.56008 0
M  V30 3637 O 360.146 -0.430567 5.44801 0
M  V30 3638 H 357.24 -0.100536 0.820866 0
M  V30 3639 H 359.786 0.553322 1.60426 0
M  V30 3640 H 358.558 0.957214 3.79412 0
M  V30 3641 H 358.181 -0.754292 3.9038 0
M  V30 3642 N 359.178 -1.55987 0.224894 0
M  V30 3643 C 360.088 -2.24066 -0.69511 0
M  V30 3644 C 361.104 -1.24939 -1.21104 0
M  V30 3645 O 362.28 -1.5776 -1.25195 0
M  V30 3646 C 359.345 -2.90983 -1.88493 0
M  V30 3647 C 358.406 -4.05462 -1.41064 0
M  V30 3648 C 357.639 -4.69179 -2.54375 0
M  V30 3649 O 357.862 -4.31895 -3.72589 0
M  V30 3650 O 356.796 -5.58108 -2.25386 0
M  V30 3651 H 360.622 -3.03353 -0.145149 0
M  V30 3652 H 358.207 -1.49399 -0.00569476 0
M  V30 3653 H 360.089 -3.33209 -2.57972 0
M  V30 3654 H 358.764 -2.14653 -2.42293 0
M  V30 3655 H 357.671 -3.67798 -0.683774 0
M  V30 3656 H 359.004 -4.83545 -0.918985 0
M  V30 3657 N 360.656 0.0484629 -1.57525 0
M  V30 3658 C 361.902 0.744226 -1.88651 0
M  V30 3659 C 362.235 1.76029 -0.820212 0
M  V30 3660 O 361.51 1.93782 0.166985 0
M  V30 3661 C 361.793 1.43128 -3.30434 0
M  V30 3662 C 361.646 0.43005 -4.47739 0
M  V30 3663 C 362.965 2.37031 -3.70816 0
M  V30 3664 H 360.084 0.269089 -0.68612 0
M  V30 3665 H 362.726 0.00713532 -1.89999 0
M  V30 3666 H 360.876 2.05956 -3.29415 0
M  V30 3667 H 362.548 -0.194816 -4.60888 0
M  V30 3668 H 360.791 -0.252522 -4.33064 0
M  V30 3669 H 361.462 0.948874 -5.43783 0
M  V30 3670 H 363.938 1.84263 -3.73077 0
M  V30 3671 H 362.814 2.82094 -4.70865 0
M  V30 3672 H 363.075 3.22864 -3.02012 0
M  V30 3673 N 362.134 1.5431 0.320358 0
M  V30 3674 C 363.382 1.72327 1.05583 0
M  V30 3675 C 363.703 0.50149 1.88441 0
M  V30 3676 O 362.973 -0.48448 1.89815 0
M  V30 3677 H 361.553 0.635387 0.3928 0
M  V30 3678 H 364.215 1.91621 0.356019 0
M  V30 3679 H 363.311 2.60426 1.72003 0
M  V30 3680 N 363.613 -0.582584 1.46437 0
M  V30 3681 C 365.029 -0.905962 1.31394 0
M  V30 3682 C 365.229 -1.99468 0.285476 0
M  V30 3683 O 364.285 -2.50566 -0.311914 0
M  V30 3684 C 365.598 -1.3232 2.70022 0
M  V30 3685 C 367.146 -1.43604 2.78113 0
M  V30 3686 C 367.621 -1.88694 4.17323 0
M  V30 3687 N 369.112 -1.95887 4.19741 0
M  V30 3688 C 369.847 -2.32051 5.24347 0
M  V30 3689 N 369.343 -2.67006 6.39281 0
M  V30 3690 N 371.136 -2.32606 5.11713 0
M  V30 3691 H 363.287 0.1366 2.1196 0
M  V30 3692 H 365.55 -0.00155736 0.947999 0
M  V30 3693 H 365.256 -0.597242 3.46592 0
M  V30 3694 H 365.13 -2.28469 3.00136 0
M  V30 3695 H 367.517 -2.15286 2.01832 0
M  V30 3696 H 367.598 -0.457059 2.51684 0
M  V30 3697 H 367.242 -1.1759 4.941 0
M  V30 3698 H 367.172 -2.8755 4.4116 0
M  V30 3699 H 369.663 -1.71362 3.36814 0
M  V30 3700 H 369.976 -2.93554 7.14875 0
M  V30 3701 H 368.321 -2.64644 6.42642 0
M  V30 3702 H 371.512 -2.04721 4.2096 0
M  V30 3703 H 371.685 -2.60462 5.93349 0
M  V30 3704 N 365.091 -1.34144 -0.827227 0
M  V30 3705 C 366.507 -1.13732 -1.11969 0
M  V30 3706 C 366.707 0.0640463 -2.01398 0
M  V30 3707 O 365.763 0.740856 -2.41387 0
M  V30 3708 C 367.076 -2.43047 -1.77055 0
M  V30 3709 C 368.624 -2.49063 -1.89569 0
M  V30 3710 C 369.099 -3.78369 -2.58072 0
M  V30 3711 N 370.59 -3.79505 -2.65575 0
M  V30 3712 C 371.325 -4.76274 -3.19297 0
M  V30 3713 N 370.821 -5.83424 -3.73616 0
M  V30 3714 N 372.614 -4.63735 -3.17658 0
M  V30 3715 H 364.765 -2.11126 -0.232296 0
M  V30 3716 H 367.028 -0.933424 -0.165602 0
M  V30 3717 H 366.734 -3.31025 -1.18807 0
M  V30 3718 H 366.608 -2.56066 -2.76966 0
M  V30 3719 H 368.995 -1.61527 -2.46968 0
M  V30 3720 H 369.076 -2.39975 -0.885745 0
M  V30 3721 H 368.72 -4.66293 -2.01329 0
M  V30 3722 H 368.65 -3.84737 -3.59562 0
M  V30 3723 H 371.141 -3.02074 -2.27068 0
M  V30 3724 H 371.454 -6.53282 -4.12846 0
M  V30 3725 H 369.799 -5.87143 -3.71871 0
M  V30 3726 H 372.99 -3.79177 -2.74486 0
M  V30 3727 H 373.163 -5.39318 -3.59221 0
M  V30 3728 N 366.569 1.04691 -1.17803 0
M  V30 3729 C 367.815 1.78181 -0.980977 0
M  V30 3730 C 368.17 1.86191 0.484825 0
M  V30 3731 O 367.463 1.35436 1.35527 0
M  V30 3732 C 367.657 3.21467 -1.56186 0
M  V30 3733 C 367.486 3.27422 -3.08261 0
M  V30 3734 C 366.256 3.36415 -3.77032 0
M  V30 3735 C 368.454 3.15947 -4.0581 0
M  V30 3736 N 366.436 3.31554 -5.16667 0
M  V30 3737 C 367.807 3.18514 -5.31929 0
M  V30 3738 C 369.862 2.99945 -3.97413 0
M  V30 3739 C 368.565 3.06723 -6.50625 0
M  V30 3740 C 370.591 2.89497 -5.15699 0
M  V30 3741 C 369.953 2.92702 -6.40706 0
M  V30 3742 H 366.052 0.6641 -0.412911 0
M  V30 3743 H 368.636 1.24762 -1.49474 0
M  V30 3744 H 366.807 3.73245 -1.07436 0
M  V30 3745 H 368.539 3.8322 -1.30093 0
M  V30 3746 H 365.294 3.41887 -3.27735 0
M  V30 3747 H 365.718 3.3258 -5.89678 0
M  V30 3748 H 370.36 2.96302 -3.01604 0
M  V30 3749 H 368.078 3.0912 -7.46639 0
M  V30 3750 H 371.664 2.78179 -5.10987 0
M  V30 3751 H 370.544 2.84697 -7.30696 0
M  V30 3752 N 368.047 0.979072 1.23499 0
M  V30 3753 C 368.977 0.537606 2.27227 0
M  V30 3754 C 369.958 -0.428539 1.64613 0
M  V30 3755 O 371.143 -0.322191 1.91509 0
M  V30 3756 C 368.273 -0.162052 3.46922 0
M  V30 3757 C 367.227 0.721242 4.21879 0
M  V30 3758 C 366.553 -0.110555 5.34586 0
M  V30 3759 C 367.853 2.01141 4.82016 0
M  V30 3760 H 369.547 1.40462 2.64406 0
M  V30 3761 H 367.093 0.67684 1.27102 0
M  V30 3762 H 369.046 -0.482192 4.18632 0
M  V30 3763 H 367.77 -1.06351 3.08799 0
M  V30 3764 H 366.429 1.02482 3.51984 0
M  V30 3765 H 366.077 -1.0125 4.92704 0
M  V30 3766 H 365.777 0.477325 5.85658 0
M  V30 3767 H 367.301 -0.425107 6.09118 0
M  V30 3768 H 368.715 1.75612 5.45741 0
M  V30 3769 H 367.112 2.54695 5.43369 0
M  V30 3770 H 368.182 2.69909 4.02836 0
M  V30 3771 N 369.525 -1.3858 0.750561 0
M  V30 3772 C 370.488 -2.28836 0.129152 0
M  V30 3773 C 371.488 -1.47045 -0.650714 0
M  V30 3774 O 372.678 -1.6753 -0.477428 0
M  V30 3775 C 369.81 -3.30751 -0.825622 0
M  V30 3776 H 371.003 -2.85294 0.924516 0
M  V30 3777 H 368.556 -1.47489 0.517376 0
M  V30 3778 H 369.291 -2.79378 -1.64677 0
M  V30 3779 H 369.076 -3.91177 -0.268852 0
M  V30 3780 H 370.566 -3.98249 -1.2565 0
M  V30 3781 N 371.003 -0.499398 -1.49478 0
M  V30 3782 C 371.95 0.279881 -2.29097 0
M  V30 3783 C 372.92 0.961805 -1.3542 0
M  V30 3784 O 374.105 0.968777 -1.64376 0
M  V30 3785 C 371.245 1.33932 -3.18051 0
M  V30 3786 C 370.358 0.669333 -4.26783 0
M  V30 3787 C 369.493 1.70907 -5.02955 0
M  V30 3788 C 368.532 1.02087 -6.03527 0
M  V30 3789 N 367.669 2.00474 -6.7287 0
M  V30 3790 H 372.509 -0.405317 -2.95231 0
M  V30 3791 H 370.046 -0.211726 -1.45568 0
M  V30 3792 H 372.004 1.96553 -3.67998 0
M  V30 3793 H 370.634 1.9933 -2.53904 0
M  V30 3794 H 369.686 -0.0701234 -3.80335 0
M  V30 3795 H 370.998 0.127503 -4.98637 0
M  V30 3796 H 370.152 2.41037 -5.56764 0
M  V30 3797 H 368.891 2.28476 -4.30871 0
M  V30 3798 H 367.896 0.305338 -5.48951 0
M  V30 3799 H 369.121 0.451708 -6.77596 0
M  V30 3800 H 367.067 2.57007 -6.03559 0
M  V30 3801 H 366.984 1.51353 -7.40694 0
M  V30 3802 H 368.252 2.69897 -7.31284 0
M  V30 3803 N 372.481 1.55866 -0.233164 0
M  V30 3804 C 373.411 2.23783 0.666599 0
M  V30 3805 C 374.392 1.21343 1.19205 0
M  V30 3806 O 375.577 1.4996 1.23392 0
M  V30 3807 C 372.707 2.92671 1.86978 0
M  V30 3808 C 371.661 4.01682 1.47768 0
M  V30 3809 C 370.987 4.57926 2.76058 0
M  V30 3810 C 372.287 5.18126 0.658993 0
M  V30 3811 H 373.981 2.99232 0.100306 0
M  V30 3812 H 371.527 1.43924 0.046804 0
M  V30 3813 H 373.48 3.3888 2.50476 0
M  V30 3814 H 372.204 2.14688 2.46123 0
M  V30 3815 H 370.863 3.56222 0.866106 0
M  V30 3816 H 370.511 3.76659 3.33372 0
M  V30 3817 H 370.211 5.31505 2.50552 0
M  V30 3818 H 371.735 5.06859 3.40479 0
M  V30 3819 H 373.149 5.60644 1.19795 0
M  V30 3820 H 371.546 5.98009 0.500552 0
M  V30 3821 H 372.616 4.83763 -0.331856 0
M  V30 3822 N 373.959 -0.0401083 1.57549 0
M  V30 3823 C 375.37 -0.588097 1.77196 0
M  V30 3824 C 375.721 -1.76209 0.862832 0
M  V30 3825 O 374.846 -2.16331 0.0548389 0
M  V30 3826 C 375.441 -1.07363 3.21339 0
M  V30 3827 C 374 -1.56723 3.42221 0
M  V30 3828 C 373.147 -0.50041 2.72747 0
M  V30 3829 H 376.098 0.186119 1.57605 0
M  V30 3830 H 376.119 -1.94143 3.27244 0
M  V30 3831 H 375.631 -0.218975 3.87482 0
M  V30 3832 H 373.732 -2.4441 2.81237 0
M  V30 3833 H 373.845 -1.62234 4.50796 0
M  V30 3834 H 372.209 -0.952894 2.36203 0
M  V30 3835 H 372.992 0.344599 3.41566 0
M  V30 3836 N 375.437 -1.54477 -0.31217 0
M  V30 3837 C 376.714 -1.63891 -1.06767 0
M  V30 3838 C 377.094 -0.480028 -2.0557 0
M  V30 3839 O 376.442 0.524487 -2.22399 0
M  V30 3840 C 376.652 -3.01402 -1.75948 0
M  V30 3841 C 378 -3.57838 -2.28554 0
M  V30 3842 O 379.024 -3.03782 -1.85998 0
M  V30 3843 O 377.883 -4.52462 -3.06497 0
M  V30 3844 H 374.977 -0.664125 -0.492816 0
M  V30 3845 H 377.523 -1.66823 -0.311149 0
M  V30 3846 H 376.295 -3.77187 -1.04144 0
M  V30 3847 H 375.918 -3.02199 -2.58383 0
M  V30 3848 N 376.915 0.57481 -1.46744 0
M  V30 3849 C 377.878 1.66533 -1.57478 0
M  V30 3850 C 378.878 1.54338 -0.451263 0
M  V30 3851 O 380.068 1.58814 -0.715813 0
M  V30 3852 C 377.2 3.05999 -1.50259 0
M  V30 3853 H 378.393 1.58372 -2.54673 0
M  V30 3854 H 375.946 0.793301 -1.34672 0
M  V30 3855 H 376.681 3.19709 -0.543725 0
M  V30 3856 H 376.466 3.16259 -2.31781 0
M  V30 3857 H 377.956 3.8537 -1.60872 0
M  V30 3858 N 378.394 1.34581 0.820102 0
M  V30 3859 C 379.64 1.27285 1.57881 0
M  V30 3860 C 379.973 -0.156137 1.93571 0
M  V30 3861 O 379.248 -1.10222 1.60254 0
M  V30 3862 C 379.531 2.16639 2.87645 0
M  V30 3863 C 379.384 3.68088 2.58517 0
M  V30 3864 C 380.703 2.05378 3.8924 0
M  V30 3865 H 377.822 0.463714 0.572833 0
M  V30 3866 H 380.464 1.64859 0.944539 0
M  V30 3867 H 378.614 1.84725 3.41773 0
M  V30 3868 H 380.286 4.10382 2.10676 0
M  V30 3869 H 378.529 3.89038 1.91917 0
M  V30 3870 H 379.2 4.2598 3.51063 0
M  V30 3871 H 381.676 2.33404 3.44473 0
M  V30 3872 H 380.552 2.7012 4.77835 0
M  V30 3873 H 380.813 1.0316 4.29896 0
M  V30 3874 N 379.872 -1.04064 1.18357 0
M  V30 3875 C 380.835 -2.10243 0.912707 0
M  V30 3876 C 381.835 -1.60477 -0.101928 0
M  V30 3877 O 383.025 -1.73703 0.131517 0
M  V30 3878 C 380.157 -3.38893 0.369387 0
M  V30 3879 H 381.35 -2.35706 1.85426 0
M  V30 3880 H 378.903 -1.20489 0.995594 0
M  V30 3881 H 379.638 -3.19094 -0.578776 0
M  V30 3882 H 379.423 -3.76331 1.1008 0
M  V30 3883 H 380.913 -4.17128 0.198575 0
M  V30 3884 N 381.35 -0.985608 -1.22978 0
M  V30 3885 C 382.596 -0.65836 -1.91816 0
M  V30 3886 C 382.929 0.806692 -1.76653 0
M  V30 3887 O 382.204 1.58252 -1.13078 0
M  V30 3888 C 382.487 -1.056 -3.44268 0
M  V30 3889 C 382.34 -2.57906 -3.68516 0
M  V30 3890 C 383.659 -0.603781 -4.35939 0
M  V30 3891 H 380.778 -0.24065 -0.696604 0
M  V30 3892 H 383.42 -1.22783 -1.44998 0
M  V30 3893 H 381.57 -0.571445 -3.84274 0
M  V30 3894 H 383.242 -3.13976 -3.3796 0
M  V30 3895 H 381.485 -3.00305 -3.13048 0
M  V30 3896 H 382.156 -2.80779 -4.75255 0
M  V30 3897 H 384.632 -1.01987 -4.03408 0
M  V30 3898 H 383.508 -0.910383 -5.41298 0
M  V30 3899 H 383.769 0.495761 -4.39312 0
M  V30 3900 N 382.828 1.3818 -0.7579 0
M  V30 3901 C 384.053 2.04827 -0.325679 0
M  V30 3902 C 384.478 1.56788 1.03919 0
M  V30 3903 O 383.836 0.721811 1.66312 0
M  V30 3904 C 383.884 3.58774 -0.362447 0
M  V30 3905 O 382.988 4.07372 0.642033 0
M  V30 3906 H 382.329 0.64833 -0.143402 0
M  V30 3907 H 384.859 1.7677 -1.03023 0
M  V30 3908 H 384.869 4.07434 -0.214844 0
M  V30 3909 H 383.544 3.93096 -1.35824 0
M  V30 3910 H 382.121 3.70068 0.458688 0
M  V30 3911 N 384.306 0.507319 1.49211 0
M  V30 3912 C 385.239 -0.314509 2.26022 0
M  V30 3913 C 386.217 -0.964849 1.30879 0
M  V30 3914 O 387.401 -0.993707 1.6018 0
M  V30 3915 C 384.528 -1.44346 3.06402 0
M  V30 3916 C 383.574 -0.90685 4.16748 0
M  V30 3917 S 384.407 0.207392 5.35098 0
M  V30 3918 C 385.563 -0.924573 6.19033 0
M  V30 3919 H 385.796 0.337416 2.95379 0
M  V30 3920 H 383.329 0.292718 1.516 0
M  V30 3921 H 385.287 -2.09029 3.53295 0
M  V30 3922 H 383.948 -2.06702 2.36502 0
M  V30 3923 H 383.141 -1.75309 4.72528 0
M  V30 3924 H 382.743 -0.33712 3.72478 0
M  V30 3925 H 385.035 -1.82839 6.52362 0
M  V30 3926 H 385.978 -0.405248 7.06939 0
M  V30 3927 H 386.386 -1.19476 5.51712 0
M  V30 3928 N 385.784 -1.5574 0.241426 0
M  V30 3929 C 386.694 -2.2479 -0.671305 0
M  V30 3930 C 387.71 -1.26217 -1.19772 0
M  V30 3931 O 388.886 -1.59079 -1.23514 0
M  V30 3932 C 385.951 -2.92966 -1.85396 0
M  V30 3933 C 385.012 -4.06935 -1.36756 0
M  V30 3934 C 384.245 -4.71851 -2.49384 0
M  V30 3935 O 384.468 -4.35823 -3.67987 0
M  V30 3936 O 383.402 -5.60467 -2.19454 0
M  V30 3937 H 387.228 -3.0349 -0.112966 0
M  V30 3938 H 384.813 -1.49397 0.0101513 0
M  V30 3939 H 386.695 -3.35927 -2.54423 0
M  V30 3940 H 385.37 -2.17211 -2.40002 0
M  V30 3941 H 384.277 -3.68503 -0.644726 0
M  V30 3942 H 385.61 -4.84492 -0.867647 0
M  V30 3943 N 387.262 0.0317525 -1.57568 0
M  V30 3944 C 388.539 0.758366 -1.803 0
M  V30 3945 C 388.919 1.93718 -0.838845 0
M  V30 3946 O 388.267 2.28187 0.119571 0
M  V30 3947 C 388.477 1.19392 -3.27943 0
M  V30 3948 C 389.825 1.61094 -3.92854 0
M  V30 3949 O 390.849 1.28857 -3.32076 0
M  V30 3950 O 389.708 2.20918 -4.99858 0
M  V30 3951 H 386.802 0.366514 -0.741348 0
M  V30 3952 H 389.348 0.00873765 -1.69698 0
M  V30 3953 H 388.12 0.352275 -3.89711 0
M  V30 3954 H 387.743 2.00365 -3.43424 0
M  V30 3955 N 388.74 1.54641 0.303973 0
M  V30 3956 C 389.69 1.8177 1.37636 0
M  V30 3957 C 390.674 0.674697 1.46071 0
M  V30 3958 O 391.866 0.935251 1.50273 0
M  V30 3959 C 388.995 2.06584 2.74186 0
M  V30 3960 C 388.081 3.2706 2.69986 0
M  V30 3961 N 388.472 4.47682 2.35402 0
M  V30 3962 C 386.77 3.29028 3.01092 0
M  V30 3963 C 387.471 5.29689 2.40426 0
M  V30 3964 N 386.447 4.67339 2.7766 0
M  V30 3965 H 390.249 2.72596 1.09857 0
M  V30 3966 H 387.763 1.541 0.51254 0
M  V30 3967 H 389.76 2.24166 3.51504 0
M  V30 3968 H 388.42 1.17024 3.02879 0
M  V30 3969 H 389.431 4.74336 2.07908 0
M  V30 3970 H 386.108 2.49565 3.34699 0
M  V30 3971 H 387.498 6.3606 2.16512 0
M  V30 3972 N 390.218 -0.567019 1.47046 0
M  V30 3973 C 391.467 -1.32091 1.5243 0
M  V30 3974 C 391.78 -1.94704 0.187021 0
M  V30 3975 O 392.986 -2.7124 0.118771 0
M  V30 3976 C 391.442 -2.39479 2.68659 0
M  V30 3977 C 391.05 -1.831 4.08874 0
M  V30 3978 C 392.794 -3.16111 2.83327 0
M  V30 3979 C 390.701 -2.8821 5.16419 0
M  V30 3980 H 389.631 -0.496629 0.56734 0
M  V30 3981 H 392.282 -0.603354 1.73297 0
M  V30 3982 H 390.664 -3.14105 2.41152 0
M  V30 3983 H 391.838 -1.14913 4.46242 0
M  V30 3984 H 390.153 -1.19085 3.99008 0
M  V30 3985 H 392.75 -3.94585 3.60842 0
M  V30 3986 H 393.093 -3.69686 1.91411 0
M  V30 3987 H 393.626 -2.48595 3.10556 0
M  V30 3988 H 390.365 -2.39504 6.10179 0
M  V30 3989 H 389.885 -3.54839 4.8358 0
M  V30 3990 H 391.564 -3.51881 5.42945 0
M  V30 3991 N 391.696 -1.35014 -0.812953 0
M  V30 3992 C 392.644 -1.27435 -1.94585 0
M  V30 3993 C 393.638 -0.170494 -1.6854 0
M  V30 3994 O 394.844 -0.336085 -1.76835 0
M  V30 3995 H 391.219 -0.396144 -0.639198 0
M  V30 3996 H 393.19 -2.23158 -1.98098 0
M  V30 3997 C 391.939 -1.05677 -3.31252 0
M  V30 3998 H 391.262 -1.89853 -3.51846 0
M  V30 3999 H 392.702 -1.04413 -4.10943 0
M  V30 4000 C 391.161 0.239615 -3.36047 0
M  V30 4001 O 391.691 1.23759 -3.8216 0
M  V30 4002 N 389.897 0.276186 -2.89285 0
M  V30 4003 H 389.444 -0.53653 -2.51951 0
M  V30 4004 H 389.402 1.14332 -2.92875 0
M  V30 4005 N 393.175 1.03435 -1.18907 0
M  V30 4006 C 394.586 1.58195 -0.991523 0
M  V30 4007 C 394.937 1.90801 0.457081 0
M  V30 4008 O 394.062 1.70272 1.33553 0
M  V30 4009 C 394.657 2.87432 -1.79355 0
M  V30 4010 C 393.216 3.38785 -1.64017 0
M  V30 4011 C 392.363 2.12292 -1.78402 0
M  V30 4012 H 395.314 0.860299 -1.33359 0
M  V30 4013 H 395.335 3.58096 -1.28638 0
M  V30 4014 H 394.847 2.63669 -2.84781 0
M  V30 4015 H 392.948 3.67547 -0.611536 0
M  V30 4016 H 393.061 4.12186 -2.44212 0
M  V30 4017 H 391.425 2.23901 -1.2141 0
M  V30 4018 H 392.208 1.90977 -2.85277 0
M  V30 4019 N 394.653 0.992116 1.22453 0
M  V30 4020 C 395.601 0.534644 2.26372 0
M  V30 4021 C 396.595 -0.414293 1.64256 0
M  V30 4022 O 397.801 -0.286899 1.77699 0
M  V30 4023 H 394.176 0.154502 0.735957 0
M  V30 4024 H 396.147 1.42256 2.62309 0
M  V30 4025 C 394.896 -0.135815 3.47435 0
M  V30 4026 H 394.219 0.585311 3.95492 0
M  V30 4027 H 395.659 -0.419374 4.21921 0
M  V30 4028 C 394.118 -1.37089 3.07747 0
M  V30 4029 O 394.648 -2.46629 3.17076 0
M  V30 4030 N 392.854 -1.24585 2.62539 0
M  V30 4031 H 392.401 -0.354542 2.55149 0
M  V30 4032 H 392.359 -2.07327 2.36353 0
M  V30 4033 N 396.131 -1.37776 0.765217 0
M  V30 4034 C 397.371 -2.01691 0.331669 0
M  V30 4035 C 397.735 -1.59432 -1.06983 0
M  V30 4036 O 398.936 -2.15761 -1.60314 0
M  V30 4037 C 397.207 -3.54385 0.463261 0
M  V30 4038 S 398.766 -4.38652 0.114011 0
M  V30 4039 H 395.584 -0.699387 0.127979 0
M  V30 4040 H 398.186 -1.68084 0.998396 0
M  V30 4041 H 396.89 -3.82629 1.48401 0
M  V30 4042 H 396.421 -3.92783 -0.220246 0
M  V30 4043 H 398.436 -4.84021 -1.09261 0
M  V30 4044 N 397.609 -0.515225 -1.4894 0
M  V30 4045 C 398.559 0.275113 -2.26334 0
M  V30 4046 C 399.543 0.923007 -1.31793 0
M  V30 4047 O 400.735 0.828254 -1.56426 0
M  V30 4048 C 397.864 1.33041 -3.16473 0
M  V30 4049 C 396.95 0.688051 -4.18481 0
M  V30 4050 N 397.341 -0.217638 -5.05332 0
M  V30 4051 C 395.639 0.94699 -4.3583 0
M  V30 4052 C 396.34 -0.58676 -5.78733 0
M  V30 4053 N 395.316 0.0486966 -5.43578 0
M  V30 4054 H 399.118 -0.421876 -2.90856 0
M  V30 4055 H 396.632 -0.332249 -1.58965 0
M  V30 4056 H 398.629 1.9102 -3.70563 0
M  V30 4057 H 397.289 2.02894 -2.53504 0
M  V30 4058 H 398.3 -0.589343 -5.14536 0
M  V30 4059 H 394.977 1.63719 -3.8406 0
M  V30 4060 H 396.367 -1.32855 -6.58634 0
M  V30 4061 N 399.087 1.5561 -0.249682 0
M  V30 4062 C 400.335 1.98618 0.373548 0
M  V30 4063 C 400.656 1.13919 1.58264 0
M  V30 4064 O 399.926 0.222637 1.94631 0
M  V30 4065 H 398.506 0.733571 0.141006 0
M  V30 4066 H 401.168 1.91748 -0.349117 0
M  V30 4067 H 400.264 3.04584 0.680796 0
M  V30 4068 N 400.565 -0.0233959 1.57583 0
M  V30 4069 C 401.981 -0.379134 1.55031 0
M  V30 4070 C 402.181 -1.76255 0.976548 0
M  V30 4071 O 401.237 -2.45266 0.600078 0
M  V30 4072 C 402.55 -0.275792 2.99433 0
M  V30 4073 C 404.098 -0.352458 3.11009 0
M  V30 4074 C 404.573 -0.278501 4.57152 0
M  V30 4075 N 406.064 -0.337123 4.61972 0
M  V30 4076 C 406.799 -0.302876 5.726 0
M  V30 4077 N 406.295 -0.220589 6.92449 0
M  V30 4078 N 408.088 -0.353023 5.6099 0
M  V30 4079 H 400.239 0.881869 1.93227 0
M  V30 4080 H 402.502 0.335867 0.886509 0
M  V30 4081 H 402.208 0.675108 3.4516 0
M  V30 4082 H 402.082 -1.06721 3.61788 0
M  V30 4083 H 404.469 -1.29379 2.65226 0
M  V30 4084 H 404.55 0.468409 2.51475 0
M  V30 4085 H 404.194 0.659189 5.03604 0
M  V30 4086 H 404.124 -1.11755 5.14605 0
M  V30 4087 H 406.615 -0.403002 3.75745 0
M  V30 4088 H 406.928 -0.199713 7.72542 0
M  V30 4089 H 405.273 -0.186555 6.9475 0
M  V30 4090 H 408.464 -0.415339 4.66254 0
M  V30 4091 H 408.637 -0.322866 6.47195 0
M  V30 4092 N 402.043 -1.548 -0.295768 0
M  V30 4093 C 403.289 -1.75517 -1.02789 0
M  V30 4094 C 403.644 -0.537266 -1.84746 0
M  V30 4095 O 402.937 0.470299 -1.85738 0
M  V30 4096 C 403.131 -2.98797 -1.961 0
M  V30 4097 C 402.96 -4.3246 -1.23321 0
M  V30 4098 C 401.73 -4.96131 -0.95822 0
M  V30 4099 C 403.928 -5.10365 -0.635024 0
M  V30 4100 N 401.91 -6.1357 -0.201257 0
M  V30 4101 C 403.281 -6.19999 -0.0110937 0
M  V30 4102 C 405.336 -4.94957 -0.540594 0
M  V30 4103 C 404.039 -7.15904 0.698136 0
M  V30 4104 C 406.065 -5.91197 0.154992 0
M  V30 4105 C 405.427 -7.00203 0.767752 0
M  V30 4106 H 401.526 -0.694786 -0.358882 0
M  V30 4107 H 404.11 -1.92281 -0.305943 0
M  V30 4108 H 402.281 -2.83448 -2.6554 0
M  V30 4109 H 404.013 -3.08017 -2.62502 0
M  V30 4110 H 400.768 -4.56595 -1.25771 0
M  V30 4111 H 401.192 -6.76802 0.16389 0
M  V30 4112 H 405.834 -4.10803 -1.00003 0
M  V30 4113 H 403.552 -7.99595 1.16933 0
M  V30 4114 H 407.138 -5.81353 0.228069 0
M  V30 4115 H 406.018 -7.73393 1.29743 0
M  V30 4116 N 403.521 0.559213 -1.47345 0
M  V30 4117 C 404.451 1.67622 -1.62558 0
M  V30 4118 C 405.432 1.63331 -0.475087 0
M  V30 4119 O 406.617 1.80983 -0.704182 0
M  V30 4120 C 403.747 3.0626 -1.63774 0
M  V30 4121 C 402.701 3.25397 -2.7803 0
M  V30 4122 C 402.027 4.64801 -2.64318 0
M  V30 4123 C 403.327 3.10965 -4.19641 0
M  V30 4124 H 405.021 1.55146 -2.56067 0
M  V30 4125 H 402.567 0.744961 -1.23233 0
M  V30 4126 H 404.52 3.84247 -1.73008 0
M  V30 4127 H 403.244 3.1969 -0.66825 0
M  V30 4128 H 401.903 2.49817 -2.68304 0
M  V30 4129 H 401.551 4.75028 -1.65401 0
M  V30 4130 H 401.251 4.78555 -3.40968 0
M  V30 4131 H 402.775 5.44926 -2.75478 0
M  V30 4132 H 404.189 3.78772 -4.30354 0
M  V30 4133 H 402.586 3.36229 -4.97062 0
M  V30 4134 H 403.656 2.07736 -4.38148 0
M  V30 4135 N 404.999 1.35443 0.805782 0
M  V30 4136 C 405.946 1.28431 1.91766 0
M  V30 4137 C 406.916 0.156102 1.65365 0
M  V30 4138 O 408.101 0.339936 1.87747 0
M  V30 4139 C 405.241 1.06301 3.2832 0
M  V30 4140 C 404.354 2.2805 3.66902 0
M  V30 4141 C 403.489 1.99064 4.92491 0
M  V30 4142 C 402.528 3.16863 5.23703 0
M  V30 4143 N 401.665 2.87647 6.40471 0
M  V30 4144 H 406.505 2.23511 1.97096 0
M  V30 4145 H 404.042 1.11105 0.964054 0
M  V30 4146 H 406 0.915012 4.07042 0
M  V30 4147 H 404.63 0.148822 3.22457 0
M  V30 4148 H 403.682 2.53711 2.83434 0
M  V30 4149 H 404.994 3.1601 3.85927 0
M  V30 4150 H 404.148 1.81099 5.7904 0
M  V30 4151 H 402.887 1.0839 4.75503 0
M  V30 4152 H 401.892 3.35404 4.35642 0
M  V30 4153 H 403.117 4.08339 5.4262 0
M  V30 4154 H 401.063 1.99568 6.24907 0
M  V30 4155 H 400.98 3.69141 6.59751 0
M  V30 4156 H 402.248 2.73226 7.30047 0
M  V30 4157 N 406.477 -1.02803 1.19454 0
M  V30 4158 C 407.44 -2.09264 0.934955 0
M  V30 4159 C 408.44 -1.60576 -0.0849015 0
M  V30 4160 O 409.63 -1.73554 0.149933 0
M  V30 4161 C 406.762 -3.38482 0.40531 0
M  V30 4162 H 407.955 -2.33726 1.87916 0
M  V30 4163 H 405.508 -1.19426 1.00832 0
M  V30 4164 H 406.243 -3.19689 -0.544899 0
M  V30 4165 H 406.028 -3.75142 1.14065 0
M  V30 4166 H 407.518 -4.16894 0.242806 0
M  V30 4167 N 407.956 -0.998596 -1.21925 0
M  V30 4168 C 409.184 -0.696286 -1.94832 0
M  V30 4169 C 409.599 0.740032 -1.73692 0
M  V30 4170 O 408.956 1.5 -1.03953 0
M  V30 4171 C 409.007 -0.999833 -3.47398 0
M  V30 4172 O 408.728 -2.37972 -3.67833 0
M  V30 4173 C 410.229 -0.716025 -4.37479 0
M  V30 4174 H 407.449 -0.257111 -0.619786 0
M  V30 4175 H 409.993 -1.33491 -1.54921 0
M  V30 4176 H 408.148 -0.406918 -3.85257 0
M  V30 4177 H 408.562 -2.48338 -4.61983 0
M  V30 4178 H 410.036 -0.978642 -5.43256 0
M  V30 4179 H 410.513 0.349968 -4.37803 0
M  V30 4180 H 411.119 -1.29025 -4.05256 0
M  V30 4181 N 409.434 1.37368 -0.772513 0
M  V30 4182 C 410.344 2.34053 -0.160081 0
M  V30 4183 C 411.36 1.60216 0.678728 0
M  V30 4184 O 412.536 1.92303 0.59847 0
M  V30 4185 C 409.601 3.3939 0.708182 0
M  V30 4186 C 408.662 4.29048 -0.147172 0
M  V30 4187 C 407.895 5.29354 0.679744 0
M  V30 4188 O 408.118 5.3723 1.91678 0
M  V30 4189 O 407.052 6.01835 0.0885444 0
M  V30 4190 H 410.878 2.88159 -0.959053 0
M  V30 4191 H 408.463 1.39543 -0.533685 0
M  V30 4192 H 410.345 4.03839 1.20384 0
M  V30 4193 H 409.02 2.8761 1.48533 0
M  V30 4194 H 407.927 3.67697 -0.689205 0
M  V30 4195 H 409.26 4.84134 -0.887423 0
M  V30 4196 N 410.912 0.523116 1.48665 0
M  V30 4197 C 412.158 -0.0134963 2.02796 0
M  V30 4198 C 412.491 -1.34582 1.40004 0
M  V30 4199 O 411.766 -1.86756 0.543381 0
M  V30 4200 C 412.049 -0.14276 3.59817 0
M  V30 4201 C 411.902 1.21425 4.331 0
M  V30 4202 C 413.221 -0.872856 4.31357 0
M  V30 4203 H 410.34 -0.00343074 0.736992 0
M  V30 4204 H 412.982 0.678816 1.7746 0
M  V30 4205 H 411.132 -0.732401 3.81534 0
M  V30 4206 H 412.804 1.84447 4.2282 0
M  V30 4207 H 411.047 1.79791 3.94788 0
M  V30 4208 H 411.718 1.07687 5.41394 0
M  V30 4209 H 414.194 -0.372555 4.14429 0
M  V30 4210 H 413.07 -0.932185 5.40927 0
M  V30 4211 H 413.331 -1.92161 3.98154 0
M  V30 4212 N 412.39 -1.55475 0.257931 0
M  V30 4213 C 413.338 -2.23244 -0.653076 0
M  V30 4214 C 414.332 -1.22366 -1.17144 0
M  V30 4215 O 415.538 -1.40347 -1.12706 0
M  V30 4216 H 411.913 -0.716247 -0.229117 0
M  V30 4217 H 413.884 -2.98343 -0.0584788 0
M  V30 4218 C 412.633 -2.95401 -1.83395 0
M  V30 4219 H 411.956 -3.72802 -1.44424 0
M  V30 4220 H 413.396 -3.46165 -2.44838 0
M  V30 4221 C 411.855 -1.99895 -2.71189 0
M  V30 4222 O 412.385 -1.53909 -3.71046 0
M  V30 4223 N 410.591 -1.6676 -2.3799 0
M  V30 4224 H 410.138 -2.04352 -1.56837 0
M  V30 4225 H 410.096 -1.03127 -2.97005 0
M  V30 4226 N 413.868 0.0150385 -1.57593 0
M  V30 4227 C 415.098 0.713359 -1.93894 0
M  V30 4228 C 415.506 1.68663 -0.857289 0
M  V30 4229 O 414.849 1.82876 0.173788 0
M  V30 4230 C 414.911 1.51348 -3.26089 0
M  V30 4231 C 414.575 0.703451 -4.51554 0
M  V30 4232 C 415.572 -0.00237924 -5.199 0
M  V30 4233 C 413.257 0.653854 -4.98026 0
M  V30 4234 C 415.251 -0.746955 -6.33008 0
M  V30 4235 C 412.938 -0.0944578 -6.11027 0
M  V30 4236 C 413.936 -0.793609 -6.78374 0
M  V30 4237 O 413.624 -1.52974 -7.89211 0
M  V30 4238 H 413.356 0.204637 -0.644282 0
M  V30 4239 H 415.91 -0.0276411 -2.05381 0
M  V30 4240 H 414.14 2.29862 -3.10967 0
M  V30 4241 H 415.829 2.09572 -3.47612 0
M  V30 4242 H 416.595 0.0268803 -4.84993 0
M  V30 4243 H 412.474 1.18756 -4.45441 0
M  V30 4244 H 416.018 -1.2932 -6.85509 0
M  V30 4245 H 411.915 -0.125591 -6.45378 0
M  V30 4246 H 412.683 -1.44488 -8.05646 0
M  V30 4247 N 415.346 1.54954 0.287554 0
M  V30 4248 C 416.296 1.8322 1.357 0
M  V30 4249 C 417.28 0.690152 1.45347 0
M  V30 4250 O 418.472 0.951137 1.49273 0
M  V30 4251 C 415.601 2.09481 2.71979 0
M  V30 4252 C 414.687 3.29906 2.66502 0
M  V30 4253 N 415.078 4.50154 2.30641 0
M  V30 4254 C 413.376 3.32203 2.97585 0
M  V30 4255 C 414.077 5.32209 2.34794 0
M  V30 4256 N 413.053 4.70258 2.72688 0
M  V30 4257 H 416.855 2.73746 1.0696 0
M  V30 4258 H 414.369 1.54635 0.496167 0
M  V30 4259 H 416.366 2.27882 3.49107 0
M  V30 4260 H 415.026 1.2023 3.0162 0
M  V30 4261 H 416.037 4.76515 2.02865 0
M  V30 4262 H 412.714 2.53101 3.32034 0
M  V30 4263 H 414.104 6.38321 2.09753 0
M  V30 4264 N 416.824 -0.551391 1.4764 0
M  V30 4265 C 418.101 -1.31229 1.45046 0
M  V30 4266 C 418.481 -2.10563 0.150527 0
M  V30 4267 O 417.829 -2.11374 -0.867956 0
M  V30 4268 C 418.039 -2.21189 2.69956 0
M  V30 4269 C 419.387 -2.82021 3.1741 0
M  V30 4270 O 420.411 -2.31488 2.70724 0
M  V30 4271 O 419.27 -3.73885 3.98588 0
M  V30 4272 H 416.364 -0.591193 0.578291 0
M  V30 4273 H 418.91 -0.569813 1.59847 0
M  V30 4274 H 417.682 -1.62207 3.56096 0
M  V30 4275 H 417.305 -3.02722 2.57769 0
M  V30 4276 N 418.302 -1.35869 -0.798587 0
M  V30 4277 C 419.527 -1.32883 -1.59238 0
M  V30 4278 C 419.952 0.0894587 -1.87887 0
M  V30 4279 O 419.31 1.05869 -1.47178 0
M  V30 4280 C 419.358 -2.14892 -2.89575 0
M  V30 4281 O 418.462 -1.53512 -3.82763 0
M  V30 4282 H 417.803 -0.455236 -0.48338 0
M  V30 4283 H 420.333 -1.79024 -0.990539 0
M  V30 4284 H 420.343 -2.27139 -3.38928 0
M  V30 4285 H 419.018 -3.17998 -2.68049 0
M  V30 4286 H 417.595 -1.50153 -3.41334 0
M  V30 4287 N 419.78 1.02168 -1.19998 0
M  V30 4288 C 421.028 1.75338 -1.00504 0
M  V30 4289 C 421.349 1.89387 0.464506 0
M  V30 4290 O 420.619 1.43268 1.33608 0
M  V30 4291 H 419.199 0.649564 -0.368885 0
M  V30 4292 H 421.861 1.23205 -1.51018 0
M  V30 4293 H 420.957 2.75892 -1.45912 0
M  V30 4294 N 421.258 1.00505 1.21394 0
M  V30 4295 C 422.221 0.570459 2.21987 0
M  V30 4296 C 423.221 -0.353211 1.56873 0
M  V30 4297 O 424.411 -0.14349 1.73608 0
M  V30 4298 C 421.543 -0.168555 3.40483 0
M  V30 4299 H 422.736 1.46021 2.6195 0
M  V30 4300 H 420.289 0.793565 1.34656 0
M  V30 4301 H 421.024 -1.07374 3.06009 0
M  V30 4302 H 420.809 0.494823 3.88965 0
M  V30 4303 H 422.299 -0.460362 4.15055 0
M  V30 4304 N 422.737 -1.36956 0.779787 0
M  V30 4305 C 423.965 -2.03755 0.359398 0
M  V30 4306 C 424.38 -1.58807 -1.02106 0
M  V30 4307 O 423.737 -0.773024 -1.6532 0
M  V30 4308 C 423.788 -3.59251 0.402568 0
M  V30 4309 O 423.509 -4.02557 1.72858 0
M  V30 4310 C 425.01 -4.43291 -0.0284068 0
M  V30 4311 H 422.23 -0.654148 0.149437 0
M  V30 4312 H 424.774 -1.75128 1.05595 0
M  V30 4313 H 422.929 -3.86621 -0.245478 0
M  V30 4314 H 423.343 -4.97111 1.67275 0
M  V30 4315 H 424.817 -5.51975 0.0529466 0
M  V30 4316 H 425.294 -4.25719 -1.07982 0
M  V30 4317 H 425.9 -4.21163 0.591758 0
M  V30 4318 N 424.215 -0.530993 -1.48385 0
M  V30 4319 C 425.464 0.00474348 -2.01699 0
M  V30 4320 C 425.777 1.35227 -1.41325 0
M  V30 4321 O 426.983 1.97643 -1.86144 0
M  V30 4322 C 425.439 0.0588473 -3.59852 0
M  V30 4323 C 425.047 -1.28385 -4.2921 0
M  V30 4324 C 426.791 0.543358 -4.21008 0
M  V30 4325 C 424.698 -1.19028 -5.79298 0
M  V30 4326 H 423.628 0.00554317 -0.75398 0
M  V30 4327 H 426.279 -0.674924 -1.70637 0
M  V30 4328 H 424.661 0.803612 -3.8776 0
M  V30 4329 H 425.835 -2.04426 -4.12973 0
M  V30 4330 H 424.15 -1.70418 -3.7993 0
M  V30 4331 H 426.747 0.631351 -5.3096 0
M  V30 4332 H 427.09 1.54937 -3.86394 0
M  V30 4333 H 427.623 -0.145754 -3.97533 0
M  V30 4334 H 424.362 -2.17147 -6.18488 0
M  V30 4335 H 423.882 -0.471246 -5.97946 0
M  V30 4336 H 425.561 -0.881365 -6.40969 0
M  V30 4337 N 425.693 1.55336 -0.266172 0
M  V30 4338 C 427.109 1.59356 0.0882065 0
M  V30 4339 C 427.309 1.2834 1.55342 0
M  V30 4340 O 426.365 1.03996 2.30089 0
M  V30 4341 C 427.678 2.99409 -0.278364 0
M  V30 4342 C 429.226 3.12196 -0.224243 0
M  V30 4343 C 429.701 4.545 -0.565123 0
M  V30 4344 N 431.192 4.60313 -0.51634 0
M  V30 4345 C 431.927 5.68434 -0.753013 0
M  V30 4346 N 431.423 6.84738 -1.05383 0
M  V30 4347 N 433.216 5.57942 -0.682414 0
M  V30 4348 H 425.367 1.73764 -1.22147 0
M  V30 4349 H 427.63 0.809822 -0.492841 0
M  V30 4350 H 427.336 3.2691 -1.29703 0
M  V30 4351 H 427.21 3.75228 0.385186 0
M  V30 4352 H 429.597 2.84464 0.78512 0
M  V30 4353 H 429.678 2.38609 -0.921922 0
M  V30 4354 H 429.322 4.82956 -1.57213 0
M  V30 4355 H 429.252 5.26374 0.154248 0
M  V30 4356 H 431.743 3.7676 -0.29335 0
M  V30 4357 H 432.056 7.63088 -1.22133 0
M  V30 4358 H 430.401 6.86375 -1.09151 0
M  V30 4359 H 433.592 4.65958 -0.44731 0
M  V30 4360 H 433.765 6.4213 -0.870248 0
M  V30 4361 N 427.171 -0.0066808 1.57599 0
M  V30 4362 C 428.418 -0.69292 1.90276 0
M  V30 4363 C 428.746 -1.74148 0.866192 0
M  V30 4364 O 428.001 -1.95268 -0.129933 0
M  V30 4365 C 428.3 -1.37939 3.29708 0
M  V30 4366 C 427.966 -0.464679 4.48499 0
M  V30 4367 C 426.628 -0.212809 4.80729 0
M  V30 4368 C 428.98 0.16551 5.20937 0
M  V30 4369 C 426.308 0.677653 5.82773 0
M  V30 4370 C 428.66 1.04381 6.23929 0
M  V30 4371 C 427.324 1.30492 6.54621 0
M  V30 4372 H 426.594 -0.253558 0.696268 0
M  V30 4373 H 429.241 0.0474123 1.91441 0
M  V30 4374 H 427.546 -2.1936 3.24636 0
M  V30 4375 H 429.243 -1.9163 3.52249 0
M  V30 4376 H 425.833 -0.671153 4.23313 0
M  V30 4377 H 430.017 -0.0160756 4.96297 0
M  V30 4378 H 425.273 0.88803 6.04917 0
M  V30 4379 H 429.447 1.53851 6.79193 0
M  V30 4380 H 427.074 1.99662 7.33512 0
M  V30 4381 N 428.649 -1.55105 -0.279332 0
M  V30 4382 C 429.874 -1.7976 -1.03446 0
M  V30 4383 C 430.299 -0.565952 -1.79384 0
M  V30 4384 O 429.657 0.484259 -1.74713 0
M  V30 4385 C 429.705 -3.0179 -1.97371 0
M  V30 4386 O 428.809 -2.76432 -3.06038 0
M  V30 4387 H 428.15 -0.594334 -0.29608 0
M  V30 4388 H 430.68 -2.02235 -0.310165 0
M  V30 4389 H 430.69 -3.30351 -2.39441 0
M  V30 4390 H 429.365 -3.91085 -1.4151 0
M  V30 4391 H 427.942 -2.58949 -2.68328 0
M  V30 4392 N 430.127 0.543554 -1.4793 0
M  V30 4393 C 431.352 1.32995 -1.59145 0
M  V30 4394 C 431.777 1.86472 -0.246956 0
M  V30 4395 O 431.135 1.63696 0.779324 0
M  V30 4396 C 431.183 2.46623 -2.63077 0
M  V30 4397 O 430.287 3.49261 -2.19295 0
M  V30 4398 H 429.628 0.394472 -0.534124 0
M  V30 4399 H 432.158 0.655489 -1.93816 0
M  V30 4400 H 432.168 2.93001 -2.83926 0
M  V30 4401 H 430.843 2.07059 -3.60693 0
M  V30 4402 H 429.42 3.09094 -2.08603 0
M  V30 4403 N 431.605 1.3629 0.791371 0
M  V30 4404 C 432.83 1.33726 1.58531 0
M  V30 4405 C 433.255 -0.0794933 1.87932 0
M  V30 4406 O 432.613 -1.05087 1.47738 0
M  V30 4407 C 432.661 2.16425 2.88431 0
M  V30 4408 O 431.765 1.5554 3.81944 0
M  V30 4409 H 431.106 0.457793 0.480959 0
M  V30 4410 H 433.636 1.79547 0.981031 0
M  V30 4411 H 433.646 2.28933 3.37718 0
M  V30 4412 H 432.321 3.19415 2.66359 0
M  V30 4413 H 430.898 1.51961 3.40532 0
M  V30 4414 N 433.083 -1.0153 1.20538 0
M  V30 4415 C 434.329 -1.75517 1.02787 0
M  V30 4416 C 434.684 -1.87411 -0.435289 0
M  V30 4417 O 433.977 -1.38982 -1.31889 0
M  V30 4418 C 434.171 -3.17213 1.64654 0
M  V30 4419 C 434 -3.19134 3.16834 0
M  V30 4420 C 432.77 -3.26301 3.85818 0
M  V30 4421 C 434.968 -3.05077 4.14044 0
M  V30 4422 N 432.95 -3.17739 5.25276 0
M  V30 4423 C 434.321 -3.04299 5.40187 0
M  V30 4424 C 436.376 -2.89303 4.05226 0
M  V30 4425 C 435.079 -2.89365 6.58529 0
M  V30 4426 C 437.105 -2.75723 5.23193 0
M  V30 4427 C 436.467 -2.75612 6.48242 0
M  V30 4428 H 432.566 -0.652919 0.430373 0
M  V30 4429 H 435.15 -1.20755 1.52729 0
M  V30 4430 H 433.321 -3.70266 1.17294 0
M  V30 4431 H 435.053 -3.79637 1.40208 0
M  V30 4432 H 431.808 -3.33078 3.36684 0
M  V30 4433 H 432.232 -3.16829 5.98288 0
M  V30 4434 H 436.874 -2.88201 3.09354 0
M  V30 4435 H 434.592 -2.89216 7.54573 0
M  V30 4436 H 438.178 -2.64533 5.18183 0
M  V30 4437 H 437.058 -2.65224 7.37988 0
M  V30 4438 N 434.561 -1.01147 -1.20859 0
M  V30 4439 C 435.809 -0.696486 -1.89719 0
M  V30 4440 C 436.13 0.775788 -1.78904 0
M  V30 4441 O 435.4 1.55759 -1.18811 0
M  V30 4442 H 433.98 -0.254628 -0.702263 0
M  V30 4443 H 436.642 -1.28197 -1.46804 0
M  V30 4444 H 435.738 -0.975357 -2.96468 0
M  V30 4445 N 436.039 1.36541 -0.78704 0
M  V30 4446 C 437.316 1.9355 -0.282424 0
M  V30 4447 C 437.696 1.71919 1.22503 0
M  V30 4448 O 437.044 1.07677 2.01539 0
M  V30 4449 C 437.254 3.4246 -0.672462 0
M  V30 4450 C 438.602 4.19582 -0.650863 0
M  V30 4451 O 439.626 3.50889 -0.612789 0
M  V30 4452 O 438.485 5.42106 -0.691623 0
M  V30 4453 H 435.579 0.824091 -0.0693 0
M  V30 4454 H 438.125 1.45736 -0.869423 0
M  V30 4455 H 436.897 3.51851 -1.71221 0
M  V30 4456 H 436.52 3.97556 -0.0592211 0
M  V30 4457 N 437.518 0.538854 1.48102 0
M  V30 4458 C 438.766 0.00798599 2.02098 0
M  V30 4459 C 439.087 -1.33922 1.41739 0
M  V30 4460 O 438.357 -1.86932 0.585934 0
M  V30 4461 H 436.937 -3.62179e-05 0.747 0
M  V30 4462 H 439.599 0.7047 1.81714 0
M  V30 4463 H 438.695 -0.0937672 3.11959 0
M  V30 4464 N 438.996 -1.55193 0.274407 0
M  V30 4465 C 439.906 -2.26164 -0.623473 0
M  V30 4466 C 440.922 -1.28729 -1.17068 0
M  V30 4467 O 442.098 -1.61663 -1.20112 0
M  V30 4468 C 439.163 -2.96833 -1.7914 0
M  V30 4469 C 438.224 -4.09745 -1.28093 0
M  V30 4470 C 437.457 -4.77034 -2.3932 0
M  V30 4471 O 437.68 -4.4353 -3.5866 0
M  V30 4472 O 436.614 -5.64996 -2.07516 0
M  V30 4473 H 440.44 -3.03661 -0.0485661 0
M  V30 4474 H 438.025 -1.49341 0.0418382 0
M  V30 4475 H 439.907 -3.41248 -2.4724 0
M  V30 4476 H 438.582 -2.22253 -2.35341 0
M  V30 4477 H 437.489 -3.69787 -0.566416 0
M  V30 4478 H 438.822 -4.86224 -0.764683 0
M  V30 4479 N 440.474 -0.00167713 -1.576 0
M  V30 4480 C 441.723 0.682021 -1.89819 0
M  V30 4481 C 442.036 1.74844 -0.876871 0
M  V30 4482 O 443.242 2.48688 -1.08934 0
M  V30 4483 C 441.698 1.26425 -3.36964 0
M  V30 4484 C 441.306 0.232568 -4.47396 0
M  V30 4485 C 443.05 1.92604 -3.78291 0
M  V30 4486 C 440.957 0.824882 -5.85619 0
M  V30 4487 H 439.887 0.258499 -0.708304 0
M  V30 4488 H 442.538 -0.0624957 -1.83394 0
M  V30 4489 H 440.92 2.05949 -3.38232 0
M  V30 4490 H 442.094 -0.5382 -4.57646 0
M  V30 4491 H 440.409 -0.32888 -4.15099 0
M  V30 4492 H 443.006 2.37827 -4.78897 0
M  V30 4493 H 443.349 2.75732 -3.11894 0
M  V30 4494 H 443.882 1.19812 -3.79328 0
M  V30 4495 H 440.621 0.0323542 -6.55492 0
M  V30 4496 H 440.141 1.56477 -5.79029 0
M  V30 4497 H 441.82 1.32301 -6.33329 0
M  V30 4498 N 441.952 1.55251 0.271103 0
M  V30 4499 C 442.862 1.9136 1.35714 0
M  V30 4500 C 443.878 0.811075 1.5394 0
M  V30 4501 O 445.054 1.11031 1.6803 0
M  V30 4502 C 442.119 2.1798 2.69603 0
M  V30 4503 C 441.18 3.4153 2.60107 0
M  V30 4504 C 440.413 3.66871 3.8761 0
M  V30 4505 O 440.636 2.94689 4.8838 0
M  V30 4506 O 439.57 4.60405 3.87699 0
M  V30 4507 H 443.396 2.83815 1.08088 0
M  V30 4508 H 440.981 1.41821 0.469792 0
M  V30 4509 H 442.863 2.36518 3.48765 0
M  V30 4510 H 441.538 1.28708 2.97012 0
M  V30 4511 H 440.445 3.28325 1.79314 0
M  V30 4512 H 441.778 4.31027 2.37647 0
M  V30 4513 N 443.43 -0.535701 1.48216 0
M  V30 4514 C 444.655 -1.32149 1.59848 0
M  V30 4515 C 445.08 -1.86338 0.256842 0
M  V30 4516 O 444.438 -1.64107 -0.770632 0
M  V30 4517 C 444.486 -2.45224 2.64381 0
M  V30 4518 O 443.59 -3.48093 2.21144 0
M  V30 4519 H 442.931 -0.391634 0.536208 0
M  V30 4520 H 445.461 -0.645202 1.94161 0
M  V30 4521 H 445.471 -2.91491 2.85476 0
M  V30 4522 H 444.146 -2.05143 3.61786 0
M  V30 4523 H 442.723 -3.07984 2.10239 0
M  V30 4524 N 444.908 -1.36708 -0.784132 0
M  V30 4525 C 445.858 -1.2799 -1.88686 0
M  V30 4526 C 446.842 -0.170282 -1.59996 0
M  V30 4527 O 448.034 -0.403571 -1.72338 0
M  V30 4528 C 445.163 -1.07674 -3.25977 0
M  V30 4529 C 444.249 -2.23127 -3.60659 0
M  V30 4530 N 444.64 -3.48467 -3.66612 0
M  V30 4531 C 442.938 -2.15009 -3.90752 0
M  V30 4532 C 443.639 -4.24525 -3.97685 0
M  V30 4533 N 442.615 -3.53524 -4.12943 0
M  V30 4534 H 446.417 -2.22927 -1.91522 0
M  V30 4535 H 443.931 -1.29503 -0.979933 0
M  V30 4536 H 445.928 -0.995151 -4.04849 0
M  V30 4537 H 444.588 -0.13643 -3.24413 0
M  V30 4538 H 445.599 -3.82534 -3.49125 0
M  V30 4539 H 442.276 -1.28963 -3.97083 0
M  V30 4540 H 443.666 -5.32944 -4.0917 0
M  V30 4541 N 446.386 1.0089 -1.21074 0
M  V30 4542 C 447.316 2.1145 -0.990523 0
M  V30 4543 C 448.297 1.69897 0.0831699 0
M  V30 4544 O 449.482 1.94052 -0.0758853 0
M  V30 4545 C 446.612 3.42914 -0.550177 0
M  V30 4546 C 445.566 3.98244 -1.56799 0
M  V30 4547 C 444.892 5.25568 -0.984013 0
M  V30 4548 C 446.192 4.30752 -2.95381 0
M  V30 4549 H 447.886 2.3013 -1.91521 0
M  V30 4550 H 445.432 1.10592 -0.92225 0
M  V30 4551 H 447.385 4.19653 -0.383305 0
M  V30 4552 H 446.109 3.24014 0.41015 0
M  V30 4553 H 444.768 3.23621 -1.72236 0
M  V30 4554 H 444.416 5.02998 -0.0155216 0
M  V30 4555 H 444.116 5.63551 -1.66384 0
M  V30 4556 H 445.64 6.04955 -0.828378 0
M  V30 4557 H 447.054 4.98349 -2.8341 0
M  V30 4558 H 445.451 4.79869 -3.60341 0
M  V30 4559 H 446.521 3.39192 -3.46521 0
M  V30 4560 N 447.864 1.01787 1.20321 0
M  V30 4561 C 448.797 0.533882 2.21867 0
M  V30 4562 C 449.775 -0.419361 1.57099 0
M  V30 4563 O 450.959 -0.339062 1.85426 0
M  V30 4564 C 448.086 -0.222899 3.37966 0
M  V30 4565 C 447.132 0.680091 4.21043 0
M  V30 4566 S 447.965 2.14997 4.90445 0
M  V30 4567 C 449.121 1.40339 6.09964 0
M  V30 4568 H 449.354 1.39429 2.62577 0
M  V30 4569 H 446.887 0.826867 1.30393 0
M  V30 4570 H 448.845 -0.653425 4.05266 0
M  V30 4571 H 447.506 -1.0589 2.95713 0
M  V30 4572 H 446.699 0.0964704 5.03908 0
M  V30 4573 H 446.301 1.04845 3.59004 0
M  V30 4574 H 448.593 0.68407 6.74038 0
M  V30 4575 H 449.536 2.20823 6.72787 0
M  V30 4576 H 449.944 0.905716 5.57187 0
M  V30 4577 N 449.342 -1.36122 0.79427 0
M  V30 4578 C 450.59 -1.98718 0.368177 0
M  V30 4579 C 450.911 -1.63345 -1.06506 0
M  V30 4580 O 450.181 -0.909825 -1.73491 0
M  V30 4581 H 448.761 -0.735038 0.133146 0
M  V30 4582 H 451.423 -1.66239 1.01739 0
M  V30 4583 H 450.519 -3.08633 0.463923 0
M  V30 4584 N 450.82 -0.546701 -1.47814 0
M  V30 4585 C 451.783 0.196287 -2.28358 0
M  V30 4586 C 452.783 0.852437 -1.36346 0
M  V30 4587 O 453.973 0.709913 -1.59078 0
M  V30 4588 C 451.105 1.28579 -3.15722 0
M  V30 4589 H 452.298 -0.511086 -2.95513 0
M  V30 4590 H 449.851 -0.303248 -1.5333 0
M  V30 4591 H 450.586 2.0259 -2.53235 0
M  V30 4592 H 450.371 0.820229 -3.83425 0
M  V30 4593 H 451.861 1.80793 -3.76435 0
M  V30 4594 N 452.299 1.55045 -0.282633 0
M  V30 4595 C 453.546 1.9976 0.33199 0
M  V30 4596 C 453.874 1.17105 1.55295 0
M  V30 4597 O 453.129 0.230599 1.94337 0
M  V30 4598 C 453.428 3.49422 0.750938 0
M  V30 4599 C 453.094 4.4941 -0.366228 0
M  V30 4600 C 451.756 4.76471 -0.672964 0
M  V30 4601 C 454.108 5.09054 -1.11864 0
M  V30 4602 C 451.436 5.60442 -1.73556 0
M  V30 4603 C 453.788 5.9418 -2.17102 0
M  V30 4604 C 452.452 6.19558 -2.48402 0
M  V30 4605 H 451.722 0.730974 0.121484 0
M  V30 4606 H 454.369 1.8732 -0.39791 0
M  V30 4607 H 452.674 3.59377 1.56063 0
M  V30 4608 H 454.371 3.81432 1.23736 0
M  V30 4609 H 450.961 4.2844 -0.117041 0
M  V30 4610 H 455.145 4.88165 -0.894925 0
M  V30 4611 H 450.401 5.78349 -1.983 0
M  V30 4612 H 454.575 6.39427 -2.75873 0
M  V30 4613 H 452.202 6.84417 -3.30874 0
M  V30 4614 N 453.777 0.010035 1.57597 0
M  V30 4615 C 454.725 -0.996272 2.10184 0
M  V30 4616 C 455.719 -1.34942 1.02406 0
M  V30 4617 O 456.925 -1.33389 1.20861 0
M  V30 4618 H 453.3 -0.338982 0.671264 0
M  V30 4619 H 455.271 -0.527272 2.93705 0
M  V30 4620 C 454.02 -2.27599 2.62857 0
M  V30 4621 H 453.343 -2.01295 3.45428 0
M  V30 4622 H 454.783 -2.96265 3.0332 0
M  V30 4623 C 453.242 -2.99269 1.54725 0
M  V30 4624 O 453.772 -3.90644 0.93597 0
M  V30 4625 N 451.978 -2.61269 1.27228 0
M  V30 4626 H 451.525 -1.87043 1.77123 0
M  V30 4627 H 451.483 -3.09534 0.550999 0
M  V30 4628 N 455.255 -1.55392 -0.262866 0
M  V30 4629 C 456.501 -1.76737 -0.99458 0
M  V30 4630 C 456.834 -0.572453 -1.85571 0
M  V30 4631 O 456.109 0.429732 -1.89693 0
M  V30 4632 C 456.392 -3.07824 -1.8686 0
M  V30 4633 C 456.245 -4.3769 -1.03672 0
M  V30 4634 C 457.564 -3.35021 -2.85393 0
M  V30 4635 H 454.683 -0.643005 -0.360157 0
M  V30 4636 H 457.325 -1.88126 -0.266216 0
M  V30 4637 H 455.475 -2.98245 -2.48962 0
M  V30 4638 H 457.147 -4.59238 -0.43563 0
M  V30 4639 H 455.39 -4.32461 -0.340513 0
M  V30 4640 H 456.061 -5.25759 -1.6817 0
M  V30 4641 H 458.537 -3.44458 -2.33426 0
M  V30 4642 H 457.413 -4.27989 -3.43681 0
M  V30 4643 H 457.674 -2.55153 -3.61039 0
M  V30 4644 N 456.733 0.527833 -1.48498 0
M  V30 4645 C 457.958 1.313 -1.60546 0
M  V30 4646 C 458.383 1.86199 -0.26672 0
M  V30 4647 O 457.741 1.64513 0.761918 0
M  V30 4648 C 457.789 2.43818 -2.65678 0
M  V30 4649 O 456.893 3.46916 -2.22987 0
M  V30 4650 H 456.234 0.388784 -0.538277 0
M  V30 4651 H 458.764 0.634896 -1.945 0
M  V30 4652 H 458.774 2.89973 -2.87018 0
M  V30 4653 H 457.449 2.03222 -3.62869 0
M  V30 4654 H 456.026 3.06864 -2.11869 0
M  V30 4655 N 458.211 1.37122 0.776871 0
M  V30 4656 C 459.159 1.32549 1.91138 0
M  V30 4657 C 460.153 0.215119 1.68029 0
M  V30 4658 O 461.359 0.382852 1.75881 0
M  V30 4659 H 457.734 0.412952 0.62847 0
M  V30 4660 H 459.705 2.28332 1.92112 0
M  V30 4661 C 458.454 1.14422 3.28333 0
M  V30 4662 H 457.777 1.99115 3.46689 0
M  V30 4663 H 459.217 1.15272 4.0803 0
M  V30 4664 C 457.676 -0.150434 3.36564 0
M  V30 4665 O 458.206 -1.13584 3.85307 0
M  V30 4666 N 456.412 -0.19939 2.89915 0
M  V30 4667 H 455.959 0.603142 2.5044 0
M  V30 4668 H 455.917 -1.06526 2.95803 0
M  V30 4669 N 459.689 -1.00246 1.21608 0
M  V30 4670 C 460.619 -2.10921 1.00172 0
M  V30 4671 C 461.6 -1.69938 -0.0741587 0
M  V30 4672 O 462.785 -1.94009 0.0861753 0
M  V30 4673 C 459.915 -3.42618 0.568355 0
M  V30 4674 C 458.869 -3.97407 1.58909 0
M  V30 4675 C 458.195 -5.25038 1.01187 0
M  V30 4676 C 459.495 -4.2918 2.97661 0
M  V30 4677 H 461.189 -2.29112 1.92739 0
M  V30 4678 H 458.735 -1.10101 0.928102 0
M  V30 4679 H 460.688 -4.19444 0.405555 0
M  V30 4680 H 459.412 -3.24227 -0.392961 0
M  V30 4681 H 458.071 -3.22703 1.73949 0
M  V30 4682 H 457.719 -5.02982 0.0421965 0
M  V30 4683 H 457.419 -5.62661 1.6937 0
M  V30 4684 H 458.943 -6.04507 0.860448 0
M  V30 4685 H 460.357 -4.96839 2.86049 0
M  V30 4686 H 458.754 -4.77952 3.6288 0
M  V30 4687 H 459.824 -3.3735 3.48315 0
M  V30 4688 N 461.167 -1.02423 -1.1978 0
M  V30 4689 C 462.097 -0.62157 -2.25075 0
M  V30 4690 C 463.078 0.367148 -1.6609 0
M  V30 4691 O 464.263 0.250892 -1.92573 0
M  V30 4692 C 461.393 0.0331826 -3.47284 0
M  V30 4693 C 460.347 -0.877323 -4.18912 0
M  V30 4694 C 459.673 -0.0879296 -5.34628 0
M  V30 4695 C 460.973 -2.18892 -4.74219 0
M  V30 4696 H 462.667 -1.50179 -2.59011 0
M  V30 4697 H 460.213 -0.723547 -1.24502 0
M  V30 4698 H 462.166 0.326488 -4.20133 0
M  V30 4699 H 460.89 0.948164 -3.12534 0
M  V30 4700 H 459.549 -1.15475 -3.47938 0
M  V30 4701 H 459.197 0.828941 -4.96123 0
M  V30 4702 H 458.897 -0.694359 -5.83483 0
M  V30 4703 H 460.421 0.198743 -6.10276 0
M  V30 4704 H 461.835 -1.95746 -5.38847 0
M  V30 4705 H 460.232 -2.74686 -5.33542 0
M  V30 4706 H 461.302 -2.84674 -3.92541 0
M  V30 4707 N 462.645 1.35699 -0.801477 0
M  V30 4708 C 463.575 2.32436 -0.222658 0
M  V30 4709 C 464.556 1.5723 0.649057 0
M  V30 4710 O 465.741 1.85324 0.580387 0
M  V30 4711 C 462.871 3.41469 0.633719 0
M  V30 4712 C 461.825 4.27774 -0.139083 0
M  V30 4713 C 461.151 5.28082 0.838666 0
M  V30 4714 C 462.451 5.04946 -1.33517 0
M  V30 4715 H 464.145 2.81094 -1.03086 0
M  V30 4716 H 461.691 1.35146 -0.497155 0
M  V30 4717 H 463.644 4.08143 1.04868 0
M  V30 4718 H 462.368 2.91408 1.47475 0
M  V30 4719 H 461.027 3.62673 -0.535156 0
M  V30 4720 H 460.675 4.7429 1.67506 0
M  V30 4721 H 460.375 5.86695 0.32594 0
M  V30 4722 H 461.899 5.97628 1.25194 0
M  V30 4723 H 463.313 5.64593 -0.995349 0
M  V30 4724 H 461.71 5.7303 -1.78202 0
M  V30 4725 H 462.78 4.35886 -2.12442 0
M  V30 4726 N 464.123 0.554532 1.47522 0
M  V30 4727 C 465.086 -0.184174 2.28459 0
M  V30 4728 C 466.086 -0.845195 1.36796 0
M  V30 4729 O 467.276 -0.701467 1.59452 0
M  V30 4730 C 464.408 -1.26903 3.16399 0
M  V30 4731 H 465.601 0.526751 2.95238 0
M  V30 4732 H 463.154 0.311375 1.53167 0
M  V30 4733 H 463.889 -2.01244 2.54306 0
M  V30 4734 H 463.674 -0.799883 3.83854 0
M  V30 4735 H 465.164 -1.78794 3.77389 0
M  V30 4736 N 465.601 -1.54893 0.290851 0
M  V30 4737 C 466.531 -2.26103 -0.583084 0
M  V30 4738 C 467.512 -1.25684 -1.14619 0
M  V30 4739 O 468.697 -1.54436 -1.17741 0
M  V30 4740 C 465.827 -2.99409 -1.75987 0
M  V30 4741 C 464.781 -4.0689 -1.32758 0
M  V30 4742 C 464.107 -4.67856 -2.58872 0
M  V30 4743 C 465.407 -5.20215 -0.46624 0
M  V30 4744 H 467.101 -2.99398 0.0108214 0
M  V30 4745 H 464.647 -1.43998 0.00664468 0
M  V30 4746 H 466.6 -3.47943 -2.37727 0
M  V30 4747 H 465.324 -2.23675 -2.37985 0
M  V30 4748 H 463.983 -3.59191 -0.733299 0
M  V30 4749 H 463.631 -3.88772 -3.19163 0
M  V30 4750 H 463.331 -5.40438 -2.30653 0
M  V30 4751 H 464.855 -5.19147 -3.21433 0
M  V30 4752 H 466.269 -5.64704 -0.989047 0
M  V30 4753 H 464.666 -5.99455 -0.27826 0
M  V30 4754 H 465.736 -4.82198 0.511173 0
M  V30 4755 N 467.08 -0.0183926 -1.57589 0
M  V30 4756 C 468.043 0.951986 -2.08494 0
M  V30 4757 C 469.043 1.26092 -0.997874 0
M  V30 4758 O 470.233 1.20304 -1.25987 0
M  V30 4759 C 467.365 2.27165 -2.54182 0
M  V30 4760 H 468.558 0.511307 -2.95509 0
M  V30 4761 H 466.111 0.229444 -1.54607 0
M  V30 4762 H 466.846 2.75884 -1.70465 0
M  V30 4763 H 466.631 2.06057 -3.33591 0
M  V30 4764 H 468.121 2.9674 -2.93828 0
M  V30 4765 N 468.558 1.5553 0.254621 0
M  V30 4766 C 469.786 1.81046 1.00149 0
M  V30 4767 C 470.201 0.593047 1.79244 0
M  V30 4768 O 469.558 -0.438196 1.77161 0
M  V30 4769 C 469.609 3.04684 1.94551 0
M  V30 4770 O 469.33 4.21725 1.18658 0
M  V30 4771 C 470.831 3.42943 2.80901 0
M  V30 4772 H 468.051 0.602653 0.295044 0
M  V30 4773 H 470.595 2.02576 0.279842 0
M  V30 4774 H 468.75 2.85226 2.62154 0
M  V30 4775 H 469.164 4.91746 1.82445 0
M  V30 4776 H 470.638 4.32576 3.42902 0
M  V30 4777 H 471.115 2.63176 3.51617 0
M  V30 4778 H 471.721 3.64724 2.18762 0
M  V30 4779 N 470.036 -0.519951 1.48776 0
M  V30 4780 C 470.966 -1.63253 1.66945 0
M  V30 4781 C 471.947 -1.62014 0.518224 0
M  V30 4782 O 473.132 -1.79053 0.751919 0
M  V30 4783 C 470.262 -3.0181 1.71836 0
M  V30 4784 C 469.216 -3.17911 2.8656 0
M  V30 4785 C 468.542 -4.5763 2.76548 0
M  V30 4786 C 469.842 -2.99729 4.27738 0
M  V30 4787 H 471.536 -1.48302 2.6009 0
M  V30 4788 H 469.082 -0.712026 1.25165 0
M  V30 4789 H 471.035 -3.79525 1.83135 0
M  V30 4790 H 469.759 -3.17806 0.752775 0
M  V30 4791 H 468.418 -2.42616 2.74833 0
M  V30 4792 H 468.066 -4.70476 1.77937 0
M  V30 4793 H 467.766 -4.69346 3.53536 0
M  V30 4794 H 469.29 -5.37431 2.89828 0
M  V30 4795 H 470.704 -3.67228 4.40246 0
M  V30 4796 H 469.101 -3.22932 5.05801 0
M  V30 4797 H 470.171 -1.96047 4.43502 0
M  V30 4798 N 471.514 -1.37532 -0.769588 0
M  V30 4799 C 472.444 -1.36172 -1.89682 0
M  V30 4800 C 473.425 -0.23001 -1.68538 0
M  V30 4801 O 474.61 -0.43069 -1.89364 0
M  V30 4802 C 471.74 -1.1701 -3.26995 0
M  V30 4803 C 470.694 -2.27216 -3.62708 0
M  V30 4804 C 470.02 -1.93174 -4.98586 0
M  V30 4805 C 471.32 -3.6941 -3.69234 0
M  V30 4806 H 473.014 -2.30499 -1.91078 0
M  V30 4807 H 470.56 -1.10953 -0.917902 0
M  V30 4808 H 472.513 -1.14688 -4.05493 0
M  V30 4809 H 471.237 -0.191395 -3.26039 0
M  V30 4810 H 469.896 -2.28697 -2.86519 0
M  V30 4811 H 469.544 -0.938281 -4.94171 0
M  V30 4812 H 469.244 -2.66973 -5.23449 0
M  V30 4813 H 470.768 -1.92443 -5.79481 0
M  V30 4814 H 472.182 -3.70047 -4.37879 0
M  V30 4815 H 470.579 -4.4228 -4.05597 0
M  V30 4816 H 471.649 -4.0288 -2.69844 0
M  V30 4817 N 472.992 0.995999 -1.22138 0
M  V30 4818 C 473.955 2.06711 -0.990109 0
M  V30 4819 C 474.955 1.60744 0.0422978 0
M  V30 4820 O 476.145 1.73095 -0.195895 0
M  V30 4821 C 473.277 3.37288 -0.49491 0
M  V30 4822 H 474.47 2.28661 -1.94047 0
M  V30 4823 H 472.023 1.16711 -1.03963 0
M  V30 4824 H 472.758 3.21022 0.459948 0
M  V30 4825 H 472.543 3.71986 -1.23971 0
M  V30 4826 H 474.033 4.16103 -0.353253 0
M  V30 4827 N 474.47 1.03057 1.19235 0
M  V30 4828 C 475.4 0.633497 2.24742 0
M  V30 4829 C 476.381 -0.358335 1.66283 0
M  V30 4830 O 477.566 -0.240676 1.92703 0
M  V30 4831 C 474.696 -0.0147648 3.47297 0
M  V30 4832 C 473.65 0.899527 4.18441 0
M  V30 4833 C 472.976 0.116281 5.34574 0
M  V30 4834 C 474.276 2.21404 4.73051 0
M  V30 4835 H 475.97 1.5155 2.58211 0
M  V30 4836 H 473.516 0.73014 1.24117 0
M  V30 4837 H 475.469 -0.304202 4.20301 0
M  V30 4838 H 474.193 -0.931577 3.13032 0
M  V30 4839 H 472.852 1.17319 3.47321 0
M  V30 4840 H 472.5 -0.802619 4.96555 0
M  V30 4841 H 472.2 0.725293 5.83107 0
M  V30 4842 H 473.724 -0.166376 6.10373 0
M  V30 4843 H 475.138 1.98601 5.37802 0
M  V30 4844 H 473.535 2.77512 5.32078 0
M  V30 4845 H 474.605 2.86752 3.91026 0
M  V30 4846 N 475.948 -1.35272 0.808662 0
M  V30 4847 C 477.196 -1.98316 0.389233 0
M  V30 4848 C 477.517 -1.64465 -1.04767 0
M  V30 4849 O 476.787 -0.928175 -1.72516 0
M  V30 4850 H 475.367 -0.733585 0.140935 0
M  V30 4851 H 478.029 -1.6515 1.03496 0
M  V30 4852 H 477.125 -3.08123 0.496631 0
M  V30 4853 N 477.426 -0.562348 -1.47226 0
M  V30 4854 C 478.656 -0.0451619 -2.06551 0
M  V30 4855 C 479.064 1.25626 -1.41473 0
M  V30 4856 O 478.407 1.76563 -0.507061 0
M  V30 4857 C 478.469 0.216068 -3.5885 0
M  V30 4858 C 478.133 -0.996691 -4.45999 0
M  V30 4859 C 479.13 -1.90358 -4.83797 0
M  V30 4860 C 476.815 -1.21281 -4.87438 0
M  V30 4861 C 478.809 -3.01023 -5.6184 0
M  V30 4862 C 476.496 -2.32255 -5.65244 0
M  V30 4863 C 477.494 -3.21956 -6.02356 0
M  V30 4864 O 477.182 -4.31005 -6.78594 0
M  V30 4865 H 476.914 -0.0451646 -0.67449 0
M  V30 4866 H 479.468 -0.776842 -1.90143 0
M  V30 4867 H 477.698 1.00212 -3.7349 0
M  V30 4868 H 479.387 0.679264 -4.00176 0
M  V30 4869 H 480.153 -1.74868 -4.52378 0
M  V30 4870 H 476.032 -0.523767 -4.58015 0
M  V30 4871 H 479.576 -3.71064 -5.90726 0
M  V30 4872 H 475.473 -2.47715 -5.96077 0
M  V30 4873 H 476.241 -4.29118 -6.96994 0
M  V30 4874 N 478.904 1.54736 -0.299062 0
M  V30 4875 C 480.315 1.8569 0.193971 0
M  V30 4876 C 480.666 1.22101 1.53577 0
M  V30 4877 O 479.791 0.51799 2.10109 0
M  V30 4878 C 480.386 3.36895 0.358733 0
M  V30 4879 C 478.945 3.67887 0.795986 0
M  V30 4880 C 478.092 2.77131 -0.096807 0
M  V30 4881 H 481.043 1.49934 -0.520134 0
M  V30 4882 H 481.064 3.61294 1.19361 0
M  V30 4883 H 480.576 3.83148 -0.617998 0
M  V30 4884 H 478.677 3.27151 1.78334 0
M  V30 4885 H 478.79 4.75114 0.616718 0
M  V30 4886 H 477.154 2.51153 0.423581 0
M  V30 4887 H 477.937 3.26204 -1.06986 0
M  V30 4888 N 480.382 0.0267497 1.57577 0
M  V30 4889 C 481.312 -0.954308 2.13108 0
M  V30 4890 C 482.293 -1.34088 1.04663 0
M  V30 4891 O 483.478 -1.41992 1.32484 0
M  V30 4892 C 480.608 -2.23744 2.65624 0
M  V30 4893 C 479.562 -1.99168 3.78835 0
M  V30 4894 C 478.888 -3.33726 4.17769 0
M  V30 4895 C 480.188 -1.33277 5.0501 0
M  V30 4896 H 481.882 -0.491848 2.95332 0
M  V30 4897 H 479.428 -0.23514 1.42067 0
M  V30 4898 H 481.381 -2.92754 3.03106 0
M  V30 4899 H 480.105 -2.72151 1.80558 0
M  V30 4900 H 478.764 -1.32577 3.41788 0
M  V30 4901 H 478.412 -3.79888 3.29688 0
M  V30 4902 H 478.112 -3.18089 4.94058 0
M  V30 4903 H 479.636 -4.04008 4.57832 0
M  V30 4904 H 481.05 -1.92283 5.40093 0
M  V30 4905 H 479.447 -1.28045 5.8628 0
M  V30 4906 H 480.517 -0.305411 4.83937 0
M  V30 4907 N 481.861 -1.55662 -0.24637 0
M  V30 4908 C 482.824 -1.89558 -1.28842 0
M  V30 4909 C 483.824 -0.772082 -1.41052 0
M  V30 4910 O 485.014 -1.04007 -1.39743 0
M  V30 4911 C 482.146 -2.12449 -2.66605 0
M  V30 4912 H 483.339 -2.82735 -1.00004 0
M  V30 4913 H 480.892 -1.48562 -0.485684 0
M  V30 4914 H 481.627 -1.21742 -3.00582 0
M  V30 4915 H 481.412 -2.94273 -2.59125 0
M  V30 4916 H 482.902 -2.39854 -3.41847 0
M  V30 4917 N 483.339 0.512053 -1.4905 0
M  V30 4918 C 484.616 1.27337 -1.48474 0
M  V30 4919 C 484.996 2.1009 -0.206301 0
M  V30 4920 O 484.344 2.136 0.811609 0
M  V30 4921 C 484.554 2.13954 -2.75726 0
M  V30 4922 C 485.902 2.73507 -3.24776 0
M  V30 4923 O 486.926 2.24229 -2.76767 0
M  V30 4924 O 485.785 3.63186 -4.08361 0
M  V30 4925 H 482.879 0.575652 -0.593762 0
M  V30 4926 H 485.425 0.527232 -1.61302 0
M  V30 4927 H 484.197 1.52709 -3.60272 0
M  V30 4928 H 483.82 2.95782 -2.65705 0
M  V30 4929 N 484.817 1.37938 0.762283 0
M  V30 4930 C 485.747 1.37176 1.88958 0
M  V30 4931 C 486.728 0.238945 1.68413 0
M  V30 4932 O 487.913 0.440726 1.89133 0
M  V30 4933 C 485.043 1.18742 3.2637 0
M  V30 4934 C 483.997 2.29136 3.61498 0
M  V30 4935 C 483.323 1.95816 4.97554 0
M  V30 4936 C 484.623 3.71363 3.6727 0
M  V30 4937 H 486.317 2.31509 1.89853 0
M  V30 4938 H 483.863 1.11438 0.912005 0
M  V30 4939 H 485.816 1.16837 4.04879 0
M  V30 4940 H 484.54 0.208683 3.25933 0
M  V30 4941 H 483.199 2.30213 2.85303 0
M  V30 4942 H 482.847 0.964475 4.93667 0
M  V30 4943 H 482.547 2.69745 5.22026 0
M  V30 4944 H 484.071 1.95513 5.78452 0
M  V30 4945 H 485.485 3.72364 4.35911 0
M  V30 4946 H 483.882 4.44425 4.03245 0
M  V30 4947 H 484.952 4.04305 2.67704 0
M  V30 4948 N 486.295 -0.989507 1.22664 0
M  V30 4949 C 487.225 -2.09847 1.02404 0
M  V30 4950 C 488.206 -1.70007 -0.0561303 0
M  V30 4951 O 489.391 -1.93906 0.106748 0
M  V30 4952 C 486.521 -3.41996 0.604663 0
M  V30 4953 C 485.475 -3.95699 1.63115 0
M  V30 4954 C 484.801 -5.23936 1.0675 0
M  V30 4955 C 486.101 -4.25999 3.02196 0
M  V30 4956 H 487.795 -2.27054 1.95158 0
M  V30 4957 H 485.341 -1.09111 0.939727 0
M  V30 4958 H 487.294 -4.1899 0.45002 0
M  V30 4959 H 486.018 -3.24626 -0.35855 0
M  V30 4960 H 484.677 -3.2084 1.77362 0
M  V30 4961 H 484.325 -5.02909 0.0955422 0
M  V30 4962 H 484.025 -5.60833 1.75328 0
M  V30 4963 H 485.549 -6.0356 0.924516 0
M  V30 4964 H 486.963 -4.93777 2.91303 0
M  V30 4965 H 485.36 -4.74076 3.67929 0
M  V30 4966 H 486.43 -3.33636 3.51873 0
M  V30 4967 N 487.773 -1.03688 -1.18687 0
M  V30 4968 C 488.72 -0.624624 -2.22187 0
M  V30 4969 C 489.69 0.365636 -1.62026 0
M  V30 4970 O 490.875 0.260481 -1.89014 0
M  V30 4971 C 488.015 0.0101738 -3.45099 0
M  V30 4972 C 487.128 -1.02709 -4.19613 0
M  V30 4973 C 486.263 -0.361213 -5.2997 0
M  V30 4974 C 485.302 -1.38384 -5.96252 0
M  V30 4975 N 484.439 -0.743196 -6.98155 0
M  V30 4976 H 489.279 -1.51176 -2.56807 0
M  V30 4977 H 486.816 -0.75636 -1.26165 0
M  V30 4978 H 488.774 0.395528 -4.15321 0
M  V30 4979 H 487.404 0.860848 -3.1111 0
M  V30 4980 H 486.456 -1.53043 -3.48256 0
M  V30 4981 H 487.768 -1.80398 -4.65036 0
M  V30 4982 H 486.922 0.0785537 -6.06649 0
M  V30 4983 H 485.661 0.447799 -4.8564 0
M  V30 4984 H 484.666 -1.83378 -5.18317 0
M  V30 4985 H 485.891 -2.19448 -6.42666 0
M  V30 4986 H 483.837 0.0455789 -6.55984 0
M  V30 4987 H 483.754 -1.45784 -7.41811 0
M  V30 4988 H 485.022 -0.327698 -7.78811 0
M  V30 4989 N 489.251 1.34841 -0.815825 0
M  V30 4990 C 490.479 2.0273 -0.413294 0
M  V30 4991 C 490.894 1.61459 0.978599 0
M  V30 4992 O 490.251 0.816584 1.63212 0
M  V30 4993 C 490.302 3.58058 -0.497676 0
M  V30 4994 O 490.023 3.97832 -1.8347 0
M  V30 4995 C 491.524 4.4321 -0.0891339 0
M  V30 4996 H 488.744 0.649956 -0.166728 0
M  V30 4997 H 491.288 1.72267 -1.10201 0
M  V30 4998 H 489.443 3.87136 0.142886 0
M  V30 4999 H 489.857 4.92501 -1.80396 0
M  V30 5000 H 491.331 5.5164 -0.199274 0
M  V30 5001 H 491.808 4.28432 0.966571 0
M  V30 5002 H 492.414 4.19446 -0.703214 0
M  V30 5003 N 490.729 0.570148 1.46925 0
M  V30 5004 C 491.692 -0.159933 2.28641 0
M  V30 5005 C 492.692 -0.830638 1.37685 0
M  V30 5006 O 493.882 -0.684516 1.60187 0
M  V30 5007 C 491.014 -1.2354 3.17727 0
M  V30 5008 H 492.207 0.558035 2.94662 0
M  V30 5009 H 489.76 0.327603 1.52828 0
M  V30 5010 H 490.495 -1.98535 2.56426 0
M  V30 5011 H 490.28 -0.759125 3.84681 0
M  V30 5012 H 491.77 -1.74782 3.79264 0
M  V30 5013 N 492.207 -1.54576 0.307264 0
M  V30 5014 C 493.17 -2.22423 -0.553224 0
M  V30 5015 C 494.17 -1.21231 -1.05639 0
M  V30 5016 O 495.36 -1.45923 -0.951419 0
M  V30 5017 C 492.492 -2.91552 -1.76664 0
M  V30 5018 H 493.685 -2.99874 0.0396484 0
M  V30 5019 H 491.238 -1.56192 0.0581629 0
M  V30 5020 H 491.973 -2.18196 -2.39918 0
M  V30 5021 H 491.758 -3.65738 -1.41343 0
M  V30 5022 H 493.248 -3.43292 -2.37783 0
M  V30 5023 N 493.685 -0.035106 -1.57561 0
M  V30 5024 C 495.101 0.321334 -1.56332 0
M  V30 5025 C 495.301 1.72509 -1.04129 0
M  V30 5026 O 494.357 2.4287 -0.690694 0
M  V30 5027 C 495.67 0.164469 -3.0025 0
M  V30 5028 C 497.218 0.236786 -3.12103 0
M  V30 5029 C 497.693 0.10864 -4.57871 0
M  V30 5030 N 499.184 0.165433 -4.62904 0
M  V30 5031 C 499.919 0.0901506 -5.73329 0
M  V30 5032 N 499.415 -0.0365606 -6.9279 0
M  V30 5033 N 501.208 0.144572 -5.61914 0
M  V30 5034 H 493.359 -0.952976 -1.89821 0
M  V30 5035 H 495.622 -0.368537 -0.873432 0
M  V30 5036 H 495.328 -0.802746 -3.42416 0
M  V30 5037 H 495.202 0.932194 -3.655 0
M  V30 5038 H 497.589 1.19446 -2.69845 0
M  V30 5039 H 497.67 -0.561419 -2.49563 0
M  V30 5040 H 497.314 -0.845644 -5.00811 0
M  V30 5041 H 497.244 0.925786 -5.18398 0
M  V30 5042 H 499.735 0.263269 -3.76982 0
M  V30 5043 H 500.048 -0.0871487 -7.72751 0
M  V30 5044 H 498.393 -0.0714256 -6.94963 0
M  V30 5045 H 501.584 0.242006 -4.67474 0
M  V30 5046 H 501.757 0.0824413 -6.47948 0
M  V30 5047 N 495.163 1.55791 0.238111 0
M  V30 5048 C 496.093 1.94068 1.29846 0
M  V30 5049 C 497.074 0.806726 1.49753 0
M  V30 5050 O 498.259 1.06772 1.62214 0
M  V30 5051 C 495.389 2.24302 2.65153 0
M  V30 5052 C 494.343 3.40032 2.59927 0
M  V30 5053 C 493.669 3.55829 3.99111 0
M  V30 5054 C 494.969 4.75476 2.16148 0
M  V30 5055 H 496.663 2.82887 0.980563 0
M  V30 5056 H 494.209 1.36105 0.470253 0
M  V30 5057 H 496.162 2.4967 3.39475 0
M  V30 5058 H 494.886 1.32318 2.98596 0
M  V30 5059 H 493.545 3.14687 1.88063 0
M  V30 5060 H 493.193 2.6125 4.29834 0
M  V30 5061 H 492.893 4.3366 3.96501 0
M  V30 5062 H 494.417 3.83528 4.7512 0
M  V30 5063 H 495.831 5.00158 2.80205 0
M  V30 5064 H 494.228 5.56472 2.24631 0
M  V30 5065 H 495.298 4.71946 1.11333 0
M  V30 5066 N 496.642 -0.504142 1.49319 0
M  V30 5067 C 497.574 -1.62265 1.61872 0
M  V30 5068 C 498.587 -1.54881 0.501573 0
M  V30 5069 O 499.776 -1.6087 0.773497 0
M  V30 5070 C 496.876 -3.01042 1.55651 0
M  V30 5071 C 496.049 -3.33642 2.82845 0
M  V30 5072 C 495.108 -4.51816 2.69719 0
M  V30 5073 O 494.134 -4.53755 3.4365 0
M  V30 5074 N 495.336 -5.51543 1.81055 0
M  V30 5075 H 498.101 -1.51924 2.58339 0
M  V30 5076 H 495.662 -0.691954 1.46368 0
M  V30 5077 H 497.654 -3.78013 1.44528 0
M  V30 5078 H 496.224 -3.05323 0.670546 0
M  V30 5079 H 495.444 -2.45598 3.08343 0
M  V30 5080 H 496.732 -3.5222 3.67177 0
M  V30 5081 H 496.13 -5.52774 1.20241 0
M  V30 5082 H 494.687 -6.27629 1.75856 0
M  V30 5083 N 498.12 -1.38341 -0.754957 0
M  V30 5084 C 499.531 -1.30803 -1.3322 0
M  V30 5085 C 499.882 0.0368 -1.96165 0
M  V30 5086 O 499.007 0.938844 -1.94974 0
M  V30 5087 C 499.602 -2.3688 -2.42225 0
M  V30 5088 C 498.161 -2.32925 -2.95674 0
M  V30 5089 C 497.308 -2.19819 -1.69042 0
M  V30 5090 H 500.259 -1.48719 -0.553937 0
M  V30 5091 H 500.28 -2.02517 -3.22129 0
M  V30 5092 H 499.792 -3.34747 -1.96383 0
M  V30 5093 H 497.893 -1.38635 -3.45848 0
M  V30 5094 H 498.006 -3.27008 -3.50146 0
M  V30 5095 H 496.37 -1.66648 -1.92615 0
M  V30 5096 H 497.153 -3.19625 -1.25279 0
M  V30 5097 N 499.598 0.982988 -1.23187 0
M  V30 5098 C 500.844 1.72648 -1.06398 0
M  V30 5099 C 501.177 1.90066 0.398561 0
M  V30 5100 O 500.452 1.45105 1.29518 0
M  V30 5101 C 500.735 3.12627 -1.78707 0
M  V30 5102 C 500.588 3.02795 -3.32618 0
M  V30 5103 C 501.907 4.11997 -1.54747 0
M  V30 5104 H 499.026 0.626649 -0.387918 0
M  V30 5105 H 501.668 1.14455 -1.51658 0
M  V30 5106 H 499.818 3.62308 -1.40234 0
M  V30 5107 H 501.49 2.60659 -3.80598 0
M  V30 5108 H 499.733 2.39362 -3.61785 0
M  V30 5109 H 500.404 4.01893 -3.78399 0
M  V30 5110 H 502.88 3.71114 -1.88186 0
M  V30 5111 H 501.756 5.08037 -2.07821 0
M  V30 5112 H 502.017 4.39462 -0.482249 0
M  V30 5113 N 501.076 1.04316 1.18135 0
M  V30 5114 C 502.316 0.756937 1.89868 0
M  V30 5115 C 502.68 -0.702609 1.78682 0
M  V30 5116 O 503.881 -1.10255 2.45148 0
M  V30 5117 C 502.152 1.21327 3.36176 0
M  V30 5118 S 503.711 1.05307 4.25976 0
M  V30 5119 H 500.529 0.275143 0.655604 0
M  V30 5120 H 503.131 1.33597 1.42731 0
M  V30 5121 H 501.835 2.27086 3.41848 0
M  V30 5122 H 501.366 0.628137 3.88353 0
M  V30 5123 H 503.381 -0.0280093 4.96192 0
M  V30 5124 N 502.554 -1.34406 0.822964 0
M  V30 5125 C 503.802 -1.97892 0.410245 0
M  V30 5126 C 504.123 -1.65567 -1.03017 0
M  V30 5127 O 503.393 -0.94642 -1.71522 0
M  V30 5128 H 501.973 -0.732049 0.148707 0
M  V30 5129 H 504.635 -1.64043 1.05242 0
M  V30 5130 H 503.731 -3.07579 0.529284 0
M  V30 5131 N 504.032 -0.577932 -1.46621 0
M  V30 5132 C 505.448 -0.239242 -1.57797 0
M  V30 5133 C 505.648 1.25843 -1.57371 0
M  V30 5134 O 504.704 2.03988 -1.48813 0
M  V30 5135 C 506.017 -0.884227 -2.87405 0
M  V30 5136 C 507.565 -0.857373 -3.01028 0
M  V30 5137 C 508.04 -1.48181 -4.33366 0
M  V30 5138 N 509.531 -1.44593 -4.40053 0
M  V30 5139 C 510.266 -1.89852 -5.41058 0
M  V30 5140 N 509.762 -2.43062 -6.48762 0
M  V30 5141 N 511.555 -1.80797 -5.3223 0
M  V30 5142 H 503.706 -1.55073 -1.45142 0
M  V30 5143 H 505.969 -0.647903 -0.692044 0
M  V30 5144 H 505.675 -1.93759 -2.93514 0
M  V30 5145 H 505.549 -0.389585 -3.75183 0
M  V30 5146 H 507.936 0.187357 -2.94505 0
M  V30 5147 H 508.017 -1.38999 -2.14739 0
M  V30 5148 H 507.661 -2.52572 -4.40647 0
M  V30 5149 H 507.591 -0.924464 -5.18422 0
M  V30 5150 H 510.082 -1.05694 -3.62819 0
M  V30 5151 H 510.395 -2.75466 -7.22038 0
M  V30 5152 H 508.74 -2.47085 -6.49595 0
M  V30 5153 H 511.931 -1.38989 -4.46989 0
M  V30 5154 H 512.104 -2.16385 -6.10804 0
M  V30 5155 N 505.51 1.54411 -0.315457 0
M  V30 5156 C 506.443 2.20265 0.596522 0
M  V30 5157 C 507.421 1.17693 1.12192 0
M  V30 5158 O 508.605 1.46397 1.18744 0
M  V30 5159 C 505.732 2.85794 1.81767 0
M  V30 5160 C 504.778 4.02017 1.42424 0
M  V30 5161 S 505.611 5.33452 0.467836 0
M  V30 5162 C 506.767 6.02471 1.69645 0
M  V30 5163 H 507 2.97277 0.0370896 0
M  V30 5164 H 504.533 1.54079 -0.0995562 0
M  V30 5165 H 506.491 3.24172 2.51839 0
M  V30 5166 H 505.152 2.08601 2.34828 0
M  V30 5167 H 504.345 4.46701 2.33396 0
M  V30 5168 H 503.947 3.65271 0.803311 0
M  V30 5169 H 506.239 6.24157 2.63504 0
M  V30 5170 H 507.182 6.96215 1.29192 0
M  V30 5171 H 507.59 5.32284 1.87974 0
M  V30 5172 N 506.988 0.0434614 1.5754 0
M  V30 5173 C 507.898 -0.94893 2.14552 0
M  V30 5174 C 508.914 -1.34707 1.10136 0
M  V30 5175 O 510.09 -1.42557 1.42266 0
M  V30 5176 C 507.155 -2.208 2.67298 0
M  V30 5177 C 506.216 -1.86893 3.86484 0
M  V30 5178 C 505.449 -3.06797 4.36705 0
M  V30 5179 O 505.672 -4.19921 3.86034 0
M  V30 5180 O 504.606 -2.8826 5.28384 0
M  V30 5181 H 508.432 -0.494099 2.99654 0
M  V30 5182 H 506.017 -0.177989 1.48336 0
M  V30 5183 H 507.899 -2.94686 3.01228 0
M  V30 5184 H 506.574 -2.65436 1.85272 0
M  V30 5185 H 505.481 -1.10347 3.57455 0
M  V30 5186 H 506.814 -1.47062 4.69716 0
M  V30 5187 N 508.466 -1.55915 -0.229846 0
M  V30 5188 C 509.712 -1.78807 -0.956868 0
M  V30 5189 C 510.045 -0.611687 -1.84315 0
M  V30 5190 O 509.32 0.389398 -1.90562 0
M  V30 5191 C 509.603 -3.11718 -1.80288 0
M  V30 5192 C 509.456 -4.3979 -0.943649 0
M  V30 5193 C 510.775 -3.40999 -2.78222 0
M  V30 5194 H 507.894 -0.6505 -0.346437 0
M  V30 5195 H 510.536 -1.88648 -0.226252 0
M  V30 5196 H 508.686 -3.03459 -2.42579 0
M  V30 5197 H 510.358 -4.60059 -0.338121 0
M  V30 5198 H 508.601 -4.33086 -0.248705 0
M  V30 5199 H 509.272 -5.29208 -1.5698 0
M  V30 5200 H 511.748 -3.49332 -2.26067 0
M  V30 5201 H 510.624 -4.35183 -3.34526 0
M  V30 5202 H 510.885 -2.62754 -3.55546 0
M  V30 5203 N 509.944 0.496216 -1.49584 0
M  V30 5204 C 511.191 1.25003 -1.59312 0
M  V30 5205 C 511.519 1.92445 -0.28198 0
M  V30 5206 O 510.774 1.81557 0.730452 0
M  V30 5207 C 511.073 2.3359 -2.705 0
M  V30 5208 C 510.739 1.83574 -4.11839 0
M  V30 5209 C 509.401 1.69653 -4.50302 0
M  V30 5210 C 511.753 1.46193 -5.00277 0
M  V30 5211 C 509.081 1.16736 -5.74969 0
M  V30 5212 C 511.433 0.947265 -6.25468 0
M  V30 5213 C 510.097 0.794485 -6.62755 0
M  V30 5214 H 509.367 0.45742 -0.582965 0
M  V30 5215 H 512.014 0.549996 -1.83432 0
M  V30 5216 H 510.319 3.09401 -2.40371 0
M  V30 5217 H 512.016 2.91627 -2.75235 0
M  V30 5218 H 508.606 1.9537 -3.81482 0
M  V30 5219 H 512.79 1.55793 -4.71214 0
M  V30 5220 H 508.046 1.03623 -6.02555 0
M  V30 5221 H 512.22 0.648846 -6.93371 0
M  V30 5222 H 509.847 0.382271 -7.59238 0
M  V30 5223 N 511.423 1.38739 0.74761 0
M  V30 5224 C 512.651 1.38521 1.53686 0
M  V30 5225 C 513.066 -0.0235129 1.88785 0
M  V30 5226 O 512.423 -0.991662 1.53207 0
M  V30 5227 C 512.474 2.24641 2.83229 0
M  V30 5228 O 512.195 3.60026 2.49625 0
M  V30 5229 C 513.696 2.32669 3.77333 0
M  V30 5230 H 510.916 0.473589 0.475347 0
M  V30 5231 H 513.46 1.82395 0.924786 0
M  V30 5232 H 511.615 1.84213 3.40799 0
M  V30 5233 H 512.029 4.05435 3.3275 0
M  V30 5234 H 513.503 2.97201 4.65162 0
M  V30 5235 H 513.98 1.3421 4.18192 0
M  V30 5236 H 514.586 2.73512 3.25685 0
M  V30 5237 N 512.901 -0.976442 1.23707 0
M  V30 5238 C 513.864 -2.0511 1.02287 0
M  V30 5239 C 514.864 -1.60791 -0.0167195 0
M  V30 5240 O 516.054 -1.72761 0.223408 0
M  V30 5241 C 513.186 -3.36458 0.548507 0
M  V30 5242 H 514.379 -2.25545 1.9766 0
M  V30 5243 H 511.932 -1.15042 1.05806 0
M  V30 5244 H 512.667 -3.21713 -0.408818 0
M  V30 5245 H 512.452 -3.69967 1.29874 0
M  V30 5246 H 513.942 -4.15489 0.419406 0
M  V30 5247 N 514.379 -1.04941 -1.1758 0
M  V30 5248 C 515.79 -0.784501 -1.69418 0
M  V30 5249 C 516.141 0.693625 -1.8353 0
M  V30 5250 O 515.266 1.53925 -1.52106 0
M  V30 5251 C 515.861 -1.41746 -3.07723 0
M  V30 5252 C 514.42 -1.20066 -3.56737 0
M  V30 5253 C 513.567 -1.5026 -2.33061 0
M  V30 5254 H 516.518 -1.21469 -1.02133 0
M  V30 5255 H 516.539 -0.825381 -3.7144 0
M  V30 5256 H 516.051 -2.49325 -2.9742 0
M  V30 5257 H 514.152 -0.144006 -3.72322 0
M  V30 5258 H 514.265 -1.90384 -4.39648 0
M  V30 5259 H 512.629 -0.922598 -2.37403 0
M  V30 5260 H 513.412 -2.58967 -2.25368 0
M  V30 5261 N 515.857 1.33968 -0.830081 0
M  V30 5262 C 517.105 1.97672 -0.420734 0
M  V30 5263 C 517.426 1.66111 1.02138 0
M  V30 5264 O 516.696 0.955503 1.71017 0
M  V30 5265 H 515.276 0.73125 -0.152587 0
M  V30 5266 H 517.938 1.63483 -1.0611 0
M  V30 5267 H 517.034 3.07294 -0.545588 0
M  V30 5268 N 517.335 0.585699 1.46312 0
M  V30 5269 C 518.282 -0.145835 2.30339 0
M  V30 5270 C 519.252 -0.881215 1.40797 0
M  V30 5271 O 520.437 -0.871293 1.69744 0
M  V30 5272 C 517.577 -1.15161 3.25318 0
M  V30 5273 C 516.69 -0.419367 4.2996 0
M  V30 5274 C 515.825 -1.41293 5.12064 0
M  V30 5275 C 514.864 -0.667261 6.08452 0
M  V30 5276 N 514.001 -1.60903 6.83414 0
M  V30 5277 H 518.841 0.576755 2.92365 0
M  V30 5278 H 516.378 0.296237 1.44086 0
M  V30 5279 H 518.336 -1.74763 3.78832 0
M  V30 5280 H 516.966 -1.84188 2.65094 0
M  V30 5281 H 516.018 0.291751 3.7928 0
M  V30 5282 H 517.33 0.163433 4.98532 0
M  V30 5283 H 516.484 -2.08167 5.6987 0
M  V30 5284 H 515.223 -2.02966 4.43459 0
M  V30 5285 H 514.228 0.0152356 5.49798 0
M  V30 5286 H 515.453 -0.0558817 6.79077 0
M  V30 5287 H 513.399 -2.21381 6.17516 0
M  V30 5288 H 513.316 -1.07911 7.48259 0
M  V30 5289 H 514.584 -2.26802 7.45775 0
M  V30 5290 N 518.813 -1.54241 0.323641 0
M  V30 5291 C 520.224 -1.85975 -0.164405 0
M  V30 5292 C 520.575 -1.24529 -1.51615 0
M  V30 5293 O 519.7 -0.551351 -2.09258 0
M  V30 5294 C 520.295 -3.37424 -0.305091 0
M  V30 5295 C 518.854 -3.69107 -0.737358 0
M  V30 5296 C 518.001 -2.76942 0.140884 0
M  V30 5297 H 520.952 -1.49088 0.543922 0
M  V30 5298 H 520.973 -3.63147 -1.13598 0
M  V30 5299 H 520.485 -3.82116 0.678876 0
M  V30 5300 H 518.586 -3.29947 -1.73107 0
M  V30 5301 H 518.699 -4.76035 -0.541053 0
M  V30 5302 H 517.063 -2.51795 -0.383572 0
M  V30 5303 H 517.846 -3.24461 1.12162 0
M  V30 5304 N 520.291 -0.0518155 -1.57515 0
M  V30 5305 C 521.519 0.631395 -1.9703 0
M  V30 5306 C 521.934 1.64341 -0.92938 0
M  V30 5307 O 521.291 1.82296 0.0863266 0
M  V30 5308 C 521.342 1.31774 -3.36627 0
M  V30 5309 O 521.063 0.346247 -4.3673 0
M  V30 5310 C 522.564 2.09065 -3.90905 0
M  V30 5311 H 519.784 0.172576 -0.648428 0
M  V30 5312 H 522.328 -0.118306 -2.04158 0
M  V30 5313 H 520.483 2.01867 -3.30649 0
M  V30 5314 H 520.897 0.836226 -5.17791 0
M  V30 5315 H 522.371 2.52508 -4.9086 0
M  V30 5316 H 522.848 2.93908 -3.26366 0
M  V30 5317 H 523.454 1.43882 -4.00223 0
M  V30 5318 N 521.769 1.56035 0.221574 0
M  V30 5319 C 523.015 1.79312 0.947372 0
M  V30 5320 C 523.348 0.621453 1.83988 0
M  V30 5321 O 522.623 -0.379287 1.90766 0
M  V30 5322 C 522.906 3.1267 1.78633 0
M  V30 5323 C 522.759 4.40284 0.920312 0
M  V30 5324 C 524.078 3.4247 2.7641 0
M  V30 5325 H 521.197 0.652328 0.342982 0
M  V30 5326 H 523.839 1.88765 0.216244 0
M  V30 5327 H 521.989 3.04741 2.40967 0
M  V30 5328 H 523.661 4.60232 0.313718 0
M  V30 5329 H 521.904 4.33212 0.225734 0
M  V30 5330 H 522.575 5.30033 1.54171 0
M  V30 5331 H 525.051 3.50526 2.24211 0
M  V30 5332 H 523.927 4.3695 3.32213 0
M  V30 5333 H 524.188 2.64635 3.54148 0
M  V30 5334 N 523.247 -0.488276 1.49845 0
M  V30 5335 C 524.493 -1.24341 1.6021 0
M  V30 5336 C 524.826 -1.91967 0.293651 0
M  V30 5337 O 524.101 -1.81323 -0.703718 0
M  V30 5338 C 524.384 -2.3005 2.77036 0
M  V30 5339 C 524.237 -1.66842 4.17713 0
M  V30 5340 C 525.556 -3.31509 2.89464 0
M  V30 5341 H 522.675 -0.450704 0.583125 0
M  V30 5342 H 525.317 -0.539673 1.82174 0
M  V30 5343 H 523.467 -2.90071 2.58439 0
M  V30 5344 H 525.139 -1.1055 4.47858 0
M  V30 5345 H 523.382 -0.972079 4.22768 0
M  V30 5346 H 524.053 -2.43576 4.95353 0
M  V30 5347 H 526.529 -2.81493 3.06433 0
M  V30 5348 H 525.405 -4.02822 3.72861 0
M  V30 5349 H 525.666 -3.94603 1.99351 0
M  V30 5350 N 524.725 -1.39134 -0.740242 0
M  V30 5351 C 525.971 -1.36273 -1.50192 0
M  V30 5352 C 526.304 0.0430136 -1.94152 0
M  V30 5353 O 525.579 1.00691 -1.66408 0
M  V30 5354 C 525.862 -2.33041 -2.74525 0
M  V30 5355 C 525.715 -3.82535 -2.36617 0
M  V30 5356 C 527.034 -2.27723 -3.76604 0
M  V30 5357 H 524.153 -0.496323 -0.544823 0
M  V30 5358 H 526.795 -1.70085 -0.846815 0
M  V30 5359 H 524.945 -2.04337 -3.30422 0
M  V30 5360 H 526.617 -4.21967 -1.86391 0
M  V30 5361 H 524.86 -3.99565 -1.68909 0
M  V30 5362 H 525.531 -4.45723 -3.2563 0
M  V30 5363 H 528.007 -2.53091 -3.30279 0
M  V30 5364 H 526.883 -2.97519 -4.61274 0
M  V30 5365 H 527.144 -1.28049 -4.2315 0
M  V30 5366 N 526.204 0.969867 -1.24223 0
M  V30 5367 C 527.481 1.68774 -0.988664 0
M  V30 5368 C 527.861 2.05342 0.489673 0
M  V30 5369 O 527.209 1.75486 1.46345 0
M  V30 5370 C 527.419 2.92135 -1.90941 0
M  V30 5371 C 528.767 3.64422 -2.17903 0
M  V30 5372 O 529.791 3.02188 -1.88576 0
M  V30 5373 O 528.65 4.76446 -2.67697 0
M  V30 5374 H 525.744 0.737736 -0.37373 0
M  V30 5375 H 528.29 1.02415 -1.35312 0
M  V30 5376 H 527.062 2.61788 -2.90831 0
M  V30 5377 H 526.685 3.66228 -1.54798 0
M  V30 5378 N 527.682 1.05563 1.17022 0
M  V30 5379 C 528.912 0.787307 1.91011 0
M  V30 5380 C 529.32 -0.661256 1.77268 0
M  V30 5381 O 528.663 -1.46379 1.10991 0
M  V30 5382 C 528.725 1.09313 3.42478 0
M  V30 5383 C 528.389 2.53863 3.80004 0
M  V30 5384 C 529.386 3.52081 3.82538 0
M  V30 5385 C 527.071 2.88969 4.10855 0
M  V30 5386 C 529.065 4.83449 4.15399 0
M  V30 5387 C 526.752 4.2054 4.43384 0
M  V30 5388 C 527.75 5.17589 4.45635 0
M  V30 5389 O 527.438 6.46799 4.77395 0
M  V30 5390 H 527.17 0.285463 0.61277 0
M  V30 5391 H 529.724 1.41051 1.49311 0
M  V30 5392 H 527.954 0.412833 3.8449 0
M  V30 5393 H 529.643 0.810224 3.97731 0
M  V30 5394 H 530.409 3.26299 3.58823 0
M  V30 5395 H 526.288 2.1409 4.08272 0
M  V30 5396 H 529.832 5.59194 4.1707 0
M  V30 5397 H 525.729 4.46083 4.66563 0
M  V30 5398 H 526.497 6.51677 4.95237 0
M  V30 5399 N 529.16 -1.33526 0.837174 0
M  V30 5400 C 530.123 -2.27551 0.274421 0
M  V30 5401 C 531.123 -1.50886 -0.555881 0
M  V30 5402 O 532.313 -1.70227 -0.369918 0
M  V30 5403 C 529.445 -3.35332 -0.613605 0
M  V30 5404 H 530.638 -2.78837 1.10408 0
M  V30 5405 H 528.191 -1.439 0.610126 0
M  V30 5406 H 528.926 -2.89285 -1.46577 0
M  V30 5407 H 528.711 -3.92095 -0.0195341 0
M  V30 5408 H 530.201 -4.05433 -1.00068 0
M  V30 5409 N 530.638 -0.59345 -1.46 0
M  V30 5410 C 531.588 0.154751 -2.27474 0
M  V30 5411 C 532.572 0.851849 -1.365 0
M  V30 5412 O 533.764 0.744171 -1.60596 0
M  V30 5413 C 530.893 1.16079 -3.2308 0
M  V30 5414 C 529.979 0.465256 -4.2154 0
M  V30 5415 N 530.37 -0.485197 -5.03467 0
M  V30 5416 C 528.668 0.714634 -4.40237 0
M  V30 5417 C 529.369 -0.892709 -5.74809 0
M  V30 5418 N 528.345 -0.239511 -5.43072 0
M  V30 5419 H 532.147 -0.57546 -2.88211 0
M  V30 5420 H 529.661 -0.416046 -1.5698 0
M  V30 5421 H 531.658 1.71108 -3.80168 0
M  V30 5422 H 530.318 1.89171 -2.63903 0
M  V30 5423 H 531.329 -0.861258 -5.10689 0
M  V30 5424 H 528.006 1.43131 -3.92199 0
M  V30 5425 H 529.396 -1.67581 -6.50666 0
M  V30 5426 N 532.116 1.54067 -0.331816 0
M  V30 5427 C 533.344 2.05131 0.269996 0
M  V30 5428 C 533.759 1.20749 1.45138 0
M  V30 5429 O 533.116 0.240069 1.80914 0
M  V30 5430 C 533.167 3.54728 0.696456 0
M  V30 5431 O 532.888 4.35906 -0.43794 0
M  V30 5432 C 534.389 4.21916 1.36021 0
M  V30 5433 H 531.609 0.668807 0.0542042 0
M  V30 5434 H 534.153 1.98777 -0.4804 0
M  V30 5435 H 532.308 3.61342 1.39681 0
M  V30 5436 H 532.722 5.24404 -0.100334 0
M  V30 5437 H 534.196 5.28015 1.60947 0
M  V30 5438 H 534.673 3.73538 2.31011 0
M  V30 5439 H 535.279 4.19463 0.702212 0
M  V30 5440 N 533.594 0.0601682 1.57485 0
M  V30 5441 C 535.005 -0.474217 1.80577 0
M  V30 5442 C 535.356 -1.70365 0.973147 0
M  V30 5443 O 534.481 -2.15544 0.192306 0
M  V30 5444 C 535.076 -0.867102 3.27516 0
M  V30 5445 C 533.635 -1.34642 3.51495 0
M  V30 5446 C 532.782 -0.32594 2.75378 0
M  V30 5447 H 535.733 0.285973 1.56102 0
M  V30 5448 H 535.754 -1.72938 3.38929 0
M  V30 5449 H 535.266 0.0278927 3.8809 0
M  V30 5450 H 533.367 -2.2603 2.96212 0
M  V30 5451 H 533.48 -1.33237 4.60201 0
M  V30 5452 H 531.844 -0.800749 2.41785 0
M  V30 5453 H 532.627 0.561125 3.38683 0
M  V30 5454 N 535.072 -1.5615 -0.213296 0
M  V30 5455 C 536.349 -1.70349 -0.961281 0
M  V30 5456 C 536.729 -0.609791 -2.02101 0
M  V30 5457 O 536.077 0.381987 -2.25285 0
M  V30 5458 C 536.287 -3.11982 -1.56424 0
M  V30 5459 C 537.635 -3.71649 -2.05334 0
M  V30 5460 O 538.659 -3.14995 -1.66302 0
M  V30 5461 O 537.518 -4.71038 -2.77102 0
M  V30 5462 H 534.612 -0.694121 -0.449582 0
M  V30 5463 H 537.158 -1.68464 -0.204426 0
M  V30 5464 H 535.93 -3.83046 -0.799457 0
M  V30 5465 H 535.553 -3.18019 -2.38641 0
M  V30 5466 N 536.55 0.480323 -1.50102 0
M  V30 5467 C 537.513 1.56181 -1.6775 0
M  V30 5468 C 538.513 1.51156 -0.548503 0
M  V30 5469 O 539.703 1.5394 -0.815363 0
M  V30 5470 C 536.835 2.95823 -1.69415 0
M  V30 5471 H 538.028 1.41855 -2.6423 0
M  V30 5472 H 535.581 0.70605 -1.39444 0
M  V30 5473 H 536.316 3.15604 -0.745948 0
M  V30 5474 H 536.101 3.00878 -2.51425 0
M  V30 5475 H 537.591 3.74359 -1.85054 0
M  V30 5476 N 538.028 1.39524 0.732853 0
M  V30 5477 C 538.958 1.41153 1.86005 0
M  V30 5478 C 539.939 0.274614 1.67869 0
M  V30 5479 O 541.124 0.480745 1.88155 0
M  V30 5480 C 538.254 1.25638 3.23778 0
M  V30 5481 C 537.208 2.36752 3.56556 0
M  V30 5482 C 536.534 2.06326 4.93289 0
M  V30 5483 C 537.834 3.79069 3.5931 0
M  V30 5484 H 539.528 2.35484 1.84899 0
M  V30 5485 H 537.074 1.13348 0.888162 0
M  V30 5486 H 539.027 1.25398 4.0231 0
M  V30 5487 H 537.751 0.277772 3.25417 0
M  V30 5488 H 536.41 2.36213 2.80355 0
M  V30 5489 H 536.058 1.06897 4.9151 0
M  V30 5490 H 535.758 2.80757 5.16187 0
M  V30 5491 H 537.282 2.07739 5.74175 0
M  V30 5492 H 538.696 3.81526 4.27914 0
M  V30 5493 H 537.093 4.52878 3.93728 0
M  V30 5494 H 538.163 4.09893 2.59068 0
M  V30 5495 N 539.506 -0.963266 1.24736 0
M  V30 5496 C 540.416 -2.09246 1.06082 0
M  V30 5497 C 541.432 -1.74 0.000363101 0
M  V30 5498 O 542.608 -2.0041 0.199479 0
M  V30 5499 C 539.673 -3.40115 0.672498 0
M  V30 5500 C 538.734 -3.89282 1.80993 0
M  V30 5501 C 537.967 -5.13905 1.44004 0
M  V30 5502 O 538.19 -5.69434 0.331835 0
M  V30 5503 O 537.124 -5.57566 2.26723 0
M  V30 5504 H 540.95 -2.27881 2.00759 0
M  V30 5505 H 538.535 -1.07649 1.03595 0
M  V30 5506 H 540.417 -4.18797 0.467668 0
M  V30 5507 H 539.092 -3.22771 -0.245102 0
M  V30 5508 H 537.999 -3.11642 2.06955 0
M  V30 5509 H 539.332 -4.1111 2.70646 0
M  V30 5510 N 540.985 -1.06182 -1.16461 0
M  V30 5511 C 541.932 -0.671613 -2.20812 0
M  V30 5512 C 542.902 0.331186 -1.62765 0
M  V30 5513 O 544.087 0.22033 -1.89524 0
M  V30 5514 C 541.227 -0.063029 -3.45042 0
M  V30 5515 C 540.34 -1.11587 -4.1734 0
M  V30 5516 C 539.475 -0.473546 -5.29085 0
M  V30 5517 C 538.514 -1.51 -5.93182 0
M  V30 5518 N 537.651 -0.891118 -6.96422 0
M  V30 5519 H 542.491 -1.56589 -2.53542 0
M  V30 5520 H 540.028 -0.782951 -1.24532 0
M  V30 5521 H 541.986 0.307344 -4.16066 0
M  V30 5522 H 540.616 0.794663 -3.12866 0
M  V30 5523 H 539.668 -1.60396 -3.44931 0
M  V30 5524 H 540.98 -1.90221 -4.61104 0
M  V30 5525 H 540.134 -0.0501432 -6.06679 0
M  V30 5526 H 538.873 0.344687 -4.8648 0
M  V30 5527 H 537.878 -1.94331 -5.14311 0
M  V30 5528 H 539.103 -2.33031 -6.37866 0
M  V30 5529 H 537.049 -0.0935753 -6.55933 0
M  V30 5530 H 536.966 -1.61486 -7.38551 0
M  V30 5531 H 538.234 -0.492822 -7.77941 0
M  V30 5532 N 542.463 1.3308 -0.844243 0
M  V30 5533 C 543.426 2.27403 -0.286485 0
M  V30 5534 C 544.426 1.51179 0.547872 0
M  V30 5535 O 545.616 1.70421 0.360886 0
M  V30 5536 C 542.748 3.35653 0.595813 0
M  V30 5537 H 543.941 2.78248 -1.11885 0
M  V30 5538 H 541.494 1.43574 -0.617749 0
M  V30 5539 H 542.229 2.90058 1.4504 0
M  V30 5540 H 542.014 3.921 -0.00125994 0
M  V30 5541 H 543.504 4.05958 0.979168 0
M  V30 5542 N 543.941 0.601185 1.45683 0
M  V30 5543 C 544.871 -0.108824 2.33246 0
M  V30 5544 C 545.852 -0.865223 1.46451 0
M  V30 5545 O 547.037 -0.83704 1.75235 0
M  V30 5546 C 544.167 -1.11101 3.2905 0
M  V30 5547 C 543.121 -0.468244 4.25431 0
M  V30 5548 C 542.447 -1.57822 5.10878 0
M  V30 5549 C 543.747 0.606469 5.18767 0
M  V30 5550 H 545.441 0.622306 2.92861 0
M  V30 5551 H 542.987 0.300714 1.40825 0
M  V30 5552 H 544.94 -1.61622 3.89174 0
M  V30 5553 H 543.664 -1.87265 2.67581 0
M  V30 5554 H 542.323 0.0160484 3.66596 0
M  V30 5555 H 541.971 -2.32998 4.45781 0
M  V30 5556 H 541.671 -1.15369 5.76163 0
M  V30 5557 H 543.195 -2.08583 5.73869 0
M  V30 5558 H 544.609 0.185589 5.73 0
M  V30 5559 H 543.006 0.952381 5.92494 0
M  V30 5560 H 544.076 1.48559 4.61582 0
M  V30 5561 N 545.419 -1.53889 0.339982 0
M  V30 5562 C 546.351 -2.22435 -0.55275 0
M  V30 5563 C 547.364 -1.22975 -1.06681 0
M  V30 5564 O 548.553 -1.49351 -0.977575 0
M  V30 5565 C 545.653 -2.8882 -1.77302 0
M  V30 5566 C 544.826 -4.14563 -1.39486 0
M  V30 5567 C 543.885 -4.64391 -2.47442 0
M  V30 5568 O 542.911 -5.28687 -2.10899 0
M  V30 5569 N 544.113 -4.40015 -3.78639 0
M  V30 5570 H 546.878 -2.9968 0.0342669 0
M  V30 5571 H 544.439 -1.61068 0.16394 0
M  V30 5572 H 546.431 -3.19072 -2.48948 0
M  V30 5573 H 545.001 -2.15182 -2.26749 0
M  V30 5574 H 544.221 -3.90896 -0.509321 0
M  V30 5575 H 545.509 -4.96362 -1.11813 0
M  V30 5576 H 544.907 -3.88586 -4.11118 0
M  V30 5577 H 543.464 -4.74881 -4.46465 0
M  V30 5578 N 546.897 -0.0685191 -1.57451 0
M  V30 5579 C 547.86 0.885173 -2.11417 0
M  V30 5580 C 548.86 1.22853 -1.03748 0
M  V30 5581 O 550.05 1.16235 -1.2975 0
M  V30 5582 C 547.182 2.18964 -2.61281 0
M  V30 5583 H 548.375 0.417034 -2.96986 0
M  V30 5584 H 545.928 0.18014 -1.55258 0
M  V30 5585 H 546.663 2.70321 -1.79156 0
M  V30 5586 H 546.448 1.9534 -3.39977 0
M  V30 5587 H 547.938 2.87242 -3.0312 0
M  V30 5588 N 548.375 1.56261 0.205012 0
M  V30 5589 C 549.338 1.92908 1.23771 0
M  V30 5590 C 550.338 0.809208 1.38955 0
M  V30 5591 O 551.528 1.07676 1.36936 0
M  V30 5592 C 548.66 2.19442 2.60879 0
M  V30 5593 H 549.853 2.85287 0.924728 0
M  V30 5594 H 547.406 1.49798 0.446125 0
M  V30 5595 H 548.141 1.29668 2.97248 0
M  V30 5596 H 547.926 3.0104 2.51232 0
M  V30 5597 H 549.416 2.48833 3.35368 0
M  V30 5598 N 549.853 -0.472356 1.50355 0
M  V30 5599 C 551.269 -0.806001 1.37753 0
M  V30 5600 C 551.469 -1.968 0.432649 0
M  V30 5601 O 550.525 -2.52189 -0.12519 0
M  V30 5602 C 551.838 -1.11926 2.79093 0
M  V30 5603 C 553.386 -1.22579 2.87999 0
M  V30 5604 C 553.861 -1.57218 4.3017 0
M  V30 5605 N 555.352 -1.64212 4.33115 0
M  V30 5606 C 556.087 -1.92517 5.40116 0
M  V30 5607 N 555.583 -2.1885 6.57325 0
M  V30 5608 N 557.376 -1.94008 5.27558 0
M  V30 5609 H 549.527 0.293451 2.10363 0
M  V30 5610 H 551.79 0.0687672 0.945503 0
M  V30 5611 H 551.496 -0.338504 3.50067 0
M  V30 5612 H 551.37 -2.05577 3.16256 0
M  V30 5613 H 553.757 -1.99722 2.17245 0
M  V30 5614 H 553.838 -0.269107 2.54381 0
M  V30 5615 H 553.482 -0.806154 5.01461 0
M  V30 5616 H 553.412 -2.54034 4.61275 0
M  V30 5617 H 555.903 -1.45906 3.48597 0
M  V30 5618 H 556.216 -2.39718 7.3468 0
M  V30 5619 H 554.561 -2.16245 6.60502 0
M  V30 5620 H 557.752 -1.72931 4.34986 0
M  V30 5621 H 557.925 -2.15731 6.11035 0
M  V30 5622 N 551.331 -1.39911 -0.725443 0
M  V30 5623 C 552.261 -1.42138 -1.85254 0
M  V30 5624 C 553.242 -0.283513 -1.67721 0
M  V30 5625 O 554.427 -0.490717 -1.87898 0
M  V30 5626 C 551.557 -1.27354 -3.23107 0
M  V30 5627 C 550.511 -2.3864 -3.55296 0
M  V30 5628 C 549.837 -2.08939 -4.92188 0
M  V30 5629 C 551.137 -3.8097 -3.57295 0
M  V30 5630 H 552.831 -2.36461 -1.83648 0
M  V30 5631 H 550.377 -1.13817 -0.882138 0
M  V30 5632 H 552.33 -1.2753 -4.01639 0
M  V30 5633 H 551.054 -0.295025 -3.25265 0
M  V30 5634 H 549.713 -2.37696 -2.79099 0
M  V30 5635 H 549.361 -1.09502 -4.90936 0
M  V30 5636 H 549.061 -2.83491 -5.14691 0
M  V30 5637 H 550.585 -2.10781 -5.73065 0
M  V30 5638 H 551.999 -3.8379 -4.25885 0
M  V30 5639 H 550.396 -4.5496 -3.9132 0
M  V30 5640 H 551.466 -4.11261 -2.5689 0
M  V30 5641 N 552.809 0.956637 -1.25245 0
M  V30 5642 C 553.759 2.03841 -1.02141 0
M  V30 5643 C 554.743 1.60848 0.0410058 0
M  V30 5644 O 555.935 1.76142 -0.174084 0
M  V30 5645 C 553.064 3.37282 -0.639963 0
M  V30 5646 C 552.15 3.86805 -1.73903 0
M  V30 5647 N 552.541 4.09143 -2.97381 0
M  V30 5648 C 550.839 4.15574 -1.61909 0
M  V30 5649 C 551.54 4.49923 -3.68707 0
M  V30 5650 N 550.516 4.55737 -2.96318 0
M  V30 5651 H 554.318 2.19102 -1.95886 0
M  V30 5652 H 551.832 1.1413 -1.15534 0
M  V30 5653 H 553.829 4.14403 -0.455643 0
M  V30 5654 H 552.489 3.23401 0.29018 0
M  V30 5655 H 553.5 3.96275 -3.33447 0
M  V30 5656 H 550.177 4.10566 -0.757764 0
M  V30 5657 H 551.567 4.75526 -4.74684 0
M  V30 5658 N 554.287 1.06798 1.15896 0
M  V30 5659 C 555.527 0.797041 1.8822 0
M  V30 5660 C 555.891 -0.664549 1.80133 0
M  V30 5661 O 557.092 -1.0503 2.47431 0
M  V30 5662 C 555.363 1.28431 3.33527 0
M  V30 5663 S 556.922 1.14319 4.23647 0
M  V30 5664 H 553.74 0.288988 0.649621 0
M  V30 5665 H 556.342 1.36594 1.39865 0
M  V30 5666 H 555.046 2.34286 3.36954 0
M  V30 5667 H 554.577 0.710371 3.86933 0
M  V30 5668 H 556.592 0.0772467 4.9614 0
M  V30 5669 N 555.766 -1.3263 0.851289 0
M  V30 5670 C 556.729 -2.27247 0.298541 0
M  V30 5671 C 557.729 -1.51467 -0.539847 0
M  V30 5672 O 558.919 -1.7061 -0.351843 0
M  V30 5673 C 556.051 -3.35964 -0.578004 0
M  V30 5674 H 557.244 -2.7765 1.13359 0
M  V30 5675 H 554.797 -1.43245 0.625354 0
M  V30 5676 H 555.532 -2.90823 -1.435 0
M  V30 5677 H 555.317 -3.92094 0.0220539 0
M  V30 5678 H 556.807 -4.06472 -0.957626 0
M  V30 5679 N 557.244 -0.608902 -1.45362 0
M  V30 5680 C 558.492 -0.104401 -2.0183 0
M  V30 5681 C 558.813 1.27007 -1.47967 0
M  V30 5682 O 558.083 1.83924 -0.674455 0
M  V30 5683 H 556.663 -0.0356042 -0.746151 0
M  V30 5684 H 559.325 -0.790596 -1.78145 0
M  V30 5685 H 558.421 -0.0551793 -3.12051 0
M  V30 5686 N 558.722 1.53707 -0.348139 0
M  V30 5687 C 559.669 2.25173 0.506518 0
M  V30 5688 C 560.639 1.25174 1.09182 0
M  V30 5689 O 561.824 1.53917 1.12757 0
M  V30 5690 C 558.964 3.03141 1.64923 0
M  V30 5691 C 558.077 4.18002 1.0908 0
M  V30 5692 C 557.212 4.83447 2.20119 0
M  V30 5693 C 556.251 5.90369 1.61651 0
M  V30 5694 N 555.388 6.49575 2.66451 0
M  V30 5695 H 560.228 2.97799 -0.109452 0
M  V30 5696 H 557.765 1.46953 -0.0657866 0
M  V30 5697 H 559.723 3.46607 2.32205 0
M  V30 5698 H 558.353 2.32803 2.23612 0
M  V30 5699 H 557.405 3.79145 0.308783 0
M  V30 5700 H 558.717 4.94892 0.623178 0
M  V30 5701 H 557.871 5.30008 2.95257 0
M  V30 5702 H 556.61 4.05991 2.70227 0
M  V30 5703 H 555.615 5.43186 0.850209 0
M  V30 5704 H 556.84 6.69735 1.1239 0
M  V30 5705 H 554.786 5.74981 3.15805 0
M  V30 5706 H 554.703 7.21952 2.24325 0
M  V30 5707 H 555.971 7.00789 3.41344 0
M  V30 5708 N 560.2 0.0768682 1.57412 0
M  V30 5709 C 561.13 -0.886026 2.16037 0
M  V30 5710 C 562.111 -1.30691 1.08876 0
M  V30 5711 O 563.296 -1.37705 1.36934 0
M  V30 5712 C 560.426 -2.1518 2.72608 0
M  V30 5713 C 559.38 -1.87015 3.8498 0
M  V30 5714 C 558.706 -3.20266 4.28175 0
M  V30 5715 C 560.006 -1.17143 5.08994 0
M  V30 5716 H 561.7 -0.397642 2.96748 0
M  V30 5717 H 559.246 -0.189823 1.42743 0
M  V30 5718 H 561.199 -2.82962 3.12266 0
M  V30 5719 H 559.923 -2.66269 1.89125 0
M  V30 5720 H 558.582 -1.21636 3.45833 0
M  V30 5721 H 558.23 -3.69207 3.41607 0
M  V30 5722 H 557.93 -3.0221 5.03927 0
M  V30 5723 H 559.454 -3.89237 4.70454 0
M  V30 5724 H 560.868 -1.75003 5.45937 0
M  V30 5725 H 559.265 -1.09328 5.90057 0
M  V30 5726 H 560.335 -0.151295 4.84664 0
M  V30 5727 N 561.678 -1.56367 -0.196722 0
M  V30 5728 C 562.924 -1.81698 -0.914182 0
M  V30 5729 C 563.279 -0.65367 -1.80956 0
M  V30 5730 O 562.572 0.351224 -1.88353 0
M  V30 5731 C 562.766 -3.10663 -1.767 0
M  V30 5732 C 562.595 -4.39428 -0.955689 0
M  V30 5733 C 561.365 -5.01221 -0.64076 0
M  V30 5734 C 563.563 -5.1337 -0.309165 0
M  V30 5735 N 561.545 -6.13608 0.189358 0
M  V30 5736 C 562.916 -6.18815 0.383225 0
M  V30 5737 C 564.971 -4.97393 -0.224726 0
M  V30 5738 C 563.674 -7.10015 1.15201 0
M  V30 5739 C 565.7 -5.89014 0.530658 0
M  V30 5740 C 565.062 -6.93903 1.2115 0
M  V30 5741 H 561.161 -0.716203 -0.31397 0
M  V30 5742 H 563.745 -1.93838 -0.18304 0
M  V30 5743 H 561.916 -2.99762 -2.46976 0
M  V30 5744 H 563.648 -3.24088 -2.42382 0
M  V30 5745 H 560.403 -4.63669 -0.96479 0
M  V30 5746 H 560.827 -6.74389 0.593979 0
M  V30 5747 H 565.469 -4.16331 -0.736754 0
M  V30 5748 H 563.187 -7.9054 1.67547 0
M  V30 5749 H 566.773 -5.78726 0.597326 0
M  V30 5750 H 565.653 -7.63576 1.78665 0
M  V30 5751 N 563.156 0.464375 -1.50603 0
M  V30 5752 C 564.396 1.22573 -1.6357 0
M  V30 5753 C 564.76 1.89111 -0.331834 0
M  V30 5754 O 565.961 2.66679 -0.336999 0
M  V30 5755 C 564.232 2.23643 -2.7878 0
M  V30 5756 S 565.791 3.08628 -3.1192 0
M  V30 5757 H 562.609 0.416058 -0.576556 0
M  V30 5758 H 565.211 0.521637 -1.88412 0
M  V30 5759 H 563.915 1.73354 -3.7199 0
M  V30 5760 H 563.446 2.98672 -2.56044 0
M  V30 5761 H 565.461 4.24904 -2.56264 0
M  V30 5762 N 564.634 1.40294 0.718013 0
M  V30 5763 C 565.88 1.38645 1.48005 0
M  V30 5764 C 566.213 -0.0121202 1.94196 0
M  V30 5765 O 565.488 -0.980309 1.67989 0
M  V30 5766 C 565.771 2.37379 2.70782 0
M  V30 5767 C 565.624 3.8625 2.30501 0
M  V30 5768 C 566.943 2.33685 3.72933 0
M  V30 5769 H 564.062 0.504928 0.536858 0
M  V30 5770 H 566.704 1.71411 0.819649 0
M  V30 5771 H 564.854 2.09568 3.27129 0
M  V30 5772 H 566.526 4.24879 1.79655 0
M  V30 5773 H 564.769 4.02202 1.6253 0
M  V30 5774 H 565.44 4.50847 3.18498 0
M  V30 5775 H 567.916 2.58314 3.2621 0
M  V30 5776 H 566.792 3.0482 4.56482 0
M  V30 5777 H 567.053 1.34765 4.21059 0
M  V30 5778 N 566.112 -0.949982 1.2575 0
M  V30 5779 C 567.359 -1.69515 1.10774 0
M  V30 5780 C 567.687 -1.91316 -0.350479 0
M  V30 5781 O 566.942 -1.48515 -1.27443 0
M  V30 5782 C 567.241 -3.08039 1.81237 0
M  V30 5783 C 566.907 -3.06023 3.31151 0
M  V30 5784 C 565.569 -3.0518 3.72047 0
M  V30 5785 C 567.921 -2.98998 4.26907 0
M  V30 5786 C 565.249 -2.95067 5.07102 0
M  V30 5787 C 567.601 -2.90426 5.61992 0
M  V30 5788 C 566.265 -2.87922 6.0221 0
M  V30 5789 H 565.535 -0.6203 0.405351 0
M  V30 5790 H 568.182 -1.10953 1.56082 0
M  V30 5791 H 566.487 -3.70172 1.28373 0
M  V30 5792 H 568.184 -3.64526 1.67098 0
M  V30 5793 H 564.774 -3.07453 2.98614 0
M  V30 5794 H 568.958 -2.98764 3.963 0
M  V30 5795 H 564.214 -2.915 5.37436 0
M  V30 5796 H 568.388 -2.83952 6.35881 0
M  V30 5797 H 566.015 -2.79841 7.06819 0
M  V30 5798 N 567.59 -1.07411 -1.15328 0
M  V30 5799 C 568.838 -0.796073 -1.85761 0
M  V30 5800 C 569.159 0.679864 -1.82764 0
M  V30 5801 O 568.429 1.49242 -1.269 0
M  V30 5802 H 567.009 -0.291495 -0.687779 0
M  V30 5803 H 569.671 -1.35799 -1.39802 0
M  V30 5804 H 568.767 -1.13114 -2.90881 0
M  V30 5805 N 569.068 1.32177 -0.85831 0
M  V30 5806 C 570.308 1.98927 -0.469822 0
M  V30 5807 C 570.672 1.66423 0.95746 0
M  V30 5808 O 571.873 2.26293 1.45069 0
M  V30 5809 C 570.144 3.50352 -0.706288 0
M  V30 5810 S 571.703 4.36824 -0.415918 0
M  V30 5811 H 568.521 0.688909 -0.175855 0
M  V30 5812 H 571.123 1.60807 -1.11181 0
M  V30 5813 H 569.827 3.71497 -1.74407 0
M  V30 5814 H 569.358 3.93367 -0.0508568 0
M  V30 5815 H 571.373 4.90398 0.756581 0
M  V30 5816 N 570.547 0.616602 1.45037 0
M  V30 5817 C 571.795 0.115103 2.01772 0
M  V30 5818 C 572.116 -1.2622 1.48639 0
M  V30 5819 O 571.386 -1.83563 0.684199 0
M  V30 5820 H 569.966 0.0395607 0.745952 0
M  V30 5821 H 572.628 0.800032 1.77723 0
M  V30 5822 H 571.724 0.0717274 3.12018 0
M  V30 5823 N 572.025 -1.5352 0.356285 0
M  V30 5824 C 573.273 -2.00719 -0.235837 0
M  V30 5825 C 573.594 -1.24551 -1.5004 0
M  V30 5826 O 572.864 -0.356185 -1.92635 0
M  V30 5827 H 571.444 -0.741542 -0.0901366 0
M  V30 5828 H 574.106 -1.88887 0.480378 0
M  V30 5829 H 573.202 -3.08551 -0.469357 0
M  V30 5830 N 573.503 -0.0852151 -1.57369 0
M  V30 5831 C 574.78 0.622534 -1.85429 0
M  V30 5832 C 575.16 1.86962 -0.980229 0
M  V30 5833 O 574.508 2.28445 -0.0500219 0
M  V30 5834 C 574.718 0.947374 -3.35896 0
M  V30 5835 C 576.066 1.31509 -4.03721 0
M  V30 5836 O 577.09 1.03869 -3.40719 0
M  V30 5837 O 575.949 1.83231 -5.14868 0
M  V30 5838 H 573.043 0.310513 -0.766492 0
M  V30 5839 H 575.589 -0.117164 -1.69295 0
M  V30 5840 H 574.361 0.0622264 -3.91251 0
M  V30 5841 H 573.984 1.74338 -3.5734 0
M  V30 5842 N 574.981 1.5647 0.188427 0
M  V30 5843 C 576.397 1.50204 0.539532 0
M  V30 5844 C 576.597 0.78644 1.85519 0
M  V30 5845 O 575.653 0.339714 2.50204 0
M  V30 5846 C 576.966 2.94893 0.588103 0
M  V30 5847 C 578.514 3.05602 0.67648 0
M  V30 5848 C 578.989 4.51716 0.756101 0
M  V30 5849 N 580.48 4.55894 0.819451 0
M  V30 5850 C 581.215 5.66272 0.90134 0
M  V30 5851 N 580.711 6.86323 0.945118 0
M  V30 5852 N 582.504 5.54201 0.939043 0
M  V30 5853 H 574.655 2.01406 -0.674493 0
M  V30 5854 H 576.918 0.916828 -0.241103 0
M  V30 5855 H 576.624 3.50334 -0.309633 0
M  V30 5856 H 576.498 3.4861 1.44051 0
M  V30 5857 H 578.885 2.50206 1.56465 0
M  V30 5858 H 578.966 2.54999 -0.202262 0
M  V30 5859 H 578.61 5.07739 -0.12774 0
M  V30 5860 H 578.54 5.00058 1.65074 0
M  V30 5861 H 581.031 3.69452 0.794594 0
M  V30 5862 H 581.344 7.66194 1.0083 0
M  V30 5863 H 579.689 6.88968 0.913683 0
M  V30 5864 H 582.88 4.59333 0.901725 0
M  V30 5865 H 583.053 6.40247 0.999402 0
M  V30 5866 N 576.459 -0.456382 1.50847 0
M  V30 5867 C 577.736 -1.21739 1.53098 0
M  V30 5868 C 578.116 -2.09179 0.284132 0
M  V30 5869 O 577.464 -2.16466 -0.731773 0
M  V30 5870 C 577.674 -2.03573 2.83477 0
M  V30 5871 C 579.022 -2.61264 3.34703 0
M  V30 5872 O 580.046 -2.13802 2.84898 0
M  V30 5873 O 578.905 -3.47779 4.21559 0
M  V30 5874 H 575.999 -0.553219 0.614718 0
M  V30 5875 H 578.545 -0.467003 1.63148 0
M  V30 5876 H 577.317 -1.39232 3.65691 0
M  V30 5877 H 576.94 -2.85716 2.76499 0
M  V30 5878 N 577.937 -1.40673 -0.710563 0
M  V30 5879 C 578.884 -1.41336 -1.82463 0
M  V30 5880 C 579.854 -0.269648 -1.63897 0
M  V30 5881 O 581.039 -0.468463 -1.8496 0
M  V30 5882 C 578.179 -1.28665 -3.20218 0
M  V30 5883 C 577.292 -2.52784 -3.5032 0
M  V30 5884 C 576.427 -2.32517 -4.77608 0
M  V30 5885 C 575.466 -3.52187 -5.0063 0
M  V30 5886 N 574.603 -3.31084 -6.19135 0
M  V30 5887 H 579.443 -2.36558 -1.8123 0
M  V30 5888 H 576.98 -1.17483 -0.885226 0
M  V30 5889 H 578.938 -1.19324 -3.99772 0
M  V30 5890 H 577.568 -0.370602 -3.20666 0
M  V30 5891 H 576.62 -2.72634 -2.65283 0
M  V30 5892 H 577.932 -3.41845 -3.63241 0
M  V30 5893 H 577.086 -2.20558 -5.65189 0
M  V30 5894 H 575.825 -1.40889 -4.66906 0
M  V30 5895 H 574.83 -3.64617 -4.11502 0
M  V30 5896 H 576.055 -4.44749 -5.13201 0
M  V30 5897 H 574.001 -2.42143 -6.09674 0
M  V30 5898 H 573.918 -4.13713 -6.32754 0
M  V30 5899 H 575.186 -3.22868 -7.0949 0
M  V30 5900 N 579.415 0.9433 -1.26252 0
M  V30 5901 C 580.663 1.68592 -1.11451 0
M  V30 5902 C 580.984 1.91957 0.343123 0
M  V30 5903 O 580.254 1.51475 1.24226 0
M  V30 5904 H 578.834 0.624789 -0.409448 0
M  V30 5905 H 581.496 1.13351 -1.58548 0
M  V30 5906 H 580.592 2.66054 -1.63162 0
M  V30 5907 N 580.893 1.08022 1.14757 0
M  V30 5908 C 581.84 0.706657 2.19716 0
M  V30 5909 C 582.81 -0.30525 1.63271 0
M  V30 5910 O 583.995 -0.19015 1.8985 0
M  V30 5911 C 581.135 0.117914 3.44898 0
M  V30 5912 C 580.248 1.18212 4.15512 0
M  V30 5913 C 579.383 0.557659 5.28265 0
M  V30 5914 C 578.422 1.60418 5.90705 0
M  V30 5915 N 577.559 1.0018 6.94916 0
M  V30 5916 H 582.399 1.60603 2.51019 0
M  V30 5917 H 579.936 0.802664 1.23271 0
M  V30 5918 H 581.894 -0.241112 4.16503 0
M  V30 5919 H 580.524 -0.744788 3.1409 0
M  V30 5920 H 579.576 1.65863 3.42335 0
M  V30 5921 H 580.888 1.97533 4.5802 0
M  V30 5922 H 580.042 0.146654 6.06523 0
M  V30 5923 H 578.781 -0.267249 4.86967 0
M  V30 5924 H 577.786 2.02489 5.11154 0
M  V30 5925 H 579.011 2.43149 6.34078 0
M  V30 5926 H 576.957 0.197917 6.55701 0
M  V30 5927 H 576.874 1.73216 7.35889 0
M  V30 5928 H 578.142 0.616523 7.77058 0
M  V30 5929 N 582.371 -1.3172 0.865308 0
M  V30 5930 C 583.787 -1.4958 0.556596 0
M  V30 5931 C 583.987 -1.79763 -0.910353 0
M  V30 5932 O 583.043 -1.87351 -1.6928 0
M  V30 5933 C 584.356 -2.63277 1.45279 0
M  V30 5934 C 585.904 -2.77161 1.45433 0
M  V30 5935 C 586.379 -3.93949 2.33598 0
M  V30 5936 N 587.87 -4.01228 2.31453 0
M  V30 5937 C 588.605 -4.90855 2.96393 0
M  V30 5938 N 588.101 -5.85416 3.70486 0
M  V30 5939 N 589.894 -4.84063 2.85726 0
M  V30 5940 H 582.045 -1.10396 1.81456 0
M  V30 5941 H 584.308 -0.54507 0.775631 0
M  V30 5942 H 584.014 -2.47734 2.49641 0
M  V30 5943 H 583.888 -3.59309 1.14792 0
M  V30 5944 H 586.275 -2.9212 0.41831 0
M  V30 5945 H 586.356 -1.8181 1.79941 0
M  V30 5946 H 586 -3.79748 3.37274 0
M  V30 5947 H 585.93 -4.88598 1.96417 0
M  V30 5948 H 588.421 -3.3357 1.77593 0
M  V30 5949 H 588.734 -6.50525 4.17178 0
M  V30 5950 H 587.079 -5.85409 3.74594 0
M  V30 5951 H 590.27 -4.09163 2.27384 0
M  V30 5952 H 590.443 -5.53708 3.36617 0
M  V30 5953 N 583.85 -0.624285 -1.44708 0
M  V30 5954 C 585.26 -0.2092 -1.85524 0
M  V30 5955 C 585.611 1.23783 -1.52225 0
M  V30 5956 O 584.736 1.94089 -0.956986 0
M  V30 5957 C 585.332 -0.372897 -3.36742 0
M  V30 5958 C 583.891 -0.012374 -3.76398 0
M  V30 5959 C 583.038 -0.68951 -2.68591 0
M  V30 5960 H 585.989 -0.829894 -1.35272 0
M  V30 5961 H 586.01 0.390134 -3.78495 0
M  V30 5962 H 585.522 -1.42615 -3.60947 0
M  V30 5963 H 583.623 1.03941 -3.57809 0
M  V30 5964 H 583.736 -0.417663 -4.77276 0
M  V30 5965 H 582.1 -0.125484 -2.54391 0
M  V30 5966 H 582.883 -1.74522 -2.9563 0
M  V30 5967 N 585.328 1.53329 -0.364422 0
M  V30 5968 C 586.258 2.28627 0.474543 0
M  V30 5969 C 587.239 1.31009 1.08492 0
M  V30 5970 O 588.424 1.59878 1.10239 0
M  V30 5971 C 585.554 3.07465 1.61501 0
M  V30 5972 C 584.508 4.1276 1.13194 0
M  V30 5973 C 583.834 4.79674 2.36255 0
M  V30 5974 C 585.134 5.21847 0.217507 0
M  V30 5975 H 586.828 2.99005 -0.153656 0
M  V30 5976 H 584.374 1.43803 -0.0753406 0
M  V30 5977 H 586.327 3.58889 2.20855 0
M  V30 5978 H 585.051 2.34775 2.27042 0
M  V30 5979 H 583.71 3.62281 0.56109 0
M  V30 5980 H 583.358 4.03557 3.00251 0
M  V30 5981 H 583.058 5.50827 2.04606 0
M  V30 5982 H 584.582 5.33892 2.96297 0
M  V30 5983 H 585.996 5.6878 0.718493 0
M  V30 5984 H 584.393 6.00099 -0.00806408 0
M  V30 5985 H 585.463 4.7921 -0.740653 0
M  V30 5986 N 586.806 0.0935595 1.57322 0
M  V30 5987 C 587.739 -0.902505 2.09595 0
M  V30 5988 C 588.717 -1.27732 1.00615 0
M  V30 5989 O 589.901 -1.38283 1.28102 0
M  V30 5990 C 587.028 -2.20416 2.57166 0
M  V30 5991 C 586.074 -1.97932 3.7779 0
M  V30 5992 S 586.907 -1.21873 5.21447 0
M  V30 5993 C 588.063 -2.53273 5.72367 0
M  V30 5994 H 588.296 -0.457797 2.93754 0
M  V30 5995 H 585.829 -0.119694 1.53935 0
M  V30 5996 H 587.787 -2.95217 2.85232 0
M  V30 5997 H 586.448 -2.62008 1.73235 0
M  V30 5998 H 585.641 -2.94316 4.09138 0
M  V30 5999 H 585.243 -1.3126 3.5021 0
M  V30 6000 H 587.535 -3.49256 5.8054 0
M  V30 6001 H 588.478 -2.26505 6.70896 0
M  V30 6002 H 588.886 -2.61475 5.00291 0
M  V30 6003 N 588.284 -1.56567 -0.180126 0
M  V30 6004 C 589.532 -1.81133 -0.896392 0
M  V30 6005 C 589.853 -0.669114 -1.83161 0
M  V30 6006 O 589.123 0.311616 -1.93406 0
M  V30 6007 H 587.703 -0.668172 -0.333999 0
M  V30 6008 H 590.365 -1.94048 -0.182051 0
M  V30 6009 H 589.461 -2.74854 -1.47857 0
M  V30 6010 N 589.762 0.448376 -1.51087 0
M  V30 6011 C 590.725 1.52588 -1.71025 0
M  V30 6012 C 591.725 1.49958 -0.580442 0
M  V30 6013 O 592.915 1.52176 -0.847833 0
M  V30 6014 C 590.047 2.92163 -1.75652 0
M  V30 6015 H 591.24 1.36218 -2.67179 0
M  V30 6016 H 588.793 0.676313 -1.4091 0
M  V30 6017 H 589.528 3.13951 -0.812724 0
M  V30 6018 H 589.313 2.95478 -2.57751 0
M  V30 6019 H 590.803 3.70349 -1.92953 0
M  V30 6020 N 591.24 1.41047 0.703093 0
M  V30 6021 C 592.489 1.39301 1.4587 0
M  V30 6022 C 592.802 0.00267077 1.956 0
M  V30 6023 O 594.008 -0.137414 2.71152 0
M  V30 6024 C 592.464 2.44891 2.63735 0
M  V30 6025 C 592.072 3.89796 2.20824 0
M  V30 6026 C 593.816 2.5227 3.41409 0
M  V30 6027 C 591.723 4.86955 3.35602 0
M  V30 6028 H 590.653 0.518005 0.547893 0
M  V30 6029 H 593.304 1.66839 0.764009 0
M  V30 6030 H 591.686 2.10472 3.35436 0
M  V30 6031 H 592.86 4.33424 1.56461 0
M  V30 6032 H 591.175 3.86008 1.56163 0
M  V30 6033 H 593.772 3.22044 4.26839 0
M  V30 6034 H 594.115 1.55714 3.86081 0
M  V30 6035 H 594.648 2.85742 2.7676 0
M  V30 6036 H 591.387 5.84888 2.9595 0
M  V30 6037 H 590.907 4.47982 3.98839 0
M  V30 6038 H 592.586 5.07361 4.01489 0
M  V30 6039 N 592.718 -0.936591 1.26751 0
M  V30 6040 C 593.681 -2.01752 1.08761 0
M  V30 6041 C 594.681 -1.60763 0.0344435 0
M  V30 6042 O 595.871 -1.71963 0.278258 0
M  V30 6043 C 593.003 -3.34543 0.655271 0
M  V30 6044 H 594.196 -2.19143 2.04735 0
M  V30 6045 H 591.749 -1.11618 1.09413 0
M  V30 6046 H 592.484 -3.22851 -0.30626 0
M  V30 6047 H 592.269 -3.65647 1.41578 0
M  V30 6048 H 593.759 -4.13944 0.551378 0
M  V30 6049 N 594.196 -1.08629 -1.14182 0
M  V30 6050 C 595.106 -0.730126 -2.22949 0
M  V30 6051 C 596.122 0.26436 -1.7198 0
M  V30 6052 O 597.298 0.107742 -2.01112 0
M  V30 6053 C 594.363 -0.147227 -3.46387 0
M  V30 6054 C 593.424 -1.19662 -4.12286 0
M  V30 6055 C 592.657 -0.641437 -5.29831 0
M  V30 6056 O 592.88 0.538351 -5.67854 0
M  V30 6057 O 591.814 -1.39257 -5.85569 0
M  V30 6058 H 595.64 -1.63753 -2.55771 0
M  V30 6059 H 593.225 -0.860118 -1.22157 0
M  V30 6060 H 595.107 0.174923 -4.21037 0
M  V30 6061 H 593.782 0.733304 -3.15285 0
M  V30 6062 H 592.689 -1.57133 -3.395 0
M  V30 6063 H 594.022 -2.0495 -4.475 0
M  V30 6064 N 595.674 1.31259 -0.872281 0
M  V30 6065 C 596.584 2.32221 -0.333255 0
M  V30 6066 C 597.6 1.6481 0.558013 0
M  V30 6067 O 598.776 1.96212 0.454175 0
M  V30 6068 C 595.841 3.43708 0.454479 0
M  V30 6069 C 594.902 4.26774 -0.465024 0
M  V30 6070 C 594.135 5.32937 0.28521 0
M  V30 6071 O 594.358 5.49968 1.513 0
M  V30 6072 O 593.292 6.00834 -0.358126 0
M  V30 6073 H 597.118 2.80252 -1.17016 0
M  V30 6074 H 594.703 1.352 -0.635724 0
M  V30 6075 H 596.585 4.11656 0.900963 0
M  V30 6076 H 595.26 2.97836 1.26789 0
M  V30 6077 H 594.167 3.61571 -0.960055 0
M  V30 6078 H 595.5 4.76217 -1.2441 0
M  V30 6079 N 597.152 0.631951 1.44375 0
M  V30 6080 C 598.399 0.136767 2.02038 0
M  V30 6081 C 598.727 -1.24168 1.49709 0
M  V30 6082 O 597.982 -1.83809 0.671763 0
M  V30 6083 C 598.281 0.0735861 3.57324 0
M  V30 6084 C 597.947 1.39092 4.28911 0
M  V30 6085 C 596.609 1.75171 4.48184 0
M  V30 6086 C 598.961 2.26042 4.69632 0
M  V30 6087 C 596.289 2.97907 5.05439 0
M  V30 6088 C 598.641 3.4805 5.28246 0
M  V30 6089 C 597.305 3.84351 5.45738 0
M  V30 6090 H 596.575 0.0500466 0.739308 0
M  V30 6091 H 599.222 0.818429 1.7313 0
M  V30 6092 H 597.527 -0.691449 3.8565 0
M  V30 6093 H 599.224 -0.326091 3.99672 0
M  V30 6094 H 595.814 1.10015 4.1424 0
M  V30 6095 H 599.998 1.99463 4.54454 0
M  V30 6096 H 595.254 3.26108 5.17169 0
M  V30 6097 H 599.428 4.15658 5.5875 0
M  V30 6098 H 597.055 4.79538 5.8987 0
M  V30 6099 N 598.631 -1.53133 0.372548 0
M  V30 6100 C 599.594 -2.24569 -0.458389 0
M  V30 6101 C 600.594 -1.25603 -1.00402 0
M  V30 6102 O 601.784 -1.49827 -0.888672 0
M  V30 6103 C 598.916 -2.98783 -1.6414 0
M  V30 6104 H 600.109 -2.99436 0.166799 0
M  V30 6105 H 597.662 -1.55805 0.124357 0
M  V30 6106 H 598.397 -2.28176 -2.30448 0
M  V30 6107 H 598.182 -3.71404 -1.25704 0
M  V30 6108 H 599.672 -3.53068 -2.23008 0
M  V30 6109 N 600.109 -0.101901 -1.5727 0
M  V30 6110 C 601.386 0.602832 -1.86079 0
M  V30 6111 C 601.766 1.85912 -1 0
M  V30 6112 O 601.114 2.28379 -0.0742488 0
M  V30 6113 C 601.324 0.911694 -3.36881 0
M  V30 6114 C 602.672 1.2722 -4.05093 0
M  V30 6115 O 603.696 1.0025 -3.41802 0
M  V30 6116 O 602.555 1.7776 -5.16782 0
M  V30 6117 H 599.649 0.302366 -0.769743 0
M  V30 6118 H 602.195 -0.135113 -1.69161 0
M  V30 6119 H 600.967 0.0207256 -3.91295 0
M  V30 6120 H 600.59 1.70538 -3.59169 0
M  V30 6121 N 601.587 1.56661 0.17182 0
M  V30 6122 C 602.833 1.82235 0.889845 0
M  V30 6123 C 603.166 0.679673 1.81918 0
M  V30 6124 O 602.441 -0.318404 1.91876 0
M  V30 6125 C 602.724 3.18195 1.68595 0
M  V30 6126 C 602.577 4.42989 0.779773 0
M  V30 6127 C 603.896 3.5109 2.65375 0
M  V30 6128 H 601.015 0.66291 0.322056 0
M  V30 6129 H 603.657 1.89358 0.15608 0
M  V30 6130 H 601.807 3.12253 2.3115 0
M  V30 6131 H 603.479 4.60997 0.16714 0
M  V30 6132 H 601.722 4.33711 0.0877964 0
M  V30 6133 H 602.393 5.3467 1.3723 0
M  V30 6134 H 604.869 3.57482 2.12946 0
M  V30 6135 H 603.745 4.47298 3.18144 0
M  V30 6136 H 604.006 2.75768 3.45549 0
M  V30 6137 N 603.065 -0.440357 1.51323 0
M  V30 6138 C 604.028 -1.51679 1.71832 0
M  V30 6139 C 605.028 -1.49648 0.588386 0
M  V30 6140 O 606.218 -1.51724 0.855891 0
M  V30 6141 C 603.35 -2.91228 1.77199 0
M  V30 6142 H 604.543 -1.34799 2.67898 0
M  V30 6143 H 602.096 -0.66883 1.41267 0
M  V30 6144 H 602.831 -3.13516 0.829363 0
M  V30 6145 H 602.616 -2.94107 2.59314 0
M  V30 6146 H 604.106 -3.69321 1.94915 0
M  V30 6147 N 604.543 -1.41418 -0.695603 0
M  V30 6148 C 605.789 -1.40982 -1.4578 0
M  V30 6149 C 606.122 -0.0187763 -1.94191 0
M  V30 6150 O 605.397 0.95346 -1.69527 0
M  V30 6151 C 605.68 -2.41657 -2.66972 0
M  V30 6152 C 605.533 -3.89869 -2.24327 0
M  V30 6153 C 606.852 -2.39589 -3.69168 0
M  V30 6154 H 603.971 -0.513405 -0.528757 0
M  V30 6155 H 606.613 -1.72693 -0.792275 0
M  V30 6156 H 604.763 -2.14746 -3.23754 0
M  V30 6157 H 606.435 -4.27683 -1.72872 0
M  V30 6158 H 604.678 -4.04737 -1.56111 0
M  V30 6159 H 605.349 -4.55857 -3.11285 0
M  V30 6160 H 607.825 -2.63471 -3.2206 0
M  V30 6161 H 606.701 -3.12044 -4.51575 0
M  V30 6162 H 606.962 -1.41447 -4.18862 0
M  V30 6163 N 606.021 0.929856 -1.27246 0
M  V30 6164 C 607.267 1.6798 -1.13625 0
M  V30 6165 C 607.6 1.91586 0.317589 0
M  V30 6166 O 606.875 1.50467 1.23247 0
M  V30 6167 C 607.158 3.04766 -1.91806 0
M  V30 6168 C 607.011 2.88415 -3.45162 0
M  V30 6169 C 608.33 4.05063 -1.72082 0
M  V30 6170 H 605.449 0.609632 -0.414147 0
M  V30 6171 H 608.091 1.0792 -1.56376 0
M  V30 6172 H 606.241 3.56034 -1.55474 0
M  V30 6173 H 607.913 2.44282 -3.91311 0
M  V30 6174 H 606.156 2.23802 -3.71611 0
M  V30 6175 H 606.827 3.85482 -3.95105 0
M  V30 6176 H 609.303 3.62798 -2.03757 0
M  V30 6177 H 608.179 4.98765 -2.29182 0
M  V30 6178 H 608.44 4.37021 -0.668206 0
M  V30 6179 N 607.499 1.09233 1.13605 0
M  V30 6180 C 608.727 0.848908 1.88683 0
M  V30 6181 C 609.142 -0.599667 1.79024 0
M  V30 6182 O 608.499 -1.41265 1.15544 0
M  V30 6183 C 608.55 1.27273 3.38355 0
M  V30 6184 O 608.271 2.66449 3.47759 0
M  V30 6185 C 609.772 1.0614 4.30406 0
M  V30 6186 H 606.992 0.305549 0.597395 0
M  V30 6187 H 609.536 1.4538 1.43823 0
M  V30 6188 H 607.691 0.711776 3.80805 0
M  V30 6189 H 608.105 2.84264 4.40788 0
M  V30 6190 H 609.579 1.40725 5.33761 0
M  V30 6191 H 610.056 -0.000960332 4.392 0
M  V30 6192 H 610.662 1.60821 3.93722 0
M  V30 6193 N 608.977 -1.30795 0.87923 0
M  V30 6194 C 610.254 -1.91145 0.415086 0
M  V30 6195 C 610.634 -1.7995 -1.10368 0
M  V30 6196 O 609.982 -1.21305 -1.93642 0
M  V30 6197 C 610.192 -3.37014 0.906778 0
M  V30 6198 C 611.54 -4.14101 0.938358 0
M  V30 6199 O 612.564 -3.45834 0.853053 0
M  V30 6200 O 611.423 -5.36054 1.06342 0
M  V30 6201 H 608.517 -0.81736 0.125905 0
M  V30 6202 H 611.063 -1.39401 0.967753 0
M  V30 6203 H 609.835 -3.3922 1.95053 0
M  V30 6204 H 609.458 -3.96204 0.332948 0
M  V30 6205 N 610.455 -0.639598 -1.44038 0
M  V30 6206 C 611.732 -0.078012 -1.95444 0
M  V30 6207 C 612.112 1.39847 -1.58133 0
M  V30 6208 O 611.46 2.11714 -0.859614 0
M  V30 6209 C 611.67 -0.309832 -3.47622 0
M  V30 6210 C 613.018 -0.207521 -4.24093 0
M  V30 6211 O 614.042 -0.241653 -3.55379 0
M  V30 6212 O 612.901 -0.119641 -5.46369 0
M  V30 6213 H 609.995 0.0174534 -0.826816 0
M  V30 6214 H 612.541 -0.711891 -1.54046 0
M  V30 6215 H 611.313 -1.33401 -3.67858 0
M  V30 6216 H 610.936 0.357777 -3.95987 0
M  V30 6217 N 611.933 1.52934 -0.380664 0
M  V30 6218 C 612.881 2.27727 0.47361 0
M  V30 6219 C 613.875 1.31288 1.0705 0
M  V30 6220 O 615.081 1.4886 1.01197 0
M  V30 6221 H 611.456 0.732189 0.171475 0
M  V30 6222 H 613.427 2.97864 -0.178785 0
M  V30 6223 C 612.176 3.0904 1.59341 0
M  V30 6224 H 611.499 3.831 1.14343 0
M  V30 6225 H 612.939 3.64527 2.16555 0
M  V30 6226 C 611.398 2.20813 2.54447 0
M  V30 6227 O 611.928 1.82907 3.57642 0
M  V30 6228 N 610.134 1.85145 2.23986 0
M  V30 6229 H 609.681 2.16169 1.40103 0
M  V30 6230 H 609.639 1.26402 2.87871 0
M  V30 6231 N 613.412 0.11024 1.57214 0
M  V30 6232 C 614.823 -0.416527 1.81994 0
M  V30 6233 C 615.174 -1.67183 1.02686 0
M  V30 6234 O 614.299 -2.14823 0.260782 0
M  V30 6235 C 614.894 -0.762466 3.30109 0
M  V30 6236 C 613.453 -1.23391 3.556 0
M  V30 6237 C 612.6 -0.238166 2.76275 0
M  V30 6238 H 615.551 0.335491 1.55113 0
M  V30 6239 H 615.572 -1.62068 3.44259 0
M  V30 6240 H 615.084 0.151346 3.87805 0
M  V30 6241 H 613.185 -2.16492 3.03253 0
M  V30 6242 H 613.298 -1.18528 4.64207 0
M  V30 6243 H 611.662 -0.723421 2.4421 0
M  V30 6244 H 612.445 0.668591 3.36727 0
M  V30 6245 N 614.89 -1.56749 -0.16351 0
M  V30 6246 C 616.306 -1.51043 -0.515567 0
M  V30 6247 C 616.506 -0.815855 -1.84245 0
M  V30 6248 O 615.562 -0.379477 -2.49632 0
M  V30 6249 C 616.875 -2.95791 -0.541114 0
M  V30 6250 C 618.423 -3.0664 -0.627776 0
M  V30 6251 C 618.898 -4.52861 -0.684141 0
M  V30 6252 N 620.389 -4.5714 -0.746818 0
M  V30 6253 C 621.124 -5.67634 -0.811137 0
M  V30 6254 N 620.62 -6.8774 -0.835811 0
M  V30 6255 N 622.413 -5.55624 -0.850756 0
M  V30 6256 H 614.564 -2.00307 0.70645 0
M  V30 6257 H 616.827 -0.912876 0.255659 0
M  V30 6258 H 616.533 -3.49797 0.365329 0
M  V30 6259 H 616.407 -3.50858 -1.38487 0
M  V30 6260 H 618.794 -2.52663 -1.52464 0
M  V30 6261 H 618.875 -2.54645 0.242805 0
M  V30 6262 H 618.519 -5.07472 0.2085 0
M  V30 6263 H 618.449 -5.02621 -1.57098 0
M  V30 6264 H 620.94 -3.70669 -0.735717 0
M  V30 6265 H 621.253 -7.67701 -0.886279 0
M  V30 6266 H 619.598 -6.90334 -0.803958 0
M  V30 6267 H 622.789 -4.60709 -0.828535 0
M  V30 6268 H 622.962 -6.41756 -0.897418 0
M  V30 6269 N 616.368 0.432326 -1.51554 0
M  V30 6270 C 617.596 1.20364 -1.68286 0
M  V30 6271 C 618.011 1.84888 -0.38233 0
M  V30 6272 O 617.368 1.70924 0.639627 0
M  V30 6273 C 617.419 2.28398 -2.80208 0
M  V30 6274 O 617.14 1.66512 -4.05223 0
M  V30 6275 C 618.641 3.18584 -3.08251 0
M  V30 6276 H 615.861 0.36259 -0.564596 0
M  V30 6277 H 618.405 0.511647 -1.97996 0
M  V30 6278 H 616.56 2.93305 -2.53083 0
M  V30 6279 H 616.974 2.37951 -4.67418 0
M  V30 6280 H 618.448 3.90511 -3.90135 0
M  V30 6281 H 618.925 3.79628 -2.2086 0
M  V30 6282 H 619.531 2.59372 -3.37055 0
M  V30 6283 N 617.846 1.41785 0.688094 0
M  V30 6284 C 618.756 1.46596 1.83158 0
M  V30 6285 C 619.772 0.355862 1.70322 0
M  V30 6286 O 620.948 0.604737 1.92106 0
M  V30 6287 C 618.013 1.35322 3.192 0
M  V30 6288 C 617.074 2.56711 3.4409 0
M  V30 6289 C 616.307 2.45965 4.73642 0
M  V30 6290 O 616.53 1.48827 5.50642 0
M  V30 6291 O 615.464 3.35859 4.99482 0
M  V30 6292 H 619.29 2.43083 1.82056 0
M  V30 6293 H 616.875 1.23404 0.842126 0
M  V30 6294 H 618.757 1.31347 4.00407 0
M  V30 6295 H 617.432 0.419536 3.2097 0
M  V30 6296 H 616.339 2.66262 2.62784 0
M  V30 6297 H 617.672 3.48933 3.47141 0
M  V30 6298 N 619.324 -0.923095 1.27737 0
M  V30 6299 C 620.234 -2.05765 1.12685 0
M  V30 6300 C 621.25 -1.73911 0.0557197 0
M  V30 6301 O 622.426 -1.99674 0.263137 0
M  V30 6302 C 619.491 -3.37804 0.780363 0
M  V30 6303 C 618.552 -3.83326 1.93286 0
M  V30 6304 C 617.785 -5.09064 1.60281 0
M  V30 6305 O 618.008 -5.6809 0.512828 0
M  V30 6306 O 616.942 -5.50071 2.44347 0
M  V30 6307 H 620.768 -2.21378 2.07907 0
M  V30 6308 H 618.353 -1.04299 1.06968 0
M  V30 6309 H 620.235 -4.17097 0.600668 0
M  V30 6310 H 618.91 -3.23387 -0.142291 0
M  V30 6311 H 617.817 -3.049 2.16764 0
M  V30 6312 H 619.15 -4.02292 2.83588 0
M  V30 6313 N 620.802 -1.09834 -1.13024 0
M  V30 6314 C 622.213 -0.855651 -1.65938 0
M  V30 6315 C 622.564 0.615159 -1.86307 0
M  V30 6316 O 621.689 1.47335 -1.58497 0
M  V30 6317 C 622.284 -1.5467 -3.01434 0
M  V30 6318 C 620.843 -1.35088 -3.51323 0
M  V30 6319 C 619.99 -1.6001 -2.26478 0
M  V30 6320 H 622.941 -1.25691 -0.968889 0
M  V30 6321 H 622.962 -0.982179 -3.67605 0
M  V30 6322 H 622.474 -2.61715 -2.86578 0
M  V30 6323 H 620.575 -0.30179 -3.71376 0
M  V30 6324 H 620.688 -2.0886 -4.31178 0
M  V30 6325 H 619.052 -1.02246 -2.33276 0
M  V30 6326 H 619.835 -2.68293 -2.14182 0
M  V30 6327 N 622.28 1.30327 -0.886154 0
M  V30 6328 C 623.696 1.48676 -0.580323 0
M  V30 6329 C 623.896 1.81189 0.881639 0
M  V30 6330 O 622.952 1.90021 1.66278 0
M  V30 6331 C 624.265 2.60932 -1.49449 0
M  V30 6332 C 625.813 2.74812 -1.49824 0
M  V30 6333 C 626.288 3.90183 -2.39836 0
M  V30 6334 N 627.779 3.97495 -2.37806 0
M  V30 6335 C 628.514 4.86078 -3.04165 0
M  V30 6336 N 628.01 5.79448 -3.79753 0
M  V30 6337 N 629.803 4.79456 -2.93391 0
M  V30 6338 H 621.954 1.07495 -1.8319 0
M  V30 6339 H 624.217 0.532661 -0.784204 0
M  V30 6340 H 623.923 2.43731 -2.5355 0
M  V30 6341 H 623.797 3.57437 -1.20494 0
M  V30 6342 H 626.184 2.91418 -0.464731 0
M  V30 6343 H 626.265 1.78924 -1.82811 0
M  V30 6344 H 625.909 3.74334 -3.43273 0
M  V30 6345 H 625.839 4.85411 -2.04166 0
M  V30 6346 H 628.33 3.30703 -1.82877 0
M  V30 6347 H 628.643 6.43805 -4.27475 0
M  V30 6348 H 626.988 5.79376 -3.8386 0
M  V30 6349 H 630.179 4.05494 -2.33864 0
M  V30 6350 H 630.352 5.48283 -3.45383 0
M  V30 6351 N 623.758 0.647228 1.43697 0
M  V30 6352 C 624.721 -0.0385101 2.29168 0
M  V30 6353 C 625.721 -0.756487 1.41894 0
M  V30 6354 O 626.911 -0.598641 1.63591 0
M  V30 6355 C 624.043 -1.06524 3.23829 0
M  V30 6356 H 625.236 0.713445 2.9129 0
M  V30 6357 H 622.789 0.408153 1.50877 0
M  V30 6358 H 623.524 -1.84664 2.66589 0
M  V30 6359 H 623.309 -0.554147 3.88164 0
M  V30 6360 H 624.799 -1.54432 3.87996 0
M  V30 6361 N 625.236 -1.5273 0.388769 0
M  V30 6362 C 626.485 -2.00757 -0.194833 0
M  V30 6363 C 626.798 -1.27951 -1.47946 0
M  V30 6364 O 628.004 -1.66686 -2.14308 0
M  V30 6365 C 626.46 -3.57695 -0.397762 0
M  V30 6366 C 626.068 -4.394 0.873583 0
M  V30 6367 C 627.812 -4.14012 -0.937759 0
M  V30 6368 C 625.719 -5.87938 0.638962 0
M  V30 6369 H 624.649 -0.750101 -0.0765845 0
M  V30 6370 H 627.3 -1.76239 0.511086 0
M  V30 6371 H 625.682 -3.7846 -1.16552 0
M  V30 6372 H 626.856 -4.30403 1.64591 0
M  V30 6373 H 625.171 -3.94301 1.33849 0
M  V30 6374 H 627.768 -5.22645 -1.12899 0
M  V30 6375 H 628.111 -3.7007 -1.90666 0
M  V30 6376 H 628.644 -3.97137 -0.229588 0
M  V30 6377 H 625.383 -6.36202 1.57885 0
M  V30 6378 H 624.903 -5.99726 -0.094443 0
M  V30 6379 H 626.582 -6.46423 0.273299 0
M  V30 6380 N 626.714 -0.118576 -1.57153 0
M  V30 6381 C 627.963 0.539339 -1.94355 0
M  V30 6382 C 628.276 1.67858 -1.00415 0
M  V30 6383 O 629.482 2.39922 -1.27081 0
M  V30 6384 C 627.938 1.01082 -3.45414 0
M  V30 6385 C 627.546 -0.0999402 -4.47889 0
M  V30 6386 C 629.29 1.64013 -3.91535 0
M  V30 6387 C 627.197 0.388212 -5.90124 0
M  V30 6388 H 626.127 0.205247 -0.725527 0
M  V30 6389 H 628.778 -0.19836 -1.82425 0
M  V30 6390 H 627.16 1.80292 -3.52577 0
M  V30 6391 H 628.334 -0.876189 -4.52393 0
M  V30 6392 H 626.649 -0.635885 -4.11516 0
M  V30 6393 H 629.246 2.01649 -4.95219 0
M  V30 6394 H 629.589 2.51836 -3.31488 0
M  V30 6395 H 630.122 0.913439 -3.87171 0
M  V30 6396 H 626.861 -0.453963 -6.53926 0
M  V30 6397 H 626.381 1.13095 -5.89041 0
M  V30 6398 H 628.06 0.849574 -6.41398 0
M  V30 6399 N 628.193 1.56834 0.155195 0
M  V30 6400 C 629.141 1.98584 1.21107 0
M  V30 6401 C 630.135 0.876987 1.44932 0
M  V30 6402 O 631.341 1.06215 1.45322 0
M  V30 6403 H 627.716 0.632039 0.407469 0
M  V30 6404 H 629.687 2.86561 0.832195 0
M  V30 6405 C 628.436 2.37555 2.53895 0
M  V30 6406 H 627.759 3.22428 2.3639 0
M  V30 6407 H 629.199 2.70598 3.26424 0
M  V30 6408 C 627.658 1.22507 3.13837 0
M  V30 6409 O 628.188 0.521388 3.98302 0
M  V30 6410 N 626.394 0.991444 2.73164 0
M  V30 6411 H 625.941 1.56544 2.04577 0
M  V30 6412 H 625.899 0.223546 3.13604 0
M  V30 6413 N 629.671 -0.424282 1.51781 0
M  V30 6414 C 630.948 -1.18464 1.55646 0
M  V30 6415 C 631.328 -2.08529 0.328438 0
M  V30 6416 O 630.676 -2.17969 -0.685693 0
M  V30 6417 C 630.886 -1.97514 2.87731 0
M  V30 6418 C 632.234 -2.54106 3.40169 0
M  V30 6419 O 633.258 -2.07711 2.89369 0
M  V30 6420 O 632.117 -3.38759 4.28841 0
M  V30 6421 H 629.211 -0.540055 0.626314 0
M  V30 6422 H 631.757 -0.432291 1.64102 0
M  V30 6423 H 630.529 -1.31444 3.68562 0
M  V30 6424 H 630.152 -2.79787 2.82498 0
M  V30 6425 N 631.149 -1.42148 -0.680565 0
M  V30 6426 C 632.398 -1.41604 -1.43636 0
M  V30 6427 C 632.711 -0.0337887 -1.95571 0
M  V30 6428 O 633.917 0.0942588 -2.71336 0
M  V30 6429 C 632.373 -2.49056 -2.59806 0
M  V30 6430 C 631.981 -3.9326 -2.14594 0
M  V30 6431 C 633.725 -2.5767 -3.37352 0
M  V30 6432 C 631.632 -4.92232 -3.27813 0
M  V30 6433 H 630.562 -0.526656 -0.539583 0
M  V30 6434 H 633.213 -1.68033 -0.737369 0
M  V30 6435 H 631.595 -2.15782 -3.32045 0
M  V30 6436 H 632.769 -4.35858 -1.49546 0
M  V30 6437 H 631.084 -3.88443 -1.50002 0
M  V30 6438 H 633.681 -3.28794 -4.21662 0
M  V30 6439 H 634.024 -1.61837 -3.83555 0
M  V30 6440 H 634.557 -2.90109 -2.72179 0
M  V30 6441 H 631.296 -5.89522 -2.86607 0
M  V30 6442 H 630.816 -4.5427 -3.91661 0
M  V30 6443 H 632.495 -5.13684 -3.93367 0
M  V30 6444 N 632.627 0.916307 -1.28225 0
M  V30 6445 C 633.557 2.0352 -1.14464 0
M  V30 6446 C 634.538 1.70045 -0.0430844 0
M  V30 6447 O 635.723 1.92954 -0.219619 0
M  V30 6448 C 632.853 3.37889 -0.803027 0
M  V30 6449 C 631.807 3.85516 -1.85908 0
M  V30 6450 C 631.133 5.1682 -1.37116 0
M  V30 6451 C 632.433 4.07655 -3.26519 0
M  V30 6452 H 634.127 2.1529 -2.08064 0
M  V30 6453 H 631.673 1.03446 -1.00174 0
M  V30 6454 H 633.626 4.15654 -0.693537 0
M  V30 6455 H 632.35 3.26164 0.168674 0
M  V30 6456 H 631.009 3.09953 -1.95767 0
M  V30 6457 H 630.657 5.01497 -0.38859 0
M  V30 6458 H 630.357 5.49657 -2.07728 0
M  V30 6459 H 631.881 5.97143 -1.27484 0
M  V30 6460 H 633.295 4.75953 -3.19596 0
M  V30 6461 H 631.692 4.51818 -3.94943 0
M  V30 6462 H 632.762 3.12553 -3.70727 0
M  V30 6463 N 634.105 1.10431 1.1244 0
M  V30 6464 C 635.068 0.756542 2.16354 0
M  V30 6465 C 636.068 -0.21899 1.59302 0
M  V30 6466 O 637.258 0.00415969 1.742 0
M  V30 6467 C 634.39 0.120612 3.40687 0
M  V30 6468 H 635.583 1.67696 2.48632 0
M  V30 6469 H 633.136 0.904832 1.27446 0
M  V30 6470 H 633.871 -0.810536 3.14008 0
M  V30 6471 H 633.656 0.822693 3.83372 0
M  V30 6472 H 635.146 -0.106945 4.17463 0
M  V30 6473 N 635.583 -1.29855 0.893053 0
M  V30 6474 C 636.831 -1.9544 0.514566 0
M  V30 6475 C 637.152 -1.70795 -0.940959 0
M  V30 6476 O 636.422 -1.03601 -1.66264 0
M  V30 6477 H 635.002 -0.723137 0.187302 0
M  V30 6478 H 637.664 -1.58234 1.13789 0
M  V30 6479 H 636.76 -3.04341 0.691581 0
M  V30 6480 N 637.061 -0.65484 -1.43351 0
M  V30 6481 C 637.994 0.0855537 -2.2804 0
M  V30 6482 C 638.972 0.828301 -1.39921 0
M  V30 6483 O 640.156 0.827539 -1.69364 0
M  V30 6484 C 637.283 1.12792 -3.19368 0
M  V30 6485 C 636.329 0.483037 -4.23756 0
M  V30 6486 S 637.162 -0.744605 -5.30298 0
M  V30 6487 C 638.318 0.297187 -6.25194 0
M  V30 6488 H 638.551 -0.632831 -2.90487 0
M  V30 6489 H 636.084 -0.44373 -1.47886 0
M  V30 6490 H 638.042 1.7243 -3.72529 0
M  V30 6491 H 636.703 1.81863 -2.56095 0
M  V30 6492 H 635.896 1.26888 -4.87766 0
M  V30 6493 H 635.498 -0.0392713 -3.73979 0
M  V30 6494 H 637.79 1.1629 -6.67445 0
M  V30 6495 H 638.733 -0.30793 -7.0743 0
M  V30 6496 H 639.141 0.633721 -5.60932 0
M  V30 6497 N 638.539 1.52521 -0.396863 0
M  V30 6498 C 639.469 2.29582 0.425941 0
M  V30 6499 C 640.45 1.33281 1.05689 0
M  V30 6500 O 641.635 1.62181 1.06823 0
M  V30 6501 C 638.765 3.10821 1.54943 0
M  V30 6502 C 637.719 4.15069 1.04413 0
M  V30 6503 C 637.045 4.84578 2.26028 0
M  V30 6504 C 638.345 5.22191 0.106767 0
M  V30 6505 H 640.039 2.98612 -0.217045 0
M  V30 6506 H 637.585 1.43611 -0.105826 0
M  V30 6507 H 639.538 3.63492 2.13193 0
M  V30 6508 H 638.262 2.39538 2.22011 0
M  V30 6509 H 636.921 3.63389 0.484118 0
M  V30 6510 H 636.569 4.09835 2.91623 0
M  V30 6511 H 636.269 5.55043 1.92876 0
M  V30 6512 H 637.793 5.40056 2.84906 0
M  V30 6513 H 639.207 5.70176 0.597685 0
M  V30 6514 H 637.604 5.99947 -0.135352 0
M  V30 6515 H 638.674 4.77531 -0.842134 0
M  V30 6516 N 640.017 0.126909 1.57088 0
M  V30 6517 C 641.294 -0.573152 1.87014 0
M  V30 6518 C 641.674 -1.84297 1.02945 0
M  V30 6519 O 641.022 -2.28232 0.110573 0
M  V30 6520 C 641.232 -0.857984 3.38289 0
M  V30 6521 C 642.58 -1.20759 4.07066 0
M  V30 6522 O 643.604 -0.947992 3.43353 0
M  V30 6523 O 642.463 -1.69516 5.19545 0
M  V30 6524 H 639.557 -0.290082 0.774456 0
M  V30 6525 H 642.103 0.162008 1.68925 0
M  V30 6526 H 640.875 0.0415286 3.91278 0
M  V30 6527 H 640.498 -1.64803 3.61837 0
M  V30 6528 N 641.495 -1.56914 -0.146875 0
M  V30 6529 C 642.458 -1.97368 -1.16526 0
M  V30 6530 C 643.458 -0.860223 -1.35856 0
M  V30 6531 O 644.648 -1.12684 -1.32846 0
M  V30 6532 C 641.78 -2.28974 -2.52555 0
M  V30 6533 H 642.973 -2.88523 -0.818209 0
M  V30 6534 H 640.526 -1.5135 -0.390221 0
M  V30 6535 H 641.261 -1.40611 -2.92231 0
M  V30 6536 H 641.046 -3.10157 -2.39886 0
M  V30 6537 H 642.536 -2.61109 -3.25902 0
M  V30 6538 N 642.974 0.416227 -1.52004 0
M  V30 6539 C 644.222 1.16153 -1.65387 0
M  V30 6540 C 644.543 1.91208 -0.382669 0
M  V30 6541 O 643.813 1.86413 0.602231 0
M  V30 6542 H 642.393 0.431765 -0.60958 0
M  V30 6543 H 645.055 0.475151 -1.89019 0
M  V30 6544 H 644.151 1.87952 -2.4916 0
M  V30 6545 N 644.452 1.42507 0.673017 0
M  V30 6546 C 645.402 1.4258 1.77919 0
M  V30 6547 C 646.386 0.296885 1.58137 0
M  V30 6548 O 647.578 0.539243 1.68586 0
M  V30 6549 C 644.707 1.33238 3.1639 0
M  V30 6550 C 643.793 2.51081 3.41788 0
M  V30 6551 N 644.184 3.76498 3.37761 0
M  V30 6552 C 642.482 2.4538 3.72431 0
M  V30 6553 C 643.183 4.54784 3.62693 0
M  V30 6554 N 642.159 3.8522 3.83544 0
M  V30 6555 H 645.961 2.37442 1.73201 0
M  V30 6556 H 643.475 1.36881 0.873924 0
M  V30 6557 H 645.472 1.31372 3.9566 0
M  V30 6558 H 644.132 0.393794 3.22303 0
M  V30 6559 H 645.143 4.09068 3.17622 0
M  V30 6560 H 641.82 1.60109 3.85579 0
M  V30 6561 H 643.21 5.63774 3.65525 0
M  V30 6562 N 645.93 -0.909495 1.28709 0
M  V30 6563 C 646.893 -1.99399 1.13016 0
M  V30 6564 C 647.893 -1.60654 0.068536 0
M  V30 6565 O 649.083 -1.71334 0.314671 0
M  V30 6566 C 646.215 -3.33078 0.726085 0
M  V30 6567 H 647.408 -2.14751 2.09338 0
M  V30 6568 H 644.961 -1.09272 1.11756 0
M  V30 6569 H 645.696 -3.23428 -0.23771 0
M  V30 6570 H 645.481 -3.62562 1.49302 0
M  V30 6571 H 646.971 -4.12681 0.639058 0
M  V30 6572 N 647.408 -1.11026 -1.11852 0
M  V30 6573 C 648.355 -0.764662 -2.17765 0
M  V30 6574 C 649.325 0.261854 -1.64023 0
M  V30 6575 O 650.51 0.139748 -1.90288 0
M  V30 6576 C 647.65 -0.209317 -3.44465 0
M  V30 6577 C 646.763 -1.29187 -4.12231 0
M  V30 6578 C 645.898 -0.697523 -5.266 0
M  V30 6579 C 644.937 -1.76023 -5.86244 0
M  V30 6580 N 644.074 -1.18569 -6.92016 0
M  V30 6581 H 648.914 -1.67202 -2.46673 0
M  V30 6582 H 646.451 -0.835065 -1.21099 0
M  V30 6583 H 648.409 0.130599 -4.16996 0
M  V30 6584 H 647.039 0.661251 -3.15955 0
M  V30 6585 H 646.091 -1.74881 -3.37818 0
M  V30 6586 H 647.403 -2.09607 -4.52622 0
M  V30 6587 H 646.557 -0.307412 -6.05921 0
M  V30 6588 H 645.296 0.138044 -4.87505 0
M  V30 6589 H 644.301 -2.1597 -5.05606 0
M  V30 6590 H 645.526 -2.59875 -6.27409 0
M  V30 6591 H 643.472 -0.371695 -6.54946 0
M  V30 6592 H 643.389 -1.92666 -7.31038 0
M  V30 6593 H 644.657 -0.82233 -7.7515 0
M  V30 6594 N 648.886 1.2938 -0.899927 0
M  V30 6595 C 650.132 1.9584 -0.526742 0
M  V30 6596 C 650.465 1.70774 0.924651 0
M  V30 6597 O 649.74 1.02084 1.65557 0
M  V30 6598 C 650.023 3.50638 -0.820062 0
M  V30 6599 C 649.876 3.85161 -2.32317 0
M  V30 6600 C 651.195 4.3903 -0.30671 0
M  V30 6601 H 648.314 0.711322 -0.192848 0
M  V30 6602 H 650.956 1.52992 -1.12665 0
M  V30 6603 H 649.106 3.87265 -0.309491 0
M  V30 6604 H 650.778 3.58477 -2.9033 0
M  V30 6605 H 649.021 3.32696 -2.78381 0
M  V30 6606 H 649.692 4.93204 -2.47898 0
M  V30 6607 H 652.168 4.09396 -0.743908 0
M  V30 6608 H 651.044 5.46226 -0.541144 0
M  V30 6609 H 651.305 4.34937 0.792588 0
M  V30 6610 N 650.364 0.662433 1.43002 0
M  V30 6611 C 651.297 -0.073459 2.28082 0
M  V30 6612 C 652.275 -0.820869 1.40358 0
M  V30 6613 O 653.459 -0.818545 1.698 0
M  V30 6614 C 650.586 -1.11097 3.19961 0
M  V30 6615 C 649.632 -0.460557 4.24006 0
M  V30 6616 S 650.465 0.772717 5.29896 0
M  V30 6617 C 651.621 -0.264028 6.25343 0
M  V30 6618 H 651.854 0.648227 2.90147 0
M  V30 6619 H 649.387 0.451566 1.47649 0
M  V30 6620 H 651.345 -1.70452 3.73439 0
M  V30 6621 H 650.006 -1.80503 2.57056 0
M  V30 6622 H 649.199 -1.24299 4.88432 0
M  V30 6623 H 648.801 0.0591038 3.73953 0
M  V30 6624 H 651.093 -1.12748 6.68052 0
M  V30 6625 H 652.036 0.345443 7.07257 0
M  V30 6626 H 652.444 -0.603964 5.6126 0
M  V30 6627 N 651.842 -1.52309 0.404946 0
M  V30 6628 C 652.752 -2.30634 -0.429555 0
M  V30 6629 C 653.768 -1.38187 -1.05737 0
M  V30 6630 O 654.944 -1.71261 -1.05979 0
M  V30 6631 C 652.009 -3.10947 -1.53339 0
M  V30 6632 C 651.07 -4.19126 -0.929065 0
M  V30 6633 C 650.303 -4.95601 -1.9803 0
M  V30 6634 O 650.526 -4.72331 -3.1978 0
M  V30 6635 O 649.46 -5.80551 -1.58886 0
M  V30 6636 H 653.286 -3.0298 0.208963 0
M  V30 6637 H 650.871 -1.4845 0.168255 0
M  V30 6638 H 652.753 -3.60974 -2.1743 0
M  V30 6639 H 651.428 -2.41399 -2.15658 0
M  V30 6640 H 650.335 -3.73257 -0.250982 0
M  V30 6641 H 651.668 -4.90955 -0.349855 0
M  V30 6642 N 653.32 -0.135238 -1.57019 0
M  V30 6643 C 654.568 0.51777 -1.95355 0
M  V30 6644 C 654.889 1.6617 -1.02042 0
M  V30 6645 O 654.159 1.95738 -0.0797343 0
M  V30 6646 H 652.739 0.194264 -0.721298 0
M  V30 6647 H 655.401 -0.207983 -1.93787 0
M  V30 6648 H 654.497 0.901675 -2.98791 0
M  V30 6649 N 654.798 1.5699 0.138552 0
M  V30 6650 C 656.214 1.51844 0.491472 0
M  V30 6651 C 656.414 0.845063 1.82923 0
M  V30 6652 O 655.47 0.419143 2.48997 0
M  V30 6653 C 656.783 2.96615 0.493987 0
M  V30 6654 C 658.331 3.076 0.578913 0
M  V30 6655 C 658.806 4.53893 0.612009 0
M  V30 6656 N 660.297 4.5827 0.673997 0
M  V30 6657 C 661.032 5.68852 0.720729 0
M  V30 6658 N 660.528 6.88982 0.726292 0
M  V30 6659 N 662.321 5.56908 0.762253 0
M  V30 6660 H 654.472 1.99158 -0.738228 0
M  V30 6661 H 656.735 0.908693 -0.270149 0
M  V30 6662 H 656.441 3.49172 -0.420933 0
M  V30 6663 H 656.315 3.53017 1.32887 0
M  V30 6664 H 658.702 2.55057 1.48425 0
M  V30 6665 H 658.783 2.54227 -0.283286 0
M  V30 6666 H 658.427 5.07076 -0.289208 0
M  V30 6667 H 658.357 5.05057 1.49082 0
M  V30 6668 H 660.848 3.71793 0.676654 0
M  V30 6669 H 661.161 7.69014 0.764032 0
M  V30 6670 H 659.506 6.91526 0.69403 0
M  V30 6671 H 662.697 4.61969 0.755135 0
M  V30 6672 H 662.87 6.43102 0.795207 0
M  V30 6673 N 656.276 -0.40816 1.52223 0
M  V30 6674 C 657.239 -1.48 1.7501 0
M  V30 6675 C 658.239 -1.48367 0.619996 0
M  V30 6676 O 659.429 -1.49874 0.887881 0
M  V30 6677 C 656.561 -2.87403 1.83336 0
M  V30 6678 H 657.754 -1.29086 2.70697 0
M  V30 6679 H 655.307 -0.638715 1.42654 0
M  V30 6680 H 656.042 -3.11686 0.895677 0
M  V30 6681 H 655.827 -2.8854 2.65494 0
M  V30 6682 H 657.317 -3.65103 2.02705 0
M  V30 6683 N 657.755 -1.42862 -0.66545 0
M  V30 6684 C 658.665 -1.49491 -1.80803 0
M  V30 6685 C 659.681 -0.382914 -1.69734 0
M  V30 6686 O 660.857 -0.635223 -1.9112 0
M  V30 6687 C 657.922 -1.40383 -3.17007 0
M  V30 6688 C 656.983 -2.62152 -3.39963 0
M  V30 6689 C 656.216 -2.53469 -4.69669 0
M  V30 6690 O 656.439 -1.57568 -5.48205 0
M  V30 6691 O 655.373 -3.43763 -4.94075 0
M  V30 6692 H 659.199 -2.45949 -1.78165 0
M  V30 6693 H 656.784 -1.24728 -0.822387 0
M  V30 6694 H 658.666 -1.377 -3.98267 0
M  V30 6695 H 657.341 -0.470546 -3.20262 0
M  V30 6696 H 656.248 -2.70409 -2.58515 0
M  V30 6697 H 657.581 -3.54411 -3.41546 0
M  V30 6698 N 659.233 0.902656 -1.29189 0
M  V30 6699 C 660.196 1.98797 -1.14071 0
M  V30 6700 C 661.196 1.60615 -0.0770549 0
M  V30 6701 O 662.386 1.71165 -0.323753 0
M  V30 6702 C 659.518 3.32688 -0.743739 0
M  V30 6703 H 660.711 2.13637 -2.10473 0
M  V30 6704 H 658.264 1.08678 -1.12334 0
M  V30 6705 H 658.999 3.23549 0.220554 0
M  V30 6706 H 658.784 3.61765 -1.51223 0
M  V30 6707 H 660.274 4.12337 -0.660935 0
M  V30 6708 N 660.711 1.11618 1.11262 0
M  V30 6709 C 661.957 0.867463 1.83311 0
M  V30 6710 C 662.29 -0.605366 1.84524 0
M  V30 6711 O 661.565 -1.44704 1.29965 0
M  V30 6712 C 661.848 1.43207 3.30399 0
M  V30 6713 C 661.701 2.97265 3.3757 0
M  V30 6714 C 663.02 1.08454 4.26528 0
M  V30 6715 H 660.139 0.316578 0.665543 0
M  V30 6716 H 662.781 1.38137 1.30454 0
M  V30 6717 H 660.931 0.994982 3.75543 0
M  V30 6718 H 662.603 3.49591 3.00971 0
M  V30 6719 H 660.846 3.33237 2.77733 0
M  V30 6720 H 661.517 3.31859 4.41105 0
M  V30 6721 H 663.993 1.4619 3.89574 0
M  V30 6722 H 662.869 1.50633 5.27826 0
M  V30 6723 H 663.13 -0.00444568 4.421 0
M  V30 6724 N 662.189 -1.289 0.906776 0
M  V30 6725 C 663.417 -1.99401 0.551969 0
M  V30 6726 C 663.832 -1.67816 -0.865048 0
M  V30 6727 O 663.189 -0.927078 -1.57199 0
M  V30 6728 C 663.24 -3.53779 0.743152 0
M  V30 6729 O 662.961 -3.84248 2.1044 0
M  V30 6730 C 664.462 -4.41543 0.39424 0
M  V30 6731 H 661.682 -0.636926 0.211106 0
M  V30 6732 H 664.226 -1.64266 1.21807 0
M  V30 6733 H 662.381 -3.87201 0.124143 0
M  V30 6734 H 662.795 -4.78904 2.13895 0
M  V30 6735 H 664.269 -5.48957 0.578814 0
M  V30 6736 H 664.746 -4.34073 -0.669137 0
M  V30 6737 H 665.352 -4.13605 0.990491 0
M  V30 6738 N 663.667 -0.670007 -1.42649 0
M  V30 6739 C 664.907 -0.194106 -2.03476 0
M  V30 6740 C 665.271 1.1755 -1.51809 0
M  V30 6741 O 666.472 1.74579 -2.04391 0
M  V30 6742 C 664.743 -0.221828 -3.56711 0
M  V30 6743 S 666.302 0.183772 -4.38415 0
M  V30 6744 H 663.12 -0.0802478 -0.706457 0
M  V30 6745 H 665.722 -0.882092 -1.74469 0
M  V30 6746 H 664.426 -1.22107 -3.91814 0
M  V30 6747 H 663.957 0.486149 -3.90385 0
M  V30 6748 H 665.972 1.41839 -4.75496 0
M  V30 6749 N 665.145 1.52092 -0.413018 0
M  V30 6750 C 666.108 2.25706 0.398687 0
M  V30 6751 C 667.108 1.28221 0.970368 0
M  V30 6752 O 668.298 1.52131 0.848635 0
M  V30 6753 C 665.43 3.03029 1.5616 0
M  V30 6754 H 666.623 2.98888 -0.246131 0
M  V30 6755 H 664.176 1.5542 -0.165622 0
M  V30 6756 H 664.911 2.34205 2.24317 0
M  V30 6757 H 664.696 3.74606 1.15812 0
M  V30 6758 H 666.186 3.58857 2.13569 0
M  V30 6759 N 666.623 0.143563 1.56945 0
M  V30 6760 C 667.869 -0.50916 1.96304 0
M  V30 6761 C 668.202 -1.64741 1.0283 0
M  V30 6762 O 667.477 -1.94374 0.0700361 0
M  V30 6763 C 667.76 -1.0186 3.45393 0
M  V30 6764 C 667.613 0.117923 4.49645 0
M  V30 6765 C 668.932 -1.90151 3.96901 0
M  V30 6766 H 666.051 -0.183608 0.713763 0
M  V30 6767 H 668.693 0.224095 1.88674 0
M  V30 6768 H 666.843 -1.64345 3.52027 0
M  V30 6769 H 668.515 0.754145 4.55094 0
M  V30 6770 H 666.758 0.777568 4.26774 0
M  V30 6771 H 667.429 -0.280187 5.51288 0
M  V30 6772 H 669.905 -1.375 3.92725 0
M  V30 6773 H 668.781 -2.22707 5.0169 0
M  V30 6774 H 669.042 -2.83718 3.39052 0
M  V30 6775 N 668.101 -1.57061 -0.130224 0
M  V30 6776 C 669.034 -1.94698 -1.19029 0
M  V30 6777 C 670.012 -0.815074 -1.40696 0
M  V30 6778 O 671.196 -1.07223 -1.55034 0
M  V30 6779 C 668.323 -2.23352 -2.5462 0
M  V30 6780 C 667.369 -3.45945 -2.49448 0
M  V30 6781 S 668.202 -4.98927 -1.94505 0
M  V30 6782 C 669.358 -5.30721 -3.31792 0
M  V30 6783 H 669.591 -2.84308 -0.869272 0
M  V30 6784 H 667.124 -1.50688 -0.336531 0
M  V30 6785 H 669.082 -2.40539 -3.32643 0
M  V30 6786 H 667.743 -1.34376 -2.83905 0
M  V30 6787 H 666.936 -3.63324 -3.49302 0
M  V30 6788 H 666.538 -3.28086 -1.79543 0
M  V30 6789 H 668.83 -5.25215 -4.27966 0
M  V30 6790 H 669.773 -6.32048 -3.19251 0
M  V30 6791 H 670.181 -4.5821 -3.29703 0
M  V30 6792 N 669.579 0.400081 -1.52437 0
M  V30 6793 C 670.511 1.50729 -1.72666 0
M  V30 6794 C 671.524 1.51058 -0.607075 0
M  V30 6795 O 672.713 1.5516 -0.88248 0
M  V30 6796 C 669.813 2.89604 -1.76019 0
M  V30 6797 C 668.986 3.13365 -3.05157 0
M  V30 6798 C 668.045 4.32163 -3.00203 0
M  V30 6799 O 667.071 4.29004 -3.74092 0
M  V30 6800 N 668.273 5.3776 -2.18619 0
M  V30 6801 H 671.038 1.33767 -2.68191 0
M  V30 6802 H 668.599 0.58948 -1.50787 0
M  V30 6803 H 670.591 3.67159 -1.70225 0
M  V30 6804 H 669.161 2.99979 -0.879284 0
M  V30 6805 H 668.381 2.23774 -3.24529 0
M  V30 6806 H 669.669 3.26089 -3.90568 0
M  V30 6807 H 669.067 5.43177 -1.58035 0
M  V30 6808 H 667.624 6.14023 -2.18674 0
M  V30 6809 N 671.057 1.43213 0.657864 0
M  V30 6810 C 672.02 1.47687 1.75275 0
M  V30 6811 C 673.02 0.362179 1.56668 0
M  V30 6812 O 674.21 0.623734 1.62651 0
M  V30 6813 C 671.342 1.32497 3.14098 0
M  V30 6814 H 672.535 2.4519 1.7269 0
M  V30 6815 H 670.088 1.2991 0.869087 0
M  V30 6816 H 670.823 0.359831 3.22298 0
M  V30 6817 H 670.608 2.13299 3.29008 0
M  V30 6818 H 672.098 1.38549 3.93946 0
M  V30 6819 N 672.536 -0.895792 1.29666 0
M  V30 6820 C 673.483 -2.00035 1.15129 0
M  V30 6821 C 674.453 -1.66043 0.0435819 0
M  V30 6822 O 675.638 -1.89621 0.211811 0
M  V30 6823 C 672.778 -3.34774 0.83787 0
M  V30 6824 C 671.891 -3.81525 2.0264 0
M  V30 6825 C 671.026 -5.04858 1.65201 0
M  V30 6826 C 670.065 -5.43988 2.80612 0
M  V30 6827 N 669.202 -6.58507 2.43544 0
M  V30 6828 H 674.042 -2.11802 2.09628 0
M  V30 6829 H 671.579 -1.03719 1.04311 0
M  V30 6830 H 673.537 -4.12311 0.636824 0
M  V30 6831 H 672.167 -3.22724 -0.0702314 0
M  V30 6832 H 671.219 -2.9999 2.33903 0
M  V30 6833 H 672.531 -4.06472 2.89106 0
M  V30 6834 H 671.685 -5.8999 1.41408 0
M  V30 6835 H 670.424 -4.81759 0.758893 0
M  V30 6836 H 669.429 -4.57388 3.05083 0
M  V30 6837 H 670.654 -5.69066 3.70595 0
M  V30 6838 H 668.6 -6.37004 1.56724 0
M  V30 6839 H 668.517 -6.83269 3.23542 0
M  V30 6840 H 669.785 -7.46897 2.2308 0
M  V30 6841 N 674.014 -1.12206 -1.10668 0
M  V30 6842 C 674.924 -0.800686 -2.20513 0
M  V30 6843 C 675.94 0.209512 -1.72734 0
M  V30 6844 O 677.116 0.043705 -2.01353 0
M  V30 6845 C 674.181 -0.257353 -3.45744 0
M  V30 6846 C 673.242 -1.32718 -4.0827 0
M  V30 6847 C 672.475 -0.809674 -5.27522 0
M  V30 6848 O 672.698 0.35742 -5.69279 0
M  V30 6849 O 671.632 -1.57816 -5.80842 0
M  V30 6850 H 675.458 -1.71807 -2.50432 0
M  V30 6851 H 673.043 -0.898546 -1.19359 0
M  V30 6852 H 674.925 0.0408849 -4.2138 0
M  V30 6853 H 673.6 0.632627 -3.17458 0
M  V30 6854 H 672.507 -1.67855 -3.34329 0
M  V30 6855 H 673.84 -2.19083 -4.40753 0
M  V30 6856 N 675.492 1.28418 -0.913599 0
M  V30 6857 C 676.44 2.29272 -0.392037 0
M  V30 6858 C 677.434 1.61344 0.516198 0
M  V30 6859 O 678.64 1.75557 0.39746 0
M  V30 6860 H 675.015 0.744178 -0.108178 0
M  V30 6861 H 676.986 2.70691 -1.25574 0
M  V30 6862 C 675.735 3.45905 0.352815 0
M  V30 6863 H 675.058 3.98378 -0.336848 0
M  V30 6864 H 676.498 4.18473 0.682398 0
M  V30 6865 C 674.957 2.98572 1.56065 0
M  V30 6866 O 675.487 3.01033 2.65974 0
M  V30 6867 N 673.693 2.54235 1.40759 0
M  V30 6868 H 673.24 2.52432 0.513403 0
M  V30 6869 H 673.198 2.22925 2.21702 0
M  V30 6870 N 676.97 0.677563 1.42291 0
M  V30 6871 C 678.247 0.129803 1.95169 0
M  V30 6872 C 678.627 -1.35605 1.61786 0
M  V30 6873 O 677.975 -2.09361 0.915444 0
M  V30 6874 C 678.185 0.401889 3.46678 0
M  V30 6875 C 679.533 0.319889 4.23393 0
M  V30 6876 O 680.557 0.33579 3.54614 0
M  V30 6877 O 679.416 0.264459 5.4586 0
M  V30 6878 H 676.51 0.00447433 0.826988 0
M  V30 6879 H 679.056 0.752483 1.52105 0
M  V30 6880 H 677.828 1.43108 3.64192 0
M  V30 6881 H 677.451 -0.252662 3.96796 0
M  V30 6882 N 678.448 -1.51871 0.421078 0
M  V30 6883 C 679.694 -2.02237 -0.151014 0
M  V30 6884 C 680.027 -1.30554 -1.43768 0
M  V30 6885 O 679.302 -0.41546 -1.90011 0
M  V30 6886 C 679.585 -3.5802 -0.386482 0
M  V30 6887 C 679.438 -4.40339 0.9177 0
M  V30 6888 C 680.757 -4.24444 -1.16342 0
M  V30 6889 H 677.876 -0.735062 -0.0534102 0
M  V30 6890 H 680.518 -1.81656 0.556888 0
M  V30 6891 H 678.668 -3.75688 -0.989494 0
M  V30 6892 H 680.34 -4.34357 1.55344 0
M  V30 6893 H 678.583 -4.06073 1.526 0
M  V30 6894 H 679.254 -5.47451 0.707187 0
M  V30 6895 H 681.73 -4.10948 -0.652788 0
M  V30 6896 H 680.606 -5.33358 -1.29693 0
M  V30 6897 H 680.867 -3.84204 -2.18724 0
M  V30 6898 N 679.926 -0.151884 -1.56866 0
M  V30 6899 C 681.172 0.498742 -1.96572 0
M  V30 6900 C 681.505 1.64194 -1.03702 0
M  V30 6901 O 680.78 1.94334 -0.0803432 0
M  V30 6902 C 681.063 1.00027 -3.45929 0
M  V30 6903 C 680.916 -0.141767 -4.49577 0
M  V30 6904 C 682.235 1.88044 -3.97904 0
M  V30 6905 H 679.354 0.17982 -0.714726 0
M  V30 6906 H 681.996 -0.234097 -1.88552 0
M  V30 6907 H 680.146 1.62476 -3.52894 0
M  V30 6908 H 681.818 -0.778269 -4.54687 0
M  V30 6909 H 680.061 -0.80019 -4.26356 0
M  V30 6910 H 680.732 0.250947 -5.51429 0
M  V30 6911 H 683.208 1.35416 -3.93449 0
M  V30 6912 H 682.084 2.20043 -5.02864 0
M  V30 6913 H 682.345 2.81916 -3.40552 0
M  V30 6914 N 681.404 1.57128 0.121893 0
M  V30 6915 C 682.334 2.03165 1.15092 0
M  V30 6916 C 683.315 0.915587 1.43356 0
M  V30 6917 O 684.5 1.1851 1.53847 0
M  V30 6918 C 681.63 2.43352 2.47784 0
M  V30 6919 C 680.584 3.58376 2.33989 0
M  V30 6920 C 679.91 3.84454 3.71617 0
M  V30 6921 C 681.21 4.90199 1.80283 0
M  V30 6922 H 682.904 2.89382 0.768023 0
M  V30 6923 H 680.45 1.39218 0.367998 0
M  V30 6924 H 682.403 2.74163 3.20019 0
M  V30 6925 H 681.127 1.54103 2.87958 0
M  V30 6926 H 679.786 3.2777 1.64202 0
M  V30 6927 H 679.434 2.92414 4.09271 0
M  V30 6928 H 679.134 4.61877 3.6324 0
M  V30 6929 H 680.658 4.17714 4.45362 0
M  V30 6930 H 682.072 5.19565 2.42333 0
M  V30 6931 H 680.469 5.71601 1.82735 0
M  V30 6932 H 681.539 4.78904 0.760184 0
M  V30 6933 N 682.882 -0.391992 1.52647 0
M  V30 6934 C 684.128 -1.139 1.67793 0
M  V30 6935 C 684.461 -1.89711 0.41514 0
M  V30 6936 O 683.736 -1.85431 -0.586979 0
M  V30 6937 C 684.019 -2.11966 2.91105 0
M  V30 6938 C 683.872 -1.39939 4.27478 0
M  V30 6939 C 685.191 -3.1243 3.09961 0
M  V30 6940 H 682.31 -0.412707 0.610608 0
M  V30 6941 H 684.952 -0.422725 1.85238 0
M  V30 6942 H 683.102 -2.73048 2.76364 0
M  V30 6943 H 684.774 -0.818439 4.53982 0
M  V30 6944 H 683.017 -0.701246 4.28095 0
M  V30 6945 H 683.688 -2.1158 5.09841 0
M  V30 6946 H 686.164 -2.61435 3.23714 0
M  V30 6947 H 685.04 -3.78294 3.97725 0
M  V30 6948 H 685.301 -3.81127 2.24042 0
M  V30 6949 N 684.36 -1.4356 -0.65026 0
M  V30 6950 C 685.323 -1.48615 -1.74489 0
M  V30 6951 C 686.323 -0.370483 -1.56474 0
M  V30 6952 O 687.513 -0.632351 -1.62317 0
M  V30 6953 C 684.645 -1.34161 -3.13391 0
M  V30 6954 H 685.838 -2.46103 -1.71387 0
M  V30 6955 H 683.391 -1.30369 -0.862186 0
M  V30 6956 H 684.126 -0.376918 -3.22102 0
M  V30 6957 H 683.911 -2.1504 -3.27872 0
M  V30 6958 H 685.401 -1.40637 -3.93206 0
M  V30 6959 N 685.838 0.888903 -1.30139 0
M  V30 6960 C 687.086 1.63713 -1.18501 0
M  V30 6961 C 687.407 1.9324 0.261399 0
M  V30 6962 O 686.677 1.56608 1.17689 0
M  V30 6963 H 685.257 0.606861 -0.435579 0
M  V30 6964 H 687.919 1.06525 -1.63213 0
M  V30 6965 H 687.015 2.58894 -1.743 0
M  V30 6966 N 687.317 1.12792 1.10072 0
M  V30 6967 C 688.264 0.79921 2.16521 0
M  V30 6968 C 689.234 -0.235726 1.64419 0
M  V30 6969 O 690.419 -0.109457 1.90486 0
M  V30 6970 C 687.559 0.264091 3.44088 0
M  V30 6971 C 686.672 1.35729 4.10124 0
M  V30 6972 C 685.807 0.781212 5.25424 0
M  V30 6973 C 684.846 1.85327 5.8337 0
M  V30 6974 N 683.983 1.29564 6.90042 0
M  V30 6975 H 688.823 1.71105 2.43981 0
M  V30 6976 H 686.36 0.854225 1.19756 0
M  V30 6977 H 688.318 -0.0642423 4.17151 0
M  V30 6978 H 686.948 -0.610901 3.16967 0
M  V30 6979 H 686 1.80234 3.34993 0
M  V30 6980 H 687.312 2.16782 4.4923 0
M  V30 6981 H 686.466 0.403769 6.05355 0
M  V30 6982 H 685.205 -0.0604686 4.87663 0
M  V30 6983 H 684.21 2.23986 5.02106 0
M  V30 6984 H 685.435 2.69824 6.23195 0
M  V30 6985 H 683.381 0.475844 6.54272 0
M  V30 6986 H 683.298 2.04271 7.2788 0
M  V30 6987 H 684.566 0.945545 7.73744 0
M  V30 6988 N 688.795 -1.27931 0.920396 0
M  V30 6989 C 690.043 -1.94304 0.555906 0
M  V30 6990 C 690.364 -1.72753 -0.904519 0
M  V30 6991 O 689.634 -1.07104 -1.64029 0
M  V30 6992 H 688.214 -0.719001 0.202599 0
M  V30 6993 H 690.876 -1.55785 1.1712 0
M  V30 6994 H 689.972 -3.02806 0.755981 0
M  V30 6995 N 690.273 -0.685099 -1.4193 0
M  V30 6996 C 691.223 0.00977295 -2.27998 0
M  V30 6997 C 692.207 0.763315 -1.41641 0
M  V30 6998 O 693.399 0.640532 -1.65004 0
M  V30 6999 C 690.528 0.952972 -3.29808 0
M  V30 7000 C 689.614 0.196231 -4.23646 0
M  V30 7001 N 690.005 -0.804401 -4.99363 0
M  V30 7002 C 688.303 0.433213 -4.43891 0
M  V30 7003 C 689.004 -1.25646 -5.67968 0
M  V30 7004 N 687.98 -0.5844 -5.4045 0
M  V30 7005 H 691.782 -0.757586 -2.83968 0
M  V30 7006 H 689.296 -0.515037 -1.54017 0
M  V30 7007 H 691.293 1.46585 -3.9028 0
M  V30 7008 H 689.953 1.72004 -2.75399 0
M  V30 7009 H 690.964 -1.18429 -5.04177 0
M  V30 7010 H 687.641 1.17899 -4.00507 0
M  V30 7011 H 689.031 -2.08622 -6.38691 0
M  V30 7012 N 691.751 1.51645 -0.429126 0
M  V30 7013 C 692.661 2.31288 0.392809 0
M  V30 7014 C 693.677 1.39852 1.03525 0
M  V30 7015 O 694.853 1.72926 1.03241 0
M  V30 7016 C 691.918 3.13347 1.48372 0
M  V30 7017 C 690.979 4.20551 0.862268 0
M  V30 7018 C 690.212 4.98688 1.9012 0
M  V30 7019 O 690.435 4.77359 3.12225 0
M  V30 7020 O 689.369 5.83005 1.4963 0
M  V30 7021 H 693.195 3.02609 -0.257138 0
M  V30 7022 H 690.78 1.48163 -0.191851 0
M  V30 7023 H 692.662 3.64387 2.1166 0
M  V30 7024 H 691.337 2.44799 2.1179 0
M  V30 7025 H 690.244 3.73609 0.191568 0
M  V30 7026 H 691.577 4.91449 0.271704 0
M  V30 7027 N 693.229 0.160201 1.56784 0
M  V30 7028 C 694.506 -0.533355 1.88188 0
M  V30 7029 C 694.886 -1.82072 1.06831 0
M  V30 7030 O 694.234 -2.27946 0.158959 0
M  V30 7031 C 694.444 -0.786034 3.40033 0
M  V30 7032 C 695.792 -1.12097 4.09536 0
M  V30 7033 O 696.816 -0.874949 3.45287 0
M  V30 7034 O 695.675 -1.58457 5.23023 0
M  V30 7035 H 692.769 -0.273589 0.780434 0
M  V30 7036 H 695.315 0.197803 1.68543 0
M  V30 7037 H 694.087 0.124515 3.91102 0
M  V30 7038 H 693.71 -1.57091 3.65251 0
M  V30 7039 N 694.707 -1.5719 -0.113559 0
M  V30 7040 C 695.937 -1.89053 -0.833212 0
M  V30 7041 C 696.345 -0.750139 -1.73694 0
M  V30 7042 O 695.688 0.287808 -1.81431 0
M  V30 7043 C 695.75 -3.15986 -1.71443 0
M  V30 7044 C 695.414 -4.46271 -0.984449 0
M  V30 7045 C 696.411 -5.18897 -0.322741 0
M  V30 7046 C 694.096 -4.92963 -0.964011 0
M  V30 7047 C 696.09 -6.3644 0.349646 0
M  V30 7048 C 693.777 -6.10422 -0.287828 0
M  V30 7049 C 694.775 -6.82009 0.36784 0
M  V30 7050 O 694.463 -7.97233 1.03322 0
M  V30 7051 H 694.195 -0.630225 -0.244526 0
M  V30 7052 H 696.749 -2.05152 -0.100847 0
M  V30 7053 H 694.979 -2.95984 -2.48858 0
M  V30 7054 H 696.668 -3.33826 -2.309 0
M  V30 7055 H 697.434 -4.83875 -0.330114 0
M  V30 7056 H 693.313 -4.37143 -1.46379 0
M  V30 7057 H 696.857 -6.92254 0.861996 0
M  V30 7058 H 692.754 -6.449 -0.278237 0
M  V30 7059 H 693.522 -8.13105 0.938247 0
M  V30 7060 N 696.185 0.383891 -1.52853 0
M  V30 7061 C 697.117 1.48889 -1.74255 0
M  V30 7062 C 698.13 1.50405 -0.623063 0
M  V30 7063 O 699.319 1.54215 -0.898887 0
M  V30 7064 C 696.419 2.87721 -1.79081 0
M  V30 7065 C 695.592 3.10111 -3.08464 0
M  V30 7066 C 694.651 4.28954 -3.0477 0
M  V30 7067 O 693.677 4.25012 -3.78621 0
M  V30 7068 N 694.879 5.35411 -2.24311 0
M  V30 7069 H 697.644 1.30915 -2.69595 0
M  V30 7070 H 695.205 0.573454 -1.51404 0
M  V30 7071 H 697.197 3.65333 -1.7411 0
M  V30 7072 H 695.767 2.99029 -0.911052 0
M  V30 7073 H 694.987 2.20319 -3.26884 0
M  V30 7074 H 696.275 3.21928 -3.94005 0
M  V30 7075 H 695.673 5.41471 -1.63787 0
M  V30 7076 H 694.23 6.1167 -2.25175 0
M  V30 7077 N 697.663 1.43903 0.642637 0
M  V30 7078 C 698.912 1.45362 1.39831 0
M  V30 7079 C 699.225 0.0856289 1.95412 0
M  V30 7080 O 700.431 -0.0222856 2.71491 0
M  V30 7081 C 698.887 2.55857 2.53111 0
M  V30 7082 C 698.495 3.98811 2.04092 0
M  V30 7083 C 700.239 2.66524 3.30402 0
M  V30 7084 C 698.146 5.00751 3.14647 0
M  V30 7085 H 697.076 0.540777 0.52543 0
M  V30 7086 H 699.727 1.69929 0.692559 0
M  V30 7087 H 698.109 2.2451 3.26207 0
M  V30 7088 H 699.283 4.3967 1.37938 0
M  V30 7089 H 697.598 3.92284 1.39651 0
M  V30 7090 H 700.195 3.39858 4.12796 0
M  V30 7091 H 700.538 1.71949 3.79129 0
M  V30 7092 H 701.071 2.97224 2.64392 0
M  V30 7093 H 697.81 5.96914 2.70876 0
M  V30 7094 H 697.33 4.64495 3.79479 0
M  V30 7095 H 699.009 5.23933 3.79609 0
M  V30 7096 N 699.141 -0.881989 1.30609 0
M  V30 7097 C 700.387 -1.63647 1.19781 0
M  V30 7098 C 700.72 -1.92632 -0.246265 0
M  V30 7099 O 699.995 -1.54938 -1.17577 0
M  V30 7100 C 700.278 -2.97437 2.02985 0
M  V30 7101 C 700.131 -2.75406 3.55628 0
M  V30 7102 C 701.45 -3.98397 1.86997 0
M  V30 7103 H 698.569 -0.593841 0.436488 0
M  V30 7104 H 701.211 -1.02041 1.60273 0
M  V30 7105 H 699.361 -3.50018 1.68581 0
M  V30 7106 H 701.033 -2.2959 4.00107 0
M  V30 7107 H 699.276 -2.09856 3.79662 0
M  V30 7108 H 699.947 -3.70552 4.09139 0
M  V30 7109 H 702.423 -3.54986 2.17081 0
M  V30 7110 H 701.299 -4.89916 2.47536 0
M  V30 7111 H 701.56 -4.3424 0.829943 0
M  V30 7112 N 700.619 -1.13374 -1.09472 0
M  V30 7113 C 701.867 -0.893422 -1.8128 0
M  V30 7114 C 702.188 0.582029 -1.86111 0
M  V30 7115 O 701.458 1.42305 -1.34633 0
M  V30 7116 H 700.038 -0.327543 -0.67136 0
M  V30 7117 H 702.7 -1.43018 -1.32408 0
M  V30 7118 H 701.796 -1.28374 -2.84476 0
M  V30 7119 N 702.098 1.27442 -0.927168 0
M  V30 7120 C 703.046 2.28844 -0.416333 0
M  V30 7121 C 704.04 1.61882 0.499057 0
M  V30 7122 O 705.246 1.75969 0.378817 0
M  V30 7123 H 701.621 0.742989 -0.116065 0
M  V30 7124 H 703.592 2.69344 -1.28438 0
M  V30 7125 C 702.341 3.4626 0.316107 0
M  V30 7126 H 701.664 3.97999 -0.379082 0
M  V30 7127 H 703.104 4.19173 0.637975 0
M  V30 7128 C 701.563 3.00211 1.5289 0
M  V30 7129 O 702.093 3.03837 2.62766 0
M  V30 7130 N 700.299 2.55713 1.38054 0
M  V30 7131 H 699.846 2.52962 0.4866 0
M  V30 7132 H 699.804 2.25264 2.19325 0
M  V30 7133 N 703.576 0.692616 1.41565 0
M  V30 7134 C 704.508 -0.0137132 2.29196 0
M  V30 7135 C 705.521 -0.747417 1.44629 0
M  V30 7136 O 706.71 -0.598611 1.68163 0
M  V30 7137 C 703.81 -1.04347 3.22436 0
M  V30 7138 C 702.983 -0.379985 4.35746 0
M  V30 7139 C 702.042 -1.31195 5.09583 0
M  V30 7140 O 701.068 -0.805455 5.63472 0
M  V30 7141 N 702.27 -2.64443 5.16769 0
M  V30 7142 H 705.035 0.738614 2.90456 0
M  V30 7143 H 702.596 0.538415 1.52685 0
M  V30 7144 H 704.588 -1.6686 3.687 0
M  V30 7145 H 703.158 -1.69736 2.62504 0
M  V30 7146 H 702.378 0.424975 3.91903 0
M  V30 7147 H 703.666 0.0814904 5.08735 0
M  V30 7148 H 703.064 -3.08114 4.74428 0
M  V30 7149 H 701.621 -3.22159 5.66619 0
M  V30 7150 N 705.054 -1.51416 0.437162 0
M  V30 7151 C 706.47 -1.59349 0.0894459 0
M  V30 7152 C 706.67 -1.44809 -1.40116 0
M  V30 7153 O 705.726 -1.28924 -2.17106 0
M  V30 7154 C 707.039 -2.9446 0.609398 0
M  V30 7155 C 708.587 -3.07769 0.569824 0
M  V30 7156 C 709.062 -4.45404 1.06675 0
M  V30 7157 N 710.553 -4.51723 1.02473 0
M  V30 7158 C 711.288 -5.56544 1.3801 0
M  V30 7159 N 710.784 -6.68784 1.80831 0
M  V30 7160 N 712.577 -5.46901 1.29828 0
M  V30 7161 H 704.728 -1.59112 1.40703 0
M  V30 7162 H 706.991 -0.750031 0.579791 0
M  V30 7163 H 706.697 -3.1047 1.65231 0
M  V30 7164 H 706.571 -3.77184 0.0342236 0
M  V30 7165 H 708.958 -2.91428 -0.464107 0
M  V30 7166 H 709.039 -2.26885 1.1814 0
M  V30 7167 H 708.683 -4.62492 2.09914 0
M  V30 7168 H 708.613 -5.24827 0.431712 0
M  V30 7169 H 711.104 -3.71165 0.710258 0
M  V30 7170 H 711.417 -7.44787 2.06185 0
M  V30 7171 H 709.762 -6.69992 1.84757 0
M  V30 7172 H 712.953 -4.581 0.962397 0
M  V30 7173 H 713.126 -6.2848 1.57851 0
M  V30 7174 N 706.532 -0.168513 -1.56696 0
M  V30 7175 C 707.462 0.758563 -2.20835 0
M  V30 7176 C 708.443 1.24121 -1.1631 0
M  V30 7177 O 709.628 1.29487 -1.4473 0
M  V30 7178 C 706.758 1.9892 -2.8469 0
M  V30 7179 C 705.712 1.64252 -3.95228 0
M  V30 7180 C 705.038 2.94757 -4.46119 0
M  V30 7181 C 706.338 0.872675 -5.14958 0
M  V30 7182 H 708.032 0.223953 -2.98561 0
M  V30 7183 H 705.578 0.106277 -1.43607 0
M  V30 7184 H 707.531 2.64275 -3.28233 0
M  V30 7185 H 706.255 2.5479 -2.04327 0
M  V30 7186 H 704.914 1.01266 -3.52336 0
M  V30 7187 H 704.562 3.48662 -3.62552 0
M  V30 7188 H 704.262 2.72316 -5.2069 0
M  V30 7189 H 705.786 3.61147 -4.92347 0
M  V30 7190 H 707.2 1.42875 -5.55211 0
M  V30 7191 H 705.597 0.747402 -5.95428 0
M  V30 7192 H 706.667 -0.131535 -4.84722 0
M  V30 7193 N 708.01 1.57248 0.105221 0
M  V30 7194 C 709.287 1.76566 0.841647 0
M  V30 7195 C 709.667 0.747566 1.9742 0
M  V30 7196 O 709.015 -0.225886 2.27381 0
M  V30 7197 C 709.225 3.22016 1.3456 0
M  V30 7198 C 710.573 3.84911 1.79244 0
M  V30 7199 O 711.597 3.25703 1.44207 0
M  V30 7200 O 710.456 4.89008 2.43995 0
M  V30 7201 H 707.55 0.723443 0.400698 0
M  V30 7202 H 710.096 1.69472 0.0878893 0
M  V30 7203 H 708.868 3.87644 0.533685 0
M  V30 7204 H 708.491 3.33703 2.16167 0
M  V30 7205 N 709.488 -0.375779 1.53054 0
M  V30 7206 C 710.718 -1.1387 1.72386 0
M  V30 7207 C 711.126 -1.8382 0.447966 0
M  V30 7208 O 710.469 -1.74027 -0.588244 0
M  V30 7209 C 710.531 -2.22047 2.82728 0
M  V30 7210 C 710.195 -1.71951 4.23417 0
M  V30 7211 C 711.192 -1.18909 5.06119 0
M  V30 7212 C 708.877 -1.77773 4.69789 0
M  V30 7213 C 710.871 -0.723529 6.3328 0
M  V30 7214 C 708.558 -1.30829 5.96931 0
M  V30 7215 C 709.556 -0.782077 6.78508 0
M  V30 7216 O 709.244 -0.319529 8.03265 0
M  V30 7217 H 708.976 -0.346835 0.580242 0
M  V30 7218 H 711.53 -0.443748 2.00549 0
M  V30 7219 H 709.76 -2.95006 2.50017 0
M  V30 7220 H 711.449 -2.83654 2.90336 0
M  V30 7221 H 712.215 -1.13758 4.7147 0
M  V30 7222 H 708.094 -2.17673 4.06373 0
M  V30 7223 H 711.638 -0.312126 6.96901 0
M  V30 7224 H 707.535 -1.3567 6.31081 0
M  V30 7225 H 708.303 -0.439796 8.17318 0
M  V30 7226 N 710.966 -1.44241 -0.634997 0
M  V30 7227 C 712.191 -1.50516 -1.42687 0
M  V30 7228 C 712.616 -0.129864 -1.87651 0
M  V30 7229 O 711.974 0.880164 -1.58502 0
M  V30 7230 C 712.022 -2.4714 -2.62591 0
M  V30 7231 O 711.126 -1.97025 -3.62291 0
M  V30 7232 H 710.467 -0.50841 -0.427101 0
M  V30 7233 H 712.997 -1.89337 -0.775408 0
M  V30 7234 H 713.007 -2.65048 -3.10183 0
M  V30 7235 H 711.682 -3.47039 -2.29209 0
M  V30 7236 H 710.259 -1.88866 -3.21534 0
M  V30 7237 N 712.444 0.87505 -1.31075 0
M  V30 7238 C 713.721 1.60976 -1.11113 0
M  V30 7239 C 714.101 2.08409 0.336006 0
M  V30 7240 O 713.449 1.85858 1.32924 0
M  V30 7241 C 713.659 2.77166 -2.12085 0
M  V30 7242 C 715.007 3.47254 -2.44335 0
M  V30 7243 O 716.031 2.87367 -2.10472 0
M  V30 7244 O 714.89 4.55276 -3.02301 0
M  V30 7245 H 711.984 0.707982 -0.427424 0
M  V30 7246 H 714.53 0.920957 -1.42536 0
M  V30 7247 H 713.302 2.39494 -3.09449 0
M  V30 7248 H 712.925 3.53737 -1.81538 0
M  V30 7249 N 713.922 1.13953 1.08869 0
M  V30 7250 C 715.338 0.878924 1.33218 0
M  V30 7251 C 715.538 -0.482478 1.95638 0
M  V30 7252 O 714.594 -1.22778 2.2064 0
M  V30 7253 C 715.907 2.00798 2.23832 0
M  V30 7254 C 717.455 2.04073 2.37325 0
M  V30 7255 C 717.93 3.16258 3.31278 0
M  V30 7256 N 719.421 3.15805 3.38853 0
M  V30 7257 C 720.156 3.99249 4.11567 0
M  V30 7258 N 719.652 4.92721 4.87029 0
M  V30 7259 N 721.445 3.87327 4.0735 0
M  V30 7260 H 713.596 2.01645 0.66731 0
M  V30 7261 H 715.859 0.878395 0.356547 0
M  V30 7262 H 715.565 2.98986 1.85203 0
M  V30 7263 H 715.439 1.92704 3.24261 0
M  V30 7264 H 717.826 1.06495 2.75214 0
M  V30 7265 H 717.907 2.16239 1.36654 0
M  V30 7266 H 717.551 4.14079 2.9411 0
M  V30 7267 H 717.481 3.0133 4.31866 0
M  V30 7268 H 719.972 2.48102 2.8505 0
M  V30 7269 H 720.285 5.52867 5.39961 0
M  V30 7270 H 718.63 4.96723 4.86098 0
M  V30 7271 H 721.821 3.13627 3.475 0
M  V30 7272 H 721.994 4.52585 4.63757 0
M  V30 7273 N 715.4 -1.26948 0.933913 0
M  V30 7274 C 716.646 -1.94374 0.57848 0
M  V30 7275 C 716.979 -1.73166 -0.879048 0
M  V30 7276 O 716.254 -1.06438 -1.62792 0
M  V30 7277 C 716.537 -3.4834 0.912739 0
M  V30 7278 C 716.39 -3.78866 2.42448 0
M  V30 7279 C 717.709 -4.38062 0.423003 0
M  V30 7280 H 714.828 -0.705959 0.211639 0
M  V30 7281 H 717.47 -1.49951 1.16682 0
M  V30 7282 H 715.62 -3.86309 0.412058 0
M  V30 7283 H 717.292 -3.50654 2.99733 0
M  V30 7284 H 715.535 -3.25198 2.87104 0
M  V30 7285 H 716.206 -4.86458 2.60887 0
M  V30 7286 H 718.682 -4.0728 0.852191 0
M  V30 7287 H 717.558 -5.44599 0.685776 0
M  V30 7288 H 717.819 -4.36886 -0.676994 0
M  V30 7289 N 716.879 -0.700114 -1.41195 0
M  V30 7290 C 718.107 -0.242179 -2.05478 0
M  V30 7291 C 718.522 1.11029 -1.52702 0
M  V30 7292 O 717.879 1.69473 -0.677127 0
M  V30 7293 C 717.93 -0.196271 -3.60967 0
M  V30 7294 O 717.651 -1.49532 -4.11791 0
M  V30 7295 C 719.152 0.282102 -4.42401 0
M  V30 7296 H 716.372 -0.111749 -0.661629 0
M  V30 7297 H 718.916 -0.953975 -1.80885 0
M  V30 7298 H 717.071 0.46638 -3.84582 0
M  V30 7299 H 717.485 -1.38545 -5.05871 0
M  V30 7300 H 718.959 0.263093 -5.51373 0
M  V30 7301 H 719.436 1.32174 -4.1884 0
M  V30 7302 H 720.042 -0.349712 -4.2386 0
M  V30 7303 N 718.357 1.51182 -0.445186 0
M  V30 7304 C 719.603 2.02452 0.11882 0
M  V30 7305 C 719.936 1.32824 1.41673 0
M  V30 7306 O 719.211 0.445637 1.89326 0
M  V30 7307 C 719.494 3.5859 0.329475 0
M  V30 7308 C 719.347 4.38823 -0.987638 0
M  V30 7309 C 720.666 4.26241 1.09575 0
M  V30 7310 H 717.785 0.735819 0.0417092 0
M  V30 7311 H 720.427 1.80747 -0.585718 0
M  V30 7312 H 718.577 3.77214 0.9296 0
M  V30 7313 H 720.249 4.3183 -1.62235 0
M  V30 7314 H 718.492 4.03594 -1.59041 0
M  V30 7315 H 719.163 5.46257 -0.794192 0
M  V30 7316 H 721.639 4.11934 0.587328 0
M  V30 7317 H 720.515 5.35354 1.21191 0
M  V30 7318 H 720.776 3.87635 2.12584 0
M  V30 7319 N 719.835 0.176821 1.56605 0
M  V30 7320 C 720.798 -0.737429 2.17013 0
M  V30 7321 C 721.798 -1.15414 1.11965 0
M  V30 7322 O 722.988 -1.0702 1.37449 0
M  V30 7323 C 720.12 -2.00445 2.75744 0
M  V30 7324 H 721.313 -0.211455 2.99154 0
M  V30 7325 H 718.866 -0.0727582 1.56131 0
M  V30 7326 H 719.601 -2.57338 1.97352 0
M  V30 7327 H 719.386 -1.71456 3.52626 0
M  V30 7328 H 720.876 -2.65679 3.22187 0
M  V30 7329 N 721.313 -1.57302 -0.09688 0
M  V30 7330 C 722.729 -1.53094 -0.451041 0
M  V30 7331 C 722.929 -0.893265 -1.80618 0
M  V30 7332 O 721.985 -0.485013 -2.47798 0
M  V30 7333 C 723.298 -2.9782 -0.415172 0
M  V30 7334 C 724.846 -3.09026 -0.497155 0
M  V30 7335 C 725.321 -4.55356 -0.491452 0
M  V30 7336 N 726.812 -4.59896 -0.552258 0
M  V30 7337 C 727.547 -5.70563 -0.569654 0
M  V30 7338 N 727.043 -6.90666 -0.543365 0
M  V30 7339 N 728.836 -5.58733 -0.614331 0
M  V30 7340 H 720.987 -1.97131 0.790771 0
M  V30 7341 H 723.25 -0.901211 0.294147 0
M  V30 7342 H 722.956 -3.47933 0.513362 0
M  V30 7343 H 722.83 -3.56416 -1.23481 0
M  V30 7344 H 725.217 -2.58902 -1.41611 0
M  V30 7345 H 725.298 -2.53386 0.35059 0
M  V30 7346 H 724.942 -5.06131 0.423549 0
M  V30 7347 H 724.872 -5.08832 -1.35639 0
M  V30 7348 H 727.363 -3.73456 -0.577842 0
M  V30 7349 H 727.676 -7.70769 -0.559873 0
M  V30 7350 H 726.021 -6.93123 -0.510441 0
M  V30 7351 H 729.212 -4.63809 -0.632387 0
M  V30 7352 H 729.385 -6.44984 -0.62442 0
M  V30 7353 N 722.791 0.367657 -1.53252 0
M  V30 7354 C 723.721 1.45632 -1.8252 0
M  V30 7355 C 724.702 1.55979 -0.678568 0
M  V30 7356 O 725.887 1.70581 -0.928217 0
M  V30 7357 C 723.017 2.82994 -2.01325 0
M  V30 7358 C 721.971 2.87473 -3.17086 0
M  V30 7359 C 721.297 4.2749 -3.21179 0
M  V30 7360 C 722.597 2.55182 -4.55719 0
M  V30 7361 H 724.291 1.21387 -2.73689 0
M  V30 7362 H 721.837 0.58251 -1.31692 0
M  V30 7363 H 723.79 3.59179 -2.20383 0
M  V30 7364 H 722.514 3.08622 -1.06864 0
M  V30 7365 H 721.173 2.13739 -2.97844 0
M  V30 7366 H 720.821 4.5019 -2.24361 0
M  V30 7367 H 720.521 4.31403 -3.98955 0
M  V30 7368 H 722.045 5.0555 -3.42419 0
M  V30 7369 H 723.459 3.21081 -4.74953 0
M  V30 7370 H 721.856 2.70414 -5.3572 0
M  V30 7371 H 722.926 1.5044 -4.60973 0
M  V30 7372 N 724.269 1.44576 0.627338 0
M  V30 7373 C 725.199 1.54562 1.75022 0
M  V30 7374 C 726.18 0.398378 1.65369 0
M  V30 7375 O 727.365 0.61899 1.84071 0
M  V30 7376 C 724.495 1.49309 3.13567 0
M  V30 7377 C 723.449 2.62549 3.38012 0
M  V30 7378 C 722.775 2.42348 4.76625 0
M  V30 7379 C 724.075 4.04678 3.30202 0
M  V30 7380 H 725.769 2.4855 1.66922 0
M  V30 7381 H 723.315 1.19624 0.801636 0
M  V30 7382 H 725.268 1.54895 3.919 0
M  V30 7383 H 723.992 0.518392 3.2246 0
M  V30 7384 H 722.651 2.56358 2.62061 0
M  V30 7385 H 722.299 1.43062 4.82226 0
M  V30 7386 H 721.999 3.18273 4.93939 0
M  V30 7387 H 723.523 2.49758 5.57183 0
M  V30 7388 H 724.937 4.12217 3.98435 0
M  V30 7389 H 723.334 4.80836 3.5905 0
M  V30 7390 H 724.404 4.2798 2.27949 0
M  V30 7391 N 725.747 -0.868086 1.31537 0
M  V30 7392 C 726.995 -1.61807 1.21091 0
M  V30 7393 C 727.316 -1.93631 -0.230623 0
M  V30 7394 O 726.586 -1.5846 -1.15183 0
M  V30 7395 H 725.166 -0.599854 0.445178 0
M  V30 7396 H 727.828 -1.03915 1.64887 0
M  V30 7397 H 726.924 -2.56088 1.78396 0
M  V30 7398 N 727.225 -1.14528 -1.08264 0
M  V30 7399 C 728.471 -0.91576 -1.80947 0
M  V30 7400 C 728.804 0.55623 -1.86064 0
M  V30 7401 O 728.079 1.41207 -1.33756 0
M  V30 7402 C 728.362 -1.51917 -3.26486 0
M  V30 7403 C 728.215 -3.06111 -3.2957 0
M  V30 7404 C 729.534 -1.19724 -4.23502 0
M  V30 7405 H 726.653 -0.334113 -0.656915 0
M  V30 7406 H 729.295 -1.41547 -1.26746 0
M  V30 7407 H 727.445 -1.0942 -3.72773 0
M  V30 7408 H 729.117 -3.57448 -2.91597 0
M  V30 7409 H 727.36 -3.40483 -2.688 0
M  V30 7410 H 728.031 -3.43438 -4.32151 0
M  V30 7411 H 730.507 -1.56467 -3.85561 0
M  V30 7412 H 729.383 -1.64575 -5.23647 0
M  V30 7413 H 729.644 -0.112771 -4.41956 0
M  V30 7414 N 728.703 1.26451 -0.940633 0
M  V30 7415 C 729.952 1.93071 -0.583656 0
M  V30 7416 C 730.265 1.74618 0.881366 0
M  V30 7417 O 731.471 2.35689 1.34769 0
M  V30 7418 C 729.927 3.45927 -0.993106 0
M  V30 7419 C 729.535 3.73115 -2.4797 0
M  V30 7420 C 731.279 4.18554 -0.707998 0
M  V30 7421 C 729.186 5.19408 -2.82788 0
M  V30 7422 H 728.116 0.722824 -0.214572 0
M  V30 7423 H 730.767 1.43538 -1.1432 0
M  V30 7424 H 729.149 3.94341 -0.362099 0
M  V30 7425 H 730.323 3.35408 -3.15971 0
M  V30 7426 H 728.638 3.13719 -2.73805 0
M  V30 7427 H 731.235 5.26293 -0.94447 0
M  V30 7428 H 731.578 4.14782 0.355225 0
M  V30 7429 H 732.111 3.76003 -1.2987 0
M  V30 7430 H 728.85 5.28281 -3.88071 0
M  V30 7431 H 728.37 5.58214 -2.19449 0
M  V30 7432 H 730.049 5.87407 -2.71224 0
M  V30 7433 N 730.181 0.707592 1.40822 0
M  V30 7434 C 731.144 0.0587224 2.29125 0
M  V30 7435 C 732.144 -0.695624 1.44975 0
M  V30 7436 O 733.334 -0.528718 1.65983 0
M  V30 7437 C 730.466 -0.926939 3.28056 0
M  V30 7438 H 731.659 0.836349 2.88002 0
M  V30 7439 H 729.212 0.471778 1.4901 0
M  V30 7440 H 729.947 -1.7319 2.74182 0
M  V30 7441 H 729.732 -0.389015 3.90165 0
M  V30 7442 H 731.222 -1.37837 3.94196 0
M  V30 7443 O 731.698 -1.50133 0.595165 0
M  V30 7444 H 732.389 -1.93424 0.103425 0
M  V30 END ATOM
M  V30 BEGIN BOND
M  V30 END BOND
M  V30 END CTAB
M  END
$$$$
