60846
  -OEChem-10051719093D

 61 63  0     1  0  0  0  0  0999 V2000
   -0.4458    2.5838    1.1246 O   0  0  0  0  0  0  0  0  0  0  0  0
   -4.3162    0.5688    1.0335 O   0  0  0  0  0  0  0  0  0  0  0  0
   -2.0033    1.2291    2.0368 O   0  0  0  0  0  0  0  0  0  0  0  0
   -2.6618    0.3095   -0.5713 N   0  0  0  0  0  0  0  0  0  0  0  0
    3.8341    1.5413    1.6470 N   0  0  0  0  0  0  0  0  0  0  0  0
    3.3551    1.6753   -0.5621 N   0  0  0  0  0  0  0  0  0  0  0  0
    3.3007    2.7131    1.2738 N   0  0  0  0  0  0  0  0  0  0  0  0
    3.0013    2.8371   -0.0267 N   0  0  0  0  0  0  0  0  0  0  0  0
   -2.1281    1.6483   -0.3526 C   0  0  1  0  0  0  0  0  0  0  0  0
   -3.1990    2.7097   -0.6844 C   0  0  0  0  0  0  0  0  0  0  0  0
   -1.9717   -0.4751   -1.5925 C   0  0  0  0  0  0  0  0  0  0  0  0
   -3.7602   -0.1255    0.1783 C   0  0  0  0  0  0  0  0  0  0  0  0
   -2.6829    4.1466   -0.5608 C   0  0  0  0  0  0  0  0  0  0  0  0
   -3.8255    2.4888   -2.0639 C   0  0  0  0  0  0  0  0  0  0  0  0
   -4.2561   -1.5358   -0.1131 C   0  0  0  0  0  0  0  0  0  0  0  0
   -1.5293    1.7727    1.0456 C   0  0  0  0  0  0  0  0  0  0  0  0
   -0.5353   -0.7246   -1.2339 C   0  0  0  0  0  0  0  0  0  0  0  0
   -5.4569   -1.9270    0.7501 C   0  0  0  0  0  0  0  0  0  0  0  0
   -5.9070   -3.3585    0.4608 C   0  0  0  0  0  0  0  0  0  0  0  0
   -0.1980   -1.1231    0.0597 C   0  0  0  0  0  0  0  0  0  0  0  0
    0.4619   -0.5585   -2.1950 C   0  0  0  0  0  0  0  0  0  0  0  0
    2.1338   -1.1893   -0.5690 C   0  0  0  0  0  0  0  0  0  0  0  0
    1.1365   -1.3554    0.3920 C   0  0  0  0  0  0  0  0  0  0  0  0
    1.7965   -0.7908   -1.8625 C   0  0  0  0  0  0  0  0  0  0  0  0
   -7.0767   -3.7638    1.3433 C   0  0  0  0  0  0  0  0  0  0  0  0
    3.5178   -1.4314   -0.2247 C   0  0  0  0  0  0  0  0  0  0  0  0
    4.3373   -0.4169    0.2701 C   0  0  0  0  0  0  0  0  0  0  0  0
    4.0280   -2.7179   -0.3981 C   0  0  0  0  0  0  0  0  0  0  0  0
    5.6671   -0.6890    0.5913 C   0  0  0  0  0  0  0  0  0  0  0  0
    5.3579   -2.9900   -0.0769 C   0  0  0  0  0  0  0  0  0  0  0  0
    3.8485    0.9241    0.4629 C   0  0  0  0  0  0  0  0  0  0  0  0
    6.1775   -1.9755    0.4177 C   0  0  0  0  0  0  0  0  0  0  0  0
   -1.2953    1.8033   -1.0520 H   0  0  0  0  0  0  0  0  0  0  0  0
   -4.0158    2.6494    0.0437 H   0  0  0  0  0  0  0  0  0  0  0  0
   -2.0475    0.0869   -2.5314 H   0  0  0  0  0  0  0  0  0  0  0  0
   -2.4510   -1.4398   -1.7709 H   0  0  0  0  0  0  0  0  0  0  0  0
   -2.3728    4.3717    0.4642 H   0  0  0  0  0  0  0  0  0  0  0  0
   -1.8274    4.3146   -1.2234 H   0  0  0  0  0  0  0  0  0  0  0  0
   -3.4636    4.8670   -0.8284 H   0  0  0  0  0  0  0  0  0  0  0  0
   -4.3620    1.5374   -2.1265 H   0  0  0  0  0  0  0  0  0  0  0  0
   -4.5521    3.2773   -2.2895 H   0  0  0  0  0  0  0  0  0  0  0  0
   -3.0619    2.5061   -2.8490 H   0  0  0  0  0  0  0  0  0  0  0  0
   -4.5448   -1.5918   -1.1688 H   0  0  0  0  0  0  0  0  0  0  0  0
   -3.4353   -2.2377    0.0725 H   0  0  0  0  0  0  0  0  0  0  0  0
   -5.1937   -1.8322    1.8111 H   0  0  0  0  0  0  0  0  0  0  0  0
   -6.2867   -1.2331    0.5667 H   0  0  0  0  0  0  0  0  0  0  0  0
   -5.0749   -4.0522    0.6288 H   0  0  0  0  0  0  0  0  0  0  0  0
   -6.1995   -3.4512   -0.5916 H   0  0  0  0  0  0  0  0  0  0  0  0
   -0.9588   -1.2773    0.8196 H   0  0  0  0  0  0  0  0  0  0  0  0
    0.2131   -0.2494   -3.2067 H   0  0  0  0  0  0  0  0  0  0  0  0
    1.3819   -1.6688    1.4040 H   0  0  0  0  0  0  0  0  0  0  0  0
    2.5613   -0.6574   -2.6240 H   0  0  0  0  0  0  0  0  0  0  0  0
   -7.9377   -3.1083    1.1786 H   0  0  0  0  0  0  0  0  0  0  0  0
   -6.8047   -3.7147    2.4025 H   0  0  0  0  0  0  0  0  0  0  0  0
   -7.3831   -4.7903    1.1187 H   0  0  0  0  0  0  0  0  0  0  0  0
   -0.1056    2.6528    2.0421 H   0  0  0  0  0  0  0  0  0  0  0  0
    3.4049   -3.5222   -0.7826 H   0  0  0  0  0  0  0  0  0  0  0  0
    6.3244    0.0880    0.9751 H   0  0  0  0  0  0  0  0  0  0  0  0
    5.7554   -3.9915   -0.2121 H   0  0  0  0  0  0  0  0  0  0  0  0
    7.2131   -2.1874    0.6669 H   0  0  0  0  0  0  0  0  0  0  0  0
    3.1322    3.4620    1.9370 H   0  0  0  0  0  0  0  0  0  0  0  0
  1 16  1  0  0  0  0
  1 56  1  0  0  0  0
  2 12  2  0  0  0  0
  3 16  2  0  0  0  0
  4  9  1  0  0  0  0
  4 11  1  0  0  0  0
  4 12  1  0  0  0  0
  5  7  1  0  0  0  0
  5 31  2  0  0  0  0
  6  8  2  0  0  0  0
  6 31  1  0  0  0  0
  7  8  1  0  0  0  0
  7 61  1  0  0  0  0
  9 10  1  0  0  0  0
  9 16  1  0  0  0  0
  9 33  1  0  0  0  0
 10 13  1  0  0  0  0
 10 14  1  0  0  0  0
 10 34  1  0  0  0  0
 11 17  1  0  0  0  0
 11 35  1  0  0  0  0
 11 36  1  0  0  0  0
 12 15  1  0  0  0  0
 13 37  1  0  0  0  0
 13 38  1  0  0  0  0
 13 39  1  0  0  0  0
 14 40  1  0  0  0  0
 14 41  1  0  0  0  0
 14 42  1  0  0  0  0
 15 18  1  0  0  0  0
 15 43  1  0  0  0  0
 15 44  1  0  0  0  0
 17 20  2  0  0  0  0
 17 21  1  0  0  0  0
 18 19  1  0  0  0  0
 18 45  1  0  0  0  0
 18 46  1  0  0  0  0
 19 25  1  0  0  0  0
 19 47  1  0  0  0  0
 19 48  1  0  0  0  0
 20 23  1  0  0  0  0
 20 49  1  0  0  0  0
 21 24  2  0  0  0  0
 21 50  1  0  0  0  0
 22 23  2  0  0  0  0
 22 24  1  0  0  0  0
 22 26  1  0  0  0  0
 23 51  1  0  0  0  0
 24 52  1  0  0  0  0
 25 53  1  0  0  0  0
 25 54  1  0  0  0  0
 25 55  1  0  0  0  0
 26 27  1  0  0  0  0
 26 28  2  0  0  0  0
 27 29  2  0  0  0  0
 27 31  1  0  0  0  0
 28 30  1  0  0  0  0
 28 57  1  0  0  0  0
 29 32  1  0  0  0  0
 29 58  1  0  0  0  0
 30 32  2  0  0  0  0
 30 59  1  0  0  0  0
 32 60  1  0  0  0  0
M  END
> <DATABASE_ID>
DB00177

> <DATABASE_NAME>
drugbank

> <ORIGINAL_SOURCE>
PUBCHEM

> <ORIGINAL_SOURCE_URL>
https://pubchem.ncbi.nlm.nih.gov/rest/pug/compound/inchikey/ACWBQPMHZXGDFX-QFIPXVFZSA-N/SDF?record_type=3d

> <SMILES>
CCCCC(=O)N(CC1=CC=C(C=C1)C1=CC=CC=C1C1=NNN=N1)[C@@H](C(C)C)C(O)=O

> <INCHI_IDENTIFIER>
InChI=1S/C24H29N5O3/c1-4-5-10-21(30)29(22(16(2)3)24(31)32)15-17-11-13-18(14-12-17)19-8-6-7-9-20(19)23-25-27-28-26-23/h6-9,11-14,16,22H,4-5,10,15H2,1-3H3,(H,31,32)(H,25,26,27,28)/t22-/m0/s1

> <INCHI_KEY>
ACWBQPMHZXGDFX-QFIPXVFZSA-N

> <FORMULA>
C24H29N5O3

> <MOLECULAR_WEIGHT>
435.5188

> <EXACT_MASS>
435.227039819

> <JCHEM_ACCEPTOR_COUNT>
6

> <JCHEM_AVERAGE_POLARIZABILITY>
47.27314752925239

> <JCHEM_BIOAVAILABILITY>
1

> <JCHEM_DONOR_COUNT>
2

> <JCHEM_FORMAL_CHARGE>
0

> <JCHEM_GHOSE_FILTER>
0

> <JCHEM_IUPAC>
(2S)-3-methyl-2-[N-({4-[2-(2H-1,2,3,4-tetrazol-5-yl)phenyl]phenyl}methyl)pentanamido]butanoic acid

> <ALOGPS_LOGP>
3.68

> <JCHEM_LOGP>
5.2693789780000015

> <ALOGPS_LOGS>
-4.27

> <JCHEM_MDDR_LIKE_RULE>
1

> <JCHEM_NUMBER_OF_RINGS>
3

> <JCHEM_PHYSIOLOGICAL_CHARGE>
-1

> <JCHEM_PKA>
7.399818067465363

> <JCHEM_PKA_STRONGEST_ACIDIC>
4.366355827724827

> <JCHEM_PKA_STRONGEST_BASIC>
-0.11251135131002898

> <JCHEM_POLAR_SURFACE_AREA>
112.07000000000001

> <JCHEM_REFRACTIVITY>
134.7733

> <JCHEM_ROTATABLE_BOND_COUNT>
10

> <JCHEM_RULE_OF_FIVE>
0

> <ALOGPS_SOLUBILITY>
2.34e-02 g/l

> <JCHEM_TRADITIONAL_IUPAC>
valsartan

> <JCHEM_VEBER_RULE>
0

> <DRUGBANK_ID>
DB00177

> <SECONDARY_ACCESSION_NUMBERS>
APRD00133

> <DRUG_GROUPS>
approved; investigational

> <GENERIC_NAME>
Valsartan

> <SYNONYMS>
(S)-N-Valeryl-N-{[2'-(1H-tetrazol-5-yl)biphenyl-4-yl]-methyl}-valine; N-(P-(O-1H-Tetrazol-5-ylphenyl)benzyl)-N-valeryl-L-valine; N-pentanoyl-N-{[2'-(1H-tetrazol-5-yl)biphenyl-4-yl]methyl}-L-valine; Valsartan

> <PRODUCTS>
AMLODIPINE and VALSARTAN; Act Valsartan; Amlodipine and Valsartan; Amlodipine and valsartan; Amlodipine, Valsartan and Hydrochlorothiazide; Amlodipine, Valsartan, Hydrochlorothiazide; Amlodipine, Valsartan, and Hydrochlorothiazide; Amlodipine-valsartan Mylan; Apo-valsartan; Apo-valsartan/hctz; Auro-valsartan; Auro-valsartan HCT; Ava-valsartan; Ava-valsartan HCT; Byvalson; Copalia; Dafiro; Dafiro HCT; Diovan; Diovan 160mg; Diovan 160mg Tablets; Diovan 80mg; Diovan 80mg Tablets; Diovan HCT; Diovan-hct; Dom-valsartan; Entresto; Exforge; Exforge HCT; Imprida; Imprida HCT; M-valsartan; Mylan-valsartan; Mylan-valsartan Hctz; Neparvis; Novo-valsartan; Novo-valsartan/hctz; PMS-valsartan; PMS-valsartan-hctz; Prexxartan; Q-valsartan; Q-valsartan Hctz; Riva-valsartan; Sandoz Valsartan; Sandoz Valsartan HCT; Taro-valsartan; Teva-valsartan; Teva-valsartan/hctz; Valsartan; Valsartan HCT; Valsartan HCTZ; Valsartan and Hydrochlorothiazide; Valsartan and hydrochlorothiazide; Valsartan-hctz; Valsartan/htcz; Valturna

$$$$