drugbank_target|P17169 Glutamine--fructose-6-phosphate aminotransferase [isomerizing] (DB02007; DB02445; DB02446; DB02657; DB03581; DB03814)
 OpenBabel12092119543D

  0  0  0     0  0            999 V3000
M  V30 BEGIN CTAB
M  V30 COUNTS 9429 9510 0 0 0
M  V30 BEGIN ATOM
M  V30 1 H -0.908 1.98254 -0.117106 0
M  V30 2 N 0 1.576 0 0
M  V30 3 C 0.933 2.03868 1.02534 0
M  V30 4 C 1.911 0.928543 1.3348 0
M  V30 5 O 3.095 1.19667 1.45644 0
M  V30 6 C 0.222 2.43627 2.35294 0
M  V30 7 C -0.732 3.65373 2.2001 0
M  V30 8 S 0.101 5.13292 1.52614 0
M  V30 9 C 1.257 5.56322 2.86805 0
M  V30 10 H 1.49 2.90518 0.631377 0
M  V30 11 H -0.977 1.52953 0.210867 0
M  V30 12 H 0.981 2.67203 3.11629 0
M  V30 13 H -0.358 1.57376 2.7183 0
M  V30 14 H -1.165 3.90944 3.18086 0
M  V30 15 H -1.563 3.418 1.51819 0
M  V30 16 H 0.729 5.58782 3.83104 0
M  V30 17 H 1.672 6.56266 2.65933 0
M  V30 18 H 2.08 4.83886 2.90714 0
M  V30 19 N 1.4781 -0.272755 1.55222 0
M  V30 20 C 2.7181 -1.01197 1.77591 0
M  V30 21 C 3.0821 -1.8349 0.565294 0
M  V30 22 O 4.2831 -2.60387 0.667242 0
M  V30 23 C 2.5541 -1.87096 3.04516 0
M  V30 24 S 4.1131 -2.67279 3.48004 0
M  V30 25 H 0.9311 -0.340836 0.62398 0
M  V30 26 H 3.5331 -0.282374 1.9345 0
M  V30 27 H 2.2371 -1.25565 3.90719 0
M  V30 28 H 1.7681 -2.64376 2.91323 0
M  V30 29 H 3.7831 -3.89593 3.07297 0
M  V30 30 N 2.9562 -1.48159 -0.537278 0
M  V30 31 C 4.2042 -1.55497 -1.29094 0
M  V30 32 C 4.5252 -0.227454 -1.93669 0
M  V30 33 O 3.7952 0.750386 -1.80959 0
M  V30 34 H 2.3752 -0.572832 -0.47945 0
M  V30 35 H 5.0372 -1.84579 -0.625818 0
M  V30 36 H 4.1332 -2.33216 -2.07405 0
M  V30 37 N 4.4343 0.785586 -1.36625 0
M  V30 38 C 5.6833 1.53883 -1.30396 0
M  V30 39 C 5.9963 1.95271 0.113452 0
M  V30 40 O 7.2023 2.69858 0.298142 0
M  V30 41 C 5.6583 2.77808 -2.28802 0
M  V30 42 C 5.2663 2.43574 -3.75999 0
M  V30 43 C 7.0103 3.55783 -2.31558 0
M  V30 44 C 4.9173 3.63919 -4.66173 0
M  V30 45 H 3.8473 0.577678 -0.484566 0
M  V30 46 H 6.4983 0.861705 -1.62009 0
M  V30 47 H 4.8803 3.47339 -1.90188 0
M  V30 48 H 6.0543 1.81916 -4.23371 0
M  V30 49 H 4.3693 1.78803 -3.76056 0
M  V30 50 H 6.9663 4.45205 -2.96137 0
M  V30 51 H 7.3093 3.94644 -1.3252 0
M  V30 52 H 7.8423 2.93235 -2.68809 0
M  V30 53 H 4.5813 3.3015 -5.66287 0
M  V30 54 H 4.1013 4.2473 -4.23515 0
M  V30 55 H 5.7803 4.30901 -4.82632 0
M  V30 56 N 5.9124 1.20967 1.01018 0
M  V30 57 C 7.1584 1.02526 1.74975 0
M  V30 58 C 7.4914 -0.4408 1.89131 0
M  V30 59 O 6.7664 -1.32718 1.42184 0
M  V30 60 C 7.0494 1.71699 3.1653 0
M  V30 61 C 6.9024 3.25791 3.10129 0
M  V30 62 C 8.2214 1.45531 4.15342 0
M  V30 63 H 5.3404 0.373863 0.635134 0
M  V30 64 H 7.9824 1.49071 1.17805 0
M  V30 65 H 6.1324 1.32128 3.65341 0
M  V30 66 H 7.8044 3.74697 2.69072 0
M  V30 67 H 6.0474 3.56363 2.47362 0
M  V30 68 H 6.7184 3.69353 4.10222 0
M  V30 69 H 9.1944 1.79872 3.75213 0
M  V30 70 H 8.0704 1.96453 5.1254 0
M  V30 71 H 8.3314 0.384237 4.40427 0
M  V30 72 N 7.3905 -1.2043 1.01659 0
M  V30 73 C 8.6385 -1.89423 0.704522 0
M  V30 74 C 8.9595 -1.79231 -0.768197 0
M  V30 75 O 8.2295 -1.1947 -1.55254 0
M  V30 76 H 6.8095 -0.701178 0.257602 0
M  V30 77 H 9.4715 -1.4626 1.28818 0
M  V30 78 H 8.5675 -2.96052 0.987916 0
M  V30 79 N 8.8686 -0.792821 -1.36206 0
M  V30 80 C 9.8316 -0.199459 -2.2833 0
M  V30 81 C 10.8316 0.605189 -1.48977 0
M  V30 82 O 12.0216 0.425685 -1.68919 0
M  V30 83 C 9.1536 0.723523 -3.33134 0
M  V30 84 H 10.3466 -1.01181 -2.82316 0
M  V30 85 H 7.8996 -0.562485 -1.45828 0
M  V30 86 H 8.6346 1.56008 -2.84309 0
M  V30 87 H 8.4196 0.148436 -3.91819 0
M  V30 88 H 9.9096 1.13344 -4.01924 0
M  V30 89 N 10.3467 1.47872 -0.545128 0
M  V30 90 C 11.5957 2.01695 -0.0145033 0
M  V30 91 C 11.9087 1.42609 1.33873 0
M  V30 92 O 13.1147 1.88021 1.95858 0
M  V30 93 C 11.5707 3.59892 0.0245068 0
M  V30 94 C 11.1787 4.27966 -1.32475 0
M  V30 95 C 12.9227 4.21507 0.50316 0
M  V30 96 C 10.8297 5.78136 -1.2455 0
M  V30 97 H 9.7597 0.753998 -0.00165172 0
M  V30 98 H 12.4107 1.69985 -0.691175 0
M  V30 99 H 10.7927 3.88509 0.766575 0
M  V30 100 H 11.9667 4.11003 -2.08357 0
M  V30 101 H 10.2817 3.78286 -1.74036 0
M  V30 102 H 12.8787 5.31538 0.580656 0
M  V30 103 H 13.2217 3.87855 1.51243 0
M  V30 104 H 13.7547 3.97376 -0.183681 0
M  V30 105 H 10.4937 6.16388 -2.23039 0
M  V30 106 H 10.0137 5.97469 -0.528282 0
M  V30 107 H 11.6927 6.40099 -0.942488 0
M  V30 108 N 11.8248 0.280983 1.55075 0
M  V30 109 C 12.7878 -0.590896 2.21452 0
M  V30 110 C 13.7878 -1.07682 1.19421 0
M  V30 111 O 14.9778 -0.97605 1.44288 0
M  V30 112 C 12.1098 -1.81587 2.88511 0
M  V30 113 H 13.3028 -0.0112554 2.99898 0
M  V30 114 H 10.8558 0.0316438 1.56268 0
M  V30 115 H 11.5908 -2.43587 2.14093 0
M  V30 116 H 11.3758 -1.4753 3.63287 0
M  V30 117 H 12.8658 -2.43575 3.39206 0
M  V30 118 N 13.3029 -1.57598 0.00835791 0
M  V30 119 C 14.2349 -2.05811 -1.00868 0
M  V30 120 C 15.2479 -0.977579 -1.30182 0
M  V30 121 O 16.4369 -1.25421 -1.27011 0
M  V30 122 C 13.5369 -2.45016 -2.34137 0
M  V30 123 C 12.7099 -3.75903 -2.23643 0
M  V30 124 C 11.7689 -4.01884 -3.3967 0
M  V30 125 O 10.7949 -4.72433 -3.17483 0
M  V30 126 N 11.9969 -3.50432 -4.62793 0
M  V30 127 H 14.7619 -2.93684 -0.597458 0
M  V30 128 H 12.3229 -1.60909 -0.178852 0
M  V30 129 H 14.3149 -2.59506 -3.10546 0
M  V30 130 H 12.8849 -1.62618 -2.66972 0
M  V30 131 H 12.1049 -3.7141 -1.32091 0
M  V30 132 H 13.3929 -4.61695 -2.13812 0
M  V30 133 H 12.7909 -2.93317 -4.83716 0
M  V30 134 H 11.3479 -3.70236 -5.3644 0
M  V30 135 N 14.781 0.264519 -1.55364 0
M  V30 136 C 16.197 0.61215 -1.47394 0
M  V30 137 C 16.397 1.89134 -0.695018 0
M  V30 138 O 15.453 2.51563 -0.217275 0
M  V30 139 C 16.766 0.731235 -2.91674 0
M  V30 140 C 18.314 0.82473 -3.01939 0
M  V30 141 C 18.789 0.975522 -4.4749 0
M  V30 142 N 20.28 1.04083 -4.51354 0
M  V30 143 C 21.015 1.17646 -5.61201 0
M  V30 144 N 20.511 1.27874 -6.80896 0
M  V30 145 N 22.304 1.20823 -5.48961 0
M  V30 146 H 14.455 -0.575456 -2.04456 0
M  V30 147 H 16.718 -0.196099 -0.927496 0
M  V30 148 H 16.424 -0.138392 -3.51428 0
M  V30 149 H 16.298 1.60883 -3.41169 0
M  V30 150 H 18.685 1.68482 -2.42276 0
M  V30 151 H 18.766 -0.0776479 -2.55682 0
M  V30 152 H 18.41 0.120058 -5.07758 0
M  V30 153 H 18.34 1.89268 -4.91412 0
M  V30 154 H 20.831 0.973846 -3.65136 0
M  V30 155 H 21.144 1.38081 -7.60364 0
M  V30 156 H 19.489 1.24863 -6.83692 0
M  V30 157 H 22.68 1.12469 -4.54388 0
M  V30 158 H 22.853 1.31049 -6.3461 0
M  V30 159 N 16.2591 1.48442 0.529413 0
M  V30 160 C 17.5361 1.46978 1.29062 0
M  V30 161 C 17.9161 0.181769 2.10316 0
M  V30 162 O 17.2641 -0.836481 2.12639 0
M  V30 163 C 17.4741 2.7321 2.17157 0
M  V30 164 C 18.8221 3.21562 2.77278 0
M  V30 165 O 19.8461 2.74131 2.27444 0
M  V30 166 O 18.7051 4.04094 3.67927 0
M  V30 167 H 15.7991 0.587003 0.582543 0
M  V30 168 H 18.3451 1.60676 0.546021 0
M  V30 169 H 17.1171 3.58465 1.56903 0
M  V30 170 H 16.7401 2.62235 2.98862 0
M  V30 171 N 17.7372 -0.778329 1.37039 0
M  V30 172 C 18.9832 -1.53892 1.32079 0
M  V30 173 C 19.3162 -1.9396 -0.0965386 0
M  V30 174 O 18.5912 -1.63568 -1.05242 0
M  V30 175 C 18.8742 -2.80847 2.25382 0
M  V30 176 C 18.7272 -2.47076 3.75864 0
M  V30 177 C 20.0462 -3.82741 2.1725 0
M  V30 178 H 17.1652 -0.558303 0.48111 0
M  V30 179 H 19.8072 -0.893397 1.67685 0
M  V30 180 H 17.9572 -3.35931 1.95148 0
M  V30 181 H 19.6292 -1.97957 4.16666 0
M  V30 182 H 17.8722 -1.79863 3.94755 0
M  V30 183 H 18.5432 -3.37798 4.36574 0
M  V30 184 H 21.0192 -3.37133 2.43887 0
M  V30 185 H 19.8952 -4.69303 2.84686 0
M  V30 186 H 20.1562 -4.2652 1.16331 0
M  V30 187 N 19.2153 -1.21501 -1.00376 0
M  V30 188 C 20.1783 -0.976927 -2.07337 0
M  V30 189 C 21.1783 0.0525322 -1.60714 0
M  V30 190 O 22.3683 -0.184869 -1.73216 0
M  V30 191 C 19.5003 -0.473423 -3.37597 0
M  V30 192 H 20.6933 -1.92587 -2.29892 0
M  V30 193 H 18.2463 -1.03217 -1.17371 0
M  V30 194 H 18.9813 0.480379 -3.20722 0
M  V30 195 H 18.7663 -1.216 -3.72768 0
M  V30 196 H 20.2563 -0.32675 -4.1632 0
M  V30 197 N 20.6934 1.19889 -1.02296 0
M  V30 198 C 21.6034 2.26571 -0.608508 0
M  V30 199 C 22.6194 1.70299 0.356964 0
M  V30 200 O 23.7954 2.00235 0.216326 0
M  V30 201 C 20.8604 3.46677 0.0402814 0
M  V30 202 C 19.9214 4.18153 -0.97194 0
M  V30 203 C 19.1544 5.32525 -0.354016 0
M  V30 204 O 19.3774 5.64112 0.844604 0
M  V30 205 O 18.3114 5.92242 -1.07391 0
M  V30 206 H 22.1374 2.64251 -1.49684 0
M  V30 207 H 19.7224 1.26629 -0.792809 0
M  V30 208 H 21.6044 4.19475 0.402324 0
M  V30 209 H 20.2794 3.10858 0.902707 0
M  V30 210 H 19.1864 3.47499 -1.38546 0
M  V30 211 H 20.5194 4.57927 -1.80454 0
M  V30 212 N 22.1715 0.800033 1.35784 0
M  V30 213 C 23.4205 0.37387 1.98205 0
M  V30 214 C 23.7335 -1.06302 1.64193 0
M  V30 215 O 24.9395 -1.59198 2.19928 0
M  V30 216 C 23.3955 0.617532 3.54562 0
M  V30 217 C 23.0035 2.06654 3.9749 0
M  V30 218 C 24.7475 0.256401 4.23725 0
M  V30 219 C 22.6545 2.2563 5.46667 0
M  V30 220 H 21.5845 0.136055 0.741623 0
M  V30 221 H 24.2355 0.983166 1.54939 0
M  V30 222 H 22.6175 -0.0616248 3.95952 0
M  V30 223 H 23.7915 2.78296 3.67271 0
M  V30 224 H 22.1065 2.38691 3.41197 0
M  V30 225 H 24.7035 0.376318 5.33374 0
M  V30 226 H 25.0465 -0.796692 4.08606 0
M  V30 227 H 25.5795 0.889214 3.87734 0
M  V30 228 H 22.3185 3.2936 5.66747 0
M  V30 229 H 21.8385 1.58504 5.78478 0
M  V30 230 H 23.5175 2.06861 6.1304 0
M  V30 231 N 23.6496 -1.47581 0.552962 0
M  V30 232 C 24.5796 -2.32762 -0.185451 0
M  V30 233 C 25.5606 -1.43527 -0.912905 0
M  V30 234 O 26.7456 -1.72388 -0.894201 0
M  V30 235 C 23.8756 -3.25219 -1.21859 0
M  V30 236 C 22.8296 -4.23661 -0.607864 0
M  V30 237 C 22.1556 -5.05413 -1.74533 0
M  V30 238 C 23.4556 -5.20481 0.435582 0
M  V30 239 H 25.1496 -2.94749 0.525684 0
M  V30 240 H 22.6956 -1.41738 0.254251 0
M  V30 241 H 24.6486 -3.8365 -1.7433 0
M  V30 242 H 23.3726 -2.61279 -1.95961 0
M  V30 243 H 22.0316 -3.66451 -0.104489 0
M  V30 244 H 21.6796 -4.3788 -2.47529 0
M  V30 245 H 21.3796 -5.72059 -1.34249 0
M  V30 246 H 22.9036 -5.66701 -2.27338 0
M  V30 247 H 24.3176 -5.733 -0.00290157 0
M  V30 248 H 22.7146 -5.95305 0.757067 0
M  V30 249 H 23.7846 -4.66217 1.33303 0
M  V30 250 N 25.1277 -0.289203 -1.54924 0
M  V30 251 C 26.0577 0.58549 -2.2604 0
M  V30 252 C 27.0387 1.14753 -1.25562 0
M  V30 253 O 28.2237 1.17906 -1.54311 0
M  V30 254 C 25.3537 1.76305 -2.99222 0
M  V30 255 C 24.3077 1.33191 -4.06748 0
M  V30 256 C 23.6337 2.5937 -4.6758 0
M  V30 257 C 24.9337 0.471775 -5.20165 0
M  V30 258 H 26.6277 -0.00763532 -2.99399 0
M  V30 259 H 24.1737 -0.00511229 -1.43999 0
M  V30 260 H 26.1267 2.38097 -3.47689 0
M  V30 261 H 24.8507 2.38223 -2.23422 0
M  V30 262 H 23.5097 0.737121 -3.59113 0
M  V30 263 H 23.1577 3.19576 -3.88433 0
M  V30 264 H 22.8577 2.31228 -5.40192 0
M  V30 265 H 24.3817 3.21985 -5.18804 0
M  V30 266 H 25.7957 0.995056 -5.64599 0
M  V30 267 H 24.1927 0.284639 -5.99425 0
M  V30 268 H 25.2627 -0.506041 -4.82252 0
M  V30 269 N 26.6058 1.57591 -0.0167156 0
M  V30 270 C 27.5158 2.1291 0.98521 0
M  V30 271 C 28.5318 1.07834 1.36557 0
M  V30 272 O 29.7078 1.39826 1.44951 0
M  V30 273 C 26.7728 2.63512 2.25305 0
M  V30 274 C 25.8338 3.83256 1.93426 0
M  V30 275 C 25.0668 4.31435 3.14165 0
M  V30 276 O 25.2898 3.78851 4.26413 0
M  V30 277 O 24.2238 5.23416 2.97186 0
M  V30 278 H 28.0498 2.98772 0.544888 0
M  V30 279 H 25.6348 1.48012 0.203141 0
M  V30 280 H 27.5168 2.96183 2.99756 0
M  V30 281 H 26.1918 1.8074 2.68542 0
M  V30 282 H 25.0988 3.55531 1.16398 0
M  V30 283 H 26.4318 4.67153 1.55013 0
M  V30 284 N 28.0839 -0.256276 1.55502 0
M  V30 285 C 29.3319 -0.983672 1.76545 0
M  V30 286 C 29.6529 -1.86206 0.578982 0
M  V30 287 O 28.9229 -1.91656 -0.405577 0
M  V30 288 H 27.5029 -0.366191 0.651086 0
M  V30 289 H 30.1649 -0.276479 1.92929 0
M  V30 290 H 29.2609 -1.61087 2.67315 0
M  V30 291 N 29.562 -1.4872 -0.521534 0
M  V30 292 C 30.492 -1.66771 -1.63431 0
M  V30 293 C 31.473 -0.516499 -1.62069 0
M  V30 294 O 32.658 -0.750013 -1.79132 0
M  V30 295 C 29.788 -1.71515 -3.01993 0
M  V30 296 C 28.742 -2.86222 -3.18216 0
M  V30 297 C 28.068 -2.76061 -4.57924 0
M  V30 298 C 29.368 -4.27419 -3.00184 0
M  V30 299 H 31.062 -2.59932 -1.48579 0
M  V30 300 H 28.608 -1.25089 -0.713358 0
M  V30 301 H 30.561 -1.82731 -3.7972 0
M  V30 302 H 29.285 -0.749393 -3.17886 0
M  V30 303 H 27.944 -2.74575 -2.42908 0
M  V30 304 H 27.592 -1.77437 -4.70665 0
M  V30 305 H 27.292 -3.53037 -4.69722 0
M  V30 306 H 28.816 -2.89256 -5.37739 0
M  V30 307 H 30.23 -4.39855 -3.67697 0
M  V30 308 H 28.627 -5.05458 -3.2347 0
M  V30 309 H 29.697 -4.43293 -1.96518 0
M  V30 310 N 31.0401 0.771051 -1.3745 0
M  V30 311 C 32.4561 1.07171 -1.18265 0
M  V30 312 C 32.6561 2.01491 -0.019287 0
M  V30 313 O 31.7121 2.44244 0.640408 0
M  V30 314 C 33.0251 1.66854 -2.50161 0
M  V30 315 C 34.5731 1.79109 -2.56689 0
M  V30 316 C 35.0481 2.42205 -3.88717 0
M  V30 317 N 36.5391 2.49655 -3.90162 0
M  V30 318 C 37.2741 2.9933 -4.8907 0
M  V30 319 N 36.7701 3.49172 -5.98374 0
M  V30 320 N 38.5631 2.9821 -4.76474 0
M  V30 321 H 30.7141 0.144796 -2.11906 0
M  V30 322 H 32.9771 0.126863 -0.939473 0
M  V30 323 H 32.6831 1.05017 -3.35655 0
M  V30 324 H 32.5571 2.6614 -2.673 0
M  V30 325 H 34.9441 2.40077 -1.71601 0
M  V30 326 H 35.0251 0.785757 -2.43433 0
M  V30 327 H 34.6691 1.81875 -4.74219 0
M  V30 328 H 34.5991 3.43345 -3.99276 0
M  V30 329 H 37.0901 2.14383 -3.11205 0
M  V30 330 H 37.4031 3.8548 -6.69795 0
M  V30 331 H 35.7481 3.47275 -6.02018 0
M  V30 332 H 38.9391 2.58572 -3.90203 0
M  V30 333 H 39.1121 3.36613 -5.53711 0
M  V30 334 N 32.5182 1.22032 0.997298 0
M  V30 335 C 33.9342 0.979326 1.26021 0
M  V30 336 C 34.1342 -0.32972 1.98784 0
M  V30 337 O 33.1902 -1.05345 2.29475 0
M  V30 338 C 34.5032 2.17509 2.07631 0
M  V30 339 C 36.0512 2.21817 2.2083 0
M  V30 340 C 36.5262 3.40933 3.05825 0
M  V30 341 N 38.0172 3.41067 3.13412 0
M  V30 342 C 38.7522 4.29885 3.79455 0
M  V30 343 N 38.2482 5.28914 4.47462 0
M  V30 344 N 40.0412 4.17673 3.76173 0
M  V30 345 H 32.1922 2.06202 0.509352 0
M  V30 346 H 34.4552 0.90334 0.287541 0
M  V30 347 H 34.1612 3.12415 1.61524 0
M  V30 348 H 34.0352 2.17206 3.08385 0
M  V30 349 H 36.4222 1.27462 2.66153 0
M  V30 350 H 36.5032 2.2616 1.1952 0
M  V30 351 H 36.1472 4.35586 2.61203 0
M  V30 352 H 36.0772 3.33829 4.07266 0
M  V30 353 H 38.5682 2.69406 2.65007 0
M  V30 354 H 38.8812 5.92973 4.95583 0
M  V30 355 H 37.2262 5.32831 4.46224 0
M  V30 356 H 40.4172 3.39564 3.22202 0
M  V30 357 H 40.5902 4.87098 4.27363 0
M  V30 358 N 33.9963 -1.19345 1.0293 0
M  V30 359 C 34.9263 -2.2481 0.631105 0
M  V30 360 C 35.9073 -1.66245 -0.360104 0
M  V30 361 O 37.0923 -1.92677 -0.242726 0
M  V30 362 C 34.2223 -3.47295 -0.0184607 0
M  V30 363 C 33.1763 -4.18536 0.895073 0
M  V30 364 C 32.5023 -5.34586 0.110592 0
M  V30 365 C 33.8023 -4.73287 2.209 0
M  V30 366 H 35.4963 -2.58372 1.51275 0
M  V30 367 H 33.0423 -1.24194 0.728818 0
M  V30 368 H 34.9953 -4.20268 -0.308675 0
M  V30 369 H 33.7193 -3.12933 -0.934907 0
M  V30 370 H 32.3783 -3.47446 1.16949 0
M  V30 371 H 32.0263 -4.96469 -0.807902 0
M  V30 372 H 31.7263 -5.83183 0.719087 0
M  V30 373 H 33.2503 -6.10355 -0.172871 0
M  V30 374 H 34.6643 -5.38013 1.98028 0
M  V30 375 H 33.0613 -5.32373 2.76946 0
M  V30 376 H 34.1313 -3.91331 2.86336 0
M  V30 377 N 35.4744 -0.807222 -1.35358 0
M  V30 378 C 36.3844 -0.219594 -2.3357 0
M  V30 379 C 37.4004 0.637734 -1.61892 0
M  V30 380 O 38.5764 0.549336 -1.93763 0
M  V30 381 C 35.6414 0.62158 -3.41083 0
M  V30 382 C 34.7024 -0.256315 -4.28534 0
M  V30 383 C 33.9354 0.544807 -5.30912 0
M  V30 384 O 34.1584 1.77944 -5.41934 0
M  V30 385 O 33.0924 -0.0646478 -6.01865 0
M  V30 386 H 36.9184 -1.03208 -2.85625 0
M  V30 387 H 34.5034 -0.569025 -1.38139 0
M  V30 388 H 36.3854 1.10067 -4.06772 0
M  V30 389 H 35.0604 1.41165 -2.91297 0
M  V30 390 H 33.9674 -0.782559 -3.65823 0
M  V30 391 H 35.3004 -1.01034 -4.81719 0
M  V30 392 N 36.9525 1.47285 -0.560781 0
M  V30 393 C 38.1825 2.06555 -0.0429638 0
M  V30 394 C 38.5905 1.41339 1.25777 0
M  V30 395 O 37.9335 0.505182 1.76617 0
M  V30 396 C 37.9955 3.58827 0.219887 0
M  V30 397 C 37.6595 4.46105 -0.991944 0
M  V30 398 C 38.6565 4.84 -1.89843 0
M  V30 399 C 36.3415 4.87567 -1.20762 0
M  V30 400 C 38.3355 5.6216 -3.00425 0
M  V30 401 C 36.0225 5.65491 -2.31653 0
M  V30 402 C 37.0205 6.02699 -3.21315 0
M  V30 403 O 36.7085 6.79052 -4.30283 0
M  V30 404 H 36.4405 0.674537 -0.0444468 0
M  V30 405 H 38.9945 1.90225 -0.774818 0
M  V30 406 H 37.2245 3.73383 1.00609 0
M  V30 407 H 38.9135 4.00103 0.683522 0
M  V30 408 H 39.6795 4.52564 -1.74387 0
M  V30 409 H 35.5585 4.5807 -0.518893 0
M  V30 410 H 39.1025 5.9112 -3.70436 0
M  V30 411 H 34.9995 5.9634 -2.47081 0
M  V30 412 H 35.7675 6.9745 -4.28376 0
M  V30 413 N 38.4306 0.297415 1.54768 0
M  V30 414 C 39.8466 -0.0560823 1.59501 0
M  V30 415 C 40.0466 -1.52725 1.31444 0
M  V30 416 O 39.1026 -2.27947 1.08611 0
M  V30 417 C 40.4156 0.338631 2.98787 0
M  V30 418 C 41.9636 0.287097 3.11681 0
M  V30 419 C 42.4386 0.656579 4.53269 0
M  V30 420 N 43.9296 0.608977 4.59179 0
M  V30 421 C 44.6646 0.867385 5.66802 0
M  V30 422 N 44.1606 1.19157 6.82476 0
M  V30 423 N 45.9536 0.794687 5.56454 0
M  V30 424 H 38.1046 1.25624 1.71267 0
M  V30 425 H 40.3676 0.509057 0.799728 0
M  V30 426 H 40.0736 1.36263 3.2423 0
M  V30 427 H 39.9476 -0.309508 3.75928 0
M  V30 428 H 42.3346 -0.727649 2.85988 0
M  V30 429 H 42.4156 0.969809 2.36703 0
M  V30 430 H 42.0596 1.66912 4.7969 0
M  V30 431 H 41.9896 -0.0481649 5.26578 0
M  V30 432 H 44.4806 0.369198 3.76092 0
M  V30 433 H 44.7936 1.37482 7.60473 0
M  V30 434 H 43.1386 1.22958 6.84037 0
M  V30 435 H 46.3296 0.541098 4.64962 0
M  V30 436 H 46.5026 0.999445 6.40246 0
M  V30 437 N 39.9087 -1.5758 0.0250728 0
M  V30 438 C 41.1567 -1.91255 -0.653151 0
M  V30 439 C 41.4777 -0.901691 -1.729 0
M  V30 440 O 40.7477 0.0573785 -1.95816 0
M  V30 441 H 39.3277 -0.705942 -0.244243 0
M  V30 442 H 41.9897 -1.94767 0.0719209 0
M  V30 443 H 41.0857 -2.91752 -1.10847 0
M  V30 444 N 41.3868 0.248026 -1.55636 0
M  V30 445 C 42.6168 0.992367 -1.81206 0
M  V30 446 C 43.0248 1.7949 -0.598324 0
M  V30 447 O 42.3678 1.78292 0.442434 0
M  V30 448 C 42.4298 1.97926 -3.00109 0
M  V30 449 C 42.0938 1.36377 -4.36177 0
M  V30 450 C 43.0908 0.76682 -5.14214 0
M  V30 451 C 40.7758 1.38347 -4.82872 0
M  V30 452 C 42.7698 0.197778 -6.37093 0
M  V30 453 C 40.4568 0.810574 -6.057 0
M  V30 454 C 41.4548 0.218754 -6.8265 0
M  V30 455 O 41.1428 -0.345298 -8.03158 0
M  V30 456 H 40.8748 0.297704 -0.606917 0
M  V30 457 H 43.4288 0.276517 -2.0353 0
M  V30 458 H 41.6588 2.73339 -2.73538 0
M  V30 459 H 43.3478 2.58694 -3.12781 0
M  V30 460 H 44.1138 0.744114 -4.79258 0
M  V30 461 H 39.9928 1.8335 -4.2297 0
M  V30 462 H 43.5368 -0.264788 -6.97097 0
M  V30 463 H 39.4338 0.830604 -6.40134 0
M  V30 464 H 40.2018 -0.237055 -8.18157 0
M  V30 465 N 42.8649 1.48995 0.513639 0
M  V30 466 C 44.1419 1.48338 1.27495 0
M  V30 467 C 44.5219 0.204065 2.10111 0
M  V30 468 O 43.8699 -0.813881 2.13514 0
M  V30 469 C 44.0799 2.75498 2.14247 0
M  V30 470 C 45.4279 3.24484 2.73852 0
M  V30 471 O 46.4519 2.76528 2.24523 0
M  V30 472 O 45.3109 4.07974 3.6362 0
M  V30 473 H 42.4049 0.593149 0.576284 0
M  V30 474 H 44.9509 1.61246 0.528948 0
M  V30 475 H 43.7229 3.60109 1.53092 0
M  V30 476 H 43.3459 2.6539 2.96064 0
M  V30 477 N 44.343 -0.763751 1.37857 0
M  V30 478 C 45.568 -1.55805 1.36893 0
M  V30 479 C 45.993 -1.88054 -0.0416135 0
M  V30 480 O 45.351 -1.49825 -1.02089 0
M  V30 481 C 45.399 -2.84012 2.22192 0
M  V30 482 O 44.503 -3.78732 1.63204 0
M  V30 483 H 43.844 -0.471638 0.46739 0
M  V30 484 H 46.374 -0.944657 1.81487 0
M  V30 485 H 46.384 -3.33037 2.35691 0
M  V30 486 H 45.059 -2.59869 3.24716 0
M  V30 487 H 43.636 -3.37402 1.58791 0
M  V30 488 N 45.8211 -1.22559 -0.990812 0
M  V30 489 C 46.7841 -0.998863 -2.0629 0
M  V30 490 C 47.7841 0.0354834 -1.60761 0
M  V30 491 O 48.9741 -0.203231 -1.7301 0
M  V30 492 C 46.1061 -0.509203 -3.37076 0
M  V30 493 H 47.2991 -1.95014 -2.27837 0
M  V30 494 H 44.8521 -1.04456 -1.16269 0
M  V30 495 H 45.5871 0.446335 -3.21214 0
M  V30 496 H 45.3721 -1.25547 -3.71457 0
M  V30 497 H 46.8621 -0.370888 -4.1595 0
M  V30 498 N 47.2992 1.18797 -1.03562 0
M  V30 499 C 48.5472 1.88278 -0.734569 0
M  V30 500 C 48.8682 1.8043 0.739586 0
M  V30 501 O 48.1382 1.21925 1.53333 0
M  V30 502 H 46.7182 0.696991 -0.268725 0
M  V30 503 H 49.3802 1.44192 -1.31129 0
M  V30 504 H 48.4762 2.94443 -1.03489 0
M  V30 505 N 48.7773 0.814389 1.34928 0
M  V30 506 C 49.7073 0.244827 2.32213 0
M  V30 507 C 50.6883 -0.634024 1.57842 0
M  V30 508 O 51.8733 -0.562676 1.8587 0
M  V30 509 C 49.0033 -0.601106 3.42058 0
M  V30 510 C 47.9573 0.179896 4.27622 0
M  V30 511 C 47.2833 -0.788237 5.28858 0
M  V30 512 C 48.5833 1.38329 5.03649 0
M  V30 513 H 50.2773 1.05763 2.80097 0
M  V30 514 H 47.8233 0.510029 1.34665 0
M  V30 515 H 49.7763 -1.00968 4.09125 0
M  V30 516 H 48.5003 -1.44688 2.92802 0
M  V30 517 H 47.1593 0.569739 3.62146 0
M  V30 518 H 46.8073 -1.62973 4.75866 0
M  V30 519 H 46.5073 -0.269942 5.8698 0
M  V30 520 H 48.0313 -1.19485 5.98795 0
M  V30 521 H 49.4453 1.04918 5.63618 0
M  V30 522 H 47.8423 1.83662 5.71304 0
M  V30 523 H 48.9123 2.16592 4.33839 0
M  V30 524 N 50.2554 -1.46986 0.568584 0
M  V30 525 C 51.2184 -2.28624 -0.162366 0
M  V30 526 C 52.2184 -1.37596 -0.832103 0
M  V30 527 O 53.4084 -1.60115 -0.68622 0
M  V30 528 C 50.5404 -3.17596 -1.23878 0
M  V30 529 H 51.7334 -2.94722 0.554899 0
M  V30 530 H 49.2864 -1.52863 0.325976 0
M  V30 531 H 50.0214 -2.56214 -1.98808 0
M  V30 532 H 49.8064 -3.846 -0.763219 0
M  V30 533 H 51.2964 -3.79078 -1.75185 0
M  V30 534 N 51.7335 -0.305618 -1.54608 0
M  V30 535 C 52.9795 0.302746 -2.00528 0
M  V30 536 C 53.3125 1.53184 -1.19367 0
M  V30 537 O 52.5875 1.92598 -0.271321 0
M  V30 538 C 52.8705 0.654756 -3.54097 0
M  V30 539 C 52.7235 -0.583793 -4.45995 0
M  V30 540 C 54.0425 1.47947 -4.14487 0
M  V30 541 H 51.1615 0.108564 -0.72896 0
M  V30 542 H 53.8035 -0.418634 -1.85331 0
M  V30 543 H 51.9535 1.26935 -3.67178 0
M  V30 544 H 53.6255 -1.22224 -4.44814 0
M  V30 545 H 51.8685 -1.21615 -4.16404 0
M  V30 546 H 52.5395 -0.293287 -5.5122 0
M  V30 547 H 55.0155 0.96013 -4.04871 0
M  V30 548 H 53.8915 1.69454 -5.22088 0
M  V30 549 H 54.1525 2.47011 -3.66658 0
M  V30 550 N 53.2116 1.57565 -0.0334293 0
M  V30 551 C 54.4576 1.92262 0.645226 0
M  V30 552 C 54.7906 0.910543 1.71531 0
M  V30 553 O 54.0656 -0.066099 1.94388 0
M  V30 554 C 54.3486 3.37422 1.2577 0
M  V30 555 C 54.2016 4.49369 0.196891 0
M  V30 556 C 55.5206 3.82628 2.17449 0
M  V30 557 H 52.6396 0.699171 0.233085 0
M  V30 558 H 55.2816 1.89779 -0.0915694 0
M  V30 559 H 53.4316 3.39669 1.88566 0
M  V30 560 H 55.1036 4.59254 -0.433962 0
M  V30 561 H 53.3466 4.31168 -0.477137 0
M  V30 562 H 54.0176 5.47978 0.665124 0
M  V30 563 H 56.4936 3.82145 1.64634 0
M  V30 564 H 55.3696 4.84883 2.57254 0
M  V30 565 H 55.6306 3.18376 3.0674 0
M  V30 566 N 54.6897 -0.239769 1.55765 0
M  V30 567 C 55.9667 -0.990056 1.68693 0
M  V30 568 C 56.3467 -2.03107 0.5754 0
M  V30 569 O 55.6947 -2.24604 -0.42017 0
M  V30 570 C 55.9047 -1.61696 3.09282 0
M  V30 571 C 57.2527 -2.11613 3.6811 0
M  V30 572 O 58.2767 -1.71624 3.12127 0
M  V30 573 O 57.1357 -2.85057 4.66267 0
M  V30 574 H 54.2297 -0.461299 0.686391 0
M  V30 575 H 56.7757 -0.232991 1.68093 0
M  V30 576 H 55.5477 -0.864357 3.81634 0
M  V30 577 H 55.1707 -2.44005 3.13923 0
M  V30 578 N 56.1678 -1.49265 -0.50573 0
M  V30 579 C 57.1308 -1.65075 -1.59006 0
M  V30 580 C 58.1308 -0.522768 -1.52065 0
M  V30 581 O 59.3208 -0.789117 -1.55302 0
M  V30 582 C 56.4528 -1.64369 -2.98656 0
M  V30 583 H 57.6458 -2.61784 -1.46319 0
M  V30 584 H 55.1988 -1.38226 -0.729616 0
M  V30 585 H 55.9338 -0.692272 -3.16825 0
M  V30 586 H 55.7188 -2.46282 -3.05103 0
M  V30 587 H 57.2088 -1.78674 -3.77446 0
M  V30 588 N 57.6459 0.756429 -1.3826 0
M  V30 589 C 58.5559 1.9009 -1.37488 0
M  V30 590 C 59.5719 1.71855 -0.272366 0
M  V30 591 O 60.7479 1.94827 -0.510318 0
M  V30 592 C 57.8129 3.25421 -1.19592 0
M  V30 593 C 56.8739 3.56202 -2.39622 0
M  V30 594 C 56.1069 4.85075 -2.2257 0
M  V30 595 O 56.3299 5.57246 -1.21793 0
M  V30 596 O 55.2639 5.15269 -3.11098 0
M  V30 597 H 59.0899 1.93695 -2.33914 0
M  V30 598 H 56.6749 0.901313 -1.1915 0
M  V30 599 H 58.5569 4.06337 -1.11661 0
M  V30 600 H 57.2319 3.22634 -0.262486 0
M  V30 601 H 56.1389 2.75458 -2.53128 0
M  V30 602 H 57.4719 3.63747 -3.31586 0
M  V30 603 N 59.124 1.23083 0.984299 0
M  V30 604 C 60.372 1.05848 1.72165 0
M  V30 605 C 60.693 -0.406049 1.90726 0
M  V30 606 O 59.963 -1.29139 1.47309 0
M  V30 607 H 58.543 0.388685 0.637913 0
M  V30 608 H 61.205 1.54736 1.18503 0
M  V30 609 H 60.301 1.54327 2.71274 0
M  V30 610 N 60.6021 -1.18246 1.0419 0
M  V30 611 C 61.5521 -2.19843 0.604392 0
M  V30 612 C 62.5361 -1.56962 -0.353814 0
M  V30 613 O 63.7281 -1.76156 -0.17267 0
M  V30 614 C 60.8571 -3.43287 -0.0298975 0
M  V30 615 C 59.9431 -4.13288 0.951531 0
M  V30 616 N 60.3341 -4.59271 2.11906 0
M  V30 617 C 58.6321 -4.39165 0.7778 0
M  V30 618 C 59.3331 -5.13173 2.73912 0
M  V30 619 N 58.3091 -5.04763 2.01779 0
M  V30 620 H 62.1111 -2.53089 1.4941 0
M  V30 621 H 59.6251 -1.34465 0.910658 0
M  V30 622 H 61.6221 -4.15334 -0.361037 0
M  V30 623 H 60.2821 -3.11537 -0.915127 0
M  V30 624 H 61.2931 -4.5368 2.49789 0
M  V30 625 H 57.9701 -4.17461 -0.0572331 0
M  V30 626 H 59.3601 -5.58947 3.72864 0
M  V30 627 N 62.0802 -0.821533 -1.34494 0
M  V30 628 C 63.0132 -0.187704 -2.27427 0
M  V30 629 C 63.9912 0.65507 -1.48821 0
M  V30 630 O 65.1752 0.619111 -1.78043 0
M  V30 631 C 62.3022 0.737996 -3.30562 0
M  V30 632 C 61.3482 -0.0270713 -4.26491 0
M  V30 633 S 62.1812 -1.37329 -5.17592 0
M  V30 634 C 63.3372 -0.452427 -6.24263 0
M  V30 635 H 63.5702 -0.975598 -2.80837 0
M  V30 636 H 61.1032 -0.61736 -1.4152 0
M  V30 637 H 63.0612 1.26654 -3.90473 0
M  V30 638 H 61.7222 1.4994 -2.76001 0
M  V30 639 H 60.9152 0.6766 -4.99438 0
M  V30 640 H 60.5172 -0.48612 -3.70827 0
M  V30 641 H 62.8092 0.356557 -6.76561 0
M  V30 642 H 63.7522 -1.15153 -6.98674 0
M  V30 643 H 64.1602 -0.0414755 -5.64485 0
M  V30 644 N 63.5583 1.46682 -0.576371 0
M  V30 645 C 64.7863 2.06798 -0.0649635 0
M  V30 646 C 65.2013 1.42612 1.23723 0
M  V30 647 O 64.5583 0.529203 1.74659 0
M  V30 648 C 64.6093 3.6132 0.114202 0
M  V30 649 O 64.3303 4.23104 -1.13644 0
M  V30 650 C 65.8313 4.38349 0.66069 0
M  V30 651 H 63.0513 0.668778 -0.0545616 0
M  V30 652 H 65.5953 1.88404 -0.795237 0
M  V30 653 H 63.7503 3.79162 0.794673 0
M  V30 654 H 64.1643 5.15894 -0.946253 0
M  V30 655 H 65.6383 5.47081 0.73526 0
M  V30 656 H 66.1153 4.05953 1.67627 0
M  V30 657 H 66.7213 4.25297 0.0152951 0
M  V30 658 N 65.0364 0.313813 1.54444 0
M  V30 659 C 66.4524 -0.0391619 1.59552 0
M  V30 660 C 66.6524 -1.51322 1.33056 0
M  V30 661 O 65.7084 -2.26782 1.11022 0
M  V30 662 C 67.0214 0.370302 2.98411 0
M  V30 663 C 68.5694 0.320139 3.11358 0
M  V30 664 C 69.0444 0.704617 4.52547 0
M  V30 665 N 70.5354 0.657645 4.58508 0
M  V30 666 C 71.2704 0.927453 5.6585 0
M  V30 667 N 70.7664 1.26389 6.81174 0
M  V30 668 N 72.5594 0.853662 5.5558 0
M  V30 669 H 64.7104 1.27433 1.69925 0
M  V30 670 H 66.9734 0.517511 0.794284 0
M  V30 671 H 66.6794 1.39694 3.22767 0
M  V30 672 H 66.5534 -0.269619 3.76235 0
M  V30 673 H 68.9404 -0.697275 2.86744 0
M  V30 674 H 69.0214 0.99486 2.35661 0
M  V30 675 H 68.6654 1.7199 4.77893 0
M  V30 676 H 68.5954 0.00768843 5.26599 0
M  V30 677 H 71.0864 0.409067 3.75679 0
M  V30 678 H 71.3994 1.4554 7.58972 0
M  V30 679 H 69.7444 1.30206 6.82694 0
M  V30 680 H 72.9354 0.590383 4.64362 0
M  V30 681 H 73.1084 1.0673 6.3915 0
M  V30 682 N 66.5145 -1.57545 0.0417849 0
M  V30 683 C 67.4445 -2.14009 -0.933929 0
M  V30 684 C 68.4255 -1.05938 -1.33083 0
M  V30 685 O 69.6105 -1.33833 -1.40721 0
M  V30 686 C 66.7405 -2.67747 -2.21199 0
M  V30 687 C 65.6945 -3.80718 -1.95544 0
M  V30 688 C 65.0205 -4.20935 -3.29724 0
M  V30 689 C 66.3205 -5.06258 -1.28452 0
M  V30 690 H 68.0145 -2.95788 -0.463645 0
M  V30 691 H 65.5605 -1.42285 -0.221573 0
M  V30 692 H 67.5135 -3.05886 -2.89848 0
M  V30 693 H 66.2375 -1.83147 -2.70416 0
M  V30 694 H 64.8965 -3.43037 -1.2931 0
M  V30 695 H 64.5445 -3.33298 -3.76724 0
M  V30 696 H 64.2445 -4.9707 -3.13361 0
M  V30 697 H 65.7685 -4.61666 -3.9962 0
M  V30 698 H 67.1825 -5.41903 -1.8712 0
M  V30 699 H 65.5795 -5.87475 -1.22445 0
M  V30 700 H 66.6495 -4.84207 -0.259219 0
M  V30 701 N 67.9926 0.231505 -1.5589 0
M  V30 702 C 69.4086 0.580748 -1.48659 0
M  V30 703 C 69.6086 1.87617 -0.73498 0
M  V30 704 O 68.6646 2.51046 -0.270586 0
M  V30 705 C 69.9776 0.669202 -2.93159 0
M  V30 706 C 71.5256 0.760499 -3.03621 0
M  V30 707 C 72.0006 0.880383 -4.49459 0
M  V30 708 N 73.4916 0.944861 -4.53461 0
M  V30 709 C 74.2266 1.05716 -5.63571 0
M  V30 710 N 73.7226 1.13403 -6.83456 0
M  V30 711 N 75.5156 1.09152 -5.514 0
M  V30 712 H 67.6666 -0.618695 -2.03189 0
M  V30 713 H 69.9296 -0.215728 -0.923128 0
M  V30 714 H 69.6356 -0.212904 -3.51055 0
M  V30 715 H 69.5096 1.5361 -3.44505 0
M  V30 716 H 71.8966 1.63305 -2.45796 0
M  V30 717 H 71.9776 -0.131864 -2.5546 0
M  V30 718 H 71.6216 0.0123284 -5.07899 0
M  V30 719 H 71.5516 1.78802 -4.95316 0
M  V30 720 H 74.0426 0.896176 -3.6712 0
M  V30 721 H 74.3556 1.21921 -7.63122 0
M  V30 722 H 72.7006 1.10333 -6.86186 0
M  V30 723 H 75.8916 1.02805 -4.56671 0
M  V30 724 H 76.0646 1.17558 -6.37247 0
M  V30 725 N 69.4707 1.49531 0.497807 0
M  V30 726 C 70.8867 1.36365 0.829266 0
M  V30 727 C 71.0867 0.399184 1.97506 0
M  V30 728 O 70.1427 -0.167977 2.51941 0
M  V30 729 C 71.4557 2.77153 1.16647 0
M  V30 730 C 73.0037 2.85877 1.27449 0
M  V30 731 C 73.4787 4.2744 1.64497 0
M  V30 732 N 74.9697 4.30265 1.7154 0
M  V30 733 C 75.7047 5.3677 2.01656 0
M  V30 734 N 75.2007 6.53516 2.29976 0
M  V30 735 N 76.9937 5.24189 2.02934 0
M  V30 736 H 69.1447 2.10831 -0.257703 0
M  V30 737 H 71.4077 0.946534 -0.0527091 0
M  V30 738 H 71.1137 3.49442 0.397872 0
M  V30 739 H 70.9877 3.12722 2.10915 0
M  V30 740 H 73.3747 2.13824 2.0338 0
M  V30 741 H 73.4557 2.53887 0.312244 0
M  V30 742 H 73.0997 5.00021 0.891151 0
M  V30 743 H 73.0297 4.56896 2.61827 0
M  V30 744 H 75.5207 3.4607 1.51802 0
M  V30 745 H 75.8337 7.30506 2.52153 0
M  V30 746 H 74.1787 6.56737 2.27425 0
M  V30 747 H 77.3697 4.31988 1.80289 0
M  V30 748 H 77.5427 6.07286 2.26071 0
M  V30 749 N 70.9488 -0.749086 1.3866 0
M  V30 750 C 71.8788 -1.8764 1.38973 0
M  V30 751 C 72.8598 -1.68178 0.255004 0
M  V30 752 O 74.0448 -1.88704 0.458754 0
M  V30 753 C 71.1748 -3.25222 1.21851 0
M  V30 754 C 70.1288 -3.59295 2.32575 0
M  V30 755 C 69.4548 -4.95663 2.00555 0
M  V30 756 C 70.7548 -3.63709 3.7485 0
M  V30 757 H 72.4488 -1.87635 2.3331 0
M  V30 758 H 69.9948 -0.901329 1.12303 0
M  V30 759 H 71.9478 -4.03746 1.20695 0
M  V30 760 H 70.6718 -3.25719 0.239775 0
M  V30 761 H 69.3308 -2.83093 2.32925 0
M  V30 762 H 68.9788 -4.92724 1.01154 0
M  V30 763 H 68.6788 -5.19429 2.74714 0
M  V30 764 H 70.2028 -5.7656 2.01024 0
M  V30 765 H 71.6168 -4.32338 3.76506 0
M  V30 766 H 70.0138 -3.98986 4.48252 0
M  V30 767 H 71.0838 -2.63834 4.06841 0
M  V30 768 N 72.4269 -1.23603 -0.977757 0
M  V30 769 C 73.6749 -1.06759 -1.71601 0
M  V30 770 C 73.9959 0.395929 -1.90938 0
M  V30 771 O 73.2659 1.28356 -1.47992 0
M  V30 772 H 71.8459 -0.392062 -0.635843 0
M  V30 773 H 74.5079 -1.55362 -1.1768 0
M  V30 774 H 73.6039 -1.55763 -2.70452 0
M  V30 775 N 73.905 1.17692 -1.04816 0
M  V30 776 C 74.852 2.21581 -0.645797 0
M  V30 777 C 75.822 1.62367 0.350159 0
M  V30 778 O 77.007 1.89254 0.242433 0
M  V30 779 C 74.147 3.45092 -0.0227568 0
M  V30 780 C 73.26 4.18613 -1.06709 0
M  V30 781 C 72.395 5.29602 -0.411767 0
M  V30 782 C 71.434 5.94904 -1.44067 0
M  V30 783 N 70.571 6.97414 -0.809781 0
M  V30 784 H 75.411 2.55353 -1.5362 0
M  V30 785 H 72.948 1.25438 -0.768364 0
M  V30 786 H 74.906 4.15679 0.35588 0
M  V30 787 H 73.536 3.11917 0.831122 0
M  V30 788 H 72.588 3.46779 -1.5636 0
M  V30 789 H 73.9 4.63293 -1.84827 0
M  V30 790 H 73.054 6.06696 0.0206623 0
M  V30 791 H 71.793 4.86045 0.401438 0
M  V30 792 H 70.798 5.16544 -1.88316 0
M  V30 793 H 72.023 6.40542 -2.25571 0
M  V30 794 H 69.969 6.55998 -0.0170186 0
M  V30 795 H 69.886 7.40386 -1.52856 0
M  V30 796 H 71.154 7.78463 -0.401999 0
M  V30 797 N 75.3831 0.828654 1.34056 0
M  V30 798 C 76.6291 0.42008 1.98402 0
M  V30 799 C 76.9621 -1.01564 1.65525 0
M  V30 800 O 76.2371 -1.70834 0.929831 0
M  V30 801 C 76.5201 0.62927 3.54559 0
M  V30 802 C 76.3731 2.11152 3.97159 0
M  V30 803 C 77.6921 0.0688756 4.40046 0
M  V30 804 H 74.8111 0.154104 0.720709 0
M  V30 805 H 77.4531 1.04228 1.5886 0
M  V30 806 H 75.6031 0.0996418 3.88372 0
M  V30 807 H 77.2751 2.70522 3.73651 0
M  V30 808 H 75.5181 2.59985 3.47261 0
M  V30 809 H 76.1891 2.20868 5.05887 0
M  V30 810 H 78.6651 0.521458 4.1282 0
M  V30 811 H 77.5411 0.245006 5.48353 0
M  V30 812 H 77.8021 -1.0266 4.30015 0
M  V30 813 N 76.8612 -1.46375 0.584142 0
M  V30 814 C 77.7932 -2.28443 -0.186119 0
M  V30 815 C 78.8062 -1.38596 -0.854115 0
M  V30 816 O 79.9952 -1.63183 -0.723438 0
M  V30 817 C 77.0952 -3.13671 -1.28311 0
M  V30 818 C 76.2682 -4.31652 -0.706758 0
M  V30 819 C 75.3272 -4.98267 -1.69163 0
M  V30 820 O 74.3532 -5.55815 -1.22712 0
M  V30 821 N 75.5552 -4.95408 -3.02575 0
M  V30 822 H 78.3202 -2.9519 0.517986 0
M  V30 823 H 75.8812 -1.56303 0.42201 0
M  V30 824 H 77.8732 -3.55101 -1.94128 0
M  V30 825 H 76.4432 -2.48989 -1.89005 0
M  V30 826 H 75.6632 -3.93989 0.128908 0
M  V30 827 H 76.9512 -5.07906 -0.301506 0
M  V30 828 H 76.3492 -4.49902 -3.42936 0
M  V30 829 H 74.9062 -5.40774 -3.63877 0
M  V30 830 N 78.3393 -0.321999 -1.54275 0
M  V30 831 C 79.2723 0.58718 -2.20516 0
M  V30 832 C 80.2503 1.11693 -1.18167 0
M  V30 833 O 81.4343 1.18122 -1.46899 0
M  V30 834 C 78.5613 1.80554 -2.86562 0
M  V30 835 C 77.6073 1.40718 -4.02617 0
M  V30 836 S 78.4403 0.445218 -5.33646 0
M  V30 837 C 79.5963 1.6709 -6.03185 0
M  V30 838 H 79.8293 0.0244875 -2.9729 0
M  V30 839 H 77.3623 -0.106087 -1.54035 0
M  V30 840 H 79.3203 2.50462 -3.25237 0
M  V30 841 H 77.9813 2.33942 -2.09595 0
M  V30 842 H 77.1743 2.31501 -4.47687 0
M  V30 843 H 76.7763 0.78782 -3.65608 0
M  V30 844 H 79.0683 2.60856 -6.25268 0
M  V30 845 H 80.0113 1.26239 -6.96756 0
M  V30 846 H 80.4193 1.85716 -5.33076 0
M  V30 847 N 79.8174 1.5752 -0.0501392 0
M  V30 848 C 80.7474 2.14502 0.922566 0
M  V30 849 C 81.7284 1.06642 1.3252 0
M  V30 850 O 82.9134 1.34577 1.4001 0
M  V30 851 C 80.0434 2.68916 2.19776 0
M  V30 852 C 78.9974 3.8175 1.93523 0
M  V30 853 C 78.3234 4.22677 3.27487 0
M  V30 854 C 79.6234 5.06932 1.25765 0
M  V30 855 H 81.3174 2.9603 0.447952 0
M  V30 856 H 78.8634 1.42401 0.214024 0
M  V30 857 H 80.8164 3.07419 2.88222 0
M  V30 858 H 79.5404 1.84578 2.69441 0
M  V30 859 H 78.1994 3.43718 1.27489 0
M  V30 860 H 77.8474 3.35291 3.74952 0
M  V30 861 H 77.5474 4.98725 3.1072 0
M  V30 862 H 79.0714 4.63779 3.97166 0
M  V30 863 H 80.4854 5.42888 1.84244 0
M  V30 864 H 78.8824 5.88116 1.19328 0
M  V30 865 H 79.9524 4.84337 0.233536 0
M  V30 866 N 81.2955 -0.223234 1.56011 0
M  V30 867 C 82.2585 -1.26014 1.9145 0
M  V30 868 C 83.2585 -1.3989 0.792937 0
M  V30 869 O 84.4485 -1.38184 1.0607 0
M  V30 870 C 81.5805 -2.63422 2.16383 0
M  V30 871 H 82.7735 -0.95796 2.84189 0
M  V30 872 H 80.3265 -0.463576 1.49267 0
M  V30 873 H 81.0615 -2.98741 1.2619 0
M  V30 874 H 80.8465 -2.54728 2.98088 0
M  V30 875 H 82.3365 -3.38249 2.44903 0
M  V30 876 N 82.7736 -1.49793 -0.48987 0
M  V30 877 C 83.7056 -1.63413 -1.60713 0
M  V30 878 C 84.7186 -0.516329 -1.54395 0
M  V30 879 O 85.9076 -0.788812 -1.60125 0
M  V30 880 C 83.0076 -1.58516 -2.99543 0
M  V30 881 C 82.1806 -2.86016 -3.30928 0
M  V30 882 C 81.2396 -2.74018 -4.49222 0
M  V30 883 O 80.2656 -3.47964 -4.50455 0
M  V30 884 N 81.4676 -1.86309 -5.4979 0
M  V30 885 H 84.2326 -2.59777 -1.49452 0
M  V30 886 H 81.7936 -1.47022 -0.677955 0
M  V30 887 H 83.7856 -1.48128 -3.76617 0
M  V30 888 H 82.3556 -0.69965 -3.0467 0
M  V30 889 H 81.5756 -3.10672 -2.42645 0
M  V30 890 H 82.8636 -3.70521 -3.487 0
M  V30 891 H 82.2616 -1.2551 -5.51601 0
M  V30 892 H 80.8186 -1.81837 -6.25922 0
M  V30 893 N 84.2517 0.741722 -1.39055 0
M  V30 894 C 85.2147 1.83733 -1.37021 0
M  V30 895 C 86.2147 1.58542 -0.268534 0
M  V30 896 O 87.4047 1.66067 -0.526076 0
M  V30 897 C 84.5367 3.2141 -1.13617 0
M  V30 898 H 85.7297 1.86941 -2.34506 0
M  V30 899 H 83.2827 0.944676 -1.24521 0
M  V30 900 H 84.0177 3.23865 -0.167863 0
M  V30 901 H 83.8027 3.4109 -1.93391 0
M  V30 902 H 85.2927 4.01477 -1.14918 0
M  V30 903 N 85.7298 1.2412 0.971189 0
M  V30 904 C 86.6928 1.03156 2.04674 0
M  V30 905 C 87.6928 -0.00990322 1.60797 0
M  V30 906 O 88.8828 0.230729 1.72665 0
M  V30 907 C 86.0148 0.562765 3.36223 0
M  V30 908 H 87.2078 1.98614 2.24705 0
M  V30 909 H 84.7608 1.06293 1.14593 0
M  V30 910 H 85.4958 -0.395176 3.21883 0
M  V30 911 H 85.2808 1.31441 3.69413 0
M  V30 912 H 86.7708 0.437015 4.15307 0
M  V30 913 N 87.2079 -1.17134 1.05439 0
M  V30 914 C 88.1179 -2.24878 0.668365 0
M  V30 915 C 89.1339 -1.71186 -0.311687 0
M  V30 916 O 90.3099 -2.00738 -0.163161 0
M  V30 917 C 87.3749 -3.46662 0.051648 0
M  V30 918 C 86.4359 -4.15429 1.08246 0
M  V30 919 C 85.6689 -5.31399 0.495082 0
M  V30 920 O 85.8919 -5.66153 -0.694743 0
M  V30 921 O 84.8259 -5.89187 1.23056 0
M  V30 922 H 88.6519 -2.60189 1.56637 0
M  V30 923 H 86.2369 -1.24482 0.826104 0
M  V30 924 H 88.1189 -4.20394 -0.290966 0
M  V30 925 H 86.7939 -3.13142 -0.819971 0
M  V30 926 H 85.7009 -3.43704 1.47711 0
M  V30 927 H 87.0339 -4.52982 1.92532 0
M  V30 928 N 88.686 -0.835752 -1.33615 0
M  V30 929 C 89.596 -0.269088 -2.33052 0
M  V30 930 C 90.612 0.603251 -1.63208 0
M  V30 931 O 91.788 0.508112 -1.94885 0
M  V30 932 C 88.853 0.549091 -3.42324 0
M  V30 933 C 87.914 -0.347156 -4.27894 0
M  V30 934 C 87.147 0.43207 -5.31948 0
M  V30 935 O 87.37 1.66409 -5.45586 0
M  V30 936 O 86.304 -0.192298 -6.01593 0
M  V30 937 H 90.13 -1.09243 -2.83372 0
M  V30 938 H 87.715 -0.598198 -1.36901 0
M  V30 939 H 89.597 1.01414 -4.09015 0
M  V30 940 H 88.272 1.34955 -2.94226 0
M  V30 941 H 87.179 -0.859979 -3.64081 0
M  V30 942 H 88.512 -1.1123 -4.79467 0
M  V30 943 N 90.1641 1.46063 -0.591896 0
M  V30 944 C 91.1141 2.27458 0.157172 0
M  V30 945 C 92.0981 1.3641 0.853301 0
M  V30 946 O 93.2901 1.60517 0.74588 0
M  V30 947 C 90.4191 3.22956 1.16423 0
M  V30 948 C 89.5051 4.2149 0.469742 0
M  V30 949 N 89.8961 5.03519 -0.479839 0
M  V30 950 C 88.1941 4.40161 0.719319 0
M  V30 951 C 88.8951 5.74904 -0.886591 0
M  V30 952 N 87.8711 5.43097 -0.233731 0
M  V30 953 H 91.6731 2.88272 -0.572392 0
M  V30 954 H 89.1871 1.57024 -0.414375 0
M  V30 955 H 91.1841 3.79986 1.71513 0
M  V30 956 H 89.8441 2.63701 1.89451 0
M  V30 957 H 90.8551 5.1078 -0.855823 0
M  V30 958 H 87.5321 3.92046 1.43548 0
M  V30 959 H 88.9221 6.50844 -1.66888 0
M  V30 960 N 91.6422 0.330177 1.54103 0
M  V30 961 C 93.0532 -0.15652 1.86043 0
M  V30 962 C 93.4042 -1.51086 1.2517 0
M  V30 963 O 92.5292 -2.09023 0.560217 0
M  V30 964 C 93.1242 -0.290784 3.3755 0
M  V30 965 C 91.6832 -0.721705 3.69416 0
M  V30 966 C 90.8302 0.152622 2.7688 0
M  V30 967 H 93.7812 0.550237 1.48856 0
M  V30 968 H 93.8022 -1.12058 3.63625 0
M  V30 969 H 93.3142 0.695068 3.81825 0
M  V30 970 H 91.4152 -1.71706 3.30678 0
M  V30 971 H 91.5282 -0.520869 4.7626 0
M  V30 972 H 89.8922 -0.372894 2.51956 0
M  V30 973 H 90.6752 1.13536 3.23982 0
M  V30 974 N 93.1203 -1.57491 0.0584922 0
M  V30 975 C 94.0503 -2.14988 -0.911178 0
M  V30 976 C 95.0313 -1.07343 -1.31952 0
M  V30 977 O 96.2163 -1.35318 -1.39294 0
M  V30 978 C 93.3463 -2.70078 -2.18347 0
M  V30 979 C 92.3003 -3.82771 -1.91495 0
M  V30 980 C 91.6263 -4.24408 -3.25241 0
M  V30 981 C 92.9263 -5.07592 -1.23075 0
M  V30 982 H 94.6203 -2.96263 -0.432246 0
M  V30 983 H 92.1663 -1.42512 -0.206469 0
M  V30 984 H 94.1193 -3.08943 -2.86587 0
M  V30 985 H 92.8433 -1.86005 -2.68458 0
M  V30 986 H 91.5023 -3.44389 -1.25664 0
M  V30 987 H 91.1503 -3.37275 -3.73168 0
M  V30 988 H 90.8503 -5.00366 -3.08071 0
M  V30 989 H 92.3743 -4.65879 -3.94701 0
M  V30 990 H 93.7883 -5.43857 -1.81362 0
M  V30 991 H 92.1853 -5.88741 -1.16207 0
M  V30 992 H 93.2553 -4.84454 -0.207847 0
M  V30 993 N 94.5984 0.214957 -1.56127 0
M  V30 994 C 95.5484 1.27006 -1.8935 0
M  V30 995 C 96.5324 1.41969 -0.757202 0
M  V30 996 O 97.7244 1.44673 -1.01973 0
M  V30 997 C 94.8534 2.61911 -2.2194 0
M  V30 998 C 93.9394 2.50822 -3.41978 0
M  V30 999 N 94.3304 2.09391 -4.60423 0
M  V30 1000 C 92.6284 2.81765 -3.45723 0
M  V30 1001 C 93.3294 2.09712 -5.42582 0
M  V30 1002 N 92.3054 2.50454 -4.82466 0
M  V30 1003 H 96.1074 0.940734 -2.78437 0
M  V30 1004 H 93.6214 0.423492 -1.56781 0
M  V30 1005 H 95.6184 3.38096 -2.43919 0
M  V30 1006 H 94.2784 2.95684 -1.34169 0
M  V30 1007 H 95.2894 1.80416 -4.85459 0
M  V30 1008 H 91.9664 3.19865 -2.68314 0
M  V30 1009 H 93.3564 1.79748 -6.4741 0
M  V30 1010 N 96.0765 1.50051 0.48192 0
M  V30 1011 C 97.3245 1.60181 1.23234 0
M  V30 1012 C 97.6455 0.299176 1.92691 0
M  V30 1013 O 96.9155 -0.682708 1.83619 0
M  V30 1014 H 95.4955 0.590232 0.457859 0
M  V30 1015 H 98.1575 1.86775 0.556881 0
M  V30 1016 H 97.2535 2.40753 1.98607 0
M  V30 1017 N 97.5546 -0.734337 1.39446 0
M  V30 1018 C 98.8026 -1.49096 1.36436 0
M  V30 1019 C 99.1236 -1.94961 -0.0388255 0
M  V30 1020 O 98.3936 -1.69033 -0.990191 0
M  V30 1021 H 96.9736 -0.5531 0.502085 0
M  V30 1022 H 99.6356 -0.871725 1.74319 0
M  V30 1023 H 98.7316 -2.37276 2.02747 0
M  V30 1024 N 99.0327 -1.24633 -0.964593 0
M  V30 1025 C 100.261 -1.11501 -1.74285 0
M  V30 1026 C 100.676 0.332165 -1.85855 0
M  V30 1027 O 100.033 1.22903 -1.34911 0
M  V30 1028 C 100.084 -1.75258 -3.16175 0
M  V30 1029 O 99.8047 -3.14318 -3.05182 0
M  V30 1030 C 101.306 -1.67776 -4.10324 0
M  V30 1031 H 98.5257 -0.389407 -0.546446 0
M  V30 1032 H 101.07 -1.64801 -1.21083 0
M  V30 1033 H 99.2247 -1.25954 -3.66353 0
M  V30 1034 H 99.6387 -3.4551 -3.94618 0
M  V30 1035 H 101.113 -2.17064 -5.0753 0
M  V30 1036 H 101.59 -0.639584 -4.34518 0
M  V30 1037 H 102.196 -2.16522 -3.66058 0
M  V30 1038 N 100.511 1.16574 -1.06058 0
M  V30 1039 C 101.759 1.86677 -0.77434 0
M  V30 1040 C 102.08 1.81959 0.701147 0
M  V30 1041 O 101.35 1.2515 1.50713 0
M  V30 1042 H 99.9298 0.691134 -0.283449 0
M  V30 1043 H 102.592 1.41378 -1.34158 0
M  V30 1044 H 101.688 2.92181 -1.09711 0
M  V30 1045 N 101.989 0.842826 1.3317 0
M  V30 1046 C 103.238 0.436738 1.96915 0
M  V30 1047 C 103.551 -1.01025 1.67491 0
M  V30 1048 O 104.757 -1.5212 2.24881 0
M  V30 1049 C 103.213 0.730021 3.52418 0
M  V30 1050 C 102.821 2.19195 3.90714 0
M  V30 1051 C 104.565 0.391076 4.22695 0
M  V30 1052 C 102.472 2.42907 5.39212 0
M  V30 1053 H 101.402 0.15958 0.736919 0
M  V30 1054 H 104.053 1.03196 1.51733 0
M  V30 1055 H 102.435 0.0643755 3.95948 0
M  V30 1056 H 103.609 2.8984 3.58231 0
M  V30 1057 H 101.924 2.49425 3.33431 0
M  V30 1058 H 104.521 0.545817 5.31907 0
M  V30 1059 H 104.864 -0.666294 4.10933 0
M  V30 1060 H 105.397 1.01212 3.84709 0
M  V30 1061 H 102.136 3.47224 5.55982 0
M  V30 1062 H 101.656 1.76827 5.73142 0
M  V30 1063 H 103.335 2.2626 6.06148 0
M  V30 1064 N 103.467 -1.45747 0.599634 0
M  V30 1065 C 104.43 -2.28917 -0.113835 0
M  V30 1066 C 105.43 -1.3933 -0.802729 0
M  V30 1067 O 106.62 -1.61534 -0.652103 0
M  V30 1068 C 103.752 -3.20152 -1.17114 0
M  V30 1069 H 104.945 -2.93478 0.617289 0
M  V30 1070 H 102.498 -1.52137 0.358327 0
M  V30 1071 H 103.233 -2.60374 -1.93329 0
M  V30 1072 H 103.018 -3.86133 -0.681468 0
M  V30 1073 H 104.508 -3.82708 -1.67105 0
M  V30 1074 N 104.945 -0.338344 -1.53925 0
M  V30 1075 C 105.895 0.536712 -2.21593 0
M  V30 1076 C 106.879 1.07015 -1.20153 0
M  V30 1077 O 108.071 1.00471 -1.45721 0
M  V30 1078 C 105.2 1.68977 -2.98834 0
M  V30 1079 C 104.286 1.17052 -4.07627 0
M  V30 1080 N 104.677 0.372085 -5.0443 0
M  V30 1081 C 102.975 1.44789 -4.21844 0
M  V30 1082 C 103.676 0.0909171 -5.81629 0
M  V30 1083 N 102.652 0.681131 -5.39316 0
M  V30 1084 H 106.454 -0.0804298 -2.9379 0
M  V30 1085 H 103.968 -0.144943 -1.61752 0
M  V30 1086 H 105.965 2.32857 -3.45808 0
M  V30 1087 H 104.625 2.31024 -2.28162 0
M  V30 1088 H 105.636 0.0136217 -5.17898 0
M  V30 1089 H 102.313 2.07313 -3.62391 0
M  V30 1090 H 103.703 -0.552817 -6.69622 0
M  V30 1091 N 106.423 1.57458 -0.0668435 0
M  V30 1092 C 107.651 1.97624 0.612565 0
M  V30 1093 C 108.066 0.94502 1.63447 0
M  V30 1094 O 107.423 -0.0689276 1.8237 0
M  V30 1095 C 107.474 3.37869 1.28555 0
M  V30 1096 O 107.195 4.3704 0.304557 0
M  V30 1097 C 108.696 3.92882 2.05325 0
M  V30 1098 H 105.916 0.650045 0.166381 0
M  V30 1099 H 108.46 2.04035 -0.137782 0
M  V30 1100 H 106.615 3.3256 1.98702 0
M  V30 1101 H 107.029 5.18565 0.786779 0
M  V30 1102 H 108.503 4.93247 2.47812 0
M  V30 1103 H 108.98 3.29156 2.9078 0
M  V30 1104 H 109.586 4.01577 1.40056 0
M  V30 1105 N 107.901 -0.206675 1.56239 0
M  V30 1106 C 109.317 -0.557025 1.49564 0
M  V30 1107 C 109.517 -1.86424 0.764735 0
M  V30 1108 O 108.573 -2.50584 0.310491 0
M  V30 1109 C 109.886 -0.622478 2.94186 0
M  V30 1110 C 111.434 -0.712099 3.04792 0
M  V30 1111 C 111.909 -0.808767 4.50803 0
M  V30 1112 N 113.4 -0.8726 4.54907 0
M  V30 1113 C 114.135 -0.967365 5.65181 0
M  V30 1114 N 113.631 -1.02515 6.85173 0
M  V30 1115 N 115.424 -1.00366 5.53067 0
M  V30 1116 H 107.575 0.650943 2.02179 0
M  V30 1117 H 109.838 0.230387 0.919579 0
M  V30 1118 H 109.544 0.268727 3.50672 0
M  V30 1119 H 109.418 -1.4811 3.46905 0
M  V30 1120 H 111.805 -1.59374 2.48363 0
M  V30 1121 H 111.886 0.172489 2.55218 0
M  V30 1122 H 111.53 0.0684754 5.07854 0
M  V30 1123 H 111.46 -1.70899 4.98098 0
M  V30 1124 H 113.951 -0.837657 3.68499 0
M  V30 1125 H 114.264 -1.09765 7.64965 0
M  V30 1126 H 112.609 -0.994026 6.87855 0
M  V30 1127 H 115.8 -0.95527 4.58249 0
M  V30 1128 H 115.973 -1.07405 6.39037 0
M  V30 1129 N 109.379 -1.50304 -0.473955 0
M  V30 1130 C 110.625 -1.62358 -1.22521 0
M  V30 1131 C 110.98 -0.318555 -1.89745 0
M  V30 1132 O 110.273 0.683315 -1.79001 0
M  V30 1133 C 110.467 -2.73938 -2.29549 0
M  V30 1134 C 110.296 -4.15165 -1.72825 0
M  V30 1135 C 109.066 -4.81604 -1.52924 0
M  V30 1136 C 111.264 -4.99503 -1.22481 0
M  V30 1137 N 109.246 -6.07056 -0.91413 0
M  V30 1138 C 110.617 -6.15655 -0.732743 0
M  V30 1139 C 112.672 -4.85299 -1.11308 0
M  V30 1140 C 111.375 -7.19164 -0.139976 0
M  V30 1141 C 113.401 -5.88982 -0.534258 0
M  V30 1142 C 112.763 -7.0438 -0.0525562 0
M  V30 1143 H 108.862 -0.648286 -0.437321 0
M  V30 1144 H 111.446 -1.87413 -0.527692 0
M  V30 1145 H 109.617 -2.50611 -2.9673 0
M  V30 1146 H 111.349 -2.75366 -2.96573 0
M  V30 1147 H 108.104 -4.3885 -1.78067 0
M  V30 1148 H 108.528 -6.74108 -0.625071 0
M  V30 1149 H 113.17 -3.96369 -1.47144 0
M  V30 1150 H 110.888 -8.07771 0.230591 0
M  V30 1151 H 114.474 -5.80055 -0.450219 0
M  V30 1152 H 113.354 -7.83238 0.388324 0
M  V30 1153 N 110.857 0.726932 -1.39834 0
M  V30 1154 C 111.82 1.82269 -1.38962 0
M  V30 1155 C 112.82 1.58248 -0.285334 0
M  V30 1156 O 114.01 1.65499 -0.54366 0
M  V30 1157 C 111.142 3.20186 -1.17019 0
M  V30 1158 H 112.335 1.84443 -2.36476 0
M  V30 1159 H 109.888 0.931416 -1.25516 0
M  V30 1160 H 110.623 3.23669 -0.202204 0
M  V30 1161 H 110.408 3.3902 -1.96998 0
M  V30 1162 H 111.898 4.00235 -1.1917 0
M  V30 1163 N 112.336 1.25143 0.95797 0
M  V30 1164 C 113.564 1.12424 1.73691 0
M  V30 1165 C 113.979 -0.322304 1.86029 0
M  V30 1166 O 113.336 -1.22186 1.35561 0
M  V30 1167 C 113.387 1.76933 3.15241 0
M  V30 1168 O 113.108 3.15932 3.03511 0
M  V30 1169 C 114.609 1.6995 4.09429 0
M  V30 1170 H 111.829 0.3923 0.544373 0
M  V30 1171 H 114.373 1.6544 1.20207 0
M  V30 1172 H 112.528 1.27895 3.6568 0
M  V30 1173 H 112.942 3.47598 3.9278 0
M  V30 1174 H 114.416 2.19753 5.06372 0
M  V30 1175 H 114.893 0.662619 4.34173 0
M  V30 1176 H 115.499 2.18461 3.64904 0
M  V30 1177 N 113.814 -1.1601 1.06675 0
M  V30 1178 C 114.764 -2.18512 0.650888 0
M  V30 1179 C 115.748 -1.57677 -0.320441 0
M  V30 1180 O 116.94 -1.76482 -0.135266 0
M  V30 1181 C 114.069 -3.43273 0.0429255 0
M  V30 1182 C 113.155 -4.11176 1.03898 0
M  V30 1183 N 113.546 -4.54672 2.216 0
M  V30 1184 C 111.844 -4.37417 0.870779 0
M  V30 1185 C 112.545 -5.07248 2.84736 0
M  V30 1186 N 111.521 -5.0037 2.12441 0
M  V30 1187 H 115.323 -2.49863 1.54745 0
M  V30 1188 H 112.837 -1.32503 0.938975 0
M  V30 1189 H 114.834 -4.16006 -0.272857 0
M  V30 1190 H 113.494 -3.13408 -0.84884 0
M  V30 1191 H 114.505 -4.4828 2.59356 0
M  V30 1192 H 111.182 -4.17488 0.0313293 0
M  V30 1193 H 112.572 -5.50912 3.84636 0
M  V30 1194 N 115.292 -0.849877 -1.32721 0
M  V30 1195 C 116.54 -0.450032 -1.97026 0
M  V30 1196 C 116.861 0.996604 -1.67609 0
M  V30 1197 O 116.131 1.6958 -0.980786 0
M  V30 1198 H 114.711 -0.163426 -0.728904 0
M  V30 1199 H 117.373 -1.08526 -1.6189 0
M  V30 1200 H 116.469 -0.591146 -3.0645 0
M  V30 1201 N 116.77 1.45427 -0.607355 0
M  V30 1202 C 117.68 2.34325 0.113463 0
M  V30 1203 C 118.696 1.51226 0.860617 0
M  V30 1204 O 119.872 1.84029 0.818255 0
M  V30 1205 C 116.937 3.28839 1.09844 0
M  V30 1206 C 115.998 4.27844 0.353271 0
M  V30 1207 C 115.231 5.17842 1.29133 0
M  V30 1208 O 115.454 5.11264 2.52913 0
M  V30 1209 O 114.388 5.96713 0.788523 0
M  V30 1210 H 118.214 2.97364 -0.617094 0
M  V30 1211 H 115.799 1.44807 -0.367619 0
M  V30 1212 H 117.681 3.8708 1.66575 0
M  V30 1213 H 116.356 2.68365 1.81003 0
M  V30 1214 H 115.263 3.7322 -0.256494 0
M  V30 1215 H 116.596 4.91173 -0.317822 0
M  V30 1216 N 118.248 0.346503 1.53744 0
M  V30 1217 C 119.659 -0.136779 1.86198 0
M  V30 1218 C 120.01 -1.49749 1.26766 0
M  V30 1219 O 119.135 -2.08417 0.582355 0
M  V30 1220 C 119.73 -0.254966 3.37839 0
M  V30 1221 C 118.289 -0.682482 3.70161 0
M  V30 1222 C 117.436 0.181981 2.76702 0
M  V30 1223 H 120.387 0.565994 1.48264 0
M  V30 1224 H 120.408 -1.08195 3.64793 0
M  V30 1225 H 119.92 0.735526 3.81066 0
M  V30 1226 H 118.021 -1.68189 3.3248 0
M  V30 1227 H 118.134 -0.470326 4.76786 0
M  V30 1228 H 116.498 -0.34615 2.52337 0
M  V30 1229 H 117.281 1.16966 3.2276 0
M  V30 1230 N 119.726 -1.57421 0.075193 0
M  V30 1231 C 120.951 -1.98364 -0.605515 0
M  V30 1232 C 121.376 -0.953383 -1.62149 0
M  V30 1233 O 120.734 0.0806053 -1.81121 0
M  V30 1234 C 120.782 -3.38332 -1.24756 0
M  V30 1235 O 119.886 -3.37959 -2.36342 0
M  V30 1236 H 119.227 -0.645553 -0.155428 0
M  V30 1237 H 121.757 -2.04044 0.150714 0
M  V30 1238 H 121.767 -3.75591 -1.5936 0
M  V30 1239 H 120.442 -4.12846 -0.503129 0
M  V30 1240 H 119.019 -3.12474 -2.03506 0
M  V30 1241 N 121.204 0.198386 -1.56346 0
M  V30 1242 C 122.114 1.2664 -1.97483 0
M  V30 1243 C 123.13 1.49989 -0.882002 0
M  V30 1244 O 124.306 1.62668 -1.18748 0
M  V30 1245 C 121.371 2.59141 -2.30319 0
M  V30 1246 C 120.432 2.43892 -3.53292 0
M  V30 1247 C 119.665 3.70074 -3.84553 0
M  V30 1248 O 119.888 4.74101 -3.1715 0
M  V30 1249 O 118.822 3.658 -4.7799 0
M  V30 1250 H 122.648 0.947304 -2.88548 0
M  V30 1251 H 120.233 0.403123 -1.43859 0
M  V30 1252 H 122.115 3.37352 -2.5253 0
M  V30 1253 H 120.79 2.90684 -1.42423 0
M  V30 1254 H 119.697 1.63803 -3.36332 0
M  V30 1255 H 121.03 2.17282 -4.41644 0
M  V30 1256 N 122.682 1.50554 0.465978 0
M  V30 1257 C 123.928 1.62038 1.21949 0
M  V30 1258 C 124.261 0.322116 1.9151 0
M  V30 1259 O 123.536 -0.676723 1.82348 0
M  V30 1260 C 123.819 2.80421 2.25912 0
M  V30 1261 C 123.672 4.20144 1.60622 0
M  V30 1262 C 124.991 2.94354 3.27176 0
M  V30 1263 H 122.11 0.589752 0.441998 0
M  V30 1264 H 124.752 1.82956 0.51257 0
M  V30 1265 H 122.902 2.62717 2.86203 0
M  V30 1266 H 124.574 4.49449 1.03889 0
M  V30 1267 H 122.817 4.24165 0.909211 0
M  V30 1268 H 123.488 4.98914 2.36196 0
M  V30 1269 H 125.964 3.10578 2.76913 0
M  V30 1270 H 124.84 3.788 3.97242 0
M  V30 1271 H 125.101 2.05186 3.916 0
M  V30 1272 N 124.16 -0.719506 1.40217 0
M  V30 1273 C 125.108 -1.85493 1.40339 0
M  V30 1274 C 126.102 -1.66995 0.284415 0
M  V30 1275 O 127.308 -1.74148 0.455252 0
M  V30 1276 H 123.683 -0.610857 0.438586 0
M  V30 1277 H 125.654 -1.82506 2.36081 0
M  V30 1278 C 124.403 -3.23321 1.27901 0
M  V30 1279 H 123.726 -3.38159 2.1328 0
M  V30 1280 H 125.166 -4.02914 1.32045 0
M  V30 1281 C 123.625 -3.36898 -0.0111355 0
M  V30 1282 O 124.155 -3.89674 -0.975538 0
M  V30 1283 N 122.361 -2.90492 -0.0793393 0
M  V30 1284 H 121.908 -2.47731 0.706183 0
M  V30 1285 H 121.866 -2.99955 -0.942038 0
M  V30 1286 N 125.638 -1.25649 -0.95132 0
M  V30 1287 C 126.601 -1.06399 -2.03007 0
M  V30 1288 C 127.601 -0.0156794 -1.60792 0
M  V30 1289 O 128.791 -0.25817 -1.72276 0
M  V30 1290 C 125.923 -0.616184 -3.35285 0
M  V30 1291 H 127.116 -2.02164 -2.21517 0
M  V30 1292 H 124.669 -1.08103 -1.12887 0
M  V30 1293 H 125.404 0.343917 -3.22471 0
M  V30 1294 H 125.189 -1.37301 -3.67275 0
M  V30 1295 H 126.679 -0.503032 -4.14559 0
M  V30 1296 N 127.117 1.15442 -1.07289 0
M  V30 1297 C 128.067 2.18164 -0.662467 0
M  V30 1298 C 129.051 1.57845 0.312074 0
M  V30 1299 O 130.243 1.76552 0.125905 0
M  V30 1300 C 127.372 3.43246 -0.0611295 0
M  V30 1301 C 126.458 4.1062 -1.06077 0
M  V30 1302 N 126.849 4.53491 -2.24008 0
M  V30 1303 C 125.147 4.36949 -0.893964 0
M  V30 1304 C 125.848 5.05731 -2.87422 0
M  V30 1305 N 124.824 4.99236 -2.15091 0
M  V30 1306 H 128.626 2.49038 -1.56068 0
M  V30 1307 H 126.14 1.32003 -0.945988 0
M  V30 1308 H 128.137 4.16145 0.250792 0
M  V30 1309 H 126.797 3.13854 0.832207 0
M  V30 1310 H 127.808 4.46898 -2.6173 0
M  V30 1311 H 124.485 4.17466 -0.0534693 0
M  V30 1312 H 125.875 5.48865 -3.87553 0
M  V30 1313 N 128.595 0.856903 1.32268 0
M  V30 1314 C 130.006 0.515711 1.79436 0
M  V30 1315 C 130.357 -0.966586 1.70738 0
M  V30 1316 O 129.482 -1.75409 1.26731 0
M  V30 1317 C 130.077 0.929335 3.25805 0
M  V30 1318 C 128.636 0.640006 3.70919 0
M  V30 1319 C 127.783 1.12784 2.53328 0
M  V30 1320 H 130.734 1.04389 1.19535 0
M  V30 1321 H 130.755 0.246633 3.797 0
M  V30 1322 H 130.267 2.00821 3.32103 0
M  V30 1323 H 128.368 -0.428051 3.70133 0
M  V30 1324 H 128.481 1.20788 4.63624 0
M  V30 1325 H 126.845 0.548033 2.48734 0
M  V30 1326 H 127.628 2.21387 2.62379 0
M  V30 1327 N 130.073 -1.45103 0.615059 0
M  V30 1328 C 131.023 -2.27679 -0.120966 0
M  V30 1329 C 132.007 -1.3775 -0.831491 0
M  V30 1330 O 133.199 -1.61683 -0.720249 0
M  V30 1331 C 130.328 -3.24767 -1.1127 0
M  V30 1332 C 129.414 -4.22184 -0.402627 0
M  V30 1333 N 129.805 -5.02692 0.559884 0
M  V30 1334 C 128.103 -4.4125 -0.649202 0
M  V30 1335 C 128.804 -5.73421 0.977942 0
M  V30 1336 N 127.78 -5.42657 0.320104 0
M  V30 1337 H 131.582 -2.87325 0.618181 0
M  V30 1338 H 129.096 -1.56345 0.439304 0
M  V30 1339 H 131.093 -3.82666 -1.65446 0
M  V30 1340 H 129.753 -2.66682 -1.85232 0
M  V30 1341 H 130.764 -5.09354 0.936976 0
M  V30 1342 H 127.441 -3.9428 -1.37293 0
M  V30 1343 H 128.831 -6.48107 1.77222 0
M  V30 1344 N 131.551 -0.354651 -1.53558 0
M  V30 1345 C 132.797 0.238797 -2.01389 0
M  V30 1346 C 133.13 1.49309 -1.2418 0
M  V30 1347 O 132.405 1.91638 -0.332457 0
M  V30 1348 C 132.688 0.541771 -3.56001 0
M  V30 1349 C 132.541 -0.725388 -4.43912 0
M  V30 1350 C 133.86 1.34685 -4.18984 0
M  V30 1351 H 130.979 0.0853177 -0.732045 0
M  V30 1352 H 133.621 -0.477384 -1.83905 0
M  V30 1353 H 131.771 1.15189 -3.71031 0
M  V30 1354 H 133.443 -1.36313 -4.407 0
M  V30 1355 H 131.686 -1.34801 -4.12324 0
M  V30 1356 H 132.357 -0.468505 -5.50008 0
M  V30 1357 H 134.833 0.830837 -4.07721 0
M  V30 1358 H 133.709 1.52759 -5.27215 0
M  V30 1359 H 133.97 2.35221 -3.74331 0
M  V30 1360 N 133.029 1.57378 -0.0835403 0
M  V30 1361 C 134.254 1.98682 0.594987 0
M  V30 1362 C 134.679 0.961969 1.61641 0
M  V30 1363 O 134.037 -0.0709989 1.81161 0
M  V30 1364 C 134.085 3.38988 1.2296 0
M  V30 1365 O 133.189 3.39208 2.34546 0
M  V30 1366 H 132.53 0.646368 0.152002 0
M  V30 1367 H 135.06 2.03961 -0.161533 0
M  V30 1368 H 135.07 3.76431 1.57366 0
M  V30 1369 H 133.745 4.13107 0.481228 0
M  V30 1370 H 132.322 3.13548 2.01846 0
M  V30 1371 N 134.507 -0.190092 1.56449 0
M  V30 1372 C 135.417 -1.25591 1.98152 0
M  V30 1373 C 136.433 -1.49519 0.889944 0
M  V30 1374 O 137.609 -1.62036 1.19609 0
M  V30 1375 C 134.674 -2.57916 2.3169 0
M  V30 1376 C 133.735 -2.42015 3.5458 0
M  V30 1377 C 132.968 -3.6803 3.8651 0
M  V30 1378 O 133.191 -4.72413 3.1966 0
M  V30 1379 O 132.125 -3.6326 4.79923 0
M  V30 1380 H 135.951 -0.931988 2.89046 0
M  V30 1381 H 133.536 -0.395488 1.4407 0
M  V30 1382 H 135.418 -3.36008 2.54316 0
M  V30 1383 H 134.093 -2.89925 1.43963 0
M  V30 1384 H 133 -1.62017 3.37196 0
M  V30 1385 H 134.333 -2.14937 4.4279 0
M  V30 1386 N 135.985 -1.50799 -0.457987 0
M  V30 1387 C 136.935 -1.67003 -1.55222 0
M  V30 1388 C 137.919 -0.52434 -1.52117 0
M  V30 1389 O 139.111 -0.779345 -1.58919 0
M  V30 1390 C 136.24 -1.77956 -2.93576 0
M  V30 1391 C 135.326 -2.98243 -3.01516 0
M  V30 1392 N 135.717 -4.21732 -2.79241 0
M  V30 1393 C 134.015 -2.97072 -3.32662 0
M  V30 1394 C 134.716 -5.02817 -2.92489 0
M  V30 1395 N 133.692 -4.37038 -3.23262 0
M  V30 1396 H 137.494 -2.60163 -1.36721 0
M  V30 1397 H 135.008 -1.48163 -0.664952 0
M  V30 1398 H 137.005 -1.87671 -3.72271 0
M  V30 1399 H 135.665 -0.859634 -3.13114 0
M  V30 1400 H 136.676 -4.51016 -2.54567 0
M  V30 1401 H 133.353 -2.14631 -3.58106 0
M  V30 1402 H 134.743 -6.11054 -2.79396 0
M  V30 1403 N 137.463 0.71206 -1.40597 0
M  V30 1404 C 138.712 1.46754 -1.38369 0
M  V30 1405 C 139.025 1.95598 0.0097839 0
M  V30 1406 O 140.231 2.71059 0.154677 0
M  V30 1407 C 138.687 2.65289 -2.43207 0
M  V30 1408 C 138.295 2.23301 -3.88382 0
M  V30 1409 C 140.039 3.43008 -2.50091 0
M  V30 1410 C 137.946 3.38696 -4.84808 0
M  V30 1411 H 136.876 0.55118 -0.514506 0
M  V30 1412 H 139.527 0.774616 -1.66349 0
M  V30 1413 H 137.909 3.36769 -2.08332 0
M  V30 1414 H 139.083 1.59218 -4.32419 0
M  V30 1415 H 137.398 1.58618 -3.85006 0
M  V30 1416 H 139.995 4.28881 -3.1932 0
M  V30 1417 H 140.338 3.87065 -1.53253 0
M  V30 1418 H 140.871 2.78574 -2.83974 0
M  V30 1419 H 137.61 2.99668 -5.82992 0
M  V30 1420 H 137.13 4.01683 -4.45433 0
M  V30 1421 H 138.809 4.04712 -5.04794 0
M  V30 1422 N 138.941 1.26152 0.944643 0
M  V30 1423 C 140.187 1.11657 1.69294 0
M  V30 1424 C 140.52 -0.339926 1.91202 0
M  V30 1425 O 139.795 -1.24994 1.49019 0
M  V30 1426 C 140.078 1.88236 3.06984 0
M  V30 1427 C 139.931 3.41772 2.92424 0
M  V30 1428 C 141.25 1.67343 4.07043 0
M  V30 1429 H 138.369 0.407004 0.614424 0
M  V30 1430 H 141.011 1.55106 1.09737 0
M  V30 1431 H 139.161 1.51308 3.57824 0
M  V30 1432 H 140.833 3.88433 2.48832 0
M  V30 1433 H 139.076 3.68974 2.28124 0
M  V30 1434 H 139.747 3.90579 3.90067 0
M  V30 1435 H 142.223 1.99509 3.65151 0
M  V30 1436 H 141.099 2.23346 5.01406 0
M  V30 1437 H 141.36 0.617158 4.37771 0
M  V30 1438 N 140.419 -1.14872 1.07899 0
M  V30 1439 C 141.665 -1.86064 0.806725 0
M  V30 1440 C 141.998 -1.82434 -0.665706 0
M  V30 1441 O 141.273 -1.25138 -1.48899 0
M  V30 1442 C 141.556 -3.34929 1.32267 0
M  V30 1443 C 141.409 -3.47161 2.86006 0
M  V30 1444 C 142.728 -4.29863 0.943717 0
M  V30 1445 H 139.847 -0.675591 0.294526 0
M  V30 1446 H 142.489 -1.34925 1.33773 0
M  V30 1447 H 140.639 -3.78611 0.870974 0
M  V30 1448 H 142.311 -3.12302 3.39507 0
M  V30 1449 H 140.554 -2.88539 3.23925 0
M  V30 1450 H 141.225 -4.51777 3.17177 0
M  V30 1451 H 143.701 -3.9417 1.33302 0
M  V30 1452 H 142.577 -5.32494 1.33198 0
M  V30 1453 H 142.838 -4.41846 -0.149796 0
M  V30 1454 N 141.898 -0.863906 -1.31812 0
M  V30 1455 C 143.144 -0.472535 -1.97218 0
M  V30 1456 C 143.477 0.971394 -1.68159 0
M  V30 1457 O 142.752 1.68309 -0.974798 0
M  V30 1458 C 143.035 -0.723054 -3.52766 0
M  V30 1459 C 142.888 -2.21608 -3.91421 0
M  V30 1460 C 144.207 -0.185522 -4.39709 0
M  V30 1461 H 141.326 -0.173158 -0.71637 0
M  V30 1462 H 143.968 -1.08403 -1.56041 0
M  V30 1463 H 142.118 -0.202577 -3.87971 0
M  V30 1464 H 143.79 -2.80334 -3.66347 0
M  V30 1465 H 142.033 -2.691 -3.40246 0
M  V30 1466 H 142.704 -2.34203 -4.99853 0
M  V30 1467 H 145.18 -0.630726 -4.11292 0
M  V30 1468 H 144.056 -0.390306 -5.47511 0
M  V30 1469 H 144.317 0.912229 -4.32586 0
M  V30 1470 N 143.376 1.44774 -0.622745 0
M  V30 1471 C 144.326 2.2774 0.108889 0
M  V30 1472 C 145.31 1.38189 0.824175 0
M  V30 1473 O 146.502 1.62063 0.711664 0
M  V30 1474 C 143.631 3.25353 1.09546 0
M  V30 1475 C 142.717 4.22392 0.380232 0
M  V30 1476 N 143.108 5.02388 -0.586535 0
M  V30 1477 C 141.406 4.41588 0.625792 0
M  V30 1478 C 142.107 5.72894 -1.00834 0
M  V30 1479 N 141.083 5.42479 -0.348878 0
M  V30 1480 H 144.885 2.86993 -0.63341 0
M  V30 1481 H 142.399 1.5611 -0.447589 0
M  V30 1482 H 144.396 3.83538 1.63414 0
M  V30 1483 H 143.056 2.6766 1.83815 0
M  V30 1484 H 144.067 5.0885 -0.963975 0
M  V30 1485 H 140.744 3.95003 1.352 0
M  V30 1486 H 142.134 6.47158 -1.80656 0
M  V30 1487 N 144.854 0.36279 1.53368 0
M  V30 1488 C 145.802 -0.500155 2.27159 0
M  V30 1489 C 146.796 -1.08575 1.3003 0
M  V30 1490 O 148.002 -1.02927 1.47668 0
M  V30 1491 H 144.377 -0.180009 0.730138 0
M  V30 1492 H 146.348 0.14401 2.98052 0
M  V30 1493 C 145.097 -1.62937 3.07159 0
M  V30 1494 H 144.42 -1.18806 3.8174 0
M  V30 1495 H 145.86 -2.20795 3.61975 0
M  V30 1496 C 144.319 -2.57007 2.17829 0
M  V30 1497 O 144.849 -3.59752 1.78721 0
M  V30 1498 N 143.055 -2.26131 1.82518 0
M  V30 1499 H 142.602 -1.42616 2.14519 0
M  V30 1500 H 142.56 -2.89327 1.23034 0
M  V30 1501 N 146.332 -1.57332 0.0918853 0
M  V30 1502 C 147.58 -1.93853 -0.571446 0
M  V30 1503 C 147.901 -0.974212 -1.6892 0
M  V30 1504 O 147.171 -0.0257254 -1.95883 0
M  V30 1505 H 145.751 -0.715666 -0.214082 0
M  V30 1506 H 148.413 -1.94287 0.154464 0
M  V30 1507 H 147.509 -2.96191 -0.983729 0
M  V30 1508 N 147.81 0.181792 -1.56548 0
M  V30 1509 C 149.059 0.898348 -1.8059 0
M  V30 1510 C 149.372 1.83862 -0.667379 0
M  V30 1511 O 150.578 2.59678 -0.792446 0
M  V30 1512 C 149.034 1.64791 -3.19956 0
M  V30 1513 C 148.642 0.751789 -4.41647 0
M  V30 1514 C 150.386 2.35331 -3.53298 0
M  V30 1515 C 148.293 1.50098 -5.72035 0
M  V30 1516 H 147.223 0.339194 -0.673397 0
M  V30 1517 H 149.874 0.151413 -1.82874 0
M  V30 1518 H 148.256 2.43921 -3.11959 0
M  V30 1519 H 149.43 -0.0018076 -4.608 0
M  V30 1520 H 147.745 0.156562 -4.16106 0
M  V30 1521 H 150.342 2.91958 -4.47956 0
M  V30 1522 H 150.685 3.10164 -2.77676 0
M  V30 1523 H 151.218 1.63154 -3.62803 0
M  V30 1524 H 147.957 0.795175 -6.50659 0
M  V30 1525 H 147.477 2.22817 -5.56878 0
M  V30 1526 H 149.156 2.05125 -6.13622 0
M  V30 1527 N 149.288 1.51039 0.449983 0
M  V30 1528 C 150.537 1.62317 1.19733 0
M  V30 1529 C 150.85 0.339101 1.92638 0
M  V30 1530 O 152.056 0.331069 2.69474 0
M  V30 1531 C 150.512 2.86608 2.17678 0
M  V30 1532 C 150.12 4.21972 1.50479 0
M  V30 1533 C 151.864 3.07239 2.92924 0
M  V30 1534 C 149.771 5.37426 2.46834 0
M  V30 1535 H 148.701 0.604532 0.450619 0
M  V30 1536 H 151.352 1.77494 0.465625 0
M  V30 1537 H 149.734 2.65037 2.94231 0
M  V30 1538 H 150.908 4.53878 0.795716 0
M  V30 1539 H 149.223 4.07117 0.874344 0
M  V30 1540 H 151.82 3.90668 3.65079 0
M  V30 1541 H 152.163 2.19807 3.5354 0
M  V30 1542 H 152.696 3.29091 2.23481 0
M  V30 1543 H 149.435 6.27079 1.90926 0
M  V30 1544 H 148.955 5.09912 3.15832 0
M  V30 1545 H 150.634 5.68862 3.08228 0
M  V30 1546 N 150.766 -0.704594 1.40972 0
M  V30 1547 C 151.676 -1.84856 1.44448 0
M  V30 1548 C 152.692 -1.70726 0.335961 0
M  V30 1549 O 153.868 -1.92799 0.582276 0
M  V30 1550 C 150.933 -3.20758 1.31587 0
M  V30 1551 C 149.994 -3.47063 2.52677 0
M  V30 1552 C 149.227 -4.76481 2.4042 0
M  V30 1553 O 149.45 -5.52341 1.42391 0
M  V30 1554 O 148.384 -5.03367 3.30007 0
M  V30 1555 H 152.21 -1.8488 2.40942 0
M  V30 1556 H 149.795 -0.85647 1.22413 0
M  V30 1557 H 151.677 -4.01913 1.26665 0
M  V30 1558 H 150.352 -3.21438 0.382049 0
M  V30 1559 H 149.259 -2.65873 2.63177 0
M  V30 1560 H 150.592 -3.5119 3.44858 0
M  V30 1561 N 152.244 -1.26651 -0.937939 0
M  V30 1562 C 153.192 -1.08308 -2.05845 0
M  V30 1563 C 154.186 -0.0090757 -1.69398 0
M  V30 1564 O 155.392 -0.166007 -1.79233 0
M  V30 1565 H 151.767 -0.333416 -0.674046 0
M  V30 1566 H 153.738 -2.03261 -2.18467 0
M  V30 1567 C 152.487 -0.736229 -3.39816 0
M  V30 1568 H 151.81 -1.55453 -3.6834 0
M  V30 1569 H 153.25 -0.64769 -4.19024 0
M  V30 1570 C 151.709 0.558824 -3.32233 0
M  V30 1571 O 152.239 1.59621 -3.68624 0
M  V30 1572 N 150.445 0.550657 -2.85335 0
M  V30 1573 H 149.992 -0.293943 -2.55917 0
M  V30 1574 H 149.95 1.41726 -2.80644 0
M  V30 1575 N 153.722 1.14298 -1.08507 0
M  V30 1576 C 154.672 2.17449 -0.685569 0
M  V30 1577 C 155.656 1.58167 0.295315 0
M  V30 1578 O 156.848 1.76675 0.107172 0
M  V30 1579 C 153.977 3.43161 -0.0975318 0
M  V30 1580 C 153.063 4.09471 -1.10426 0
M  V30 1581 N 153.454 4.51089 -2.28806 0
M  V30 1582 C 151.752 4.35976 -0.940258 0
M  V30 1583 C 152.453 5.02654 -2.9277 0
M  V30 1584 N 151.429 4.96927 -2.20374 0
M  V30 1585 H 155.231 2.47369 -1.587 0
M  V30 1586 H 152.745 1.30992 -0.959936 0
M  V30 1587 H 154.742 4.16388 0.20664 0
M  V30 1588 H 153.402 3.14719 0.798872 0
M  V30 1589 H 154.413 4.44097 -2.66455 0
M  V30 1590 H 151.09 4.17386 -0.0977441 0
M  V30 1591 H 152.48 5.44723 -3.93352 0
M  V30 1592 N 155.201 0.870884 1.31352 0
M  V30 1593 C 156.111 0.330783 2.32256 0
M  V30 1594 C 157.127 -0.559767 1.6475 0
M  V30 1595 O 158.303 -0.456263 1.96164 0
M  V30 1596 C 155.368 -0.458137 3.4366 0
M  V30 1597 C 154.429 0.460482 4.26823 0
M  V30 1598 C 153.662 -0.290881 5.32907 0
M  V30 1599 O 153.885 -1.51885 5.49806 0
M  V30 1600 O 152.819 0.351732 6.00871 0
M  V30 1601 H 156.645 1.16718 2.80376 0
M  V30 1602 H 154.23 0.634285 1.35267 0
M  V30 1603 H 156.112 -0.905343 4.1156 0
M  V30 1604 H 154.787 -1.27106 2.97701 0
M  V30 1605 H 153.694 0.956207 3.61673 0
M  V30 1606 H 155.027 1.23903 4.7635 0
M  V30 1607 N 156.679 -1.44442 0.630414 0
M  V30 1608 C 158.09 -1.85434 0.217063 0
M  V30 1609 C 158.441 -1.52748 -1.23136 0
M  V30 1610 O 157.566 -0.965205 -1.93682 0
M  V30 1611 C 158.161 -3.36581 0.387168 0
M  V30 1612 C 156.72 -3.76389 0.0283297 0
M  V30 1613 C 155.867 -2.68296 0.700889 0
M  V30 1614 H 158.818 -1.34919 0.83562 0
M  V30 1615 H 158.839 -3.78657 -0.374086 0
M  V30 1616 H 158.351 -3.60339 1.44144 0
M  V30 1617 H 156.452 -3.58246 -1.02423 0
M  V30 1618 H 156.565 -4.77095 0.437892 0
M  V30 1619 H 154.929 -2.54335 0.136267 0
M  V30 1620 H 155.712 -2.94887 1.75774 0
M  V30 1621 N 158.157 -0.370918 -1.53173 0
M  V30 1622 C 159.087 0.464847 -2.28826 0
M  V30 1623 C 160.068 1.07936 -1.31468 0
M  V30 1624 O 161.253 1.0956 -1.60344 0
M  V30 1625 C 158.383 1.60196 -3.08147 0
M  V30 1626 C 157.337 1.11443 -4.13237 0
M  V30 1627 C 156.663 2.3422 -4.80672 0
M  V30 1628 C 157.963 0.195384 -5.21934 0
M  V30 1629 H 159.657 -0.166329 -2.98938 0
M  V30 1630 H 157.203 -0.0814359 -1.4377 0
M  V30 1631 H 159.156 2.19332 -3.59822 0
M  V30 1632 H 157.88 2.26045 -2.35735 0
M  V30 1633 H 156.539 0.545727 -3.62515 0
M  V30 1634 H 156.187 2.98537 -4.04827 0
M  V30 1635 H 155.887 2.02269 -5.51689 0
M  V30 1636 H 157.411 2.94032 -5.35143 0
M  V30 1637 H 158.825 0.694375 -5.69079 0
M  V30 1638 H 157.222 -0.0335027 -6.00091 0
M  V30 1639 H 158.292 -0.760961 -4.78892 0
M  V30 1640 N 159.635 1.57281 -0.100228 0
M  V30 1641 C 161.051 1.57527 0.256416 0
M  V30 1642 C 161.251 1.11173 1.68056 0
M  V30 1643 O 160.307 0.79053 2.39806 0
M  V30 1644 C 161.62 3.00673 0.0401747 0
M  V30 1645 C 163.168 3.12815 0.107528 0
M  V30 1646 C 163.643 4.57929 -0.0807834 0
M  V30 1647 N 165.134 4.63193 -0.0261207 0
M  V30 1648 C 165.869 5.73212 -0.146999 0
M  V30 1649 N 165.365 6.92047 -0.322999 0
M  V30 1650 N 167.158 5.62031 -0.0879044 0
M  V30 1651 H 159.309 1.85718 -1.03065 0
M  V30 1652 H 161.572 0.857446 -0.404339 0
M  V30 1653 H 161.278 3.38804 -0.943649 0
M  V30 1654 H 161.152 3.69042 0.780262 0
M  V30 1655 H 163.539 2.74554 1.08186 0
M  V30 1656 H 163.62 2.47028 -0.664134 0
M  V30 1657 H 163.264 4.96886 -1.05201 0
M  V30 1658 H 163.194 5.21783 0.710635 0
M  V30 1659 H 165.685 3.77748 0.107161 0
M  V30 1660 H 165.998 7.7173 -0.406608 0
M  V30 1661 H 164.343 6.94074 -0.358733 0
M  V30 1662 H 167.534 4.68075 0.048498 0
M  V30 1663 H 167.707 6.47734 -0.185557 0
M  V30 1664 N 161.113 -0.173488 1.56642 0
M  V30 1665 C 162.023 -1.23482 1.99473 0
M  V30 1666 C 163.039 -1.48567 0.905752 0
M  V30 1667 O 164.215 -1.60758 1.21321 0
M  V30 1668 C 161.28 -2.55444 2.34413 0
M  V30 1669 C 160.341 -2.38241 3.57127 0
M  V30 1670 C 159.574 -3.63909 3.90392 0
M  V30 1671 O 159.797 -4.68996 3.24653 0
M  V30 1672 O 158.731 -3.58149 4.83749 0
M  V30 1673 H 162.557 -0.901279 2.90018 0
M  V30 1674 H 160.142 -0.380185 1.44482 0
M  V30 1675 H 162.024 -3.33292 2.57865 0
M  V30 1676 H 160.699 -2.88382 1.4703 0
M  V30 1677 H 159.606 -1.58431 3.38896 0
M  V30 1678 H 160.939 -2.10228 4.45045 0
M  V30 1679 N 162.591 -1.51276 -0.441967 0
M  V30 1680 C 163.501 -1.75092 -1.56141 0
M  V30 1681 C 164.517 -0.634963 -1.62001 0
M  V30 1682 O 165.693 -0.916686 -1.79329 0
M  V30 1683 C 162.758 -1.86666 -2.92158 0
M  V30 1684 C 161.819 -3.10506 -2.96453 0
M  V30 1685 C 161.052 -3.21519 -4.25982 0
M  V30 1686 O 161.275 -2.38586 -5.18105 0
M  V30 1687 O 160.209 -4.14465 -4.36466 0
M  V30 1688 H 164.035 -2.70044 -1.38961 0
M  V30 1689 H 161.62 -1.35722 -0.624499 0
M  V30 1690 H 163.502 -1.96292 -3.72891 0
M  V30 1691 H 162.177 -0.949014 -3.09476 0
M  V30 1692 H 161.084 -3.06363 -2.14692 0
M  V30 1693 H 162.417 -4.01945 -2.84079 0
M  V30 1694 N 164.069 0.697108 -1.41344 0
M  V30 1695 C 164.999 1.82353 -1.45841 0
M  V30 1696 C 165.98 1.67115 -0.317247 0
M  V30 1697 O 167.165 1.86871 -0.528474 0
M  V30 1698 C 164.295 3.20476 -1.33838 0
M  V30 1699 C 163.249 3.50415 -2.4575 0
M  V30 1700 C 162.575 4.87878 -2.18813 0
M  V30 1701 C 163.875 3.49546 -3.88091 0
M  V30 1702 H 165.569 1.78846 -2.40113 0
M  V30 1703 H 163.115 0.859028 -1.15571 0
M  V30 1704 H 165.068 3.98988 -1.35596 0
M  V30 1705 H 163.792 3.24604 -0.360498 0
M  V30 1706 H 162.451 2.74253 -2.43271 0
M  V30 1707 H 162.099 4.8863 -1.19371 0
M  V30 1708 H 161.799 5.08875 -2.93803 0
M  V30 1709 H 163.323 5.68702 -2.22284 0
M  V30 1710 H 164.737 4.18066 -3.92293 0
M  V30 1711 H 163.134 3.82075 -4.62751 0
M  V30 1712 H 164.204 2.48552 -4.16353 0
M  V30 1713 N 165.547 1.27147 0.931209 0
M  V30 1714 C 166.494 1.09568 2.03134 0
M  V30 1715 C 167.464 -0.00222433 1.661 0
M  V30 1716 O 168.649 0.159439 1.90133 0
M  V30 1717 C 165.789 0.745231 3.36957 0
M  V30 1718 C 164.902 1.92041 3.86968 0
M  V30 1719 C 164.037 1.51216 5.09222 0
M  V30 1720 C 163.076 2.65504 5.5152 0
M  V30 1721 N 162.213 2.25291 6.64972 0
M  V30 1722 H 167.053 2.03708 2.17502 0
M  V30 1723 H 164.59 1.01411 1.06556 0
M  V30 1724 H 166.548 0.522878 4.1391 0
M  V30 1725 H 165.178 -0.159202 3.22407 0
M  V30 1726 H 164.23 2.25541 3.06326 0
M  V30 1727 H 165.542 2.77787 4.1429 0
M  V30 1728 H 164.696 1.25084 5.93666 0
M  V30 1729 H 163.435 0.625749 4.83669 0
M  V30 1730 H 162.44 2.92354 4.65628 0
M  V30 1731 H 163.665 3.54761 5.7907 0
M  V30 1732 H 161.611 1.39098 6.41083 0
M  V30 1733 H 161.528 3.04577 6.91931 0
M  V30 1734 H 162.796 2.02398 7.52765 0
M  V30 1735 N 167.025 -1.13721 1.09112 0
M  V30 1736 C 167.988 -2.17222 0.731241 0
M  V30 1737 C 168.988 -1.59035 -0.237566 0
M  V30 1738 O 170.178 -1.74192 -0.0161704 0
M  V30 1739 C 167.31 -3.40804 0.0808443 0
M  V30 1740 H 168.503 -2.50573 1.64783 0
M  V30 1741 H 166.056 -1.28493 0.889897 0
M  V30 1742 H 166.791 -3.1304 -0.847127 0
M  V30 1743 H 166.576 -3.84306 0.777896 0
M  V30 1744 H 168.066 -4.1731 -0.155657 0
M  V30 1745 N 168.503 -0.877838 -1.30888 0
M  V30 1746 C 169.919 -0.570844 -1.49042 0
M  V30 1747 C 170.119 0.893159 -1.80624 0
M  V30 1748 O 169.175 1.67485 -1.88958 0
M  V30 1749 C 170.488 -1.47784 -2.61878 0
M  V30 1750 C 172.036 -1.48071 -2.75761 0
M  V30 1751 C 172.511 -2.37347 -3.91702 0
M  V30 1752 N 174.002 -2.35271 -3.99001 0
M  V30 1753 C 174.737 -3.01063 -4.88004 0
M  V30 1754 N 174.233 -3.76055 -5.81854 0
M  V30 1755 N 176.026 -2.90332 -4.81315 0
M  V30 1756 H 168.177 -1.82502 -1.0866 0
M  V30 1757 H 170.44 -0.780797 -0.537644 0
M  V30 1758 H 170.146 -2.51993 -2.45341 0
M  V30 1759 H 170.02 -1.18215 -3.58197 0
M  V30 1760 H 172.407 -0.446166 -2.91708 0
M  V30 1761 H 172.488 -1.81668 -1.80085 0
M  V30 1762 H 172.132 -3.40883 -3.76512 0
M  V30 1763 H 172.062 -2.01071 -4.86701 0
M  V30 1764 H 174.553 -1.80768 -3.3186 0
M  V30 1765 H 174.866 -4.23366 -6.46514 0
M  V30 1766 H 173.211 -3.80163 -5.81808 0
M  V30 1767 H 176.402 -2.31278 -4.06974 0
M  V30 1768 H 176.575 -3.41885 -5.50471 0
M  V30 1769 N 169.982 1.44106 -0.638065 0
M  V30 1770 C 171.23 2.01579 -0.145043 0
M  V30 1771 C 171.551 1.50496 1.24 0
M  V30 1772 O 170.821 0.711374 1.82527 0
M  V30 1773 H 169.401 0.745282 -0.05063 0
M  V30 1774 H 172.063 1.76516 -0.826327 0
M  V30 1775 H 171.159 3.11877 -0.118039 0
M  V30 1776 N 171.46 0.379036 1.52974 0
M  V30 1777 C 172.69 -0.20649 2.05566 0
M  V30 1778 C 173.098 -1.41906 1.25137 0
M  V30 1779 O 172.441 -1.81421 0.288464 0
M  V30 1780 C 172.503 -0.651086 3.53555 0
M  V30 1781 C 172.167 0.446626 4.54812 0
M  V30 1782 C 173.164 1.30079 5.03364 0
M  V30 1783 C 170.849 0.610719 4.98573 0
M  V30 1784 C 172.843 2.30426 5.94292 0
M  V30 1785 C 170.53 1.61754 5.89304 0
M  V30 1786 C 171.528 2.46274 6.37054 0
M  V30 1787 O 171.216 3.45237 7.25994 0
M  V30 1788 H 170.948 -0.0372381 0.674974 0
M  V30 1789 H 173.502 0.539718 1.98182 0
M  V30 1790 H 171.732 -1.44911 3.58522 0
M  V30 1791 H 173.421 -1.16112 3.88938 0
M  V30 1792 H 174.187 1.18527 4.70294 0
M  V30 1793 H 170.066 -0.0374044 4.60985 0
M  V30 1794 H 173.61 2.96432 6.31485 0
M  V30 1795 H 169.507 1.73348 6.21788 0
M  V30 1796 H 170.275 3.41124 7.44027 0
M  V30 1797 N 172.938 -1.57226 0.108567 0
M  V30 1798 C 174.166 -1.99179 -0.559954 0
M  V30 1799 C 174.581 -0.988022 -1.60884 0
M  V30 1800 O 173.938 0.0205512 -1.82488 0
M  V30 1801 C 173.989 -3.41159 -1.19552 0
M  V30 1802 O 173.71 -4.37694 -0.188577 0
M  V30 1803 C 175.211 -3.98188 -1.94837 0
M  V30 1804 H 172.431 -0.654228 -0.149088 0
M  V30 1805 H 174.975 -2.03598 0.19183 0
M  V30 1806 H 173.13 -3.37711 -1.89815 0
M  V30 1807 H 173.544 -5.20469 -0.649014 0
M  V30 1808 H 175.018 -4.99644 -2.34648 0
M  V30 1809 H 175.495 -3.3675 -2.81951 0
M  V30 1810 H 176.101 -4.0515 -1.2936 0
M  V30 1811 N 174.416 0.165178 -1.56732 0
M  V30 1812 C 175.663 0.880807 -1.8234 0
M  V30 1813 C 175.991 1.81977 -0.686621 0
M  V30 1814 O 175.246 1.92971 0.325697 0
M  V30 1815 C 175.545 1.70405 -3.1416 0
M  V30 1816 C 175.211 0.913475 -4.4155 0
M  V30 1817 C 173.873 0.695303 -4.7615 0
M  V30 1818 C 176.225 0.359349 -5.1996 0
M  V30 1819 C 173.553 -0.0879947 -5.86634 0
M  V30 1820 C 175.905 -0.410893 -6.31264 0
M  V30 1821 C 174.569 -0.639808 -6.64427 0
M  V30 1822 H 173.839 0.32231 -0.667231 0
M  V30 1823 H 176.486 0.145402 -1.90947 0
M  V30 1824 H 174.791 2.50903 -3.00923 0
M  V30 1825 H 176.488 2.26091 -3.31186 0
M  V30 1826 H 173.078 1.09357 -4.14414 0
M  V30 1827 H 177.262 0.515228 -4.93618 0
M  V30 1828 H 172.518 -0.27503 -6.10781 0
M  V30 1829 H 176.692 -0.847494 -6.91224 0
M  V30 1830 H 174.319 -1.24864 -7.49875 0
M  V30 1831 N 175.894 1.51508 0.433938 0
M  V30 1832 C 177.14 1.64588 1.18484 0
M  V30 1833 C 177.473 0.362666 1.90784 0
M  V30 1834 O 176.748 -0.637892 1.83742 0
M  V30 1835 C 177.031 2.85149 2.19913 0
M  V30 1836 C 176.884 4.23456 1.51674 0
M  V30 1837 C 178.203 3.01227 3.20858 0
M  V30 1838 H 175.322 0.598994 0.429389 0
M  V30 1839 H 177.964 1.84002 0.473647 0
M  V30 1840 H 176.114 2.68729 2.80566 0
M  V30 1841 H 177.786 4.51552 0.943322 0
M  V30 1842 H 176.029 4.25998 0.819035 0
M  V30 1843 H 176.7 5.03812 2.2556 0
M  V30 1844 H 179.176 3.16382 2.70263 0
M  V30 1845 H 178.052 3.87141 3.89118 0
M  V30 1846 H 178.313 2.13447 3.8716 0
M  V30 1847 N 177.372 -0.689602 1.41712 0
M  V30 1848 C 178.597 -1.48329 1.44959 0
M  V30 1849 C 179.022 -1.8801 0.0581283 0
M  V30 1850 O 178.38 -1.55026 -0.940035 0
M  V30 1851 C 178.428 -2.71835 2.36935 0
M  V30 1852 O 177.532 -3.69549 1.8305 0
M  V30 1853 H 176.873 -0.446199 0.491734 0
M  V30 1854 H 179.403 -0.847127 1.86239 0
M  V30 1855 H 179.413 -3.20076 2.53013 0
M  V30 1856 H 178.088 -2.42291 3.38035 0
M  V30 1857 H 176.665 -3.2851 1.76452 0
M  V30 1858 N 178.85 -1.27639 -0.924453 0
M  V30 1859 C 179.76 -1.12466 -2.05885 0
M  V30 1860 C 180.776 -0.053869 -1.73917 0
M  V30 1861 O 181.952 -0.261012 -1.99702 0
M  V30 1862 C 179.017 -0.776768 -3.37886 0
M  V30 1863 C 178.078 -1.92878 -3.83532 0
M  V30 1864 C 177.311 -1.59739 -5.09234 0
M  V30 1865 O 177.534 -0.506782 -5.68144 0
M  V30 1866 O 176.468 -2.43761 -5.50331 0
M  V30 1867 H 180.294 -2.07671 -2.21599 0
M  V30 1868 H 177.879 -1.06857 -1.04413 0
M  V30 1869 H 179.761 -0.596229 -4.17161 0
M  V30 1870 H 178.436 0.145732 -3.23372 0
M  V30 1871 H 177.343 -2.1644 -3.0513 0
M  V30 1872 H 178.676 -2.8316 -4.02593 0
M  V30 1873 N 180.328 1.1314 -1.09713 0
M  V30 1874 C 181.556 1.88321 -0.856898 0
M  V30 1875 C 181.971 1.79276 0.592073 0
M  V30 1876 O 181.328 1.16142 1.40774 0
M  V30 1877 C 181.379 3.37812 -1.28706 0
M  V30 1878 O 181.1 3.46627 -2.67921 0
M  V30 1879 C 182.601 4.29952 -1.07964 0
M  V30 1880 H 179.821 0.596094 -0.308079 0
M  V30 1881 H 182.365 1.43205 -1.45988 0
M  V30 1882 H 180.52 3.805 -0.727912 0
M  V30 1883 H 180.934 4.39579 -2.8613 0
M  V30 1884 H 182.408 5.33159 -1.42986 0
M  V30 1885 H 182.885 4.39196 -0.0176577 0
M  V30 1886 H 183.491 3.93036 -1.62489 0
M  V30 1887 N 181.806 0.884767 1.30421 0
M  V30 1888 C 183.083 0.423185 1.90967 0
M  V30 1889 C 183.463 -1.09605 1.80416 0
M  V30 1890 O 182.811 -1.93126 1.22125 0
M  V30 1891 C 183.021 0.921056 3.36627 0
M  V30 1892 C 184.369 0.955903 4.137 0
M  V30 1893 O 185.393 0.867706 3.4547 0
M  V30 1894 O 184.252 1.08614 5.35598 0
M  V30 1895 H 181.346 0.129369 0.816819 0
M  V30 1896 H 183.892 0.973653 1.3899 0
M  V30 1897 H 182.664 1.96489 3.3839 0
M  V30 1898 H 182.287 0.349741 3.96059 0
M  V30 1899 N 183.284 -1.43765 0.645699 0
M  V30 1900 C 184.512 -2.06253 0.163556 0
M  V30 1901 C 184.927 -1.48352 -1.16778 0
M  V30 1902 O 184.284 -0.611932 -1.71935 0
M  V30 1903 C 184.335 -3.61453 0.0583186 0
M  V30 1904 O 184.056 -4.172 1.33702 0
M  V30 1905 C 185.557 -4.41002 -0.450795 0
M  V30 1906 H 182.777 -0.665413 0.0864077 0
M  V30 1907 H 185.321 -1.84396 0.884222 0
M  V30 1908 H 183.476 -3.82522 -0.612865 0
M  V30 1909 H 183.89 -5.10791 1.19131 0
M  V30 1910 H 185.364 -5.49966 -0.473403 0
M  V30 1911 H 185.841 -4.13488 -1.48068 0
M  V30 1912 H 186.447 -4.24886 0.187637 0
M  V30 1913 N 184.763 -0.387143 -1.52771 0
M  V30 1914 C 185.673 0.456442 -2.30117 0
M  V30 1915 C 186.689 1.07342 -1.36944 0
M  V30 1916 O 187.865 1.07971 -1.70013 0
M  V30 1917 C 184.93 1.56957 -3.09136 0
M  V30 1918 C 183.991 0.977916 -4.18014 0
M  V30 1919 C 183.224 2.038 -4.93256 0
M  V30 1920 O 183.447 3.25271 -4.68567 0
M  V30 1921 O 182.381 1.6565 -5.78657 0
M  V30 1922 H 186.207 -0.17359 -3.03203 0
M  V30 1923 H 183.792 -0.150919 -1.48636 0
M  V30 1924 H 185.674 2.21628 -3.58412 0
M  V30 1925 H 184.349 2.18461 -2.38865 0
M  V30 1926 H 183.256 0.294525 -3.72939 0
M  V30 1927 H 184.589 0.407128 -4.90513 0
M  V30 1928 N 186.241 1.57166 -0.116904 0
M  V30 1929 C 187.487 1.95412 0.542405 0
M  V30 1930 C 187.82 1.00019 1.66463 0
M  V30 1931 O 187.095 0.0370346 1.94465 0
M  V30 1932 C 187.378 3.43615 1.07708 0
M  V30 1933 C 187.231 4.49781 -0.0415868 0
M  V30 1934 C 188.55 3.93616 1.96861 0
M  V30 1935 H 185.669 0.710543 0.195696 0
M  V30 1936 H 188.311 1.89027 -0.192038 0
M  V30 1937 H 186.461 3.49187 1.70296 0
M  V30 1938 H 188.133 4.56308 -0.676793 0
M  V30 1939 H 186.376 4.28033 -0.705019 0
M  V30 1940 H 187.047 5.50733 0.373717 0
M  V30 1941 H 189.523 3.90335 1.44146 0
M  V30 1942 H 188.399 4.97838 2.3119 0
M  V30 1943 H 188.66 3.34188 2.89432 0
M  V30 1944 N 187.719 -0.156864 1.56817 0
M  V30 1945 C 188.968 -0.869504 1.81996 0
M  V30 1946 C 189.281 -1.82777 0.696545 0
M  V30 1947 O 190.487 -2.58384 0.833658 0
M  V30 1948 C 188.943 -1.59679 3.22538 0
M  V30 1949 C 188.551 -0.681431 4.42787 0
M  V30 1950 C 190.295 -2.2968 3.56997 0
M  V30 1951 C 188.202 -1.40978 5.74351 0
M  V30 1952 H 187.132 -0.328438 0.678708 0
M  V30 1953 H 189.783 -0.1223 1.83092 0
M  V30 1954 H 188.165 -2.38927 3.158 0
M  V30 1955 H 189.339 0.0751166 4.60739 0
M  V30 1956 H 187.654 -0.0903431 4.16302 0
M  V30 1957 H 190.251 -2.84794 4.52544 0
M  V30 1958 H 190.594 -3.05707 2.82576 0
M  V30 1959 H 191.127 -1.57361 3.65352 0
M  V30 1960 H 187.866 -0.691561 6.51842 0
M  V30 1961 H 187.386 -2.13929 5.60352 0
M  V30 1962 H 189.065 -1.95337 6.16808 0
M  V30 1963 N 189.197 -1.51736 -0.425897 0
M  V30 1964 C 190.16 -1.73271 -1.50032 0
M  V30 1965 C 191.16 -0.602639 -1.4908 0
M  V30 1966 O 192.35 -0.87033 -1.509 0
M  V30 1967 C 189.482 -1.79969 -2.89523 0
M  V30 1968 H 190.675 -2.69172 -1.32237 0
M  V30 1969 H 188.228 -1.41899 -0.65532 0
M  V30 1970 H 188.963 -0.859241 -3.1271 0
M  V30 1971 H 188.748 -2.62109 -2.91619 0
M  V30 1972 H 190.238 -1.9843 -3.67444 0
M  V30 1973 N 190.675 0.682077 -1.42076 0
M  V30 1974 C 191.625 1.78823 -1.41444 0
M  V30 1975 C 192.609 1.58323 -0.28681 0
M  V30 1976 O 193.801 1.68926 -0.528498 0
M  V30 1977 C 190.93 3.17232 -1.3122 0
M  V30 1978 C 190.016 3.4338 -2.489 0
M  V30 1979 N 190.407 3.40152 -3.7434 0
M  V30 1980 C 188.705 3.73986 -2.43003 0
M  V30 1981 C 189.406 3.65581 -4.52466 0
M  V30 1982 N 188.382 3.85989 -3.8277 0
M  V30 1983 H 192.184 1.7471 -2.36334 0
M  V30 1984 H 189.698 0.882622 -1.36321 0
M  V30 1985 H 191.695 3.96489 -1.2885 0
M  V30 1986 H 190.355 3.22547 -0.373263 0
M  V30 1987 H 191.366 3.20221 -4.07037 0
M  V30 1988 H 188.043 3.86591 -1.57651 0
M  V30 1989 H 189.433 3.69108 -5.61435 0
M  V30 1990 N 192.153 1.28127 0.917671 0
M  V30 1991 C 193.083 1.14248 2.03641 0
M  V30 1992 C 194.064 0.0412748 1.7005 0
M  V30 1993 O 195.249 0.217566 1.92977 0
M  V30 1994 C 192.379 0.799431 3.37974 0
M  V30 1995 C 191.333 1.85497 3.85713 0
M  V30 1996 C 190.659 1.36565 5.16966 0
M  V30 1997 C 191.959 3.26085 4.08002 0
M  V30 1998 H 193.653 2.07835 2.15511 0
M  V30 1999 H 191.199 1.00064 1.03553 0
M  V30 2000 H 193.152 0.689114 4.15727 0
M  V30 2001 H 191.876 -0.172145 3.26146 0
M  V30 2002 H 190.535 1.95437 3.10161 0
M  V30 2003 H 190.183 0.383253 5.01538 0
M  V30 2004 H 189.883 2.07143 5.49878 0
M  V30 2005 H 191.407 1.26848 5.97279 0
M  V30 2006 H 192.821 3.19089 4.76293 0
M  V30 2007 H 191.218 3.94462 4.52238 0
M  V30 2008 H 192.288 3.70394 3.12948 0
M  V30 2009 N 193.631 -1.12557 1.10312 0
M  V30 2010 C 194.877 -1.84311 0.846011 0
M  V30 2011 C 195.21 -1.83805 -0.626859 0
M  V30 2012 O 194.485 -1.28268 -1.46211 0
M  V30 2013 C 194.768 -3.32048 1.39341 0
M  V30 2014 C 194.621 -3.41016 2.93305 0
M  V30 2015 C 195.94 -4.27764 1.03468 0
M  V30 2016 H 193.059 -0.669192 0.30879 0
M  V30 2017 H 195.701 -1.32057 1.36605 0
M  V30 2018 H 193.851 -3.76678 0.951087 0
M  V30 2019 H 195.523 -3.05031 3.46055 0
M  V30 2020 H 193.766 -2.81603 3.29973 0
M  V30 2021 H 194.437 -4.44948 3.26689 0
M  V30 2022 H 196.913 -3.91253 1.41633 0
M  V30 2023 H 195.789 -5.29549 1.44463 0
M  V30 2024 H 196.05 -4.42064 -0.0560404 0
M  V30 2025 N 195.109 -0.891671 -1.2995 0
M  V30 2026 C 196.057 -0.353066 -2.29905 0
M  V30 2027 C 197.051 0.543509 -1.60444 0
M  V30 2028 O 198.257 0.4272 -1.74857 0
M  V30 2029 H 194.632 -0.095531 -0.745907 0
M  V30 2030 H 196.603 -1.20961 -2.72784 0
M  V30 2031 C 195.352 0.411475 -3.45257 0
M  V30 2032 H 194.675 -0.269182 -3.98893 0
M  V30 2033 H 196.115 0.753328 -4.17254 0
M  V30 2034 C 194.574 1.6111 -2.9588 0
M  V30 2035 O 195.104 2.71045 -2.96475 0
M  V30 2036 N 193.31 1.45054 -2.51809 0
M  V30 2037 H 192.857 0.556175 -2.51524 0
M  V30 2038 H 192.815 2.25453 -2.1913 0
M  V30 2039 N 196.587 1.43421 -0.653314 0
M  V30 2040 C 197.833 2.02641 -0.175593 0
M  V30 2041 C 198.188 1.5062 1.19713 0
M  V30 2042 O 197.481 0.689697 1.78756 0
M  V30 2043 C 197.675 3.57176 -0.126623 0
M  V30 2044 C 197.504 4.24191 -1.49306 0
M  V30 2045 C 196.274 4.60257 -2.08547 0
M  V30 2046 C 198.472 4.53193 -2.43148 0
M  V30 2047 N 196.454 5.12345 -3.38194 0
M  V30 2048 C 197.825 5.06601 -3.57429 0
M  V30 2049 C 199.88 4.35161 -2.41949 0
M  V30 2050 C 198.583 5.43875 -4.70736 0
M  V30 2051 C 200.609 4.73498 -3.54336 0
M  V30 2052 C 199.971 5.27039 -4.67343 0
M  V30 2053 H 196.07 0.77441 -0.108686 0
M  V30 2054 H 198.654 1.74596 -0.861638 0
M  V30 2055 H 196.825 3.84784 0.528766 0
M  V30 2056 H 198.557 4.03078 0.36198 0
M  V30 2057 H 195.312 4.45302 -1.61255 0
M  V30 2058 H 195.736 5.42842 -4.04538 0
M  V30 2059 H 200.378 3.9304 -1.55818 0
M  V30 2060 H 198.096 5.8494 -5.57558 0
M  V30 2061 H 201.682 4.61241 -3.5461 0
M  V30 2062 H 200.562 5.56153 -5.52868 0
M  V30 2063 N 198.065 0.39524 1.52563 0
M  V30 2064 C 198.975 -0.444232 2.30356 0
M  V30 2065 C 199.991 -1.06615 1.37511 0
M  V30 2066 O 201.167 -1.07067 1.70583 0
M  V30 2067 C 198.232 -1.55315 3.09964 0
M  V30 2068 C 197.293 -0.955734 4.18526 0
M  V30 2069 C 196.526 -2.01181 4.9433 0
M  V30 2070 O 196.749 -3.22781 4.70285 0
M  V30 2071 O 195.683 -1.62579 5.79527 0
M  V30 2072 H 199.509 0.189667 3.03107 0
M  V30 2073 H 197.094 0.1588 1.48554 0
M  V30 2074 H 198.976 -2.19724 3.59582 0
M  V30 2075 H 197.651 -2.17191 2.4002 0
M  V30 2076 H 196.558 -0.274743 3.7309 0
M  V30 2077 H 197.891 -0.381109 4.90722 0
M  V30 2078 N 199.544 -1.57102 0.125237 0
M  V30 2079 C 200.474 -2.18659 -0.819174 0
M  V30 2080 C 201.455 -1.12843 -1.27281 0
M  V30 2081 O 202.64 -1.41104 -1.33429 0
M  V30 2082 C 199.77 -2.79096 -2.06695 0
M  V30 2083 C 198.724 -3.90548 -1.75088 0
M  V30 2084 C 198.05 -4.37821 -3.06948 0
M  V30 2085 C 199.35 -5.12356 -1.01435 0
M  V30 2086 H 201.044 -2.9783 -0.306202 0
M  V30 2087 H 198.59 -1.4326 -0.145839 0
M  V30 2088 H 200.543 -3.2082 -2.73226 0
M  V30 2089 H 199.267 -1.97223 -2.60328 0
M  V30 2090 H 197.926 -3.49409 -1.10944 0
M  V30 2091 H 197.574 -3.52799 -3.58527 0
M  V30 2092 H 197.274 -5.12982 -2.86571 0
M  V30 2093 H 198.798 -4.822 -3.74587 0
M  V30 2094 H 200.212 -5.5106 -1.58132 0
M  V30 2095 H 198.609 -5.9314 -0.911319 0
M  V30 2096 H 199.679 -4.849 -0.00218681 0
M  V30 2097 N 201.022 0.148545 -1.56898 0
M  V30 2098 C 201.969 1.18345 -1.98149 0
M  V30 2099 C 202.939 1.42772 -0.848848 0
M  V30 2100 O 204.124 1.55132 -1.11079 0
M  V30 2101 C 201.264 2.51231 -2.36594 0
M  V30 2102 C 200.377 2.33991 -3.63142 0
M  V30 2103 C 199.512 3.59902 -3.90697 0
M  V30 2104 C 198.551 3.37692 -5.1052 0
M  V30 2105 N 197.688 4.5573 -5.34092 0
M  V30 2106 H 202.528 0.82467 -2.86362 0
M  V30 2107 H 200.065 0.395756 -1.41676 0
M  V30 2108 H 202.023 3.28713 -2.56912 0
M  V30 2109 H 200.653 2.85059 -1.51463 0
M  V30 2110 H 199.705 1.47572 -3.50609 0
M  V30 2111 H 201.017 2.13539 -4.5078 0
M  V30 2112 H 200.171 4.45813 -4.11505 0
M  V30 2113 H 198.91 3.83357 -3.01477 0
M  V30 2114 H 197.915 2.5017 -4.89587 0
M  V30 2115 H 199.14 3.15637 -6.0129 0
M  V30 2116 H 197.086 4.79361 -4.47827 0
M  V30 2117 H 197.003 4.38274 -6.15996 0
M  V30 2118 H 198.271 5.42858 -5.59397 0
M  V30 2119 N 202.5 1.5196 0.417844 0
M  V30 2120 C 203.432 1.70895 1.52733 0
M  V30 2121 C 204.445 0.589405 1.51756 0
M  V30 2122 O 205.634 0.864312 1.56179 0
M  V30 2123 C 202.734 1.72627 2.91639 0
M  V30 2124 C 201.907 3.01479 3.16905 0
M  V30 2125 C 200.966 2.95139 4.35637 0
M  V30 2126 O 199.992 3.69059 4.3334 0
M  V30 2127 N 201.194 2.12328 5.40275 0
M  V30 2128 H 203.959 2.66612 1.36888 0
M  V30 2129 H 201.52 1.50089 0.607037 0
M  V30 2130 H 203.512 1.65928 3.6912 0
M  V30 2131 H 202.082 0.844216 3.00985 0
M  V30 2132 H 201.302 3.21895 2.27546 0
M  V30 2133 H 202.59 3.86736 3.30625 0
M  V30 2134 H 201.988 1.51685 5.44985 0
M  V30 2135 H 200.545 2.11494 6.16534 0
M  V30 2136 N 203.978 -0.674533 1.42435 0
M  V30 2137 C 205.226 -1.43175 1.42637 0
M  V30 2138 C 205.547 -1.94951 0.0438992 0
M  V30 2139 O 204.817 -1.7308 -0.917607 0
M  V30 2140 H 203.397 -0.531307 0.525092 0
M  V30 2141 H 206.059 -0.797006 1.77859 0
M  V30 2142 H 205.155 -2.28463 2.12629 0
M  V30 2143 N 205.456 -1.28612 -0.910864 0
M  V30 2144 C 206.704 -1.15705 -1.65701 0
M  V30 2145 C 207.025 0.29416 -1.92769 0
M  V30 2146 O 206.295 1.20331 -1.54588 0
M  V30 2147 H 204.875 -0.425216 -0.614167 0
M  V30 2148 H 207.537 -1.61381 -1.0928 0
M  V30 2149 H 206.633 -1.6988 -2.61815 0
M  V30 2150 N 206.934 1.1197 -1.10907 0
M  V30 2151 C 208.162 1.87402 -0.876824 0
M  V30 2152 C 208.577 1.79894 0.573025 0
M  V30 2153 O 207.934 1.17629 1.39534 0
M  V30 2154 C 207.985 3.36428 -1.32282 0
M  V30 2155 O 207.706 3.43765 -2.71582 0
M  V30 2156 C 209.207 4.28783 -1.12518 0
M  V30 2157 H 206.427 0.592793 -0.314384 0
M  V30 2158 H 208.971 1.41649 -1.47499 0
M  V30 2159 H 207.126 3.79706 -0.768229 0
M  V30 2160 H 207.54 4.3652 -2.90776 0
M  V30 2161 H 209.014 5.31613 -1.48633 0
M  V30 2162 H 209.491 4.39153 -0.0642394 0
M  V30 2163 H 210.097 3.91291 -1.66648 0
M  V30 2164 N 208.412 0.89855 1.29475 0
M  V30 2165 C 209.342 0.39201 2.30186 0
M  V30 2166 C 210.323 -0.532359 1.61555 0
M  V30 2167 O 211.508 -0.443331 1.89072 0
M  V30 2168 C 208.638 -0.382353 3.45189 0
M  V30 2169 C 207.592 0.451483 4.25612 0
M  V30 2170 C 206.918 -0.450307 5.328 0
M  V30 2171 C 208.218 1.70079 4.93832 0
M  V30 2172 H 209.912 1.23362 2.72804 0
M  V30 2173 H 207.458 0.594638 1.31149 0
M  V30 2174 H 209.411 -0.747451 4.14718 0
M  V30 2175 H 208.135 -1.25774 3.01411 0
M  V30 2176 H 206.794 0.798897 3.57789 0
M  V30 2177 H 206.442 -1.32379 4.85268 0
M  V30 2178 H 206.142 0.103902 5.87508 0
M  V30 2179 H 207.666 -0.811623 6.05182 0
M  V30 2180 H 209.08 1.40549 5.55805 0
M  V30 2181 H 207.477 2.19623 5.58467 0
M  V30 2182 H 208.547 2.43744 4.19186 0
M  V30 2183 N 209.89 -1.43072 0.660911 0
M  V30 2184 C 211.306 -1.56169 0.329173 0
M  V30 2185 C 211.506 -1.64317 -1.16629 0
M  V30 2186 O 210.562 -1.60245 -1.95135 0
M  V30 2187 C 211.875 -2.81873 1.04729 0
M  V30 2188 C 213.423 -2.95627 1.02828 0
M  V30 2189 C 213.898 -4.24174 1.72744 0
M  V30 2190 N 215.389 -4.31055 1.69545 0
M  V30 2191 C 216.124 -5.29304 2.20511 0
M  V30 2192 N 215.62 -6.33786 2.79799 0
M  V30 2193 N 217.413 -5.21008 2.10966 0
M  V30 2194 H 209.564 -1.36027 1.63127 0
M  V30 2195 H 211.827 -0.653823 0.686454 0
M  V30 2196 H 211.533 -2.81942 2.10242 0
M  V30 2197 H 211.407 -3.72338 0.603702 0
M  V30 2198 H 213.794 -2.95094 -0.0184742 0
M  V30 2199 H 213.875 -2.06431 1.51063 0
M  V30 2200 H 213.519 -4.25467 2.7738 0
M  V30 2201 H 213.449 -5.1228 1.2197 0
M  V30 2202 H 215.94 -3.56174 1.26288 0
M  V30 2203 H 216.253 -7.05086 3.16344 0
M  V30 2204 H 214.598 -6.34387 2.83863 0
M  V30 2205 H 217.789 -4.38301 1.64347 0
M  V30 2206 H 217.962 -5.97416 2.50993 0
M  V30 2207 N 211.368 -0.403325 -1.52352 0
M  V30 2208 C 212.278 0.432009 -2.30588 0
M  V30 2209 C 213.294 1.05884 -1.38075 0
M  V30 2210 O 214.47 1.06161 -1.71148 0
M  V30 2211 C 211.535 1.53669 -3.10784 0
M  V30 2212 C 210.596 0.933525 -4.19027 0
M  V30 2213 C 209.829 1.98557 -4.9539 0
M  V30 2214 O 210.052 3.20283 -4.71991 0
M  V30 2215 O 208.986 1.59504 -5.80381 0
M  V30 2216 H 212.812 -0.205739 -3.03002 0
M  V30 2217 H 210.397 -0.166675 -1.48467 0
M  V30 2218 H 212.279 2.17814 -3.60742 0
M  V30 2219 H 210.954 2.15915 -2.41169 0
M  V30 2220 H 209.861 0.254954 -3.7323 0
M  V30 2221 H 211.194 0.35508 -4.90918 0
M  V30 2222 N 212.846 1.57033 -0.133567 0
M  V30 2223 C 213.809 2.14897 0.796995 0
M  V30 2224 C 214.809 1.0874 1.18458 0
M  V30 2225 O 215.999 1.34446 1.1077 0
M  V30 2226 C 213.131 2.70112 2.07973 0
M  V30 2227 H 214.324 2.98457 0.293873 0
M  V30 2228 H 211.877 1.55871 0.115787 0
M  V30 2229 H 212.612 1.9018 2.62682 0
M  V30 2230 H 212.397 3.47764 1.81115 0
M  V30 2231 H 213.887 3.14738 2.74462 0
M  V30 2232 N 214.325 -0.140222 1.56975 0
M  V30 2233 C 215.571 -0.852949 1.83991 0
M  V30 2234 C 215.904 -1.80512 0.716187 0
M  V30 2235 O 215.179 -1.92479 -0.279681 0
M  V30 2236 C 215.462 -1.6215 3.21527 0
M  V30 2237 C 215.315 -0.690363 4.4447 0
M  V30 2238 C 216.634 -2.58247 3.56366 0
M  V30 2239 H 213.753 -0.308634 0.669264 0
M  V30 2240 H 216.395 -0.117898 1.89634 0
M  V30 2241 H 214.545 -2.24812 3.16847 0
M  V30 2242 H 216.217 -0.0742264 4.6124 0
M  V30 2243 H 214.46 -0.000396433 4.338 0
M  V30 2244 H 215.131 -1.2643 5.37326 0
M  V30 2245 H 217.607 -2.05701 3.61699 0
M  V30 2246 H 216.483 -3.09067 4.53617 0
M  V30 2247 H 216.744 -3.39923 2.82674 0
M  V30 2248 N 215.803 -1.52179 -0.40978 0
M  V30 2249 C 216.733 -1.78435 -1.5061 0
M  V30 2250 C 217.714 -0.635295 -1.57791 0
M  V30 2251 O 218.899 -0.880823 -1.73076 0
M  V30 2252 C 216.029 -1.93444 -2.88439 0
M  V30 2253 C 214.983 -3.09038 -2.96108 0
M  V30 2254 C 214.309 -3.09268 -4.36185 0
M  V30 2255 C 215.609 -4.48508 -2.67652 0
M  V30 2256 H 217.303 -2.70237 -1.28889 0
M  V30 2257 H 214.849 -1.30036 -0.618605 0
M  V30 2258 H 216.802 -2.10394 -3.65119 0
M  V30 2259 H 215.526 -0.983129 -3.11452 0
M  V30 2260 H 214.185 -2.91837 -2.21872 0
M  V30 2261 H 213.833 -2.11861 -4.56206 0
M  V30 2262 H 213.533 -3.86907 -4.42241 0
M  V30 2263 H 215.057 -3.28348 -5.14801 0
M  V30 2264 H 216.471 -4.65918 -3.34056 0
M  V30 2265 H 214.868 -5.28059 -2.85085 0
M  V30 2266 H 215.938 -4.56649 -1.63095 0
M  V30 2267 N 217.281 0.66697 -1.42791 0
M  V30 2268 C 218.697 0.981027 -1.25889 0
M  V30 2269 C 218.897 2.00793 -0.168695 0
M  V30 2270 O 217.953 2.48321 0.45747 0
M  V30 2271 C 219.266 1.47838 -2.61848 0
M  V30 2272 C 220.814 1.59575 -2.69267 0
M  V30 2273 C 221.289 2.12704 -4.05612 0
M  V30 2274 N 222.78 2.20026 -4.07606 0
M  V30 2275 C 223.515 2.62227 -5.09926 0
M  V30 2276 N 223.011 3.03824 -6.22626 0
M  V30 2277 N 224.804 2.62045 -4.97281 0
M  V30 2278 H 216.955 -0.0127891 -2.12396 0
M  V30 2279 H 219.218 0.0568258 -0.946295 0
M  V30 2280 H 218.924 0.798299 -3.4252 0
M  V30 2281 H 218.798 2.45579 -2.86305 0
M  V30 2282 H 221.185 2.26687 -1.88936 0
M  V30 2283 H 221.266 0.60302 -2.48591 0
M  V30 2284 H 220.91 1.46198 -4.86404 0
M  V30 2285 H 220.84 3.12782 -4.23645 0
M  V30 2286 H 223.331 1.90708 -3.2625 0
M  V30 2287 H 223.644 3.34734 -6.96544 0
M  V30 2288 H 221.989 3.01662 -6.26119 0
M  V30 2289 H 225.18 2.28916 -4.08308 0
M  V30 2290 H 225.353 2.94613 -5.77154 0
M  V30 2291 N 218.759 1.29093 0.90403 0
M  V30 2292 C 219.722 1.1386 1.98919 0
M  V30 2293 C 220.722 0.0753457 1.60623 0
M  V30 2294 O 221.912 0.321931 1.71199 0
M  V30 2295 C 219.044 0.740198 3.32767 0
M  V30 2296 H 220.237 2.10246 2.13861 0
M  V30 2297 H 217.79 1.12218 1.08797 0
M  V30 2298 H 218.525 -0.223997 3.23525 0
M  V30 2299 H 218.31 1.50838 3.61926 0
M  V30 2300 H 219.8 0.656546 4.12407 0
M  V30 2301 N 220.237 -1.11381 1.11499 0
M  V30 2302 C 221.486 -1.82494 0.858993 0
M  V30 2303 C 221.799 -1.85605 -0.617278 0
M  V30 2304 O 223.005 -2.52824 -0.989552 0
M  V30 2305 C 221.461 -3.27745 1.48699 0
M  V30 2306 C 221.069 -3.32961 2.99735 0
M  V30 2307 C 222.813 -4.03754 1.31085 0
M  V30 2308 C 220.72 -4.72612 3.55516 0
M  V30 2309 H 219.65 -0.683802 0.317696 0
M  V30 2310 H 222.301 -1.25331 1.34031 0
M  V30 2311 H 220.683 -3.84844 0.933339 0
M  V30 2312 H 221.857 -2.85741 3.61509 0
M  V30 2313 H 220.172 -2.70433 3.16631 0
M  V30 2314 H 222.769 -5.06891 1.70192 0
M  V30 2315 H 223.112 -4.15527 0.253496 0
M  V30 2316 H 223.645 -3.53043 1.83318 0
M  V30 2317 H 220.384 -4.66036 4.60967 0
M  V30 2318 H 219.904 -5.2024 2.98513 0
M  V30 2319 H 221.583 -5.4157 3.53992 0
M  V30 2320 N 221.715 -0.905404 -1.28997 0
M  V30 2321 C 223.126 -0.581953 -1.77398 0
M  V30 2322 C 223.477 0.902552 -1.74208 0
M  V30 2323 O 222.602 1.70584 -1.33154 0
M  V30 2324 C 223.197 -1.04961 -3.22131 0
M  V30 2325 C 221.756 -0.777229 -3.68288 0
M  V30 2326 C 220.903 -1.22109 -2.48967 0
M  V30 2327 H 223.854 -1.08754 -1.15578 0
M  V30 2328 H 223.875 -0.387387 -3.78523 0
M  V30 2329 H 223.387 -2.13008 -3.24421 0
M  V30 2330 H 221.488 0.290383 -3.71467 0
M  V30 2331 H 221.601 -1.37911 -4.58822 0
M  V30 2332 H 219.965 -0.639971 -2.46529 0
M  V30 2333 H 220.748 -2.30972 -2.53982 0
M  V30 2334 N 223.193 1.4272 -0.668489 0
M  V30 2335 C 224.125 2.2914 0.052613 0
M  V30 2336 C 225.138 1.43339 0.771857 0
M  V30 2337 O 226.327 1.67123 0.627067 0
M  V30 2338 C 223.427 3.20618 1.09804 0
M  V30 2339 C 222.6 4.35039 0.45389 0
M  V30 2340 C 221.659 5.07282 1.39825 0
M  V30 2341 O 220.685 5.62024 0.900978 0
M  V30 2342 N 221.887 5.12206 2.73176 0
M  V30 2343 H 224.652 2.91668 -0.689209 0
M  V30 2344 H 222.213 1.53577 -0.512422 0
M  V30 2345 H 224.205 3.65815 1.73094 0
M  V30 2346 H 222.775 2.59585 1.74167 0
M  V30 2347 H 221.995 3.92567 -0.358396 0
M  V30 2348 H 223.283 5.088 0.00486972 0
M  V30 2349 H 222.681 4.6913 3.16122 0
M  V30 2350 H 221.238 5.61069 3.31729 0
M  V30 2351 N 224.671 0.411399 1.52136 0
M  V30 2352 C 225.601 -0.404015 2.29978 0
M  V30 2353 C 226.582 -1.04412 1.34284 0
M  V30 2354 O 227.767 -1.0527 1.63192 0
M  V30 2355 C 224.897 -1.5197 3.12286 0
M  V30 2356 C 223.851 -1.00448 4.16046 0
M  V30 2357 C 223.177 -2.21393 4.86712 0
M  V30 2358 C 224.477 -0.0569336 5.22269 0
M  V30 2359 H 226.171 0.245529 2.98392 0
M  V30 2360 H 223.717 0.119525 1.43503 0
M  V30 2361 H 225.67 -2.09715 3.6551 0
M  V30 2362 H 224.394 -2.19716 2.41646 0
M  V30 2363 H 223.053 -0.449421 3.63835 0
M  V30 2364 H 222.701 -2.87699 4.12599 0
M  V30 2365 H 222.401 -1.87571 5.56858 0
M  V30 2366 H 223.925 -2.7974 5.4275 0
M  V30 2367 H 225.339 -0.54325 5.7072 0
M  V30 2368 H 223.736 0.192594 5.99791 0
M  V30 2369 H 224.806 0.887663 4.76706 0
M  V30 2370 N 226.149 -1.5696 0.141893 0
M  V30 2371 C 227.565 -1.58151 -0.21456 0
M  V30 2372 C 227.765 -1.1559 -1.65049 0
M  V30 2373 O 226.821 -0.853832 -2.37626 0
M  V30 2374 C 228.134 -3.00674 0.0395576 0
M  V30 2375 C 229.682 -3.1299 -0.0245529 0
M  V30 2376 C 230.157 -4.57554 0.202167 0
M  V30 2377 N 231.648 -4.62961 0.148919 0
M  V30 2378 C 232.383 -5.7262 0.298924 0
M  V30 2379 N 231.879 -6.90947 0.50637 0
M  V30 2380 N 233.672 -5.61601 0.236886 0
M  V30 2381 H 225.823 -1.8292 1.07953 0
M  V30 2382 H 228.086 -0.846425 0.42693 0
M  V30 2383 H 227.792 -3.36183 1.03315 0
M  V30 2384 H 227.666 -3.70981 -0.682143 0
M  V30 2385 H 230.053 -2.77326 -1.00869 0
M  V30 2386 H 230.134 -2.4518 0.729396 0
M  V30 2387 H 229.778 -4.93922 1.18338 0
M  V30 2388 H 229.708 -5.23484 -0.572044 0
M  V30 2389 H 232.199 -3.77899 -0.00697015 0
M  V30 2390 H 232.512 -7.7038 0.611076 0
M  V30 2391 H 230.857 -6.92878 0.542628 0
M  V30 2392 H 234.048 -4.68039 0.0756209 0
M  V30 2393 H 234.221 -6.47015 0.357227 0
M  V30 2394 N 227.627 0.131896 -1.57047 0
M  V30 2395 C 228.875 0.840269 -1.83804 0
M  V30 2396 C 229.196 1.81017 -0.72512 0
M  V30 2397 O 228.466 1.94272 0.251995 0
M  V30 2398 H 227.046 0.313294 -0.678127 0
M  V30 2399 H 229.708 0.122294 -1.94516 0
M  V30 2400 H 228.804 1.39335 -2.79271 0
M  V30 2401 N 229.106 1.52395 0.401703 0
M  V30 2402 C 230.069 1.75636 1.47257 0
M  V30 2403 C 231.069 0.62628 1.48103 0
M  V30 2404 O 232.259 0.894227 1.49497 0
M  V30 2405 C 229.391 1.84553 2.86624 0
M  V30 2406 H 230.584 2.71241 1.27938 0
M  V30 2407 H 228.137 1.42923 0.632662 0
M  V30 2408 H 228.872 0.908882 3.11303 0
M  V30 2409 H 228.657 2.66715 2.87412 0
M  V30 2410 H 230.147 2.04251 3.64241 0
M  V30 2411 N 230.584 -0.659388 1.43143 0
M  V30 2412 C 231.814 -1.44513 1.47646 0
M  V30 2413 C 232.222 -1.88981 0.0910095 0
M  V30 2414 O 231.565 -1.59702 -0.907789 0
M  V30 2415 C 231.627 -2.71663 2.35456 0
M  V30 2416 C 231.291 -2.49175 3.83094 0
M  V30 2417 C 232.288 -2.1279 4.74359 0
M  V30 2418 C 229.973 -2.63691 4.27519 0
M  V30 2419 C 231.967 -1.9121 6.08044 0
M  V30 2420 C 229.654 -2.41726 5.61259 0
M  V30 2421 C 230.652 -2.0554 6.51339 0
M  V30 2422 O 230.34 -1.838 7.82606 0
M  V30 2423 H 230.072 -0.45064 0.503884 0
M  V30 2424 H 232.626 -0.816248 1.88485 0
M  V30 2425 H 230.856 -3.37089 1.89493 0
M  V30 2426 H 232.545 -3.33595 2.31235 0
M  V30 2427 H 233.311 -2.01157 4.41317 0
M  V30 2428 H 229.19 -2.90832 3.57684 0
M  V30 2429 H 232.734 -1.62889 6.78316 0
M  V30 2430 H 228.631 -2.52959 5.9387 0
M  V30 2431 H 229.399 -1.98275 7.94122 0
M  V30 2432 N 232.062 -1.29571 -0.897171 0
M  V30 2433 C 233.31 -1.17456 -1.64464 0
M  V30 2434 C 233.631 0.273698 -1.9307 0
M  V30 2435 O 232.901 1.18684 -1.55855 0
M  V30 2436 H 231.481 -0.431706 -0.609622 0
M  V30 2437 H 234.143 -1.62531 -1.07562 0
M  V30 2438 H 233.239 -1.72648 -2.59998 0
M  V30 2439 N 233.54 1.10788 -1.12088 0
M  V30 2440 C 234.768 1.86461 -0.896651 0
M  V30 2441 C 235.183 1.80492 0.553912 0
M  V30 2442 O 234.54 1.19102 1.38278 0
M  V30 2443 C 234.591 3.35006 -1.35843 0
M  V30 2444 O 234.312 3.40866 -2.75213 0
M  V30 2445 C 235.813 4.27565 -1.1706 0
M  V30 2446 H 233.033 0.589425 -0.320654 0
M  V30 2447 H 235.577 1.40076 -1.48993 0
M  V30 2448 H 233.732 3.7887 -0.808458 0
M  V30 2449 H 234.146 4.33411 -2.9539 0
M  V30 2450 H 235.62 5.30007 -1.54263 0
M  V30 2451 H 236.097 4.3906 -0.110814 0
M  V30 2452 H 236.703 3.89501 -1.70789 0
M  V30 2453 N 235.018 0.912232 1.28515 0
M  V30 2454 C 236.264 0.545405 1.95328 0
M  V30 2455 C 236.597 -0.908313 1.71649 0
M  V30 2456 O 235.872 -1.64575 1.03659 0
M  V30 2457 C 236.155 0.853483 3.4984 0
M  V30 2458 C 236.008 2.35982 3.82926 0
M  V30 2459 C 237.327 0.348589 4.38717 0
M  V30 2460 H 234.446 0.199626 0.709449 0
M  V30 2461 H 237.088 1.1412 1.5191 0
M  V30 2462 H 235.238 0.34643 3.86952 0
M  V30 2463 H 236.91 2.93738 3.55691 0
M  V30 2464 H 235.153 2.81543 3.30024 0
M  V30 2465 H 235.824 2.52593 4.90816 0
M  V30 2466 H 238.3 0.78294 4.08668 0
M  V30 2467 H 237.176 0.593242 5.45685 0
M  V30 2468 H 237.437 -0.751049 4.35674 0
M  V30 2469 N 236.496 -1.42363 0.676048 0
M  V30 2470 C 237.745 -2.00745 0.196037 0
M  V30 2471 C 238.058 -1.54083 -1.20489 0
M  V30 2472 O 239.264 -2.04891 -1.78134 0
M  V30 2473 C 237.72 -3.58651 0.299616 0
M  V30 2474 C 237.328 -4.143 1.70468 0
M  V30 2475 C 239.072 -4.24326 -0.121619 0
M  V30 2476 C 236.979 -5.64574 1.76096 0
M  V30 2477 H 235.909 -0.750787 0.0695301 0
M  V30 2478 H 238.56 -1.63072 0.841412 0
M  V30 2479 H 236.942 -3.93833 -0.413673 0
M  V30 2480 H 238.116 -3.90575 2.44515 0
M  V30 2481 H 236.431 -3.61081 2.07387 0
M  V30 2482 H 239.028 -5.34607 -0.0997362 0
M  V30 2483 H 239.371 -3.99897 -1.15708 0
M  V30 2484 H 239.904 -3.94108 0.540706 0
M  V30 2485 H 236.643 -5.93804 2.77628 0
M  V30 2486 H 236.163 -5.90286 1.06406 0
M  V30 2487 H 237.842 -6.29013 1.51496 0
M  V30 2488 N 237.974 -0.419461 -1.51915 0
M  V30 2489 C 238.907 0.445751 -2.23804 0
M  V30 2490 C 239.885 1.03951 -1.25031 0
M  V30 2491 O 241.069 1.08541 -1.54114 0
M  V30 2492 C 238.196 1.61964 -2.97465 0
M  V30 2493 C 237.242 1.14828 -4.10751 0
M  V30 2494 S 238.075 0.104938 -5.35397 0
M  V30 2495 C 239.231 1.28391 -6.1259 0
M  V30 2496 H 239.464 -0.164627 -2.96844 0
M  V30 2497 H 236.997 -0.203833 -1.53049 0
M  V30 2498 H 238.955 2.29271 -3.40507 0
M  V30 2499 H 237.616 2.20139 -2.24048 0
M  V30 2500 H 236.809 2.02561 -4.61503 0
M  V30 2501 H 236.411 0.553712 -3.69878 0
M  V30 2502 H 238.703 2.20563 -6.40592 0
M  V30 2503 H 239.646 0.816724 -7.03374 0
M  V30 2504 H 240.054 1.51439 -5.43807 0
M  V30 2505 N 239.452 1.56882 -0.150215 0
M  V30 2506 C 240.729 1.87844 0.545327 0
M  V30 2507 C 241.109 1.0567 1.82749 0
M  V30 2508 O 240.457 0.144442 2.28043 0
M  V30 2509 C 240.667 3.39526 0.80767 0
M  V30 2510 C 242.015 4.08814 1.14703 0
M  V30 2511 O 243.039 3.44723 0.896917 0
M  V30 2512 O 241.898 5.22004 1.61784 0
M  V30 2513 H 238.992 0.778677 0.278553 0
M  V30 2514 H 241.538 1.68666 -0.187068 0
M  V30 2515 H 240.31 3.91173 -0.0996096 0
M  V30 2516 H 239.933 3.64243 1.59413 0
M  V30 2517 N 240.93 -0.123565 1.57115 0
M  V30 2518 C 242.155 -0.850398 1.89164 0
M  V30 2519 C 242.58 -1.7286 0.741688 0
M  V30 2520 O 241.938 -1.78665 -0.307958 0
M  V30 2521 C 241.986 -1.66353 3.19936 0
M  V30 2522 O 241.09 -2.77004 3.0552 0
M  V30 2523 H 240.431 -0.235454 0.620852 0
M  V30 2524 H 242.961 -0.107335 2.04318 0
M  V30 2525 H 242.971 -2.05372 3.52543 0
M  V30 2526 H 241.646 -1.01881 4.03228 0
M  V30 2527 H 240.223 -2.41221 2.84371 0
M  V30 2528 N 242.408 -1.52605 -0.393616 0
M  V30 2529 C 243.824 -1.41753 -0.733357 0
M  V30 2530 C 244.024 -0.534293 -1.94287 0
M  V30 2531 O 243.08 -0.0059787 -2.52499 0
M  V30 2532 C 244.393 -2.84531 -0.972772 0
M  V30 2533 C 245.941 -2.93978 -1.07453 0
M  V30 2534 C 246.416 -4.37756 -1.3466 0
M  V30 2535 N 247.907 -4.4106 -1.41492 0
M  V30 2536 C 248.642 -5.49387 -1.642 0
M  V30 2537 N 248.138 -6.67806 -1.8441 0
M  V30 2538 N 249.931 -5.36923 -1.66342 0
M  V30 2539 H 242.082 -2.08555 0.402328 0
M  V30 2540 H 244.345 -0.940654 0.117789 0
M  V30 2541 H 244.051 -3.51353 -0.156204 0
M  V30 2542 H 243.925 -3.26508 -1.88871 0
M  V30 2543 H 246.312 -2.27326 -1.88167 0
M  V30 2544 H 246.393 -2.55435 -0.136605 0
M  V30 2545 H 246.037 -5.04972 -0.544581 0
M  V30 2546 H 245.967 -4.73848 -2.2973 0
M  V30 2547 H 248.458 -3.55705 -1.27601 0
M  V30 2548 H 248.771 -7.46141 -2.01231 0
M  V30 2549 H 247.116 -6.70843 -1.81644 0
M  V30 2550 H 250.307 -4.43381 -1.50102 0
M  V30 2551 H 250.48 -6.21416 -1.837 0
M  V30 2552 N 243.887 0.651787 -1.4349 0
M  V30 2553 C 244.837 1.75783 -1.45205 0
M  V30 2554 C 245.821 1.57679 -0.320328 0
M  V30 2555 O 247.013 1.67767 -0.564211 0
M  V30 2556 C 244.142 3.14377 -1.3792 0
M  V30 2557 C 243.228 3.38023 -2.56127 0
M  V30 2558 N 243.619 3.32135 -3.81471 0
M  V30 2559 C 241.917 3.68747 -2.50882 0
M  V30 2560 C 242.618 3.55902 -4.60118 0
M  V30 2561 N 241.594 3.77783 -3.90872 0
M  V30 2562 H 245.396 1.69657 -2.39987 0
M  V30 2563 H 242.91 0.853508 -1.38163 0
M  V30 2564 H 244.907 3.93666 -1.37231 0
M  V30 2565 H 243.567 3.21683 -0.441596 0
M  V30 2566 H 244.578 3.11515 -4.13738 0
M  V30 2567 H 241.255 3.8316 -1.65816 0
M  V30 2568 H 242.645 3.57116 -5.69138 0
M  V30 2569 N 245.365 1.30045 0.890287 0
M  V30 2570 C 246.776 1.16738 1.45702 0
M  V30 2571 C 247.127 -0.233939 1.948 0
M  V30 2572 O 246.252 -1.13021 1.84541 0
M  V30 2573 C 246.847 2.11313 2.64825 0
M  V30 2574 C 245.406 2.02001 3.17604 0
M  V30 2575 C 244.553 2.01699 1.90296 0
M  V30 2576 H 247.504 1.42392 0.700726 0
M  V30 2577 H 247.525 1.69086 3.40867 0
M  V30 2578 H 247.037 3.13294 2.2906 0
M  V30 2579 H 245.138 1.03142 3.5804 0
M  V30 2580 H 245.251 2.90128 3.81264 0
M  V30 2581 H 243.615 1.46427 2.08402 0
M  V30 2582 H 244.398 3.05402 1.56795 0
M  V30 2583 N 246.843 -1.10192 1.12674 0
M  V30 2584 C 248.12 -1.78717 0.794965 0
M  V30 2585 C 248.5 -1.98628 -0.714853 0
M  V30 2586 O 247.848 -1.58135 -1.64941 0
M  V30 2587 C 248.058 -3.11546 1.5729 0
M  V30 2588 C 249.406 -3.86382 1.76052 0
M  V30 2589 O 250.43 -3.21274 1.53823 0
M  V30 2590 O 249.289 -5.03246 2.13087 0
M  V30 2591 H 246.383 -0.774702 0.289423 0
M  V30 2592 H 248.929 -1.16819 1.23091 0
M  V30 2593 H 247.701 -2.92489 2.59935 0
M  V30 2594 H 247.324 -3.81164 1.13137 0
M  V30 2595 N 248.321 -0.919034 -1.28029 0
M  V30 2596 C 249.549 -0.570971 -1.98866 0
M  V30 2597 C 249.964 0.848996 -1.68634 0
M  V30 2598 O 249.321 1.56307 -0.942036 0
M  V30 2599 C 249.372 -0.776876 -3.53054 0
M  V30 2600 O 249.093 -2.14097 -3.82222 0
M  V30 2601 C 250.594 -0.436356 -4.41147 0
M  V30 2602 H 247.814 -0.217175 -0.634883 0
M  V30 2603 H 250.358 -1.23368 -1.63097 0
M  V30 2604 H 248.513 -0.161085 -3.87065 0
M  V30 2605 H 248.927 -2.18455 -4.76841 0
M  V30 2606 H 250.401 -0.63117 -5.4838 0
M  V30 2607 H 250.878 0.627686 -4.34692 0
M  V30 2608 H 251.484 -1.02991 -4.12641 0
M  V30 2609 N 249.799 1.42003 -0.683588 0
M  V30 2610 C 250.729 2.33487 -0.024866 0
M  V30 2611 C 251.71 1.51163 0.779975 0
M  V30 2612 O 252.895 1.79739 0.735362 0
M  V30 2613 C 250.025 3.3487 0.920836 0
M  V30 2614 C 248.979 4.27414 0.223958 0
M  V30 2615 C 248.305 5.19074 1.2832 0
M  V30 2616 C 249.605 5.14445 -0.90242 0
M  V30 2617 H 251.299 2.88819 -0.788921 0
M  V30 2618 H 248.845 1.38873 -0.38083 0
M  V30 2619 H 250.798 3.97787 1.39081 0
M  V30 2620 H 249.522 2.77861 1.71642 0
M  V30 2621 H 248.181 3.65904 -0.225864 0
M  V30 2622 H 247.829 4.58387 2.071 0
M  V30 2623 H 247.529 5.81822 0.821995 0
M  V30 2624 H 249.053 5.84867 1.75392 0
M  V30 2625 H 250.467 5.70998 -0.513272 0
M  V30 2626 H 248.864 5.86072 -1.28997 0
M  V30 2627 H 249.934 4.52322 -1.74737 0
M  V30 2628 N 251.277 0.427512 1.51691 0
M  V30 2629 C 252.207 -0.3796 2.30394 0
M  V30 2630 C 253.188 -1.02982 1.35384 0
M  V30 2631 O 254.373 -1.03534 1.643 0
M  V30 2632 C 251.503 -1.48649 3.1388 0
M  V30 2633 C 250.457 -0.960294 4.17088 0
M  V30 2634 C 249.783 -2.16219 4.89033 0
M  V30 2635 C 251.083 -0.00153679 5.223 0
M  V30 2636 H 252.777 0.277164 2.98114 0
M  V30 2637 H 250.323 0.134739 1.43368 0
M  V30 2638 H 252.276 -2.05826 3.67714 0
M  V30 2639 H 251 -2.1714 2.43962 0
M  V30 2640 H 249.659 -0.410806 3.64291 0
M  V30 2641 H 249.307 -2.83307 4.15628 0
M  V30 2642 H 249.007 -1.81654 5.58816 0
M  V30 2643 H 250.531 -2.73968 5.45687 0
M  V30 2644 H 251.945 -0.482687 5.71264 0
M  V30 2645 H 250.342 0.256199 5.99553 0
M  V30 2646 H 251.412 0.938174 4.75738 0
M  V30 2647 N 252.755 -1.56801 0.158532 0
M  V30 2648 C 253.718 -2.16138 -0.762705 0
M  V30 2649 C 254.718 -1.1061 -1.16713 0
M  V30 2650 O 255.908 -1.36191 -1.08617 0
M  V30 2651 C 253.04 -2.73386 -2.03649 0
M  V30 2652 H 254.233 -2.98886 -0.246354 0
M  V30 2653 H 251.786 -1.56035 -0.0909744 0
M  V30 2654 H 252.521 -1.94335 -2.59623 0
M  V30 2655 H 252.306 -3.50601 -1.75559 0
M  V30 2656 H 253.796 -3.19065 -2.6942 0
M  V30 2657 N 254.233 0.115231 -1.57178 0
M  V30 2658 C 255.196 1.12526 -1.99676 0
M  V30 2659 C 256.196 1.34095 -0.88742 0
M  V30 2660 O 257.386 1.30548 -1.15337 0
M  V30 2661 C 254.518 2.4789 -2.34015 0
M  V30 2662 H 255.711 0.759912 -2.90113 0
M  V30 2663 H 253.264 0.359648 -1.52106 0
M  V30 2664 H 253.999 2.89339 -1.4647 0
M  V30 2665 H 253.784 2.33588 -3.14927 0
M  V30 2666 H 255.274 3.20575 -2.67622 0
M  V30 2667 N 255.711 1.52812 0.385517 0
M  V30 2668 C 257.127 1.4214 0.725829 0
M  V30 2669 C 257.327 0.544589 1.94001 0
M  V30 2670 O 256.383 0.0193693 2.52493 0
M  V30 2671 C 257.696 2.85042 0.957668 0
M  V30 2672 C 259.244 2.94543 1.05892 0
M  V30 2673 C 259.719 4.38464 1.32337 0
M  V30 2674 N 261.21 4.41804 1.39151 0
M  V30 2675 C 261.945 5.5025 1.61285 0
M  V30 2676 N 261.441 6.68775 1.80866 0
M  V30 2677 N 263.234 5.37798 1.63492 0
M  V30 2678 H 255.385 2.08338 -0.413383 0
M  V30 2679 H 257.648 0.940016 -0.122775 0
M  V30 2680 H 257.354 3.51431 0.137568 0
M  V30 2681 H 257.228 3.27505 1.87137 0
M  V30 2682 H 259.615 2.28321 1.86959 0
M  V30 2683 H 259.696 2.55504 0.123057 0
M  V30 2684 H 259.34 5.05254 0.517793 0
M  V30 2685 H 259.27 4.75059 2.27214 0
M  V30 2686 H 261.761 3.56377 1.25713 0
M  V30 2687 H 262.074 7.47197 1.97271 0
M  V30 2688 H 260.419 6.71797 1.78083 0
M  V30 2689 H 263.61 4.44171 1.47749 0
M  V30 2690 H 263.783 6.22382 1.80402 0
M  V30 2691 N 257.189 -0.644168 1.43834 0
M  V30 2692 C 258.414 -1.43642 1.49605 0
M  V30 2693 C 258.839 -1.8773 0.117913 0
M  V30 2694 O 258.197 -1.57938 -0.890239 0
M  V30 2695 C 258.245 -2.6416 2.45463 0
M  V30 2696 O 257.349 -3.63538 1.94714 0
M  V30 2697 H 256.69 -0.430329 0.50568 0
M  V30 2698 H 259.22 -0.787448 1.8884 0
M  V30 2699 H 259.23 -3.11864 2.63068 0
M  V30 2700 H 257.905 -2.31414 3.45572 0
M  V30 2701 H 256.482 -3.2273 1.86814 0
M  V30 2702 N 258.668 -1.30515 -0.883378 0
M  V30 2703 C 259.916 -1.19194 -1.63209 0
M  V30 2704 C 260.237 0.253205 -1.93349 0
M  V30 2705 O 259.507 1.17025 -1.57105 0
M  V30 2706 H 258.087 -0.438148 -0.605009 0
M  V30 2707 H 260.749 -1.63663 -1.05832 0
M  V30 2708 H 259.845 -1.75396 -2.58153 0
M  V30 2709 N 260.146 1.09593 -1.13257 0
M  V30 2710 C 261.371 1.8604 -0.916732 0
M  V30 2711 C 261.796 1.80504 0.529146 0
M  V30 2712 O 261.154 1.18127 1.37534 0
M  V30 2713 C 261.202 3.32017 -1.40703 0
M  V30 2714 O 260.306 4.08141 -0.591153 0
M  V30 2715 H 259.647 0.576943 -0.328683 0
M  V30 2716 H 262.177 1.38405 -1.50682 0
M  V30 2717 H 262.187 3.82865 -1.4099 0
M  V30 2718 H 260.862 3.35361 -2.45979 0
M  V30 2719 H 259.439 3.67084 -0.656005 0
M  V30 2720 N 261.624 0.925811 1.2754 0
M  V30 2721 C 263.035 0.610102 1.7645 0
M  V30 2722 C 263.386 -0.874723 1.75622 0
M  V30 2723 O 262.511 -1.68444 1.35851 0
M  V30 2724 C 263.106 1.10073 3.20421 0
M  V30 2725 C 261.665 0.835723 3.67005 0
M  V30 2726 C 260.812 1.26054 2.46993 0
M  V30 2727 H 263.763 1.10579 1.13833 0
M  V30 2728 H 263.784 0.447557 3.77859 0
M  V30 2729 H 263.296 2.18143 3.20991 0
M  V30 2730 H 261.397 -0.231249 3.71882 0
M  V30 2731 H 261.51 1.45193 4.56569 0
M  V30 2732 H 259.874 0.679111 2.45479 0
M  V30 2733 H 260.657 2.34984 2.50275 0
M  V30 2734 N 263.102 -1.41638 0.69111 0
M  V30 2735 C 264.032 -2.3347 0.037248 0
M  V30 2736 C 265.013 -1.51575 -0.771947 0
M  V30 2737 O 266.198 -1.80126 -0.72582 0
M  V30 2738 C 263.328 -3.35354 -0.903064 0
M  V30 2739 C 262.282 -4.27526 -0.201288 0
M  V30 2740 C 261.608 -5.19747 -1.25565 0
M  V30 2741 C 262.908 -5.13959 0.929689 0
M  V30 2742 H 264.602 -2.88397 0.804227 0
M  V30 2743 H 262.148 -1.38669 0.388189 0
M  V30 2744 H 264.101 -3.98519 -1.36969 0
M  V30 2745 H 262.825 -2.78767 -1.70166 0
M  V30 2746 H 261.484 -3.65779 0.245265 0
M  V30 2747 H 261.132 -4.59479 -2.04666 0
M  V30 2748 H 260.832 -5.8225 -0.791128 0
M  V30 2749 H 262.356 -5.85789 -1.72288 0
M  V30 2750 H 263.77 -5.70718 0.543546 0
M  V30 2751 H 262.167 -5.85379 1.32103 0
M  V30 2752 H 263.237 -4.51389 1.77133 0
M  V30 2753 N 264.58 -0.43555 -1.51462 0
M  V30 2754 C 265.826 0.131709 -2.02372 0
M  V30 2755 C 266.159 1.42516 -1.3192 0
M  V30 2756 O 265.434 1.89606 -0.433573 0
M  V30 2757 C 265.717 0.352301 -3.58373 0
M  V30 2758 C 265.57 -0.959676 -4.39443 0
M  V30 2759 C 266.889 1.12286 -4.25535 0
M  V30 2760 H 264.008 0.0463936 -0.735538 0
M  V30 2761 H 266.65 -0.574197 -1.81116 0
M  V30 2762 H 264.8 0.9536 -3.76615 0
M  V30 2763 H 266.472 -1.59482 -4.32855 0
M  V30 2764 H 264.715 -1.56468 -4.04599 0
M  V30 2765 H 265.386 -0.759394 -5.46752 0
M  V30 2766 H 267.862 0.613545 -4.11552 0
M  V30 2767 H 266.738 1.24598 -5.34571 0
M  V30 2768 H 266.999 2.15048 -3.86273 0
M  V30 2769 N 266.058 1.56714 -0.166846 0
M  V30 2770 C 267.307 1.95922 0.479318 0
M  V30 2771 C 267.62 1.05529 1.6469 0
M  V30 2772 O 268.826 1.34399 2.35901 0
M  V30 2773 C 267.282 3.48359 0.90412 0
M  V30 2774 C 266.89 4.47369 -0.237621 0
M  V30 2775 C 268.634 3.96394 1.51896 0
M  V30 2776 C 266.541 5.91039 0.206561 0
M  V30 2777 H 265.471 0.731495 0.18284 0
M  V30 2778 H 268.122 1.81728 -0.254363 0
M  V30 2779 H 266.504 3.57955 1.69365 0
M  V30 2780 H 267.678 4.49485 -1.01489 0
M  V30 2781 H 265.993 4.09366 -0.762128 0
M  V30 2782 H 268.59 5.01186 1.86325 0
M  V30 2783 H 268.933 3.39075 2.41524 0
M  V30 2784 H 269.466 3.89796 0.79395 0
M  V30 2785 H 266.205 6.52221 -0.654834 0
M  V30 2786 H 265.725 5.9224 0.949282 0
M  V30 2787 H 267.404 6.43707 0.651939 0
M  V30 2788 N 267.536 -0.106894 1.57237 0
M  V30 2789 C 268.784 -0.810921 1.85117 0
M  V30 2790 C 269.105 -1.7984 0.753827 0
M  V30 2791 O 268.375 -1.94649 -0.221056 0
M  V30 2792 H 266.955 -0.302466 0.683025 0
M  V30 2793 H 269.617 -0.0913324 1.94686 0
M  V30 2794 H 268.713 -1.34875 2.81452 0
M  V30 2795 N 269.014 -1.53014 -0.377408 0
M  V30 2796 C 269.944 -1.81589 -1.46791 0
M  V30 2797 C 270.925 -0.668622 -1.56408 0
M  V30 2798 O 272.11 -0.917337 -1.71168 0
M  V30 2799 C 269.24 -1.99519 -2.8427 0
M  V30 2800 C 268.194 -3.15249 -2.89486 0
M  V30 2801 C 267.52 -3.18451 -4.29527 0
M  V30 2802 C 268.82 -4.54084 -2.58079 0
M  V30 2803 H 270.514 -2.7291 -1.23127 0
M  V30 2804 H 268.06 -1.31319 -0.590883 0
M  V30 2805 H 270.013 -2.18092 -3.60575 0
M  V30 2806 H 268.737 -1.04897 -3.09296 0
M  V30 2807 H 267.396 -2.96477 -2.15631 0
M  V30 2808 H 267.044 -2.2149 -4.5161 0
M  V30 2809 H 266.744 -3.962 -4.33934 0
M  V30 2810 H 268.268 -3.39193 -5.07721 0
M  V30 2811 H 269.682 -4.72899 -3.24098 0
M  V30 2812 H 268.079 -5.33987 -2.7382 0
M  V30 2813 H 269.149 -4.60006 -1.53372 0
M  V30 2814 N 270.492 0.636531 -1.44174 0
M  V30 2815 C 271.74 1.39343 -1.46383 0
M  V30 2816 C 272.061 1.94766 -0.0955715 0
M  V30 2817 O 271.331 1.75452 0.871395 0
M  V30 2818 H 269.911 0.517199 -0.538994 0
M  V30 2819 H 272.573 0.74957 -1.7991 0
M  V30 2820 H 271.669 2.22746 -2.18611 0
M  V30 2821 N 271.97 1.30982 0.876444 0
M  V30 2822 C 272.903 1.12414 1.98591 0
M  V30 2823 C 273.881 0.0294078 1.62573 0
M  V30 2824 O 275.065 0.184598 1.87594 0
M  V30 2825 C 272.192 0.716276 3.3104 0
M  V30 2826 C 271.238 1.81311 3.86042 0
M  V30 2827 S 272.071 3.41727 4.1229 0
M  V30 2828 C 273.227 3.02863 5.47745 0
M  V30 2829 H 273.46 2.06338 2.14037 0
M  V30 2830 H 270.993 1.15393 1.02586 0
M  V30 2831 H 272.951 0.487697 4.07593 0
M  V30 2832 H 271.612 -0.203749 3.13438 0
M  V30 2833 H 270.805 1.48021 4.81774 0
M  V30 2834 H 270.407 1.99641 3.16259 0
M  V30 2835 H 272.699 2.51353 6.29148 0
M  V30 2836 H 273.642 3.97533 5.8598 0
M  V30 2837 H 274.05 2.40487 5.10711 0
M  V30 2838 N 273.449 -1.08991 1.13837 0
M  V30 2839 C 274.697 -1.80899 0.901098 0
M  V30 2840 C 275.018 -1.86356 -0.574134 0
M  V30 2841 O 274.288 -1.35235 -1.41733 0
M  V30 2842 H 272.868 -0.669966 0.330386 0
M  V30 2843 H 275.53 -1.318 1.43578 0
M  V30 2844 H 274.626 -2.83929 1.29578 0
M  V30 2845 N 274.927 -0.932562 -1.27047 0
M  V30 2846 C 275.837 -0.441219 -2.30414 0
M  V30 2847 C 276.853 0.480525 -1.67233 0
M  V30 2848 O 278.029 0.362151 -1.98117 0
M  V30 2849 C 275.094 0.293651 -3.45454 0
M  V30 2850 C 274.155 -0.663601 -4.2414 0
M  V30 2851 C 273.388 0.0362932 -5.33688 0
M  V30 2852 O 273.611 1.2548 -5.56427 0
M  V30 2853 O 272.545 -0.638015 -5.98509 0
M  V30 2854 H 276.371 -1.29962 -2.74488 0
M  V30 2855 H 273.956 -0.6981 -1.32087 0
M  V30 2856 H 275.838 0.707951 -4.15411 0
M  V30 2857 H 274.513 1.12758 -3.03426 0
M  V30 2858 H 273.42 -1.12768 -3.56699 0
M  V30 2859 H 274.753 -1.46489 -4.69896 0
M  V30 2860 N 276.405 1.4127 -0.698611 0
M  V30 2861 C 277.353 2.32588 -0.023855 0
M  V30 2862 C 278.347 1.51128 0.765292 0
M  V30 2863 O 279.553 1.67043 0.670571 0
M  V30 2864 H 275.928 0.751918 0.0110871 0
M  V30 2865 H 277.899 2.87167 -0.811031 0
M  V30 2866 C 276.648 3.35947 0.896369 0
M  V30 2867 H 275.971 3.98684 0.298548 0
M  V30 2868 H 277.411 4.02376 1.33676 0
M  V30 2869 C 275.87 2.70076 2.01396 0
M  V30 2870 O 276.4 2.55093 3.10307 0
M  V30 2871 N 274.606 2.28724 1.79259 0
M  V30 2872 H 274.153 2.4111 0.906841 0
M  V30 2873 H 274.111 1.84986 2.54219 0
M  V30 2874 N 277.883 0.443576 1.51229 0
M  V30 2875 C 279.13 -0.120796 2.02139 0
M  V30 2876 C 279.458 -1.42166 1.32736 0
M  V30 2877 O 278.713 -1.90849 0.43301 0
M  V30 2878 C 279.012 -0.380579 3.55368 0
M  V30 2879 C 278.678 0.83523 4.43097 0
M  V30 2880 C 277.34 1.16864 4.66794 0
M  V30 2881 C 279.692 1.64601 4.94526 0
M  V30 2882 C 277.02 2.31339 5.39165 0
M  V30 2883 C 279.372 2.78181 5.68153 0
M  V30 2884 C 278.036 3.11969 5.90112 0
M  V30 2885 H 277.306 -0.0442023 0.73968 0
M  V30 2886 H 279.953 0.592046 1.82118 0
M  V30 2887 H 278.258 -1.17538 3.73754 0
M  V30 2888 H 279.955 -0.830777 3.923 0
M  V30 2889 H 276.545 0.565437 4.24854 0
M  V30 2890 H 280.729 1.40163 4.76097 0
M  V30 2891 H 275.985 2.57823 5.5438 0
M  V30 2892 H 280.159 3.41371 6.06992 0
M  V30 2893 H 277.786 4.00784 6.45969 0
M  V30 2894 N 279.361 -1.56624 0.175154 0
M  V30 2895 C 280.61 -1.96173 -0.468921 0
M  V30 2896 C 280.923 -1.06401 -1.64128 0
M  V30 2897 O 282.129 -1.35648 -2.35185 0
M  V30 2898 C 280.585 -3.48833 -0.885633 0
M  V30 2899 C 280.193 -4.47237 0.261343 0
M  V30 2900 C 281.937 -3.97194 -1.49791 0
M  V30 2901 C 279.844 -5.9114 -0.175214 0
M  V30 2902 H 278.774 -0.732455 -0.178958 0
M  V30 2903 H 281.425 -1.81591 0.263997 0
M  V30 2904 H 279.807 -3.58848 -1.67464 0
M  V30 2905 H 280.981 -4.4894 1.03871 0
M  V30 2906 H 279.296 -4.08956 0.783827 0
M  V30 2907 H 281.893 -5.02167 -1.83665 0
M  V30 2908 H 282.236 -3.40351 -2.39722 0
M  V30 2909 H 282.769 -3.90212 -0.773267 0
M  V30 2910 H 279.508 -6.51865 0.689414 0
M  V30 2911 H 279.028 -5.92735 -0.91786 0
M  V30 2912 H 280.707 -6.44044 -0.617792 0
M  V30 2913 N 280.839 0.0985539 -1.57292 0
M  V30 2914 C 281.802 1.10402 -2.00858 0
M  V30 2915 C 282.802 1.33146 -0.901593 0
M  V30 2916 O 283.992 1.29318 -1.16716 0
M  V30 2917 C 281.124 2.45394 -2.36632 0
M  V30 2918 H 282.317 0.729099 -2.90902 0
M  V30 2919 H 279.87 0.343495 -1.52479 0
M  V30 2920 H 280.605 2.87769 -1.49531 0
M  V30 2921 H 280.39 2.30235 -3.17387 0
M  V30 2922 H 281.88 3.17718 -2.71007 0
M  V30 2923 N 282.317 1.53212 0.369288 0
M  V30 2924 C 283.542 1.73423 1.1375 0
M  V30 2925 C 283.967 0.460404 1.82378 0
M  V30 2926 O 283.325 -0.585298 1.71592 0
M  V30 2927 C 283.373 2.89769 2.1463 0
M  V30 2928 O 282.477 2.58119 3.21634 0
M  V30 2929 H 281.818 0.576061 0.330227 0
M  V30 2930 H 284.348 2.00083 0.427547 0
M  V30 2931 H 284.358 3.15829 2.58294 0
M  V30 2932 H 283.033 3.8217 1.64071 0
M  V30 2933 H 281.61 2.42864 2.82969 0
M  V30 2934 N 283.795 -0.628877 1.44509 0
M  V30 2935 C 285.072 -1.38733 1.37886 0
M  V30 2936 C 285.452 -2.11065 0.0387008 0
M  V30 2937 O 284.8 -2.06476 -0.97878 0
M  V30 2938 C 285.01 -2.35188 2.57852 0
M  V30 2939 C 286.358 -2.9845 3.02014 0
M  V30 2940 O 287.382 -2.45513 2.58073 0
M  V30 2941 O 286.241 -3.94487 3.78209 0
M  V30 2942 H 283.335 -0.621015 0.54614 0
M  V30 2943 H 285.881 -0.653744 1.56602 0
M  V30 2944 H 284.653 -1.80855 3.46998 0
M  V30 2945 H 284.276 -3.1596 2.4136 0
M  V30 2946 N 285.273 -1.31445 -0.869486 0
M  V30 2947 C 286.205 -1.14955 -1.98287 0
M  V30 2948 C 287.218 -0.0885037 -1.62559 0
M  V30 2949 O 288.407 -0.336044 -1.75308 0
M  V30 2950 C 285.507 -0.734255 -3.3085 0
M  V30 2951 C 284.68 -1.88042 -3.94917 0
M  V30 2952 C 283.739 -1.4511 -5.05796 0
M  V30 2953 O 282.765 -2.16082 -5.2659 0
M  V30 2954 N 283.967 -0.338763 -5.79511 0
M  V30 2955 H 286.732 -2.10856 -2.12979 0
M  V30 2956 H 284.293 -1.23786 -1.04349 0
M  V30 2957 H 286.285 -0.42975 -4.02412 0
M  V30 2958 H 284.855 0.133158 -3.12316 0
M  V30 2959 H 284.075 -2.35222 -3.1633 0
M  V30 2960 H 285.363 -2.6481 -4.34457 0
M  V30 2961 H 284.761 0.252274 -5.65137 0
M  V30 2962 H 283.318 -0.0937925 -6.51733 0
M  V30 2963 N 286.751 1.08385 -1.14413 0
M  V30 2964 C 287.681 2.17321 -0.854044 0
M  V30 2965 C 288.662 1.69024 0.191049 0
M  V30 2966 O 289.847 1.94141 0.0476779 0
M  V30 2967 C 286.977 3.45719 -0.330983 0
M  V30 2968 C 285.931 4.07409 -1.31155 0
M  V30 2969 C 285.257 5.30762 -0.64778 0
M  V30 2970 C 286.557 4.48665 -2.67388 0
M  V30 2971 H 288.251 2.41845 -1.76498 0
M  V30 2972 H 285.797 1.16233 -0.850051 0
M  V30 2973 H 287.75 4.21241 -0.115645 0
M  V30 2974 H 286.474 3.2075 0.615381 0
M  V30 2975 H 285.133 3.33919 -1.51306 0
M  V30 2976 H 284.781 5.02078 0.304398 0
M  V30 2977 H 284.481 5.72992 -1.30207 0
M  V30 2978 H 286.005 6.08998 -0.441972 0
M  V30 2979 H 287.419 5.15364 -2.51143 0
M  V30 2980 H 285.816 5.01814 -3.29093 0
M  V30 2981 H 286.886 3.60543 -3.24248 0
M  V30 2982 N 288.23 0.939286 1.26551 0
M  V30 2983 C 289.193 0.451987 2.24699 0
M  V30 2984 C 290.193 -0.435869 1.5478 0
M  V30 2985 O 291.383 -0.235314 1.72603 0
M  V30 2986 C 288.515 -0.348801 3.39111 0
M  V30 2987 H 289.708 1.3193 2.69322 0
M  V30 2988 H 287.261 0.721072 1.38673 0
M  V30 2989 H 287.996 -1.23444 2.99887 0
M  V30 2990 H 287.781 0.287945 3.91041 0
M  V30 2991 H 289.271 -0.679726 4.12031 0
M  V30 2992 N 289.708 -1.40897 0.706093 0
M  V30 2993 C 290.638 -2.33418 0.0620085 0
M  V30 2994 C 291.619 -1.52385 -0.755827 0
M  V30 2995 O 292.804 -1.80886 -0.706674 0
M  V30 2996 C 289.934 -3.36293 -0.867445 0
M  V30 2997 C 288.888 -4.27716 -0.155932 0
M  V30 2998 C 288.214 -5.2105 -1.20046 0
M  V30 2999 C 289.514 -5.12944 0.984149 0
M  V30 3000 H 291.208 -2.87527 0.83477 0
M  V30 3001 H 288.754 -1.38249 0.402875 0
M  V30 3002 H 290.707 -3.99949 -1.32735 0
M  V30 3003 H 289.431 -2.80556 -1.67199 0
M  V30 3004 H 288.09 -3.65498 0.284047 0
M  V30 3005 H 287.738 -4.61624 -1.99781 0
M  V30 3006 H 287.438 -5.83056 -0.729328 0
M  V30 3007 H 288.962 -5.87584 -1.66066 0
M  V30 3008 H 290.376 -5.70109 0.604048 0
M  V30 3009 H 288.773 -5.83945 1.38304 0
M  V30 3010 H 289.843 -4.49485 1.81911 0
M  V30 3011 N 291.186 -0.45159 -1.50991 0
M  V30 3012 C 292.116 0.342898 -2.30969 0
M  V30 3013 C 293.097 1.00815 -1.37005 0
M  V30 3014 O 294.282 1.00907 -1.65926 0
M  V30 3015 C 291.412 1.43637 -3.16205 0
M  V30 3016 C 290.366 0.893818 -4.18563 0
M  V30 3017 C 289.692 2.08411 -4.92411 0
M  V30 3018 C 290.992 -0.0815568 -5.22236 0
M  V30 3019 H 292.686 -0.324556 -2.97636 0
M  V30 3020 H 290.232 -0.157531 -1.43136 0
M  V30 3021 H 292.185 1.9995 -3.70942 0
M  V30 3022 H 290.909 2.13232 -2.47386 0
M  V30 3023 H 289.568 0.352798 -3.64898 0
M  V30 3024 H 289.216 2.76658 -4.20082 0
M  V30 3025 H 288.916 1.72741 -5.61636 0
M  V30 3026 H 290.44 2.65251 -5.49976 0
M  V30 3027 H 291.854 0.391742 -5.7196 0
M  V30 3028 H 290.251 -0.351551 -5.99069 0
M  V30 3029 H 291.321 -1.01374 -4.74185 0
M  V30 3030 N 292.664 1.56529 -0.183458 0
M  V30 3031 C 294.075 1.83739 0.331177 0
M  V30 3032 C 294.426 1.10373 1.62211 0
M  V30 3033 O 293.551 0.36071 2.13373 0
M  V30 3034 C 294.146 3.33306 0.607646 0
M  V30 3035 C 292.705 3.60969 1.06668 0
M  V30 3036 C 291.852 2.77086 0.109029 0
M  V30 3037 H 294.803 1.53379 -0.407484 0
M  V30 3038 H 294.824 3.51444 1.45832 0
M  V30 3039 H 294.336 3.86677 -0.332086 0
M  V30 3040 H 292.437 3.13021 2.0211 0
M  V30 3041 H 292.55 4.69231 0.967447 0
M  V30 3042 H 290.914 2.47319 0.608714 0
M  V30 3043 H 291.697 3.33241 -0.82494 0
M  V30 3044 N 294.142 -0.090211 1.57342 0
M  V30 3045 C 295.388 -0.793982 1.86611 0
M  V30 3046 C 295.721 -1.78142 0.773252 0
M  V30 3047 O 294.996 -1.93271 -0.218304 0
M  V30 3048 C 295.279 -1.51839 3.26523 0
M  V30 3049 C 295.132 -0.548609 4.46442 0
M  V30 3050 C 296.451 -2.46779 3.64401 0
M  V30 3051 H 293.57 -0.287186 0.678744 0
M  V30 3052 H 296.212 -0.0575076 1.89913 0
M  V30 3053 H 294.362 -2.14617 3.23839 0
M  V30 3054 H 296.034 0.0725513 4.61243 0
M  V30 3055 H 294.277 0.137614 4.33582 0
M  V30 3056 H 294.948 -1.09271 5.41076 0
M  V30 3057 H 297.424 -1.94089 3.68061 0
M  V30 3058 H 296.3 -2.94479 4.63221 0
M  V30 3059 H 296.561 -3.30758 2.93346 0
M  V30 3060 N 295.62 -1.53406 -0.361157 0
M  V30 3061 C 296.848 -1.73717 -1.12383 0
M  V30 3062 C 297.263 -0.468161 -1.82904 0
M  V30 3063 O 296.62 0.559198 -1.73722 0
M  V30 3064 C 296.671 -2.90558 -2.15078 0
M  V30 3065 O 296.392 -4.12549 -1.47428 0
M  V30 3066 C 297.893 -3.22777 -3.03858 0
M  V30 3067 H 295.113 -0.580896 -0.335858 0
M  V30 3068 H 297.657 -2.00167 -0.418728 0
M  V30 3069 H 295.812 -2.66489 -2.8118 0
M  V30 3070 H 296.226 -4.78009 -2.15887 0
M  V30 3071 H 297.7 -4.07927 -3.71887 0
M  V30 3072 H 298.177 -2.38329 -3.68912 0
M  V30 3073 H 298.783 -3.48787 -2.43367 0
M  V30 3074 N 297.098 0.621204 -1.44841 0
M  V30 3075 C 298.514 0.94048 -1.28946 0
M  V30 3076 C 298.714 2.00154 -0.23249 0
M  V30 3077 O 297.77 2.49651 0.378237 0
M  V30 3078 C 299.083 1.39433 -2.66419 0
M  V30 3079 C 300.631 1.50927 -2.74208 0
M  V30 3080 C 301.106 1.99692 -4.12174 0
M  V30 3081 N 302.597 2.06947 -4.144 0
M  V30 3082 C 303.332 2.45871 -5.1801 0
M  V30 3083 N 302.828 2.83862 -6.31977 0
M  V30 3084 N 304.621 2.46092 -5.05366 0
M  V30 3085 H 296.772 -0.0803548 -2.12248 0
M  V30 3086 H 299.035 0.0266913 -0.947624 0
M  V30 3087 H 298.741 0.688925 -3.44887 0
M  V30 3088 H 298.615 2.36347 -2.93973 0
M  V30 3089 H 301.002 2.20561 -1.96053 0
M  V30 3090 H 301.083 0.523627 -2.50383 0
M  V30 3091 H 300.727 1.30649 -4.90809 0
M  V30 3092 H 300.657 2.99146 -4.33381 0
M  V30 3093 H 303.148 1.80232 -3.32152 0
M  V30 3094 H 303.461 3.12405 -7.0684 0
M  V30 3095 H 301.806 2.8159 -6.35399 0
M  V30 3096 H 304.997 2.1581 -4.15384 0
M  V30 3097 H 305.17 2.76102 -5.86235 0
M  V30 3098 N 298.576 1.31904 0.862503 0
M  V30 3099 C 299.992 1.10724 1.14945 0
M  V30 3100 C 300.192 -0.117421 2.01158 0
M  V30 3101 O 299.248 -0.804595 2.39338 0
M  V30 3102 C 300.561 2.38267 1.83437 0
M  V30 3103 C 302.109 2.43949 1.96106 0
M  V30 3104 C 302.584 3.71394 2.68013 0
M  V30 3105 N 304.075 3.72331 2.75543 0
M  V30 3106 C 304.81 4.67641 3.31812 0
M  V30 3107 N 304.306 5.73313 3.88953 0
M  V30 3108 N 306.099 4.5515 3.29841 0
M  V30 3109 H 298.25 2.10436 0.288191 0
M  V30 3110 H 300.513 0.928705 0.190292 0
M  V30 3111 H 300.219 3.27759 1.27542 0
M  V30 3112 H 300.093 2.48633 2.83657 0
M  V30 3113 H 302.48 1.54922 2.51164 0
M  V30 3114 H 302.561 2.37543 0.949059 0
M  V30 3115 H 302.205 4.60791 2.13621 0
M  V30 3116 H 302.135 3.75069 3.69636 0
M  V30 3117 H 304.626 2.95947 2.34997 0
M  V30 3118 H 304.939 6.42107 4.30022 0
M  V30 3119 H 303.284 5.77077 3.87308 0
M  V30 3120 H 306.475 3.71766 2.84443 0
M  V30 3121 H 306.648 5.29604 3.73394 0
M  V30 3122 N 300.054 -1.07777 1.14986 0
M  V30 3123 C 301.301 -1.8029 0.922056 0
M  V30 3124 C 301.629 -1.86531 -0.55105 0
M  V30 3125 O 300.884 -1.34189 -1.42449 0
M  V30 3126 C 301.183 -3.25495 1.47608 0
M  V30 3127 C 300.849 -3.39361 2.96893 0
M  V30 3128 C 299.511 -3.42852 3.37647 0
M  V30 3129 C 301.863 -3.42512 3.92854 0
M  V30 3130 C 299.191 -3.47094 4.73015 0
M  V30 3131 C 301.543 -3.4829 5.28088 0
M  V30 3132 C 300.207 -3.50058 5.68345 0
M  V30 3133 H 299.477 -0.659727 0.337404 0
M  V30 3134 H 302.124 -1.26854 1.43459 0
M  V30 3135 H 300.429 -3.81683 0.88463 0
M  V30 3136 H 302.126 -3.80168 1.27568 0
M  V30 3137 H 298.716 -3.37339 2.64387 0
M  V30 3138 H 302.9 -3.3904 3.62444 0
M  V30 3139 H 298.156 -3.46758 5.03556 0
M  V30 3140 H 302.33 -3.49675 6.02246 0
M  V30 3141 H 299.957 -3.53097 6.73221 0
M  V30 3142 N 301.532 -0.945985 -1.26051 0
M  V30 3143 C 302.781 -0.591836 -1.92822 0
M  V30 3144 C 303.094 0.873956 -1.7499 0
M  V30 3145 O 304.3 1.33769 -2.36259 0
M  V30 3146 C 302.756 -1.00776 -3.45503 0
M  V30 3147 C 302.364 -2.4955 -3.7206 0
M  V30 3148 C 304.108 -0.725735 -4.1825 0
M  V30 3149 C 302.015 -2.84988 -5.18205 0
M  V30 3150 H 300.945 -0.217635 -0.721908 0
M  V30 3151 H 303.596 -1.14927 -1.43052 0
M  V30 3152 H 301.978 -0.378812 -3.94184 0
M  V30 3153 H 303.152 -3.1739 -3.34066 0
M  V30 3154 H 301.467 -2.75133 -3.12555 0
M  V30 3155 H 304.064 -0.966771 -5.25887 0
M  V30 3156 H 304.407 0.337639 -4.14929 0
M  V30 3157 H 304.94 -1.31463 -3.7545 0
M  V30 3158 H 301.679 -3.90307 -5.26631 0
M  V30 3159 H 301.199 -2.21813 -5.57278 0
M  V30 3160 H 302.878 -2.73712 -5.86252 0
M  V30 3161 N 303.011 1.40521 -0.713556 0
M  V30 3162 C 304.258 2.00923 -0.25219 0
M  V30 3163 C 304.586 1.56571 1.15395 0
M  V30 3164 O 303.841 0.775874 1.79663 0
M  V30 3165 C 304.14 3.56317 -0.278 0
M  V30 3166 C 303.806 4.20246 -1.63415 0
M  V30 3167 C 302.468 4.37422 -2.00538 0
M  V30 3168 C 304.82 4.55923 -2.52554 0
M  V30 3169 C 302.148 4.87558 -3.2635 0
M  V30 3170 C 304.5 5.07458 -3.77716 0
M  V30 3171 C 303.164 5.22843 -4.14959 0
M  V30 3172 H 302.434 0.735231 -0.0922829 0
M  V30 3173 H 305.081 1.68161 -0.916188 0
M  V30 3174 H 303.386 3.88976 0.469567 0
M  V30 3175 H 305.083 4.00883 0.0967819 0
M  V30 3176 H 301.673 4.07263 -1.33546 0
M  V30 3177 H 305.857 4.42291 -2.25149 0
M  V30 3178 H 301.113 4.97654 -3.55176 0
M  V30 3179 H 305.287 5.34041 -4.4696 0
M  V30 3180 H 302.914 5.61454 -5.12516 0
M  V30 3181 N 304.489 0.459591 1.5075 0
M  V30 3182 C 305.419 -0.330644 2.31147 0
M  V30 3183 C 306.4 -1.00087 1.37538 0
M  V30 3184 O 307.585 -1.00025 1.66459 0
M  V30 3185 C 304.715 -1.41958 3.16962 0
M  V30 3186 C 303.669 -0.871608 4.19031 0
M  V30 3187 C 302.995 -2.05797 4.9351 0
M  V30 3188 C 304.295 0.109251 5.22186 0
M  V30 3189 H 305.989 0.340336 2.97459 0
M  V30 3190 H 303.535 0.165119 1.4305 0
M  V30 3191 H 305.488 -1.9798 3.71997 0
M  V30 3192 H 304.212 -2.11917 2.48513 0
M  V30 3193 H 302.871 -0.333442 3.6508 0
M  V30 3194 H 302.519 -2.74427 4.21544 0
M  V30 3195 H 302.219 -1.6976 5.62544 0
M  V30 3196 H 303.743 -2.62331 5.51375 0
M  V30 3197 H 305.157 -0.361405 5.7216 0
M  V30 3198 H 303.554 0.383316 5.98875 0
M  V30 3199 H 304.624 1.03887 4.73641 0
M  V30 3200 N 305.967 -1.56429 0.191757 0
M  V30 3201 C 306.877 -2.22541 -0.742481 0
M  V30 3202 C 307.893 -1.22342 -1.23727 0
M  V30 3203 O 309.069 -1.55069 -1.28513 0
M  V30 3204 C 306.134 -2.8692 -1.94623 0
M  V30 3205 C 305.195 -4.02378 -1.49633 0
M  V30 3206 C 304.428 -4.63678 -2.6427 0
M  V30 3207 O 304.651 -4.23895 -3.81666 0
M  V30 3208 O 303.585 -5.53202 -2.37174 0
M  V30 3209 H 307.411 -3.02977 -0.209462 0
M  V30 3210 H 304.996 -1.49353 -0.0373832 0
M  V30 3211 H 306.878 -3.27663 -2.64982 0
M  V30 3212 H 305.553 -2.09466 -2.46791 0
M  V30 3213 H 304.46 -3.66265 -0.761636 0
M  V30 3214 H 305.793 -4.81487 -1.02134 0
M  V30 3215 N 307.445 0.0818655 -1.57387 0
M  V30 3216 C 308.355 1.11642 -2.06333 0
M  V30 3217 C 309.371 1.43033 -0.99083 0
M  V30 3218 O 310.547 1.53411 -1.30488 0
M  V30 3219 C 307.612 2.41342 -2.48907 0
M  V30 3220 C 306.673 2.17014 -3.7041 0
M  V30 3221 C 305.906 3.4053 -4.10944 0
M  V30 3222 O 306.129 4.4927 -3.51444 0
M  V30 3223 O 305.063 3.29336 -5.03807 0
M  V30 3224 H 308.889 0.730657 -2.9478 0
M  V30 3225 H 306.474 0.295301 -1.46452 0
M  V30 3226 H 308.356 3.17691 -2.76858 0
M  V30 3227 H 307.031 2.79319 -1.63593 0
M  V30 3228 H 305.938 1.38403 -3.47556 0
M  V30 3229 H 307.271 1.83923 -4.56545 0
M  V30 3230 N 308.923 1.53595 0.353017 0
M  V30 3231 C 310.171 1.70049 1.09215 0
M  V30 3232 C 310.492 0.461406 1.89463 0
M  V30 3233 O 309.762 -0.524633 1.88744 0
M  V30 3234 H 308.342 0.626912 0.40619 0
M  V30 3235 H 311.004 1.90822 0.396585 0
M  V30 3236 H 310.1 2.56718 1.77488 0
M  V30 3237 N 310.401 -0.613514 1.45168 0
M  V30 3238 C 311.678 -1.37263 1.39349 0
M  V30 3239 C 312.058 -2.11012 0.0610848 0
M  V30 3240 O 311.406 -2.07502 -0.956825 0
M  V30 3241 C 311.616 -2.3244 2.60332 0
M  V30 3242 C 312.964 -2.9523 3.05163 0
M  V30 3243 O 313.988 -2.42762 2.60663 0
M  V30 3244 O 312.847 -3.90454 3.82372 0
M  V30 3245 H 309.941 -0.615188 0.552696 0
M  V30 3246 H 312.487 -0.637097 1.57287 0
M  V30 3247 H 311.259 -1.77164 3.48896 0
M  V30 3248 H 310.882 -3.13383 2.44698 0
M  V30 3249 N 311.879 -1.3236 -0.855495 0
M  V30 3250 C 313.128 -1.22226 -1.60448 0
M  V30 3251 C 313.441 0.214733 -1.94418 0
M  V30 3252 O 314.647 0.437917 -2.67945 0
M  V30 3253 C 313.103 -2.14063 -2.89318 0
M  V30 3254 C 312.711 -3.62839 -2.62777 0
M  V30 3255 C 314.455 -2.12764 -3.67331 0
M  V30 3256 C 312.362 -4.4664 -3.87643 0
M  V30 3257 H 311.292 -0.453904 -0.602069 0
M  V30 3258 H 313.943 -1.57314 -0.944698 0
M  V30 3259 H 312.325 -1.71889 -3.5675 0
M  V30 3260 H 313.499 -4.1335 -2.03662 0
M  V30 3261 H 311.814 -3.66261 -1.98096 0
M  V30 3262 H 314.411 -2.72611 -4.59987 0
M  V30 3263 H 314.754 -1.11841 -4.00995 0
M  V30 3264 H 315.287 -2.53214 -3.06802 0
M  V30 3265 H 312.026 -5.48373 -3.5912 0
M  V30 3266 H 311.546 -4.0088 -4.46156 0
M  V30 3267 H 313.225 -4.59597 -4.55389 0
M  V30 3268 N 313.357 1.07166 -1.15556 0
M  V30 3269 C 314.32 2.12589 -0.856644 0
M  V30 3270 C 315.32 1.6015 0.14444 0
M  V30 3271 O 316.51 1.7399 -0.0854163 0
M  V30 3272 C 313.642 3.39753 -0.279405 0
M  V30 3273 H 314.835 2.40539 -1.79112 0
M  V30 3274 H 312.388 1.23086 -0.963298 0
M  V30 3275 H 313.123 3.17447 0.663174 0
M  V30 3276 H 312.908 3.79117 -1.00063 0
M  V30 3277 H 314.398 4.17507 -0.0879113 0
M  V30 3278 N 314.835 0.952656 1.25548 0
M  V30 3279 C 315.745 0.47782 2.29682 0
M  V30 3280 C 316.761 -0.453859 1.67977 0
M  V30 3281 O 317.937 -0.330587 1.98668 0
M  V30 3282 C 315.002 -0.238655 3.45878 0
M  V30 3283 C 314.063 0.730994 4.23031 0
M  V30 3284 C 313.296 0.0486165 5.33678 0
M  V30 3285 O 313.519 -1.16612 5.58353 0
M  V30 3286 O 312.453 0.733152 5.97418 0
M  V30 3287 H 316.279 1.34312 2.72386 0
M  V30 3288 H 313.864 0.719026 1.30959 0
M  V30 3289 H 315.746 -0.641774 4.16484 0
M  V30 3290 H 314.421 -1.07916 3.05181 0
M  V30 3291 H 313.328 1.18428 3.5486 0
M  V30 3292 H 314.661 1.53946 4.67506 0
M  V30 3293 N 316.313 -1.40141 0.720998 0
M  V30 3294 C 317.562 -2.0002 0.259804 0
M  V30 3295 C 317.875 -1.57839 -1.15526 0
M  V30 3296 O 319.081 -2.10455 -1.71525 0
M  V30 3297 C 317.537 -3.57516 0.413566 0
M  V30 3298 C 317.145 -4.08667 1.83562 0
M  V30 3299 C 318.889 -4.24498 0.0134387 0
M  V30 3300 C 316.796 -5.58686 1.93968 0
M  V30 3301 H 315.726 -0.748195 0.0933806 0
M  V30 3302 H 318.377 -1.60313 0.892866 0
M  V30 3303 H 316.759 -3.9495 -0.288169 0
M  V30 3304 H 317.933 -3.82598 2.56817 0
M  V30 3305 H 316.248 -3.543 2.1877 0
M  V30 3306 H 318.845 -5.34654 0.0703954 0
M  V30 3307 H 319.188 -4.03375 -1.02927 0
M  V30 3308 H 319.721 -3.92188 0.665815 0
M  V30 3309 H 316.46 -5.8467 2.96379 0
M  V30 3310 H 315.98 -5.86602 1.25131 0
M  V30 3311 H 317.659 -6.23875 1.71431 0
M  V30 3312 N 317.792 -0.46758 -1.50504 0
M  V30 3313 C 319.02 0.0864133 -2.06719 0
M  V30 3314 C 319.435 1.33819 -1.33184 0
M  V30 3315 O 318.792 1.78061 -0.400083 0
M  V30 3316 C 318.843 0.378079 -3.59517 0
M  V30 3317 O 318.564 -0.824044 -4.3028 0
M  V30 3318 C 320.065 0.979426 -4.32345 0
M  V30 3319 H 317.285 -0.00551697 -0.670977 0
M  V30 3320 H 319.829 -0.655354 -1.93715 0
M  V30 3321 H 317.984 1.06977 -3.72337 0
M  V30 3322 H 318.398 -0.566518 -5.21432 0
M  V30 3323 H 319.872 1.1333 -5.40241 0
M  V30 3324 H 320.349 1.9686 -3.9261 0
M  V30 3325 H 320.955 0.326216 -4.24047 0
M  V30 3326 N 319.27 1.56325 -0.20005 0
M  V30 3327 C 320.686 1.58839 0.155716 0
M  V30 3328 C 320.886 1.21636 1.60645 0
M  V30 3329 O 319.942 0.941437 2.34293 0
M  V30 3330 C 321.255 3.0032 -0.151124 0
M  V30 3331 C 322.803 3.12866 -0.0916284 0
M  V30 3332 C 323.278 4.56488 -0.371845 0
M  V30 3333 N 324.769 4.62089 -0.320641 0
M  V30 3334 C 325.504 5.71116 -0.511243 0
M  V30 3335 N 325 6.88592 -0.762461 0
M  V30 3336 N 326.793 5.60335 -0.445157 0
M  V30 3337 H 318.944 1.78788 -1.14668 0
M  V30 3338 H 321.207 0.829996 -0.458051 0
M  V30 3339 H 320.913 3.32117 -1.15721 0
M  V30 3340 H 320.787 3.73257 0.543986 0
M  V30 3341 H 323.174 2.80878 0.905065 0
M  V30 3342 H 323.255 2.42304 -0.81989 0
M  V30 3343 H 322.899 4.89189 -1.36588 0
M  V30 3344 H 322.829 5.25246 0.377362 0
M  V30 3345 H 325.32 3.77665 -0.13329 0
M  V30 3346 H 325.633 7.67581 -0.896576 0
M  V30 3347 H 323.978 6.90387 -0.799412 0
M  V30 3348 H 327.169 4.67436 -0.249278 0
M  V30 3349 H 327.342 6.45243 -0.597116 0
M  V30 3350 N 320.748 -0.0735177 1.57428 0
M  V30 3351 C 322.164 -0.428264 1.53747 0
M  V30 3352 C 322.364 -1.79272 0.91998 0
M  V30 3353 O 321.42 -2.47051 0.521745 0
M  V30 3354 C 322.733 -0.370914 2.98404 0
M  V30 3355 C 324.281 -0.451224 3.0973 0
M  V30 3356 C 324.756 -0.4238 4.56035 0
M  V30 3357 N 326.247 -0.483925 4.60665 0
M  V30 3358 C 326.982 -0.484891 5.71346 0
M  V30 3359 N 326.478 -0.440775 6.91396 0
M  V30 3360 N 328.271 -0.531319 5.59583 0
M  V30 3361 H 320.422 0.819949 1.95935 0
M  V30 3362 H 322.685 0.307493 0.896745 0
M  V30 3363 H 322.391 0.564956 3.47133 0
M  V30 3364 H 322.265 -1.18176 3.5821 0
M  V30 3365 H 324.652 -1.37752 2.60976 0
M  V30 3366 H 324.733 0.388167 2.52838 0
M  V30 3367 H 324.377 0.498638 5.05446 0
M  V30 3368 H 324.307 -1.2807 5.10789 0
M  V30 3369 H 326.798 -0.522338 3.74273 0
M  V30 3370 H 327.111 -0.44539 7.71515 0
M  V30 3371 H 325.456 -0.40749 6.93804 0
M  V30 3372 H 328.647 -0.563464 4.64696 0
M  V30 3373 H 328.82 -0.528603 6.4584 0
M  V30 3374 N 322.226 -1.5378 -0.344866 0
M  V30 3375 C 323.451 -1.75211 -1.10977 0
M  V30 3376 C 323.876 -0.48936 -1.81623 0
M  V30 3377 O 323.234 0.557925 -1.72502 0
M  V30 3378 C 323.282 -2.93147 -2.09993 0
M  V30 3379 O 322.386 -2.63203 -3.17487 0
M  V30 3380 H 321.727 -0.581241 -0.321021 0
M  V30 3381 H 324.257 -2.00738 -0.395661 0
M  V30 3382 H 324.267 -3.19898 -2.53237 0
M  V30 3383 H 322.942 -3.84731 -1.5797 0
M  V30 3384 H 321.519 -2.47336 -2.79069 0
M  V30 3385 N 323.704 0.605807 -1.45491 0
M  V30 3386 C 324.95 1.36679 -1.49823 0
M  V30 3387 C 325.283 1.93693 -0.140175 0
M  V30 3388 O 324.558 1.75158 0.845581 0
M  V30 3389 C 324.841 2.51337 -2.57879 0
M  V30 3390 C 324.694 1.99508 -4.03134 0
M  V30 3391 C 326.013 3.53463 -2.62205 0
M  V30 3392 H 323.132 0.495617 -0.545466 0
M  V30 3393 H 325.774 0.682732 -1.7731 0
M  V30 3394 H 323.924 3.09691 -2.34571 0
M  V30 3395 H 325.596 1.45789 -4.37656 0
M  V30 3396 H 323.839 1.30496 -4.13707 0
M  V30 3397 H 324.51 2.82169 -4.74431 0
M  V30 3398 H 326.986 3.04953 -2.83095 0
M  V30 3399 H 325.862 4.31178 -3.39672 0
M  V30 3400 H 326.123 4.09197 -1.67363 0
M  V30 3401 N 325.182 1.32811 0.848464 0
M  V30 3402 C 326.13 1.22231 1.97895 0
M  V30 3403 C 327.124 0.125749 1.68933 0
M  V30 3404 O 328.33 0.289083 1.77663 0
M  V30 3405 H 324.705 0.379058 0.649476 0
M  V30 3406 H 326.676 2.17828 2.03945 0
M  V30 3407 C 325.425 0.968572 3.33937 0
M  V30 3408 H 324.748 1.80458 3.56756 0
M  V30 3409 H 326.188 0.934808 4.13567 0
M  V30 3410 C 324.647 -0.328628 3.35293 0
M  V30 3411 O 325.177 -1.33848 3.78745 0
M  V30 3412 N 323.383 -0.352788 2.88451 0
M  V30 3413 H 322.93 0.469541 2.53285 0
M  V30 3414 H 322.888 -1.22057 2.89741 0
M  V30 3415 N 326.66 -1.06551 1.16123 0
M  V30 3416 C 327.909 -1.78687 0.935622 0
M  V30 3417 C 328.222 -1.88056 -0.538001 0
M  V30 3418 O 329.428 -2.56794 -0.88143 0
M  V30 3419 C 327.884 -3.21143 1.62466 0
M  V30 3420 C 327.492 -3.19949 3.13587 0
M  V30 3421 C 329.236 -3.9783 1.48092 0
M  V30 3422 C 327.143 -4.57108 3.75241 0
M  V30 3423 H 326.073 -0.669712 0.346412 0
M  V30 3424 H 328.724 -1.19534 1.39226 0
M  V30 3425 H 327.106 -3.80539 1.09572 0
M  V30 3426 H 328.28 -2.70151 3.73303 0
M  V30 3427 H 326.595 -2.5676 3.27816 0
M  V30 3428 H 329.192 -4.99217 1.91538 0
M  V30 3429 H 329.535 -4.14078 0.429507 0
M  V30 3430 H 330.068 -3.4495 1.98127 0
M  V30 3431 H 326.807 -4.46065 4.80319 0
M  V30 3432 H 326.327 -5.07111 3.20309 0
M  V30 3433 H 328.006 -5.26069 3.76644 0
M  V30 3434 N 328.138 -0.959301 -1.25041 0
M  V30 3435 C 329.385 -0.616611 -1.92884 0
M  V30 3436 C 329.713 0.847036 -1.75087 0
M  V30 3437 O 328.968 1.62374 -1.09239 0
M  V30 3438 C 329.267 -0.927136 -3.45165 0
M  V30 3439 C 328.933 -2.37757 -3.83122 0
M  V30 3440 C 327.595 -2.77402 -3.93194 0
M  V30 3441 C 329.947 -3.31929 -4.01836 0
M  V30 3442 C 327.275 -4.10277 -4.19392 0
M  V30 3443 C 329.627 -4.64423 -4.29528 0
M  V30 3444 C 328.291 -5.03857 -4.37818 0
M  V30 3445 H 327.561 -0.225634 -0.705812 0
M  V30 3446 H 330.208 -1.20921 -1.48493 0
M  V30 3447 H 328.513 -0.252195 -3.90987 0
M  V30 3448 H 330.21 -0.6405 -3.95852 0
M  V30 3449 H 326.8 -2.06013 -3.75841 0
M  V30 3450 H 330.984 -3.02488 -3.93465 0
M  V30 3451 H 326.24 -4.40467 -4.24027 0
M  V30 3452 H 330.414 -5.37369 -4.42953 0
M  V30 3453 H 328.041 -6.06843 -4.57871 0
M  V30 3454 N 329.616 1.39756 -0.72842 0
M  V30 3455 C 330.893 1.94574 -0.200079 0
M  V30 3456 C 331.273 1.66569 1.29684 0
M  V30 3457 O 330.621 0.990326 2.05924 0
M  V30 3458 C 330.831 3.45004 -0.526608 0
M  V30 3459 C 332.179 4.21965 -0.472318 0
M  V30 3460 O 333.203 3.53173 -0.463413 0
M  V30 3461 O 332.062 5.44552 -0.461075 0
M  V30 3462 H 329.156 0.826289 -0.0342851 0
M  V30 3463 H 331.702 1.49293 -0.806829 0
M  V30 3464 H 330.474 3.58796 -1.56144 0
M  V30 3465 H 330.097 3.97449 0.109449 0
M  V30 3466 N 331.094 0.475555 1.50254 0
M  V30 3467 C 332.041 -0.316293 2.28622 0
M  V30 3468 C 333.011 -0.983227 1.33873 0
M  V30 3469 O 334.196 -0.994805 1.62814 0
M  V30 3470 C 331.336 -1.38975 3.1588 0
M  V30 3471 C 330.449 -0.737146 4.25664 0
M  V30 3472 C 329.584 -1.78887 5.00173 0
M  V30 3473 C 328.623 -1.11676 6.01826 0
M  V30 3474 N 327.76 -2.11154 6.69596 0
M  V30 3475 H 332.6 0.358297 2.95838 0
M  V30 3476 H 330.137 0.188541 1.45887 0
M  V30 3477 H 332.095 -2.02383 3.64825 0
M  V30 3478 H 330.725 -2.03344 2.50701 0
M  V30 3479 H 329.777 0.0096065 3.80399 0
M  V30 3480 H 331.089 -0.206816 4.98371 0
M  V30 3481 H 330.243 -2.49865 5.52859 0
M  V30 3482 H 328.982 -2.35302 4.27182 0
M  V30 3483 H 327.987 -0.392633 5.48396 0
M  V30 3484 H 329.212 -0.55945 6.76792 0
M  V30 3485 H 327.158 -2.66577 5.99394 0
M  V30 3486 H 327.075 -1.63118 7.38193 0
M  V30 3487 H 328.343 -2.81497 7.26897 0
M  V30 3488 N 332.573 -1.56217 0.208337 0
M  V30 3489 C 333.801 -2.02337 -0.43215 0
M  V30 3490 C 334.216 -1.08834 -1.54275 0
M  V30 3491 O 333.573 -0.0955462 -1.8225 0
M  V30 3492 C 333.624 -3.48072 -0.976138 0
M  V30 3493 O 333.345 -4.38007 0.0901621 0
M  V30 3494 C 334.846 -4.09773 -1.69119 0
M  V30 3495 H 332.066 -0.662385 -0.10718 0
M  V30 3496 H 334.61 -2.01966 0.320923 0
M  V30 3497 H 332.765 -3.49099 -1.67954 0
M  V30 3498 H 333.179 -5.23543 -0.316701 0
M  V30 3499 H 334.653 -5.13556 -2.02397 0
M  V30 3500 H 335.13 -3.53999 -2.59964 0
M  V30 3501 H 335.736 -4.12556 -1.03332 0
M  V30 3502 N 334.051 0.0651679 -1.57465 0
M  V30 3503 C 335.299 0.761555 -1.87202 0
M  V30 3504 C 335.62 1.77778 -0.801243 0
M  V30 3505 O 334.89 1.95166 0.16937 0
M  V30 3506 H 333.47 0.284251 -0.690804 0
M  V30 3507 H 336.132 0.0396827 -1.9486 0
M  V30 3508 H 335.228 1.27365 -2.84929 0
M  V30 3509 N 335.529 1.53961 0.336706 0
M  V30 3510 C 336.492 1.81724 1.39675 0
M  V30 3511 C 337.492 0.688532 1.45313 0
M  V30 3512 O 338.682 0.956829 1.45569 0
M  V30 3513 C 335.814 1.96543 2.78538 0
M  V30 3514 H 337.007 2.76424 1.16318 0
M  V30 3515 H 334.56 1.45478 0.571474 0
M  V30 3516 H 335.295 1.0401 3.07168 0
M  V30 3517 H 335.08 2.78665 2.75841 0
M  V30 3518 H 336.57 2.19516 3.5525 0
M  V30 3519 N 337.007 -0.598083 1.45811 0
M  V30 3520 C 337.917 -1.73632 1.57763 0
M  V30 3521 C 338.933 -1.67763 0.461676 0
M  V30 3522 O 340.109 -1.87949 0.723685 0
M  V30 3523 C 337.174 -3.10114 1.55018 0
M  V30 3524 C 336.235 -3.27364 2.77726 0
M  V30 3525 C 335.468 -4.57334 2.75102 0
M  V30 3526 O 335.691 -5.40258 1.8297 0
M  V30 3527 O 334.625 -4.77502 3.66437 0
M  V30 3528 H 338.451 -1.66498 2.53992 0
M  V30 3529 H 336.036 -0.763308 1.28429 0
M  V30 3530 H 337.918 -3.9141 1.56129 0
M  V30 3531 H 336.593 -3.17718 0.619431 0
M  V30 3532 H 335.5 -2.45619 2.82174 0
M  V30 3533 H 336.833 -3.24641 3.69958 0
M  V30 3534 N 338.485 -1.33259 -0.841409 0
M  V30 3535 C 339.731 -1.24757 -1.59886 0
M  V30 3536 C 340.064 0.186913 -1.93298 0
M  V30 3537 O 339.339 1.12757 -1.5848 0
M  V30 3538 C 339.622 -2.12036 -2.91055 0
M  V30 3539 C 339.475 -3.63929 -2.6434 0
M  V30 3540 C 340.794 -1.9916 -3.92458 0
M  V30 3541 H 337.913 -0.454542 -0.580138 0
M  V30 3542 H 340.555 -1.63335 -0.970647 0
M  V30 3543 H 338.705 -1.79265 -3.44669 0
M  V30 3544 H 340.377 -4.06978 -2.17178 0
M  V30 3545 H 338.62 -3.85935 -1.98082 0
M  V30 3546 H 339.291 -4.20341 -3.57796 0
M  V30 3547 H 341.767 -2.27895 -3.48143 0
M  V30 3548 H 340.643 -2.62484 -4.82072 0
M  V30 3549 H 340.904 -0.963082 -4.31482 0
M  V30 3550 N 339.963 1.05934 -1.16686 0
M  V30 3551 C 340.91 2.13499 -0.876748 0
M  V30 3552 C 341.88 1.65162 0.176299 0
M  V30 3553 O 343.065 1.90757 0.0407143 0
M  V30 3554 C 340.205 3.42912 -0.387967 0
M  V30 3555 C 339.318 4.04964 -1.50426 0
M  V30 3556 C 338.453 5.22266 -0.970125 0
M  V30 3557 C 337.492 5.76309 -2.06238 0
M  V30 3558 N 336.629 6.84922 -1.54356 0
M  V30 3559 H 341.469 2.37654 -1.7979 0
M  V30 3560 H 339.006 1.16598 -0.896843 0
M  V30 3561 H 340.964 4.17111 -0.086186 0
M  V30 3562 H 339.594 3.18963 0.496235 0
M  V30 3563 H 338.646 3.28277 -1.92193 0
M  V30 3564 H 339.958 4.41122 -2.32836 0
M  V30 3565 H 339.112 6.03506 -0.621743 0
M  V30 3566 H 337.851 4.87564 -0.115377 0
M  V30 3567 H 336.856 4.93704 -2.41942 0
M  V30 3568 H 338.081 6.13062 -2.92115 0
M  V30 3569 H 336.027 6.52131 -0.711406 0
M  V30 3570 H 335.944 7.20043 -2.30379 0
M  V30 3571 H 337.212 7.69832 -1.22387 0
M  V30 3572 N 341.441 0.965919 1.2453 0
M  V30 3573 C 342.857 0.67216 1.44756 0
M  V30 3574 C 343.057 -0.766609 1.86347 0
M  V30 3575 O 342.113 -1.5407 2.00047 0
M  V30 3576 C 343.426 1.65473 2.51076 0
M  V30 3577 C 344.974 1.66716 2.64905 0
M  V30 3578 C 345.449 2.63766 3.74421 0
M  V30 3579 N 346.94 2.62198 3.81846 0
M  V30 3580 C 347.675 3.33966 4.66106 0
M  V30 3581 N 347.171 4.15245 5.54566 0
M  V30 3582 N 348.964 3.22799 4.60171 0
M  V30 3583 H 341.115 1.89553 0.958293 0
M  V30 3584 H 343.378 0.815979 0.482579 0
M  V30 3585 H 343.084 2.68296 2.27399 0
M  V30 3586 H 342.958 1.4261 3.49202 0
M  V30 3587 H 345.345 0.646057 2.87941 0
M  V30 3588 H 345.426 1.93642 1.67142 0
M  V30 3589 H 345.07 3.6601 3.52135 0
M  V30 3590 H 345 2.34121 4.71694 0
M  V30 3591 H 347.491 2.032 3.18619 0
M  V30 3592 H 347.804 4.66898 6.15814 0
M  V30 3593 H 346.149 4.1934 5.54237 0
M  V30 3594 H 349.34 2.58764 3.90075 0
M  V30 3595 H 349.513 3.78994 5.25612 0
M  V30 3596 N 342.919 -1.39368 0.735821 0
M  V30 3597 C 343.851 -2.2913 0.0567723 0
M  V30 3598 C 344.864 -1.46859 -0.702589 0
M  V30 3599 O 346.053 -1.69925 -0.546616 0
M  V30 3600 C 343.153 -3.25492 -0.943823 0
M  V30 3601 C 342.326 -4.36709 -0.24581 0
M  V30 3602 C 341.385 -5.13376 -1.15463 0
M  V30 3603 O 340.411 -5.65683 -0.631803 0
M  V30 3604 N 341.613 -5.24656 -2.48427 0
M  V30 3605 H 344.378 -2.88047 0.827582 0
M  V30 3606 H 341.939 -1.50957 0.585112 0
M  V30 3607 H 343.931 -3.73657 -1.55443 0
M  V30 3608 H 342.501 -2.676 -1.61583 0
M  V30 3609 H 341.721 -3.9041 0.545286 0
M  V30 3610 H 343.009 -5.08244 0.237891 0
M  V30 3611 H 342.407 -4.83679 -2.93379 0
M  V30 3612 H 340.964 -5.76258 -3.04582 0
M  V30 3613 N 344.397 -0.483516 -1.5 0
M  V30 3614 C 345.674 0.129337 -1.95172 0
M  V30 3615 C 346.054 1.55802 -1.4244 0
M  V30 3616 O 345.402 2.19625 -0.630649 0
M  V30 3617 C 345.612 0.0599251 -3.48949 0
M  V30 3618 C 346.96 0.242617 -4.23906 0
M  V30 3619 O 347.984 0.135933 -3.55941 0
M  V30 3620 O 346.843 0.459454 -5.44565 0
M  V30 3621 H 343.937 0.104887 -0.820322 0
M  V30 3622 H 346.483 -0.544807 -1.60717 0
M  V30 3623 H 345.255 -0.937079 -3.79914 0
M  V30 3624 H 344.878 0.774984 -3.89974 0
M  V30 3625 N 345.875 1.56104 -0.216619 0
M  V30 3626 C 347.124 1.97348 0.416744 0
M  V30 3627 C 347.437 1.10715 1.6125 0
M  V30 3628 O 348.643 1.41836 2.31506 0
M  V30 3629 C 347.099 3.51059 0.792835 0
M  V30 3630 C 346.707 4.46387 -0.379828 0
M  V30 3631 C 348.451 4.01026 1.39208 0
M  V30 3632 C 346.358 5.91397 0.0184223 0
M  V30 3633 H 345.288 0.736942 0.159475 0
M  V30 3634 H 347.939 1.80827 -0.31205 0
M  V30 3635 H 346.321 3.63162 1.57891 0
M  V30 3636 H 347.495 4.46029 -1.15737 0
M  V30 3637 H 345.81 4.06734 -0.891979 0
M  V30 3638 H 348.407 5.0686 1.70286 0
M  V30 3639 H 348.75 3.46587 2.30614 0
M  V30 3640 H 349.283 3.92125 0.669537 0
M  V30 3641 H 346.022 6.49807 -0.862002 0
M  V30 3642 H 345.542 5.94961 0.760384 0
M  V30 3643 H 347.221 6.45455 0.446818 0
M  V30 3644 N 347.353 -0.0568162 1.57498 0
M  V30 3645 C 348.263 -1.08346 2.08083 0
M  V30 3646 C 349.279 -1.41439 1.01346 0
M  V30 3647 O 350.455 -1.51316 1.32912 0
M  V30 3648 C 347.52 -2.37352 2.52715 0
M  V30 3649 C 346.581 -2.11093 3.73816 0
M  V30 3650 C 345.814 -3.33949 4.1631 0
M  V30 3651 O 346.037 -4.43622 3.58547 0
M  V30 3652 O 344.971 -3.21279 5.08983 0
M  V30 3653 H 348.797 -0.683667 2.95905 0
M  V30 3654 H 346.382 -0.271965 1.46904 0
M  V30 3655 H 348.264 -3.13246 2.81877 0
M  V30 3656 H 346.939 -2.76681 1.68016 0
M  V30 3657 H 345.846 -1.32856 3.49714 0
M  V30 3658 H 347.179 -1.76637 4.59413 0
M  V30 3659 N 348.832 -1.54138 -0.328536 0
M  V30 3660 C 350.057 -1.76378 -1.09112 0
M  V30 3661 C 350.482 -0.508596 -1.81094 0
M  V30 3662 O 349.84 0.539598 -1.73084 0
M  V30 3663 C 349.888 -2.95358 -2.06872 0
M  V30 3664 O 348.992 -2.66556 -3.14677 0
M  V30 3665 H 348.333 -0.584614 -0.314838 0
M  V30 3666 H 350.863 -2.01146 -0.374348 0
M  V30 3667 H 350.873 -3.22566 -2.4983 0
M  V30 3668 H 349.548 -3.86385 -1.5388 0
M  V30 3669 H 348.125 -2.50282 -2.7643 0
M  V30 3670 N 350.31 0.590341 -1.46126 0
M  V30 3671 C 351.258 1.72105 -1.5647 0
M  V30 3672 C 352.252 1.63756 -0.433612 0
M  V30 3673 O 353.458 1.69342 -0.610194 0
M  V30 3674 H 349.833 0.568889 -0.491802 0
M  V30 3675 H 351.804 1.6051 -2.51553 0
M  V30 3676 C 350.553 3.10493 -1.56491 0
M  V30 3677 H 349.876 3.17583 -2.4286 0
M  V30 3678 H 351.316 3.8939 -1.67785 0
M  V30 3679 C 349.775 3.3563 -0.292231 0
M  V30 3680 O 350.305 3.96875 0.620739 0
M  V30 3681 N 348.511 2.90026 -0.182523 0
M  V30 3682 H 348.058 2.40367 -0.926356 0
M  V30 3683 H 348.016 3.07218 0.668152 0
M  V30 3684 N 351.788 1.33704 0.83433 0
M  V30 3685 C 352.718 1.26967 1.95963 0
M  V30 3686 C 353.699 0.149337 1.69443 0
M  V30 3687 O 354.884 0.339852 1.91203 0
M  V30 3688 C 352.014 1.01275 3.32206 0
M  V30 3689 C 350.968 2.09652 3.73136 0
M  V30 3690 C 350.294 1.69166 5.07235 0
M  V30 3691 C 351.594 3.51372 3.86439 0
M  V30 3692 H 353.288 2.2112 2.01857 0
M  V30 3693 H 350.834 1.06447 0.969793 0
M  V30 3694 H 352.787 0.952106 4.10503 0
M  V30 3695 H 351.511 0.0356203 3.26581 0
M  V30 3696 H 350.17 2.14766 2.97104 0
M  V30 3697 H 349.818 0.701437 4.98085 0
M  V30 3698 H 349.518 2.41694 5.35591 0
M  V30 3699 H 351.042 1.64576 5.88003 0
M  V30 3700 H 352.456 3.48734 4.55036 0
M  V30 3701 H 350.853 4.22425 4.26236 0
M  V30 3702 H 351.923 3.89546 2.88759 0
M  V30 3703 N 353.266 -1.05314 1.17247 0
M  V30 3704 C 354.198 -2.13023 0.845812 0
M  V30 3705 C 355.211 -1.62096 -0.151246 0
M  V30 3706 O 356.4 -1.78343 0.0748818 0
M  V30 3707 C 353.5 -3.38047 0.240292 0
M  V30 3708 C 352.673 -4.18255 1.27991 0
M  V30 3709 C 351.732 -5.21625 0.692375 0
M  V30 3710 O 350.758 -5.52619 1.36385 0
M  V30 3711 N 351.96 -5.78201 -0.516178 0
M  V30 3712 H 354.725 -2.41642 1.77283 0
M  V30 3713 H 352.286 -1.21401 1.07115 0
M  V30 3714 H 354.278 -4.04359 -0.16603 0
M  V30 3715 H 352.848 -3.06972 -0.590487 0
M  V30 3716 H 352.068 -3.47451 1.86203 0
M  V30 3717 H 353.356 -4.68643 1.98119 0
M  V30 3718 H 352.754 -5.55301 -1.07969 0
M  V30 3719 H 351.311 -6.4604 -0.86458 0
M  V30 3720 N 354.744 -0.972509 -1.24016 0
M  V30 3721 C 355.974 -0.653853 -1.9598 0
M  V30 3722 C 356.382 0.781801 -1.72292 0
M  V30 3723 O 355.725 1.53677 -1.00644 0
M  V30 3724 C 355.787 -0.854608 -3.49194 0
M  V30 3725 C 355.451 -2.27082 -3.96589 0
M  V30 3726 C 356.448 -3.24892 -4.05883 0
M  V30 3727 C 354.133 -2.5998 -4.29786 0
M  V30 3728 C 356.127 -4.53684 -4.47716 0
M  V30 3729 C 353.814 -3.88997 -4.71301 0
M  V30 3730 C 354.812 -4.85661 -4.80232 0
M  V30 3731 O 354.5 -6.12376 -5.20818 0
M  V30 3732 H 354.232 -0.242572 -0.630979 0
M  V30 3733 H 356.786 -1.30431 -1.58673 0
M  V30 3734 H 355.016 -0.146985 -3.86421 0
M  V30 3735 H 356.705 -0.534311 -4.02368 0
M  V30 3736 H 357.471 -3.00805 -3.80449 0
M  V30 3737 H 353.35 -1.85457 -4.22051 0
M  V30 3738 H 356.894 -5.29135 -4.54601 0
M  V30 3739 H 352.791 -4.12882 -4.96184 0
M  V30 3740 H 353.559 -6.16013 -5.38953 0
M  V30 3741 N 356.222 1.38976 -0.743202 0
M  V30 3742 C 357.499 1.94351 -0.220705 0
M  V30 3743 C 357.879 1.67935 1.2791 0
M  V30 3744 O 357.227 1.01211 2.04862 0
M  V30 3745 C 357.437 3.44426 -0.563171 0
M  V30 3746 C 358.785 4.2144 -0.517046 0
M  V30 3747 O 359.809 3.52661 -0.500846 0
M  V30 3748 O 358.668 5.44032 -0.518806 0
M  V30 3749 H 355.762 0.825879 -0.043047 0
M  V30 3750 H 358.308 1.48429 -0.822618 0
M  V30 3751 H 357.08 3.5712 -1.59941 0
M  V30 3752 H 356.703 3.97543 0.0672883 0
M  V30 3753 N 357.7 0.491464 1.49741 0
M  V30 3754 C 358.663 -0.280906 2.27472 0
M  V30 3755 C 359.663 -0.902454 1.33088 0
M  V30 3756 O 360.853 -0.768465 1.56334 0
M  V30 3757 C 357.985 -1.40209 3.10732 0
M  V30 3758 H 359.178 0.401056 2.97206 0
M  V30 3759 H 356.731 0.246131 1.5435 0
M  V30 3760 H 357.466 -2.11849 2.45541 0
M  V30 3761 H 357.251 -0.961969 3.80117 0
M  V30 3762 H 358.741 -1.9464 3.69466 0
M  V30 3763 N 359.178 -1.55987 0.224894 0
M  V30 3764 C 360.426 -1.97998 -0.405099 0
M  V30 3765 C 360.747 -1.11387 -1.60056 0
M  V30 3766 O 360.017 -0.191645 -1.9496 0
M  V30 3767 H 358.597 -0.731235 -0.152658 0
M  V30 3768 H 361.259 -1.92279 0.318567 0
M  V30 3769 H 360.355 -3.03463 -0.729167 0
M  V30 3770 N 360.656 0.0484629 -1.57525 0
M  V30 3771 C 361.933 0.777447 -1.79486 0
M  V30 3772 C 362.313 1.94597 -0.818251 0
M  V30 3773 O 361.661 2.28047 0.143767 0
M  V30 3774 C 361.871 1.22864 -3.26658 0
M  V30 3775 C 363.219 1.65251 -3.91123 0
M  V30 3776 O 364.243 1.32372 -3.3069 0
M  V30 3777 O 363.102 2.26207 -4.97486 0
M  V30 3778 H 360.196 0.374357 -0.737419 0
M  V30 3779 H 362.742 0.0267359 -1.69679 0
M  V30 3780 H 361.514 0.393589 -3.89316 0
M  V30 3781 H 361.137 2.03996 -3.41279 0
M  V30 3782 N 362.134 1.5431 0.320358 0
M  V30 3783 C 363.081 1.83918 1.39438 0
M  V30 3784 C 364.051 0.686525 1.51248 0
M  V30 3785 O 365.236 0.933269 1.66417 0
M  V30 3786 C 362.376 2.075 2.75749 0
M  V30 3787 C 361.489 3.35177 2.72544 0
M  V30 3788 C 360.624 3.48704 4.00723 0
M  V30 3789 C 359.663 4.70244 3.91838 0
M  V30 3790 N 358.8 4.80679 5.11754 0
M  V30 3791 H 363.64 2.75544 1.13489 0
M  V30 3792 H 361.177 1.36459 0.549309 0
M  V30 3793 H 363.135 2.19166 3.54996 0
M  V30 3794 H 361.765 1.19163 3 0
M  V30 3795 H 360.817 3.32233 1.85271 0
M  V30 3796 H 362.129 4.24534 2.61863 0
M  V30 3797 H 361.283 3.59928 4.88402 0
M  V30 3798 H 360.022 2.57445 4.14214 0
M  V30 3799 H 359.027 4.59072 3.02544 0
M  V30 3800 H 360.252 5.6289 3.7991 0
M  V30 3801 H 358.198 3.92337 5.25745 0
M  V30 3802 H 358.115 5.64007 5.0342 0
M  V30 3803 H 359.383 4.96239 6.01138 0
M  V30 3804 N 363.613 -0.582584 1.46437 0
M  V30 3805 C 364.861 -1.33814 1.51453 0
M  V30 3806 C 365.182 -1.94277 0.167792 0
M  V30 3807 O 364.452 -1.78566 -0.805677 0
M  V30 3808 H 363.032 -0.496838 0.557818 0
M  V30 3809 H 365.694 -0.682281 1.82568 0
M  V30 3810 H 364.79 -2.14479 2.26728 0
M  V30 3811 N 365.091 -1.34144 -0.827227 0
M  V30 3812 C 366.34 -1.25602 -1.5782 0
M  V30 3813 C 366.653 0.173445 -1.94829 0
M  V30 3814 O 367.859 0.380984 -2.68814 0
M  V30 3815 C 366.315 -2.20151 -2.84713 0
M  V30 3816 C 365.923 -3.68331 -2.55021 0
M  V30 3817 C 367.667 -2.20508 -3.62735 0
M  V30 3818 C 365.574 -4.54762 -3.78082 0
M  V30 3819 H 364.504 -0.466573 -0.592306 0
M  V30 3820 H 367.155 -1.59283 -0.911116 0
M  V30 3821 H 365.537 -1.79417 -3.53023 0
M  V30 3822 H 366.711 -4.17577 -1.94849 0
M  V30 3823 H 365.026 -3.7038 -1.90283 0
M  V30 3824 H 367.623 -2.82306 -4.54101 0
M  V30 3825 H 367.966 -1.20322 -3.98533 0
M  V30 3826 H 368.499 -2.59664 -3.01362 0
M  V30 3827 H 365.238 -5.55867 -3.47407 0
M  V30 3828 H 364.758 -4.10254 -4.37552 0
M  V30 3829 H 366.437 -4.69153 -4.45538 0
M  V30 3830 N 366.569 1.04691 -1.17803 0
M  V30 3831 C 367.799 1.81183 -0.992788 0
M  V30 3832 C 368.207 1.8347 0.462098 0
M  V30 3833 O 367.55 1.2643 1.33271 0
M  V30 3834 C 367.612 3.28363 -1.46349 0
M  V30 3835 C 367.276 3.49749 -2.94151 0
M  V30 3836 C 368.273 3.41456 -3.92051 0
M  V30 3837 C 365.958 3.76548 -3.32441 0
M  V30 3838 C 367.952 3.59656 -5.26238 0
M  V30 3839 C 365.639 3.94396 -4.66792 0
M  V30 3840 C 366.637 3.8595 -5.635 0
M  V30 3841 O 366.325 4.03294 -6.9542 0
M  V30 3842 H 366.057 0.577622 -0.351182 0
M  V30 3843 H 368.611 1.32876 -1.5663 0
M  V30 3844 H 366.841 3.77609 -0.833574 0
M  V30 3845 H 368.53 3.86395 -1.24313 0
M  V30 3846 H 369.296 3.20723 -3.63815 0
M  V30 3847 H 365.175 3.82224 -2.57732 0
M  V30 3848 H 368.719 3.52979 -6.01707 0
M  V30 3849 H 364.616 4.14622 -4.94731 0
M  V30 3850 H 365.384 4.2049 -7.02232 0
M  V30 3851 N 368.047 0.979072 1.23499 0
M  V30 3852 C 369.463 0.687475 1.44034 0
M  V30 3853 C 369.663 -0.746801 1.8715 0
M  V30 3854 O 368.719 -1.51939 2.0167 0
M  V30 3855 C 370.032 1.68127 2.49307 0
M  V30 3856 C 371.58 1.69516 2.63122 0
M  V30 3857 C 372.055 2.67723 3.71603 0
M  V30 3858 N 373.546 2.66233 3.79044 0
M  V30 3859 C 374.281 3.38891 4.62537 0
M  V30 3860 N 373.777 4.21103 5.50131 0
M  V30 3861 N 375.57 3.27661 4.56721 0
M  V30 3862 H 367.721 1.90559 0.938135 0
M  V30 3863 H 369.984 0.821051 0.473897 0
M  V30 3864 H 369.69 2.70693 2.2454 0
M  V30 3865 H 369.564 1.46306 3.4767 0
M  V30 3866 H 371.951 0.676561 2.8724 0
M  V30 3867 H 372.032 1.95404 1.65079 0
M  V30 3868 H 371.676 3.69724 3.48233 0
M  V30 3869 H 371.606 2.39111 4.69184 0
M  V30 3870 H 374.097 2.06568 3.16446 0
M  V30 3871 H 374.41 4.73403 6.10827 0
M  V30 3872 H 372.755 4.25195 5.49759 0
M  V30 3873 H 375.946 2.62887 3.87309 0
M  V30 3874 H 376.119 3.84547 5.21562 0
M  V30 3875 N 369.525 -1.3858 0.750561 0
M  V30 3876 C 370.475 -2.27795 0.0965949 0
M  V30 3877 C 371.459 -1.45048 -0.696411 0
M  V30 3878 O 372.651 -1.67812 -0.562863 0
M  V30 3879 C 369.78 -3.33894 -0.798085 0
M  V30 3880 C 368.866 -4.241 0.0016067 0
M  V30 3881 N 369.257 -4.95067 1.03647 0
M  V30 3882 C 367.555 -4.45429 -0.225674 0
M  V30 3883 C 368.256 -5.61489 1.52004 0
M  V30 3884 N 367.232 -5.37135 0.835874 0
M  V30 3885 H 371.034 -2.80125 0.889228 0
M  V30 3886 H 368.548 -1.51446 0.586323 0
M  V30 3887 H 370.545 -3.96693 -1.28219 0
M  V30 3888 H 369.205 -2.83123 -1.5897 0
M  V30 3889 H 370.216 -4.98104 1.41819 0
M  V30 3890 H 366.893 -4.05571 -0.990872 0
M  V30 3891 H 368.283 -6.28264 2.38188 0
M  V30 3892 N 371.003 -0.499398 -1.49478 0
M  V30 3893 C 372.233 0.0424839 -2.06556 0
M  V30 3894 C 372.641 1.31514 -1.36018 0
M  V30 3895 O 371.984 1.78555 -0.431718 0
M  V30 3896 C 372.046 0.368074 -3.57611 0
M  V30 3897 C 371.71 -0.806631 -4.49825 0
M  V30 3898 C 372.707 -1.69667 -4.91436 0
M  V30 3899 C 370.392 -1.00498 -4.92144 0
M  V30 3900 C 372.386 -2.76923 -5.74101 0
M  V30 3901 C 370.073 -2.08072 -5.74586 0
M  V30 3902 C 371.071 -2.96119 -6.15469 0
M  V30 3903 O 370.759 -4.01836 -6.96264 0
M  V30 3904 H 370.491 -0.0165165 -0.675798 0
M  V30 3905 H 373.045 -0.695497 -1.93267 0
M  V30 3906 H 371.275 1.15963 -3.68903 0
M  V30 3907 H 372.964 0.848381 -3.96935 0
M  V30 3908 H 373.73 -1.55524 -4.59388 0
M  V30 3909 H 369.609 -0.329036 -4.59824 0
M  V30 3910 H 373.153 -3.45676 -6.05932 0
M  V30 3911 H 369.05 -2.22211 -6.06047 0
M  V30 3912 H 369.818 -3.9917 -7.14567 0
M  V30 3913 N 372.481 1.55866 -0.233164 0
M  V30 3914 C 373.414 2.16794 0.712442 0
M  V30 3915 C 374.392 1.1158 1.18273 0
M  V30 3916 O 375.576 1.39897 1.26337 0
M  V30 3917 C 372.703 2.75757 1.96661 0
M  V30 3918 C 371.749 3.93902 1.63533 0
M  V30 3919 S 372.582 5.30223 0.74995 0
M  V30 3920 C 373.738 5.92631 2.01343 0
M  V30 3921 H 373.971 2.96662 0.194617 0
M  V30 3922 H 371.504 1.5439 -0.0177425 0
M  V30 3923 H 373.462 3.10367 2.68668 0
M  V30 3924 H 372.123 1.9586 2.45556 0
M  V30 3925 H 371.316 4.33702 2.56747 0
M  V30 3926 H 370.918 3.60499 0.995804 0
M  V30 3927 H 373.21 6.09312 2.96219 0
M  V30 3928 H 374.153 6.88388 1.65915 0
M  V30 3929 H 374.561 5.21571 2.15925 0
M  V30 3930 N 373.959 -0.0401083 1.57549 0
M  V30 3931 C 374.891 -1.07149 2.02612 0
M  V30 3932 C 375.904 -1.33126 0.937085 0
M  V30 3933 O 377.093 -1.30808 1.21456 0
M  V30 3934 C 374.193 -2.41561 2.37701 0
M  V30 3935 C 373.366 -2.35096 3.68848 0
M  V30 3936 C 372.425 -3.51867 3.91249 0
M  V30 3937 O 371.451 -3.3186 4.62447 0
M  V30 3938 N 372.653 -4.73351 3.36035 0
M  V30 3939 H 375.418 -0.687485 2.91708 0
M  V30 3940 H 372.979 -0.228248 1.60283 0
M  V30 3941 H 374.971 -3.18379 2.49833 0
M  V30 3942 H 373.541 -2.71846 1.54332 0
M  V30 3943 H 372.761 -1.4345 3.67173 0
M  V30 3944 H 374.049 -2.27908 4.54901 0
M  V30 3945 H 373.447 -4.92507 2.78304 0
M  V30 3946 H 372.004 -5.47572 3.53565 0
M  V30 3947 N 375.437 -1.54477 -0.31217 0
M  V30 3948 C 376.384 -1.84655 -1.38461 0
M  V30 3949 C 377.354 -0.694536 -1.50882 0
M  V30 3950 O 378.539 -0.942081 -1.6592 0
M  V30 3951 C 375.679 -2.0896 -2.74645 0
M  V30 3952 C 374.792 -3.36618 -2.70763 0
M  V30 3953 C 373.927 -3.50824 -3.98868 0
M  V30 3954 C 372.966 -4.72315 -3.89339 0
M  V30 3955 N 372.103 -4.83387 -5.09197 0
M  V30 3956 H 376.943 -2.76142 -1.12026 0
M  V30 3957 H 374.48 -1.36748 -0.542065 0
M  V30 3958 H 376.438 -2.21045 -3.53829 0
M  V30 3959 H 375.068 -1.20752 -2.99364 0
M  V30 3960 H 374.12 -3.33211 -1.83506 0
M  V30 3961 H 375.432 -4.25917 -2.59608 0
M  V30 3962 H 374.586 -3.62513 -4.86486 0
M  V30 3963 H 373.325 -2.59638 -4.12843 0
M  V30 3964 H 372.33 -4.6067 -3.00105 0
M  V30 3965 H 373.555 -5.64897 -3.76919 0
M  V30 3966 H 371.501 -3.9512 -5.23657 0
M  V30 3967 H 371.418 -5.66669 -5.00422 0
M  V30 3968 H 372.686 -4.9942 -5.98498 0
M  V30 3969 N 376.915 0.57481 -1.46744 0
M  V30 3970 C 377.825 1.711 -1.60505 0
M  V30 3971 C 378.841 1.67008 -0.488307 0
M  V30 3972 O 380.017 1.86774 -0.753495 0
M  V30 3973 C 377.082 3.07608 -1.59932 0
M  V30 3974 C 376.143 3.22904 -2.82898 0
M  V30 3975 C 375.376 4.529 -2.82343 0
M  V30 3976 O 375.599 5.37278 -1.91542 0
M  V30 3977 O 374.533 4.71611 -3.73987 0
M  V30 3978 H 378.359 1.62436 -2.56609 0
M  V30 3979 H 375.944 0.742779 -1.29627 0
M  V30 3980 H 377.826 3.88877 -1.62336 0
M  V30 3981 H 376.501 3.16692 -0.669898 0
M  V30 3982 H 375.408 2.41099 -2.86046 0
M  V30 3983 H 376.741 3.18715 -3.75076 0
M  V30 3984 N 378.394 1.34581 0.820102 0
M  V30 3985 C 379.643 1.26437 1.57151 0
M  V30 3986 C 379.956 -0.163111 1.94919 0
M  V30 3987 O 381.162 -0.366722 2.69012 0
M  V30 3988 C 379.618 2.21658 2.83541 0
M  V30 3989 C 379.226 3.69679 2.53065 0
M  V30 3990 C 380.97 2.22428 3.61561 0
M  V30 3991 C 378.877 4.56761 3.75664 0
M  V30 3992 H 377.807 0.469707 0.589823 0
M  V30 3993 H 380.458 1.59763 0.902656 0
M  V30 3994 H 378.84 1.81287 3.52067 0
M  V30 3995 H 380.014 4.18605 1.92631 0
M  V30 3996 H 378.329 3.71384 1.88316 0
M  V30 3997 H 380.926 2.8471 4.52597 0
M  V30 3998 H 381.269 1.22434 3.97889 0
M  V30 3999 H 381.802 2.61259 2.99981 0
M  V30 4000 H 378.541 5.57702 3.44454 0
M  V30 4001 H 378.061 4.12568 4.35371 0
M  V30 4002 H 379.74 4.71509 4.43044 0
M  V30 4003 N 379.872 -1.04064 1.18357 0
M  V30 4004 C 381.102 -1.80654 1.00238 0
M  V30 4005 C 381.51 -1.83713 -0.452362 0
M  V30 4006 O 380.853 -1.27135 -1.32599 0
M  V30 4007 C 380.915 -3.27582 1.48088 0
M  V30 4008 C 380.579 -3.48184 2.96002 0
M  V30 4009 C 381.576 -3.39372 3.93856 0
M  V30 4010 C 379.261 -3.7478 3.34433 0
M  V30 4011 C 381.255 -3.5686 5.28138 0
M  V30 4012 C 378.942 -3.91915 4.68877 0
M  V30 4013 C 379.94 -3.82956 5.65539 0
M  V30 4014 O 379.628 -3.996 6.97549 0
M  V30 4015 H 379.36 -0.575751 0.354241 0
M  V30 4016 H 381.914 -1.32044 1.57333 0
M  V30 4017 H 380.144 -3.77161 0.853588 0
M  V30 4018 H 381.833 -3.8573 1.2636 0
M  V30 4019 H 382.599 -3.18789 3.65511 0
M  V30 4020 H 378.478 -3.80852 2.59756 0
M  V30 4021 H 382.022 -3.49783 6.03571 0
M  V30 4022 H 377.919 -4.11992 4.96923 0
M  V30 4023 H 378.687 -4.1676 7.04452 0
M  V30 4024 N 381.35 -0.985608 -1.22978 0
M  V30 4025 C 382.26 -0.538548 -2.28335 0
M  V30 4026 C 383.276 0.409163 -1.69121 0
M  V30 4027 O 384.452 0.277797 -1.99475 0
M  V30 4028 C 381.517 0.146867 -3.46389 0
M  V30 4029 C 380.578 -0.842896 -4.20944 0
M  V30 4030 C 379.811 -0.190095 -5.33361 0
M  V30 4031 O 380.034 1.01767 -5.61248 0
M  V30 4032 O 378.968 -0.891289 -5.95264 0
M  V30 4033 H 382.794 -1.41487 -2.68729 0
M  V30 4034 H 380.379 -0.753495 -1.29007 0
M  V30 4035 H 382.261 0.531125 -4.1804 0
M  V30 4036 H 380.936 0.997871 -3.07935 0
M  V30 4037 H 379.843 -1.27795 -3.51595 0
M  V30 4038 H 381.176 -1.66287 -4.6326 0
M  V30 4039 N 382.828 1.3818 -0.7579 0
M  V30 4040 C 383.76 2.2901 -0.0932177 0
M  V30 4041 C 384.773 1.47958 0.679136 0
M  V30 4042 O 385.962 1.70773 0.519514 0
M  V30 4043 C 383.062 3.26953 0.89192 0
M  V30 4044 C 382.235 4.37045 0.176303 0
M  V30 4045 C 381.294 5.15148 1.07281 0
M  V30 4046 O 380.32 5.66616 0.541728 0
M  V30 4047 N 381.522 5.28542 2.40049 0
M  V30 4048 H 384.287 2.86694 -0.873303 0
M  V30 4049 H 381.848 1.50007 -0.609054 0
M  V30 4050 H 383.84 3.76083 1.49479 0
M  V30 4051 H 382.41 2.70136 1.57306 0
M  V30 4052 H 381.63 3.89493 -0.607328 0
M  V30 4053 H 382.918 5.07801 -0.318718 0
M  V30 4054 H 382.316 4.88285 2.85647 0
M  V30 4055 H 380.873 5.8103 2.95376 0
M  V30 4056 N 384.306 0.507319 1.49211 0
M  V30 4057 C 385.717 0.0611118 1.866 0
M  V30 4058 C 386.068 -1.35488 1.41907 0
M  V30 4059 O 385.193 -2.0108 0.799726 0
M  V30 4060 C 385.788 0.104125 3.3864 0
M  V30 4061 C 384.347 -0.28677 3.75306 0
M  V30 4062 C 383.494 0.473893 2.73221 0
M  V30 4063 H 386.445 0.719775 1.41439 0
M  V30 4064 H 386.466 -0.689672 3.74198 0
M  V30 4065 H 385.978 1.13482 3.71138 0
M  V30 4066 H 384.079 -1.32046 3.48417 0
M  V30 4067 H 384.192 0.0370745 4.79086 0
M  V30 4068 H 382.556 -0.0770644 2.54583 0
M  V30 4069 H 383.339 1.50478 3.08563 0
M  V30 4070 N 385.784 -1.5574 0.241426 0
M  V30 4071 C 386.732 -2.22538 -0.676718 0
M  V30 4072 C 387.726 -1.21117 -1.18436 0
M  V30 4073 O 388.932 -1.39144 -1.14188 0
M  V30 4074 H 385.307 -0.713776 -0.236701 0
M  V30 4075 H 387.278 -2.98264 -0.0901187 0
M  V30 4076 C 386.027 -2.93439 -1.86518 0
M  V30 4077 H 385.35 -3.7125 -1.4837 0
M  V30 4078 H 386.79 -3.43549 -2.48495 0
M  V30 4079 C 385.249 -1.97008 -2.73294 0
M  V30 4080 O 385.779 -1.49965 -3.72657 0
M  V30 4081 N 383.985 -1.64227 -2.39745 0
M  V30 4082 H 383.532 -2.02677 -1.58996 0
M  V30 4083 H 383.49 -0.999708 -2.98083 0
M  V30 4084 N 387.262 0.0317525 -1.57568 0
M  V30 4085 C 388.225 1.01783 -2.0536 0
M  V30 4086 C 389.225 1.29203 -0.957253 0
M  V30 4087 O 390.415 1.24251 -1.22095 0
M  V30 4088 C 387.547 2.35137 -2.46827 0
M  V30 4089 H 388.74 0.605062 -2.93733 0
M  V30 4090 H 386.293 0.278514 -1.53799 0
M  V30 4091 H 387.028 2.81168 -1.61602 0
M  V30 4092 H 386.813 2.16566 -3.26866 0
M  V30 4093 H 388.303 3.05938 -2.84239 0
M  V30 4094 N 388.74 1.54641 0.303973 0
M  V30 4095 C 389.989 1.7299 1.03717 0
M  V30 4096 C 390.302 0.521168 1.88529 0
M  V30 4097 O 391.508 0.586408 2.65092 0
M  V30 4098 C 389.964 3.06051 1.89369 0
M  V30 4099 C 389.572 4.34393 1.09574 0
M  V30 4100 C 391.316 3.3376 2.62306 0
M  V30 4101 C 389.223 5.58506 1.94486 0
M  V30 4102 H 388.153 0.64473 0.390947 0
M  V30 4103 H 390.804 1.81124 0.294328 0
M  V30 4104 H 389.186 2.91874 2.67629 0
M  V30 4105 H 390.36 4.59396 0.359485 0
M  V30 4106 H 388.675 4.13597 0.482324 0
M  V30 4107 H 391.272 4.23687 3.26181 0
M  V30 4108 H 391.615 2.52503 3.3098 0
M  V30 4109 H 392.148 3.48894 1.91097 0
M  V30 4110 H 388.887 6.42422 1.30287 0
M  V30 4111 H 388.407 5.37694 2.65792 0
M  V30 4112 H 390.086 5.95651 2.52605 0
M  V30 4113 N 390.218 -0.567019 1.47046 0
M  V30 4114 C 391.165 -1.67489 1.58796 0
M  V30 4115 C 392.135 -1.60399 0.43144 0
M  V30 4116 O 393.32 -1.79378 0.650233 0
M  V30 4117 C 390.46 -3.05821 1.59899 0
M  V30 4118 C 389.573 -3.2342 2.86397 0
M  V30 4119 C 388.708 -4.52093 2.789 0
M  V30 4120 C 387.747 -4.6309 4.00267 0
M  V30 4121 N 386.884 -5.83106 3.91064 0
M  V30 4122 H 391.724 -1.56785 2.53422 0
M  V30 4123 H 389.261 -0.763896 1.2571 0
M  V30 4124 H 391.219 -3.8591 1.58522 0
M  V30 4125 H 389.849 -3.15384 0.687929 0
M  V30 4126 H 388.901 -2.3683 2.97684 0
M  V30 4127 H 390.213 -3.27412 3.76301 0
M  V30 4128 H 389.367 -5.4043 2.75718 0
M  V30 4129 H 388.106 -4.50565 1.86662 0
M  V30 4130 H 387.111 -3.73168 4.03765 0
M  V30 4131 H 388.336 -4.66386 4.93621 0
M  V30 4132 H 386.282 -5.82546 3.01623 0
M  V30 4133 H 386.199 -5.88434 4.74638 0
M  V30 4134 H 387.467 -6.73831 3.91882 0
M  V30 4135 N 391.696 -1.35014 -0.812953 0
M  V30 4136 C 392.644 -1.27435 -1.94585 0
M  V30 4137 C 393.638 -0.170494 -1.6854 0
M  V30 4138 O 394.844 -0.336085 -1.76835 0
M  V30 4139 H 391.219 -0.396144 -0.639198 0
M  V30 4140 H 393.19 -2.23158 -1.98098 0
M  V30 4141 C 391.939 -1.05677 -3.31252 0
M  V30 4142 H 391.262 -1.89853 -3.51846 0
M  V30 4143 H 392.702 -1.04413 -4.10943 0
M  V30 4144 C 391.161 0.239615 -3.36047 0
M  V30 4145 O 391.691 1.23759 -3.8216 0
M  V30 4146 N 389.897 0.276186 -2.89285 0
M  V30 4147 H 389.444 -0.53653 -2.51951 0
M  V30 4148 H 389.402 1.14332 -2.92875 0
M  V30 4149 N 393.175 1.03435 -1.18907 0
M  V30 4150 C 394.403 1.80381 -1.01342 0
M  V30 4151 C 394.818 1.83649 0.438005 0
M  V30 4152 O 394.175 1.27655 1.30424 0
M  V30 4153 C 394.226 3.25689 -1.56873 0
M  V30 4154 O 393.947 3.22673 -2.96334 0
M  V30 4155 C 395.448 4.19255 -1.44014 0
M  V30 4156 H 392.668 0.56784 -0.35749 0
M  V30 4157 H 395.212 1.30317 -1.576 0
M  V30 4158 H 393.367 3.72962 -1.04777 0
M  V30 4159 H 393.781 4.13748 -3.22355 0
M  V30 4160 H 395.255 5.19123 -1.87657 0
M  V30 4161 H 395.732 4.37467 -0.389815 0
M  V30 4162 H 396.338 3.77851 -1.95214 0
M  V30 4163 N 394.653 0.992116 1.22453 0
M  V30 4164 C 395.583 0.561677 2.26644 0
M  V30 4165 C 396.564 -0.411055 1.65059 0
M  V30 4166 O 397.749 -0.301861 1.9184 0
M  V30 4167 C 394.879 -0.125247 3.47074 0
M  V30 4168 C 393.833 0.765948 4.21091 0
M  V30 4169 C 393.159 -0.0538484 5.34673 0
M  V30 4170 C 394.459 2.06242 4.79856 0
M  V30 4171 H 396.153 1.43259 2.62902 0
M  V30 4172 H 393.699 0.690283 1.26377 0
M  V30 4173 H 395.652 -0.437764 4.1912 0
M  V30 4174 H 394.376 -1.03069 3.0991 0
M  V30 4175 H 393.035 1.0621 3.50878 0
M  V30 4176 H 392.683 -0.960188 4.9375 0
M  V30 4177 H 392.383 0.539415 5.85119 0
M  V30 4178 H 393.907 -0.360477 6.09535 0
M  V30 4179 H 395.321 1.8139 5.43848 0
M  V30 4180 H 393.718 2.60444 5.40638 0
M  V30 4181 H 394.788 2.74167 3.99951 0
M  V30 4182 N 396.131 -1.37776 0.765217 0
M  V30 4183 C 397.359 -2.04124 0.337767 0
M  V30 4184 C 397.774 -1.57715 -1.03785 0
M  V30 4185 O 397.131 -0.755447 -1.6613 0
M  V30 4186 C 397.182 -3.59658 0.364442 0
M  V30 4187 O 396.903 -4.04367 1.68579 0
M  V30 4188 C 398.404 -4.43236 -0.0754221 0
M  V30 4189 H 395.624 -0.655696 0.142491 0
M  V30 4190 H 398.168 -1.76238 1.03732 0
M  V30 4191 H 396.323 -3.86339 -0.286471 0
M  V30 4192 H 396.737 -4.98857 1.61993 0
M  V30 4193 H 398.211 -5.52 -0.00560067 0
M  V30 4194 H 398.688 -4.2455 -1.12491 0
M  V30 4195 H 399.294 -4.21767 0.547055 0
M  V30 4196 N 397.609 -0.515225 -1.4894 0
M  V30 4197 C 398.857 0.0241671 -2.02086 0
M  V30 4198 C 399.178 1.3616 -1.3959 0
M  V30 4199 O 398.448 1.87841 -0.556121 0
M  V30 4200 H 397.028 0.0119203 -0.746905 0
M  V30 4201 H 399.69 -0.675702 -1.82812 0
M  V30 4202 H 398.786 0.143385 -3.1177 0
M  V30 4203 N 399.087 1.5561 -0.249682 0
M  V30 4204 C 400.503 1.59254 0.105103 0
M  V30 4205 C 400.703 1.26685 1.56694 0
M  V30 4206 O 399.759 1.0155 2.31179 0
M  V30 4207 C 401.072 2.99687 -0.246592 0
M  V30 4208 C 402.62 3.12416 -0.191118 0
M  V30 4209 C 403.095 4.55074 -0.516885 0
M  V30 4210 N 404.586 4.60835 -0.467489 0
M  V30 4211 C 405.321 5.69201 -0.69268 0
M  V30 4212 N 404.817 6.85817 -0.981146 0
M  V30 4213 N 406.61 5.58635 -0.623198 0
M  V30 4214 H 398.761 1.75049 -1.20298 0
M  V30 4215 H 401.024 0.815003 -0.484225 0
M  V30 4216 H 400.73 3.28267 -1.26228 0
M  V30 4217 H 400.604 3.74798 0.424962 0
M  V30 4218 H 402.991 2.83615 0.815247 0
M  V30 4219 H 403.072 2.39573 -0.896563 0
M  V30 4220 H 402.716 4.84596 -1.52082 0
M  V30 4221 H 402.646 5.26181 0.210068 0
M  V30 4222 H 405.137 3.7705 -0.253373 0
M  V30 4223 H 405.45 7.64341 -1.14032 0
M  V30 4224 H 403.795 6.87494 -1.01865 0
M  V30 4225 H 406.986 4.66406 -0.397863 0
M  V30 4226 H 407.159 6.43017 -0.802093 0
M  V30 4227 N 400.565 -0.0233959 1.57583 0
M  V30 4228 C 401.814 -0.712133 1.8871 0
M  V30 4229 C 402.127 -1.76217 0.848944 0
M  V30 4230 O 403.333 -2.50389 1.04964 0
M  V30 4231 C 401.789 -1.3177 3.3491 0
M  V30 4232 C 401.397 -0.303715 4.46969 0
M  V30 4233 C 403.141 -1.98598 3.75179 0
M  V30 4234 C 401.048 -0.917945 5.84233 0
M  V30 4235 H 399.978 -0.269735 0.704101 0
M  V30 4236 H 402.629 0.0333114 1.8347 0
M  V30 4237 H 401.011 -2.11304 3.34913 0
M  V30 4238 H 402.185 0.465325 4.58445 0
M  V30 4239 H 400.5 0.2628 4.1557 0
M  V30 4240 H 403.097 -2.45416 4.75053 0
M  V30 4241 H 403.44 -2.80659 3.07468 0
M  V30 4242 H 403.973 -1.25831 3.77374 0
M  V30 4243 H 400.712 -0.136633 6.55358 0
M  V30 4244 H 400.232 -1.65669 5.76467 0
M  V30 4245 H 401.911 -1.4236 6.31144 0
M  V30 4246 N 402.043 -1.548 -0.295768 0
M  V30 4247 C 403.268 -1.78653 -1.05346 0
M  V30 4248 C 403.693 -0.546894 -1.79974 0
M  V30 4249 O 403.051 0.502763 -1.7419 0
M  V30 4250 C 403.099 -2.99679 -2.00561 0
M  V30 4251 O 402.203 -2.7317 -3.08953 0
M  V30 4252 H 401.544 -0.59116 -0.302367 0
M  V30 4253 H 404.074 -2.01895 -0.331598 0
M  V30 4254 H 404.084 -3.27793 -2.42932 0
M  V30 4255 H 402.759 -3.89562 -1.4565 0
M  V30 4256 H 401.336 -2.56089 -2.71059 0
M  V30 4257 N 403.521 0.559213 -1.47345 0
M  V30 4258 C 404.471 1.66192 -1.5609 0
M  V30 4259 C 405.455 1.55323 -0.419957 0
M  V30 4260 O 406.647 1.63839 -0.669762 0
M  V30 4261 C 403.776 3.0497 -1.57634 0
M  V30 4262 C 402.862 3.2105 -2.77106 0
M  V30 4263 N 403.253 3.07203 -4.01821 0
M  V30 4264 C 401.551 3.52046 -2.73825 0
M  V30 4265 C 402.252 3.25919 -4.81821 0
M  V30 4266 N 401.228 3.52161 -4.14106 0
M  V30 4267 H 405.03 1.54052 -2.5029 0
M  V30 4268 H 402.544 0.763914 -1.43311 0
M  V30 4269 H 404.541 3.84142 -1.61989 0
M  V30 4270 H 403.201 3.18224 -0.645281 0
M  V30 4271 H 404.212 2.84572 -4.32711 0
M  V30 4272 H 400.889 3.71839 -1.89848 0
M  V30 4273 H 402.279 3.20198 -5.90697 0
M  V30 4274 N 404.999 1.35443 0.805782 0
M  V30 4275 C 406.247 1.28507 1.55982 0
M  V30 4276 C 406.568 -0.140046 1.94496 0
M  V30 4277 O 405.838 -1.07666 1.63661 0
M  V30 4278 H 404.418 0.472676 0.578434 0
M  V30 4279 H 407.08 1.69555 0.961098 0
M  V30 4280 H 406.176 1.90148 2.47488 0
M  V30 4281 N 406.477 -1.02803 1.19454 0
M  V30 4282 C 407.409 -2.11181 0.890807 0
M  V30 4283 C 408.422 -1.6238 -0.116829 0
M  V30 4284 O 409.611 -1.78144 0.112694 0
M  V30 4285 C 406.711 -3.37461 0.311942 0
M  V30 4286 C 405.884 -4.15446 1.36834 0
M  V30 4287 C 404.943 -5.20039 0.802864 0
M  V30 4288 O 403.969 -5.49602 1.48077 0
M  V30 4289 N 405.171 -5.79165 -0.393417 0
M  V30 4290 H 407.936 -2.37827 1.82369 0
M  V30 4291 H 405.497 -1.19101 1.09666 0
M  V30 4292 H 407.489 -4.0462 -0.0802225 0
M  V30 4293 H 406.059 -3.08156 -0.52524 0
M  V30 4294 H 405.279 -3.43423 1.93531 0
M  V30 4295 H 406.567 -4.64335 2.08015 0
M  V30 4296 H 405.965 -5.57466 -0.961658 0
M  V30 4297 H 404.522 -6.47729 -0.727351 0
M  V30 4298 N 407.956 -0.998596 -1.21925 0
M  V30 4299 C 409.202 -0.678667 -1.91107 0
M  V30 4300 C 409.535 0.78791 -1.77498 0
M  V30 4301 O 408.81 1.57043 -1.1475 0
M  V30 4302 C 409.093 -1.09245 -3.43129 0
M  V30 4303 C 408.946 -2.61801 -3.6576 0
M  V30 4304 C 410.265 -0.649984 -4.35274 0
M  V30 4305 H 407.384 -0.248025 -0.694012 0
M  V30 4306 H 410.026 -1.24314 -1.43688 0
M  V30 4307 H 408.176 -0.612171 -3.83647 0
M  V30 4308 H 409.848 -3.17543 -3.34611 0
M  V30 4309 H 408.091 -3.03609 -3.09845 0
M  V30 4310 H 408.762 -2.85804 -4.7225 0
M  V30 4311 H 411.238 -1.0626 -4.02303 0
M  V30 4312 H 410.114 -0.967743 -5.40302 0
M  V30 4313 H 410.375 0.449139 -4.39813 0
M  V30 4314 N 409.434 1.37368 -0.772513 0
M  V30 4315 C 410.711 1.93839 -0.26188 0
M  V30 4316 C 411.091 1.7061 1.24319 0
M  V30 4317 O 410.439 1.05534 2.02669 0
M  V30 4318 C 410.649 3.43154 -0.636102 0
M  V30 4319 C 411.997 4.20249 -0.606324 0
M  V30 4320 O 413.021 3.5152 -0.575538 0
M  V30 4321 O 411.88 5.42809 -0.634086 0
M  V30 4322 H 408.974 0.82478 -0.0605555 0
M  V30 4323 H 411.52 1.4665 -0.853917 0
M  V30 4324 H 410.292 3.53647 -1.6748 0
M  V30 4325 H 409.915 3.97596 -0.0170516 0
M  V30 4326 N 410.912 0.523116 1.48665 0
M  V30 4327 C 411.842 -0.23231 2.32342 0
M  V30 4328 C 412.823 -0.941637 1.41659 0
M  V30 4329 O 414.008 -0.928751 1.70552 0
M  V30 4330 C 411.138 -1.28387 3.22698 0
M  V30 4331 C 410.092 -0.693098 4.22351 0
M  V30 4332 C 409.418 -1.8468 5.01794 0
M  V30 4333 C 410.718 0.33063 5.21252 0
M  V30 4334 H 412.412 0.466192 2.95748 0
M  V30 4335 H 409.958 0.225643 1.42221 0
M  V30 4336 H 411.911 -1.82024 3.80059 0
M  V30 4337 H 410.635 -2.01186 2.57278 0
M  V30 4338 H 409.294 -0.178299 3.66166 0
M  V30 4339 H 408.942 -2.56301 4.32804 0
M  V30 4340 H 408.642 -1.45747 5.69238 0
M  V30 4341 H 410.166 -2.38709 5.62006 0
M  V30 4342 H 411.58 -0.118407 5.73178 0
M  V30 4343 H 409.977 0.636974 5.9671 0
M  V30 4344 H 411.047 1.23883 4.68808 0
M  V30 4345 N 412.39 -1.55475 0.257931 0
M  V30 4346 C 413.615 -2.04064 -0.370488 0
M  V30 4347 C 414.04 -1.13565 -1.49948 0
M  V30 4348 O 413.398 -0.130781 -1.80828 0
M  V30 4349 C 413.446 -3.50554 -0.845237 0
M  V30 4350 O 412.55 -3.63173 -1.95394 0
M  V30 4351 H 411.891 -0.659257 -0.0792243 0
M  V30 4352 H 414.421 -2.00903 0.387212 0
M  V30 4353 H 414.431 -3.91588 -1.14555 0
M  V30 4354 H 413.106 -4.15896 -0.0191259 0
M  V30 4355 H 411.683 -3.34039 -1.65748 0
M  V30 4356 N 413.868 0.0150385 -1.57593 0
M  V30 4357 C 414.778 1.02791 -2.10882 0
M  V30 4358 C 415.794 1.38702 -1.0506 0
M  V30 4359 O 416.97 1.47739 -1.36877 0
M  V30 4360 C 414.035 2.30568 -2.58919 0
M  V30 4361 C 413.096 2.01108 -3.79281 0
M  V30 4362 C 412.329 3.22794 -4.25018 0
M  V30 4363 O 412.552 4.33959 -3.70183 0
M  V30 4364 O 411.486 3.07672 -5.17322 0
M  V30 4365 H 415.312 0.604973 -2.97613 0
M  V30 4366 H 412.897 0.23292 -1.47573 0
M  V30 4367 H 414.779 3.05662 -2.90084 0
M  V30 4368 H 413.454 2.72129 -1.75293 0
M  V30 4369 H 412.361 1.23537 -3.53114 0
M  V30 4370 H 413.694 1.64394 -4.63935 0
M  V30 4371 N 415.346 1.54954 0.287554 0
M  V30 4372 C 416.276 1.89839 1.35954 0
M  V30 4373 C 417.257 0.758675 1.52244 0
M  V30 4374 O 418.442 1.01557 1.65529 0
M  V30 4375 C 415.572 2.15753 2.72154 0
M  V30 4376 C 414.526 3.3159 2.70614 0
M  V30 4377 C 413.852 3.42952 4.10229 0
M  V30 4378 C 415.152 4.68359 2.31165 0
M  V30 4379 H 416.846 2.79625 1.07007 0
M  V30 4380 H 414.392 1.3454 0.513316 0
M  V30 4381 H 416.345 2.38743 3.47246 0
M  V30 4382 H 415.069 1.22752 3.02654 0
M  V30 4383 H 413.728 3.08545 1.97979 0
M  V30 4384 H 413.376 2.47443 4.37928 0
M  V30 4385 H 413.076 4.20826 4.10097 0
M  V30 4386 H 414.6 3.68218 4.87081 0
M  V30 4387 H 416.014 4.9099 2.95976 0
M  V30 4388 H 414.411 5.49044 2.42221 0
M  V30 4389 H 415.481 4.68165 1.26291 0
M  V30 4390 N 416.824 -0.551391 1.4764 0
M  V30 4391 C 418.072 -1.30572 1.54258 0
M  V30 4392 C 418.393 -1.93877 0.208963 0
M  V30 4393 O 417.663 -1.80234 -0.767619 0
M  V30 4394 H 416.243 -0.484894 0.568231 0
M  V30 4395 H 418.905 -0.643402 1.83974 0
M  V30 4396 H 418.001 -2.09621 2.31226 0
M  V30 4397 N 418.302 -1.35869 -0.798587 0
M  V30 4398 C 419.713 -1.26498 -1.37314 0
M  V30 4399 C 420.064 0.0991899 -1.95949 0
M  V30 4400 O 419.189 1.0004 -1.91888 0
M  V30 4401 C 419.784 -2.29054 -2.49639 0
M  V30 4402 C 418.343 -2.234 -3.02935 0
M  V30 4403 C 417.49 -2.14329 -1.75949 0
M  V30 4404 H 420.441 -1.46881 -0.600971 0
M  V30 4405 H 420.462 -1.92166 -3.28409 0
M  V30 4406 H 419.974 -3.2833 -2.06933 0
M  V30 4407 H 418.075 -1.27562 -3.50084 0
M  V30 4408 H 418.188 -3.15703 -3.60372 0
M  V30 4409 H 416.552 -1.60435 -1.9782 0
M  V30 4410 H 417.335 -3.15477 -1.35384 0
M  V30 4411 N 419.78 1.02168 -1.19998 0
M  V30 4412 C 420.728 2.12717 -0.940967 0
M  V30 4413 C 421.722 1.69069 0.105841 0
M  V30 4414 O 422.928 1.79946 -0.0440583 0
M  V30 4415 H 419.303 0.695108 -0.28693 0
M  V30 4416 H 421.274 2.3175 -1.87975 0
M  V30 4417 C 420.023 3.44027 -0.504049 0
M  V30 4418 H 419.346 3.78036 -1.30112 0
M  V30 4419 H 420.786 4.22452 -0.361991 0
M  V30 4420 C 419.245 3.27678 0.782878 0
M  V30 4421 O 419.775 3.56949 1.84256 0
M  V30 4422 N 417.981 2.80943 0.742921 0
M  V30 4423 H 417.528 2.57322 -0.119687 0
M  V30 4424 H 417.486 2.70385 1.60435 0
M  V30 4425 N 421.258 1.00505 1.21394 0
M  V30 4426 C 422.221 0.570459 2.21987 0
M  V30 4427 C 423.221 -0.353211 1.56873 0
M  V30 4428 O 424.411 -0.14349 1.73608 0
M  V30 4429 C 421.543 -0.168555 3.40483 0
M  V30 4430 H 422.736 1.46021 2.6195 0
M  V30 4431 H 420.289 0.793565 1.34656 0
M  V30 4432 H 421.024 -1.07374 3.06009 0
M  V30 4433 H 420.809 0.494823 3.88965 0
M  V30 4434 H 422.299 -0.460362 4.15055 0
M  V30 4435 N 422.737 -1.36956 0.779787 0
M  V30 4436 C 424.014 -1.93697 0.272156 0
M  V30 4437 C 424.394 -1.71267 -1.23413 0
M  V30 4438 O 423.742 -1.06607 -2.02107 0
M  V30 4439 C 423.952 -3.42812 0.654291 0
M  V30 4440 C 425.3 -4.19921 0.628602 0
M  V30 4441 O 426.324 -3.51209 0.594172 0
M  V30 4442 O 425.183 -5.42465 0.662864 0
M  V30 4443 H 422.277 -0.824447 0.0649286 0
M  V30 4444 H 424.823 -1.46196 0.861682 0
M  V30 4445 H 423.595 -3.52754 1.69353 0
M  V30 4446 H 423.218 -3.97582 0.0381369 0
M  V30 4447 N 424.215 -0.530993 -1.48385 0
M  V30 4448 C 425.125 0.23503 -2.3342 0
M  V30 4449 C 426.141 0.93801 -1.46552 0
M  V30 4450 O 427.317 0.912745 -1.7953 0
M  V30 4451 C 424.382 1.26778 -3.22689 0
M  V30 4452 C 423.443 0.575038 -4.25431 0
M  V30 4453 C 422.676 1.55858 -5.10435 0
M  V30 4454 O 422.899 2.79129 -4.97437 0
M  V30 4455 O 421.833 1.09742 -5.91811 0
M  V30 4456 H 425.659 -0.461794 -3.00169 0
M  V30 4457 H 423.244 -0.291903 -1.46521 0
M  V30 4458 H 425.126 1.86457 -3.77904 0
M  V30 4459 H 423.801 1.94699 -2.586 0
M  V30 4460 H 422.708 -0.0622782 -3.74048 0
M  V30 4461 H 424.041 -0.062253 -4.92161 0
M  V30 4462 N 425.693 1.55336 -0.266172 0
M  V30 4463 C 426.623 2.25146 0.618981 0
M  V30 4464 C 427.604 1.23845 1.16604 0
M  V30 4465 O 428.789 1.52544 1.20183 0
M  V30 4466 C 425.919 2.96572 1.80728 0
M  V30 4467 C 424.873 4.04726 1.39215 0
M  V30 4468 C 424.199 4.63678 2.66283 0
M  V30 4469 C 425.499 5.19407 0.548942 0
M  V30 4470 H 427.193 2.99377 0.0368116 0
M  V30 4471 H 424.739 1.43991 0.0162651 0
M  V30 4472 H 426.692 3.44116 2.43232 0
M  V30 4473 H 425.416 2.19861 2.41514 0
M  V30 4474 H 424.075 3.57979 0.790351 0
M  V30 4475 H 423.723 3.83646 3.25308 0
M  V30 4476 H 423.423 5.367 2.39222 0
M  V30 4477 H 424.947 5.13967 3.29651 0
M  V30 4478 H 426.361 5.63059 1.07876 0
M  V30 4479 H 424.758 5.98936 0.373593 0
M  V30 4480 H 425.828 4.8295 -0.434394 0
M  V30 4481 N 427.171 -0.0066808 1.57599 0
M  V30 4482 C 428.101 -0.999296 2.11036 0
M  V30 4483 C 429.082 -1.36278 1.01795 0
M  V30 4484 O 430.267 -1.4477 1.29442 0
M  V30 4485 C 427.397 -2.29328 2.60818 0
M  V30 4486 C 426.351 -2.07159 3.74525 0
M  V30 4487 C 425.677 -3.42512 4.10596 0
M  V30 4488 C 426.977 -1.43959 5.02069 0
M  V30 4489 H 428.671 -0.554382 2.94223 0
M  V30 4490 H 426.217 -0.265221 1.41536 0
M  V30 4491 H 428.17 -2.99117 2.96828 0
M  V30 4492 H 426.894 -2.7592 1.74745 0
M  V30 4493 H 425.553 -1.39797 3.38899 0
M  V30 4494 H 425.201 -3.86795 3.21556 0
M  V30 4495 H 424.901 -3.28498 4.87199 0
M  V30 4496 H 426.425 -4.13628 4.4916 0
M  V30 4497 H 427.839 -2.03696 5.35893 0
M  V30 4498 H 426.236 -1.40452 5.83432 0
M  V30 4499 H 427.306 -0.407992 4.83181 0
M  V30 4500 N 428.649 -1.55105 -0.279332 0
M  V30 4501 C 429.874 -1.7976 -1.03446 0
M  V30 4502 C 430.299 -0.565952 -1.79384 0
M  V30 4503 O 429.657 0.484259 -1.74713 0
M  V30 4504 C 429.705 -3.0179 -1.97371 0
M  V30 4505 O 428.809 -2.76432 -3.06038 0
M  V30 4506 H 428.15 -0.594334 -0.29608 0
M  V30 4507 H 430.68 -2.02235 -0.310165 0
M  V30 4508 H 430.69 -3.30351 -2.39441 0
M  V30 4509 H 429.365 -3.91085 -1.4151 0
M  V30 4510 H 427.942 -2.58949 -2.68328 0
M  V30 4511 N 430.127 0.543554 -1.4793 0
M  V30 4512 C 431.074 1.64942 -1.6144 0
M  V30 4513 C 432.044 1.59692 -0.456903 0
M  V30 4514 O 433.229 1.78321 -0.678688 0
M  V30 4515 C 430.369 3.03238 -1.64744 0
M  V30 4516 C 429.482 3.18823 -2.91506 0
M  V30 4517 C 428.617 4.47599 -2.86057 0
M  V30 4518 C 427.656 4.56664 -4.07584 0
M  V30 4519 N 426.793 5.76811 -4.00292 0
M  V30 4520 H 431.633 1.52733 -2.55884 0
M  V30 4521 H 429.17 0.7438 -1.2691 0
M  V30 4522 H 431.128 3.83339 -1.64641 0
M  V30 4523 H 429.758 3.1425 -0.738017 0
M  V30 4524 H 428.81 2.32064 -3.01414 0
M  V30 4525 H 430.122 3.21384 -3.81463 0
M  V30 4526 H 429.276 5.35975 -2.84281 0
M  V30 4527 H 428.015 4.47538 -1.93807 0
M  V30 4528 H 427.02 3.66697 -4.09651 0
M  V30 4529 H 428.245 4.58474 -5.00978 0
M  V30 4530 H 426.191 5.77673 -3.10853 0
M  V30 4531 H 426.108 5.80808 -4.8394 0
M  V30 4532 H 427.376 6.67512 -4.02553 0
M  V30 4533 N 431.605 1.3629 0.791371 0
M  V30 4534 C 432.851 1.30605 1.55146 0
M  V30 4535 C 433.184 -0.115042 1.93859 0
M  V30 4536 O 432.459 -1.06798 1.62556 0
M  V30 4537 C 432.742 2.22692 2.82985 0
M  V30 4538 C 432.595 3.73489 2.50651 0
M  V30 4539 C 433.914 2.13588 3.84796 0
M  V30 4540 H 431.033 0.475761 0.562868 0
M  V30 4541 H 433.675 1.66825 0.909358 0
M  V30 4542 H 431.825 1.91933 3.37778 0
M  V30 4543 H 433.497 4.14758 2.01924 0
M  V30 4544 H 431.74 3.93021 1.83622 0
M  V30 4545 H 432.411 4.3333 3.41949 0
M  V30 4546 H 434.887 2.40659 3.39445 0
M  V30 4547 H 433.763 2.80195 4.71998 0
M  V30 4548 H 434.024 1.12256 4.27611 0
M  V30 4549 N 433.083 -1.0153 1.20538 0
M  V30 4550 C 433.993 -2.13557 0.971113 0
M  V30 4551 C 435.009 -1.73845 -0.0734366 0
M  V30 4552 O 436.185 -2.01075 0.114299 0
M  V30 4553 C 433.25 -3.42661 0.527639 0
M  V30 4554 C 432.311 -3.96608 1.64319 0
M  V30 4555 C 431.544 -5.1955 1.22078 0
M  V30 4556 O 431.767 -5.70329 0.0900198 0
M  V30 4557 O 430.701 -5.66681 2.02871 0
M  V30 4558 H 434.527 -2.3619 1.90913 0
M  V30 4559 H 432.112 -1.11946 0.989362 0
M  V30 4560 H 433.994 -4.20404 0.289621 0
M  V30 4561 H 432.669 -3.21441 -0.381779 0
M  V30 4562 H 431.576 -3.20139 1.93551 0
M  V30 4563 H 432.909 -4.22219 2.52966 0
M  V30 4564 N 434.561 -1.01147 -1.20859 0
M  V30 4565 C 435.511 -0.548247 -2.2131 0
M  V30 4566 C 436.495 0.393646 -1.5601 0
M  V30 4567 O 437.687 0.217445 -1.75659 0
M  V30 4568 C 434.816 0.117252 -3.431 0
M  V30 4569 C 433.902 -0.846043 -4.15575 0
M  V30 4570 N 434.293 -2.00149 -4.64515 0
M  V30 4571 C 432.591 -0.665783 -4.41003 0
M  V30 4572 C 433.292 -2.60764 -5.19978 0
M  V30 4573 N 432.268 -1.88868 -5.09735 0
M  V30 4574 H 436.07 -1.42921 -2.56809 0
M  V30 4575 H 433.584 -0.876142 -1.36739 0
M  V30 4576 H 435.581 0.46662 -4.1428 0
M  V30 4577 H 434.241 0.994115 -3.09107 0
M  V30 4578 H 435.252 -2.38162 -4.5989 0
M  V30 4579 H 431.929 0.163456 -4.1718 0
M  V30 4580 H 433.319 -3.58519 -5.68255 0
M  V30 4581 N 436.039 1.36541 -0.78704 0
M  V30 4582 C 437.288 1.98552 -0.35494 0
M  V30 4583 C 437.601 1.63171 1.07864 0
M  V30 4584 O 438.807 2.18399 1.61289 0
M  V30 4585 C 437.263 3.55136 -0.583671 0
M  V30 4586 C 436.871 3.99444 -2.02851 0
M  V30 4587 C 438.615 4.2395 -0.215957 0
M  V30 4588 C 436.522 5.48796 -2.20403 0
M  V30 4589 H 435.452 0.742888 -0.128972 0
M  V30 4590 H 438.103 1.5587 -0.968337 0
M  V30 4591 H 436.485 3.95875 0.0994046 0
M  V30 4592 H 437.659 3.6991 -2.74779 0
M  V30 4593 H 435.974 3.43459 -2.35425 0
M  V30 4594 H 438.571 5.33709 -0.325405 0
M  V30 4595 H 438.914 4.07827 0.835646 0
M  V30 4596 H 439.447 3.88565 -0.852175 0
M  V30 4597 H 436.186 5.69864 -3.23937 0
M  V30 4598 H 435.706 5.79964 -1.52977 0
M  V30 4599 H 437.385 6.14986 -2.01002 0
M  V30 4600 N 437.518 0.538854 1.48102 0
M  V30 4601 C 438.45 -0.256278 2.27763 0
M  V30 4602 C 439.463 -0.89633 1.35904 0
M  V30 4603 O 440.652 -0.773275 1.60881 0
M  V30 4604 C 437.752 -1.37896 3.09577 0
M  V30 4605 C 436.925 -0.839159 4.29275 0
M  V30 4606 C 435.984 -1.84405 4.9283 0
M  V30 4607 O 435.01 -1.39746 5.51779 0
M  V30 4608 N 436.212 -3.17666 4.85869 0
M  V30 4609 H 438.977 0.426968 2.96643 0
M  V30 4610 H 436.538 0.373747 1.57527 0
M  V30 4611 H 438.53 -2.04955 3.48963 0
M  V30 4612 H 437.1 -1.96572 2.4306 0
M  V30 4613 H 436.32 0.00769287 3.94199 0
M  V30 4614 H 437.608 -0.457548 5.06739 0
M  V30 4615 H 437.006 -3.56609 4.39143 0
M  V30 4616 H 435.563 -3.80334 5.29329 0
M  V30 4617 N 438.996 -1.55193 0.274407 0
M  V30 4618 C 440.245 -1.98758 -0.343213 0
M  V30 4619 C 440.558 -1.16624 -1.5703 0
M  V30 4620 O 441.764 -1.5033 -2.26082 0
M  V30 4621 C 440.22 -3.53759 -0.661996 0
M  V30 4622 C 439.828 -4.4467 0.54524 0
M  V30 4623 C 441.572 -4.05916 -1.24228 0
M  V30 4624 C 439.479 -5.91058 0.201084 0
M  V30 4625 H 438.409 -0.742353 -0.132014 0
M  V30 4626 H 441.06 -1.79545 0.378948 0
M  V30 4627 H 439.442 -3.68772 -1.44304 0
M  V30 4628 H 440.616 -4.41426 1.32212 0
M  V30 4629 H 438.931 -4.03143 1.04232 0
M  V30 4630 H 441.528 -5.12831 -1.51357 0
M  V30 4631 H 441.871 -3.54908 -2.17592 0
M  V30 4632 H 442.404 -3.9434 -0.523542 0
M  V30 4633 H 439.143 -6.46161 1.10258 0
M  V30 4634 H 438.663 -5.97373 -0.539045 0
M  V30 4635 H 440.342 -6.46669 -0.206954 0
M  V30 4636 N 440.474 -0.00167713 -1.576 0
M  V30 4637 C 441.404 0.988091 -2.11563 0
M  V30 4638 C 442.385 1.35736 -1.02517 0
M  V30 4639 O 443.57 1.44082 -1.30208 0
M  V30 4640 C 440.7 2.27941 -2.62031 0
M  V30 4641 C 439.654 2.0517 -3.75619 0
M  V30 4642 C 438.98 3.4033 -4.12407 0
M  V30 4643 C 440.28 1.41294 -5.02825 0
M  V30 4644 H 441.974 0.538771 -2.94513 0
M  V30 4645 H 439.52 0.257712 -1.41675 0
M  V30 4646 H 441.473 2.97539 -2.9841 0
M  V30 4647 H 440.197 2.74989 -1.76205 0
M  V30 4648 H 438.856 1.37998 -3.39635 0
M  V30 4649 H 438.504 3.85085 -3.23603 0
M  V30 4650 H 438.204 3.25909 -4.88935 0
M  V30 4651 H 439.728 4.1124 -4.51347 0
M  V30 4652 H 441.142 2.00851 -5.36965 0
M  V30 4653 H 439.539 1.37356 -5.84169 0
M  V30 4654 H 440.609 0.382362 -4.8339 0
M  V30 4655 N 441.952 1.55251 0.271103 0
M  V30 4656 C 442.915 1.87484 1.31842 0
M  V30 4657 C 443.915 0.749545 1.42262 0
M  V30 4658 O 445.105 1.01771 1.4138 0
M  V30 4659 C 442.237 2.0818 2.69951 0
M  V30 4660 H 443.43 2.81108 1.0449 0
M  V30 4661 H 440.983 1.47771 0.509258 0
M  V30 4662 H 441.718 1.16944 3.02481 0
M  V30 4663 H 441.503 2.90114 2.63774 0
M  V30 4664 H 442.993 2.34385 3.4562 0
M  V30 4665 N 443.43 -0.535701 1.48216 0
M  V30 4666 C 444.67 -1.30238 1.57536 0
M  V30 4667 C 445.034 -1.90479 0.241229 0
M  V30 4668 O 446.235 -2.67983 0.20938 0
M  V30 4669 C 444.506 -2.3669 2.67792 0
M  V30 4670 S 446.065 -3.23159 2.9684 0
M  V30 4671 H 442.883 -0.443093 0.556048 0
M  V30 4672 H 445.485 -0.610937 1.85709 0
M  V30 4673 H 444.189 -1.90905 3.63296 0
M  V30 4674 H 443.72 -3.10548 2.41502 0
M  V30 4675 H 445.735 -4.36647 2.35699 0
M  V30 4676 N 444.908 -1.36708 -0.784132 0
M  V30 4677 C 446.156 -1.30972 -1.53918 0
M  V30 4678 C 446.477 0.109086 -1.94695 0
M  V30 4679 O 445.747 1.05048 -1.65353 0
M  V30 4680 H 444.327 -0.481819 -0.570841 0
M  V30 4681 H 446.989 -1.71063 -0.934002 0
M  V30 4682 H 446.085 -1.94061 -2.44431 0
M  V30 4683 N 446.386 1.0089 -1.21074 0
M  V30 4684 C 447.614 1.78191 -1.05145 0
M  V30 4685 C 448.029 1.84537 0.398952 0
M  V30 4686 O 447.386 1.30393 1.27687 0
M  V30 4687 C 447.437 3.22288 -1.63746 0
M  V30 4688 O 447.158 3.16315 -3.03111 0
M  V30 4689 C 448.659 4.16106 -1.52875 0
M  V30 4690 H 445.879 0.560129 -0.369454 0
M  V30 4691 H 448.423 1.26945 -1.60328 0
M  V30 4692 H 446.578 3.70655 -1.12664 0
M  V30 4693 H 446.992 4.06817 -3.31059 0
M  V30 4694 H 448.466 5.15026 -1.98626 0
M  V30 4695 H 448.943 4.36541 -0.482521 0
M  V30 4696 H 449.549 3.73625 -2.03185 0
M  V30 4697 N 447.864 1.01787 1.20321 0
M  V30 4698 C 449.089 0.727009 1.9424 0
M  V30 4699 C 449.514 -0.706179 1.74341 0
M  V30 4700 O 448.872 -1.48609 1.03852 0
M  V30 4701 C 448.92 1.06958 3.44372 0
M  V30 4702 O 448.024 0.181983 4.11998 0
M  V30 4703 H 447.365 0.269626 0.606793 0
M  V30 4704 H 449.895 1.36158 1.52716 0
M  V30 4705 H 449.905 1.02182 3.94997 0
M  V30 4706 H 448.58 2.11378 3.58179 0
M  V30 4707 H 447.157 0.287378 3.71791 0
M  V30 4708 N 449.342 -1.36122 0.79427 0
M  V30 4709 C 450.572 -2.03067 0.380437 0
M  V30 4710 C 450.98 -1.60018 -1.00949 0
M  V30 4711 O 450.323 -0.787425 -1.65968 0
M  V30 4712 C 450.385 -3.57587 0.37034 0
M  V30 4713 C 450.049 -4.23855 1.70867 0
M  V30 4714 C 451.046 -4.46404 2.66496 0
M  V30 4715 C 448.731 -4.61229 1.9893 0
M  V30 4716 C 450.725 -5.05412 3.88378 0
M  V30 4717 C 448.412 -5.19953 3.21079 0
M  V30 4718 C 449.41 -5.41985 4.15621 0
M  V30 4719 O 449.098 -5.99475 5.35616 0
M  V30 4720 H 448.83 -0.658168 0.154243 0
M  V30 4721 H 451.384 -1.7498 1.0757 0
M  V30 4722 H 449.614 -3.84814 -0.381444 0
M  V30 4723 H 451.303 -4.05895 -0.0194894 0
M  V30 4724 H 452.069 -4.17921 2.46103 0
M  V30 4725 H 447.948 -4.43402 1.26158 0
M  V30 4726 H 451.492 -5.22524 4.62185 0
M  V30 4727 H 447.389 -5.47862 3.41347 0
M  V30 4728 H 448.157 -6.17937 5.36745 0
M  V30 4729 N 450.82 -0.546701 -1.47814 0
M  V30 4730 C 451.768 0.220048 -2.31557 0
M  V30 4731 C 452.762 0.919472 -1.42275 0
M  V30 4732 O 453.968 0.841953 -1.59095 0
M  V30 4733 H 450.343 0.0898334 -0.746615 0
M  V30 4734 H 452.314 -0.505589 -2.94086 0
M  V30 4735 C 451.063 1.24353 -3.24702 0
M  V30 4736 H 450.386 0.714758 -3.93359 0
M  V30 4737 H 451.826 1.75112 -3.8615 0
M  V30 4738 C 450.285 2.28593 -2.47481 0
M  V30 4739 O 450.815 3.35334 -2.21165 0
M  V30 4740 N 449.021 2.02244 -2.08676 0
M  V30 4741 H 448.568 1.15455 -2.30278 0
M  V30 4742 H 448.526 2.72207 -1.57323 0
M  V30 4743 N 452.299 1.55045 -0.282633 0
M  V30 4744 C 453.524 2.04628 0.337977 0
M  V30 4745 C 453.949 1.15937 1.48123 0
M  V30 4746 O 453.307 0.159532 1.80597 0
M  V30 4747 C 453.355 3.51854 0.78936 0
M  V30 4748 O 452.459 3.66236 1.89592 0
M  V30 4749 H 451.8 0.660434 0.0687261 0
M  V30 4750 H 454.33 2.00261 -0.419124 0
M  V30 4751 H 454.34 3.93361 1.08311 0
M  V30 4752 H 453.015 4.15873 -0.0470419 0
M  V30 4753 H 451.592 3.36633 1.60413 0
M  V30 4754 N 453.777 0.010035 1.57597 0
M  V30 4755 C 455.025 -0.671371 1.90623 0
M  V30 4756 C 455.346 -1.73753 0.885151 0
M  V30 4757 O 454.616 -1.95752 -0.0760611 0
M  V30 4758 H 453.196 -0.250968 0.703579 0
M  V30 4759 H 455.858 0.0533325 1.94827 0
M  V30 4760 H 454.954 -1.13626 2.90681 0
M  V30 4761 N 455.255 -1.55392 -0.262866 0
M  V30 4762 C 456.188 -1.8391 -1.35101 0
M  V30 4763 C 457.166 -0.692901 -1.47097 0
M  V30 4764 O 458.35 -0.936979 -1.63563 0
M  V30 4765 C 455.477 -2.00969 -2.72634 0
M  V30 4766 C 454.523 -3.23559 -2.7787 0
M  V30 4767 S 455.356 -4.80647 -2.3609 0
M  V30 4768 C 456.512 -5.00692 -3.75578 0
M  V30 4769 H 456.745 -2.75918 -1.1071 0
M  V30 4770 H 454.278 -1.47294 -0.463029 0
M  V30 4771 H 456.236 -2.11482 -3.51832 0
M  V30 4772 H 454.897 -1.09832 -2.94272 0
M  V30 4773 H 454.09 -3.32413 -3.78837 0
M  V30 4774 H 453.692 -3.11689 -2.06702 0
M  V30 4775 H 455.984 -4.87055 -4.70939 0
M  V30 4776 H 456.927 -6.02717 -3.71669 0
M  V30 4777 H 457.335 -4.28619 -3.6735 0
M  V30 4778 N 456.733 0.527833 -1.48498 0
M  V30 4779 C 457.979 1.28545 -1.56857 0
M  V30 4780 C 458.312 1.92678 -0.242651 0
M  V30 4781 O 457.587 1.79394 0.751545 0
M  V30 4782 C 457.87 2.37314 -2.70839 0
M  V30 4783 C 457.723 1.77858 -4.13142 0
M  V30 4784 C 459.042 3.39068 -2.80573 0
M  V30 4785 H 456.161 0.466006 -0.570971 0
M  V30 4786 H 458.803 0.587784 -1.8068 0
M  V30 4787 H 456.953 2.96821 -2.50658 0
M  V30 4788 H 458.625 1.22385 -4.44769 0
M  V30 4789 H 456.868 1.08383 -4.20042 0
M  V30 4790 H 457.539 2.56624 -4.88721 0
M  V30 4791 H 460.015 2.89518 -2.98862 0
M  V30 4792 H 458.891 4.12566 -3.6205 0
M  V30 4793 H 459.152 3.9975 -1.88818 0
M  V30 4794 N 458.211 1.37122 0.776871 0
M  V30 4795 C 459.436 1.354 1.57104 0
M  V30 4796 C 459.861 -0.0595562 1.88006 0
M  V30 4797 O 459.219 -1.03514 1.48844 0
M  V30 4798 C 459.267 2.19472 2.8612 0
M  V30 4799 O 458.371 1.59582 3.80273 0
M  V30 4800 H 457.712 0.462869 0.476076 0
M  V30 4801 H 460.242 1.80577 0.961932 0
M  V30 4802 H 460.252 2.32502 3.35271 0
M  V30 4803 H 458.927 3.22222 2.62956 0
M  V30 4804 H 457.504 1.55564 3.38902 0
M  V30 4805 N 459.689 -1.00246 1.21608 0
M  V30 4806 C 461.105 -1.26435 0.973975 0
M  V30 4807 C 461.305 -1.98642 -0.338143 0
M  V30 4808 O 460.361 -2.29026 -1.06317 0
M  V30 4809 C 461.674 -2.08551 2.16626 0
M  V30 4810 C 463.222 -2.21769 2.20879 0
M  V30 4811 C 463.697 -3.07267 3.39633 0
M  V30 4812 N 465.188 -3.14855 3.39736 0
M  V30 4813 C 465.923 -3.81274 4.28273 0
M  V30 4814 N 465.419 -4.497 5.27012 0
M  V30 4815 N 467.212 -3.7794 4.16074 0
M  V30 4816 H 459.363 -0.518089 2.05984 0
M  V30 4817 H 461.626 -0.291368 0.902113 0
M  V30 4818 H 461.332 -1.62847 3.11727 0
M  V30 4819 H 461.206 -3.09303 2.15897 0
M  V30 4820 H 463.593 -2.66691 1.26332 0
M  V30 4821 H 463.674 -1.20478 2.25652 0
M  V30 4822 H 463.318 -2.63047 4.34475 0
M  V30 4823 H 463.248 -4.08678 3.321 0
M  V30 4824 H 465.739 -2.66147 2.6828 0
M  V30 4825 H 466.052 -4.98092 5.90867 0
M  V30 4826 H 464.397 -4.48479 5.30935 0
M  V30 4827 H 467.588 -3.23638 3.38195 0
M  V30 4828 H 467.761 -4.29424 4.85282 0
M  V30 4829 N 461.167 -1.02423 -1.1978 0
M  V30 4830 C 462.397 -0.736387 -1.93031 0
M  V30 4831 C 462.805 0.708023 -1.75453 0
M  V30 4832 O 462.148 1.4927 -1.07071 0
M  V30 4833 C 462.21 -1.00194 -3.45255 0
M  V30 4834 C 461.874 -2.43698 -3.86601 0
M  V30 4835 C 462.871 -3.41814 -3.91738 0
M  V30 4836 C 460.556 -2.77975 -4.18372 0
M  V30 4837 C 462.55 -4.72265 -4.28071 0
M  V30 4838 C 460.237 -4.08636 -4.54378 0
M  V30 4839 C 461.235 -5.05592 -4.59201 0
M  V30 4840 O 460.923 -6.33914 -4.94376 0
M  V30 4841 H 460.655 -0.269116 -0.620123 0
M  V30 4842 H 463.209 -1.37043 -1.52998 0
M  V30 4843 H 461.439 -0.310747 -3.85449 0
M  V30 4844 H 463.128 -0.704488 -3.9974 0
M  V30 4845 H 463.894 -3.16671 -3.67348 0
M  V30 4846 H 459.773 -2.0319 -4.13805 0
M  V30 4847 H 463.317 -5.4794 -4.3175 0
M  V30 4848 H 459.214 -4.33556 -4.78226 0
M  V30 4849 H 459.982 -6.38317 -5.12341 0
M  V30 4850 N 462.645 1.35699 -0.801477 0
M  V30 4851 C 463.891 1.99643 -0.389135 0
M  V30 4852 C 464.246 1.62447 1.03095 0
M  V30 4853 O 463.539 0.875064 1.7045 0
M  V30 4854 C 463.733 3.53828 -0.504041 0
M  V30 4855 C 463.562 4.06 -1.93375 0
M  V30 4856 C 462.332 4.35592 -2.561 0
M  V30 4857 C 464.53 4.24905 -2.89759 0
M  V30 4858 N 462.512 4.73663 -3.90534 0
M  V30 4859 C 463.883 4.65914 -4.09052 0
M  V30 4860 C 465.938 4.07101 -2.86658 0
M  V30 4861 C 464.641 4.90984 -5.25669 0
M  V30 4862 C 466.667 4.33324 -4.02472 0
M  V30 4863 C 466.029 4.74601 -5.20512 0
M  V30 4864 H 462.128 0.758552 -0.19006 0
M  V30 4865 H 464.712 1.64493 -1.04164 0
M  V30 4866 H 462.883 3.88219 0.118437 0
M  V30 4867 H 464.615 4.04645 -0.0667794 0
M  V30 4868 H 461.37 4.25728 -2.07492 0
M  V30 4869 H 461.794 4.96965 -4.59734 0
M  V30 4870 H 466.436 3.74335 -1.96552 0
M  V30 4871 H 464.154 5.22626 -6.1635 0
M  V30 4872 H 467.74 4.21107 -4.01447 0
M  V30 4873 H 466.62 4.94497 -6.08639 0
M  V30 4874 N 464.123 0.554532 1.47522 0
M  V30 4875 C 465.37 0.029479 2.02479 0
M  V30 4876 C 465.698 -1.31929 1.42916 0
M  V30 4877 O 464.953 -1.87112 0.573385 0
M  V30 4878 C 465.252 -0.115927 3.57212 0
M  V30 4879 C 464.918 1.16161 4.3568 0
M  V30 4880 C 463.58 1.51168 4.56839 0
M  V30 4881 C 465.932 2.0083 4.80954 0
M  V30 4882 C 463.26 2.70696 5.2052 0
M  V30 4883 C 465.612 3.19559 5.45953 0
M  V30 4884 C 464.276 3.54882 5.65345 0
M  V30 4885 H 463.546 0.0107871 0.740921 0
M  V30 4886 H 466.193 0.725506 1.77225 0
M  V30 4887 H 464.498 -0.894902 3.81443 0
M  V30 4888 H 466.195 -0.53749 3.97381 0
M  V30 4889 H 462.785 0.879026 4.19489 0
M  V30 4890 H 466.969 1.75093 4.64388 0
M  V30 4891 H 462.225 2.98236 5.33728 0
M  V30 4892 H 466.399 3.85456 5.79997 0
M  V30 4893 H 464.026 4.47596 6.1446 0
M  V30 4894 N 465.601 -1.54893 0.290851 0
M  V30 4895 C 466.511 -2.26812 -0.59945 0
M  V30 4896 C 467.527 -1.29963 -1.15696 0
M  V30 4897 O 468.703 -1.62928 -1.18391 0
M  V30 4898 C 465.768 -2.98716 -1.75982 0
M  V30 4899 C 464.829 -4.1108 -1.2374 0
M  V30 4900 C 464.062 -4.79546 -2.34246 0
M  V30 4901 O 464.285 -4.47309 -3.53936 0
M  V30 4902 O 463.219 -5.67165 -2.01512 0
M  V30 4903 H 467.045 -3.03696 -0.0163561 0
M  V30 4904 H 464.63 -1.49289 0.0576755 0
M  V30 4905 H 466.512 -3.43851 -2.43607 0
M  V30 4906 H 465.187 -2.24737 -2.3297 0
M  V30 4907 H 464.094 -3.70367 -0.527163 0
M  V30 4908 H 465.427 -4.87007 -0.71307 0
M  V30 4909 N 467.08 -0.0183926 -1.57589 0
M  V30 4910 C 468.305 0.676634 -1.96052 0
M  V30 4911 C 468.73 1.6548 -0.894307 0
M  V30 4912 O 468.088 1.80712 0.145849 0
M  V30 4913 C 468.136 1.36872 -3.33614 0
M  V30 4914 O 467.24 2.48372 -3.29219 0
M  V30 4915 H 466.581 0.1786 -0.63953 0
M  V30 4916 H 469.111 -0.077056 -2.04455 0
M  V30 4917 H 469.121 1.72797 -3.69601 0
M  V30 4918 H 467.796 0.651636 -4.10763 0
M  V30 4919 H 466.373 2.14639 -3.04934 0
M  V30 4920 N 468.558 1.5553 0.254621 0
M  V30 4921 C 469.488 1.9268 1.31897 0
M  V30 4922 C 470.469 0.790797 1.506 0
M  V30 4923 O 471.654 1.05045 1.63337 0
M  V30 4924 C 468.784 2.21477 2.67517 0
M  V30 4925 C 467.738 3.37256 2.63519 0
M  V30 4926 C 467.064 3.51576 4.02862 0
M  V30 4927 C 468.364 4.73157 2.21179 0
M  V30 4928 H 470.058 2.81832 1.01051 0
M  V30 4929 H 467.604 1.35599 0.484662 0
M  V30 4930 H 469.557 2.46055 3.42104 0
M  V30 4931 H 468.281 1.29144 2.99982 0
M  V30 4932 H 466.94 3.12675 1.9139 0
M  V30 4933 H 466.588 2.56676 4.32581 0
M  V30 4934 H 466.288 4.2943 4.01078 0
M  V30 4935 H 467.812 3.78467 4.79161 0
M  V30 4936 H 469.226 4.97158 2.85494 0
M  V30 4937 H 467.623 5.54058 2.30521 0
M  V30 4938 H 468.693 4.70739 1.16332 0
M  V30 4939 N 470.036 -0.519951 1.48776 0
M  V30 4940 C 470.999 -1.60574 1.6355 0
M  V30 4941 C 471.999 -1.52557 0.508234 0
M  V30 4942 O 473.189 -1.56047 0.774262 0
M  V30 4943 C 470.321 -3.00211 1.61512 0
M  V30 4944 H 471.514 -1.4881 2.60376 0
M  V30 4945 H 469.067 -0.742772 1.37523 0
M  V30 4946 H 469.802 -3.17471 0.662009 0
M  V30 4947 H 469.587 -3.07439 2.43359 0
M  V30 4948 H 471.077 -3.79134 1.75064 0
M  V30 4949 N 471.514 -1.37532 -0.769588 0
M  V30 4950 C 472.762 -1.32597 -1.5252 0
M  V30 4951 C 473.083 0.0884294 -1.94799 0
M  V30 4952 O 472.353 1.03289 -1.66458 0
M  V30 4953 H 470.933 -0.487846 -0.565699 0
M  V30 4954 H 473.595 -1.72044 -0.915806 0
M  V30 4955 H 472.691 -1.96643 -2.42359 0
M  V30 4956 N 472.992 0.995999 -1.22138 0
M  V30 4957 C 474.241 1.72928 -1.03821 0
M  V30 4958 C 474.554 1.90872 0.427444 0
M  V30 4959 O 475.76 2.61496 0.730212 0
M  V30 4960 C 474.216 3.11124 -1.80913 0
M  V30 4961 C 473.824 3.01122 -3.31707 0
M  V30 4962 C 475.568 3.8852 -1.71035 0
M  V30 4963 C 473.475 4.34453 -4.01253 0
M  V30 4964 H 472.405 0.648376 -0.384869 0
M  V30 4965 H 475.056 1.11213 -1.45959 0
M  V30 4966 H 473.438 3.73503 -1.31573 0
M  V30 4967 H 474.612 2.47926 -3.88419 0
M  V30 4968 H 472.927 2.3721 -3.42228 0
M  V30 4969 H 475.524 4.872 -2.20318 0
M  V30 4970 H 475.867 4.1087 -0.670196 0
M  V30 4971 H 476.4 3.32812 -2.17902 0
M  V30 4972 H 473.139 4.17303 -5.05508 0
M  V30 4973 H 472.659 4.87574 -3.49331 0
M  V30 4974 H 474.338 5.03215 -4.06674 0
M  V30 4975 N 474.47 1.03057 1.19235 0
M  V30 4976 C 475.881 0.757449 1.70645 0
M  V30 4977 C 476.232 -0.722735 1.82403 0
M  V30 4978 O 475.357 -1.56325 1.49638 0
M  V30 4979 C 475.952 1.36833 3.09939 0
M  V30 4980 C 474.511 1.14375 3.58602 0
M  V30 4981 C 473.658 1.46533 2.35422 0
M  V30 4982 H 476.609 1.19828 1.04052 0
M  V30 4983 H 476.63 0.766184 3.72706 0
M  V30 4984 H 476.142 2.44562 3.01349 0
M  V30 4985 H 474.243 0.0847542 3.72504 0
M  V30 4986 H 474.356 1.83366 4.42622 0
M  V30 4987 H 472.72 0.884712 2.38841 0
M  V30 4988 H 473.503 2.55349 2.2946 0
M  V30 4989 N 475.948 -1.35272 0.808662 0
M  V30 4990 C 477.188 -2.00534 0.395668 0
M  V30 4991 C 477.552 -1.62755 -1.01857 0
M  V30 4992 O 478.753 -2.20752 -1.53368 0
M  V30 4993 C 477.024 -3.52732 0.575771 0
M  V30 4994 S 478.583 -4.38067 0.253507 0
M  V30 4995 H 475.401 -0.694962 0.150165 0
M  V30 4996 H 478.003 -1.64823 1.05137 0
M  V30 4997 H 476.707 -3.77714 1.60499 0
M  V30 4998 H 476.238 -3.93285 -0.0951739 0
M  V30 4999 H 478.253 -4.87252 -0.938068 0
M  V30 5000 N 477.426 -0.562348 -1.47226 0
M  V30 5001 C 478.703 0.0256985 -1.95583 0
M  V30 5002 C 479.083 1.48032 -1.50498 0
M  V30 5003 O 478.431 2.15973 -0.746181 0
M  V30 5004 C 478.641 -0.125129 -3.48776 0
M  V30 5005 C 479.989 0.0175728 -4.24596 0
M  V30 5006 O 481.013 -0.0529341 -3.56161 0
M  V30 5007 O 479.872 0.170145 -5.46235 0
M  V30 5008 H 476.966 0.0612565 -0.824728 0
M  V30 5009 H 479.512 -0.629233 -1.57603 0
M  V30 5010 H 478.284 -1.13715 -3.74412 0
M  V30 5011 H 477.907 0.567178 -3.93534 0
M  V30 5012 N 478.904 1.54736 -0.299062 0
M  V30 5013 C 480.15 2.00397 0.311244 0
M  V30 5014 C 480.483 1.18716 1.53688 0
M  V30 5015 O 479.758 0.263154 1.92712 0
M  V30 5016 C 480.041 3.53817 0.669761 0
M  V30 5017 C 479.894 4.46239 -0.564882 0
M  V30 5018 C 481.213 4.13856 1.49702 0
M  V30 5019 H 478.332 0.728493 0.111653 0
M  V30 5020 H 480.974 1.85506 -0.410774 0
M  V30 5021 H 479.124 3.66637 1.28491 0
M  V30 5022 H 480.796 4.45328 -1.20337 0
M  V30 5023 H 479.039 4.16916 -1.19849 0
M  V30 5024 H 479.71 5.5134 -0.269918 0
M  V30 5025 H 482.186 4.04461 0.977284 0
M  V30 5026 H 481.062 5.21365 1.71666 0
M  V30 5027 H 481.323 3.65608 2.48563 0
M  V30 5028 N 480.382 0.0267497 1.57577 0
M  V30 5029 C 481.292 -0.971633 2.13533 0
M  V30 5030 C 482.308 -1.35868 1.08701 0
M  V30 5031 O 483.484 -1.44058 1.40746 0
M  V30 5032 C 480.549 -2.23622 2.64941 0
M  V30 5033 C 479.61 -1.90982 3.8448 0
M  V30 5034 C 478.843 -3.11411 4.33427 0
M  V30 5035 O 479.066 -4.23992 3.81558 0
M  V30 5036 O 478 -2.93848 5.25297 0
M  V30 5037 H 481.826 -0.525853 2.99113 0
M  V30 5038 H 479.411 -0.193712 1.48139 0
M  V30 5039 H 481.293 -2.97864 2.98086 0
M  V30 5040 H 479.968 -2.67386 1.82446 0
M  V30 5041 H 478.875 -1.14132 3.56265 0
M  V30 5042 H 480.208 -1.52036 4.6813 0
M  V30 5043 N 481.861 -1.55662 -0.24637 0
M  V30 5044 C 483.11 -1.7672 -0.972254 0
M  V30 5045 C 483.423 -0.59078 -1.86465 0
M  V30 5046 O 484.629 -0.684391 -2.62732 0
M  V30 5047 C 483.085 -3.12869 -1.7788 0
M  V30 5048 C 482.693 -4.38161 -0.933768 0
M  V30 5049 C 484.437 -3.43265 -2.49738 0
M  V30 5050 C 482.344 -5.6534 -1.73623 0
M  V30 5051 H 481.274 -0.658795 -0.366749 0
M  V30 5052 H 483.925 -1.82092 -0.226902 0
M  V30 5053 H 482.307 -3.01606 -2.56612 0
M  V30 5054 H 483.481 -4.60413 -0.188736 0
M  V30 5055 H 481.796 -4.15102 -0.328488 0
M  V30 5056 H 484.393 -4.35501 -3.10231 0
M  V30 5057 H 484.736 -2.64614 -3.2138 0
M  V30 5058 H 485.269 -3.55746 -1.78016 0
M  V30 5059 H 482.008 -6.46814 -1.06354 0
M  V30 5060 H 481.528 -5.47188 -2.45653 0
M  V30 5061 H 483.207 -6.04616 -2.30323 0
M  V30 5062 N 483.339 0.512053 -1.4905 0
M  V30 5063 C 484.302 1.59704 -1.64399 0
M  V30 5064 C 485.302 1.52285 -0.516317 0
M  V30 5065 O 486.492 1.55635 -0.782527 0
M  V30 5066 C 483.624 2.9935 -1.63102 0
M  V30 5067 H 484.817 1.47428 -2.61161 0
M  V30 5068 H 482.37 0.735469 -1.37915 0
M  V30 5069 H 483.105 3.17116 -0.678836 0
M  V30 5070 H 482.89 3.06144 -2.44986 0
M  V30 5071 H 484.38 3.782 -1.77072 0
M  V30 5072 N 484.817 1.37938 0.762283 0
M  V30 5073 C 486.042 1.37059 1.55659 0
M  V30 5074 C 486.467 -0.0396123 1.88058 0
M  V30 5075 O 485.825 -1.01929 1.49934 0
M  V30 5076 C 485.873 2.22494 2.83776 0
M  V30 5077 O 484.977 1.63607 3.78559 0
M  V30 5078 H 484.318 0.467892 0.47114 0
M  V30 5079 H 486.848 1.81587 0.942725 0
M  V30 5080 H 486.858 2.36045 3.32786 0
M  V30 5081 H 485.533 3.24993 2.59524 0
M  V30 5082 H 484.11 1.5915 3.37233 0
M  V30 5083 N 486.295 -0.989507 1.22664 0
M  V30 5084 C 487.205 -2.11449 1.01619 0
M  V30 5085 C 488.221 -1.73962 -0.036545 0
M  V30 5086 O 489.397 -2.00788 0.156924 0
M  V30 5087 C 486.462 -3.41465 0.600204 0
M  V30 5088 C 485.523 -3.93033 1.72695 0
M  V30 5089 C 484.756 -5.16844 1.33071 0
M  V30 5090 O 484.979 -5.7001 0.210975 0
M  V30 5091 O 483.913 -5.6225 2.14845 0
M  V30 5092 H 487.739 -2.32088 1.9588 0
M  V30 5093 H 485.324 -1.09823 1.01289 0
M  V30 5094 H 487.206 -4.19695 0.37873 0
M  V30 5095 H 485.881 -3.22178 -0.313511 0
M  V30 5096 H 484.788 -3.15961 2.00298 0
M  V30 5097 H 486.121 -4.16758 2.61865 0
M  V30 5098 N 487.773 -1.03688 -1.18687 0
M  V30 5099 C 489.02 -0.73803 -1.88572 0
M  V30 5100 C 489.348 0.733973 -1.8012 0
M  V30 5101 O 488.603 1.55098 -1.19344 0
M  V30 5102 C 488.902 -1.14477 -3.3857 0
M  V30 5103 C 488.568 -2.61641 -3.67226 0
M  V30 5104 C 487.23 -3.01846 -3.74757 0
M  V30 5105 C 489.582 -3.56812 -3.79914 0
M  V30 5106 C 486.91 -4.36118 -3.92451 0
M  V30 5107 C 489.262 -4.90799 -3.99123 0
M  V30 5108 C 487.926 -5.3068 -4.04888 0
M  V30 5109 H 487.196 -0.270064 -0.690034 0
M  V30 5110 H 489.843 -1.3012 -1.40503 0
M  V30 5111 H 488.148 -0.500337 -3.88592 0
M  V30 5112 H 489.845 -0.89095 -3.90977 0
M  V30 5113 H 486.435 -2.29498 -3.61979 0
M  V30 5114 H 490.619 -3.26899 -3.73431 0
M  V30 5115 H 485.875 -4.66542 -3.95157 0
M  V30 5116 H 490.049 -5.64451 -4.07882 0
M  V30 5117 H 487.676 -6.34733 -4.18351 0
M  V30 5118 N 489.251 1.34841 -0.815825 0
M  V30 5119 C 490.667 1.51543 -0.500697 0
M  V30 5120 C 490.867 1.76261 0.976444 0
M  V30 5121 O 489.923 1.8094 1.76117 0
M  V30 5122 C 491.236 2.68487 -1.35407 0
M  V30 5123 C 492.784 2.82368 -1.35046 0
M  V30 5124 C 493.259 4.02347 -2.18816 0
M  V30 5125 N 494.75 4.09542 -2.16402 0
M  V30 5126 C 495.485 5.01517 -2.77971 0
M  V30 5127 N 494.981 5.98763 -3.48503 0
M  V30 5128 N 496.774 4.94334 -2.67563 0
M  V30 5129 H 488.925 1.17055 -1.77234 0
M  V30 5130 H 491.188 0.573481 -0.754866 0
M  V30 5131 H 490.894 2.56829 -2.40274 0
M  V30 5132 H 490.768 3.63321 -1.01377 0
M  V30 5133 H 493.155 2.93471 -0.309604 0
M  V30 5134 H 493.236 1.88363 -1.73069 0
M  V30 5135 H 492.88 3.92004 -3.22948 0
M  V30 5136 H 492.81 4.95551 -1.78148 0
M  V30 5137 H 495.301 3.39932 -1.65091 0
M  V30 5138 H 495.614 6.6556 -3.92747 0
M  V30 5139 H 493.959 5.98909 -3.52609 0
M  V30 5140 H 497.15 4.1732 -2.12041 0
M  V30 5141 H 497.323 5.6582 -3.15834 0
M  V30 5142 N 490.729 0.570148 1.46925 0
M  V30 5143 C 491.959 0.0561151 2.06524 0
M  V30 5144 C 492.367 -1.24874 1.42137 0
M  V30 5145 O 491.71 -1.76292 0.516417 0
M  V30 5146 C 491.772 -0.197035 3.5896 0
M  V30 5147 C 491.436 1.02033 4.45464 0
M  V30 5148 C 492.433 1.92921 4.82781 0
M  V30 5149 C 490.118 1.23864 4.86788 0
M  V30 5150 C 492.112 3.03999 5.60235 0
M  V30 5151 C 489.799 2.35249 5.64004 0
M  V30 5152 C 490.797 3.25146 6.0064 0
M  V30 5153 O 490.485 4.34598 6.76299 0
M  V30 5154 H 490.217 0.0487409 0.674241 0
M  V30 5155 H 492.771 0.786915 1.89728 0
M  V30 5156 H 491.001 -0.982299 3.74016 0
M  V30 5157 H 492.69 -0.658032 4.00531 0
M  V30 5158 H 493.456 1.77265 4.51444 0
M  V30 5159 H 489.335 0.54805 4.57731 0
M  V30 5160 H 492.879 3.74192 5.8875 0
M  V30 5161 H 488.776 2.50873 5.94755 0
M  V30 5162 H 489.544 4.32808 6.94708 0
M  V30 5163 N 492.207 -1.54576 0.307264 0
M  V30 5164 C 493.623 -1.59534 -0.0459251 0
M  V30 5165 C 493.823 -1.32414 -1.51884 0
M  V30 5166 O 492.879 -1.1006 -2.27251 0
M  V30 5167 C 494.192 -2.98566 0.357649 0
M  V30 5168 C 495.74 -3.11491 0.306937 0
M  V30 5169 C 496.215 -4.52842 0.685427 0
M  V30 5170 N 497.706 -4.58782 0.638203 0
M  V30 5171 C 498.441 -5.66238 0.903458 0
M  V30 5172 N 497.937 -6.81703 1.23501 0
M  V30 5173 N 499.73 -5.55937 0.830102 0
M  V30 5174 H 491.881 -1.70464 1.26712 0
M  V30 5175 H 494.144 -0.79647 0.514139 0
M  V30 5176 H 493.85 -3.23356 1.38325 0
M  V30 5177 H 493.724 -3.76117 -0.285565 0
M  V30 5178 H 496.111 -2.86446 -0.709424 0
M  V30 5179 H 496.192 -2.36081 0.984861 0
M  V30 5180 H 495.836 -4.78618 1.69963 0
M  V30 5181 H 495.766 -5.26598 -0.0146346 0
M  V30 5182 H 498.257 -3.75849 0.393138 0
M  V30 5183 H 498.57 -7.59582 1.42322 0
M  V30 5184 H 496.915 -6.8324 1.27311 0
M  V30 5185 H 500.106 -4.64608 0.570693 0
M  V30 5186 H 500.279 -6.39597 1.04019 0
M  V30 5187 N 493.685 -0.035106 -1.57561 0
M  V30 5188 C 494.632 0.94474 -2.10578 0
M  V30 5189 C 495.602 1.3192 -1.00927 0
M  V30 5190 O 496.787 1.41147 -1.28382 0
M  V30 5191 C 493.927 2.21982 -2.64231 0
M  V30 5192 C 493.04 1.90128 -3.87911 0
M  V30 5193 C 492.175 3.11975 -4.29936 0
M  V30 5194 C 491.214 2.75968 -5.46359 0
M  V30 5195 N 490.351 3.90459 -5.83512 0
M  V30 5196 H 495.191 0.485717 -2.94015 0
M  V30 5197 H 492.728 0.228143 -1.4532 0
M  V30 5198 H 494.686 2.96572 -2.9343 0
M  V30 5199 H 493.316 2.6549 -1.83616 0
M  V30 5200 H 492.368 1.05755 -3.65404 0
M  V30 5201 H 493.68 1.59613 -4.72573 0
M  V30 5202 H 492.834 3.9488 -4.60603 0
M  V30 5203 H 491.573 3.45657 -3.44053 0
M  V30 5204 H 490.578 1.91478 -5.1538 0
M  V30 5205 H 491.803 2.43497 -6.33945 0
M  V30 5206 H 489.749 4.23971 -5.00584 0
M  V30 5207 H 489.666 3.63588 -6.62827 0
M  V30 5208 H 490.934 4.7405 -6.18787 0
M  V30 5209 N 495.163 1.55791 0.238111 0
M  V30 5210 C 496.388 1.8244 0.986432 0
M  V30 5211 C 496.813 0.613314 1.7782 0
M  V30 5212 O 496.171 -0.437767 1.75935 0
M  V30 5213 C 496.219 3.06917 1.893 0
M  V30 5214 O 495.323 2.84449 2.98601 0
M  V30 5215 H 494.664 0.601975 0.280218 0
M  V30 5216 H 497.194 2.02987 0.256437 0
M  V30 5217 H 497.204 3.36583 2.30598 0
M  V30 5218 H 495.879 3.947 1.31091 0
M  V30 5219 H 494.456 2.65972 2.61368 0
M  V30 5220 N 496.642 -0.504142 1.49319 0
M  V30 5221 C 497.605 -1.5883 1.65244 0
M  V30 5222 C 498.605 -1.52009 0.524386 0
M  V30 5223 O 499.795 -1.55218 0.79077 0
M  V30 5224 C 496.927 -2.98481 1.64687 0
M  V30 5225 H 498.12 -1.4604 2.61939 0
M  V30 5226 H 495.673 -0.728144 1.38303 0
M  V30 5227 H 496.408 -3.16751 0.695644 0
M  V30 5228 H 496.193 -3.0484 2.46607 0
M  V30 5229 H 497.683 -3.77256 1.79075 0
M  V30 5230 N 498.12 -1.38341 -0.754957 0
M  V30 5231 C 499.366 -1.34672 -1.51628 0
M  V30 5232 C 499.699 0.0636036 -1.94096 0
M  V30 5233 O 498.974 1.0245 -1.6533 0
M  V30 5234 C 499.257 -2.30116 -2.76981 0
M  V30 5235 C 499.11 -3.80003 -2.4066 0
M  V30 5236 C 500.429 -2.23715 -3.78998 0
M  V30 5237 H 497.548 -0.490517 -0.550056 0
M  V30 5238 H 500.19 -1.69178 -0.864807 0
M  V30 5239 H 498.34 -2.00821 -3.3257 0
M  V30 5240 H 500.012 -4.19966 -1.90856 0
M  V30 5241 H 498.255 -3.97751 -1.73137 0
M  V30 5242 H 498.926 -4.42244 -3.30339 0
M  V30 5243 H 501.402 -2.49574 -3.32945 0
M  V30 5244 H 500.278 -2.9261 -4.64403 0
M  V30 5245 H 500.539 -1.23554 -4.24484 0
M  V30 5246 N 499.598 0.982988 -1.23187 0
M  V30 5247 C 501.014 1.2487 -0.993967 0
M  V30 5248 C 501.214 1.99155 0.306498 0
M  V30 5249 O 500.27 2.30688 1.0266 0
M  V30 5250 C 501.583 2.05078 -2.19917 0
M  V30 5251 C 503.131 2.18227 -2.2438 0
M  V30 5252 C 503.606 3.01825 -3.44479 0
M  V30 5253 N 505.097 3.09411 -3.44702 0
M  V30 5254 C 505.832 3.74412 -4.34285 0
M  V30 5255 N 505.328 4.41259 -5.341 0
M  V30 5256 N 507.121 3.71273 -4.22035 0
M  V30 5257 H 499.272 0.485253 -2.06783 0
M  V30 5258 H 501.535 0.276979 -0.906635 0
M  V30 5259 H 501.241 1.57867 -3.14279 0
M  V30 5260 H 501.115 3.05829 -2.2079 0
M  V30 5261 H 503.502 2.64648 -1.30559 0
M  V30 5262 H 503.583 1.16873 -2.2754 0
M  V30 5263 H 503.227 2.56102 -4.38605 0
M  V30 5264 H 503.157 4.03342 -3.38559 0
M  V30 5265 H 505.648 2.61845 -2.7248 0
M  V30 5266 H 505.961 4.88629 -5.98717 0
M  V30 5267 H 504.306 4.39975 -5.38002 0
M  V30 5268 H 507.497 3.18217 -3.43301 0
M  V30 5269 H 507.67 4.21649 -4.92053 0
M  V30 5270 N 501.076 1.04316 1.18135 0
M  V30 5271 C 502.492 0.762858 1.40188 0
M  V30 5272 C 502.692 -0.646547 1.90846 0
M  V30 5273 O 501.748 -1.41036 2.0944 0
M  V30 5274 C 503.061 1.81106 2.40044 0
M  V30 5275 C 504.609 1.83226 2.53766 0
M  V30 5276 C 505.084 2.87044 3.56889 0
M  V30 5277 N 506.575 2.85951 3.64398 0
M  V30 5278 C 507.31 3.62932 4.43923 0
M  V30 5279 N 506.806 4.49672 5.27036 0
M  V30 5280 N 508.599 3.51411 4.38711 0
M  V30 5281 H 500.75 1.95264 0.835805 0
M  V30 5282 H 503.013 0.845017 0.429709 0
M  V30 5283 H 502.719 2.82214 2.09876 0
M  V30 5284 H 502.593 1.64529 3.39426 0
M  V30 5285 H 504.98 0.827869 2.8325 0
M  V30 5286 H 505.061 2.03879 1.54489 0
M  V30 5287 H 504.705 3.87663 3.28145 0
M  V30 5288 H 504.635 2.63645 4.5585 0
M  V30 5289 H 507.126 2.23051 3.05052 0
M  V30 5290 H 507.439 5.05116 5.84874 0
M  V30 5291 H 505.784 4.53738 5.26447 0
M  V30 5292 H 508.975 2.83047 3.72829 0
M  V30 5293 H 509.148 4.11654 5.00445 0
M  V30 5294 N 502.554 -1.34406 0.822964 0
M  V30 5295 C 503.502 -2.31428 0.233165 0
M  V30 5296 C 504.496 -1.57404 -0.626118 0
M  V30 5297 O 505.702 -1.72402 -0.517453 0
M  V30 5298 H 502.077 -0.749863 0.0566557 0
M  V30 5299 H 504.048 -2.78699 1.06628 0
M  V30 5300 C 502.797 -3.42653 -0.590264 0
M  V30 5301 H 502.12 -3.99753 0.0616129 0
M  V30 5302 H 503.56 -4.12778 -0.969054 0
M  V30 5303 C 502.019 -2.87112 -1.76262 0
M  V30 5304 O 502.549 -2.81995 -2.8608 0
M  V30 5305 N 500.755 -2.43934 -1.57938 0
M  V30 5306 H 500.302 -2.48296 -0.686078 0
M  V30 5307 H 500.26 -2.07123 -2.36532 0
M  V30 5308 N 504.032 -0.577932 -1.46621 0
M  V30 5309 C 505.257 -0.0652536 -2.07297 0
M  V30 5310 C 505.682 1.22828 -1.4246 0
M  V30 5311 O 505.04 1.74075 -0.506718 0
M  V30 5312 C 505.088 0.0920589 -3.60482 0
M  V30 5313 O 504.192 1.14972 -3.96049 0
M  V30 5314 H 503.533 -0.06065 -0.661224 0
M  V30 5315 H 506.063 -0.799515 -1.88332 0
M  V30 5316 H 506.073 0.299741 -4.06897 0
M  V30 5317 H 504.748 -0.852612 -4.07067 0
M  V30 5318 H 503.325 0.920879 -3.61351 0
M  V30 5319 N 505.51 1.54411 -0.315457 0
M  V30 5320 C 506.44 2.27002 0.547039 0
M  V30 5321 C 507.421 1.27492 1.12605 0
M  V30 5322 O 508.606 1.5629 1.15269 0
M  V30 5323 C 505.736 3.02171 1.71201 0
M  V30 5324 C 504.69 4.0895 1.26268 0
M  V30 5325 C 504.016 4.71915 2.51396 0
M  V30 5326 C 505.316 5.20891 0.383419 0
M  V30 5327 H 507.01 2.99343 -0.0584517 0
M  V30 5328 H 504.556 1.4397 -0.0295527 0
M  V30 5329 H 506.509 3.51681 2.32161 0
M  V30 5330 H 505.233 2.27433 2.34397 0
M  V30 5331 H 503.892 3.60312 0.676062 0
M  V30 5332 H 503.54 3.93801 3.12937 0
M  V30 5333 H 503.24 5.44039 2.22026 0
M  V30 5334 H 504.764 5.24195 3.13133 0
M  V30 5335 H 506.178 5.66206 0.899082 0
M  V30 5336 H 504.575 5.99821 0.182857 0
M  V30 5337 H 505.645 4.81324 -0.587821 0
M  V30 5338 N 506.988 0.0434614 1.5754 0
M  V30 5339 C 507.921 -0.968729 2.06618 0
M  V30 5340 C 508.899 -1.30868 0.965 0
M  V30 5341 O 510.083 -1.42288 1.23638 0
M  V30 5342 C 507.21 -2.28486 2.50023 0
M  V30 5343 C 506.256 -2.09851 3.71302 0
M  V30 5344 S 507.089 -1.38401 5.17306 0
M  V30 5345 C 508.245 -2.71354 5.64019 0
M  V30 5346 H 508.478 -0.551021 2.92149 0
M  V30 5347 H 506.011 -0.168607 1.53477 0
M  V30 5348 H 507.969 -3.04142 2.75695 0
M  V30 5349 H 506.63 -2.67387 1.64812 0
M  V30 5350 H 505.823 -3.07184 3.99567 0
M  V30 5351 H 505.425 -1.42336 3.45856 0
M  V30 5352 H 507.717 -3.67549 5.69134 0
M  V30 5353 H 508.66 -2.47734 6.6335 0
M  V30 5354 H 509.068 -2.77259 4.91719 0
M  V30 5355 N 508.466 -1.55915 -0.229846 0
M  V30 5356 C 509.715 -1.77742 -0.953455 0
M  V30 5357 C 510.028 -0.610524 -1.85828 0
M  V30 5358 O 511.234 -0.712219 -2.61992 0
M  V30 5359 C 509.69 -3.14738 -1.74551 0
M  V30 5360 C 509.298 -4.39126 -0.887242 0
M  V30 5361 C 511.042 -3.45895 -2.46084 0
M  V30 5362 C 508.949 -5.67149 -1.67617 0
M  V30 5363 H 507.879 -0.662648 -0.359741 0
M  V30 5364 H 510.53 -1.82322 -0.207576 0
M  V30 5365 H 508.912 -3.04311 -2.53399 0
M  V30 5366 H 510.086 -4.60588 -0.139892 0
M  V30 5367 H 508.401 -4.15427 -0.284443 0
M  V30 5368 H 510.998 -4.38767 -3.05594 0
M  V30 5369 H 511.341 -2.68007 -3.18556 0
M  V30 5370 H 511.874 -3.57614 -1.74233 0
M  V30 5371 H 508.613 -6.47906 -0.994881 0
M  V30 5372 H 508.133 -5.49763 -2.39836 0
M  V30 5373 H 509.812 -6.07025 -2.23898 0
M  V30 5374 N 509.944 0.496216 -1.49584 0
M  V30 5375 C 511.172 1.27394 -1.63029 0
M  V30 5376 C 511.587 1.86344 -0.303569 0
M  V30 5377 O 510.944 1.68057 0.711547 0
M  V30 5378 C 510.995 2.40077 -2.70269 0
M  V30 5379 O 510.716 1.83549 -3.97796 0
M  V30 5380 C 512.217 3.31372 -2.94462 0
M  V30 5381 H 509.437 0.386211 -0.54871 0
M  V30 5382 H 511.981 0.595163 -1.95648 0
M  V30 5383 H 510.136 3.03775 -2.40415 0
M  V30 5384 H 510.55 2.57561 -4.56905 0
M  V30 5385 H 512.024 4.06707 -3.73221 0
M  V30 5386 H 512.501 3.88654 -2.0456 0
M  V30 5387 H 513.107 2.73435 -3.25751 0
M  V30 5388 N 511.423 1.38739 0.74761 0
M  V30 5389 C 512.353 1.39173 1.87492 0
M  V30 5390 C 513.334 0.256794 1.6815 0
M  V30 5391 O 514.519 0.460762 1.88655 0
M  V30 5392 C 511.649 1.22197 3.25093 0
M  V30 5393 C 510.603 2.32957 3.59047 0
M  V30 5394 C 509.929 2.01082 4.95449 0
M  V30 5395 C 511.229 3.75237 3.6331 0
M  V30 5396 H 512.923 2.3351 1.87386 0
M  V30 5397 H 510.469 1.12399 0.900134 0
M  V30 5398 H 512.422 1.21124 4.03617 0
M  V30 5399 H 511.146 0.243241 3.25693 0
M  V30 5400 H 509.805 2.33226 2.82845 0
M  V30 5401 H 509.453 1.01678 4.92616 0
M  V30 5402 H 509.153 2.75267 5.19136 0
M  V30 5403 H 510.677 2.01638 5.76346 0
M  V30 5404 H 512.091 3.76966 4.31937 0
M  V30 5405 H 510.488 4.48677 3.98509 0
M  V30 5406 H 511.558 4.07122 2.634 0
M  V30 5407 N 512.901 -0.976442 1.23707 0
M  V30 5408 C 514.126 -1.75875 1.09922 0
M  V30 5409 C 514.551 -1.84911 -0.34489 0
M  V30 5410 O 513.909 -1.31363 -1.24954 0
M  V30 5411 C 513.957 -3.16179 1.73388 0
M  V30 5412 O 513.061 -4.00124 0.99871 0
M  V30 5413 H 512.402 -0.540954 0.385052 0
M  V30 5414 H 514.932 -1.22546 1.6384 0
M  V30 5415 H 514.942 -3.66741 1.78788 0
M  V30 5416 H 513.617 -3.08917 2.78466 0
M  V30 5417 H 512.194 -3.58624 1.02193 0
M  V30 5418 N 514.379 -1.04941 -1.1758 0
M  V30 5419 C 515.311 -0.606174 -2.21039 0
M  V30 5420 C 516.324 0.328763 -1.59446 0
M  V30 5421 O 517.513 0.121895 -1.78083 0
M  V30 5422 C 514.613 0.133294 -3.38638 0
M  V30 5423 C 513.786 -0.811711 -4.29802 0
M  V30 5424 C 512.845 -0.113958 -5.26077 0
M  V30 5425 O 511.871 -0.747237 -5.64274 0
M  V30 5426 N 513.073 1.14953 -5.69004 0
M  V30 5427 H 515.838 -1.49606 -2.59689 0
M  V30 5428 H 513.399 -0.930997 -1.32454 0
M  V30 5429 H 515.391 0.610144 -4.00074 0
M  V30 5430 H 513.961 0.924816 -2.98607 0
M  V30 5431 H 513.181 -1.46824 -3.65837 0
M  V30 5432 H 514.469 -1.45326 -4.87604 0
M  V30 5433 H 513.867 1.68441 -5.40041 0
M  V30 5434 H 512.424 1.57049 -6.32597 0
M  V30 5435 N 515.857 1.33968 -0.830081 0
M  V30 5436 C 517.082 2.02813 -0.433796 0
M  V30 5437 C 517.507 1.62076 0.954614 0
M  V30 5438 O 516.865 0.808955 1.62252 0
M  V30 5439 C 516.913 3.56348 -0.552115 0
M  V30 5440 O 516.017 4.10202 0.425191 0
M  V30 5441 H 515.358 0.639817 -0.177567 0
M  V30 5442 H 517.888 1.7106 -1.12248 0
M  V30 5443 H 517.898 4.05722 -0.430513 0
M  V30 5444 H 516.573 3.85344 -1.56471 0
M  V30 5445 H 515.15 3.71979 0.261878 0
M  V30 5446 N 517.335 0.585699 1.46312 0
M  V30 5447 C 518.583 0.072278 2.01971 0
M  V30 5448 C 518.904 -1.29345 1.45928 0
M  V30 5449 O 518.174 -1.84973 0.645109 0
M  V30 5450 H 516.754 0.023729 0.746623 0
M  V30 5451 H 519.416 0.762155 1.7938 0
M  V30 5452 H 518.512 0.00552767 3.121 0
M  V30 5453 N 518.813 -1.54241 0.323641 0
M  V30 5454 C 519.723 -2.28033 -0.551205 0
M  V30 5455 C 520.739 -1.32388 -1.12913 0
M  V30 5456 O 521.915 -1.65403 -1.14908 0
M  V30 5457 C 518.98 -3.02382 -1.69606 0
M  V30 5458 C 518.041 -4.13612 -1.14993 0
M  V30 5459 C 517.274 -4.84407 -2.24022 0
M  V30 5460 O 517.497 -4.54716 -3.44368 0
M  V30 5461 O 516.431 -5.71312 -1.89436 0
M  V30 5462 H 520.257 -3.03662 0.048066 0
M  V30 5463 H 517.842 -1.49133 0.0893289 0
M  V30 5464 H 519.724 -3.48941 -2.36259 0
M  V30 5465 H 518.399 -2.29628 -2.28151 0
M  V30 5466 H 517.306 -3.71402 -0.448484 0
M  V30 5467 H 518.639 -4.8841 -0.609608 0
M  V30 5468 N 520.291 -0.0518155 -1.57515 0
M  V30 5469 C 521.519 0.631395 -1.9703 0
M  V30 5470 C 521.934 1.64341 -0.92938 0
M  V30 5471 O 521.291 1.82296 0.0863266 0
M  V30 5472 C 521.342 1.31774 -3.36627 0
M  V30 5473 O 521.063 0.346247 -4.3673 0
M  V30 5474 C 522.564 2.09065 -3.90905 0
M  V30 5475 H 519.784 0.172576 -0.648428 0
M  V30 5476 H 522.328 -0.118306 -2.04158 0
M  V30 5477 H 520.483 2.01867 -3.30649 0
M  V30 5478 H 520.897 0.836226 -5.17791 0
M  V30 5479 H 522.371 2.52508 -4.9086 0
M  V30 5480 H 522.848 2.93908 -3.26366 0
M  V30 5481 H 523.454 1.43882 -4.00223 0
M  V30 5482 N 521.769 1.56035 0.221574 0
M  V30 5483 C 522.732 1.91584 1.2581 0
M  V30 5484 C 523.732 0.794425 1.39805 0
M  V30 5485 O 524.922 1.06217 1.38071 0
M  V30 5486 C 522.054 2.16663 2.63192 0
M  V30 5487 H 523.247 2.8429 0.954935 0
M  V30 5488 H 520.8 1.49316 0.461988 0
M  V30 5489 H 521.535 1.26508 2.98607 0
M  V30 5490 H 521.32 2.98358 2.5441 0
M  V30 5491 H 522.81 2.45262 3.37988 0
M  V30 5492 N 523.247 -0.488276 1.49845 0
M  V30 5493 C 524.524 -1.24959 1.50481 0
M  V30 5494 C 524.904 -2.09735 0.239698 0
M  V30 5495 O 524.252 -2.14865 -0.777524 0
M  V30 5496 C 524.462 -2.0954 2.79095 0
M  V30 5497 C 525.81 -2.68305 3.29086 0
M  V30 5498 O 526.834 -2.19797 2.80299 0
M  V30 5499 O 525.693 -3.56643 4.14087 0
M  V30 5500 H 522.787 -0.566133 0.602845 0
M  V30 5501 H 525.333 -0.501504 1.6212 0
M  V30 5502 H 524.105 -1.46958 3.62656 0
M  V30 5503 H 523.728 -2.91517 2.70377 0
M  V30 5504 N 524.725 -1.39134 -0.740242 0
M  V30 5505 C 525.953 -1.39334 -1.5295 0
M  V30 5506 C 526.368 0.0135008 -1.88795 0
M  V30 5507 O 525.725 0.983524 -1.5373 0
M  V30 5508 C 525.776 -2.2614 -2.82034 0
M  V30 5509 O 525.497 -3.61345 -2.47712 0
M  V30 5510 C 526.998 -2.34666 -3.76094 0
M  V30 5511 H 524.218 -0.476103 -0.472828 0
M  V30 5512 H 526.762 -1.82883 -0.9151 0
M  V30 5513 H 524.917 -1.86018 -3.39818 0
M  V30 5514 H 525.331 -4.07194 -3.30595 0
M  V30 5515 H 526.805 -2.99663 -4.63579 0
M  V30 5516 H 527.282 -1.36426 -4.17474 0
M  V30 5517 H 527.888 -2.75236 -3.2423 0
M  V30 5518 N 526.204 0.969867 -1.24223 0
M  V30 5519 C 527.134 2.08191 -1.05729 0
M  V30 5520 C 528.115 1.70075 0.0290765 0
M  V30 5521 O 529.3 1.93712 -0.137583 0
M  V30 5522 C 526.43 3.40991 -0.658995 0
M  V30 5523 C 525.384 3.93054 -1.69389 0
M  V30 5524 C 524.71 5.22171 -1.15072 0
M  V30 5525 C 526.01 4.21137 -3.08935 0
M  V30 5526 H 527.704 2.23921 -1.98746 0
M  V30 5527 H 525.25 1.07602 -0.956967 0
M  V30 5528 H 527.203 4.18221 -0.51662 0
M  V30 5529 H 525.927 3.25155 0.30686 0
M  V30 5530 H 524.586 3.17977 -1.82444 0
M  V30 5531 H 524.234 5.02694 -0.175539 0
M  V30 5532 H 523.934 5.57973 -1.84229 0
M  V30 5533 H 525.458 6.02013 -1.02042 0
M  V30 5534 H 526.872 4.8908 -2.99121 0
M  V30 5535 H 525.269 4.68163 -3.75425 0
M  V30 5536 H 526.339 3.27996 -3.57137 0
M  V30 5537 N 527.682 1.05563 1.17022 0
M  V30 5538 C 528.645 0.664098 2.19368 0
M  V30 5539 C 529.645 -0.286358 1.5823 0
M  V30 5540 O 530.835 -0.069728 1.7406 0
M  V30 5541 C 527.967 -0.0239932 3.40892 0
M  V30 5542 H 529.16 1.57 2.55521 0
M  V30 5543 H 526.713 0.849964 1.31169 0
M  V30 5544 H 527.448 -0.942988 3.10287 0
M  V30 5545 H 527.233 0.659351 3.86516 0
M  V30 5546 H 528.723 -0.283909 4.16634 0
M  V30 5547 N 529.16 -1.33526 0.837174 0
M  V30 5548 C 530.408 -1.97446 0.431211 0
M  V30 5549 C 530.729 -1.6665 -1.01255 0
M  V30 5550 O 529.999 -0.964559 -1.70508 0
M  V30 5551 H 528.579 -0.73043 0.156463 0
M  V30 5552 H 531.241 -1.62918 1.06976 0
M  V30 5553 H 530.337 -3.07001 0.561877 0
M  V30 5554 N 530.638 -0.59345 -1.46 0
M  V30 5555 C 531.568 0.121192 -2.33185 0
M  V30 5556 C 532.549 0.872977 -1.4599 0
M  V30 5557 O 533.734 0.846321 -1.74789 0
M  V30 5558 C 530.864 1.12844 -3.28456 0
M  V30 5559 C 529.818 0.4908 -4.25177 0
M  V30 5560 C 529.144 1.60529 -5.10034 0
M  V30 5561 C 530.444 -0.578949 -5.19081 0
M  V30 5562 H 532.138 -0.606767 -2.93187 0
M  V30 5563 H 529.684 -0.293242 -1.40983 0
M  V30 5564 H 531.637 1.63684 -3.88311 0
M  V30 5565 H 530.361 1.88681 -2.66584 0
M  V30 5566 H 529.02 0.00339328 -3.666 0
M  V30 5567 H 528.668 2.35359 -4.44539 0
M  V30 5568 H 528.368 1.18422 -5.75543 0
M  V30 5569 H 529.892 2.11623 -5.72755 0
M  V30 5570 H 531.306 -0.155199 -5.7309 0
M  V30 5571 H 529.703 -0.920947 -5.92991 0
M  V30 5572 H 530.773 -1.46109 -4.62364 0
M  V30 5573 N 532.116 1.54067 -0.331816 0
M  V30 5574 C 533.532 1.59587 0.0205388 0
M  V30 5575 C 533.732 1.34813 1.49759 0
M  V30 5576 O 532.788 1.13661 2.25471 0
M  V30 5577 C 534.101 2.97959 -0.405103 0
M  V30 5578 C 535.649 3.10964 -0.356454 0
M  V30 5579 C 536.124 4.51694 -0.757384 0
M  V30 5580 N 537.615 4.57709 -0.71111 0
M  V30 5581 C 538.35 5.64729 -0.993427 0
M  V30 5582 N 537.846 6.79652 -1.3433 0
M  V30 5583 N 539.639 5.54546 -0.918442 0
M  V30 5584 H 531.79 1.68426 -1.29407 0
M  V30 5585 H 534.053 0.78819 -0.526745 0
M  V30 5586 H 533.759 3.21115 -1.43451 0
M  V30 5587 H 533.633 3.76524 0.225692 0
M  V30 5588 H 536.02 2.87538 0.663763 0
M  V30 5589 H 536.101 2.34484 -1.02229 0
M  V30 5590 H 535.745 4.75853 -1.77555 0
M  V30 5591 H 535.675 5.26555 -0.0691444 0
M  V30 5592 H 538.166 3.75176 -0.452883 0
M  V30 5593 H 538.479 7.57221 -1.54388 0
M  V30 5594 H 536.824 6.81128 -1.38164 0
M  V30 5595 H 540.015 4.63641 -0.644536 0
M  V30 5596 H 540.188 6.37861 -1.14181 0
M  V30 5597 N 533.594 0.0601682 1.57485 0
M  V30 5598 C 534.524 -0.90889 2.15085 0
M  V30 5599 C 535.505 -1.31838 1.07484 0
M  V30 5600 O 536.69 -1.3915 1.35466 0
M  V30 5601 C 533.82 -2.18059 2.7031 0
M  V30 5602 C 532.774 -1.91088 3.82974 0
M  V30 5603 C 532.1 -3.24789 4.24754 0
M  V30 5604 C 533.4 -1.22535 5.07723 0
M  V30 5605 H 535.094 -0.429093 2.96309 0
M  V30 5606 H 532.64 -0.204952 1.42534 0
M  V30 5607 H 534.593 -2.86258 3.09248 0
M  V30 5608 H 533.317 -2.6826 1.8629 0
M  V30 5609 H 531.976 -1.25297 3.44523 0
M  V30 5610 H 531.624 -3.72809 3.37672 0
M  V30 5611 H 531.324 -3.07538 5.00694 0
M  V30 5612 H 532.848 -3.94205 4.66299 0
M  V30 5613 H 534.262 -1.80783 5.4405 0
M  V30 5614 H 532.659 -1.1558 5.88864 0
M  V30 5615 H 533.729 -0.202692 4.84476 0
M  V30 5616 N 535.072 -1.5615 -0.213296 0
M  V30 5617 C 536.297 -1.83986 -0.957282 0
M  V30 5618 C 536.722 -0.641526 -1.76822 0
M  V30 5619 O 536.08 0.409722 -1.7661 0
M  V30 5620 C 536.128 -3.09889 -1.84393 0
M  V30 5621 O 535.232 -2.89163 -2.94038 0
M  V30 5622 H 534.573 -0.606357 -0.270605 0
M  V30 5623 H 537.103 -2.03369 -0.224111 0
M  V30 5624 H 537.113 -3.40209 -2.25215 0
M  V30 5625 H 535.788 -3.96735 -1.24795 0
M  V30 5626 H 534.365 -2.70097 -2.57103 0
M  V30 5627 N 536.55 0.480323 -1.50102 0
M  V30 5628 C 537.497 1.57946 -1.6829 0
M  V30 5629 C 538.467 1.57611 -0.524223 0
M  V30 5630 O 539.652 1.75282 -0.753709 0
M  V30 5631 C 536.792 2.95978 -1.77457 0
M  V30 5632 C 535.905 3.06173 -3.04766 0
M  V30 5633 C 535.04 4.35063 -3.04784 0
M  V30 5634 C 534.079 4.38966 -4.26586 0
M  V30 5635 N 533.216 5.59314 -4.24396 0
M  V30 5636 H 538.056 1.41743 -2.62131 0
M  V30 5637 H 535.593 0.689304 -1.2995 0
M  V30 5638 H 537.551 3.76011 -1.80752 0
M  V30 5639 H 536.181 3.10837 -0.870637 0
M  V30 5640 H 535.233 2.19071 -3.10986 0
M  V30 5641 H 536.545 3.04916 -3.9475 0
M  V30 5642 H 535.699 5.23436 -3.06757 0
M  V30 5643 H 534.438 4.38915 -2.12614 0
M  V30 5644 H 533.443 3.48992 -4.24835 0
M  V30 5645 H 534.668 4.36813 -5.19972 0
M  V30 5646 H 532.614 5.63969 -3.35074 0
M  V30 5647 H 532.531 5.5976 -5.08138 0
M  V30 5648 H 533.799 6.49837 -4.30502 0
M  V30 5649 N 538.028 1.39524 0.732853 0
M  V30 5650 C 538.938 1.40695 1.87729 0
M  V30 5651 C 539.954 0.301496 1.71368 0
M  V30 5652 O 541.13 0.543313 1.93933 0
M  V30 5653 C 538.195 1.25098 3.23344 0
M  V30 5654 C 537.256 2.45634 3.52083 0
M  V30 5655 C 536.489 2.30772 4.81228 0
M  V30 5656 O 536.712 1.31233 5.55098 0
M  V30 5657 O 535.646 3.19799 5.09914 0
M  V30 5658 H 539.472 2.37168 1.89697 0
M  V30 5659 H 537.057 1.20663 0.880959 0
M  V30 5660 H 538.939 1.18541 4.04383 0
M  V30 5661 H 537.614 0.317209 3.22142 0
M  V30 5662 H 536.521 2.57767 2.71122 0
M  V30 5663 H 537.854 3.37712 3.58066 0
M  V30 5664 N 539.506 -0.963266 1.24736 0
M  V30 5665 C 540.436 -2.07628 1.06832 0
M  V30 5666 C 541.417 -1.70088 -0.0200566 0
M  V30 5667 O 542.602 -1.93636 0.147854 0
M  V30 5668 C 539.732 -3.40636 0.677069 0
M  V30 5669 C 538.686 -3.9215 1.71471 0
M  V30 5670 C 538.012 -5.21553 1.1784 0
M  V30 5671 C 539.312 -4.19493 3.11164 0
M  V30 5672 H 541.006 -2.22864 1.9993 0
M  V30 5673 H 538.552 -1.07093 0.96266 0
M  V30 5674 H 540.505 -4.17941 0.538792 0
M  V30 5675 H 539.229 -3.25313 -0.289612 0
M  V30 5676 H 537.888 -3.17005 1.84128 0
M  V30 5677 H 537.536 -5.02593 0.202195 0
M  V30 5678 H 537.236 -5.56988 1.87185 0
M  V30 5679 H 538.76 -6.01463 1.05233 0
M  V30 5680 H 540.174 -4.87487 3.01711 0
M  V30 5681 H 538.571 -4.66165 3.77902 0
M  V30 5682 H 539.641 -3.26097 3.58871 0
M  V30 5683 N 540.985 -1.06182 -1.16461 0
M  V30 5684 C 542.233 -0.776326 -1.86595 0
M  V30 5685 C 542.554 0.69921 -1.82033 0
M  V30 5686 O 541.824 1.50579 -1.2531 0
M  V30 5687 H 540.404 -0.284184 -0.690832 0
M  V30 5688 H 543.066 -1.34308 -1.41235 0
M  V30 5689 H 542.162 -1.10022 -2.92064 0
M  V30 5690 N 542.463 1.3308 -0.844243 0
M  V30 5691 C 543.693 2.01515 -0.455541 0
M  V30 5692 C 544.101 1.63655 0.949406 0
M  V30 5693 O 543.444 0.84848 1.62931 0
M  V30 5694 C 543.506 3.55967 -0.502801 0
M  V30 5695 C 543.17 4.17222 -1.86481 0
M  V30 5696 C 544.167 4.36205 -2.8288 0
M  V30 5697 C 541.852 4.53528 -2.15911 0
M  V30 5698 C 543.846 4.90649 -4.06869 0
M  V30 5699 C 541.533 5.07679 -3.40155 0
M  V30 5700 C 542.531 5.26186 -4.35451 0
M  V30 5701 O 542.219 5.79183 -5.57496 0
M  V30 5702 H 541.951 0.65199 -0.178565 0
M  V30 5703 H 544.505 1.70867 -1.1399 0
M  V30 5704 H 542.735 3.85965 0.23836 0
M  V30 5705 H 544.424 4.05688 -0.131169 0
M  V30 5706 H 545.19 4.085 -2.61444 0
M  V30 5707 H 541.069 4.38414 -1.42528 0
M  V30 5708 H 544.613 5.0501 -4.81259 0
M  V30 5709 H 540.51 5.34815 -3.61446 0
M  V30 5710 H 541.278 5.97591 -5.5931 0
M  V30 5711 N 543.941 0.601185 1.45683 0
M  V30 5712 C 544.871 -0.108824 2.33246 0
M  V30 5713 C 545.852 -0.865223 1.46451 0
M  V30 5714 O 547.037 -0.83704 1.75235 0
M  V30 5715 C 544.167 -1.11101 3.2905 0
M  V30 5716 C 543.121 -0.468244 4.25431 0
M  V30 5717 C 542.447 -1.57822 5.10878 0
M  V30 5718 C 543.747 0.606469 5.18767 0
M  V30 5719 H 545.441 0.622306 2.92861 0
M  V30 5720 H 542.987 0.300714 1.40825 0
M  V30 5721 H 544.94 -1.61622 3.89174 0
M  V30 5722 H 543.664 -1.87265 2.67581 0
M  V30 5723 H 542.323 0.0160484 3.66596 0
M  V30 5724 H 541.971 -2.32998 4.45781 0
M  V30 5725 H 541.671 -1.15369 5.76163 0
M  V30 5726 H 543.195 -2.08583 5.73869 0
M  V30 5727 H 544.609 0.185589 5.73 0
M  V30 5728 H 543.006 0.952381 5.92494 0
M  V30 5729 H 544.076 1.48559 4.61582 0
M  V30 5730 N 545.419 -1.53889 0.339982 0
M  V30 5731 C 546.667 -2.00458 -0.257112 0
M  V30 5732 C 546.988 -1.22953 -1.51353 0
M  V30 5733 O 546.258 -0.335734 -1.93002 0
M  V30 5734 H 544.838 -0.740544 -0.0979965 0
M  V30 5735 H 547.5 -1.89386 0.460317 0
M  V30 5736 H 546.596 -3.08035 -0.502057 0
M  V30 5737 N 546.897 -0.0685191 -1.57451 0
M  V30 5738 C 548.122 0.613919 -1.98106 0
M  V30 5739 C 548.547 1.62551 -0.946501 0
M  V30 5740 O 547.905 1.81085 0.0882824 0
M  V30 5741 C 547.953 1.26189 -3.378 0
M  V30 5742 O 547.057 2.37773 -3.36954 0
M  V30 5743 H 546.398 0.158163 -0.644888 0
M  V30 5744 H 548.928 -0.142063 -2.04106 0
M  V30 5745 H 548.938 1.60951 -3.74912 0
M  V30 5746 H 547.613 0.520625 -4.12629 0
M  V30 5747 H 546.19 2.04829 -3.11608 0
M  V30 5748 N 548.375 1.56261 0.205012 0
M  V30 5749 C 549.305 1.96779 1.257 0
M  V30 5750 C 550.286 0.838309 1.48008 0
M  V30 5751 O 551.471 1.10189 1.59913 0
M  V30 5752 C 548.601 2.29876 2.60335 0
M  V30 5753 C 547.555 3.45469 2.52656 0
M  V30 5754 C 546.881 3.64215 3.91473 0
M  V30 5755 C 548.181 4.79954 2.06014 0
M  V30 5756 H 549.875 2.84904 0.920338 0
M  V30 5757 H 547.421 1.37072 0.441277 0
M  V30 5758 H 549.374 2.56814 3.34102 0
M  V30 5759 H 548.098 1.38622 2.95722 0
M  V30 5760 H 546.757 3.18605 1.81345 0
M  V30 5761 H 546.405 2.70309 4.24196 0
M  V30 5762 H 546.105 4.41973 3.87213 0
M  V30 5763 H 547.629 3.93519 4.66878 0
M  V30 5764 H 549.043 5.05989 2.69533 0
M  V30 5765 H 547.44 5.61111 2.12777 0
M  V30 5766 H 548.51 4.74201 1.01297 0
M  V30 5767 N 549.853 -0.472356 1.50355 0
M  V30 5768 C 550.816 -1.5529 1.68576 0
M  V30 5769 C 551.816 -1.50863 0.556511 0
M  V30 5770 O 553.006 -1.53505 0.823516 0
M  V30 5771 C 550.138 -2.94921 1.70981 0
M  V30 5772 H 551.331 -1.40451 2.64978 0
M  V30 5773 H 548.884 -0.698645 1.39816 0
M  V30 5774 H 549.619 -3.15204 0.762675 0
M  V30 5775 H 549.404 -2.99541 2.53017 0
M  V30 5776 H 550.894 -3.73372 1.87037 0
M  V30 5777 N 551.331 -1.39911 -0.725443 0
M  V30 5778 C 552.58 -1.36963 -1.48068 0
M  V30 5779 C 552.893 0.0284478 -1.95579 0
M  V30 5780 O 554.099 0.180535 -2.70899 0
M  V30 5781 C 552.555 -2.40664 -2.67598 0
M  V30 5782 C 552.163 -3.86234 -2.26997 0
M  V30 5783 C 553.907 -2.46807 -3.45379 0
M  V30 5784 C 551.814 -4.81554 -3.43307 0
M  V30 5785 H 550.744 -0.509223 -0.556065 0
M  V30 5786 H 553.395 -1.65602 -0.790454 0
M  V30 5787 H 551.777 -2.05109 -3.38742 0
M  V30 5788 H 552.951 -4.3088 -1.63337 0
M  V30 5789 H 551.266 -3.83475 -1.62284 0
M  V30 5790 H 553.863 -3.15213 -4.31909 0
M  V30 5791 H 554.206 -1.49552 -3.8851 0
M  V30 5792 H 554.739 -2.81303 -2.81271 0
M  V30 5793 H 551.478 -5.80106 -3.05217 0
M  V30 5794 H 550.998 -4.4158 -4.05915 0
M  V30 5795 H 552.677 -5.0091 -4.0951 0
M  V30 5796 N 552.809 0.956637 -1.25245 0
M  V30 5797 C 554.049 1.71585 -1.11076 0
M  V30 5798 C 554.413 1.88916 0.34277 0
M  V30 5799 O 555.614 2.61875 0.606227 0
M  V30 5800 C 553.885 3.06267 -1.84215 0
M  V30 5801 S 555.444 3.97469 -1.85914 0
M  V30 5802 H 552.262 0.589803 -0.397055 0
M  V30 5803 H 554.864 1.14114 -1.58739 0
M  V30 5804 H 553.568 2.91322 -2.89067 0
M  V30 5805 H 553.099 3.688 -1.36931 0
M  V30 5806 H 555.114 4.87316 -0.93474 0
M  V30 5807 N 554.287 1.06798 1.15896 0
M  V30 5808 C 555.235 0.677525 2.22514 0
M  V30 5809 C 556.229 -0.308994 1.66558 0
M  V30 5810 O 557.435 -0.173308 1.79164 0
M  V30 5811 H 553.81 0.200994 0.724642 0
M  V30 5812 H 555.781 1.5865 2.52731 0
M  V30 5813 C 554.53 0.0854153 3.47595 0
M  V30 5814 H 553.853 0.835645 3.90969 0
M  V30 5815 H 555.293 -0.150199 4.23734 0
M  V30 5816 C 553.752 -1.1724 3.15843 0
M  V30 5817 O 554.282 -2.25965 3.32119 0
M  V30 5818 N 552.488 -1.07636 2.69931 0
M  V30 5819 H 552.035 -0.191559 2.56887 0
M  V30 5820 H 551.993 -1.91876 2.4906 0
M  V30 5821 N 555.766 -1.3263 0.851289 0
M  V30 5822 C 557.012 -1.9766 0.453694 0
M  V30 5823 C 557.345 -1.67225 -0.987396 0
M  V30 5824 O 556.62 -0.958693 -1.69232 0
M  V30 5825 C 556.903 -3.5344 0.68936 0
M  V30 5826 C 556.756 -3.93517 2.17862 0
M  V30 5827 C 558.075 -4.39866 0.143555 0
M  V30 5828 H 555.194 -0.717989 0.166314 0
M  V30 5829 H 557.836 -1.57068 1.06909 0
M  V30 5830 H 555.986 -3.88147 0.165546 0
M  V30 5831 H 557.658 -3.69006 2.76826 0
M  V30 5832 H 555.901 -3.42798 2.65841 0
M  V30 5833 H 556.572 -5.02065 2.29422 0
M  V30 5834 H 559.048 -4.11875 0.591451 0
M  V30 5835 H 557.924 -5.47858 0.338043 0
M  V30 5836 H 558.185 -4.31696 -0.953466 0
M  V30 5837 N 557.244 -0.608902 -1.45362 0
M  V30 5838 C 558.655 -0.189511 -1.85736 0
M  V30 5839 C 559.006 1.2539 -1.50903 0
M  V30 5840 O 558.131 1.95094 -0.936347 0
M  V30 5841 C 558.726 -0.33716 -3.37118 0
M  V30 5842 C 557.285 0.0275487 -3.7639 0
M  V30 5843 C 556.432 -0.660983 -2.69307 0
M  V30 5844 H 559.383 -0.815499 -1.36144 0
M  V30 5845 H 559.404 0.430257 -3.7806 0
M  V30 5846 H 558.916 -1.38779 -3.62439 0
M  V30 5847 H 557.017 1.0773 -3.56686 0
M  V30 5848 H 557.13 -0.367018 -4.77692 0
M  V30 5849 H 555.494 -0.0984958 -2.54509 0
M  V30 5850 H 556.277 -1.71377 -2.97464 0
M  V30 5851 N 558.722 1.53707 -0.348139 0
M  V30 5852 C 559.97 2.00591 0.246478 0
M  V30 5853 C 560.291 1.23753 1.50699 0
M  V30 5854 O 559.561 0.345964 1.92821 0
M  V30 5855 H 558.141 0.741053 0.0940679 0
M  V30 5856 H 560.803 1.89139 -0.470354 0
M  V30 5857 H 559.899 3.08297 0.485714 0
M  V30 5858 N 560.2 0.0768682 1.57412 0
M  V30 5859 C 561.425 -0.603404 1.98428 0
M  V30 5860 C 561.85 -1.62047 0.955108 0
M  V30 5861 O 561.208 -1.81129 -0.0786778 0
M  V30 5862 C 561.256 -1.24396 3.38464 0
M  V30 5863 O 560.36 -2.35982 3.3821 0
M  V30 5864 H 559.701 -0.154741 0.645718 0
M  V30 5865 H 562.231 0.152885 2.04028 0
M  V30 5866 H 562.241 -1.5896 3.7576 0
M  V30 5867 H 560.916 -0.498735 4.12899 0
M  V30 5868 H 559.493 -2.03173 3.1269 0
M  V30 5869 N 561.678 -1.56367 -0.196722 0
M  V30 5870 C 562.903 -1.84991 -0.937714 0
M  V30 5871 C 563.328 -0.660244 -1.76132 0
M  V30 5872 O 562.686 0.390967 -1.77034 0
M  V30 5873 C 562.734 -3.11828 -1.81096 0
M  V30 5874 O 561.838 -2.92266 -2.90955 0
M  V30 5875 H 561.179 -0.609193 -0.264159 0
M  V30 5876 H 563.709 -2.03595 -0.202529 0
M  V30 5877 H 563.719 -3.42579 -2.21594 0
M  V30 5878 H 562.394 -3.98037 -1.2058 0
M  V30 5879 H 560.971 -2.72809 -2.54224 0
M  V30 5880 N 563.156 0.464375 -1.50603 0
M  V30 5881 C 564.086 1.56944 -1.72889 0
M  V30 5882 C 565.067 1.59979 -0.577997 0
M  V30 5883 O 566.252 1.76138 -0.817855 0
M  V30 5884 C 563.382 2.95225 -1.8292 0
M  V30 5885 C 562.336 3.07056 -2.98162 0
M  V30 5886 C 561.662 4.47051 -2.93343 0
M  V30 5887 C 562.962 2.83648 -4.38567 0
M  V30 5888 H 564.656 1.38547 -2.65415 0
M  V30 5889 H 562.202 0.665082 -1.27721 0
M  V30 5890 H 564.155 3.72467 -1.97095 0
M  V30 5891 H 562.879 3.14793 -0.870209 0
M  V30 5892 H 561.538 2.32248 -2.83648 0
M  V30 5893 H 561.186 4.63547 -1.95276 0
M  V30 5894 H 560.886 4.55902 -3.70712 0
M  V30 5895 H 562.41 5.26304 -3.09575 0
M  V30 5896 H 563.824 3.50636 -4.53572 0
M  V30 5897 H 562.221 3.03937 -5.17438 0
M  V30 5898 H 563.291 1.79451 -4.50472 0
M  V30 5899 N 564.634 1.40294 0.718013 0
M  V30 5900 C 565.88 1.38645 1.48005 0
M  V30 5901 C 566.213 -0.0121202 1.94196 0
M  V30 5902 O 565.488 -0.980309 1.67989 0
M  V30 5903 C 565.771 2.37379 2.70782 0
M  V30 5904 C 565.624 3.8625 2.30501 0
M  V30 5905 C 566.943 2.33685 3.72933 0
M  V30 5906 H 564.062 0.504928 0.536858 0
M  V30 5907 H 566.704 1.71411 0.819649 0
M  V30 5908 H 564.854 2.09568 3.27129 0
M  V30 5909 H 566.526 4.24879 1.79655 0
M  V30 5910 H 564.769 4.02202 1.6253 0
M  V30 5911 H 565.44 4.50847 3.18498 0
M  V30 5912 H 567.916 2.58314 3.2621 0
M  V30 5913 H 566.792 3.0482 4.56482 0
M  V30 5914 H 567.053 1.34765 4.21059 0
M  V30 5915 N 566.112 -0.949982 1.2575 0
M  V30 5916 C 567.528 -1.22191 1.02672 0
M  V30 5917 C 567.728 -1.99898 -0.253588 0
M  V30 5918 O 566.784 -2.33329 -0.965076 0
M  V30 5919 C 568.097 -1.99175 2.25277 0
M  V30 5920 C 569.645 -2.12201 2.30087 0
M  V30 5921 C 570.12 -2.92586 3.5236 0
M  V30 5922 N 571.611 -3.00163 3.52784 0
M  V30 5923 C 572.346 -3.62766 4.44059 0
M  V30 5924 N 571.842 -4.26943 5.45611 0
M  V30 5925 N 573.635 -3.59953 4.3173 0
M  V30 5926 H 565.786 -0.430258 2.07996 0
M  V30 5927 H 568.049 -0.252844 0.91366 0
M  V30 5928 H 567.755 -1.49479 3.18354 0
M  V30 5929 H 567.629 -2.99868 2.28821 0
M  V30 5930 H 570.016 -2.61093 1.3753 0
M  V30 5931 H 570.097 -1.10799 2.30559 0
M  V30 5932 H 569.741 -2.44383 4.45241 0
M  V30 5933 H 569.671 -3.94224 3.49134 0
M  V30 5934 H 572.162 -2.54529 2.79327 0
M  V30 5935 H 572.475 -4.72583 6.11461 0
M  V30 5936 H 570.82 -4.25557 5.49478 0
M  V30 5937 H 574.011 -3.09003 3.51617 0
M  V30 5938 H 574.184 -4.08455 5.03059 0
M  V30 5939 N 567.59 -1.07411 -1.15328 0
M  V30 5940 C 568.5 -0.706438 -2.23711 0
M  V30 5941 C 569.516 0.282586 -1.7169 0
M  V30 5942 O 570.692 0.129066 -2.00986 0
M  V30 5943 C 567.757 -0.11048 -3.46524 0
M  V30 5944 C 566.818 -1.15282 -4.13532 0
M  V30 5945 C 566.051 -0.585205 -5.30482 0
M  V30 5946 O 566.274 0.598549 -5.67251 0
M  V30 5947 O 565.208 -1.33039 -5.87013 0
M  V30 5948 H 569.034 -1.61031 -2.57493 0
M  V30 5949 H 566.619 -0.847113 -1.23062 0
M  V30 5950 H 568.501 0.21957 -4.20828 0
M  V30 5951 H 567.176 0.766703 -3.14489 0
M  V30 5952 H 566.083 -1.53523 -3.41147 0
M  V30 5953 H 567.416 -2.00192 -4.49649 0
M  V30 5954 N 569.068 1.32177 -0.85831 0
M  V30 5955 C 570.293 2.01847 -0.476718 0
M  V30 5956 C 570.718 1.64065 0.920021 0
M  V30 5957 O 570.076 0.843189 1.60499 0
M  V30 5958 C 570.124 3.55097 -0.627578 0
M  V30 5959 O 569.228 4.11012 0.338086 0
M  V30 5960 H 568.569 0.635907 -0.191099 0
M  V30 5961 H 571.099 1.68641 -1.15851 0
M  V30 5962 H 571.109 4.04718 -0.516476 0
M  V30 5963 H 569.784 3.81938 -1.64609 0
M  V30 5964 H 568.361 3.72451 0.182917 0
M  V30 5965 N 570.547 0.616602 1.45037 0
M  V30 5966 C 571.824 0.0469086 1.95544 0
M  V30 5967 C 572.204 -1.42345 1.55888 0
M  V30 5968 O 571.552 -2.13055 0.825824 0
M  V30 5969 C 571.762 0.254489 3.48071 0
M  V30 5970 C 573.11 0.140025 4.24369 0
M  V30 5971 O 574.134 0.185084 3.55719 0
M  V30 5972 O 572.993 0.0327034 5.4649 0
M  V30 5973 H 570.087 -0.0306051 0.826433 0
M  V30 5974 H 572.633 0.687293 1.55159 0
M  V30 5975 H 571.405 1.27532 3.69934 0
M  V30 5976 H 571.028 -0.42073 3.95368 0
M  V30 5977 N 572.025 -1.5352 0.356285 0
M  V30 5978 C 572.955 -2.28372 -0.486661 0
M  V30 5979 C 573.936 -1.30432 -1.09185 0
M  V30 5980 O 575.121 -1.59291 -1.11085 0
M  V30 5981 C 572.251 -3.06604 -1.63129 0
M  V30 5982 C 571.205 -4.12154 -1.15381 0
M  V30 5983 C 570.531 -4.78415 -2.38796 0
M  V30 5984 C 571.831 -5.21724 -0.245179 0
M  V30 5985 H 573.525 -2.99083 0.137797 0
M  V30 5986 H 571.071 -1.43841 0.0677134 0
M  V30 5987 H 573.024 -3.57712 -2.22755 0
M  V30 5988 H 571.748 -2.33568 -2.28284 0
M  V30 5989 H 570.407 -3.61978 -0.580294 0
M  V30 5990 H 570.055 -4.01959 -3.02387 0
M  V30 5991 H 569.755 -5.49734 -2.07524 0
M  V30 5992 H 571.279 -5.32313 -2.99125 0
M  V30 5993 H 572.693 -5.68391 -0.748646 0
M  V30 5994 H 571.09 -6.00095 -0.0237608 0
M  V30 5995 H 572.16 -4.79596 0.715229 0
M  V30 5996 N 573.503 -0.0852151 -1.57369 0
M  V30 5997 C 574.466 0.8627 -2.12344 0
M  V30 5998 C 575.466 1.21746 -1.05046 0
M  V30 5999 O 576.656 1.14852 -1.30976 0
M  V30 6000 C 573.788 2.1618 -2.63589 0
M  V30 6001 H 574.981 0.385511 -2.97412 0
M  V30 6002 H 572.534 0.163663 -1.55441 0
M  V30 6003 H 573.269 2.68406 -1.82013 0
M  V30 6004 H 573.054 1.91723 -3.4203 0
M  V30 6005 H 574.544 2.84011 -3.06149 0
M  V30 6006 N 574.981 1.5647 0.188427 0
M  V30 6007 C 575.911 1.98101 1.23606 0
M  V30 6008 C 576.892 0.853961 1.47111 0
M  V30 6009 O 578.077 1.11879 1.58735 0
M  V30 6010 C 575.207 2.32624 2.57882 0
M  V30 6011 C 574.161 3.48129 2.48978 0
M  V30 6012 C 573.487 3.68347 3.87588 0
M  V30 6013 C 574.787 4.82112 2.00911 0
M  V30 6014 H 576.481 2.85864 0.890068 0
M  V30 6015 H 574.027 1.37532 0.426714 0
M  V30 6016 H 575.98 2.60343 3.3136 0
M  V30 6017 H 574.704 1.41751 2.94235 0
M  V30 6018 H 573.363 3.20511 1.77956 0
M  V30 6019 H 573.011 2.74793 4.21305 0
M  V30 6020 H 572.711 4.46055 3.82503 0
M  V30 6021 H 574.235 3.98449 4.62678 0
M  V30 6022 H 575.649 5.08819 2.64151 0
M  V30 6023 H 574.046 5.63337 2.06814 0
M  V30 6024 H 575.116 4.75249 0.96262 0
M  V30 6025 N 576.459 -0.456382 1.50847 0
M  V30 6026 C 577.392 -1.57177 1.65441 0
M  V30 6027 C 578.37 -1.54649 0.502224 0
M  V30 6028 O 579.554 -1.74057 0.723633 0
M  V30 6029 C 576.681 -2.95763 1.65052 0
M  V30 6030 C 575.727 -3.16389 2.86007 0
M  V30 6031 S 576.56 -2.94716 4.47105 0
M  V30 6032 C 577.716 -4.35617 4.49432 0
M  V30 6033 H 577.949 -1.44561 2.59787 0
M  V30 6034 H 575.482 -0.644758 1.40293 0
M  V30 6035 H 577.44 -3.75654 1.65512 0
M  V30 6036 H 576.101 -3.05756 0.719153 0
M  V30 6037 H 575.294 -4.17667 2.82081 0
M  V30 6038 H 574.896 -2.44293 2.8319 0
M  V30 6039 H 577.188 -5.28503 4.239 0
M  V30 6040 H 578.131 -4.44582 5.51137 0
M  V30 6041 H 578.539 -4.18382 3.78967 0
M  V30 6042 N 577.937 -1.40673 -0.710563 0
M  V30 6043 C 579.165 -1.42547 -1.4996 0
M  V30 6044 C 579.58 -0.0265485 -1.88781 0
M  V30 6045 O 578.937 0.950694 -1.55782 0
M  V30 6046 C 578.988 -2.32071 -2.77173 0
M  V30 6047 O 578.709 -3.66518 -2.39992 0
M  V30 6048 C 580.21 -2.42591 -3.71032 0
M  V30 6049 H 577.43 -0.486025 -0.462623 0
M  V30 6050 H 579.974 -1.84783 -0.876102 0
M  V30 6051 H 578.129 -1.93184 -3.35795 0
M  V30 6052 H 578.543 -4.14115 -3.21884 0
M  V30 6053 H 580.017 -3.09429 -4.57119 0
M  V30 6054 H 580.494 -1.4525 -4.14486 0
M  V30 6055 H 581.1 -2.82051 -3.18319 0
M  V30 6056 N 579.415 0.9433 -1.26252 0
M  V30 6057 C 580.363 2.06302 -1.07434 0
M  V30 6058 C 581.357 1.694 -0.00189471 0
M  V30 6059 O 582.563 1.79302 -0.158408 0
M  V30 6060 H 578.938 0.675453 -0.330556 0
M  V30 6061 H 580.909 2.19326 -2.02333 0
M  V30 6062 C 579.658 3.40125 -0.721817 0
M  V30 6063 H 578.981 3.68996 -1.5389 0
M  V30 6064 H 580.421 4.19295 -0.629922 0
M  V30 6065 C 578.88 3.31993 0.572902 0
M  V30 6066 O 579.41 3.67945 1.61182 0
M  V30 6067 N 577.616 2.85099 0.562748 0
M  V30 6068 H 577.163 2.5604 -0.283092 0
M  V30 6069 H 577.121 2.80041 1.42915 0
M  V30 6070 N 580.893 1.08022 1.14757 0
M  V30 6071 C 581.856 0.71048 2.1791 0
M  V30 6072 C 582.856 -0.252731 1.58801 0
M  V30 6073 O 584.046 -0.0327915 1.74169 0
M  V30 6074 C 581.178 0.0483203 3.40866 0
M  V30 6075 H 582.371 1.62384 2.52134 0
M  V30 6076 H 579.924 0.877595 1.29337 0
M  V30 6077 H 580.659 -0.876959 3.12218 0
M  V30 6078 H 580.444 0.741189 3.85031 0
M  V30 6079 H 581.934 -0.195471 4.17142 0
M  V30 6080 N 582.371 -1.3172 0.865308 0
M  V30 6081 C 583.619 -1.96487 0.472995 0
M  V30 6082 C 583.94 -1.68761 -0.976975 0
M  V30 6083 O 583.21 -1.00051 -1.68424 0
M  V30 6084 H 581.79 -0.726947 0.171922 0
M  V30 6085 H 584.452 -1.60612 1.10407 0
M  V30 6086 H 583.548 -3.0574 0.62687 0
M  V30 6087 N 583.85 -0.624285 -1.44708 0
M  V30 6088 C 585.077 -0.132919 -2.06473 0
M  V30 6089 C 585.493 1.18967 -1.46602 0
M  V30 6090 O 584.85 1.72824 -0.586341 0
M  V30 6091 C 584.901 -0.00465418 -3.615 0
M  V30 6092 O 584.622 -1.27494 -4.19138 0
M  V30 6093 C 586.123 0.516213 -4.40284 0
M  V30 6094 H 583.343 -0.0765201 -0.666623 0
M  V30 6095 H 585.887 -0.856751 -1.85688 0
M  V30 6096 H 584.042 0.669583 -3.8157 0
M  V30 6097 H 584.456 -1.11536 -5.12504 0
M  V30 6098 H 585.93 0.554994 -5.49203 0
M  V30 6099 H 586.407 1.5419 -4.11245 0
M  V30 6100 H 587.013 -0.124542 -4.25118 0
M  V30 6101 N 585.328 1.53329 -0.364422 0
M  V30 6102 C 586.238 2.29414 0.490552 0
M  V30 6103 C 587.254 1.35335 1.09363 0
M  V30 6104 O 588.43 1.68391 1.10483 0
M  V30 6105 C 585.495 3.06772 1.61529 0
M  V30 6106 C 584.556 4.16516 1.03986 0
M  V30 6107 C 583.789 4.90176 2.111 0
M  V30 6108 O 584.012 4.63687 3.32191 0
M  V30 6109 O 582.946 5.76134 1.74222 0
M  V30 6110 H 586.772 3.03428 -0.12856 0
M  V30 6111 H 584.357 1.48843 -0.128837 0
M  V30 6112 H 586.239 3.55082 2.26924 0
M  V30 6113 H 584.914 2.35596 2.21983 0
M  V30 6114 H 583.821 3.7246 0.349856 0
M  V30 6115 H 585.154 4.89855 0.4799 0
M  V30 6116 N 586.806 0.0935595 1.57322 0
M  V30 6117 C 588.055 -0.570191 1.93473 0
M  V30 6118 C 588.368 -1.69434 0.977318 0
M  V30 6119 O 589.574 -2.41914 1.23248 0
M  V30 6120 C 588.03 -1.06564 3.43762 0
M  V30 6121 C 587.638 0.0286723 4.47991 0
M  V30 6122 C 589.382 -1.70221 3.88877 0
M  V30 6123 C 587.289 -0.482046 5.89432 0
M  V30 6124 H 586.219 -0.216764 0.72217 0
M  V30 6125 H 588.87 0.169313 1.82717 0
M  V30 6126 H 587.252 -1.85878 3.49664 0
M  V30 6127 H 588.426 0.804106 4.5373 0
M  V30 6128 H 586.741 0.570336 4.12476 0
M  V30 6129 H 589.338 -2.09502 4.91948 0
M  V30 6130 H 589.681 -2.57078 3.27439 0
M  V30 6131 H 590.214 -0.974919 3.85668 0
M  V30 6132 H 586.953 0.349871 6.54566 0
M  V30 6133 H 586.473 -1.22452 5.87167 0
M  V30 6134 H 588.152 -0.951508 6.39965 0
M  V30 6135 N 588.284 -1.56567 -0.180126 0
M  V30 6136 C 589.532 -1.81133 -0.896392 0
M  V30 6137 C 589.853 -0.669114 -1.83161 0
M  V30 6138 O 589.123 0.311616 -1.93406 0
M  V30 6139 H 587.703 -0.668172 -0.333999 0
M  V30 6140 H 590.365 -1.94048 -0.182051 0
M  V30 6141 H 589.461 -2.74854 -1.47857 0
M  V30 6142 N 589.762 0.448376 -1.51087 0
M  V30 6143 C 591.008 1.20049 -1.6345 0
M  V30 6144 C 591.341 1.91121 -0.344444 0
M  V30 6145 O 590.616 1.83125 0.655396 0
M  V30 6146 C 590.899 2.22624 -2.83038 0
M  V30 6147 C 590.752 1.55708 -4.21989 0
M  V30 6148 C 592.071 3.23718 -2.98152 0
M  V30 6149 H 589.19 0.435085 -0.59487 0
M  V30 6150 H 591.832 0.491183 -1.83541 0
M  V30 6151 H 589.982 2.83117 -2.66039 0
M  V30 6152 H 591.654 0.986367 -4.50631 0
M  V30 6153 H 589.897 0.859647 -4.25197 0
M  V30 6154 H 590.568 2.30357 -5.01637 0
M  V30 6155 H 593.044 2.73269 -3.13788 0
M  V30 6156 H 591.92 3.92795 -3.83411 0
M  V30 6157 H 592.181 3.89179 -2.09743 0
M  V30 6158 N 591.24 1.41047 0.703093 0
M  V30 6159 C 592.203 1.42036 1.79884 0
M  V30 6160 C 593.203 0.312153 1.57741 0
M  V30 6161 O 594.393 0.571672 1.64553 0
M  V30 6162 C 591.525 1.22437 3.18154 0
M  V30 6163 H 592.718 2.39572 1.80403 0
M  V30 6164 H 590.271 1.27079 0.909977 0
M  V30 6165 H 591.006 0.257112 3.23279 0
M  V30 6166 H 590.791 2.02723 3.35627 0
M  V30 6167 H 592.281 1.25946 3.98155 0
M  V30 6168 N 592.718 -0.936591 1.26751 0
M  V30 6169 C 593.943 -1.72288 1.15462 0
M  V30 6170 C 594.368 -1.85915 -0.285887 0
M  V30 6171 O 593.726 -1.35272 -1.20711 0
M  V30 6172 C 593.774 -3.10503 1.83359 0
M  V30 6173 O 592.878 -3.96745 1.1255 0
M  V30 6174 H 592.219 -0.52843 0.402067 0
M  V30 6175 H 594.749 -1.17271 1.67656 0
M  V30 6176 H 594.759 -3.60867 1.90365 0
M  V30 6177 H 593.434 -2.99901 2.88153 0
M  V30 6178 H 592.011 -3.55191 1.13551 0
M  V30 6179 N 594.196 -1.08629 -1.14182 0
M  V30 6180 C 595.424 -0.838889 -1.8913 0
M  V30 6181 C 595.839 0.609153 -1.78703 0
M  V30 6182 O 595.196 1.41876 -1.14794 0
M  V30 6183 C 595.247 -1.25477 -3.39025 0
M  V30 6184 O 594.968 -2.64601 -3.49167 0
M  V30 6185 C 596.469 -1.03856 -4.30963 0
M  V30 6186 H 593.689 -0.302377 -0.599007 0
M  V30 6187 H 596.233 -1.44615 -1.44592 0
M  V30 6188 H 594.388 -0.691571 -3.81177 0
M  V30 6189 H 594.802 -2.81922 -4.42289 0
M  V30 6190 H 596.276 -1.37892 -5.345 0
M  V30 6191 H 596.753 0.0242522 -4.39193 0
M  V30 6192 H 597.359 -1.58731 -3.94569 0
M  V30 6193 N 595.674 1.31259 -0.872281 0
M  V30 6194 C 596.621 2.28459 -0.327857 0
M  V30 6195 C 597.591 1.55831 0.574957 0
M  V30 6196 O 598.776 1.83965 0.506101 0
M  V30 6197 C 595.916 3.41985 0.462644 0
M  V30 6198 C 595.029 4.29458 -0.467949 0
M  V30 6199 C 594.164 5.30131 0.336903 0
M  V30 6200 C 593.203 6.0925 -0.58997 0
M  V30 6201 N 592.34 7.01872 0.178775 0
M  V30 6202 H 597.18 2.74414 -1.16193 0
M  V30 6203 H 594.717 1.34994 -0.584376 0
M  V30 6204 H 596.675 4.06547 0.936759 0
M  V30 6205 H 595.305 2.97134 1.2614 0
M  V30 6206 H 594.357 3.65318 -1.06052 0
M  V30 6207 H 595.669 4.84677 -1.17856 0
M  V30 6208 H 594.823 6.0038 0.873427 0
M  V30 6209 H 593.562 4.75573 1.08079 0
M  V30 6210 H 592.567 5.37889 -1.13823 0
M  V30 6211 H 593.792 6.65894 -1.33275 0
M  V30 6212 H 591.738 6.49721 0.905435 0
M  V30 6213 H 591.655 7.54522 -0.472452 0
M  V30 6214 H 592.923 7.76382 0.696454 0
M  V30 6215 N 597.152 0.631951 1.44375 0
M  V30 6216 C 598.115 -0.0628142 2.29114 0
M  V30 6217 C 599.115 -0.771494 1.41084 0
M  V30 6218 O 600.305 -0.615959 1.62947 0
M  V30 6219 C 597.437 -1.09953 3.22681 0
M  V30 6220 H 598.63 0.682509 2.92031 0
M  V30 6221 H 596.183 0.392128 1.51301 0
M  V30 6222 H 596.918 -1.87481 2.64616 0
M  V30 6223 H 596.703 -0.595286 3.87555 0
M  V30 6224 H 598.193 -1.58538 3.86336 0
M  V30 6225 N 598.631 -1.53133 0.372548 0
M  V30 6226 C 599.878 -2.01356 -0.214959 0
M  V30 6227 C 600.206 -1.2596 -1.48204 0
M  V30 6228 O 599.461 -0.343511 -1.92662 0
M  V30 6229 C 599.76 -3.53206 -0.545938 0
M  V30 6230 C 599.426 -4.46511 0.627624 0
M  V30 6231 C 598.088 -4.71737 0.949615 0
M  V30 6232 C 600.44 -5.01666 1.41353 0
M  V30 6233 C 597.768 -5.4937 2.05936 0
M  V30 6234 C 600.12 -5.80511 2.51375 0
M  V30 6235 C 598.784 -6.04022 2.84101 0
M  V30 6236 H 598.054 -0.736813 -0.078659 0
M  V30 6237 H 600.701 -1.84682 0.506447 0
M  V30 6238 H 599.006 -3.67864 -1.34845 0
M  V30 6239 H 600.703 -3.87997 -1.01287 0
M  V30 6240 H 597.293 -4.27029 0.366635 0
M  V30 6241 H 601.477 -4.82117 1.17802 0
M  V30 6242 H 596.733 -5.65803 2.31682 0
M  V30 6243 H 600.907 -6.22255 3.12684 0
M  V30 6244 H 598.534 -6.63962 3.70214 0
M  V30 6245 N 600.109 -0.101901 -1.5727 0
M  V30 6246 C 601.337 0.568392 -1.98939 0
M  V30 6247 C 601.752 1.61301 -0.981194 0
M  V30 6248 O 601.109 1.82478 0.0282869 0
M  V30 6249 C 601.16 1.20997 -3.40649 0
M  V30 6250 O 600.881 0.207129 -4.3761 0
M  V30 6251 C 602.382 1.96523 -3.97358 0
M  V30 6252 H 599.602 0.15186 -0.65359 0
M  V30 6253 H 602.146 -0.183198 -2.03678 0
M  V30 6254 H 600.301 1.91245 -3.36904 0
M  V30 6255 H 600.715 0.671071 -5.20189 0
M  V30 6256 H 602.189 2.36764 -4.98645 0
M  V30 6257 H 602.666 2.83376 -3.35552 0
M  V30 6258 H 603.272 1.31076 -4.04598 0
M  V30 6259 N 601.587 1.56661 0.17182 0
M  V30 6260 C 602.815 1.861 0.904115 0
M  V30 6261 C 603.23 0.687227 1.75848 0
M  V30 6262 O 602.587 -0.343671 1.79235 0
M  V30 6263 C 602.638 3.14568 1.78127 0
M  V30 6264 O 602.359 4.27422 0.961366 0
M  V30 6265 C 603.86 3.5735 2.62327 0
M  V30 6266 H 601.08 0.617445 0.262684 0
M  V30 6267 H 603.624 2.03775 0.172068 0
M  V30 6268 H 601.779 2.98721 2.46666 0
M  V30 6269 H 602.193 5.00725 1.56123 0
M  V30 6270 H 603.667 4.50144 3.1949 0
M  V30 6271 H 604.144 2.81445 3.37173 0
M  V30 6272 H 604.75 3.75807 1.99121 0
M  V30 6273 N 603.065 -0.440357 1.51323 0
M  V30 6274 C 603.997 -1.55254 1.68609 0
M  V30 6275 C 605.01 -1.52614 0.566812 0
M  V30 6276 O 606.199 -1.57445 0.841032 0
M  V30 6277 C 603.299 -2.94169 1.68279 0
M  V30 6278 C 602.472 -3.21346 2.96742 0
M  V30 6279 C 601.531 -4.3997 2.8864 0
M  V30 6280 O 600.557 -4.38771 3.62586 0
M  V30 6281 N 601.759 -5.43367 2.04285 0
M  V30 6282 H 604.524 -1.40831 2.6455 0
M  V30 6283 H 602.085 -0.629251 1.49171 0
M  V30 6284 H 604.077 -3.71543 1.60431 0
M  V30 6285 H 602.647 -3.02205 0.799441 0
M  V30 6286 H 601.867 -2.32299 3.18482 0
M  V30 6287 H 603.155 -3.3633 3.81785 0
M  V30 6288 H 602.553 -5.47176 1.43578 0
M  V30 6289 H 601.11 -6.19605 2.02318 0
M  V30 6290 N 604.543 -1.41418 -0.695603 0
M  V30 6291 C 605.473 -1.46035 -1.82197 0
M  V30 6292 C 606.454 -0.319025 -1.67082 0
M  V30 6293 O 607.639 -0.530462 -1.86815 0
M  V30 6294 C 604.769 -1.34179 -3.20333 0
M  V30 6295 C 603.723 -2.46123 -3.50154 0
M  V30 6296 C 603.049 -2.19332 -4.87645 0
M  V30 6297 C 604.349 -3.88463 -3.49133 0
M  V30 6298 H 606.043 -2.40303 -1.78591 0
M  V30 6299 H 603.589 -1.15663 -0.857797 0
M  V30 6300 H 605.542 -1.36021 -3.98844 0
M  V30 6301 H 604.266 -0.363952 -3.24566 0
M  V30 6302 H 602.925 -2.43563 -2.73994 0
M  V30 6303 H 602.573 -1.19891 -4.88503 0
M  V30 6304 H 602.273 -2.94344 -5.08562 0
M  V30 6305 H 603.797 -2.22889 -5.68465 0
M  V30 6306 H 605.211 -3.92738 -4.17648 0
M  V30 6307 H 603.608 -4.63158 -3.81582 0
M  V30 6308 H 604.678 -4.16617 -2.48109 0
M  V30 6309 N 606.021 0.929856 -1.27246 0
M  V30 6310 C 607.249 1.71144 -1.16265 0
M  V30 6311 C 607.664 1.867 0.280786 0
M  V30 6312 O 607.021 1.38249 1.19136 0
M  V30 6313 C 607.072 3.11222 -1.83911 0
M  V30 6314 O 606.793 2.96398 -3.22614 0
M  V30 6315 C 608.294 4.05541 -1.79028 0
M  V30 6316 H 605.514 0.535499 -0.404328 0
M  V30 6317 H 608.058 1.16492 -1.68077 0
M  V30 6318 H 606.213 3.6274 -1.36009 0
M  V30 6319 H 606.627 3.8494 -3.56261 0
M  V30 6320 H 608.101 5.01351 -2.30978 0
M  V30 6321 H 608.578 4.32589 -0.759168 0
M  V30 6322 H 609.184 3.59947 -2.26535 0
M  V30 6323 N 607.499 1.09233 1.13605 0
M  V30 6324 C 608.745 0.828385 1.8511 0
M  V30 6325 C 609.078 -0.64437 1.83198 0
M  V30 6326 O 608.353 -1.47428 1.26867 0
M  V30 6327 C 608.636 1.36167 3.33363 0
M  V30 6328 C 608.489 2.90038 3.438 0
M  V30 6329 C 609.808 0.993819 4.28732 0
M  V30 6330 H 606.927 0.30239 0.672108 0
M  V30 6331 H 609.569 1.35339 1.33355 0
M  V30 6332 H 607.719 0.9151 3.77569 0
M  V30 6333 H 609.391 3.43128 3.08319 0
M  V30 6334 H 607.634 3.27271 2.84739 0
M  V30 6335 H 608.305 3.22428 4.48045 0
M  V30 6336 H 610.781 1.37893 3.92587 0
M  V30 6337 H 609.657 1.39403 5.30903 0
M  V30 6338 H 609.918 -0.0982206 4.41991 0
M  V30 6339 N 608.977 -1.30795 0.87923 0
M  V30 6340 C 609.907 -2.30742 0.357796 0
M  V30 6341 C 610.888 -1.60747 -0.556283 0
M  V30 6342 O 612.073 -1.88393 -0.47135 0
M  V30 6343 C 609.203 -3.44583 -0.433555 0
M  V30 6344 C 608.157 -4.26235 0.388251 0
M  V30 6345 C 607.483 -5.32073 -0.529352 0
M  V30 6346 C 608.783 -4.96303 1.62729 0
M  V30 6347 H 610.477 -2.74605 1.19299 0
M  V30 6348 H 608.023 -1.32017 0.575104 0
M  V30 6349 H 609.976 -4.13563 -0.808934 0
M  V30 6350 H 608.7 -2.99511 -1.30234 0
M  V30 6351 H 607.359 -3.58936 0.745695 0
M  V30 6352 H 607.007 -4.83249 -1.39569 0
M  V30 6353 H 606.707 -5.87598 0.0166741 0
M  V30 6354 H 608.231 -6.0391 -0.901373 0
M  V30 6355 H 609.645 -5.5783 1.32283 0
M  V30 6356 H 608.042 -5.61666 2.11309 0
M  V30 6357 H 609.112 -4.22758 2.37494 0
M  V30 6358 N 610.455 -0.639598 -1.44038 0
M  V30 6359 C 611.385 0.0469443 -2.33453 0
M  V30 6360 C 612.366 0.82609 -1.48694 0
M  V30 6361 O 613.551 0.790285 -1.77393 0
M  V30 6362 C 610.681 1.02338 -3.3188 0
M  V30 6363 C 609.635 0.355284 -4.26523 0
M  V30 6364 C 608.961 1.44221 -5.14883 0
M  V30 6365 C 610.261 -0.743798 -5.16977 0
M  V30 6366 H 611.955 -0.699735 -2.91108 0
M  V30 6367 H 609.501 -0.337946 -1.39978 0
M  V30 6368 H 611.454 1.51247 -3.93322 0
M  V30 6369 H 610.178 1.80105 -2.72451 0
M  V30 6370 H 608.837 -0.113239 -3.66425 0
M  V30 6371 H 608.485 2.21097 -4.51802 0
M  V30 6372 H 608.185 1.00052 -5.79019 0
M  V30 6373 H 609.709 1.93295 -5.79197 0
M  V30 6374 H 611.123 -0.337444 -5.72306 0
M  V30 6375 H 609.52 -1.10914 -5.89761 0
M  V30 6376 H 610.59 -1.60745 -4.57481 0
M  V30 6377 N 611.933 1.52934 -0.380664 0
M  V30 6378 C 612.866 2.22597 0.502564 0
M  V30 6379 C 613.844 1.22345 1.071 0
M  V30 6380 O 615.028 1.51302 1.12428 0
M  V30 6381 C 612.155 2.93246 1.69482 0
M  V30 6382 C 611.201 4.07696 1.25244 0
M  V30 6383 S 612.034 5.34957 0.241159 0
M  V30 6384 C 613.19 6.09124 1.4394 0
M  V30 6385 H 613.423 2.97167 -0.089029 0
M  V30 6386 H 610.956 1.53518 -0.164817 0
M  V30 6387 H 612.914 3.34562 2.37863 0
M  V30 6388 H 611.575 2.18373 2.2577 0
M  V30 6389 H 610.768 4.56199 2.1424 0
M  V30 6390 H 610.37 3.68349 0.647664 0
M  V30 6391 H 612.662 6.34771 2.36794 0
M  V30 6392 H 613.605 7.01068 0.995464 0
M  V30 6393 H 614.013 5.39777 1.65229 0
M  V30 6394 N 613.412 0.11024 1.57214 0
M  V30 6395 C 614.342 -0.840002 2.17867 0
M  V30 6396 C 615.323 -1.28352 1.11624 0
M  V30 6397 O 616.508 -1.3477 1.39824 0
M  V30 6398 C 613.638 -2.09349 2.77111 0
M  V30 6399 C 612.592 -1.78807 3.8886 0
M  V30 6400 C 611.918 -3.11112 4.34872 0
M  V30 6401 C 613.218 -1.0632 5.11364 0
M  V30 6402 H 614.912 -0.334608 2.97524 0
M  V30 6403 H 612.458 -0.159502 1.43114 0
M  V30 6404 H 614.411 -2.76275 3.18198 0
M  V30 6405 H 613.135 -2.62198 1.9473 0
M  V30 6406 H 611.794 -1.14273 3.48335 0
M  V30 6407 H 611.442 -3.61877 3.49362 0
M  V30 6408 H 611.142 -2.91453 5.10224 0
M  V30 6409 H 612.666 -3.79171 4.78604 0
M  V30 6410 H 614.08 -1.63383 5.49526 0
M  V30 6411 H 612.477 -0.967876 5.92243 0
M  V30 6412 H 613.547 -0.0484569 4.84876 0
M  V30 6413 N 614.89 -1.56749 -0.16351 0
M  V30 6414 C 616.136 -1.82704 -0.880168 0
M  V30 6415 C 616.469 -0.689311 -1.81555 0
M  V30 6416 O 615.744 0.308224 -1.92042 0
M  V30 6417 C 616.027 -3.19084 -1.66905 0
M  V30 6418 C 615.88 -4.43397 -0.756269 0
M  V30 6419 C 617.199 -3.52493 -2.63509 0
M  V30 6420 H 614.318 -0.664608 -0.318535 0
M  V30 6421 H 616.96 -1.89438 -0.146036 0
M  V30 6422 H 615.11 -3.13475 -2.2949 0
M  V30 6423 H 616.782 -4.61079 -0.14269 0
M  V30 6424 H 615.025 -4.33752 -0.0647944 0
M  V30 6425 H 615.696 -5.3539 -1.34393 0
M  V30 6426 H 618.172 -3.58606 -2.11047 0
M  V30 6427 H 617.048 -4.48979 -3.15767 0
M  V30 6428 H 617.309 -2.77597 -3.44082 0
M  V30 6429 N 616.368 0.432326 -1.51554 0
M  V30 6430 C 617.331 1.50765 -1.72634 0
M  V30 6431 C 618.331 1.49334 -0.596314 0
M  V30 6432 O 619.521 1.51268 -0.863925 0
M  V30 6433 C 616.653 2.90284 -1.7874 0
M  V30 6434 H 617.846 1.33377 -2.68609 0
M  V30 6435 H 615.399 0.661329 -1.4162 0
M  V30 6436 H 616.134 3.13071 -0.845977 0
M  V30 6437 H 615.919 2.92727 -2.6087 0
M  V30 6438 H 617.409 3.68282 -1.96871 0
M  V30 6439 N 617.846 1.41785 0.688094 0
M  V30 6440 C 618.793 1.44221 1.80191 0
M  V30 6441 C 619.763 0.295688 1.63447 0
M  V30 6442 O 620.948 0.49783 1.84191 0
M  V30 6443 C 618.088 1.33743 3.1813 0
M  V30 6444 C 617.201 2.58325 3.46254 0
M  V30 6445 C 616.336 2.40086 4.73848 0
M  V30 6446 C 615.375 3.60107 4.94964 0
M  V30 6447 N 614.512 3.40892 6.13789 0
M  V30 6448 H 619.352 2.39411 1.77444 0
M  V30 6449 H 616.889 1.18876 0.866423 0
M  V30 6450 H 618.847 1.25669 3.97823 0
M  V30 6451 H 617.477 0.42157 3.20035 0
M  V30 6452 H 616.529 2.7682 2.60912 0
M  V30 6453 H 617.841 3.4758 3.57756 0
M  V30 6454 H 616.995 2.29522 5.61609 0
M  V30 6455 H 615.734 1.483 4.64606 0
M  V30 6456 H 614.739 3.71118 4.05649 0
M  V30 6457 H 615.964 4.52857 5.06061 0
M  V30 6458 H 613.91 2.51812 6.05745 0
M  V30 6459 H 613.827 4.23727 6.26092 0
M  V30 6460 H 615.095 3.34114 7.04264 0
M  V30 6461 N 619.324 -0.923095 1.27737 0
M  V30 6462 C 620.254 -2.04124 1.13383 0
M  V30 6463 C 621.235 -1.70066 0.0340658 0
M  V30 6464 O 622.42 -1.93068 0.209383 0
M  V30 6465 C 619.55 -3.3831 0.785097 0
M  V30 6466 C 618.504 -3.86496 1.8386 0
M  V30 6467 C 617.83 -5.1754 1.34373 0
M  V30 6468 C 619.13 -4.09381 3.24353 0
M  V30 6469 H 620.824 -2.1639 2.06919 0
M  V30 6470 H 618.37 -1.03976 0.996243 0
M  V30 6471 H 620.323 -4.16016 0.671485 0
M  V30 6472 H 619.047 -3.2607 -0.185969 0
M  V30 6473 H 617.706 -3.10987 1.9412 0
M  V30 6474 H 617.354 -5.01696 0.361989 0
M  V30 6475 H 617.054 -5.50751 2.04811 0
M  V30 6476 H 618.578 -5.97811 1.24315 0
M  V30 6477 H 619.992 -4.77641 3.17067 0
M  V30 6478 H 618.389 -4.53906 3.92542 0
M  V30 6479 H 619.459 -3.14515 3.69064 0
M  V30 6480 N 620.802 -1.09834 -1.13024 0
M  V30 6481 C 622.027 -0.85909 -1.88771 0
M  V30 6482 C 622.452 0.584402 -1.78791 0
M  V30 6483 O 621.81 1.41101 -1.13842 0
M  V30 6484 C 621.858 -1.30427 -3.36186 0
M  V30 6485 O 620.962 -0.465368 -4.09766 0
M  V30 6486 H 620.303 -0.310786 -0.586778 0
M  V30 6487 H 622.833 -1.46355 -1.42973 0
M  V30 6488 H 622.843 -1.2915 -3.8702 0
M  V30 6489 H 621.518 -2.3555 -3.42767 0
M  V30 6490 H 620.095 -0.542814 -3.68928 0
M  V30 6491 N 622.28 1.30327 -0.886154 0
M  V30 6492 C 623.696 1.48676 -0.580323 0
M  V30 6493 C 623.896 1.81189 0.881639 0
M  V30 6494 O 622.952 1.90021 1.66278 0
M  V30 6495 C 624.265 2.60932 -1.49449 0
M  V30 6496 C 625.813 2.74812 -1.49824 0
M  V30 6497 C 626.288 3.90183 -2.39836 0
M  V30 6498 N 627.779 3.97495 -2.37806 0
M  V30 6499 C 628.514 4.86078 -3.04165 0
M  V30 6500 N 628.01 5.79448 -3.79753 0
M  V30 6501 N 629.803 4.79456 -2.93391 0
M  V30 6502 H 621.954 1.07495 -1.8319 0
M  V30 6503 H 624.217 0.532661 -0.784204 0
M  V30 6504 H 623.923 2.43731 -2.5355 0
M  V30 6505 H 623.797 3.57437 -1.20494 0
M  V30 6506 H 626.184 2.91418 -0.464731 0
M  V30 6507 H 626.265 1.78924 -1.82811 0
M  V30 6508 H 625.909 3.74334 -3.43273 0
M  V30 6509 H 625.839 4.85411 -2.04166 0
M  V30 6510 H 628.33 3.30703 -1.82877 0
M  V30 6511 H 628.643 6.43805 -4.27475 0
M  V30 6512 H 626.988 5.79376 -3.8386 0
M  V30 6513 H 630.179 4.05494 -2.33864 0
M  V30 6514 H 630.352 5.48283 -3.45383 0
M  V30 6515 N 623.758 0.647228 1.43697 0
M  V30 6516 C 624.688 -0.0345631 2.33474 0
M  V30 6517 C 625.669 -0.818193 1.4913 0
M  V30 6518 O 626.854 -0.780867 1.77809 0
M  V30 6519 C 623.984 -1.00576 3.32418 0
M  V30 6520 C 622.938 -0.33266 4.26705 0
M  V30 6521 C 622.264 -1.41489 5.1564 0
M  V30 6522 C 623.564 0.771204 5.16575 0
M  V30 6523 H 625.258 0.715163 2.90733 0
M  V30 6524 H 622.804 0.345364 1.39797 0
M  V30 6525 H 624.757 -1.49159 3.94119 0
M  V30 6526 H 623.481 -1.78657 2.73403 0
M  V30 6527 H 622.14 0.13267 3.6636 0
M  V30 6528 H 621.788 -2.18698 4.52968 0
M  V30 6529 H 621.488 -0.969799 5.79542 0
M  V30 6530 H 623.012 -1.9022 5.80214 0
M  V30 6531 H 624.426 0.36779 5.72119 0
M  V30 6532 H 622.823 1.1404 5.89165 0
M  V30 6533 H 623.893 1.63169 4.56622 0
M  V30 6534 N 625.236 -1.5273 0.388769 0
M  V30 6535 C 626.183 -2.26437 -0.446639 0
M  V30 6536 C 627.153 -1.28025 -1.05824 0
M  V30 6537 O 628.338 -1.56852 -1.08637 0
M  V30 6538 C 625.478 -3.07407 -1.56828 0
M  V30 6539 C 624.591 -4.20747 -0.979589 0
M  V30 6540 C 623.726 -4.89113 -2.07224 0
M  V30 6541 C 622.765 -5.94447 -1.45942 0
M  V30 6542 N 621.902 -6.56411 -2.49135 0
M  V30 6543 H 626.742 -2.97404 0.18837 0
M  V30 6544 H 624.279 -1.46727 0.104725 0
M  V30 6545 H 626.237 -3.52642 -2.22934 0
M  V30 6546 H 624.867 -2.3865 -2.17361 0
M  V30 6547 H 623.919 -3.7983 -0.208151 0
M  V30 6548 H 625.231 -4.9637 -0.491747 0
M  V30 6549 H 624.385 -5.3765 -2.81101 0
M  V30 6550 H 623.124 -4.13013 -2.59368 0
M  V30 6551 H 622.129 -5.4525 -0.705894 0
M  V30 6552 H 623.354 -6.7248 -0.945932 0
M  V30 6553 H 621.3 -5.83152 -3.00449 0
M  V30 6554 H 621.217 -7.27645 -2.05105 0
M  V30 6555 H 622.485 -7.09592 -3.22644 0
M  V30 6556 N 626.714 -0.118576 -1.57153 0
M  V30 6557 C 627.962 0.538461 -1.94795 0
M  V30 6558 C 628.283 1.67243 -1.00274 0
M  V30 6559 O 627.553 1.95811 -0.0589692 0
M  V30 6560 H 626.133 0.201904 -0.719197 0
M  V30 6561 H 628.795 -0.187418 -1.93997 0
M  V30 6562 H 627.891 0.933315 -2.97818 0
M  V30 6563 N 628.193 1.56834 0.155195 0
M  V30 6564 C 629.123 2.00678 1.19376 0
M  V30 6565 C 630.104 0.884973 1.45266 0
M  V30 6566 O 631.289 1.1522 1.56326 0
M  V30 6567 C 628.419 2.38042 2.5289 0
M  V30 6568 C 627.373 3.53332 2.41538 0
M  V30 6569 C 626.699 3.76485 3.79688 0
M  V30 6570 C 627.999 4.86265 1.9064 0
M  V30 6571 H 629.693 2.87688 0.829232 0
M  V30 6572 H 627.239 1.38407 0.397445 0
M  V30 6573 H 629.192 2.67314 3.25763 0
M  V30 6574 H 627.916 1.4796 2.91162 0
M  V30 6575 H 626.575 3.24213 1.71117 0
M  V30 6576 H 626.223 2.83667 4.15382 0
M  V30 6577 H 625.923 4.54068 3.72956 0
M  V30 6578 H 627.447 4.08174 4.54122 0
M  V30 6579 H 628.861 5.14308 2.53299 0
M  V30 6580 H 627.258 5.67597 1.94818 0
M  V30 6581 H 628.328 4.77184 0.861596 0
M  V30 6582 N 629.671 -0.424282 1.51781 0
M  V30 6583 C 630.948 -1.18464 1.55646 0
M  V30 6584 C 631.328 -2.08529 0.328438 0
M  V30 6585 O 630.676 -2.17969 -0.685693 0
M  V30 6586 C 630.886 -1.97514 2.87731 0
M  V30 6587 C 632.234 -2.54106 3.40169 0
M  V30 6588 O 633.258 -2.07711 2.89369 0
M  V30 6589 O 632.117 -3.38759 4.28841 0
M  V30 6590 H 629.211 -0.540055 0.626314 0
M  V30 6591 H 631.757 -0.432291 1.64102 0
M  V30 6592 H 630.529 -1.31444 3.68562 0
M  V30 6593 H 630.152 -2.79787 2.82498 0
M  V30 6594 N 631.149 -1.42148 -0.680565 0
M  V30 6595 C 632.112 -1.4488 -1.77602 0
M  V30 6596 C 633.112 -0.337209 -1.57224 0
M  V30 6597 O 634.302 -0.597778 -1.63622 0
M  V30 6598 C 631.434 -1.27483 -3.16166 0
M  V30 6599 H 632.627 -2.42412 -1.76568 0
M  V30 6600 H 630.18 -1.28511 -0.889645 0
M  V30 6601 H 630.915 -0.30851 -3.22829 0
M  V30 6602 H 630.7 -2.08037 -3.3236 0
M  V30 6603 H 632.19 -1.32265 -3.96101 0
M  V30 6604 N 632.627 0.916307 -1.28225 0
M  V30 6605 C 633.852 1.7043 -1.18188 0
M  V30 6606 C 634.277 1.86346 0.256274 0
M  V30 6607 O 633.635 1.37175 1.18544 0
M  V30 6608 C 633.683 3.07546 -1.88275 0
M  V30 6609 O 632.787 3.94904 -1.18848 0
M  V30 6610 H 632.128 0.521967 -0.410423 0
M  V30 6611 H 634.658 1.14589 -1.69501 0
M  V30 6612 H 634.668 3.57793 -1.96082 0
M  V30 6613 H 633.343 2.95279 -2.92887 0
M  V30 6614 H 631.92 3.53339 -1.19187 0
M  V30 6615 N 634.105 1.10431 1.1244 0
M  V30 6616 C 635.354 0.841539 1.83306 0
M  V30 6617 C 635.667 -0.634961 1.85007 0
M  V30 6618 O 636.873 -1.01363 2.51869 0
M  V30 6619 C 635.329 1.45565 3.29149 0
M  V30 6620 C 634.937 2.96544 3.35806 0
M  V30 6621 C 636.681 1.27227 4.04986 0
M  V30 6622 C 634.588 3.5099 4.75983 0
M  V30 6623 H 633.518 0.311156 0.686803 0
M  V30 6624 H 636.169 1.32829 1.26604 0
M  V30 6625 H 634.551 0.896574 3.85717 0
M  V30 6626 H 635.725 3.58766 2.89177 0
M  V30 6627 H 634.04 3.14036 2.73442 0
M  V30 6628 H 636.637 1.65348 5.08492 0
M  V30 6629 H 636.98 0.213834 4.1575 0
M  V30 6630 H 637.513 1.79941 3.54776 0
M  V30 6631 H 634.252 4.56499 4.70413 0
M  V30 6632 H 633.772 2.93535 5.23065 0
M  V30 6633 H 635.451 3.48808 5.44924 0
M  V30 6634 N 635.583 -1.29855 0.893053 0
M  V30 6635 C 636.493 -2.31661 0.370157 0
M  V30 6636 C 637.509 -1.65677 -0.531723 0
M  V30 6637 O 638.685 -1.9691 -0.422902 0
M  V30 6638 C 635.75 -3.44388 -0.399741 0
M  V30 6639 C 634.811 -4.2598 0.532861 0
M  V30 6640 C 634.044 -5.33324 -0.200388 0
M  V30 6641 O 634.267 -5.52305 -1.42531 0
M  V30 6642 O 633.201 -6.00188 0.453668 0
M  V30 6643 H 637.027 -2.78354 1.2146 0
M  V30 6644 H 634.612 -1.34171 0.657153 0
M  V30 6645 H 636.494 -4.13037 -0.835358 0
M  V30 6646 H 635.169 -2.99815 -1.22035 0
M  V30 6647 H 634.076 -3.59998 1.01746 0
M  V30 6648 H 635.409 -4.74178 1.3197 0
M  V30 6649 N 637.061 -0.65484 -1.43351 0
M  V30 6650 C 638.011 0.0581325 -2.27926 0
M  V30 6651 C 638.995 0.793188 -1.3999 0
M  V30 6652 O 640.187 0.675387 -1.63608 0
M  V30 6653 C 637.316 1.02272 -3.27712 0
M  V30 6654 C 636.402 0.286048 -4.23134 0
M  V30 6655 N 636.793 -0.698298 -5.00957 0
M  V30 6656 C 635.091 0.527272 -4.42872 0
M  V30 6657 C 635.792 -1.1357 -5.70506 0
M  V30 6658 N 634.768 -0.469631 -5.41568 0
M  V30 6659 H 638.57 -0.697182 -2.85511 0
M  V30 6660 H 636.084 -0.482252 -1.55074 0
M  V30 6661 H 638.081 1.5483 -3.87083 0
M  V30 6662 H 636.741 1.77807 -2.71688 0
M  V30 6663 H 637.752 -1.07708 -5.06576 0
M  V30 6664 H 634.429 1.26367 -3.97916 0
M  V30 6665 H 635.819 -1.95027 -6.42973 0
M  V30 6666 N 638.539 1.52521 -0.396863 0
M  V30 6667 C 639.816 1.94112 0.240842 0
M  V30 6668 C 640.196 1.33288 1.637 0
M  V30 6669 O 639.544 0.503901 2.22875 0
M  V30 6670 C 639.754 3.48033 0.259567 0
M  V30 6671 C 641.102 4.21822 0.484866 0
M  V30 6672 O 642.126 3.54579 0.339453 0
M  V30 6673 O 640.985 5.41042 0.770412 0
M  V30 6674 H 638.079 0.812973 0.151671 0
M  V30 6675 H 640.625 1.63572 -0.451918 0
M  V30 6676 H 639.397 3.84655 -0.718078 0
M  V30 6677 H 639.02 3.84899 0.996937 0
M  V30 6678 N 640.017 0.126909 1.57088 0
M  V30 6679 C 641.266 -0.529024 1.94639 0
M  V30 6680 C 641.579 -1.67323 1.01304 0
M  V30 6681 O 642.785 -2.39245 1.28352 0
M  V30 6682 C 641.241 -0.992483 3.45945 0
M  V30 6683 C 640.849 0.123691 4.47829 0
M  V30 6684 C 642.593 -1.61934 3.924 0
M  V30 6685 C 640.5 -0.356911 5.90322 0
M  V30 6686 H 639.43 -0.201397 0.726605 0
M  V30 6687 H 642.081 0.208032 1.82317 0
M  V30 6688 H 640.463 -1.7842 3.53528 0
M  V30 6689 H 641.637 0.900168 4.51922 0
M  V30 6690 H 639.952 0.657699 4.11173 0
M  V30 6691 H 642.549 -1.9902 4.96281 0
M  V30 6692 H 642.892 -2.50075 3.32819 0
M  V30 6693 H 643.425 -0.892894 3.8765 0
M  V30 6694 H 640.164 0.488636 6.53676 0
M  V30 6695 H 639.684 -1.0997 5.89633 0
M  V30 6696 H 641.363 -0.815547 6.41839 0
M  V30 6697 N 641.495 -1.56914 -0.146875 0
M  V30 6698 C 642.741 -1.83628 -0.860741 0
M  V30 6699 C 643.074 -0.708528 -1.80813 0
M  V30 6700 O 642.349 0.287838 -1.92358 0
M  V30 6701 C 642.632 -3.20836 -1.63511 0
M  V30 6702 C 642.485 -4.44174 -0.709199 0
M  V30 6703 C 643.804 -3.55268 -2.59756 0
M  V30 6704 H 640.923 -0.667949 -0.311468 0
M  V30 6705 H 643.565 -1.89582 -0.125936 0
M  V30 6706 H 641.715 -3.15891 -2.26153 0
M  V30 6707 H 643.387 -4.61205 -0.0937781 0
M  V30 6708 H 641.63 -4.33796 -0.0187856 0
M  V30 6709 H 642.301 -5.36785 -1.28707 0
M  V30 6710 H 644.777 -3.60824 -2.07232 0
M  V30 6711 H 643.653 -4.52303 -3.10987 0
M  V30 6712 H 643.914 -2.81231 -3.41118 0
M  V30 6713 N 642.974 0.416227 -1.52004 0
M  V30 6714 C 643.924 1.50558 -1.7122 0
M  V30 6715 C 644.908 1.50613 -0.56609 0
M  V30 6716 O 646.1 1.56709 -0.822874 0
M  V30 6717 C 643.229 2.88556 -1.85984 0
M  V30 6718 C 642.315 2.93177 -3.06445 0
M  V30 6719 N 642.706 2.67505 -4.29272 0
M  V30 6720 C 641.004 3.24343 -3.06133 0
M  V30 6721 C 641.705 2.78511 -5.10692 0
M  V30 6722 N 640.681 3.11087 -4.45787 0
M  V30 6723 H 644.483 1.29494 -2.63834 0
M  V30 6724 H 641.997 0.62384 -1.4994 0
M  V30 6725 H 643.994 3.66954 -1.97865 0
M  V30 6726 H 642.654 3.10624 -0.945654 0
M  V30 6727 H 643.665 2.42033 -4.57865 0
M  V30 6728 H 640.342 3.52051 -2.24425 0
M  V30 6729 H 641.732 2.62438 -6.18527 0
M  V30 6730 N 644.452 1.42507 0.673017 0
M  V30 6731 C 645.7 1.42789 1.43023 0
M  V30 6732 C 646.021 0.0459738 1.94946 0
M  V30 6733 O 645.291 -0.915765 1.73178 0
M  V30 6734 H 643.871 0.525657 0.530748 0
M  V30 6735 H 646.533 1.77944 0.795113 0
M  V30 6736 H 645.629 2.12872 2.28237 0
M  V30 6737 N 645.93 -0.909495 1.28709 0
M  V30 6738 C 646.86 -2.0291 1.15542 0
M  V30 6739 C 647.841 -1.7002 0.0521017 0
M  V30 6740 O 649.026 -1.92835 0.229849 0
M  V30 6741 C 646.156 -3.37458 0.820935 0
M  V30 6742 C 645.11 -3.84524 1.87949 0
M  V30 6743 C 644.436 -5.16086 1.39854 0
M  V30 6744 C 645.736 -4.05918 3.28676 0
M  V30 6745 H 647.43 -2.14183 2.09203 0
M  V30 6746 H 644.976 -1.02913 1.00722 0
M  V30 6747 H 646.929 -4.1528 0.715571 0
M  V30 6748 H 645.653 -3.26249 -0.151374 0
M  V30 6749 H 644.312 -3.08911 1.97408 0
M  V30 6750 H 643.96 -5.01284 0.41518 0
M  V30 6751 H 643.66 -5.48547 2.1064 0
M  V30 6752 H 645.184 -5.96459 1.30649 0
M  V30 6753 H 646.598 -4.74252 3.22115 0
M  V30 6754 H 644.995 -4.49717 3.97334 0
M  V30 6755 H 646.065 -3.10583 3.72379 0
M  V30 6756 N 647.408 -1.11026 -1.11852 0
M  V30 6757 C 648.34 -0.72249 -2.17515 0
M  V30 6758 C 649.353 0.243782 -1.60964 0
M  V30 6759 O 650.542 0.0273252 -1.78479 0
M  V30 6760 C 647.642 -0.0463979 -3.38868 0
M  V30 6761 C 646.815 -1.0384 -4.24895 0
M  V30 6762 C 645.874 -0.392659 -5.24733 0
M  V30 6763 O 644.9 -1.0453 -5.5952 0
M  V30 6764 N 646.102 0.846296 -5.74298 0
M  V30 6765 H 648.867 -1.63161 -2.51393 0
M  V30 6766 H 646.428 -0.999899 -1.27333 0
M  V30 6767 H 648.42 0.397215 -4.02746 0
M  V30 6768 H 646.99 0.765231 -3.03089 0
M  V30 6769 H 646.21 -1.6601 -3.57539 0
M  V30 6770 H 647.498 -1.70968 -4.79215 0
M  V30 6771 H 646.896 1.39578 -5.4821 0
M  V30 6772 H 645.453 1.23296 -6.40032 0
M  V30 6773 N 648.886 1.2938 -0.899927 0
M  V30 6774 C 649.849 2.25983 -0.382677 0
M  V30 6775 C 650.849 1.53366 0.483259 0
M  V30 6776 O 652.039 1.71798 0.28828 0
M  V30 6777 C 649.171 3.37878 0.452915 0
M  V30 6778 H 650.364 2.73252 -1.23586 0
M  V30 6779 H 647.917 1.40825 -0.678088 0
M  V30 6780 H 648.652 2.95949 1.32608 0
M  V30 6781 H 648.437 3.91742 -0.167562 0
M  V30 6782 H 649.927 4.09746 0.806107 0
M  V30 6783 N 650.364 0.662433 1.43002 0
M  V30 6784 C 651.294 -0.00979809 2.33498 0
M  V30 6785 C 652.275 -0.802329 1.49989 0
M  V30 6786 O 653.46 -0.761964 1.78627 0
M  V30 6787 C 650.59 -0.970446 3.33466 0
M  V30 6788 C 649.544 -0.287383 4.27034 0
M  V30 6789 C 648.87 -1.36012 5.17112 0
M  V30 6790 C 650.17 0.82595 5.15728 0
M  V30 6791 H 651.864 0.745959 2.89958 0
M  V30 6792 H 649.41 0.360172 1.39423 0
M  V30 6793 H 651.363 -1.44971 3.95679 0
M  V30 6794 H 650.087 -1.75748 2.75282 0
M  V30 6795 H 648.746 0.17152 3.66199 0
M  V30 6796 H 648.394 -2.13882 4.55262 0
M  V30 6797 H 648.094 -0.908276 5.80538 0
M  V30 6798 H 649.618 -1.84056 5.82199 0
M  V30 6799 H 651.032 0.42845 5.71697 0
M  V30 6800 H 649.429 1.20282 5.87922 0
M  V30 6801 H 650.499 1.68003 4.54866 0
M  V30 6802 N 651.842 -1.52309 0.404946 0
M  V30 6803 C 653.253 -1.86585 -0.0655926 0
M  V30 6804 C 653.604 -1.3239 -1.44801 0
M  V30 6805 O 652.729 -0.6615 -2.06042 0
M  V30 6806 C 653.324 -3.38566 -0.125801 0
M  V30 6807 C 651.883 -3.72497 -0.540666 0
M  V30 6808 C 651.03 -2.75806 0.287487 0
M  V30 6809 H 653.981 -1.45995 0.622185 0
M  V30 6810 H 654.002 -3.68658 -0.941888 0
M  V30 6811 H 653.514 -3.77981 0.880473 0
M  V30 6812 H 651.615 -3.38659 -1.55373 0
M  V30 6813 H 651.728 -4.78234 -0.287956 0
M  V30 6814 H 650.092 -2.53474 -0.249561 0
M  V30 6815 H 650.875 -3.18059 1.29203 0
M  V30 6816 N 653.32 -0.135238 -1.57019 0
M  V30 6817 C 654.545 0.529343 -2.00531 0
M  V30 6818 C 654.97 1.58391 -1.01459 0
M  V30 6819 O 654.328 1.81296 0.0113986 0
M  V30 6820 C 654.376 1.11748 -3.42848 0
M  V30 6821 O 653.48 2.23267 -3.46736 0
M  V30 6822 H 652.821 0.130669 -0.651016 0
M  V30 6823 H 655.351 -0.228503 -2.0332 0
M  V30 6824 H 655.361 1.44905 -3.81401 0
M  V30 6825 H 654.036 0.345147 -4.14465 0
M  V30 6826 H 652.613 1.91428 -3.20015 0
M  V30 6827 N 654.798 1.5699 0.138552 0
M  V30 6828 C 656.214 1.51844 0.491472 0
M  V30 6829 C 656.414 0.845063 1.82923 0
M  V30 6830 O 655.47 0.419143 2.48997 0
M  V30 6831 C 656.783 2.96615 0.493987 0
M  V30 6832 C 658.331 3.076 0.578913 0
M  V30 6833 C 658.806 4.53893 0.612009 0
M  V30 6834 N 660.297 4.5827 0.673997 0
M  V30 6835 C 661.032 5.68852 0.720729 0
M  V30 6836 N 660.528 6.88982 0.726292 0
M  V30 6837 N 662.321 5.56908 0.762253 0
M  V30 6838 H 654.472 1.99158 -0.738228 0
M  V30 6839 H 656.735 0.908693 -0.270149 0
M  V30 6840 H 656.441 3.49172 -0.420933 0
M  V30 6841 H 656.315 3.53017 1.32887 0
M  V30 6842 H 658.702 2.55057 1.48425 0
M  V30 6843 H 658.783 2.54227 -0.283286 0
M  V30 6844 H 658.427 5.07076 -0.289208 0
M  V30 6845 H 658.357 5.05057 1.49082 0
M  V30 6846 H 660.848 3.71793 0.676654 0
M  V30 6847 H 661.161 7.69014 0.764032 0
M  V30 6848 H 659.506 6.91526 0.69403 0
M  V30 6849 H 662.697 4.61969 0.755135 0
M  V30 6850 H 662.87 6.43102 0.795207 0
M  V30 6851 N 656.276 -0.40816 1.52223 0
M  V30 6852 C 657.525 -1.15212 1.65557 0
M  V30 6853 C 657.838 -1.9163 0.392096 0
M  V30 6854 O 659.044 -2.68458 0.405256 0
M  V30 6855 C 657.5 -2.09691 2.92502 0
M  V30 6856 C 657.108 -1.38785 4.25961 0
M  V30 6857 C 658.852 -2.8434 3.152 0
M  V30 6858 C 656.759 -2.31919 5.44029 0
M  V30 6859 H 655.689 -0.433776 0.616729 0
M  V30 6860 H 658.34 -0.4165 1.78711 0
M  V30 6861 H 656.722 -2.8681 2.7305 0
M  V30 6862 H 657.896 -0.670248 4.55899 0
M  V30 6863 H 656.211 -0.761741 4.09373 0
M  V30 6864 H 658.808 -3.54166 4.00587 0
M  V30 6865 H 659.151 -3.47344 2.29473 0
M  V30 6866 H 659.684 -2.14321 3.35129 0
M  V30 6867 H 656.423 -1.7356 6.32105 0
M  V30 6868 H 655.943 -3.0165 5.18428 0
M  V30 6869 H 657.622 -2.92424 5.77146 0
M  V30 6870 N 657.755 -1.42862 -0.66545 0
M  V30 6871 C 658.665 -1.49491 -1.80803 0
M  V30 6872 C 659.681 -0.382914 -1.69734 0
M  V30 6873 O 660.857 -0.635223 -1.9112 0
M  V30 6874 C 657.922 -1.40383 -3.17007 0
M  V30 6875 C 656.983 -2.62152 -3.39963 0
M  V30 6876 C 656.216 -2.53469 -4.69669 0
M  V30 6877 O 656.439 -1.57568 -5.48205 0
M  V30 6878 O 655.373 -3.43763 -4.94075 0
M  V30 6879 H 659.199 -2.45949 -1.78165 0
M  V30 6880 H 656.784 -1.24728 -0.822387 0
M  V30 6881 H 658.666 -1.377 -3.98267 0
M  V30 6882 H 657.341 -0.470546 -3.20262 0
M  V30 6883 H 656.248 -2.70409 -2.58515 0
M  V30 6884 H 657.581 -3.54411 -3.41546 0
M  V30 6885 N 659.233 0.902656 -1.29189 0
M  V30 6886 C 660.165 2.01149 -1.09872 0
M  V30 6887 C 661.178 1.62732 -0.0471046 0
M  V30 6888 O 662.367 1.76107 -0.29132 0
M  V30 6889 C 659.467 3.32612 -0.649818 0
M  V30 6890 C 658.64 3.99574 -1.7793 0
M  V30 6891 C 657.699 5.09325 -1.32191 0
M  V30 6892 O 656.725 5.31919 -2.02611 0
M  V30 6893 N 657.927 5.80185 -0.191171 0
M  V30 6894 H 660.692 2.18276 -2.05368 0
M  V30 6895 H 658.253 1.07466 -1.2109 0
M  V30 6896 H 660.245 4.03375 -0.327199 0
M  V30 6897 H 658.815 3.11876 0.212597 0
M  V30 6898 H 658.035 3.22213 -2.27095 0
M  V30 6899 H 659.323 4.41056 -2.53668 0
M  V30 6900 H 658.721 5.64312 0.396016 0
M  V30 6901 H 657.278 6.5176 0.0721001 0
M  V30 6902 N 660.711 1.11618 1.11262 0
M  V30 6903 C 661.644 0.719995 2.16544 0
M  V30 6904 C 662.622 -0.28471 1.60088 0
M  V30 6905 O 663.806 -0.180693 1.87632 0
M  V30 6906 C 660.933 0.0643302 3.38639 0
M  V30 6907 C 659.979 1.03448 4.13764 0
M  V30 6908 S 660.812 2.55789 4.70459 0
M  V30 6909 C 661.968 1.91529 5.95875 0
M  V30 6910 H 662.201 1.61181 2.49816 0
M  V30 6911 H 659.734 0.934401 1.22916 0
M  V30 6912 H 661.692 -0.307609 4.09346 0
M  V30 6913 H 660.353 -0.804471 3.03623 0
M  V30 6914 H 659.546 0.523188 5.01277 0
M  V30 6915 H 659.148 1.34893 3.48826 0
M  V30 6916 H 661.44 1.25286 6.65815 0
M  V30 6917 H 662.383 2.77047 6.51652 0
M  V30 6918 H 662.791 1.37468 5.47506 0
M  V30 6919 N 662.189 -1.289 0.906776 0
M  V30 6920 C 663.119 -2.29932 0.406659 0
M  V30 6921 C 664.1 -1.6189 -0.522061 0
M  V30 6922 O 665.285 -1.8935 -0.431283 0
M  V30 6923 C 662.415 -3.45425 -0.360366 0
M  V30 6924 C 661.369 -4.25316 0.478574 0
M  V30 6925 C 660.695 -5.33076 -0.416373 0
M  V30 6926 C 661.995 -4.92739 1.7322 0
M  V30 6927 H 663.689 -2.72013 1.25097 0
M  V30 6928 H 661.235 -1.30768 0.602977 0
M  V30 6929 H 663.188 -4.15186 -0.721029 0
M  V30 6930 H 661.912 -3.02206 -1.23852 0
M  V30 6931 H 660.571 -3.57273 0.821662 0
M  V30 6932 H 660.219 -4.86101 -1.29287 0
M  V30 6933 H 659.919 -5.8743 0.141309 0
M  V30 6934 H 661.443 -6.05686 -0.773072 0
M  V30 6935 H 662.857 -5.54898 1.44086 0
M  V30 6936 H 661.254 -5.57057 2.23175 0
M  V30 6937 H 662.324 -4.17625 2.46408 0
M  V30 6938 N 663.667 -0.670007 -1.42649 0
M  V30 6939 C 664.892 -0.196955 -2.06463 0
M  V30 6940 C 665.317 1.1352 -1.49983 0
M  V30 6941 O 664.675 1.705 -0.616397 0
M  V30 6942 C 664.723 -0.137381 -3.60338 0
M  V30 6943 O 663.827 0.895523 -4.02559 0
M  V30 6944 H 663.168 -0.102579 -0.656029 0
M  V30 6945 H 665.698 -0.917669 -1.82866 0
M  V30 6946 H 665.708 0.0403625 -4.0798 0
M  V30 6947 H 664.383 -1.10977 -4.0082 0
M  V30 6948 H 662.96 0.689209 -3.66476 0
M  V30 6949 N 665.145 1.52092 -0.413018 0
M  V30 6950 C 666.077 2.24819 0.445994 0
M  V30 6951 C 667.09 1.27925 1.00692 0
M  V30 6952 O 668.279 1.53845 0.905204 0
M  V30 6953 C 665.379 2.96951 1.6332 0
M  V30 6954 C 664.552 4.20746 1.19548 0
M  V30 6955 C 663.611 4.75668 2.25003 0
M  V30 6956 O 662.637 5.38148 1.85434 0
M  V30 6957 N 663.839 4.57579 3.57214 0
M  V30 6958 H 666.604 2.99176 -0.177209 0
M  V30 6959 H 664.165 1.60102 -0.240601 0
M  V30 6960 H 666.157 3.30586 2.33441 0
M  V30 6961 H 664.727 2.25756 2.16225 0
M  V30 6962 H 663.947 3.92881 0.32224 0
M  V30 6963 H 665.235 5.01132 0.880033 0
M  V30 6964 H 664.633 4.07758 3.92109 0
M  V30 6965 H 663.19 4.95642 4.23299 0
M  V30 6966 N 666.623 0.143563 1.56945 0
M  V30 6967 C 667.9 -0.553285 1.87612 0
M  V30 6968 C 668.28 -1.83195 1.04894 0
M  V30 6969 O 667.628 -2.28102 0.134773 0
M  V30 6970 C 667.838 -0.822055 3.3918 0
M  V30 6971 C 669.186 -1.16435 4.08324 0
M  V30 6972 O 670.21 -0.911522 3.4434 0
M  V30 6973 O 669.069 -1.63996 5.21313 0
M  V30 6974 H 666.163 -0.281851 0.777489 0
M  V30 6975 H 668.709 0.179916 1.68744 0
M  V30 6976 H 667.481 0.0830265 3.91212 0
M  V30 6977 H 667.104 -1.60956 3.63564 0
M  V30 6978 N 668.101 -1.57061 -0.130224 0
M  V30 6979 C 669.048 -1.99517 -1.16024 0
M  V30 6980 C 670.018 -0.865452 -1.41771 0
M  V30 6981 O 671.203 -1.12882 -1.53826 0
M  V30 6982 C 668.343 -2.3951 -2.48453 0
M  V30 6983 C 667.456 -3.65848 -2.29737 0
M  V30 6984 C 666.591 -3.9487 -3.55318 0
M  V30 6985 C 665.63 -5.14426 -3.31711 0
M  V30 6986 N 664.767 -5.39375 -4.49466 0
M  V30 6987 H 669.607 -2.87305 -0.791194 0
M  V30 6988 H 667.144 -1.42129 -0.379195 0
M  V30 6989 H 669.102 -2.60731 -3.25692 0
M  V30 6990 H 667.732 -1.54779 -2.83272 0
M  V30 6991 H 666.784 -3.52307 -1.4347 0
M  V30 6992 H 668.096 -4.53241 -2.08263 0
M  V30 6993 H 667.25 -4.16679 -4.4098 0
M  V30 6994 H 665.989 -3.05931 -3.79813 0
M  V30 6995 H 664.994 -4.92473 -2.44439 0
M  V30 6996 H 666.219 -6.04933 -3.08598 0
M  V30 6997 H 664.165 -4.53391 -4.74102 0
M  V30 6998 H 664.082 -6.21069 -4.31055 0
M  V30 6999 H 665.35 -5.65694 -5.36293 0
M  V30 7000 N 669.579 0.400081 -1.52437 0
M  V30 7001 C 670.995 0.739359 -1.41441 0
M  V30 7002 C 671.195 1.94512 -0.526053 0
M  V30 7003 O 670.251 2.525 0.00472502 0
M  V30 7004 C 671.564 0.984824 -2.84116 0
M  V30 7005 C 673.112 1.08698 -2.93519 0
M  V30 7006 C 673.587 1.36515 -4.37181 0
M  V30 7007 N 675.078 1.43361 -4.40457 0
M  V30 7008 C 675.813 1.66528 -5.48686 0
M  V30 7009 N 675.309 1.87239 -6.67018 0
M  V30 7010 N 677.102 1.68617 -5.36213 0
M  V30 7011 H 669.253 -0.393484 -2.08723 0
M  V30 7012 H 671.516 -0.1138 -0.941145 0
M  V30 7013 H 671.222 0.171096 -3.51284 0
M  V30 7014 H 671.096 1.90253 -3.25705 0
M  V30 7015 H 673.483 1.89129 -2.26526 0
M  V30 7016 H 673.564 0.147432 -2.55375 0
M  V30 7017 H 673.208 0.565982 -5.04737 0
M  V30 7018 H 673.138 2.31737 -4.7287 0
M  V30 7019 H 675.629 1.29108 -3.55161 0
M  V30 7020 H 675.942 2.04392 -7.45281 0
M  V30 7021 H 674.287 1.84486 -6.70067 0
M  V30 7022 H 677.478 1.5198 -4.42741 0
M  V30 7023 H 677.651 1.86332 -6.20632 0
M  V30 7024 N 671.057 1.43213 0.657864 0
M  V30 7025 C 672.306 1.43871 1.41365 0
M  V30 7026 C 672.619 0.064898 1.95492 0
M  V30 7027 O 673.825 -0.0510796 2.71452 0
M  V30 7028 C 672.281 2.53158 2.55811 0
M  V30 7029 C 671.889 3.96624 2.08311 0
M  V30 7030 C 673.633 2.63004 3.3321 0
M  V30 7031 C 671.54 4.97385 3.1994 0
M  V30 7032 H 670.47 0.535174 0.531136 0
M  V30 7033 H 673.121 1.69185 0.710543 0
M  V30 7034 H 671.503 2.21037 3.2857 0
M  V30 7035 H 672.677 4.38182 1.42593 0
M  V30 7036 H 670.992 3.90781 1.43804 0
M  V30 7037 H 673.589 3.3546 4.16378 0
M  V30 7038 H 673.932 1.67918 3.80932 0
M  V30 7039 H 674.465 2.94403 2.67529 0
M  V30 7040 H 671.204 5.94007 2.77192 0
M  V30 7041 H 670.724 4.60444 3.84385 0
M  V30 7042 H 672.403 5.19877 3.85145 0
M  V30 7043 N 672.536 -0.895792 1.29666 0
M  V30 7044 C 673.446 -2.03329 1.17024 0
M  V30 7045 C 674.462 -1.73753 0.0925962 0
M  V30 7046 O 675.638 -1.99071 0.305431 0
M  V30 7047 C 672.703 -3.36072 0.851841 0
M  V30 7048 C 671.764 -3.7914 2.01373 0
M  V30 7049 C 670.997 -5.05549 1.71043 0
M  V30 7050 O 671.22 -5.66874 0.633213 0
M  V30 7051 O 670.154 -5.44764 2.5596 0
M  V30 7052 H 673.98 -2.16918 2.12556 0
M  V30 7053 H 671.565 -1.02007 1.09156 0
M  V30 7054 H 673.447 -4.15729 0.689006 0
M  V30 7055 H 672.122 -3.23616 -0.0736634 0
M  V30 7056 H 671.029 -3.00233 2.23183 0
M  V30 7057 H 672.362 -3.96186 2.92058 0
M  V30 7058 N 674.014 -1.12206 -1.10668 0
M  V30 7059 C 674.977 -0.790867 -2.15123 0
M  V30 7060 C 675.977 0.193618 -1.5963 0
M  V30 7061 O 677.167 -0.0318728 -1.74171 0
M  V30 7062 C 674.299 -0.174797 -3.40452 0
M  V30 7063 H 675.492 -1.7163 -2.45933 0
M  V30 7064 H 673.045 -0.924993 -1.2599 0
M  V30 7065 H 673.78 0.760478 -3.15257 0
M  V30 7066 H 673.565 -0.88358 -3.82015 0
M  V30 7067 H 675.055 0.0405162 -4.1758 0
M  V30 7068 N 675.492 1.28418 -0.913599 0
M  V30 7069 C 676.422 2.29713 -0.418847 0
M  V30 7070 C 677.403 1.62165 0.513469 0
M  V30 7071 O 678.588 1.89576 0.421235 0
M  V30 7072 C 675.718 3.45612 0.342042 0
M  V30 7073 C 674.672 4.25056 -0.501123 0
M  V30 7074 C 673.998 5.3329 0.388097 0
M  V30 7075 C 675.298 4.91814 -1.75831 0
M  V30 7076 H 676.992 2.71346 -1.26538 0
M  V30 7077 H 674.538 1.30446 -0.609903 0
M  V30 7078 H 676.491 4.15562 0.699 0
M  V30 7079 H 675.215 3.02858 1.22248 0
M  V30 7080 H 673.874 3.56833 -0.840598 0
M  V30 7081 H 673.522 4.8678 1.26707 0
M  V30 7082 H 673.222 5.87347 -0.172459 0
M  V30 7083 H 674.746 6.06088 0.74094 0
M  V30 7084 H 676.16 5.54126 -1.47026 0
M  V30 7085 H 674.557 5.55866 -2.26126 0
M  V30 7086 H 675.627 4.16313 -2.4862 0
M  V30 7087 N 676.97 0.677563 1.42291 0
M  V30 7088 C 677.933 0.0101085 2.29198 0
M  V30 7089 C 678.933 -0.726219 1.43467 0
M  V30 7090 O 680.123 -0.563807 1.64824 0
M  V30 7091 C 677.255 -0.996316 3.26016 0
M  V30 7092 H 678.448 0.775071 2.89711 0
M  V30 7093 H 676.001 0.440065 1.49977 0
M  V30 7094 H 676.736 -1.78967 2.70446 0
M  V30 7095 H 676.521 -0.471687 3.89253 0
M  V30 7096 H 678.011 -1.46167 3.91184 0
M  V30 7097 N 678.448 -1.51871 0.421078 0
M  V30 7098 C 679.358 -2.31077 -0.405069 0
M  V30 7099 C 680.374 -1.39301 -1.04265 0
M  V30 7100 O 681.55 -1.72376 -1.04157 0
M  V30 7101 C 678.615 -3.12556 -1.50032 0
M  V30 7102 C 677.676 -4.20088 -0.884559 0
M  V30 7103 C 676.909 -4.97673 -1.92762 0
M  V30 7104 O 677.132 -4.75696 -3.14753 0
M  V30 7105 O 676.066 -5.82203 -1.52719 0
M  V30 7106 H 679.892 -3.02742 0.241086 0
M  V30 7107 H 677.477 -1.48263 0.183991 0
M  V30 7108 H 679.359 -3.6326 -2.13589 0
M  V30 7109 H 678.034 -2.43672 -2.13086 0
M  V30 7110 H 676.941 -3.73502 -0.211379 0
M  V30 7111 H 678.274 -4.91298 -0.297763 0
M  V30 7112 N 679.926 -0.151884 -1.56866 0
M  V30 7113 C 681.203 0.543328 -1.87902 0
M  V30 7114 C 681.583 1.82636 -1.05864 0
M  V30 7115 O 680.931 2.28028 -0.146868 0
M  V30 7116 C 681.141 0.804056 -3.39611 0
M  V30 7117 C 682.489 1.14267 -4.08935 0
M  V30 7118 O 683.513 0.893248 -3.44818 0
M  V30 7119 O 682.372 1.61229 -5.22176 0
M  V30 7120 H 679.466 0.277724 -0.778973 0
M  V30 7121 H 682.012 -0.188862 -1.68646 0
M  V30 7122 H 680.784 -0.103772 -3.91162 0
M  V30 7123 H 680.407 1.59025 -3.64413 0
M  V30 7124 N 681.404 1.57128 0.121893 0
M  V30 7125 C 682.651 1.847 0.830188 0
M  V30 7126 C 682.979 0.736543 1.80015 0
M  V30 7127 O 682.234 -0.272358 1.93796 0
M  V30 7128 C 682.533 3.1874 1.61677 0
M  V30 7129 C 682.199 4.43901 0.791361 0
M  V30 7130 C 680.861 4.77887 0.563731 0
M  V30 7131 C 683.213 5.20753 0.215823 0
M  V30 7132 C 680.541 5.86168 -0.249737 0
M  V30 7133 C 682.893 6.29891 -0.584821 0
M  V30 7134 C 681.557 6.6241 -0.822794 0
M  V30 7135 H 680.827 0.675866 0.303787 0
M  V30 7136 H 683.474 1.91276 0.0926894 0
M  V30 7137 H 681.779 3.07728 2.42509 0
M  V30 7138 H 683.476 3.37295 2.16872 0
M  V30 7139 H 680.066 4.17272 0.978867 0
M  V30 7140 H 684.25 4.94851 0.378907 0
M  V30 7141 H 679.506 6.0979 -0.44336 0
M  V30 7142 H 683.68 6.88624 -1.03779 0
M  V30 7143 H 681.307 7.46147 -1.45496 0
M  V30 7144 N 682.882 -0.391992 1.52647 0
M  V30 7145 C 684.107 -1.16312 1.71716 0
M  V30 7146 C 684.532 -1.83042 0.433279 0
M  V30 7147 O 683.89 -1.70705 -0.610707 0
M  V30 7148 C 683.938 -2.18908 2.86551 0
M  V30 7149 O 683.042 -3.2543 2.53316 0
M  V30 7150 H 682.383 -0.338743 0.571095 0
M  V30 7151 H 684.913 -0.457202 1.99426 0
M  V30 7152 H 684.923 -2.62954 3.1196 0
M  V30 7153 H 683.598 -1.69726 3.79692 0
M  V30 7154 H 682.175 -2.86543 2.38637 0
M  V30 7155 N 684.36 -1.4356 -0.65026 0
M  V30 7156 C 685.637 -1.35811 -1.40765 0
M  V30 7157 C 686.017 -0.00736379 -2.11099 0
M  V30 7158 O 685.365 1.00932 -2.05 0
M  V30 7159 C 685.575 -2.54332 -2.3899 0
M  V30 7160 C 686.923 -2.97551 -3.02901 0
M  V30 7161 O 687.947 -2.544 -2.49317 0
M  V30 7162 O 686.806 -3.72311 -4.00059 0
M  V30 7163 H 683.9 -0.536861 -0.629054 0
M  V30 7164 H 686.446 -1.55615 -0.676919 0
M  V30 7165 H 685.218 -3.44274 -1.85986 0
M  V30 7166 H 684.841 -2.36643 -3.19509 0
M  V30 7167 N 685.838 0.888903 -1.30139 0
M  V30 7168 C 686.785 1.99422 -1.16188 0
M  V30 7169 C 687.755 1.66017 -0.0523869 0
M  V30 7170 O 688.94 1.89506 -0.221864 0
M  V30 7171 C 686.08 3.34325 -0.855612 0
M  V30 7172 C 685.193 3.80445 -2.0466 0
M  V30 7173 C 684.328 5.03975 -1.67876 0
M  V30 7174 C 683.367 5.42492 -2.83493 0
M  V30 7175 N 682.504 6.57206 -2.47032 0
M  V30 7176 H 687.344 2.10687 -2.10749 0
M  V30 7177 H 684.881 1.03165 -1.04859 0
M  V30 7178 H 686.839 4.11968 -0.658681 0
M  V30 7179 H 685.469 3.22756 0.0531155 0
M  V30 7180 H 684.521 2.98745 -2.3549 0
M  V30 7181 H 685.833 4.04933 -2.91257 0
M  V30 7182 H 684.987 5.89232 -1.44535 0
M  V30 7183 H 683.726 4.8135 -0.784431 0
M  V30 7184 H 682.731 4.55764 -3.07505 0
M  V30 7185 H 683.956 5.67093 -3.73607 0
M  V30 7186 H 681.902 6.36164 -1.601 0
M  V30 7187 H 681.819 6.81543 -3.27161 0
M  V30 7188 H 683.087 7.45704 -2.27038 0
M  V30 7189 N 687.317 1.12792 1.10072 0
M  V30 7190 C 688.267 0.768086 2.14673 0
M  V30 7191 C 689.251 -0.234716 1.59179 0
M  V30 7192 O 690.443 -0.039643 1.76956 0
M  V30 7193 C 687.572 0.228472 3.42539 0
M  V30 7194 C 686.658 1.25979 4.04957 0
M  V30 7195 N 687.049 2.4586 4.42025 0
M  V30 7196 C 685.347 1.10602 4.32069 0
M  V30 7197 C 686.048 3.11747 4.9111 0
M  V30 7198 N 685.024 2.39185 4.88151 0
M  V30 7199 H 688.826 1.68029 2.4113 0
M  V30 7200 H 686.34 1.00925 1.27232 0
M  V30 7201 H 688.337 -0.0475216 4.16873 0
M  V30 7202 H 686.997 -0.678136 3.1754 0
M  V30 7203 H 688.008 2.83215 4.33601 0
M  V30 7204 H 684.685 0.257021 4.16708 0
M  V30 7205 H 686.075 4.13862 5.29309 0
M  V30 7206 N 688.795 -1.27931 0.920396 0
M  V30 7207 C 689.745 -2.24727 0.384966 0
M  V30 7208 C 690.729 -1.52715 -0.506661 0
M  V30 7209 O 691.921 -1.73599 -0.345298 0
M  V30 7210 C 689.05 -3.41324 -0.3678 0
M  V30 7211 C 688.136 -4.20649 0.539925 0
M  V30 7212 N 688.527 -4.77906 1.6565 0
M  V30 7213 C 686.825 -4.4469 0.341557 0
M  V30 7214 C 687.526 -5.37652 2.22047 0
M  V30 7215 N 686.502 -5.2218 1.51093 0
M  V30 7216 H 690.304 -2.66572 1.23761 0
M  V30 7217 H 687.818 -1.42779 0.773819 0
M  V30 7218 H 689.815 -4.0976 -0.768277 0
M  V30 7219 H 688.475 -3.01012 -1.21746 0
M  V30 7220 H 689.486 -4.76073 2.03899 0
M  V30 7221 H 686.163 -4.14868 -0.468045 0
M  V30 7222 H 687.553 -5.92948 3.1601 0
M  V30 7223 N 690.273 -0.685099 -1.4193 0
M  V30 7224 C 691.236 -0.0222632 -2.29189 0
M  V30 7225 C 692.236 0.7186 -1.4385 0
M  V30 7226 O 693.426 0.555058 -1.6512 0
M  V30 7227 C 690.558 0.979013 -3.2654 0
M  V30 7228 H 691.751 -0.790424 -2.89296 0
M  V30 7229 H 689.304 -0.448012 -1.49742 0
M  V30 7230 H 690.039 1.77531 -2.71392 0
M  V30 7231 H 689.824 0.451037 -3.89497 0
M  V30 7232 H 691.314 1.44091 -3.91954 0
M  V30 7233 N 691.751 1.51645 -0.429126 0
M  V30 7234 C 692.681 2.30434 0.377148 0
M  V30 7235 C 693.662 1.35493 1.02838 0
M  V30 7236 O 694.847 1.6441 1.03359 0
M  V30 7237 C 691.977 3.14038 1.48315 0
M  V30 7238 C 690.931 4.1719 0.955855 0
M  V30 7239 C 690.257 4.89263 2.15698 0
M  V30 7240 C 691.557 5.223 -0.00402136 0
M  V30 7241 H 693.251 2.98085 -0.280336 0
M  V30 7242 H 690.797 1.43354 -0.136265 0
M  V30 7243 H 692.75 3.67933 2.05435 0
M  V30 7244 H 691.474 2.44193 2.16881 0
M  V30 7245 H 690.133 3.64335 0.406929 0
M  V30 7246 H 689.781 4.15929 2.82864 0
M  V30 7247 H 689.481 5.59009 1.81059 0
M  V30 7248 H 691.005 5.45978 2.73387 0
M  V30 7249 H 692.419 5.71315 0.476607 0
M  V30 7250 H 690.816 5.99525 -0.26258 0
M  V30 7251 H 691.886 4.75638 -0.943236 0
M  V30 7252 N 693.229 0.160201 1.56784 0
M  V30 7253 C 694.476 -0.487588 1.96542 0
M  V30 7254 C 694.804 -1.63999 1.04569 0
M  V30 7255 O 694.059 -1.95546 0.0775211 0
M  V30 7256 C 694.358 -1.02259 3.42459 0
M  V30 7257 C 694.024 0.0127436 4.50898 0
M  V30 7258 C 692.686 0.297318 4.80281 0
M  V30 7259 C 695.038 0.716078 5.16257 0
M  V30 7260 C 692.366 1.29081 5.72324 0
M  V30 7261 C 694.718 1.69847 6.09372 0
M  V30 7262 C 693.382 1.99061 6.37127 0
M  V30 7263 H 692.652 -0.178421 0.719199 0
M  V30 7264 H 695.299 0.249818 1.89864 0
M  V30 7265 H 693.604 -1.8376 3.46034 0
M  V30 7266 H 695.301 -1.53261 3.70556 0
M  V30 7267 H 691.891 -0.219235 4.28039 0
M  V30 7268 H 696.075 0.509428 4.93679 0
M  V30 7269 H 691.331 1.52344 5.92116 0
M  V30 7270 H 695.505 2.2489 6.59088 0
M  V30 7271 H 693.132 2.76194 7.08252 0
M  V30 7272 N 694.707 -1.5719 -0.113559 0
M  V30 7273 C 695.637 -2.03772 -1.14013 0
M  V30 7274 C 696.618 -0.923176 -1.42869 0
M  V30 7275 O 697.803 -1.19325 -1.53216 0
M  V30 7276 C 694.933 -2.44663 -2.4649 0
M  V30 7277 C 693.887 -3.59612 -2.32085 0
M  V30 7278 C 693.213 -3.8642 -3.69573 0
M  V30 7279 C 694.513 -4.91149 -1.7768 0
M  V30 7280 H 696.207 -2.89785 -0.752665 0
M  V30 7281 H 693.753 -1.39412 -0.360609 0
M  V30 7282 H 695.706 -2.75857 -3.18561 0
M  V30 7283 H 694.43 -1.55628 -2.87137 0
M  V30 7284 H 693.089 -3.28636 -1.62461 0
M  V30 7285 H 692.737 -2.94581 -4.07715 0
M  V30 7286 H 692.437 -4.63797 -3.60786 0
M  V30 7287 H 693.961 -4.2007 -4.4314 0
M  V30 7288 H 695.375 -5.20843 -2.39574 0
M  V30 7289 H 693.772 -5.72562 -1.79701 0
M  V30 7290 H 694.842 -4.79301 -0.734776 0
M  V30 7291 N 696.185 0.383891 -1.52853 0
M  V30 7292 C 697.433 1.12619 -1.67814 0
M  V30 7293 C 697.754 1.90354 -0.423141 0
M  V30 7294 O 697.024 1.87649 0.562554 0
M  V30 7295 H 695.604 0.418738 -0.618601 0
M  V30 7296 H 698.266 0.43495 -1.89985 0
M  V30 7297 H 697.362 1.82624 -2.5309 0
M  V30 7298 N 697.663 1.43903 0.642637 0
M  V30 7299 C 699.079 1.27536 0.959519 0
M  V30 7300 C 699.279 0.202751 2.00477 0
M  V30 7301 O 698.335 -0.415256 2.49062 0
M  V30 7302 C 699.648 2.6432 1.43372 0
M  V30 7303 C 701.196 2.71937 1.54981 0
M  V30 7304 C 701.671 4.09164 2.05789 0
M  V30 7305 N 703.162 4.11282 2.13076 0
M  V30 7306 C 703.897 5.14303 2.53534 0
M  V30 7307 N 703.393 6.27693 2.93212 0
M  V30 7308 N 705.186 5.01657 2.53567 0
M  V30 7309 H 697.337 2.12344 -0.0488376 0
M  V30 7310 H 699.6 0.947124 0.0407559 0
M  V30 7311 H 699.306 3.43826 0.740048 0
M  V30 7312 H 699.18 2.90432 2.40685 0
M  V30 7313 H 701.567 1.92757 2.23448 0
M  V30 7314 H 701.648 2.49578 0.560739 0
M  V30 7315 H 701.292 4.88815 1.37921 0
M  V30 7316 H 701.222 4.28893 3.05546 0
M  V30 7317 H 703.713 3.2944 1.85143 0
M  V30 7318 H 704.026 7.02125 3.22863 0
M  V30 7319 H 702.371 6.31149 2.90991 0
M  V30 7320 H 705.562 4.12134 2.21952 0
M  V30 7321 H 705.735 5.82072 2.84774 0
M  V30 7322 N 699.141 -0.881989 1.30609 0
M  V30 7323 C 700.389 -1.63082 1.19368 0
M  V30 7324 C 700.71 -1.93376 -0.251147 0
M  V30 7325 O 699.98 -1.5723 -1.16857 0
M  V30 7326 H 698.56 -0.604542 0.438791 0
M  V30 7327 H 701.222 -1.05658 1.63776 0
M  V30 7328 H 700.318 -2.57966 1.7567 0
M  V30 7329 N 700.619 -1.13374 -1.09472 0
M  V30 7330 C 701.896 -0.806329 -1.78207 0
M  V30 7331 C 702.276 0.702191 -1.99079 0
M  V30 7332 O 701.624 1.63931 -1.59182 0
M  V30 7333 C 701.834 -1.59271 -3.10538 0
M  V30 7334 C 703.182 -1.78509 -3.85253 0
M  V30 7335 O 704.206 -1.55866 -3.20288 0
M  V30 7336 O 703.065 -2.16287 -5.01879 0
M  V30 7337 H 700.159 -0.29435 -0.772843 0
M  V30 7338 H 702.705 -1.23833 -1.16033 0
M  V30 7339 H 701.477 -2.61792 -2.90828 0
M  V30 7340 H 701.1 -1.15562 -3.80436 0
M  V30 7341 N 702.098 1.27442 -0.927168 0
M  V30 7342 C 703.03 2.25975 -0.383158 0
M  V30 7343 C 704.043 1.55382 0.485832 0
M  V30 7344 O 705.232 1.75986 0.298541 0
M  V30 7345 C 702.332 3.35629 0.469688 0
M  V30 7346 C 701.505 4.35747 -0.379886 0
M  V30 7347 C 700.564 5.24598 0.410227 0
M  V30 7348 O 699.59 5.68909 -0.181888 0
M  V30 7349 N 700.792 5.54737 1.71017 0
M  V30 7350 H 703.557 2.7329 -1.23015 0
M  V30 7351 H 701.118 1.41063 -0.794539 0
M  V30 7352 H 703.11 3.92015 1.00532 0
M  V30 7353 H 701.68 2.87919 1.21744 0
M  V30 7354 H 700.9 3.78634 -1.09682 0
M  V30 7355 H 702.188 4.99648 -0.960717 0
M  V30 7356 H 701.586 5.20594 2.21356 0
M  V30 7357 H 700.143 6.13824 2.19234 0
M  V30 7358 N 703.576 0.692616 1.41565 0
M  V30 7359 C 704.806 0.230943 2.05305 0
M  V30 7360 C 705.214 -1.12379 1.52209 0
M  V30 7361 O 704.557 -1.71281 0.663968 0
M  V30 7362 C 704.619 0.107894 3.59338 0
M  V30 7363 C 704.283 1.39419 4.35214 0
M  V30 7364 C 705.28 2.33143 4.64694 0
M  V30 7365 C 702.965 1.64674 4.74539 0
M  V30 7366 C 704.959 3.50385 5.32456 0
M  V30 7367 C 702.646 2.82202 5.42038 0
M  V30 7368 C 703.644 3.74881 5.70923 0
M  V30 7369 O 703.332 4.90351 6.37033 0
M  V30 7370 H 703.064 0.105708 0.667684 0
M  V30 7371 H 705.618 0.94488 1.82376 0
M  V30 7372 H 703.848 -0.661785 3.80995 0
M  V30 7373 H 705.537 -0.316213 4.04666 0
M  V30 7374 H 706.303 2.14887 4.34797 0
M  V30 7375 H 702.182 0.934007 4.51439 0
M  V30 7376 H 705.726 4.22743 5.54918 0
M  V30 7377 H 701.623 3.00376 5.71353 0
M  V30 7378 H 702.391 4.90128 6.55528 0
M  V30 7379 N 705.054 -1.51416 0.437162 0
M  V30 7380 C 706.465 -1.86682 -0.0260005 0
M  V30 7381 C 706.816 -1.35432 -1.4196 0
M  V30 7382 O 705.941 -0.705055 -2.04592 0
M  V30 7383 C 706.536 -3.38757 -0.0539577 0
M  V30 7384 C 705.095 -3.7356 -0.461532 0
M  V30 7385 C 704.242 -2.75134 0.345924 0
M  V30 7386 H 707.193 -1.44642 0.653013 0
M  V30 7387 H 707.214 -3.70573 -0.863478 0
M  V30 7388 H 706.726 -3.76028 0.96045 0
M  V30 7389 H 704.827 -3.41878 -1.48155 0
M  V30 7390 H 704.94 -4.78737 -0.186451 0
M  V30 7391 H 703.304 -2.53947 -0.195739 0
M  V30 7392 H 704.087 -3.15247 1.35921 0
M  V30 7393 N 706.532 -0.168513 -1.56696 0
M  V30 7394 C 707.781 0.477233 -1.95973 0
M  V30 7395 C 708.094 1.64578 -1.05704 0
M  V30 7396 O 709.3 2.35758 -1.3465 0
M  V30 7397 C 707.756 0.900413 -3.48455 0
M  V30 7398 C 707.364 -0.242382 -4.47344 0
M  V30 7399 C 709.108 1.51474 -3.96555 0
M  V30 7400 C 707.015 0.200272 -5.91061 0
M  V30 7401 H 705.945 0.182061 -0.73169 0
M  V30 7402 H 708.596 -0.256297 -1.81701 0
M  V30 7403 H 706.978 1.68984 -3.58135 0
M  V30 7404 H 708.152 -1.01967 -4.49377 0
M  V30 7405 H 706.467 -0.766484 -4.09285 0
M  V30 7406 H 709.064 1.85792 -5.01384 0
M  V30 7407 H 709.407 2.41163 -3.39332 0
M  V30 7408 H 709.94 0.789802 -3.89881 0
M  V30 7409 H 706.679 -0.661775 -6.52151 0
M  V30 7410 H 706.199 0.942979 -5.92341 0
M  V30 7411 H 707.878 0.645088 -6.43776 0
M  V30 7412 N 708.01 1.57248 0.105221 0
M  V30 7413 C 708.973 2.00388 1.11252 0
M  V30 7414 C 709.973 0.89594 1.33527 0
M  V30 7415 O 711.163 1.16166 1.29811 0
M  V30 7416 C 708.295 2.35589 2.46395 0
M  V30 7417 H 709.488 2.90591 0.741424 0
M  V30 7418 H 707.041 1.52332 0.349956 0
M  V30 7419 H 707.776 1.4831 2.884 0
M  V30 7420 H 707.561 3.16408 2.31578 0
M  V30 7421 H 709.051 2.69658 3.18864 0
M  V30 7422 N 709.488 -0.375779 1.53054 0
M  V30 7423 C 710.418 -1.46598 1.81745 0
M  V30 7424 C 711.399 -1.56337 0.670286 0
M  V30 7425 O 712.584 -1.71071 0.919158 0
M  V30 7426 C 709.714 -2.84058 1.99821 0
M  V30 7427 C 708.668 -2.8915 3.15557 0
M  V30 7428 C 707.994 -4.29187 3.18908 0
M  V30 7429 C 709.294 -2.57595 4.54359 0
M  V30 7430 H 710.988 -1.22837 2.73041 0
M  V30 7431 H 708.534 -0.589485 1.31381 0
M  V30 7432 H 710.487 -3.60342 2.18475 0
M  V30 7433 H 709.211 -3.09184 1.05226 0
M  V30 7434 H 707.87 -2.15316 2.96706 0
M  V30 7435 H 707.518 -4.51374 2.2197 0
M  V30 7436 H 707.218 -4.33512 3.96662 0
M  V30 7437 H 708.742 -5.07359 3.39734 0
M  V30 7438 H 710.156 -3.23595 4.73243 0
M  V30 7439 H 708.553 -2.73252 5.34279 0
M  V30 7440 H 709.623 -1.52882 4.60169 0
M  V30 7441 N 710.966 -1.44241 -0.634997 0
M  V30 7442 C 711.876 -1.53293 -1.77591 0
M  V30 7443 C 712.892 -0.418831 -1.68884 0
M  V30 7444 O 714.068 -0.675619 -1.8973 0
M  V30 7445 C 711.133 -1.47075 -3.13958 0
M  V30 7446 C 710.194 -2.69304 -3.34326 0
M  V30 7447 C 709.427 -2.63374 -4.64187 0
M  V30 7448 O 709.65 -1.69161 -5.44739 0
M  V30 7449 O 708.584 -3.54166 -4.86673 0
M  V30 7450 H 712.41 -2.49673 -1.72908 0
M  V30 7451 H 709.995 -1.26445 -0.795745 0
M  V30 7452 H 711.877 -1.46117 -3.95257 0
M  V30 7453 H 710.552 -0.538373 -3.19192 0
M  V30 7454 H 709.459 -2.75831 -2.52721 0
M  V30 7455 H 710.792 -3.61576 -3.33951 0
M  V30 7456 N 712.444 0.87505 -1.31075 0
M  V30 7457 C 713.692 1.62447 -1.20231 0
M  V30 7458 C 714.013 1.93506 0.240888 0
M  V30 7459 O 713.283 1.57847 1.16022 0
M  V30 7460 H 711.863 0.602207 -0.441991 0
M  V30 7461 H 714.525 1.04788 -1.64334 0
M  V30 7462 H 713.621 2.57031 -1.77036 0
M  V30 7463 N 713.922 1.13953 1.08869 0
M  V30 7464 C 714.885 0.824991 2.13838 0
M  V30 7465 C 715.885 -0.168198 1.59918 0
M  V30 7466 O 717.075 0.0595778 1.74098 0
M  V30 7467 C 714.207 0.228938 3.4013 0
M  V30 7468 H 715.4 1.75521 2.43171 0
M  V30 7469 H 712.953 0.94492 1.24503 0
M  V30 7470 H 713.688 -0.710227 3.16427 0
M  V30 7471 H 713.473 0.944243 3.80561 0
M  V30 7472 H 714.963 0.0259223 4.17592 0
M  V30 7473 N 715.4 -1.26948 0.933913 0
M  V30 7474 C 716.33 -2.29017 0.45534 0
M  V30 7475 C 717.311 -1.62961 -0.487605 0
M  V30 7476 O 718.496 -1.90223 -0.391022 0
M  V30 7477 C 715.626 -3.46112 -0.287015 0
M  V30 7478 C 714.58 -4.24205 0.568682 0
M  V30 7479 C 713.906 -5.3384 -0.303206 0
M  V30 7480 C 715.206 -4.88954 1.83633 0
M  V30 7481 H 716.9 -2.69298 1.30839 0
M  V30 7482 H 714.446 -1.29459 0.630579 0
M  V30 7483 H 716.399 -4.16622 -0.6328 0
M  V30 7484 H 715.123 -3.04765 -1.17414 0
M  V30 7485 H 713.782 -3.5545 0.897261 0
M  V30 7486 H 713.43 -4.88734 -1.18947 0
M  V30 7487 H 713.13 -5.86998 0.265879 0
M  V30 7488 H 714.654 -6.0719 -0.644423 0
M  V30 7489 H 716.068 -5.51717 1.55823 0
M  V30 7490 H 714.465 -5.52198 2.34941 0
M  V30 7491 H 715.535 -4.12305 2.55211 0
M  V30 7492 N 716.879 -0.700114 -1.41195 0
M  V30 7493 C 717.826 -0.0376652 -2.30769 0
M  V30 7494 C 718.796 0.766544 -1.47354 0
M  V30 7495 O 719.981 0.73365 -1.76131 0
M  V30 7496 C 717.121 0.889452 -3.33441 0
M  V30 7497 C 716.234 0.076373 -4.31932 0
M  V30 7498 C 715.369 1.00155 -5.21673 0
M  V30 7499 C 714.408 0.181644 -6.1183 0
M  V30 7500 N 713.545 1.06087 -6.94039 0
M  V30 7501 H 718.385 -0.80726 -2.86858 0
M  V30 7502 H 715.922 -0.409798 -1.41277 0
M  V30 7503 H 717.88 1.44107 -3.91522 0
M  V30 7504 H 716.51 1.6254 -2.78892 0
M  V30 7505 H 715.562 -0.592223 -3.75762 0
M  V30 7506 H 716.874 -0.559076 -4.95657 0
M  V30 7507 H 716.028 1.62223 -5.8461 0
M  V30 7508 H 714.767 1.67085 -4.58186 0
M  V30 7509 H 713.772 -0.452085 -5.47938 0
M  V30 7510 H 714.997 -0.483925 -6.77374 0
M  V30 7511 H 712.943 1.7161 -6.33156 0
M  V30 7512 H 712.86 0.481094 -7.54468 0
M  V30 7513 H 714.128 1.66822 -7.6144 0
M  V30 7514 N 718.357 1.51182 -0.445186 0
M  V30 7515 C 719.287 2.30821 0.352686 0
M  V30 7516 C 720.268 1.36576 1.01395 0
M  V30 7517 O 721.453 1.65497 1.01609 0
M  V30 7518 C 718.583 3.15593 1.44976 0
M  V30 7519 C 717.537 4.1818 0.911553 0
M  V30 7520 C 716.863 4.91523 2.10497 0
M  V30 7521 C 718.163 5.22266 -0.059418 0
M  V30 7522 H 719.857 2.97771 -0.311936 0
M  V30 7523 H 717.403 1.43201 -0.151461 0
M  V30 7524 H 719.356 3.70091 2.01521 0
M  V30 7525 H 718.08 2.4648 2.14278 0
M  V30 7526 H 716.739 3.64746 0.368264 0
M  V30 7527 H 716.387 4.18906 2.78437 0
M  V30 7528 H 716.087 5.60898 1.7512 0
M  V30 7529 H 717.611 5.48847 2.6758 0
M  V30 7530 H 719.025 5.71789 0.415985 0
M  V30 7531 H 717.422 5.99213 -0.326152 0
M  V30 7532 H 718.492 4.7461 -0.993631 0
M  V30 7533 N 719.835 0.176821 1.56605 0
M  V30 7534 C 720.782 -0.751312 2.18229 0
M  V30 7535 C 721.752 -1.22297 1.12395 0
M  V30 7536 O 722.937 -1.29015 1.40569 0
M  V30 7537 C 720.077 -1.97291 2.83143 0
M  V30 7538 C 719.19 -1.54431 4.03454 0
M  V30 7539 C 718.325 -2.72 4.56278 0
M  V30 7540 C 717.364 -2.25657 5.68986 0
M  V30 7541 N 716.501 -3.36338 6.16296 0
M  V30 7542 H 721.341 -0.219033 2.97194 0
M  V30 7543 H 718.878 -0.0963803 1.46784 0
M  V30 7544 H 720.836 -2.68949 3.1894 0
M  V30 7545 H 719.466 -2.4788 2.06773 0
M  V30 7546 H 718.518 -0.724273 3.73441 0
M  V30 7547 H 719.83 -1.16417 4.85024 0
M  V30 7548 H 718.984 -3.51806 4.94285 0
M  V30 7549 H 717.723 -3.13277 3.73777 0
M  V30 7550 H 716.728 -1.44299 5.30526 0
M  V30 7551 H 717.953 -1.85432 6.53293 0
M  V30 7552 H 715.899 -3.7718 5.36723 0
M  V30 7553 H 715.816 -3.02435 6.9287 0
M  V30 7554 H 717.084 -4.16413 6.58954 0
M  V30 7555 N 721.313 -1.57302 -0.09688 0
M  V30 7556 C 722.223 -2.05258 -1.13606 0
M  V30 7557 C 723.239 -0.977137 -1.43972 0
M  V30 7558 O 724.415 -1.29018 -1.54649 0
M  V30 7559 C 721.48 -2.46593 -2.43706 0
M  V30 7560 C 720.541 -3.68322 -2.20538 0
M  V30 7561 C 719.774 -4.07676 -3.44435 0
M  V30 7562 O 719.997 -3.47141 -4.52603 0
M  V30 7563 O 718.931 -5.00641 -3.34129 0
M  V30 7564 H 722.757 -2.94069 -0.758752 0
M  V30 7565 H 720.342 -1.46164 -0.309263 0
M  V30 7566 H 722.224 -2.73814 -3.20318 0
M  V30 7567 H 720.899 -1.6092 -2.80867 0
M  V30 7568 H 719.806 -3.4622 -1.41713 0
M  V30 7569 H 721.139 -4.54769 -1.88271 0
M  V30 7570 N 722.791 0.367657 -1.53252 0
M  V30 7571 C 724.04 1.10782 -1.68554 0
M  V30 7572 C 724.353 1.90523 -0.442765 0
M  V30 7573 O 725.559 2.6729 -0.47629 0
M  V30 7574 C 724.015 2.01863 -2.97959 0
M  V30 7575 C 723.623 1.27443 -4.29491 0
M  V30 7576 C 725.367 2.75883 -3.22628 0
M  V30 7577 C 723.274 2.17414 -5.49987 0
M  V30 7578 H 722.204 0.417272 -0.628013 0
M  V30 7579 H 724.855 0.368971 -1.79752 0
M  V30 7580 H 723.237 2.7947 -2.80558 0
M  V30 7581 H 724.411 0.549138 -4.57516 0
M  V30 7582 H 722.726 0.652935 -4.11249 0
M  V30 7583 H 725.323 3.43421 -4.09837 0
M  V30 7584 H 725.666 3.41138 -2.38601 0
M  V30 7585 H 726.199 2.0536 -3.40693 0
M  V30 7586 H 722.938 1.5674 -6.36485 0
M  V30 7587 H 722.458 2.87799 -5.26243 0
M  V30 7588 H 724.137 2.77019 -5.84696 0
M  V30 7589 N 724.269 1.44576 0.627338 0
M  V30 7590 C 725.494 1.51271 1.41887 0
M  V30 7591 C 725.919 0.139814 1.8758 0
M  V30 7592 O 725.277 -0.871746 1.58966 0
M  V30 7593 C 725.325 2.48529 2.61277 0
M  V30 7594 O 724.429 1.98944 3.61241 0
M  V30 7595 H 723.77 0.510668 0.424399 0
M  V30 7596 H 726.3 1.89746 0.765356 0
M  V30 7597 H 726.31 2.66689 3.08773 0
M  V30 7598 H 724.985 3.48249 2.27366 0
M  V30 7599 H 723.562 1.90568 3.20528 0
M  V30 7600 N 725.747 -0.868086 1.31537 0
M  V30 7601 C 726.977 -1.65162 1.24118 0
M  V30 7602 C 727.385 -1.88187 -0.195558 0
M  V30 7603 O 726.728 -1.44154 -1.13866 0
M  V30 7604 C 726.79 -3.04119 1.91708 0
M  V30 7605 C 726.454 -3.04194 3.4105 0
M  V30 7606 C 727.451 -2.82016 4.36764 0
M  V30 7607 C 725.136 -3.25256 3.82772 0
M  V30 7608 C 727.13 -2.80881 5.72175 0
M  V30 7609 C 724.817 -3.23749 5.18295 0
M  V30 7610 C 725.815 -3.01589 6.12808 0
M  V30 7611 O 725.503 -2.9993 7.45853 0
M  V30 7612 H 725.235 -0.521597 0.430015 0
M  V30 7613 H 727.789 -1.09165 1.73989 0
M  V30 7614 H 726.019 -3.61849 1.36389 0
M  V30 7615 H 727.708 -3.64701 1.78179 0
M  V30 7616 H 728.474 -2.65525 4.05859 0
M  V30 7617 H 724.353 -3.41534 3.09638 0
M  V30 7618 H 727.897 -2.63503 6.45919 0
M  V30 7619 H 723.794 -3.39781 5.48834 0
M  V30 7620 H 724.562 -3.15979 7.55049 0
M  V30 7621 N 727.225 -1.14528 -1.08264 0
M  V30 7622 C 728.474 -0.908992 -1.80056 0
M  V30 7623 C 728.787 0.565859 -1.87236 0
M  V30 7624 O 729.993 0.919454 -2.55457 0
M  V30 7625 C 728.449 -1.57681 -3.23519 0
M  V30 7626 C 728.057 -3.08803 -3.24569 0
M  V30 7627 C 729.801 -1.4217 -3.99985 0
M  V30 7628 C 727.708 -3.68414 -4.62629 0
M  V30 7629 H 726.638 -0.336432 -0.674781 0
M  V30 7630 H 729.289 -1.37437 -1.21587 0
M  V30 7631 H 727.671 -1.03911 -3.82124 0
M  V30 7632 H 728.845 -3.69252 -2.75663 0
M  V30 7633 H 727.16 -3.23968 -2.61598 0
M  V30 7634 H 729.757 -1.84106 -5.02005 0
M  V30 7635 H 730.1 -0.367989 -4.1467 0
M  V30 7636 H 730.633 -1.92984 -3.47853 0
M  V30 7637 H 727.372 -4.73644 -4.53147 0
M  V30 7638 H 726.892 -3.12746 -5.11811 0
M  V30 7639 H 728.571 -3.68793 -5.31602 0
M  V30 7640 N 728.703 1.26451 -0.940633 0
M  V30 7641 C 729.653 2.24086 -0.420669 0
M  V30 7642 C 730.637 1.53501 0.482301 0
M  V30 7643 O 731.829 1.74127 0.317636 0
M  V30 7644 C 728.958 3.41866 0.313452 0
M  V30 7645 C 728.044 4.19737 -0.606779 0
M  V30 7646 N 728.435 4.7521 -1.73232 0
M  V30 7647 C 726.733 4.44091 -0.41226 0
M  V30 7648 C 727.434 5.34052 -2.30572 0
M  V30 7649 N 726.41 5.1971 -1.59381 0
M  V30 7650 H 730.212 2.64569 -1.27986 0
M  V30 7651 H 727.726 1.4153 -0.796436 0
M  V30 7652 H 729.723 4.1093 0.702991 0
M  V30 7653 H 728.383 3.0291 1.16942 0
M  V30 7654 H 729.394 4.72769 -2.11447 0
M  V30 7655 H 726.071 4.1556 0.401984 0
M  V30 7656 H 727.461 5.87845 -3.25404 0
M  V30 7657 N 730.181 0.707592 1.40822 0
M  V30 7658 C 731.144 0.0587224 2.29125 0
M  V30 7659 C 732.144 -0.695624 1.44975 0
M  V30 7660 O 733.334 -0.528718 1.65983 0
M  V30 7661 C 730.466 -0.926939 3.28056 0
M  V30 7662 H 731.659 0.836349 2.88002 0
M  V30 7663 H 729.212 0.471778 1.4901 0
M  V30 7664 H 729.947 -1.7319 2.74182 0
M  V30 7665 H 729.732 -0.389015 3.90165 0
M  V30 7666 H 731.222 -1.37837 3.94196 0
M  V30 7667 N 731.66 -1.50943 0.453197 0
M  V30 7668 C 732.57 -2.31884 -0.355963 0
M  V30 7669 C 733.586 -1.41481 -1.01287 0
M  V30 7670 O 734.762 -1.74546 -1.00477 0
M  V30 7671 C 731.827 -3.15668 -1.43369 0
M  V30 7672 C 730.888 -4.2187 -0.795253 0
M  V30 7673 C 730.121 -5.0165 -1.82162 0
M  V30 7674 O 730.344 -4.82266 -3.04592 0
M  V30 7675 O 729.278 -5.85311 -1.40336 0
M  V30 7676 H 733.104 -3.02162 0.305248 0
M  V30 7677 H 730.689 -1.47839 0.215398 0
M  V30 7678 H 732.571 -3.67709 -2.05836 0
M  V30 7679 H 731.246 -2.48137 -2.07869 0
M  V30 7680 H 730.153 -3.73867 -0.132106 0
M  V30 7681 H 731.486 -4.9182 -0.193484 0
M  V30 7682 N 733.138 -0.185124 -1.56509 0
M  V30 7683 C 734.101 0.72591 -2.17401 0
M  V30 7684 C 735.101 1.14819 -1.12575 0
M  V30 7685 O 736.291 1.0629 -1.38015 0
M  V30 7686 C 733.423 1.98979 -2.76803 0
M  V30 7687 H 734.616 0.195588 -2.99262 0
M  V30 7688 H 732.169 0.0644772 -1.56167 0
M  V30 7689 H 732.904 2.56287 -1.98714 0
M  V30 7690 H 732.689 1.69583 -3.53531 0
M  V30 7691 H 734.179 2.63966 -3.23592 0
M  V30 7692 N 734.616 1.57351 0.0885366 0
M  V30 7693 C 735.846 1.90355 0.80303 0
M  V30 7694 C 736.254 0.777678 1.72478 0
M  V30 7695 O 735.597 -0.258908 1.81866 0
M  V30 7696 C 735.659 3.18674 1.66395 0
M  V30 7697 C 735.323 4.4778 0.913327 0
M  V30 7698 C 736.32 5.19345 0.240148 0
M  V30 7699 C 734.005 4.94434 0.885462 0
M  V30 7700 C 735.999 6.35803 -0.450854 0
M  V30 7701 C 733.686 6.10802 0.190679 0
M  V30 7702 C 734.684 6.81337 -0.476295 0
M  V30 7703 O 734.372 7.95488 -1.15992 0
M  V30 7704 H 734.104 0.634035 0.234469 0
M  V30 7705 H 736.658 2.05287 0.0681959 0
M  V30 7706 H 734.888 2.99906 2.44117 0
M  V30 7707 H 736.577 3.37458 2.2556 0
M  V30 7708 H 737.343 4.84339 0.253092 0
M  V30 7709 H 733.222 4.39417 1.39406 0
M  V30 7710 H 736.766 6.90795 -0.972019 0
M  V30 7711 H 732.663 6.45261 0.175603 0
M  V30 7712 H 733.431 8.11509 -1.06749 0
M  V30 7713 N 736.094 -0.359525 1.53444 0
M  V30 7714 C 737.057 -1.42357 1.7963 0
M  V30 7715 C 738.057 -1.46319 0.666884 0
M  V30 7716 O 739.247 -1.46974 0.935113 0
M  V30 7717 C 736.379 -2.81425 1.92387 0
M  V30 7718 H 737.572 -1.20409 2.74666 0
M  V30 7719 H 735.125 -0.593007 1.44614 0
M  V30 7720 H 735.86 -3.08679 0.994384 0
M  V30 7721 H 735.645 -2.79947 2.74539 0
M  V30 7722 H 737.135 -3.5847 2.14218 0
M  V30 7723 N 737.572 -1.44907 -0.619662 0
M  V30 7724 C 738.535 -1.52282 -1.71297 0
M  V30 7725 C 739.535 -0.40359 -1.55653 0
M  V30 7726 O 740.725 -0.666638 -1.6094 0
M  V30 7727 C 737.857 -1.40778 -3.10474 0
M  V30 7728 H 739.05 -2.49683 -1.66128 0
M  V30 7729 H 736.603 -1.32168 -0.834339 0
M  V30 7730 H 737.338 -0.445156 -3.2123 0
M  V30 7731 H 737.123 -2.21947 -3.23237 0
M  V30 7732 H 738.613 -1.48946 -3.90135 0
M  V30 7733 N 739.05 0.861098 -1.31996 0
M  V30 7734 C 740.298 1.61162 -1.21947 0
M  V30 7735 C 740.619 1.93751 0.220351 0
M  V30 7736 O 739.889 1.59069 1.14341 0
M  V30 7737 H 738.469 0.597485 -0.448353 0
M  V30 7738 H 741.131 1.03039 -1.65436 0
M  V30 7739 H 740.227 2.55138 -1.79752 0
M  V30 7740 N 740.528 1.15101 1.07655 0
M  V30 7741 C 741.438 0.858869 2.18313 0
M  V30 7742 C 742.454 -0.163641 1.73229 0
M  V30 7743 O 743.63 0.00969541 2.01398 0
M  V30 7744 C 740.695 0.34893 3.4494 0
M  V30 7745 C 739.756 1.43495 4.04608 0
M  V30 7746 C 738.989 0.949253 5.2519 0
M  V30 7747 O 739.212 -0.20636 5.70027 0
M  V30 7748 O 738.146 1.73161 5.76454 0
M  V30 7749 H 741.972 1.78386 2.45788 0
M  V30 7750 H 739.557 0.929876 1.16934 0
M  V30 7751 H 741.439 0.070851 4.2134 0
M  V30 7752 H 740.114 -0.548237 3.19024 0
M  V30 7753 H 739.021 1.7666 3.29761 0
M  V30 7754 H 740.354 2.30692 4.3479 0
M  V30 7755 N 742.006 -1.2595 0.947325 0
M  V30 7756 C 742.936 -2.28521 0.479604 0
M  V30 7757 C 743.917 -1.63469 -0.470293 0
M  V30 7758 O 745.102 -1.90627 -0.370824 0
M  V30 7759 C 742.232 -3.46397 -0.250289 0
M  V30 7760 C 741.186 -4.23578 0.613643 0
M  V30 7761 C 740.512 -5.34131 -0.246568 0
M  V30 7762 C 741.812 -4.86979 1.88809 0
M  V30 7763 H 743.506 -2.67895 1.33688 0
M  V30 7764 H 741.052 -1.28783 0.644274 0
M  V30 7765 H 743.005 -4.17269 -0.588576 0
M  V30 7766 H 741.729 -3.05993 -1.14175 0
M  V30 7767 H 740.388 -3.54478 0.93491 0
M  V30 7768 H 740.036 -4.89968 -1.13756 0
M  V30 7769 H 739.736 -5.86683 0.328123 0
M  V30 7770 H 741.26 -6.07839 -0.579986 0
M  V30 7771 H 742.674 -5.50034 1.61666 0
M  V30 7772 H 741.071 -5.49675 2.40784 0
M  V30 7773 H 742.141 -4.09575 2.5957 0
M  V30 7774 N 743.484 -0.715051 -1.40445 0
M  V30 7775 C 744.431 -0.0621393 -2.30716 0
M  V30 7776 C 745.401 0.750871 -1.48159 0
M  V30 7777 O 746.586 0.714928 -1.76899 0
M  V30 7778 C 743.726 0.854036 -3.34365 0
M  V30 7779 C 742.839 0.0305565 -4.31989 0
M  V30 7780 C 741.974 0.946162 -5.22706 0
M  V30 7781 C 741.013 0.116741 -6.11989 0
M  V30 7782 N 740.15 0.987194 -6.95125 0
M  V30 7783 H 744.99 -0.83764 -2.85985 0
M  V30 7784 H 742.527 -0.424759 -1.40834 0
M  V30 7785 H 744.485 1.39946 -3.93028 0
M  V30 7786 H 743.115 1.59572 -2.806 0
M  V30 7787 H 742.167 -0.632044 -3.75112 0
M  V30 7788 H 743.479 -0.611615 -4.95036 0
M  V30 7789 H 742.633 1.56014 -5.86297 0
M  V30 7790 H 741.372 1.62216 -4.59932 0
M  V30 7791 H 740.377 -0.510176 -5.47428 0
M  V30 7792 H 741.602 -0.555742 -6.76822 0
M  V30 7793 H 739.548 1.64885 -6.3494 0
M  V30 7794 H 739.465 0.401046 -7.54936 0
M  V30 7795 H 740.733 1.58737 -7.63166 0
M  V30 7796 N 744.962 1.50701 -0.461195 0
M  V30 7797 C 745.912 2.25195 0.35653 0
M  V30 7798 C 746.896 1.2838 0.96992 0
M  V30 7799 O 748.088 1.53338 0.884108 0
M  V30 7800 C 745.217 3.11471 1.44364 0
M  V30 7801 C 744.303 4.15729 0.83847 0
M  V30 7802 N 744.694 5.05788 -0.0353198 0
M  V30 7803 C 742.992 4.32133 1.1035 0
M  V30 7804 C 743.693 5.80472 -0.37774 0
M  V30 7805 N 742.669 5.43049 0.24463 0
M  V30 7806 H 746.471 2.92188 -0.316746 0
M  V30 7807 H 743.985 1.60059 -0.274725 0
M  V30 7808 H 745.982 3.63436 2.04255 0
M  V30 7809 H 744.642 2.46025 2.11901 0
M  V30 7810 H 745.653 5.16326 -0.403465 0
M  V30 7811 H 742.33 3.77908 1.77458 0
M  V30 7812 H 743.72 6.62996 -1.09024 0
M  V30 7813 N 746.441 0.193421 1.56409 0
M  V30 7814 C 747.689 -0.444908 1.97142 0
M  V30 7815 C 748.01 -1.62268 1.08139 0
M  V30 7816 O 747.28 -1.95307 0.152326 0
M  V30 7817 H 745.86 -0.16736 0.728011 0
M  V30 7818 H 748.522 0.279763 1.92882 0
M  V30 7819 H 747.618 -0.790159 3.01932 0
M  V30 7820 N 747.919 -1.57396 -0.0801906 0
M  V30 7821 C 749.33 -1.75642 -0.633002 0
M  V30 7822 C 749.681 -0.817708 -1.78348 0
M  V30 7823 O 748.806 0.000233743 -2.164 0
M  V30 7824 C 749.401 -3.18502 -1.15507 0
M  V30 7825 C 747.96 -3.38121 -1.65381 0
M  V30 7826 C 747.107 -2.71386 -0.569661 0
M  V30 7827 H 750.058 -1.58027 0.145949 0
M  V30 7828 H 750.079 -3.22198 -2.02408 0
M  V30 7829 H 749.591 -3.86799 -0.317515 0
M  V30 7830 H 747.692 -2.74926 -2.51488 0
M  V30 7831 H 747.805 -4.46521 -1.73654 0
M  V30 7832 H 746.169 -2.33702 -1.0127 0
M  V30 7833 H 746.952 -3.42332 0.257561 0
M  V30 7834 N 749.397 0.351382 -1.53633 0
M  V30 7835 C 750.327 1.43688 -1.84055 0
M  V30 7836 C 751.308 1.55251 -0.695073 0
M  V30 7837 O 752.493 1.69587 -0.946257 0
M  V30 7838 C 749.623 2.80843 -2.04315 0
M  V30 7839 C 748.577 2.84094 -3.20117 0
M  V30 7840 C 747.903 4.2406 -3.25696 0
M  V30 7841 C 749.203 2.50334 -4.58399 0
M  V30 7842 H 750.897 1.18478 -2.74961 0
M  V30 7843 H 748.443 0.568509 -1.32303 0
M  V30 7844 H 750.396 3.56821 -2.2418 0
M  V30 7845 H 749.12 3.07471 -1.10132 0
M  V30 7846 H 747.779 2.10568 -3.00094 0
M  V30 7847 H 747.427 4.47785 -2.29123 0
M  V30 7848 H 747.127 4.27147 -4.03509 0
M  V30 7849 H 748.651 5.0189 -3.47762 0
M  V30 7850 H 750.065 3.16025 -4.78332 0
M  V30 7851 H 748.462 2.64717 -5.38558 0
M  V30 7852 H 749.532 1.45542 -4.62543 0
M  V30 7853 N 750.875 1.45233 0.611969 0
M  V30 7854 C 751.838 1.53189 1.70487 0
M  V30 7855 C 752.838 0.411839 1.55437 0
M  V30 7856 O 754.028 0.675164 1.60584 0
M  V30 7857 C 751.16 1.42422 3.09723 0
M  V30 7858 H 752.353 2.5056 1.64802 0
M  V30 7859 H 749.906 1.32609 0.827318 0
M  V30 7860 H 750.641 0.462185 3.2099 0
M  V30 7861 H 750.426 2.23658 3.22055 0
M  V30 7862 H 751.916 1.51012 3.89339 0
M  V30 7863 N 752.353 -0.854086 1.3245 0
M  V30 7864 C 753.283 -1.97827 1.24044 0
M  V30 7865 C 754.264 -1.69646 0.124166 0
M  V30 7866 O 755.449 -1.91687 0.31143 0
M  V30 7867 C 752.579 -3.33673 0.963324 0
M  V30 7868 C 751.533 -3.76207 2.04089 0
M  V30 7869 C 750.859 -5.0969 1.61618 0
M  V30 7870 C 752.159 -3.91612 3.45597 0
M  V30 7871 H 753.853 -2.05118 2.18099 0
M  V30 7872 H 751.399 -0.985489 1.04996 0
M  V30 7873 H 753.352 -4.11871 0.891061 0
M  V30 7874 H 752.076 -3.26597 -0.0128649 0
M  V30 7875 H 750.735 -3.0026 2.10332 0
M  V30 7876 H 750.383 -4.99072 0.627418 0
M  V30 7877 H 750.083 -5.3912 2.33717 0
M  V30 7878 H 751.607 -5.90381 1.55829 0
M  V30 7879 H 753.021 -4.60163 3.4194 0
M  V30 7880 H 751.418 -4.3246 4.16051 0
M  V30 7881 H 752.488 -2.9451 3.85217 0
M  V30 7882 N 753.831 -1.1567 -1.07043 0
M  V30 7883 C 755.08 -0.928039 -1.79082 0
M  V30 7884 C 755.393 0.545968 -1.87826 0
M  V30 7885 O 756.599 0.892308 -2.56418 0
M  V30 7886 C 755.055 -1.61103 -3.21829 0
M  V30 7887 C 754.663 -3.12228 -3.21275 0
M  V30 7888 C 756.407 -1.46404 -3.98455 0
M  V30 7889 C 754.314 -3.733 -4.58695 0
M  V30 7890 H 753.244 -0.34357 -0.671175 0
M  V30 7891 H 755.895 -1.38718 -1.20123 0
M  V30 7892 H 754.277 -1.07958 -3.81 0
M  V30 7893 H 755.451 -3.72155 -2.71731 0
M  V30 7894 H 753.766 -3.26725 -2.58147 0
M  V30 7895 H 756.363 -1.8942 -5.00024 0
M  V30 7896 H 756.706 -0.41195 -4.14257 0
M  V30 7897 H 757.239 -1.96663 -3.45787 0
M  V30 7898 H 753.978 -4.78423 -4.48098 0
M  V30 7899 H 753.498 -3.18157 -5.08465 0
M  V30 7900 H 755.177 -3.7441 -5.27661 0
M  V30 7901 N 755.309 1.25446 -0.953992 0
M  V30 7902 C 756.586 1.884 -0.525823 0
M  V30 7903 C 756.966 1.86079 0.996891 0
M  V30 7904 O 756.314 1.32389 1.8624 0
M  V30 7905 C 756.524 3.31154 -1.10172 0
M  V30 7906 C 757.872 4.07926 -1.17819 0
M  V30 7907 O 758.896 3.40273 -1.05323 0
M  V30 7908 O 757.755 5.28942 -1.37415 0
M  V30 7909 H 754.849 0.808629 -0.173345 0
M  V30 7910 H 757.395 1.33522 -1.04738 0
M  V30 7911 H 756.167 3.27271 -2.14499 0
M  V30 7912 H 755.79 3.93588 -0.56338 0
M  V30 7913 N 756.787 0.722489 1.40064 0
M  V30 7914 C 757.75 0.0830209 2.2905 0
M  V30 7915 C 758.75 -0.680208 1.45705 0
M  V30 7916 O 759.94 -0.511084 1.66534 0
M  V30 7917 C 757.072 -0.892092 3.29021 0
M  V30 7918 H 758.265 0.866848 2.87099 0
M  V30 7919 H 755.818 0.487556 1.48501 0
M  V30 7920 H 756.553 -1.70273 2.76003 0
M  V30 7921 H 756.338 -0.34761 3.90556 0
M  V30 7922 H 757.828 -1.33648 3.95636 0
M  V30 7923 N 758.265 -1.50454 0.469181 0
M  V30 7924 C 759.542 -1.9504 -0.147955 0
M  V30 7925 C 759.922 -1.40946 -1.57154 0
M  V30 7926 O 759.27 -0.609663 -2.20217 0
M  V30 7927 C 759.48 -3.48875 -0.0932198 0
M  V30 7928 C 760.828 -4.23655 -0.283056 0
M  V30 7929 O 761.852 -3.55795 -0.169892 0
M  V30 7930 O 760.711 -5.44102 -0.511396 0
M  V30 7931 H 757.805 -0.819283 -0.11271 0
M  V30 7932 H 760.351 -1.6123 0.529446 0
M  V30 7933 H 759.123 -3.80791 0.900784 0
M  V30 7934 H 758.746 -3.89217 -0.812161 0
M  V30 7935 N 759.743 -0.201713 -1.56304 0
M  V30 7936 C 760.676 0.755976 -2.15314 0
M  V30 7937 C 761.654 1.20497 -1.09175 0
M  V30 7938 O 762.838 1.2913 -1.37323 0
M  V30 7939 C 759.965 2.02177 -2.71739 0
M  V30 7940 C 759.011 1.71436 -3.90528 0
M  V30 7941 S 759.844 0.856624 -5.28604 0
M  V30 7942 C 761 2.13242 -5.88455 0
M  V30 7943 H 761.233 0.254348 -2.9621 0
M  V30 7944 H 758.766 0.0133669 -1.54394 0
M  V30 7945 H 760.724 2.74867 -3.04891 0
M  V30 7946 H 759.385 2.49452 -1.90873 0
M  V30 7947 H 758.578 2.65433 -4.28441 0
M  V30 7948 H 758.18 1.06823 -3.5842 0
M  V30 7949 H 760.472 3.08435 -6.0322 0
M  V30 7950 H 761.415 1.7975 -6.84905 0
M  V30 7951 H 761.823 2.2639 -5.17115 0
M  V30 7952 N 761.222 1.57436 0.0718424 0
M  V30 7953 C 762.633 1.75975 0.623678 0
M  V30 7954 C 762.984 0.827155 1.77912 0
M  V30 7955 O 762.109 0.0112425 2.16397 0
M  V30 7956 C 762.704 3.1911 1.13816 0
M  V30 7957 C 761.263 3.38994 1.63586 0
M  V30 7958 C 760.41 2.71684 0.555261 0
M  V30 7959 H 763.361 1.57948 -0.154328 0
M  V30 7960 H 763.382 3.23267 2.00696 0
M  V30 7961 H 762.894 3.86962 0.296998 0
M  V30 7962 H 760.995 2.76256 2.50027 0
M  V30 7963 H 761.108 4.47436 1.71283 0
M  V30 7964 H 759.472 2.34236 1.00029 0
M  V30 7965 H 760.255 3.42191 -0.275712 0
M  V30 7966 N 762.7 -0.34323 1.53817 0
M  V30 7967 C 763.946 -1.08504 1.71332 0
M  V30 7968 C 764.279 -1.88294 0.475285 0
M  V30 7969 O 763.554 -1.87205 -0.527688 0
M  V30 7970 C 763.837 -2.02597 2.97702 0
M  V30 7971 C 763.69 -1.26268 4.31713 0
M  V30 7972 C 765.009 -3.0241 3.19744 0
M  V30 7973 H 762.128 -0.393072 0.623429 0
M  V30 7974 H 764.77 -0.363579 1.86489 0
M  V30 7975 H 762.92 -2.64118 2.8491 0
M  V30 7976 H 764.592 -0.673594 4.56356 0
M  V30 7977 H 762.835 -0.564696 4.30109 0
M  V30 7978 H 763.506 -1.95253 5.16314 0
M  V30 7979 H 765.982 -2.51004 3.31868 0
M  V30 7980 H 764.858 -3.65449 4.09558 0
M  V30 7981 H 765.119 -3.73806 2.36054 0
M  V30 7982 N 764.178 -1.45556 -0.604258 0
M  V30 7983 C 765.427 -1.49019 -1.35928 0
M  V30 7984 C 765.74 -0.137409 -1.95117 0
M  V30 7985 O 766.946 -0.0497032 -2.71455 0
M  V30 7986 C 765.402 -2.62477 -2.46239 0
M  V30 7987 C 765.01 -4.04082 -1.93447 0
M  V30 7988 C 766.754 -2.7519 -3.23219 0
M  V30 7989 C 764.661 -5.08917 -3.0126 0
M  V30 7990 H 763.591 -0.554518 -0.510907 0
M  V30 7991 H 766.242 -1.71705 -0.647262 0
M  V30 7992 H 764.624 -2.3308 -3.2014 0
M  V30 7993 H 765.798 -4.43173 -1.26232 0
M  V30 7994 H 764.113 -3.95849 -1.29201 0
M  V30 7995 H 766.71 -3.50683 -4.0364 0
M  V30 7996 H 767.053 -1.81941 -3.74437 0
M  V30 7997 H 767.586 -3.04129 -2.56418 0
M  V30 7998 H 764.325 -6.03886 -2.54955 0
M  V30 7999 H 763.845 -4.74393 -3.67031 0
M  V30 8000 H 765.524 -5.33814 -3.65584 0
M  V30 8001 N 765.656 0.84705 -1.32902 0
M  V30 8002 C 766.902 1.60414 -1.24078 0
M  V30 8003 C 767.235 1.93217 0.195105 0
M  V30 8004 O 766.51 1.58001 1.13428 0
M  V30 8005 C 766.793 2.91951 -2.108 0
M  V30 8006 C 766.646 2.6588 -3.62805 0
M  V30 8007 C 767.965 3.93299 -1.97494 0
M  V30 8008 H 765.084 0.58206 -0.452079 0
M  V30 8009 H 767.726 0.977562 -1.62922 0
M  V30 8010 H 765.876 3.45425 -1.77802 0
M  V30 8011 H 767.548 2.18902 -4.06054 0
M  V30 8012 H 765.791 1.99716 -3.85092 0
M  V30 8013 H 766.462 3.59574 -4.1882 0
M  V30 8014 H 768.938 3.49105 -2.26417 0
M  V30 8015 H 767.814 4.8318 -2.60438 0
M  V30 8016 H 768.075 4.31887 -0.944782 0
M  V30 8017 N 767.134 1.16236 1.06428 0
M  V30 8018 C 768.38 0.944431 1.79467 0
M  V30 8019 C 768.713 -0.526558 1.86925 0
M  V30 8020 O 767.988 -1.39061 1.35986 0
M  V30 8021 C 768.271 1.57092 3.24028 0
M  V30 8022 C 768.124 3.11315 3.24658 0
M  V30 8023 C 769.443 1.26447 4.21544 0
M  V30 8024 H 766.562 0.344521 0.651517 0
M  V30 8025 H 769.204 1.43545 1.24478 0
M  V30 8026 H 767.354 1.15337 3.70985 0
M  V30 8027 H 769.026 3.62042 2.85873 0
M  V30 8028 H 767.269 3.44716 2.6335 0
M  V30 8029 H 767.94 3.50269 4.26633 0
M  V30 8030 H 770.416 1.62581 3.83023 0
M  V30 8031 H 769.292 1.72885 5.20963 0
M  V30 8032 H 769.553 0.183068 4.41721 0
M  V30 8033 N 768.612 -1.24939 0.960631 0
M  V30 8034 C 769.575 -2.239 0.49006 0
M  V30 8035 C 770.575 -1.55497 -0.409535 0
M  V30 8036 O 771.765 -1.72978 -0.205984 0
M  V30 8037 C 768.897 -3.39654 -0.291193 0
M  V30 8038 H 770.09 -2.67044 1.36482 0
M  V30 8039 H 767.643 -1.37429 0.744505 0
M  V30 8040 H 768.378 -3.01939 -1.18336 0
M  V30 8041 H 768.163 -3.90496 0.354276 0
M  V30 8042 H 769.653 -4.13125 -0.609693 0
M  V30 8043 N 770.09 -0.729906 -1.39679 0
M  V30 8044 C 771.501 -0.346241 -1.83461 0
M  V30 8045 C 771.852 1.1215 -1.60987 0
M  V30 8046 O 770.977 1.86456 -1.09832 0
M  V30 8047 C 771.572 -0.621656 -3.33048 0
M  V30 8048 C 770.131 -0.291543 -3.75269 0
M  V30 8049 C 769.278 -0.886844 -2.62736 0
M  V30 8050 H 772.229 -0.927949 -1.28743 0
M  V30 8051 H 772.25 0.108301 -3.80346 0
M  V30 8052 H 771.762 -1.68996 -3.49373 0
M  V30 8053 H 769.863 0.771133 -3.64533 0
M  V30 8054 H 769.976 -0.770544 -4.72863 0
M  V30 8055 H 768.34 -0.313839 -2.52759 0
M  V30 8056 H 769.123 -1.95971 -2.81869 0
M  V30 8057 N 771.568 1.50203 -0.477153 0
M  V30 8058 C 772.516 2.30278 0.327826 0
M  V30 8059 C 773.51 1.37831 0.984839 0
M  V30 8060 O 774.716 1.54994 0.915251 0
M  V30 8061 H 771.091 0.741612 0.124564 0
M  V30 8062 H 773.062 2.96124 -0.367853 0
M  V30 8063 C 771.811 3.18548 1.39365 0
M  V30 8064 H 771.134 3.89596 0.897475 0
M  V30 8065 H 772.574 3.77561 1.92934 0
M  V30 8066 C 771.033 2.36548 2.39889 0
M  V30 8067 O 771.563 2.05282 3.45286 0
M  V30 8068 N 769.769 1.99015 2.11758 0
M  V30 8069 H 769.316 2.24641 1.26071 0
M  V30 8070 H 769.274 1.44454 2.7925 0
M  V30 8071 N 773.046 0.209999 1.56195 0
M  V30 8072 C 773.994 -0.721416 2.2113 0
M  V30 8073 C 774.988 -1.20852 1.18706 0
M  V30 8074 O 776.194 -1.16968 1.36815 0
M  V30 8075 H 772.569 -0.251033 0.708863 0
M  V30 8076 H 774.54 -0.150193 2.98022 0
M  V30 8077 C 773.289 -1.92392 2.89621 0
M  V30 8078 H 772.612 -1.5582 3.68185 0
M  V30 8079 H 774.052 -2.55367 3.38473 0
M  V30 8080 C 772.511 -2.77208 1.91461 0
M  V30 8081 O 773.041 -3.75603 1.42426 0
M  V30 8082 N 771.247 -2.43006 1.59363 0
M  V30 8083 H 770.794 -1.63047 1.99433 0
M  V30 8084 H 770.752 -3.00036 0.939449 0
M  V30 8085 N 774.524 -1.57472 -0.0634922 0
M  V30 8086 C 775.434 -2.07621 -1.09227 0
M  V30 8087 C 776.45 -1.00746 -1.41867 0
M  V30 8088 O 777.626 -1.32269 -1.51878 0
M  V30 8089 C 774.691 -2.51707 -2.38421 0
M  V30 8090 C 773.752 -3.72917 -2.12676 0
M  V30 8091 C 772.985 -4.14891 -3.3571 0
M  V30 8092 O 773.208 -3.56663 -4.45137 0
M  V30 8093 O 772.142 -5.07616 -3.23434 0
M  V30 8094 H 775.968 -2.95612 -0.696205 0
M  V30 8095 H 773.553 -1.46787 -0.27819 0
M  V30 8096 H 775.435 -2.80547 -3.14438 0
M  V30 8097 H 774.11 -1.66842 -2.77391 0
M  V30 8098 H 773.017 -3.49148 -1.34337 0
M  V30 8099 H 774.35 -4.5866 -1.78583 0
M  V30 8100 N 776.003 0.335068 -1.53997 0
M  V30 8101 C 776.933 1.41727 -1.85568 0
M  V30 8102 C 777.914 1.54505 -0.7115 0
M  V30 8103 O 779.099 1.68573 -0.964191 0
M  V30 8104 C 776.229 2.7866 -2.07282 0
M  V30 8105 C 775.183 2.80682 -3.23112 0
M  V30 8106 C 774.509 4.20581 -3.30175 0
M  V30 8107 C 775.809 2.45458 -4.61029 0
M  V30 8108 H 777.503 1.15555 -2.76202 0
M  V30 8109 H 775.049 0.554445 -1.32898 0
M  V30 8110 H 777.002 3.54423 -2.27952 0
M  V30 8111 H 775.726 3.06286 -1.13387 0
M  V30 8112 H 774.385 2.07373 -3.02311 0
M  V30 8113 H 774.033 4.4533 -2.33859 0
M  V30 8114 H 773.733 4.22843 -4.08016 0
M  V30 8115 H 775.257 4.98174 -3.53066 0
M  V30 8116 H 776.671 3.10934 -4.81656 0
M  V30 8117 H 775.068 2.5899 -5.41336 0
M  V30 8118 H 776.138 1.40628 -4.6406 0
M  V30 8119 N 777.481 1.45874 0.596531 0
M  V30 8120 C 778.411 1.5824 1.71705 0
M  V30 8121 C 779.392 0.433366 1.64487 0
M  V30 8122 O 780.577 0.657895 1.82717 0
M  V30 8123 C 777.707 1.55927 3.10329 0
M  V30 8124 C 776.661 2.69659 3.32367 0
M  V30 8125 C 775.987 2.52403 4.71377 0
M  V30 8126 C 777.287 4.11591 3.21544 0
M  V30 8127 H 778.981 2.52035 1.61613 0
M  V30 8128 H 776.527 1.21297 0.776082 0
M  V30 8129 H 778.48 1.63173 3.88526 0
M  V30 8130 H 777.204 0.586674 3.21288 0
M  V30 8131 H 775.863 2.61859 2.56564 0
M  V30 8132 H 775.511 1.53258 4.79083 0
M  V30 8133 H 775.211 3.28679 4.87077 0
M  V30 8134 H 776.735 2.6152 5.5176 0
M  V30 8135 H 778.149 4.20576 3.89601 0
M  V30 8136 H 776.546 4.88344 3.4877 0
M  V30 8137 H 777.616 4.32719 2.1882 0
M  V30 8138 N 778.959 -0.83999 1.33349 0
M  V30 8139 C 779.869 -1.98182 1.25543 0
M  V30 8140 C 780.885 -1.73204 0.166208 0
M  V30 8141 O 782.061 -1.97596 0.389589 0
M  V30 8142 C 779.126 -3.32157 0.993614 0
M  V30 8143 C 778.187 -3.70258 2.17273 0
M  V30 8144 C 777.42 -4.9784 1.92331 0
M  V30 8145 O 777.643 -5.63679 0.873074 0
M  V30 8146 O 776.577 -5.33418 2.78835 0
M  V30 8147 H 780.403 -2.07708 2.21565 0
M  V30 8148 H 777.988 -0.972852 1.13384 0
M  V30 8149 H 779.87 -4.12433 0.864711 0
M  V30 8150 H 778.545 -3.23637 0.0636596 0
M  V30 8151 H 777.452 -2.90497 2.35716 0
M  V30 8152 H 778.785 -3.83442 3.08598 0
M  V30 8153 N 780.437 -1.16799 -1.0581 0
M  V30 8154 C 781.384 -0.87902 -2.13405 0
M  V30 8155 C 782.354 0.174541 -1.6518 0
M  V30 8156 O 783.539 0.0386843 -1.90761 0
M  V30 8157 C 780.679 -0.391616 -3.42871 0
M  V30 8158 C 779.792 -1.50857 -4.04804 0
M  V30 8159 C 778.927 -0.975682 -5.22163 0
M  V30 8160 C 777.966 -2.06851 -5.76089 0
M  V30 8161 N 777.103 -1.55085 -6.84758 0
M  V30 8162 H 781.943 -1.80043 -2.37463 0
M  V30 8163 H 779.48 -0.898083 -1.16503 0
M  V30 8164 H 781.438 -0.0906247 -4.17102 0
M  V30 8165 H 780.068 0.49284 -3.19016 0
M  V30 8166 H 779.12 -1.92542 -3.28073 0
M  V30 8167 H 780.432 -2.33305 -4.40874 0
M  V30 8168 H 779.586 -0.628165 -6.03439 0
M  V30 8169 H 778.325 -0.120566 -4.87551 0
M  V30 8170 H 777.33 -2.42467 -4.93447 0
M  V30 8171 H 778.555 -2.92768 -6.12751 0
M  V30 8172 H 776.501 -0.718345 -6.52055 0
M  V30 8173 H 776.418 -2.31145 -7.19797 0
M  V30 8174 H 777.686 -1.23206 -7.69702 0
M  V30 8175 N 781.915 1.24427 -0.967243 0
M  V30 8176 C 782.845 2.2773 -0.515899 0
M  V30 8177 C 783.826 1.64197 0.444227 0
M  V30 8178 O 785.011 1.91193 0.340451 0
M  V30 8179 C 782.141 3.46751 0.195149 0
M  V30 8180 C 781.095 4.22548 -0.680953 0
M  V30 8181 C 780.421 5.34456 0.161561 0
M  V30 8182 C 781.721 4.83914 -1.96532 0
M  V30 8183 H 783.415 2.65735 -1.37933 0
M  V30 8184 H 780.961 1.27742 -0.664681 0
M  V30 8185 H 782.914 4.18153 0.522117 0
M  V30 8186 H 781.638 3.07771 1.09292 0
M  V30 8187 H 780.297 3.52946 -0.991186 0
M  V30 8188 H 779.945 4.91716 1.05947 0
M  V30 8189 H 779.645 5.86087 -0.421418 0
M  V30 8190 H 781.169 6.08685 0.483211 0
M  V30 8191 H 782.583 5.47392 -1.70396 0
M  V30 8192 H 780.98 5.45775 -2.49499 0
M  V30 8193 H 782.05 4.05393 -2.66053 0
M  V30 8194 N 783.393 0.737304 1.3929 0
M  V30 8195 C 784.34 0.0988364 2.30588 0
M  V30 8196 C 785.31 -0.727206 1.49335 0
M  V30 8197 O 786.495 -0.686694 1.78014 0
M  V30 8198 C 783.635 -0.800734 3.35682 0
M  V30 8199 C 782.748 0.0381731 4.31983 0
M  V30 8200 C 781.883 -0.862884 5.24145 0
M  V30 8201 C 780.922 -0.0193639 6.12097 0
M  V30 8202 N 780.059 -0.87648 6.96608 0
M  V30 8203 H 784.899 0.883031 2.84617 0
M  V30 8204 H 782.436 0.447111 1.4014 0
M  V30 8205 H 784.394 -1.33676 3.95205 0
M  V30 8206 H 783.024 -1.55088 2.83103 0
M  V30 8207 H 782.076 0.691641 3.74059 0
M  V30 8208 H 783.388 0.690294 4.94 0
M  V30 8209 H 782.542 -1.46667 5.88705 0
M  V30 8210 H 781.281 -1.54878 4.62454 0
M  V30 8211 H 780.286 0.597202 5.46547 0
M  V30 8212 H 781.511 0.663348 6.75852 0
M  V30 8213 H 779.457 -1.54762 6.37483 0
M  V30 8214 H 779.374 -0.280892 7.55478 0
M  V30 8215 H 780.642 -1.46575 7.65595 0
M  V30 8216 N 784.871 -1.49948 0.485112 0
M  V30 8217 C 786.096 -2.073 -0.0645059 0
M  V30 8218 C 786.521 -1.345 -1.31497 0
M  V30 8219 O 785.879 -0.39687 -1.76903 0
M  V30 8220 C 785.927 -3.59201 -0.317304 0
M  V30 8221 O 785.031 -3.88085 -1.39514 0
M  V30 8222 H 784.372 -0.663723 0.0191822 0
M  V30 8223 H 786.902 -1.92963 0.680179 0
M  V30 8224 H 786.912 -4.04227 -0.553604 0
M  V30 8225 H 785.587 -4.11602 0.596387 0
M  V30 8226 H 784.164 -3.54885 -1.14504 0
M  V30 8227 N 786.349 -0.21828 -1.56081 0
M  V30 8228 C 787.297 0.709679 -2.21509 0
M  V30 8229 C 788.291 1.20221 -1.19346 0
M  V30 8230 O 789.497 1.16241 -1.37433 0
M  V30 8231 H 785.872 0.247271 -0.710184 0
M  V30 8232 H 787.843 0.134386 -2.98097 0
M  V30 8233 C 786.592 1.90853 -2.90638 0
M  V30 8234 H 785.915 1.53865 -3.69006 0
M  V30 8235 H 787.355 2.53568 -3.39822 0
M  V30 8236 C 785.814 2.76189 -1.92929 0
M  V30 8237 O 786.344 3.74842 -1.44416 0
M  V30 8238 N 784.55 2.42157 -1.6065 0
M  V30 8239 H 784.097 1.61987 -2.00294 0
M  V30 8240 H 784.055 2.99534 -0.955347 0
M  V30 8241 N 787.827 1.57504 0.0551401 0
M  V30 8242 C 789.076 1.87237 0.750009 0
M  V30 8243 C 789.389 0.813268 1.77891 0
M  V30 8244 O 790.595 0.99898 2.52453 0
M  V30 8245 C 789.051 3.32187 1.38491 0
M  V30 8246 C 788.659 4.46267 0.393707 0
M  V30 8247 C 790.403 3.71101 2.06117 0
M  V30 8248 C 788.31 5.82265 1.03547 0
M  V30 8249 H 787.24 0.698524 0.283866 0
M  V30 8250 H 789.891 1.835 0.00365997 0
M  V30 8251 H 788.273 3.30588 2.18008 0
M  V30 8252 H 789.447 4.59289 -0.372865 0
M  V30 8253 H 787.762 4.16015 -0.17902 0
M  V30 8254 H 790.359 4.70012 2.54937 0
M  V30 8255 H 790.702 3.01751 2.86796 0
M  V30 8256 H 791.235 3.74762 1.33409 0
M  V30 8257 H 787.974 6.54949 0.268644 0
M  V30 8258 H 787.494 5.73012 1.7725 0
M  V30 8259 H 789.173 6.28148 1.55047 0
M  V30 8260 N 789.305 -0.326896 1.54172 0
M  V30 8261 C 790.215 -1.42525 1.86343 0
M  V30 8262 C 791.231 -1.56764 0.75505 0
M  V30 8263 O 792.407 -1.71924 1.04901 0
M  V30 8264 C 789.472 -2.77286 2.08119 0
M  V30 8265 C 788.533 -2.7225 3.31931 0
M  V30 8266 C 787.766 -4.00584 3.52659 0
M  V30 8267 O 787.989 -4.98686 2.76891 0
M  V30 8268 O 786.923 -4.04045 4.46129 0
M  V30 8269 H 790.749 -1.18249 2.79734 0
M  V30 8270 H 788.334 -0.520614 1.40036 0
M  V30 8271 H 790.216 -3.57065 2.23791 0
M  V30 8272 H 788.891 -3.01459 1.17917 0
M  V30 8273 H 787.798 -1.91033 3.21647 0
M  V30 8274 H 789.131 -2.53032 4.2218 0
M  V30 8275 N 790.784 -1.46188 -0.588786 0
M  V30 8276 C 791.694 -1.58865 -1.72624 0
M  V30 8277 C 792.71 -0.472348 -1.67466 0
M  V30 8278 O 793.886 -0.735638 -1.87484 0
M  V30 8279 C 790.951 -1.56989 -3.0912 0
M  V30 8280 C 790.012 -2.79804 -3.25589 0
M  V30 8281 C 789.245 -2.78009 -4.55573 0
M  V30 8282 O 789.468 -1.86406 -5.39082 0
M  V30 8283 O 788.402 -3.6947 -4.75159 0
M  V30 8284 H 792.228 -2.55047 -1.64878 0
M  V30 8285 H 789.813 -1.28912 -0.755115 0
M  V30 8286 H 791.695 -1.58618 -3.90408 0
M  V30 8287 H 790.37 -0.639648 -3.17317 0
M  V30 8288 H 789.277 -2.83732 -2.43818 0
M  V30 8289 H 790.61 -3.72017 -3.22279 0
M  V30 8290 N 792.262 0.832906 -1.33792 0
M  V30 8291 C 793.508 1.59089 -1.25772 0
M  V30 8292 C 793.841 1.93414 0.174601 0
M  V30 8293 O 793.116 1.59195 1.11746 0
M  V30 8294 C 793.399 2.89699 -2.13885 0
M  V30 8295 C 793.252 2.62017 -3.65605 0
M  V30 8296 C 794.571 3.91182 -2.01654 0
M  V30 8297 H 791.69 0.577232 -0.458227 0
M  V30 8298 H 794.332 0.960227 -1.6395 0
M  V30 8299 H 792.482 3.4352 -1.81456 0
M  V30 8300 H 794.154 2.14582 -4.08353 0
M  V30 8301 H 792.397 1.95621 -3.87189 0
M  V30 8302 H 793.068 3.55112 -4.2261 0
M  V30 8303 H 795.544 3.46684 -2.30107 0
M  V30 8304 H 794.42 4.80391 -2.65548 0
M  V30 8305 H 794.681 4.30861 -0.990536 0
M  V30 8306 N 793.74 1.17359 1.05189 0
M  V30 8307 C 795.156 0.920861 1.30355 0
M  V30 8308 C 795.356 -0.419993 1.97074 0
M  V30 8309 O 794.412 -1.15696 2.24434 0
M  V30 8310 C 795.725 2.07818 2.1733 0
M  V30 8311 C 797.273 2.1152 2.30712 0
M  V30 8312 C 797.748 3.26637 3.21048 0
M  V30 8313 N 799.239 3.26426 3.28634 0
M  V30 8314 C 799.974 4.12141 3.98657 0
M  V30 8315 N 799.47 5.07966 4.71107 0
M  V30 8316 N 801.263 4.00091 3.94821 0
M  V30 8317 H 793.414 2.03666 0.602821 0
M  V30 8318 H 795.677 0.889294 0.328421 0
M  V30 8319 H 795.383 3.04727 1.75597 0
M  V30 8320 H 795.257 2.02922 3.17966 0
M  V30 8321 H 797.644 1.15196 2.71687 0
M  V30 8322 H 797.725 2.20477 1.29706 0
M  V30 8323 H 797.369 4.23227 2.80788 0
M  V30 8324 H 797.299 3.14917 4.2206 0
M  V30 8325 H 799.79 2.57045 2.77013 0
M  V30 8326 H 800.103 5.69766 5.22099 0
M  V30 8327 H 798.448 5.11936 4.7005 0
M  V30 8328 H 801.639 3.24523 3.37346 0
M  V30 8329 H 801.812 4.6711 4.49123 0
M  V30 8330 N 795.218 -1.23913 0.973828 0
M  V30 8331 C 796.181 -2.23367 0.51378 0
M  V30 8332 C 797.181 -1.55923 -0.39302 0
M  V30 8333 O 798.371 -1.73187 -0.187626 0
M  V30 8334 C 795.503 -3.39944 -0.255152 0
M  V30 8335 H 796.696 -2.65581 1.39307 0
M  V30 8336 H 794.249 -1.36632 0.759039 0
M  V30 8337 H 794.984 -3.03177 -1.15127 0
M  V30 8338 H 794.769 -3.90098 0.395673 0
M  V30 8339 H 796.259 -4.13749 -0.565842 0
M  V30 8340 N 796.696 -0.74468 -1.38897 0
M  V30 8341 C 798.112 -0.421302 -1.53939 0
M  V30 8342 C 798.312 1.06668 -1.70951 0
M  V30 8343 O 797.368 1.85278 -1.71547 0
M  V30 8344 C 798.681 -1.21278 -2.75159 0
M  V30 8345 C 800.229 -1.20196 -2.89001 0
M  V30 8346 C 800.704 -1.97621 -4.13171 0
M  V30 8347 N 802.195 -1.94836 -4.2023 0
M  V30 8348 C 802.93 -2.51545 -5.15279 0
M  V30 8349 N 802.426 -3.1693 -6.16058 0
M  V30 8350 N 804.219 -2.41524 -5.07565 0
M  V30 8351 H 796.37 -1.70914 -1.26103 0
M  V30 8352 H 798.633 -0.724058 -0.611919 0
M  V30 8353 H 798.339 -2.26609 -2.68963 0
M  V30 8354 H 798.213 -0.823677 -3.68097 0
M  V30 8355 H 800.6 -0.156742 -2.94683 0
M  V30 8356 H 800.681 -1.63051 -1.97099 0
M  V30 8357 H 800.325 -3.02149 -4.0825 0
M  V30 8358 H 800.255 -1.52166 -5.04136 0
M  V30 8359 H 802.746 -1.4721 -3.48048 0
M  V30 8360 H 803.059 -3.57644 -6.85062 0
M  V30 8361 H 801.404 -3.21023 -6.16417 0
M  V30 8362 H 804.595 -1.90077 -4.27771 0
M  V30 8363 H 804.768 -2.86016 -5.81462 0
M  V30 8364 N 798.174 1.49689 -0.493057 0
M  V30 8365 C 799.422 2.02027 0.0541642 0
M  V30 8366 C 799.743 1.37554 1.38217 0
M  V30 8367 O 799.013 0.528174 1.88646 0
M  V30 8368 H 797.593 0.746646 0.0230069 0
M  V30 8369 H 800.255 1.83795 -0.648489 0
M  V30 8370 H 799.351 3.11523 0.189652 0
M  V30 8371 N 799.652 0.226554 1.55963 0
M  V30 8372 C 800.9 -0.402991 1.98041 0
M  V30 8373 C 801.221 -1.59938 1.11557 0
M  V30 8374 O 800.491 -1.9494 0.193719 0
M  V30 8375 H 799.071 -0.15188 0.731397 0
M  V30 8376 H 801.733 0.320613 1.92245 0
M  V30 8377 H 800.829 -0.725937 3.0354 0
M  V30 8378 N 801.13 -1.57531 -0.0467866 0
M  V30 8379 C 802.062 -2.02156 -1.08007 0
M  V30 8380 C 803.075 -0.931434 -1.33522 0
M  V30 8381 O 804.264 -1.209 -1.31321 0
M  V30 8382 C 801.364 -2.36675 -2.42566 0
M  V30 8383 C 800.537 -3.67848 -2.36658 0
M  V30 8384 C 799.596 -3.89754 -3.53523 0
M  V30 8385 O 798.622 -4.61036 -3.33818 0
M  V30 8386 N 799.824 -3.34025 -4.74771 0
M  V30 8387 H 802.589 -2.91414 -0.699845 0
M  V30 8388 H 800.15 -1.60185 -0.235041 0
M  V30 8389 H 802.142 -2.48482 -3.19435 0
M  V30 8390 H 800.712 -1.53178 -2.72498 0
M  V30 8391 H 799.932 -3.66561 -1.45005 0
M  V30 8392 H 801.22 -4.53931 -2.29835 0
M  V30 8393 H 800.618 -2.76214 -4.93683 0
M  V30 8394 H 799.175 -3.51241 -5.49066 0
M  V30 8395 N 802.608 0.318715 -1.54344 0
M  V30 8396 C 803.538 1.39751 -1.87061 0
M  V30 8397 C 804.519 1.53741 -0.727848 0
M  V30 8398 O 805.704 1.67541 -0.982016 0
M  V30 8399 C 802.834 2.76446 -2.10226 0
M  V30 8400 C 801.788 2.77239 -3.26071 0
M  V30 8401 C 801.114 4.17056 -3.34617 0
M  V30 8402 C 802.414 2.40555 -4.63606 0
M  V30 8403 H 804.108 1.12619 -2.77412 0
M  V30 8404 H 801.654 0.540318 -1.33479 0
M  V30 8405 H 803.607 3.51985 -2.31699 0
M  V30 8406 H 802.331 3.05066 -1.16629 0
M  V30 8407 H 800.99 2.04155 -3.04493 0
M  V30 8408 H 800.638 4.42824 -2.3857 0
M  V30 8409 H 800.338 4.18492 -4.12478 0
M  V30 8410 H 801.862 4.94401 -3.5833 0
M  V30 8411 H 803.276 3.05808 -4.84927 0
M  V30 8412 H 801.673 2.53234 -5.44052 0
M  V30 8413 H 802.743 1.35698 -4.65526 0
M  V30 8414 N 804.086 1.46499 0.581025 0
M  V30 8415 C 805.316 1.55244 1.36319 0
M  V30 8416 C 805.724 0.193059 1.88212 0
M  V30 8417 O 805.067 -0.820109 1.64377 0
M  V30 8418 C 805.129 2.498 2.58535 0
M  V30 8419 C 804.793 3.96007 2.28096 0
M  V30 8420 C 805.79 4.85171 1.8683 0
M  V30 8421 C 803.475 4.41152 2.40189 0
M  V30 8422 C 805.469 6.17493 1.58053 0
M  V30 8423 C 803.156 5.73508 2.11024 0
M  V30 8424 C 804.154 6.615 1.70021 0
M  V30 8425 O 803.842 7.914 1.41215 0
M  V30 8426 H 803.574 0.527513 0.422736 0
M  V30 8427 H 806.128 1.92623 0.713139 0
M  V30 8428 H 804.358 2.07443 3.2635 0
M  V30 8429 H 806.047 2.48934 3.20604 0
M  V30 8430 H 806.813 4.51548 1.77001 0
M  V30 8431 H 802.692 3.72886 2.71066 0
M  V30 8432 H 806.236 6.86131 1.25974 0
M  V30 8433 H 802.133 6.06679 2.20478 0
M  V30 8434 H 802.901 8.03681 1.55046 0
M  V30 8435 N 805.565 -0.825799 1.34232 0
M  V30 8436 C 806.811 -1.58419 1.26614 0
M  V30 8437 C 807.144 -1.93503 -0.164341 0
M  V30 8438 O 806.419 -1.59785 -1.109 0
M  V30 8439 C 806.702 -2.8856 2.15418 0
M  V30 8440 C 806.555 -2.60075 3.66989 0
M  V30 8441 C 807.874 -3.90107 2.03726 0
M  V30 8442 H 804.993 -0.574794 0.461282 0
M  V30 8443 H 807.635 -0.951519 1.64457 0
M  V30 8444 H 805.785 -3.42553 1.83275 0
M  V30 8445 H 807.457 -2.12414 4.09485 0
M  V30 8446 H 805.7 -1.93565 3.88221 0
M  V30 8447 H 806.371 -3.52866 4.24488 0
M  V30 8448 H 808.847 -3.45459 2.31942 0
M  V30 8449 H 807.723 -4.78976 2.68092 0
M  V30 8450 H 807.984 -4.30329 1.01337 0
M  V30 8451 N 807.043 -1.17915 -1.04565 0
M  V30 8452 C 808.29 -0.971424 -1.77678 0
M  V30 8453 C 808.618 0.499401 -1.87979 0
M  V30 8454 O 807.873 1.38695 -1.38066 0
M  V30 8455 C 808.172 -1.56528 -3.213 0
M  V30 8456 C 807.838 -3.06138 -3.31044 0
M  V30 8457 C 806.5 -3.46974 -3.33411 0
M  V30 8458 C 808.852 -4.02151 -3.31548 0
M  V30 8459 C 806.18 -4.82406 -3.33918 0
M  V30 8460 C 808.532 -5.37492 -3.33595 0
M  V30 8461 C 807.196 -5.77782 -3.34251 0
M  V30 8462 H 806.466 -0.355469 -0.650171 0
M  V30 8463 H 809.113 -1.46902 -1.22849 0
M  V30 8464 H 807.418 -0.98955 -3.79098 0
M  V30 8465 H 809.115 -1.38003 -3.76505 0
M  V30 8466 H 805.705 -2.73589 -3.29919 0
M  V30 8467 H 809.889 -3.71656 -3.28916 0
M  V30 8468 H 805.145 -5.12927 -3.3274 0
M  V30 8469 H 809.319 -6.1166 -3.32934 0
M  V30 8470 H 806.946 -6.82702 -3.34397 0
M  V30 8471 N 808.521 1.23394 -0.980386 0
M  V30 8472 C 809.484 2.23092 -0.525619 0
M  V30 8473 C 810.484 1.56129 0.384745 0
M  V30 8474 O 811.674 1.73284 0.178439 0
M  V30 8475 C 808.806 3.40074 0.23712 0
M  V30 8476 H 809.999 2.64839 -1.40714 0
M  V30 8477 H 807.552 1.36227 -0.766275 0
M  V30 8478 H 808.287 3.03783 1.13518 0
M  V30 8479 H 808.072 3.89883 -0.416356 0
M  V30 8480 H 809.562 4.14043 0.543892 0
M  V30 8481 N 809.999 0.752036 1.385 0
M  V30 8482 C 811.276 0.233075 1.94206 0
M  V30 8483 C 811.656 -1.26838 1.68746 0
M  V30 8484 O 811.004 -2.04214 1.02513 0
M  V30 8485 C 811.214 0.58509 3.44061 0
M  V30 8486 C 812.562 0.543871 4.21102 0
M  V30 8487 O 813.586 0.523291 3.52335 0
M  V30 8488 O 812.445 0.553436 5.4369 0
M  V30 8489 H 809.539 0.0483049 0.825588 0
M  V30 8490 H 812.085 0.832053 1.47902 0
M  V30 8491 H 810.857 1.62212 3.56094 0
M  V30 8492 H 810.48 -0.0419738 3.97578 0
M  V30 8493 N 811.477 -1.49425 0.500989 0
M  V30 8494 C 812.409 -2.27037 -0.314159 0
M  V30 8495 C 813.422 -1.33578 -0.930626 0
M  V30 8496 O 814.611 -1.58861 -0.813968 0
M  V30 8497 C 811.711 -3.05968 -1.45729 0
M  V30 8498 C 810.884 -4.27 -0.948135 0
M  V30 8499 C 809.943 -4.87977 -1.96888 0
M  V30 8500 O 808.969 -5.48044 -1.53743 0
M  V30 8501 N 810.171 -4.77627 -3.29928 0
M  V30 8502 H 812.936 -2.97634 0.351336 0
M  V30 8503 H 810.497 -1.58427 0.333536 0
M  V30 8504 H 812.489 -3.43634 -2.1377 0
M  V30 8505 H 811.059 -2.37978 -2.02695 0
M  V30 8506 H 810.279 -3.94091 -0.0926311 0
M  V30 8507 H 811.567 -5.0541 -0.586362 0
M  V30 8508 H 810.965 -4.29926 -3.67669 0
M  V30 8509 H 809.522 -5.19478 -3.93682 0
M  V30 8510 N 812.955 -0.234822 -1.55841 0
M  V30 8511 C 814.232 0.442961 -1.90518 0
M  V30 8512 C 814.612 1.76768 -1.15397 0
M  V30 8513 O 813.96 2.26928 -0.267534 0
M  V30 8514 C 814.17 0.622905 -3.43396 0
M  V30 8515 C 815.518 0.9243 -4.14417 0
M  V30 8516 O 816.542 0.709211 -3.49068 0
M  V30 8517 O 815.401 1.33323 -5.29988 0
M  V30 8518 H 812.495 0.236042 -0.792599 0
M  V30 8519 H 815.041 -0.277992 -1.67408 0
M  V30 8520 H 813.813 -0.310973 -3.90062 0
M  V30 8521 H 813.436 1.39485 -3.7233 0
M  V30 8522 N 814.433 1.57553 0.0384317 0
M  V30 8523 C 815.396 2.04927 1.02653 0
M  V30 8524 C 816.396 0.951768 1.29607 0
M  V30 8525 O 817.586 1.21568 1.24768 0
M  V30 8526 C 814.718 2.45828 2.36181 0
M  V30 8527 H 815.911 2.93474 0.617508 0
M  V30 8528 H 813.464 1.53679 0.285031 0
M  V30 8529 H 814.199 1.60408 2.8185 0
M  V30 8530 H 813.984 3.25945 2.1795 0
M  V30 8531 H 815.474 2.82939 3.0714 0
M  V30 8532 N 815.911 -0.310526 1.54511 0
M  V30 8533 C 817.159 -1.04484 1.72996 0
M  V30 8534 C 817.48 -1.88118 0.513479 0
M  V30 8535 O 816.75 -1.90119 -0.472384 0
M  V30 8536 H 815.33 -0.388747 0.637875 0
M  V30 8537 H 817.992 -0.343811 1.91844 0
M  V30 8538 H 817.088 -1.70341 2.61515 0
M  V30 8539 N 817.389 -1.46805 -0.573248 0
M  V30 8540 C 818.636 -1.52604 -1.3311 0
M  V30 8541 C 818.964 -0.181633 -1.9365 0
M  V30 8542 O 818.219 0.823775 -1.77517 0
M  V30 8543 C 818.518 -2.58001 -2.47326 0
M  V30 8544 C 818.184 -4.01747 -2.04719 0
M  V30 8545 C 816.846 -4.40881 -1.92814 0
M  V30 8546 C 819.198 -4.92008 -1.71982 0
M  V30 8547 C 816.526 -5.68129 -1.46445 0
M  V30 8548 C 818.878 -6.19703 -1.27089 0
M  V30 8549 C 817.542 -6.57733 -1.13768 0
M  V30 8550 H 816.812 -0.558417 -0.487084 0
M  V30 8551 H 819.459 -1.80327 -0.644538 0
M  V30 8552 H 817.764 -2.23974 -3.2147 0
M  V30 8553 H 819.461 -2.59715 -3.05531 0
M  V30 8554 H 816.051 -3.70819 -2.14922 0
M  V30 8555 H 820.235 -4.62485 -1.8006 0
M  V30 8556 H 815.491 -5.96359 -1.34783 0
M  V30 8557 H 819.665 -6.89064 -1.00814 0
M  V30 8558 H 817.292 -7.56228 -0.776142 0
M  V30 8559 N 818.867 0.818669 -1.34668 0
M  V30 8560 C 820.113 1.57746 -1.27453 0
M  V30 8561 C 820.446 1.93588 0.154077 0
M  V30 8562 O 819.721 1.60371 1.10051 0
M  V30 8563 C 820.004 2.87414 -2.16945 0
M  V30 8564 C 819.857 2.58125 -3.68363 0
M  V30 8565 C 821.176 3.89021 -2.05792 0
M  V30 8566 H 818.295 0.572339 -0.464324 0
M  V30 8567 H 820.937 0.942784 -1.64959 0
M  V30 8568 H 819.087 3.41576 -1.85089 0
M  V30 8569 H 820.759 2.10239 -4.10606 0
M  V30 8570 H 819.002 1.91503 -3.89242 0
M  V30 8571 H 819.673 3.5061 -4.26353 0
M  V30 8572 H 822.149 3.44224 -2.33771 0
M  V30 8573 H 821.025 4.77548 -2.70628 0
M  V30 8574 H 821.286 4.29786 -1.03618 0
M  V30 8575 N 820.346 1.18468 1.03938 0
M  V30 8576 C 821.571 1.00638 1.81347 0
M  V30 8577 C 821.996 -0.440477 1.8287 0
M  V30 8578 O 821.354 -1.31609 1.24695 0
M  V30 8579 C 821.402 1.5673 3.24759 0
M  V30 8580 O 820.506 0.789517 4.04772 0
M  V30 8581 H 819.847 0.356432 0.560225 0
M  V30 8582 H 822.377 1.57253 1.30891 0
M  V30 8583 H 822.387 1.59496 3.75533 0
M  V30 8584 H 821.062 2.62043 3.22965 0
M  V30 8585 H 819.639 0.834267 3.63448 0
M  V30 8586 N 821.824 -1.22873 0.986916 0
M  V30 8587 C 823.049 -1.96028 0.677341 0
M  V30 8588 C 823.474 -1.72487 -0.750319 0
M  V30 8589 O 822.832 -1.00036 -1.51203 0
M  V30 8590 C 822.88 -3.46983 0.981593 0
M  V30 8591 O 821.984 -4.12328 0.0770729 0
M  V30 8592 H 821.325 -0.613458 0.254096 0
M  V30 8593 H 823.855 -1.56132 1.32227 0
M  V30 8594 H 823.865 -3.9747 0.920969 0
M  V30 8595 H 822.54 -3.63442 2.02194 0
M  V30 8596 H 821.117 -3.72402 0.192666 0
M  V30 8597 N 823.302 -0.75937 -1.38099 0
M  V30 8598 C 824.579 -0.243371 -1.9408 0
M  V30 8599 C 824.959 1.25942 -1.69416 0
M  V30 8600 O 824.307 2.03667 -1.03595 0
M  V30 8601 C 824.517 -0.603328 -3.43745 0
M  V30 8602 C 825.865 -0.566195 -4.20808 0
M  V30 8603 O 826.889 -0.541969 -3.52053 0
M  V30 8604 O 825.748 -0.582261 -5.43389 0
M  V30 8605 H 822.842 -0.0526825 -0.82532 0
M  V30 8606 H 825.388 -0.839884 -1.47459 0
M  V30 8607 H 824.16 -1.64098 -3.55229 0
M  V30 8608 H 823.783 0.0208887 -3.97595 0
M  V30 8609 N 824.78 1.49157 -0.508906 0
M  V30 8610 C 825.728 2.30922 0.278906 0
M  V30 8611 C 826.722 1.39889 0.955382 0
M  V30 8612 O 827.928 1.56901 0.882169 0
M  V30 8613 H 824.303 0.744087 0.108805 0
M  V30 8614 H 826.274 2.95277 -0.430583 0
M  V30 8615 C 825.023 3.21432 1.32576 0
M  V30 8616 H 824.346 3.91413 0.814634 0
M  V30 8617 H 825.786 3.81568 1.84882 0
M  V30 8618 C 824.245 2.41583 2.34817 0
M  V30 8619 O 824.775 2.1256 3.40854 0
M  V30 8620 N 822.981 2.03462 2.07489 0
M  V30 8621 H 822.528 2.27265 1.21278 0
M  V30 8622 H 822.486 1.50345 2.76123 0
M  V30 8623 N 826.258 0.243083 1.55714 0
M  V30 8624 C 827.191 -0.698623 2.17243 0
M  V30 8625 C 828.169 -1.1756 1.12331 0
M  V30 8626 O 829.353 -1.25444 1.40699 0
M  V30 8627 C 826.48 -1.94901 2.77004 0
M  V30 8628 C 825.526 -1.61022 3.94936 0
M  V30 8629 S 826.359 -0.716173 5.30689 0
M  V30 8630 C 827.515 -1.97565 5.93901 0
M  V30 8631 H 827.748 -0.175724 2.9678 0
M  V30 8632 H 825.281 0.0275727 1.54375 0
M  V30 8633 H 827.239 -2.66687 3.12071 0
M  V30 8634 H 825.9 -2.44304 1.9742 0
M  V30 8635 H 825.093 -2.5398 4.35328 0
M  V30 8636 H 824.695 -0.972829 3.61126 0
M  V30 8637 H 826.987 -2.92333 6.11186 0
M  V30 8638 H 827.93 -1.61528 6.8943 0
M  V30 8639 H 828.338 -2.126 5.22935 0
M  V30 8640 N 827.736 -1.57571 -0.0300757 0
M  V30 8641 C 828.686 -2.02958 -1.03885 0
M  V30 8642 C 829.67 -0.918723 -1.32092 0
M  V30 8643 O 830.862 -1.18262 -1.31694 0
M  V30 8644 C 827.991 -2.51169 -2.34028 0
M  V30 8645 C 827.077 -3.69073 -2.08915 0
M  V30 8646 N 827.468 -4.81831 -1.53858 0
M  V30 8647 C 825.766 -3.76427 -2.39204 0
M  V30 8648 C 826.467 -5.6346 -1.44526 0
M  V30 8649 N 825.443 -5.08545 -1.92048 0
M  V30 8650 H 829.245 -2.8756 -0.607157 0
M  V30 8651 H 826.759 -1.6067 -0.236399 0
M  V30 8652 H 828.756 -2.81944 -3.07104 0
M  V30 8653 H 827.416 -1.67972 -2.77876 0
M  V30 8654 H 828.427 -5.03291 -1.22142 0
M  V30 8655 H 825.104 -3.04029 -2.86134 0
M  V30 8656 H 826.494 -6.64042 -1.02456 0
M  V30 8657 N 829.214 0.302327 -1.54673 0
M  V30 8658 C 830.463 1.03533 -1.73101 0
M  V30 8659 C 830.776 1.88473 -0.523174 0
M  V30 8660 O 831.982 2.65029 -0.589229 0
M  V30 8661 C 830.438 1.89043 -3.06252 0
M  V30 8662 C 830.046 1.09112 -4.3451 0
M  V30 8663 C 831.79 2.61951 -3.34039 0
M  V30 8664 C 829.697 1.93891 -5.58713 0
M  V30 8665 H 828.627 0.390261 -0.645145 0
M  V30 8666 H 831.278 0.2924 -1.81155 0
M  V30 8667 H 829.66 2.67319 -2.92159 0
M  V30 8668 H 830.834 0.354596 -4.59434 0
M  V30 8669 H 829.149 0.477923 -4.13648 0
M  V30 8670 H 831.746 3.25729 -4.24033 0
M  V30 8671 H 832.089 3.30711 -2.52855 0
M  V30 8672 H 832.622 1.90725 -3.49097 0
M  V30 8673 H 829.361 1.29604 -6.4256 0
M  V30 8674 H 828.881 2.6522 -5.37976 0
M  V30 8675 H 830.56 2.51971 -5.95919 0
M  V30 8676 N 830.692 1.47107 0.565454 0
M  V30 8677 C 831.941 1.5257 1.31929 0
M  V30 8678 C 832.254 0.189092 1.94684 0
M  V30 8679 O 833.46 0.121657 2.71227 0
M  V30 8680 C 831.916 2.68914 2.39193 0
M  V30 8681 C 831.524 4.09069 1.82665 0
M  V30 8682 C 833.268 2.83663 3.1581 0
M  V30 8683 C 831.175 5.16726 2.87661 0
M  V30 8684 H 830.105 0.567869 0.496025 0
M  V30 8685 H 832.756 1.73361 0.60151 0
M  V30 8686 H 831.138 2.41486 3.13848 0
M  V30 8687 H 832.312 4.46364 1.14438 0
M  V30 8688 H 830.627 3.99135 1.1866 0
M  V30 8689 H 833.224 3.61261 3.94201 0
M  V30 8690 H 833.567 1.91804 3.69482 0
M  V30 8691 H 834.1 3.10821 2.48265 0
M  V30 8692 H 830.839 6.10433 2.38854 0
M  V30 8693 H 830.359 4.83957 3.54324 0
M  V30 8694 H 832.038 5.43319 3.51303 0
M  V30 8695 N 832.17 -0.811516 1.35101 0
M  V30 8696 C 833.08 -1.95475 1.29718 0
M  V30 8697 C 834.096 -1.72813 0.202909 0
M  V30 8698 O 835.272 -1.96725 0.431414 0
M  V30 8699 C 832.337 -3.29975 1.06385 0
M  V30 8700 C 831.398 -3.65566 2.25077 0
M  V30 8701 C 830.631 -4.93648 2.02848 0
M  V30 8702 O 830.854 -5.617 0.992442 0
M  V30 8703 O 829.788 -5.27384 2.90087 0
M  V30 8704 H 833.614 -2.02961 2.25921 0
M  V30 8705 H 831.199 -0.948583 1.15422 0
M  V30 8706 H 833.081 -4.10506 0.951999 0
M  V30 8707 H 831.756 -3.2343 0.132294 0
M  V30 8708 H 830.663 -2.85432 2.41825 0
M  V30 8709 H 831.996 -3.7681 3.16662 0
M  V30 8710 N 833.648 -1.19017 -1.03309 0
M  V30 8711 C 834.581 -0.867457 -2.1107 0
M  V30 8712 C 835.559 0.173752 -1.61669 0
M  V30 8713 O 836.743 0.0510077 -1.88431 0
M  V30 8714 C 833.87 -0.297459 -3.37391 0
M  V30 8715 C 832.916 -1.31706 -4.05655 0
M  V30 8716 S 833.749 -2.87591 -4.51721 0
M  V30 8717 C 834.905 -2.32122 -5.81266 0
M  V30 8718 H 835.138 -1.78008 -2.38119 0
M  V30 8719 H 832.671 -1.01686 -1.16187 0
M  V30 8720 H 834.629 0.0248889 -4.10492 0
M  V30 8721 H 833.29 0.5934 -3.08444 0
M  V30 8722 H 832.483 -0.867264 -4.96482 0
M  V30 8723 H 832.085 -1.58603 -3.38705 0
M  V30 8724 H 834.377 -1.70855 -6.55603 0
M  V30 8725 H 835.32 -3.2128 -6.31019 0
M  V30 8726 H 835.728 -1.74858 -5.36736 0
M  V30 8727 N 835.127 1.22348 -0.993418 0
M  V30 8728 C 836.538 1.72893 -0.704616 0
M  V30 8729 C 836.889 1.80095 0.778483 0
M  V30 8730 O 836.014 1.4476 1.60853 0
M  V30 8731 C 836.609 3.14 -1.27237 0
M  V30 8732 C 835.168 3.61949 -1.03294 0
M  V30 8733 C 834.315 2.39816 -1.39225 0
M  V30 8734 H 837.266 1.07688 -1.16572 0
M  V30 8735 H 837.287 3.74886 -0.651212 0
M  V30 8736 H 836.799 3.08727 -2.3518 0
M  V30 8737 H 834.9 3.72588 0.0298329 0
M  V30 8738 H 835.013 4.48051 -1.69668 0
M  V30 8739 H 833.377 2.41448 -0.810849 0
M  V30 8740 H 834.16 2.37203 -2.48172 0
M  V30 8741 N 836.605 0.766683 1.37694 0
M  V30 8742 C 837.555 0.123173 2.27667 0
M  V30 8743 C 838.539 -0.679436 1.45851 0
M  V30 8744 O 839.731 -0.54324 1.68457 0
M  V30 8745 C 836.86 -0.759064 3.34803 0
M  V30 8746 C 835.946 0.0511009 4.24069 0
M  V30 8747 N 836.337 1.09418 4.93823 0
M  V30 8748 C 834.635 -0.173675 4.45662 0
M  V30 8749 C 835.336 1.58546 5.59677 0
M  V30 8750 N 834.312 0.898503 5.36123 0
M  V30 8751 H 838.114 0.921859 2.79068 0
M  V30 8752 H 835.628 0.603957 1.50752 0
M  V30 8753 H 837.625 -1.23581 3.98163 0
M  V30 8754 H 836.285 -1.55655 2.84959 0
M  V30 8755 H 837.296 1.47623 4.96415 0
M  V30 8756 H 833.973 -0.943473 4.067 0
M  V30 8757 H 835.363 2.45504 6.25442 0
M  V30 8758 N 838.083 -1.48885 0.516809 0
M  V30 8759 C 839.329 -2.02788 -0.0220928 0
M  V30 8760 C 839.662 -1.39433 -1.35175 0
M  V30 8761 O 838.937 -0.535459 -1.86984 0
M  V30 8762 C 839.22 -3.59753 -0.158012 0
M  V30 8763 C 839.073 -4.33611 1.19588 0
M  V30 8764 C 840.392 -4.30984 -0.891133 0
M  V30 8765 H 837.511 -0.736971 -0.00655488 0
M  V30 8766 H 840.153 -1.77746 0.671287 0
M  V30 8767 H 838.303 -3.8122 -0.748568 0
M  V30 8768 H 839.975 -4.23598 1.82653 0
M  V30 8769 H 838.218 -3.95547 1.78116 0
M  V30 8770 H 838.889 -5.41846 1.05391 0
M  V30 8771 H 841.365 -4.14267 -0.39012 0
M  V30 8772 H 840.241 -5.40527 -0.955107 0
M  V30 8773 H 840.502 -3.97336 -1.93847 0
M  V30 8774 N 839.561 -0.251338 -1.55583 0
M  V30 8775 C 840.471 0.656978 -2.25213 0
M  V30 8776 C 841.487 1.18966 -1.26977 0
M  V30 8777 O 842.663 1.22499 -1.59862 0
M  V30 8778 C 839.728 1.83527 -2.94141 0
M  V30 8779 C 838.789 1.34162 -4.07798 0
M  V30 8780 C 838.022 2.46375 -4.73429 0
M  V30 8781 O 838.245 3.65205 -4.38157 0
M  V30 8782 O 837.179 2.15881 -5.61853 0
M  V30 8783 H 841.005 0.0936395 -3.03556 0
M  V30 8784 H 838.59 -0.0196638 -1.49387 0
M  V30 8785 H 840.472 2.52279 -3.3754 0
M  V30 8786 H 839.147 2.38614 -2.18735 0
M  V30 8787 H 838.054 0.621249 -3.68906 0
M  V30 8788 H 839.387 0.836779 -4.85035 0
M  V30 8789 N 841.039 1.57585 0.0217189 0
M  V30 8790 C 841.949 2.10444 1.03684 0
M  V30 8791 C 842.965 1.04472 1.39146 0
M  V30 8792 O 844.141 1.36249 1.48317 0
M  V30 8793 C 841.206 2.5794 2.31664 0
M  V30 8794 C 840.267 3.78425 2.02714 0
M  V30 8795 C 839.5 4.23646 3.24592 0
M  V30 8796 O 839.723 3.6834 4.35525 0
M  V30 8797 O 838.657 5.16013 3.09862 0
M  V30 8798 H 842.483 2.97354 0.617584 0
M  V30 8799 H 840.068 1.47473 0.239174 0
M  V30 8800 H 841.95 2.88785 3.06889 0
M  V30 8801 H 840.625 1.74138 2.7287 0
M  V30 8802 H 839.532 3.52587 1.25033 0
M  V30 8803 H 840.865 4.63234 1.66359 0
M  V30 8804 N 842.517 -0.29412 1.54831 0
M  V30 8805 C 843.763 -1.02999 1.74697 0
M  V30 8806 C 844.096 -1.86687 0.534949 0
M  V30 8807 O 843.371 -1.88789 -0.467863 0
M  V30 8808 C 843.654 -1.93024 3.03996 0
M  V30 8809 C 843.507 -1.1247 4.35512 0
M  V30 8810 C 844.826 -2.92085 3.29203 0
M  V30 8811 H 841.945 -0.373039 0.635618 0
M  V30 8812 H 844.587 -0.304065 1.87551 0
M  V30 8813 H 842.737 -2.5492 2.93169 0
M  V30 8814 H 844.409 -0.528067 4.58268 0
M  V30 8815 H 842.652 -0.427574 4.31688 0
M  V30 8816 H 843.323 -1.78728 5.22265 0
M  V30 8817 H 845.799 -2.40319 3.39685 0
M  V30 8818 H 844.675 -3.52234 4.20978 0
M  V30 8819 H 844.936 -3.66107 2.47827 0
M  V30 8820 N 843.995 -1.47404 -0.557645 0
M  V30 8821 C 845.244 -1.53268 -1.31118 0
M  V30 8822 C 845.557 -0.199414 -1.94581 0
M  V30 8823 O 846.763 -0.136039 -2.71159 0
M  V30 8824 C 845.219 -2.70178 -2.37764 0
M  V30 8825 C 844.827 -4.10032 -1.80493 0
M  V30 8826 C 846.571 -2.85334 -3.14301 0
M  V30 8827 C 844.478 -5.18244 -2.84916 0
M  V30 8828 H 843.408 -0.570491 -0.493007 0
M  V30 8829 H 846.059 -1.73678 -0.592308 0
M  V30 8830 H 844.441 -2.43147 -3.12563 0
M  V30 8831 H 845.615 -4.46964 -1.12069 0
M  V30 8832 H 843.93 -3.99759 -1.16542 0
M  V30 8833 H 846.527 -3.63347 -3.92279 0
M  V30 8834 H 846.87 -1.93761 -3.68459 0
M  V30 8835 H 847.403 -3.12133 -2.46613 0
M  V30 8836 H 844.142 -6.11691 -2.35614 0
M  V30 8837 H 843.662 -4.85829 -3.51753 0
M  V30 8838 H 845.341 -5.45174 -3.48417 0
M  V30 8839 N 845.473 0.80434 -1.35529 0
M  V30 8840 C 846.436 1.89788 -1.28503 0
M  V30 8841 C 847.436 1.59601 -0.195983 0
M  V30 8842 O 848.626 1.68292 -0.449827 0
M  V30 8843 C 845.758 3.26255 -0.98847 0
M  V30 8844 H 846.951 1.97436 -2.25741 0
M  V30 8845 H 844.504 1.00046 -1.20086 0
M  V30 8846 H 845.239 3.24294 -0.0200541 0
M  V30 8847 H 845.024 3.49551 -1.77641 0
M  V30 8848 H 846.514 4.06298 -0.964975 0
M  V30 8849 N 846.951 1.19563 1.02676 0
M  V30 8850 C 848.362 1.00158 1.57561 0
M  V30 8851 C 848.713 -0.444922 1.91089 0
M  V30 8852 O 847.838 -1.32466 1.71119 0
M  V30 8853 C 848.433 1.81181 2.86284 0
M  V30 8854 C 846.992 1.66171 3.37734 0
M  V30 8855 C 846.139 1.7975 2.11152 0
M  V30 8856 H 849.09 1.33904 0.85179 0
M  V30 8857 H 849.111 1.30916 3.57269 0
M  V30 8858 H 848.623 2.86454 2.6185 0
M  V30 8859 H 846.724 0.634927 3.6715 0
M  V30 8860 H 846.837 2.46832 4.10622 0
M  V30 8861 H 845.201 1.22833 2.23123 0
M  V30 8862 H 845.984 2.86487 1.89157 0
M  V30 8863 N 848.429 -1.21819 0.999893 0
M  V30 8864 C 849.678 -1.90066 0.675108 0
M  V30 8865 C 849.991 -1.78624 -0.79705 0
M  V30 8866 O 851.197 -2.41851 -1.23371 0
M  V30 8867 C 849.653 -3.40795 1.15702 0
M  V30 8868 C 849.261 -3.60859 2.6549 0
M  V30 8869 C 851.005 -4.147 0.906889 0
M  V30 8870 C 848.912 -5.05324 3.07248 0
M  V30 8871 H 847.842 -0.711763 0.248815 0
M  V30 8872 H 850.493 -1.3792 1.21038 0
M  V30 8873 H 848.875 -3.92164 0.549832 0
M  V30 8874 H 850.049 -3.19951 3.31614 0
M  V30 8875 H 848.364 -3.00298 2.88461 0
M  V30 8876 H 850.961 -5.21187 1.1945 0
M  V30 8877 H 851.304 -4.16004 -0.156923 0
M  V30 8878 H 851.837 -3.69379 1.47662 0
M  V30 8879 H 848.576 -5.09164 4.12834 0
M  V30 8880 H 848.096 -5.47108 2.45832 0
M  V30 8881 H 849.775 -5.73797 2.98941 0
M  V30 8882 N 849.908 -0.773975 -1.37286 0
M  V30 8883 C 851.155 -0.339306 -1.99637 0
M  V30 8884 C 851.483 1.08478 -1.61439 0
M  V30 8885 O 850.738 1.7612 -0.853252 0
M  V30 8886 C 851.037 -0.432651 -3.54772 0
M  V30 8887 C 850.703 -1.81531 -4.12744 0
M  V30 8888 C 849.365 -2.19366 -4.2829 0
M  V30 8889 C 851.717 -2.72137 -4.44512 0
M  V30 8890 C 849.045 -3.47239 -4.72908 0
M  V30 8891 C 851.397 -3.99421 -4.90556 0
M  V30 8892 C 850.061 -4.37298 -5.04308 0
M  V30 8893 H 849.331 -0.124161 -0.730524 0
M  V30 8894 H 851.978 -0.988432 -1.64019 0
M  V30 8895 H 850.283 0.30001 -3.9065 0
M  V30 8896 H 851.98 -0.0776 -4.00925 0
M  V30 8897 H 848.57 -1.51126 -4.01072 0
M  V30 8898 H 852.754 -2.44165 -4.32084 0
M  V30 8899 H 848.01 -3.76477 -4.81742 0
M  V30 8900 H 852.184 -4.69756 -5.14104 0
M  V30 8901 H 849.811 -5.36442 -5.38641 0
M  V30 8902 N 851.386 1.48609 -0.524698 0
M  V30 8903 C 852.616 2.06599 0.00741868 0
M  V30 8904 C 853.024 1.3823 1.29186 0
M  V30 8905 O 852.367 0.461962 1.77797 0
M  V30 8906 C 852.429 3.58184 0.307324 0
M  V30 8907 C 852.093 4.48391 -0.882864 0
M  V30 8908 C 853.09 4.88485 -1.77984 0
M  V30 8909 C 850.775 4.90367 -1.08837 0
M  V30 8910 C 852.769 5.69319 -2.86627 0
M  V30 8911 C 850.456 5.70972 -2.17794 0
M  V30 8912 C 851.454 6.10355 -3.06523 0
M  V30 8913 O 851.142 6.89343 -4.13596 0
M  V30 8914 H 850.874 0.675421 -0.0279846 0
M  V30 8915 H 853.428 1.92058 -0.7282 0
M  V30 8916 H 851.658 3.70818 1.09685 0
M  V30 8917 H 853.347 3.98318 0.780886 0
M  V30 8918 H 854.113 4.56682 -1.63299 0
M  V30 8919 H 849.992 4.592 -0.407035 0
M  V30 8920 H 853.536 5.99978 -3.55911 0
M  V30 8921 H 849.433 6.02188 -2.32465 0
M  V30 8922 H 850.201 7.07689 -4.1124 0
M  V30 8923 N 852.864 0.259585 1.55447 0
M  V30 8924 C 854.092 -0.365392 2.03648 0
M  V30 8925 C 854.507 -1.50613 1.13847 0
M  V30 8926 O 853.864 -1.81837 0.155414 0
M  V30 8927 C 853.915 -0.861172 3.51093 0
M  V30 8928 O 853.636 0.234121 4.37474 0
M  V30 8929 C 855.137 -1.55555 4.15111 0
M  V30 8930 H 852.357 -0.0853439 0.66555 0
M  V30 8931 H 854.901 0.387151 2.00802 0
M  V30 8932 H 853.056 -1.56385 3.54433 0
M  V30 8933 H 853.47 -0.1444 5.24301 0
M  V30 8934 H 854.944 -1.85403 5.19932 0
M  V30 8935 H 855.421 -2.48185 3.62355 0
M  V30 8936 H 856.027 -0.89712 4.15731 0
M  V30 8937 N 854.342 -1.57594 -0.0133615 0
M  V30 8938 C 855.588 -1.90262 -0.702019 0
M  V30 8939 C 855.921 -0.859219 -1.74158 0
M  V30 8940 O 855.196 0.123778 -1.94106 0
M  V30 8941 C 855.479 -3.3354 -1.35732 0
M  V30 8942 C 855.332 -4.48586 -0.330208 0
M  V30 8943 C 856.651 -3.76004 -2.28712 0
M  V30 8944 H 853.77 -0.691943 -0.253739 0
M  V30 8945 H 856.412 -1.89967 0.0351894 0
M  V30 8946 H 854.562 -3.33921 -1.98567 0
M  V30 8947 H 856.234 -4.6034 0.297433 0
M  V30 8948 H 854.477 -4.32394 0.348926 0
M  V30 8949 H 855.148 -5.45762 -0.827508 0
M  V30 8950 H 857.624 -3.77089 -1.75906 0
M  V30 8951 H 856.5 -4.77032 -2.71535 0
M  V30 8952 H 856.761 -3.09129 -3.16056 0
M  V30 8953 N 855.82 0.285905 -1.54985 0
M  V30 8954 C 857.231 0.857869 -1.65824 0
M  V30 8955 C 857.582 1.87531 -0.576763 0
M  V30 8956 O 856.707 2.14528 0.284016 0
M  V30 8957 C 857.302 1.56277 -3.00604 0
M  V30 8958 C 855.861 2.08294 -3.13513 0
M  V30 8959 C 855.008 0.920633 -2.61571 0
M  V30 8960 H 857.959 0.0625463 -1.58577 0
M  V30 8961 H 857.98 2.42912 -2.92872 0
M  V30 8962 H 857.492 0.822017 -3.79295 0
M  V30 8963 H 855.593 2.8537 -2.39572 0
M  V30 8964 H 855.706 2.3071 -4.19892 0
M  V30 8965 H 854.07 1.31043 -2.18403 0
M  V30 8966 H 854.853 0.193594 -3.42754 0
M  V30 8967 N 857.298 1.47698 0.54982 0
M  V30 8968 C 858.228 1.63622 1.66583 0
M  V30 8969 C 859.209 0.485477 1.63025 0
M  V30 8970 O 860.394 0.715692 1.80531 0
M  V30 8971 C 857.524 1.65721 3.05211 0
M  V30 8972 C 856.478 2.80097 3.2362 0
M  V30 8973 C 855.804 2.67272 4.63109 0
M  V30 8974 C 857.104 4.21612 3.08286 0
M  V30 8975 H 858.798 2.57049 1.53512 0
M  V30 8976 H 856.344 1.23705 0.737099 0
M  V30 8977 H 858.297 1.75451 3.83138 0
M  V30 8978 H 857.021 0.688593 3.19258 0
M  V30 8979 H 855.68 2.69889 2.48104 0
M  V30 8980 H 855.328 1.68422 4.73965 0
M  V30 8981 H 855.028 3.44008 4.76374 0
M  V30 8982 H 856.552 2.78942 5.43161 0
M  V30 8983 H 857.966 4.32758 3.76024 0
M  V30 8984 H 856.363 4.99193 3.33057 0
M  V30 8985 H 857.433 4.39462 2.04942 0
M  V30 8986 N 858.776 -0.797141 1.35954 0
M  V30 8987 C 859.708 -1.91782 1.25509 0
M  V30 8988 C 860.721 -1.61843 0.176271 0
M  V30 8989 O 861.91 -1.73235 0.430343 0
M  V30 8990 C 859.01 -3.26396 0.912073 0
M  V30 8991 C 858.183 -3.84171 2.0912 0
M  V30 8992 C 857.242 -4.9721 1.72246 0
M  V30 8993 O 856.268 -5.14136 2.44239 0
M  V30 8994 N 857.47 -5.76831 0.651611 0
M  V30 8995 H 860.235 -2.01266 2.22063 0
M  V30 8996 H 857.796 -0.975033 1.29247 0
M  V30 8997 H 859.788 -3.99499 0.646707 0
M  V30 8998 H 858.358 -3.12579 0.0359079 0
M  V30 8999 H 857.578 -3.03148 2.51982 0
M  V30 9000 H 858.866 -4.19503 2.87914 0
M  V30 9001 H 858.264 -5.65675 0.0536678 0
M  V30 9002 H 856.821 -6.50272 0.44605 0
M  V30 9003 N 860.254 -1.20106 -1.0204 0
M  V30 9004 C 861.184 -0.970301 -2.12385 0
M  V30 9005 C 862.165 0.099378 -1.69809 0
M  V30 9006 O 863.35 -0.057365 -1.94115 0
M  V30 9007 C 860.48 -0.517431 -3.43424 0
M  V30 9008 C 859.434 -1.52992 -3.99722 0
M  V30 9009 C 858.76 -0.933817 -5.26483 0
M  V30 9010 C 860.06 -2.91257 -4.33551 0
M  V30 9011 H 861.754 -1.89316 -2.31948 0
M  V30 9012 H 859.3 -0.911655 -1.11467 0
M  V30 9013 H 861.253 -0.343243 -4.2 0
M  V30 9014 H 859.977 0.441049 -3.23608 0
M  V30 9015 H 858.636 -1.6914 -3.2525 0
M  V30 9016 H 858.284 0.0324763 -5.0299 0
M  V30 9017 H 857.984 -1.60999 -5.65113 0
M  V30 9018 H 859.508 -0.770614 -6.05718 0
M  V30 9019 H 860.922 -2.78642 -5.0103 0
M  V30 9020 H 859.319 -3.55745 -4.83286 0
M  V30 9021 H 860.389 -3.43269 -3.42483 0
M  V30 9022 N 861.732 1.21287 -1.00634 0
M  V30 9023 C 862.662 2.25973 -0.588089 0
M  V30 9024 C 863.643 1.65527 0.391764 0
M  V30 9025 O 864.828 1.92179 0.279452 0
M  V30 9026 C 861.958 3.47197 0.0847336 0
M  V30 9027 C 860.912 4.20168 -0.815039 0
M  V30 9028 C 860.238 5.34699 -0.00855393 0
M  V30 9029 C 861.538 4.77416 -2.11828 0
M  V30 9030 H 863.232 2.61212 -1.46317 0
M  V30 9031 H 860.778 1.25563 -0.704985 0
M  V30 9032 H 862.731 4.19602 0.388821 0
M  V30 9033 H 861.455 3.11092 0.994456 0
M  V30 9034 H 860.114 3.49614 -1.10297 0
M  V30 9035 H 859.762 4.94837 0.902499 0
M  V30 9036 H 859.462 5.84449 -0.607664 0
M  V30 9037 H 860.986 6.09914 0.289317 0
M  V30 9038 H 862.4 5.41694 -1.87725 0
M  V30 9039 H 860.797 5.37561 -2.66736 0
M  V30 9040 H 861.867 3.96724 -2.78816 0
M  V30 9041 N 863.21 0.781244 1.36873 0
M  V30 9042 C 864.173 0.180094 2.28491 0
M  V30 9043 C 865.173 -0.617798 1.48458 0
M  V30 9044 O 866.363 -0.439991 1.68552 0
M  V30 9045 C 863.495 -0.751741 3.32508 0
M  V30 9046 H 864.688 0.987837 2.83164 0
M  V30 9047 H 862.241 0.550102 1.463 0
M  V30 9048 H 862.976 -1.58413 2.82977 0
M  V30 9049 H 862.761 -0.181649 3.91679 0
M  V30 9050 H 864.251 -1.16748 4.00949 0
M  V30 9051 N 864.689 -1.48329 0.532571 0
M  V30 9052 C 865.919 -2.066 0.00353785 0
M  V30 9053 C 866.327 -1.38913 -1.28451 0
M  V30 9054 O 865.67 -0.471385 -1.77549 0
M  V30 9055 C 865.732 -3.58342 -0.288324 0
M  V30 9056 C 865.396 -4.47917 0.906631 0
M  V30 9057 C 866.393 -4.87534 1.80572 0
M  V30 9058 C 864.078 -4.89783 1.11436 0
M  V30 9059 C 866.072 -5.6779 2.89642 0
M  V30 9060 C 863.759 -5.69809 2.20819 0
M  V30 9061 C 864.757 -6.08721 3.09755 0
M  V30 9062 O 864.445 -6.8714 4.17246 0
M  V30 9063 H 864.177 -0.675263 0.0315661 0
M  V30 9064 H 866.731 -1.91669 0.738375 0
M  V30 9065 H 864.961 -3.71395 -1.07717 0
M  V30 9066 H 866.65 -3.98726 -0.759752 0
M  V30 9067 H 867.416 -4.5581 1.65719 0
M  V30 9068 H 863.295 -4.58977 0.431382 0
M  V30 9069 H 866.839 -5.98082 3.59087 0
M  V30 9070 H 862.736 -6.00947 2.35655 0
M  V30 9071 H 863.504 -7.05498 4.14988 0
M  V30 9072 N 866.167 -0.267825 -1.55308 0
M  V30 9073 C 867.117 0.637168 -2.18916 0
M  V30 9074 C 868.101 1.12381 -1.15149 0
M  V30 9075 O 869.293 1.0701 -1.40989 0
M  V30 9076 C 866.422 1.82423 -2.90821 0
M  V30 9077 C 865.508 1.35512 -4.01867 0
M  V30 9078 N 865.899 0.601644 -5.02209 0
M  V30 9079 C 864.197 1.63868 -4.14805 0
M  V30 9080 C 864.898 0.35596 -5.8061 0
M  V30 9081 N 863.874 0.926271 -5.3565 0
M  V30 9082 H 867.676 0.0535787 -2.93851 0
M  V30 9083 H 865.19 -0.0710577 -1.62244 0
M  V30 9084 H 867.187 2.48379 -3.34834 0
M  V30 9085 H 865.847 2.41185 -2.17394 0
M  V30 9086 H 866.858 0.249693 -5.17298 0
M  V30 9087 H 863.535 2.23618 -3.52564 0
M  V30 9088 H 864.925 -0.246994 -6.71446 0
M  V30 9089 N 867.645 1.57599 0.00500368 0
M  V30 9090 C 868.891 1.90631 0.691919 0
M  V30 9091 C 869.224 0.868443 1.737 0
M  V30 9092 O 868.499 -0.113482 1.94169 0
M  V30 9093 C 868.782 3.34255 1.33961 0
M  V30 9094 C 868.635 4.48755 0.306413 0
M  V30 9095 C 869.954 3.77211 2.26715 0
M  V30 9096 H 867.073 0.693279 0.250066 0
M  V30 9097 H 869.715 1.89946 -0.0452634 0
M  V30 9098 H 867.865 3.3497 1.96793 0
M  V30 9099 H 869.537 4.60176 -0.321841 0
M  V30 9100 H 867.78 4.32203 -0.371852 0
M  V30 9101 H 868.451 5.46193 0.798554 0
M  V30 9102 H 870.927 3.78017 1.73904 0
M  V30 9103 H 869.803 4.78466 2.69002 0
M  V30 9104 H 870.064 3.10801 3.14413 0
M  V30 9105 N 869.123 -0.277682 1.55134 0
M  V30 9106 C 870.086 -1.32635 1.86924 0
M  V30 9107 C 871.086 -1.42578 0.743507 0
M  V30 9108 O 872.276 -1.4181 1.01171 0
M  V30 9109 C 869.408 -2.70832 2.07034 0
M  V30 9110 H 870.601 -1.0568 2.80663 0
M  V30 9111 H 868.154 -0.515517 1.47554 0
M  V30 9112 H 868.889 -3.02974 1.15661 0
M  V30 9113 H 868.674 -2.65001 2.88993 0
M  V30 9114 H 870.164 -3.46611 2.32918 0
M  V30 9115 N 870.601 -1.47988 -0.541979 0
M  V30 9116 C 871.531 -1.64503 -1.65713 0
M  V30 9117 C 872.512 -0.494116 -1.62765 0
M  V30 9118 O 873.697 -0.725256 -1.80149 0
M  V30 9119 C 870.827 -1.67337 -3.04328 0
M  V30 9120 C 869.781 -2.81809 -3.2213 0
M  V30 9121 C 869.107 -2.69724 -4.61685 0
M  V30 9122 C 870.407 -4.23241 -3.06046 0
M  V30 9123 H 872.101 -2.5786 -1.52147 0
M  V30 9124 H 869.647 -1.24094 -0.730529 0
M  V30 9125 H 871.6 -1.77481 -3.82202 0
M  V30 9126 H 870.324 -0.705514 -3.18889 0
M  V30 9127 H 868.983 -2.71201 -2.46669 0
M  V30 9128 H 868.631 -1.70934 -4.73065 0
M  V30 9129 H 868.331 -3.4653 -4.74543 0
M  V30 9130 H 869.855 -2.81818 -5.41674 0
M  V30 9131 H 871.269 -4.34746 -3.73723 0
M  V30 9132 H 869.666 -5.00952 -3.30405 0
M  V30 9133 H 870.736 -4.40543 -2.02609 0
M  V30 9134 N 872.079 0.78992 -1.36375 0
M  V30 9135 C 873.328 1.54296 -1.29906 0
M  V30 9136 C 873.641 1.95234 0.119651 0
M  V30 9137 O 874.847 2.69762 0.306708 0
M  V30 9138 C 873.303 2.78533 -2.27919 0
M  V30 9139 C 872.911 2.44767 -3.75224 0
M  V30 9140 C 874.655 3.56516 -2.30427 0
M  V30 9141 C 872.562 3.65397 -4.65015 0
M  V30 9142 H 871.492 0.579214 -0.482729 0
M  V30 9143 H 874.143 0.866845 -1.61735 0
M  V30 9144 H 872.525 3.47941 -1.89084 0
M  V30 9145 H 873.699 1.83259 -4.22792 0
M  V30 9146 H 872.014 1.79996 -3.75487 0
M  V30 9147 H 874.611 4.46143 -2.94722 0
M  V30 9148 H 874.954 3.95063 -1.31266 0
M  V30 9149 H 875.487 2.94087 -2.67876 0
M  V30 9150 H 872.226 3.31946 -5.65236 0
M  V30 9151 H 871.746 4.26072 -4.22164 0
M  V30 9152 H 873.425 4.32431 -4.81261 0
M  V30 9153 N 873.557 1.20646 1.01402 0
M  V30 9154 C 874.504 0.957618 2.09996 0
M  V30 9155 C 875.474 -0.113115 1.65714 0
M  V30 9156 O 876.659 0.032142 1.90773 0
M  V30 9157 C 873.799 0.5186 3.41181 0
M  V30 9158 C 872.912 1.65777 3.98926 0
M  V30 9159 C 872.047 1.16881 5.18182 0
M  V30 9160 C 871.086 2.2809 5.68015 0
M  V30 9161 N 870.223 1.80392 6.7853 0
M  V30 9162 H 875.063 1.88732 2.30617 0
M  V30 9163 H 872.6 0.940703 1.13089 0
M  V30 9164 H 874.558 0.245367 4.16478 0
M  V30 9165 H 873.188 -0.3741 3.20625 0
M  V30 9166 H 872.24 2.04586 3.207 0
M  V30 9167 H 873.552 2.49507 4.31912 0
M  V30 9168 H 872.706 0.851694 6.00692 0
M  V30 9169 H 871.445 0.301434 4.86768 0
M  V30 9170 H 870.45 2.60614 4.84108 0
M  V30 9171 H 871.675 3.15308 6.01463 0
M  V30 9172 H 869.621 0.959856 6.4894 0
M  V30 9173 H 869.538 2.57701 7.10722 0
M  V30 9174 H 870.806 1.51688 7.64598 0
M  V30 9175 N 875.035 -1.20752 1.01276 0
M  V30 9176 C 876.283 -1.89645 0.698505 0
M  V30 9177 C 876.604 -1.78986 -0.773883 0
M  V30 9178 O 875.874 -1.18977 -1.55632 0
M  V30 9179 H 874.454 -0.701992 0.255375 0
M  V30 9180 H 877.116 -1.46668 1.28353 0
M  V30 9181 H 876.212 -2.96364 0.978512 0
M  V30 9182 N 876.513 -0.788492 -1.36457 0
M  V30 9183 C 877.741 -0.372365 -2.03522 0
M  V30 9184 C 878.156 1.01093 -1.59454 0
M  V30 9185 O 877.513 1.64824 -0.783535 0
M  V30 9186 C 877.564 -0.425435 -3.58988 0
M  V30 9187 O 877.285 -1.75418 -4.01448 0
M  V30 9188 C 878.786 0.000180167 -4.433 0
M  V30 9189 H 876.006 -0.1536 -0.653183 0
M  V30 9190 H 878.55 -1.06708 -1.74452 0
M  V30 9191 H 876.705 0.220856 -3.8677 0
M  V30 9192 H 877.119 -1.70437 -4.96036 0
M  V30 9193 H 878.593 -0.0880919 -5.5193 0
M  V30 9194 H 879.07 1.05269 -4.26398 0
M  V30 9195 H 879.676 -0.618563 -4.20778 0
M  V30 9196 N 877.991 1.48044 -0.54043 0
M  V30 9197 C 879.268 1.95523 0.0547302 0
M  V30 9198 C 879.648 1.48284 1.5025 0
M  V30 9199 O 878.996 0.714037 2.17057 0
M  V30 9200 C 879.206 3.48923 -0.0733393 0
M  V30 9201 C 880.554 4.24523 0.0806026 0
M  V30 9202 O 881.578 3.562 -5.58687e-05 0
M  V30 9203 O 880.437 5.45922 0.251216 0
M  V30 9204 H 877.531 0.823728 0.073493 0
M  V30 9205 H 880.077 1.5852 -0.605768 0
M  V30 9206 H 878.849 3.76059 -1.08144 0
M  V30 9207 H 878.472 3.92648 0.625536 0
M  V30 9208 N 879.47 0.276058 1.55163 0
M  V30 9209 C 880.716 -0.340959 1.99913 0
M  V30 9210 C 881.049 -1.55434 1.16422 0
M  V30 9211 O 880.324 -1.93081 0.234517 0
M  V30 9212 C 880.607 -0.722211 3.52783 0
M  V30 9213 C 880.46 0.498575 4.47028 0
M  V30 9214 C 881.779 -1.5583 4.11589 0
M  V30 9215 H 878.898 -0.122455 0.726756 0
M  V30 9216 H 881.54 0.38319 1.86096 0
M  V30 9217 H 879.69 -1.33919 3.64689 0
M  V30 9218 H 881.362 1.13713 4.47065 0
M  V30 9219 H 879.605 1.13646 4.18649 0
M  V30 9220 H 880.276 0.188041 5.5168 0
M  V30 9221 H 882.752 -1.03722 4.02965 0
M  V30 9222 H 881.628 -1.79387 5.1876 0
M  V30 9223 H 881.889 -2.53963 3.61877 0
M  V30 9224 N 880.948 -1.576 0.00335426 0
M  V30 9225 C 882.225 -1.81945 -0.718015 0
M  V30 9226 C 882.605 -0.881788 -1.91801 0
M  V30 9227 O 881.953 0.0687118 -2.28397 0
M  V30 9228 C 882.163 -3.30521 -1.12058 0
M  V30 9229 C 883.511 -3.96345 -1.52303 0
M  V30 9230 O 884.535 -3.34864 -1.21428 0
M  V30 9231 O 883.394 -5.04655 -2.09728 0
M  V30 9232 H 880.488 -0.749328 -0.34991 0
M  V30 9233 H 883.034 -1.69675 0.0290654 0
M  V30 9234 H 881.806 -3.90399 -0.265378 0
M  V30 9235 H 881.429 -3.47802 -1.92665 0
M  V30 9236 N 882.426 0.269451 -1.5528 0
M  V30 9237 C 883.358 1.35553 -1.84819 0
M  V30 9238 C 884.371 1.45369 -0.732914 0
M  V30 9239 O 885.56 1.47122 -1.0108 0
M  V30 9240 C 882.66 2.73645 -1.9993 0
M  V30 9241 C 881.833 2.86376 -3.30617 0
M  V30 9242 C 880.892 4.05165 -3.35749 0
M  V30 9243 O 879.918 3.95756 -4.09104 0
M  V30 9244 N 881.12 5.17297 -2.63408 0
M  V30 9245 H 883.885 1.10557 -2.78563 0
M  V30 9246 H 881.446 0.459566 -1.5524 0
M  V30 9247 H 883.438 3.51411 -2.00729 0
M  V30 9248 H 882.008 2.91448 -1.13035 0
M  V30 9249 H 881.228 1.95465 -3.42326 0
M  V30 9250 H 882.516 2.91815 -4.16799 0
M  V30 9251 H 881.914 5.2783 -2.03501 0
M  V30 9252 H 880.471 5.93281 -2.69927 0
M  V30 9253 N 883.904 1.48273 0.534124 0
M  V30 9254 C 885.315 1.49667 1.1161 0
M  V30 9255 C 885.666 0.264139 1.94414 0
M  V30 9256 O 884.791 -0.629084 2.07054 0
M  V30 9257 C 885.386 2.71191 2.03079 0
M  V30 9258 C 883.945 2.7547 2.56502 0
M  V30 9259 C 883.092 2.43119 1.33373 0
M  V30 9260 H 886.043 1.55449 0.319578 0
M  V30 9261 H 886.064 2.49473 2.87304 0
M  V30 9262 H 885.576 3.60879 1.42785 0
M  V30 9263 H 883.677 1.89979 3.20529 0
M  V30 9264 H 883.79 3.76787 2.95919 0
M  V30 9265 H 882.154 1.94187 1.64813 0
M  V30 9266 H 882.937 3.35044 0.748375 0
M  V30 9267 N 885.382 -0.782676 1.36792 0
M  V30 9268 C 886.798 -1.08169 1.17352 0
M  V30 9269 C 886.998 -2.015 0.0022037 0
M  V30 9270 O 886.054 -2.43692 -0.661093 0
M  V30 9271 C 887.367 -1.68969 2.48737 0
M  V30 9272 C 888.915 -1.81278 2.55161 0
M  V30 9273 C 889.39 -2.45492 3.86649 0
M  V30 9274 N 890.881 -2.52954 3.88032 0
M  V30 9275 C 891.616 -3.03465 4.86515 0
M  V30 9276 N 891.112 -3.54232 5.95392 0
M  V30 9277 N 892.905 -3.02239 4.73928 0
M  V30 9278 H 885.056 -0.162757 2.11775 0
M  V30 9279 H 887.319 -0.134823 0.938364 0
M  V30 9280 H 887.025 -1.07859 3.34753 0
M  V30 9281 H 886.899 -2.68397 2.65034 0
M  V30 9282 H 889.286 -2.41524 1.69559 0
M  V30 9283 H 889.367 -0.806367 2.42758 0
M  V30 9284 H 889.011 -1.85889 4.7266 0
M  V30 9285 H 888.941 -3.46718 3.96351 0
M  V30 9286 H 891.432 -2.17014 3.09376 0
M  V30 9287 H 891.745 -3.91145 6.66503 0
M  V30 9288 H 890.09 -3.52366 5.99052 0
M  V30 9289 H 893.281 -2.61871 3.87996 0
M  V30 9290 H 893.454 -3.41295 5.50837 0
M  V30 9291 N 886.86 -1.21182 -1.00761 0
M  V30 9292 C 887.808 -0.965728 -2.11604 0
M  V30 9293 C 888.802 0.0861028 -1.69181 0
M  V30 9294 O 890.008 -0.0650558 -1.79882 0
M  V30 9295 H 886.383 -0.295023 -0.691712 0
M  V30 9296 H 888.354 -1.90667 -2.2954 0
M  V30 9297 C 887.103 -0.544164 -3.43415 0
M  V30 9298 H 886.426 -1.34515 -3.76491 0
M  V30 9299 H 887.866 -0.411268 -4.22001 0
M  V30 9300 C 886.325 0.744583 -3.28569 0
M  V30 9301 O 886.855 1.80078 -3.59075 0
M  V30 9302 N 885.061 0.710083 -2.81791 0
M  V30 9303 H 884.608 -0.14971 -2.57165 0
M  V30 9304 H 884.566 1.57268 -2.72239 0
M  V30 9305 N 888.338 1.20213 -1.01915 0
M  V30 9306 C 889.268 2.25336 -0.612023 0
M  V30 9307 C 890.249 1.65933 0.374186 0
M  V30 9308 O 891.434 1.92464 0.259053 0
M  V30 9309 C 888.564 3.47267 0.047904 0
M  V30 9310 C 887.518 4.1928 -0.859557 0
M  V30 9311 C 886.844 5.3466 -0.0652655 0
M  V30 9312 C 888.144 4.75143 -2.1688 0
M  V30 9313 H 889.838 2.59645 -1.49079 0
M  V30 9314 H 887.384 1.24808 -0.718263 0
M  V30 9315 H 889.337 4.19991 0.344294 0
M  V30 9316 H 888.061 3.12129 0.961404 0
M  V30 9317 H 886.72 3.48425 -1.13999 0
M  V30 9318 H 886.368 4.95767 0.849964 0
M  V30 9319 H 886.068 5.83772 -0.669618 0
M  V30 9320 H 887.592 6.10187 0.224612 0
M  V30 9321 H 889.006 5.39672 -1.9346 0
M  V30 9322 H 887.403 5.34702 -2.72422 0
M  V30 9323 H 888.473 3.93744 -2.83008 0
M  V30 9324 N 889.816 0.795718 1.36037 0
M  V30 9325 C 890.779 0.204318 2.28287 0
M  V30 9326 C 891.779 -0.602017 1.49105 0
M  V30 9327 O 892.969 -0.422089 1.69009 0
M  V30 9328 C 890.101 -0.716431 3.33287 0
M  V30 9329 H 891.294 1.01781 2.821 0
M  V30 9330 H 888.847 0.565588 1.45708 0
M  V30 9331 H 889.582 -1.55403 2.84641 0
M  V30 9332 H 889.367 -0.140096 3.9185 0
M  V30 9333 H 890.857 -1.12488 4.02164 0
M  V30 9334 N 891.294 -1.47756 0.548274 0
M  V30 9335 C 892.241 -2.29893 -0.204408 0
M  V30 9336 C 893.211 -1.38509 -0.916761 0
M  V30 9337 O 894.396 -1.67472 -0.91421 0
M  V30 9338 C 891.536 -3.22282 -1.23403 0
M  V30 9339 C 890.649 -4.28753 -0.528654 0
M  V30 9340 C 889.784 -5.08303 -1.54279 0
M  V30 9341 C 888.823 -6.06557 -0.821893 0
M  V30 9342 N 887.96 -6.79098 -1.78243 0
M  V30 9343 H 892.8 -2.93739 0.502163 0
M  V30 9344 H 890.337 -1.44793 0.259471 0
M  V30 9345 H 892.295 -3.74262 -1.84348 0
M  V30 9346 H 890.925 -2.6032 -1.90875 0
M  V30 9347 H 889.977 -3.79899 0.195132 0
M  V30 9348 H 891.289 -4.98787 0.0365066 0
M  V30 9349 H 890.443 -5.64388 -2.22602 0
M  V30 9350 H 889.182 -4.3815 -2.14186 0
M  V30 9351 H 888.187 -5.49659 -0.12469 0
M  V30 9352 H 889.412 -6.78715 -0.228685 0
M  V30 9353 H 887.358 -6.11682 -2.37025 0
M  V30 9354 H 887.275 -7.4527 -1.26919 0
M  V30 9355 H 888.543 -7.39762 -2.45709 0
M  V30 9356 N 892.772 -0.284283 -1.55015 0
M  V30 9357 C 893.997 0.335799 -2.04664 0
M  V30 9358 C 894.422 1.47999 -1.16094 0
M  V30 9359 O 893.78 1.8058 -0.161454 0
M  V30 9360 C 893.828 0.785615 -3.51938 0
M  V30 9361 O 892.932 1.89202 -3.66437 0
M  V30 9362 H 892.273 0.0680233 -0.660506 0
M  V30 9363 H 894.803 -0.421255 -2.00216 0
M  V30 9364 H 894.813 1.07892 -3.93476 0
M  V30 9365 H 893.488 -0.0514675 -4.15868 0
M  V30 9366 H 892.065 1.60055 -3.36804 0
M  V30 9367 N 894.251 1.57596 -0.0117121 0
M  V30 9368 C 895.497 1.91355 0.671661 0
M  V30 9369 C 895.83 0.886818 1.72769 0
M  V30 9370 O 895.105 -0.0928813 1.94278 0
M  V30 9371 C 895.388 3.35657 1.30409 0
M  V30 9372 C 895.241 4.49055 0.2588 0
M  V30 9373 C 896.56 3.79595 2.22701 0
M  V30 9374 H 893.679 0.695893 0.242698 0
M  V30 9375 H 896.321 1.89887 -0.0654071 0
M  V30 9376 H 894.471 3.37038 1.9323 0
M  V30 9377 H 896.143 4.59809 -0.370631 0
M  V30 9378 H 894.386 4.31785 -0.417672 0
M  V30 9379 H 895.057 5.4701 0.740578 0
M  V30 9380 H 897.533 3.7984 1.69885 0
M  V30 9381 H 896.409 4.81292 2.63912 0
M  V30 9382 H 896.67 3.14118 3.11098 0
M  V30 9383 N 895.729 -0.261212 1.5542 0
M  V30 9384 C 896.957 -1.00916 1.8062 0
M  V30 9385 C 897.372 -1.79494 0.585444 0
M  V30 9386 O 896.729 -1.76974 -0.445702 0
M  V30 9387 C 896.78 -1.95841 3.03856 0
M  V30 9388 O 896.501 -1.20445 4.21218 0
M  V30 9389 C 898.002 -2.82352 3.41749 0
M  V30 9390 H 895.222 -0.297596 0.601397 0
M  V30 9391 H 897.766 -0.288427 2.02456 0
M  V30 9392 H 895.921 -2.63361 2.84112 0
M  V30 9393 H 896.335 -1.84528 4.90968 0
M  V30 9394 H 897.809 -3.44733 4.31118 0
M  V30 9395 H 898.286 -3.5273 2.61683 0
M  V30 9396 H 898.892 -2.20306 3.63793 0
M  V30 9397 N 897.207 -1.48554 -0.526253 0
M  V30 9398 C 898.453 -1.56994 -1.28378 0
M  V30 9399 C 898.786 -0.244701 -1.92652 0
M  V30 9400 O 898.061 0.749636 -1.79473 0
M  V30 9401 C 898.344 -2.71092 -2.37026 0
M  V30 9402 C 898.197 -4.13331 -1.77418 0
M  V30 9403 C 899.516 -2.80934 -3.38769 0
M  V30 9404 H 896.635 -0.571466 -0.465398 0
M  V30 9405 H 899.277 -1.80742 -0.585861 0
M  V30 9406 H 897.427 -2.50973 -2.96555 0
M  V30 9407 H 899.099 -4.44899 -1.21912 0
M  V30 9408 H 897.342 -4.20158 -1.07936 0
M  V30 9409 H 898.013 -4.88994 -2.56104 0
M  V30 9410 H 900.489 -2.9917 -2.892 0
M  V30 9411 H 899.365 -3.62489 -4.12181 0
M  V30 9412 H 899.626 -1.89244 -3.99549 0
M  V30 9413 N 898.685 0.775411 -1.37205 0
M  V30 9414 C 899.595 1.91967 -1.34855 0
M  V30 9415 C 900.611 1.72214 -0.248656 0
M  V30 9416 O 901.787 1.95512 -0.483421 0
M  V30 9417 C 898.852 3.27038 -1.15096 0
M  V30 9418 C 897.913 3.5947 -2.34691 0
M  V30 9419 C 897.146 4.88097 -2.15865 0
M  V30 9420 O 897.369 5.58871 -1.14102 0
M  V30 9421 O 896.303 5.19507 -3.03967 0
M  V30 9422 H 900.129 1.969 -2.31223 0
M  V30 9423 H 897.714 0.917647 -1.17897 0
M  V30 9424 H 899.596 4.07837 -1.0605 0
M  V30 9425 H 898.271 3.22965 -0.217999 0
M  V30 9426 H 897.178 2.7892 -2.49308 0
M  V30 9427 H 898.511 3.68282 -3.26541 0
M  V30 9428 O 900.202 1.33054 0.915364 0
M  V30 9429 H 900.893 1.16327 1.5488 0
M  V30 END ATOM
M  V30 BEGIN BOND
M  V30 END BOND
M  V30 END CTAB
M  END
$$$$
