drugbank_target|P0A7R5 30S ribosomal protein S10 (DB00698)
 OpenBabel12092119253D

  0  0  0     0  0            999 V3000
M  V30 BEGIN CTAB
M  V30 COUNTS 1690 1700 0 0 0
M  V30 BEGIN ATOM
M  V30 1 H -0.908 1.98254 -0.117106 0
M  V30 2 N 0 1.576 0 0
M  V30 3 C 0.933 2.03868 1.02534 0
M  V30 4 C 1.911 0.928543 1.3348 0
M  V30 5 O 3.095 1.19667 1.45644 0
M  V30 6 C 0.222 2.43627 2.35294 0
M  V30 7 C -0.732 3.65373 2.2001 0
M  V30 8 S 0.101 5.13292 1.52614 0
M  V30 9 C 1.257 5.56322 2.86805 0
M  V30 10 H 1.49 2.90518 0.631377 0
M  V30 11 H -0.977 1.52953 0.210867 0
M  V30 12 H 0.981 2.67203 3.11629 0
M  V30 13 H -0.358 1.57376 2.7183 0
M  V30 14 H -1.165 3.90944 3.18086 0
M  V30 15 H -1.563 3.418 1.51819 0
M  V30 16 H 0.729 5.58782 3.83104 0
M  V30 17 H 1.672 6.56266 2.65933 0
M  V30 18 H 2.08 4.83886 2.90714 0
M  V30 19 N 1.4781 -0.272755 1.55222 0
M  V30 20 C 2.4101 -1.35946 1.8453 0
M  V30 21 C 3.4231 -1.45525 0.729818 0
M  V30 22 O 4.6121 -1.47337 1.00767 0
M  V30 23 C 1.7121 -2.74069 1.99347 0
M  V30 24 C 0.8851 -2.87079 3.30007 0
M  V30 25 C -0.0559 -4.05879 3.34886 0
M  V30 26 O -1.0299 -3.96626 4.08261 0
M  V30 27 N 0.1721 -5.17857 2.62307 0
M  V30 28 H 2.9371 -1.11149 2.78327 0
M  V30 29 H 0.4981 -0.462869 1.55142 0
M  V30 30 H 2.4901 -3.51838 1.99981 0
M  V30 31 H 1.0601 -2.91688 1.12415 0
M  V30 32 H 0.2801 -1.96193 3.41909 0
M  V30 33 H 1.5681 -2.92701 4.16177 0
M  V30 34 H 0.9661 -5.28261 2.02377 0
M  V30 35 H -0.4769 -5.93855 2.68663 0
M  V30 36 N 2.9562 -1.48159 -0.537278 0
M  V30 37 C 3.9042 -1.62573 -1.66352 0
M  V30 38 C 4.8982 -0.492366 -1.62087 0
M  V30 39 O 6.1042 -0.670847 -1.67032 0
M  V30 40 H 2.4792 -0.511992 -0.550789 0
M  V30 41 H 4.4502 -2.57176 -1.51337 0
M  V30 42 C 3.1992 -1.67583 -3.04649 0
M  V30 43 H 2.5222 -2.54151 -3.08622 0
M  V30 44 H 3.9622 -1.81713 -3.83088 0
M  V30 45 C 2.4212 -0.413039 -3.34358 0
M  V30 46 O 2.9512 0.477259 -3.98855 0
M  V30 47 N 1.1572 -0.286961 -2.8918 0
M  V30 48 H 0.7042 -1.01241 -2.36871 0
M  V30 49 H 0.6622 0.556963 -3.09427 0
M  V30 50 N 4.4343 0.785586 -1.36625 0
M  V30 51 C 5.3663 1.90711 -1.2713 0
M  V30 52 C 6.3793 1.61688 -0.189986 0
M  V30 53 O 7.5683 1.72864 -0.445014 0
M  V30 54 C 4.6683 3.25611 -0.939713 0
M  V30 55 C 3.8413 3.82385 -2.12369 0
M  V30 56 C 2.9003 4.95732 -1.76456 0
M  V30 57 O 1.9263 5.12047 -2.48589 0
M  V30 58 N 3.1283 5.76258 -0.700492 0
M  V30 59 H 5.8933 1.99376 -2.23762 0
M  V30 60 H 3.4543 0.964041 -1.30069 0
M  V30 61 H 5.4463 3.98937 -0.680554 0
M  V30 62 H 4.0163 3.12538 -0.0624074 0
M  V30 63 H 3.2363 3.01001 -2.54543 0
M  V30 64 H 4.5243 4.17047 -2.9146 0
M  V30 65 H 3.9223 5.65609 -0.101624 0
M  V30 66 H 2.4793 6.4987 -0.501165 0
M  V30 67 N 5.9124 1.20967 1.01018 0
M  V30 68 C 7.3284 0.965905 1.27053 0
M  V30 69 C 7.5284 -0.350785 1.98423 0
M  V30 70 O 6.5844 -1.07773 2.28344 0
M  V30 71 C 7.8974 2.15294 2.09926 0
M  V30 72 C 9.4454 2.19463 2.23171 0
M  V30 73 C 9.9204 3.3767 3.09424 0
M  V30 74 N 11.4114 3.37724 3.17012 0
M  V30 75 C 12.1464 4.25837 3.83993 0
M  V30 76 N 11.6424 5.24138 4.53047 0
M  V30 77 N 13.4354 4.1366 3.80581 0
M  V30 78 H 5.5864 2.0565 0.531194 0
M  V30 79 H 7.8494 0.90024 0.297106 0
M  V30 80 H 7.5554 3.10684 1.64828 0
M  V30 81 H 7.4294 2.13923 3.10672 0
M  V30 82 H 9.8164 1.24632 2.6749 0
M  V30 83 H 9.8974 2.2488 1.21912 0
M  V30 84 H 9.5414 4.32791 2.65808 0
M  V30 85 H 9.4714 3.29491 4.10784 0
M  V30 86 H 11.9624 2.6658 2.6785 0
M  V30 87 H 12.2754 5.87684 5.01844 0
M  V30 88 H 10.6204 5.28068 4.5185 0
M  V30 89 H 13.8114 3.36127 3.25785 0
M  V30 90 H 13.9844 4.82538 4.32505 0
M  V30 91 N 7.3905 -1.2043 1.01659 0
M  V30 92 C 8.6395 -1.89118 0.701237 0
M  V30 93 C 8.9525 -1.79705 -0.772358 0
M  V30 94 O 10.1585 -2.43528 -1.20026 0
M  V30 95 C 8.6145 -3.39168 1.20388 0
M  V30 96 C 8.2225 -3.57166 2.70438 0
M  V30 97 C 9.9665 -4.1341 0.963953 0
M  V30 98 C 7.8735 -5.01042 3.14183 0
M  V30 99 H 6.8035 -0.708267 0.2586 0
M  V30 100 H 9.4545 -1.36239 1.22927 0
M  V30 101 H 7.8365 -3.91369 0.603824 0
M  V30 102 H 9.0105 -3.15351 3.35992 0
M  V30 103 H 7.3255 -2.96294 2.92572 0
M  V30 104 H 9.9225 -5.19491 1.26621 0
M  V30 105 H 10.2655 -4.16181 -0.099578 0
M  V30 106 H 10.7985 -3.67309 1.52738 0
M  V30 107 H 7.5375 -5.03426 4.19812 0
M  V30 108 H 7.0575 -5.43668 2.53348 0
M  V30 109 H 8.7365 -5.69623 3.0682 0
M  V30 110 N 8.8686 -0.792821 -1.36206 0
M  V30 111 C 10.2846 -0.474903 -1.52371 0
M  V30 112 C 10.4846 1.00622 -1.74578 0
M  V30 113 O 9.5406 1.79162 -1.77924 0
M  V30 114 C 10.8536 -1.3083 -2.70747 0
M  V30 115 C 12.4016 -1.30234 -2.84619 0
M  V30 116 C 12.8766 -2.11956 -4.06004 0
M  V30 117 N 14.3676 -2.09419 -4.13156 0
M  V30 118 C 15.1026 -2.69419 -5.06163 0
M  V30 119 N 14.5986 -3.3829 -6.04592 0
M  V30 120 N 16.3916 -2.59134 -4.98804 0
M  V30 121 H 8.5426 -1.75222 -1.20046 0
M  V30 122 H 10.8056 -0.745024 -0.586211 0
M  V30 123 H 10.5116 -2.35881 -2.6087 0
M  V30 124 H 10.3856 -0.95196 -3.6499 0
M  V30 125 H 12.7726 -0.259748 -2.93955 0
M  V30 126 H 12.8536 -1.69847 -1.91274 0
M  V30 127 H 12.4976 -3.16248 -3.97429 0
M  V30 128 H 12.4276 -1.69711 -4.98503 0
M  V30 129 H 14.9186 -1.59297 -3.42685 0
M  V30 130 H 15.2316 -3.81394 -6.7213 0
M  V30 131 H 13.5766 -3.42393 -6.04807 0
M  V30 132 H 16.7676 -2.04927 -4.20859 0
M  V30 133 H 16.9406 -3.06185 -5.711 0
M  V30 134 N 10.3467 1.47872 -0.545128 0
M  V30 135 C 11.5957 2.01695 -0.0145033 0
M  V30 136 C 11.9087 1.42609 1.33873 0
M  V30 137 O 13.1147 1.88021 1.95858 0
M  V30 138 C 11.5707 3.59892 0.0245068 0
M  V30 139 C 11.1787 4.27966 -1.32475 0
M  V30 140 C 12.9227 4.21507 0.50316 0
M  V30 141 C 10.8297 5.78136 -1.2455 0
M  V30 142 H 9.7597 0.753998 -0.00165172 0
M  V30 143 H 12.4107 1.69985 -0.691175 0
M  V30 144 H 10.7927 3.88509 0.766575 0
M  V30 145 H 11.9667 4.11003 -2.08357 0
M  V30 146 H 10.2817 3.78286 -1.74036 0
M  V30 147 H 12.8787 5.31538 0.580656 0
M  V30 148 H 13.2217 3.87855 1.51243 0
M  V30 149 H 13.7547 3.97376 -0.183681 0
M  V30 150 H 10.4937 6.16388 -2.23039 0
M  V30 151 H 10.0137 5.97469 -0.528282 0
M  V30 152 H 11.6927 6.40099 -0.942488 0
M  V30 153 N 11.8248 0.280983 1.55075 0
M  V30 154 C 13.2408 -0.0729964 1.59433 0
M  V30 155 C 13.4408 -1.5411 1.29817 0
M  V30 156 O 12.4968 -2.29086 1.06187 0
M  V30 157 C 13.8098 0.306921 2.9913 0
M  V30 158 C 15.3578 0.254023 3.11968 0
M  V30 159 C 15.8328 0.608467 4.5394 0
M  V30 160 N 17.3238 0.560241 4.59799 0
M  V30 161 C 18.0588 0.80722 5.6769 0
M  V30 162 N 17.5548 1.11912 6.83701 0
M  V30 163 N 19.3478 0.735623 5.57266 0
M  V30 164 H 11.4988 1.238 1.7259 0
M  V30 165 H 13.7618 0.500547 0.805082 0
M  V30 166 H 13.4678 1.32816 3.25657 0
M  V30 167 H 13.3418 -0.349363 3.75579 0
M  V30 168 H 15.7288 -0.75794 2.852 0
M  V30 169 H 15.8098 0.944649 2.37718 0
M  V30 170 H 15.4538 1.61814 4.81434 0
M  V30 171 H 15.3838 -0.104013 5.26497 0
M  V30 172 H 17.8748 0.329288 3.76463 0
M  V30 173 H 18.1878 1.29409 7.61888 0
M  V30 174 H 16.5328 1.15695 6.85303 0
M  V30 175 H 19.7238 0.491752 4.6551 0
M  V30 176 H 19.8968 0.931482 6.4127 0
M  V30 177 N 13.3029 -1.57598 0.00835791 0
M  V30 178 C 14.2329 -2.1198 -0.979113 0
M  V30 179 C 15.2139 -1.03091 -1.35301 0
M  V30 180 O 16.3989 -1.30818 -1.43528 0
M  V30 181 C 13.5289 -2.62995 -2.26828 0
M  V30 182 C 12.4829 -3.76485 -2.03576 0
M  V30 183 C 11.8089 -4.13846 -3.38579 0
M  V30 184 C 13.1089 -5.0342 -1.39161 0
M  V30 185 H 14.8029 -2.94738 -0.526281 0
M  V30 186 H 12.3489 -1.41783 -0.251704 0
M  V30 187 H 14.3019 -2.99669 -2.96271 0
M  V30 188 H 13.0259 -1.7737 -2.7424 0
M  V30 189 H 11.6849 -3.40217 -1.36557 0
M  V30 190 H 11.3329 -3.25232 -3.83709 0
M  V30 191 H 11.0329 -4.90312 -3.23834 0
M  V30 192 H 12.5569 -4.53086 -4.09323 0
M  V30 193 H 13.9709 -5.37812 -1.98573 0
M  V30 194 H 12.3679 -5.84746 -1.34878 0
M  V30 195 H 13.4379 -4.83548 -0.361868 0
M  V30 196 N 14.781 0.264519 -1.55364 0
M  V30 197 C 15.728 1.32717 -1.88825 0
M  V30 198 C 16.698 1.48675 -0.740605 0
M  V30 199 O 17.883 1.62945 -0.992657 0
M  V30 200 C 15.023 2.68089 -2.17307 0
M  V30 201 C 14.136 2.60284 -3.44785 0
M  V30 202 C 13.271 3.87892 -3.62924 0
M  V30 203 C 12.31 3.74631 -4.84064 0
M  V30 204 N 11.447 4.94092 -4.98816 0
M  V30 205 H 16.287 1.03481 -2.79456 0
M  V30 206 H 13.824 0.499757 -1.3835 0
M  V30 207 H 15.782 3.46864 -2.31821 0
M  V30 208 H 14.412 2.95509 -1.299 0
M  V30 209 H 13.464 1.73173 -3.38697 0
M  V30 210 H 14.776 2.46388 -4.33698 0
M  V30 211 H 13.93 4.75109 -3.77302 0
M  V30 212 H 12.669 4.04664 -2.7221 0
M  V30 213 H 11.674 2.85797 -4.69681 0
M  V30 214 H 12.899 3.5937 -5.76221 0
M  V30 215 H 10.845 5.11259 -4.11036 0
M  V30 216 H 10.762 4.8276 -5.81789 0
M  V30 217 H 12.03 5.82857 -5.17588 0
M  V30 218 N 16.2591 1.48442 0.529413 0
M  V30 219 C 17.2221 1.62524 1.61612 0
M  V30 220 C 18.2221 0.498509 1.52877 0
M  V30 221 O 19.4121 0.76431 1.56537 0
M  V30 222 C 16.5441 1.59597 3.01233 0
M  V30 223 H 17.7371 2.59423 1.50465 0
M  V30 224 H 15.2901 1.37047 0.751514 0
M  V30 225 H 16.0251 0.641781 3.17886 0
M  V30 226 H 15.8101 2.41397 3.08982 0
M  V30 227 H 17.3001 1.72646 3.80241 0
M  V30 228 N 17.7372 -0.778329 1.37039 0
M  V30 229 C 18.9842 -1.53665 1.31884 0
M  V30 230 C 19.3122 -1.9425 -0.0986303 0
M  V30 231 O 18.5672 -1.63832 -1.07041 0
M  V30 232 C 18.8662 -2.81845 2.19768 0
M  V30 233 C 18.5322 -2.60345 3.68146 0
M  V30 234 C 17.1942 -2.5419 4.08584 0
M  V30 235 C 19.5462 -2.40923 4.62175 0
M  V30 236 C 16.8742 -2.26594 5.41177 0
M  V30 237 C 19.2262 -2.14852 5.94997 0
M  V30 238 C 17.8902 -2.07137 6.34547 0
M  V30 239 H 17.1602 -0.562299 0.482598 0
M  V30 240 H 19.8072 -0.897069 1.69189 0
M  V30 241 H 18.1122 -3.50328 1.75436 0
M  V30 242 H 19.8092 -3.39692 2.13097 0
M  V30 243 H 16.3992 -2.65996 3.36072 0
M  V30 244 H 20.5832 -2.44673 4.31797 0
M  V30 245 H 15.8392 -2.19111 5.70789 0
M  V30 246 H 20.0132 -1.98822 6.67415 0
M  V30 247 H 17.6402 -1.85518 7.37216 0
M  V30 248 N 19.2153 -1.21501 -1.00376 0
M  V30 249 C 20.4923 -0.941745 -1.71437 0
M  V30 250 C 20.8723 0.546114 -2.03914 0
M  V30 251 O 20.2203 1.51128 -1.71384 0
M  V30 252 C 20.4303 -1.82812 -2.97289 0
M  V30 253 C 21.7783 -2.07771 -3.70292 0
M  V30 254 O 22.8023 -1.80171 -3.07273 0
M  V30 255 O 21.6613 -2.54456 -4.83647 0
M  V30 256 H 18.7553 -0.353243 -0.747762 0
M  V30 257 H 21.3013 -1.32436 -1.06108 0
M  V30 258 H 20.0733 -2.83501 -2.69709 0
M  V30 259 H 19.6963 -1.4464 -3.70358 0
M  V30 260 N 20.6934 1.19889 -1.02296 0
M  V30 261 C 21.6434 2.20777 -0.56934 0
M  V30 262 C 22.6274 1.56379 0.378741 0
M  V30 263 O 23.8194 1.75859 0.200673 0
M  V30 264 C 20.9484 3.43196 0.0845077 0
M  V30 265 C 20.0344 4.14749 -0.88566 0
M  V30 266 N 20.4254 4.62584 -2.04573 0
M  V30 267 C 18.7234 4.40347 -0.707835 0
M  V30 268 C 19.4244 5.17466 -2.65714 0
M  V30 269 N 18.4004 5.0791 -1.93723 0
M  V30 270 H 22.2024 2.55434 -1.45365 0
M  V30 271 H 19.7164 1.35897 -0.88915 0
M  V30 272 H 21.7134 4.14707 0.427067 0
M  V30 273 H 20.3734 3.10042 0.964574 0
M  V30 274 H 21.3844 4.57597 -2.4254 0
M  V30 275 H 18.0614 4.17317 0.12364 0
M  V30 276 H 19.4514 5.64808 -3.63925 0
M  V30 277 N 22.1715 0.800033 1.35784 0
M  V30 278 C 23.5875 0.482977 1.52117 0
M  V30 279 C 23.7875 -0.996948 1.75109 0
M  V30 280 O 22.8435 -1.78216 1.78872 0
M  V30 281 C 24.1565 1.32264 2.70049 0
M  V30 282 C 25.7045 1.31742 2.83924 0
M  V30 283 C 26.1795 2.14106 4.04874 0
M  V30 284 N 27.6705 2.11607 4.12039 0
M  V30 285 C 28.4055 2.72099 5.04727 0
M  V30 286 N 27.9015 3.41492 6.02789 0
M  V30 287 N 29.6945 2.61776 4.97423 0
M  V30 288 H 21.8455 1.75856 1.19115 0
M  V30 289 H 24.1085 0.748122 0.582252 0
M  V30 290 H 23.8145 2.37261 2.59616 0
M  V30 291 H 23.6885 0.971303 3.6448 0
M  V30 292 H 26.0755 0.275333 2.93813 0
M  V30 293 H 26.1565 1.70859 1.9037 0
M  V30 294 H 25.8005 3.18351 3.95746 0
M  V30 295 H 25.7305 1.72353 4.97596 0
M  V30 296 H 28.2215 1.61112 3.41835 0
M  V30 297 H 28.5345 3.84953 6.70098 0
M  V30 298 H 26.8795 3.45596 6.02983 0
M  V30 299 H 30.0705 2.07157 4.19766 0
M  V30 300 H 30.2435 3.0921 5.69468 0
M  V30 301 N 23.6496 -1.47581 0.552962 0
M  V30 302 C 24.5796 -2.32762 -0.185451 0
M  V30 303 C 25.5606 -1.43527 -0.912905 0
M  V30 304 O 26.7456 -1.72388 -0.894201 0
M  V30 305 C 23.8756 -3.25219 -1.21859 0
M  V30 306 C 22.8296 -4.23661 -0.607864 0
M  V30 307 C 22.1556 -5.05413 -1.74533 0
M  V30 308 C 23.4556 -5.20481 0.435582 0
M  V30 309 H 25.1496 -2.94749 0.525684 0
M  V30 310 H 22.6956 -1.41738 0.254251 0
M  V30 311 H 24.6486 -3.8365 -1.7433 0
M  V30 312 H 23.3726 -2.61279 -1.95961 0
M  V30 313 H 22.0316 -3.66451 -0.104489 0
M  V30 314 H 21.6796 -4.3788 -2.47529 0
M  V30 315 H 21.3796 -5.72059 -1.34249 0
M  V30 316 H 22.9036 -5.66701 -2.27338 0
M  V30 317 H 24.3176 -5.733 -0.00290157 0
M  V30 318 H 22.7146 -5.95305 0.757067 0
M  V30 319 H 23.7846 -4.66217 1.33303 0
M  V30 320 N 25.1277 -0.289203 -1.54924 0
M  V30 321 C 26.3767 0.324231 -1.99077 0
M  V30 322 C 26.6897 1.5591 -1.18117 0
M  V30 323 O 27.8957 2.24637 -1.52481 0
M  V30 324 C 26.3517 0.628209 -3.54375 0
M  V30 325 C 25.9597 -0.587647 -4.44129 0
M  V30 326 C 27.7037 1.20349 -4.07083 0
M  V30 327 C 25.6107 -0.257475 -5.90839 0
M  V30 328 H 24.5407 0.124924 -0.743579 0
M  V30 329 H 27.1917 -0.396063 -1.79175 0
M  V30 330 H 25.5737 1.40778 -3.70132 0
M  V30 331 H 26.7477 -1.36418 -4.40144 0
M  V30 332 H 25.0627 -1.08074 -4.0213 0
M  V30 333 H 27.6597 1.46456 -5.14252 0
M  V30 334 H 28.0027 2.14195 -3.56968 0
M  V30 335 H 28.5357 0.485889 -3.94821 0
M  V30 336 H 25.2747 -1.16419 -6.45079 0
M  V30 337 H 24.7947 0.482018 -5.9786 0
M  V30 338 H 26.4737 0.145238 -6.46837 0
M  V30 339 N 26.6058 1.57591 -0.0167156 0
M  V30 340 C 27.8828 1.82547 0.702564 0
M  V30 341 C 28.2628 0.898018 1.91047 0
M  V30 342 O 27.6108 -0.0493456 2.28447 0
M  V30 343 C 27.8208 3.31459 1.09251 0
M  V30 344 C 29.1688 3.97622 1.48937 0
M  V30 345 O 30.1928 3.35881 1.18584 0
M  V30 346 O 29.0518 5.06415 2.05442 0
M  V30 347 H 26.1458 0.752268 0.343544 0
M  V30 348 H 28.6918 1.69644 -0.0434495 0
M  V30 349 H 27.4638 3.9061 0.23227 0
M  V30 350 H 27.0868 3.49422 1.89709 0
M  V30 351 N 28.0839 -0.256276 1.55502 0
M  V30 352 C 29.0159 -1.33981 1.85962 0
M  V30 353 C 30.0289 -1.44743 0.745212 0
M  V30 354 O 31.2179 -1.4626 1.02324 0
M  V30 355 C 28.3179 -2.7194 2.02242 0
M  V30 356 C 27.4909 -2.83562 3.33033 0
M  V30 357 C 26.5499 -4.02304 3.39172 0
M  V30 358 O 25.5759 -3.92273 4.12444 0
M  V30 359 N 26.7779 -5.15045 2.67784 0
M  V30 360 H 29.5429 -1.08191 2.7949 0
M  V30 361 H 27.1039 -0.446388 1.55624 0
M  V30 362 H 29.0959 -3.49697 2.03701 0
M  V30 363 H 27.6659 -2.90479 1.15502 0
M  V30 364 H 26.8859 -1.92555 3.43971 0
M  V30 365 H 28.1739 -2.88271 4.19258 0
M  V30 366 H 27.5719 -5.26085 2.07968 0
M  V30 367 H 26.1289 -5.90972 2.74947 0
M  V30 368 N 29.562 -1.4872 -0.521534 0
M  V30 369 C 30.525 -1.63379 -1.60748 0
M  V30 370 C 31.525 -0.50661 -1.52611 0
M  V30 371 O 32.715 -0.772601 -1.5613 0
M  V30 372 C 29.847 -1.61192 -3.00383 0
M  V30 373 H 31.04 -2.60217 -1.49087 0
M  V30 374 H 28.593 -1.37444 -0.744235 0
M  V30 375 H 29.328 -0.65863 -3.17541 0
M  V30 376 H 29.113 -2.43032 -3.07698 0
M  V30 377 H 30.603 -1.7466 -3.7932 0
M  V30 378 N 31.0401 0.771051 -1.3745 0
M  V30 379 C 32.2681 1.56015 -1.35893 0
M  V30 380 C 32.6831 1.88718 0.0555523 0
M  V30 381 O 32.0401 1.51502 1.01752 0
M  V30 382 C 32.0911 2.87001 -2.19801 0
M  V30 383 O 31.8121 2.557 -3.55738 0
M  V30 384 C 33.3131 3.81228 -2.26231 0
M  V30 385 H 30.5331 0.483317 -0.465453 0
M  V30 386 H 33.0771 0.955611 -1.80799 0
M  V30 387 H 31.2321 3.43877 -1.78402 0
M  V30 388 H 31.6461 3.39584 -3.99729 0
M  V30 389 H 33.1201 4.70139 -2.89263 0
M  V30 390 H 33.5971 4.20409 -1.27093 0
M  V30 391 H 34.2031 3.30281 -2.67945 0
M  V30 392 N 32.5182 1.22032 0.997298 0
M  V30 393 C 33.4812 0.987909 2.06816 0
M  V30 394 C 34.4812 -0.0440084 1.6074 0
M  V30 395 O 35.6712 0.194053 1.73116 0
M  V30 396 C 32.8032 0.49132 3.37341 0
M  V30 397 H 33.9962 1.93803 2.28868 0
M  V30 398 H 31.5492 1.03838 1.16822 0
M  V30 399 H 32.2842 -0.463364 3.20973 0
M  V30 400 H 32.0692 1.23575 3.72118 0
M  V30 401 H 33.5592 0.348824 4.16141 0
M  V30 402 N 33.9963 -1.19345 1.0293 0
M  V30 403 C 34.9063 -2.26245 0.620515 0
M  V30 404 C 35.9223 -1.70486 -0.347928 0
M  V30 405 O 37.0983 -2.00347 -0.205704 0
M  V30 406 C 34.1633 -3.46693 -0.0218957 0
M  V30 407 C 33.2243 -4.17632 0.994102 0
M  V30 408 C 32.4573 -5.32329 0.382253 0
M  V30 409 O 32.6803 -5.64552 -0.814676 0
M  V30 410 O 31.6143 -5.91664 1.10531 0
M  V30 411 H 35.4403 -2.63453 1.51083 0
M  V30 412 H 33.0253 -1.26207 0.799513 0
M  V30 413 H 34.9073 -4.19683 -0.380072 0
M  V30 414 H 33.5823 -3.11333 -0.886209 0
M  V30 415 H 32.4893 -3.4676 1.40387 0
M  V30 416 H 33.8223 -4.56964 1.8288 0
M  V30 417 N 35.4744 -0.807222 -1.35358 0
M  V30 418 C 36.7234 -0.384376 -1.98004 0
M  V30 419 C 37.0364 1.0543 -1.64754 0
M  V30 420 O 38.2424 1.58029 -2.20769 0
M  V30 421 C 36.6984 -0.636326 -3.5423 0
M  V30 422 C 36.3064 -2.08759 -3.96388 0
M  V30 423 C 38.0504 -0.278869 -4.23583 0
M  V30 424 C 35.9574 -2.28525 -5.45463 0
M  V30 425 H 34.8874 -0.139986 -0.740891 0
M  V30 426 H 37.5384 -0.991369 -1.54415 0
M  V30 427 H 35.9204 0.0406256 -3.95979 0
M  V30 428 H 37.0944 -2.8024 -3.6579 0
M  V30 429 H 35.4094 -2.40497 -3.39926 0
M  V30 430 H 38.0064 -0.404599 -5.33167 0
M  V30 431 H 38.3494 0.775012 -4.09022 0
M  V30 432 H 38.8824 -0.909764 -3.87257 0
M  V30 433 H 35.6214 -3.32361 -5.64992 0
M  V30 434 H 35.1414 -1.61569 -5.77629 0
M  V30 435 H 36.8204 -2.10109 -6.11934 0
M  V30 436 N 36.9525 1.47285 -0.560781 0
M  V30 437 C 38.1985 2.02764 -0.0381184 0
M  V30 438 C 38.5315 1.43384 1.30976 0
M  V30 439 O 37.8065 0.590733 1.85312 0
M  V30 440 C 38.0895 3.60064 0.0511427 0
M  V30 441 C 37.9425 4.2987 -1.32408 0
M  V30 442 C 39.2615 4.33439 0.762795 0
M  V30 443 H 36.3805 0.736841 -0.0153264 0
M  V30 444 H 39.0225 1.75675 -0.723759 0
M  V30 445 H 37.1725 3.83274 0.635065 0
M  V30 446 H 38.8445 4.17989 -1.95148 0
M  V30 447 H 37.0875 3.90085 -1.8978 0
M  V30 448 H 37.7585 5.38478 -1.21431 0
M  V30 449 H 40.2345 4.15243 0.266965 0
M  V30 450 H 39.1105 5.43124 0.794221 0
M  V30 451 H 39.3715 4.02915 1.81966 0
M  V30 452 N 38.4306 0.297415 1.54768 0
M  V30 453 C 39.3406 -0.58983 2.27064 0
M  V30 454 C 40.3566 -1.15144 1.30453 0
M  V30 455 O 41.5326 -1.17699 1.63428 0
M  V30 456 C 38.5976 -1.74714 2.9946 0
M  V30 457 C 37.6586 -1.21997 4.11601 0
M  V30 458 C 36.8916 -2.32212 4.80535 0
M  V30 459 O 37.1146 -3.52036 4.48806 0
M  V30 460 O 36.0486 -1.99106 5.68014 0
M  V30 461 H 39.8746 -0.00348199 3.037 0
M  V30 462 H 37.4596 0.0640035 1.49263 0
M  V30 463 H 39.3416 -2.42147 3.44881 0
M  V30 464 H 38.0166 -2.32016 2.25722 0
M  V30 465 H 36.9236 -0.511458 3.70587 0
M  V30 466 H 38.2566 -0.692419 4.87305 0
M  V30 467 N 39.9087 -1.5758 0.0250728 0
M  V30 468 C 41.1367 -1.9593 -0.664747 0
M  V30 469 C 41.5517 -0.901352 -1.65895 0
M  V30 470 O 40.9087 0.117255 -1.82123 0
M  V30 471 C 40.9597 -3.34342 -1.37468 0
M  V30 472 O 40.6807 -4.36079 -0.420324 0
M  V30 473 C 42.1817 -3.873 -2.1567 0
M  V30 474 H 39.4017 -0.645405 -0.183557 0
M  V30 475 H 41.9457 -2.04329 0.0836372 0
M  V30 476 H 40.1007 -3.27175 -2.0745 0
M  V30 477 H 40.5147 -5.16297 -0.923991 0
M  V30 478 H 41.9887 -4.86504 -2.60803 0
M  V30 479 H 42.4657 -3.21331 -2.99405 0
M  V30 480 H 43.0717 -3.97723 -1.50654 0
M  V30 481 N 41.3868 0.248026 -1.55636 0
M  V30 482 C 42.3498 1.29044 -1.89421 0
M  V30 483 C 43.3498 1.41134 -0.770581 0
M  V30 484 O 44.5398 1.39854 -1.03858 0
M  V30 485 C 41.6718 2.66831 -2.12165 0
M  V30 486 H 42.8648 1.00305 -2.82629 0
M  V30 487 H 40.4178 0.487265 -1.48511 0
M  V30 488 H 41.1528 3.00711 -1.21422 0
M  V30 489 H 40.9378 2.59438 -2.93997 0
M  V30 490 H 42.4278 3.42103 -2.3949 0
M  V30 491 N 42.8649 1.48995 0.513639 0
M  V30 492 C 43.8119 1.6473 1.61656 0
M  V30 493 C 44.7819 0.488984 1.58739 0
M  V30 494 O 45.9669 0.714478 1.76918 0
M  V30 495 C 43.1069 1.7082 2.99858 0
M  V30 496 C 42.2199 2.9787 3.12885 0
M  V30 497 C 41.3549 2.95017 4.41744 0
M  V30 498 C 40.3939 4.16702 4.48359 0
M  V30 499 N 39.5309 4.11832 5.68629 0
M  V30 500 H 44.3709 2.58909 1.47547 0
M  V30 501 H 41.9079 1.28382 0.71808 0
M  V30 502 H 43.8659 1.72331 3.79944 0
M  V30 503 H 42.4959 0.801181 3.12699 0
M  V30 504 H 41.5479 3.06029 2.25944 0
M  V30 505 H 42.8599 3.8786 3.13633 0
M  V30 506 H 42.0139 2.95021 5.30139 0
M  V30 507 H 40.7529 2.02784 4.43542 0
M  V30 508 H 39.7579 4.16955 3.58369 0
M  V30 509 H 40.9829 5.10113 4.48287 0
M  V30 510 H 38.9289 3.22428 5.71293 0
M  V30 511 H 38.8459 4.95543 5.7094 0
M  V30 512 H 40.1139 4.1592 6.59266 0
M  V30 513 N 44.343 -0.763751 1.37857 0
M  V30 514 C 45.759 -1.06542 1.18832 0
M  V30 515 C 45.959 -2.01478 0.0299722 0
M  V30 516 O 45.015 -2.4458 -0.627447 0
M  V30 517 C 46.328 -1.65525 2.51042 0
M  V30 518 C 47.876 -1.77745 2.57635 0
M  V30 519 C 48.351 -2.4014 3.89996 0
M  V30 520 N 49.842 -2.47582 3.91481 0
M  V30 521 C 50.577 -2.96732 4.9065 0
M  V30 522 N 50.073 -3.45993 6.00217 0
M  V30 523 N 51.866 -2.95679 4.78048 0
M  V30 524 H 44.017 -0.133556 2.1198 0
M  V30 525 H 46.28 -0.121879 0.940133 0
M  V30 526 H 45.986 -1.03236 3.36207 0
M  V30 527 H 45.86 -2.64719 2.68707 0
M  V30 528 H 48.247 -2.39164 1.72872 0
M  V30 529 H 48.328 -0.772836 2.43846 0
M  V30 530 H 47.972 -1.79358 4.75177 0
M  V30 531 H 47.902 -3.41223 4.01092 0
M  V30 532 H 50.393 -2.1273 3.12337 0
M  V30 533 H 50.706 -3.81922 6.7183 0
M  V30 534 H 49.051 -3.44077 6.03851 0
M  V30 535 H 52.242 -2.56499 3.91568 0
M  V30 536 H 52.415 -3.33672 5.55488 0
M  V30 537 N 45.8211 -1.22559 -0.990812 0
M  V30 538 C 47.0491 -1.07779 -1.76611 0
M  V30 539 C 47.4641 0.371513 -1.85109 0
M  V30 540 O 46.8211 1.25737 -1.32274 0
M  V30 541 C 46.8721 -1.68512 -3.19822 0
M  V30 542 O 46.5931 -3.07774 -3.1178 0
M  V30 543 C 48.0941 -1.59035 -4.13791 0
M  V30 544 H 45.3141 -0.377729 -0.554583 0
M  V30 545 H 47.8581 -1.62195 -1.24551 0
M  V30 546 H 46.0131 -1.18154 -3.68942 0
M  V30 547 H 46.4271 -3.37062 -4.01858 0
M  V30 548 H 47.9011 -2.0625 -5.1202 0
M  V30 549 H 48.3781 -0.547273 -4.35777 0
M  V30 550 H 48.9841 -2.08709 -3.70568 0
M  V30 551 N 47.2992 1.18797 -1.03562 0
M  V30 552 C 48.5472 1.88278 -0.734569 0
M  V30 553 C 48.8682 1.8043 0.739586 0
M  V30 554 O 48.1382 1.21925 1.53333 0
M  V30 555 H 46.7182 0.696991 -0.268725 0
M  V30 556 H 49.3802 1.44192 -1.31129 0
M  V30 557 H 48.4762 2.94443 -1.03489 0
M  V30 558 N 48.7773 0.814389 1.34928 0
M  V30 559 C 49.7403 0.235759 2.27984 0
M  V30 560 C 50.7403 -0.581412 1.49921 0
M  V30 561 O 51.9303 -0.398758 1.69575 0
M  V30 562 C 49.0623 -0.670433 3.34242 0
M  V30 563 H 50.2553 1.05659 2.80671 0
M  V30 564 H 47.8083 0.585614 1.44915 0
M  V30 565 H 48.5433 -1.51466 2.86755 0
M  V30 566 H 48.3283 -0.0860822 3.92005 0
M  V30 567 H 49.8183 -1.06935 4.03676 0
M  V30 568 N 50.2554 -1.46986 0.568584 0
M  V30 569 C 51.1874 -2.28233 -0.210337 0
M  V30 570 C 52.2004 -1.37682 -0.868767 0
M  V30 571 O 53.3894 -1.62406 -0.740705 0
M  V30 572 C 50.4894 -3.12293 -1.3163 0
M  V30 573 C 49.6624 -4.30878 -0.7525 0
M  V30 574 C 48.7214 -4.96445 -1.74439 0
M  V30 575 O 47.7474 -5.54482 -1.286 0
M  V30 576 N 48.9494 -4.92171 -3.07812 0
M  V30 577 H 51.7144 -2.95723 0.486648 0
M  V30 578 H 49.2754 -1.56742 0.405409 0
M  V30 579 H 51.2674 -3.53022 -1.97883 0
M  V30 580 H 49.8374 -2.46971 -1.91636 0
M  V30 581 H 49.0574 -3.94104 0.0871128 0
M  V30 582 H 50.3454 -5.07558 -0.35536 0
M  V30 583 H 49.7434 -4.46239 -3.47688 0
M  V30 584 H 48.3004 -5.36884 -3.69592 0
M  V30 585 N 51.7335 -0.305618 -1.54608 0
M  V30 586 C 52.9795 0.302746 -2.00528 0
M  V30 587 C 53.3125 1.53184 -1.19367 0
M  V30 588 O 52.5875 1.92598 -0.271321 0
M  V30 589 C 52.8705 0.654756 -3.54097 0
M  V30 590 C 52.7235 -0.583793 -4.45995 0
M  V30 591 C 54.0425 1.47947 -4.14487 0
M  V30 592 H 51.1615 0.108564 -0.72896 0
M  V30 593 H 53.8035 -0.418634 -1.85331 0
M  V30 594 H 51.9535 1.26935 -3.67178 0
M  V30 595 H 53.6255 -1.22224 -4.44814 0
M  V30 596 H 51.8685 -1.21615 -4.16404 0
M  V30 597 H 52.5395 -0.293287 -5.5122 0
M  V30 598 H 55.0155 0.96013 -4.04871 0
M  V30 599 H 53.8915 1.69454 -5.22088 0
M  V30 600 H 54.1525 2.47011 -3.66658 0
M  V30 601 N 53.2116 1.57565 -0.0334293 0
M  V30 602 C 54.6276 1.56297 0.322997 0
M  V30 603 C 54.8276 1.03945 1.7262 0
M  V30 604 O 53.8836 0.688109 2.42943 0
M  V30 605 C 55.1966 3.00232 0.167664 0
M  V30 606 C 56.7446 3.12078 0.240107 0
M  V30 607 C 57.2196 4.57859 0.113513 0
M  V30 608 N 58.7106 4.62887 0.170359 0
M  V30 609 C 59.4456 5.73319 0.0962517 0
M  V30 610 N 58.9416 6.92794 -0.0291881 0
M  V30 611 N 60.7346 5.61898 0.150551 0
M  V30 612 H 52.8856 1.89923 -0.950956 0
M  V30 613 H 55.1486 0.873824 -0.367608 0
M  V30 614 H 54.8546 3.42501 -0.799102 0
M  V30 615 H 54.7286 3.654 0.936083 0
M  V30 616 H 57.1156 2.69718 1.19733 0
M  V30 617 H 57.1966 2.49623 -0.558763 0
M  V30 618 H 56.8406 5.009 -0.840314 0
M  V30 619 H 56.7706 5.18299 0.931302 0
M  V30 620 H 59.2616 3.76954 0.26728 0
M  V30 621 H 59.5746 7.7276 -0.0789252 0
M  V30 622 H 57.9196 6.94971 -0.0640299 0
M  V30 623 H 61.1106 4.67448 0.246981 0
M  V30 624 H 61.2836 6.47938 0.0893365 0
M  V30 625 N 54.6897 -0.239769 1.55765 0
M  V30 626 C 55.9377 -0.964892 1.77579 0
M  V30 627 C 56.2587 -1.85582 0.598699 0
M  V30 628 O 55.5287 -1.92075 -0.385226 0
M  V30 629 H 54.1087 -0.359265 0.654933 0
M  V30 630 H 56.7707 -0.256001 1.93211 0
M  V30 631 H 55.8667 -1.58243 2.69009 0
M  V30 632 N 56.1678 -1.49265 -0.50573 0
M  V30 633 C 57.5788 -1.51769 -1.08734 0
M  V30 634 C 57.9298 -0.301192 -1.93874 0
M  V30 635 O 57.0548 0.589456 -2.08217 0
M  V30 636 C 57.6498 -2.75017 -1.97867 0
M  V30 637 C 56.2088 -2.80314 -2.51199 0
M  V30 638 C 55.3558 -2.4562 -1.28709 0
M  V30 639 H 58.3068 -1.56031 -0.289855 0
M  V30 640 H 58.3278 -2.5491 -2.82491 0
M  V30 641 H 57.8398 -3.63539 -1.35873 0
M  V30 642 H 55.9408 -1.96061 -3.16845 0
M  V30 643 H 56.0538 -3.82366 -2.88675 0
M  V30 644 H 54.4178 -1.97297 -1.61078 0
M  V30 645 H 55.2008 -3.36411 -0.6843 0
M  V30 646 N 57.6459 0.756429 -1.3826 0
M  V30 647 C 58.8949 1.51082 -1.3363 0
M  V30 648 C 59.2079 1.95467 0.0720068 0
M  V30 649 O 60.4139 2.7043 0.240834 0
M  V30 650 C 58.8699 2.72893 -2.34644 0
M  V30 651 C 58.4779 2.35544 -3.81081 0
M  V30 652 C 60.2219 3.50791 -2.39052 0
M  V30 653 C 58.1289 3.53948 -4.73787 0
M  V30 654 H 57.0589 0.56727 -0.49671 0
M  V30 655 H 59.7099 0.827147 -1.638 0
M  V30 656 H 58.0919 3.43227 -1.97513 0
M  V30 657 H 59.2659 1.72894 -4.27135 0
M  V30 658 H 57.5809 1.70786 -3.79764 0
M  V30 659 H 60.1779 4.38823 -3.05513 0
M  V30 660 H 60.5209 3.91745 -1.40861 0
M  V30 661 H 61.0539 2.87467 -2.74968 0
M  V30 662 H 57.7929 3.18064 -5.73163 0
M  V30 663 H 57.3129 4.15651 -4.32428 0
M  V30 664 H 58.9919 4.20566 -4.91663 0
M  V30 665 N 59.124 1.23083 0.984299 0
M  V30 666 C 60.535 1.05609 1.5396 0
M  V30 667 C 60.886 -0.377793 1.92528 0
M  V30 668 O 60.011 -1.26398 1.75649 0
M  V30 669 C 60.606 1.91087 2.7977 0
M  V30 670 C 59.165 1.77885 3.31713 0
M  V30 671 C 58.312 1.87028 2.04733 0
M  V30 672 H 61.263 1.36802 0.804419 0
M  V30 673 H 61.284 1.43336 3.5247 0
M  V30 674 H 60.796 2.9544 2.51668 0
M  V30 675 H 58.897 0.762995 3.64704 0
M  V30 676 H 59.01 2.61047 4.01735 0
M  V30 677 H 57.374 1.30565 2.18689 0
M  V30 678 H 58.157 2.92929 1.79017 0
M  V30 679 N 60.6021 -1.18246 1.0419 0
M  V30 680 C 61.5321 -2.24127 0.654914 0
M  V30 681 C 62.5131 -1.66617 -0.342451 0
M  V30 682 O 63.6981 -1.92924 -0.222277 0
M  V30 683 C 60.8281 -3.47295 0.0183757 0
M  V30 684 C 59.7821 -4.17563 0.939414 0
M  V30 685 C 59.1081 -5.34438 0.167286 0
M  V30 686 C 60.4081 -4.70917 2.25908 0
M  V30 687 H 62.1021 -2.56753 1.54007 0
M  V30 688 H 59.6481 -1.23414 0.74195 0
M  V30 689 H 61.6011 -4.20572 -0.264082 0
M  V30 690 H 60.3251 -3.13907 -0.901664 0
M  V30 691 H 58.9841 -3.46186 1.20628 0
M  V30 692 H 58.6321 -4.97298 -0.7552 0
M  V30 693 H 58.3321 -5.82388 0.780901 0
M  V30 694 H 59.8561 -6.10504 -0.108125 0
M  V30 695 H 61.2701 -5.35882 2.03724 0
M  V30 696 H 59.6671 -5.29406 2.82577 0
M  V30 697 H 60.7371 -3.88272 2.9047 0
M  V30 698 N 62.0802 -0.821533 -1.34494 0
M  V30 699 C 63.4912 -0.467956 -1.8074 0
M  V30 700 C 63.8422 1.01151 -1.68116 0
M  V30 701 O 62.9672 1.78707 -1.22036 0
M  V30 702 C 63.5622 -0.842627 -3.28154 0
M  V30 703 C 62.1212 -0.541439 -3.72485 0
M  V30 704 C 61.2682 -1.06028 -2.56229 0
M  V30 705 H 64.2192 -1.01183 -1.22261 0
M  V30 706 H 64.2402 -0.145876 -3.8022 0
M  V30 707 H 63.7522 -1.91945 -3.37311 0
M  V30 708 H 61.8532 0.526034 -3.68868 0
M  V30 709 H 61.9662 -1.08453 -4.66663 0
M  V30 710 H 60.3302 -0.481892 -2.501 0
M  V30 711 H 61.1132 -2.14352 -2.68157 0
M  V30 712 N 63.5583 1.46682 -0.576371 0
M  V30 713 C 64.7863 2.06798 -0.0649635 0
M  V30 714 C 65.2013 1.42612 1.23723 0
M  V30 715 O 64.5583 0.529203 1.74659 0
M  V30 716 C 64.6093 3.6132 0.114202 0
M  V30 717 O 64.3303 4.23104 -1.13644 0
M  V30 718 C 65.8313 4.38349 0.66069 0
M  V30 719 H 63.0513 0.668778 -0.0545616 0
M  V30 720 H 65.5953 1.88404 -0.795237 0
M  V30 721 H 63.7503 3.79162 0.794673 0
M  V30 722 H 64.1643 5.15894 -0.946253 0
M  V30 723 H 65.6383 5.47081 0.73526 0
M  V30 724 H 66.1153 4.05953 1.67627 0
M  V30 725 H 66.7213 4.25297 0.0152951 0
M  V30 726 N 65.0364 0.313813 1.54444 0
M  V30 727 C 66.4524 -0.0391619 1.59552 0
M  V30 728 C 66.6524 -1.51322 1.33056 0
M  V30 729 O 65.7084 -2.26782 1.11022 0
M  V30 730 C 67.0214 0.370302 2.98411 0
M  V30 731 C 68.5694 0.320139 3.11358 0
M  V30 732 C 69.0444 0.704617 4.52547 0
M  V30 733 N 70.5354 0.657645 4.58508 0
M  V30 734 C 71.2704 0.927453 5.6585 0
M  V30 735 N 70.7664 1.26389 6.81174 0
M  V30 736 N 72.5594 0.853662 5.5558 0
M  V30 737 H 64.7104 1.27433 1.69925 0
M  V30 738 H 66.9734 0.517511 0.794284 0
M  V30 739 H 66.6794 1.39694 3.22767 0
M  V30 740 H 66.5534 -0.269619 3.76235 0
M  V30 741 H 68.9404 -0.697275 2.86744 0
M  V30 742 H 69.0214 0.99486 2.35661 0
M  V30 743 H 68.6654 1.7199 4.77893 0
M  V30 744 H 68.5954 0.00768843 5.26599 0
M  V30 745 H 71.0864 0.409067 3.75679 0
M  V30 746 H 71.3994 1.4554 7.58972 0
M  V30 747 H 69.7444 1.30206 6.82694 0
M  V30 748 H 72.9354 0.590383 4.64362 0
M  V30 749 H 73.1084 1.0673 6.3915 0
M  V30 750 N 66.5145 -1.57545 0.0417849 0
M  V30 751 C 67.4615 -2.10977 -0.935805 0
M  V30 752 C 68.4315 -1.01486 -1.31491 0
M  V30 753 O 69.6165 -1.2898 -1.40602 0
M  V30 754 C 66.7565 -2.65169 -2.2086 0
M  V30 755 C 65.8695 -3.88714 -1.88482 0
M  V30 756 C 65.0045 -4.31254 -3.1015 0
M  V30 757 C 64.0435 -5.47524 -2.7365 0
M  V30 758 N 63.1805 -5.85162 -3.87982 0
M  V30 759 H 68.0205 -2.94218 -0.473249 0
M  V30 760 H 65.5575 -1.45415 -0.221981 0
M  V30 761 H 67.5155 -2.94685 -2.95325 0
M  V30 762 H 66.1455 -1.8474 -2.64709 0
M  V30 763 H 65.1975 -3.65849 -1.04205 0
M  V30 764 H 66.5095 -4.73245 -1.57608 0
M  V30 765 H 65.6635 -4.62273 -3.92923 0
M  V30 766 H 64.4025 -3.45516 -3.44195 0
M  V30 767 H 63.4075 -5.16187 -1.89291 0
M  V30 768 H 64.6325 -6.34971 -2.40807 0
M  V30 769 H 62.5785 -5.02377 -4.21846 0
M  V30 770 H 62.4955 -6.64362 -3.60775 0
M  V30 771 H 63.7635 -6.20791 -4.71422 0
M  V30 772 N 67.9926 0.231505 -1.5589 0
M  V30 773 C 68.9026 1.308 -1.94752 0
M  V30 774 C 69.9186 1.51826 -0.849989 0
M  V30 775 O 71.0946 1.6515 -1.15271 0
M  V30 776 C 68.1596 2.63968 -2.24771 0
M  V30 777 C 67.2206 2.51331 -3.48039 0
M  V30 778 C 66.4536 3.78148 -3.76616 0
M  V30 779 O 66.6766 4.80722 -3.07022 0
M  V30 780 O 65.6106 3.75857 -4.70123 0
M  V30 781 H 69.4366 1.0083 -2.86474 0
M  V30 782 H 67.0216 0.433547 -1.42971 0
M  V30 783 H 68.9036 3.42633 -2.45318 0
M  V30 784 H 67.5786 2.9364 -1.36225 0
M  V30 785 H 66.4856 1.709 -3.32782 0
M  V30 786 H 67.8186 2.26601 -4.36936 0
M  V30 787 N 69.4707 1.49531 0.497807 0
M  V30 788 C 70.8867 1.36365 0.829266 0
M  V30 789 C 71.0867 0.399184 1.97506 0
M  V30 790 O 70.1427 -0.167977 2.51941 0
M  V30 791 C 71.4557 2.77153 1.16647 0
M  V30 792 C 73.0037 2.85877 1.27449 0
M  V30 793 C 73.4787 4.2744 1.64497 0
M  V30 794 N 74.9697 4.30265 1.7154 0
M  V30 795 C 75.7047 5.3677 2.01656 0
M  V30 796 N 75.2007 6.53516 2.29976 0
M  V30 797 N 76.9937 5.24189 2.02934 0
M  V30 798 H 69.1447 2.10831 -0.257703 0
M  V30 799 H 71.4077 0.946534 -0.0527091 0
M  V30 800 H 71.1137 3.49442 0.397872 0
M  V30 801 H 70.9877 3.12722 2.10915 0
M  V30 802 H 73.3747 2.13824 2.0338 0
M  V30 803 H 73.4557 2.53887 0.312244 0
M  V30 804 H 73.0997 5.00021 0.891151 0
M  V30 805 H 73.0297 4.56896 2.61827 0
M  V30 806 H 75.5207 3.4607 1.51802 0
M  V30 807 H 75.8337 7.30506 2.52153 0
M  V30 808 H 74.1787 6.56737 2.27425 0
M  V30 809 H 77.3697 4.31988 1.80289 0
M  V30 810 H 77.5427 6.07286 2.26071 0
M  V30 811 N 70.9488 -0.749086 1.3866 0
M  V30 812 C 72.1958 -1.50833 1.35114 0
M  V30 813 C 72.5238 -1.94415 -0.0574049 0
M  V30 814 O 71.7788 -1.66065 -1.03541 0
M  V30 815 C 72.0778 -2.7712 2.25697 0
M  V30 816 C 71.7438 -2.52477 3.73585 0
M  V30 817 C 70.4058 -2.45466 4.13884 0
M  V30 818 C 72.7578 -2.31066 4.67181 0
M  V30 819 C 70.0858 -2.15064 5.45861 0
M  V30 820 C 72.4378 -2.02183 5.9942 0
M  V30 821 C 71.1018 -1.93631 6.38798 0
M  V30 822 H 70.3718 -0.551936 0.494416 0
M  V30 823 H 73.0188 -0.860979 1.71054 0
M  V30 824 H 71.3238 -3.46528 1.82827 0
M  V30 825 H 73.0208 -3.35096 2.20254 0
M  V30 826 H 69.6108 -2.58807 3.41638 0
M  V30 827 H 73.7948 -2.35459 4.3689 0
M  V30 828 H 69.0508 -2.06954 5.75308 0
M  V30 829 H 73.2248 -1.8462 6.71482 0
M  V30 830 H 70.8518 -1.69839 7.40985 0
M  V30 831 N 72.4269 -1.23603 -0.977757 0
M  V30 832 C 73.6549 -1.09646 -1.75458 0
M  V30 833 C 74.0699 0.351859 -1.85492 0
M  V30 834 O 73.4269 1.24327 -1.336 0
M  V30 835 C 73.4779 -1.71895 -3.18016 0
M  V30 836 O 73.1989 -3.11063 -3.08498 0
M  V30 837 C 74.6999 -1.63415 -4.12081 0
M  V30 838 H 71.9199 -0.38359 -0.550545 0
M  V30 839 H 74.4639 -1.63507 -1.22824 0
M  V30 840 H 72.6189 -1.22061 -3.67668 0
M  V30 841 H 73.0329 -3.41305 -3.9826 0
M  V30 842 H 74.5069 -2.11669 -5.09804 0
M  V30 843 H 74.9839 -0.593462 -4.35172 0
M  V30 844 H 75.5899 -2.12628 -3.68334 0
M  V30 845 N 73.905 1.17692 -1.04816 0
M  V30 846 C 75.151 1.88137 -0.75711 0
M  V30 847 C 75.484 1.80604 0.713841 0
M  V30 848 O 74.759 1.21146 1.52164 0
M  V30 849 C 75.042 3.38318 -1.2334 0
M  V30 850 C 74.895 3.54622 -2.76701 0
M  V30 851 C 76.214 4.32214 -0.829415 0
M  V30 852 H 73.333 0.683163 -0.27651 0
M  V30 853 H 75.975 1.38424 -1.30149 0
M  V30 854 H 74.125 3.80787 -0.770286 0
M  V30 855 H 75.797 3.21194 -3.31107 0
M  V30 856 H 74.04 2.97026 -3.16161 0
M  V30 857 H 74.711 4.60028 -3.05088 0
M  V30 858 H 77.187 3.97565 -1.22805 0
M  V30 859 H 76.063 5.35838 -1.19033 0
M  V30 860 H 76.324 4.41294 0.266891 0
M  V30 861 N 75.3831 0.828654 1.34056 0
M  V30 862 C 76.3131 0.269443 2.3194 0
M  V30 863 C 77.2941 -0.617247 1.58506 0
M  V30 864 O 78.4791 -0.542931 1.86456 0
M  V30 865 C 75.6091 -0.564793 3.42677 0
M  V30 866 C 74.5631 0.225241 4.27407 0
M  V30 867 C 73.8891 -0.7321 5.29664 0
M  V30 868 C 75.1891 1.43663 5.02154 0
M  V30 869 H 76.8831 1.08728 2.7896 0
M  V30 870 H 74.4291 0.524283 1.34117 0
M  V30 871 H 76.3821 -0.966233 4.10173 0
M  V30 872 H 75.1061 -1.41574 2.9432 0
M  V30 873 H 73.7651 0.608117 3.61521 0
M  V30 874 H 73.4131 -1.57916 4.77568 0
M  V30 875 H 73.1131 -0.20767 5.87233 0
M  V30 876 H 74.6371 -1.13128 6.00029 0
M  V30 877 H 76.0511 1.1089 5.62473 0
M  V30 878 H 74.4481 1.89711 5.69324 0
M  V30 879 H 75.5181 2.21181 4.31517 0
M  V30 880 N 76.8612 -1.46375 0.584142 0
M  V30 881 C 78.1102 -2.01585 0.0679741 0
M  V30 882 C 78.4232 -1.46109 -1.30045 0
M  V30 883 O 79.6292 -1.93148 -1.90804 0
M  V30 884 C 78.0852 -3.5983 0.0709207 0
M  V30 885 C 77.6932 -4.24303 1.43775 0
M  V30 886 C 79.4372 -4.22693 -0.391228 0
M  V30 887 C 77.3442 -5.74631 1.39834 0
M  V30 888 H 76.2742 -0.753689 0.0216421 0
M  V30 889 H 78.9252 -1.68093 0.736001 0
M  V30 890 H 77.3072 -3.90405 -0.663299 0
M  V30 891 H 78.4812 -4.05335 2.19181 0
M  V30 892 H 76.7962 -3.73539 1.84004 0
M  V30 893 H 79.3932 -5.3289 -0.439524 0
M  V30 894 H 79.7362 -3.91728 -1.40906 0
M  V30 895 H 80.2692 -3.96749 0.288974 0
M  V30 896 H 77.0082 -6.10258 2.39303 0
M  V30 897 H 76.5282 -5.95858 0.686505 0
M  V30 898 H 78.2072 -6.37375 1.11187 0
M  V30 899 N 78.3393 -0.321999 -1.54275 0
M  V30 900 C 79.5643 0.285791 -2.05422 0
M  V30 901 C 79.9893 1.45124 -1.19669 0
M  V30 902 O 79.3473 1.80132 -0.205441 0
M  V30 903 C 79.3953 0.69956 -3.53749 0
M  V30 904 O 78.4993 1.8021 -3.70942 0
M  V30 905 H 77.8403 0.0518962 -0.661969 0
M  V30 906 H 80.3703 -0.469954 -1.9913 0
M  V30 907 H 80.3803 0.982649 -3.9599 0
M  V30 908 H 79.0553 -0.152864 -4.15619 0
M  V30 909 H 77.6323 1.51794 -3.40607 0
M  V30 910 N 79.8174 1.5752 -0.0501392 0
M  V30 911 C 81.2284 1.80271 0.485705 0
M  V30 912 C 81.5794 0.96228 1.70981 0
M  V30 913 O 80.7044 0.178578 2.15662 0
M  V30 914 C 81.2994 3.26957 0.887938 0
M  V30 915 C 79.8584 3.5063 1.36877 0
M  V30 916 C 79.0054 2.75165 0.343468 0
M  V30 917 H 81.9564 1.56281 -0.276028 0
M  V30 918 H 81.9774 3.37821 1.75093 0
M  V30 919 H 81.4894 3.881 -0.0031809 0
M  V30 920 H 79.5904 2.94766 2.27911 0
M  V30 921 H 79.7034 4.59343 1.36164 0
M  V30 922 H 78.0674 2.4127 0.816128 0
M  V30 923 H 78.8504 3.39034 -0.539548 0
M  V30 924 N 81.2955 -0.223234 1.56011 0
M  V30 925 C 82.2455 -1.28008 1.88674 0
M  V30 926 C 83.2295 -1.42369 0.749663 0
M  V30 927 O 84.4215 -1.45212 1.01205 0
M  V30 928 C 81.5505 -2.63084 2.20548 0
M  V30 929 C 80.6365 -2.52632 3.40643 0
M  V30 930 N 81.0275 -2.11829 4.59306 0
M  V30 931 C 79.3255 -2.83594 3.44224 0
M  V30 932 C 80.0265 -2.12587 5.41463 0
M  V30 933 N 79.0025 -2.5301 4.81131 0
M  V30 934 H 82.8045 -0.955487 2.77935 0
M  V30 935 H 80.3185 -0.431801 1.56554 0
M  V30 936 H 82.3155 -3.39385 2.42122 0
M  V30 937 H 80.9755 -2.96391 1.32599 0
M  V30 938 H 81.9865 -1.82988 4.84496 0
M  V30 939 H 78.6635 -3.21284 2.66614 0
M  V30 940 H 80.0535 -1.83179 6.46448 0
M  V30 941 N 82.7736 -1.49793 -0.48987 0
M  V30 942 C 84.0196 -1.60078 -1.24511 0
M  V30 943 C 84.3526 -0.291608 -1.91998 0
M  V30 944 O 83.6276 0.705647 -1.81248 0
M  V30 945 C 83.9106 -2.76791 -2.30345 0
M  V30 946 C 83.7636 -4.17535 -1.67286 0
M  V30 947 C 85.0826 -2.89111 -3.31817 0
M  V30 948 H 82.2016 -0.582645 -0.451324 0
M  V30 949 H 84.8436 -1.82117 -0.541612 0
M  V30 950 H 82.9936 -2.5813 -2.90346 0
M  V30 951 H 84.6656 -4.4774 -1.11026 0
M  V30 952 H 82.9086 -4.22665 -0.976577 0
M  V30 953 H 83.5796 -4.95094 -2.44103 0
M  V30 954 H 86.0556 -3.06133 -2.81819 0
M  V30 955 H 84.9316 -3.72433 -4.03219 0
M  V30 956 H 85.1926 -1.9893 -3.94815 0
M  V30 957 N 84.2517 0.741722 -1.39055 0
M  V30 958 C 85.1997 1.87702 -1.3737 0
M  V30 959 C 86.1937 1.67427 -0.257812 0
M  V30 960 O 87.3997 1.7485 -0.427489 0
M  V30 961 H 83.7747 0.617757 -0.428812 0
M  V30 962 H 85.7457 1.86239 -2.33147 0
M  V30 963 C 84.4947 3.25315 -1.22741 0
M  V30 964 H 83.8177 3.41509 -2.07873 0
M  V30 965 H 85.2577 4.04964 -1.25618 0
M  V30 966 C 83.7167 3.36838 0.0647316 0
M  V30 967 O 84.2467 3.88073 1.03741 0
M  V30 968 N 82.4527 2.90329 0.125544 0
M  V30 969 H 81.9997 2.48823 -0.666682 0
M  V30 970 H 81.9577 2.98418 0.989639 0
M  V30 971 N 85.7298 1.2412 0.971189 0
M  V30 972 C 86.6768 1.0305 2.06517 0
M  V30 973 C 87.6468 -0.0550666 1.66009 0
M  V30 974 O 88.8318 0.0988688 1.90544 0
M  V30 975 C 85.9718 0.637653 3.39158 0
M  V30 976 C 85.0848 1.79633 3.92882 0
M  V30 977 C 84.2198 1.34939 5.13775 0
M  V30 978 C 83.2588 2.47823 5.59687 0
M  V30 979 N 82.3958 2.04022 6.71803 0
M  V30 980 H 87.2358 1.96685 2.23873 0
M  V30 981 H 84.7728 0.979694 1.09729 0
M  V30 982 H 86.7308 0.390931 4.15364 0
M  V30 983 H 85.3608 -0.261693 3.21737 0
M  V30 984 H 84.4128 2.15681 3.13346 0
M  V30 985 H 85.7248 2.64466 4.22918 0
M  V30 986 H 84.8788 1.06134 5.97345 0
M  V30 987 H 83.6178 0.471557 4.85415 0
M  V30 988 H 82.6228 2.77392 4.74693 0
M  V30 989 H 83.8478 3.36158 5.90063 0
M  V30 990 H 81.7938 1.18632 6.45184 0
M  V30 991 H 81.7108 2.82409 7.01271 0
M  V30 992 H 82.9788 1.78347 7.58823 0
M  V30 993 N 87.2079 -1.17134 1.05439 0
M  V30 994 C 88.4849 -1.83411 0.679699 0
M  V30 995 C 88.8649 -1.9368 -0.839726 0
M  V30 996 O 88.2129 -1.47325 -1.74664 0
M  V30 997 C 88.4229 -3.20918 1.37159 0
M  V30 998 C 89.7709 -3.96796 1.51123 0
M  V30 999 O 90.7949 -3.30406 1.3308 0
M  V30 1000 O 89.6539 -5.15778 1.80651 0
M  V30 1001 H 86.7479 -0.79154 0.239569 0
M  V30 1002 H 89.2939 -1.24411 1.15413 0
M  V30 1003 H 88.0659 -3.08428 2.40807 0
M  V30 1004 H 87.6889 -3.87587 0.886674 0
M  V30 1005 N 88.686 -0.835752 -1.33615 0
M  V30 1006 C 89.649 -0.272 -2.2758 0
M  V30 1007 C 90.649 0.557487 -1.50827 0
M  V30 1008 O 91.839 0.37173 -1.70188 0
M  V30 1009 C 88.971 0.617173 -3.35267 0
M  V30 1010 H 90.164 -1.10111 -2.78954 0
M  V30 1011 H 87.717 -0.608594 -1.43965 0
M  V30 1012 H 88.452 1.46884 -2.89129 0
M  V30 1013 H 88.237 0.0237066 -3.92093 0
M  V30 1014 H 89.727 1.005 -4.05326 0
M  V30 1015 N 90.1641 1.46063 -0.591896 0
M  V30 1016 C 91.5801 1.57561 -0.254288 0
M  V30 1017 C 91.7801 1.58565 1.24336 0
M  V30 1018 O 90.8361 1.50753 2.02558 0
M  V30 1019 C 92.1491 2.86549 -0.911611 0
M  V30 1020 C 93.6971 3.00197 -0.886059 0
M  V30 1021 C 94.1721 4.31933 -1.5231 0
M  V30 1022 N 95.6631 4.38654 -1.48786 0
M  V30 1023 C 96.3981 5.39222 -1.95006 0
M  V30 1024 N 95.8941 6.46414 -2.49241 0
M  V30 1025 N 97.6871 5.3048 -1.85868 0
M  V30 1026 H 89.8381 1.43655 -1.56451 0
M  V30 1027 H 92.1011 0.68583 -0.654478 0
M  V30 1028 H 91.8071 2.91651 -1.96551 0
M  V30 1029 H 91.6811 3.74794 -0.425368 0
M  V30 1030 H 94.0681 2.9467 0.159246 0
M  V30 1031 H 94.1491 2.13403 -1.41041 0
M  V30 1032 H 93.7931 4.38217 -2.56765 0
M  V30 1033 H 93.7231 5.17516 -0.973891 0
M  V30 1034 H 96.2141 3.61793 -1.09151 0
M  V30 1035 H 96.5271 7.19376 -2.82344 0
M  V30 1036 H 94.8721 6.47208 -2.53272 0
M  V30 1037 H 98.0631 4.45643 -1.43248 0
M  V30 1038 H 98.2361 6.08711 -2.22204 0
M  V30 1039 N 91.6422 0.330177 1.54103 0
M  V30 1040 C 92.9192 -0.325007 1.92881 0
M  V30 1041 C 93.2992 -1.6934 1.26045 0
M  V30 1042 O 92.6472 -2.24855 0.406526 0
M  V30 1043 C 92.8572 -0.410634 3.46576 0
M  V30 1044 C 94.2052 -0.667801 4.19316 0
M  V30 1045 O 95.2292 -0.49329 3.52768 0
M  V30 1046 O 94.0882 -1.00491 5.37181 0
M  V30 1047 H 91.1822 -0.186873 0.80561 0
M  V30 1048 H 93.7282 0.380376 1.65382 0
M  V30 1049 H 92.5002 0.550164 3.87413 0
M  V30 1050 H 92.1232 -1.16333 3.802 0
M  V30 1051 N 93.1203 -1.57491 0.0584922 0
M  V30 1052 C 94.0523 -2.08916 -0.942694 0
M  V30 1053 C 95.0653 -1.0185 -1.27006 0
M  V30 1054 O 96.2543 -1.29398 -1.22957 0
M  V30 1055 C 93.3543 -2.52341 -2.26224 0
M  V30 1056 C 92.5273 -3.82827 -2.1157 0
M  V30 1057 C 91.5863 -4.12487 -3.26712 0
M  V30 1058 O 90.6123 -4.82295 -3.02292 0
M  V30 1059 N 91.8143 -3.64978 -4.5141 0
M  V30 1060 H 94.5793 -2.95437 -0.503722 0
M  V30 1061 H 92.1403 -1.61397 -0.12757 0
M  V30 1062 H 94.1323 -2.69254 -3.02133 0
M  V30 1063 H 92.7023 -1.7103 -2.61663 0
M  V30 1064 H 91.9223 -3.75425 -1.20208 0
M  V30 1065 H 93.2103 -4.68263 -1.99015 0
M  V30 1066 H 92.6083 -3.08558 -4.7414 0
M  V30 1067 H 91.1653 -3.87115 -5.2439 0
M  V30 1068 N 94.5984 0.214957 -1.56127 0
M  V30 1069 C 95.8284 0.953707 -1.8327 0
M  V30 1070 C 96.2364 1.78181 -0.636262 0
M  V30 1071 O 95.5794 1.79191 0.404516 0
M  V30 1072 C 95.6414 1.91516 -3.0424 0
M  V30 1073 C 95.3054 1.27094 -4.38972 0
M  V30 1074 C 96.3024 0.657575 -5.15725 0
M  V30 1075 C 93.9874 1.28073 -4.85698 0
M  V30 1076 C 95.9814 0.0625968 -6.37369 0
M  V30 1077 C 93.6684 0.681914 -6.07283 0
M  V30 1078 C 94.6664 0.0739046 -6.8296 0
M  V30 1079 O 94.3544 -0.515582 -8.02245 0
M  V30 1080 H 94.0864 0.284764 -0.613095 0
M  V30 1081 H 96.6404 0.233283 -2.04071 0
M  V30 1082 H 94.8704 2.67475 -2.79274 0
M  V30 1083 H 96.5594 2.52001 -3.18198 0
M  V30 1084 H 97.3254 0.642288 -4.80728 0
M  V30 1085 H 93.2044 1.74337 -4.26764 0
M  V30 1086 H 96.7484 -0.412593 -6.96379 0
M  V30 1087 H 92.6454 0.694636 -6.41752 0
M  V30 1088 H 93.4134 -0.410544 -8.1747 0
M  V30 1089 N 96.0765 1.50051 0.48192 0
M  V30 1090 C 96.9865 1.7089 1.60728 0
M  V30 1091 C 98.0025 0.591788 1.63627 0
M  V30 1092 O 99.1785 0.868817 1.81696 0
M  V30 1093 C 96.2435 1.78855 2.97005 0
M  V30 1094 C 95.3045 3.02537 3.04581 0
M  V30 1095 C 94.5375 3.10112 4.34357 0
M  V30 1096 O 94.7605 2.24765 5.24249 0
M  V30 1097 O 93.6945 4.02747 4.47301 0
M  V30 1098 H 97.5205 2.66264 1.46072 0
M  V30 1099 H 95.1055 1.34018 0.660264 0
M  V30 1100 H 96.9875 1.86336 3.77964 0
M  V30 1101 H 95.6625 0.866628 3.11883 0
M  V30 1102 H 94.5695 3.00563 2.22739 0
M  V30 1103 H 95.9025 3.94272 2.94636 0
M  V30 1104 N 97.5546 -0.734337 1.39446 0
M  V30 1105 C 98.8036 -1.48937 1.36017 0
M  V30 1106 C 99.1166 -1.95557 -0.0409005 0
M  V30 1107 O 100.323 -2.70779 -0.19778 0
M  V30 1108 C 98.7786 -2.69125 2.38955 0
M  V30 1109 C 98.3866 -2.29452 3.8478 0
M  V30 1110 C 100.131 -3.46944 2.44603 0
M  V30 1111 C 98.0376 -3.46366 4.79358 0
M  V30 1112 H 96.9676 -0.559296 0.505672 0
M  V30 1113 H 99.6186 -0.800983 1.65095 0
M  V30 1114 H 98.0006 -3.40041 2.02948 0
M  V30 1115 H 99.1746 -1.66077 4.29831 0
M  V30 1116 H 97.4896 -1.64723 3.82433 0
M  V30 1117 H 100.087 -4.33907 3.12456 0
M  V30 1118 H 100.43 -3.89454 1.47076 0
M  V30 1119 H 100.963 -2.83056 2.79507 0
M  V30 1120 H 97.7016 -3.08905 5.78151 0
M  V30 1121 H 97.2216 -4.08719 4.38986 0
M  V30 1122 H 98.9006 -4.12691 4.98292 0
M  V30 1123 N 99.0327 -1.24633 -0.964593 0
M  V30 1124 C 100.449 -1.01239 -1.2338 0
M  V30 1125 C 100.649 0.2769 -1.99588 0
M  V30 1126 O 99.7047 0.992241 -2.32187 0
M  V30 1127 C 101.018 -2.22937 -2.01791 0
M  V30 1128 C 102.566 -2.27594 -2.14872 0
M  V30 1129 C 103.041 -3.48921 -2.96678 0
M  V30 1130 N 104.532 -3.49257 -3.04259 0
M  V30 1131 C 105.267 -4.39795 -3.67924 0
M  V30 1132 N 104.763 -5.40591 -4.33281 0
M  V30 1133 N 106.556 -4.275 -3.64966 0
M  V30 1134 H 98.7067 -2.0748 -0.454502 0
M  V30 1135 H 100.97 -0.910647 -0.26349 0
M  V30 1136 H 100.676 -3.16587 -1.53184 0
M  V30 1137 H 100.55 -2.25306 -3.02518 0
M  V30 1138 H 102.937 -1.34473 -2.6268 0
M  V30 1139 H 103.018 -2.2925 -1.13482 0
M  V30 1140 H 102.662 -4.42359 -2.49562 0
M  V30 1141 H 102.592 -3.4451 -3.98272 0
M  V30 1142 H 105.083 -2.76337 -2.57771 0
M  V30 1143 H 105.396 -6.05904 -4.79687 0
M  V30 1144 H 103.741 -5.44475 -4.3194 0
M  V30 1145 H 106.932 -3.47987 -3.13086 0
M  V30 1146 H 107.105 -4.98258 -4.14298 0
M  V30 1147 N 100.511 1.16574 -1.06058 0
M  V30 1148 C 101.739 1.90952 -0.796552 0
M  V30 1149 C 102.154 1.77302 0.648808 0
M  V30 1150 O 101.511 1.11605 1.44397 0
M  V30 1151 C 101.562 3.41736 -1.17894 0
M  V30 1152 O 101.283 3.54975 -2.56758 0
M  V30 1153 C 102.784 4.33169 -0.942308 0
M  V30 1154 H 100.004 0.605594 -0.288959 0
M  V30 1155 H 102.548 1.47777 -1.41358 0
M  V30 1156 H 100.703 3.82623 -0.606491 0
M  V30 1157 H 101.117 4.4846 -2.72 0
M  V30 1158 H 102.591 5.37439 -1.25952 0
M  V30 1159 H 103.068 4.3903 0.122078 0
M  V30 1160 H 103.674 3.98007 -1.49902 0
M  V30 1161 N 101.989 0.842826 1.3317 0
M  V30 1162 C 102.939 0.250877 2.26616 0
M  V30 1163 C 103.923 -0.596427 1.49437 0
M  V30 1164 O 105.115 -0.447747 1.71243 0
M  V30 1165 C 102.244 -0.569779 3.38539 0
M  V30 1166 C 101.33 0.289254 4.23112 0
M  V30 1167 N 101.721 1.36987 4.86897 0
M  V30 1168 C 100.019 0.0769631 4.45934 0
M  V30 1169 C 100.72 1.89737 5.49886 0
M  V30 1170 N 99.6959 1.19827 5.30229 0
M  V30 1171 H 103.498 1.07718 2.73448 0
M  V30 1172 H 101.012 0.687693 1.47121 0
M  V30 1173 H 103.009 -1.01018 4.04476 0
M  V30 1174 H 101.669 -1.39401 2.93253 0
M  V30 1175 H 102.68 1.75277 4.87338 0
M  V30 1176 H 99.3569 -0.713507 4.11358 0
M  V30 1177 H 100.747 2.80253 6.10662 0
M  V30 1178 N 103.467 -1.45747 0.599634 0
M  V30 1179 C 104.397 -2.33235 -0.111306 0
M  V30 1180 C 105.378 -1.46359 -0.866781 0
M  V30 1181 O 106.563 -1.75146 -0.838904 0
M  V30 1182 C 103.693 -3.28932 -1.11451 0
M  V30 1183 C 102.647 -4.25381 -0.472772 0
M  V30 1184 C 101.973 -5.1071 -1.58365 0
M  V30 1185 C 103.273 -5.18831 0.600948 0
M  V30 1186 H 104.967 -2.92927 0.61919 0
M  V30 1187 H 102.513 -1.40857 0.299215 0
M  V30 1188 H 104.466 -3.89002 -1.62036 0
M  V30 1189 H 103.19 -2.67381 -1.8755 0
M  V30 1190 H 101.849 -3.66598 0.0121472 0
M  V30 1191 H 101.497 -4.45533 -2.33473 0
M  V30 1192 H 101.197 -5.7604 -1.15982 0
M  V30 1193 H 102.721 -5.73647 -2.09194 0
M  V30 1194 H 104.135 -5.73019 0.179491 0
M  V30 1195 H 102.532 -5.92595 0.946076 0
M  V30 1196 H 103.602 -4.6174 1.48068 0
M  V30 1197 N 104.945 -0.338344 -1.53925 0
M  V30 1198 C 106.361 0.0137736 -1.59594 0
M  V30 1199 C 106.561 1.49186 -1.35447 0
M  V30 1200 O 105.617 2.24987 -1.14616 0
M  V30 1201 C 106.93 -0.41773 -2.97784 0
M  V30 1202 C 108.478 -0.369633 -3.1081 0
M  V30 1203 C 108.953 -0.776524 -4.51369 0
M  V30 1204 N 110.444 -0.730506 -4.57403 0
M  V30 1205 C 111.179 -1.01736 -5.64303 0
M  V30 1206 N 110.675 -1.3721 -6.79077 0
M  V30 1207 N 112.468 -0.941942 -5.54151 0
M  V30 1208 H 104.619 -1.3012 -1.67876 0
M  V30 1209 H 106.882 -0.530082 -0.78595 0
M  V30 1210 H 106.588 -1.44811 -3.20504 0
M  V30 1211 H 106.462 0.209729 -3.76616 0
M  V30 1212 H 108.849 0.651568 -2.87817 0
M  V30 1213 H 108.93 -1.03223 -2.34049 0
M  V30 1214 H 108.574 -1.79571 -4.75096 0
M  V30 1215 H 108.504 -0.0914649 -5.26521 0
M  V30 1216 H 110.995 -0.468783 -3.74981 0
M  V30 1217 H 111.308 -1.57597 -7.5656 0
M  V30 1218 H 109.653 -1.4105 -6.80536 0
M  V30 1219 H 112.844 -0.664184 -4.63364 0
M  V30 1220 H 113.017 -1.16884 -6.37371 0
M  V30 1221 N 106.423 1.57458 -0.0668435 0
M  V30 1222 C 107.353 2.15468 0.899764 0
M  V30 1223 C 108.334 1.08042 1.31381 0
M  V30 1224 O 109.519 1.36054 1.38574 0
M  V30 1225 C 106.649 2.71232 2.16911 0
M  V30 1226 C 105.603 3.83781 1.89463 0
M  V30 1227 C 104.929 4.26127 3.22986 0
M  V30 1228 C 106.229 5.08238 1.20381 0
M  V30 1229 H 107.923 2.96488 0.416529 0
M  V30 1230 H 105.469 1.4262 0.198908 0
M  V30 1231 H 107.422 3.10458 2.84945 0
M  V30 1232 H 106.146 1.87426 2.67468 0
M  V30 1233 H 104.805 3.45051 1.23836 0
M  V30 1234 H 104.453 3.39249 3.71374 0
M  V30 1235 H 104.153 5.01993 3.05413 0
M  V30 1236 H 105.677 4.67966 3.92225 0
M  V30 1237 H 107.091 5.44811 1.78475 0
M  V30 1238 H 105.488 5.89349 1.13083 0
M  V30 1239 H 106.558 4.84558 0.182153 0
M  V30 1240 N 107.901 -0.206675 1.56239 0
M  V30 1241 C 109.147 -0.930218 1.80208 0
M  V30 1242 C 109.48 -1.83387 0.638981 0
M  V30 1243 O 108.755 -1.91119 -0.361066 0
M  V30 1244 C 109.038 -1.75641 3.1436 0
M  V30 1245 C 108.891 -0.878257 4.41142 0
M  V30 1246 C 110.21 -2.73129 3.45092 0
M  V30 1247 H 107.329 -0.336742 0.655571 0
M  V30 1248 H 109.971 -0.198222 1.88963 0
M  V30 1249 H 108.121 -2.38048 3.07027 0
M  V30 1250 H 109.793 -0.269787 4.6051 0
M  V30 1251 H 108.036 -0.184385 4.33408 0
M  V30 1252 H 108.707 -1.49106 5.3148 0
M  V30 1253 H 111.183 -2.20856 3.52649 0
M  V30 1254 H 110.059 -3.28028 4.40101 0
M  V30 1255 H 110.32 -3.51606 2.68003 0
M  V30 1256 N 109.379 -1.50304 -0.473955 0
M  V30 1257 C 110.656 -1.51667 -1.23518 0
M  V30 1258 C 111.036 -0.259701 -2.09496 0
M  V30 1259 O 110.384 0.756986 -2.15597 0
M  V30 1260 C 110.594 -2.81082 -2.06868 0
M  V30 1261 C 111.942 -3.31631 -2.65153 0
M  V30 1262 O 112.966 -2.82384 -2.17113 0
M  V30 1263 O 111.825 -4.17471 -3.52675 0
M  V30 1264 H 108.919 -0.60822 -0.560355 0
M  V30 1265 H 111.465 -1.62592 -0.486011 0
M  V30 1266 H 110.237 -3.64041 -1.4349 0
M  V30 1267 H 109.86 -2.73146 -2.88924 0
M  V30 1268 N 110.857 0.726932 -1.39834 0
M  V30 1269 C 112.106 1.48214 -1.36805 0
M  V30 1270 C 112.419 1.95576 0.0305291 0
M  V30 1271 O 113.625 2.7088 0.183417 0
M  V30 1272 C 112.081 2.67854 -2.40379 0
M  V30 1273 C 111.689 2.27408 -3.85992 0
M  V30 1274 C 113.433 3.45641 -2.46439 0
M  V30 1275 C 111.34 3.43819 -4.81189 0
M  V30 1276 H 110.27 0.556606 -0.508631 0
M  V30 1277 H 112.921 0.792216 -1.65518 0
M  V30 1278 H 111.303 3.3896 -2.04749 0
M  V30 1279 H 112.477 1.63795 -4.30706 0
M  V30 1280 H 110.792 1.62692 -3.83302 0
M  V30 1281 H 113.389 4.32244 -3.14753 0
M  V30 1282 H 113.732 3.88669 -1.49139 0
M  V30 1283 H 114.265 2.8157 -2.81004 0
M  V30 1284 H 111.004 3.05834 -5.79781 0
M  V30 1285 H 110.524 4.06385 -4.41148 0
M  V30 1286 H 112.203 4.10043 -5.00474 0
M  V30 1287 N 112.336 1.25143 0.95797 0
M  V30 1288 C 113.582 1.09855 1.70469 0
M  V30 1289 C 113.915 -0.360187 1.90831 0
M  V30 1290 O 113.19 -1.26568 1.47685 0
M  V30 1291 C 113.473 1.8497 3.08963 0
M  V30 1292 C 113.326 3.38652 2.96032 0
M  V30 1293 C 114.645 1.63016 4.08795 0
M  V30 1294 H 111.764 0.400465 0.618706 0
M  V30 1295 H 114.406 1.53933 1.11376 0
M  V30 1296 H 112.556 1.47505 3.59409 0
M  V30 1297 H 114.228 3.85772 2.52938 0
M  V30 1298 H 112.471 3.66534 2.32025 0
M  V30 1299 H 113.142 3.8642 3.94187 0
M  V30 1300 H 115.618 1.95625 3.67247 0
M  V30 1301 H 114.494 2.18015 5.03747 0
M  V30 1302 H 114.755 0.570692 4.38401 0
M  V30 1303 N 113.814 -1.1601 1.06675 0
M  V30 1304 C 114.724 -2.24156 0.692179 0
M  V30 1305 C 115.74 -1.71507 -0.293513 0
M  V30 1306 O 116.916 -2.009 -0.141861 0
M  V30 1307 C 113.981 -3.46587 0.0884131 0
M  V30 1308 C 113.042 -4.14257 1.12646 0
M  V30 1309 C 112.275 -5.30844 0.551416 0
M  V30 1310 O 112.498 -5.66858 -0.634656 0
M  V30 1311 O 111.432 -5.87848 1.29298 0
M  V30 1312 H 115.258 -2.58513 1.59388 0
M  V30 1313 H 112.843 -1.23599 0.83926 0
M  V30 1314 H 114.725 -4.20679 -0.246361 0
M  V30 1315 H 113.4 -3.13994 -0.786712 0
M  V30 1316 H 112.307 -3.42118 1.51348 0
M  V30 1317 H 113.64 -4.50914 1.97325 0
M  V30 1318 N 115.292 -0.849877 -1.32721 0
M  V30 1319 C 116.703 -0.506188 -1.79707 0
M  V30 1320 C 117.054 0.975627 -1.70223 0
M  V30 1321 O 116.179 1.76078 -1.25799 0
M  V30 1322 C 116.774 -0.912044 -3.26293 0
M  V30 1323 C 115.333 -0.620326 -3.71253 0
M  V30 1324 C 114.48 -1.11439 -2.53922 0
M  V30 1325 H 117.431 -1.03754 -1.20087 0
M  V30 1326 H 117.452 -0.226493 -3.79825 0
M  V30 1327 H 116.964 -1.99057 -3.33164 0
M  V30 1328 H 115.065 0.447674 -3.69901 0
M  V30 1329 H 115.178 -1.18327 -4.64258 0
M  V30 1330 H 113.542 -0.534834 -2.49021 0
M  V30 1331 H 114.325 -2.19992 -2.6355 0
M  V30 1332 N 116.77 1.45427 -0.607355 0
M  V30 1333 C 117.998 2.06614 -0.108814 0
M  V30 1334 C 118.413 1.45204 1.2067 0
M  V30 1335 O 117.77 0.566132 1.73497 0
M  V30 1336 C 117.821 3.61481 0.0375347 0
M  V30 1337 O 117.542 4.20598 -1.22593 0
M  V30 1338 C 119.043 4.39652 0.567561 0
M  V30 1339 H 116.263 0.66747 -0.0687351 0
M  V30 1340 H 118.807 1.86675 -0.835022 0
M  V30 1341 H 116.962 3.80762 0.714068 0
M  V30 1342 H 117.376 5.1377 -1.05547 0
M  V30 1343 H 118.85 5.48518 0.61905 0
M  V30 1344 H 119.327 4.09417 1.58978 0
M  V30 1345 H 119.933 4.25234 -0.0749202 0
M  V30 1346 N 118.248 0.346503 1.53744 0
M  V30 1347 C 119.158 -0.517293 2.28826 0
M  V30 1348 C 120.174 -1.10935 1.3405 0
M  V30 1349 O 121.35 -1.1244 1.6709 0
M  V30 1350 C 118.415 -1.65098 3.04866 0
M  V30 1351 C 117.476 -1.0884 4.15274 0
M  V30 1352 C 116.709 -2.16806 4.87679 0
M  V30 1353 O 116.932 -3.3758 4.59778 0
M  V30 1354 O 115.866 -1.80934 5.74061 0
M  V30 1355 H 119.692 0.0931396 3.03557 0
M  V30 1356 H 117.277 0.111458 1.48984 0
M  V30 1357 H 119.159 -2.31053 3.5241 0
M  V30 1358 H 117.834 -2.24717 2.32989 0
M  V30 1359 H 116.741 -0.3933 3.72027 0
M  V30 1360 H 118.074 -0.537036 4.89261 0
M  V30 1361 N 119.726 -1.57421 0.075193 0
M  V30 1362 C 120.673 -2.12915 -0.890843 0
M  V30 1363 C 121.643 -1.04252 -1.29309 0
M  V30 1364 O 122.828 -1.31933 -1.37834 0
M  V30 1365 C 119.968 -2.69795 -2.15186 0
M  V30 1366 C 119.081 -3.92624 -1.80194 0
M  V30 1367 C 118.216 -4.37736 -3.00933 0
M  V30 1368 C 117.255 -5.53205 -2.61974 0
M  V30 1369 N 116.392 -5.9326 -3.75483 0
M  V30 1370 H 121.232 -2.95156 -0.410735 0
M  V30 1371 H 118.769 -1.45854 -0.191086 0
M  V30 1372 H 120.727 -3.00883 -2.89008 0
M  V30 1373 H 119.357 -1.90313 -2.60731 0
M  V30 1374 H 118.409 -3.67977 -0.964218 0
M  V30 1375 H 119.721 -4.76482 -1.47534 0
M  V30 1376 H 118.875 -4.70503 -3.8303 0
M  V30 1377 H 117.614 -3.52739 -3.36789 0
M  V30 1378 H 116.619 -5.20086 -1.783 0
M  V30 1379 H 117.844 -6.39936 -2.27284 0
M  V30 1380 H 115.79 -5.11212 -4.11094 0
M  V30 1381 H 115.707 -6.71865 -3.46602 0
M  V30 1382 H 116.975 -6.30651 -4.58148 0
M  V30 1383 N 121.204 0.198386 -1.56346 0
M  V30 1384 C 122.432 0.935572 -1.84539 0
M  V30 1385 C 122.847 1.76989 -0.657281 0
M  V30 1386 O 122.204 1.78626 0.374043 0
M  V30 1387 C 122.255 1.8344 -3.11499 0
M  V30 1388 O 121.976 1.03377 -4.25728 0
M  V30 1389 C 123.477 2.68355 -3.52846 0
M  V30 1390 H 120.697 0.273126 -0.612897 0
M  V30 1391 H 123.241 0.20663 -2.03453 0
M  V30 1392 H 121.396 2.51701 -2.94492 0
M  V30 1393 H 121.81 1.64599 -4.98003 0
M  V30 1394 H 123.284 3.27085 -4.44657 0
M  V30 1395 H 123.761 3.41901 -2.75681 0
M  V30 1396 H 124.367 2.05471 -3.72373 0
M  V30 1397 N 122.682 1.50554 0.465978 0
M  V30 1398 C 123.928 1.62038 1.21949 0
M  V30 1399 C 124.261 0.322116 1.9151 0
M  V30 1400 O 123.536 -0.676723 1.82348 0
M  V30 1401 C 123.819 2.80421 2.25912 0
M  V30 1402 C 123.672 4.20144 1.60622 0
M  V30 1403 C 124.991 2.94354 3.27176 0
M  V30 1404 H 122.11 0.589752 0.441998 0
M  V30 1405 H 124.752 1.82956 0.51257 0
M  V30 1406 H 122.902 2.62717 2.86203 0
M  V30 1407 H 124.574 4.49449 1.03889 0
M  V30 1408 H 122.817 4.24165 0.909211 0
M  V30 1409 H 123.488 4.98914 2.36196 0
M  V30 1410 H 125.964 3.10578 2.76913 0
M  V30 1411 H 124.84 3.788 3.97242 0
M  V30 1412 H 125.101 2.05186 3.916 0
M  V30 1413 N 124.16 -0.719506 1.40217 0
M  V30 1414 C 125.437 -1.47221 1.28784 0
M  V30 1415 C 125.817 -2.10883 -0.0956067 0
M  V30 1416 O 125.165 -1.99833 -1.10811 0
M  V30 1417 C 125.375 -2.5111 2.42373 0
M  V30 1418 C 126.723 -3.17053 2.82423 0
M  V30 1419 O 127.747 -2.61429 2.41937 0
M  V30 1420 O 126.606 -4.17742 3.52355 0
M  V30 1421 H 123.7 -0.654491 0.50554 0
M  V30 1422 H 126.246 -0.752014 1.52128 0
M  V30 1423 H 125.018 -2.02556 3.34793 0
M  V30 1424 H 124.641 -3.3067 2.20778 0
M  V30 1425 N 125.638 -1.25649 -0.95132 0
M  V30 1426 C 126.601 -1.06399 -2.03007 0
M  V30 1427 C 127.601 -0.0156794 -1.60792 0
M  V30 1428 O 128.791 -0.25817 -1.72276 0
M  V30 1429 C 125.923 -0.616184 -3.35285 0
M  V30 1430 H 127.116 -2.02164 -2.21517 0
M  V30 1431 H 124.669 -1.08103 -1.12887 0
M  V30 1432 H 125.404 0.343917 -3.22471 0
M  V30 1433 H 125.189 -1.37301 -3.67275 0
M  V30 1434 H 126.679 -0.503032 -4.14559 0
M  V30 1435 N 127.117 1.15442 -1.07289 0
M  V30 1436 C 128.047 2.22312 -0.714107 0
M  V30 1437 C 129.028 1.67467 0.298155 0
M  V30 1438 O 130.213 1.93445 0.171048 0
M  V30 1439 C 127.343 3.47124 -0.110448 0
M  V30 1440 C 126.297 4.14926 -1.04979 0
M  V30 1441 C 125.623 5.33807 -0.308924 0
M  V30 1442 C 126.923 4.64762 -2.38314 0
M  V30 1443 H 128.617 2.5258 -1.6076 0
M  V30 1444 H 126.163 1.21404 -0.77441 0
M  V30 1445 H 128.116 4.21124 0.152482 0
M  V30 1446 H 126.84 3.16187 0.81812 0
M  V30 1447 H 125.499 3.42866 -1.29764 0
M  V30 1448 H 125.147 4.99126 0.623084 0
M  V30 1449 H 124.847 5.80113 -0.935036 0
M  V30 1450 H 126.371 6.10576 -0.0537771 0
M  V30 1451 H 127.785 5.30292 -2.1786 0
M  V30 1452 H 126.182 5.21728 -2.96514 0
M  V30 1453 H 127.252 3.80434 -3.00663 0
M  V30 1454 N 128.595 0.856903 1.32268 0
M  V30 1455 C 129.528 0.247937 2.26849 0
M  V30 1456 C 130.506 -0.615382 1.50505 0
M  V30 1457 O 131.69 -0.571689 1.79622 0
M  V30 1458 C 128.817 -0.650093 3.32403 0
M  V30 1459 C 127.863 0.140138 4.2627 0
M  V30 1460 S 128.696 1.51004 5.13769 0
M  V30 1461 C 129.852 0.61778 6.22844 0
M  V30 1462 H 130.085 1.04971 2.78152 0
M  V30 1463 H 127.618 0.654665 1.39834 0
M  V30 1464 H 129.576 -1.16256 3.93694 0
M  V30 1465 H 128.237 -1.4257 2.7988 0
M  V30 1466 H 127.43 -0.543945 5.01056 0
M  V30 1467 H 127.032 0.584267 3.69408 0
M  V30 1468 H 129.324 -0.177053 6.77269 0
M  V30 1469 H 130.267 1.33636 6.95375 0
M  V30 1470 H 130.675 0.191124 5.64176 0
M  V30 1471 N 130.073 -1.45103 0.615059 0
M  V30 1472 C 131.489 -1.57137 0.279322 0
M  V30 1473 C 131.689 -1.60523 -1.21797 0
M  V30 1474 O 130.745 -1.53956 -2.00134 0
M  V30 1475 C 132.058 -2.85062 0.957083 0
M  V30 1476 C 133.606 -2.98749 0.933706 0
M  V30 1477 C 134.081 -4.29455 1.59162 0
M  V30 1478 N 135.572 -4.36231 1.55746 0
M  V30 1479 C 136.307 -5.36051 2.0356 0
M  V30 1480 N 135.803 -6.42367 2.59494 0
M  V30 1481 N 137.596 -5.27456 1.94284 0
M  V30 1482 H 129.747 -1.41148 1.58717 0
M  V30 1483 H 132.01 -0.675331 0.665306 0
M  V30 1484 H 131.716 -2.88488 2.01166 0
M  V30 1485 H 131.59 -3.7407 0.48494 0
M  V30 1486 H 133.977 -2.94886 -0.112347 0
M  V30 1487 H 134.058 -2.11132 1.44419 0
M  V30 1488 H 133.702 -4.34077 2.63704 0
M  V30 1489 H 133.632 -5.15901 1.0561 0
M  V30 1490 H 136.123 -3.60011 1.14893 0
M  V30 1491 H 136.436 -7.14793 2.93752 0
M  V30 1492 H 134.781 -6.43097 2.63537 0
M  V30 1493 H 137.972 -4.43308 1.5032 0
M  V30 1494 H 138.145 -6.05099 2.3186 0
M  V30 1495 N 131.551 -0.354651 -1.53558 0
M  V30 1496 C 132.481 0.489091 -2.2832 0
M  V30 1497 C 133.462 1.09324 -1.30316 0
M  V30 1498 O 134.647 1.11255 -1.59173 0
M  V30 1499 C 131.777 1.63456 -3.0643 0
M  V30 1500 C 130.731 1.1582 -4.12031 0
M  V30 1501 C 130.057 2.39305 -4.7816 0
M  V30 1502 C 131.357 0.250731 -5.21698 0
M  V30 1503 H 133.051 -0.134614 -2.99097 0
M  V30 1504 H 130.597 -0.0661826 -1.43848 0
M  V30 1505 H 132.55 2.23136 -3.57475 0
M  V30 1506 H 131.274 2.28533 -2.33325 0
M  V30 1507 H 129.933 0.584146 -3.61916 0
M  V30 1508 H 129.581 3.02814 -4.01637 0
M  V30 1509 H 129.281 2.08109 -5.49513 0
M  V30 1510 H 130.805 2.99691 -5.31994 0
M  V30 1511 H 132.219 0.754695 -5.68311 0
M  V30 1512 H 130.616 0.0301468 -6.00092 0
M  V30 1513 H 131.686 -0.710125 -4.79672 0
M  V30 1514 N 133.029 1.57378 -0.0835403 0
M  V30 1515 C 134.306 1.85363 0.624507 0
M  V30 1516 C 134.686 0.978239 1.87066 0
M  V30 1517 O 134.034 0.0475908 2.2845 0
M  V30 1518 C 134.244 3.35795 0.950947 0
M  V30 1519 C 135.592 4.03581 1.31939 0
M  V30 1520 O 136.616 3.40609 1.04232 0
M  V30 1521 O 135.475 5.14672 1.83779 0
M  V30 1522 H 132.569 0.766162 0.311329 0
M  V30 1523 H 135.115 1.69307 -0.115362 0
M  V30 1524 H 133.887 3.91244 0.0663899 0
M  V30 1525 H 133.51 3.57154 1.74719 0
M  V30 1526 N 134.507 -0.190092 1.56449 0
M  V30 1527 C 135.437 -1.23816 1.97969 0
M  V30 1528 C 136.418 -1.47201 0.852395 0
M  V30 1529 O 137.603 -1.58854 1.1171 0
M  V30 1530 C 134.733 -2.5813 2.3235 0
M  V30 1531 C 133.687 -2.49348 3.47864 0
M  V30 1532 C 133.013 -3.8798 3.67934 0
M  V30 1533 C 134.313 -2.01424 4.81898 0
M  V30 1534 H 136.007 -0.89311 2.85769 0
M  V30 1535 H 133.553 -0.428177 1.37487 0
M  V30 1536 H 135.506 -3.31637 2.59991 0
M  V30 1537 H 134.23 -2.94386 1.41438 0
M  V30 1538 H 132.889 -1.78297 3.20321 0
M  V30 1539 H 132.537 -4.21597 2.74344 0
M  V30 1540 H 132.237 -3.82978 4.45648 0
M  V30 1541 H 133.761 -4.63101 3.97957 0
M  V30 1542 H 135.175 -2.64693 5.08538 0
M  V30 1543 H 133.572 -2.07413 5.63116 0
M  V30 1544 H 134.642 -0.967677 4.75146 0
M  V30 1545 N 135.985 -1.50799 -0.457987 0
M  V30 1546 C 136.948 -1.7005 -1.53674 0
M  V30 1547 C 137.948 -0.570881 -1.50325 0
M  V30 1548 O 139.138 -0.838126 -1.52712 0
M  V30 1549 C 136.27 -1.73788 -2.93276 0
M  V30 1550 H 137.463 -2.66306 -1.37917 0
M  V30 1551 H 135.016 -1.40477 -0.685271 0
M  V30 1552 H 135.751 -0.792717 -3.14462 0
M  V30 1553 H 135.536 -2.55864 -2.97113 0
M  V30 1554 H 137.026 -1.90591 -3.71571 0
M  V30 1555 N 137.463 0.71206 -1.40597 0
M  V30 1556 C 138.426 1.80785 -1.40888 0
M  V30 1557 C 139.426 1.57937 -0.302103 0
M  V30 1558 O 140.616 1.64913 -0.561182 0
M  V30 1559 C 137.748 3.18927 -1.20409 0
M  V30 1560 H 138.941 1.81924 -2.38419 0
M  V30 1561 H 136.494 0.91805 -1.26497 0
M  V30 1562 H 137.229 3.23436 -0.236522 0
M  V30 1563 H 137.014 3.36911 -2.00582 0
M  V30 1564 H 138.504 3.98949 -1.23408 0
M  V30 1565 N 138.941 1.26152 0.944643 0
M  V30 1566 C 140.189 1.11271 1.6871 0
M  V30 1567 C 140.51 -0.345166 1.91921 0
M  V30 1568 O 139.78 -1.24387 1.51343 0
M  V30 1569 H 138.36 0.408783 0.625224 0
M  V30 1570 H 141.022 1.58427 1.1352 0
M  V30 1571 H 140.118 1.62879 2.66227 0
M  V30 1572 N 140.419 -1.14872 1.07899 0
M  V30 1573 C 141.665 -1.86064 0.806725 0
M  V30 1574 C 141.998 -1.82434 -0.665706 0
M  V30 1575 O 141.273 -1.25138 -1.48899 0
M  V30 1576 C 141.556 -3.34929 1.32267 0
M  V30 1577 C 141.409 -3.47161 2.86006 0
M  V30 1578 C 142.728 -4.29863 0.943717 0
M  V30 1579 H 139.847 -0.675591 0.294526 0
M  V30 1580 H 142.489 -1.34925 1.33773 0
M  V30 1581 H 140.639 -3.78611 0.870974 0
M  V30 1582 H 142.311 -3.12302 3.39507 0
M  V30 1583 H 140.554 -2.88539 3.23925 0
M  V30 1584 H 141.225 -4.51777 3.17177 0
M  V30 1585 H 143.701 -3.9417 1.33302 0
M  V30 1586 H 142.577 -5.32494 1.33198 0
M  V30 1587 H 142.838 -4.41846 -0.149796 0
M  V30 1588 N 141.898 -0.863906 -1.31812 0
M  V30 1589 C 143.175 -0.39275 -1.91616 0
M  V30 1590 C 143.555 1.12461 -1.7865 0
M  V30 1591 O 142.903 1.95045 -1.19037 0
M  V30 1592 C 143.113 -0.867385 -3.38049 0
M  V30 1593 C 144.461 -0.889966 -4.15168 0
M  V30 1594 O 145.485 -0.812635 -3.46806 0
M  V30 1595 O 144.344 -1.00079 -5.37258 0
M  V30 1596 H 141.438 -0.116358 -0.818773 0
M  V30 1597 H 143.984 -0.951418 -1.40521 0
M  V30 1598 H 142.756 -1.91081 -3.41473 0
M  V30 1599 H 142.379 -0.286687 -3.96565 0
M  V30 1600 N 143.376 1.44774 -0.622745 0
M  V30 1601 C 144.622 2.0242 -0.124083 0
M  V30 1602 C 144.955 1.4881 1.24777 0
M  V30 1603 O 144.23 0.668799 1.8264 0
M  V30 1604 C 144.513 3.59957 -0.101619 0
M  V30 1605 C 144.366 4.23867 -1.50521 0
M  V30 1606 C 145.685 4.36284 0.578272 0
M  V30 1607 H 142.804 0.735528 -0.0465645 0
M  V30 1608 H 145.446 1.72447 -0.797617 0
M  V30 1609 H 143.596 3.85623 0.471934 0
M  V30 1610 H 145.268 4.09336 -2.12701 0
M  V30 1611 H 143.511 3.81684 -2.06154 0
M  V30 1612 H 144.182 5.32843 -1.4416 0
M  V30 1613 H 146.658 4.16001 0.0906057 0
M  V30 1614 H 145.534 5.46004 0.563149 0
M  V30 1615 H 145.795 4.10271 1.64713 0
M  V30 1616 N 144.854 0.36279 1.53368 0
M  V30 1617 C 145.786 -0.519668 2.23231 0
M  V30 1618 C 146.799 -1.04844 1.24546 0
M  V30 1619 O 147.988 -0.955296 1.50786 0
M  V30 1620 C 145.088 -1.72995 2.9142 0
M  V30 1621 C 144.261 -1.33316 4.16588 0
M  V30 1622 C 143.32 -2.40521 4.68013 0
M  V30 1623 O 142.346 -2.03027 5.3176 0
M  V30 1624 N 143.548 -3.72065 4.45587 0
M  V30 1625 H 146.313 0.078751 2.99597 0
M  V30 1626 H 143.874 0.187833 1.60807 0
M  V30 1627 H 145.866 -2.44184 3.22733 0
M  V30 1628 H 144.436 -2.2353 2.18525 0
M  V30 1629 H 143.656 -0.451236 3.91609 0
M  V30 1630 H 144.944 -1.04432 4.97967 0
M  V30 1631 H 144.342 -4.05304 3.94646 0
M  V30 1632 H 142.899 -4.39366 4.81457 0
M  V30 1633 N 146.332 -1.57332 0.0918853 0
M  V30 1634 C 147.581 -1.93412 -0.572249 0
M  V30 1635 C 147.894 -0.975515 -1.69538 0
M  V30 1636 O 149.1 -1.22991 -2.42045 0
M  V30 1637 C 147.556 -3.43648 -1.0693 0
M  V30 1638 C 147.164 -4.47994 0.0239049 0
M  V30 1639 C 148.908 -3.88695 -1.70635 0
M  V30 1640 C 146.815 -5.89381 -0.488319 0
M  V30 1641 H 145.745 -0.721939 -0.217532 0
M  V30 1642 H 148.396 -1.82735 0.167369 0
M  V30 1643 H 146.778 -3.49466 -1.8625 0
M  V30 1644 H 147.952 -4.53815 0.799277 0
M  V30 1645 H 146.267 -4.12536 0.565946 0
M  V30 1646 H 148.864 -4.91725 -2.10025 0
M  V30 1647 H 149.207 -3.27166 -2.57426 0
M  V30 1648 H 149.74 -3.85564 -0.979023 0
M  V30 1649 H 146.479 -6.54602 0.342906 0
M  V30 1650 H 145.999 -5.87037 -1.23077 0
M  V30 1651 H 147.678 -6.39863 -0.958317 0
M  V30 1652 N 147.81 0.181792 -1.56548 0
M  V30 1653 C 149.035 0.920019 -1.85877 0
M  V30 1654 C 149.46 1.75494 -0.677021 0
M  V30 1655 O 148.818 1.77399 0.374056 0
M  V30 1656 C 148.866 1.78112 -3.13542 0
M  V30 1657 O 147.97 2.88152 -2.95029 0
M  V30 1658 H 147.311 0.258334 -0.611686 0
M  V30 1659 H 149.841 0.183092 -2.03779 0
M  V30 1660 H 149.851 2.18314 -3.44678 0
M  V30 1661 H 148.526 1.16777 -3.99169 0
M  V30 1662 H 147.103 2.51609 -2.75222 0
M  V30 1663 N 149.288 1.51039 0.449983 0
M  V30 1664 C 150.218 1.74379 1.55288 0
M  V30 1665 C 151.199 0.593236 1.5942 0
M  V30 1666 O 152.384 0.834625 1.7535 0
M  V30 1667 C 149.514 1.85728 2.93466 0
M  V30 1668 C 148.468 3.01078 3.04197 0
M  V30 1669 C 147.794 2.97595 4.44231 0
M  V30 1670 C 149.094 4.41254 2.7945 0
M  V30 1671 H 150.788 2.66725 1.36008 0
M  V30 1672 H 148.334 1.2835 0.652864 0
M  V30 1673 H 150.287 2.0064 3.70569 0
M  V30 1674 H 149.011 0.900207 3.13949 0
M  V30 1675 H 147.67 2.85851 2.29531 0
M  V30 1676 H 147.318 1.99691 4.61663 0
M  V30 1677 H 147.018 3.75046 4.52343 0
M  V30 1678 H 148.542 3.14583 5.23326 0
M  V30 1679 H 149.956 4.56897 3.46292 0
M  V30 1680 H 148.353 5.20315 2.98985 0
M  V30 1681 H 149.423 4.52164 1.75144 0
M  V30 1682 N 150.766 -0.704594 1.40972 0
M  V30 1683 C 152.014 -1.46169 1.39568 0
M  V30 1684 C 152.335 -1.95 0.00253745 0
M  V30 1685 O 151.605 -1.71095 -0.954114 0
M  V30 1686 H 150.185 -0.542326 0.513704 0
M  V30 1687 H 152.847 -0.834553 1.76128 0
M  V30 1688 H 151.943 -2.32922 2.07735 0
M  V30 1689 O 152.283 -1.37539 -0.846478 0
M  V30 1690 H 152.974 -1.24057 -1.4876 0
M  V30 END ATOM
M  V30 BEGIN BOND
M  V30 END BOND
M  V30 END CTAB
M  END
$$$$
