drugbank_drug|DB00092 Alefacept heavy chain
 OpenBabel12092119123D

  0  0  0     0  0            999 V3000
M  V30 BEGIN CTAB
M  V30 COUNTS 7232 7327 0 0 0
M  V30 BEGIN ATOM
M  V30 1 H -0.908 1.98254 -0.117106 0
M  V30 2 N 0 1.576 0 0
M  V30 3 C 1.24 1.92425 0.68935 0
M  V30 4 C 1.604 0.874325 1.70937 0
M  V30 5 O 2.805 1.10782 2.4491 0
M  V30 6 C 1.076 3.32301 1.31571 0
M  V30 7 S 2.635 3.89011 2.03018 0
M  V30 8 H -0.547 0.673552 0.227702 0
M  V30 9 H 2.055 1.95418 -0.0566871 0
M  V30 10 H 0.759 4.06555 0.560491 0
M  V30 11 H 0.29 3.32682 2.09968 0
M  V30 12 H 2.305 3.70086 3.30531 0
M  V30 13 N 1.4781 -0.272755 1.55222 0
M  V30 14 C 2.7251 -1.00433 1.7584 0
M  V30 15 C 3.0531 -1.86275 0.559629 0
M  V30 16 O 2.3081 -1.90269 -0.457857 0
M  V30 17 C 2.6071 -1.91642 3.01675 0
M  V30 18 C 2.2731 -1.21548 4.34208 0
M  V30 19 C 0.9351 -1.02166 4.70229 0
M  V30 20 C 3.2871 -0.716684 5.16249 0
M  V30 21 C 0.6151 -0.316334 5.85847 0
M  V30 22 C 2.9671 -0.0249476 6.32595 0
M  V30 23 C 1.6311 0.180579 6.67256 0
M  V30 24 H 0.9011 -0.367509 0.643443 0
M  V30 25 H 3.5481 -0.276596 1.89492 0
M  V30 26 H 1.8531 -2.71037 2.82924 0
M  V30 27 H 3.5501 -2.48369 3.14824 0
M  V30 28 H 0.1401 -1.37645 4.05896 0
M  V30 29 H 4.3241 -0.854047 4.88896 0
M  V30 30 H -0.4199 -0.146378 6.11225 0
M  V30 31 H 3.7541 0.369311 6.9542 0
M  V30 32 H 1.3811 0.729098 7.56696 0
M  V30 33 N 2.9562 -1.48159 -0.537278 0
M  V30 34 C 4.1812 -1.59707 -1.32319 0
M  V30 35 C 4.6062 -0.254859 -1.86365 0
M  V30 36 O 3.9642 0.772378 -1.64024 0
M  V30 37 C 4.0122 -2.6412 -2.45505 0
M  V30 38 O 3.1162 -2.20774 -3.48328 0
M  V30 39 H 2.4572 -0.535791 -0.392204 0
M  V30 40 H 4.9872 -1.94092 -0.647268 0
M  V30 41 H 4.9972 -2.85166 -2.91795 0
M  V30 42 H 3.6722 -3.61567 -2.05528 0
M  V30 43 H 2.2492 -2.09911 -3.08207 0
M  V30 44 N 4.4343 0.785586 -1.36625 0
M  V30 45 C 5.3663 1.90711 -1.2713 0
M  V30 46 C 6.3793 1.61688 -0.189986 0
M  V30 47 O 7.5683 1.72864 -0.445014 0
M  V30 48 C 4.6683 3.25611 -0.939713 0
M  V30 49 C 3.8413 3.82385 -2.12369 0
M  V30 50 C 2.9003 4.95732 -1.76456 0
M  V30 51 O 1.9263 5.12047 -2.48589 0
M  V30 52 N 3.1283 5.76258 -0.700492 0
M  V30 53 H 5.8933 1.99376 -2.23762 0
M  V30 54 H 3.4543 0.964041 -1.30069 0
M  V30 55 H 5.4463 3.98937 -0.680554 0
M  V30 56 H 4.0163 3.12538 -0.0624074 0
M  V30 57 H 3.2363 3.01001 -2.54543 0
M  V30 58 H 4.5243 4.17047 -2.9146 0
M  V30 59 H 3.9223 5.65609 -0.101624 0
M  V30 60 H 2.4793 6.4987 -0.501165 0
M  V30 61 N 5.9124 1.20967 1.01018 0
M  V30 62 C 6.8444 0.922059 2.09835 0
M  V30 63 C 7.8574 -0.0927106 1.62536 0
M  V30 64 O 9.0464 0.139127 1.77957 0
M  V30 65 C 6.1464 0.362004 3.36961 0
M  V30 66 C 5.3194 1.42986 4.13369 0
M  V30 67 C 4.3784 0.879976 5.1879 0
M  V30 68 O 3.4044 1.56219 5.47343 0
M  V30 69 N 4.6064 -0.307396 5.79686 0
M  V30 70 H 7.3714 1.8588 2.35093 0
M  V30 71 H 4.9324 1.11422 1.1746 0
M  V30 72 H 6.9244 -0.0201474 4.04695 0
M  V30 73 H 5.4944 -0.479437 3.08902 0
M  V30 74 H 4.7144 1.98608 3.40512 0
M  V30 75 H 6.0024 2.14885 4.61196 0
M  V30 76 H 5.4004 -0.878796 5.58832 0
M  V30 77 H 3.9574 -0.631115 6.48737 0
M  V30 78 N 7.3905 -1.2043 1.01659 0
M  V30 79 C 8.6395 -1.89118 0.701237 0
M  V30 80 C 8.9525 -1.79705 -0.772358 0
M  V30 81 O 10.1585 -2.43528 -1.20026 0
M  V30 82 C 8.6145 -3.39168 1.20388 0
M  V30 83 C 8.2225 -3.57166 2.70438 0
M  V30 84 C 9.9665 -4.1341 0.963953 0
M  V30 85 C 7.8735 -5.01042 3.14183 0
M  V30 86 H 6.8035 -0.708267 0.2586 0
M  V30 87 H 9.4545 -1.36239 1.22927 0
M  V30 88 H 7.8365 -3.91369 0.603824 0
M  V30 89 H 9.0105 -3.15351 3.35992 0
M  V30 90 H 7.3255 -2.96294 2.92572 0
M  V30 91 H 9.9225 -5.19491 1.26621 0
M  V30 92 H 10.2655 -4.16181 -0.099578 0
M  V30 93 H 10.7985 -3.67309 1.52738 0
M  V30 94 H 7.5375 -5.03426 4.19812 0
M  V30 95 H 7.0575 -5.43668 2.53348 0
M  V30 96 H 8.7365 -5.69623 3.0682 0
M  V30 97 N 8.8686 -0.792821 -1.36206 0
M  V30 98 C 10.0986 -0.378275 -2.03107 0
M  V30 99 C 10.5066 1.01119 -1.59911 0
M  V30 100 O 9.8496 1.66052 -0.785658 0
M  V30 101 C 9.9116 -0.366535 -3.57627 0
M  V30 102 C 9.5756 -1.70416 -4.24037 0
M  V30 103 C 10.5726 -2.6602 -4.46687 0
M  V30 104 C 8.2576 -1.98439 -4.6144 0
M  V30 105 C 10.2516 -3.8784 -5.05825 0
M  V30 106 C 7.9386 -3.20525 -5.20295 0
M  V30 107 C 8.9366 -4.15044 -5.42427 0
M  V30 108 O 8.6246 -5.34978 -6.00045 0
M  V30 109 H 8.3566 -0.153543 -0.658332 0
M  V30 110 H 10.9106 -1.07383 -1.75094 0
M  V30 111 H 9.1406 0.385539 -3.84773 0
M  V30 112 H 10.8296 0.0238088 -4.05893 0
M  V30 113 H 11.5956 -2.45658 -4.18183 0
M  V30 114 H 7.4746 -1.25686 -4.43536 0
M  V30 115 H 11.0186 -4.61628 -5.23015 0
M  V30 116 H 6.9156 -3.40764 -5.48225 0
M  V30 117 H 7.6836 -5.36088 -6.18508 0
M  V30 118 N 10.3467 1.47872 -0.545128 0
M  V30 119 C 11.5947 2.02093 -0.016553 0
M  V30 120 C 11.9157 1.42305 1.3332 0
M  V30 121 O 11.1857 0.593853 1.86682 0
M  V30 122 H 9.7657 0.746993 -0.00313038 0
M  V30 123 H 12.4277 1.81414 -0.712397 0
M  V30 124 H 11.5237 3.11996 0.0805422 0
M  V30 125 N 11.8248 0.280983 1.55075 0
M  V30 126 C 13.0708 -0.33461 2.00021 0
M  V30 127 C 13.4038 -1.55063 1.16915 0
M  V30 128 O 12.6788 -1.93006 0.240646 0
M  V30 129 C 12.9618 -0.711007 3.53011 0
M  V30 130 C 12.8148 0.512766 4.46868 0
M  V30 131 C 14.1338 -1.54522 4.12081 0
M  V30 132 H 11.2528 -0.120147 0.727141 0
M  V30 133 H 13.8948 0.389097 1.85973 0
M  V30 134 H 12.0448 -1.32761 3.65112 0
M  V30 135 H 13.7168 1.15131 4.46702 0
M  V30 136 H 11.9598 1.14975 4.18286 0
M  V30 137 H 12.6308 0.205556 5.51617 0
M  V30 138 H 15.1068 -1.02442 4.03293 0
M  V30 139 H 13.9828 -1.77739 5.19327 0
M  V30 140 H 14.2438 -2.52813 3.62682 0
M  V30 141 N 13.3029 -1.57598 0.00835791 0
M  V30 142 C 14.5489 -1.91211 -0.675732 0
M  V30 143 C 14.8819 -0.883139 -1.72958 0
M  V30 144 O 14.1569 0.097016 -1.94258 0
M  V30 145 C 14.4399 -3.35379 -1.31123 0
M  V30 146 C 14.2929 -4.48999 -0.268356 0
M  V30 147 C 15.6119 -3.7912 -2.23508 0
M  V30 148 H 12.7309 -0.695374 -0.244179 0
M  V30 149 H 15.3729 -1.89901 0.0613655 0
M  V30 150 H 13.5229 -3.36626 -1.93946 0
M  V30 151 H 15.1949 -4.59887 0.360844 0
M  V30 152 H 13.4379 -4.31873 0.408482 0
M  V30 153 H 14.1089 -5.46851 -0.752218 0
M  V30 154 H 16.5849 -3.79477 -1.70693 0
M  V30 155 H 15.4609 -4.80729 -2.64936 0
M  V30 156 H 15.7219 -3.13455 -3.11766 0
M  V30 157 N 14.781 0.264519 -1.55364 0
M  V30 158 C 16.011 1.01153 -1.80143 0
M  V30 159 C 16.419 1.80115 -0.579253 0
M  V30 160 O 15.762 1.77813 0.46132 0
M  V30 161 C 15.824 2.01098 -2.97993 0
M  V30 162 C 15.488 1.40995 -4.34706 0
M  V30 163 C 16.485 0.821316 -5.13372 0
M  V30 164 C 14.17 1.43461 -4.81378 0
M  V30 165 C 16.164 0.265339 -6.36847 0
M  V30 166 C 13.851 0.874771 -6.04807 0
M  V30 167 C 14.849 0.291146 -6.82379 0
M  V30 168 O 14.537 -0.260093 -8.03479 0
M  V30 169 H 14.269 0.304125 -0.603725 0
M  V30 170 H 16.823 0.298089 -2.03225 0
M  V30 171 H 15.053 2.76224 -2.70623 0
M  V30 172 H 16.742 2.61997 -3.1002 0
M  V30 173 H 17.508 0.794903 -4.78442 0
M  V30 174 H 13.387 1.87826 -4.21002 0
M  V30 175 H 16.931 -0.190837 -6.97339 0
M  V30 176 H 12.828 0.898452 -6.39217 0
M  V30 177 H 13.596 -0.150265 -8.18362 0
M  V30 178 N 16.2591 1.48442 0.529413 0
M  V30 179 C 17.5071 1.56179 1.28267 0
M  V30 180 C 17.8281 0.237721 1.93546 0
M  V30 181 O 17.0981 -0.740779 1.81354 0
M  V30 182 H 15.6781 0.575367 0.476405 0
M  V30 183 H 18.3401 1.84909 0.61602 0
M  V30 184 H 17.4361 2.34312 2.06165 0
M  V30 185 N 17.7372 -0.778329 1.37039 0
M  V30 186 C 18.6852 -1.91278 1.32345 0
M  V30 187 C 19.6792 -1.68051 0.213331 0
M  V30 188 O 20.8852 -1.75922 0.38098 0
M  V30 189 H 17.2602 -0.628909 0.412283 0
M  V30 190 H 19.2312 -1.92355 2.28127 0
M  V30 191 C 17.9802 -3.28455 1.14073 0
M  V30 192 H 17.3032 -3.46901 1.98746 0
M  V30 193 H 18.7432 -4.08152 1.14837 0
M  V30 194 C 17.2022 -3.36548 -0.154015 0
M  V30 195 O 17.7322 -3.85186 -1.13993 0
M  V30 196 N 15.9382 -2.89894 -0.202475 0
M  V30 197 H 15.4852 -2.50504 0.600476 0
M  V30 198 H 15.4432 -2.9569 -1.06841 0
M  V30 199 N 19.2153 -1.21501 -1.00376 0
M  V30 200 C 20.4613 -1.03452 -1.74429 0
M  V30 201 C 20.7943 0.430764 -1.89362 0
M  V30 202 O 20.0693 1.31962 -1.42886 0
M  V30 203 C 20.3523 -1.73375 -3.15615 0
M  V30 204 C 20.2053 -3.27431 -3.08397 0
M  V30 205 C 21.5243 -1.47732 -4.14564 0
M  V30 206 H 18.6433 -0.377226 -0.633143 0
M  V30 207 H 21.2853 -1.49693 -1.17013 0
M  V30 208 H 19.4353 -1.34064 -3.64636 0
M  V30 209 H 21.1073 -3.76119 -2.67081 0
M  V30 210 H 19.3503 -3.5767 -2.45468 0
M  V30 211 H 20.0213 -3.71524 -4.08258 0
M  V30 212 H 22.4973 -1.8186 -3.74254 0
M  V30 213 H 21.3733 -1.99169 -5.11491 0
M  V30 214 H 21.6343 -0.407589 -4.40217 0
M  V30 215 N 20.6934 1.19889 -1.02296 0
M  V30 216 C 21.9214 1.9339 -0.735399 0
M  V30 217 C 22.3364 1.75148 0.704887 0
M  V30 218 O 21.6934 1.06954 1.47875 0
M  V30 219 C 21.7444 3.45313 -1.06962 0
M  V30 220 O 21.4654 3.62964 -2.45334 0
M  V30 221 C 22.9664 4.35948 -0.804021 0
M  V30 222 H 20.1864 0.61448 -0.269546 0
M  V30 223 H 22.7304 1.522 -1.36585 0
M  V30 224 H 20.8854 3.84359 -0.484455 0
M  V30 225 H 21.2994 4.56886 -2.57595 0
M  V30 226 H 22.7734 5.41174 -1.0879 0
M  V30 227 H 23.2504 4.3842 0.261691 0
M  V30 228 H 23.8564 4.02574 -1.37164 0
M  V30 229 N 22.1715 0.800033 1.35784 0
M  V30 230 C 23.4185 0.377342 1.98953 0
M  V30 231 C 23.7465 -1.05378 1.6348 0
M  V30 232 O 23.0015 -1.74459 0.886707 0
M  V30 233 C 23.3005 0.500276 3.53881 0
M  V30 234 C 22.9665 1.89375 4.09204 0
M  V30 235 C 21.6285 2.27499 4.24025 0
M  V30 236 C 23.9805 2.8057 4.39238 0
M  V30 237 C 21.3085 3.562 4.66195 0
M  V30 238 C 23.6605 4.0871 4.82844 0
M  V30 239 C 22.3245 4.46843 4.95871 0
M  V30 240 H 21.5945 0.138079 0.728021 0
M  V30 241 H 24.2415 1.01955 1.62103 0
M  V30 242 H 22.5465 -0.225405 3.91151 0
M  V30 243 H 24.2435 0.154097 4.00704 0
M  V30 244 H 20.8335 1.58753 3.98115 0
M  V30 245 H 25.0175 2.52367 4.27346 0
M  V30 246 H 20.2735 3.85602 4.74469 0
M  V30 247 H 24.4475 4.79481 5.05046 0
M  V30 248 H 22.0745 5.46623 5.28306 0
M  V30 249 N 23.6496 -1.47581 0.552962 0
M  V30 250 C 24.5996 -2.26961 -0.217423 0
M  V30 251 C 25.5836 -1.34099 -0.889168 0
M  V30 252 O 26.7756 -1.58483 -0.788176 0
M  V30 253 C 23.9046 -3.19756 -1.24944 0
M  V30 254 C 22.9906 -4.20097 -0.581327 0
M  V30 255 N 23.3816 -5.04614 0.346171 0
M  V30 256 C 21.6796 -4.38099 -0.835767 0
M  V30 257 C 22.3806 -5.77052 0.733854 0
M  V30 258 N 21.3566 -5.43526 0.0896567 0
M  V30 259 H 25.1586 -2.89688 0.495761 0
M  V30 260 H 22.6726 -1.58068 0.372597 0
M  V30 261 H 24.6696 -3.75305 -1.81527 0
M  V30 262 H 23.3296 -2.58585 -1.96376 0
M  V30 263 H 24.3406 -5.12869 0.720098 0
M  V30 264 H 21.0176 -3.88102 -1.53892 0
M  V30 265 H 22.4076 -6.5504 1.49574 0
M  V30 266 N 25.1277 -0.289203 -1.54924 0
M  V30 267 C 26.3737 0.323998 -2.00195 0
M  V30 268 C 26.7067 1.54441 -1.17735 0
M  V30 269 O 25.9817 1.92875 -0.250878 0
M  V30 270 C 26.2647 0.692276 -3.53383 0
M  V30 271 C 26.1177 -0.536457 -4.46589 0
M  V30 272 C 27.4367 1.52335 -4.12895 0
M  V30 273 H 24.5557 0.116289 -0.727768 0
M  V30 274 H 27.1977 -0.398954 -1.85764 0
M  V30 275 H 25.3477 1.30822 -3.65811 0
M  V30 276 H 27.0197 -1.17499 -4.46085 0
M  V30 277 H 25.2627 -1.17192 -4.1767 0
M  V30 278 H 25.9337 -0.234806 -5.515 0
M  V30 279 H 28.4097 1.00302 -4.0383 0
M  V30 280 H 27.2857 1.74982 -5.20262 0
M  V30 281 H 27.5467 2.50886 -3.64018 0
M  V30 282 N 26.6058 1.57591 -0.0167156 0
M  V30 283 C 28.0168 1.79201 0.523834 0
M  V30 284 C 28.3678 0.925796 1.72984 0
M  V30 285 O 27.4928 0.132792 2.15992 0
M  V30 286 C 28.0878 3.25 0.957091 0
M  V30 287 C 26.6468 3.47648 1.44283 0
M  V30 288 C 25.7938 2.74374 0.401757 0
M  V30 289 H 28.7448 1.56831 -0.242816 0
M  V30 290 H 28.7658 3.34031 1.82219 0
M  V30 291 H 28.2778 3.88019 0.0791415 0
M  V30 292 H 26.3788 2.89866 2.34113 0
M  V30 293 H 26.4918 4.56352 1.45877 0
M  V30 294 H 24.8558 2.39485 0.867121 0
M  V30 295 H 25.6388 3.40102 -0.467513 0
M  V30 296 N 28.0839 -0.256276 1.55502 0
M  V30 297 C 29.3089 -1.00766 1.81276 0
M  V30 298 C 29.7339 -1.78524 0.59252 0
M  V30 299 O 29.0919 -1.75413 -0.45827 0
M  V30 300 C 29.1399 -1.92869 3.04687 0
M  V30 301 O 28.2439 -3.019 2.80945 0
M  V30 302 H 27.5849 -0.287224 0.598664 0
M  V30 303 H 30.1149 -0.280109 2.02674 0
M  V30 304 H 30.1249 -2.34511 3.33869 0
M  V30 305 H 28.7999 -1.35689 3.93143 0
M  V30 306 H 27.3769 -2.64454 2.62904 0
M  V30 307 N 29.562 -1.4872 -0.521534 0
M  V30 308 C 30.51 -1.64328 -1.64618 0
M  V30 309 C 31.504 -0.50953 -1.61555 0
M  V30 310 O 32.71 -0.688525 -1.66311 0
M  V30 311 H 29.085 -0.517805 -0.545328 0
M  V30 312 H 31.056 -2.58767 -1.48601 0
M  V30 313 C 29.805 -1.70805 -3.02855 0
M  V30 314 H 29.128 -2.5741 -3.05909 0
M  V30 315 H 30.568 -1.85766 -3.81139 0
M  V30 316 C 29.027 -0.448479 -3.33902 0
M  V30 317 O 29.557 0.434928 -3.99339 0
M  V30 318 N 27.763 -0.317616 -2.88859 0
M  V30 319 H 27.31 -1.03748 -2.35784 0
M  V30 320 H 27.268 0.524113 -3.10001 0
M  V30 321 N 31.0401 0.771051 -1.3745 0
M  V30 322 C 32.2861 1.5319 -1.32894 0
M  V30 323 C 32.6191 1.94008 0.0862511 0
M  V30 324 O 31.8941 1.64124 1.04373 0
M  V30 325 C 32.1771 2.79648 -2.26868 0
M  V30 326 C 32.0301 2.45079 -3.77169 0
M  V30 327 C 33.3491 3.81583 -2.19277 0
M  V30 328 H 30.4681 0.555744 -0.484064 0
M  V30 329 H 33.1101 0.884492 -1.68157 0
M  V30 330 H 31.2601 3.34891 -1.96926 0
M  V30 331 H 32.9321 1.95745 -4.1771 0
M  V30 332 H 31.1751 1.77767 -3.95704 0
M  V30 333 H 31.8461 3.35478 -4.38359 0
M  V30 334 H 34.3221 3.35835 -2.45671 0
M  V30 335 H 33.1981 4.67787 -2.87171 0
M  V30 336 H 33.4591 4.25897 -1.18592 0
M  V30 337 N 32.5182 1.22032 0.997298 0
M  V30 338 C 33.9292 1.0397 1.55071 0
M  V30 339 C 34.2802 -0.398192 1.92117 0
M  V30 340 O 33.4052 -1.28254 1.74298 0
M  V30 341 C 34.0002 1.88109 2.81781 0
M  V30 342 C 32.5592 1.74357 3.33581 0
M  V30 343 C 31.7062 1.84846 2.06706 0
M  V30 344 H 34.6572 1.35941 0.818883 0
M  V30 345 H 34.6782 1.39589 3.53971 0
M  V30 346 H 34.1902 2.92754 2.54787 0
M  V30 347 H 32.2912 0.72427 3.65493 0
M  V30 348 H 32.4042 2.56772 4.04481 0
M  V30 349 H 30.7682 1.28238 2.20062 0
M  V30 350 H 31.5512 2.91014 1.82114 0
M  V30 351 N 33.9963 -1.19345 1.0293 0
M  V30 352 C 34.9263 -2.2481 0.631105 0
M  V30 353 C 35.9073 -1.66245 -0.360104 0
M  V30 354 O 37.0923 -1.92677 -0.242726 0
M  V30 355 C 34.2223 -3.47295 -0.0184607 0
M  V30 356 C 33.1763 -4.18536 0.895073 0
M  V30 357 C 32.5023 -5.34586 0.110592 0
M  V30 358 C 33.8023 -4.73287 2.209 0
M  V30 359 H 35.4963 -2.58372 1.51275 0
M  V30 360 H 33.0423 -1.24194 0.728818 0
M  V30 361 H 34.9953 -4.20268 -0.308675 0
M  V30 362 H 33.7193 -3.12933 -0.934907 0
M  V30 363 H 32.3783 -3.47446 1.16949 0
M  V30 364 H 32.0263 -4.96469 -0.807902 0
M  V30 365 H 31.7263 -5.83183 0.719087 0
M  V30 366 H 33.2503 -6.10355 -0.172871 0
M  V30 367 H 34.6643 -5.38013 1.98028 0
M  V30 368 H 33.0613 -5.32373 2.76946 0
M  V30 369 H 34.1313 -3.91331 2.86336 0
M  V30 370 N 35.4744 -0.807222 -1.35358 0
M  V30 371 C 36.4214 -0.216037 -2.29787 0
M  V30 372 C 37.3914 0.650278 -1.52842 0
M  V30 373 O 38.5764 0.595227 -1.81278 0
M  V30 374 C 35.7164 0.628893 -3.39321 0
M  V30 375 C 34.8294 -0.257927 -4.31229 0
M  V30 376 C 33.9644 0.595069 -5.27856 0
M  V30 377 C 33.0034 -0.292111 -6.11403 0
M  V30 378 N 32.1404 0.520895 -7.00165 0
M  V30 379 H 36.9804 -1.02671 -2.79755 0
M  V30 380 H 34.5174 -0.517839 -1.37684 0
M  V30 381 H 36.4754 1.13393 -4.01494 0
M  V30 382 H 35.1054 1.40482 -2.90628 0
M  V30 383 H 34.1574 -0.881076 -3.70056 0
M  V30 384 H 35.4694 -0.940759 -4.89848 0
M  V30 385 H 34.6234 1.16522 -5.95405 0
M  V30 386 H 33.3624 1.31146 -4.69736 0
M  V30 387 H 32.3674 -0.874525 -5.428 0
M  V30 388 H 33.5924 -1.00638 -6.71602 0
M  V30 389 H 31.5384 1.22125 -6.44532 0
M  V30 390 H 31.4554 -0.103877 -7.55929 0
M  V30 391 H 32.7234 1.0743 -7.72062 0
M  V30 392 N 36.9525 1.47285 -0.560781 0
M  V30 393 C 37.8625 2.33846 0.187954 0
M  V30 394 C 38.8785 1.48412 0.908293 0
M  V30 395 O 40.0545 1.81332 0.876388 0
M  V30 396 C 37.1195 3.25178 1.2025 0
M  V30 397 C 36.1805 4.26504 0.489208 0
M  V30 398 C 35.4135 5.13472 1.45542 0
M  V30 399 O 35.6365 5.02959 2.6905 0
M  V30 400 O 34.5705 5.93902 0.977963 0
M  V30 401 H 38.3965 2.99177 -0.522177 0
M  V30 402 H 35.9815 1.45903 -0.321364 0
M  V30 403 H 37.8635 3.81584 1.78805 0
M  V30 404 H 36.5385 2.6247 1.89449 0
M  V30 405 H 35.4455 3.73847 -0.137627 0
M  V30 406 H 36.7785 4.91935 -0.161399 0
M  V30 407 N 38.4306 0.297415 1.54768 0
M  V30 408 C 39.6766 -0.313376 2.00364 0
M  V30 409 C 40.0096 -1.53815 1.18553 0
M  V30 410 O 39.2846 -1.92739 0.261103 0
M  V30 411 C 39.5676 -0.673525 3.53745 0
M  V30 412 C 39.4206 0.560133 4.46299 0
M  V30 413 C 40.7396 -1.50143 4.13697 0
M  V30 414 H 37.8586 -0.112428 0.728374 0
M  V30 415 H 40.5006 0.4088 1.8555 0
M  V30 416 H 38.6506 -1.28881 3.665 0
M  V30 417 H 40.3226 1.19863 4.45455 0
M  V30 418 H 38.5656 1.19405 4.17043 0
M  V30 419 H 39.2366 0.26405 5.51368 0
M  V30 420 H 41.7126 -0.981588 4.04356 0
M  V30 421 H 40.5886 -1.72221 5.21182 0
M  V30 422 H 40.8496 -2.48952 3.65343 0
M  V30 423 N 39.9087 -1.5758 0.0250728 0
M  V30 424 C 40.8387 -2.13007 -0.956575 0
M  V30 425 C 41.8197 -1.0452 -1.342 0
M  V30 426 O 43.0047 -1.32332 -1.42133 0
M  V30 427 C 40.1347 -2.65386 -2.24026 0
M  V30 428 C 39.0887 -3.78623 -1.99571 0
M  V30 429 C 38.4147 -4.17414 -3.3417 0
M  V30 430 C 39.7147 -5.04867 -1.33814 0
M  V30 431 H 41.4087 -2.9528 -0.494991 0
M  V30 432 H 38.9547 -1.42042 -0.236651 0
M  V30 433 H 40.9077 -3.02794 -2.93076 0
M  V30 434 H 39.6317 -1.80268 -2.72343 0
M  V30 435 H 38.2907 -3.41646 -1.32941 0
M  V30 436 H 37.9387 -3.29284 -3.80238 0
M  V30 437 H 37.6387 -4.93719 -3.18615 0
M  V30 438 H 39.1627 -4.57402 -4.04495 0
M  V30 439 H 40.5767 -5.39888 -1.92857 0
M  V30 440 H 38.9737 -5.86144 -1.28669 0
M  V30 441 H 40.0437 -4.83904 -0.310561 0
M  V30 442 N 41.3868 0.248026 -1.55636 0
M  V30 443 C 42.6328 0.973427 -1.78594 0
M  V30 444 C 42.9878 1.83007 -0.593823 0
M  V30 445 O 42.2808 1.87097 0.412961 0
M  V30 446 C 42.4748 1.86819 -3.04686 0
M  V30 447 C 42.3038 1.09965 -4.36048 0
M  V30 448 C 41.0738 0.805204 -4.98843 0
M  V30 449 C 43.2718 0.477783 -5.12076 0
M  V30 450 N 41.2538 0.0124859 -6.13899 0
M  V30 451 C 42.6248 -0.179565 -6.1974 0
M  V30 452 C 44.6798 0.388136 -4.96385 0
M  V30 453 C 43.3828 -0.91795 -7.13419 0
M  V30 454 C 45.4088 -0.336716 -5.90441 0
M  V30 455 C 44.7708 -0.982705 -6.97511 0
M  V30 456 H 40.8698 0.337348 -0.705493 0
M  V30 457 H 43.4538 0.24667 -1.93131 0
M  V30 458 H 41.6248 2.56698 -2.9148 0
M  V30 459 H 43.3568 2.52907 -3.15944 0
M  V30 460 H 40.1118 1.11671 -4.60246 0
M  V30 461 H 40.5358 -0.371933 -6.75978 0
M  V30 462 H 45.1778 0.873237 -4.13684 0
M  V30 463 H 42.8958 -1.41466 -7.95621 0
M  V30 464 H 46.4818 -0.406731 -5.80377 0
M  V30 465 H 45.3618 -1.53464 -7.69037 0
M  V30 466 N 42.8649 1.48995 0.513639 0
M  V30 467 C 43.8119 1.6473 1.61656 0
M  V30 468 C 44.7819 0.488984 1.58739 0
M  V30 469 O 45.9669 0.714478 1.76918 0
M  V30 470 C 43.1069 1.7082 2.99858 0
M  V30 471 C 42.2199 2.9787 3.12885 0
M  V30 472 C 41.3549 2.95017 4.41744 0
M  V30 473 C 40.3939 4.16702 4.48359 0
M  V30 474 N 39.5309 4.11832 5.68629 0
M  V30 475 H 44.3709 2.58909 1.47547 0
M  V30 476 H 41.9079 1.28382 0.71808 0
M  V30 477 H 43.8659 1.72331 3.79944 0
M  V30 478 H 42.4959 0.801181 3.12699 0
M  V30 479 H 41.5479 3.06029 2.25944 0
M  V30 480 H 42.8599 3.8786 3.13633 0
M  V30 481 H 42.0139 2.95021 5.30139 0
M  V30 482 H 40.7529 2.02784 4.43542 0
M  V30 483 H 39.7579 4.16955 3.58369 0
M  V30 484 H 40.9829 5.10113 4.48287 0
M  V30 485 H 38.9289 3.22428 5.71293 0
M  V30 486 H 38.8459 4.95543 5.7094 0
M  V30 487 H 40.1139 4.1592 6.59266 0
M  V30 488 N 44.343 -0.763751 1.37857 0
M  V30 489 C 45.29 -1.87726 1.34267 0
M  V30 490 C 46.26 -1.64807 0.206879 0
M  V30 491 O 47.445 -1.86613 0.397508 0
M  V30 492 C 44.585 -3.24896 1.16346 0
M  V30 493 C 43.698 -3.59716 2.39225 0
M  V30 494 C 42.833 -4.86137 2.14114 0
M  V30 495 C 41.872 -5.13711 3.32817 0
M  V30 496 N 41.009 -6.31323 3.07206 0
M  V30 497 H 45.849 -1.90129 2.29466 0
M  V30 498 H 43.386 -0.929433 1.14017 0
M  V30 499 H 45.344 -4.04036 1.03975 0
M  V30 500 H 43.974 -3.21847 0.247909 0
M  V30 501 H 43.026 -2.75498 2.62307 0
M  V30 502 H 44.338 -3.76027 3.27728 0
M  V30 503 H 43.492 -5.73198 1.9882 0
M  V30 504 H 42.231 -4.71945 1.22961 0
M  V30 505 H 41.236 -4.25123 3.48641 0
M  V30 506 H 42.461 -5.29807 4.24832 0
M  V30 507 H 40.407 -6.18474 2.1869 0
M  V30 508 H 40.324 -6.48087 3.89254 0
M  V30 509 H 41.592 -7.213 2.95546 0
M  V30 510 N 45.8211 -1.22559 -0.990812 0
M  V30 511 C 46.7531 -0.955325 -2.08342 0
M  V30 512 C 47.7661 0.0668408 -1.62663 0
M  V30 513 O 48.9551 -0.167421 -1.77713 0
M  V30 514 C 46.0551 -0.415566 -3.36342 0
M  V30 515 C 45.2281 -1.49544 -4.11042 0
M  V30 516 C 44.2871 -0.962399 -5.17324 0
M  V30 517 O 43.3131 -1.64907 -5.44788 0
M  V30 518 N 44.5151 0.215134 -5.80101 0
M  V30 519 H 47.2801 -1.89596 -2.32106 0
M  V30 520 H 44.8411 -1.13276 -1.15673 0
M  V30 521 H 46.8331 -0.0442386 -4.04676 0
M  V30 522 H 45.4031 0.430232 -3.09625 0
M  V30 523 H 44.6231 -2.04 -3.37309 0
M  V30 524 H 45.9111 -2.22195 -4.57719 0
M  V30 525 H 45.3091 0.789779 -5.6016 0
M  V30 526 H 43.8661 0.527826 -6.49659 0
M  V30 527 N 47.2992 1.18797 -1.03562 0
M  V30 528 C 48.2462 2.22253 -0.622259 0
M  V30 529 C 49.2162 1.61987 0.36736 0
M  V30 530 O 50.4012 1.88986 0.262492 0
M  V30 531 C 47.5412 3.45097 0.0138462 0
M  V30 532 C 46.6542 4.19722 -1.02263 0
M  V30 533 C 45.7892 5.30009 -0.355573 0
M  V30 534 C 44.8282 5.96399 -1.37749 0
M  V30 535 N 43.9652 6.98234 -0.735766 0
M  V30 536 H 48.8052 2.56968 -1.50903 0
M  V30 537 H 46.3422 1.26245 -0.755017 0
M  V30 538 H 48.3002 4.15279 0.399948 0
M  V30 539 H 46.9302 3.11018 0.864158 0
M  V30 540 H 45.9822 3.48418 -1.52673 0
M  V30 541 H 47.2942 4.65227 -1.79903 0
M  V30 542 H 46.4482 6.0664 0.0850095 0
M  V30 543 H 45.1872 4.85592 0.452967 0
M  V30 544 H 44.1922 5.18512 -1.82826 0
M  V30 545 H 45.4172 6.42899 -2.18764 0
M  V30 546 H 43.3632 6.55979 0.0525597 0
M  V30 547 H 43.2802 7.41965 -1.44995 0
M  V30 548 H 44.5482 7.78845 -0.31941 0
M  V30 549 N 48.7773 0.814389 1.34928 0
M  V30 550 C 50.0543 0.321363 1.92942 0
M  V30 551 C 50.4343 -1.19014 1.74353 0
M  V30 552 O 49.7823 -1.99328 1.11716 0
M  V30 553 C 49.9923 0.741323 3.41036 0
M  V30 554 C 51.3403 0.735266 4.18185 0
M  V30 555 O 52.3643 0.68336 3.49584 0
M  V30 556 O 51.2233 0.800703 5.40602 0
M  V30 557 H 48.3173 0.0858893 0.822528 0
M  V30 558 H 50.8633 0.898609 1.43955 0
M  V30 559 H 49.6353 1.78276 3.4833 0
M  V30 560 H 49.2583 0.139307 3.97356 0
M  V30 561 N 50.2554 -1.46986 0.568584 0
M  V30 562 C 51.2024 -2.30153 -0.172707 0
M  V30 563 C 52.1724 -1.39759 -0.897586 0
M  V30 564 O 53.3574 -1.68716 -0.891044 0
M  V30 565 C 50.4974 -3.23952 -1.1895 0
M  V30 566 C 49.6104 -4.29441 -0.469517 0
M  V30 567 C 48.7454 -5.1038 -1.47259 0
M  V30 568 C 47.7844 -6.07632 -0.738225 0
M  V30 569 N 46.9214 -6.8149 -1.68868 0
M  V30 570 H 51.7614 -2.93019 0.542596 0
M  V30 571 H 49.2984 -1.44422 0.279401 0
M  V30 572 H 51.2564 -3.76767 -1.79173 0
M  V30 573 H 49.8864 -2.62926 -1.87269 0
M  V30 574 H 48.9384 -3.79594 0.247467 0
M  V30 575 H 50.2504 -4.98689 0.105241 0
M  V30 576 H 49.4044 -5.67402 -2.14803 0
M  V30 577 H 48.1434 -4.4106 -2.08128 0
M  V30 578 H 47.1484 -5.49778 -0.0489293 0
M  V30 579 H 48.3734 -6.78966 -0.135129 0
M  V30 580 H 46.3194 -6.14891 -2.28573 0
M  V30 581 H 46.2364 -7.46948 -1.16636 0
M  V30 582 H 47.5044 -7.43078 -2.3549 0
M  V30 583 N 51.7335 -0.305618 -1.54608 0
M  V30 584 C 52.9795 0.302746 -2.00528 0
M  V30 585 C 53.3125 1.53184 -1.19367 0
M  V30 586 O 52.5875 1.92598 -0.271321 0
M  V30 587 C 52.8705 0.654756 -3.54097 0
M  V30 588 C 52.7235 -0.583793 -4.45995 0
M  V30 589 C 54.0425 1.47947 -4.14487 0
M  V30 590 H 51.1615 0.108564 -0.72896 0
M  V30 591 H 53.8035 -0.418634 -1.85331 0
M  V30 592 H 51.9535 1.26935 -3.67178 0
M  V30 593 H 53.6255 -1.22224 -4.44814 0
M  V30 594 H 51.8685 -1.21615 -4.16404 0
M  V30 595 H 52.5395 -0.293287 -5.5122 0
M  V30 596 H 55.0155 0.96013 -4.04871 0
M  V30 597 H 53.8915 1.69454 -5.22088 0
M  V30 598 H 54.1525 2.47011 -3.66658 0
M  V30 599 N 53.2116 1.57565 -0.0334293 0
M  V30 600 C 54.1746 2.09393 0.932048 0
M  V30 601 C 55.1746 1.00986 1.25134 0
M  V30 602 O 56.3646 1.27129 1.19096 0
M  V30 603 C 53.4966 2.56338 2.2473 0
M  V30 604 H 54.6896 2.95984 0.483085 0
M  V30 605 H 52.2426 1.54819 0.21468 0
M  V30 606 H 52.9776 1.7309 2.74245 0
M  V30 607 H 52.7626 3.35542 2.02865 0
M  V30 608 H 54.2526 2.96646 2.93923 0
M  V30 609 N 54.6897 -0.239769 1.55765 0
M  V30 610 C 55.5997 -1.31831 1.94056 0
M  V30 611 C 56.6157 -1.52275 0.841925 0
M  V30 612 O 57.7917 -1.65759 1.14394 0
M  V30 613 C 54.8567 -2.65156 2.23368 0
M  V30 614 C 53.9177 -2.53173 3.46701 0
M  V30 615 C 53.1507 -3.8014 3.74606 0
M  V30 616 O 53.3737 -4.82343 3.04469 0
M  V30 617 O 52.3077 -3.78344 4.68123 0
M  V30 618 H 56.1337 -1.02347 2.85935 0
M  V30 619 H 53.7187 -0.441123 1.42739 0
M  V30 620 H 55.6007 -3.43929 2.43497 0
M  V30 621 H 54.2757 -2.94358 1.34666 0
M  V30 622 H 53.1827 -1.72662 3.31871 0
M  V30 623 H 54.5157 -2.28915 4.35728 0
M  V30 624 N 56.1678 -1.49265 -0.50573 0
M  V30 625 C 57.0978 -1.68495 -1.61653 0
M  V30 626 C 58.0788 -0.53366 -1.61512 0
M  V30 627 O 59.2638 -0.76897 -1.78327 0
M  V30 628 C 56.3938 -1.74709 -3.00157 0
M  V30 629 C 55.3478 -2.89581 -3.15162 0
M  V30 630 C 54.6738 -2.80903 -4.5497 0
M  V30 631 C 55.9738 -4.30578 -2.95634 0
M  V30 632 H 57.6678 -2.61493 -1.45814 0
M  V30 633 H 55.2138 -1.25838 -0.70005 0
M  V30 634 H 57.1668 -1.86748 -3.77761 0
M  V30 635 H 55.8908 -0.783067 -3.17074 0
M  V30 636 H 54.5498 -2.77136 -2.39982 0
M  V30 637 H 54.1978 -1.82419 -4.68756 0
M  V30 638 H 53.8978 -3.57999 -4.65951 0
M  V30 639 H 55.4218 -2.94944 -5.34641 0
M  V30 640 H 56.8358 -4.4373 -3.63011 0
M  V30 641 H 55.2328 -5.0886 -3.18091 0
M  V30 642 H 56.3028 -4.45352 -1.91806 0
M  V30 643 N 57.6459 0.756429 -1.3826 0
M  V30 644 C 58.5559 1.9009 -1.37488 0
M  V30 645 C 59.5719 1.71855 -0.272366 0
M  V30 646 O 60.7479 1.94827 -0.510318 0
M  V30 647 C 57.8129 3.25421 -1.19592 0
M  V30 648 C 56.8739 3.56202 -2.39622 0
M  V30 649 C 56.1069 4.85075 -2.2257 0
M  V30 650 O 56.3299 5.57246 -1.21793 0
M  V30 651 O 55.2639 5.15269 -3.11098 0
M  V30 652 H 59.0899 1.93695 -2.33914 0
M  V30 653 H 56.6749 0.901313 -1.1915 0
M  V30 654 H 58.5569 4.06337 -1.11661 0
M  V30 655 H 57.2319 3.22634 -0.262486 0
M  V30 656 H 56.1389 2.75458 -2.53128 0
M  V30 657 H 57.4719 3.63747 -3.31586 0
M  V30 658 N 59.124 1.23083 0.984299 0
M  V30 659 C 60.072 1.00593 2.09723 0
M  V30 660 C 61.066 -0.0538014 1.69315 0
M  V30 661 O 62.272 0.0993719 1.79725 0
M  V30 662 H 58.647 0.30817 0.685956 0
M  V30 663 H 60.618 1.95012 2.2586 0
M  V30 664 C 59.367 0.609601 3.42314 0
M  V30 665 H 58.69 1.41675 3.73856 0
M  V30 666 H 60.13 0.491726 4.21139 0
M  V30 667 C 58.589 -0.681745 3.2993 0
M  V30 668 O 59.119 -1.73192 3.62446 0
M  V30 669 N 57.325 -0.656178 2.83095 0
M  V30 670 H 56.872 0.198759 2.56832 0
M  V30 671 H 56.83 -1.52044 2.75191 0
M  V30 672 N 60.6021 -1.18246 1.0419 0
M  V30 673 C 61.8271 -1.92736 0.765996 0
M  V30 674 C 62.2521 -1.75728 -0.67091 0
M  V30 675 O 61.6101 -1.06825 -1.46486 0
M  V30 676 C 61.6581 -3.42148 1.13875 0
M  V30 677 O 60.7621 -4.11548 0.264954 0
M  V30 678 H 60.1031 -0.601238 0.281797 0
M  V30 679 H 62.6331 -1.49942 1.39207 0
M  V30 680 H 62.6431 -3.92858 1.1012 0
M  V30 681 H 61.3181 -3.53848 2.18551 0
M  V30 682 H 59.8951 -3.71137 0.362226 0
M  V30 683 N 62.0802 -0.821533 -1.34494 0
M  V30 684 C 62.9902 -0.244355 -2.33324 0
M  V30 685 C 64.0062 0.620527 -1.62559 0
M  V30 686 O 65.1822 0.528754 -1.94335 0
M  V30 687 C 62.2472 0.585368 -3.41723 0
M  V30 688 C 61.3082 -0.301752 -4.28238 0
M  V30 689 C 60.5412 0.488466 -5.3146 0
M  V30 690 O 60.7642 1.72186 -5.4379 0
M  V30 691 O 59.6982 -0.12848 -6.01763 0
M  V30 692 H 63.5242 -1.06231 -2.84515 0
M  V30 693 H 61.1092 -0.583645 -1.37528 0
M  V30 694 H 62.9912 1.05747 -4.07916 0
M  V30 695 H 61.6662 1.38068 -2.92778 0
M  V30 696 H 60.5732 -0.821315 -3.64973 0
M  V30 697 H 61.9062 -1.06138 -4.8062 0
M  V30 698 N 63.5583 1.46682 -0.576371 0
M  V30 699 C 64.8053 2.02412 -0.0595339 0
M  V30 700 C 65.1333 1.44859 1.29793 0
M  V30 701 O 64.3883 0.601099 1.8624 0
M  V30 702 C 64.6873 3.57345 0.062886 0
M  V30 703 C 64.3533 4.33908 -1.22616 0
M  V30 704 C 63.0153 4.54544 -1.57933 0
M  V30 705 C 65.3673 4.77919 -2.07948 0
M  V30 706 C 62.6953 5.16444 -2.78393 0
M  V30 707 C 65.0473 5.41149 -3.27629 0
M  V30 708 C 63.7113 5.60014 -3.63236 0
M  V30 709 H 62.9813 0.74068 -0.021785 0
M  V30 710 H 65.6283 1.76128 -0.751735 0
M  V30 711 H 63.9333 3.82729 0.838178 0
M  V30 712 H 65.6303 3.98136 0.478439 0
M  V30 713 H 62.2203 4.18138 -0.941202 0
M  V30 714 H 66.4043 4.61738 -1.81967 0
M  V30 715 H 61.6603 5.29242 -3.06126 0
M  V30 716 H 65.8343 5.74211 -3.94023 0
M  V30 717 H 63.4613 6.07748 -4.56669 0
M  V30 718 N 65.0364 0.313813 1.54444 0
M  V30 719 C 66.4524 -0.0391619 1.59552 0
M  V30 720 C 66.6524 -1.51322 1.33056 0
M  V30 721 O 65.7084 -2.26782 1.11022 0
M  V30 722 C 67.0214 0.370302 2.98411 0
M  V30 723 C 68.5694 0.320139 3.11358 0
M  V30 724 C 69.0444 0.704617 4.52547 0
M  V30 725 N 70.5354 0.657645 4.58508 0
M  V30 726 C 71.2704 0.927453 5.6585 0
M  V30 727 N 70.7664 1.26389 6.81174 0
M  V30 728 N 72.5594 0.853662 5.5558 0
M  V30 729 H 64.7104 1.27433 1.69925 0
M  V30 730 H 66.9734 0.517511 0.794284 0
M  V30 731 H 66.6794 1.39694 3.22767 0
M  V30 732 H 66.5534 -0.269619 3.76235 0
M  V30 733 H 68.9404 -0.697275 2.86744 0
M  V30 734 H 69.0214 0.99486 2.35661 0
M  V30 735 H 68.6654 1.7199 4.77893 0
M  V30 736 H 68.5954 0.00768843 5.26599 0
M  V30 737 H 71.0864 0.409067 3.75679 0
M  V30 738 H 71.3994 1.4554 7.58972 0
M  V30 739 H 69.7444 1.30206 6.82694 0
M  V30 740 H 72.9354 0.590383 4.64362 0
M  V30 741 H 73.1084 1.0673 6.3915 0
M  V30 742 N 66.5145 -1.57545 0.0417849 0
M  V30 743 C 67.4775 -2.09885 -0.92093 0
M  V30 744 C 68.4775 -1.01648 -1.24596 0
M  V30 745 O 69.6675 -1.27759 -1.1842 0
M  V30 746 C 66.7995 -2.57527 -2.23367 0
M  V30 747 H 67.9925 -2.96236 -0.467382 0
M  V30 748 H 65.5455 -1.5493 -0.206467 0
M  V30 749 H 66.2805 -1.74542 -2.73323 0
M  V30 750 H 66.0655 -3.36613 -2.01083 0
M  V30 751 H 67.5555 -2.98201 -2.92346 0
M  V30 752 N 67.9926 0.231505 -1.5589 0
M  V30 753 C 69.2396 0.957352 -1.78441 0
M  V30 754 C 69.5676 1.84726 -0.60882 0
M  V30 755 O 68.8226 1.91416 0.40725 0
M  V30 756 C 69.1216 1.83577 -3.0665 0
M  V30 757 C 68.7876 1.09993 -4.37278 0
M  V30 758 C 67.4496 0.896629 -4.72773 0
M  V30 759 C 69.8016 0.579558 -5.17968 0
M  V30 760 C 67.1296 0.160896 -5.86479 0
M  V30 761 C 69.4816 -0.142783 -6.32439 0
M  V30 762 C 68.1456 -0.357427 -6.66542 0
M  V30 763 H 67.4156 0.35032 -0.65296 0
M  V30 764 H 70.0626 0.226259 -1.90159 0
M  V30 765 H 68.3676 2.63441 -2.90011 0
M  V30 766 H 70.0646 2.39934 -3.21298 0
M  V30 767 H 66.6546 1.26835 -4.09403 0
M  V30 768 H 70.8386 0.724125 -4.90989 0
M  V30 769 H 66.0946 -0.0157293 -6.11398 0
M  V30 770 H 70.2686 -0.553559 -6.94196 0
M  V30 771 H 67.8956 -0.929466 -7.54497 0
M  V30 772 N 69.4707 1.49531 0.497807 0
M  V30 773 C 70.6957 1.63159 1.28039 0
M  V30 774 C 71.1207 0.30418 1.85624 0
M  V30 775 O 70.4787 -0.728618 1.66015 0
M  V30 776 C 70.5267 2.70537 2.38416 0
M  V30 777 O 69.6307 2.29931 3.42353 0
M  V30 778 H 68.9717 0.546001 0.377861 0
M  V30 779 H 71.5017 1.9574 0.59558 0
M  V30 780 H 71.5117 2.92802 2.84132 0
M  V30 781 H 70.1867 3.6689 1.95869 0
M  V30 782 H 68.7637 2.18009 3.02533 0
M  V30 783 N 70.9488 -0.749086 1.3866 0
M  V30 784 C 72.1738 -1.54344 1.38538 0
M  V30 785 C 72.5988 -1.88088 -0.0216655 0
M  V30 786 O 71.9568 -1.50899 -1.00494 0
M  V30 787 C 72.0048 -2.8164 2.25192 0
M  V30 788 O 71.1088 -3.7698 1.67212 0
M  V30 789 H 70.4498 -0.466654 0.472367 0
M  V30 790 H 72.9798 -0.925355 1.82478 0
M  V30 791 H 72.9898 -3.30519 2.3921 0
M  V30 792 H 71.6648 -2.56411 3.27454 0
M  V30 793 H 70.2418 -3.35699 1.6236 0
M  V30 794 N 72.4269 -1.23603 -0.977757 0
M  V30 795 C 73.6739 -1.06971 -1.71941 0
M  V30 796 C 74.0019 0.393009 -1.90488 0
M  V30 797 O 73.2569 1.30719 -1.4564 0
M  V30 798 C 73.5559 -1.7433 -3.11999 0
M  V30 799 C 73.2219 -3.24252 -3.13323 0
M  V30 800 C 71.8839 -3.65156 -3.13392 0
M  V30 801 C 74.2359 -4.20141 -3.08433 0
M  V30 802 C 71.5639 -5.00403 -3.0629 0
M  V30 803 C 73.9159 -5.55384 -3.02873 0
M  V30 804 C 72.5799 -5.95647 -3.01265 0
M  V30 805 H 71.8499 -0.391433 -0.629175 0
M  V30 806 H 74.4969 -1.53572 -1.14403 0
M  V30 807 H 72.8019 -1.20096 -3.7294 0
M  V30 808 H 74.4989 -1.58936 -3.68158 0
M  V30 809 H 71.0889 -2.91692 -3.14029 0
M  V30 810 H 75.2729 -3.89547 -3.07517 0
M  V30 811 H 70.5289 -5.3081 -3.03399 0
M  V30 812 H 74.7029 -6.29398 -2.98046 0
M  V30 813 H 72.3299 -7.0041 -2.95516 0
M  V30 814 N 73.905 1.17692 -1.04816 0
M  V30 815 C 74.852 2.21581 -0.645797 0
M  V30 816 C 75.822 1.62367 0.350159 0
M  V30 817 O 77.007 1.89254 0.242433 0
M  V30 818 C 74.147 3.45092 -0.0227568 0
M  V30 819 C 73.26 4.18613 -1.06709 0
M  V30 820 C 72.395 5.29602 -0.411767 0
M  V30 821 C 71.434 5.94904 -1.44067 0
M  V30 822 N 70.571 6.97414 -0.809781 0
M  V30 823 H 75.411 2.55353 -1.5362 0
M  V30 824 H 72.948 1.25438 -0.768364 0
M  V30 825 H 74.906 4.15679 0.35588 0
M  V30 826 H 73.536 3.11917 0.831122 0
M  V30 827 H 72.588 3.46779 -1.5636 0
M  V30 828 H 73.9 4.63293 -1.84827 0
M  V30 829 H 73.054 6.06696 0.0206623 0
M  V30 830 H 71.793 4.86045 0.401438 0
M  V30 831 H 70.798 5.16544 -1.88316 0
M  V30 832 H 72.023 6.40542 -2.25571 0
M  V30 833 H 69.969 6.55998 -0.0170186 0
M  V30 834 H 69.886 7.40386 -1.52856 0
M  V30 835 H 71.154 7.78463 -0.401999 0
M  V30 836 N 75.3831 0.828654 1.34056 0
M  V30 837 C 76.3311 0.242973 2.31327 0
M  V30 838 C 77.3251 -0.61944 1.57668 0
M  V30 839 O 78.5311 -0.51014 1.7262 0
M  V30 840 H 74.9061 0.059834 0.749616 0
M  V30 841 H 76.8771 1.07809 2.78244 0
M  V30 842 C 75.6261 -0.575733 3.429 0
M  V30 843 H 74.9491 0.0785582 3.99723 0
M  V30 844 H 76.3891 -0.951547 4.13185 0
M  V30 845 C 74.8481 -1.75044 2.87856 0
M  V30 846 O 75.3781 -2.84882 2.83205 0
M  V30 847 N 73.5841 -1.56903 2.44602 0
M  V30 848 H 73.1311 -0.675547 2.48584 0
M  V30 849 H 73.0891 -2.35652 2.08124 0
M  V30 850 N 76.8612 -1.46375 0.584142 0
M  V30 851 C 78.2772 -1.57694 0.245929 0
M  V30 852 C 78.4772 -1.57903 -1.25175 0
M  V30 853 O 77.5332 -1.49676 -2.03355 0
M  V30 854 C 78.8462 -2.87028 0.896402 0
M  V30 855 C 80.3942 -3.00662 0.870127 0
M  V30 856 C 80.8692 -4.32734 1.50017 0
M  V30 857 N 82.3602 -4.39436 1.46458 0
M  V30 858 C 83.0952 -5.40248 1.92144 0
M  V30 859 N 82.5912 -6.47726 2.4581 0
M  V30 860 N 84.3842 -5.31459 1.83052 0
M  V30 861 H 76.5352 -1.44483 1.55687 0
M  V30 862 H 78.7982 -0.689291 0.650831 0
M  V30 863 H 78.5042 -2.9269 1.95002 0
M  V30 864 H 78.3782 -3.75014 0.405486 0
M  V30 865 H 80.7652 -2.94581 -0.174871 0
M  V30 866 H 80.8462 -2.14148 1.39908 0
M  V30 867 H 80.4902 -4.39573 2.54437 0
M  V30 868 H 80.4202 -5.18025 0.946432 0
M  V30 869 H 82.9112 -3.62367 1.07231 0
M  V30 870 H 83.2242 -7.20863 2.78525 0
M  V30 871 H 81.5692 -6.48542 2.49836 0
M  V30 872 H 84.7602 -4.46396 1.40883 0
M  V30 873 H 84.9332 -6.09881 2.18973 0
M  V30 874 N 78.3393 -0.321999 -1.54275 0
M  V30 875 C 79.5853 0.281461 -2.00837 0
M  V30 876 C 79.9183 1.51909 -1.20985 0
M  V30 877 O 79.1933 1.923 -0.291733 0
M  V30 878 C 79.4763 0.617162 -3.54772 0
M  V30 879 C 79.3293 -0.631064 -4.45351 0
M  V30 880 C 80.6483 1.43542 -4.16033 0
M  V30 881 H 77.7673 0.100826 -0.730071 0
M  V30 882 H 80.4093 -0.438268 -1.84876 0
M  V30 883 H 78.5593 1.23034 -3.68504 0
M  V30 884 H 80.2313 -1.26934 -4.43492 0
M  V30 885 H 78.4743 -1.26025 -4.15091 0
M  V30 886 H 79.1453 -0.351735 -5.50878 0
M  V30 887 H 81.6213 0.917134 -4.05867 0
M  V30 888 H 80.4973 1.63907 -5.23856 0
M  V30 889 H 80.7583 2.43108 -3.69257 0
M  V30 890 N 79.8174 1.5752 -0.0501392 0
M  V30 891 C 81.0474 1.96678 0.632573 0
M  V30 892 C 81.4554 0.926298 1.64974 0
M  V30 893 O 80.7984 -0.09802 1.83438 0
M  V30 894 C 80.8604 3.32068 1.37735 0
M  V30 895 C 80.5244 4.54076 0.516131 0
M  V30 896 C 81.5214 5.19445 -0.217357 0
M  V30 897 C 79.2064 5.00304 0.44736 0
M  V30 898 C 81.2004 6.29378 -1.00807 0
M  V30 899 C 78.8874 6.10114 -0.347038 0
M  V30 900 C 79.8854 6.74512 -1.07344 0
M  V30 901 O 79.5734 7.82211 -1.85477 0
M  V30 902 H 79.3054 0.652193 0.177821 0
M  V30 903 H 81.8594 2.05091 -0.112543 0
M  V30 904 H 80.0894 3.20206 2.16807 0
M  V30 905 H 81.7784 3.55981 1.95019 0
M  V30 906 H 82.5444 4.84689 -0.173688 0
M  V30 907 H 78.4234 4.49971 1.00235 0
M  V30 908 H 81.9674 6.79575 -1.57556 0
M  V30 909 H 77.8644 6.44307 -0.392349 0
M  V30 910 H 78.6324 7.98982 -1.77678 0
M  V30 911 N 81.2955 -0.223234 1.56011 0
M  V30 912 C 82.2255 -1.27988 1.95298 0
M  V30 913 C 83.2065 -1.48976 0.820979 0
M  V30 914 O 84.3915 -1.61188 1.08315 0
M  V30 915 C 81.5215 -2.63 2.26822 0
M  V30 916 C 80.4755 -2.56671 3.42497 0
M  V30 917 C 79.8015 -3.95697 3.59622 0
M  V30 918 C 81.1015 -2.11601 4.77517 0
M  V30 919 H 82.7955 -0.953525 2.8381 0
M  V30 920 H 80.3415 -0.457244 1.36548 0
M  V30 921 H 82.2945 -3.37077 2.52898 0
M  V30 922 H 81.0185 -2.9732 1.35161 0
M  V30 923 H 79.6775 -1.85051 3.16467 0
M  V30 924 H 79.3255 -4.27322 2.6534 0
M  V30 925 H 79.0255 -3.92345 4.37424 0
M  V30 926 H 80.5495 -4.71438 3.88044 0
M  V30 927 H 81.9635 -2.7542 5.02809 0
M  V30 928 H 80.3605 -2.19311 5.5859 0
M  V30 929 H 81.4305 -1.06824 4.72987 0
M  V30 930 N 82.7736 -1.49793 -0.48987 0
M  V30 931 C 84.0506 -1.50348 -1.25119 0
M  V30 932 C 84.4306 -0.237466 -2.0976 0
M  V30 933 O 83.7786 0.77981 -2.14782 0
M  V30 934 C 83.9886 -2.78872 -2.09837 0
M  V30 935 C 85.3366 -3.288 -2.68655 0
M  V30 936 O 86.3606 -2.80065 -2.20096 0
M  V30 937 O 85.2196 -4.13707 -3.57083 0
M  V30 938 H 82.3136 -0.602242 -0.566775 0
M  V30 939 H 84.8596 -1.62067 -0.503229 0
M  V30 940 H 83.6316 -3.62499 -1.47343 0
M  V30 941 H 83.2546 -2.70066 -2.91805 0
M  V30 942 N 84.2517 0.741722 -1.39055 0
M  V30 943 C 85.4797 1.53098 -1.39171 0
M  V30 944 C 85.8947 1.88794 0.0155099 0
M  V30 945 O 85.2517 1.53626 0.985159 0
M  V30 946 C 85.3027 2.82274 -2.2584 0
M  V30 947 O 85.0237 2.48097 -3.61081 0
M  V30 948 C 86.5247 3.76343 -2.34266 0
M  V30 949 H 83.7447 0.473335 -0.4756 0
M  V30 950 H 86.2887 0.917045 -1.82785 0
M  V30 951 H 84.4437 3.40015 -1.85656 0
M  V30 952 H 84.8577 3.31029 -4.06842 0
M  V30 953 H 86.3317 4.63898 -2.9917 0
M  V30 954 H 86.8087 4.17619 -1.35982 0
M  V30 955 H 87.4147 3.24523 -2.74891 0
M  V30 956 N 85.7298 1.2412 0.971189 0
M  V30 957 C 86.9758 1.08041 1.71625 0
M  V30 958 C 87.3088 -0.380407 1.90438 0
M  V30 959 O 86.5838 -1.28127 1.46334 0
M  V30 960 C 86.8668 1.81682 3.10908 0
M  V30 961 C 86.7198 3.35493 2.99608 0
M  V30 962 C 88.0388 1.58671 4.10501 0
M  V30 963 H 85.1578 0.39388 0.622919 0
M  V30 964 H 87.7998 1.52743 1.13003 0
M  V30 965 H 85.9498 1.43684 3.60953 0
M  V30 966 H 87.6218 3.83068 2.57015 0
M  V30 967 H 85.8648 3.64052 2.35899 0
M  V30 968 H 86.5358 3.82217 3.98264 0
M  V30 969 H 89.0118 1.91719 3.69301 0
M  V30 970 H 87.8878 2.1266 5.06031 0
M  V30 971 H 88.1488 0.524161 4.38982 0
M  V30 972 N 87.2079 -1.17134 1.05439 0
M  V30 973 C 88.4329 -1.91913 0.786396 0
M  V30 974 C 88.8579 -1.7643 -0.652234 0
M  V30 975 O 88.2159 -1.08372 -1.45345 0
M  V30 976 C 88.2639 -3.40921 1.17497 0
M  V30 977 O 87.3679 -4.11244 0.308589 0
M  V30 978 H 86.7089 -0.598215 0.288158 0
M  V30 979 H 89.2389 -1.48457 1.4079 0
M  V30 980 H 89.2489 -3.91668 1.14281 0
M  V30 981 H 87.9239 -3.5151 2.22292 0
M  V30 982 H 86.5009 -3.70731 0.40157 0
M  V30 983 N 88.686 -0.835752 -1.33615 0
M  V30 984 C 89.934 -0.429109 -1.97492 0
M  V30 985 C 90.255 1.01433 -1.66543 0
M  V30 986 O 89.525 1.70611 -0.962744 0
M  V30 987 H 88.105 -0.155686 -0.730596 0
M  V30 988 H 90.767 -1.06802 -1.63031 0
M  V30 989 H 89.863 -0.55861 -3.0706 0
M  V30 990 N 90.1641 1.46063 -0.591896 0
M  V30 991 C 91.3891 2.07226 -0.0850314 0
M  V30 992 C 91.8141 1.43625 1.21463 0
M  V30 993 O 91.1721 0.523305 1.73583 0
M  V30 994 C 91.2201 3.60554 0.0576567 0
M  V30 995 O 90.3241 3.97128 1.11188 0
M  V30 996 H 89.6651 0.660615 -0.0669568 0
M  V30 997 H 92.1951 1.8756 -0.81745 0
M  V30 998 H 92.2051 4.07165 0.2609 0
M  V30 999 H 90.8801 4.06235 -0.891416 0
M  V30 1000 H 89.4571 3.62213 0.886356 0
M  V30 1001 N 91.6422 0.330177 1.54103 0
M  V30 1002 C 92.5722 -0.525353 2.27513 0
M  V30 1003 C 93.5532 -1.11383 1.2856 0
M  V30 1004 O 94.7382 -1.13773 1.57383 0
M  V30 1005 C 91.8682 -1.6831 3.03791 0
M  V30 1006 C 90.8222 -1.2236 4.10137 0
M  V30 1007 C 90.1482 -2.46882 4.74293 0
M  V30 1008 C 91.4482 -0.333697 5.21233 0
M  V30 1009 H 93.1422 0.087013 2.99274 0
M  V30 1010 H 90.6882 0.0432893 1.43935 0
M  V30 1011 H 92.6412 -2.28795 3.5388 0
M  V30 1012 H 91.3652 -2.32216 2.29659 0
M  V30 1013 H 90.0242 -0.64165 3.60941 0
M  V30 1014 H 89.6722 -3.09165 3.96769 0
M  V30 1015 H 89.3722 -2.16825 5.46133 0
M  V30 1016 H 90.8962 -3.08117 5.27159 0
M  V30 1017 H 92.3102 -0.845013 5.67038 0
M  V30 1018 H 90.7072 -0.125612 5.99969 0
M  V30 1019 H 91.7772 0.633724 4.80741 0
M  V30 1020 N 93.1203 -1.57491 0.0584922 0
M  V30 1021 C 94.3483 -1.97296 -0.623037 0
M  V30 1022 C 94.7633 -0.936338 -1.63946 0
M  V30 1023 O 94.1203 0.0785981 -1.82331 0
M  V30 1024 C 94.1713 -3.37183 -1.30345 0
M  V30 1025 O 93.8923 -4.36872 -0.32773 0
M  V30 1026 C 95.3933 -3.91788 -2.07406 0
M  V30 1027 H 92.6133 -0.649153 -0.169826 0
M  V30 1028 H 95.1573 -2.04106 0.12696 0
M  V30 1029 H 93.3123 -3.31502 -2.00463 0
M  V30 1030 H 93.7263 -5.18141 -0.814269 0
M  V30 1031 H 95.2003 -4.91926 -2.50425 0
M  V30 1032 H 95.6773 -3.27609 -2.92521 0
M  V30 1033 H 96.2833 -4.00829 -1.42184 0
M  V30 1034 N 94.5984 0.214957 -1.56127 0
M  V30 1035 C 95.8474 0.936451 -1.78643 0
M  V30 1036 C 96.1604 1.85237 -0.628229 0
M  V30 1037 O 97.3664 2.613 -0.737186 0
M  V30 1038 C 95.8224 1.7154 -3.16389 0
M  V30 1039 C 95.4304 0.845299 -4.39953 0
M  V30 1040 C 97.1744 2.42772 -3.48227 0
M  V30 1041 C 95.0814 1.62198 -5.68723 0
M  V30 1042 H 94.0114 0.353401 -0.666051 0
M  V30 1043 H 96.6624 0.190169 -1.82512 0
M  V30 1044 H 95.0444 2.50484 -3.06715 0
M  V30 1045 H 96.2184 0.0959353 -4.607 0
M  V30 1046 H 94.5334 0.244789 -4.1568 0
M  V30 1047 H 97.1304 3.01394 -4.41663 0
M  V30 1048 H 97.4734 3.15984 -2.71035 0
M  V30 1049 H 98.0064 1.70813 -3.5926 0
M  V30 1050 H 94.7454 0.933011 -6.48826 0
M  V30 1051 H 94.2654 2.34579 -5.52026 0
M  V30 1052 H 95.9444 2.18095 -6.09133 0
M  V30 1053 N 96.0765 1.50051 0.48192 0
M  V30 1054 C 97.3065 1.63999 1.2565 0
M  V30 1055 C 97.7145 0.318288 1.86504 0
M  V30 1056 O 97.0575 -0.708534 1.69486 0
M  V30 1057 C 97.1195 2.66504 2.4128 0
M  V30 1058 C 96.7835 4.10352 2.01148 0
M  V30 1059 C 97.7805 4.96562 1.54021 0
M  V30 1060 C 95.4655 4.56203 2.10199 0
M  V30 1061 C 97.4595 6.26668 1.16473 0
M  V30 1062 C 95.1465 5.86318 1.72264 0
M  V30 1063 C 96.1445 6.71375 1.25477 0
M  V30 1064 O 95.8325 7.99062 0.880626 0
M  V30 1065 H 95.5645 0.55456 0.386574 0
M  V30 1066 H 98.1185 1.96954 0.582944 0
M  V30 1067 H 96.3485 2.28769 3.11772 0
M  V30 1068 H 98.0375 2.69783 3.03268 0
M  V30 1069 H 98.8035 4.62358 1.46458 0
M  V30 1070 H 94.6825 3.90152 2.45566 0
M  V30 1071 H 98.2265 6.93011 0.798841 0
M  V30 1072 H 94.1235 6.20046 1.79482 0
M  V30 1073 H 94.8915 8.12239 1.01043 0
M  V30 1074 N 97.5546 -0.734337 1.39446 0
M  V30 1075 C 98.5026 -1.86971 1.38364 0
M  V30 1076 C 99.4966 -1.67288 0.266687 0
M  V30 1077 O 100.703 -1.74621 0.436755 0
M  V30 1078 H 97.0776 -0.615474 0.432082 0
M  V30 1079 H 99.0486 -1.85 2.34132 0
M  V30 1080 C 97.7976 -3.2466 1.24465 0
M  V30 1081 H 97.1206 -3.40402 2.09682 0
M  V30 1082 H 98.5606 -4.04292 1.27764 0
M  V30 1083 C 97.0196 -3.36867 -0.0468674 0
M  V30 1084 O 97.5496 -3.88618 -1.01681 0
M  V30 1085 N 95.7556 -2.90391 -0.110145 0
M  V30 1086 H 95.3026 -2.48466 0.679868 0
M  V30 1087 H 95.2606 -2.98939 -0.973799 0
M  V30 1088 N 99.0327 -1.24633 -0.964593 0
M  V30 1089 C 99.9627 -1.06611 -2.07741 0
M  V30 1090 C 100.944 0.0218666 -1.70086 0
M  V30 1091 O 102.129 -0.145793 -1.93652 0
M  V30 1092 C 99.2587 -0.673444 -3.40708 0
M  V30 1093 C 98.2127 -1.71054 -3.92332 0
M  V30 1094 C 97.5387 -1.17285 -5.21678 0
M  V30 1095 C 98.8387 -3.10718 -4.19824 0
M  V30 1096 H 100.533 -1.99693 -2.23076 0
M  V30 1097 H 98.0787 -0.96152 -1.07195 0
M  V30 1098 H 100.032 -0.534345 -4.17998 0
M  V30 1099 H 98.7557 0.293073 -3.25282 0
M  V30 1100 H 97.4147 -1.83791 -3.17201 0
M  V30 1101 H 97.0627 -0.196847 -5.02615 0
M  V30 1102 H 96.7627 -1.86592 -5.57187 0
M  V30 1103 H 98.2867 -1.04593 -6.01575 0
M  V30 1104 H 99.7007 -3.01192 -4.87808 0
M  V30 1105 H 98.0977 -3.77406 -4.66567 0
M  V30 1106 H 99.1677 -3.58524 -3.26479 0
M  V30 1107 N 100.511 1.16574 -1.06058 0
M  V30 1108 C 101.739 1.90952 -0.796552 0
M  V30 1109 C 102.154 1.77302 0.648808 0
M  V30 1110 O 101.511 1.11605 1.44397 0
M  V30 1111 C 101.562 3.41736 -1.17894 0
M  V30 1112 O 101.283 3.54975 -2.56758 0
M  V30 1113 C 102.784 4.33169 -0.942308 0
M  V30 1114 H 100.004 0.605594 -0.288959 0
M  V30 1115 H 102.548 1.47777 -1.41358 0
M  V30 1116 H 100.703 3.82623 -0.606491 0
M  V30 1117 H 101.117 4.4846 -2.72 0
M  V30 1118 H 102.591 5.37439 -1.25952 0
M  V30 1119 H 103.068 4.3903 0.122078 0
M  V30 1120 H 103.674 3.98007 -1.49902 0
M  V30 1121 N 101.989 0.842826 1.3317 0
M  V30 1122 C 103.214 0.453129 2.02389 0
M  V30 1123 C 103.639 -0.939105 1.6298 0
M  V30 1124 O 102.997 -1.61472 0.8244 0
M  V30 1125 C 103.045 0.586094 3.55805 0
M  V30 1126 O 102.149 -0.386029 4.10589 0
M  V30 1127 H 101.49 0.183664 0.638094 0
M  V30 1128 H 104.02 1.13875 1.69981 0
M  V30 1129 H 104.03 0.469209 4.05293 0
M  V30 1130 H 102.705 1.6014 3.83833 0
M  V30 1131 H 101.282 -0.226371 3.72212 0
M  V30 1132 N 103.467 -1.45747 0.599634 0
M  V30 1133 C 104.692 -2.07178 0.0960198 0
M  V30 1134 C 105.117 -1.44268 -1.207 0
M  V30 1135 O 104.475 -0.532503 -1.73303 0
M  V30 1136 C 104.523 -3.60579 -0.0385348 0
M  V30 1137 O 103.627 -3.97713 -1.0908 0
M  V30 1138 H 102.968 -0.660251 0.0704593 0
M  V30 1139 H 105.498 -1.87124 0.827385 0
M  V30 1140 H 105.508 -4.07298 -0.239304 0
M  V30 1141 H 104.183 -4.05756 0.912947 0
M  V30 1142 H 102.76 -3.62678 -0.867135 0
M  V30 1143 N 104.945 -0.338344 -1.53925 0
M  V30 1144 C 106.222 0.314774 -1.93051 0
M  V30 1145 C 106.602 1.68669 -1.26941 0
M  V30 1146 O 105.95 2.24636 -0.418445 0
M  V30 1147 C 106.16 0.392249 -3.46789 0
M  V30 1148 C 107.508 0.645554 -4.19664 0
M  V30 1149 O 108.532 0.474575 -3.53024 0
M  V30 1150 O 107.391 0.976408 -5.37707 0
M  V30 1151 H 104.485 0.182598 -0.80659 0
M  V30 1152 H 107.031 -0.389141 -1.65178 0
M  V30 1153 H 105.803 -0.570702 -3.87116 0
M  V30 1154 H 105.426 1.14316 -3.80812 0
M  V30 1155 N 106.423 1.57458 -0.0668435 0
M  V30 1156 C 107.333 2.15937 0.916975 0
M  V30 1157 C 108.349 1.12123 1.33058 0
M  V30 1158 O 109.525 1.44366 1.40429 0
M  V30 1159 C 106.59 2.70547 2.16807 0
M  V30 1160 C 105.651 3.89215 1.81135 0
M  V30 1161 C 104.884 4.41211 3.0028 0
M  V30 1162 O 105.107 3.92225 4.14144 0
M  V30 1163 O 104.041 5.32605 2.80384 0
M  V30 1164 H 107.867 3.00354 0.449561 0
M  V30 1165 H 105.452 1.48584 0.155949 0
M  V30 1166 H 107.334 3.0557 2.90181 0
M  V30 1167 H 106.009 1.89192 2.62656 0
M  V30 1168 H 104.916 3.59054 1.05028 0
M  V30 1169 H 106.249 4.71848 1.40073 0
M  V30 1170 N 107.901 -0.206675 1.56239 0
M  V30 1171 C 109.178 -0.954051 1.70755 0
M  V30 1172 C 109.558 -2.01841 0.618353 0
M  V30 1173 O 108.906 -2.25444 -0.372434 0
M  V30 1174 C 109.116 -1.551 3.12642 0
M  V30 1175 C 110.464 -2.03757 3.72516 0
M  V30 1176 O 111.488 -1.64965 3.15698 0
M  V30 1177 O 110.347 -2.75103 4.72208 0
M  V30 1178 H 107.441 -0.446636 0.696021 0
M  V30 1179 H 109.987 -0.197283 1.68549 0
M  V30 1180 H 108.759 -0.783212 3.83382 0
M  V30 1181 H 108.382 -2.37291 3.19028 0
M  V30 1182 N 109.379 -1.50304 -0.473955 0
M  V30 1183 C 110.289 -1.7174 -1.5982 0
M  V30 1184 C 111.305 -0.600457 -1.63311 0
M  V30 1185 O 112.481 -0.878441 -1.81233 0
M  V30 1186 C 109.546 -1.80427 -2.96052 0
M  V30 1187 C 108.607 -3.04148 -3.02972 0
M  V30 1188 C 107.84 -3.12411 -4.32706 0
M  V30 1189 O 108.063 -2.27542 -5.23049 0
M  V30 1190 O 106.997 -4.05113 -4.45159 0
M  V30 1191 H 110.823 -2.67035 -1.44657 0
M  V30 1192 H 108.408 -1.34366 -0.653148 0
M  V30 1193 H 110.29 -1.88338 -3.7697 0
M  V30 1194 H 108.965 -0.883156 -3.11419 0
M  V30 1195 H 107.872 -3.0174 -2.21142 0
M  V30 1196 H 109.205 -3.95829 -2.92541 0
M  V30 1197 N 110.857 0.726932 -1.39834 0
M  V30 1198 C 112.087 1.51393 -1.40583 0
M  V30 1199 C 112.495 1.892 -0.000740625 0
M  V30 1200 O 111.838 1.55189 0.982951 0
M  V30 1201 C 111.9 2.82588 -2.22226 0
M  V30 1202 C 111.564 2.67169 -3.70769 0
M  V30 1203 C 112.561 2.3518 -4.63666 0
M  V30 1204 C 110.246 2.83788 -4.14451 0
M  V30 1205 C 112.24 2.20002 -5.98229 0
M  V30 1206 C 109.927 2.68229 -5.49087 0
M  V30 1207 C 110.925 2.36382 -6.4079 0
M  V30 1208 O 110.613 2.2093 -7.72946 0
M  V30 1209 H 110.345 0.474168 -0.48181 0
M  V30 1210 H 112.899 0.905247 -1.84376 0
M  V30 1211 H 111.129 3.45746 -1.73195 0
M  V30 1212 H 112.818 3.44247 -2.15055 0
M  V30 1213 H 113.584 2.21984 -4.31217 0
M  V30 1214 H 109.463 3.07566 -3.43401 0
M  V30 1215 H 113.007 1.95067 -6.69772 0
M  V30 1216 H 108.904 2.81006 -5.81125 0
M  V30 1217 H 109.672 2.35937 -7.83757 0
M  V30 1218 N 112.336 1.25143 0.95797 0
M  V30 1219 C 113.246 1.06968 2.08794 0
M  V30 1220 C 114.262 0.00773911 1.73998 0
M  V30 1221 O 115.438 0.207972 2.00323 0
M  V30 1222 C 112.503 0.68691 3.39827 0
M  V30 1223 C 111.564 1.82641 3.88511 0
M  V30 1224 C 110.797 1.46181 5.1329 0
M  V30 1225 O 111.02 0.355971 5.69288 0
M  V30 1226 O 109.954 2.29085 5.566 0
M  V30 1227 H 113.78 2.01723 2.27027 0
M  V30 1228 H 111.365 1.04051 1.07209 0
M  V30 1229 H 113.247 0.485417 4.18595 0
M  V30 1230 H 111.922 -0.231417 3.22872 0
M  V30 1231 H 110.829 2.08274 3.10762 0
M  V30 1232 H 112.162 2.72386 4.09959 0
M  V30 1233 N 113.814 -1.1601 1.06675 0
M  V30 1234 C 114.747 -2.1947 0.625168 0
M  V30 1235 C 115.725 -1.58699 -0.354041 0
M  V30 1236 O 116.909 -1.86669 -0.262098 0
M  V30 1237 C 114.036 -3.38598 -0.0829593 0
M  V30 1238 C 113.082 -4.1787 0.853611 0
M  V30 1239 S 113.915 -4.81135 2.35094 0
M  V30 1240 C 115.071 -6.03639 1.65441 0
M  V30 1241 H 115.304 -2.56587 1.50168 0
M  V30 1242 H 112.837 -1.26862 0.880078 0
M  V30 1243 H 114.795 -4.07621 -0.485288 0
M  V30 1244 H 113.456 -2.99839 -0.935716 0
M  V30 1245 H 112.649 -5.03078 0.304755 0
M  V30 1246 H 112.251 -3.54361 1.196 0
M  V30 1247 H 114.543 -6.70632 0.962201 0
M  V30 1248 H 115.486 -6.63081 2.48454 0
M  V30 1249 H 115.894 -5.52965 1.13534 0
M  V30 1250 N 115.292 -0.849877 -1.32721 0
M  V30 1251 C 116.202 -0.293791 -2.32753 0
M  V30 1252 C 117.218 0.585906 -1.63839 0
M  V30 1253 O 118.394 0.487413 -1.95413 0
M  V30 1254 C 115.459 0.512752 -3.42887 0
M  V30 1255 C 114.52 -0.39252 -4.27502 0
M  V30 1256 C 113.753 0.375625 -5.32377 0
M  V30 1257 O 113.976 1.60613 -5.4732 0
M  V30 1258 O 112.91 -0.256094 -6.01355 0
M  V30 1259 H 116.736 -1.12242 -2.82197 0
M  V30 1260 H 114.321 -0.612685 -1.36259 0
M  V30 1261 H 116.203 0.970704 -4.10067 0
M  V30 1262 H 114.878 1.31826 -2.95641 0
M  V30 1263 H 113.785 -0.898547 -3.63149 0
M  V30 1264 H 115.118 -1.16309 -4.7826 0
M  V30 1265 N 116.77 1.45427 -0.607355 0
M  V30 1266 C 117.995 2.07124 -0.107006 0
M  V30 1267 C 118.42 1.44906 1.19933 0
M  V30 1268 O 117.778 0.541687 1.73019 0
M  V30 1269 C 117.826 3.60595 0.0194119 0
M  V30 1270 O 116.93 3.98285 1.0697 0
M  V30 1271 H 116.271 0.659868 -0.0739597 0
M  V30 1272 H 118.801 1.86683 -0.837297 0
M  V30 1273 H 118.811 4.07419 0.2177 0
M  V30 1274 H 117.486 4.05266 -0.934453 0
M  V30 1275 H 116.063 3.63133 0.847889 0
M  V30 1276 N 118.248 0.346503 1.53744 0
M  V30 1277 C 119.659 -0.136779 1.86198 0
M  V30 1278 C 120.01 -1.49749 1.26766 0
M  V30 1279 O 119.135 -2.08417 0.582355 0
M  V30 1280 C 119.73 -0.254966 3.37839 0
M  V30 1281 C 118.289 -0.682482 3.70161 0
M  V30 1282 C 117.436 0.181981 2.76702 0
M  V30 1283 H 120.387 0.565994 1.48264 0
M  V30 1284 H 120.408 -1.08195 3.64793 0
M  V30 1285 H 119.92 0.735526 3.81066 0
M  V30 1286 H 118.021 -1.68189 3.3248 0
M  V30 1287 H 118.134 -0.470326 4.76786 0
M  V30 1288 H 116.498 -0.34615 2.52337 0
M  V30 1289 H 117.281 1.16966 3.2276 0
M  V30 1290 N 119.726 -1.57421 0.075193 0
M  V30 1291 C 120.674 -2.14124 -0.908508 0
M  V30 1292 C 121.668 -1.07898 -1.30592 0
M  V30 1293 O 122.874 -1.26273 -1.28277 0
M  V30 1294 H 119.249 -0.684707 -0.310935 0
M  V30 1295 H 121.22 -2.95634 -0.405374 0
M  V30 1296 C 119.969 -2.72044 -2.16535 0
M  V30 1297 H 119.292 -3.53456 -1.86839 0
M  V30 1298 H 120.732 -3.15311 -2.83469 0
M  V30 1299 C 119.191 -1.66968 -2.92615 0
M  V30 1300 O 119.721 -1.0967 -3.86439 0
M  V30 1301 N 117.927 -1.37923 -2.55784 0
M  V30 1302 H 117.474 -1.84706 -1.79559 0
M  V30 1303 H 117.432 -0.67852 -3.06991 0
M  V30 1304 N 121.204 0.198386 -1.56346 0
M  V30 1305 C 122.453 0.917451 -1.79627 0
M  V30 1306 C 122.766 1.8456 -0.64784 0
M  V30 1307 O 123.972 2.60504 -0.764859 0
M  V30 1308 C 122.428 1.68175 -3.18191 0
M  V30 1309 C 122.036 0.798589 -4.40825 0
M  V30 1310 C 123.78 2.39065 -3.50782 0
M  V30 1311 C 121.687 1.56157 -5.70411 0
M  V30 1312 H 120.617 0.346317 -0.669762 0
M  V30 1313 H 123.268 0.170801 -1.82703 0
M  V30 1314 H 121.65 2.47216 -3.09354 0
M  V30 1315 H 122.824 0.0470665 -4.60776 0
M  V30 1316 H 121.139 0.200686 -4.15916 0
M  V30 1317 H 123.736 2.96692 -4.44835 0
M  V30 1318 H 124.079 3.13091 -2.74371 0
M  V30 1319 H 124.612 1.66993 -3.61052 0
M  V30 1320 H 121.351 0.864142 -6.49779 0
M  V30 1321 H 120.871 2.2871 -5.54483 0
M  V30 1322 H 122.55 2.11622 -6.11412 0
M  V30 1323 N 122.682 1.50554 0.465978 0
M  V30 1324 C 123.91 1.65563 1.24083 0
M  V30 1325 C 124.325 0.341051 1.85694 0
M  V30 1326 O 123.682 -0.677543 1.69457 0
M  V30 1327 C 123.733 2.75051 2.34583 0
M  V30 1328 O 123.454 4.01413 1.75497 0
M  V30 1329 C 124.955 3.01078 3.25372 0
M  V30 1330 H 122.175 0.55638 0.375077 0
M  V30 1331 H 124.719 1.96807 0.555624 0
M  V30 1332 H 122.874 2.46486 2.9887 0
M  V30 1333 H 123.288 4.62002 2.48303 0
M  V30 1334 H 124.762 3.81339 3.99105 0
M  V30 1335 H 125.239 2.12349 3.84453 0
M  V30 1336 H 125.845 3.31194 2.66816 0
M  V30 1337 N 124.16 -0.719506 1.40217 0
M  V30 1338 C 125.437 -1.47221 1.28784 0
M  V30 1339 C 125.817 -2.10883 -0.0956067 0
M  V30 1340 O 125.165 -1.99833 -1.10811 0
M  V30 1341 C 125.375 -2.5111 2.42373 0
M  V30 1342 C 126.723 -3.17053 2.82423 0
M  V30 1343 O 127.747 -2.61429 2.41937 0
M  V30 1344 O 126.606 -4.17742 3.52355 0
M  V30 1345 H 123.7 -0.654491 0.50554 0
M  V30 1346 H 126.246 -0.752014 1.52128 0
M  V30 1347 H 125.018 -2.02556 3.34793 0
M  V30 1348 H 124.641 -3.3067 2.20778 0
M  V30 1349 N 125.638 -1.25649 -0.95132 0
M  V30 1350 C 126.866 -1.13343 -1.73092 0
M  V30 1351 C 127.281 0.312434 -1.86197 0
M  V30 1352 O 126.638 1.21465 -1.36207 0
M  V30 1353 C 126.689 -1.78602 -3.14299 0
M  V30 1354 O 126.41 -3.17537 -3.01831 0
M  V30 1355 C 127.911 -1.72119 -4.08522 0
M  V30 1356 H 125.131 -0.395181 -0.542285 0
M  V30 1357 H 127.675 -1.66076 -1.19328 0
M  V30 1358 H 125.83 -1.29832 -3.64996 0
M  V30 1359 H 126.244 -3.49676 -3.90931 0
M  V30 1360 H 127.718 -2.22435 -5.052 0
M  V30 1361 H 128.195 -0.685635 -4.33815 0
M  V30 1362 H 128.801 -2.20393 -3.63741 0
M  V30 1363 N 127.117 1.15442 -1.07289 0
M  V30 1364 C 128.05 2.19135 -0.636798 0
M  V30 1365 C 129.028 1.58884 0.34562 0
M  V30 1366 O 130.212 1.86805 0.252195 0
M  V30 1367 C 127.339 3.38638 0.0650014 0
M  V30 1368 C 126.385 4.17412 -0.87576 0
M  V30 1369 S 127.218 4.79882 -2.37642 0
M  V30 1370 C 128.374 6.02753 -1.6864 0
M  V30 1371 H 128.607 2.55787 -1.51526 0
M  V30 1372 H 126.14 1.26394 -0.886793 0
M  V30 1373 H 128.098 4.07873 0.463664 0
M  V30 1374 H 126.759 3.00331 0.919801 0
M  V30 1375 H 125.952 5.02909 -0.33143 0
M  V30 1376 H 125.554 3.53722 -1.21478 0
M  V30 1377 H 127.846 6.70113 -0.997753 0
M  V30 1378 H 128.789 6.61754 -2.51967 0
M  V30 1379 H 129.197 5.52355 -1.16465 0
M  V30 1380 N 128.595 0.856903 1.32268 0
M  V30 1381 C 129.542 0.301172 2.28827 0
M  V30 1382 C 130.512 -0.593104 1.5515 0
M  V30 1383 O 131.697 -0.527537 1.83362 0
M  V30 1384 C 128.837 -0.502523 3.41422 0
M  V30 1385 C 127.95 0.417797 4.29975 0
M  V30 1386 C 127.085 -0.398749 5.29701 0
M  V30 1387 C 126.124 0.518827 6.09897 0
M  V30 1388 N 125.261 -0.260674 7.01616 0
M  V30 1389 H 130.101 1.12983 2.75751 0
M  V30 1390 H 127.638 0.568582 1.35667 0
M  V30 1391 H 129.596 -0.984141 4.05426 0
M  V30 1392 H 128.226 -1.29599 2.95642 0
M  V30 1393 H 127.278 1.01781 3.66531 0
M  V30 1394 H 128.59 1.12191 4.86019 0
M  V30 1395 H 127.744 -0.943435 5.9932 0
M  V30 1396 H 126.483 -1.13622 4.7428 0
M  V30 1397 H 125.488 1.07538 5.39181 0
M  V30 1398 H 126.713 1.25495 6.67404 0
M  V30 1399 H 124.659 -0.981198 6.4862 0
M  V30 1400 H 124.576 0.384364 7.55022 0
M  V30 1401 H 125.844 -0.787014 7.75517 0
M  V30 1402 N 130.073 -1.45103 0.615059 0
M  V30 1403 C 131.32 -2.02183 0.113179 0
M  V30 1404 C 131.648 -1.48249 -1.25906 0
M  V30 1405 O 130.903 -0.650265 -1.84581 0
M  V30 1406 C 131.202 -3.57386 0.0318797 0
M  V30 1407 C 130.868 -4.30505 1.34077 0
M  V30 1408 C 129.53 -4.50197 1.69929 0
M  V30 1409 C 131.882 -4.72238 2.20546 0
M  V30 1410 C 129.21 -5.08881 2.91988 0
M  V30 1411 C 131.562 -5.32272 3.41861 0
M  V30 1412 C 130.226 -5.50187 3.77956 0
M  V30 1413 H 129.496 -0.739842 0.0414151 0
M  V30 1414 H 132.143 -1.74073 0.798168 0
M  V30 1415 H 130.448 -3.84817 -0.736409 0
M  V30 1416 H 132.145 -3.99264 -0.372712 0
M  V30 1417 H 128.735 -4.15496 1.05173 0
M  V30 1418 H 132.919 -4.56751 1.94146 0
M  V30 1419 H 128.175 -5.20939 3.2005 0
M  V30 1420 H 132.349 -5.63563 4.09109 0
M  V30 1421 H 129.976 -5.95427 4.72622 0
M  V30 1422 N 131.551 -0.354651 -1.53558 0
M  V30 1423 C 132.798 0.238443 -2.01091 0
M  V30 1424 C 133.126 1.49663 -1.24222 0
M  V30 1425 O 132.381 1.93049 -0.321003 0
M  V30 1426 C 132.68 0.587121 -3.52545 0
M  V30 1427 C 132.346 -0.575472 -4.47213 0
M  V30 1428 C 131.008 -0.894497 -4.72813 0
M  V30 1429 C 133.36 -1.35489 -5.03281 0
M  V30 1430 C 130.688 -1.99511 -5.51736 0
M  V30 1431 C 133.04 -2.44583 -5.83405 0
M  V30 1432 C 131.704 -2.77033 -6.07296 0
M  V30 1433 H 130.974 0.0872526 -0.735845 0
M  V30 1434 H 133.621 -0.484859 -1.8526 0
M  V30 1435 H 131.926 1.39129 -3.66265 0
M  V30 1436 H 133.623 1.05809 -3.86789 0
M  V30 1437 H 130.213 -0.316774 -4.27428 0
M  V30 1438 H 134.397 -1.12167 -4.83459 0
M  V30 1439 H 129.653 -2.25063 -5.68469 0
M  V30 1440 H 133.827 -3.05401 -6.25862 0
M  V30 1441 H 131.454 -3.6244 -6.68237 0
M  V30 1442 N 133.029 1.57378 -0.0835403 0
M  V30 1443 C 133.959 2.1641 0.87686 0
M  V30 1444 C 134.94 1.09429 1.30228 0
M  V30 1445 O 136.125 1.37516 1.37124 0
M  V30 1446 C 133.255 2.73517 2.14022 0
M  V30 1447 C 132.209 3.85769 1.85381 0
M  V30 1448 C 131.535 4.29529 3.18448 0
M  V30 1449 C 132.835 5.09486 1.14984 0
M  V30 1450 H 134.529 2.96914 0.385059 0
M  V30 1451 H 132.075 1.42823 0.18377 0
M  V30 1452 H 134.028 3.13463 2.81636 0
M  V30 1453 H 132.752 1.90252 2.65465 0
M  V30 1454 H 131.411 3.46345 1.20169 0
M  V30 1455 H 131.059 3.43169 3.67755 0
M  V30 1456 H 130.759 5.05204 3.00071 0
M  V30 1457 H 132.283 4.72099 3.8724 0
M  V30 1458 H 133.697 5.46674 1.72687 0
M  V30 1459 H 132.094 5.90515 1.06826 0
M  V30 1460 H 133.164 4.84724 0.130749 0
M  V30 1461 N 134.507 -0.190092 1.56449 0
M  V30 1462 C 135.737 -0.92443 1.84764 0
M  V30 1463 C 136.145 -1.77146 0.664529 0
M  V30 1464 O 135.488 -1.79812 -0.375957 0
M  V30 1465 C 135.55 -1.86651 3.07248 0
M  V30 1466 C 135.214 -1.20094 4.40938 0
M  V30 1467 C 136.211 -0.575445 5.16706 0
M  V30 1468 C 133.896 -1.2033 4.87674 0
M  V30 1469 C 135.89 0.0388111 6.37388 0
M  V30 1470 C 133.577 -0.585214 6.08291 0
M  V30 1471 C 134.575 0.0347578 6.82991 0
M  V30 1472 O 134.263 0.643147 8.01323 0
M  V30 1473 H 133.995 -0.274974 0.617548 0
M  V30 1474 H 136.549 -0.200788 2.04416 0
M  V30 1475 H 134.779 -2.62998 2.83494 0
M  V30 1476 H 136.468 -2.46907 3.22167 0
M  V30 1477 H 137.234 -0.565728 4.81689 0
M  V30 1478 H 133.113 -1.67526 4.29484 0
M  V30 1479 H 136.657 0.523329 6.95634 0
M  V30 1480 H 132.554 -0.592451 6.42775 0
M  V30 1481 H 133.322 0.540545 8.16713 0
M  V30 1482 N 135.985 -1.50799 -0.457987 0
M  V30 1483 C 137.231 -1.62683 -1.21088 0
M  V30 1484 C 137.564 -0.332268 -1.91336 0
M  V30 1485 O 136.839 0.667043 -1.82704 0
M  V30 1486 C 137.122 -2.81615 -2.24422 0
M  V30 1487 C 136.975 -4.20989 -1.58392 0
M  V30 1488 C 138.294 -2.96085 -3.2561 0
M  V30 1489 H 135.413 -0.592087 -0.438864 0
M  V30 1490 H 138.055 -1.83225 -0.50286 0
M  V30 1491 H 136.205 -2.64231 -2.84806 0
M  V30 1492 H 137.877 -4.49994 -1.01504 0
M  V30 1493 H 136.12 -4.24641 -0.886704 0
M  V30 1494 H 136.791 -5.0016 -2.33547 0
M  V30 1495 H 139.267 -3.12042 -2.75262 0
M  V30 1496 H 138.143 -3.80902 -3.95228 0
M  V30 1497 H 138.404 -2.0726 -3.90507 0
M  V30 1498 N 137.463 0.71206 -1.40597 0
M  V30 1499 C 138.393 1.83889 -1.43899 0
M  V30 1500 C 139.374 1.67442 -0.299504 0
M  V30 1501 O 140.559 1.87421 -0.508624 0
M  V30 1502 C 137.689 3.21877 -1.30431 0
M  V30 1503 C 136.643 3.53002 -2.42019 0
M  V30 1504 C 135.969 4.90172 -2.13626 0
M  V30 1505 C 137.269 3.53643 -3.84362 0
M  V30 1506 H 138.963 1.81383 -2.38203 0
M  V30 1507 H 136.509 0.871237 -1.14654 0
M  V30 1508 H 138.462 4.00404 -1.31357 0
M  V30 1509 H 137.186 3.24968 -0.326049 0
M  V30 1510 H 135.845 2.76818 -2.40349 0
M  V30 1511 H 135.493 4.89869 -1.14182 0
M  V30 1512 H 135.193 5.11962 -2.88389 0
M  V30 1513 H 136.717 5.71028 -2.1624 0
M  V30 1514 H 138.131 4.22203 -3.87837 0
M  V30 1515 H 136.528 3.86961 -4.58673 0
M  V30 1516 H 137.598 2.52954 -4.13693 0
M  V30 1517 N 138.941 1.26152 0.944643 0
M  V30 1518 C 139.851 1.09176 2.07648 0
M  V30 1519 C 140.867 0.0261935 1.7398 0
M  V30 1520 O 142.043 0.229208 2.00091 0
M  V30 1521 C 139.108 0.722915 3.39079 0
M  V30 1522 C 138.169 1.86752 3.86552 0
M  V30 1523 C 137.402 1.51617 5.11711 0
M  V30 1524 O 137.625 0.416331 5.68879 0
M  V30 1525 O 136.559 2.34975 5.54139 0
M  V30 1526 H 140.385 2.0412 2.24875 0
M  V30 1527 H 137.97 1.05182 1.061 0
M  V30 1528 H 139.852 0.529787 4.18056 0
M  V30 1529 H 138.527 -0.197159 3.23099 0
M  V30 1530 H 137.434 2.11558 3.08535 0
M  V30 1531 H 138.767 2.76719 4.07047 0
M  V30 1532 N 140.419 -1.14872 1.07899 0
M  V30 1533 C 141.644 -1.90202 0.826926 0
M  V30 1534 C 142.069 -1.77774 -0.614664 0
M  V30 1535 O 141.427 -1.11431 -1.43013 0
M  V30 1536 C 141.475 -3.38352 1.24702 0
M  V30 1537 O 140.579 -4.10497 0.39575 0
M  V30 1538 H 139.92 -0.591968 0.300782 0
M  V30 1539 H 142.45 -1.45437 1.43907 0
M  V30 1540 H 142.46 -3.89156 1.22563 0
M  V30 1541 H 141.135 -3.46715 2.29698 0
M  V30 1542 H 139.712 -3.69796 0.480117 0
M  V30 1543 N 141.898 -0.863906 -1.31812 0
M  V30 1544 C 142.828 -0.330843 -2.31144 0
M  V30 1545 C 143.809 0.575005 -1.60087 0
M  V30 1546 O 144.994 0.493304 -1.8783 0
M  V30 1547 C 142.124 0.47374 -3.44054 0
M  V30 1548 C 141.078 -0.338481 -4.26659 0
M  V30 1549 C 140.404 0.591412 -5.31419 0
M  V30 1550 C 141.704 -1.56926 -4.98168 0
M  V30 1551 H 143.398 -1.16086 -2.75979 0
M  V30 1552 H 140.944 -0.559657 -1.32679 0
M  V30 1553 H 142.897 0.857143 -4.12591 0
M  V30 1554 H 141.621 1.33721 -2.9797 0
M  V30 1555 H 140.28 -0.703754 -3.59782 0
M  V30 1556 H 139.928 1.45199 -4.81587 0
M  V30 1557 H 139.628 0.0519022 -5.87577 0
M  V30 1558 H 141.152 0.97179 -6.02817 0
M  V30 1559 H 142.566 -1.25764 -5.59336 0
M  V30 1560 H 140.963 -2.04739 -5.64094 0
M  V30 1561 H 142.033 -2.32544 -4.25501 0
M  V30 1562 N 143.376 1.44774 -0.622745 0
M  V30 1563 C 144.787 1.85546 -0.207226 0
M  V30 1564 C 145.138 1.52093 1.23944 0
M  V30 1565 O 144.263 0.95492 1.94191 0
M  V30 1566 C 144.858 3.36781 -0.369313 0
M  V30 1567 C 143.417 3.76399 -0.00836847 0
M  V30 1568 C 142.564 2.68664 -0.686651 0
M  V30 1569 H 145.515 1.3536 -0.828454 0
M  V30 1570 H 145.536 3.78453 0.394162 0
M  V30 1571 H 145.048 3.61098 -1.42231 0
M  V30 1572 H 143.149 3.57698 1.04322 0
M  V30 1573 H 143.262 4.7732 -0.412584 0
M  V30 1574 H 141.626 2.54404 -0.122777 0
M  V30 1575 H 142.409 2.95815 -1.74208 0
M  V30 1576 N 144.854 0.36279 1.53368 0
M  V30 1577 C 146.079 -0.231226 2.06107 0
M  V30 1578 C 146.504 -1.419 1.23474 0
M  V30 1579 O 145.862 -1.79524 0.253128 0
M  V30 1580 C 145.91 -0.605523 3.5548 0
M  V30 1581 O 145.014 -1.70312 3.7559 0
M  V30 1582 H 144.355 -0.034327 0.663112 0
M  V30 1583 H 146.885 0.522584 1.97814 0
M  V30 1584 H 146.895 -0.877314 3.98456 0
M  V30 1585 H 145.57 0.263004 4.15068 0
M  V30 1586 H 144.147 -1.4271 3.44512 0
M  V30 1587 N 146.332 -1.57332 0.0918853 0
M  V30 1588 C 147.743 -1.81496 -0.437739 0
M  V30 1589 C 148.094 -1.00727 -1.6837 0
M  V30 1590 O 147.219 -0.235694 -2.15113 0
M  V30 1591 C 147.814 -3.29197 -0.800939 0
M  V30 1592 C 146.373 -3.54136 -1.27532 0
M  V30 1593 C 145.52 -2.75979 -0.270392 0
M  V30 1594 H 148.471 -1.55494 0.317366 0
M  V30 1595 H 148.492 -3.42344 -1.66074 0
M  V30 1596 H 148.004 -3.87955 0.106078 0
M  V30 1597 H 146.105 -3.00705 -2.20016 0
M  V30 1598 H 146.218 -4.62792 -1.23938 0
M  V30 1599 H 144.582 -2.43349 -0.751872 0
M  V30 1600 H 145.365 -3.37484 0.629248 0
M  V30 1601 N 147.81 0.181792 -1.56548 0
M  V30 1602 C 149.038 0.915947 -1.85521 0
M  V30 1603 C 149.453 1.76282 -0.676016 0
M  V30 1604 O 148.81 1.79012 0.355077 0
M  V30 1605 C 148.861 1.80126 -3.13427 0
M  V30 1606 O 148.582 0.988562 -4.26801 0
M  V30 1607 C 150.083 2.64597 -3.55673 0
M  V30 1608 H 147.303 0.26661 -0.61576 0
M  V30 1609 H 149.847 0.185039 -2.03661 0
M  V30 1610 H 148.002 2.48563 -2.97145 0
M  V30 1611 H 148.416 1.59308 -4.99721 0
M  V30 1612 H 149.89 3.2235 -4.48101 0
M  V30 1613 H 150.367 3.38958 -2.79292 0
M  V30 1614 H 150.973 2.0151 -3.74532 0
M  V30 1615 N 149.288 1.51039 0.449983 0
M  V30 1616 C 150.218 1.74379 1.55288 0
M  V30 1617 C 151.199 0.593236 1.5942 0
M  V30 1618 O 152.384 0.834625 1.7535 0
M  V30 1619 C 149.514 1.85728 2.93466 0
M  V30 1620 C 148.468 3.01078 3.04197 0
M  V30 1621 C 147.794 2.97595 4.44231 0
M  V30 1622 C 149.094 4.41254 2.7945 0
M  V30 1623 H 150.788 2.66725 1.36008 0
M  V30 1624 H 148.334 1.2835 0.652864 0
M  V30 1625 H 150.287 2.0064 3.70569 0
M  V30 1626 H 149.011 0.900207 3.13949 0
M  V30 1627 H 147.67 2.85851 2.29531 0
M  V30 1628 H 147.318 1.99691 4.61663 0
M  V30 1629 H 147.018 3.75046 4.52343 0
M  V30 1630 H 148.542 3.14583 5.23326 0
M  V30 1631 H 149.956 4.56897 3.46292 0
M  V30 1632 H 148.353 5.20315 2.98985 0
M  V30 1633 H 149.423 4.52164 1.75144 0
M  V30 1634 N 150.766 -0.704594 1.40972 0
M  V30 1635 C 151.994 -1.49354 1.43182 0
M  V30 1636 C 152.409 -1.88768 0.0345508 0
M  V30 1637 O 151.766 -1.56184 -0.944081 0
M  V30 1638 C 151.817 -2.76187 2.33244 0
M  V30 1639 O 151.538 -2.38436 3.67532 0
M  V30 1640 C 153.039 -3.7 2.44162 0
M  V30 1641 H 150.259 -0.460559 0.487982 0
M  V30 1642 H 152.803 -0.868261 1.85153 0
M  V30 1643 H 150.958 -3.34974 1.94606 0
M  V30 1644 H 151.372 -3.20126 4.15475 0
M  V30 1645 H 152.846 -4.55803 3.11364 0
M  V30 1646 H 153.323 -4.13867 1.47006 0
M  V30 1647 H 153.929 -3.17121 2.83398 0
M  V30 1648 N 152.244 -1.26651 -0.937939 0
M  V30 1649 C 153.484 -1.13611 -1.69917 0
M  V30 1650 C 153.848 0.314687 -1.89404 0
M  V30 1651 O 155.049 0.567285 -2.62746 0
M  V30 1652 C 153.32 -1.88742 -3.03498 0
M  V30 1653 S 154.879 -1.91794 -3.94665 0
M  V30 1654 H 151.697 -0.405767 -0.583844 0
M  V30 1655 H 154.299 -1.60416 -1.11745 0
M  V30 1656 H 153.003 -2.9336 -2.86999 0
M  V30 1657 H 152.534 -1.42391 -3.66727 0
M  V30 1658 H 154.549 -1.00698 -4.85875 0
M  V30 1659 N 153.722 1.14298 -1.08507 0
M  V30 1660 C 154.685 2.17607 -0.719711 0
M  V30 1661 C 155.685 1.58907 0.245997 0
M  V30 1662 O 156.875 1.74181 0.0254081 0
M  V30 1663 C 154.007 3.40842 -0.0627695 0
M  V30 1664 H 155.2 2.51443 -1.63452 0
M  V30 1665 H 152.753 1.28963 -0.88307 0
M  V30 1666 H 153.488 3.12587 0.863716 0
M  V30 1667 H 153.273 3.84713 -0.757504 0
M  V30 1668 H 154.763 4.17221 0.177786 0
M  V30 1669 N 155.201 0.870884 1.31352 0
M  V30 1670 C 156.131 0.343096 2.30966 0
M  V30 1671 C 157.112 -0.566507 1.60389 0
M  V30 1672 O 158.297 -0.483336 1.88089 0
M  V30 1673 C 155.427 -0.455487 3.443 0
M  V30 1674 C 154.381 0.361103 4.26474 0
M  V30 1675 C 153.707 -0.563221 5.31725 0
M  V30 1676 C 155.007 1.59566 4.97329 0
M  V30 1677 H 156.701 1.17548 2.75359 0
M  V30 1678 H 154.247 0.566686 1.32381 0
M  V30 1679 H 156.2 -0.83525 4.13039 0
M  V30 1680 H 154.924 -1.32139 2.98675 0
M  V30 1681 H 153.583 0.722825 3.59403 0
M  V30 1682 H 153.231 -1.42643 4.82351 0
M  V30 1683 H 152.931 -0.0207409 5.87596 0
M  V30 1684 H 154.455 -0.939808 6.03324 0
M  V30 1685 H 155.869 1.28728 5.58661 0
M  V30 1686 H 154.266 2.07728 5.63 0
M  V30 1687 H 155.336 2.34798 4.24262 0
M  V30 1688 N 156.679 -1.44442 0.630414 0
M  V30 1689 C 157.907 -2.06414 0.141671 0
M  V30 1690 C 158.322 -1.47105 -1.18345 0
M  V30 1691 O 157.679 -0.593662 -1.72574 0
M  V30 1692 C 157.73 -3.61494 0.0199784 0
M  V30 1693 O 157.451 -4.18594 1.29269 0
M  V30 1694 C 158.952 -4.40499 -0.497544 0
M  V30 1695 H 156.172 -0.666292 0.0793452 0
M  V30 1696 H 158.716 -1.85323 0.864614 0
M  V30 1697 H 156.871 -3.8185 -0.653402 0
M  V30 1698 H 157.285 -5.12026 1.13707 0
M  V30 1699 H 158.759 -5.49433 -0.531708 0
M  V30 1700 H 159.236 -4.11895 -1.52445 0
M  V30 1701 H 159.842 -4.25061 0.142562 0
M  V30 1702 N 158.157 -0.370918 -1.53173 0
M  V30 1703 C 159.105 0.488101 -2.27421 0
M  V30 1704 C 160.099 1.07884 -1.30604 0
M  V30 1705 O 161.305 1.02143 -1.48212 0
M  V30 1706 H 157.68 0.176134 -0.731082 0
M  V30 1707 H 159.651 -0.159815 -2.97972 0
M  V30 1708 C 158.4 1.61306 -3.08019 0
M  V30 1709 H 157.723 1.1678 -3.82364 0
M  V30 1710 H 159.163 2.18872 -3.63141 0
M  V30 1711 C 157.622 2.55848 -2.19188 0
M  V30 1712 O 158.152 3.58799 -1.80626 0
M  V30 1713 N 156.358 2.2516 -1.83715 0
M  V30 1714 H 155.905 1.41476 -2.15273 0
M  V30 1715 H 155.863 2.8867 -1.24567 0
M  V30 1716 N 159.635 1.57281 -0.100228 0
M  V30 1717 C 160.883 1.94153 0.561157 0
M  V30 1718 C 161.204 0.983157 1.68401 0
M  V30 1719 O 160.474 0.0361132 1.95867 0
M  V30 1720 H 159.054 0.716791 0.210283 0
M  V30 1721 H 161.716 1.94202 -0.164765 0
M  V30 1722 H 160.812 2.96709 0.968008 0
M  V30 1723 N 161.113 -0.173488 1.56642 0
M  V30 1724 C 162.338 -0.910149 1.86363 0
M  V30 1725 C 162.763 -1.75132 0.686318 0
M  V30 1726 O 162.121 -1.77595 -0.364643 0
M  V30 1727 C 162.169 -1.76447 3.14482 0
M  V30 1728 O 161.273 -2.86584 2.96553 0
M  V30 1729 H 160.614 -0.255086 0.613047 0
M  V30 1730 H 163.144 -0.172283 2.03873 0
M  V30 1731 H 163.154 -2.16483 3.45831 0
M  V30 1732 H 161.829 -1.14658 3.99783 0
M  V30 1733 H 160.406 -2.50146 2.76553 0
M  V30 1734 N 162.591 -1.51276 -0.441967 0
M  V30 1735 C 163.84 -1.6295 -1.18871 0
M  V30 1736 C 164.153 -0.349312 -1.92456 0
M  V30 1737 O 165.359 -0.345355 -2.69295 0
M  V30 1738 C 163.815 -2.87759 -2.16155 0
M  V30 1739 C 163.423 -4.22764 -1.48239 0
M  V30 1740 C 165.167 -3.08788 -2.91291 0
M  V30 1741 C 163.074 -5.38728 -2.4398 0
M  V30 1742 H 162.004 -0.606913 -0.447406 0
M  V30 1743 H 164.655 -1.77739 -0.456205 0
M  V30 1744 H 163.037 -2.66593 -2.92821 0
M  V30 1745 H 164.211 -4.54293 -0.771635 0
M  V30 1746 H 162.526 -4.07575 -0.852741 0
M  V30 1747 H 165.123 -3.92599 -3.63002 0
M  V30 1748 H 165.466 -2.21679 -3.5237 0
M  V30 1749 H 165.999 -3.30272 -2.21733 0
M  V30 1750 H 162.738 -6.28082 -1.87598 0
M  V30 1751 H 162.258 -5.1158 -3.13123 0
M  V30 1752 H 163.937 -5.70489 -3.05207 0
M  V30 1753 N 164.069 0.697108 -1.41344 0
M  V30 1754 C 164.979 1.84088 -1.45427 0
M  V30 1755 C 165.995 1.70545 -0.34501 0
M  V30 1756 O 167.171 1.92488 -0.592492 0
M  V30 1757 C 164.236 3.20056 -1.33286 0
M  V30 1758 C 163.297 3.45718 -2.54514 0
M  V30 1759 C 162.53 4.75199 -2.42944 0
M  V30 1760 O 162.753 5.51579 -1.45318 0
M  V30 1761 O 161.687 5.0161 -3.32672 0
M  V30 1762 H 165.513 1.836 -2.41919 0
M  V30 1763 H 163.098 0.849966 -1.22866 0
M  V30 1764 H 164.98 4.01236 -1.28794 0
M  V30 1765 H 163.655 3.2123 -0.39909 0
M  V30 1766 H 162.562 2.64474 -2.64583 0
M  V30 1767 H 163.895 3.49356 -3.46715 0
M  V30 1768 N 165.547 1.27147 0.931209 0
M  V30 1769 C 166.793 1.13446 1.68101 0
M  V30 1770 C 167.126 -0.319628 1.91552 0
M  V30 1771 O 166.401 -1.23407 1.50336 0
M  V30 1772 C 166.684 1.91482 3.0497 0
M  V30 1773 C 166.537 3.44855 2.88782 0
M  V30 1774 C 167.856 1.71651 4.05246 0
M  V30 1775 H 164.975 0.413498 0.610072 0
M  V30 1776 H 167.617 1.56261 1.08086 0
M  V30 1777 H 165.767 1.55095 3.56199 0
M  V30 1778 H 167.439 3.9105 2.44698 0
M  V30 1779 H 165.682 3.71373 2.24198 0
M  V30 1780 H 166.353 3.94694 3.85902 0
M  V30 1781 H 168.829 2.0337 3.63015 0
M  V30 1782 H 167.705 2.28651 4.99009 0
M  V30 1783 H 167.966 0.663555 4.37092 0
M  V30 1784 N 167.025 -1.13721 1.09112 0
M  V30 1785 C 167.957 -2.1871 0.685467 0
M  V30 1786 C 168.97 -1.60527 -0.271068 0
M  V30 1787 O 170.159 -1.78407 -0.0576148 0
M  V30 1788 C 167.259 -3.38898 -0.0111255 0
M  V30 1789 C 166.432 -4.26597 0.966131 0
M  V30 1790 C 165.491 -5.25324 0.303539 0
M  V30 1791 O 164.517 -5.61213 0.950177 0
M  V30 1792 N 165.719 -5.72779 -0.943651 0
M  V30 1793 H 168.484 -2.54126 1.58871 0
M  V30 1794 H 166.045 -1.29012 0.978143 0
M  V30 1795 H 168.037 -4.02014 -0.465517 0
M  V30 1796 H 166.607 -3.01747 -0.816565 0
M  V30 1797 H 165.827 -3.60306 1.59917 0
M  V30 1798 H 167.115 -4.82048 1.6281 0
M  V30 1799 H 166.513 -5.45762 -1.48862 0
M  V30 1800 H 165.07 -6.37847 -1.34142 0
M  V30 1801 N 168.503 -0.877838 -1.30888 0
M  V30 1802 C 169.743 -0.499301 -1.98208 0
M  V30 1803 C 170.107 0.932649 -1.67826 0
M  V30 1804 O 171.308 1.41694 -2.28421 0
M  V30 1805 C 169.579 -0.758221 -3.49265 0
M  V30 1806 S 171.138 -0.480719 -4.36159 0
M  V30 1807 H 167.956 -0.186062 -0.686223 0
M  V30 1808 H 170.558 -1.13556 -1.59139 0
M  V30 1809 H 169.262 -1.79903 -3.68867 0
M  V30 1810 H 168.793 -0.109247 -3.93248 0
M  V30 1811 H 170.808 0.683698 -4.91467 0
M  V30 1812 N 169.982 1.44106 -0.638065 0
M  V30 1813 C 170.915 2.27924 0.112161 0
M  V30 1814 C 171.893 1.38945 0.844574 0
M  V30 1815 O 173.077 1.68386 0.847248 0
M  V30 1816 C 170.204 3.18029 1.16512 0
M  V30 1817 C 169.25 4.23163 0.532458 0
M  V30 1818 S 170.083 5.31131 -0.682666 0
M  V30 1819 C 171.239 6.24805 0.37013 0
M  V30 1820 H 171.472 2.91205 -0.598887 0
M  V30 1821 H 169.005 1.48394 -0.426441 0
M  V30 1822 H 170.963 3.70492 1.76766 0
M  V30 1823 H 169.624 2.53955 1.8484 0
M  V30 1824 H 168.817 4.86252 1.32571 0
M  V30 1825 H 168.419 3.74 0.00437644 0
M  V30 1826 H 170.711 6.66042 1.24071 0
M  V30 1827 H 171.654 7.07741 -0.225349 0
M  V30 1828 H 172.062 5.60154 0.699141 0
M  V30 1829 N 171.46 0.379036 1.52974 0
M  V30 1830 C 172.709 -0.207612 2.00629 0
M  V30 1831 C 173.022 -1.48758 1.27006 0
M  V30 1832 O 174.228 -2.15365 1.65318 0
M  V30 1833 C 172.684 -0.42053 3.57435 0
M  V30 1834 C 172.292 0.845587 4.39948 0
M  V30 1835 C 174.036 -0.964102 4.13407 0
M  V30 1836 C 171.943 0.601513 5.88333 0
M  V30 1837 H 170.873 -0.0813591 0.749598 0
M  V30 1838 H 173.524 0.499853 1.76561 0
M  V30 1839 H 171.906 -1.18959 3.7771 0
M  V30 1840 H 173.08 1.61848 4.31442 0
M  V30 1841 H 171.395 1.31336 3.95145 0
M  V30 1842 H 173.992 -1.16225 5.21916 0
M  V30 1843 H 174.335 -1.93019 3.68849 0
M  V30 1844 H 174.868 -0.25487 3.96983 0
M  V30 1845 H 171.607 1.53831 6.37194 0
M  V30 1846 H 171.127 -0.132628 5.99653 0
M  V30 1847 H 172.806 0.232134 6.46583 0
M  V30 1848 N 172.938 -1.57226 0.108567 0
M  V30 1849 C 174.349 -1.8195 -0.418464 0
M  V30 1850 C 174.7 -1.02508 -1.67292 0
M  V30 1851 O 173.825 -0.258496 -2.14851 0
M  V30 1852 C 174.42 -3.30028 -0.765979 0
M  V30 1853 C 172.979 -3.55469 -1.23769 0
M  V30 1854 C 172.126 -2.7625 -0.241106 0
M  V30 1855 H 175.077 -1.55149 0.33384 0
M  V30 1856 H 175.098 -3.44086 -1.62434 0
M  V30 1857 H 174.61 -3.87821 0.147219 0
M  V30 1858 H 172.711 -3.03022 -2.16814 0
M  V30 1859 H 172.824 -4.6408 -1.19022 0
M  V30 1860 H 171.188 -2.44133 -0.72602 0
M  V30 1861 H 171.971 -3.36797 0.665007 0
M  V30 1862 N 174.416 0.165178 -1.56732 0
M  V30 1863 C 175.326 1.22423 -2.00125 0
M  V30 1864 C 176.342 1.48084 -0.913619 0
M  V30 1865 O 177.518 1.60112 -1.22172 0
M  V30 1866 C 174.583 2.54197 -2.35764 0
M  V30 1867 C 173.644 2.36343 -3.58386 0
M  V30 1868 C 172.877 3.61834 -3.92316 0
M  V30 1869 O 173.1 4.67267 -3.27135 0
M  V30 1870 O 172.034 3.55579 -4.85641 0
M  V30 1871 H 175.86 0.885886 -2.90492 0
M  V30 1872 H 173.445 0.372518 -1.44681 0
M  V30 1873 H 175.327 3.3192 -2.59629 0
M  V30 1874 H 174.002 2.87598 -1.48557 0
M  V30 1875 H 172.909 1.56632 -3.39731 0
M  V30 1876 H 174.242 2.07865 -4.46154 0
M  V30 1877 N 175.894 1.51508 0.433938 0
M  V30 1878 C 176.844 1.69451 1.52546 0
M  V30 1879 C 177.828 0.548474 1.51263 0
M  V30 1880 O 179.02 0.804529 1.57659 0
M  V30 1881 C 176.149 1.82604 2.90707 0
M  V30 1882 C 175.235 3.03002 2.96733 0
M  V30 1883 N 175.626 4.26121 2.72496 0
M  V30 1884 C 173.924 3.02327 3.27894 0
M  V30 1885 C 174.625 5.07407 2.84452 0
M  V30 1886 N 173.601 4.42126 3.16269 0
M  V30 1887 H 177.403 2.62305 1.32564 0
M  V30 1888 H 174.917 1.49202 0.641297 0
M  V30 1889 H 176.914 1.93569 3.69238 0
M  V30 1890 H 175.574 0.909339 3.11707 0
M  V30 1891 H 176.585 4.55009 2.4736 0
M  V30 1892 H 173.262 2.20301 3.54646 0
M  V30 1893 H 174.652 6.15422 2.69639 0
M  V30 1894 N 177.372 -0.689602 1.41712 0
M  V30 1895 C 178.602 -1.47613 1.44548 0
M  V30 1896 C 179.01 -1.89132 0.0509034 0
M  V30 1897 O 178.353 -1.57741 -0.94146 0
M  V30 1898 C 178.415 -2.76596 2.2964 0
M  V30 1899 C 178.079 -2.57245 3.77722 0
M  V30 1900 C 179.076 -2.22804 4.69739 0
M  V30 1901 C 176.761 -2.727 4.2183 0
M  V30 1902 C 178.755 -2.04064 6.03851 0
M  V30 1903 C 176.442 -2.53576 5.56006 0
M  V30 1904 C 177.44 -2.1931 6.46832 0
M  V30 1905 O 177.128 -2.00359 7.78532 0
M  V30 1906 H 176.86 -0.461227 0.494212 0
M  V30 1907 H 179.414 -0.856045 1.86711 0
M  V30 1908 H 177.644 -3.41033 1.82301 0
M  V30 1909 H 179.333 -3.38424 2.24107 0
M  V30 1910 H 180.099 -2.10473 4.36951 0
M  V30 1911 H 175.978 -2.98353 3.51435 0
M  V30 1912 H 179.522 -1.77241 6.74708 0
M  V30 1913 H 175.419 -2.65499 5.88371 0
M  V30 1914 H 176.187 -2.15075 7.89737 0
M  V30 1915 N 178.85 -1.27639 -0.924453 0
M  V30 1916 C 179.798 -1.10485 -2.04685 0
M  V30 1917 C 180.792 -0.0270421 -1.69378 0
M  V30 1918 O 181.998 -0.185008 -1.79047 0
M  V30 1919 H 178.373 -0.340546 -0.670472 0
M  V30 1920 H 180.344 -2.05566 -2.16298 0
M  V30 1921 C 179.093 -0.772229 -3.39016 0
M  V30 1922 H 178.416 -1.59351 -3.66671 0
M  V30 1923 H 179.856 -0.692097 -4.18313 0
M  V30 1924 C 178.315 0.523554 -3.32807 0
M  V30 1925 O 178.845 1.55702 -3.70297 0
M  V30 1926 N 177.051 0.520363 -2.85903 0
M  V30 1927 H 176.598 -0.32107 -2.55591 0
M  V30 1928 H 176.556 1.38742 -2.82131 0
M  V30 1929 N 180.328 1.1314 -1.09713 0
M  V30 1930 C 181.553 1.88862 -0.857081 0
M  V30 1931 C 181.978 1.78729 0.586304 0
M  V30 1932 O 181.336 1.13692 1.41222 0
M  V30 1933 C 181.384 3.36325 -1.30069 0
M  V30 1934 O 180.488 4.09815 -0.461007 0
M  V30 1935 H 179.829 0.587108 -0.310162 0
M  V30 1936 H 182.359 1.43129 -1.46203 0
M  V30 1937 H 182.369 3.87157 -1.28738 0
M  V30 1938 H 181.044 3.43017 -2.35185 0
M  V30 1939 H 179.621 3.68986 -0.538888 0
M  V30 1940 N 181.806 0.884767 1.30421 0
M  V30 1941 C 182.756 0.322846 2.25703 0
M  V30 1942 C 183.74 -0.548582 1.51259 0
M  V30 1943 O 184.932 -0.39304 1.72581 0
M  V30 1944 C 182.061 -0.461787 3.4018 0
M  V30 1945 C 181.147 0.423717 4.21978 0
M  V30 1946 N 181.538 1.52408 4.82292 0
M  V30 1947 C 179.836 0.218795 4.45463 0
M  V30 1948 C 180.537 2.07136 5.43571 0
M  V30 1949 N 179.513 1.36635 5.26148 0
M  V30 1950 H 183.315 1.16363 2.69883 0
M  V30 1951 H 180.829 0.73415 1.44859 0
M  V30 1952 H 182.826 -0.880985 4.07485 0
M  V30 1953 H 181.486 -1.30001 2.9754 0
M  V30 1954 H 182.497 1.90693 4.81515 0
M  V30 1955 H 179.174 -0.582275 4.1342 0
M  V30 1956 H 180.564 2.99538 6.01437 0
M  V30 1957 N 183.284 -1.43765 0.645699 0
M  V30 1958 C 184.7 -1.56509 0.312591 0
M  V30 1959 C 184.9 -1.6307 -1.18365 0
M  V30 1960 O 183.956 -1.58167 -1.96824 0
M  V30 1961 C 185.269 -2.82968 1.01733 0
M  V30 1962 C 186.817 -2.96701 0.996865 0
M  V30 1963 C 187.292 -4.25982 1.68236 0
M  V30 1964 N 188.783 -4.32829 1.64964 0
M  V30 1965 C 189.518 -5.31613 2.14885 0
M  V30 1966 N 189.014 -6.36718 2.73061 0
M  V30 1967 N 190.807 -5.23217 2.05428 0
M  V30 1968 H 182.958 -1.3775 1.61675 0
M  V30 1969 H 185.221 -0.661067 0.679481 0
M  V30 1970 H 184.927 -2.84156 2.0724 0
M  V30 1971 H 184.801 -3.72957 0.564177 0
M  V30 1972 H 187.188 -2.95058 -0.0497719 0
M  V30 1973 H 187.269 -2.08022 1.48865 0
M  V30 1974 H 186.913 -4.28386 2.72852 0
M  V30 1975 H 186.843 -5.13545 1.16529 0
M  V30 1976 H 189.334 -3.57493 1.22503 0
M  V30 1977 H 189.647 -7.08401 3.08848 0
M  V30 1978 H 187.992 -6.37362 2.77118 0
M  V30 1979 H 191.183 -4.40019 1.59689 0
M  V30 1980 H 191.356 -6.00045 2.44643 0
M  V30 1981 N 184.763 -0.387143 -1.52771 0
M  V30 1982 C 186.011 0.195349 -2.01154 0
M  V30 1983 C 186.332 1.475 -1.27549 0
M  V30 1984 O 185.602 1.91878 -0.394924 0
M  V30 1985 H 184.182 0.075178 -0.743207 0
M  V30 1986 H 186.844 -0.518337 -1.87881 0
M  V30 1987 H 185.94 0.407096 -3.09434 0
M  V30 1988 N 186.241 1.57166 -0.116904 0
M  V30 1989 C 187.171 2.18222 0.830759 0
M  V30 1990 C 188.152 1.12167 1.27877 0
M  V30 1991 O 189.337 1.40394 1.34176 0
M  V30 1992 C 186.467 2.77996 2.08172 0
M  V30 1993 C 185.421 3.89614 1.77157 0
M  V30 1994 C 184.747 4.36187 3.09265 0
M  V30 1995 C 186.047 5.1181 1.04151 0
M  V30 1996 H 187.741 2.97664 0.321992 0
M  V30 1997 H 185.287 1.4318 0.153434 0
M  V30 1998 H 187.24 3.19366 2.74924 0
M  V30 1999 H 185.964 1.9584 2.6137 0
M  V30 2000 H 184.623 3.48816 1.12796 0
M  V30 2001 H 184.271 3.50893 3.60393 0
M  V30 2002 H 183.971 5.11455 2.89288 0
M  V30 2003 H 185.495 4.80207 3.77139 0
M  V30 2004 H 186.909 5.50214 1.61052 0
M  V30 2005 H 185.306 5.92648 0.942762 0
M  V30 2006 H 186.376 4.84892 0.0279022 0
M  V30 2007 N 187.719 -0.156864 1.56817 0
M  V30 2008 C 188.968 -0.869504 1.81996 0
M  V30 2009 C 189.281 -1.82777 0.696545 0
M  V30 2010 O 190.487 -2.58384 0.833658 0
M  V30 2011 C 188.943 -1.59679 3.22538 0
M  V30 2012 C 188.551 -0.681431 4.42787 0
M  V30 2013 C 190.295 -2.2968 3.56997 0
M  V30 2014 C 188.202 -1.40978 5.74351 0
M  V30 2015 H 187.132 -0.328438 0.678708 0
M  V30 2016 H 189.783 -0.1223 1.83092 0
M  V30 2017 H 188.165 -2.38927 3.158 0
M  V30 2018 H 189.339 0.0751166 4.60739 0
M  V30 2019 H 187.654 -0.0903431 4.16302 0
M  V30 2020 H 190.251 -2.84794 4.52544 0
M  V30 2021 H 190.594 -3.05707 2.82576 0
M  V30 2022 H 191.127 -1.57361 3.65352 0
M  V30 2023 H 187.866 -0.691561 6.51842 0
M  V30 2024 H 187.386 -2.13929 5.60352 0
M  V30 2025 H 189.065 -1.95337 6.16808 0
M  V30 2026 N 189.197 -1.51736 -0.425897 0
M  V30 2027 C 190.13 -1.68574 -1.53812 0
M  V30 2028 C 191.108 -0.53328 -1.53606 0
M  V30 2029 O 192.292 -0.758555 -1.72564 0
M  V30 2030 C 189.419 -1.70977 -2.92377 0
M  V30 2031 C 188.465 -2.92324 -3.10563 0
M  V30 2032 S 189.298 -4.52952 -2.85648 0
M  V30 2033 C 190.454 -4.58117 -4.26474 0
M  V30 2034 H 190.687 -2.62647 -1.39298 0
M  V30 2035 H 188.22 -1.41564 -0.616361 0
M  V30 2036 H 190.178 -1.73047 -3.72243 0
M  V30 2037 H 188.839 -0.78061 -3.04245 0
M  V30 2038 H 188.032 -2.90439 -4.11899 0
M  V30 2039 H 187.634 -2.88055 -2.38538 0
M  V30 2040 H 189.926 -4.34462 -5.19855 0
M  V30 2041 H 190.869 -5.59983 -4.33388 0
M  V30 2042 H 191.277 -3.8732 -4.10662 0
M  V30 2043 N 190.675 0.682077 -1.42076 0
M  V30 2044 C 191.905 1.46844 -1.45329 0
M  V30 2045 C 192.313 1.89102 -0.0609328 0
M  V30 2046 O 191.656 1.58238 0.933082 0
M  V30 2047 C 191.718 2.75375 -2.31104 0
M  V30 2048 C 191.382 2.55238 -3.79081 0
M  V30 2049 C 192.379 2.20309 -4.70914 0
M  V30 2050 C 190.064 2.70459 -4.2327 0
M  V30 2051 C 192.058 2.00859 -6.04925 0
M  V30 2052 C 189.745 2.50624 -5.57343 0
M  V30 2053 C 190.743 2.15876 -6.47986 0
M  V30 2054 O 190.431 1.96227 -7.79583 0
M  V30 2055 H 190.163 0.4586 -0.496651 0
M  V30 2056 H 192.717 0.846131 -1.87162 0
M  V30 2057 H 190.947 3.40061 -1.84107 0
M  V30 2058 H 192.636 3.37231 -2.25898 0
M  V30 2059 H 193.402 2.08153 -4.38061 0
M  V30 2060 H 189.281 2.96485 -3.53012 0
M  V30 2061 H 192.825 1.7366 -6.75639 0
M  V30 2062 H 188.722 2.62375 -5.89771 0
M  V30 2063 H 189.49 2.10883 -7.90867 0
M  V30 2064 N 192.153 1.28127 0.917671 0
M  V30 2065 C 193.378 1.18007 1.70555 0
M  V30 2066 C 193.803 -0.258257 1.86319 0
M  V30 2067 O 193.161 -1.1869 1.37049 0
M  V30 2068 C 193.209 1.87948 3.07746 0
M  V30 2069 O 192.313 1.18427 3.9503 0
M  V30 2070 H 191.654 0.409867 0.522403 0
M  V30 2071 H 194.184 1.69379 1.1477 0
M  V30 2072 H 194.194 1.95701 3.58001 0
M  V30 2073 H 192.869 2.92573 2.95591 0
M  V30 2074 H 191.446 1.18811 3.53466 0
M  V30 2075 N 193.631 -1.12557 1.10312 0
M  V30 2076 C 194.877 -1.84515 0.855901 0
M  V30 2077 C 195.232 -1.82409 -0.611936 0
M  V30 2078 O 194.525 -1.25778 -1.44535 0
M  V30 2079 C 194.719 -3.31462 1.33669 0
M  V30 2080 C 194.548 -3.47879 2.84974 0
M  V30 2081 C 193.318 -3.61589 3.52961 0
M  V30 2082 C 195.516 -3.43152 3.83081 0
M  V30 2083 N 193.498 -3.66359 4.926 0
M  V30 2084 C 194.869 -3.54401 5.08724 0
M  V30 2085 C 196.924 -3.2661 3.75807 0
M  V30 2086 C 195.627 -3.50815 6.2795 0
M  V30 2087 C 197.653 -3.24335 4.94531 0
M  V30 2088 C 197.015 -3.36144 6.19021 0
M  V30 2089 H 193.114 -0.690967 0.366182 0
M  V30 2090 H 195.698 -1.34763 1.40524 0
M  V30 2091 H 193.869 -3.7976 0.814686 0
M  V30 2092 H 195.601 -3.91272 1.03385 0
M  V30 2093 H 192.356 -3.63652 3.03404 0
M  V30 2094 H 192.78 -3.72411 5.65366 0
M  V30 2095 H 197.422 -3.16375 2.80476 0
M  V30 2096 H 195.14 -3.5982 7.23571 0
M  V30 2097 H 198.726 -3.12719 4.9061 0
M  V30 2098 H 197.606 -3.34357 7.09348 0
M  V30 2099 N 195.109 -0.891671 -1.2995 0
M  V30 2100 C 196.386 -0.433307 -1.9074 0
M  V30 2101 C 196.766 1.08646 -1.80995 0
M  V30 2102 O 196.114 1.92476 -1.23147 0
M  V30 2103 C 196.324 -0.938895 -3.36134 0
M  V30 2104 C 197.672 -0.977829 -4.13187 0
M  V30 2105 O 198.696 -0.886015 -3.45005 0
M  V30 2106 O 197.555 -1.11453 -5.35015 0
M  V30 2107 H 194.649 -0.133699 -0.816121 0
M  V30 2108 H 197.195 -0.981011 -1.38471 0
M  V30 2109 H 195.967 -1.98281 -3.37343 0
M  V30 2110 H 195.59 -0.37074 -3.95868 0
M  V30 2111 N 196.587 1.43421 -0.653314 0
M  V30 2112 C 197.827 2.03689 -0.170346 0
M  V30 2113 C 198.191 1.50427 1.19314 0
M  V30 2114 O 199.392 2.0234 1.76952 0
M  V30 2115 C 197.663 3.56946 -0.180183 0
M  V30 2116 S 199.222 4.38171 0.234925 0
M  V30 2117 H 196.04 0.707345 -0.0719976 0
M  V30 2118 H 198.642 1.75486 -0.86167 0
M  V30 2119 H 197.346 3.93212 -1.17526 0
M  V30 2120 H 196.877 3.89791 0.531675 0
M  V30 2121 H 198.892 4.73808 1.47378 0
M  V30 2122 N 198.065 0.39524 1.52563 0
M  V30 2123 C 199.476 -0.0774719 1.86539 0
M  V30 2124 C 199.827 -1.45641 1.31466 0
M  V30 2125 O 198.952 -2.06459 0.648367 0
M  V30 2126 C 199.547 -0.147356 3.38479 0
M  V30 2127 C 198.106 -0.564373 3.72145 0
M  V30 2128 C 197.253 0.269919 2.75983 0
M  V30 2129 H 200.204 0.612876 1.46388 0
M  V30 2130 H 200.225 -0.965343 3.68051 0
M  V30 2131 H 199.737 0.856387 3.78534 0
M  V30 2132 H 197.838 -1.57527 3.37663 0
M  V30 2133 H 197.951 -0.318402 4.78041 0
M  V30 2134 H 196.315 -0.265696 2.5331 0
M  V30 2135 H 197.098 1.27175 3.18875 0
M  V30 2136 N 199.544 -1.57102 0.125237 0
M  V30 2137 C 200.477 -2.11371 -0.860094 0
M  V30 2138 C 201.455 -1.03168 -1.25679 0
M  V30 2139 O 202.639 -1.30862 -1.35674 0
M  V30 2140 C 199.766 -2.61555 -2.1519 0
M  V30 2141 C 198.812 -3.81701 -1.9028 0
M  V30 2142 S 199.645 -5.23797 -1.11343 0
M  V30 2143 C 200.801 -5.77353 -2.41689 0
M  V30 2144 H 201.034 -2.94617 -0.39852 0
M  V30 2145 H 198.567 -1.54145 -0.0886555 0
M  V30 2146 H 200.525 -2.91122 -2.89411 0
M  V30 2147 H 199.186 -1.78479 -2.58465 0
M  V30 2148 H 198.379 -4.14985 -2.86014 0
M  V30 2149 H 197.981 -3.52783 -1.24178 0
M  V30 2150 H 200.273 -5.87458 -3.37489 0
M  V30 2151 H 201.216 -6.75323 -2.12942 0
M  V30 2152 H 201.624 -5.05457 -2.51342 0
M  V30 2153 N 201.022 0.148545 -1.56898 0
M  V30 2154 C 201.932 1.20293 -2.01412 0
M  V30 2155 C 202.948 1.47107 -0.929273 0
M  V30 2156 O 204.124 1.58807 -1.23863 0
M  V30 2157 C 201.189 2.51682 -2.38447 0
M  V30 2158 C 200.25 2.32529 -3.60872 0
M  V30 2159 C 199.483 3.57653 -3.96132 0
M  V30 2160 O 199.706 4.63771 -3.32073 0
M  V30 2161 O 198.64 3.50408 -4.89385 0
M  V30 2162 H 202.466 0.855025 -2.91416 0
M  V30 2163 H 200.051 0.357151 -1.45068 0
M  V30 2164 H 201.933 3.29147 -2.63135 0
M  V30 2165 H 200.608 2.86006 -1.51599 0
M  V30 2166 H 199.515 1.53019 -3.41373 0
M  V30 2167 H 200.848 2.03121 -4.48333 0
M  V30 2168 N 202.5 1.5196 0.417844 0
M  V30 2169 C 203.432 1.70895 1.52733 0
M  V30 2170 C 204.445 0.589405 1.51756 0
M  V30 2171 O 205.634 0.864312 1.56179 0
M  V30 2172 C 202.734 1.72627 2.91639 0
M  V30 2173 C 201.907 3.01479 3.16905 0
M  V30 2174 C 200.966 2.95139 4.35637 0
M  V30 2175 O 199.992 3.69059 4.3334 0
M  V30 2176 N 201.194 2.12328 5.40275 0
M  V30 2177 H 203.959 2.66612 1.36888 0
M  V30 2178 H 201.52 1.50089 0.607037 0
M  V30 2179 H 203.512 1.65928 3.6912 0
M  V30 2180 H 202.082 0.844216 3.00985 0
M  V30 2181 H 201.302 3.21895 2.27546 0
M  V30 2182 H 202.59 3.86736 3.30625 0
M  V30 2183 H 201.988 1.51685 5.44985 0
M  V30 2184 H 200.545 2.11494 6.16534 0
M  V30 2185 N 203.978 -0.674533 1.42435 0
M  V30 2186 C 205.218 -1.4466 1.44405 0
M  V30 2187 C 205.582 -1.91911 0.0585784 0
M  V30 2188 O 206.783 -2.68759 -0.0469991 0
M  V30 2189 C 205.054 -2.61136 2.44013 0
M  V30 2190 S 206.613 -3.49981 2.64687 0
M  V30 2191 H 203.431 -0.494074 0.511284 0
M  V30 2192 H 206.033 -0.785162 1.7904 0
M  V30 2193 H 204.737 -2.24662 3.43446 0
M  V30 2194 H 204.268 -3.32153 2.10803 0
M  V30 2195 H 206.283 -4.57124 1.93007 0
M  V30 2196 N 205.456 -1.28612 -0.910864 0
M  V30 2197 C 206.403 -1.12786 -2.01365 0
M  V30 2198 C 207.373 -0.024201 -1.66082 0
M  V30 2199 O 208.558 -0.189667 -1.89855 0
M  V30 2200 C 205.698 -0.798743 -3.35729 0
M  V30 2201 C 204.811 -1.98173 -3.83864 0
M  V30 2202 C 203.946 -1.59298 -5.06752 0
M  V30 2203 C 202.985 -2.74245 -5.47226 0
M  V30 2204 N 202.122 -2.35842 -6.61304 0
M  V30 2205 H 206.962 -2.07142 -2.14234 0
M  V30 2206 H 204.499 -1.03093 -1.0493 0
M  V30 2207 H 206.457 -0.588662 -4.13026 0
M  V30 2208 H 205.087 0.10789 -3.2262 0
M  V30 2209 H 204.139 -2.30386 -3.02699 0
M  V30 2210 H 205.451 -2.84343 -4.09818 0
M  V30 2211 H 204.605 -1.34513 -5.916 0
M  V30 2212 H 203.344 -0.702618 -4.82612 0
M  V30 2213 H 202.349 -2.99725 -4.60918 0
M  V30 2214 H 203.574 -3.63928 -5.73353 0
M  V30 2215 H 201.52 -1.49279 -6.38789 0
M  V30 2216 H 201.437 -3.15546 -6.86998 0
M  V30 2217 H 202.705 -2.14348 -7.4945 0
M  V30 2218 N 206.934 1.1197 -1.10907 0
M  V30 2219 C 208.35 1.35591 -0.841852 0
M  V30 2220 C 208.55 1.94233 0.536246 0
M  V30 2221 O 207.606 2.1717 1.28816 0
M  V30 2222 C 208.919 2.29284 -1.94549 0
M  V30 2223 C 210.467 2.42862 -1.97451 0
M  V30 2224 C 210.942 3.39873 -3.07002 0
M  V30 2225 N 212.433 3.47433 -3.06341 0
M  V30 2226 C 213.168 4.22421 -3.87748 0
M  V30 2227 N 212.664 5.00432 -4.79103 0
M  V30 2228 N 214.457 4.17876 -3.75946 0
M  V30 2229 H 206.608 0.722664 -1.99728 0
M  V30 2230 H 208.871 0.380635 -0.868229 0
M  V30 2231 H 208.577 1.93378 -2.93765 0
M  V30 2232 H 208.451 3.29452 -1.83688 0
M  V30 2233 H 210.838 2.78046 -0.988645 0
M  V30 2234 H 210.919 1.42566 -2.12388 0
M  V30 2235 H 210.563 3.05417 -4.05811 0
M  V30 2236 H 210.493 4.40011 -2.89306 0
M  V30 2237 H 212.984 2.91784 -2.40147 0
M  V30 2238 H 213.297 5.55002 -5.37766 0
M  V30 2239 H 211.642 4.99612 -4.83128 0
M  V30 2240 H 214.833 3.56016 -3.03924 0
M  V30 2241 H 215.006 4.76061 -4.39624 0
M  V30 2242 N 208.412 0.89855 1.29475 0
M  V30 2243 C 209.36 0.365253 2.29714 0
M  V30 2244 C 210.354 -0.534993 1.6073 0
M  V30 2245 O 211.56 -0.417921 1.75081 0
M  V30 2246 H 207.935 0.0994853 0.74539 0
M  V30 2247 H 209.906 1.22406 2.72138 0
M  V30 2248 C 208.655 -0.393159 3.4547 0
M  V30 2249 H 207.978 0.290332 3.98744 0
M  V30 2250 H 209.418 -0.731189 4.17648 0
M  V30 2251 C 207.877 -1.59539 2.9673 0
M  V30 2252 O 208.407 -2.69469 2.97908 0
M  V30 2253 N 206.613 -1.43716 2.52575 0
M  V30 2254 H 206.16 -0.542828 2.51816 0
M  V30 2255 H 206.118 -2.24288 2.20323 0
M  V30 2256 N 209.89 -1.43072 0.660911 0
M  V30 2257 C 211.115 -2.06584 0.183805 0
M  V30 2258 C 211.54 -1.49257 -1.14472 0
M  V30 2259 O 210.898 -0.605528 -1.70889 0
M  V30 2260 C 210.946 -3.60418 0.114434 0
M  V30 2261 O 210.05 -4.01981 -0.921137 0
M  V30 2262 H 209.391 -0.656669 0.0983994 0
M  V30 2263 H 211.921 -1.83447 0.906006 0
M  V30 2264 H 211.931 -4.07946 -0.0663394 0
M  V30 2265 H 210.606 -4.01519 1.08422 0
M  V30 2266 H 209.183 -3.66029 -0.71253 0
M  V30 2267 N 211.368 -0.403325 -1.52352 0
M  V30 2268 C 212.596 0.174012 -2.06167 0
M  V30 2269 C 213.011 1.39347 -1.27388 0
M  V30 2270 O 212.368 1.79597 -0.324201 0
M  V30 2271 C 212.419 0.530223 -3.5759 0
M  V30 2272 O 212.14 -0.640806 -4.33388 0
M  V30 2273 C 213.641 1.16192 -4.27802 0
M  V30 2274 H 210.861 0.0229464 -0.670608 0
M  V30 2275 H 213.405 -0.572604 -1.9632 0
M  V30 2276 H 211.56 1.22673 -3.67464 0
M  V30 2277 H 211.974 -0.344851 -5.23365 0
M  V30 2278 H 213.448 1.36141 -5.34948 0
M  V30 2279 H 213.925 2.13335 -3.83907 0
M  V30 2280 H 214.531 0.505775 -4.22282 0
M  V30 2281 N 212.846 1.57033 -0.133567 0
M  V30 2282 C 214.071 2.00475 0.531477 0
M  V30 2283 C 214.496 1.01291 1.58499 0
M  V30 2284 O 213.854 -0.0133279 1.81295 0
M  V30 2285 C 213.902 3.42729 1.12113 0
M  V30 2286 O 213.006 3.46498 2.23636 0
M  V30 2287 H 212.347 0.650876 0.131362 0
M  V30 2288 H 214.877 2.03344 -0.22634 0
M  V30 2289 H 214.887 3.81246 1.4531 0
M  V30 2290 H 213.562 4.14428 0.349557 0
M  V30 2291 H 212.139 3.19811 1.91769 0
M  V30 2292 N 214.325 -0.140222 1.56975 0
M  V30 2293 C 215.574 -0.850152 1.82908 0
M  V30 2294 C 215.887 -1.82028 0.715892 0
M  V30 2295 O 217.093 -2.57485 0.861016 0
M  V30 2296 C 215.549 -1.5625 3.24213 0
M  V30 2297 C 215.157 -0.63443 4.43485 0
M  V30 2298 C 216.901 -2.25881 3.59413 0
M  V30 2299 C 214.808 -1.34879 5.75814 0
M  V30 2300 H 213.738 -0.321221 0.682153 0
M  V30 2301 H 216.389 -0.102874 1.83211 0
M  V30 2302 H 214.771 -2.35565 3.18316 0
M  V30 2303 H 215.945 0.12398 4.60633 0
M  V30 2304 H 214.26 -0.0461836 4.16374 0
M  V30 2305 H 216.857 -2.79978 4.5554 0
M  V30 2306 H 217.2 -3.02693 2.85802 0
M  V30 2307 H 217.733 -1.53477 3.67001 0
M  V30 2308 H 214.472 -0.622385 6.52539 0
M  V30 2309 H 213.992 -2.07974 5.6259 0
M  V30 2310 H 215.671 -1.88784 6.18845 0
M  V30 2311 N 215.803 -1.52179 -0.40978 0
M  V30 2312 C 217.033 -1.69807 -1.17682 0
M  V30 2313 C 217.441 -0.406908 -1.84773 0
M  V30 2314 O 216.784 0.626863 -1.72673 0
M  V30 2315 C 216.846 -2.77712 -2.2829 0
M  V30 2316 C 216.51 -4.19481 -1.81341 0
M  V30 2317 C 217.507 -5.03345 -1.30154 0
M  V30 2318 C 215.192 -4.65713 -1.88194 0
M  V30 2319 C 217.186 -6.31511 -0.864416 0
M  V30 2320 C 214.873 -5.93869 -1.44093 0
M  V30 2321 C 215.871 -6.76597 -0.933023 0
M  V30 2322 O 215.559 -8.02354 -0.49838 0
M  V30 2323 H 215.291 -0.572372 -0.359675 0
M  V30 2324 H 217.845 -1.99511 -0.488311 0
M  V30 2325 H 216.075 -2.43383 -3.00502 0
M  V30 2326 H 217.764 -2.83946 -2.90051 0
M  V30 2327 H 218.53 -4.68819 -1.24232 0
M  V30 2328 H 214.409 -4.01424 -2.26671 0
M  V30 2329 H 217.953 -6.96033 -0.467286 0
M  V30 2330 H 213.85 -6.27903 -1.49694 0
M  V30 2331 H 214.618 -8.16135 -0.621747 0
M  V30 2332 N 217.281 0.66697 -1.42791 0
M  V30 2333 C 218.528 1.42699 -1.43678 0
M  V30 2334 C 218.856 1.94419 -0.0560425 0
M  V30 2335 O 218.111 1.7182 0.936831 0
M  V30 2336 C 218.41 2.6349 -2.4147 0
M  V30 2337 C 218.076 2.30267 -3.8767 0
M  V30 2338 C 216.738 2.20918 -4.27491 0
M  V30 2339 C 219.09 2.03435 -4.79858 0
M  V30 2340 C 216.418 1.82873 -5.57471 0
M  V30 2341 C 218.77 1.66892 -6.10188 0
M  V30 2342 C 217.434 1.56058 -6.49001 0
M  V30 2343 H 216.704 0.522171 -0.525755 0
M  V30 2344 H 219.351 0.759785 -1.75783 0
M  V30 2345 H 217.656 3.35279 -2.0272 0
M  V30 2346 H 219.353 3.21684 -2.39417 0
M  V30 2347 H 215.943 2.38449 -3.56146 0
M  V30 2348 H 220.127 2.09586 -4.49875 0
M  V30 2349 H 215.383 1.7306 -5.86396 0
M  V30 2350 H 219.557 1.45157 -6.81104 0
M  V30 2351 H 217.184 1.26348 -7.49627 0
M  V30 2352 N 218.759 1.29093 0.90403 0
M  V30 2353 C 219.706 1.13853 2.00764 0
M  V30 2354 C 220.676 0.0330084 1.66067 0
M  V30 2355 O 221.861 0.199733 1.89752 0
M  V30 2356 C 219.001 0.816537 3.35301 0
M  V30 2357 C 218.114 2.00206 3.82807 0
M  V30 2358 C 217.249 1.61983 5.059 0
M  V30 2359 C 216.288 2.77143 5.45764 0
M  V30 2360 N 215.425 2.39346 6.60044 0
M  V30 2361 H 220.265 2.08276 2.13132 0
M  V30 2362 H 217.802 1.03648 1.04381 0
M  V30 2363 H 219.76 0.610557 4.12708 0
M  V30 2364 H 218.39 -0.090779 3.22672 0
M  V30 2365 H 217.442 2.31988 3.01473 0
M  V30 2366 H 218.754 2.86512 4.08304 0
M  V30 2367 H 217.908 1.37649 5.90879 0
M  V30 2368 H 216.647 0.728202 4.82233 0
M  V30 2369 H 215.652 3.02165 4.59322 0
M  V30 2370 H 216.877 3.66964 5.71414 0
M  V30 2371 H 214.823 1.52665 6.37989 0
M  V30 2372 H 214.74 3.19185 6.85315 0
M  V30 2373 H 216.008 2.1832 7.48303 0
M  V30 2374 N 220.237 -1.11381 1.11499 0
M  V30 2375 C 221.17 -2.16621 0.71769 0
M  V30 2376 C 222.148 -1.60058 -0.286413 0
M  V30 2377 O 223.332 -1.87613 -0.182689 0
M  V30 2378 C 220.459 -3.38646 0.0607265 0
M  V30 2379 C 219.505 -4.13874 1.03008 0
M  V30 2380 S 220.338 -4.70731 2.55289 0
M  V30 2381 C 221.494 -5.96079 1.90895 0
M  V30 2382 H 221.727 -2.49987 1.60915 0
M  V30 2383 H 219.26 -1.23015 0.933092 0
M  V30 2384 H 221.218 -4.09313 -0.311965 0
M  V30 2385 H 219.879 -3.03537 -0.807702 0
M  V30 2386 H 219.072 -5.01333 0.517853 0
M  V30 2387 H 218.674 -3.4897 1.34522 0
M  V30 2388 H 220.966 -6.65948 1.24577 0
M  V30 2389 H 221.909 -6.51946 2.76354 0
M  V30 2390 H 222.317 -5.47652 1.36885 0
M  V30 2391 N 221.715 -0.905404 -1.28997 0
M  V30 2392 C 222.625 -0.392246 -2.31298 0
M  V30 2393 C 223.641 0.515889 -1.66176 0
M  V30 2394 O 224.817 0.404093 -1.97304 0
M  V30 2395 C 221.882 0.36686 -3.44754 0
M  V30 2396 C 220.943 -0.573485 -4.25452 0
M  V30 2397 C 220.176 0.149488 -5.33491 0
M  V30 2398 O 220.399 1.37255 -5.5364 0
M  V30 2399 O 219.333 -0.510919 -5.99728 0
M  V30 2400 H 223.159 -1.2411 -2.77183 0
M  V30 2401 H 220.744 -0.669926 -1.33538 0
M  V30 2402 H 222.626 0.795907 -4.13816 0
M  V30 2403 H 221.301 1.19169 -3.00966 0
M  V30 2404 H 220.208 -1.05176 -3.59011 0
M  V30 2405 H 221.541 -1.36489 -4.72897 0
M  V30 2406 N 223.193 1.4272 -0.668489 0
M  V30 2407 C 224.141 2.32586 0.0254857 0
M  V30 2408 C 225.135 1.49471 0.797176 0
M  V30 2409 O 226.341 1.65583 0.705853 0
M  V30 2410 H 222.716 0.751514 0.0270339 0
M  V30 2411 H 224.687 2.88823 -0.749936 0
M  V30 2412 C 223.436 3.3397 0.967427 0
M  V30 2413 H 222.759 3.97961 0.383048 0
M  V30 2414 H 224.199 3.9945 1.42181 0
M  V30 2415 C 222.658 2.65744 2.0708 0
M  V30 2416 O 223.188 2.48454 3.15648 0
M  V30 2417 N 221.394 2.2487 1.8407 0
M  V30 2418 H 220.941 2.39132 0.95778 0
M  V30 2419 H 220.899 1.79552 2.58086 0
M  V30 2420 N 224.671 0.411399 1.52136 0
M  V30 2421 C 225.948 -0.222308 1.94333 0
M  V30 2422 C 226.328 -1.6242 1.34844 0
M  V30 2423 O 225.676 -2.22384 0.525145 0
M  V30 2424 C 225.886 -0.226345 3.48265 0
M  V30 2425 C 227.234 -0.444592 4.22266 0
M  V30 2426 O 228.258 -0.305602 3.54887 0
M  V30 2427 O 227.117 -0.718749 5.41753 0
M  V30 2428 H 224.211 -0.143907 0.814383 0
M  V30 2429 H 226.757 0.467506 1.63133 0
M  V30 2430 H 225.529 0.75475 3.83952 0
M  V30 2431 H 225.152 -0.960163 3.85832 0
M  V30 2432 N 226.149 -1.5696 0.141893 0
M  V30 2433 C 227.079 -2.19516 -0.795936 0
M  V30 2434 C 228.06 -1.14187 -1.26077 0
M  V30 2435 O 229.245 -1.42511 -1.31925 0
M  V30 2436 C 226.375 -2.81272 -2.03723 0
M  V30 2437 C 225.329 -3.92384 -1.70936 0
M  V30 2438 C 224.655 -4.41052 -3.02287 0
M  V30 2439 C 225.955 -5.13403 -0.959954 0
M  V30 2440 H 227.649 -2.98138 -0.274596 0
M  V30 2441 H 225.195 -1.43406 -0.130636 0
M  V30 2442 H 227.148 -3.237 -2.69808 0
M  V30 2443 H 225.872 -1.99973 -2.58221 0
M  V30 2444 H 224.531 -3.50566 -1.07232 0
M  V30 2445 H 224.179 -3.56582 -3.54765 0
M  V30 2446 H 223.879 -5.15993 -2.81114 0
M  V30 2447 H 225.403 -4.86146 -3.69451 0
M  V30 2448 H 226.817 -5.52706 -1.52279 0
M  V30 2449 H 225.214 -5.94073 -0.848357 0
M  V30 2450 H 226.284 -4.84875 0.0492434 0
M  V30 2451 N 227.627 0.131896 -1.57047 0
M  V30 2452 C 229.038 0.690407 -1.73465 0
M  V30 2453 C 229.389 1.8094 -0.758629 0
M  V30 2454 O 228.514 2.16282 0.0713813 0
M  V30 2455 C 229.109 1.25916 -3.14532 0
M  V30 2456 C 227.668 1.76409 -3.32501 0
M  V30 2457 C 226.815 0.658579 -2.69366 0
M  V30 2458 H 229.766 -0.0939144 -1.58422 0
M  V30 2459 H 229.787 2.12892 -3.15369 0
M  V30 2460 H 229.299 0.444515 -3.85546 0
M  V30 2461 H 227.4 2.60391 -2.66509 0
M  V30 2462 H 227.513 1.88241 -4.4057 0
M  V30 2463 H 225.877 1.08899 -2.30246 0
M  V30 2464 H 226.66 -0.14487 -3.42994 0
M  V30 2465 N 229.106 1.52395 0.401703 0
M  V30 2466 C 230.038 1.72505 1.50912 0
M  V30 2467 C 231.051 0.605468 1.51122 0
M  V30 2468 O 232.24 0.880828 1.55254 0
M  V30 2469 C 229.34 1.75711 2.89791 0
M  V30 2470 C 228.513 3.04824 3.1369 0
M  V30 2471 C 227.572 2.99743 4.32482 0
M  V30 2472 O 226.598 3.73635 4.29402 0
M  V30 2473 N 227.8 2.18047 5.37992 0
M  V30 2474 H 230.565 2.68049 1.34052 0
M  V30 2475 H 228.126 1.50724 0.591084 0
M  V30 2476 H 230.118 1.69834 3.6734 0
M  V30 2477 H 228.688 0.876092 3.00072 0
M  V30 2478 H 227.908 3.2429 2.24119 0
M  V30 2479 H 229.196 3.90221 3.26504 0
M  V30 2480 H 228.594 1.57456 5.43345 0
M  V30 2481 H 227.151 2.18021 6.14256 0
M  V30 2482 N 230.584 -0.659388 1.43143 0
M  V30 2483 C 231.531 -1.77249 1.47822 0
M  V30 2484 C 232.501 -1.62818 0.328558 0
M  V30 2485 O 233.686 -1.83151 0.534838 0
M  V30 2486 C 230.826 -3.15371 1.40126 0
M  V30 2487 C 229.939 -3.4098 2.65249 0
M  V30 2488 C 229.074 -4.68915 2.49584 0
M  V30 2489 C 228.113 -4.87608 3.70006 0
M  V30 2490 N 227.25 -6.06796 3.53189 0
M  V30 2491 H 232.09 -1.72584 2.42938 0
M  V30 2492 H 229.627 -0.842297 1.20598 0
M  V30 2493 H 231.585 -3.9521 1.33659 0
M  V30 2494 H 230.215 -3.19121 0.485964 0
M  V30 2495 H 229.267 -2.55282 2.8202 0
M  V30 2496 H 230.579 -3.50681 3.54717 0
M  V30 2497 H 229.733 -5.56871 2.4079 0
M  V30 2498 H 228.472 -4.61524 1.5763 0
M  V30 2499 H 227.477 -3.9809 3.79215 0
M  V30 2500 H 228.702 -4.96834 4.62961 0
M  V30 2501 H 226.648 -6.00549 2.63965 0
M  V30 2502 H 226.565 -6.17428 4.36255 0
M  V30 2503 H 227.833 -6.9739 3.48236 0
M  V30 2504 N 232.062 -1.29571 -0.897171 0
M  V30 2505 C 233.311 -1.1706 -1.64256 0
M  V30 2506 C 233.624 0.276476 -1.93636 0
M  V30 2507 O 234.83 0.52294 -2.66416 0
M  V30 2508 C 233.286 -2.0475 -2.95982 0
M  V30 2509 C 232.894 -3.54295 -2.74187 0
M  V30 2510 C 234.638 -2.0097 -3.73914 0
M  V30 2511 C 232.545 -4.34081 -4.01656 0
M  V30 2512 H 231.475 -0.43452 -0.616205 0
M  V30 2513 H 234.126 -1.54229 -0.994268 0
M  V30 2514 H 232.508 -1.60452 -3.62038 0
M  V30 2515 H 233.682 -4.06662 -2.1671 0
M  V30 2516 H 231.997 -3.59773 -2.09648 0
M  V30 2517 H 234.594 -2.57838 -4.68427 0
M  V30 2518 H 234.937 -0.990273 -4.0435 0
M  V30 2519 H 235.47 -2.43325 -3.14703 0
M  V30 2520 H 232.209 -5.36671 -3.76384 0
M  V30 2521 H 231.729 -3.86483 -4.58684 0
M  V30 2522 H 233.408 -4.44877 -4.69781 0
M  V30 2523 N 233.54 1.10788 -1.12088 0
M  V30 2524 C 234.472 2.16816 -0.743213 0
M  V30 2525 C 235.485 1.6119 0.228412 0
M  V30 2526 O 236.674 1.78497 0.0102931 0
M  V30 2527 C 233.774 3.38809 -0.0787313 0
M  V30 2528 C 232.947 4.23885 -1.0789 0
M  V30 2529 C 232.006 5.24334 -0.442713 0
M  V30 2530 O 231.032 5.58497 -1.09864 0
M  V30 2531 N 232.234 5.75079 0.791457 0
M  V30 2532 H 234.999 2.49825 -1.65552 0
M  V30 2533 H 232.56 1.26373 -1.012 0
M  V30 2534 H 234.552 4.03107 0.358766 0
M  V30 2535 H 233.122 3.03805 0.736275 0
M  V30 2536 H 232.342 3.55939 -1.69414 0
M  V30 2537 H 233.63 4.77562 -1.75533 0
M  V30 2538 H 233.028 5.49517 1.3434 0
M  V30 2539 H 231.585 6.4118 1.17183 0
M  V30 2540 N 235.018 0.912232 1.28515 0
M  V30 2541 C 236.258 0.551677 1.96814 0
M  V30 2542 C 236.622 -0.887825 1.7024 0
M  V30 2543 O 237.823 -1.35588 2.32098 0
M  V30 2544 C 236.094 0.850555 3.47132 0
M  V30 2545 S 237.653 0.59619 4.34731 0
M  V30 2546 H 234.471 0.204191 0.681049 0
M  V30 2547 H 237.073 1.17736 1.56072 0
M  V30 2548 H 235.777 1.8962 3.63968 0
M  V30 2549 H 235.308 0.213471 3.9282 0
M  V30 2550 H 237.323 -0.553154 4.93107 0
M  V30 2551 N 236.496 -1.42363 0.676048 0
M  V30 2552 C 237.724 -2.05859 0.207268 0
M  V30 2553 C 238.139 -1.50796 -1.13605 0
M  V30 2554 O 237.496 -0.648265 -1.70598 0
M  V30 2555 C 237.547 -3.61248 0.134975 0
M  V30 2556 O 237.268 -4.1427 1.42521 0
M  V30 2557 C 238.769 -4.41859 -0.357151 0
M  V30 2558 H 235.989 -0.663431 0.100503 0
M  V30 2559 H 238.533 -1.82479 0.923136 0
M  V30 2560 H 236.688 -3.83735 -0.531588 0
M  V30 2561 H 237.102 -5.0815 1.29939 0
M  V30 2562 H 238.576 -5.50847 -0.356641 0
M  V30 2563 H 239.053 -4.16536 -1.39264 0
M  V30 2564 H 239.659 -4.24392 0.27772 0
M  V30 2565 N 237.974 -0.419461 -1.51915 0
M  V30 2566 C 238.904 0.391813 -2.30189 0
M  V30 2567 C 239.885 1.03699 -1.34836 0
M  V30 2568 O 241.07 1.04403 -1.63748 0
M  V30 2569 C 238.2 1.50312 -3.13087 0
M  V30 2570 C 237.154 0.9824 -4.16573 0
M  V30 2571 C 236.48 2.18809 -4.8788 0
M  V30 2572 C 237.78 0.0292356 -5.22292 0
M  V30 2573 H 239.474 -0.26135 -2.98257 0
M  V30 2574 H 237.02 -0.127134 -1.43438 0
M  V30 2575 H 238.973 2.07773 -3.66617 0
M  V30 2576 H 237.697 2.18431 -2.42807 0
M  V30 2577 H 236.356 0.430119 -3.64068 0
M  V30 2578 H 236.004 2.85507 -4.14119 0
M  V30 2579 H 235.704 1.84615 -5.57845 0
M  V30 2580 H 237.228 2.76858 -5.44226 0
M  V30 2581 H 238.642 0.512976 -5.71 0
M  V30 2582 H 237.039 -0.2244 -5.9968 0
M  V30 2583 H 238.109 -0.912931 -4.76228 0
M  V30 2584 N 239.452 1.56882 -0.150215 0
M  V30 2585 C 240.677 2.01027 0.510184 0
M  V30 2586 C 241.102 1.02966 1.57415 0
M  V30 2587 O 240.46 0.00590158 1.81299 0
M  V30 2588 C 240.508 3.43899 1.08472 0
M  V30 2589 O 239.612 3.4885 2.19948 0
M  V30 2590 H 238.953 0.652233 0.124451 0
M  V30 2591 H 241.483 2.03093 -0.247894 0
M  V30 2592 H 241.493 3.82766 1.41259 0
M  V30 2593 H 240.168 4.14776 0.305582 0
M  V30 2594 H 238.745 3.21827 1.88366 0
M  V30 2595 N 240.93 -0.123565 1.57115 0
M  V30 2596 C 241.878 -1.17082 2.00984 0
M  V30 2597 C 242.872 -1.43136 0.906009 0
M  V30 2598 O 244.078 -1.43152 1.09121 0
M  V30 2599 H 240.453 -0.394653 0.64012 0
M  V30 2600 H 242.424 -0.774292 2.88179 0
M  V30 2601 C 241.173 -2.49057 2.42623 0
M  V30 2602 H 240.496 -2.29846 3.27125 0
M  V30 2603 H 241.936 -3.20906 2.7712 0
M  V30 2604 C 240.395 -3.11305 1.28805 0
M  V30 2605 O 240.925 -3.97171 0.60153 0
M  V30 2606 N 239.131 -2.71111 1.04628 0
M  V30 2607 H 238.678 -2.01382 1.60634 0
M  V30 2608 H 238.636 -3.1309 0.286685 0
M  V30 2609 N 242.408 -1.52605 -0.393616 0
M  V30 2610 C 243.819 -1.59417 -0.971761 0
M  V30 2611 C 244.17 -0.444173 -1.91106 0
M  V30 2612 O 243.295 0.433382 -2.12016 0
M  V30 2613 C 243.89 -2.88936 -1.76921 0
M  V30 2614 C 242.449 -2.98175 -2.29714 0
M  V30 2615 C 241.596 -2.54491 -1.10135 0
M  V30 2616 H 244.547 -1.57751 -0.173317 0
M  V30 2617 H 244.568 -2.75163 -2.62804 0
M  V30 2618 H 244.08 -3.72616 -1.08532 0
M  V30 2619 H 242.181 -2.19024 -3.01429 0
M  V30 2620 H 242.294 -4.02726 -2.59517 0
M  V30 2621 H 240.658 -2.08702 -1.45999 0
M  V30 2622 H 241.441 -3.4056 -0.432874 0
M  V30 2623 N 243.887 0.651787 -1.4349 0
M  V30 2624 C 244.817 1.77621 -1.51569 0
M  V30 2625 C 245.798 1.66022 -0.370253 0
M  V30 2626 O 246.983 1.85095 -0.587658 0
M  V30 2627 C 244.113 3.16056 -1.43966 0
M  V30 2628 C 243.067 3.4242 -2.56774 0
M  V30 2629 C 242.393 4.8067 -2.34223 0
M  V30 2630 C 243.693 3.37023 -3.99015 0
M  V30 2631 H 245.387 1.71117 -2.45681 0
M  V30 2632 H 242.933 0.821825 -1.18246 0
M  V30 2633 H 244.886 3.94472 -1.48221 0
M  V30 2634 H 243.61 3.23293 -0.463586 0
M  V30 2635 H 242.269 2.66375 -2.51873 0
M  V30 2636 H 241.917 4.84585 -1.34856 0
M  V30 2637 H 241.617 4.9927 -3.09844 0
M  V30 2638 H 243.141 5.61342 -2.40265 0
M  V30 2639 H 244.555 4.05374 -4.05395 0
M  V30 2640 H 242.952 3.67159 -4.74673 0
M  V30 2641 H 244.022 2.3518 -4.2405 0
M  V30 2642 N 245.365 1.30045 0.890287 0
M  V30 2643 C 246.612 1.18561 1.64163 0
M  V30 2644 C 246.94 -0.260852 1.92743 0
M  V30 2645 O 246.195 -1.20376 1.54299 0
M  V30 2646 C 246.494 1.95409 2.99249 0
M  V30 2647 C 246.16 3.45066 2.90242 0
M  V30 2648 C 244.822 3.85878 2.87492 0
M  V30 2649 C 247.174 4.4039 2.78758 0
M  V30 2650 C 244.502 5.20314 2.7109 0
M  V30 2651 C 246.854 5.74928 2.63894 0
M  V30 2652 C 245.518 6.14986 2.59516 0
M  V30 2653 H 244.788 0.433846 0.600715 0
M  V30 2654 H 247.435 1.61088 1.03552 0
M  V30 2655 H 245.74 1.45501 3.63781 0
M  V30 2656 H 247.437 1.8392 3.56334 0
M  V30 2657 H 244.027 3.12631 2.93189 0
M  V30 2658 H 248.211 4.09806 2.79952 0
M  V30 2659 H 243.467 5.50449 2.66112 0
M  V30 2660 H 247.641 6.48434 2.53981 0
M  V30 2661 H 245.268 7.19104 2.46565 0
M  V30 2662 N 246.843 -1.10192 1.12674 0
M  V30 2663 C 247.791 -2.18694 0.792196 0
M  V30 2664 C 248.785 -1.67938 -0.222058 0
M  V30 2665 O 249.991 -1.79822 -0.0800074 0
M  V30 2666 H 246.366 -0.713223 0.238364 0
M  V30 2667 H 248.337 -2.44149 1.71564 0
M  V30 2668 C 247.086 -3.46682 0.265859 0
M  V30 2669 H 246.409 -3.86101 1.03761 0
M  V30 2670 H 247.849 -4.23942 0.0701128 0
M  V30 2671 C 246.308 -3.21506 -1.00675 0
M  V30 2672 O 246.838 -3.43408 -2.08408 0
M  V30 2673 N 245.044 -2.75158 -0.934692 0
M  V30 2674 H 244.591 -2.57535 -0.0578604 0
M  V30 2675 H 244.549 -2.58691 -1.7868 0
M  V30 2676 N 248.321 -0.919034 -1.28029 0
M  V30 2677 C 249.549 -0.570971 -1.98866 0
M  V30 2678 C 249.964 0.848996 -1.68634 0
M  V30 2679 O 249.321 1.56307 -0.942036 0
M  V30 2680 C 249.372 -0.776876 -3.53054 0
M  V30 2681 O 249.093 -2.14097 -3.82222 0
M  V30 2682 C 250.594 -0.436356 -4.41147 0
M  V30 2683 H 247.814 -0.217175 -0.634883 0
M  V30 2684 H 250.358 -1.23368 -1.63097 0
M  V30 2685 H 248.513 -0.161085 -3.87065 0
M  V30 2686 H 248.927 -2.18455 -4.76841 0
M  V30 2687 H 250.401 -0.63117 -5.4838 0
M  V30 2688 H 250.878 0.627686 -4.34692 0
M  V30 2689 H 251.484 -1.02991 -4.12641 0
M  V30 2690 N 249.799 1.42003 -0.683588 0
M  V30 2691 C 251.027 2.05746 -0.218182 0
M  V30 2692 C 251.442 1.51396 1.12804 0
M  V30 2693 O 250.799 0.657303 1.70252 0
M  V30 2694 C 250.85 3.61171 -0.154131 0
M  V30 2695 O 250.571 4.13508 -1.44716 0
M  V30 2696 C 252.072 4.42042 0.333713 0
M  V30 2697 H 249.292 0.662888 -0.10402 0
M  V30 2698 H 251.836 1.81987 -0.9328 0
M  V30 2699 H 249.991 3.84012 0.511231 0
M  V30 2700 H 250.405 5.07453 -1.32632 0
M  V30 2701 H 251.879 5.51028 0.327423 0
M  V30 2702 H 252.356 4.17269 1.37053 0
M  V30 2703 H 252.962 4.24239 -0.300222 0
M  V30 2704 N 251.277 0.427512 1.51691 0
M  V30 2705 C 252.502 -0.143601 2.06902 0
M  V30 2706 C 252.927 -1.36536 1.29382 0
M  V30 2707 O 252.285 -1.78289 0.329043 0
M  V30 2708 C 252.333 -0.454207 3.57728 0
M  V30 2709 O 251.437 -1.54228 3.82475 0
M  V30 2710 H 250.778 -0.00617128 0.663971 0
M  V30 2711 H 253.308 0.606014 1.95419 0
M  V30 2712 H 253.318 -0.707525 4.01818 0
M  V30 2713 H 251.993 0.438812 4.13579 0
M  V30 2714 H 250.57 -1.2797 3.50254 0
M  V30 2715 N 252.755 -1.56801 0.158532 0
M  V30 2716 C 253.98 -2.01295 -0.499516 0
M  V30 2717 C 254.405 -1.03799 -1.56867 0
M  V30 2718 O 253.763 -0.0155162 -1.81293 0
M  V30 2719 C 253.811 -3.44469 -1.06647 0
M  V30 2720 O 252.915 -3.50012 -2.18095 0
M  V30 2721 H 252.256 -0.652884 -0.12099 0
M  V30 2722 H 254.786 -2.02958 0.258661 0
M  V30 2723 H 254.796 -3.8351 -1.39227 0
M  V30 2724 H 253.471 -4.14932 -0.283581 0
M  V30 2725 H 252.048 -3.22822 -1.86656 0
M  V30 2726 N 254.233 0.115231 -1.57178 0
M  V30 2727 C 255.482 0.820945 -1.84237 0
M  V30 2728 C 255.795 1.80866 -0.744761 0
M  V30 2729 O 257.001 2.56083 -0.901871 0
M  V30 2730 C 255.457 1.51072 -3.26658 0
M  V30 2731 C 255.065 0.563795 -4.44438 0
M  V30 2732 C 256.809 2.20134 -3.62962 0
M  V30 2733 C 254.716 1.25701 -5.77887 0
M  V30 2734 H 253.646 0.310328 -0.687177 0
M  V30 2735 H 256.297 0.0737134 -1.83352 0
M  V30 2736 H 254.679 2.30471 -3.22024 0
M  V30 2737 H 255.853 -0.197247 -4.60378 0
M  V30 2738 H 254.168 -0.0200638 -4.16395 0
M  V30 2739 H 256.765 2.72696 -4.59936 0
M  V30 2740 H 257.108 2.98107 -2.90582 0
M  V30 2741 H 257.641 1.47619 -3.69396 0
M  V30 2742 H 254.38 0.518493 -6.53446 0
M  V30 2743 H 253.9 1.98997 -5.65827 0
M  V30 2744 H 255.579 1.78915 -6.2177 0
M  V30 2745 N 255.711 1.52812 0.385517 0
M  V30 2746 C 256.96 1.67249 1.12741 0
M  V30 2747 C 257.273 0.4205 1.91027 0
M  V30 2748 O 258.479 0.445064 2.67827 0
M  V30 2749 C 256.935 2.95583 2.05326 0
M  V30 2750 C 256.543 4.27974 1.32447 0
M  V30 2751 C 258.287 3.19386 2.7963 0
M  V30 2752 C 256.194 5.47412 2.23818 0
M  V30 2753 H 255.124 0.6231 0.424573 0
M  V30 2754 H 257.775 1.79309 0.389924 0
M  V30 2755 H 256.157 2.77277 2.82725 0
M  V30 2756 H 257.331 4.56844 0.602495 0
M  V30 2757 H 255.646 4.10459 0.700885 0
M  V30 2758 H 258.243 4.05801 3.48181 0
M  V30 2759 H 258.586 2.34604 3.43899 0
M  V30 2760 H 259.119 3.38274 2.09322 0
M  V30 2761 H 255.858 6.34612 1.64157 0
M  V30 2762 H 255.378 5.22849 2.93921 0
M  V30 2763 H 257.057 5.81423 2.83824 0
M  V30 2764 N 257.189 -0.644168 1.43834 0
M  V30 2765 C 258.119 -1.76814 1.52509 0
M  V30 2766 C 259.1 -1.65823 0.379052 0
M  V30 2767 O 260.285 -1.84781 0.597466 0
M  V30 2768 C 257.415 -3.15288 1.4564 0
M  V30 2769 C 256.369 -3.41053 2.58586 0
M  V30 2770 C 255.695 -4.79421 2.36769 0
M  V30 2771 C 256.995 -3.34902 4.00797 0
M  V30 2772 H 258.689 -1.69812 2.46586 0
M  V30 2773 H 256.235 -0.815542 1.1868 0
M  V30 2774 H 258.188 -3.93681 1.50311 0
M  V30 2775 H 256.912 -3.23043 0.480725 0
M  V30 2776 H 255.571 -2.65035 2.53282 0
M  V30 2777 H 255.219 -4.83863 1.37424 0
M  V30 2778 H 254.919 -4.9762 3.12487 0
M  V30 2779 H 256.443 -5.6006 2.43238 0
M  V30 2780 H 257.857 -4.03218 4.07539 0
M  V30 2781 H 256.254 -3.64637 4.76613 0
M  V30 2782 H 257.324 -2.32928 4.25291 0
M  V30 2783 N 258.668 -1.30515 -0.883378 0
M  V30 2784 C 259.896 -1.22359 -1.66841 0
M  V30 2785 C 260.311 0.213296 -1.87591 0
M  V30 2786 O 259.668 1.14075 -1.42454 0
M  V30 2787 C 259.719 -1.95011 -3.04389 0
M  V30 2788 O 259.44 -3.3309 -2.84575 0
M  V30 2789 C 260.941 -1.93532 -3.98824 0
M  V30 2790 H 258.161 -0.423371 -0.520575 0
M  V30 2791 H 260.705 -1.72167 -1.10357 0
M  V30 2792 H 258.86 -1.48997 -3.57601 0
M  V30 2793 H 259.274 -3.69907 -3.71846 0
M  V30 2794 H 260.748 -2.48902 -4.92699 0
M  V30 2795 H 261.225 -0.914627 -4.29571 0
M  V30 2796 H 261.831 -2.39364 -3.51547 0
M  V30 2797 N 260.146 1.09593 -1.13257 0
M  V30 2798 C 261.374 1.855 -0.916378 0
M  V30 2799 C 261.789 1.81069 0.534738 0
M  V30 2800 O 261.146 1.20562 1.37007 0
M  V30 2801 C 261.197 3.33546 -1.39388 0
M  V30 2802 O 260.918 3.37927 -2.78813 0
M  V30 2803 C 262.419 4.26299 -1.21588 0
M  V30 2804 H 259.639 0.585991 -0.326887 0
M  V30 2805 H 262.183 1.38488 -1.5047 0
M  V30 2806 H 260.338 3.77992 -0.848597 0
M  V30 2807 H 260.752 4.30254 -2.9997 0
M  V30 2808 H 262.226 5.28341 -1.59876 0
M  V30 2809 H 262.703 4.38918 -0.157376 0
M  V30 2810 H 263.309 3.87668 -1.7491 0
M  V30 2811 N 261.624 0.925811 1.2754 0
M  V30 2812 C 262.864 0.572521 1.96218 0
M  V30 2813 C 263.228 -0.869719 1.71172 0
M  V30 2814 O 264.429 -1.33119 2.33523 0
M  V30 2815 C 262.7 0.887325 3.4621 0
M  V30 2816 S 264.259 0.642266 4.34074 0
M  V30 2817 H 261.077 0.211403 0.678845 0
M  V30 2818 H 263.679 1.19384 1.54815 0
M  V30 2819 H 262.383 1.93469 3.61936 0
M  V30 2820 H 261.914 0.255123 3.92572 0
M  V30 2821 H 263.929 -0.500822 4.93666 0
M  V30 2822 N 263.102 -1.41638 0.69111 0
M  V30 2823 C 264.351 -2.00526 0.217318 0
M  V30 2824 C 264.664 -1.55353 -1.18848 0
M  V30 2825 O 265.87 -2.06769 -1.75951 0
M  V30 2826 C 264.326 -3.58313 0.337639 0
M  V30 2827 C 263.934 -4.12469 1.74852 0
M  V30 2828 C 265.678 -4.24431 -0.0766066 0
M  V30 2829 C 263.585 -5.62675 1.82074 0
M  V30 2830 H 262.515 -0.750008 0.0774893 0
M  V30 2831 H 265.166 -1.6217 0.858661 0
M  V30 2832 H 263.548 -3.9425 -0.371879 0
M  V30 2833 H 264.722 -3.8796 2.48644 0
M  V30 2834 H 263.037 -3.58861 2.11205 0
M  V30 2835 H 265.634 -5.34683 -0.0430284 0
M  V30 2836 H 265.977 -4.01101 -1.1146 0
M  V30 2837 H 266.51 -3.93512 0.582476 0
M  V30 2838 H 263.249 -5.90826 2.83911 0
M  V30 2839 H 262.769 -5.89124 1.12661 0
M  V30 2840 H 264.448 -6.27371 1.58159 0
M  V30 2841 N 264.58 -0.43555 -1.51462 0
M  V30 2842 C 265.991 0.0279871 -1.86679 0
M  V30 2843 C 266.342 1.42104 -1.35281 0
M  V30 2844 O 265.467 2.04667 -0.702878 0
M  V30 2845 C 266.062 0.0575626 -3.38751 0
M  V30 2846 C 264.621 0.465507 -3.7351 0
M  V30 2847 C 263.768 -0.342996 -2.75171 0
M  V30 2848 H 266.719 -0.651473 -1.44712 0
M  V30 2849 H 266.74 0.867421 -3.70481 0
M  V30 2850 H 266.252 -0.956448 -3.7613 0
M  V30 2851 H 264.353 1.48519 -3.41721 0
M  V30 2852 H 264.466 0.191546 -4.78717 0
M  V30 2853 H 262.83 0.198442 -2.53926 0
M  V30 2854 H 263.613 -1.35585 -3.15391 0
M  V30 2855 N 266.058 1.56714 -0.166846 0
M  V30 2856 C 267.283 2.01557 0.488833 0
M  V30 2857 C 267.708 1.0463 1.56314 0
M  V30 2858 O 267.066 0.0251304 1.81283 0
M  V30 2859 C 267.114 3.4503 1.04818 0
M  V30 2860 O 266.218 3.51163 2.16236 0
M  V30 2861 H 265.559 0.653516 0.117526 0
M  V30 2862 H 268.089 2.02818 -0.269421 0
M  V30 2863 H 268.099 3.84243 1.37191 0
M  V30 2864 H 266.774 4.15077 0.261572 0
M  V30 2865 H 265.351 3.23807 1.84942 0
M  V30 2866 N 267.536 -0.106894 1.57237 0
M  V30 2867 C 268.761 -0.830287 1.90055 0
M  V30 2868 C 269.186 -1.72064 0.75998 0
M  V30 2869 O 268.544 -1.78982 -0.288991 0
M  V30 2870 C 268.592 -1.6295 3.21683 0
M  V30 2871 O 267.696 -2.73748 3.08441 0
M  V30 2872 H 267.037 -0.228855 0.623315 0
M  V30 2873 H 269.567 -0.085658 2.04421 0
M  V30 2874 H 269.577 -2.01621 3.54701 0
M  V30 2875 H 268.252 -0.975989 4.04286 0
M  V30 2876 H 266.829 -2.38192 2.86913 0
M  V30 2877 N 269.014 -1.53014 -0.377408 0
M  V30 2878 C 270.262 -1.6829 -1.11906 0
M  V30 2879 C 270.583 -0.431206 -1.90173 0
M  V30 2880 O 269.853 0.554595 -1.87886 0
M  V30 2881 H 268.433 -0.620371 -0.416112 0
M  V30 2882 H 271.095 -1.90167 -0.426893 0
M  V30 2883 H 270.191 -2.53862 -1.8155 0
M  V30 2884 N 270.492 0.636531 -1.44174 0
M  V30 2885 C 271.442 1.74233 -1.47061 0
M  V30 2886 C 272.426 1.57331 -0.337034 0
M  V30 2887 O 273.618 1.67159 -0.581973 0
M  V30 2888 C 270.747 3.12897 -1.41246 0
M  V30 2889 C 269.833 3.35288 -2.59698 0
M  V30 2890 N 270.224 3.2807 -3.84972 0
M  V30 2891 C 268.522 3.66065 -2.54778 0
M  V30 2892 C 269.223 3.51001 -4.63867 0
M  V30 2893 N 268.199 3.73616 -3.94857 0
M  V30 2894 H 272.001 1.67103 -2.41773 0
M  V30 2895 H 269.515 0.838806 -1.3906 0
M  V30 2896 H 271.512 3.92189 -1.41398 0
M  V30 2897 H 270.172 3.21197 -0.47569 0
M  V30 2898 H 271.183 3.07109 -4.17019 0
M  V30 2899 H 267.86 3.81379 -1.6987 0
M  V30 2900 H 269.25 3.51059 -5.72894 0
M  V30 2901 N 271.97 1.30982 0.876444 0
M  V30 2902 C 273.195 1.23373 1.66715 0
M  V30 2903 C 273.62 -0.19885 1.87046 0
M  V30 2904 O 272.978 -1.1427 1.40756 0
M  V30 2905 C 273.026 1.97644 3.01611 0
M  V30 2906 O 272.13 1.30935 3.91062 0
M  V30 2907 H 271.471 0.426279 0.509099 0
M  V30 2908 H 274.001 1.72944 1.09323 0
M  V30 2909 H 274.011 2.06992 3.51594 0
M  V30 2910 H 272.686 3.01829 2.86133 0
M  V30 2911 H 271.263 1.29996 3.49507 0
M  V30 2912 N 273.449 -1.08991 1.13837 0
M  V30 2913 C 274.865 -1.33312 0.877506 0
M  V30 2914 C 275.065 -1.95587 -0.48456 0
M  V30 2915 O 274.121 -2.20509 -1.23013 0
M  V30 2916 C 275.434 -2.24045 2.0056 0
M  V30 2917 C 276.982 -2.37542 2.03821 0
M  V30 2918 C 277.457 -3.31614 3.15905 0
M  V30 2919 N 278.948 -3.39189 3.15445 0
M  V30 2920 C 279.683 -4.11992 3.98811 0
M  V30 2921 N 279.179 -4.87553 4.92203 0
M  V30 2922 N 280.972 -4.07762 3.86894 0
M  V30 2923 H 273.123 -0.669456 2.01574 0
M  V30 2924 H 275.386 -0.357482 0.878015 0
M  V30 2925 H 275.092 -1.85521 2.98789 0
M  V30 2926 H 274.966 -3.24466 1.92359 0
M  V30 2927 H 277.353 -2.75327 1.06202 0
M  V30 2928 H 277.434 -1.36884 2.16093 0
M  V30 2929 H 277.078 -2.94551 4.13766 0
M  V30 2930 H 277.008 -4.32186 3.0087 0
M  V30 2931 H 279.499 -2.85314 2.47799 0
M  V30 2932 H 279.812 -5.40549 5.52292 0
M  V30 2933 H 278.157 -4.86627 4.96205 0
M  V30 2934 H 281.348 -3.47833 3.13257 0
M  V30 2935 H 281.521 -4.64238 4.52092 0
M  V30 2936 N 274.927 -0.932562 -1.27047 0
M  V30 2937 C 275.877 -0.406392 -2.24349 0
M  V30 2938 C 276.861 0.492066 -1.53191 0
M  V30 2939 O 278.053 0.328717 -1.73921 0
M  V30 2940 C 275.182 0.335214 -3.41659 0
M  V30 2941 C 274.268 -0.58004 -4.20115 0
M  V30 2942 N 274.659 -1.70203 -4.76303 0
M  V30 2943 C 272.957 -0.383974 -4.44344 0
M  V30 2944 C 273.658 -2.27167 -5.35509 0
M  V30 2945 N 272.634 -1.56068 -5.20715 0
M  V30 2946 H 276.436 -1.26299 -2.65378 0
M  V30 2947 H 273.95 -0.787408 -1.42034 0
M  V30 2948 H 275.947 0.729142 -4.10474 0
M  V30 2949 H 274.607 1.18868 -3.0216 0
M  V30 2950 H 275.618 -2.08433 -4.74106 0
M  V30 2951 H 272.295 0.428436 -4.15296 0
M  V30 2952 H 273.685 -3.21654 -5.89905 0
M  V30 2953 N 276.405 1.4127 -0.698611 0
M  V30 2954 C 277.821 1.55241 -0.370462 0
M  V30 2955 C 278.021 1.67351 1.12231 0
M  V30 2956 O 277.077 1.65363 1.90818 0
M  V30 2957 C 278.39 2.78997 -1.12165 0
M  V30 2958 C 279.938 2.92797 -1.1063 0
M  V30 2959 C 280.413 4.19445 -1.8393 0
M  V30 2960 N 281.904 4.26409 -1.80914 0
M  V30 2961 C 282.639 5.23271 -2.34467 0
M  V30 2962 N 282.135 6.26145 -2.96504 0
M  V30 2963 N 283.928 5.15232 -2.24706 0
M  V30 2964 H 276.079 1.31654 -1.66676 0
M  V30 2965 H 278.342 0.635393 -0.703548 0
M  V30 2966 H 278.048 2.76268 -2.17644 0
M  V30 2967 H 277.922 3.70606 -0.702209 0
M  V30 2968 H 280.309 2.95039 -0.0597713 0
M  V30 2969 H 280.39 2.02353 -1.56483 0
M  V30 2970 H 280.034 4.17964 -2.88563 0
M  V30 2971 H 279.964 5.08866 -1.35509 0
M  V30 2972 H 282.455 3.527 -1.35687 0
M  V30 2973 H 282.768 6.96451 -3.34927 0
M  V30 2974 H 281.113 6.26638 -3.00583 0
M  V30 2975 H 284.304 4.33789 -1.7591 0
M  V30 2976 H 284.477 5.90552 -2.66745 0
M  V30 2977 N 277.883 0.443576 1.51229 0
M  V30 2978 C 279.113 -0.119117 2.06256 0
M  V30 2979 C 279.521 -1.36471 1.31043 0
M  V30 2980 O 278.864 -1.80034 0.365151 0
M  V30 2981 C 278.926 -0.500546 3.55998 0
M  V30 2982 C 278.59 0.639125 4.52509 0
M  V30 2983 C 279.587 1.51311 4.97394 0
M  V30 2984 C 277.272 0.821632 4.95535 0
M  V30 2985 C 279.266 2.55425 5.83984 0
M  V30 2986 C 276.953 1.86603 5.81913 0
M  V30 2987 C 277.951 2.73072 6.26036 0
M  V30 2988 O 277.639 3.75718 7.10698 0
M  V30 2989 H 277.371 -0.00857665 0.675946 0
M  V30 2990 H 279.925 0.623288 1.95715 0
M  V30 2991 H 278.155 -1.29575 3.64345 0
M  V30 2992 H 279.844 -0.995116 3.93513 0
M  V30 2993 H 280.61 1.38367 4.64844 0
M  V30 2994 H 276.489 0.158149 4.60729 0
M  V30 2995 H 280.033 3.22949 6.18344 0
M  V30 2996 H 275.93 1.99564 6.13876 0
M  V30 2997 H 276.698 3.72374 7.2889 0
M  V30 2998 N 279.361 -1.56624 0.175154 0
M  V30 2999 C 280.324 -2.16934 -0.739738 0
M  V30 3000 C 281.324 -1.11842 -1.15533 0
M  V30 3001 O 282.514 -1.37335 -1.07167 0
M  V30 3002 C 279.646 -2.75531 -2.00738 0
M  V30 3003 H 280.839 -2.99131 -0.214639 0
M  V30 3004 H 278.392 -1.56123 -0.0744197 0
M  V30 3005 H 279.127 -1.97078 -2.57548 0
M  V30 3006 H 278.912 -3.52444 -1.71831 0
M  V30 3007 H 280.402 -3.21904 -2.66021 0
M  V30 3008 N 280.839 0.0985539 -1.57292 0
M  V30 3009 C 281.769 1.12064 -2.04851 0
M  V30 3010 C 282.75 1.41981 -0.936767 0
M  V30 3011 O 283.935 1.52071 -1.20781 0
M  V30 3012 C 281.065 2.44144 -2.47004 0
M  V30 3013 C 280.019 2.28643 -3.6181 0
M  V30 3014 C 279.345 3.65869 -3.89929 0
M  V30 3015 C 280.645 1.72986 -4.92822 0
M  V30 3016 H 282.339 0.724979 -2.9049 0
M  V30 3017 H 279.885 0.34729 -1.39749 0
M  V30 3018 H 281.838 3.15914 -2.78884 0
M  V30 3019 H 280.562 2.85639 -1.5836 0
M  V30 3020 H 279.221 1.59318 -3.30172 0
M  V30 3021 H 278.869 4.04885 -2.98458 0
M  V30 3022 H 278.569 3.56344 -4.67218 0
M  V30 3023 H 280.093 4.39112 -4.2428 0
M  V30 3024 H 281.507 2.34593 -5.23105 0
M  V30 3025 H 279.904 1.74229 -5.74251 0
M  V30 3026 H 280.974 0.689007 -4.7998 0
M  V30 3027 N 282.317 1.53212 0.369288 0
M  V30 3028 C 283.566 1.68436 1.10961 0
M  V30 3029 C 283.879 0.440738 1.9057 0
M  V30 3030 O 285.085 0.473446 2.6734 0
M  V30 3031 C 283.541 2.97744 2.0218 0
M  V30 3032 C 283.149 4.29355 1.279 0
M  V30 3033 C 284.893 3.22334 2.76226 0
M  V30 3034 C 282.8 5.49755 2.17999 0
M  V30 3035 H 281.73 0.627568 0.41794 0
M  V30 3036 H 284.381 1.79713 0.370884 0
M  V30 3037 H 282.763 2.8026 2.79768 0
M  V30 3038 H 283.937 4.57458 0.554007 0
M  V30 3039 H 282.252 4.11179 0.657311 0
M  V30 3040 H 284.849 4.09471 3.43857 0
M  V30 3041 H 285.192 2.38238 3.41392 0
M  V30 3042 H 285.725 3.40475 2.05723 0
M  V30 3043 H 282.464 6.36318 1.57417 0
M  V30 3044 H 281.984 5.25937 2.88359 0
M  V30 3045 H 283.663 5.84401 2.77641 0
M  V30 3046 N 283.795 -0.628877 1.44509 0
M  V30 3047 C 285.206 -1.21054 1.42137 0
M  V30 3048 C 285.557 -1.95715 0.137881 0
M  V30 3049 O 284.682 -2.02554 -0.761645 0
M  V30 3050 C 285.277 -2.20189 2.57493 0
M  V30 3051 C 283.836 -2.73777 2.58308 0
M  V30 3052 C 282.983 -1.48813 2.33987 0
M  V30 3053 H 285.934 -0.41942 1.53057 0
M  V30 3054 H 285.955 -3.02833 2.30375 0
M  V30 3055 H 285.467 -1.6582 3.50892 0
M  V30 3056 H 283.568 -3.32142 1.68856 0
M  V30 3057 H 283.681 -3.19662 3.56865 0
M  V30 3058 H 282.045 -1.77024 1.83124 0
M  V30 3059 H 282.828 -0.963442 3.29504 0
M  V30 3060 N 285.273 -1.31445 -0.869486 0
M  V30 3061 C 286.522 -1.20517 -1.61736 0
M  V30 3062 C 286.835 0.235341 -1.94179 0
M  V30 3063 O 288.041 0.466312 -2.67465 0
M  V30 3064 C 286.497 -2.10982 -2.91573 0
M  V30 3065 C 286.105 -3.60032 -2.66611 0
M  V30 3066 C 287.849 -2.08856 -3.69567 0
M  V30 3067 C 285.756 -4.42503 -3.92358 0
M  V30 3068 H 284.686 -0.447493 -0.606849 0
M  V30 3069 H 287.337 -1.56303 -0.96133 0
M  V30 3070 H 285.719 -1.68095 -3.58553 0
M  V30 3071 H 286.893 -4.11167 -2.08035 0
M  V30 3072 H 285.208 -3.64139 -2.0197 0
M  V30 3073 H 287.805 -2.67716 -4.62852 0
M  V30 3074 H 288.148 -1.07582 -4.02159 0
M  V30 3075 H 288.681 -2.49945 -3.09471 0
M  V30 3076 H 285.42 -5.44533 -3.64916 0
M  V30 3077 H 284.94 -3.96125 -4.50383 0
M  V30 3078 H 286.619 -4.54741 -4.60238 0
M  V30 3079 N 286.751 1.08385 -1.14413 0
M  V30 3080 C 288.162 1.62258 -0.923535 0
M  V30 3081 C 288.513 1.88691 0.537595 0
M  V30 3082 O 287.638 1.64454 1.40655 0
M  V30 3083 C 288.233 2.94781 -1.67002 0
M  V30 3084 C 286.792 3.45437 -1.495 0
M  V30 3085 C 285.939 2.19668 -1.69238 0
M  V30 3086 H 288.89 0.916086 -1.2959 0
M  V30 3087 H 288.911 3.63229 -1.13334 0
M  V30 3088 H 288.423 2.7551 -2.73342 0
M  V30 3089 H 286.524 3.6981 -0.455097 0
M  V30 3090 H 286.637 4.22173 -2.2651 0
M  V30 3091 H 285.001 2.28849 -1.11804 0
M  V30 3092 H 285.784 2.02905 -2.7692 0
M  V30 3093 N 288.23 0.939286 1.26551 0
M  V30 3094 C 289.16 0.465044 2.28822 0
M  V30 3095 C 290.141 -0.480692 1.63167 0
M  V30 3096 O 291.326 -0.382955 1.90387 0
M  V30 3097 C 288.456 -0.27234 3.46231 0
M  V30 3098 C 287.41 0.58666 4.2396 0
M  V30 3099 C 286.736 -0.280573 5.33963 0
M  V30 3100 C 288.036 1.85704 4.88171 0
M  V30 3101 H 289.73 1.31979 2.68741 0
M  V30 3102 H 287.276 0.636061 1.29191 0
M  V30 3103 H 289.229 -0.615133 4.16886 0
M  V30 3104 H 287.953 -1.16121 3.0526 0
M  V30 3105 H 286.612 0.91232 3.55067 0
M  V30 3106 H 286.26 -1.16874 4.89234 0
M  V30 3107 H 285.96 0.29076 5.8688 0
M  V30 3108 H 287.484 -0.618678 6.07458 0
M  V30 3109 H 288.898 1.58161 5.51052 0
M  V30 3110 H 287.295 2.37279 5.51197 0
M  V30 3111 H 288.365 2.56957 4.11219 0
M  V30 3112 N 289.708 -1.40897 0.706093 0
M  V30 3113 C 290.671 -2.29131 0.0562841 0
M  V30 3114 C 291.671 -1.44901 -0.697166 0
M  V30 3115 O 292.861 -1.65926 -0.530484 0
M  V30 3116 C 289.993 -3.27957 -0.93043 0
M  V30 3117 H 291.186 -2.88091 0.833284 0
M  V30 3118 H 288.739 -1.4906 0.470192 0
M  V30 3119 H 289.474 -2.73997 -1.73482 0
M  V30 3120 H 289.259 -3.90124 -0.393166 0
M  V30 3121 H 290.749 -3.94049 -1.38256 0
M  V30 3122 N 291.186 -0.45159 -1.50991 0
M  V30 3123 C 292.432 0.110237 -2.025 0
M  V30 3124 C 292.765 1.41109 -1.33424 0
M  V30 3125 O 292.04 1.89135 -0.453659 0
M  V30 3126 C 292.323 0.314271 -3.58726 0
M  V30 3127 C 292.176 -1.00623 -4.38401 0
M  V30 3128 C 293.495 1.07767 -4.26702 0
M  V30 3129 H 290.614 0.0385897 -0.735989 0
M  V30 3130 H 293.256 -0.593374 -1.80497 0
M  V30 3131 H 291.406 0.913601 -3.77605 0
M  V30 3132 H 293.078 -1.64064 -4.31139 0
M  V30 3133 H 291.321 -1.6075 -4.02917 0
M  V30 3134 H 291.992 -0.817341 -5.45915 0
M  V30 3135 H 294.468 0.56986 -4.12179 0
M  V30 3136 H 293.344 1.18921 -5.35863 0
M  V30 3137 H 293.605 2.10939 -3.88532 0
M  V30 3138 N 292.664 1.56529 -0.183458 0
M  V30 3139 C 293.913 1.96419 0.458511 0
M  V30 3140 C 294.226 1.0727 1.63562 0
M  V30 3141 O 295.432 1.36893 2.34462 0
M  V30 3142 C 293.888 3.49298 0.867122 0
M  V30 3143 C 293.496 4.47092 -0.285057 0
M  V30 3144 C 295.24 3.97983 1.47683 0
M  V30 3145 C 293.147 5.91225 0.143862 0
M  V30 3146 H 292.077 0.733394 0.175071 0
M  V30 3147 H 294.728 1.81448 -0.273624 0
M  V30 3148 H 293.11 3.59731 1.65559 0
M  V30 3149 H 294.284 4.48383 -1.0625 0
M  V30 3150 H 292.599 4.08535 -0.805503 0
M  V30 3151 H 295.196 5.03134 1.80999 0
M  V30 3152 H 295.539 3.41618 2.37914 0
M  V30 3153 H 296.072 3.90617 0.752562 0
M  V30 3154 H 292.811 6.5149 -0.723974 0
M  V30 3155 H 292.331 5.93214 0.886413 0
M  V30 3156 H 294.01 6.44362 0.583628 0
M  V30 3157 N 294.142 -0.090211 1.57342 0
M  V30 3158 C 295.37 -0.806224 1.90546 0
M  V30 3159 C 295.785 -1.72041 0.777644 0
M  V30 3160 O 295.142 -1.80778 -0.250103 0
M  V30 3161 C 295.193 -1.61546 3.23396 0
M  V30 3162 O 294.914 -0.738043 4.31839 0
M  V30 3163 C 296.415 -2.4341 3.70495 0
M  V30 3164 H 293.635 -0.230256 0.630257 0
M  V30 3165 H 296.179 -0.0659843 2.04394 0
M  V30 3166 H 294.334 -2.30816 3.11131 0
M  V30 3167 H 294.748 -1.29901 5.08159 0
M  V30 3168 H 296.222 -2.95676 4.66133 0
M  V30 3169 H 296.699 -3.22098 2.98579 0
M  V30 3170 H 297.305 -1.79331 3.85643 0
M  V30 3171 N 295.62 -1.53406 -0.361157 0
M  V30 3172 C 296.848 -1.73717 -1.12383 0
M  V30 3173 C 297.263 -0.468161 -1.82904 0
M  V30 3174 O 296.62 0.559198 -1.73722 0
M  V30 3175 C 296.671 -2.90558 -2.15078 0
M  V30 3176 O 296.392 -4.12549 -1.47428 0
M  V30 3177 C 297.893 -3.22777 -3.03858 0
M  V30 3178 H 295.113 -0.580896 -0.335858 0
M  V30 3179 H 297.657 -2.00167 -0.418728 0
M  V30 3180 H 295.812 -2.66489 -2.8118 0
M  V30 3181 H 296.226 -4.78009 -2.15887 0
M  V30 3182 H 297.7 -4.07927 -3.71887 0
M  V30 3183 H 298.177 -2.38329 -3.68912 0
M  V30 3184 H 298.783 -3.48787 -2.43367 0
M  V30 3185 N 297.098 0.621204 -1.44841 0
M  V30 3186 C 298.338 1.39201 -1.49674 0
M  V30 3187 C 298.702 1.91561 -0.129764 0
M  V30 3188 O 299.903 2.68748 -0.0527814 0
M  V30 3189 C 298.174 2.519 -2.53537 0
M  V30 3190 S 299.733 3.39916 -2.77494 0
M  V30 3191 H 296.551 0.474758 -0.529269 0
M  V30 3192 H 299.153 0.718171 -1.81831 0
M  V30 3193 H 297.857 2.11761 -3.51547 0
M  V30 3194 H 297.388 3.241 -2.22986 0
M  V30 3195 H 299.403 4.49646 -2.0984 0
M  V30 3196 N 298.576 1.31904 0.862503 0
M  V30 3197 C 299.825 1.21373 1.61094 0
M  V30 3198 C 300.138 -0.22504 1.94301 0
M  V30 3199 O 301.344 -0.452121 2.67709 0
M  V30 3200 C 299.8 2.12525 2.9045 0
M  V30 3201 C 299.408 3.61441 2.64697 0
M  V30 3202 C 301.152 2.10813 3.68454 0
M  V30 3203 C 299.059 4.44578 3.90006 0
M  V30 3204 H 297.989 0.450705 0.604468 0
M  V30 3205 H 300.64 1.56811 0.953027 0
M  V30 3206 H 299.022 1.69994 3.57656 0
M  V30 3207 H 300.196 4.12264 2.05851 0
M  V30 3208 H 298.511 3.65205 2.00036 0
M  V30 3209 H 301.108 2.70167 4.61426 0
M  V30 3210 H 301.451 1.09713 4.01583 0
M  V30 3211 H 301.984 2.51583 3.08141 0
M  V30 3212 H 298.723 5.46461 3.62023 0
M  V30 3213 H 298.243 3.98508 4.48276 0
M  V30 3214 H 299.922 4.57176 4.5782 0
M  V30 3215 N 300.054 -1.07777 1.14986 0
M  V30 3216 C 301.3 -1.80557 0.923422 0
M  V30 3217 C 301.633 -1.86298 -0.548337 0
M  V30 3218 O 300.908 -1.34354 -1.40639 0
M  V30 3219 C 301.191 -3.25839 1.53299 0
M  V30 3220 C 301.044 -3.28269 3.07505 0
M  V30 3221 C 302.363 -4.22991 1.21518 0
M  V30 3222 H 299.482 -0.655493 0.336894 0
M  V30 3223 H 302.124 -1.26144 1.42083 0
M  V30 3224 H 300.274 -3.72306 1.10999 0
M  V30 3225 H 301.946 -2.90079 3.58681 0
M  V30 3226 H 300.189 -2.67355 3.4162 0
M  V30 3227 H 300.86 -4.30691 3.45266 0
M  V30 3228 H 303.336 -3.84894 1.581 0
M  V30 3229 H 302.212 -5.22945 1.66793 0
M  V30 3230 H 302.473 -4.41904 0.131505 0
M  V30 3231 N 301.532 -0.945985 -1.26051 0
M  V30 3232 C 302.462 -0.477172 -2.28572 0
M  V30 3233 C 303.443 0.472032 -1.63419 0
M  V30 3234 O 304.628 0.372853 -1.90587 0
M  V30 3235 C 301.758 0.253975 -3.4637 0
M  V30 3236 C 300.712 -0.609135 -4.23643 0
M  V30 3237 C 300.038 0.252252 -5.34105 0
M  V30 3238 C 301.338 -1.8829 -4.8718 0
M  V30 3239 H 303.032 -1.33402 -2.68038 0
M  V30 3240 H 300.578 -0.642904 -1.28852 0
M  V30 3241 H 302.531 0.593016 -4.17207 0
M  V30 3242 H 301.255 1.145 -3.05871 0
M  V30 3243 H 299.914 -0.931138 -3.54578 0
M  V30 3244 H 299.562 1.14278 -4.89846 0
M  V30 3245 H 299.262 -0.32188 -5.86718 0
M  V30 3246 H 300.786 0.586454 -6.07777 0
M  V30 3247 H 302.2 -1.61081 -5.50205 0
M  V30 3248 H 300.597 -2.40199 -5.49931 0
M  V30 3249 H 301.667 -2.59134 -4.09851 0
M  V30 3250 N 303.011 1.40521 -0.713556 0
M  V30 3251 C 304.241 2.0494 -0.261395 0
M  V30 3252 C 304.649 1.53861 1.10107 0
M  V30 3253 O 303.992 0.689321 1.70276 0
M  V30 3254 C 304.054 3.59138 -0.161227 0
M  V30 3255 C 303.718 4.33096 -1.45865 0
M  V30 3256 C 304.715 4.61182 -2.40016 0
M  V30 3257 C 302.4 4.72043 -1.71701 0
M  V30 3258 C 304.394 5.27196 -3.58251 0
M  V30 3259 C 302.081 5.37789 -2.90218 0
M  V30 3260 C 303.079 5.65295 -3.83315 0
M  V30 3261 O 302.767 6.29683 -4.99754 0
M  V30 3262 H 302.499 0.666041 -0.115608 0
M  V30 3263 H 305.053 1.80954 -0.971849 0
M  V30 3264 H 303.283 3.81936 0.605153 0
M  V30 3265 H 304.972 4.05091 0.256105 0
M  V30 3266 H 305.738 4.31559 -2.21318 0
M  V30 3267 H 301.617 4.50003 -1.00092 0
M  V30 3268 H 305.161 5.48582 -4.30934 0
M  V30 3269 H 301.058 5.66831 -3.08825 0
M  V30 3270 H 301.826 6.4818 -4.99805 0
M  V30 3271 N 304.489 0.459591 1.5075 0
M  V30 3272 C 305.422 -0.386257 2.24907 0
M  V30 3273 C 306.4 -1.006 1.27744 0
M  V30 3274 O 307.584 -1.04416 1.56938 0
M  V30 3275 C 304.711 -1.54021 3.01654 0
M  V30 3276 C 303.757 -1.03898 4.13651 0
M  V30 3277 S 304.59 0.0370501 5.35487 0
M  V30 3278 C 305.746 -1.12105 6.15779 0
M  V30 3279 H 305.979 0.243272 2.96303 0
M  V30 3280 H 303.512 0.244339 1.52454 0
M  V30 3281 H 305.47 -2.20163 3.46466 0
M  V30 3282 H 304.131 -2.14121 2.29806 0
M  V30 3283 H 303.324 -1.90254 4.66711 0
M  V30 3284 H 302.926 -0.45545 3.71216 0
M  V30 3285 H 305.218 -2.03501 6.46215 0
M  V30 3286 H 306.161 -0.62995 7.05292 0
M  V30 3287 H 306.569 -1.36967 5.47631 0
M  V30 3288 N 305.967 -1.56429 0.191757 0
M  V30 3289 C 306.915 -2.20273 -0.747174 0
M  V30 3290 C 307.909 -1.17288 -1.22229 0
M  V30 3291 O 309.115 -1.35441 -1.18557 0
M  V30 3292 H 305.49 -0.705885 -0.259289 0
M  V30 3293 H 307.461 -2.97826 -0.184963 0
M  V30 3294 C 306.21 -2.87356 -1.95759 0
M  V30 3295 H 305.533 -3.66341 -1.60106 0
M  V30 3296 H 306.973 -3.3547 -2.59299 0
M  V30 3297 C 305.432 -1.88213 -2.79423 0
M  V30 3298 O 305.962 -1.38033 -3.7724 0
M  V30 3299 N 304.168 -1.56516 -2.44849 0
M  V30 3300 H 303.715 -1.97516 -1.65364 0
M  V30 3301 H 303.673 -0.904369 -3.01112 0
M  V30 3302 N 307.445 0.0818655 -1.57387 0
M  V30 3303 C 308.693 0.781368 -1.86384 0
M  V30 3304 C 309.014 1.78618 -0.782342 0
M  V30 3305 O 308.284 1.94976 0.190061 0
M  V30 3306 H 306.864 0.291562 -0.687751 0
M  V30 3307 H 309.526 0.060348 -1.94807 0
M  V30 3308 H 308.622 1.3038 -2.83562 0
M  V30 3309 N 308.923 1.53595 0.353017 0
M  V30 3310 C 310.172 1.69603 1.09168 0
M  V30 3311 C 310.485 0.460925 1.90092 0
M  V30 3312 O 311.691 0.501774 2.66823 0
M  V30 3313 C 310.147 2.99872 1.9901 0
M  V30 3314 C 309.755 4.30687 1.23339 0
M  V30 3315 C 311.499 3.25246 2.72792 0
M  V30 3316 C 309.406 5.52036 2.12156 0
M  V30 3317 H 308.336 0.631966 0.411261 0
M  V30 3318 H 310.987 1.80096 0.351802 0
M  V30 3319 H 309.369 2.83212 2.7678 0
M  V30 3320 H 310.543 4.58019 0.505456 0
M  V30 3321 H 308.858 4.11853 0.613663 0
M  V30 3322 H 311.455 4.13095 3.39495 0
M  V30 3323 H 311.798 2.41846 3.38846 0
M  V30 3324 H 312.331 3.42638 2.021 0
M  V30 3325 H 309.07 6.37951 1.50659 0
M  V30 3326 H 308.59 5.28966 2.82764 0
M  V30 3327 H 310.269 5.87313 2.71427 0
M  V30 3328 N 310.401 -0.613514 1.45168 0
M  V30 3329 C 311.331 -1.7354 1.56225 0
M  V30 3330 C 312.312 -1.64981 0.41414 0
M  V30 3331 O 313.497 -1.83472 0.636526 0
M  V30 3332 C 310.627 -3.12128 1.52295 0
M  V30 3333 C 309.581 -3.35491 2.65762 0
M  V30 3334 C 308.907 -4.74291 2.46885 0
M  V30 3335 C 310.207 -3.26325 4.0781 0
M  V30 3336 H 311.901 -1.64543 2.50132 0
M  V30 3337 H 309.447 -0.790185 1.20383 0
M  V30 3338 H 311.4 -3.90404 1.58628 0
M  V30 3339 H 310.124 -3.2195 0.549139 0
M  V30 3340 H 308.783 -2.59603 2.58847 0
M  V30 3341 H 308.431 -4.80839 1.47657 0
M  V30 3342 H 308.131 -4.9088 3.22972 0
M  V30 3343 H 309.655 -5.54775 2.55063 0
M  V30 3344 H 311.069 -3.94483 4.16 0
M  V30 3345 H 309.466 -3.54445 4.8424 0
M  V30 3346 H 310.536 -2.23855 4.30136 0
M  V30 3347 N 311.879 -1.3236 -0.855495 0
M  V30 3348 C 312.826 -1.21225 -1.964 0
M  V30 3349 C 313.796 -0.0946204 -1.6583 0
M  V30 3350 O 314.981 -0.27002 -1.8888 0
M  V30 3351 C 312.121 -0.940419 -3.32039 0
M  V30 3352 C 311.234 -2.14276 -3.75113 0
M  V30 3353 C 310.369 -1.80648 -4.9954 0
M  V30 3354 C 309.408 -2.97208 -5.35102 0
M  V30 3355 N 308.545 -2.63678 -6.50706 0
M  V30 3356 H 313.385 -2.16042 -2.05255 0
M  V30 3357 H 310.922 -1.07451 -1.00463 0
M  V30 3358 H 312.88 -0.763311 -4.10158 0
M  V30 3359 H 311.51 -0.0290413 -3.22787 0
M  V30 3360 H 310.562 -2.43017 -2.92655 0
M  V30 3361 H 311.874 -3.01468 -3.97389 0
M  V30 3362 H 311.028 -1.59484 -5.85363 0
M  V30 3363 H 309.767 -0.906678 -4.79198 0
M  V30 3364 H 308.772 -3.19004 -4.47791 0
M  V30 3365 H 309.997 -3.87918 -5.57401 0
M  V30 3366 H 307.943 -1.76238 -6.31883 0
M  V30 3367 H 307.86 -3.444 -6.72997 0
M  V30 3368 H 309.128 -2.45942 -7.39684 0
M  V30 3369 N 313.357 1.07166 -1.15556 0
M  V30 3370 C 314.597 1.81391 -0.94216 0
M  V30 3371 C 314.961 1.84788 0.521272 0
M  V30 3372 O 316.162 2.54904 0.85307 0
M  V30 3373 C 314.433 3.22431 -1.54185 0
M  V30 3374 S 315.992 4.13379 -1.47183 0
M  V30 3375 H 312.81 0.624963 -0.339031 0
M  V30 3376 H 315.412 1.28725 -1.4714 0
M  V30 3377 H 314.116 3.17548 -2.59984 0
M  V30 3378 H 313.647 3.80172 -1.01156 0
M  V30 3379 H 315.662 4.94007 -0.466004 0
M  V30 3380 N 314.835 0.952656 1.25548 0
M  V30 3381 C 316.112 0.523818 1.88456 0
M  V30 3382 C 316.492 -0.998871 1.85973 0
M  V30 3383 O 315.84 -1.86381 1.3219 0
M  V30 3384 C 316.05 1.0982 3.31271 0
M  V30 3385 C 317.398 1.17385 4.08051 0
M  V30 3386 O 318.422 1.04961 3.40384 0
M  V30 3387 O 317.281 1.36852 5.29088 0
M  V30 3388 H 314.375 0.172485 0.808813 0
M  V30 3389 H 316.921 1.04596 1.33633 0
M  V30 3390 H 315.693 2.1415 3.27499 0
M  V30 3391 H 315.316 0.559191 3.93648 0
M  V30 3392 N 316.313 -1.40141 0.720998 0
M  V30 3393 C 317.729 -1.54632 0.395113 0
M  V30 3394 C 317.929 -1.69115 -1.09555 0
M  V30 3395 O 316.985 -1.68377 -1.88163 0
M  V30 3396 C 318.298 -2.77177 1.1659 0
M  V30 3397 C 319.846 -2.91 1.15274 0
M  V30 3398 C 320.321 -4.16465 1.90579 0
M  V30 3399 N 321.812 -4.23476 1.87675 0
M  V30 3400 C 322.547 -5.19475 2.42762 0
M  V30 3401 N 322.043 -6.21348 3.06428 0
M  V30 3402 N 323.836 -5.11592 2.32874 0
M  V30 3403 H 315.987 -1.28986 1.68749 0
M  V30 3404 H 318.25 -0.62412 0.713567 0
M  V30 3405 H 317.956 -2.72771 2.22011 0
M  V30 3406 H 317.83 -3.69442 0.76108 0
M  V30 3407 H 320.217 -2.94907 0.106702 0
M  V30 3408 H 320.298 -1.99838 1.59682 0
M  V30 3409 H 319.942 -4.1332 2.95176 0
M  V30 3410 H 319.872 -5.06646 1.43587 0
M  V30 3411 H 322.363 -3.50497 1.41281 0
M  V30 3412 H 322.676 -6.91034 3.45965 0
M  V30 3413 H 321.021 -6.21777 3.10514 0
M  V30 3414 H 324.212 -4.30936 1.82789 0
M  V30 3415 H 324.385 -5.86233 2.76106 0
M  V30 3416 N 317.792 -0.46758 -1.50504 0
M  V30 3417 C 318.739 0.328413 -2.28452 0
M  V30 3418 C 319.709 0.990313 -1.33349 0
M  V30 3419 O 320.894 1.00343 -1.62284 0
M  V30 3420 C 318.034 1.40648 -3.15138 0
M  V30 3421 C 317.147 0.759709 -4.25267 0
M  V30 3422 C 316.282 1.81537 -4.99217 0
M  V30 3423 C 315.321 1.14866 -6.01226 0
M  V30 3424 N 314.458 2.14702 -6.68467 0
M  V30 3425 H 319.298 -0.342603 -2.96024 0
M  V30 3426 H 316.835 -0.180801 -1.45985 0
M  V30 3427 H 318.793 2.04315 -3.63746 0
M  V30 3428 H 317.423 2.04671 -2.49619 0
M  V30 3429 H 316.475 0.0105671 -3.80399 0
M  V30 3430 H 317.787 0.233243 -4.98254 0
M  V30 3431 H 316.941 2.52793 -5.51526 0
M  V30 3432 H 315.68 2.37564 -4.25928 0
M  V30 3433 H 314.685 0.42171 -5.4818 0
M  V30 3434 H 315.91 0.595334 -6.76485 0
M  V30 3435 H 313.856 2.69752 -5.97972 0
M  V30 3436 H 313.773 1.6703 -7.37317 0
M  V30 3437 H 315.041 2.85348 -7.25394 0
M  V30 3438 N 319.27 1.56325 -0.20005 0
M  V30 3439 C 320.681 1.8408 0.31167 0
M  V30 3440 C 321.032 1.12087 1.61031 0
M  V30 3441 O 320.157 0.38332 2.12978 0
M  V30 3442 C 320.752 3.33932 0.57226 0
M  V30 3443 C 319.311 3.6208 1.02834 0
M  V30 3444 C 318.458 2.77186 0.079634 0
M  V30 3445 H 321.409 1.52939 -0.423729 0
M  V30 3446 H 321.43 3.52971 1.42096 0
M  V30 3447 H 320.942 3.86303 -0.37308 0
M  V30 3448 H 319.043 3.15147 1.98778 0
M  V30 3449 H 319.156 4.7023 0.917624 0
M  V30 3450 H 317.52 2.47951 0.582448 0
M  V30 3451 H 318.303 3.32347 -0.860238 0
M  V30 3452 N 320.748 -0.0735177 1.57428 0
M  V30 3453 C 322.025 -0.805903 1.78226 0
M  V30 3454 C 322.405 -1.95874 0.787189 0
M  V30 3455 O 321.753 -2.2779 -0.180029 0
M  V30 3456 C 321.963 -1.28045 3.24662 0
M  V30 3457 C 323.311 -1.71453 3.88444 0
M  V30 3458 O 324.335 -1.37616 3.28543 0
M  V30 3459 O 323.194 -2.34093 4.93825 0
M  V30 3460 H 320.288 -0.386041 0.73137 0
M  V30 3461 H 322.834 -0.0537269 1.69615 0
M  V30 3462 H 321.606 -0.455476 3.8864 0
M  V30 3463 H 321.229 -2.094 3.37991 0
M  V30 3464 N 322.226 -1.5378 -0.344866 0
M  V30 3465 C 323.642 -1.44015 -0.687888 0
M  V30 3466 C 323.842 -0.595834 -1.92489 0
M  V30 3467 O 322.898 -0.0863064 -2.52352 0
M  V30 3468 C 324.211 -2.87481 -0.881758 0
M  V30 3469 C 325.759 -2.97247 -0.980459 0
M  V30 3470 C 326.234 -4.41819 -1.20665 0
M  V30 3471 N 327.725 -4.45339 -1.27389 0
M  V30 3472 C 328.46 -5.54333 -1.46639 0
M  V30 3473 N 327.956 -6.73335 -1.63071 0
M  V30 3474 N 329.749 -5.41944 -1.49176 0
M  V30 3475 H 321.9 -2.07169 0.468475 0
M  V30 3476 H 324.163 -0.93643 0.147655 0
M  V30 3477 H 323.869 -3.51672 -0.0443444 0
M  V30 3478 H 323.743 -3.32352 -1.78388 0
M  V30 3479 H 326.13 -2.33197 -1.8084 0
M  V30 3480 H 326.211 -2.5574 -0.0552713 0
M  V30 3481 H 325.855 -5.06449 -0.383652 0
M  V30 3482 H 325.785 -4.80917 -2.14539 0
M  V30 3483 H 328.276 -3.59585 -1.1622 0
M  V30 3484 H 328.589 -7.52165 -1.77391 0
M  V30 3485 H 326.934 -6.76282 -1.60209 0
M  V30 3486 H 330.125 -4.47932 -1.3592 0
M  V30 3487 H 330.298 -6.26946 -1.63837 0
M  V30 3488 N 323.704 0.605807 -1.45491 0
M  V30 3489 C 324.932 1.39136 -1.5313 0
M  V30 3490 C 325.347 1.88082 -0.164507 0
M  V30 3491 O 324.704 1.62316 0.834247 0
M  V30 3492 C 324.755 2.59463 -2.51716 0
M  V30 3493 O 324.476 2.12551 -3.83084 0
M  V30 3494 C 325.977 3.52301 -2.6907 0
M  V30 3495 H 323.197 0.425849 -0.51855 0
M  V30 3496 H 325.741 0.73865 -1.90694 0
M  V30 3497 H 323.896 3.20772 -2.17219 0
M  V30 3498 H 324.31 2.90744 -4.36541 0
M  V30 3499 H 325.784 4.33271 -3.42024 0
M  V30 3500 H 326.261 4.02757 -1.75167 0
M  V30 3501 H 326.867 2.96845 -3.04571 0
M  V30 3502 N 325.182 1.32811 0.848464 0
M  V30 3503 C 326.13 1.22231 1.97895 0
M  V30 3504 C 327.124 0.125749 1.68933 0
M  V30 3505 O 328.33 0.289083 1.77663 0
M  V30 3506 H 324.705 0.379058 0.649476 0
M  V30 3507 H 326.676 2.17828 2.03945 0
M  V30 3508 C 325.425 0.968572 3.33937 0
M  V30 3509 H 324.748 1.80458 3.56756 0
M  V30 3510 H 326.188 0.934808 4.13567 0
M  V30 3511 C 324.647 -0.328628 3.35293 0
M  V30 3512 O 325.177 -1.33848 3.78745 0
M  V30 3513 N 323.383 -0.352788 2.88451 0
M  V30 3514 H 322.93 0.469541 2.53285 0
M  V30 3515 H 322.888 -1.22057 2.89741 0
M  V30 3516 N 326.66 -1.06551 1.16123 0
M  V30 3517 C 327.885 -1.83544 0.965735 0
M  V30 3518 C 328.31 -1.81843 -0.481102 0
M  V30 3519 O 327.668 -1.21732 -1.34354 0
M  V30 3520 C 327.716 -3.28169 1.49457 0
M  V30 3521 O 326.82 -4.0643 0.699157 0
M  V30 3522 H 326.161 -0.568026 0.343864 0
M  V30 3523 H 328.691 -1.34362 1.54299 0
M  V30 3524 H 328.701 -3.78992 1.51092 0
M  V30 3525 H 327.376 -3.28722 2.54784 0
M  V30 3526 H 325.953 -3.65216 0.7531 0
M  V30 3527 N 328.138 -0.959301 -1.25041 0
M  V30 3528 C 329.086 -0.474437 -2.2771 0
M  V30 3529 C 330.08 0.457697 -1.631 0
M  V30 3530 O 331.286 0.333912 -1.76876 0
M  V30 3531 H 327.661 -0.134936 -0.739795 0
M  V30 3532 H 329.632 -1.35251 -2.65988 0
M  V30 3533 C 328.381 0.227884 -3.46952 0
M  V30 3534 H 327.704 -0.480248 -3.96905 0
M  V30 3535 H 329.144 0.531091 -4.20661 0
M  V30 3536 C 327.603 1.452 -3.04004 0
M  V30 3537 O 328.133 2.54949 -3.10426 0
M  V30 3538 N 326.339 1.31502 -2.59144 0
M  V30 3539 H 325.886 0.422065 -2.54119 0
M  V30 3540 H 325.844 2.13521 -2.30773 0
M  V30 3541 N 329.616 1.39756 -0.72842 0
M  V30 3542 C 331.032 1.5442 -0.403308 0
M  V30 3543 C 331.232 1.69694 1.08656 0
M  V30 3544 O 330.288 1.69373 1.87267 0
M  V30 3545 C 331.601 2.76555 -1.18058 0
M  V30 3546 C 333.149 2.90384 -1.16815 0
M  V30 3547 C 333.624 4.15449 -1.92785 0
M  V30 3548 N 335.115 4.22475 -1.89918 0
M  V30 3549 C 335.85 5.1818 -2.45514 0
M  V30 3550 N 335.346 6.19714 -3.09719 0
M  V30 3551 N 337.139 5.1035 -2.35584 0
M  V30 3552 H 329.29 1.28089 -1.69431 0
M  V30 3553 H 331.553 0.620327 -0.716867 0
M  V30 3554 H 331.259 2.7159 -2.23455 0
M  V30 3555 H 331.133 3.69033 -0.780662 0
M  V30 3556 H 333.52 2.94846 -0.12234 0
M  V30 3557 H 333.601 1.98988 -1.6074 0
M  V30 3558 H 333.245 4.11749 -2.97364 0
M  V30 3559 H 333.175 5.05877 -1.46272 0
M  V30 3560 H 335.666 3.49743 -1.43138 0
M  V30 3561 H 335.979 6.8919 -3.49625 0
M  V30 3562 H 334.324 6.20121 -3.13807 0
M  V30 3563 H 337.515 4.2996 -1.85072 0
M  V30 3564 H 337.688 5.84761 -2.79211 0
M  V30 3565 N 331.094 0.475555 1.50254 0
M  V30 3566 C 332.34 -0.0780073 2.0265 0
M  V30 3567 C 332.673 -1.38968 1.35652 0
M  V30 3568 O 331.948 -1.8839 0.483691 0
M  V30 3569 C 332.231 -0.257161 3.59181 0
M  V30 3570 C 332.084 1.07585 4.36744 0
M  V30 3571 C 333.403 -1.00965 4.28362 0
M  V30 3572 H 330.522 -0.0268758 0.73651 0
M  V30 3573 H 333.164 0.622015 1.7953 0
M  V30 3574 H 331.314 -0.853412 3.79011 0
M  V30 3575 H 332.986 1.70902 4.28474 0
M  V30 3576 H 331.229 1.6714 4.00308 0
M  V30 3577 H 331.9 0.904088 5.44546 0
M  V30 3578 H 334.376 -0.504214 4.13034 0
M  V30 3579 H 333.252 -1.10381 5.37687 0
M  V30 3580 H 333.513 -2.04731 3.91839 0
M  V30 3581 N 332.573 -1.56217 0.208337 0
M  V30 3582 C 333.483 -2.23316 -0.718836 0
M  V30 3583 C 334.499 -1.23648 -1.22422 0
M  V30 3584 O 335.675 -1.56423 -1.26861 0
M  V30 3585 C 332.74 -2.88968 -1.91568 0
M  V30 3586 C 331.801 -4.03943 -1.45357 0
M  V30 3587 C 331.034 -4.66455 -2.59337 0
M  V30 3588 O 331.257 -4.27919 -3.77149 0
M  V30 3589 O 330.191 -5.55686 -2.31293 0
M  V30 3590 H 334.017 -3.03182 -0.177315 0
M  V30 3591 H 331.602 -1.49384 -0.0215402 0
M  V30 3592 H 333.484 -3.30455 -2.61491 0
M  V30 3593 H 332.159 -2.12071 -2.44556 0
M  V30 3594 H 331.066 -3.67052 -0.722746 0
M  V30 3595 H 332.399 -4.82543 -0.970219 0
M  V30 3596 N 334.051 0.0651679 -1.57465 0
M  V30 3597 C 335.462 0.616213 -1.76238 0
M  V30 3598 C 335.813 1.7756 -0.834689 0
M  V30 3599 O 334.938 2.1639 -0.0204156 0
M  V30 3600 C 335.533 1.12462 -3.1959 0
M  V30 3601 C 334.092 1.62147 -3.39684 0
M  V30 3602 C 333.239 0.543739 -2.71917 0
M  V30 3603 H 336.19 -0.161022 -1.57881 0
M  V30 3604 H 336.211 1.99324 -3.24114 0
M  V30 3605 H 335.723 0.280592 -3.87084 0
M  V30 3606 H 333.824 2.48854 -2.77313 0
M  V30 3607 H 333.937 1.69385 -4.48158 0
M  V30 3608 H 332.301 0.990352 -2.34657 0
M  V30 3609 H 333.084 -0.290216 -3.42071 0
M  V30 3610 N 335.529 1.53961 0.336706 0
M  V30 3611 C 336.476 1.82428 1.41381 0
M  V30 3612 C 337.446 0.670444 1.51968 0
M  V30 3613 O 338.631 0.915565 1.67398 0
M  V30 3614 C 335.771 2.04564 2.77934 0
M  V30 3615 C 334.884 3.32267 2.76084 0
M  V30 3616 C 334.019 3.44434 4.04399 0
M  V30 3617 C 333.058 4.66061 3.96804 0
M  V30 3618 N 332.195 4.75224 5.16823 0
M  V30 3619 H 337.035 2.74324 1.16405 0
M  V30 3620 H 334.572 1.35869 0.563752 0
M  V30 3621 H 336.53 2.15388 3.57301 0
M  V30 3622 H 335.16 1.15974 3.01247 0
M  V30 3623 H 334.212 3.3025 1.88784 0
M  V30 3624 H 335.524 4.21733 2.66351 0
M  V30 3625 H 334.678 3.54728 4.92192 0
M  V30 3626 H 333.417 2.53037 4.16921 0
M  V30 3627 H 332.422 4.55838 3.07396 0
M  V30 3628 H 333.647 5.58829 3.85858 0
M  V30 3629 H 331.593 3.86739 5.29876 0
M  V30 3630 H 331.51 5.58636 5.09374 0
M  V30 3631 H 332.778 4.89835 6.06367 0
M  V30 3632 N 337.007 -0.598083 1.45811 0
M  V30 3633 C 338.232 -1.3881 1.54099 0
M  V30 3634 C 338.657 -1.8726 0.177578 0
M  V30 3635 O 338.015 -1.6069 -0.839541 0
M  V30 3636 C 338.063 -2.56217 2.53743 0
M  V30 3637 O 337.167 -3.5716 2.06182 0
M  V30 3638 H 336.508 -0.414024 0.519115 0
M  V30 3639 H 339.038 -0.726971 1.91249 0
M  V30 3640 H 339.048 -3.03337 2.72856 0
M  V30 3641 H 337.723 -2.20303 3.5276 0
M  V30 3642 H 336.3 -3.16624 1.96987 0
M  V30 3643 N 338.485 -1.33259 -0.841409 0
M  V30 3644 C 339.725 -1.25902 -1.61022 0
M  V30 3645 C 340.089 0.173325 -1.91216 0
M  V30 3646 O 341.29 0.370824 -2.6623 0
M  V30 3647 C 339.561 -2.10735 -2.88662 0
M  V30 3648 S 341.12 -2.20541 -3.79351 0
M  V30 3649 H 337.938 -0.447958 -0.552137 0
M  V30 3650 H 340.54 -1.68263 -0.995382 0
M  V30 3651 H 339.244 -3.1384 -2.64448 0
M  V30 3652 H 338.775 -1.69201 -3.55154 0
M  V30 3653 H 340.79 -1.36462 -4.77067 0
M  V30 3654 N 339.963 1.05934 -1.16686 0
M  V30 3655 C 341.24 1.75643 -0.860747 0
M  V30 3656 C 341.62 2.01144 0.640641 0
M  V30 3657 O 340.968 1.64147 1.58959 0
M  V30 3658 C 341.178 3.05493 -1.68745 0
M  V30 3659 C 342.526 3.79581 -1.90271 0
M  V30 3660 O 343.55 3.15344 -1.65641 0
M  V30 3661 O 342.409 4.9499 -2.31618 0
M  V30 3662 H 339.503 0.763426 -0.317977 0
M  V30 3663 H 342.049 1.1217 -1.27342 0
M  V30 3664 H 340.821 2.8264 -2.70611 0
M  V30 3665 H 340.444 3.76702 -1.27206 0
M  V30 3666 N 341.441 0.965919 1.2453 0
M  V30 3667 C 342.388 0.49402 2.25451 0
M  V30 3668 C 343.358 -0.45948 1.59618 0
M  V30 3669 O 344.543 -0.370238 1.87173 0
M  V30 3670 C 341.683 -0.211359 3.44452 0
M  V30 3671 C 340.796 0.7807 4.24887 0
M  V30 3672 C 339.931 0.0516105 5.31175 0
M  V30 3673 C 338.97 1.03385 6.03306 0
M  V30 3674 N 338.107 0.334887 7.01301 0
M  V30 3675 H 342.947 1.35946 2.65184 0
M  V30 3676 H 340.484 0.681515 1.3036 0
M  V30 3677 H 342.442 -0.637 4.12308 0
M  V30 3678 H 341.072 -1.04077 3.05562 0
M  V30 3679 H 340.124 1.32479 3.56586 0
M  V30 3680 H 341.436 1.52978 4.74762 0
M  V30 3681 H 340.59 -0.432114 6.05159 0
M  V30 3682 H 339.329 -0.730179 4.82203 0
M  V30 3683 H 338.334 1.52847 5.28127 0
M  V30 3684 H 339.559 1.81606 6.54367 0
M  V30 3685 H 337.505 -0.427959 6.54603 0
M  V30 3686 H 337.422 1.02287 7.49048 0
M  V30 3687 H 338.69 -0.126928 7.79397 0
M  V30 3688 N 342.919 -1.39368 0.735821 0
M  V30 3689 C 344.147 -2.04795 0.294393 0
M  V30 3690 C 344.562 -1.55478 -1.07107 0
M  V30 3691 O 343.919 -0.720038 -1.67695 0
M  V30 3692 C 343.97 -3.6035 0.288071 0
M  V30 3693 O 343.691 -4.07852 1.59963 0
M  V30 3694 C 345.192 -4.42976 -0.169422 0
M  V30 3695 H 342.412 -0.658571 0.128551 0
M  V30 3696 H 344.956 -1.78399 0.999701 0
M  V30 3697 H 343.111 -3.85645 -0.368355 0
M  V30 3698 H 343.525 -5.02181 1.51375 0
M  V30 3699 H 344.999 -5.51864 -0.122687 0
M  V30 3700 H 345.476 -4.22068 -1.21472 0
M  V30 3701 H 346.082 -4.22832 0.457469 0
M  V30 3702 N 344.397 -0.483516 -1.5 0
M  V30 3703 C 345.347 0.32306 -2.257 0
M  V30 3704 C 346.331 0.950755 -1.29805 0
M  V30 3705 O 347.523 0.861247 -1.54634 0
M  V30 3706 C 344.652 1.39724 -3.13579 0
M  V30 3707 C 343.738 0.776663 -4.16928 0
M  V30 3708 N 344.129 -0.1104 -5.0568 0
M  V30 3709 C 342.427 1.03922 -4.33724 0
M  V30 3710 C 343.128 -0.46387 -5.79848 0
M  V30 3711 N 342.104 0.163987 -5.43353 0
M  V30 3712 H 345.906 -0.360086 -2.91686 0
M  V30 3713 H 343.42 -0.298456 -1.59634 0
M  V30 3714 H 345.417 1.98837 -3.66428 0
M  V30 3715 H 344.077 2.08225 -2.49143 0
M  V30 3716 H 345.088 -0.480069 -5.1567 0
M  V30 3717 H 341.765 1.71829 -3.80501 0
M  V30 3718 H 343.155 -1.18854 -6.61304 0
M  V30 3719 N 345.875 1.56104 -0.216619 0
M  V30 3720 C 347.103 2.02563 0.421413 0
M  V30 3721 C 347.518 1.0965 1.53695 0
M  V30 3722 O 346.875 0.10521 1.82196 0
M  V30 3723 C 346.926 3.48584 0.957665 0
M  V30 3724 O 346.647 4.37953 -0.113389 0
M  V30 3725 C 348.148 4.10664 1.66943 0
M  V30 3726 H 345.368 0.662944 0.103665 0
M  V30 3727 H 347.912 2.01793 -0.331629 0
M  V30 3728 H 346.067 3.49985 1.661 0
M  V30 3729 H 346.481 5.23704 0.288932 0
M  V30 3730 H 347.955 5.14622 1.99671 0
M  V30 3731 H 348.432 3.55373 2.58083 0
M  V30 3732 H 349.038 4.13098 1.01142 0
M  V30 3733 N 347.353 -0.0568162 1.57498 0
M  V30 3734 C 348.593 -0.758273 1.89815 0
M  V30 3735 C 348.957 -1.73978 0.812132 0
M  V30 3736 O 350.158 -2.48744 1.01881 0
M  V30 3737 C 348.429 -1.43465 3.27342 0
M  V30 3738 S 349.988 -2.1691 3.81439 0
M  V30 3739 H 346.806 -0.251836 0.664906 0
M  V30 3740 H 349.408 -0.0137997 1.95495 0
M  V30 3741 H 348.112 -0.706693 4.0427 0
M  V30 3742 H 347.643 -2.21825 3.24896 0
M  V30 3743 H 349.658 -3.43658 3.5793 0
M  V30 3744 N 348.832 -1.54138 -0.328536 0
M  V30 3745 C 350.243 -1.63395 -0.903272 0
M  V30 3746 C 350.594 -0.524828 -1.8905 0
M  V30 3747 O 349.719 0.343068 -2.13663 0
M  V30 3748 C 350.314 -2.9618 -1.64507 0
M  V30 3749 C 348.873 -3.0765 -2.1686 0
M  V30 3750 C 348.02 -2.58933 -0.992416 0
M  V30 3751 H 350.971 -1.58344 -0.106253 0
M  V30 3752 H 350.992 -2.86061 -2.50897 0
M  V30 3753 H 350.504 -3.76884 -0.926302 0
M  V30 3754 H 348.605 -2.31611 -2.91868 0
M  V30 3755 H 348.718 -4.1337 -2.42202 0
M  V30 3756 H 347.082 -2.14706 -1.37016 0
M  V30 3757 H 347.865 -3.42089 -0.288041 0
M  V30 3758 N 350.31 0.590341 -1.46126 0
M  V30 3759 C 351.721 1.17243 -1.45296 0
M  V30 3760 C 352.072 1.95281 -0.189723 0
M  V30 3761 O 351.197 2.04502 0.707674 0
M  V30 3762 C 351.792 2.13284 -2.6324 0
M  V30 3763 C 350.351 2.66832 -2.65476 0
M  V30 3764 C 349.498 1.42557 -2.3785 0
M  V30 3765 H 352.449 0.378692 -1.54116 0
M  V30 3766 H 352.47 2.96619 -2.38323 0
M  V30 3767 H 351.982 1.56459 -3.55165 0
M  V30 3768 H 350.083 3.27548 -1.77603 0
M  V30 3769 H 350.196 3.10088 -3.65215 0
M  V30 3770 H 348.56 1.72107 -1.87753 0
M  V30 3771 H 349.343 0.875741 -3.31942 0
M  V30 3772 N 351.788 1.33704 0.83433 0
M  V30 3773 C 353.028 1.26754 1.60352 0
M  V30 3774 C 353.392 -0.163182 1.91305 0
M  V30 3775 O 354.593 -0.3567 2.66423 0
M  V30 3776 C 352.864 2.12262 2.8754 0
M  V30 3777 S 354.423 2.22549 3.78176 0
M  V30 3778 H 351.241 0.450879 0.549753 0
M  V30 3779 H 353.843 1.68788 0.986444 0
M  V30 3780 H 352.547 3.15238 2.62779 0
M  V30 3781 H 352.078 1.71082 3.54252 0
M  V30 3782 H 354.093 1.3899 4.76336 0
M  V30 3783 N 353.266 -1.05314 1.17247 0
M  V30 3784 C 354.677 -1.59753 0.96623 0
M  V30 3785 C 355.028 -1.9005 -0.487378 0
M  V30 3786 O 354.153 -1.68126 -1.36245 0
M  V30 3787 C 354.748 -2.90249 1.74759 0
M  V30 3788 C 353.307 -3.41352 1.58606 0
M  V30 3789 C 352.454 -2.15103 1.75002 0
M  V30 3790 H 355.405 -0.881406 1.31973 0
M  V30 3791 H 355.426 -3.60097 1.22925 0
M  V30 3792 H 354.938 -2.68166 2.8055 0
M  V30 3793 H 353.039 -3.68474 0.552985 0
M  V30 3794 H 353.152 -4.16019 2.37624 0
M  V30 3795 H 351.516 -2.25804 1.17833 0
M  V30 3796 H 352.299 -1.95491 2.82202 0
M  V30 3797 N 354.744 -0.972509 -1.24016 0
M  V30 3798 C 355.707 -0.511403 -2.23422 0
M  V30 3799 C 356.707 0.394679 -1.55881 0
M  V30 3800 O 357.897 0.189469 -1.73167 0
M  V30 3801 C 355.029 0.258769 -3.39916 0
M  V30 3802 H 356.222 -1.39024 -2.6573 0
M  V30 3803 H 353.775 -0.757585 -1.36713 0
M  V30 3804 H 354.51 1.1545 -3.03054 0
M  V30 3805 H 354.295 -0.391522 -3.9014 0
M  V30 3806 H 355.785 0.570244 -4.13688 0
M  V30 3807 N 356.222 1.38976 -0.743202 0
M  V30 3808 C 357.633 1.83123 -0.363732 0
M  V30 3809 C 357.984 1.6205 1.10609 0
M  V30 3810 O 357.109 1.11606 1.854 0
M  V30 3811 C 357.704 3.32439 -0.653408 0
M  V30 3812 C 356.263 3.74974 -0.327338 0
M  V30 3813 C 355.41 2.61878 -0.911875 0
M  V30 3814 H 358.361 1.27852 -0.940191 0
M  V30 3815 H 358.382 3.80432 0.0720031 0
M  V30 3816 H 357.894 3.47745 -1.72323 0
M  V30 3817 H 355.995 3.65252 0.736314 0
M  V30 3818 H 356.108 4.72106 -0.815631 0
M  V30 3819 H 354.472 2.52448 -0.337944 0
M  V30 3820 H 355.255 2.79987 -1.98651 0
M  V30 3821 N 357.7 0.491464 1.49741 0
M  V30 3822 C 358.61 -0.296835 2.32715 0
M  V30 3823 C 359.626 -0.976536 1.44013 0
M  V30 3824 O 360.802 -0.960023 1.77047 0
M  V30 3825 C 357.867 -1.35288 3.19215 0
M  V30 3826 C 356.928 -0.687632 4.23757 0
M  V30 3827 C 356.161 -1.69336 5.06123 0
M  V30 3828 O 356.384 -2.92219 4.89861 0
M  V30 3829 O 355.318 -1.25394 5.88693 0
M  V30 3830 H 359.144 0.382048 3.01287 0
M  V30 3831 H 356.729 0.252953 1.47243 0
M  V30 3832 H 358.611 -1.96411 3.72828 0
M  V30 3833 H 357.286 -2.01487 2.53347 0
M  V30 3834 H 356.193 -0.0369159 3.74082 0
M  V30 3835 H 357.526 -0.0682566 4.92153 0
M  V30 3836 N 359.178 -1.55987 0.224894 0
M  V30 3837 C 360.108 -2.23426 -0.678457 0
M  V30 3838 C 361.089 -1.20709 -1.19847 0
M  V30 3839 O 362.274 -1.49304 -1.24186 0
M  V30 3840 C 359.404 -2.91676 -1.88527 0
M  V30 3841 C 358.358 -4.00893 -1.49896 0
M  V30 3842 C 357.684 -4.56455 -2.78483 0
M  V30 3843 C 358.984 -5.17769 -0.686461 0
M  V30 3844 H 360.678 -2.99175 -0.116173 0
M  V30 3845 H 358.224 -1.43897 -0.054436 0
M  V30 3846 H 360.177 -3.37547 -2.5227 0
M  V30 3847 H 358.901 -2.1338 -2.47258 0
M  V30 3848 H 357.56 -3.55758 -0.884985 0
M  V30 3849 H 357.208 -3.74886 -3.35365 0
M  V30 3850 H 356.908 -5.30169 -2.53368 0
M  V30 3851 H 358.432 -5.05047 -3.43162 0
M  V30 3852 H 359.846 -5.60001 -1.22767 0
M  V30 3853 H 358.243 -5.97735 -0.532259 0
M  V30 3854 H 359.313 -4.83932 0.306196 0
M  V30 3855 N 360.656 0.0484629 -1.57525 0
M  V30 3856 C 361.586 1.0549 -2.08313 0
M  V30 3857 C 362.567 1.38929 -0.981463 0
M  V30 3858 O 363.752 1.48151 -1.25558 0
M  V30 3859 C 360.882 2.36162 -2.54646 0
M  V30 3860 C 359.836 2.17016 -3.68901 0
M  V30 3861 C 359.162 3.53278 -4.01371 0
M  V30 3862 C 360.462 1.57219 -4.98076 0
M  V30 3863 H 362.156 0.632195 -2.92649 0
M  V30 3864 H 359.702 0.302654 -1.40784 0
M  V30 3865 H 361.655 3.06882 -2.88793 0
M  V30 3866 H 360.379 2.80456 -1.67368 0
M  V30 3867 H 359.038 1.48733 -3.35073 0
M  V30 3868 H 358.686 3.95185 -3.11188 0
M  V30 3869 H 358.386 3.41299 -4.78318 0
M  V30 3870 H 359.91 4.25391 -4.38035 0
M  V30 3871 H 361.324 2.17832 -5.30304 0
M  V30 3872 H 359.721 1.55871 -5.79503 0
M  V30 3873 H 360.791 0.535956 -4.81929 0
M  V30 3874 N 362.134 1.5431 0.320358 0
M  V30 3875 C 363.382 1.72327 1.05583 0
M  V30 3876 C 363.703 0.50149 1.88441 0
M  V30 3877 O 362.973 -0.48448 1.89815 0
M  V30 3878 H 361.553 0.635387 0.3928 0
M  V30 3879 H 364.215 1.91621 0.356019 0
M  V30 3880 H 363.311 2.60426 1.72003 0
M  V30 3881 N 363.613 -0.582584 1.46437 0
M  V30 3882 C 364.861 -1.33814 1.51453 0
M  V30 3883 C 365.182 -1.94277 0.167792 0
M  V30 3884 O 364.452 -1.78566 -0.805677 0
M  V30 3885 H 363.032 -0.496838 0.557818 0
M  V30 3886 H 365.694 -0.682281 1.82568 0
M  V30 3887 H 364.79 -2.14479 2.26728 0
M  V30 3888 N 365.091 -1.34144 -0.827227 0
M  V30 3889 C 366.502 -1.23557 -1.39966 0
M  V30 3890 C 366.853 0.140731 -1.95695 0
M  V30 3891 O 365.978 1.04087 -1.89723 0
M  V30 3892 C 366.573 -2.23708 -2.54441 0
M  V30 3893 C 365.132 -2.16924 -3.07605 0
M  V30 3894 C 364.279 -2.10549 -1.80456 0
M  V30 3895 H 367.23 -1.45573 -0.631991 0
M  V30 3896 H 367.251 -1.85157 -3.32411 0
M  V30 3897 H 366.763 -3.23866 -2.13851 0
M  V30 3898 H 364.864 -1.20107 -3.52711 0
M  V30 3899 H 364.977 -3.07988 -3.66988 0
M  V30 3900 H 363.341 -1.56203 -2.01178 0
M  V30 3901 H 364.124 -3.12535 -1.42046 0
M  V30 3902 N 366.569 1.04691 -1.17803 0
M  V30 3903 C 367.794 1.81984 -0.994813 0
M  V30 3904 C 368.219 1.82586 0.452112 0
M  V30 3905 O 367.577 1.23854 1.324 0
M  V30 3906 C 367.625 3.2575 -1.54659 0
M  V30 3907 O 366.729 4.05267 -0.763728 0
M  V30 3908 H 366.07 0.562483 -0.352857 0
M  V30 3909 H 368.6 1.3189 -1.56417 0
M  V30 3910 H 368.61 3.76541 -1.57102 0
M  V30 3911 H 367.285 3.24627 -2.59981 0
M  V30 3912 H 365.862 3.63972 -0.811108 0
M  V30 3913 N 368.047 0.979072 1.23499 0
M  V30 3914 C 369.293 0.648178 1.92163 0
M  V30 3915 C 369.626 -0.816049 1.76222 0
M  V30 3916 O 368.901 -1.58849 1.12237 0
M  V30 3917 C 369.184 1.03773 3.44824 0
M  V30 3918 C 369.037 2.55948 3.69879 0
M  V30 3919 C 370.356 0.580653 4.36253 0
M  V30 3920 H 367.475 0.236952 0.69787 0
M  V30 3921 H 370.117 1.22012 1.45647 0
M  V30 3922 H 368.267 0.551058 3.84572 0
M  V30 3923 H 369.939 3.12179 3.3962 0
M  V30 3924 H 368.182 2.98641 3.14636 0
M  V30 3925 H 368.853 2.78255 4.76737 0
M  V30 3926 H 371.329 0.998465 4.03943 0
M  V30 3927 H 370.205 0.881663 5.41773 0
M  V30 3928 H 370.466 -0.519052 4.39042 0
M  V30 3929 N 369.525 -1.3858 0.750561 0
M  V30 3930 C 370.772 -2.00184 0.305373 0
M  V30 3931 C 371.1 -1.59575 -1.11203 0
M  V30 3932 O 370.355 -0.823236 -1.77542 0
M  V30 3933 C 370.654 -3.55455 0.372373 0
M  V30 3934 C 370.32 -4.15765 1.745 0
M  V30 3935 C 368.982 -4.31951 2.12065 0
M  V30 3936 C 371.334 -4.49067 2.64553 0
M  V30 3937 C 368.662 -4.78734 3.39162 0
M  V30 3938 C 371.014 -4.97265 3.91038 0
M  V30 3939 C 369.678 -5.11658 4.28676 0
M  V30 3940 H 368.948 -0.732526 0.111744 0
M  V30 3941 H 371.595 -1.65673 0.960451 0
M  V30 3942 H 369.9 -3.90084 -0.366272 0
M  V30 3943 H 371.597 -4.00999 0.00953918 0
M  V30 3944 H 368.187 -4.03579 1.44297 0
M  V30 3945 H 372.371 -4.36166 2.36796 0
M  V30 3946 H 367.627 -4.88062 3.68246 0
M  V30 3947 H 371.801 -5.22003 4.60962 0
M  V30 3948 H 369.428 -5.47668 5.27222 0
M  V30 3949 N 371.003 -0.499398 -1.49478 0
M  V30 3950 C 371.933 0.269244 -2.31943 0
M  V30 3951 C 372.914 0.964054 -1.40143 0
M  V30 3952 O 374.099 0.955767 -1.69052 0
M  V30 3953 C 371.229 1.33504 -3.20615 0
M  V30 3954 C 370.183 0.760202 -4.21195 0
M  V30 3955 C 369.509 1.9264 -4.98792 0
M  V30 3956 C 370.809 -0.247661 -5.21712 0
M  V30 3957 H 372.503 -0.419082 -2.96452 0
M  V30 3958 H 370.049 -0.202988 -1.42562 0
M  V30 3959 H 372.002 1.88048 -3.77115 0
M  V30 3960 H 370.726 2.05253 -2.54045 0
M  V30 3961 H 369.385 0.23653 -3.65836 0
M  V30 3962 H 369.033 2.63154 -4.28671 0
M  V30 3963 H 368.733 1.54785 -5.66847 0
M  V30 3964 H 370.257 2.4762 -5.58137 0
M  V30 3965 H 371.671 0.209579 -5.72917 0
M  V30 3966 H 370.068 -0.541962 -5.97648 0
M  V30 3967 H 371.138 -1.16409 -4.7072 0
M  V30 3968 N 372.481 1.55866 -0.233164 0
M  V30 3969 C 373.728 1.98603 0.395374 0
M  V30 3970 C 374.056 1.12105 1.58942 0
M  V30 3971 O 373.311 0.168656 1.94972 0
M  V30 3972 C 373.61 3.46856 0.861724 0
M  V30 3973 C 373.276 4.50348 -0.223066 0
M  V30 3974 C 371.938 4.78371 -0.521038 0
M  V30 3975 C 374.29 5.12355 -0.956124 0
M  V30 3976 C 371.618 5.6568 -1.55638 0
M  V30 3977 C 373.97 6.00786 -1.98089 0
M  V30 3978 C 372.634 6.27148 -2.28565 0
M  V30 3979 H 371.904 0.726739 0.144677 0
M  V30 3980 H 374.551 1.88491 -0.338114 0
M  V30 3981 H 372.856 3.5423 1.67418 0
M  V30 3982 H 374.553 3.77302 1.35809 0
M  V30 3983 H 371.143 4.28596 0.0193234 0
M  V30 3984 H 375.327 4.90765 -0.739166 0
M  V30 3985 H 370.583 5.84365 -1.798 0
M  V30 3986 H 374.757 6.4788 -2.55391 0
M  V30 3987 H 372.384 6.94597 -3.08932 0
M  V30 3988 N 373.959 -0.0401083 1.57549 0
M  V30 3989 C 375.37 -0.588097 1.77196 0
M  V30 3990 C 375.721 -1.76209 0.862832 0
M  V30 3991 O 374.846 -2.16331 0.0548389 0
M  V30 3992 C 375.441 -1.07363 3.21339 0
M  V30 3993 C 374 -1.56723 3.42221 0
M  V30 3994 C 373.147 -0.50041 2.72747 0
M  V30 3995 H 376.098 0.186119 1.57605 0
M  V30 3996 H 376.119 -1.94143 3.27244 0
M  V30 3997 H 375.631 -0.218975 3.87482 0
M  V30 3998 H 373.732 -2.4441 2.81237 0
M  V30 3999 H 373.845 -1.62234 4.50796 0
M  V30 4000 H 372.209 -0.952894 2.36203 0
M  V30 4001 H 372.992 0.344599 3.41566 0
M  V30 4002 N 375.437 -1.54477 -0.31217 0
M  V30 4003 C 376.848 -1.64344 -0.885891 0
M  V30 4004 C 377.199 -0.54485 -1.88483 0
M  V30 4005 O 376.324 0.320387 -2.14015 0
M  V30 4006 C 376.919 -2.97908 -1.61357 0
M  V30 4007 C 375.478 -3.09933 -2.13585 0
M  V30 4008 C 374.625 -2.59971 -0.964897 0
M  V30 4009 H 377.576 -1.58448 -0.0894528 0
M  V30 4010 H 377.597 -2.88706 -2.47848 0
M  V30 4011 H 377.109 -3.77845 -0.886277 0
M  V30 4012 H 375.21 -2.34694 -2.89395 0
M  V30 4013 H 375.323 -4.15916 -2.37804 0
M  V30 4014 H 373.687 -2.16147 -1.34731 0
M  V30 4015 H 374.47 -3.42376 -0.251742 0
M  V30 4016 N 376.915 0.57481 -1.46744 0
M  V30 4017 C 377.862 1.68329 -1.57905 0
M  V30 4018 C 378.832 1.60625 -0.422927 0
M  V30 4019 O 380.017 1.79721 -0.640711 0
M  V30 4020 C 377.157 3.06665 -1.58274 0
M  V30 4021 C 376.27 3.24935 -2.84678 0
M  V30 4022 C 375.405 4.53566 -2.76499 0
M  V30 4023 C 374.444 4.65207 -3.97806 0
M  V30 4024 N 373.581 5.85172 -3.87967 0
M  V30 4025 H 378.421 1.58127 -2.52587 0
M  V30 4026 H 375.958 0.770552 -1.25303 0
M  V30 4027 H 377.916 3.86745 -1.56473 0
M  V30 4028 H 376.546 3.15745 -0.671194 0
M  V30 4029 H 375.598 2.38405 -2.96424 0
M  V30 4030 H 376.91 3.29403 -3.7456 0
M  V30 4031 H 376.064 5.41885 -2.72848 0
M  V30 4032 H 374.803 4.51548 -1.8427 0
M  V30 4033 H 373.808 3.75304 -4.0178 0
M  V30 4034 H 375.033 4.68997 -4.9114 0
M  V30 4035 H 372.979 5.84137 -2.98529 0
M  V30 4036 H 372.896 5.90943 -4.71511 0
M  V30 4037 H 374.164 6.759 -3.88303 0
M  V30 4038 N 378.394 1.34581 0.820102 0
M  V30 4039 C 379.805 1.24298 1.39309 0
M  V30 4040 C 380.156 -0.130351 1.95767 0
M  V30 4041 O 379.281 -1.0308 1.90272 0
M  V30 4042 C 379.876 2.25054 2.53251 0
M  V30 4043 C 378.435 2.18552 3.0645 0
M  V30 4044 C 377.582 2.11503 1.79337 0
M  V30 4045 H 380.533 1.45906 0.624262 0
M  V30 4046 H 380.554 1.86917 3.31425 0
M  V30 4047 H 380.066 3.24996 2.1213 0
M  V30 4048 H 378.167 1.21976 3.52069 0
M  V30 4049 H 378.28 3.0993 3.65349 0
M  V30 4050 H 376.644 1.57268 2.00347 0
M  V30 4051 H 377.427 3.13284 1.40386 0
M  V30 4052 N 379.872 -1.04064 1.18357 0
M  V30 4053 C 380.819 -2.12077 0.910603 0
M  V30 4054 C 381.789 -1.65421 -0.15 0
M  V30 4055 O 382.974 -1.90797 -0.0103614 0
M  V30 4056 C 380.114 -3.42252 0.442472 0
M  V30 4057 C 379.227 -4.0252 1.5685 0
M  V30 4058 C 378.362 -5.20657 1.05309 0
M  V30 4059 C 377.401 -5.72955 2.1538 0
M  V30 4060 N 376.538 -6.8238 1.65233 0
M  V30 4061 H 381.378 -2.34764 1.83548 0
M  V30 4062 H 378.915 -1.15157 0.915279 0
M  V30 4063 H 380.873 -4.16921 0.152534 0
M  V30 4064 H 379.503 -3.19712 -0.445428 0
M  V30 4065 H 378.555 -3.25178 1.97391 0
M  V30 4066 H 379.867 -4.37362 2.39824 0
M  V30 4067 H 379.021 -6.0244 0.717677 0
M  V30 4068 H 377.76 -4.87318 0.19293 0
M  V30 4069 H 376.765 -4.89793 2.49766 0
M  V30 4070 H 377.99 -6.08337 3.01832 0
M  V30 4071 H 375.936 -6.50917 0.815064 0
M  V30 4072 H 375.853 -7.16286 2.41805 0
M  V30 4073 H 377.121 -7.67788 1.34619 0
M  V30 4074 N 381.35 -0.985608 -1.22978 0
M  V30 4075 C 382.627 -0.573599 -1.87001 0
M  V30 4076 C 383.007 0.949213 -1.88555 0
M  V30 4077 O 382.355 1.82811 -1.37086 0
M  V30 4078 C 382.565 -1.18564 -3.28243 0
M  V30 4079 C 383.913 -1.28163 -4.04796 0
M  V30 4080 O 384.937 -1.13949 -3.37482 0
M  V30 4081 O 383.796 -1.50832 -5.25273 0
M  V30 4082 H 380.89 -0.193868 -0.803955 0
M  V30 4083 H 383.436 -1.08102 -1.30813 0
M  V30 4084 H 382.208 -2.22758 -3.21706 0
M  V30 4085 H 381.831 -0.663363 -3.92027 0
M  V30 4086 N 382.828 1.3818 -0.7579 0
M  V30 4087 C 384.056 2.04301 -0.326937 0
M  V30 4088 C 384.471 1.57163 1.0462 0
M  V30 4089 O 383.828 0.746626 1.66529 0
M  V30 4090 C 383.879 3.59846 -0.345363 0
M  V30 4091 O 383.6 4.05256 -1.66432 0
M  V30 4092 C 385.101 4.4319 0.098927 0
M  V30 4093 H 382.321 0.656443 -0.139012 0
M  V30 4094 H 384.865 1.76786 -1.02796 0
M  V30 4095 H 383.02 3.86182 0.306955 0
M  V30 4096 H 383.434 4.99709 -1.59345 0
M  V30 4097 H 384.908 5.51989 0.0348745 0
M  V30 4098 H 385.385 4.23947 1.14741 0
M  V30 4099 H 385.991 4.22051 -0.52468 0
M  V30 4100 N 384.306 0.507319 1.49211 0
M  V30 4101 C 385.236 -0.256939 2.32082 0
M  V30 4102 C 386.217 -0.956609 1.40652 0
M  V30 4103 O 387.402 -0.946788 1.69557 0
M  V30 4104 C 384.532 -1.31802 3.21318 0
M  V30 4105 C 383.486 -0.737855 4.21592 0
M  V30 4106 C 382.812 -1.89992 4.99807 0
M  V30 4107 C 384.112 0.275325 5.21574 0
M  V30 4108 H 385.806 0.434798 2.96226 0
M  V30 4109 H 383.352 0.210546 1.42452 0
M  V30 4110 H 385.305 -1.86045 3.78107 0
M  V30 4111 H 384.029 -2.03903 2.5513 0
M  V30 4112 H 382.688 -0.217126 3.65956 0
M  V30 4113 H 382.336 -2.60877 4.30061 0
M  V30 4114 H 382.036 -1.51777 5.6766 0
M  V30 4115 H 383.56 -2.44657 5.59442 0
M  V30 4116 H 384.974 -0.179193 5.7302 0
M  V30 4117 H 383.371 0.573649 5.97352 0
M  V30 4118 H 384.441 1.18903 4.70096 0
M  V30 4119 N 385.784 -1.5574 0.241426 0
M  V30 4120 C 386.717 -2.17168 -0.700935 0
M  V30 4121 C 387.695 -1.12206 -1.1768 0
M  V30 4122 O 388.879 -1.40565 -1.25593 0
M  V30 4123 C 386.006 -2.76796 -1.95196 0
M  V30 4124 C 385.052 -3.94764 -1.61442 0
M  V30 4125 S 385.885 -5.30613 -0.72182 0
M  V30 4126 C 387.041 -5.93691 -1.98197 0
M  V30 4127 H 387.274 -2.96761 -0.178882 0
M  V30 4128 H 384.807 -1.54378 0.0259299 0
M  V30 4129 H 386.765 -3.11787 -2.67019 0
M  V30 4130 H 385.426 -1.9716 -2.44514 0
M  V30 4131 H 384.619 -4.35057 -2.54443 0
M  V30 4132 H 384.221 -3.61022 -0.976672 0
M  V30 4133 H 386.513 -6.10874 -2.92983 0
M  V30 4134 H 387.456 -6.89258 -1.62262 0
M  V30 4135 H 387.864 -5.22709 -2.13156 0
M  V30 4136 N 387.262 0.0317525 -1.57568 0
M  V30 4137 C 388.511 0.722131 -1.8833 0
M  V30 4138 C 388.824 1.76664 -0.839587 0
M  V30 4139 O 390.03 2.50942 -1.03635 0
M  V30 4140 C 388.486 1.33544 -3.34207 0
M  V30 4141 C 388.094 0.327415 -4.46802 0
M  V30 4142 C 389.838 2.00585 -3.7412 0
M  V30 4143 C 387.745 0.948915 -5.83738 0
M  V30 4144 H 386.675 0.273466 -0.702661 0
M  V30 4145 H 389.326 -0.0235811 -1.83485 0
M  V30 4146 H 387.708 2.13077 -3.33788 0
M  V30 4147 H 388.882 -0.441006 -4.58685 0
M  V30 4148 H 387.197 -0.240758 -4.15703 0
M  V30 4149 H 389.794 2.47932 -4.73744 0
M  V30 4150 H 390.137 2.82285 -3.05975 0
M  V30 4151 H 390.67 1.27831 -3.76702 0
M  V30 4152 H 387.409 0.171387 -6.55276 0
M  V30 4153 H 386.929 1.68724 -5.7558 0
M  V30 4154 H 388.608 1.45705 -6.3038 0
M  V30 4155 N 388.74 1.54641 0.303973 0
M  V30 4156 C 389.965 1.78092 1.06292 0
M  V30 4157 C 390.39 0.537342 1.80262 0
M  V30 4158 O 389.748 -0.511993 1.7392 0
M  V30 4159 C 389.796 2.98612 2.02147 0
M  V30 4160 O 388.9 2.71528 3.10397 0
M  V30 4161 H 388.241 0.589548 0.305497 0
M  V30 4162 H 390.771 2.01716 0.3423 0
M  V30 4163 H 390.781 3.265 2.44667 0
M  V30 4164 H 389.456 3.88785 1.47714 0
M  V30 4165 H 388.033 2.54648 2.72413 0
M  V30 4166 N 390.218 -0.567019 1.47046 0
M  V30 4167 C 391.634 -0.891975 1.32348 0
M  V30 4168 C 391.834 -1.99154 0.306616 0
M  V30 4169 O 390.89 -2.50883 -0.28532 0
M  V30 4170 C 392.203 -1.29449 2.7141 0
M  V30 4171 C 393.751 -1.40646 2.79621 0
M  V30 4172 C 394.226 -1.84257 4.19301 0
M  V30 4173 N 395.717 -1.91424 4.21795 0
M  V30 4174 C 396.452 -2.26476 5.26779 0
M  V30 4175 N 395.948 -2.60211 6.42077 0
M  V30 4176 N 397.741 -2.27166 5.14152 0
M  V30 4177 H 389.892 0.159074 2.11803 0
M  V30 4178 H 392.155 0.00849752 0.947962 0
M  V30 4179 H 391.861 -0.560448 3.47206 0
M  V30 4180 H 391.735 -2.25273 3.02542 0
M  V30 4181 H 394.122 -2.13133 2.04104 0
M  V30 4182 H 394.203 -0.430339 2.52154 0
M  V30 4183 H 393.847 -1.12343 4.95319 0
M  V30 4184 H 393.777 -2.82855 4.44185 0
M  V30 4185 H 396.268 -1.6778 3.38612 0
M  V30 4186 H 396.581 -2.85956 7.17948 0
M  V30 4187 H 394.926 -2.57813 6.45413 0
M  V30 4188 H 398.117 -2.00244 4.23107 0
M  V30 4189 H 398.29 -2.54154 5.96079 0
M  V30 4190 N 391.696 -1.35014 -0.812953 0
M  V30 4191 C 392.924 -1.31031 -1.6012 0
M  V30 4192 C 393.339 0.113558 -1.88458 0
M  V30 4193 O 392.696 1.06363 -1.48301 0
M  V30 4194 C 392.747 -2.10872 -2.93624 0
M  V30 4195 O 392.468 -3.47706 -2.66518 0
M  V30 4196 C 393.969 -2.14401 -3.88004 0
M  V30 4197 H 391.189 -0.45037 -0.497401 0
M  V30 4198 H 393.733 -1.77775 -1.01076 0
M  V30 4199 H 391.888 -1.67744 -3.492 0
M  V30 4200 H 392.302 -3.89097 -3.51715 0
M  V30 4201 H 393.776 -2.74669 -4.78812 0
M  V30 4202 H 394.253 -1.14105 -4.24119 0
M  V30 4203 H 394.859 -2.57662 -3.38364 0
M  V30 4204 N 393.175 1.03435 -1.18907 0
M  V30 4205 C 394.586 1.58195 -0.991523 0
M  V30 4206 C 394.937 1.90801 0.457081 0
M  V30 4207 O 394.062 1.70272 1.33553 0
M  V30 4208 C 394.657 2.87432 -1.79355 0
M  V30 4209 C 393.216 3.38785 -1.64017 0
M  V30 4210 C 392.363 2.12292 -1.78402 0
M  V30 4211 H 395.314 0.860299 -1.33359 0
M  V30 4212 H 395.335 3.58096 -1.28638 0
M  V30 4213 H 394.847 2.63669 -2.84781 0
M  V30 4214 H 392.948 3.67547 -0.611536 0
M  V30 4215 H 393.061 4.12186 -2.44212 0
M  V30 4216 H 391.425 2.23901 -1.2141 0
M  V30 4217 H 392.208 1.90977 -2.85277 0
M  V30 4218 N 394.653 0.992116 1.22453 0
M  V30 4219 C 395.563 0.55065 2.28046 0
M  V30 4220 C 396.579 -0.400189 1.69335 0
M  V30 4221 O 397.755 -0.267215 1.99619 0
M  V30 4222 C 394.82 -0.128496 3.46462 0
M  V30 4223 C 393.881 0.865208 4.20491 0
M  V30 4224 C 393.114 0.218377 5.33253 0
M  V30 4225 O 393.337 -0.987894 5.6178 0
M  V30 4226 O 392.271 0.922845 5.94783 0
M  V30 4227 H 396.097 1.4291 2.67975 0
M  V30 4228 H 393.682 0.760326 1.28606 0
M  V30 4229 H 395.564 -0.508947 4.18315 0
M  V30 4230 H 394.239 -0.981526 3.0846 0
M  V30 4231 H 393.146 1.29658 3.50913 0
M  V30 4232 H 394.479 1.68741 4.62371 0
M  V30 4233 N 396.131 -1.37776 0.765217 0
M  V30 4234 C 397.377 -2.00145 0.327072 0
M  V30 4235 C 397.71 -1.60607 -1.09175 0
M  V30 4236 O 396.985 -0.849127 -1.74986 0
M  V30 4237 C 397.268 -3.57109 0.46319 0
M  V30 4238 C 397.121 -4.06576 1.92395 0
M  V30 4239 C 398.44 -4.39888 -0.136473 0
M  V30 4240 H 395.559 -0.727113 0.120316 0
M  V30 4241 H 398.201 -1.63549 0.967039 0
M  V30 4242 H 396.351 -3.88414 -0.0816358 0
M  V30 4243 H 398.023 -3.85864 2.52798 0
M  V30 4244 H 396.266 -3.59011 2.43503 0
M  V30 4245 H 396.937 -5.15639 1.97028 0
M  V30 4246 H 399.413 -4.14803 0.328317 0
M  V30 4247 H 398.289 -5.48899 -0.0110582 0
M  V30 4248 H 398.55 -4.24758 -1.22608 0
M  V30 4249 N 397.609 -0.515225 -1.4894 0
M  V30 4250 C 398.837 0.0206034 -2.0689 0
M  V30 4251 C 399.252 1.29514 -1.37374 0
M  V30 4252 O 398.609 1.76698 -0.456529 0
M  V30 4253 C 398.66 0.26351 -3.60538 0
M  V30 4254 O 398.381 -0.960517 -4.27441 0
M  V30 4255 C 399.882 0.841383 -4.35242 0
M  V30 4256 H 397.102 -0.0268608 -0.670462 0
M  V30 4257 H 399.646 -0.716651 -1.91532 0
M  V30 4258 H 397.801 0.950777 -3.75552 0
M  V30 4259 H 398.215 -0.73212 -5.19365 0
M  V30 4260 H 399.689 0.96085 -5.43573 0
M  V30 4261 H 400.166 1.8427 -3.98674 0
M  V30 4262 H 400.772 0.191143 -4.2487 0
M  V30 4263 N 399.087 1.5561 -0.249682 0
M  V30 4264 C 400.327 2.00916 0.37579 0
M  V30 4265 C 400.691 1.13409 1.54927 0
M  V30 4266 O 401.892 1.48183 2.24266 0
M  V30 4267 C 400.163 3.48949 0.772633 0
M  V30 4268 S 401.722 4.16261 1.38824 0
M  V30 4269 H 398.54 0.70112 0.118117 0
M  V30 4270 H 401.142 1.92052 -0.365567 0
M  V30 4271 H 399.846 4.103 -0.090683 0
M  V30 4272 H 399.377 3.61745 1.5461 0
M  V30 4273 H 401.392 4.17778 2.67724 0
M  V30 4274 N 400.565 -0.0233959 1.57583 0
M  V30 4275 C 401.811 -0.714119 1.89811 0
M  V30 4276 C 402.144 -1.74702 0.848113 0
M  V30 4277 O 401.419 -1.94023 -0.136135 0
M  V30 4278 C 401.702 -1.37853 3.32669 0
M  V30 4279 C 401.555 -0.358764 4.48367 0
M  V30 4280 C 402.874 -2.31101 3.7454 0
M  V30 4281 H 399.993 -0.25814 0.690314 0
M  V30 4282 H 402.635 0.0230927 1.89986 0
M  V30 4283 H 400.785 -2.00689 3.3265 0
M  V30 4284 H 402.457 0.268115 4.6052 0
M  V30 4285 H 400.7 0.321387 4.32608 0
M  V30 4286 H 401.371 -0.862242 5.45224 0
M  V30 4287 H 403.847 -1.78304 3.75961 0
M  V30 4288 H 402.723 -2.74567 4.75294 0
M  V30 4289 H 402.984 -3.18018 3.0711 0
M  V30 4290 N 402.043 -1.548 -0.295768 0
M  V30 4291 C 403.289 -1.74588 -1.03184 0
M  V30 4292 C 403.622 -0.532962 -1.86744 0
M  V30 4293 O 402.897 0.469872 -1.88739 0
M  V30 4294 C 403.18 -3.03791 -1.93347 0
M  V30 4295 C 403.033 -4.35392 -1.12933 0
M  V30 4296 C 404.352 -3.28892 -2.92435 0
M  V30 4297 H 401.471 -0.635221 -0.373715 0
M  V30 4298 H 404.113 -1.87519 -0.30606 0
M  V30 4299 H 402.263 -2.92898 -2.55232 0
M  V30 4300 H 403.935 -4.58211 -0.532943 0
M  V30 4301 H 402.178 -4.31642 -0.432168 0
M  V30 4302 H 402.849 -5.22074 -1.79284 0
M  V30 4303 H 405.325 -3.39429 -2.4068 0
M  V30 4304 H 404.201 -4.20603 -3.52682 0
M  V30 4305 H 404.462 -2.47437 -3.6637 0
M  V30 4306 N 403.521 0.559213 -1.47345 0
M  V30 4307 C 404.767 1.31843 -1.54095 0
M  V30 4308 C 405.1 1.93149 -0.201726 0
M  V30 4309 O 404.375 1.77759 0.789428 0
M  V30 4310 C 404.658 2.43006 -2.65744 0
M  V30 4311 C 404.511 1.86581 -4.09277 0
M  V30 4312 C 405.83 3.44943 -2.73318 0
M  V30 4313 H 402.949 0.478012 -0.560957 0
M  V30 4314 H 405.591 0.625977 -1.79392 0
M  V30 4315 H 403.741 3.02072 -2.44305 0
M  V30 4316 H 405.413 1.31792 -4.42073 0
M  V30 4317 H 403.656 1.17268 -4.17649 0
M  V30 4318 H 404.327 2.66933 -4.83168 0
M  V30 4319 H 406.803 2.95793 -2.92653 0
M  V30 4320 H 405.679 4.20153 -3.53218 0
M  V30 4321 H 405.94 4.03665 -1.80296 0
M  V30 4322 N 404.999 1.35443 0.805782 0
M  V30 4323 C 406.276 1.19325 1.54987 0
M  V30 4324 C 406.656 -0.227294 2.09873 0
M  V30 4325 O 406.004 -1.2309 1.92512 0
M  V30 4326 C 406.214 2.26196 2.65775 0
M  V30 4327 C 407.562 2.62043 3.34094 0
M  V30 4328 O 408.586 2.25115 2.76046 0
M  V30 4329 O 407.445 3.25542 4.38958 0
M  V30 4330 H 404.539 0.463623 0.684823 0
M  V30 4331 H 407.085 1.47127 0.845674 0
M  V30 4332 H 405.857 3.21471 2.23096 0
M  V30 4333 H 405.48 1.99667 3.43829 0
M  V30 4334 N 406.477 -1.02803 1.19454 0
M  V30 4335 C 407.723 -1.76478 0.999171 0
M  V30 4336 C 408.056 -1.88456 -0.468828 0
M  V30 4337 O 407.331 -1.40198 -1.34814 0
M  V30 4338 C 407.614 -3.19044 1.66981 0
M  V30 4339 C 407.467 -3.14932 3.21151 0
M  V30 4340 C 408.786 -4.17456 1.39349 0
M  V30 4341 H 405.905 -0.640614 0.364393 0
M  V30 4342 H 408.547 -1.20005 1.47305 0
M  V30 4343 H 406.697 -3.67263 1.2669 0
M  V30 4344 H 408.369 -2.74605 3.70661 0
M  V30 4345 H 406.612 -2.52625 3.52652 0
M  V30 4346 H 407.283 -4.1566 3.63223 0
M  V30 4347 H 409.759 -3.77842 1.74283 0
M  V30 4348 H 408.635 -5.154 1.88823 0
M  V30 4349 H 408.896 -4.40949 0.318813 0
M  V30 4350 N 407.956 -0.998596 -1.21925 0
M  V30 4351 C 409.181 -0.696015 -1.95372 0
M  V30 4352 C 409.606 0.733826 -1.73195 0
M  V30 4353 O 408.964 1.50242 -1.01474 0
M  V30 4354 C 409.012 -1.01466 -3.4603 0
M  V30 4355 O 408.116 -0.116415 -4.12236 0
M  V30 4356 H 407.457 -0.259938 -0.611006 0
M  V30 4357 H 409.987 -1.33711 -1.54863 0
M  V30 4358 H 409.997 -0.958855 -3.96573 0
M  V30 4359 H 408.672 -2.05653 -3.61497 0
M  V30 4360 H 407.249 -0.228193 -3.72201 0
M  V30 4361 N 409.434 1.37368 -0.772513 0
M  V30 4362 C 410.384 2.27613 -0.132823 0
M  V30 4363 C 411.368 1.46138 0.673247 0
M  V30 4364 O 412.56 1.68686 0.536095 0
M  V30 4365 C 409.689 3.35122 0.744864 0
M  V30 4366 C 408.775 4.24044 -0.0690771 0
M  V30 4367 N 409.166 4.93355 -1.1151 0
M  V30 4368 C 407.464 4.45731 0.154782 0
M  V30 4369 C 408.165 5.59 -1.60917 0
M  V30 4370 N 407.141 5.35737 -0.921222 0
M  V30 4371 H 410.943 2.78675 -0.933681 0
M  V30 4372 H 408.457 1.50494 -0.610342 0
M  V30 4373 H 410.454 3.98683 1.21892 0
M  V30 4374 H 409.114 2.85616 1.54446 0
M  V30 4375 H 410.125 4.95785 -1.49726 0
M  V30 4376 H 406.802 4.07096 0.926224 0
M  V30 4377 H 408.192 6.24395 -2.48153 0
M  V30 4378 N 410.912 0.523116 1.48665 0
M  V30 4379 C 411.822 -0.247406 2.33292 0
M  V30 4380 C 412.838 -0.945769 1.46052 0
M  V30 4381 O 414.014 -0.922253 1.79043 0
M  V30 4382 C 411.079 -1.28487 3.22012 0
M  V30 4383 C 410.14 -0.597592 4.2512 0
M  V30 4384 C 409.373 -1.58563 5.09601 0
M  V30 4385 O 409.596 -2.81763 4.95949 0
M  V30 4386 O 408.53 -1.12879 5.91221 0
M  V30 4387 H 412.356 0.445869 3.00409 0
M  V30 4388 H 409.941 0.284128 1.46673 0
M  V30 4389 H 411.823 -1.88459 3.7691 0
M  V30 4390 H 410.498 -1.96068 2.57564 0
M  V30 4391 H 409.405 0.0424407 3.74076 0
M  V30 4392 H 410.738 0.0361517 4.92187 0
M  V30 4393 N 412.39 -1.55475 0.257931 0
M  V30 4394 C 413.667 -1.91155 -0.414629 0
M  V30 4395 C 414.047 -1.18008 -1.75035 0
M  V30 4396 O 413.395 -0.301193 -2.26506 0
M  V30 4397 C 413.605 -3.44283 -0.571859 0
M  V30 4398 C 414.953 -4.15744 -0.862678 0
M  V30 4399 O 415.977 -3.50083 -0.657314 0
M  V30 4400 O 414.836 -5.31909 -1.2544 0
M  V30 4401 H 411.93 -0.796016 -0.22425 0
M  V30 4402 H 414.476 -1.66976 0.302814 0
M  V30 4403 H 413.248 -3.89558 0.368844 0
M  V30 4404 H 412.871 -3.7436 -1.33943 0
M  V30 4405 N 413.868 0.0150385 -1.57593 0
M  V30 4406 C 415.279 0.559832 -1.78109 0
M  V30 4407 C 415.63 1.74814 -0.890756 0
M  V30 4408 O 414.755 2.16216 -0.0892482 0
M  V30 4409 C 415.35 1.02238 -3.23006 0
M  V30 4410 C 413.909 1.51258 -3.44671 0
M  V30 4411 C 413.056 0.456955 -2.73509 0
M  V30 4412 H 416.007 -0.211169 -1.57289 0
M  V30 4413 H 416.028 1.88912 -3.30292 0
M  V30 4414 H 415.54 0.157302 -3.87781 0
M  V30 4415 H 413.641 2.39905 -2.8509 0
M  V30 4416 H 413.754 1.55042 -4.5332 0
M  V30 4417 H 412.118 0.915196 -2.37689 0
M  V30 4418 H 412.901 -0.398896 -3.40975 0
M  V30 4419 N 415.346 1.54954 0.287554 0
M  V30 4420 C 416.278 1.83224 1.37701 0
M  V30 4421 C 417.291 0.715898 1.46215 0
M  V30 4422 O 418.48 0.993565 1.48292 0
M  V30 4423 C 415.58 1.96723 2.75959 0
M  V30 4424 C 414.753 3.27253 2.90215 0
M  V30 4425 C 413.812 3.30998 4.09056 0
M  V30 4426 O 412.838 4.04457 4.00503 0
M  V30 4427 N 414.04 2.57353 5.20336 0
M  V30 4428 H 416.805 2.77254 1.138 0
M  V30 4429 H 414.366 1.54694 0.477652 0
M  V30 4430 H 416.358 1.96615 3.5373 0
M  V30 4431 H 414.928 1.09626 2.92747 0
M  V30 4432 H 414.148 3.40022 1.99447 0
M  V30 4433 H 415.436 4.13365 2.96659 0
M  V30 4434 H 414.834 1.97327 5.30169 0
M  V30 4435 H 413.391 2.62984 5.96391 0
M  V30 4436 N 416.824 -0.551391 1.4764 0
M  V30 4437 C 418.07 -1.31024 1.54792 0
M  V30 4438 C 418.403 -1.9304 0.211967 0
M  V30 4439 O 417.678 -1.78175 -0.77999 0
M  V30 4440 C 417.961 -2.41593 2.67029 0
M  V30 4441 C 417.814 -1.84408 4.10261 0
M  V30 4442 C 419.133 -3.43488 2.75143 0
M  V30 4443 H 416.252 -0.475031 0.563485 0
M  V30 4444 H 418.894 -0.616454 1.79722 0
M  V30 4445 H 417.044 -3.00772 2.45904 0
M  V30 4446 H 418.716 -1.29445 4.42766 0
M  V30 4447 H 416.959 -1.15051 4.18265 0
M  V30 4448 H 417.63 -2.64367 4.84576 0
M  V30 4449 H 420.106 -2.94236 2.94218 0
M  V30 4450 H 418.982 -4.18274 3.55441 0
M  V30 4451 H 419.243 -4.02703 1.82435 0
M  V30 4452 N 418.302 -1.35869 -0.798587 0
M  V30 4453 C 419.249 -1.29446 -1.91082 0
M  V30 4454 C 420.219 -0.16487 -1.6528 0
M  V30 4455 O 421.404 -0.349888 -1.87564 0
M  V30 4456 C 418.544 -1.0804 -3.27752 0
M  V30 4457 C 417.657 -2.29993 -3.65687 0
M  V30 4458 C 416.792 -2.01673 -4.91428 0
M  V30 4459 C 415.831 -3.19636 -5.22015 0
M  V30 4460 N 414.968 -2.91039 -6.38937 0
M  V30 4461 H 419.808 -2.24553 -1.95907 0
M  V30 4462 H 417.345 -1.11615 -0.958148 0
M  V30 4463 H 419.303 -0.936586 -4.06551 0
M  V30 4464 H 417.933 -0.16592 -3.22373 0
M  V30 4465 H 416.985 -2.55211 -2.82085 0
M  V30 4466 H 418.297 -3.18052 -3.84245 0
M  V30 4467 H 417.451 -1.84168 -5.78072 0
M  V30 4468 H 416.19 -1.10911 -4.74921 0
M  V30 4469 H 415.195 -3.37709 -4.33858 0
M  V30 4470 H 416.42 -4.11211 -5.40447 0
M  V30 4471 H 414.366 -2.0288 -6.2384 0
M  V30 4472 H 414.283 -3.72635 -6.57784 0
M  V30 4473 H 415.551 -2.77093 -7.28587 0
M  V30 4474 N 419.78 1.02168 -1.19998 0
M  V30 4475 C 421.027 1.75685 -1.00702 0
M  V30 4476 C 421.355 1.88947 0.461426 0
M  V30 4477 O 420.61 1.40832 1.35885 0
M  V30 4478 C 420.909 3.18081 -1.62969 0
M  V30 4479 C 420.575 3.24809 -3.12746 0
M  V30 4480 C 419.237 3.26352 -3.53621 0
M  V30 4481 C 421.589 3.23379 -4.08749 0
M  V30 4482 C 418.917 3.2413 -4.89036 0
M  V30 4483 C 421.269 3.22698 -5.44104 0
M  V30 4484 C 419.933 3.22542 -5.84399 0
M  V30 4485 H 419.203 0.642877 -0.368496 0
M  V30 4486 H 421.85 1.19865 -1.49348 0
M  V30 4487 H 420.155 3.77027 -1.06573 0
M  V30 4488 H 421.852 3.73648 -1.45561 0
M  V30 4489 H 418.442 3.2434 -2.80181 0
M  V30 4490 H 422.626 3.21361 -3.78207 0
M  V30 4491 H 417.882 3.22338 -5.19527 0
M  V30 4492 H 422.056 3.20543 -6.18244 0
M  V30 4493 H 419.683 3.20575 -6.89301 0
M  V30 4494 N 421.258 1.00505 1.21394 0
M  V30 4495 C 422.206 0.558623 2.25792 0
M  V30 4496 C 423.2 -0.396848 1.64686 0
M  V30 4497 O 424.406 -0.268035 1.77993 0
M  V30 4498 H 420.781 0.1623 0.734277 0
M  V30 4499 H 422.752 1.4503 2.60785 0
M  V30 4500 C 421.501 -0.0989574 3.47559 0
M  V30 4501 H 420.824 0.627225 3.94849 0
M  V30 4502 H 422.264 -0.3746 4.22342 0
M  V30 4503 C 420.723 -1.33817 3.09184 0
M  V30 4504 O 421.253 -2.43252 3.19674 0
M  V30 4505 N 419.459 -1.21793 2.63846 0
M  V30 4506 H 419.006 -0.32746 2.5551 0
M  V30 4507 H 418.964 -2.04809 2.38539 0
M  V30 4508 N 422.737 -1.36956 0.779787 0
M  V30 4509 C 423.983 -2.00237 0.357324 0
M  V30 4510 C 424.338 -1.60787 -1.05666 0
M  V30 4511 O 423.631 -0.847836 -1.71821 0
M  V30 4512 C 423.825 -3.54585 0.447686 0
M  V30 4513 C 423.654 -4.09025 1.86891 0
M  V30 4514 C 422.424 -4.39612 2.49138 0
M  V30 4515 C 424.622 -4.29461 2.82963 0
M  V30 4516 N 422.604 -4.79816 3.82949 0
M  V30 4517 C 423.975 -4.72363 4.01588 0
M  V30 4518 C 426.03 -4.1161 2.80145 0
M  V30 4519 C 424.733 -4.99284 5.17791 0
M  V30 4520 C 426.759 -4.39672 3.95528 0
M  V30 4521 C 426.121 -4.82822 5.12896 0
M  V30 4522 H 422.22 -0.76148 0.177968 0
M  V30 4523 H 424.804 -1.6613 1.01533 0
M  V30 4524 H 422.975 -3.87982 -0.180184 0
M  V30 4525 H 424.707 -4.047 0.0023955 0
M  V30 4526 H 421.462 -4.28975 2.00693 0
M  V30 4527 H 421.886 -5.04216 4.51769 0
M  V30 4528 H 426.528 -3.77415 1.90572 0
M  V30 4529 H 424.246 -5.32365 6.07958 0
M  V30 4530 H 427.832 -4.27441 3.94697 0
M  V30 4531 H 426.712 -5.04118 6.00695 0
M  V30 4532 N 424.215 -0.530993 -1.48385 0
M  V30 4533 C 425.445 -0.00133928 -2.066 0
M  V30 4534 C 425.853 1.28599 -1.38777 0
M  V30 4535 O 425.196 1.77599 -0.469495 0
M  V30 4536 C 425.258 0.292137 -3.58311 0
M  V30 4537 C 424.922 -0.901864 -4.48013 0
M  V30 4538 C 425.919 -1.80053 -4.87726 0
M  V30 4539 C 423.604 -1.10915 -4.89901 0
M  V30 4540 C 425.598 -2.89038 -5.68098 0
M  V30 4541 C 423.285 -2.20213 -5.70043 0
M  V30 4542 C 424.283 -3.09107 -6.0905 0
M  V30 4543 O 423.971 -4.16514 -6.87583 0
M  V30 4544 H 423.703 -0.0308475 -0.675296 0
M  V30 4545 H 426.257 -0.736335 -1.91748 0
M  V30 4546 H 424.487 1.08112 -3.7128 0
M  V30 4547 H 426.176 0.763994 -3.98645 0
M  V30 4548 H 426.942 -1.65234 -4.55986 0
M  V30 4549 H 422.821 -0.426498 -4.59023 0
M  V30 4550 H 426.365 -3.58451 -5.98464 0
M  V30 4551 H 422.262 -2.35016 -6.01197 0
M  V30 4552 H 423.03 -4.14237 -7.05939 0
M  V30 4553 N 425.693 1.55336 -0.266172 0
M  V30 4554 C 426.939 1.99692 0.353681 0
M  V30 4555 C 427.272 1.1543 1.56172 0
M  V30 4556 O 426.547 0.222218 1.93226 0
M  V30 4557 C 426.83 3.52316 0.74466 0
M  V30 4558 C 426.683 4.47337 -0.470101 0
M  V30 4559 C 428.002 4.10588 1.58447 0
M  V30 4560 H 425.121 0.725961 0.12708 0
M  V30 4561 H 427.763 1.86336 -0.371333 0
M  V30 4562 H 425.913 3.63829 1.36239 0
M  V30 4563 H 427.585 4.4778 -1.10864 0
M  V30 4564 H 425.828 4.19364 -1.10978 0
M  V30 4565 H 426.499 5.51788 -0.15291 0
M  V30 4566 H 428.975 4.02297 1.06286 0
M  V30 4567 H 427.851 5.17607 1.82686 0
M  V30 4568 H 428.112 3.60253 2.56262 0
M  V30 4569 N 427.171 -0.0066808 1.57599 0
M  V30 4570 C 428.448 -0.729586 1.81484 0
M  V30 4571 C 428.828 -1.92359 0.869558 0
M  V30 4572 O 428.176 -2.28348 -0.0832533 0
M  V30 4573 C 428.386 -1.1416 3.29801 0
M  V30 4574 C 429.734 -1.54823 3.95367 0
M  V30 4575 O 430.758 -1.23558 3.34084 0
M  V30 4576 O 429.617 -2.12937 5.03309 0
M  V30 4577 H 426.711 -0.354674 0.747085 0
M  V30 4578 H 429.257 0.0182609 1.6969 0
M  V30 4579 H 428.029 -0.290231 3.90222 0
M  V30 4580 H 427.652 -1.94876 3.46568 0
M  V30 4581 N 428.649 -1.55105 -0.279332 0
M  V30 4582 C 429.897 -1.75066 -1.00977 0
M  V30 4583 C 430.218 -0.551276 -1.87045 0
M  V30 4584 O 429.488 0.433984 -1.91032 0
M  V30 4585 H 428.068 -0.645578 -0.375816 0
M  V30 4586 H 430.73 -1.92497 -0.305089 0
M  V30 4587 H 429.826 -2.64894 -1.65038 0
M  V30 4588 N 430.127 0.543554 -1.4793 0
M  V30 4589 C 431.373 1.30201 -1.55485 0
M  V30 4590 C 431.706 1.92925 -0.222201 0
M  V30 4591 O 430.981 1.78586 0.77053 0
M  V30 4592 C 431.264 2.40174 -2.68307 0
M  V30 4593 C 431.117 1.8223 -4.11233 0
M  V30 4594 C 432.436 3.42024 -2.76961 0
M  V30 4595 H 429.555 0.472036 -0.565996 0
M  V30 4596 H 432.197 0.606914 -1.80046 0
M  V30 4597 H 430.347 2.99463 -2.47495 0
M  V30 4598 H 432.019 1.27096 -4.43446 0
M  V30 4599 H 430.262 1.12832 -4.18869 0
M  V30 4600 H 430.933 2.61793 -4.85972 0
M  V30 4601 H 433.409 2.92672 -2.95774 0
M  V30 4602 H 432.285 4.16383 -3.57654 0
M  V30 4603 H 432.546 4.0173 -1.84568 0
M  V30 4604 N 431.605 1.3629 0.791371 0
M  V30 4605 C 432.537 1.26321 1.91248 0
M  V30 4606 C 433.55 0.18313 1.61767 0
M  V30 4607 O 434.739 0.437682 1.73051 0
M  V30 4608 C 431.839 0.925901 3.26007 0
M  V30 4609 C 431.012 2.10746 3.83281 0
M  V30 4610 C 430.071 1.74352 4.96475 0
M  V30 4611 O 429.097 2.46416 5.13096 0
M  V30 4612 N 430.299 0.676058 5.7655 0
M  V30 4613 H 433.064 2.22915 2.00323 0
M  V30 4614 H 430.625 1.29659 0.969546 0
M  V30 4615 H 432.617 0.663636 3.99222 0
M  V30 4616 H 431.187 0.0491581 3.12561 0
M  V30 4617 H 430.407 2.53264 3.02077 0
M  V30 4618 H 431.695 2.8969 4.18279 0
M  V30 4619 H 431.093 0.0776467 5.65647 0
M  V30 4620 H 429.65 0.473612 6.50077 0
M  V30 4621 N 433.083 -1.0153 1.20538 0
M  V30 4622 C 434.329 -1.75408 1.01783 0
M  V30 4623 C 434.662 -1.88943 -0.448814 0
M  V30 4624 O 433.937 -1.4162 -1.33319 0
M  V30 4625 C 434.22 -3.17255 1.70356 0
M  V30 4626 C 434.073 -3.11508 3.24473 0
M  V30 4627 C 435.392 -4.15955 1.43769 0
M  V30 4628 H 432.511 -0.636713 0.371167 0
M  V30 4629 H 435.153 -1.18436 1.4857 0
M  V30 4630 H 433.303 -3.65898 1.30578 0
M  V30 4631 H 434.975 -2.70658 3.73553 0
M  V30 4632 H 433.218 -2.4887 3.55311 0
M  V30 4633 H 433.889 -4.11784 3.67611 0
M  V30 4634 H 436.365 -3.75973 1.7828 0
M  V30 4635 H 435.241 -5.13368 1.94279 0
M  V30 4636 H 435.502 -4.40586 0.365564 0
M  V30 4637 N 434.561 -1.01147 -1.20859 0
M  V30 4638 C 435.511 -0.548247 -2.2131 0
M  V30 4639 C 436.495 0.393646 -1.5601 0
M  V30 4640 O 437.687 0.217445 -1.75659 0
M  V30 4641 C 434.816 0.117252 -3.431 0
M  V30 4642 C 433.902 -0.846043 -4.15575 0
M  V30 4643 N 434.293 -2.00149 -4.64515 0
M  V30 4644 C 432.591 -0.665783 -4.41003 0
M  V30 4645 C 433.292 -2.60764 -5.19978 0
M  V30 4646 N 432.268 -1.88868 -5.09735 0
M  V30 4647 H 436.07 -1.42921 -2.56809 0
M  V30 4648 H 433.584 -0.876142 -1.36739 0
M  V30 4649 H 435.581 0.46662 -4.1428 0
M  V30 4650 H 434.241 0.994115 -3.09107 0
M  V30 4651 H 435.252 -2.38162 -4.5989 0
M  V30 4652 H 431.929 0.163456 -4.1718 0
M  V30 4653 H 433.319 -3.58519 -5.68255 0
M  V30 4654 N 436.039 1.36541 -0.78704 0
M  V30 4655 C 436.987 2.31965 -0.171724 0
M  V30 4656 C 437.981 1.55689 0.667631 0
M  V30 4657 O 439.187 1.70969 0.562981 0
M  V30 4658 H 435.562 0.751101 -0.0367545 0
M  V30 4659 H 437.533 2.81428 -0.992017 0
M  V30 4660 C 436.282 3.40968 0.680904 0
M  V30 4661 H 435.605 3.99775 0.0443961 0
M  V30 4662 H 437.045 4.10063 1.07815 0
M  V30 4663 C 435.504 2.82338 1.83813 0
M  V30 4664 O 436.034 2.74311 2.93456 0
M  V30 4665 N 434.24 2.39661 1.6435 0
M  V30 4666 H 433.787 2.46389 0.751668 0
M  V30 4667 H 433.745 2.00779 2.4194 0
M  V30 4668 N 437.518 0.538854 1.48102 0
M  V30 4669 C 438.481 -0.208395 2.28251 0
M  V30 4670 C 439.481 -0.859656 1.35892 0
M  V30 4671 O 440.671 -0.71834 1.58699 0
M  V30 4672 C 437.803 -1.30252 3.15035 0
M  V30 4673 H 438.996 0.495407 2.9578 0
M  V30 4674 H 436.549 0.295112 1.53489 0
M  V30 4675 H 437.284 -2.0393 2.52157 0
M  V30 4676 H 437.069 -0.840551 3.82985 0
M  V30 4677 H 438.559 -1.82787 3.75471 0
M  V30 4678 N 438.996 -1.55193 0.274407 0
M  V30 4679 C 439.943 -2.225 -0.613374 0
M  V30 4680 C 440.913 -1.19823 -1.15029 0
M  V30 4681 O 442.098 -1.48362 -1.19973 0
M  V30 4682 C 439.238 -2.94927 -1.79199 0
M  V30 4683 C 438.351 -4.12322 -1.28899 0
M  V30 4684 C 437.486 -4.72394 -2.42934 0
M  V30 4685 C 436.525 -5.81984 -1.89634 0
M  V30 4686 N 435.662 -6.36123 -2.9714 0
M  V30 4687 H 440.502 -2.97982 -0.032756 0
M  V30 4688 H 438.039 -1.47099 -0.00440146 0
M  V30 4689 H 439.997 -3.35134 -2.48478 0
M  V30 4690 H 438.627 -2.2187 -2.34465 0
M  V30 4691 H 437.679 -3.7724 -0.489327 0
M  V30 4692 H 438.991 -4.91355 -0.858587 0
M  V30 4693 H 438.145 -5.15317 -3.20208 0
M  V30 4694 H 436.884 -3.92636 -2.8929 0
M  V30 4695 H 435.889 -5.38511 -1.1084 0
M  V30 4696 H 437.114 -6.6361 -1.44215 0
M  V30 4697 H 435.06 -5.59259 -3.42878 0
M  V30 4698 H 434.977 -7.10427 -2.58515 0
M  V30 4699 H 436.245 -6.83704 -3.74391 0
M  V30 4700 N 440.474 -0.00167713 -1.576 0
M  V30 4701 C 441.702 0.693759 -1.94922 0
M  V30 4702 C 442.117 1.67215 -0.876626 0
M  V30 4703 O 441.474 1.81929 0.144279 0
M  V30 4704 C 441.525 1.42416 -3.32265 0
M  V30 4705 O 441.246 0.485014 -4.35407 0
M  V30 4706 C 442.747 2.21395 -3.84056 0
M  V30 4707 H 439.967 0.193118 -0.642609 0
M  V30 4708 H 442.511 -0.0532952 -2.04431 0
M  V30 4709 H 440.666 2.12284 -3.24059 0
M  V30 4710 H 441.08 1.00053 -5.14868 0
M  V30 4711 H 442.554 2.67996 -4.82578 0
M  V30 4712 H 443.031 3.04142 -3.16851 0
M  V30 4713 H 443.637 1.56542 -3.95443 0
M  V30 4714 N 441.952 1.55251 0.271103 0
M  V30 4715 C 442.899 1.88261 1.33516 0
M  V30 4716 C 443.869 0.734296 1.48988 0
M  V30 4717 O 445.054 0.985741 1.63364 0
M  V30 4718 C 442.194 2.16168 2.69008 0
M  V30 4719 C 441.307 3.43678 2.61743 0
M  V30 4720 C 440.442 3.61276 3.89427 0
M  V30 4721 C 439.481 4.82472 3.7668 0
M  V30 4722 N 438.618 4.96717 4.96202 0
M  V30 4723 H 443.458 2.79015 1.04665 0
M  V30 4724 H 440.995 1.38137 0.505618 0
M  V30 4725 H 442.953 2.30349 3.47844 0
M  V30 4726 H 441.583 1.28646 2.96057 0
M  V30 4727 H 440.635 3.37959 1.74607 0
M  V30 4728 H 441.947 4.3265 2.48224 0
M  V30 4729 H 441.101 3.75284 4.76704 0
M  V30 4730 H 439.84 2.70492 4.05814 0
M  V30 4731 H 438.845 4.68465 2.87786 0
M  V30 4732 H 440.07 5.74692 3.61809 0
M  V30 4733 H 438.016 4.08865 5.12997 0
M  V30 4734 H 437.933 5.79738 4.85222 0
M  V30 4735 H 439.201 5.15113 5.85046 0
M  V30 4736 N 443.43 -0.535701 1.48216 0
M  V30 4737 C 444.841 -1.11769 1.49548 0
M  V30 4738 C 445.192 -1.94442 0.26207 0
M  V30 4739 O 444.317 -2.06987 -0.631287 0
M  V30 4740 C 444.912 -2.03367 2.70975 0
M  V30 4741 C 443.471 -2.56795 2.75196 0
M  V30 4742 C 442.618 -1.33631 2.42977 0
M  V30 4743 H 445.569 -0.321232 1.55415 0
M  V30 4744 H 445.59 -2.87569 2.49167 0
M  V30 4745 H 445.102 -1.43169 3.60727 0
M  V30 4746 H 443.203 -3.20731 1.89638 0
M  V30 4747 H 443.316 -2.9632 3.76472 0
M  V30 4748 H 441.68 -1.6502 1.94012 0
M  V30 4749 H 442.463 -0.75194 3.34964 0
M  V30 4750 N 444.908 -1.36708 -0.784132 0
M  V30 4751 C 446.324 -1.17237 -1.08294 0
M  V30 4752 C 446.524 -5.93947e-05 -2.015 0
M  V30 4753 O 445.58 0.663686 -2.43622 0
M  V30 4754 C 446.893 -2.48557 -1.69233 0
M  V30 4755 C 448.441 -2.54968 -1.8155 0
M  V30 4756 C 448.916 -3.86388 -2.45904 0
M  V30 4757 N 450.407 -3.87762 -2.53367 0
M  V30 4758 C 451.142 -4.86191 -3.03983 0
M  V30 4759 N 450.638 -5.95015 -3.54866 0
M  V30 4760 N 452.431 -4.73606 -3.02743 0
M  V30 4761 H 444.582 -2.11758 -0.16501 0
M  V30 4762 H 446.845 -0.93822 -0.135822 0
M  V30 4763 H 446.551 -3.34638 -1.08215 0
M  V30 4764 H 446.425 -2.64748 -2.68679 0
M  V30 4765 H 448.812 -1.69302 -2.41704 0
M  V30 4766 H 448.893 -2.42672 -0.80895 0
M  V30 4767 H 448.537 -4.72462 -1.86392 0
M  V30 4768 H 448.467 -3.95982 -3.4714 0
M  V30 4769 H 450.958 -3.09145 -2.17343 0
M  V30 4770 H 451.271 -6.66086 -3.91854 0
M  V30 4771 H 449.616 -5.98676 -3.53003 0
M  V30 4772 H 452.807 -3.87717 -2.62284 0
M  V30 4773 H 452.98 -5.50473 -3.41881 0
M  V30 4774 N 446.386 1.0089 -1.21074 0
M  V30 4775 C 447.296 2.13039 -0.982425 0
M  V30 4776 C 448.312 1.73881 0.0642161 0
M  V30 4777 O 449.488 2.01012 -0.12496 0
M  V30 4778 C 446.553 3.42377 -0.545803 0
M  V30 4779 C 445.614 3.95731 -1.6642 0
M  V30 4780 C 444.847 5.18896 -1.24832 0
M  V30 4781 O 445.07 5.70273 -0.120265 0
M  V30 4782 O 444.004 5.65597 -2.05873 0
M  V30 4783 H 447.83 2.35175 -1.92163 0
M  V30 4784 H 445.415 1.1142 -0.995285 0
M  V30 4785 H 447.297 4.20244 -0.311912 0
M  V30 4786 H 445.972 3.21639 0.364727 0
M  V30 4787 H 444.879 3.19108 -1.95246 0
M  V30 4788 H 446.212 4.20872 -2.55201 0
M  V30 4789 N 447.864 1.01787 1.20321 0
M  V30 4790 C 448.796 0.547357 2.22568 0
M  V30 4791 C 449.809 -0.370922 1.58518 0
M  V30 4792 O 450.998 -0.169067 1.77698 0
M  V30 4793 C 448.098 -0.223031 3.38165 0
M  V30 4794 C 447.271 0.697472 4.31803 0
M  V30 4795 C 446.33 -0.025562 5.26194 0
M  V30 4796 O 445.356 0.597367 5.66057 0
M  V30 4797 N 446.558 -1.29999 5.65757 0
M  V30 4798 H 449.323 1.42668 2.63564 0
M  V30 4799 H 446.884 0.895552 1.34876 0
M  V30 4800 H 448.876 -0.716002 3.98316 0
M  V30 4801 H 447.446 -1.00366 2.9605 0
M  V30 4802 H 446.666 1.37073 3.69601 0
M  V30 4803 H 447.954 1.32347 4.91286 0
M  V30 4804 H 447.352 -1.827 5.35385 0
M  V30 4805 H 445.909 -1.73766 6.28211 0
M  V30 4806 N 449.342 -1.36122 0.79427 0
M  V30 4807 C 450.274 -2.28683 0.153903 0
M  V30 4808 C 451.287 -1.49707 -0.639669 0
M  V30 4809 O 452.476 -1.7209 -0.474054 0
M  V30 4810 C 449.576 -3.29202 -0.804921 0
M  V30 4811 C 448.749 -4.37358 -0.060366 0
M  V30 4812 C 447.808 -5.17811 -0.935849 0
M  V30 4813 O 446.834 -5.67853 -0.391309 0
M  V30 4814 N 448.036 -5.34721 -2.25951 0
M  V30 4815 H 450.801 -2.84278 0.949008 0
M  V30 4816 H 448.362 -1.4834 0.648611 0
M  V30 4817 H 450.354 -3.79914 -1.39455 0
M  V30 4818 H 448.924 -2.74212 -1.50088 0
M  V30 4819 H 448.144 -3.87746 0.710382 0
M  V30 4820 H 449.432 -5.06777 0.45324 0
M  V30 4821 H 448.83 -4.95687 -2.72601 0
M  V30 4822 H 447.387 -5.88657 -2.79867 0
M  V30 4823 N 450.82 -0.546701 -1.47814 0
M  V30 4824 C 452.05 -0.0232519 -2.06587 0
M  V30 4825 C 452.458 1.2712 -1.40133 0
M  V30 4826 O 451.801 1.77091 -0.488305 0
M  V30 4827 C 451.863 0.254117 -3.58601 0
M  V30 4828 C 451.527 -0.949331 -4.47031 0
M  V30 4829 C 452.524 -1.85216 -4.85789 0
M  V30 4830 C 450.209 -1.16104 -4.88697 0
M  V30 4831 C 452.203 -2.95047 -5.65001 0
M  V30 4832 C 449.89 -2.26247 -5.67676 0
M  V30 4833 C 450.888 -3.1555 -6.05737 0
M  V30 4834 O 450.576 -4.23784 -6.83127 0
M  V30 4835 H 450.308 -0.0380082 -0.674931 0
M  V30 4836 H 452.862 -0.756631 -1.90956 0
M  V30 4837 H 451.092 1.04168 -3.72406 0
M  V30 4838 H 452.781 0.72167 -3.99433 0
M  V30 4839 H 453.547 -1.70061 -4.54207 0
M  V30 4840 H 449.426 -0.475159 -4.58545 0
M  V30 4841 H 452.97 -3.64778 -5.94628 0
M  V30 4842 H 448.867 -2.41379 -5.98671 0
M  V30 4843 H 449.635 -4.21701 -7.01506 0
M  V30 4844 N 452.299 1.55045 -0.282633 0
M  V30 4845 C 453.247 2.24254 0.617478 0
M  V30 4846 C 454.241 1.24215 1.15183 0
M  V30 4847 O 455.447 1.42123 1.10459 0
M  V30 4848 H 451.822 0.719801 0.217693 0
M  V30 4849 H 453.793 2.98398 0.0110076 0
M  V30 4850 C 452.542 2.98281 1.78672 0
M  V30 4851 H 451.865 3.75053 1.38475 0
M  V30 4852 H 453.305 3.50017 2.393 0
M  V30 4853 C 451.764 2.04184 2.67975 0
M  V30 4854 O 452.294 1.59792 3.6855 0
M  V30 4855 N 450.5 1.70526 2.35307 0
M  V30 4856 H 450.047 2.06821 1.53567 0
M  V30 4857 H 450.005 1.07839 2.95327 0
M  V30 4858 N 453.777 0.010035 1.57597 0
M  V30 4859 C 455.002 -0.687021 1.95691 0
M  V30 4860 C 455.427 -1.65952 0.885519 0
M  V30 4861 O 454.785 -1.80633 -0.15543 0
M  V30 4862 C 454.833 -1.3864 3.32884 0
M  V30 4863 O 453.937 -2.50115 3.27897 0
M  V30 4864 H 453.278 -0.181989 0.638573 0
M  V30 4865 H 455.808 0.0662122 2.04493 0
M  V30 4866 H 455.818 -1.74754 3.6868 0
M  V30 4867 H 454.493 -0.673411 4.10412 0
M  V30 4868 H 453.07 -2.16253 3.03791 0
M  V30 4869 N 455.255 -1.55392 -0.262866 0
M  V30 4870 C 456.483 -1.80513 -1.01108 0
M  V30 4871 C 456.898 -0.583533 -1.79556 0
M  V30 4872 O 456.255 0.447585 -1.76926 0
M  V30 4873 C 456.306 -3.03648 -1.96164 0
M  V30 4874 O 456.027 -4.2109 -1.20893 0
M  V30 4875 C 457.528 -3.41448 -2.82715 0
M  V30 4876 H 454.748 -0.601079 -0.298236 0
M  V30 4877 H 457.292 -2.02425 -0.290582 0
M  V30 4878 H 455.447 -2.83832 -2.63663 0
M  V30 4879 H 455.861 -4.90771 -1.85051 0
M  V30 4880 H 457.335 -4.30751 -3.45192 0
M  V30 4881 H 457.812 -2.61308 -3.53008 0
M  V30 4882 H 458.418 -3.63559 -2.20693 0
M  V30 4883 N 456.733 0.527833 -1.48498 0
M  V30 4884 C 457.963 1.30633 -1.60058 0
M  V30 4885 C 458.371 1.87394 -0.260786 0
M  V30 4886 O 457.714 1.67227 0.760317 0
M  V30 4887 C 457.776 2.49361 -2.58958 0
M  V30 4888 C 457.44 2.13671 -4.03972 0
M  V30 4889 C 458.437 1.69217 -4.91591 0
M  V30 4890 C 456.122 2.24129 -4.49524 0
M  V30 4891 C 458.116 1.35689 -6.2279 0
M  V30 4892 C 455.803 1.90212 -5.80743 0
M  V30 4893 C 456.801 1.46063 -6.67199 0
M  V30 4894 O 456.489 1.12593 -7.95976 0
M  V30 4895 H 456.221 0.403444 -0.54241 0
M  V30 4896 H 458.775 0.643233 -1.95068 0
M  V30 4897 H 457.005 3.18659 -2.19073 0
M  V30 4898 H 458.694 3.11421 -2.6033 0
M  V30 4899 H 459.46 1.60607 -4.57636 0
M  V30 4900 H 455.339 2.57447 -3.82416 0
M  V30 4901 H 458.883 1.01157 -6.90227 0
M  V30 4902 H 454.78 1.98464 -6.14233 0
M  V30 4903 H 455.548 1.25972 -8.08748 0
M  V30 4904 N 458.211 1.37122 0.776871 0
M  V30 4905 C 459.627 1.1781 1.07671 0
M  V30 4906 C 459.827 0.0107454 2.01497 0
M  V30 4907 O 458.883 -0.650756 2.4397 0
M  V30 4908 C 460.196 2.49451 1.67913 0
M  V30 4909 C 461.744 2.55927 1.80195 0
M  V30 4910 C 462.219 3.87686 2.43851 0
M  V30 4911 N 463.71 3.891 2.51307 0
M  V30 4912 C 464.445 4.87797 3.014 0
M  V30 4913 N 463.941 5.96888 3.51705 0
M  V30 4914 N 465.734 4.75205 3.00227 0
M  V30 4915 H 457.885 2.11843 0.153778 0
M  V30 4916 H 460.148 0.938927 0.130844 0
M  V30 4917 H 459.854 3.35207 1.06439 0
M  V30 4918 H 459.728 2.66169 2.67271 0
M  V30 4919 H 462.115 1.70582 2.40803 0
M  V30 4920 H 462.196 2.43097 0.796069 0
M  V30 4921 H 461.84 4.73444 1.83884 0
M  V30 4922 H 461.77 3.97817 3.45035 0
M  V30 4923 H 464.261 3.10293 2.157 0
M  V30 4924 H 464.574 6.68155 3.88316 0
M  V30 4925 H 462.919 6.0054 3.49824 0
M  V30 4926 H 466.11 3.89103 2.60224 0
M  V30 4927 H 466.283 5.52279 3.38957 0
M  V30 4928 N 459.689 -1.00246 1.21608 0
M  V30 4929 C 460.935 -1.74319 1.03638 0
M  V30 4930 C 461.268 -1.89408 -0.428749 0
M  V30 4931 O 460.543 -1.43026 -1.3181 0
M  V30 4932 C 460.826 -3.15431 1.73711 0
M  V30 4933 C 460.679 -3.08049 3.27759 0
M  V30 4934 C 461.998 -4.14407 1.48173 0
M  V30 4935 H 459.117 -0.632741 0.377899 0
M  V30 4936 H 461.759 -1.16853 1.49818 0
M  V30 4937 H 459.909 -3.64493 1.34452 0
M  V30 4938 H 461.581 -2.66681 3.76403 0
M  V30 4939 H 459.824 -2.45088 3.57931 0
M  V30 4940 H 460.495 -4.07862 3.71958 0
M  V30 4941 H 462.971 -3.74061 1.82258 0
M  V30 4942 H 461.847 -5.11279 1.99713 0
M  V30 4943 H 462.108 -4.40174 0.412273 0
M  V30 4944 N 461.167 -1.02423 -1.1978 0
M  V30 4945 C 462.413 -0.719051 -1.89625 0
M  V30 4946 C 462.746 0.750083 -1.7913 0
M  V30 4947 O 462.021 1.54574 -1.18056 0
M  V30 4948 C 462.304 -1.16499 -3.40735 0
M  V30 4949 C 462.157 -2.695 -3.60125 0
M  V30 4950 C 463.476 -0.742166 -4.33797 0
M  V30 4951 H 460.595 -0.26269 -0.688595 0
M  V30 4952 H 463.237 -1.27333 -1.41018 0
M  V30 4953 H 461.387 -0.69341 -3.82262 0
M  V30 4954 H 463.059 -3.24569 -3.278 0
M  V30 4955 H 461.302 -3.10113 -3.03336 0
M  V30 4956 H 461.973 -2.95757 -4.66081 0
M  V30 4957 H 464.449 -1.1477 -3.99959 0
M  V30 4958 H 463.325 -1.08213 -5.38127 0
M  V30 4959 H 463.586 0.355747 -4.40666 0
M  V30 4960 N 462.645 1.35699 -0.801477 0
M  V30 4961 C 463.87 2.03687 -0.390678 0
M  V30 4962 C 464.295 1.60015 0.988778 0
M  V30 4963 O 463.653 0.774357 1.63931 0
M  V30 4964 C 463.701 3.57439 -0.476404 0
M  V30 4965 O 462.805 4.09208 0.512106 0
M  V30 4966 H 462.146 0.64344 -0.163956 0
M  V30 4967 H 464.676 1.73403 -1.08594 0
M  V30 4968 H 464.686 4.06544 -0.344357 0
M  V30 4969 H 463.361 3.88576 -1.48262 0
M  V30 4970 H 461.938 3.7134 0.340721 0
M  V30 4971 N 464.123 0.554532 1.47522 0
M  V30 4972 C 465.369 0.0295227 2.02779 0
M  V30 4973 C 465.702 -1.31582 1.42828 0
M  V30 4974 O 464.977 -1.85561 0.582872 0
M  V30 4975 C 465.26 -0.0664057 3.60039 0
M  V30 4976 C 465.113 1.30585 4.30427 0
M  V30 4977 C 466.432 -0.781162 4.33112 0
M  V30 4978 H 463.551 0.0122027 0.736899 0
M  V30 4979 H 466.193 0.716305 1.7598 0
M  V30 4980 H 464.343 -0.651307 3.83002 0
M  V30 4981 H 466.015 1.93374 4.18813 0
M  V30 4982 H 464.258 1.88125 3.90886 0
M  V30 4983 H 464.929 1.19147 5.38988 0
M  V30 4984 H 467.405 -0.284565 4.15126 0
M  V30 4985 H 466.281 -0.817237 5.42782 0
M  V30 4986 H 466.542 -1.83672 4.0214 0
M  V30 4987 N 465.601 -1.54893 0.290851 0
M  V30 4988 C 466.531 -2.26103 -0.583084 0
M  V30 4989 C 467.512 -1.25684 -1.14619 0
M  V30 4990 O 468.697 -1.54436 -1.17741 0
M  V30 4991 C 465.827 -2.99409 -1.75987 0
M  V30 4992 C 464.781 -4.0689 -1.32758 0
M  V30 4993 C 464.107 -4.67856 -2.58872 0
M  V30 4994 C 465.407 -5.20215 -0.46624 0
M  V30 4995 H 467.101 -2.99398 0.0108214 0
M  V30 4996 H 464.647 -1.43998 0.00664468 0
M  V30 4997 H 466.6 -3.47943 -2.37727 0
M  V30 4998 H 465.324 -2.23675 -2.37985 0
M  V30 4999 H 463.983 -3.59191 -0.733299 0
M  V30 5000 H 463.631 -3.88772 -3.19163 0
M  V30 5001 H 463.331 -5.40438 -2.30653 0
M  V30 5002 H 464.855 -5.19147 -3.21433 0
M  V30 5003 H 466.269 -5.64704 -0.989047 0
M  V30 5004 H 464.666 -5.99455 -0.27826 0
M  V30 5005 H 465.736 -4.82198 0.511173 0
M  V30 5006 N 467.08 -0.0183926 -1.57589 0
M  V30 5007 C 468.308 0.673046 -1.95647 0
M  V30 5008 C 468.723 1.66275 -0.894312 0
M  V30 5009 O 468.08 1.82072 0.124975 0
M  V30 5010 C 468.131 1.38884 -3.33756 0
M  V30 5011 O 467.852 0.438806 -4.35897 0
M  V30 5012 C 469.353 2.1731 -3.86383 0
M  V30 5013 H 466.573 0.186292 -0.644621 0
M  V30 5014 H 469.117 -0.0749748 -2.04363 0
M  V30 5015 H 467.272 2.08835 -3.26293 0
M  V30 5016 H 467.686 0.945869 -5.15901 0
M  V30 5017 H 469.16 2.62863 -4.85394 0
M  V30 5018 H 469.637 3.00764 -3.20059 0
M  V30 5019 H 470.243 1.52339 -3.97081 0
M  V30 5020 N 468.558 1.5553 0.254621 0
M  V30 5021 C 469.804 1.77262 0.985193 0
M  V30 5022 C 470.137 0.582286 1.85265 0
M  V30 5023 O 469.412 -0.419666 1.89919 0
M  V30 5024 C 469.695 3.0881 1.85225 0
M  V30 5025 C 469.548 4.38233 1.0135 0
M  V30 5026 C 470.867 3.3653 2.83612 0
M  V30 5027 H 467.986 0.644906 0.356742 0
M  V30 5028 H 470.628 1.88264 0.256236 0
M  V30 5029 H 468.778 2.99562 2.47376 0
M  V30 5030 H 470.45 4.59463 0.411269 0
M  V30 5031 H 468.693 4.32636 0.317574 0
M  V30 5032 H 469.364 5.26644 1.65379 0
M  V30 5033 H 471.84 3.45691 2.31596 0
M  V30 5034 H 470.716 4.29805 3.41407 0
M  V30 5035 H 470.977 2.57064 3.59681 0
M  V30 5036 N 470.036 -0.519951 1.48776 0
M  V30 5037 C 470.966 -1.63253 1.66945 0
M  V30 5038 C 471.947 -1.62014 0.518224 0
M  V30 5039 O 473.132 -1.79053 0.751919 0
M  V30 5040 C 470.262 -3.0181 1.71836 0
M  V30 5041 C 469.216 -3.17911 2.8656 0
M  V30 5042 C 468.542 -4.5763 2.76548 0
M  V30 5043 C 469.842 -2.99729 4.27738 0
M  V30 5044 H 471.536 -1.48302 2.6009 0
M  V30 5045 H 469.082 -0.712026 1.25165 0
M  V30 5046 H 471.035 -3.79525 1.83135 0
M  V30 5047 H 469.759 -3.17806 0.752775 0
M  V30 5048 H 468.418 -2.42616 2.74833 0
M  V30 5049 H 468.066 -4.70476 1.77937 0
M  V30 5050 H 467.766 -4.69346 3.53536 0
M  V30 5051 H 469.29 -5.37431 2.89828 0
M  V30 5052 H 470.704 -3.67228 4.40246 0
M  V30 5053 H 469.101 -3.22932 5.05801 0
M  V30 5054 H 470.171 -1.96047 4.43502 0
M  V30 5055 N 471.514 -1.37532 -0.769588 0
M  V30 5056 C 472.464 -1.29984 -1.87318 0
M  V30 5057 C 473.448 -0.187242 -1.59807 0
M  V30 5058 O 474.64 -0.421827 -1.719 0
M  V30 5059 C 471.769 -1.11126 -3.24817 0
M  V30 5060 C 470.855 -2.26939 -3.58273 0
M  V30 5061 N 471.246 -3.52336 -3.62895 0
M  V30 5062 C 469.544 -2.19141 -3.8845 0
M  V30 5063 C 470.245 -4.28719 -3.9316 0
M  V30 5064 N 469.221 -3.57884 -4.0917 0
M  V30 5065 H 473.023 -2.24946 -1.89147 0
M  V30 5066 H 470.537 -1.30535 -0.966143 0
M  V30 5067 H 472.534 -1.03803 -4.0377 0
M  V30 5068 H 471.194 -0.17083 -3.2425 0
M  V30 5069 H 472.205 -3.86216 -3.45048 0
M  V30 5070 H 468.882 -1.33167 -3.95693 0
M  V30 5071 H 470.272 -5.37254 -4.03494 0
M  V30 5072 N 472.992 0.995999 -1.22138 0
M  V30 5073 C 473.924 2.08745 -0.946485 0
M  V30 5074 C 474.937 1.62633 0.0737356 0
M  V30 5075 O 476.126 1.77782 -0.159886 0
M  V30 5076 C 473.226 3.36516 -0.401305 0
M  V30 5077 C 472.399 4.11672 -1.47801 0
M  V30 5078 C 471.458 5.17728 -0.940461 0
M  V30 5079 O 470.484 5.45482 -1.62596 0
M  V30 5080 N 471.686 5.80005 0.239723 0
M  V30 5081 H 474.451 2.32908 -1.88611 0
M  V30 5082 H 472.012 1.16152 -1.12785 0
M  V30 5083 H 474.004 4.04691 -0.0270837 0
M  V30 5084 H 472.574 3.0944 0.443354 0
M  V30 5085 H 471.794 3.38171 -2.02568 0
M  V30 5086 H 473.082 4.58657 -2.20253 0
M  V30 5087 H 472.48 5.5982 0.813518 0
M  V30 5088 H 471.037 6.4943 0.555361 0
M  V30 5089 N 474.47 1.03057 1.19235 0
M  V30 5090 C 475.418 0.606391 2.24557 0
M  V30 5091 C 476.412 -0.361826 1.65491 0
M  V30 5092 O 477.618 -0.23022 1.78522 0
M  V30 5093 H 473.993 0.177838 0.730669 0
M  V30 5094 H 475.964 1.50529 2.5765 0
M  V30 5095 C 474.713 -0.0252127 3.47691 0
M  V30 5096 H 474.036 0.710838 3.9343 0
M  V30 5097 H 475.476 -0.284931 4.23042 0
M  V30 5098 C 473.935 -1.27229 3.11953 0
M  V30 5099 O 474.465 -2.36416 3.24762 0
M  V30 5100 N 472.671 -1.16169 2.6637 0
M  V30 5101 H 472.218 -0.273189 2.56147 0
M  V30 5102 H 472.176 -1.99703 2.42829 0
M  V30 5103 N 475.948 -1.35272 0.808662 0
M  V30 5104 C 477.194 -1.99434 0.399717 0
M  V30 5105 C 477.549 -1.62992 -1.02232 0
M  V30 5106 O 476.842 -0.884091 -1.69983 0
M  V30 5107 C 477.036 -3.53556 0.522798 0
M  V30 5108 C 476.865 -4.04969 1.95525 0
M  V30 5109 C 475.635 -4.34228 2.58407 0
M  V30 5110 C 477.833 -4.23362 2.92009 0
M  V30 5111 N 475.815 -4.71585 3.93041 0
M  V30 5112 C 477.186 -4.63739 4.11517 0
M  V30 5113 C 479.241 -4.05576 2.88813 0
M  V30 5114 C 477.944 -4.88189 5.28265 0
M  V30 5115 C 479.97 -4.31184 4.04765 0
M  V30 5116 C 479.332 -4.71834 5.23022 0
M  V30 5117 H 475.431 -0.757534 0.19408 0
M  V30 5118 H 478.015 -1.63939 1.05034 0
M  V30 5119 H 476.186 -3.88277 -0.0978471 0
M  V30 5120 H 477.918 -4.04604 0.0882378 0
M  V30 5121 H 474.673 -4.24621 2.09747 0
M  V30 5122 H 475.097 -4.9452 4.62363 0
M  V30 5123 H 479.739 -3.73288 1.98535 0
M  V30 5124 H 477.457 -5.1935 6.19113 0
M  V30 5125 H 481.043 -4.18972 4.03675 0
M  V30 5126 H 479.923 -4.91263 6.11253 0
M  V30 5127 N 477.426 -0.562348 -1.47226 0
M  V30 5128 C 478.356 0.170627 -2.32876 0
M  V30 5129 C 479.337 0.903748 -1.44106 0
M  V30 5130 O 480.522 0.883206 -1.72954 0
M  V30 5131 C 477.652 1.19786 -3.25989 0
M  V30 5132 C 476.606 0.580875 -4.2404 0
M  V30 5133 C 475.932 1.71311 -5.06514 0
M  V30 5134 C 477.232 -0.468714 -5.20193 0
M  V30 5135 H 478.926 -0.544441 -2.94408 0
M  V30 5136 H 476.472 -0.263271 -1.41573 0
M  V30 5137 H 478.425 1.71884 -3.84752 0
M  V30 5138 H 477.149 1.94294 -2.62521 0
M  V30 5139 H 475.808 0.0811538 -3.6651 0
M  V30 5140 H 475.456 2.44736 -4.39447 0
M  V30 5141 H 475.156 1.30604 -5.72902 0
M  V30 5142 H 476.68 2.23725 -5.68137 0
M  V30 5143 H 478.094 -0.0336028 -5.7329 0
M  V30 5144 H 476.491 -0.794957 -5.94811 0
M  V30 5145 H 477.561 -1.36269 -4.65359 0
M  V30 5146 N 478.904 1.54736 -0.299062 0
M  V30 5147 C 480.181 1.92187 0.363802 0
M  V30 5148 C 480.561 1.22607 1.71845 0
M  V30 5149 O 479.909 0.361141 2.25628 0
M  V30 5150 C 480.119 3.45678 0.480377 0
M  V30 5151 C 481.467 4.17885 0.752147 0
M  V30 5152 O 482.491 3.51702 0.564264 0
M  V30 5153 O 481.35 5.35048 1.11294 0
M  V30 5154 H 478.444 0.801681 0.203066 0
M  V30 5155 H 480.99 1.66115 -0.346978 0
M  V30 5156 H 479.762 3.88443 -0.471999 0
M  V30 5157 H 479.385 3.77779 1.2397 0
M  V30 5158 N 480.382 0.0267497 1.57577 0
M  V30 5159 C 481.63 -0.651116 1.91324 0
M  V30 5160 C 481.951 -1.72804 0.90353 0
M  V30 5161 O 481.221 -1.95822 -0.0552946 0
M  V30 5162 H 479.801 -0.243491 0.706202 0
M  V30 5163 H 482.463 0.0739935 1.94759 0
M  V30 5164 H 481.559 -1.10536 2.9187 0
M  V30 5165 N 481.861 -1.55662 -0.24637 0
M  V30 5166 C 482.808 -1.90361 -1.30504 0
M  V30 5167 C 483.778 -0.757905 -1.47801 0
M  V30 5168 O 484.963 -1.01161 -1.61775 0
M  V30 5169 C 482.103 -2.2042 -2.65535 0
M  V30 5170 C 481.216 -3.47799 -2.56242 0
M  V30 5171 C 480.351 -3.67426 -3.8363 0
M  V30 5172 C 479.39 -4.88403 -3.68956 0
M  V30 5173 N 478.527 -5.04548 -4.88237 0
M  V30 5174 H 483.367 -2.80645 -1.00213 0
M  V30 5175 H 480.904 -1.38924 -0.483577 0
M  V30 5176 H 482.862 -2.35853 -3.44135 0
M  V30 5177 H 481.492 -1.3334 -2.93973 0
M  V30 5178 H 480.544 -3.40694 -1.69208 0
M  V30 5179 H 481.856 -4.36544 -2.4131 0
M  V30 5180 H 481.01 -3.82821 -4.70673 0
M  V30 5181 H 479.749 -2.76914 -4.01459 0
M  V30 5182 H 478.754 -4.72984 -2.80296 0
M  V30 5183 H 479.979 -5.80375 -3.52621 0
M  V30 5184 H 477.925 -4.16974 -5.06427 0
M  V30 5185 H 477.842 -5.87384 -4.75937 0
M  V30 5186 H 479.11 -5.24355 -5.76777 0
M  V30 5187 N 483.339 0.512053 -1.4905 0
M  V30 5188 C 484.249 1.64139 -1.67617 0
M  V30 5189 C 485.265 1.64786 -0.558701 0
M  V30 5190 O 486.441 1.8341 -0.832034 0
M  V30 5191 C 483.506 3.00548 -1.72835 0
M  V30 5192 C 482.567 3.10615 -2.96339 0
M  V30 5193 C 481.8 4.40517 -3.01298 0
M  V30 5194 O 482.023 5.28671 -2.14157 0
M  V30 5195 O 480.957 4.55325 -3.93653 0
M  V30 5196 H 484.783 1.51407 -2.63267 0
M  V30 5197 H 482.368 0.687131 -1.32661 0
M  V30 5198 H 484.25 3.81641 -1.78683 0
M  V30 5199 H 482.925 3.13566 -0.803616 0
M  V30 5200 H 481.832 2.2875 -2.96014 0
M  V30 5201 H 483.165 3.0252 -3.88256 0
M  V30 5202 N 484.817 1.37938 0.762283 0
M  V30 5203 C 486.047 1.36685 1.54922 0
M  V30 5204 C 486.455 -0.0474099 1.89141 0
M  V30 5205 O 485.798 -1.02213 1.52638 0
M  V30 5206 C 485.86 2.14963 2.88152 0
M  V30 5207 C 485.524 3.6385 2.76518 0
M  V30 5208 C 486.521 4.57531 2.46904 0
M  V30 5209 C 484.206 4.07095 2.94243 0
M  V30 5210 C 486.2 5.92436 2.35156 0
M  V30 5211 C 483.887 5.42083 2.82116 0
M  V30 5212 C 484.885 6.34567 2.52614 0
M  V30 5213 O 484.573 7.67073 2.40529 0
M  V30 5214 H 484.305 0.469586 0.486276 0
M  V30 5215 H 486.859 1.82012 0.951876 0
M  V30 5216 H 485.089 1.6434 3.50042 0
M  V30 5217 H 486.778 2.06224 3.49609 0
M  V30 5218 H 487.544 4.25428 2.32886 0
M  V30 5219 H 483.423 3.35462 3.16206 0
M  V30 5220 H 486.967 6.64591 2.12049 0
M  V30 5221 H 482.864 5.73785 2.95704 0
M  V30 5222 H 483.632 7.77499 2.55807 0
M  V30 5223 N 486.295 -0.989507 1.22664 0
M  V30 5224 C 487.242 -2.08024 0.999733 0
M  V30 5225 C 488.212 -1.65909 -0.0797047 0
M  V30 5226 O 489.397 -1.90669 0.0705715 0
M  V30 5227 C 486.537 -3.40067 0.587234 0
M  V30 5228 C 485.65 -3.95505 1.73781 0
M  V30 5229 C 484.785 -5.15722 1.27297 0
M  V30 5230 C 483.824 -5.63305 2.39488 0
M  V30 5231 N 482.961 -6.74758 1.94026 0
M  V30 5232 H 487.801 -2.26768 1.9334 0
M  V30 5233 H 485.338 -1.11171 0.963297 0
M  V30 5234 H 487.296 -4.15899 0.329227 0
M  V30 5235 H 485.926 -3.21314 -0.309426 0
M  V30 5236 H 484.978 -3.16513 2.11006 0
M  V30 5237 H 486.29 -4.26797 2.58158 0
M  V30 5238 H 485.444 -5.98854 0.972546 0
M  V30 5239 H 484.183 -4.86061 0.399445 0
M  V30 5240 H 483.188 -4.78759 2.70315 0
M  V30 5241 H 484.413 -5.94988 3.27362 0
M  V30 5242 H 482.359 -6.46874 1.09041 0
M  V30 5243 H 482.276 -7.05386 2.71968 0
M  V30 5244 H 483.544 -7.61387 1.67062 0
M  V30 5245 N 487.773 -1.03688 -1.18687 0
M  V30 5246 C 489.013 -0.746858 -1.90267 0
M  V30 5247 C 489.377 0.712075 -1.78307 0
M  V30 5248 O 490.578 1.11553 -2.44559 0
M  V30 5249 C 488.849 -1.19543 -3.36815 0
M  V30 5250 S 490.408 -1.03047 -4.26529 0
M  V30 5251 H 487.226 -0.271663 -0.657054 0
M  V30 5252 H 489.828 -1.32838 -1.43437 0
M  V30 5253 H 488.532 -2.2527 -3.43047 0
M  V30 5254 H 488.063 -0.607533 -3.88681 0
M  V30 5255 H 490.078 0.0543232 -4.9617 0
M  V30 5256 N 489.251 1.34841 -0.815825 0
M  V30 5257 C 490.198 2.29644 -0.230664 0
M  V30 5258 C 491.168 1.53253 0.640533 0
M  V30 5259 O 492.353 1.81653 0.583672 0
M  V30 5260 C 489.493 3.39715 0.607275 0
M  V30 5261 C 488.606 4.31056 -0.28538 0
M  V30 5262 C 487.741 5.28225 0.561446 0
M  V30 5263 C 486.78 6.11204 -0.331035 0
M  V30 5264 N 485.917 7.00483 0.476302 0
M  V30 5265 H 490.757 2.79095 -1.0445 0
M  V30 5266 H 488.294 1.37351 -0.526595 0
M  V30 5267 H 490.252 4.02208 1.10835 0
M  V30 5268 H 488.882 2.91517 1.38629 0
M  V30 5269 H 487.934 3.69487 -0.904621 0
M  V30 5270 H 489.246 4.89239 -0.97193 0
M  V30 5271 H 488.4 5.96135 1.12728 0
M  V30 5272 H 487.139 4.70562 1.28153 0
M  V30 5273 H 486.144 5.42232 -0.909069 0
M  V30 5274 H 487.369 6.70947 -1.04912 0
M  V30 5275 H 485.315 6.45296 1.18019 0
M  V30 5276 H 485.232 7.55847 -0.152008 0
M  V30 5277 H 486.5 7.7273 1.02512 0
M  V30 5278 N 490.729 0.570148 1.46925 0
M  V30 5279 C 491.975 0.0510284 2.02736 0
M  V30 5280 C 492.308 -1.3006 1.44215 0
M  V30 5281 O 491.583 -1.84932 0.602521 0
M  V30 5282 C 491.866 -0.028215 3.60089 0
M  V30 5283 C 491.719 1.35142 4.29018 0
M  V30 5284 C 493.038 -0.735181 4.33916 0
M  V30 5285 H 490.157 0.0200178 0.736728 0
M  V30 5286 H 492.799 0.73493 1.75211 0
M  V30 5287 H 490.949 -0.610648 3.83671 0
M  V30 5288 H 492.621 1.97806 4.16738 0
M  V30 5289 H 490.864 1.9226 3.88868 0
M  V30 5290 H 491.535 1.24857 5.37694 0
M  V30 5291 H 494.011 -0.240519 4.15404 0
M  V30 5292 H 492.887 -0.759622 5.43618 0
M  V30 5293 H 493.148 -1.79397 4.04066 0
M  V30 5294 N 492.207 -1.54576 0.307264 0
M  V30 5295 C 493.432 -2.05139 -0.305379 0
M  V30 5296 C 493.857 -1.18278 -1.46259 0
M  V30 5297 O 493.215 -0.188243 -1.8032 0
M  V30 5298 C 493.263 -3.53066 -0.733283 0
M  V30 5299 O 492.367 -3.69206 -1.83741 0
M  V30 5300 H 491.708 -0.661444 -0.0582105 0
M  V30 5301 H 494.238 -1.99569 0.450931 0
M  V30 5302 H 494.248 -3.95034 -1.02039 0
M  V30 5303 H 492.923 -4.15746 0.113198 0
M  V30 5304 H 491.5 -3.39143 -1.55037 0
M  V30 5305 N 493.685 -0.035106 -1.57561 0
M  V30 5306 C 494.633 0.962707 -2.11742 0
M  V30 5307 C 495.627 1.33296 -1.0454 0
M  V30 5308 O 496.833 1.31449 -1.22968 0
M  V30 5309 H 493.208 0.32826 -0.676572 0
M  V30 5310 H 495.179 0.48048 -2.94506 0
M  V30 5311 C 493.928 2.23388 -2.66445 0
M  V30 5312 H 493.251 1.95774 -3.48587 0
M  V30 5313 H 494.691 2.91402 -3.07995 0
M  V30 5314 C 493.15 2.96769 -1.59467 0
M  V30 5315 O 493.68 3.89105 -0.998 0
M  V30 5316 N 491.886 2.59212 -1.31369 0
M  V30 5317 H 491.433 1.84202 -1.80076 0
M  V30 5318 H 491.391 3.08618 -0.600173 0
M  V30 5319 N 495.163 1.55791 0.238111 0
M  V30 5320 C 496.11 1.9105 1.29493 0
M  V30 5321 C 497.08 0.765733 1.47397 0
M  V30 5322 O 498.265 1.02017 1.61236 0
M  V30 5323 C 495.405 2.21826 2.64362 0
M  V30 5324 C 494.518 3.49153 2.54394 0
M  V30 5325 C 493.653 3.69455 3.81676 0
M  V30 5326 C 492.692 4.90353 3.66361 0
M  V30 5327 N 491.829 5.07131 4.85554 0
M  V30 5328 H 496.669 2.81172 0.987233 0
M  V30 5329 H 494.206 1.39179 0.476203 0
M  V30 5330 H 496.164 2.37675 3.4288 0
M  V30 5331 H 494.794 1.34897 2.93262 0
M  V30 5332 H 493.846 3.41587 1.67399 0
M  V30 5333 H 495.158 4.37818 2.38991 0
M  V30 5334 H 494.312 3.85311 4.68636 0
M  V30 5335 H 493.051 2.7904 3.99985 0
M  V30 5336 H 492.056 4.74464 2.77784 0
M  V30 5337 H 493.281 5.82237 3.49538 0
M  V30 5338 H 491.227 4.19654 5.04209 0
M  V30 5339 H 491.144 5.89899 4.72816 0
M  V30 5340 H 492.412 5.27407 5.73988 0
M  V30 5341 N 496.642 -0.504142 1.49319 0
M  V30 5342 C 497.605 -1.5883 1.65244 0
M  V30 5343 C 498.605 -1.52009 0.524386 0
M  V30 5344 O 499.795 -1.55218 0.79077 0
M  V30 5345 C 496.927 -2.98481 1.64687 0
M  V30 5346 H 498.12 -1.4604 2.61939 0
M  V30 5347 H 495.673 -0.728144 1.38303 0
M  V30 5348 H 496.408 -3.16751 0.695644 0
M  V30 5349 H 496.193 -3.0484 2.46607 0
M  V30 5350 H 497.683 -3.77256 1.79075 0
M  V30 5351 N 498.12 -1.38341 -0.754957 0
M  V30 5352 C 499.05 -1.38176 -1.88227 0
M  V30 5353 C 500.031 -0.247873 -1.68284 0
M  V30 5354 O 501.216 -0.45075 -1.88896 0
M  V30 5355 C 498.346 -1.20471 -3.25736 0
M  V30 5356 C 497.3 -2.3105 -3.60278 0
M  V30 5357 C 496.626 -1.98452 -4.96509 0
M  V30 5358 C 497.926 -3.73305 -3.65295 0
M  V30 5359 H 499.62 -2.32512 -1.88622 0
M  V30 5360 H 497.166 -1.1192 -0.906082 0
M  V30 5361 H 499.119 -1.18982 -4.04254 0
M  V30 5362 H 497.843 -0.225965 -3.25817 0
M  V30 5363 H 496.502 -2.31723 -2.84078 0
M  V30 5364 H 496.15 -0.990641 -4.93148 0
M  V30 5365 H 495.85 -2.7251 -5.20588 0
M  V30 5366 H 497.374 -1.98578 -5.77407 0
M  V30 5367 H 498.788 -3.7467 -4.3393 0
M  V30 5368 H 497.185 -4.46557 -4.00883 0
M  V30 5369 H 498.255 -4.05719 -2.65556 0
M  V30 5370 N 499.598 0.982988 -1.23187 0
M  V30 5371 C 501.009 1.53847 -1.05773 0
M  V30 5372 C 501.36 1.92568 0.375744 0
M  V30 5373 O 500.485 1.75783 1.26211 0
M  V30 5374 C 501.08 2.79567 -1.91384 0
M  V30 5375 C 499.639 3.31524 -1.78238 0
M  V30 5376 C 498.786 2.04534 -1.87246 0
M  V30 5377 H 501.737 0.802962 -1.36888 0
M  V30 5378 H 501.758 3.52317 -1.43711 0
M  V30 5379 H 501.27 2.51353 -2.95708 0
M  V30 5380 H 499.371 3.64623 -0.766875 0
M  V30 5381 H 499.484 4.01457 -2.61475 0
M  V30 5382 H 497.848 2.1855 -1.30797 0
M  V30 5383 H 498.631 1.78706 -2.9312 0
M  V30 5384 N 501.076 1.04316 1.18135 0
M  V30 5385 C 502.039 0.640794 2.2006 0
M  V30 5386 C 503.039 -0.303124 1.57917 0
M  V30 5387 O 504.229 -0.0881855 1.73977 0
M  V30 5388 C 501.361 -0.060148 3.40847 0
M  V30 5389 H 502.554 1.54281 2.57172 0
M  V30 5390 H 500.107 0.836004 1.32063 0
M  V30 5391 H 500.842 -0.975845 3.0927 0
M  V30 5392 H 500.627 0.618319 3.87194 0
M  V30 5393 H 502.117 -0.328082 4.16309 0
M  V30 5394 N 502.554 -1.34406 0.822964 0
M  V30 5395 C 503.965 -1.8069 0.469879 0
M  V30 5396 C 504.316 -1.68223 -1.00972 0
M  V30 5397 O 503.441 -1.22226 -1.78577 0
M  V30 5398 C 504.036 -3.28064 0.846118 0
M  V30 5399 C 502.595 -3.72428 0.545402 0
M  V30 5400 C 501.742 -2.56116 1.06301 0
M  V30 5401 H 504.693 -1.22153 1.01313 0
M  V30 5402 H 504.714 -3.80205 0.149922 0
M  V30 5403 H 504.226 -3.37107 1.92304 0
M  V30 5404 H 502.327 -3.68924 -0.522109 0
M  V30 5405 H 502.44 -4.66548 1.0895 0
M  V30 5406 H 500.804 -2.50048 0.484554 0
M  V30 5407 H 501.587 -2.67928 2.14638 0
M  V30 5408 N 504.032 -0.577932 -1.46621 0
M  V30 5409 C 505.281 -0.0594281 -2.01612 0
M  V30 5410 C 505.594 1.30663 -1.45556 0
M  V30 5411 O 506.8 1.91621 -1.92337 0
M  V30 5412 C 505.256 -0.0556666 -3.59857 0
M  V30 5413 C 504.864 -1.41975 -4.24908 0
M  V30 5414 C 506.608 0.409143 -4.22524 0
M  V30 5415 C 504.515 -1.37397 -5.75218 0
M  V30 5416 H 503.445 -0.0184469 -0.753774 0
M  V30 5417 H 506.096 -0.728869 -1.68404 0
M  V30 5418 H 504.478 0.679843 -3.90121 0
M  V30 5419 H 505.652 -2.17461 -4.0626 0
M  V30 5420 H 503.967 -1.82419 -3.74316 0
M  V30 5421 H 506.564 0.46211 -5.32699 0
M  V30 5422 H 506.907 1.42565 -3.91128 0
M  V30 5423 H 507.44 -0.272152 -3.96868 0
M  V30 5424 H 504.179 -2.36714 -6.11267 0
M  V30 5425 H 503.699 -0.661239 -5.96144 0
M  V30 5426 H 505.378 -1.08484 -6.3784 0
M  V30 5427 N 505.51 1.54411 -0.315457 0
M  V30 5428 C 506.42 2.27737 0.56329 0
M  V30 5429 C 507.436 1.31787 1.13614 0
M  V30 5430 O 508.612 1.64791 1.15784 0
M  V30 5431 C 505.677 3.01478 1.71207 0
M  V30 5432 C 504.738 4.12997 1.17185 0
M  V30 5433 C 503.971 4.83212 2.26588 0
M  V30 5434 O 504.194 4.52884 3.46775 0
M  V30 5435 O 503.128 5.70299 1.92463 0
M  V30 5436 H 506.954 3.03683 -0.0319614 0
M  V30 5437 H 504.539 1.49178 -0.0814188 0
M  V30 5438 H 506.421 3.47683 2.38106 0
M  V30 5439 H 505.096 2.28414 2.29366 0
M  V30 5440 H 504.003 3.71159 0.468174 0
M  V30 5441 H 505.336 4.8808 0.635501 0
M  V30 5442 N 506.988 0.0434614 1.5754 0
M  V30 5443 C 507.935 -0.93356 2.11077 0
M  V30 5444 C 508.905 -1.31383 1.01626 0
M  V30 5445 O 510.09 -1.40465 1.29129 0
M  V30 5446 C 507.23 -2.20578 2.65404 0
M  V30 5447 C 506.343 -1.88068 3.88914 0
M  V30 5448 C 505.478 -3.09691 4.31584 0
M  V30 5449 C 504.517 -2.73067 5.47815 0
M  V30 5450 N 503.654 -3.87359 5.85574 0
M  V30 5451 H 508.494 -0.470118 2.94268 0
M  V30 5452 H 506.031 -0.220434 1.45439 0
M  V30 5453 H 507.989 -2.95011 2.94999 0
M  V30 5454 H 506.619 -2.64513 1.85021 0
M  V30 5455 H 505.671 -1.03816 3.6596 0
M  V30 5456 H 506.983 -1.57104 4.73413 0
M  V30 5457 H 506.137 -3.92431 4.62691 0
M  V30 5458 H 504.876 -3.43827 3.45882 0
M  V30 5459 H 503.881 -1.88742 5.16388 0
M  V30 5460 H 505.106 -2.40131 6.35227 0
M  V30 5461 H 503.052 -4.21311 5.02825 0
M  V30 5462 H 502.969 -3.60068 6.64746 0
M  V30 5463 H 504.237 -4.70761 6.21292 0
M  V30 5464 N 508.466 -1.55915 -0.229846 0
M  V30 5465 C 509.694 -1.82617 -0.972562 0
M  V30 5466 C 510.109 -0.621488 -1.78278 0
M  V30 5467 O 509.466 0.409956 -1.77836 0
M  V30 5468 C 509.517 -3.0774 -1.89679 0
M  V30 5469 O 509.238 -4.23559 -1.11934 0
M  V30 5470 C 510.739 -3.47368 -2.75409 0
M  V30 5471 H 507.959 -0.60727 -0.285419 0
M  V30 5472 H 510.503 -2.02996 -0.247579 0
M  V30 5473 H 508.658 -2.89361 -2.57583 0
M  V30 5474 H 509.072 -4.94586 -1.74599 0
M  V30 5475 H 510.546 -4.37977 -3.35977 0
M  V30 5476 H 511.023 -2.68737 -3.47386 0
M  V30 5477 H 511.629 -3.68158 -2.12931 0
M  V30 5478 N 509.944 0.496216 -1.49584 0
M  V30 5479 C 511.193 1.24668 -1.58558 0
M  V30 5480 C 511.506 1.9359 -0.279703 0
M  V30 5481 O 512.712 2.70365 -0.248048 0
M  V30 5482 C 511.168 2.26388 -2.79779 0
M  V30 5483 C 510.776 1.63384 -4.17145 0
M  V30 5484 C 512.52 3.02233 -2.98086 0
M  V30 5485 C 510.427 2.63243 -5.29582 0
M  V30 5486 H 509.357 0.468995 -0.590389 0
M  V30 5487 H 512.008 0.519985 -1.75978 0
M  V30 5488 H 510.39 3.02241 -2.55863 0
M  V30 5489 H 511.564 0.93491 -4.51216 0
M  V30 5490 H 509.879 0.999121 -4.04236 0
M  V30 5491 H 512.476 3.76919 -3.79257 0
M  V30 5492 H 512.819 3.60132 -2.08831 0
M  V30 5493 H 513.352 2.33495 -3.22063 0
M  V30 5494 H 510.091 2.10119 -6.20911 0
M  V30 5495 H 509.611 3.31363 -4.99959 0
M  V30 5496 H 511.29 3.25575 -5.59115 0
M  V30 5497 N 511.423 1.38739 0.74761 0
M  V30 5498 C 512.648 1.38702 1.54197 0
M  V30 5499 C 513.073 -0.019664 1.8809 0
M  V30 5500 O 512.431 -1.00333 1.51006 0
M  V30 5501 C 512.479 2.25492 2.814 0
M  V30 5502 O 511.583 1.67613 3.76802 0
M  V30 5503 H 510.924 0.472863 0.466151 0
M  V30 5504 H 513.454 1.82577 0.923413 0
M  V30 5505 H 513.464 2.39561 3.30264 0
M  V30 5506 H 512.139 3.27727 2.56062 0
M  V30 5507 H 510.716 1.62718 3.35526 0
M  V30 5508 N 512.901 -0.976442 1.23707 0
M  V30 5509 C 513.848 -2.06952 1.02174 0
M  V30 5510 C 514.818 -1.65984 -0.0621034 0
M  V30 5511 O 516.003 -1.90584 0.0907906 0
M  V30 5512 C 513.143 -3.39425 0.62327 0
M  V30 5513 C 512.256 -3.9364 1.77966 0
M  V30 5514 C 511.391 -5.14343 1.3276 0
M  V30 5515 C 510.43 -5.60733 2.45449 0
M  V30 5516 N 509.567 -6.72662 2.01172 0
M  V30 5517 H 514.407 -2.24704 1.95734 0
M  V30 5518 H 511.944 -1.10143 0.975034 0
M  V30 5519 H 513.902 -4.15526 0.37332 0
M  V30 5520 H 512.532 -3.21624 -0.275329 0
M  V30 5521 H 511.584 -3.14258 2.14351 0
M  V30 5522 H 512.896 -4.24035 2.62671 0
M  V30 5523 H 512.05 -5.97789 1.03601 0
M  V30 5524 H 510.789 -4.8561 0.450975 0
M  V30 5525 H 509.794 -4.75865 2.75378 0
M  V30 5526 H 511.019 -5.91483 3.33654 0
M  V30 5527 H 508.965 -6.45681 1.15895 0
M  V30 5528 H 508.882 -7.02462 2.79434 0
M  V30 5529 H 510.15 -7.59572 1.75129 0
M  V30 5530 N 514.379 -1.04941 -1.1758 0
M  V30 5531 C 515.342 -0.652456 -2.19717 0
M  V30 5532 C 516.342 0.294745 -1.58076 0
M  V30 5533 O 517.532 0.0789579 -1.74021 0
M  V30 5534 C 514.664 0.0420712 -3.40874 0
M  V30 5535 H 515.857 -1.55642 -2.5635 0
M  V30 5536 H 513.41 -0.842995 -1.31618 0
M  V30 5537 H 514.145 0.95943 -3.09783 0
M  V30 5538 H 513.93 -0.638844 -3.86861 0
M  V30 5539 H 515.42 0.306 -4.16477 0
M  V30 5540 N 515.857 1.33968 -0.830081 0
M  V30 5541 C 516.804 2.29387 -0.255008 0
M  V30 5542 C 517.774 1.53923 0.624243 0
M  V30 5543 O 518.959 1.82262 0.564372 0
M  V30 5544 C 516.099 3.4034 0.571209 0
M  V30 5545 C 515.212 4.30729 -0.331083 0
M  V30 5546 C 514.347 5.2879 0.505389 0
M  V30 5547 C 513.386 6.10819 -0.395843 0
M  V30 5548 N 512.523 7.00948 0.401979 0
M  V30 5549 H 517.363 2.77972 -1.07404 0
M  V30 5550 H 514.9 1.36785 -0.541133 0
M  V30 5551 H 516.858 4.03361 1.06562 0
M  V30 5552 H 515.488 2.9297 1.35529 0
M  V30 5553 H 514.54 3.68507 -0.943759 0
M  V30 5554 H 515.852 4.88181 -1.02377 0
M  V30 5555 H 515.006 5.97297 1.06399 0
M  V30 5556 H 513.745 4.71894 1.23155 0
M  V30 5557 H 512.75 5.41238 -0.966529 0
M  V30 5558 H 513.975 6.69797 -1.12023 0
M  V30 5559 H 511.921 6.46512 1.11168 0
M  V30 5560 H 511.838 7.55643 -0.232167 0
M  V30 5561 H 513.106 7.73774 0.943102 0
M  V30 5562 N 517.335 0.585699 1.46312 0
M  V30 5563 C 518.583 0.072278 2.01971 0
M  V30 5564 C 518.904 -1.29345 1.45928 0
M  V30 5565 O 518.174 -1.84973 0.645109 0
M  V30 5566 H 516.754 0.023729 0.746623 0
M  V30 5567 H 519.416 0.762155 1.7938 0
M  V30 5568 H 518.512 0.00552767 3.121 0
M  V30 5569 N 518.813 -1.54241 0.323641 0
M  V30 5570 C 519.745 -2.21836 -0.576311 0
M  V30 5571 C 520.758 -1.21837 -1.07979 0
M  V30 5572 O 521.947 -1.48306 -0.99336 0
M  V30 5573 C 519.047 -2.86923 -1.80356 0
M  V30 5574 C 518.22 -4.1306 -1.43875 0
M  V30 5575 C 517.279 -4.6174 -2.52353 0
M  V30 5576 O 516.305 -5.26421 -2.16494 0
M  V30 5577 N 517.507 -4.35974 -3.83284 0
M  V30 5578 H 520.272 -2.997 0.00247987 0
M  V30 5579 H 517.833 -1.61233 0.146848 0
M  V30 5580 H 519.825 -3.16414 -2.52318 0
M  V30 5581 H 518.395 -2.12765 -2.29019 0
M  V30 5582 H 517.615 -3.90334 -0.550752 0
M  V30 5583 H 518.903 -4.95148 -1.17071 0
M  V30 5584 H 518.301 -3.84203 -4.15216 0
M  V30 5585 H 516.858 -4.70119 -4.51477 0
M  V30 5586 N 520.291 -0.0518155 -1.57515 0
M  V30 5587 C 521.702 0.483787 -1.80323 0
M  V30 5588 C 522.053 1.70879 -0.964099 0
M  V30 5589 O 521.178 2.15643 -0.180872 0
M  V30 5590 C 521.773 0.884459 -3.27052 0
M  V30 5591 C 520.332 1.36504 -3.50776 0
M  V30 5592 C 519.479 0.340539 -2.75201 0
M  V30 5593 H 522.43 -0.277691 -1.56252 0
M  V30 5594 H 522.451 1.74733 -3.38007 0
M  V30 5595 H 521.963 -0.00731093 -3.88099 0
M  V30 5596 H 520.064 2.27598 -2.95009 0
M  V30 5597 H 520.177 1.35675 -4.59488 0
M  V30 5598 H 518.541 0.81356 -2.41357 0
M  V30 5599 H 519.324 -0.543156 -3.38976 0
M  V30 5600 N 521.769 1.56035 0.221574 0
M  V30 5601 C 523.185 1.49026 0.571271 0
M  V30 5602 C 523.385 0.746912 1.87146 0
M  V30 5603 O 522.441 0.286566 2.50869 0
M  V30 5604 C 523.754 2.93579 0.650522 0
M  V30 5605 C 525.302 3.04099 0.741151 0
M  V30 5606 C 525.777 4.5001 0.851747 0
M  V30 5607 N 527.268 4.54053 0.915968 0
M  V30 5608 C 528.003 5.64232 1.02125 0
M  V30 5609 N 527.499 6.84164 1.09049 0
M  V30 5610 N 529.292 5.52084 1.05639 0
M  V30 5611 H 521.443 2.02791 -0.63162 0
M  V30 5612 H 523.706 0.921736 -0.221602 0
M  V30 5613 H 523.412 3.50912 -0.235253 0
M  V30 5614 H 523.286 3.45476 1.51413 0
M  V30 5615 H 525.673 2.4683 1.61737 0
M  V30 5616 H 525.754 2.55371 -0.148128 0
M  V30 5617 H 525.398 5.07896 -0.0200117 0
M  V30 5618 H 525.328 4.96444 1.75644 0
M  V30 5619 H 527.819 3.67683 0.872782 0
M  V30 5620 H 528.132 7.63883 1.1706 0
M  V30 5621 H 526.477 6.86875 1.05962 0
M  V30 5622 H 529.668 4.57317 0.998953 0
M  V30 5623 H 529.841 6.37983 1.13498 0
M  V30 5624 N 523.247 -0.488276 1.49845 0
M  V30 5625 C 524.157 -1.61451 1.70207 0
M  V30 5626 C 525.173 -1.63877 0.584846 0
M  V30 5627 O 526.349 -1.82063 0.861107 0
M  V30 5628 C 523.414 -2.9776 1.77594 0
M  V30 5629 C 522.475 -3.05861 3.01243 0
M  V30 5630 C 521.708 -4.35668 3.08268 0
M  V30 5631 O 521.931 -5.25197 2.22541 0
M  V30 5632 O 520.865 -4.49005 4.00847 0
M  V30 5633 H 524.691 -1.47199 2.65643 0
M  V30 5634 H 522.276 -0.665939 1.33737 0
M  V30 5635 H 524.158 -3.7875 1.84732 0
M  V30 5636 H 522.833 -3.12248 0.8534 0
M  V30 5637 H 521.74 -2.24012 2.99616 0
M  V30 5638 H 523.073 -2.96304 3.9302 0
M  V30 5639 N 524.725 -1.39134 -0.740242 0
M  V30 5640 C 526.136 -1.32208 -1.31825 0
M  V30 5641 C 526.487 0.0159919 -1.96193 0
M  V30 5642 O 525.612 0.918111 -1.95958 0
M  V30 5643 C 526.207 -2.39436 -2.39699 0
M  V30 5644 C 524.766 -2.36048 -2.93187 0
M  V30 5645 C 523.913 -2.21599 -1.66701 0
M  V30 5646 H 526.864 -1.49298 -0.538133 0
M  V30 5647 H 526.885 -2.05922 -3.19963 0
M  V30 5648 H 526.397 -3.36811 -1.92821 0
M  V30 5649 H 524.498 -1.42295 -3.44359 0
M  V30 5650 H 524.611 -3.30704 -3.46658 0
M  V30 5651 H 522.975 -1.68681 -1.90837 0
M  V30 5652 H 523.758 -3.20936 -1.21882 0
M  V30 5653 N 526.204 0.969867 -1.24223 0
M  V30 5654 C 527.136 2.0669 -0.99055 0
M  V30 5655 C 528.149 1.62753 0.0392222 0
M  V30 5656 O 529.338 1.77403 -0.197561 0
M  V30 5657 C 526.438 3.35589 -0.472594 0
M  V30 5658 C 525.611 4.08444 -1.56499 0
M  V30 5659 C 524.67 5.15616 -1.05007 0
M  V30 5660 O 523.696 5.41911 -1.7413 0
M  V30 5661 N 524.898 5.80383 0.116641 0
M  V30 5662 H 527.663 2.28855 -1.93508 0
M  V30 5663 H 525.224 1.13733 -1.15223 0
M  V30 5664 H 527.216 4.04542 -0.112919 0
M  V30 5665 H 525.786 3.10311 0.377617 0
M  V30 5666 H 525.006 3.33798 -2.09696 0
M  V30 5667 H 526.294 4.53882 -2.29932 0
M  V30 5668 H 525.692 5.6142 0.694589 0
M  V30 5669 H 524.249 6.50462 0.417483 0
M  V30 5670 N 527.682 1.05563 1.17022 0
M  V30 5671 C 528.928 0.769074 1.87652 0
M  V30 5672 C 529.261 -0.702326 1.81055 0
M  V30 5673 O 528.536 -1.5139 1.22112 0
M  V30 5674 C 528.819 1.25492 3.37526 0
M  V30 5675 C 528.672 2.78953 3.52853 0
M  V30 5676 C 529.991 0.856919 4.31677 0
M  V30 5677 H 527.11 0.280854 0.681388 0
M  V30 5678 H 529.752 1.31027 1.37593 0
M  V30 5679 H 527.902 0.794516 3.80289 0
M  V30 5680 H 529.574 3.33146 3.19079 0
M  V30 5681 H 527.817 3.18046 2.95007 0
M  V30 5682 H 528.488 3.08011 4.58076 0
M  V30 5683 H 530.964 1.25334 3.96775 0
M  V30 5684 H 529.84 1.22443 5.35069 0
M  V30 5685 H 530.101 -0.238787 4.41455 0
M  V30 5686 N 529.16 -1.33526 0.837174 0
M  V30 5687 C 530.39 -2.01754 0.444848 0
M  V30 5688 C 530.798 -1.63149 -0.958072 0
M  V30 5689 O 530.141 -0.839827 -1.63379 0
M  V30 5690 C 530.203 -3.56228 0.483917 0
M  V30 5691 C 529.867 -4.18205 1.84265 0
M  V30 5692 C 530.864 -4.37699 2.80563 0
M  V30 5693 C 528.549 -4.54667 2.13503 0
M  V30 5694 C 530.543 -4.928 4.04261 0
M  V30 5695 C 528.23 -5.09475 3.37458 0
M  V30 5696 C 529.228 -5.28488 4.32654 0
M  V30 5697 O 528.916 -5.82132 5.54417 0
M  V30 5698 H 528.648 -0.652928 0.175104 0
M  V30 5699 H 531.202 -1.71469 1.13082 0
M  V30 5700 H 529.432 -3.85833 -0.258826 0
M  V30 5701 H 531.121 -4.05752 0.109653 0
M  V30 5702 H 531.887 -4.0988 2.59274 0
M  V30 5703 H 527.766 -4.39164 1.40201 0
M  V30 5704 H 531.31 -5.07555 4.78574 0
M  V30 5705 H 527.207 -5.36725 3.58604 0
M  V30 5706 H 527.975 -6.00548 5.56133 0
M  V30 5707 N 530.638 -0.59345 -1.46 0
M  V30 5708 C 531.866 -0.0890934 -2.06708 0
M  V30 5709 C 532.281 1.2205 -1.44046 0
M  V30 5710 O 531.638 1.74029 -0.549551 0
M  V30 5711 C 531.689 0.0720263 -3.61428 0
M  V30 5712 O 531.41 -1.18574 -4.21748 0
M  V30 5713 C 532.911 0.609487 -4.3909 0
M  V30 5714 H 530.131 -0.0623628 -0.668096 0
M  V30 5715 H 532.675 -0.817171 -1.87464 0
M  V30 5716 H 530.83 0.750369 -3.80063 0
M  V30 5717 H 531.244 -1.0064 -5.14754 0
M  V30 5718 H 532.718 0.671363 -5.47902 0
M  V30 5719 H 533.195 1.62878 -4.07882 0
M  V30 5720 H 533.801 -0.03434 -4.25286 0
M  V30 5721 N 532.116 1.54067 -0.331816 0
M  V30 5722 C 533.046 2.27569 0.522932 0
M  V30 5723 C 534.027 1.28679 1.11247 0
M  V30 5724 O 535.212 1.57504 1.13605 0
M  V30 5725 C 532.342 3.0397 1.67987 0
M  V30 5726 C 531.296 4.10267 1.21924 0
M  V30 5727 C 530.622 4.74555 2.46377 0
M  V30 5728 C 531.922 5.21268 0.32815 0
M  V30 5729 H 533.616 2.99264 -0.0901977 0
M  V30 5730 H 531.162 1.4393 -0.044821 0
M  V30 5731 H 533.115 3.54123 2.28418 0
M  V30 5732 H 531.839 2.29906 2.31971 0
M  V30 5733 H 530.498 3.61009 0.637809 0
M  V30 5734 H 530.146 3.97098 3.08743 0
M  V30 5735 H 529.846 5.46363 2.16243 0
M  V30 5736 H 531.37 5.27487 3.07555 0
M  V30 5737 H 532.784 5.67128 0.838978 0
M  V30 5738 H 531.181 5.99982 0.119228 0
M  V30 5739 H 532.251 4.80673 -0.638839 0
M  V30 5740 N 533.594 0.0601682 1.57485 0
M  V30 5741 C 535.005 -0.474217 1.80577 0
M  V30 5742 C 535.356 -1.70365 0.973147 0
M  V30 5743 O 534.481 -2.15544 0.192306 0
M  V30 5744 C 535.076 -0.867102 3.27516 0
M  V30 5745 C 533.635 -1.34642 3.51495 0
M  V30 5746 C 532.782 -0.32594 2.75378 0
M  V30 5747 H 535.733 0.285973 1.56102 0
M  V30 5748 H 535.754 -1.72938 3.38929 0
M  V30 5749 H 535.266 0.0278927 3.8809 0
M  V30 5750 H 533.367 -2.2603 2.96212 0
M  V30 5751 H 533.48 -1.33237 4.60201 0
M  V30 5752 H 531.844 -0.800749 2.41785 0
M  V30 5753 H 532.627 0.561125 3.38683 0
M  V30 5754 N 535.072 -1.5615 -0.213296 0
M  V30 5755 C 536.483 -1.69645 -0.779582 0
M  V30 5756 C 536.834 -0.663615 -1.84636 0
M  V30 5757 O 535.959 0.183633 -2.15619 0
M  V30 5758 C 536.554 -3.07567 -1.42084 0
M  V30 5759 C 535.113 -3.22889 -1.93442 0
M  V30 5760 C 534.26 -2.65581 -0.797612 0
M  V30 5761 H 537.211 -1.58696 0.0114951 0
M  V30 5762 H 537.232 -3.03884 -2.28986 0
M  V30 5763 H 536.744 -3.82716 -0.644187 0
M  V30 5764 H 534.845 -2.52623 -2.73884 0
M  V30 5765 H 534.958 -4.30197 -2.10872 0
M  V30 5766 H 533.322 -2.24278 -1.20712 0
M  V30 5767 H 534.105 -3.43284 -0.033494 0
M  V30 5768 N 536.55 0.480323 -1.50102 0
M  V30 5769 C 537.775 1.26126 -1.64642 0
M  V30 5770 C 538.2 1.85257 -0.325823 0
M  V30 5771 O 537.558 1.66854 0.709194 0
M  V30 5772 C 537.606 2.35243 -2.73301 0
M  V30 5773 O 536.71 3.39646 -2.33911 0
M  V30 5774 H 536.051 0.371463 -0.550374 0
M  V30 5775 H 538.581 0.572696 -1.96421 0
M  V30 5776 H 538.591 2.80695 -2.96098 0
M  V30 5777 H 537.266 1.91574 -3.6915 0
M  V30 5778 H 535.843 2.99969 -2.21525 0
M  V30 5779 N 538.028 1.39524 0.732853 0
M  V30 5780 C 539.444 1.21176 1.03868 0
M  V30 5781 C 539.644 0.0748448 2.01361 0
M  V30 5782 O 538.7 -0.57281 2.45917 0
M  V30 5783 C 540.013 2.54667 1.59892 0
M  V30 5784 C 541.561 2.6153 1.71962 0
M  V30 5785 C 542.036 3.95248 2.31394 0
M  V30 5786 N 543.527 3.96899 2.38801 0
M  V30 5787 C 544.262 4.97138 2.85729 0
M  V30 5788 N 543.758 6.07775 3.32537 0
M  V30 5789 N 545.551 4.84516 2.84957 0
M  V30 5790 H 537.702 2.12225 0.086304 0
M  V30 5791 H 539.965 0.942614 0.100907 0
M  V30 5792 H 539.671 3.38423 0.95721 0
M  V30 5793 H 539.545 2.74538 2.58668 0
M  V30 5794 H 541.932 1.78156 2.35254 0
M  V30 5795 H 542.013 2.45507 0.718327 0
M  V30 5796 H 541.657 4.79054 1.68729 0
M  V30 5797 H 541.587 4.08593 3.32204 0
M  V30 5798 H 544.078 3.16998 2.05719 0
M  V30 5799 H 544.391 6.8017 3.66862 0
M  V30 5800 H 542.736 6.11366 3.30541 0
M  V30 5801 H 545.927 3.97185 2.47713 0
M  V30 5802 H 546.1 5.62783 3.21215 0
M  V30 5803 N 539.506 -0.963266 1.24736 0
M  V30 5804 C 540.416 -2.09246 1.06082 0
M  V30 5805 C 541.432 -1.74 0.000363101 0
M  V30 5806 O 542.608 -2.0041 0.199479 0
M  V30 5807 C 539.673 -3.40115 0.672498 0
M  V30 5808 C 538.734 -3.89282 1.80993 0
M  V30 5809 C 537.967 -5.13905 1.44004 0
M  V30 5810 O 538.19 -5.69434 0.331835 0
M  V30 5811 O 537.124 -5.57566 2.26723 0
M  V30 5812 H 540.95 -2.27881 2.00759 0
M  V30 5813 H 538.535 -1.07649 1.03595 0
M  V30 5814 H 540.417 -4.18797 0.467668 0
M  V30 5815 H 539.092 -3.22771 -0.245102 0
M  V30 5816 H 537.999 -3.11642 2.06955 0
M  V30 5817 H 539.332 -4.1111 2.70646 0
M  V30 5818 N 540.985 -1.06182 -1.16461 0
M  V30 5819 C 541.895 -0.682671 -2.24448 0
M  V30 5820 C 542.911 0.30078 -1.71381 0
M  V30 5821 O 544.087 0.150376 -2.00838 0
M  V30 5822 C 541.152 -0.0737202 -3.46622 0
M  V30 5823 C 540.213 -1.10889 -4.14731 0
M  V30 5824 C 539.446 -0.528908 -5.31073 0
M  V30 5825 O 539.669 0.65868 -5.66584 0
M  V30 5826 O 538.603 -1.26805 -5.88391 0
M  V30 5827 H 542.429 -1.58291 -2.59187 0
M  V30 5828 H 540.014 -0.834013 -1.23954 0
M  V30 5829 H 541.896 0.264192 -4.20571 0
M  V30 5830 H 540.571 0.800015 -3.13658 0
M  V30 5831 H 539.478 -1.49896 -3.42756 0
M  V30 5832 H 540.811 -1.95412 -4.51747 0
M  V30 5833 N 542.463 1.3308 -0.844243 0
M  V30 5834 C 543.396 2.27075 -0.226279 0
M  V30 5835 C 544.374 1.49911 0.629716 0
M  V30 5836 O 545.558 1.79068 0.588803 0
M  V30 5837 C 542.685 3.31767 0.681782 0
M  V30 5838 C 541.731 4.26384 -0.0994565 0
M  V30 5839 S 542.564 5.15186 -1.46094 0
M  V30 5840 C 543.72 6.23405 -0.558319 0
M  V30 5841 H 543.953 2.79141 -1.02312 0
M  V30 5842 H 541.486 1.40452 -0.641292 0
M  V30 5843 H 543.444 3.92566 1.20008 0
M  V30 5844 H 542.105 2.78507 1.45234 0
M  V30 5845 H 541.298 5.00514 0.591733 0
M  V30 5846 H 540.9 3.69949 -0.548991 0
M  V30 5847 H 543.192 6.77069 0.241672 0
M  V30 5848 H 544.135 6.96619 -1.26995 0
M  V30 5849 H 544.543 5.64333 -0.13728 0
M  V30 5850 N 543.941 0.601185 1.45683 0
M  V30 5851 C 545.169 0.100054 2.06658 0
M  V30 5852 C 545.584 -1.21285 1.44691 0
M  V30 5853 O 544.941 -1.73735 0.558772 0
M  V30 5854 C 544.992 -0.0528579 3.61461 0
M  V30 5855 O 544.713 1.20809 4.21114 0
M  V30 5856 C 546.214 -0.586193 4.39407 0
M  V30 5857 H 543.434 0.065905 0.667756 0
M  V30 5858 H 545.978 0.827101 1.87028 0
M  V30 5859 H 544.133 -0.730203 3.80456 0
M  V30 5860 H 544.547 1.03368 5.14213 0
M  V30 5861 H 546.021 -0.642297 5.4825 0
M  V30 5862 H 546.498 -1.60713 4.0874 0
M  V30 5863 H 547.104 0.0568935 4.25262 0
M  V30 5864 N 545.419 -1.53889 0.339982 0
M  V30 5865 C 546.366 -2.24902 -0.518452 0
M  V30 5866 C 547.336 -1.24593 -1.09844 0
M  V30 5867 O 548.521 -1.53317 -1.13572 0
M  V30 5868 C 545.661 -3.02262 -1.66529 0
M  V30 5869 C 544.774 -4.17418 -1.11295 0
M  V30 5870 C 543.909 -4.82273 -2.2268 0
M  V30 5871 C 542.948 -5.89503 -1.6478 0
M  V30 5872 N 542.085 -6.48153 -2.69893 0
M  V30 5873 H 546.925 -2.97853 0.0936579 0
M  V30 5874 H 544.462 -1.46986 0.0579924 0
M  V30 5875 H 546.42 -3.45371 -2.3404 0
M  V30 5876 H 545.05 -2.31614 -2.24844 0
M  V30 5877 H 544.102 -3.78976 -0.328886 0
M  V30 5878 H 545.414 -4.94554 -0.649414 0
M  V30 5879 H 544.568 -5.28435 -2.98063 0
M  V30 5880 H 543.307 -4.04552 -2.72376 0
M  V30 5881 H 542.312 -5.42728 -0.879004 0
M  V30 5882 H 543.537 -6.6913 -1.1594 0
M  V30 5883 H 541.483 -5.73298 -3.1885 0
M  V30 5884 H 541.4 -7.20752 -2.28151 0
M  V30 5885 H 542.668 -6.98968 -3.45056 0
M  V30 5886 N 546.897 -0.0685191 -1.57451 0
M  V30 5887 C 547.845 0.917577 -2.13736 0
M  V30 5888 C 548.839 1.31049 -1.07344 0
M  V30 5889 O 550.045 1.28811 -1.25728 0
M  V30 5890 H 546.42 0.313835 -0.683382 0
M  V30 5891 H 548.391 0.417903 -2.95459 0
M  V30 5892 C 547.14 2.17686 -2.71123 0
M  V30 5893 H 546.463 1.88336 -3.52661 0
M  V30 5894 H 547.903 2.84803 -3.14107 0
M  V30 5895 C 546.362 2.9332 -1.65726 0
M  V30 5896 O 546.892 3.86901 -1.08031 0
M  V30 5897 N 545.098 2.56367 -1.36837 0
M  V30 5898 H 544.645 1.80341 -1.83943 0
M  V30 5899 H 544.603 3.07276 -0.665501 0
M  V30 5900 N 548.375 1.56261 0.205012 0
M  V30 5901 C 549.307 1.90266 1.27795 0
M  V30 5902 C 550.32 0.792397 1.42214 0
M  V30 5903 O 551.509 1.07077 1.42817 0
M  V30 5904 C 548.609 2.11074 2.65143 0
M  V30 5905 C 547.782 3.42176 2.7246 0
M  V30 5906 C 546.841 3.52216 3.90936 0
M  V30 5907 O 545.867 4.25119 3.78501 0
M  V30 5908 N 547.069 2.84573 5.05963 0
M  V30 5909 H 549.834 2.82896 0.989434 0
M  V30 5910 H 547.395 1.57008 0.394981 0
M  V30 5911 H 549.387 2.15089 3.4281 0
M  V30 5912 H 547.957 1.2499 2.86524 0
M  V30 5913 H 547.177 3.50116 1.81142 0
M  V30 5914 H 548.465 4.28509 2.74331 0
M  V30 5915 H 547.863 2.25152 5.18963 0
M  V30 5916 H 546.42 2.94228 5.81613 0
M  V30 5917 N 549.853 -0.472356 1.50355 0
M  V30 5918 C 551.099 -1.22634 1.6152 0
M  V30 5919 C 551.432 -1.91645 0.313995 0
M  V30 5920 O 550.707 -1.82059 -0.684446 0
M  V30 5921 C 550.99 -2.27099 2.7946 0
M  V30 5922 C 550.843 -1.62402 4.19459 0
M  V30 5923 C 552.162 -3.28421 2.92964 0
M  V30 5924 H 549.281 -0.444494 0.587873 0
M  V30 5925 H 551.923 -0.520321 1.82737 0
M  V30 5926 H 550.073 -2.87314 2.61501 0
M  V30 5927 H 551.745 -1.05793 4.49005 0
M  V30 5928 H 549.988 -0.927184 4.23776 0
M  V30 5929 H 550.659 -2.38309 4.97909 0
M  V30 5930 H 553.135 -2.78227 3.09401 0
M  V30 5931 H 552.011 -3.98845 3.77113 0
M  V30 5932 H 552.272 -3.92467 2.03525 0
M  V30 5933 N 551.331 -1.39911 -0.725443 0
M  V30 5934 C 552.556 -1.41137 -1.5197 0
M  V30 5935 C 552.981 -0.010262 -1.88097 0
M  V30 5936 O 552.339 0.979184 -1.52583 0
M  V30 5937 C 552.387 -2.2994 -2.77777 0
M  V30 5938 O 551.491 -1.73586 -3.74088 0
M  V30 5939 H 550.832 -0.480219 -0.458569 0
M  V30 5940 H 553.362 -1.84023 -0.894249 0
M  V30 5941 H 553.372 -2.44785 -3.26411 0
M  V30 5942 H 552.047 -3.31759 -2.50816 0
M  V30 5943 H 550.624 -1.68035 -3.32894 0
M  V30 5944 N 552.809 0.956637 -1.25245 0
M  V30 5945 C 553.739 2.07058 -1.07931 0
M  V30 5946 C 554.72 1.70096 0.0110361 0
M  V30 5947 O 555.905 1.93555 -0.158121 0
M  V30 5948 C 553.035 3.40272 -0.695124 0
M  V30 5949 C 551.989 3.91235 -1.73549 0
M  V30 5950 C 551.315 5.20921 -1.20604 0
M  V30 5951 C 552.615 4.17837 -3.13385 0
M  V30 5952 H 554.309 2.218 -2.01109 0
M  V30 5953 H 551.855 1.06581 -0.968326 0
M  V30 5954 H 553.808 4.1765 -0.560949 0
M  V30 5955 H 552.532 3.25462 0.272355 0
M  V30 5956 H 551.191 3.16025 -1.85807 0
M  V30 5957 H 550.839 5.02479 -0.228846 0
M  V30 5958 H 550.539 5.55987 -1.90136 0
M  V30 5959 H 552.063 6.00897 -1.08421 0
M  V30 5960 H 553.477 4.8588 -3.04292 0
M  V30 5961 H 551.874 4.64154 -3.80369 0
M  V30 5962 H 552.944 3.2419 -3.60595 0
M  V30 5963 N 554.287 1.06798 1.15896 0
M  V30 5964 C 555.515 0.808694 1.90441 0
M  V30 5965 C 555.93 -0.637506 1.77711 0
M  V30 5966 O 555.287 -1.43684 1.12522 0
M  V30 5967 C 555.338 1.20068 3.40978 0
M  V30 5968 O 555.059 2.59013 3.53333 0
M  V30 5969 C 556.56 0.96987 4.3256 0
M  V30 5970 H 553.78 0.292809 0.603742 0
M  V30 5971 H 556.324 1.42296 1.46874 0
M  V30 5972 H 554.479 0.630842 3.82229 0
M  V30 5973 H 554.893 2.7485 4.46719 0
M  V30 5974 H 556.367 1.29371 5.36626 0
M  V30 5975 H 556.844 -0.0941209 4.39099 0
M  V30 5976 H 557.45 1.52433 3.97044 0
M  V30 5977 N 555.766 -1.3263 0.851289 0
M  V30 5978 C 557.006 -1.99174 0.459266 0
M  V30 5979 C 557.37 -1.65913 -0.966273 0
M  V30 5980 O 558.571 -2.2552 -1.46267 0
M  V30 5981 C 556.842 -3.50721 0.687698 0
M  V30 5982 S 558.401 -4.37039 0.392746 0
M  V30 5983 H 555.219 -0.689832 0.172199 0
M  V30 5984 H 557.821 -1.61395 1.10327 0
M  V30 5985 H 556.525 -3.72417 1.72435 0
M  V30 5986 H 556.056 -3.93389 0.0299949 0
M  V30 5987 H 558.071 -4.8999 -0.782578 0
M  V30 5988 N 557.244 -0.608902 -1.45362 0
M  V30 5989 C 558.174 0.0964526 -2.33301 0
M  V30 5990 C 559.155 0.857444 -1.46908 0
M  V30 5991 O 560.34 0.827735 -1.75676 0
M  V30 5992 C 557.47 1.09354 -3.29635 0
M  V30 5993 C 556.424 0.445676 -4.25673 0
M  V30 5994 C 555.75 1.5511 -5.11708 0
M  V30 5995 C 557.05 -0.633972 -5.18438 0
M  V30 5996 H 558.744 -0.637829 -2.92527 0
M  V30 5997 H 556.29 -0.308178 -1.40664 0
M  V30 5998 H 558.243 1.59556 -3.90025 0
M  V30 5999 H 556.967 1.85843 -2.6857 0
M  V30 6000 H 555.626 -0.0354897 -3.66583 0
M  V30 6001 H 555.274 2.30631 -4.4701 0
M  V30 6002 H 554.974 1.12311 -5.76767 0
M  V30 6003 H 556.498 2.05537 -5.74967 0
M  V30 6004 H 557.912 -0.215974 -5.72893 0
M  V30 6005 H 556.309 -0.983789 -5.91981 0
M  V30 6006 H 557.379 -1.51005 -4.60788 0
M  V30 6007 N 558.722 1.53707 -0.348139 0
M  V30 6008 C 559.968 2.01286 0.247332 0
M  V30 6009 C 560.301 1.23546 1.49834 0
M  V30 6010 O 559.576 0.324331 1.91777 0
M  V30 6011 C 559.859 3.55768 0.556858 0
M  V30 6012 C 559.712 4.44216 -0.706564 0
M  V30 6013 C 561.031 4.1841 1.3646 0
M  V30 6014 H 558.15 0.731677 0.0884201 0
M  V30 6015 H 560.792 1.84106 -0.469584 0
M  V30 6016 H 558.942 3.70539 1.16761 0
M  V30 6017 H 560.614 4.41274 -1.34444 0
M  V30 6018 H 558.857 4.12892 -1.33052 0
M  V30 6019 H 559.528 5.50202 -0.445186 0
M  V30 6020 H 562.004 4.07365 0.848113 0
M  V30 6021 H 560.88 5.26563 1.54992 0
M  V30 6022 H 561.141 3.7333 2.36805 0
M  V30 6023 N 560.2 0.0768682 1.57412 0
M  V30 6024 C 561.147 -0.888577 2.13009 0
M  V30 6025 C 562.117 -1.29198 1.0439 0
M  V30 6026 O 563.302 -1.37694 1.3208 0
M  V30 6027 C 560.442 -2.14899 2.70023 0
M  V30 6028 C 559.555 -1.79777 3.92816 0
M  V30 6029 C 558.69 -3.00467 4.38056 0
M  V30 6030 C 557.729 -2.61385 5.53484 0
M  V30 6031 N 556.866 -3.74851 5.93659 0
M  V30 6032 H 561.706 -0.407593 2.95199 0
M  V30 6033 H 559.243 -0.189534 1.45874 0
M  V30 6034 H 561.201 -2.88688 3.0119 0
M  V30 6035 H 559.831 -2.60529 1.9059 0
M  V30 6036 H 558.883 -0.960301 3.68079 0
M  V30 6037 H 560.195 -1.47027 4.76639 0
M  V30 6038 H 559.349 -3.82529 4.7091 0
M  V30 6039 H 558.088 -3.36413 3.53097 0
M  V30 6040 H 557.093 -1.77746 5.20275 0
M  V30 6041 H 558.318 -2.26603 6.40178 0
M  V30 6042 H 556.264 -4.1055 5.11649 0
M  V30 6043 H 556.181 -3.45887 6.72234 0
M  V30 6044 H 557.449 -4.57477 6.31138 0
M  V30 6045 N 561.678 -1.56367 -0.196722 0
M  V30 6046 C 562.926 -1.80172 -0.915554 0
M  V30 6047 C 563.247 -0.649649 -1.8386 0
M  V30 6048 O 562.517 0.332111 -1.93064 0
M  V30 6049 H 561.097 -0.664592 -0.341067 0
M  V30 6050 H 563.759 -1.93844 -0.202622 0
M  V30 6051 H 562.855 -2.7327 -1.50764 0
M  V30 6052 N 563.156 0.464375 -1.50603 0
M  V30 6053 C 564.403 1.21596 -1.61928 0
M  V30 6054 C 564.731 1.91804 -0.322737 0
M  V30 6055 O 563.986 1.83065 0.691776 0
M  V30 6056 C 564.285 2.278 -2.75394 0
M  V30 6057 C 563.951 1.74797 -4.1564 0
M  V30 6058 C 562.613 1.60063 -4.53799 0
M  V30 6059 C 564.965 1.35548 -5.03266 0
M  V30 6060 C 562.293 1.04514 -5.77316 0
M  V30 6061 C 564.645 0.814381 -6.27336 0
M  V30 6062 C 563.309 0.653726 -6.64291 0
M  V30 6063 H 562.579 0.444951 -0.592536 0
M  V30 6064 H 565.226 0.510964 -1.84557 0
M  V30 6065 H 563.531 3.04233 -2.46879 0
M  V30 6066 H 565.228 2.85723 -2.81359 0
M  V30 6067 H 561.818 1.87234 -3.8554 0
M  V30 6068 H 566.002 1.45763 -4.74412 0
M  V30 6069 H 561.258 0.908186 -6.04617 0
M  V30 6070 H 565.432 0.501626 -6.94591 0
M  V30 6071 H 563.059 0.22114 -7.59878 0
M  V30 6072 N 564.634 1.40294 0.718013 0
M  V30 6073 C 565.864 1.41544 1.50495 0
M  V30 6074 C 566.272 0.0127877 1.89196 0
M  V30 6075 O 565.615 -0.97305 1.55812 0
M  V30 6076 C 565.677 2.24021 2.81167 0
M  V30 6077 C 565.341 3.72463 2.64803 0
M  V30 6078 C 566.338 4.65154 2.32223 0
M  V30 6079 C 564.023 4.1625 2.81143 0
M  V30 6080 C 566.017 5.99618 2.16189 0
M  V30 6081 C 563.704 5.50784 2.64727 0
M  V30 6082 C 564.702 6.42283 2.32297 0
M  V30 6083 O 564.39 7.74337 2.16004 0
M  V30 6084 H 564.122 0.484819 0.471091 0
M  V30 6085 H 566.676 1.84948 0.893488 0
M  V30 6086 H 564.906 1.75393 3.44636 0
M  V30 6087 H 566.595 2.17243 3.42871 0
M  V30 6088 H 567.361 4.32622 2.19234 0
M  V30 6089 H 563.24 3.45352 3.05373 0
M  V30 6090 H 566.784 6.71 1.90799 0
M  V30 6091 H 562.681 5.82902 2.773 0
M  V30 6092 H 563.449 7.85244 2.30942 0
M  V30 6093 N 566.112 -0.949982 1.2575 0
M  V30 6094 C 567.523 -1.50989 1.09815 0
M  V30 6095 C 567.874 -1.93497 -0.324556 0
M  V30 6096 O 566.999 -1.79068 -1.21506 0
M  V30 6097 C 567.594 -2.74394 1.98729 0
M  V30 6098 C 566.153 -3.26682 1.86965 0
M  V30 6099 C 565.3 -1.99498 1.92603 0
M  V30 6100 H 568.251 -0.766387 1.38968 0
M  V30 6101 H 568.272 -3.48383 1.53001 0
M  V30 6102 H 567.784 -2.43425 3.02268 0
M  V30 6103 H 565.885 -3.62461 0.863279 0
M  V30 6104 H 565.998 -3.94383 2.72027 0
M  V30 6105 H 564.362 -2.15005 1.36546 0
M  V30 6106 H 565.145 -1.70871 2.97755 0
M  V30 6107 N 567.59 -1.07411 -1.15328 0
M  V30 6108 C 568.815 -0.818856 -1.90551 0
M  V30 6109 C 569.24 0.622194 -1.77512 0
M  V30 6110 O 568.598 1.43484 -1.10824 0
M  V30 6111 C 568.646 -1.23267 -3.38877 0
M  V30 6112 O 567.75 -0.378345 -4.10661 0
M  V30 6113 H 567.091 -0.29827 -0.593238 0
M  V30 6114 H 569.621 -1.43289 -1.46046 0
M  V30 6115 H 569.631 -1.20912 -3.89672 0
M  V30 6116 H 568.306 -2.28226 -3.47686 0
M  V30 6117 H 566.883 -0.464437 -3.69996 0
M  V30 6118 N 569.068 1.32177 -0.85831 0
M  V30 6119 C 570.345 1.91781 -0.384624 0
M  V30 6120 C 570.725 1.78171 1.13217 0
M  V30 6121 O 570.073 1.18209 1.95548 0
M  V30 6122 C 570.283 3.38414 -0.853047 0
M  V30 6123 C 571.631 4.15542 -0.872359 0
M  V30 6124 O 572.655 3.47148 -0.797926 0
M  V30 6125 O 571.514 5.37678 -0.978009 0
M  V30 6126 H 568.608 0.819259 -0.112886 0
M  V30 6127 H 571.154 1.40923 -0.945453 0
M  V30 6128 H 569.926 3.4228 -1.89632 0
M  V30 6129 H 569.549 3.96683 -0.269874 0
M  V30 6130 N 570.547 0.616602 1.45037 0
M  V30 6131 C 571.796 0.112861 2.01384 0
M  V30 6132 C 572.109 -1.26758 1.48969 0
M  V30 6133 O 573.315 -1.86454 1.9735 0
M  V30 6134 C 571.771 0.151057 3.59583 0
M  V30 6135 C 571.379 1.53191 4.20995 0
M  V30 6136 C 573.123 -0.296974 4.2346 0
M  V30 6137 C 571.03 1.526 5.71373 0
M  V30 6138 H 569.96 0.0384254 0.75302 0
M  V30 6139 H 572.611 0.773262 1.66412 0
M  V30 6140 H 570.993 -0.57617 3.91786 0
M  V30 6141 H 572.167 2.28156 4.00352 0
M  V30 6142 H 570.482 1.92279 3.69348 0
M  V30 6143 H 573.079 -0.320712 5.33737 0
M  V30 6144 H 573.422 -1.32145 3.9477 0
M  V30 6145 H 573.955 0.377279 3.96007 0
M  V30 6146 H 570.694 2.52837 6.04776 0
M  V30 6147 H 570.214 0.819064 5.94181 0
M  V30 6148 H 571.893 1.25357 6.3474 0
M  V30 6149 N 572.025 -1.5352 0.356285 0
M  V30 6150 C 572.988 -2.24071 -0.482182 0
M  V30 6151 C 573.988 -1.24531 -1.01729 0
M  V30 6152 O 575.178 -1.48876 -0.904513 0
M  V30 6153 C 572.31 -2.97025 -1.67299 0
M  V30 6154 H 573.503 -2.99596 0.135031 0
M  V30 6155 H 571.056 -1.55928 0.107825 0
M  V30 6156 H 571.791 -2.25719 -2.32855 0
M  V30 6157 H 571.576 -3.7005 -1.29636 0
M  V30 6158 H 573.066 -3.50683 -2.26741 0
M  V30 6159 N 573.503 -0.0852151 -1.57369 0
M  V30 6160 C 574.749 0.581666 -1.94279 0
M  V30 6161 C 575.082 1.68444 -0.966446 0
M  V30 6162 O 574.357 1.945 0.00215277 0
M  V30 6163 C 574.64 1.14609 -3.41375 0
M  V30 6164 C 574.493 0.0490414 -4.49773 0
M  V30 6165 C 575.812 2.04751 -3.8957 0
M  V30 6166 H 572.931 0.209972 -0.706456 0
M  V30 6167 H 575.573 -0.153915 -1.89376 0
M  V30 6168 H 573.723 1.77297 -3.45685 0
M  V30 6169 H 575.395 -0.584721 -4.57579 0
M  V30 6170 H 573.638 -0.618638 -4.29366 0
M  V30 6171 H 574.309 0.484601 -5.49869 0
M  V30 6172 H 576.785 1.51981 -3.87351 0
M  V30 6173 H 575.661 2.41173 -4.93079 0
M  V30 6174 H 575.922 2.96107 -3.28288 0
M  V30 6175 N 574.981 1.5647 0.188427 0
M  V30 6176 C 575.891 1.98285 1.2538 0
M  V30 6177 C 576.907 0.891535 1.49424 0
M  V30 6178 O 578.083 1.19782 1.61908 0
M  V30 6179 C 575.148 2.31965 2.57669 0
M  V30 6180 C 574.209 3.54838 2.41638 0
M  V30 6181 C 573.442 3.86901 3.67618 0
M  V30 6182 O 573.665 3.20163 4.72072 0
M  V30 6183 O 572.599 4.80309 3.62749 0
M  V30 6184 H 576.425 2.89145 0.928912 0
M  V30 6185 H 574.01 1.44112 0.393955 0
M  V30 6186 H 575.892 2.54673 3.35737 0
M  V30 6187 H 574.567 1.44271 2.89771 0
M  V30 6188 H 573.474 3.37369 1.61658 0
M  V30 6189 H 574.807 4.43019 2.14465 0
M  V30 6190 N 576.459 -0.456382 1.50847 0
M  V30 6191 C 577.705 -1.20618 1.63777 0
M  V30 6192 C 578.06 -1.8936 0.340677 0
M  V30 6193 O 577.353 -1.79786 -0.662378 0
M  V30 6194 C 577.547 -2.26336 2.76599 0
M  V30 6195 C 577.376 -1.67968 4.17153 0
M  V30 6196 C 576.146 -1.47293 4.83356 0
M  V30 6197 C 578.344 -1.16643 5.00898 0
M  V30 6198 N 576.326 -0.843222 6.08081 0
M  V30 6199 C 577.697 -0.660843 6.16468 0
M  V30 6200 C 579.752 -1.05637 4.86565 0
M  V30 6201 C 578.455 -0.0560365 7.19278 0
M  V30 6202 C 580.481 -0.465485 5.89565 0
M  V30 6203 C 579.843 0.0296516 7.04394 0
M  V30 6204 H 575.942 -0.429725 0.653345 0
M  V30 6205 H 578.526 -0.505784 1.88016 0
M  V30 6206 H 576.697 -2.93785 2.54056 0
M  V30 6207 H 578.429 -2.9334 2.78808 0
M  V30 6208 H 575.184 -1.72934 4.40898 0
M  V30 6209 H 575.608 -0.546357 6.74792 0
M  V30 6210 H 580.25 -1.42508 3.98059 0
M  V30 6211 H 577.968 0.324845 8.07447 0
M  V30 6212 H 581.554 -0.382493 5.80541 0
M  V30 6213 H 580.434 0.479705 7.82731 0
M  V30 6214 N 577.937 -1.40673 -0.710563 0
M  V30 6215 C 578.847 -1.43663 -1.85467 0
M  V30 6216 C 579.863 -0.328721 -1.70867 0
M  V30 6217 O 581.039 -0.574098 -1.93044 0
M  V30 6218 C 578.104 -1.30226 -3.21313 0
M  V30 6219 C 577.165 -2.51204 -3.48131 0
M  V30 6220 C 576.398 -2.38398 -4.77495 0
M  V30 6221 O 576.621 -1.40048 -5.5294 0
M  V30 6222 O 575.555 -3.2787 -5.04762 0
M  V30 6223 H 579.381 -2.40156 -1.859 0
M  V30 6224 H 576.966 -1.22049 -0.861652 0
M  V30 6225 H 578.848 -1.2496 -4.02446 0
M  V30 6226 H 577.523 -0.368419 -3.21597 0
M  V30 6227 H 576.43 -2.62048 -2.66987 0
M  V30 6228 H 577.763 -3.43366 -3.52648 0
M  V30 6229 N 579.415 0.9433 -1.26252 0
M  V30 6230 C 580.64 1.72898 -1.14547 0
M  V30 6231 C 581.065 1.85761 0.295743 0
M  V30 6232 O 580.423 1.3463 1.21427 0
M  V30 6233 C 580.471 3.11471 -1.8171 0
M  V30 6234 O 579.575 3.97336 -1.10445 0
M  V30 6235 H 578.916 0.530555 -0.399259 0
M  V30 6236 H 581.446 1.18159 -1.67032 0
M  V30 6237 H 581.456 3.61872 -1.88449 0
M  V30 6238 H 580.131 3.01425 -2.86558 0
M  V30 6239 H 578.708 3.55788 -1.11666 0
M  V30 6240 N 580.893 1.08022 1.14757 0
M  V30 6241 C 581.841 0.701088 2.21783 0
M  V30 6242 C 582.835 -0.291311 1.66876 0
M  V30 6243 O 584.041 -0.154296 1.79337 0
M  V30 6244 H 580.416 0.208668 0.722469 0
M  V30 6245 H 582.387 1.61321 2.51034 0
M  V30 6246 C 581.136 0.122278 3.47485 0
M  V30 6247 H 580.459 0.877065 3.90061 0
M  V30 6248 H 581.899 -0.105248 4.23869 0
M  V30 6249 C 580.358 -1.13883 3.17068 0
M  V30 6250 O 580.888 -2.22429 3.34497 0
M  V30 6251 N 579.094 -1.04767 2.71058 0
M  V30 6252 H 578.641 -0.164302 2.57075 0
M  V30 6253 H 578.599 -1.89224 2.51081 0
M  V30 6254 N 582.371 -1.3172 0.865308 0
M  V30 6255 C 583.619 -1.96487 0.472995 0
M  V30 6256 C 583.94 -1.68761 -0.976975 0
M  V30 6257 O 583.21 -1.00051 -1.68424 0
M  V30 6258 H 581.79 -0.726947 0.171922 0
M  V30 6259 H 584.452 -1.60612 1.10407 0
M  V30 6260 H 583.548 -3.0574 0.62687 0
M  V30 6261 N 583.85 -0.624285 -1.44708 0
M  V30 6262 C 584.782 0.12305 -2.28869 0
M  V30 6263 C 585.795 0.81557 -1.40898 0
M  V30 6264 O 586.984 0.678162 -1.65116 0
M  V30 6265 C 584.084 1.19612 -3.1709 0
M  V30 6266 C 583.257 0.587452 -4.33437 0
M  V30 6267 C 582.316 1.55358 -5.02743 0
M  V30 6268 O 581.341 1.07338 -5.58988 0
M  V30 6269 N 582.543 2.88798 -5.03563 0
M  V30 6270 H 585.308 -0.599193 -2.93649 0
M  V30 6271 H 582.87 -0.464954 -1.5508 0
M  V30 6272 H 584.861 1.84261 -3.60319 0
M  V30 6273 H 583.432 1.82067 -2.54107 0
M  V30 6274 H 582.652 -0.237509 -3.93484 0
M  V30 6275 H 583.94 0.161326 -5.08544 0
M  V30 6276 H 583.338 3.30399 -4.59188 0
M  V30 6277 H 581.894 3.48826 -5.50603 0
M  V30 6278 N 585.328 1.53329 -0.364422 0
M  V30 6279 C 586.739 1.86345 0.115039 0
M  V30 6280 C 587.09 1.28505 1.4826 0
M  V30 6281 O 586.215 0.606639 2.07723 0
M  V30 6282 C 586.81 3.38114 0.215522 0
M  V30 6283 C 585.369 3.70932 0.639237 0
M  V30 6284 C 584.516 2.76471 -0.214261 0
M  V30 6285 H 587.467 1.47593 -0.583258 0
M  V30 6286 H 587.488 3.66031 1.0393 0
M  V30 6287 H 587 3.80182 -0.779948 0
M  V30 6288 H 585.101 3.3442 1.64298 0
M  V30 6289 H 585.214 4.77302 0.41465 0
M  V30 6290 H 583.578 2.52724 0.316678 0
M  V30 6291 H 584.361 3.21373 -1.20725 0
M  V30 6292 N 586.806 0.0935595 1.57322 0
M  V30 6293 C 587.716 -0.880192 2.17462 0
M  V30 6294 C 588.732 -1.31135 1.14366 0
M  V30 6295 O 589.908 -1.37958 1.46729 0
M  V30 6296 C 586.973 -2.12184 2.74188 0
M  V30 6297 C 586.034 -1.74503 3.92234 0
M  V30 6298 C 585.267 -2.92748 4.46245 0
M  V30 6299 O 585.49 -4.07427 3.99198 0
M  V30 6300 O 584.424 -2.71303 5.37288 0
M  V30 6301 H 588.25 -0.398516 3.01074 0
M  V30 6302 H 585.835 -0.130707 1.48827 0
M  V30 6303 H 587.717 -2.84953 3.10451 0
M  V30 6304 H 586.392 -2.59407 1.93623 0
M  V30 6305 H 585.299 -0.989186 3.60785 0
M  V30 6306 H 586.632 -1.32044 4.74157 0
M  V30 6307 N 588.284 -1.56567 -0.180126 0
M  V30 6308 C 589.232 -1.96632 -1.24251 0
M  V30 6309 C 590.226 -0.853818 -1.46309 0
M  V30 6310 O 591.432 -1.0389 -1.46993 0
M  V30 6311 H 587.807 -0.625476 -0.417473 0
M  V30 6312 H 589.778 -2.85201 -0.877679 0
M  V30 6313 C 588.527 -2.33486 -2.57642 0
M  V30 6314 H 587.85 -3.18626 -2.4149 0
M  V30 6315 H 589.29 -2.65371 -3.30688 0
M  V30 6316 C 587.749 -1.17499 -3.15746 0
M  V30 6317 O 588.279 -0.457956 -3.99081 0
M  V30 6318 N 586.485 -0.94786 -2.74707 0
M  V30 6319 H 586.032 -1.53269 -2.07042 0
M  V30 6320 H 585.99 -0.173626 -3.1392 0
M  V30 6321 N 589.762 0.448376 -1.51087 0
M  V30 6322 C 590.71 1.56407 -1.72161 0
M  V30 6323 C 591.704 1.58878 -0.587721 0
M  V30 6324 O 592.91 1.62755 -0.768822 0
M  V30 6325 H 589.285 0.519423 -0.543786 0
M  V30 6326 H 591.256 1.35803 -2.65707 0
M  V30 6327 C 590.005 2.94163 -1.85373 0
M  V30 6328 H 589.328 2.9299 -2.72024 0
M  V30 6329 H 590.768 3.71625 -2.04135 0
M  V30 6330 C 589.227 3.31317 -0.610803 0
M  V30 6331 O 589.757 4.00985 0.239636 0
M  V30 6332 N 587.963 2.86966 -0.458127 0
M  V30 6333 H 587.51 2.30443 -1.15124 0
M  V30 6334 H 587.468 3.12188 0.372289 0
M  V30 6335 N 591.24 1.41047 0.703093 0
M  V30 6336 C 592.47 1.43133 1.48985 0
M  V30 6337 C 592.878 0.0328537 1.89171 0
M  V30 6338 O 592.221 -0.956469 1.56835 0
M  V30 6339 C 592.283 2.26991 2.78775 0
M  V30 6340 C 591.947 3.7525 2.60837 0
M  V30 6341 C 592.944 4.67591 2.27276 0
M  V30 6342 C 590.629 4.19208 2.76712 0
M  V30 6343 C 592.623 6.01877 2.09817 0
M  V30 6344 C 590.31 5.53561 2.5887 0
M  V30 6345 C 591.308 6.4471 2.25472 0
M  V30 6346 O 590.996 7.76584 2.07778 0
M  V30 6347 H 590.728 0.489788 0.465922 0
M  V30 6348 H 593.282 1.85886 0.873822 0
M  V30 6349 H 591.512 1.79038 3.42757 0
M  V30 6350 H 593.201 2.20867 3.40547 0
M  V30 6351 H 593.967 4.34923 2.14633 0
M  V30 6352 H 589.846 3.48572 3.01693 0
M  V30 6353 H 593.39 6.72986 1.83671 0
M  V30 6354 H 589.287 5.85811 2.71102 0
M  V30 6355 H 590.055 7.87649 2.22601 0
M  V30 6356 N 592.718 -0.936591 1.26751 0
M  V30 6357 C 593.665 -2.03597 1.08706 0
M  V30 6358 C 594.635 -1.66097 -0.00926542 0
M  V30 6359 O 595.82 -1.90199 0.151377 0
M  V30 6360 C 592.96 -3.3727 0.73094 0
M  V30 6361 C 592.073 -3.87778 1.90399 0
M  V30 6362 C 591.208 -5.09859 1.49056 0
M  V30 6363 C 590.247 -5.5264 2.63164 0
M  V30 6364 N 589.384 -6.65921 2.22471 0
M  V30 6365 H 594.224 -2.18364 2.02784 0
M  V30 6366 H 591.761 -1.06985 1.00958 0
M  V30 6367 H 593.719 -4.14128 0.505328 0
M  V30 6368 H 592.349 -3.22337 -0.172868 0
M  V30 6369 H 591.401 -3.07279 2.2424 0
M  V30 6370 H 592.713 -4.15464 2.76028 0
M  V30 6371 H 591.867 -5.9419 1.22567 0
M  V30 6372 H 590.606 -4.8393 0.60524 0
M  V30 6373 H 589.611 -4.66863 2.90377 0
M  V30 6374 H 590.836 -5.80568 3.52303 0
M  V30 6375 H 588.782 -6.41667 1.36379 0
M  V30 6376 H 588.699 -6.93216 3.01641 0
M  V30 6377 H 589.967 -7.53616 1.99205 0
M  V30 6378 N 594.196 -1.08629 -1.14182 0
M  V30 6379 C 595.424 -0.838889 -1.8913 0
M  V30 6380 C 595.839 0.609153 -1.78703 0
M  V30 6381 O 595.196 1.41876 -1.14794 0
M  V30 6382 C 595.247 -1.25477 -3.39025 0
M  V30 6383 O 594.968 -2.64601 -3.49167 0
M  V30 6384 C 596.469 -1.03856 -4.30963 0
M  V30 6385 H 593.689 -0.302377 -0.599007 0
M  V30 6386 H 596.233 -1.44615 -1.44592 0
M  V30 6387 H 594.388 -0.691571 -3.81177 0
M  V30 6388 H 594.802 -2.81922 -4.42289 0
M  V30 6389 H 596.276 -1.37892 -5.345 0
M  V30 6390 H 596.753 0.0242522 -4.39193 0
M  V30 6391 H 597.359 -1.58731 -3.94569 0
M  V30 6392 N 595.674 1.31259 -0.872281 0
M  V30 6393 C 596.902 2.00795 -0.498907 0
M  V30 6394 C 597.317 1.65464 0.909238 0
M  V30 6395 O 596.674 0.885073 1.59602 0
M  V30 6396 C 596.725 3.55625 -0.649092 0
M  V30 6397 O 596.446 3.89692 -2.00179 0
M  V30 6398 C 597.947 4.42434 -0.277034 0
M  V30 6399 H 595.167 0.642299 -0.194145 0
M  V30 6400 H 597.711 1.67438 -1.17408 0
M  V30 6401 H 595.866 3.87394 -0.0214402 0
M  V30 6402 H 596.28 4.84407 -2.01122 0
M  V30 6403 H 597.754 5.50299 -0.433064 0
M  V30 6404 H 598.231 4.32146 0.783989 0
M  V30 6405 H 598.837 4.16086 -0.880483 0
M  V30 6406 N 597.152 0.631951 1.44375 0
M  V30 6407 C 598.563 0.219036 1.85411 0
M  V30 6408 C 598.914 -1.22974 1.52879 0
M  V30 6409 O 598.039 -1.93579 0.967266 0
M  V30 6410 C 598.634 0.39075 3.36539 0
M  V30 6411 C 597.193 0.0323351 3.76386 0
M  V30 6412 C 596.34 0.703744 2.68221 0
M  V30 6413 H 599.291 0.837056 1.3483 0
M  V30 6414 H 599.312 -0.370056 3.78696 0
M  V30 6415 H 598.824 1.44527 3.60185 0
M  V30 6416 H 596.925 -1.02042 3.58355 0
M  V30 6417 H 597.038 0.442969 4.77048 0
M  V30 6418 H 595.402 0.138974 2.54321 0
M  V30 6419 H 596.185 1.76088 2.947 0
M  V30 6420 N 598.631 -1.53133 0.372548 0
M  V30 6421 C 600.042 -1.86404 -0.105155 0
M  V30 6422 C 600.393 -1.29289 -1.47576 0
M  V30 6423 O 599.518 -0.617646 -2.07398 0
M  V30 6424 C 600.113 -3.38223 -0.197588 0
M  V30 6425 C 598.672 -3.71266 -0.619556 0
M  V30 6426 C 597.819 -2.76353 0.228919 0
M  V30 6427 H 600.77 -1.47282 0.591077 0
M  V30 6428 H 600.791 -3.66577 -1.01987 0
M  V30 6429 H 600.303 -3.79763 0.800099 0
M  V30 6430 H 598.404 -3.35287 -1.62522 0
M  V30 6431 H 598.517 -4.77515 -0.389332 0
M  V30 6432 H 596.881 -2.52888 -0.303271 0
M  V30 6433 H 597.664 -3.20728 1.22428 0
M  V30 6434 N 600.109 -0.101901 -1.5727 0
M  V30 6435 C 601.355 0.561027 -1.94885 0
M  V30 6436 C 601.688 1.6741 -0.984258 0
M  V30 6437 O 600.963 1.94491 -0.0184767 0
M  V30 6438 C 601.246 1.10982 -3.42571 0
M  V30 6439 C 601.099 0.00133418 -4.498 0
M  V30 6440 C 602.418 2.00608 -3.9172 0
M  V30 6441 H 599.537 0.202467 -0.708644 0
M  V30 6442 H 602.179 -0.173992 -1.89202 0
M  V30 6443 H 600.329 1.73621 -3.47546 0
M  V30 6444 H 602.001 -0.63322 -4.56933 0
M  V30 6445 H 600.244 -0.664143 -4.28686 0
M  V30 6446 H 600.915 0.426253 -5.50352 0
M  V30 6447 H 603.391 1.47864 -3.88941 0
M  V30 6448 H 602.267 2.3593 -4.95609 0
M  V30 6449 H 602.528 2.92608 -3.3141 0
M  V30 6450 N 601.587 1.56661 0.17182 0
M  V30 6451 C 602.517 1.99401 1.21498 0
M  V30 6452 C 603.498 0.869516 1.46197 0
M  V30 6453 O 604.683 1.13556 1.57539 0
M  V30 6454 C 601.813 2.35346 2.55401 0
M  V30 6455 C 600.767 3.5075 2.45272 0
M  V30 6456 C 600.093 3.72437 3.8366 0
M  V30 6457 C 601.393 4.84216 1.95787 0
M  V30 6458 H 603.087 2.86792 0.859699 0
M  V30 6459 H 600.633 1.37977 0.412103 0
M  V30 6460 H 602.586 2.63843 3.2858 0
M  V30 6461 H 601.31 1.44864 2.92715 0
M  V30 6462 H 599.969 3.2238 1.74547 0
M  V30 6463 H 599.617 2.79246 4.18367 0
M  V30 6464 H 599.317 4.50087 3.77751 0
M  V30 6465 H 600.841 4.03334 4.58426 0
M  V30 6466 H 602.255 5.11592 2.5874 0
M  V30 6467 H 600.652 5.65498 2.00827 0
M  V30 6468 H 601.722 4.76243 0.912159 0
M  V30 6469 N 603.065 -0.440357 1.51323 0
M  V30 6470 C 604.342 -1.20109 1.5438 0
M  V30 6471 C 604.722 -2.08866 0.306303 0
M  V30 6472 O 604.07 -2.1723 -0.708773 0
M  V30 6473 C 604.28 -2.00555 2.8562 0
M  V30 6474 C 605.628 -2.577 3.37455 0
M  V30 6475 O 606.652 -2.10769 2.8715 0
M  V30 6476 O 605.511 -3.43289 4.25224 0
M  V30 6477 H 602.605 -0.546668 0.620551 0
M  V30 6478 H 605.151 -0.449672 1.63634 0
M  V30 6479 H 603.923 -1.35346 3.67147 0
M  V30 6480 H 603.546 -2.82768 2.79514 0
M  V30 6481 N 604.543 -1.41418 -0.695603 0
M  V30 6482 C 605.768 -1.44329 -1.48942 0
M  V30 6483 C 606.193 -0.0501579 -1.88033 0
M  V30 6484 O 605.551 0.946598 -1.54626 0
M  V30 6485 C 605.599 -2.3578 -2.72837 0
M  V30 6486 O 604.703 -1.81482 -3.70322 0
M  V30 6487 H 604.044 -0.489838 -0.44828 0
M  V30 6488 H 606.574 -1.85878 -0.855014 0
M  V30 6489 H 606.584 -2.51654 -3.21145 0
M  V30 6490 H 605.259 -3.37005 -2.43722 0
M  V30 6491 H 603.836 -1.75058 -3.29255 0
M  V30 6492 N 606.021 0.929856 -1.27246 0
M  V30 6493 C 607.298 1.65544 -1.04186 0
M  V30 6494 C 607.678 2.06796 0.424097 0
M  V30 6495 O 607.026 1.80053 1.40688 0
M  V30 6496 C 607.236 2.85912 -2.00138 0
M  V30 6497 C 608.584 3.57305 -2.29387 0
M  V30 6498 O 609.608 2.96036 -1.98094 0
M  V30 6499 O 608.467 4.67688 -2.82719 0
M  V30 6500 H 605.561 0.725473 -0.397011 0
M  V30 6501 H 608.107 0.980583 -1.38501 0
M  V30 6502 H 606.879 2.52403 -2.99013 0
M  V30 6503 H 606.502 3.61118 -1.66371 0
M  V30 6504 N 607.499 1.09233 1.13605 0
M  V30 6505 C 608.747 0.825525 1.84471 0
M  V30 6506 C 609.068 -0.650702 1.83823 0
M  V30 6507 O 608.338 -1.47204 1.29259 0
M  V30 6508 H 606.918 0.3024 0.683054 0
M  V30 6509 H 609.58 1.38006 1.37624 0
M  V30 6510 H 608.676 1.17727 2.89045 0
M  V30 6511 N 608.977 -1.30795 0.87923 0
M  V30 6512 C 610.202 -2.01063 0.508769 0
M  V30 6513 C 610.627 -1.65508 -0.893803 0
M  V30 6514 O 609.985 -0.868616 -1.59138 0
M  V30 6515 C 610.033 -3.54054 0.683991 0
M  V30 6516 O 609.137 -4.11498 -0.272654 0
M  V30 6517 H 608.478 -0.632786 0.201191 0
M  V30 6518 H 611.008 -1.66776 1.18519 0
M  V30 6519 H 611.018 -4.03845 0.580798 0
M  V30 6520 H 609.693 -3.79271 1.70665 0
M  V30 6521 H 608.27 -3.72695 -0.12364 0
M  V30 6522 N 610.455 -0.639598 -1.44038 0
M  V30 6523 C 611.702 -0.14748 -2.01962 0
M  V30 6524 C 612.03 1.23372 -1.50365 0
M  V30 6525 O 611.285 1.8345 -0.681501 0
M  V30 6526 C 611.584 -0.0925348 -3.5728 0
M  V30 6527 C 611.25 -1.41365 -4.28167 0
M  V30 6528 C 609.912 -1.77545 -4.47248 0
M  V30 6529 C 612.264 -2.2853 -4.68427 0
M  V30 6530 C 609.592 -3.00583 -5.03852 0
M  V30 6531 C 611.944 -3.50846 -5.26393 0
M  V30 6532 C 610.608 -3.8724 -5.43692 0
M  V30 6533 H 609.878 -0.0539666 -0.739032 0
M  V30 6534 H 612.525 -0.827599 -1.72694 0
M  V30 6535 H 610.83 0.670987 -3.86012 0
M  V30 6536 H 612.527 0.304891 -3.99839 0
M  V30 6537 H 609.117 -1.1221 -4.13651 0
M  V30 6538 H 613.301 -2.0187 -4.5339 0
M  V30 6539 H 608.557 -3.28846 -5.15432 0
M  V30 6540 H 612.731 -4.18616 -5.56537 0
M  V30 6541 H 610.358 -4.8266 -5.87319 0
M  V30 6542 N 611.933 1.52934 -0.380664 0
M  V30 6543 C 613.18 2.01467 0.204278 0
M  V30 6544 C 613.508 1.26744 1.47533 0
M  V30 6545 O 612.763 0.353723 1.92477 0
M  V30 6546 C 613.062 3.5349 0.527199 0
M  V30 6547 C 612.728 4.46171 -0.651295 0
M  V30 6548 C 611.39 4.71227 -0.974619 0
M  V30 6549 C 613.742 5.00909 -1.44012 0
M  V30 6550 C 611.07 5.4827 -2.08847 0
M  V30 6551 C 613.422 5.7917 -2.5445 0
M  V30 6552 C 612.086 6.02507 -2.87301 0
M  V30 6553 H 611.356 0.73722 0.0747504 0
M  V30 6554 H 614.003 1.84411 -0.516234 0
M  V30 6555 H 612.308 3.68574 1.32892 0
M  V30 6556 H 614.005 3.88529 0.992283 0
M  V30 6557 H 610.595 4.26829 -0.389276 0
M  V30 6558 H 614.779 4.81485 -1.20357 0
M  V30 6559 H 610.035 5.64567 -2.34679 0
M  V30 6560 H 614.209 6.20588 -3.1598 0
M  V30 6561 H 611.836 6.61989 -3.7373 0
M  V30 6562 N 613.412 0.11024 1.57214 0
M  V30 6563 C 614.342 -0.840002 2.17867 0
M  V30 6564 C 615.323 -1.28352 1.11624 0
M  V30 6565 O 616.508 -1.3477 1.39824 0
M  V30 6566 C 613.638 -2.09349 2.77111 0
M  V30 6567 C 612.592 -1.78807 3.8886 0
M  V30 6568 C 611.918 -3.11112 4.34872 0
M  V30 6569 C 613.218 -1.0632 5.11364 0
M  V30 6570 H 614.912 -0.334608 2.97524 0
M  V30 6571 H 612.458 -0.159502 1.43114 0
M  V30 6572 H 614.411 -2.76275 3.18198 0
M  V30 6573 H 613.135 -2.62198 1.9473 0
M  V30 6574 H 611.794 -1.14273 3.48335 0
M  V30 6575 H 611.442 -3.61877 3.49362 0
M  V30 6576 H 611.142 -2.91453 5.10224 0
M  V30 6577 H 612.666 -3.79171 4.78604 0
M  V30 6578 H 614.08 -1.63383 5.49526 0
M  V30 6579 H 612.477 -0.967876 5.92243 0
M  V30 6580 H 613.547 -0.0484569 4.84876 0
M  V30 6581 N 614.89 -1.56749 -0.16351 0
M  V30 6582 C 616.12 -1.86307 -0.892936 0
M  V30 6583 C 616.528 -0.6945 -1.75992 0
M  V30 6584 O 615.871 0.345384 -1.80424 0
M  V30 6585 C 615.933 -3.10372 -1.81409 0
M  V30 6586 C 615.597 -4.42913 -1.12593 0
M  V30 6587 C 616.594 -5.17608 -0.487661 0
M  V30 6588 C 614.279 -4.89646 -1.12035 0
M  V30 6589 C 616.273 -6.3723 0.14699 0
M  V30 6590 C 613.96 -6.09197 -0.481883 0
M  V30 6591 C 614.958 -6.82834 0.150678 0
M  V30 6592 O 614.646 -8.00116 0.779065 0
M  V30 6593 H 614.378 -0.622126 -0.264452 0
M  V30 6594 H 616.932 -2.04728 -0.166063 0
M  V30 6595 H 615.162 -2.87917 -2.58148 0
M  V30 6596 H 616.851 -3.26312 -2.41403 0
M  V30 6597 H 617.617 -4.8258 -0.483888 0
M  V30 6598 H 613.496 -4.32265 -1.60212 0
M  V30 6599 H 617.04 -6.94646 0.641325 0
M  V30 6600 H 612.937 -6.43688 -0.483266 0
M  V30 6601 H 613.705 -8.15678 0.679089 0
M  V30 6602 N 616.368 0.432326 -1.51554 0
M  V30 6603 C 617.593 1.20824 -1.68571 0
M  V30 6604 C 618.018 1.84126 -0.384596 0
M  V30 6605 O 617.376 1.69025 0.655751 0
M  V30 6606 C 617.424 2.26429 -2.80646 0
M  V30 6607 O 616.528 3.32032 -2.44598 0
M  V30 6608 H 615.869 0.353765 -0.561913 0
M  V30 6609 H 618.399 0.509916 -1.98144 0
M  V30 6610 H 618.409 2.71133 -3.04878 0
M  V30 6611 H 617.084 1.79733 -3.75058 0
M  V30 6612 H 615.661 2.92769 -2.30956 0
M  V30 6613 N 617.846 1.41785 0.688094 0
M  V30 6614 C 618.793 1.44221 1.80191 0
M  V30 6615 C 619.763 0.295688 1.63447 0
M  V30 6616 O 620.948 0.49783 1.84191 0
M  V30 6617 C 618.088 1.33743 3.1813 0
M  V30 6618 C 617.201 2.58325 3.46254 0
M  V30 6619 C 616.336 2.40086 4.73848 0
M  V30 6620 C 615.375 3.60107 4.94964 0
M  V30 6621 N 614.512 3.40892 6.13789 0
M  V30 6622 H 619.352 2.39411 1.77444 0
M  V30 6623 H 616.889 1.18876 0.866423 0
M  V30 6624 H 618.847 1.25669 3.97823 0
M  V30 6625 H 617.477 0.42157 3.20035 0
M  V30 6626 H 616.529 2.7682 2.60912 0
M  V30 6627 H 617.841 3.4758 3.57756 0
M  V30 6628 H 616.995 2.29522 5.61609 0
M  V30 6629 H 615.734 1.483 4.64606 0
M  V30 6630 H 614.739 3.71118 4.05649 0
M  V30 6631 H 615.964 4.52857 5.06061 0
M  V30 6632 H 613.91 2.51812 6.05745 0
M  V30 6633 H 613.827 4.23727 6.26092 0
M  V30 6634 H 615.095 3.34114 7.04264 0
M  V30 6635 N 619.324 -0.923095 1.27737 0
M  V30 6636 C 620.254 -2.04124 1.13383 0
M  V30 6637 C 621.235 -1.70066 0.0340658 0
M  V30 6638 O 622.42 -1.93068 0.209383 0
M  V30 6639 C 619.55 -3.3831 0.785097 0
M  V30 6640 C 618.504 -3.86496 1.8386 0
M  V30 6641 C 617.83 -5.1754 1.34373 0
M  V30 6642 C 619.13 -4.09381 3.24353 0
M  V30 6643 H 620.824 -2.1639 2.06919 0
M  V30 6644 H 618.37 -1.03976 0.996243 0
M  V30 6645 H 620.323 -4.16016 0.671485 0
M  V30 6646 H 619.047 -3.2607 -0.185969 0
M  V30 6647 H 617.706 -3.10987 1.9412 0
M  V30 6648 H 617.354 -5.01696 0.361989 0
M  V30 6649 H 617.054 -5.50751 2.04811 0
M  V30 6650 H 618.578 -5.97811 1.24315 0
M  V30 6651 H 619.992 -4.77641 3.17067 0
M  V30 6652 H 618.389 -4.53906 3.92542 0
M  V30 6653 H 619.459 -3.14515 3.69064 0
M  V30 6654 N 620.802 -1.09834 -1.13024 0
M  V30 6655 C 622.03 -0.858902 -1.8823 0
M  V30 6656 C 622.445 0.590164 -1.79339 0
M  V30 6657 O 621.802 1.4065 -1.16292 0
M  V30 6658 C 621.853 -1.29066 -3.37675 0
M  V30 6659 O 621.574 -2.6829 -3.46341 0
M  V30 6660 C 623.075 -1.08421 -4.29837 0
M  V30 6661 H 620.295 -0.308713 -0.595766 0
M  V30 6662 H 622.839 -1.4614 -1.4305 0
M  V30 6663 H 620.994 -0.731961 -3.80422 0
M  V30 6664 H 621.408 -2.86598 -4.39274 0
M  V30 6665 H 622.882 -1.43553 -5.33007 0
M  V30 6666 H 623.359 -0.0223315 -4.39194 0
M  V30 6667 H 623.965 -1.62907 -3.92863 0
M  V30 6668 N 622.28 1.30327 -0.886154 0
M  V30 6669 C 623.526 1.96388 -0.505941 0
M  V30 6670 C 623.859 1.69784 0.942712 0
M  V30 6671 O 623.134 1.00322 1.6663 0
M  V30 6672 C 623.417 3.51488 -0.782826 0
M  V30 6673 C 623.27 3.87603 -2.28219 0
M  V30 6674 C 624.589 4.39331 -0.260128 0
M  V30 6675 H 621.708 0.713327 -0.185292 0
M  V30 6676 H 624.35 1.54178 -1.11036 0
M  V30 6677 H 622.5 3.87572 -0.268399 0
M  V30 6678 H 624.172 3.61537 -2.86512 0
M  V30 6679 H 622.415 3.3563 -2.74837 0
M  V30 6680 H 623.086 4.95806 -2.42653 0
M  V30 6681 H 625.562 4.10162 -0.700444 0
M  V30 6682 H 624.438 5.46769 -0.483179 0
M  V30 6683 H 624.699 4.34072 0.838674 0
M  V30 6684 N 623.758 0.647228 1.43697 0
M  V30 6685 C 625.035 0.0883758 1.954 0
M  V30 6686 C 625.415 -1.39006 1.58873 0
M  V30 6687 O 624.763 -2.11255 0.87083 0
M  V30 6688 C 624.973 0.328263 3.47453 0
M  V30 6689 C 626.321 0.230009 4.23977 0
M  V30 6690 O 627.345 0.260496 3.55246 0
M  V30 6691 O 626.204 0.148615 5.46298 0
M  V30 6692 H 623.298 -0.0130683 0.826897 0
M  V30 6693 H 625.844 0.72005 1.53666 0
M  V30 6694 H 624.616 1.3535 3.67146 0
M  V30 6695 H 624.239 -0.336772 3.96171 0
M  V30 6696 N 625.236 -1.5273 0.388769 0
M  V30 6697 C 626.183 -2.26437 -0.446639 0
M  V30 6698 C 627.153 -1.28025 -1.05824 0
M  V30 6699 O 628.338 -1.56852 -1.08637 0
M  V30 6700 C 625.478 -3.07407 -1.56828 0
M  V30 6701 C 624.591 -4.20747 -0.979589 0
M  V30 6702 C 623.726 -4.89113 -2.07224 0
M  V30 6703 C 622.765 -5.94447 -1.45942 0
M  V30 6704 N 621.902 -6.56411 -2.49135 0
M  V30 6705 H 626.742 -2.97404 0.18837 0
M  V30 6706 H 624.279 -1.46727 0.104725 0
M  V30 6707 H 626.237 -3.52642 -2.22934 0
M  V30 6708 H 624.867 -2.3865 -2.17361 0
M  V30 6709 H 623.919 -3.7983 -0.208151 0
M  V30 6710 H 625.231 -4.9637 -0.491747 0
M  V30 6711 H 624.385 -5.3765 -2.81101 0
M  V30 6712 H 623.124 -4.13013 -2.59368 0
M  V30 6713 H 622.129 -5.4525 -0.705894 0
M  V30 6714 H 623.354 -6.7248 -0.945932 0
M  V30 6715 H 621.3 -5.83152 -3.00449 0
M  V30 6716 H 621.217 -7.27645 -2.05105 0
M  V30 6717 H 622.485 -7.09592 -3.22644 0
M  V30 6718 N 626.714 -0.118576 -1.57153 0
M  V30 6719 C 627.939 0.550582 -1.99958 0
M  V30 6720 C 628.364 1.59458 -0.997736 0
M  V30 6721 O 627.722 1.81274 0.0306269 0
M  V30 6722 C 627.77 1.15379 -3.41643 0
M  V30 6723 O 626.874 2.26932 -3.44348 0
M  V30 6724 H 626.215 0.137567 -0.649593 0
M  V30 6725 H 628.745 -0.206926 -2.03551 0
M  V30 6726 H 628.755 1.48942 -3.79843 0
M  V30 6727 H 627.43 0.389087 -4.14076 0
M  V30 6728 H 626.007 1.94812 -3.17967 0
M  V30 6729 N 628.193 1.56834 0.155195 0
M  V30 6730 C 629.609 1.51315 0.50755 0
M  V30 6731 C 629.809 0.825614 1.83809 0
M  V30 6732 O 628.865 0.39271 2.49427 0
M  V30 6733 C 630.178 2.96074 0.52542 0
M  V30 6734 C 631.726 3.06968 0.611505 0
M  V30 6735 C 632.201 4.53218 0.660115 0
M  V30 6736 N 633.692 4.5753 0.722564 0
M  V30 6737 C 634.427 5.68056 0.781023 0
M  V30 6738 N 633.923 6.88173 0.799327 0
M  V30 6739 N 635.716 5.56068 0.821278 0
M  V30 6740 H 627.867 1.9993 -0.717063 0
M  V30 6741 H 630.13 0.911507 -0.260496 0
M  V30 6742 H 629.836 3.49599 -0.383875 0
M  V30 6743 H 629.71 3.51587 1.36624 0
M  V30 6744 H 632.097 2.53468 1.51122 0
M  V30 6745 H 632.178 2.54513 -0.256306 0
M  V30 6746 H 631.822 5.07354 -0.23541 0
M  V30 6747 H 631.752 5.03447 1.5443 0
M  V30 6748 H 634.243 3.71054 0.716049 0
M  V30 6749 H 634.556 7.6816 0.845553 0
M  V30 6750 H 632.901 6.90751 0.767337 0
M  V30 6751 H 636.092 4.61142 0.804091 0
M  V30 6752 H 636.265 6.42223 0.863372 0
M  V30 6753 N 629.671 -0.424282 1.51781 0
M  V30 6754 C 630.917 -1.17117 1.66298 0
M  V30 6755 C 631.272 -1.88595 0.380767 0
M  V30 6756 O 630.565 -1.81151 -0.624094 0
M  V30 6757 C 630.759 -2.20418 2.81337 0
M  V30 6758 C 630.588 -1.59081 4.20622 0
M  V30 6759 C 629.358 -1.37007 4.86371 0
M  V30 6760 C 631.556 -1.05992 5.0326 0
M  V30 6761 N 629.538 -0.714049 6.09733 0
M  V30 6762 C 630.909 -0.529933 6.17731 0
M  V30 6763 C 632.964 -0.952927 4.88696 0
M  V30 6764 C 631.667 0.0965457 7.19235 0
M  V30 6765 C 633.693 -0.340325 5.9042 0
M  V30 6766 C 633.055 0.179057 7.04172 0
M  V30 6767 H 629.154 -0.41577 0.662314 0
M  V30 6768 H 631.738 -0.46579 1.89046 0
M  V30 6769 H 629.909 -2.8833 2.60231 0
M  V30 6770 H 631.641 -2.8736 2.84968 0
M  V30 6771 H 628.396 -1.63543 4.44467 0
M  V30 6772 H 628.82 -0.403101 6.75799 0
M  V30 6773 H 633.462 -1.34033 4.00993 0
M  V30 6774 H 631.18 0.496044 8.06576 0
M  V30 6775 H 634.766 -0.259266 5.81222 0
M  V30 6776 H 633.646 0.645626 7.81538 0
M  V30 6777 N 631.149 -1.42148 -0.680565 0
M  V30 6778 C 632.081 -1.41119 -1.80605 0
M  V30 6779 C 633.094 -0.311099 -1.598 0
M  V30 6780 O 634.283 -0.573813 -1.69026 0
M  V30 6781 C 631.383 -1.18204 -3.17618 0
M  V30 6782 C 630.556 -2.40537 -3.65322 0
M  V30 6783 C 629.615 -2.13254 -4.8105 0
M  V30 6784 O 628.641 -2.8641 -4.91892 0
M  V30 6785 N 629.843 -1.13208 -5.69354 0
M  V30 6786 H 632.608 -2.38128 -1.81975 0
M  V30 6787 H 630.169 -1.36953 -0.863446 0
M  V30 6788 H 632.161 -0.97878 -3.92686 0
M  V30 6789 H 630.731 -0.29738 -3.11182 0
M  V30 6790 H 629.951 -2.76468 -2.80996 0
M  V30 6791 H 631.239 -3.22012 -3.93936 0
M  V30 6792 H 630.637 -0.526893 -5.63241 0
M  V30 6793 H 629.194 -0.988699 -6.44258 0
M  V30 6794 N 632.627 0.916307 -1.28225 0
M  V30 6795 C 633.559 2.02303 -1.07732 0
M  V30 6796 C 634.572 1.62773 -0.0298421 0
M  V30 6797 O 635.761 1.76406 -0.272626 0
M  V30 6798 C 632.861 3.33282 -0.614504 0
M  V30 6799 C 632.034 4.01439 -1.73682 0
M  V30 6800 C 631.093 5.10698 -1.26781 0
M  V30 6801 O 630.119 5.34038 -1.96958 0
M  V30 6802 N 631.321 5.80355 -0.129624 0
M  V30 6803 H 634.086 2.20442 -2.03041 0
M  V30 6804 H 631.647 1.08744 -1.19943 0
M  V30 6805 H 633.639 4.03699 -0.284397 0
M  V30 6806 H 632.209 3.11633 0.245664 0
M  V30 6807 H 631.429 3.24604 -2.23665 0
M  V30 6808 H 632.717 4.43721 -2.48976 0
M  V30 6809 H 632.115 5.6386 0.455847 0
M  V30 6810 H 630.672 6.51647 0.141224 0
M  V30 6811 N 634.105 1.10431 1.1244 0
M  V30 6812 C 635.353 0.845045 1.83585 0
M  V30 6813 C 635.674 -0.631168 1.84503 0
M  V30 6814 O 634.944 -1.45825 1.30813 0
M  V30 6815 H 633.524 0.309628 0.679809 0
M  V30 6816 H 636.186 1.39458 1.36153 0
M  V30 6817 H 635.282 1.20786 2.8778 0
M  V30 6818 N 635.583 -1.29855 0.893053 0
M  V30 6819 C 636.531 -2.29867 0.355512 0
M  V30 6820 C 637.525 -1.60502 -0.541801 0
M  V30 6821 O 638.731 -1.74902 -0.425339 0
M  V30 6822 H 635.106 -0.745805 0.0963247 0
M  V30 6823 H 637.077 -2.72655 1.21252 0
M  V30 6824 C 635.826 -3.453 -0.407801 0
M  V30 6825 H 635.149 -3.98864 0.273426 0
M  V30 6826 H 636.589 -4.17334 -0.748887 0
M  V30 6827 C 635.048 -2.96051 -1.60795 0
M  V30 6828 O 635.578 -2.96763 -2.7073 0
M  V30 6829 N 633.784 -2.51963 -1.44786 0
M  V30 6830 H 633.331 -2.51583 -0.553498 0
M  V30 6831 H 633.289 -2.1937 -2.2522 0
M  V30 6832 N 637.061 -0.65484 -1.43351 0
M  V30 6833 C 638.307 -0.169142 -2.02093 0
M  V30 6834 C 638.64 1.21431 -1.51553 0
M  V30 6835 O 637.915 1.81105 -0.709317 0
M  V30 6836 C 638.198 -0.181775 -3.59641 0
M  V30 6837 C 638.051 -1.59926 -4.20409 0
M  V30 6838 C 639.37 0.480945 -4.37464 0
M  V30 6839 H 636.489 -0.0629371 -0.734308 0
M  V30 6840 H 639.131 -0.835833 -1.70628 0
M  V30 6841 H 637.281 0.385918 -3.86578 0
M  V30 6842 H 638.953 -2.21766 -4.04497 0
M  V30 6843 H 637.196 -2.14605 -3.76998 0
M  V30 6844 H 637.867 -1.55994 -5.295 0
M  V30 6845 H 640.343 -0.00208273 -4.161 0
M  V30 6846 H 639.219 0.441384 -5.47122 0
M  V30 6847 H 639.48 1.55533 -4.13838 0
M  V30 6848 N 638.539 1.52521 -0.396863 0
M  V30 6849 C 639.786 2.01672 0.182898 0
M  V30 6850 C 640.114 1.28302 1.46181 0
M  V30 6851 O 639.369 0.374118 1.92091 0
M  V30 6852 C 639.668 3.5403 0.489677 0
M  V30 6853 C 639.334 4.45456 -0.698581 0
M  V30 6854 C 637.996 4.70166 -1.02454 0
M  V30 6855 C 640.348 4.99354 -1.49316 0
M  V30 6856 C 637.676 5.46024 -2.1465 0
M  V30 6857 C 640.028 5.76439 -2.60579 0
M  V30 6858 C 638.692 5.99426 -2.93675 0
M  V30 6859 H 637.962 0.737971 0.066927 0
M  V30 6860 H 640.609 1.83853 -0.535764 0
M  V30 6861 H 638.914 3.69963 1.28976 0
M  V30 6862 H 640.611 3.8956 0.951018 0
M  V30 6863 H 637.201 4.26392 -0.434525 0
M  V30 6864 H 641.385 4.80182 -1.25457 0
M  V30 6865 H 636.641 5.62046 -2.40654 0
M  V30 6866 H 640.815 6.17202 -3.22544 0
M  V30 6867 H 638.442 6.57988 -3.80731 0
M  V30 6868 N 640.017 0.126909 1.57088 0
M  V30 6869 C 641.242 -0.53997 2.00248 0
M  V30 6870 C 641.667 -1.58927 1.00618 0
M  V30 6871 O 641.025 -1.81288 -0.0210131 0
M  V30 6872 C 641.073 -1.13565 3.4225 0
M  V30 6873 O 640.177 -2.25103 3.45547 0
M  V30 6874 H 639.518 -0.13412 0.650314 0
M  V30 6875 H 642.048 0.217718 2.03438 0
M  V30 6876 H 642.058 -1.46925 3.80627 0
M  V30 6877 H 640.733 -0.367122 4.14277 0
M  V30 6878 H 639.31 -1.93123 3.18995 0
M  V30 6879 N 641.495 -1.56914 -0.146875 0
M  V30 6880 C 642.735 -1.85163 -0.86568 0
M  V30 6881 C 643.099 -0.711215 -1.78342 0
M  V30 6882 O 644.3 -0.874754 -2.54168 0
M  V30 6883 C 642.571 -3.18593 -1.61967 0
M  V30 6884 S 644.13 -3.68397 -2.38388 0
M  V30 6885 H 640.948 -0.6494 -0.289483 0
M  V30 6886 H 643.55 -1.95096 -0.125679 0
M  V30 6887 H 642.254 -3.99562 -0.93694 0
M  V30 6888 H 641.785 -3.11666 -2.40058 0
M  V30 6889 H 643.8 -3.37672 -3.63582 0
M  V30 6890 N 642.974 0.416227 -1.52004 0
M  V30 6891 C 644.199 1.19029 -1.69843 0
M  V30 6892 C 644.624 1.83708 -0.404103 0
M  V30 6893 O 643.982 1.69711 0.637787 0
M  V30 6894 C 644.03 2.23439 -2.83032 0
M  V30 6895 O 643.134 3.29419 -2.48106 0
M  V30 6896 H 642.475 0.347785 -0.565634 0
M  V30 6897 H 645.005 0.488871 -1.98674 0
M  V30 6898 H 645.015 2.67884 -3.07737 0
M  V30 6899 H 643.69 1.75745 -3.76944 0
M  V30 6900 H 642.267 2.90303 -2.34048 0
M  V30 6901 N 644.452 1.42507 0.673017 0
M  V30 6902 C 645.698 1.43284 1.43519 0
M  V30 6903 C 646.031 0.049668 1.94136 0
M  V30 6904 O 645.306 -0.926369 1.71022 0
M  V30 6905 C 645.589 2.45874 2.63093 0
M  V30 6906 C 645.442 3.93388 2.18096 0
M  V30 6907 C 646.761 2.45431 3.6531 0
M  V30 6908 H 643.88 0.521752 0.520522 0
M  V30 6909 H 646.522 1.73932 0.764701 0
M  V30 6910 H 644.672 2.19869 3.20296 0
M  V30 6911 H 646.344 4.30379 1.66046 0
M  V30 6912 H 644.587 4.07169 1.49652 0
M  V30 6913 H 645.258 4.60752 3.03993 0
M  V30 6914 H 647.734 2.68561 3.17827 0
M  V30 6915 H 646.61 3.19189 4.46553 0
M  V30 6916 H 646.871 1.48092 4.16559 0
M  V30 6917 N 645.93 -0.909495 1.28709 0
M  V30 6918 C 646.863 -2.01388 1.07323 0
M  V30 6919 C 647.841 -1.62596 -0.0119757 0
M  V30 6920 O 649.025 -1.88003 0.136796 0
M  V30 6921 C 646.152 -3.32755 0.631797 0
M  V30 6922 C 645.198 -3.90532 1.71428 0
M  V30 6923 S 646.031 -4.20853 3.31124 0
M  V30 6924 C 647.187 -5.55276 2.88825 0
M  V30 6925 H 647.42 -2.19219 2.00824 0
M  V30 6926 H 644.953 -1.05489 1.12745 0
M  V30 6927 H 646.911 -4.08702 0.38381 0
M  V30 6928 H 645.572 -3.12818 -0.283451 0
M  V30 6929 H 644.765 -4.85385 1.35712 0
M  V30 6930 H 644.367 -3.21237 1.91528 0
M  V30 6931 H 646.659 -6.35341 2.3526 0
M  V30 6932 H 647.602 -5.95907 3.82492 0
M  V30 6933 H 648.01 -5.16666 2.27412 0
M  V30 6934 N 647.408 -1.11026 -1.11852 0
M  V30 6935 C 648.358 -0.733836 -2.15868 0
M  V30 6936 C 649.342 0.26001 -1.58785 0
M  V30 6937 O 650.534 0.0677901 -1.7687 0
M  V30 6938 C 647.663 -0.173948 -3.42859 0
M  V30 6939 C 646.749 -1.1952 -4.0691 0
M  V30 6940 N 647.14 -2.38797 -4.45881 0
M  V30 6941 C 645.438 -1.03714 -4.33773 0
M  V30 6942 C 646.139 -3.03894 -4.96007 0
M  V30 6943 N 645.115 -2.31389 -4.91894 0
M  V30 6944 H 648.917 -1.64171 -2.43773 0
M  V30 6945 H 646.431 -0.988877 -1.28822 0
M  V30 6946 H 648.428 0.113836 -4.16745 0
M  V30 6947 H 647.088 0.728568 -3.16421 0
M  V30 6948 H 648.099 -2.76281 -4.38051 0
M  V30 6949 H 644.776 -0.190694 -4.17064 0
M  V30 6950 H 646.166 -4.05389 -5.35826 0
M  V30 6951 N 648.886 1.2938 -0.899927 0
M  V30 6952 C 649.796 2.31462 -0.382437 0
M  V30 6953 C 650.812 1.65956 0.522929 0
M  V30 6954 O 651.988 1.97131 0.412454 0
M  V30 6955 C 649.053 3.44595 0.381472 0
M  V30 6956 C 648.114 4.25692 -0.555444 0
M  V30 6957 C 647.347 5.33422 0.172102 0
M  V30 6958 O 647.57 5.53053 1.396 0
M  V30 6959 O 646.504 5.99939 -0.485491 0
M  V30 6960 H 650.33 2.77706 -1.22934 0
M  V30 6961 H 647.915 1.33821 -0.664259 0
M  V30 6962 H 649.797 4.13474 0.813442 0
M  V30 6963 H 648.472 3.00458 1.20443 0
M  V30 6964 H 647.379 3.59453 -1.03653 0
M  V30 6965 H 648.712 4.73471 -1.34483 0
M  V30 6966 N 650.364 0.662433 1.43002 0
M  V30 6967 C 651.327 -0.0142016 2.29196 0
M  V30 6968 C 652.327 -0.741394 1.42688 0
M  V30 6969 O 653.517 -0.581257 1.64216 0
M  V30 6970 C 650.649 -1.03084 3.24941 0
M  V30 6971 H 651.842 0.7443 2.90517 0
M  V30 6972 H 649.395 0.424133 1.50435 0
M  V30 6973 H 650.13 -1.81826 2.68533 0
M  V30 6974 H 649.915 -0.512946 3.8873 0
M  V30 6975 H 651.405 -1.50308 3.89612 0
M  V30 6976 N 651.842 -1.52309 0.404946 0
M  V30 6977 C 652.772 -2.29805 -0.41376 0
M  V30 6978 C 653.753 -1.3384 -1.0498 0
M  V30 6979 O 654.938 -1.62745 -1.05961 0
M  V30 6980 C 652.068 -3.11639 -1.53292 0
M  V30 6981 C 651.022 -4.15616 -1.02211 0
M  V30 6982 C 650.348 -4.8577 -2.23455 0
M  V30 6983 C 651.648 -5.2224 -0.0790725 0
M  V30 6984 H 653.342 -2.98493 0.232878 0
M  V30 6985 H 650.888 -1.43552 0.113441 0
M  V30 6986 H 652.841 -3.64618 -2.11262 0
M  V30 6987 H 651.565 -2.40712 -2.20738 0
M  V30 6988 H 650.224 -3.63641 -0.46484 0
M  V30 6989 H 649.872 -4.11376 -2.89445 0
M  V30 6990 H 649.572 -5.56058 -1.89929 0
M  V30 6991 H 651.096 -5.4156 -2.82038 0
M  V30 6992 H 652.51 -5.70485 -0.567438 0
M  V30 6993 H 650.907 -5.99867 0.167167 0
M  V30 6994 H 651.977 -4.77078 0.867447 0
M  V30 6995 N 653.32 -0.135238 -1.57019 0
M  V30 6996 C 654.27 0.820408 -2.12728 0
M  V30 6997 C 655.254 1.21735 -1.05211 0
M  V30 6998 O 656.446 1.18574 -1.31413 0
M  V30 6999 C 653.575 2.06414 -2.74314 0
M  V30 7000 C 652.661 1.69083 -3.88937 0
M  V30 7001 N 653.052 1.0251 -4.95303 0
M  V30 7002 C 651.35 1.98434 -3.99425 0
M  V30 7003 C 652.051 0.846749 -5.75504 0
M  V30 7004 N 651.027 1.3769 -5.25873 0
M  V30 7005 H 654.829 0.302426 -2.9234 0
M  V30 7006 H 652.343 0.0667009 -1.62263 0
M  V30 7007 H 654.34 2.75863 -3.12579 0
M  V30 7008 H 653 2.58741 -1.96171 0
M  V30 7009 H 654.011 0.687207 -5.1332 0
M  V30 7010 H 650.688 2.52693 -3.32344 0
M  V30 7011 H 652.078 0.322949 -6.71123 0
M  V30 7012 N 654.798 1.5699 0.138552 0
M  V30 7013 C 655.746 1.99858 1.18994 0
M  V30 7014 C 656.74 0.89231 1.43994 0
M  V30 7015 O 657.946 1.0775 1.44187 0
M  V30 7016 H 654.321 0.636325 0.400743 0
M  V30 7017 H 656.292 2.87427 0.801755 0
M  V30 7018 C 655.041 2.40235 2.51361 0
M  V30 7019 H 654.364 3.24917 2.32957 0
M  V30 7020 H 655.804 2.74045 3.23535 0
M  V30 7021 C 654.263 1.25829 3.1252 0
M  V30 7022 O 654.793 0.563604 3.97727 0
M  V30 7023 N 652.999 1.02036 2.72097 0
M  V30 7024 H 652.546 1.58705 2.02905 0
M  V30 7025 H 652.504 0.256796 3.1335 0
M  V30 7026 N 656.276 -0.40816 1.52223 0
M  V30 7027 C 657.226 -1.49648 1.72016 0
M  V30 7028 C 658.21 -1.50311 0.574069 0
M  V30 7029 O 659.402 -1.56271 0.831173 0
M  V30 7030 C 656.531 -2.87566 1.87512 0
M  V30 7031 C 655.617 -2.91547 3.07995 0
M  V30 7032 N 656.008 -2.65225 4.30685 0
M  V30 7033 C 654.306 -3.22715 3.07849 0
M  V30 7034 C 655.007 -2.75799 5.12162 0
M  V30 7035 N 653.983 -3.08719 4.4743 0
M  V30 7036 H 657.785 -1.28093 2.64517 0
M  V30 7037 H 655.299 -0.61588 1.50269 0
M  V30 7038 H 657.296 -3.65899 1.99809 0
M  V30 7039 H 655.956 -3.10118 0.962114 0
M  V30 7040 H 656.967 -2.39601 4.59142 0
M  V30 7041 H 653.644 -3.50856 2.26289 0
M  V30 7042 H 655.034 -2.59155 6.1991 0
M  V30 7043 N 657.755 -1.42862 -0.66545 0
M  V30 7044 C 658.985 -1.47032 -1.45138 0
M  V30 7045 C 659.393 -0.0829977 -1.89018 0
M  V30 7046 O 658.736 0.914551 -1.59316 0
M  V30 7047 C 658.798 -2.34302 -2.72659 0
M  V30 7048 C 658.462 -3.82034 -2.50796 0
M  V30 7049 C 659.459 -4.73453 -2.14799 0
M  V30 7050 C 657.144 -4.26397 -2.655 0
M  V30 7051 C 659.138 -6.07228 -1.93785 0
M  V30 7052 C 656.825 -5.6023 -2.44103 0
M  V30 7053 C 657.823 -6.50462 -2.08299 0
M  V30 7054 O 657.511 -7.8182 -1.87116 0
M  V30 7055 H 657.243 -0.501969 -0.452772 0
M  V30 7056 H 659.797 -1.88137 -0.82423 0
M  V30 7057 H 658.027 -1.88063 -3.37889 0
M  V30 7058 H 659.716 -2.29818 -3.34572 0
M  V30 7059 H 660.482 -4.4046 -2.03026 0
M  V30 7060 H 656.361 -3.56448 -2.92345 0
M  V30 7061 H 659.905 -6.7762 -1.65763 0
M  V30 7062 H 655.802 -5.92793 -2.55475 0
M  V30 7063 H 656.57 -7.93274 -2.01639 0
M  V30 7064 N 659.233 0.902656 -1.29189 0
M  V30 7065 C 660.461 1.68639 -1.19869 0
M  V30 7066 C 660.876 1.87254 0.241121 0
M  V30 7067 O 660.233 1.40745 1.16177 0
M  V30 7068 C 660.284 3.07251 -1.90471 0
M  V30 7069 O 660.005 2.89488 -3.28829 0
M  V30 7070 C 661.506 4.01653 -1.8759 0
M  V30 7071 H 658.726 0.526802 -0.415596 0
M  V30 7072 H 661.27 1.12901 -1.7051 0
M  V30 7073 H 659.425 3.59774 -1.43672 0
M  V30 7074 H 659.839 3.77296 -3.64346 0
M  V30 7075 H 661.313 4.96339 -2.4156 0
M  V30 7076 H 661.79 4.30881 -0.850756 0
M  V30 7077 H 662.396 3.55061 -2.34119 0
M  V30 7078 N 660.711 1.11618 1.11262 0
M  V30 7079 C 661.643 0.734015 2.17129 0
M  V30 7080 C 662.656 -0.235243 1.61091 0
M  V30 7081 O 663.845 -0.0178597 1.78491 0
M  V30 7082 C 660.945 0.0643682 3.38839 0
M  V30 7083 C 660.118 1.06092 4.24339 0
M  V30 7084 C 659.177 0.420482 5.24517 0
M  V30 7085 O 658.203 1.07495 5.58957 0
M  V30 7086 N 659.405 -0.815828 5.74739 0
M  V30 7087 H 662.17 1.64492 2.50524 0
M  V30 7088 H 659.731 1.00664 1.26801 0
M  V30 7089 H 661.723 -0.375851 4.02951 0
M  V30 7090 H 660.293 -0.749147 3.03491 0
M  V30 7091 H 659.513 1.67903 3.56654 0
M  V30 7092 H 660.801 1.73507 4.78302 0
M  V30 7093 H 660.199 -1.36668 5.48943 0
M  V30 7094 H 658.756 -1.199 6.40677 0
M  V30 7095 N 662.189 -1.289 0.906776 0
M  V30 7096 C 663.136 -2.2751 0.388313 0
M  V30 7097 C 664.106 -1.57301 -0.533439 0
M  V30 7098 O 665.291 -1.85243 -0.457148 0
M  V30 7099 C 662.431 -3.43091 -0.37181 0
M  V30 7100 C 661.544 -4.28066 0.581647 0
M  V30 7101 C 660.679 -5.30837 -0.19623 0
M  V30 7102 C 659.718 -6.07472 0.751294 0
M  V30 7103 N 658.855 -7.021 0.00737727 0
M  V30 7104 H 663.695 -2.71237 1.23428 0
M  V30 7105 H 661.232 -1.33397 0.619962 0
M  V30 7106 H 663.19 -4.08888 -0.828641 0
M  V30 7107 H 661.82 -3.00374 -1.18218 0
M  V30 7108 H 660.872 -3.62378 1.157 0
M  V30 7109 H 662.184 -4.81382 1.30665 0
M  V30 7110 H 661.338 -6.02485 -0.71394 0
M  V30 7111 H 660.077 -4.78272 -0.954324 0
M  V30 7112 H 659.082 -5.34682 1.28044 0
M  V30 7113 H 660.307 -6.62126 1.50883 0
M  V30 7114 H 658.253 -6.51894 -0.732854 0
M  V30 7115 H 658.17 -7.53004 0.672334 0
M  V30 7116 H 659.438 -7.77956 -0.490365 0
M  V30 7117 N 663.667 -0.670007 -1.42649 0
M  V30 7118 C 664.892 -0.196955 -2.06463 0
M  V30 7119 C 665.317 1.1352 -1.49983 0
M  V30 7120 O 664.675 1.705 -0.616397 0
M  V30 7121 C 664.723 -0.137381 -3.60338 0
M  V30 7122 O 663.827 0.895523 -4.02559 0
M  V30 7123 H 663.168 -0.102579 -0.656029 0
M  V30 7124 H 665.698 -0.917669 -1.82866 0
M  V30 7125 H 665.708 0.0403625 -4.0798 0
M  V30 7126 H 664.383 -1.10977 -4.0082 0
M  V30 7127 H 662.96 0.689209 -3.66476 0
M  V30 7128 N 665.145 1.52092 -0.413018 0
M  V30 7129 C 666.075 2.30021 0.401567 0
M  V30 7130 C 667.056 1.34395 1.04269 0
M  V30 7131 O 668.241 1.63304 1.05097 0
M  V30 7132 C 665.371 3.12447 1.51638 0
M  V30 7133 C 664.325 4.16153 1.00005 0
M  V30 7134 C 663.651 4.86948 2.20875 0
M  V30 7135 C 664.951 5.22275 0.0513757 0
M  V30 7136 H 666.645 2.98365 -0.248704 0
M  V30 7137 H 664.191 1.4349 -0.121052 0
M  V30 7138 H 666.144 3.65733 2.09326 0
M  V30 7139 H 664.868 2.41879 2.19458 0
M  V30 7140 H 663.527 3.63882 0.445549 0
M  V30 7141 H 663.175 4.12905 2.8726 0
M  V30 7142 H 662.875 5.57057 1.86978 0
M  V30 7143 H 664.399 5.43048 2.79162 0
M  V30 7144 H 665.813 5.70778 0.537176 0
M  V30 7145 H 664.21 5.9977 -0.198977 0
M  V30 7146 H 665.28 4.76611 -0.892736 0
M  V30 7147 N 666.623 0.143563 1.56945 0
M  V30 7148 C 667.848 -0.518701 2.00809 0
M  V30 7149 C 668.273 -1.5785 1.02298 0
M  V30 7150 O 667.631 -1.813 -0.0017839 0
M  V30 7151 C 667.679 -1.09929 3.43436 0
M  V30 7152 O 666.783 -2.21425 3.47915 0
M  V30 7153 H 666.124 -0.127215 0.6517 0
M  V30 7154 H 668.654 0.239283 2.03196 0
M  V30 7155 H 668.664 -1.4288 3.82164 0
M  V30 7156 H 667.339 -0.323162 4.14643 0
M  V30 7157 H 665.916 -1.89728 3.21026 0
M  V30 7158 N 668.101 -1.57061 -0.130224 0
M  V30 7159 C 669.031 -2.02552 -1.16168 0
M  V30 7160 C 670.012 -0.907971 -1.4384 0
M  V30 7161 O 671.197 -1.17693 -1.54473 0
M  V30 7162 C 668.327 -2.42035 -2.49071 0
M  V30 7163 C 667.281 -3.5713 -2.35886 0
M  V30 7164 C 666.607 -3.82478 -3.7365 0
M  V30 7165 C 667.907 -4.89236 -1.8288 0
M  V30 7166 H 669.601 -2.8897 -0.783359 0
M  V30 7167 H 667.147 -1.39021 -0.375376 0
M  V30 7168 H 669.1 -2.72462 -3.21469 0
M  V30 7169 H 667.824 -1.52573 -2.88771 0
M  V30 7170 H 666.483 -3.26895 -1.65938 0
M  V30 7171 H 666.131 -2.9024 -4.10816 0
M  V30 7172 H 665.831 -4.59944 -3.65685 0
M  V30 7173 H 667.355 -4.15347 -4.47571 0
M  V30 7174 H 668.769 -5.18272 -2.45085 0
M  V30 7175 H 667.166 -5.70624 -1.85763 0
M  V30 7176 H 668.236 -4.78494 -0.785571 0
M  V30 7177 N 669.579 0.400081 -1.52437 0
M  V30 7178 C 670.804 1.17221 -1.71096 0
M  V30 7179 C 671.229 1.83269 -0.423565 0
M  V30 7180 O 670.587 1.70378 0.619751 0
M  V30 7181 C 670.635 2.20425 -2.85386 0
M  V30 7182 O 669.739 3.26769 -2.51586 0
M  V30 7183 H 669.08 0.341766 -0.569291 0
M  V30 7184 H 671.61 0.467772 -1.99181 0
M  V30 7185 H 671.62 2.64605 -3.10561 0
M  V30 7186 H 670.295 1.71737 -3.78786 0
M  V30 7187 H 668.872 2.87804 -2.37114 0
M  V30 7188 N 671.057 1.43213 0.657864 0
M  V30 7189 C 672.468 1.39669 1.23893 0
M  V30 7190 C 672.819 0.0984217 1.95953 0
M  V30 7191 O 671.944 -0.8023 2.00978 0
M  V30 7192 C 672.539 2.53004 2.25332 0
M  V30 7193 C 671.098 2.5274 2.78926 0
M  V30 7194 C 670.245 2.30941 1.53497 0
M  V30 7195 H 673.196 1.52181 0.450172 0
M  V30 7196 H 673.217 2.24226 3.07413 0
M  V30 7197 H 672.729 3.4748 1.72856 0
M  V30 7198 H 670.83 1.6213 3.35477 0
M  V30 7199 H 670.943 3.50352 3.26787 0
M  V30 7200 H 669.307 1.7952 1.80678 0
M  V30 7201 H 670.09 3.27496 1.02963 0
M  V30 7202 N 672.536 -0.895792 1.29666 0
M  V30 7203 C 673.784 -1.64339 1.17631 0
M  V30 7204 C 674.105 -1.93099 -0.271643 0
M  V30 7205 O 673.375 -1.55981 -1.18518 0
M  V30 7206 H 671.955 -0.609162 0.432354 0
M  V30 7207 H 674.617 -1.07389 1.62646 0
M  V30 7208 H 673.713 -2.59815 1.72924 0
M  V30 7209 N 674.014 -1.12206 -1.10668 0
M  V30 7210 C 674.961 -0.787716 -2.16942 0
M  V30 7211 C 675.931 0.244442 -1.64291 0
M  V30 7212 O 677.116 0.119558 -1.90425 0
M  V30 7213 C 674.256 -0.24584 -3.44223 0
M  V30 7214 C 673.369 -1.33552 -4.10838 0
M  V30 7215 C 672.504 -0.753337 -5.25831 0
M  V30 7216 C 671.543 -1.82231 -5.84344 0
M  V30 7217 N 670.68 -1.25902 -6.90719 0
M  V30 7218 H 675.52 -1.69809 -2.44885 0
M  V30 7219 H 673.057 -0.847862 -1.20207 0
M  V30 7220 H 675.015 0.0863639 -4.17111 0
M  V30 7221 H 673.645 0.627702 -3.16638 0
M  V30 7222 H 672.697 -1.78454 -3.35944 0
M  V30 7223 H 674.009 -2.14396 -4.50373 0
M  V30 7224 H 673.163 -0.37166 -6.05561 0
M  V30 7225 H 671.902 0.0863297 -4.87624 0
M  V30 7226 H 670.907 -2.2132 -5.03287 0
M  V30 7227 H 672.132 -2.66515 -6.24617 0
M  V30 7228 H 670.078 -0.44114 -6.54515 0
M  V30 7229 H 669.995 -2.00408 -7.28953 0
M  V30 7230 H 671.263 -0.904498 -7.74235 0
M  V30 7231 O 675.531 1.23095 -1.04546 0
M  V30 7232 H 676.222 1.79876 -0.718642 0
M  V30 END ATOM
M  V30 BEGIN BOND
M  V30 END BOND
M  V30 END CTAB
M  END
$$$$
