drugbank_target|P52197 Thiosulfate sulfurtransferase (DB04053)
 OpenBabel12092120023D

  0  0  0     0  0            999 V3000
M  V30 BEGIN CTAB
M  V30 COUNTS 4148 4208 0 0 0
M  V30 BEGIN ATOM
M  V30 1 H -0.908 1.98254 -0.117106 0
M  V30 2 N 0 1.576 0 0
M  V30 3 C 0.933 2.03868 1.02534 0
M  V30 4 C 1.911 0.928543 1.3348 0
M  V30 5 O 3.095 1.19667 1.45644 0
M  V30 6 C 0.222 2.43627 2.35294 0
M  V30 7 C -0.732 3.65373 2.2001 0
M  V30 8 S 0.101 5.13292 1.52614 0
M  V30 9 C 1.257 5.56322 2.86805 0
M  V30 10 H 1.49 2.90518 0.631377 0
M  V30 11 H -0.977 1.52953 0.210867 0
M  V30 12 H 0.981 2.67203 3.11629 0
M  V30 13 H -0.358 1.57376 2.7183 0
M  V30 14 H -1.165 3.90944 3.18086 0
M  V30 15 H -1.563 3.418 1.51819 0
M  V30 16 H 0.729 5.58782 3.83104 0
M  V30 17 H 1.672 6.56266 2.65933 0
M  V30 18 H 2.08 4.83886 2.90714 0
M  V30 19 N 1.4781 -0.272755 1.55222 0
M  V30 20 C 2.7551 -1.02562 1.66555 0
M  V30 21 C 3.1351 -2.04282 0.532189 0
M  V30 22 O 2.4831 -2.23662 -0.467717 0
M  V30 23 C 2.6931 -1.6822 3.05782 0
M  V30 24 C 4.0411 -2.19373 3.63539 0
M  V30 25 O 5.0651 -1.78206 3.08417 0
M  V30 26 O 3.9241 -2.94883 4.60115 0
M  V30 27 H 1.0181 -0.475755 0.676451 0
M  V30 28 H 3.5641 -0.268593 1.67561 0
M  V30 29 H 2.3361 -0.945112 3.79715 0
M  V30 30 H 1.9591 -2.50609 3.08676 0
M  V30 31 N 2.9562 -1.48159 -0.537278 0
M  V30 32 C 4.2332 -1.46291 -1.29839 0
M  V30 33 C 4.6132 -0.170613 -2.10409 0
M  V30 34 O 3.9612 0.847746 -2.12192 0
M  V30 35 C 4.1712 -2.72055 -2.18603 0
M  V30 36 C 5.5192 -3.20087 -2.7898 0
M  V30 37 O 6.5432 -2.72921 -2.28894 0
M  V30 38 O 5.4022 -4.02138 -3.70064 0
M  V30 39 H 2.4962 -0.583906 -0.585647 0
M  V30 40 H 5.0422 -1.60384 -0.554534 0
M  V30 41 H 3.8142 -3.57628 -1.58801 0
M  V30 42 H 3.4372 -2.60646 -3.00249 0
M  V30 43 N 4.4343 0.785586 -1.36625 0
M  V30 44 C 5.6813 1.54362 -1.31067 0
M  V30 45 C 6.0093 1.94195 0.10893 0
M  V30 46 O 5.2643 1.63262 1.07908 0
M  V30 47 C 5.5633 2.83007 -2.1827 0
M  V30 48 C 5.2293 2.62294 -3.6676 0
M  V30 49 C 3.8913 2.56353 -4.0723 0
M  V30 50 C 6.2433 2.43371 -4.6089 0
M  V30 51 C 3.5713 2.29461 -5.39967 0
M  V30 52 C 5.9233 2.18005 -5.93849 0
M  V30 53 C 4.5873 2.105 -6.3344 0
M  V30 54 H 3.8573 0.564851 -0.479609 0
M  V30 55 H 6.5043 0.906028 -1.68711 0
M  V30 56 H 4.8093 3.51253 -1.73576 0
M  V30 57 H 6.5063 3.40817 -2.11292 0
M  V30 58 H 3.0963 2.67774 -3.34656 0
M  V30 59 H 7.2803 2.46959 -4.30494 0
M  V30 60 H 2.5363 2.22135 -5.69619 0
M  V30 61 H 6.7103 2.02359 -6.66351 0
M  V30 62 H 4.3373 1.89425 -7.36222 0
M  V30 63 N 5.9124 1.20967 1.01018 0
M  V30 64 C 6.8754 0.965918 2.07853 0
M  V30 65 C 7.8754 -0.0610545 1.60684 0
M  V30 66 O 9.0654 0.175681 1.73312 0
M  V30 67 C 6.1974 0.455513 3.37843 0
M  V30 68 H 7.3904 1.91365 2.3091 0
M  V30 69 H 4.9434 1.02594 1.17916 0
M  V30 70 H 5.6784 -0.497381 3.20463 0
M  V30 71 H 5.4634 1.19622 3.73407 0
M  V30 72 H 6.9534 0.304667 4.16487 0
M  V30 73 N 7.3905 -1.2043 1.01659 0
M  V30 74 C 8.6155 -1.94318 0.724942 0
M  V30 75 C 9.0405 -1.74266 -0.708034 0
M  V30 76 O 8.3985 -1.03694 -1.48719 0
M  V30 77 C 8.4465 -3.44486 1.06591 0
M  V30 78 O 7.5505 -4.12017 0.177599 0
M  V30 79 H 6.8915 -0.60708 0.26898 0
M  V30 80 H 9.4215 -1.52861 1.35995 0
M  V30 81 H 9.4315 -3.95106 1.01762 0
M  V30 82 H 8.1065 -3.58404 2.10997 0
M  V30 83 H 6.6835 -3.71821 0.283421 0
M  V30 84 N 8.8686 -0.792821 -1.36206 0
M  V30 85 C 9.7986 -0.207853 -2.32573 0
M  V30 86 C 10.7796 0.659055 -1.56813 0
M  V30 87 O 11.9646 0.592176 -1.84951 0
M  V30 88 C 9.0946 0.655449 -3.41059 0
M  V30 89 C 8.0486 -0.111842 -4.27854 0
M  V30 90 C 7.3746 0.872274 -5.27537 0
M  V30 91 C 8.6746 -1.30299 -5.05786 0
M  V30 92 H 10.3686 -1.01294 -2.81744 0
M  V30 93 H 7.9146 -0.48854 -1.3546 0
M  V30 94 H 9.8676 1.07464 -4.07467 0
M  V30 95 H 8.5916 1.49328 -2.90463 0
M  V30 96 H 7.2506 -0.512053 -3.63006 0
M  V30 97 H 6.8986 1.70523 -4.73214 0
M  V30 98 H 6.5986 0.363291 -5.86476 0
M  V30 99 H 8.1226 1.28996 -5.96818 0
M  V30 100 H 9.5366 -0.959379 -5.65216 0
M  V30 101 H 7.9336 -1.7455 -5.74154 0
M  V30 102 H 9.0036 -2.09663 -4.37229 0
M  V30 103 N 10.3467 1.47872 -0.545128 0
M  V30 104 C 11.7577 1.86384 -0.108581 0
M  V30 105 C 12.1087 1.45309 1.31832 0
M  V30 106 O 11.2337 0.850641 1.9898 0
M  V30 107 C 11.8287 3.38265 -0.190274 0
M  V30 108 C 10.3877 3.75914 0.191164 0
M  V30 109 C 9.5347 2.71926 -0.543273 0
M  V30 110 H 12.4857 1.39561 -0.755537 0
M  V30 111 H 12.5067 3.75831 0.594217 0
M  V30 112 H 12.0187 3.6813 -1.2289 0
M  V30 113 H 10.1197 3.51665 1.23136 0
M  V30 114 H 10.2327 4.78836 -0.158987 0
M  V30 115 H 8.5967 2.54697 0.0122495 0
M  V30 116 H 9.3797 3.04634 -1.58282 0
M  V30 117 N 11.8248 0.280983 1.55075 0
M  V30 118 C 12.7548 -0.597469 2.25727 0
M  V30 119 C 13.7358 -1.15417 1.24952 0
M  V30 120 O 14.9208 -1.18722 1.53684 0
M  V30 121 C 12.0508 -1.7789 2.98283 0
M  V30 122 C 11.0048 -1.35347 4.06036 0
M  V30 123 C 10.3308 -2.61846 4.66198 0
M  V30 124 C 11.6308 -0.499354 5.19907 0
M  V30 125 H 13.3248 -0.00824265 2.99399 0
M  V30 126 H 10.8708 -0.0025244 1.44 0
M  V30 127 H 12.8238 -2.39937 3.46422 0
M  V30 128 H 11.5478 -2.39405 2.22155 0
M  V30 129 H 10.2068 -0.756156 3.58717 0
M  V30 130 H 9.8548 -3.21632 3.86732 0
M  V30 131 H 9.5548 -2.3409 5.38958 0
M  V30 132 H 11.0788 -3.24732 5.1709 0
M  V30 133 H 12.4928 -1.02498 5.64063 0
M  V30 134 H 10.8898 -0.316424 5.99265 0
M  V30 135 H 11.9598 0.480459 4.82514 0
M  V30 136 N 13.3029 -1.57598 0.00835791 0
M  V30 137 C 14.5489 -1.91211 -0.675732 0
M  V30 138 C 14.8819 -0.883139 -1.72958 0
M  V30 139 O 14.1569 0.097016 -1.94258 0
M  V30 140 C 14.4399 -3.35379 -1.31123 0
M  V30 141 C 14.2929 -4.48999 -0.268356 0
M  V30 142 C 15.6119 -3.7912 -2.23508 0
M  V30 143 H 12.7309 -0.695374 -0.244179 0
M  V30 144 H 15.3729 -1.89901 0.0613655 0
M  V30 145 H 13.5229 -3.36626 -1.93946 0
M  V30 146 H 15.1949 -4.59887 0.360844 0
M  V30 147 H 13.4379 -4.31873 0.408482 0
M  V30 148 H 14.1089 -5.46851 -0.752218 0
M  V30 149 H 16.5849 -3.79477 -1.70693 0
M  V30 150 H 15.4609 -4.80729 -2.64936 0
M  V30 151 H 15.7219 -3.13455 -3.11766 0
M  V30 152 N 14.781 0.264519 -1.55364 0
M  V30 153 C 16.03 0.992812 -1.75574 0
M  V30 154 C 16.343 1.87142 -0.568979 0
M  V30 155 O 17.549 2.63513 -0.653682 0
M  V30 156 C 16.005 1.81519 -3.10771 0
M  V30 157 C 15.613 0.984839 -4.37041 0
M  V30 158 C 17.357 2.53727 -3.40327 0
M  V30 159 C 15.264 1.80209 -5.63275 0
M  V30 160 H 14.194 0.374412 -0.65447 0
M  V30 161 H 16.845 0.248138 -1.81815 0
M  V30 162 H 15.227 2.60115 -2.98591 0
M  V30 163 H 16.401 0.242455 -4.60162 0
M  V30 164 H 14.716 0.37691 -4.14691 0
M  V30 165 H 17.313 3.15292 -4.3185 0
M  V30 166 H 17.656 3.24447 -2.60845 0
M  V30 167 H 18.189 1.82156 -3.53644 0
M  V30 168 H 14.928 1.13896 -6.45529 0
M  V30 169 H 14.448 2.52022 -5.44284 0
M  V30 170 H 16.127 2.37364 -6.01887 0
M  V30 171 N 16.2591 1.48442 0.529413 0
M  V30 172 C 17.1691 1.6569 1.66084 0
M  V30 173 C 18.1851 0.539432 1.65427 0
M  V30 174 O 19.3611 0.810572 1.84368 0
M  V30 175 C 16.4261 1.69315 3.02545 0
M  V30 176 C 15.4871 2.92694 3.14052 0
M  V30 177 C 14.7201 2.96137 4.44003 0
M  V30 178 O 14.9431 2.07973 5.31134 0
M  V30 179 O 13.8771 3.88312 4.59888 0
M  V30 180 H 17.7031 2.61483 1.54469 0
M  V30 181 H 15.2881 1.3185 0.702567 0
M  V30 182 H 17.1701 1.74217 3.83701 0
M  V30 183 H 15.8451 0.766966 3.14483 0
M  V30 184 H 14.7521 2.93324 2.32189 0
M  V30 185 H 16.0851 3.84699 3.0703 0
M  V30 186 N 17.7372 -0.778329 1.37039 0
M  V30 187 C 19.1482 -1.35421 1.28523 0
M  V30 188 C 19.4992 -1.96075 -0.0700901 0
M  V30 189 O 18.6242 -1.93352 -0.971801 0
M  V30 190 C 19.2192 -2.46211 2.32735 0
M  V30 191 C 17.7782 -2.99585 2.27873 0
M  V30 192 C 16.9252 -1.72748 2.16918 0
M  V30 193 H 19.8762 -0.5791 1.47757 0
M  V30 194 H 19.8972 -3.2552 1.9702 0
M  V30 195 H 19.4092 -2.02036 3.31365 0
M  V30 196 H 17.5102 -3.48152 1.32745 0
M  V30 197 H 17.6232 -3.55646 3.21018 0
M  V30 198 H 15.9872 -1.95416 1.63354 0
M  V30 199 H 16.7702 -1.30686 3.17452 0
M  V30 200 N 19.2153 -1.21501 -1.00376 0
M  V30 201 C 20.1783 -0.976927 -2.07337 0
M  V30 202 C 21.1783 0.0525322 -1.60714 0
M  V30 203 O 22.3683 -0.184869 -1.73216 0
M  V30 204 C 19.5003 -0.473423 -3.37597 0
M  V30 205 H 20.6933 -1.92587 -2.29892 0
M  V30 206 H 18.2463 -1.03217 -1.17371 0
M  V30 207 H 18.9813 0.480379 -3.20722 0
M  V30 208 H 18.7663 -1.216 -3.72768 0
M  V30 209 H 20.2563 -0.32675 -4.1632 0
M  V30 210 N 20.6934 1.19889 -1.02296 0
M  V30 211 C 21.9704 1.85148 -0.630832 0
M  V30 212 C 22.3504 1.91385 0.890782 0
M  V30 213 O 21.6984 1.42642 1.78509 0
M  V30 214 C 21.9084 3.24442 -1.28602 0
M  V30 215 C 23.2564 4.00663 -1.4055 0
M  V30 216 O 24.2804 3.33818 -1.24273 0
M  V30 217 O 23.1394 5.20387 -1.66913 0
M  V30 218 H 20.2334 0.797613 -0.218499 0
M  V30 219 H 22.7794 1.27427 -1.12074 0
M  V30 220 H 21.5514 3.14704 -2.32545 0
M  V30 221 H 21.1744 3.89802 -0.7836 0
M  V30 222 N 22.1715 0.800033 1.35784 0
M  V30 223 C 23.1015 0.220184 2.3246 0
M  V30 224 C 24.0825 -0.65073 1.57161 0
M  V30 225 O 25.2675 -0.582359 1.85263 0
M  V30 226 C 22.3975 -0.637353 3.41402 0
M  V30 227 C 21.3515 0.134531 4.27789 0
M  V30 228 C 20.6775 -0.844285 5.27992 0
M  V30 229 C 21.9775 1.32979 5.05088 0
M  V30 230 H 23.6715 1.02787 2.81203 0
M  V30 231 H 21.2175 0.495717 1.35199 0
M  V30 232 H 23.1705 -1.05302 4.08031 0
M  V30 233 H 21.8945 -1.47785 2.91251 0
M  V30 234 H 20.5535 0.531296 3.6273 0
M  V30 235 H 20.2015 -1.68011 4.74111 0
M  V30 236 H 19.9015 -0.332184 5.8666 0
M  V30 237 H 21.4255 -1.2583 5.97494 0
M  V30 238 H 22.8395 0.98934 5.64699 0
M  V30 239 H 21.2365 1.77593 5.7322 0
M  V30 240 H 22.3065 2.11978 4.36111 0
M  V30 241 N 23.6496 -1.47581 0.552962 0
M  V30 242 C 24.5816 -2.27997 -0.234533 0
M  V30 243 C 25.5946 -1.36753 -0.883321 0
M  V30 244 O 26.7836 -1.61612 -0.757889 0
M  V30 245 C 23.8836 -3.10879 -1.34935 0
M  V30 246 C 23.0566 -4.30056 -0.798158 0
M  V30 247 C 22.1156 -4.94567 -1.79694 0
M  V30 248 O 21.1416 -5.53087 -1.34474 0
M  V30 249 N 22.3436 -4.88878 -3.13015 0
M  V30 250 H 25.1086 -2.96222 0.455255 0
M  V30 251 H 22.6696 -1.57163 0.388761 0
M  V30 252 H 24.6616 -3.50903 -2.01616 0
M  V30 253 H 23.2316 -2.44924 -1.94244 0
M  V30 254 H 22.4516 -3.94174 0.0453079 0
M  V30 255 H 23.7396 -5.07152 -0.409173 0
M  V30 256 H 23.1376 -4.42526 -3.52402 0
M  V30 257 H 21.6946 -5.32934 -3.75266 0
M  V30 258 N 25.1277 -0.289203 -1.54924 0
M  V30 259 C 26.0907 0.579144 -2.21762 0
M  V30 260 C 27.0907 1.07047 -1.1999 0
M  V30 261 O 28.2807 0.968384 -1.44803 0
M  V30 262 C 25.4127 1.80055 -2.8947 0
M  V30 263 H 26.6057 -0.00464908 -2.999 0
M  V30 264 H 24.1587 -0.0399306 -1.56249 0
M  V30 265 H 24.8937 2.42449 -2.15381 0
M  V30 266 H 24.6787 1.45602 -3.64064 0
M  V30 267 H 26.1687 2.41773 -3.40493 0
M  V30 268 N 26.6058 1.57591 -0.0167156 0
M  V30 269 C 28.0218 1.55946 0.339557 0
M  V30 270 C 28.2218 1.02109 1.73713 0
M  V30 271 O 27.2778 0.662303 2.43659 0
M  V30 272 C 28.5908 3.00037 0.199499 0
M  V30 273 C 30.1388 3.11805 0.273193 0
M  V30 274 C 30.6138 4.57713 0.162068 0
M  V30 275 N 32.1048 4.6268 0.219444 0
M  V30 276 C 32.8398 5.73185 0.157054 0
M  V30 277 N 32.3358 6.92786 0.0442936 0
M  V30 278 N 34.1288 5.61707 0.21014 0
M  V30 279 H 26.2798 1.90921 -0.930758 0
M  V30 280 H 28.5428 0.877674 -0.358319 0
M  V30 281 H 28.2488 3.4333 -0.76273 0
M  V30 282 H 28.1228 3.64387 0.974786 0
M  V30 283 H 30.5098 2.68433 1.22587 0
M  V30 284 H 30.5908 2.50201 -0.532256 0
M  V30 285 H 30.2348 5.01763 -0.78714 0
M  V30 286 H 30.1648 5.17283 0.986222 0
M  V30 287 H 32.6558 3.76649 0.307246 0
M  V30 288 H 32.9688 7.728 0.00304069 0
M  V30 289 H 31.3138 6.94999 0.00968457 0
M  V30 290 H 34.5048 4.6716 0.296546 0
M  V30 291 H 34.6778 6.47807 0.158054 0
M  V30 292 N 28.0839 -0.256276 1.55502 0
M  V30 293 C 29.0139 -1.32102 1.92539 0
M  V30 294 C 29.9949 -1.50684 0.789194 0
M  V30 295 O 31.1799 -1.63449 1.04872 0
M  V30 296 C 28.3099 -2.67752 2.21192 0
M  V30 297 C 27.2639 -2.63878 3.36975 0
M  V30 298 C 26.5899 -4.03236 3.51147 0
M  V30 299 C 27.8899 -2.21682 4.72921 0
M  V30 300 H 29.5839 -1.01351 2.81724 0
M  V30 301 H 27.1299 -0.486105 1.35547 0
M  V30 302 H 29.0829 -3.42365 2.45691 0
M  V30 303 H 27.8069 -3.0012 1.28824 0
M  V30 304 H 26.4659 -1.91722 3.12471 0
M  V30 305 H 26.1139 -4.32854 2.56216 0
M  V30 306 H 25.8139 -4.01535 4.29003 0
M  V30 307 H 27.3379 -4.79563 3.77957 0
M  V30 308 H 28.7519 -2.86023 4.96854 0
M  V30 309 H 27.1489 -2.3111 5.53812 0
M  V30 310 H 28.2189 -1.16833 4.70615 0
M  V30 311 N 29.562 -1.4872 -0.521534 0
M  V30 312 C 30.787 -1.61101 -1.30618 0
M  V30 313 C 31.212 -0.274611 -1.86085 0
M  V30 314 O 30.57 0.754937 -1.64834 0
M  V30 315 C 30.618 -2.66709 -2.4269 0
M  V30 316 O 29.722 -2.24456 -3.45967 0
M  V30 317 H 29.063 -0.539921 -0.386499 0
M  V30 318 H 31.593 -1.94767 -0.626645 0
M  V30 319 H 31.603 -2.88245 -2.88754 0
M  V30 320 H 30.278 -3.63727 -2.01682 0
M  V30 321 H 28.855 -2.13168 -3.05964 0
M  V30 322 N 31.0401 0.771051 -1.3745 0
M  V30 323 C 32.0031 1.86598 -1.33093 0
M  V30 324 C 33.0031 1.59076 -0.234845 0
M  V30 325 O 34.1931 1.67145 -0.490732 0
M  V30 326 C 31.3251 3.23747 -1.06773 0
M  V30 327 H 32.5181 1.91873 -2.30488 0
M  V30 328 H 30.0711 0.970876 -1.2249 0
M  V30 329 H 30.8061 3.24148 -0.099129 0
M  V30 330 H 30.5911 3.45115 -1.86112 0
M  V30 331 H 32.0811 4.03824 -1.06377 0
M  V30 332 N 32.5182 1.22032 0.997298 0
M  V30 333 C 33.9292 1.0397 1.55071 0
M  V30 334 C 34.2802 -0.398192 1.92117 0
M  V30 335 O 33.4052 -1.28254 1.74298 0
M  V30 336 C 34.0002 1.88109 2.81781 0
M  V30 337 C 32.5592 1.74357 3.33581 0
M  V30 338 C 31.7062 1.84846 2.06706 0
M  V30 339 H 34.6572 1.35941 0.818883 0
M  V30 340 H 34.6782 1.39589 3.53971 0
M  V30 341 H 34.1902 2.92754 2.54787 0
M  V30 342 H 32.2912 0.72427 3.65493 0
M  V30 343 H 32.4042 2.56772 4.04481 0
M  V30 344 H 30.7682 1.28238 2.20062 0
M  V30 345 H 31.5512 2.91014 1.82114 0
M  V30 346 N 33.9963 -1.19345 1.0293 0
M  V30 347 C 34.9063 -2.26245 0.620515 0
M  V30 348 C 35.9223 -1.70486 -0.347928 0
M  V30 349 O 37.0983 -2.00347 -0.205704 0
M  V30 350 C 34.1633 -3.46693 -0.0218957 0
M  V30 351 C 33.2243 -4.17632 0.994102 0
M  V30 352 C 32.4573 -5.32329 0.382253 0
M  V30 353 O 32.6803 -5.64552 -0.814676 0
M  V30 354 O 31.6143 -5.91664 1.10531 0
M  V30 355 H 35.4403 -2.63453 1.51083 0
M  V30 356 H 33.0253 -1.26207 0.799513 0
M  V30 357 H 34.9073 -4.19683 -0.380072 0
M  V30 358 H 33.5823 -3.11333 -0.886209 0
M  V30 359 H 32.4893 -3.4676 1.40387 0
M  V30 360 H 33.8223 -4.56964 1.8288 0
M  V30 361 N 35.4744 -0.807222 -1.35358 0
M  V30 362 C 36.4044 -0.232509 -2.3234 0
M  V30 363 C 37.3854 0.642386 -1.57504 0
M  V30 364 O 38.5704 0.572526 -1.85569 0
M  V30 365 C 35.7004 0.619238 -3.41735 0
M  V30 366 C 34.6544 -0.157215 -4.27711 0
M  V30 367 C 33.9804 0.816273 -5.28433 0
M  V30 368 C 35.2804 -1.35656 -5.04376 0
M  V30 369 H 36.9744 -1.04276 -2.80654 0
M  V30 370 H 34.5204 -0.50288 -1.34934 0
M  V30 371 H 36.4734 1.03137 -4.08584 0
M  V30 372 H 35.1974 1.46239 -2.92031 0
M  V30 373 H 33.8564 -0.550525 -3.62443 0
M  V30 374 H 33.5044 1.65494 -4.74996 0
M  V30 375 H 33.2044 0.301067 -5.86828 0
M  V30 376 H 34.7284 1.22659 -5.98153 0
M  V30 377 H 36.1424 -1.01927 -5.64166 0
M  V30 378 H 34.5394 -1.8063 -5.7227 0
M  V30 379 H 35.6094 -2.14288 -4.34981 0
M  V30 380 N 36.9525 1.47285 -0.560781 0
M  V30 381 C 38.2015 2.01668 -0.035895 0
M  V30 382 C 38.5145 1.44021 1.32353 0
M  V30 383 O 39.7205 1.90088 1.93853 0
M  V30 384 C 38.1765 3.59897 -0.0136659 0
M  V30 385 C 37.7845 4.26536 -1.37006 0
M  V30 386 C 39.5285 4.22017 0.458425 0
M  V30 387 C 37.4355 5.76782 -1.30675 0
M  V30 388 H 36.3655 0.753938 -0.00964879 0
M  V30 389 H 39.0165 1.69243 -0.709166 0
M  V30 390 H 37.3985 3.89301 0.725325 0
M  V30 391 H 38.5725 4.0877 -2.12705 0
M  V30 392 H 36.8875 3.76419 -1.78038 0
M  V30 393 H 39.4845 5.32124 0.524247 0
M  V30 394 H 39.8275 3.89437 1.4712 0
M  V30 395 H 40.3605 3.97159 -0.225818 0
M  V30 396 H 37.0995 6.13988 -2.29564 0
M  V30 397 H 36.6195 5.96875 -0.591622 0
M  V30 398 H 38.2985 6.39063 -1.01033 0
M  V30 399 N 38.4306 0.297415 1.54768 0
M  V30 400 C 39.3606 -0.573494 2.26348 0
M  V30 401 C 40.3416 -1.14085 1.26169 0
M  V30 402 O 41.5266 -1.17086 1.54934 0
M  V30 403 C 38.6566 -1.74716 3.00153 0
M  V30 404 C 37.6106 -1.31032 4.07449 0
M  V30 405 C 36.9366 -2.56887 4.68949 0
M  V30 406 C 38.2366 -0.444183 5.20408 0
M  V30 407 H 39.9306 0.0235131 2.99391 0
M  V30 408 H 37.4766 0.0127488 1.43994 0
M  V30 409 H 39.4296 -2.3625 3.48947 0
M  V30 410 H 38.1536 -2.37035 2.24682 0
M  V30 411 H 36.8126 -0.718066 3.59499 0
M  V30 412 H 36.4606 -3.17512 3.90122 0
M  V30 413 H 36.1606 -2.2836 5.41411 0
M  V30 414 H 37.6846 -3.19229 5.20505 0
M  V30 415 H 39.0986 -0.9651 5.65118 0
M  V30 416 H 37.4956 -0.252846 5.99567 0
M  V30 417 H 38.5656 0.531609 4.81977 0
M  V30 418 N 39.9087 -1.5758 0.0250728 0
M  V30 419 C 41.1547 -1.91917 -0.655413 0
M  V30 420 C 41.4877 -0.901433 -1.72011 0
M  V30 421 O 40.7627 0.0764069 -1.9435 0
M  V30 422 C 41.0457 -3.36751 -1.27558 0
M  V30 423 C 40.8987 -4.49258 -0.220719 0
M  V30 424 C 42.2177 -3.81469 -2.19475 0
M  V30 425 H 39.3367 -0.697925 -0.23679 0
M  V30 426 H 41.9787 -1.89825 0.0815036 0
M  V30 427 H 40.1287 -3.38664 -1.90365 0
M  V30 428 H 41.8007 -4.59478 0.409601 0
M  V30 429 H 40.0437 -4.31415 0.454264 0
M  V30 430 H 40.7147 -5.47618 -0.694175 0
M  V30 431 H 43.1907 -3.81266 -1.66659 0
M  V30 432 H 42.0667 -4.83512 -2.59822 0
M  V30 433 H 42.3277 -3.16744 -3.08424 0
M  V30 434 N 41.3868 0.248026 -1.55636 0
M  V30 435 C 42.6638 0.998988 -1.68165 0
M  V30 436 C 43.0438 2.03409 -0.564621 0
M  V30 437 O 42.3918 2.24378 0.432076 0
M  V30 438 C 42.6018 1.63334 -3.0842 0
M  V30 439 C 43.9498 2.13562 -3.66983 0
M  V30 440 O 44.9738 1.73277 -3.11213 0
M  V30 441 O 43.8328 2.87526 -4.64749 0
M  V30 442 H 40.9268 0.464933 -0.683935 0
M  V30 443 H 43.4728 0.241902 -1.67967 0
M  V30 444 H 42.2448 0.884583 -3.8117 0
M  V30 445 H 41.8678 2.45666 -3.12624 0
M  V30 446 N 42.8649 1.48995 0.513639 0
M  V30 447 C 43.7949 1.67636 1.62544 0
M  V30 448 C 44.7759 0.525087 1.61793 0
M  V30 449 O 45.9609 0.759502 1.78732 0
M  V30 450 C 43.0909 1.73114 3.01079 0
M  V30 451 C 42.0449 2.87905 3.16693 0
M  V30 452 C 41.3709 2.78486 4.56453 0
M  V30 453 C 42.6709 4.29005 2.97913 0
M  V30 454 H 44.3649 2.60716 1.47198 0
M  V30 455 H 41.9109 1.25465 0.706714 0
M  V30 456 H 43.8639 1.84742 3.78746 0
M  V30 457 H 42.5879 0.766241 3.17484 0
M  V30 458 H 41.2469 2.75859 2.41448 0
M  V30 459 H 40.8949 1.7993 4.69717 0
M  V30 460 H 40.5949 3.55523 4.67843 0
M  V30 461 H 42.1189 2.92104 5.36197 0
M  V30 462 H 43.5329 4.41798 3.65359 0
M  V30 463 H 41.9299 5.07166 3.20785 0
M  V30 464 H 42.9999 4.44329 1.94165 0
M  V30 465 N 44.343 -0.763751 1.37857 0
M  V30 466 C 45.571 -1.55293 1.36718 0
M  V30 467 C 45.986 -1.88745 -0.0455434 0
M  V30 468 O 45.343 -1.52039 -1.00947 0
M  V30 469 C 45.394 -2.85831 2.2132 0
M  V30 470 O 45.115 -2.5381 3.57089 0
M  V30 471 C 46.616 -3.80023 2.28249 0
M  V30 472 H 43.836 -0.480841 0.468009 0
M  V30 473 H 46.38 -0.946009 1.81303 0
M  V30 474 H 44.535 -3.42926 1.80223 0
M  V30 475 H 44.949 -3.37459 4.01524 0
M  V30 476 H 46.423 -4.68599 2.91752 0
M  V30 477 H 46.9 -4.1973 1.2932 0
M  V30 478 H 47.506 -3.28855 2.69693 0
M  V30 479 N 45.8211 -1.22559 -0.990812 0
M  V30 480 C 47.0461 -1.07862 -1.77145 0
M  V30 481 C 47.4711 0.366447 -1.84496 0
M  V30 482 O 46.8291 1.26478 -1.29896 0
M  V30 483 C 46.8771 -1.69686 -3.18181 0
M  V30 484 O 45.9811 -0.951946 -4.01263 0
M  V30 485 H 45.3221 -0.378712 -0.545411 0
M  V30 486 H 47.8521 -1.62399 -1.2445 0
M  V30 487 H 47.8621 -1.74496 -3.68802 0
M  V30 488 H 46.5371 -2.74841 -3.12146 0
M  V30 489 H 45.1141 -0.980011 -3.59792 0
M  V30 490 N 47.2992 1.18797 -1.03562 0
M  V30 491 C 48.2622 2.20464 -0.626769 0
M  V30 492 C 49.2622 1.57721 0.313173 0
M  V30 493 O 50.4522 1.73917 0.0992615 0
M  V30 494 C 47.5842 3.40802 0.0818498 0
M  V30 495 H 48.7772 2.58149 -1.5264 0
M  V30 496 H 46.3302 1.32593 -0.827578 0
M  V30 497 H 47.0652 3.08642 0.995518 0
M  V30 498 H 46.8502 3.8758 -0.593652 0
M  V30 499 H 48.3402 4.16092 0.354584 0
M  V30 500 N 48.7773 0.814389 1.34928 0
M  V30 501 C 49.7403 0.235759 2.27984 0
M  V30 502 C 50.7403 -0.581412 1.49921 0
M  V30 503 O 51.9303 -0.398758 1.69575 0
M  V30 504 C 49.0623 -0.670433 3.34242 0
M  V30 505 H 50.2553 1.05659 2.80671 0
M  V30 506 H 47.8083 0.585614 1.44915 0
M  V30 507 H 48.5433 -1.51466 2.86755 0
M  V30 508 H 48.3283 -0.0860822 3.92005 0
M  V30 509 H 49.8183 -1.06935 4.03676 0
M  V30 510 N 50.2554 -1.46986 0.568584 0
M  V30 511 C 51.6714 -1.57946 0.229189 0
M  V30 512 C 51.8714 -1.56567 -1.26843 0
M  V30 513 O 50.9274 -1.47511 -2.04931 0
M  V30 514 C 52.2404 -2.87963 0.865909 0
M  V30 515 C 53.7884 -3.01568 0.838188 0
M  V30 516 C 54.2634 -4.34301 1.45419 0
M  V30 517 N 55.7544 -4.40965 1.41788 0
M  V30 518 C 56.4894 -5.42256 1.86403 0
M  V30 519 N 55.9854 -6.50297 2.38926 0
M  V30 520 N 57.7784 -5.3337 1.77405 0
M  V30 521 H 49.9294 -1.46126 1.54146 0
M  V30 522 H 52.1924 -0.696156 0.643484 0
M  V30 523 H 51.8984 -2.94742 1.91886 0
M  V30 524 H 51.7724 -3.75423 0.365687 0
M  V30 525 H 54.1594 -2.94379 -0.206106 0
M  V30 526 H 54.2404 -2.1562 1.37629 0
M  V30 527 H 53.8844 -4.42247 2.49761 0
M  V30 528 H 53.8144 -5.19 0.891435 0
M  V30 529 H 56.3054 -3.63484 1.03381 0
M  V30 530 H 56.6184 -7.23777 2.70863 0
M  V30 531 H 54.9634 -6.51155 2.42944 0
M  V30 532 H 58.1544 -4.47865 1.3614 0
M  V30 533 H 58.3274 -6.12169 2.12492 0
M  V30 534 N 51.7335 -0.305618 -1.54608 0
M  V30 535 C 52.9635 0.304333 -2.04346 0
M  V30 536 C 53.3715 1.47715 -1.18224 0
M  V30 537 O 52.7145 1.82591 -0.201577 0
M  V30 538 C 52.7765 0.819031 -3.50046 0
M  V30 539 C 52.4405 -0.22912 -4.56425 0
M  V30 540 C 53.4375 -1.05914 -5.08997 0
M  V30 541 C 51.1225 -0.372148 -5.0092 0
M  V30 542 C 53.1165 -2.01809 -6.04609 0
M  V30 543 C 50.8035 -1.33454 -5.9635 0
M  V30 544 C 51.8015 -2.15599 -6.48079 0
M  V30 545 O 51.4895 -3.10205 -7.41639 0
M  V30 546 H 51.2215 0.0693996 -0.672428 0
M  V30 547 H 53.7755 -0.444548 -2.00532 0
M  V30 548 H 52.0055 1.61852 -3.51199 0
M  V30 549 H 53.6945 1.34537 -3.82955 0
M  V30 550 H 54.4605 -0.959538 -4.75413 0
M  V30 551 H 50.3395 0.257304 -4.60281 0
M  V30 552 H 53.8835 -2.65966 -6.44909 0
M  V30 553 H 49.7805 -1.43485 -6.29351 0
M  V30 554 H 50.5485 -3.05237 -7.59455 0
M  V30 555 N 53.2116 1.57565 -0.0334293 0
M  V30 556 C 54.1746 2.09393 0.932048 0
M  V30 557 C 55.1746 1.00986 1.25134 0
M  V30 558 O 56.3646 1.27129 1.19096 0
M  V30 559 C 53.4966 2.56338 2.2473 0
M  V30 560 H 54.6896 2.95984 0.483085 0
M  V30 561 H 52.2426 1.54819 0.21468 0
M  V30 562 H 52.9776 1.7309 2.74245 0
M  V30 563 H 52.7626 3.35542 2.02865 0
M  V30 564 H 54.2526 2.96646 2.93923 0
M  V30 565 N 54.6897 -0.239769 1.55765 0
M  V30 566 C 55.5997 -1.31831 1.94056 0
M  V30 567 C 56.6157 -1.52275 0.841925 0
M  V30 568 O 57.7917 -1.65759 1.14394 0
M  V30 569 C 54.8567 -2.65156 2.23368 0
M  V30 570 C 53.9177 -2.53173 3.46701 0
M  V30 571 C 53.1507 -3.8014 3.74606 0
M  V30 572 O 53.3737 -4.82343 3.04469 0
M  V30 573 O 52.3077 -3.78344 4.68123 0
M  V30 574 H 56.1337 -1.02347 2.85935 0
M  V30 575 H 53.7187 -0.441123 1.42739 0
M  V30 576 H 55.6007 -3.43929 2.43497 0
M  V30 577 H 54.2757 -2.94358 1.34666 0
M  V30 578 H 53.1827 -1.72662 3.31871 0
M  V30 579 H 54.5157 -2.28915 4.35728 0
M  V30 580 N 56.1678 -1.49265 -0.50573 0
M  V30 581 C 57.4158 -1.582 -1.25766 0
M  V30 582 C 57.7368 -0.268482 -1.93143 0
M  V30 583 O 57.0068 0.711833 -1.8251 0
M  V30 584 H 55.5868 -0.582873 -0.467191 0
M  V30 585 H 58.2488 -1.85865 -0.586525 0
M  V30 586 H 57.3448 -2.37563 -2.02412 0
M  V30 587 N 57.6459 0.756429 -1.3826 0
M  V30 588 C 58.5959 1.86069 -1.31766 0
M  V30 589 C 59.5799 1.59621 -0.202483 0
M  V30 590 O 60.7719 1.7149 -0.438211 0
M  V30 591 C 57.9009 3.23742 -1.1422 0
M  V30 592 C 56.9869 3.56091 -2.30348 0
M  V30 593 N 57.3779 3.59517 -3.55783 0
M  V30 594 C 55.6759 3.86341 -2.22838 0
M  V30 595 C 56.3769 3.89052 -4.32451 0
M  V30 596 N 55.3529 4.05736 -3.61772 0
M  V30 597 H 59.1549 1.86992 -2.26741 0
M  V30 598 H 56.6689 0.953643 -1.31451 0
M  V30 599 H 58.6659 4.02761 -1.07652 0
M  V30 600 H 57.3259 3.24073 -0.201763 0
M  V30 601 H 58.3369 3.41347 -3.89491 0
M  V30 602 H 55.0139 3.94404 -1.36937 0
M  V30 603 H 56.4039 3.98349 -5.4108 0
M  V30 604 N 59.124 1.23083 0.984299 0
M  V30 605 C 60.373 1.05466 1.71929 0
M  V30 606 C 60.686 -0.409211 1.91272 0
M  V30 607 O 61.892 -0.705226 2.62181 0
M  V30 608 C 60.348 1.83874 3.09384 0
M  V30 609 C 59.956 3.34566 2.97943 0
M  V30 610 C 61.7 1.74734 3.8687 0
M  V30 611 C 59.607 4.05381 4.30605 0
M  V30 612 H 58.537 0.391039 0.644674 0
M  V30 613 H 61.188 1.47013 1.09815 0
M  V30 614 H 59.57 1.35131 3.72231 0
M  V30 615 H 60.744 3.90767 2.44209 0
M  V30 616 H 59.059 3.44476 2.33934 0
M  V30 617 H 61.656 2.24957 4.85076 0
M  V30 618 H 61.999 0.709372 4.10212 0
M  V30 619 H 62.532 2.21067 3.30717 0
M  V30 620 H 59.271 5.09467 4.1246 0
M  V30 621 H 58.791 3.53967 4.84218 0
M  V30 622 H 60.47 4.11458 4.99311 0
M  V30 623 N 60.6021 -1.18246 1.0419 0
M  V30 624 C 62.0131 -1.69914 0.773698 0
M  V30 625 C 62.3641 -1.83085 -0.705297 0
M  V30 626 O 61.4891 -1.51123 -1.5489 0
M  V30 627 C 62.0841 -3.08619 1.39784 0
M  V30 628 C 60.6431 -3.57494 1.17792 0
M  V30 629 C 59.7901 -2.34013 1.48773 0
M  V30 630 H 62.7411 -1.02904 1.20816 0
M  V30 631 H 62.7621 -3.71958 0.801714 0
M  V30 632 H 62.2741 -2.99001 2.47426 0
M  V30 633 H 60.3751 -3.72406 0.120295 0
M  V30 634 H 60.4881 -4.40852 1.87581 0
M  V30 635 H 58.8521 -2.37986 0.907463 0
M  V30 636 H 59.6351 -2.27013 2.57527 0
M  V30 637 N 62.0802 -0.821533 -1.34494 0
M  V30 638 C 63.3282 -0.408139 -1.97936 0
M  V30 639 C 63.6492 1.03193 -1.65457 0
M  V30 640 O 62.9192 1.71622 -0.944595 0
M  V30 641 H 61.4992 -0.147928 -0.732206 0
M  V30 642 H 64.1612 -1.05067 -1.64155 0
M  V30 643 H 63.2572 -0.52601 -3.07635 0
M  V30 644 N 63.5583 1.46682 -0.576371 0
M  V30 645 C 64.5213 2.28707 0.150239 0
M  V30 646 C 65.5213 1.38035 0.824794 0
M  V30 647 O 66.7113 1.60476 0.677719 0
M  V30 648 C 63.8433 3.18248 1.22192 0
M  V30 649 H 65.0363 2.94423 -0.570521 0
M  V30 650 H 62.5893 1.52688 -0.334078 0
M  V30 651 H 63.3243 2.57265 1.97447 0
M  V30 652 H 63.1093 3.85 0.742812 0
M  V30 653 H 64.5993 3.80001 1.73172 0
M  V30 654 N 65.0364 0.313813 1.54444 0
M  V30 655 C 66.4524 -0.0391619 1.59552 0
M  V30 656 C 66.6524 -1.51322 1.33056 0
M  V30 657 O 65.7084 -2.26782 1.11022 0
M  V30 658 C 67.0214 0.370302 2.98411 0
M  V30 659 C 68.5694 0.320139 3.11358 0
M  V30 660 C 69.0444 0.704617 4.52547 0
M  V30 661 N 70.5354 0.657645 4.58508 0
M  V30 662 C 71.2704 0.927453 5.6585 0
M  V30 663 N 70.7664 1.26389 6.81174 0
M  V30 664 N 72.5594 0.853662 5.5558 0
M  V30 665 H 64.7104 1.27433 1.69925 0
M  V30 666 H 66.9734 0.517511 0.794284 0
M  V30 667 H 66.6794 1.39694 3.22767 0
M  V30 668 H 66.5534 -0.269619 3.76235 0
M  V30 669 H 68.9404 -0.697275 2.86744 0
M  V30 670 H 69.0214 0.99486 2.35661 0
M  V30 671 H 68.6654 1.7199 4.77893 0
M  V30 672 H 68.5954 0.00768843 5.26599 0
M  V30 673 H 71.0864 0.409067 3.75679 0
M  V30 674 H 71.3994 1.4554 7.58972 0
M  V30 675 H 69.7444 1.30206 6.82694 0
M  V30 676 H 72.9354 0.590383 4.64362 0
M  V30 677 H 73.1084 1.0673 6.3915 0
M  V30 678 N 66.5145 -1.57545 0.0417849 0
M  V30 679 C 67.7615 -1.92317 -0.634082 0
M  V30 680 C 68.0895 -0.919334 -1.71402 0
M  V30 681 O 67.3445 0.0698253 -1.95575 0
M  V30 682 C 67.6435 -3.33794 -1.27735 0
M  V30 683 C 67.3095 -4.49716 -0.326543 0
M  V30 684 C 65.9715 -4.81156 -0.0648814 0
M  V30 685 C 68.3235 -5.20182 0.325623 0
M  V30 686 C 65.6515 -5.80414 0.856539 0
M  V30 687 C 68.0035 -6.20424 1.23518 0
M  V30 688 C 66.6675 -6.50298 1.5056 0
M  V30 689 H 65.9375 -0.703736 -0.232027 0
M  V30 690 H 68.5845 -1.91205 0.106259 0
M  V30 691 H 66.8895 -3.31228 -2.09274 0
M  V30 692 H 68.5865 -3.57975 -1.80707 0
M  V30 693 H 65.1765 -4.25176 -0.540665 0
M  V30 694 H 69.3605 -4.96112 0.136546 0
M  V30 695 H 64.6165 -6.019 1.07363 0
M  V30 696 H 68.7905 -6.74141 1.74664 0
M  V30 697 H 66.4175 -7.27025 2.22123 0
M  V30 698 N 67.9926 0.231505 -1.5589 0
M  V30 699 C 69.2386 0.95877 -1.78705 0
M  V30 700 C 69.5716 1.8438 -0.609725 0
M  V30 701 O 68.8466 1.90521 0.391426 0
M  V30 702 C 69.1296 1.8062 -3.11526 0
M  V30 703 C 68.9826 0.948328 -4.39689 0
M  V30 704 C 70.3016 2.78585 -3.40703 0
M  V30 705 H 67.4206 0.347129 -0.650131 0
M  V30 706 H 70.0626 0.228259 -1.88624 0
M  V30 707 H 68.2126 2.42902 -3.03201 0
M  V30 708 H 69.8846 0.343016 -4.60023 0
M  V30 709 H 68.1276 0.253314 -4.3306 0
M  V30 710 H 68.7986 1.57543 -5.29041 0
M  V30 711 H 71.2746 2.26439 -3.49091 0
M  V30 712 H 70.1506 3.34988 -4.34826 0
M  V30 713 H 70.4116 3.55825 -2.62375 0
M  V30 714 N 69.4707 1.49531 0.497807 0
M  V30 715 C 70.7477 1.49682 1.25915 0
M  V30 716 C 71.1277 0.226339 2.09883 0
M  V30 717 O 70.4757 -0.791189 2.14365 0
M  V30 718 C 70.6857 2.77755 2.11313 0
M  V30 719 C 72.0337 3.27371 2.70395 0
M  V30 720 O 73.0577 2.78894 2.21578 0
M  V30 721 O 71.9167 4.11808 3.59272 0
M  V30 722 H 69.0107 0.599228 0.56996 0
M  V30 723 H 71.5567 1.61798 0.511816 0
M  V30 724 H 70.3287 3.61713 1.49264 0
M  V30 725 H 69.9517 2.68515 2.93233 0
M  V30 726 N 70.9488 -0.749086 1.3866 0
M  V30 727 C 72.3598 -1.32664 1.31366 0
M  V30 728 C 72.7108 -1.96179 -0.028484 0
M  V30 729 O 71.8358 -1.9537 -0.93057 0
M  V30 730 C 72.4308 -2.41219 2.37905 0
M  V30 731 C 70.9898 -2.94684 2.34176 0
M  V30 732 C 70.1368 -1.68108 2.20533 0
M  V30 733 H 73.0878 -0.547628 1.48952 0
M  V30 734 H 73.1088 -3.21268 2.0388 0
M  V30 735 H 72.6208 -1.94962 3.35576 0
M  V30 736 H 70.7218 -3.45258 1.401 0
M  V30 737 H 70.8348 -3.48757 3.2849 0
M  V30 738 H 69.1988 -1.91907 1.67463 0
M  V30 739 H 69.9818 -1.23923 3.20153 0
M  V30 740 N 72.4269 -1.23603 -0.977757 0
M  V30 741 C 73.3739 -1.01954 -2.07061 0
M  V30 742 C 74.3439 0.0638697 -1.65977 0
M  V30 743 O 75.5289 -0.0887624 -1.90593 0
M  V30 744 C 72.6689 -0.619658 -3.39491 0
M  V30 745 C 71.7819 -1.77547 -3.93829 0
M  V30 746 C 70.9169 -1.32212 -5.14484 0
M  V30 747 C 69.9559 -2.44852 -5.60994 0
M  V30 748 N 69.0929 -2.00456 -6.72876 0
M  V30 749 H 73.9329 -1.95495 -2.24913 0
M  V30 750 H 71.4699 -0.973861 -1.10247 0
M  V30 751 H 73.4279 -0.368898 -4.15566 0
M  V30 752 H 72.0579 0.278752 -3.21594 0
M  V30 753 H 71.1099 -2.14016 -3.14486 0
M  V30 754 H 72.4219 -2.62219 -4.24314 0
M  V30 755 H 71.5759 -1.02965 -5.97899 0
M  V30 756 H 70.3149 -0.445808 -4.85658 0
M  V30 757 H 69.3199 -2.74871 -4.76157 0
M  V30 758 H 70.5449 -3.33024 -5.91837 0
M  V30 759 H 68.4909 -1.15208 -6.45804 0
M  V30 760 H 68.4079 -2.78687 -7.02759 0
M  V30 761 H 69.6759 -1.7432 -7.59758 0
M  V30 762 N 73.905 1.17692 -1.04816 0
M  V30 763 C 75.321 1.39863 -0.768794 0
M  V30 764 C 75.521 1.91118 0.638451 0
M  V30 765 O 74.577 2.10036 1.40146 0
M  V30 766 C 75.89 2.39274 -1.82122 0
M  V30 767 C 77.438 2.52987 -1.843 0
M  V30 768 C 77.913 3.55669 -2.88555 0
M  V30 769 N 79.404 3.63183 -2.87493 0
M  V30 770 C 80.139 4.42381 -3.64811 0
M  V30 771 N 79.635 5.25125 -4.51903 0
M  V30 772 N 81.428 4.37217 -3.53267 0
M  V30 773 H 73.579 0.82752 -1.95617 0
M  V30 774 H 75.842 0.426123 -0.846831 0
M  V30 775 H 75.548 2.08678 -2.83102 0
M  V30 776 H 75.422 3.38725 -1.65967 0
M  V30 777 H 77.809 2.82896 -0.839869 0
M  V30 778 H 77.89 1.53623 -2.04532 0
M  V30 779 H 77.534 3.26499 -3.89051 0
M  V30 780 H 77.464 4.54728 -2.65575 0
M  V30 781 H 79.955 3.04103 -2.24343 0
M  V30 782 H 80.268 5.82728 -5.07591 0
M  V30 783 H 78.613 5.24519 -4.55966 0
M  V30 784 H 81.804 3.71626 -2.84625 0
M  V30 785 H 81.977 4.98696 -4.13771 0
M  V30 786 N 75.3831 0.828654 1.34056 0
M  V30 787 C 76.6111 0.43262 2.02326 0
M  V30 788 C 77.0261 -0.963147 1.62385 0
M  V30 789 O 76.3831 -1.62425 0.832121 0
M  V30 790 C 76.4341 0.53182 3.57567 0
M  V30 791 O 76.1551 1.87258 3.96063 0
M  V30 792 C 77.6561 0.131422 4.43105 0
M  V30 793 H 74.8761 0.172923 0.648335 0
M  V30 794 H 77.4201 1.1184 1.71208 0
M  V30 795 H 75.5751 -0.105938 3.87255 0
M  V30 796 H 75.9891 1.85087 4.90758 0
M  V30 797 H 77.4631 0.251904 5.51425 0
M  V30 798 H 77.9401 -0.925645 4.29335 0
M  V30 799 H 78.5461 0.743207 4.18756 0
M  V30 800 N 76.8612 -1.46375 0.584142 0
M  V30 801 C 77.7932 -2.28443 -0.186119 0
M  V30 802 C 78.8062 -1.38596 -0.854115 0
M  V30 803 O 79.9952 -1.63183 -0.723438 0
M  V30 804 C 77.0952 -3.13671 -1.28311 0
M  V30 805 C 76.2682 -4.31652 -0.706758 0
M  V30 806 C 75.3272 -4.98267 -1.69163 0
M  V30 807 O 74.3532 -5.55815 -1.22712 0
M  V30 808 N 75.5552 -4.95408 -3.02575 0
M  V30 809 H 78.3202 -2.9519 0.517986 0
M  V30 810 H 75.8812 -1.56303 0.42201 0
M  V30 811 H 77.8732 -3.55101 -1.94128 0
M  V30 812 H 76.4432 -2.48989 -1.89005 0
M  V30 813 H 75.6632 -3.93989 0.128908 0
M  V30 814 H 76.9512 -5.07906 -0.301506 0
M  V30 815 H 76.3492 -4.49902 -3.42936 0
M  V30 816 H 74.9062 -5.40774 -3.63877 0
M  V30 817 N 78.3393 -0.321999 -1.54275 0
M  V30 818 C 79.2693 0.537411 -2.27231 0
M  V30 819 C 80.2503 1.12064 -1.27968 0
M  V30 820 O 81.4353 1.14606 -1.56777 0
M  V30 821 C 78.5653 1.69919 -3.02894 0
M  V30 822 C 77.5193 1.24534 -4.09482 0
M  V30 823 C 76.8453 2.49394 -4.72977 0
M  V30 824 C 78.1453 0.361335 -5.21049 0
M  V30 825 H 79.8393 -0.0711406 -2.99315 0
M  V30 826 H 77.3853 -0.0356555 -1.43956 0
M  V30 827 H 79.3383 2.30668 -3.52662 0
M  V30 828 H 78.0623 2.33431 -2.28424 0
M  V30 829 H 76.7213 0.660782 -3.60596 0
M  V30 830 H 76.3693 3.11265 -3.95124 0
M  V30 831 H 76.0693 2.19718 -5.44975 0
M  V30 832 H 77.5933 3.10908 -5.25517 0
M  V30 833 H 79.0073 0.875072 -5.66582 0
M  V30 834 H 77.4043 0.157428 -5.99893 0
M  V30 835 H 78.4743 -0.60822 -4.8107 0
M  V30 836 N 79.8174 1.5752 -0.0501392 0
M  V30 837 C 81.0654 1.9227 0.622642 0
M  V30 838 C 81.3864 0.929083 1.71444 0
M  V30 839 O 80.6564 -0.0262186 1.95882 0
M  V30 840 H 79.2364 0.709739 0.232981 0
M  V30 841 H 81.8984 1.94628 -0.102898 0
M  V30 842 H 80.9944 2.93479 1.06191 0
M  V30 843 N 81.2955 -0.223234 1.56011 0
M  V30 844 C 82.2275 -1.30006 1.88762 0
M  V30 845 C 83.2405 -1.43129 0.775746 0
M  V30 846 O 84.4295 -1.44057 1.05403 0
M  V30 847 C 81.5295 -2.67589 2.07965 0
M  V30 848 C 80.7025 -2.76434 3.38973 0
M  V30 849 C 79.7615 -3.95019 3.47629 0
M  V30 850 O 78.7875 -3.83436 4.20672 0
M  V30 851 N 79.9895 -5.09249 2.78649 0
M  V30 852 H 82.7545 -1.02238 2.81722 0
M  V30 853 H 80.3155 -0.413278 1.56536 0
M  V30 854 H 82.3075 -3.45297 2.11073 0
M  V30 855 H 80.8775 -2.87964 1.21638 0
M  V30 856 H 80.0975 -1.85216 3.47978 0
M  V30 857 H 81.3855 -2.79313 4.25278 0
M  V30 858 H 80.7835 -5.21556 2.19081 0
M  V30 859 H 79.3405 -5.85007 2.8742 0
M  V30 860 N 82.7736 -1.49793 -0.48987 0
M  V30 861 C 84.1846 -1.52914 -1.07118 0
M  V30 862 C 84.5356 -0.321738 -1.93544 0
M  V30 863 O 83.6606 0.567338 -2.08831 0
M  V30 864 C 84.2556 -2.771 -1.94938 0
M  V30 865 C 82.8146 -2.82963 -2.48212 0
M  V30 866 C 81.9616 -2.46972 -1.26096 0
M  V30 867 H 84.9126 -1.56329 -0.273289 0
M  V30 868 H 84.9336 -2.57892 -2.79771 0
M  V30 869 H 84.4456 -3.64959 -1.32009 0
M  V30 870 H 82.5466 -1.99411 -3.14748 0
M  V30 871 H 82.6596 -3.85406 -2.84603 0
M  V30 872 H 81.0236 -1.98994 -1.58976 0
M  V30 873 H 81.8066 -3.37118 -0.648581 0
M  V30 874 N 84.2517 0.741722 -1.39055 0
M  V30 875 C 85.6627 1.31966 -1.32068 0
M  V30 876 C 86.0137 1.96192 0.0180797 0
M  V30 877 O 85.1387 1.95861 0.920196 0
M  V30 878 C 85.7337 2.39954 -2.39181 0
M  V30 879 C 84.2927 2.93438 -2.35735 0
M  V30 880 C 83.4397 1.66936 -2.21422 0
M  V30 881 H 86.3907 0.539721 -1.4924 0
M  V30 882 H 86.4117 3.20182 -2.05581 0
M  V30 883 H 85.9237 1.9318 -3.36605 0
M  V30 884 H 84.0247 3.4451 -1.41929 0
M  V30 885 H 84.1377 3.4701 -3.30335 0
M  V30 886 H 82.5017 1.91016 -1.68478 0
M  V30 887 H 83.2847 1.22224 -3.20806 0
M  V30 888 N 85.7298 1.2412 0.971189 0
M  V30 889 C 86.6928 1.03156 2.04674 0
M  V30 890 C 87.6928 -0.00990322 1.60797 0
M  V30 891 O 88.8828 0.230729 1.72665 0
M  V30 892 C 86.0148 0.562765 3.36223 0
M  V30 893 H 87.2078 1.98614 2.24705 0
M  V30 894 H 84.7608 1.06293 1.14593 0
M  V30 895 H 85.4958 -0.395176 3.21883 0
M  V30 896 H 85.2808 1.31441 3.69413 0
M  V30 897 H 86.7708 0.437015 4.15307 0
M  V30 898 N 87.2079 -1.17134 1.05439 0
M  V30 899 C 88.6189 -1.69084 0.791676 0
M  V30 900 C 88.9699 -1.83822 -0.685839 0
M  V30 901 O 88.0949 -1.52757 -1.53278 0
M  V30 902 C 88.6899 -3.07119 1.4305 0
M  V30 903 C 87.2489 -3.56225 1.21577 0
M  V30 904 C 86.3959 -2.32421 1.51247 0
M  V30 905 H 89.3469 -1.01617 1.219 0
M  V30 906 H 89.3679 -3.71087 0.84112 0
M  V30 907 H 88.8799 -2.9636 2.50584 0
M  V30 908 H 86.9809 -3.72257 0.159787 0
M  V30 909 H 87.0939 -4.38837 1.92246 0
M  V30 910 H 85.4579 -2.3701 0.932653 0
M  V30 911 H 86.2409 -2.24268 2.5992 0
M  V30 912 N 88.686 -0.835752 -1.33615 0
M  V30 913 C 89.934 -0.429109 -1.97492 0
M  V30 914 C 90.255 1.01433 -1.66543 0
M  V30 915 O 89.525 1.70611 -0.962744 0
M  V30 916 H 88.105 -0.155686 -0.730596 0
M  V30 917 H 90.767 -1.06802 -1.63031 0
M  V30 918 H 89.863 -0.55861 -3.0706 0
M  V30 919 N 90.1641 1.46063 -0.591896 0
M  V30 920 C 91.0941 2.33172 0.123673 0
M  V30 921 C 92.0751 1.45897 0.87453 0
M  V30 922 O 93.2601 1.74698 0.848181 0
M  V30 923 C 90.3901 3.28336 1.13194 0
M  V30 924 C 89.3441 4.25124 0.495324 0
M  V30 925 C 88.6701 5.09863 1.61071 0
M  V30 926 C 89.9701 5.19143 -0.573425 0
M  V30 927 H 91.6641 2.93252 -0.603646 0
M  V30 928 H 89.2101 1.41014 -0.291741 0
M  V30 929 H 91.1631 3.88137 1.64097 0
M  V30 930 H 89.8871 2.66383 1.88965 0
M  V30 931 H 88.5461 3.66599 0.00729452 0
M  V30 932 H 88.1941 4.44288 2.35832 0
M  V30 933 H 87.8941 5.75417 1.19035 0
M  V30 934 H 89.4181 5.72529 2.12233 0
M  V30 935 H 90.8321 5.73106 -0.1491 0
M  V30 936 H 89.2291 5.93089 -0.914636 0
M  V30 937 H 90.2991 4.62519 -1.45617 0
M  V30 938 N 91.6422 0.330177 1.54103 0
M  V30 939 C 92.5742 -0.566902 2.22079 0
M  V30 940 C 93.5872 -1.07462 1.22294 0
M  V30 941 O 94.7762 -0.987065 1.48726 0
M  V30 942 C 91.8762 -1.79138 2.87685 0
M  V30 943 C 91.0492 -1.42123 4.13666 0
M  V30 944 C 90.1082 -2.50394 4.62806 0
M  V30 945 O 89.1342 -2.14261 5.27334 0
M  V30 946 N 90.3362 -3.81433 4.37595 0
M  V30 947 H 93.1012 0.0151844 2.99696 0
M  V30 948 H 90.6622 0.153681 1.61169 0
M  V30 949 H 92.6542 -2.50975 3.1748 0
M  V30 950 H 91.2242 -2.28115 2.13734 0
M  V30 951 H 90.4442 -0.534201 3.90564 0
M  V30 952 H 91.7322 -1.14971 4.9564 0
M  V30 953 H 91.1302 -4.13584 3.8596 0
M  V30 954 H 89.6872 -4.4948 4.72029 0
M  V30 955 N 93.1203 -1.57491 0.0584922 0
M  V30 956 C 94.5313 -1.80526 -0.476138 0
M  V30 957 C 94.8823 -0.971334 -1.70469 0
M  V30 958 O 94.0073 -0.190012 -2.15564 0
M  V30 959 C 94.6023 -3.27424 -0.870587 0
M  V30 960 C 93.1613 -3.51351 -1.35015 0
M  V30 961 C 92.3083 -2.75343 -0.32887 0
M  V30 962 H 95.2593 -1.56133 0.284312 0
M  V30 963 H 95.2803 -3.38745 -1.73299 0
M  V30 964 H 94.7923 -3.88093 0.0237627 0
M  V30 965 H 92.8933 -2.95971 -2.26345 0
M  V30 966 H 93.0063 -4.60059 -1.33726 0
M  V30 967 H 91.3703 -2.417 -0.803321 0
M  V30 968 H 92.1533 -3.38743 0.557521 0
M  V30 969 N 94.5984 0.214957 -1.56127 0
M  V30 970 C 96.0094 0.781386 -1.69562 0
M  V30 971 C 96.3604 1.84707 -0.66165 0
M  V30 972 O 95.4854 2.156 0.185927 0
M  V30 973 C 96.0804 1.42411 -3.07416 0
M  V30 974 C 94.6394 1.93786 -3.22683 0
M  V30 975 C 93.7864 0.800438 -2.65496 0
M  V30 976 H 96.7374 -0.00980633 -1.58697 0
M  V30 977 H 96.7584 2.29309 -3.0364 0
M  V30 978 H 96.2704 0.64826 -3.82648 0
M  V30 979 H 94.3714 2.74152 -2.52332 0
M  V30 980 H 94.4844 2.1133 -4.29973 0
M  V30 981 H 92.8484 1.2095 -2.2415 0
M  V30 982 H 93.6314 0.0371471 -3.4328 0
M  V30 983 N 96.0765 1.50051 0.48192 0
M  V30 984 C 97.4925 1.37237 0.814756 0
M  V30 985 C 97.6925 0.420109 1.97072 0
M  V30 986 O 96.7485 -0.141246 2.52105 0
M  V30 987 C 98.0615 2.78375 1.13701 0
M  V30 988 C 99.6095 2.87213 1.2441 0
M  V30 989 C 100.084 4.29161 1.59954 0
M  V30 990 N 101.575 4.32061 1.66967 0
M  V30 991 C 102.31 5.38879 1.95952 0
M  V30 992 N 101.806 6.55918 2.23031 0
M  V30 993 N 103.599 5.26312 1.97363 0
M  V30 994 H 95.7505 2.10546 -0.28005 0
M  V30 995 H 98.0135 0.945921 -0.0627454 0
M  V30 996 H 97.7195 3.49845 0.360787 0
M  V30 997 H 97.5935 3.14941 2.07586 0
M  V30 998 H 99.9805 2.15969 2.01101 0
M  V30 999 H 100.061 2.54204 0.285299 0
M  V30 1000 H 99.7055 5.00938 0.838067 0
M  V30 1001 H 99.6355 4.59648 2.56966 0
M  V30 1002 H 102.126 3.47661 1.48123 0
M  V30 1003 H 102.439 7.33139 2.44391 0
M  V30 1004 H 100.784 6.59112 2.20447 0
M  V30 1005 H 103.975 4.33876 1.75697 0
M  V30 1006 H 104.148 6.09649 2.19618 0
M  V30 1007 N 97.5546 -0.734337 1.39446 0
M  V30 1008 C 98.4646 -1.87879 1.40495 0
M  V30 1009 C 99.4806 -1.714 0.299672 0
M  V30 1010 O 100.657 -1.93991 0.541249 0
M  V30 1011 C 97.7216 -3.23477 1.24754 0
M  V30 1012 C 96.7826 -3.52344 2.45259 0
M  V30 1013 C 96.0156 -4.81473 2.30259 0
M  V30 1014 O 96.2386 -5.55237 1.30643 0
M  V30 1015 O 95.1726 -5.10254 3.19256 0
M  V30 1016 H 98.9986 -1.89949 2.36966 0
M  V30 1017 H 96.5836 -0.882243 1.20569 0
M  V30 1018 H 98.4656 -4.04509 1.18111 0
M  V30 1019 H 97.1406 -3.22176 0.313781 0
M  V30 1020 H 96.0476 -2.71396 2.57478 0
M  V30 1021 H 97.3806 -3.58426 3.37331 0
M  V30 1022 N 99.0327 -1.24633 -0.964593 0
M  V30 1023 C 99.9647 -0.999302 -2.06268 0
M  V30 1024 C 100.978 0.0323226 -1.62768 0
M  V30 1025 O 102.167 -0.205079 -1.77318 0
M  V30 1026 C 99.2667 -0.486816 -3.35385 0
M  V30 1027 C 98.4397 -1.5823 -4.07777 0
M  V30 1028 C 97.4987 -1.07191 -5.15166 0
M  V30 1029 O 96.5247 -1.76426 -5.41168 0
M  V30 1030 N 97.7267 0.0920373 -5.80427 0
M  V30 1031 H 100.492 -1.94477 -2.28033 0
M  V30 1032 H 98.0527 -1.15704 -1.13244 0
M  V30 1033 H 100.045 -0.130066 -4.04491 0
M  V30 1034 H 98.6147 0.364459 -3.10468 0
M  V30 1035 H 97.8347 -2.11109 -3.32906 0
M  V30 1036 H 99.1227 -2.31854 -4.52903 0
M  V30 1037 H 98.5207 0.670784 -5.61709 0
M  V30 1038 H 97.0777 0.389905 -6.50633 0
M  V30 1039 N 100.511 1.16574 -1.06058 0
M  V30 1040 C 101.441 2.23057 -0.690488 0
M  V30 1041 C 102.422 1.67141 0.315901 0
M  V30 1042 O 103.607 1.93253 0.191556 0
M  V30 1043 C 100.737 3.47222 -0.073625 0
M  V30 1044 C 99.6908 4.16016 -1.00573 0
M  V30 1045 C 99.0168 5.34104 -0.252289 0
M  V30 1046 C 100.317 4.67264 -2.33371 0
M  V30 1047 H 102.011 2.54271 -1.58072 0
M  V30 1048 H 99.5568 1.22218 -0.76149 0
M  V30 1049 H 101.51 4.20939 0.19714 0
M  V30 1050 H 100.234 3.15302 0.85161 0
M  V30 1051 H 98.8928 3.44223 -1.2612 0
M  V30 1052 H 98.5408 4.98437 0.675988 0
M  V30 1053 H 98.2408 5.81072 -0.873455 0
M  V30 1054 H 99.7648 6.10599 0.0109857 0
M  V30 1055 H 101.179 5.32573 -2.12223 0
M  V30 1056 H 99.5758 5.24843 -2.90963 0
M  V30 1057 H 100.646 3.83602 -2.96611 0
M  V30 1058 N 101.989 0.842826 1.3317 0
M  V30 1059 C 102.899 0.281444 2.32906 0
M  V30 1060 C 103.915 -0.594587 1.63526 0
M  V30 1061 O 105.091 -0.49777 1.95152 0
M  V30 1062 C 102.156 -0.530929 3.42611 0
M  V30 1063 C 101.217 0.369843 4.27704 0
M  V30 1064 C 100.45 -0.403853 5.3217 0
M  V30 1065 O 100.673 -1.63513 5.46461 0
M  V30 1066 O 99.6069 0.224199 6.01482 0
M  V30 1067 H 103.433 1.10744 2.82789 0
M  V30 1068 H 101.018 0.60545 1.36582 0
M  V30 1069 H 102.9 -0.992437 4.09547 0
M  V30 1070 H 101.575 -1.33392 2.94938 0
M  V30 1071 H 100.482 0.879275 3.6362 0
M  V30 1072 H 101.815 1.13771 4.78871 0
M  V30 1073 N 103.467 -1.45747 0.599634 0
M  V30 1074 C 104.692 -2.07178 0.0960198 0
M  V30 1075 C 105.117 -1.44268 -1.207 0
M  V30 1076 O 104.475 -0.532503 -1.73303 0
M  V30 1077 C 104.523 -3.60579 -0.0385348 0
M  V30 1078 O 103.627 -3.97713 -1.0908 0
M  V30 1079 H 102.968 -0.660251 0.0704593 0
M  V30 1080 H 105.498 -1.87124 0.827385 0
M  V30 1081 H 105.508 -4.07298 -0.239304 0
M  V30 1082 H 104.183 -4.05756 0.912947 0
M  V30 1083 H 102.76 -3.62678 -0.867135 0
M  V30 1084 N 104.945 -0.338344 -1.53925 0
M  V30 1085 C 105.875 0.51328 -2.27789 0
M  V30 1086 C 106.856 1.107 -1.29149 0
M  V30 1087 O 108.041 1.12937 -1.57984 0
M  V30 1088 C 105.171 1.66697 -3.04679 0
M  V30 1089 C 104.125 1.20183 -4.1078 0
M  V30 1090 C 103.451 2.44363 -4.75595 0
M  V30 1091 C 104.751 0.30605 -5.21403 0
M  V30 1092 H 106.445 -0.102883 -2.99223 0
M  V30 1093 H 103.991 -0.0509219 -1.4391 0
M  V30 1094 H 105.944 2.26915 -3.55088 0
M  V30 1095 H 104.668 2.30995 -2.30887 0
M  V30 1096 H 103.327 0.622499 -3.61276 0
M  V30 1097 H 102.975 3.07057 -3.98403 0
M  V30 1098 H 102.675 2.13925 -5.47275 0
M  V30 1099 H 104.199 3.05317 -5.28786 0
M  V30 1100 H 105.613 0.814929 -5.67478 0
M  V30 1101 H 104.01 0.0937929 -6.00027 0
M  V30 1102 H 105.08 -0.65921 -4.80398 0
M  V30 1103 N 106.423 1.57458 -0.0668435 0
M  V30 1104 C 107.67 1.93301 0.603406 0
M  V30 1105 C 107.998 0.946486 1.69917 0
M  V30 1106 O 107.253 -0.0387021 1.95662 0
M  V30 1107 C 107.552 3.35784 1.22409 0
M  V30 1108 C 107.218 4.50179 0.254955 0
M  V30 1109 C 105.88 4.81199 -0.0116746 0
M  V30 1110 C 108.232 5.19598 -0.408338 0
M  V30 1111 C 105.56 5.78978 -0.94877 0
M  V30 1112 C 107.912 6.18381 -1.33372 0
M  V30 1113 C 106.576 6.47821 -1.60887 0
M  V30 1114 H 105.846 0.707338 0.220802 0
M  V30 1115 H 108.493 1.91012 -0.136665 0
M  V30 1116 H 106.798 3.34515 2.03978 0
M  V30 1117 H 108.495 3.60804 1.74989 0
M  V30 1118 H 105.085 4.25983 0.472954 0
M  V30 1119 H 109.269 4.95832 -0.215456 0
M  V30 1120 H 104.525 6.00115 -1.16925 0
M  V30 1121 H 108.699 6.71277 -1.85367 0
M  V30 1122 H 106.326 7.23399 -2.33661 0
M  V30 1123 N 107.901 -0.206675 1.56239 0
M  V30 1124 C 109.149 -0.927007 1.79586 0
M  V30 1125 C 109.47 -1.8427 0.637929 0
M  V30 1126 O 108.74 -1.92849 -0.344398 0
M  V30 1127 H 107.32 -0.345292 0.662407 0
M  V30 1128 H 109.982 -0.21496 1.93711 0
M  V30 1129 H 109.078 -1.52501 2.72305 0
M  V30 1130 N 109.379 -1.50304 -0.473955 0
M  V30 1131 C 110.289 -1.7174 -1.5982 0
M  V30 1132 C 111.305 -0.600457 -1.63311 0
M  V30 1133 O 112.481 -0.878441 -1.81233 0
M  V30 1134 C 109.546 -1.80427 -2.96052 0
M  V30 1135 C 108.607 -3.04148 -3.02972 0
M  V30 1136 C 107.84 -3.12411 -4.32706 0
M  V30 1137 O 108.063 -2.27542 -5.23049 0
M  V30 1138 O 106.997 -4.05113 -4.45159 0
M  V30 1139 H 110.823 -2.67035 -1.44657 0
M  V30 1140 H 108.408 -1.34366 -0.653148 0
M  V30 1141 H 110.29 -1.88338 -3.7697 0
M  V30 1142 H 108.965 -0.883156 -3.11419 0
M  V30 1143 H 107.872 -3.0174 -2.21142 0
M  V30 1144 H 109.205 -3.95829 -2.92541 0
M  V30 1145 N 110.857 0.726932 -1.39834 0
M  V30 1146 C 111.787 1.85405 -1.41941 0
M  V30 1147 C 112.768 1.67751 -0.281728 0
M  V30 1148 O 113.953 1.8795 -0.488717 0
M  V30 1149 C 111.083 3.23243 -1.2701 0
M  V30 1150 C 110.037 3.55549 -2.38262 0
M  V30 1151 C 109.363 4.9241 -2.08415 0
M  V30 1152 C 110.663 3.577 -3.80589 0
M  V30 1153 H 112.357 1.83899 -2.36266 0
M  V30 1154 H 109.903 0.883349 -1.13723 0
M  V30 1155 H 111.856 4.01775 -1.27103 0
M  V30 1156 H 110.58 3.25296 -0.291564 0
M  V30 1157 H 109.239 2.79351 -2.37399 0
M  V30 1158 H 108.887 4.91052 -1.0898 0
M  V30 1159 H 108.587 5.14992 -2.82943 0
M  V30 1160 H 110.111 5.73289 -2.10171 0
M  V30 1161 H 111.525 4.26293 -3.83337 0
M  V30 1162 H 109.922 3.91804 -4.54543 0
M  V30 1163 H 110.992 2.57328 -4.10987 0
M  V30 1164 N 112.336 1.25143 0.95797 0
M  V30 1165 C 113.584 1.09476 1.69881 0
M  V30 1166 C 113.905 -0.365502 1.91544 0
M  V30 1167 O 113.175 -1.25985 1.50015 0
M  V30 1168 H 111.755 0.402128 0.629525 0
M  V30 1169 H 114.417 1.57214 1.15194 0
M  V30 1170 H 113.513 1.60046 2.6794 0
M  V30 1171 N 113.814 -1.1601 1.06675 0
M  V30 1172 C 114.764 -2.18512 0.650888 0
M  V30 1173 C 115.748 -1.57677 -0.320441 0
M  V30 1174 O 116.94 -1.76482 -0.135266 0
M  V30 1175 C 114.069 -3.43273 0.0429255 0
M  V30 1176 C 113.155 -4.11176 1.03898 0
M  V30 1177 N 113.546 -4.54672 2.216 0
M  V30 1178 C 111.844 -4.37417 0.870779 0
M  V30 1179 C 112.545 -5.07248 2.84736 0
M  V30 1180 N 111.521 -5.0037 2.12441 0
M  V30 1181 H 115.323 -2.49863 1.54745 0
M  V30 1182 H 112.837 -1.32503 0.938975 0
M  V30 1183 H 114.834 -4.16006 -0.272857 0
M  V30 1184 H 113.494 -3.13408 -0.84884 0
M  V30 1185 H 114.505 -4.4828 2.59356 0
M  V30 1186 H 111.182 -4.17488 0.0313293 0
M  V30 1187 H 112.572 -5.50912 3.84636 0
M  V30 1188 N 115.292 -0.849877 -1.32721 0
M  V30 1189 C 116.708 -0.539102 -1.50219 0
M  V30 1190 C 116.908 0.931271 -1.78689 0
M  V30 1191 O 115.964 1.71455 -1.85363 0
M  V30 1192 C 117.277 -1.42196 -2.64954 0
M  V30 1193 C 118.825 -1.42189 -2.78839 0
M  V30 1194 C 119.3 -2.28985 -3.96648 0
M  V30 1195 N 120.791 -2.26754 -4.03902 0
M  V30 1196 C 121.526 -2.90644 -4.94281 0
M  V30 1197 N 121.022 -3.63629 -5.897 0
M  V30 1198 N 122.815 -2.80057 -4.87365 0
M  V30 1199 H 114.966 -1.80156 -1.12506 0
M  V30 1200 H 117.229 -0.769217 -0.554085 0
M  V30 1201 H 116.935 -2.46733 -2.50631 0
M  V30 1202 H 116.809 -1.10591 -3.60624 0
M  V30 1203 H 119.196 -0.38419 -2.92588 0
M  V30 1204 H 119.277 -1.77807 -1.83898 0
M  V30 1205 H 118.921 -3.32819 -3.83658 0
M  V30 1206 H 118.851 -1.90702 -4.90857 0
M  V30 1207 H 121.342 -1.73688 -3.3562 0
M  V30 1208 H 121.655 -4.09558 -6.55349 0
M  V30 1209 H 120 -3.67737 -5.89741 0
M  V30 1210 H 123.191 -2.22593 -4.11789 0
M  V30 1211 H 123.364 -3.30132 -5.57599 0
M  V30 1212 N 116.77 1.45427 -0.607355 0
M  V30 1213 C 118.181 1.85756 -0.187535 0
M  V30 1214 C 118.532 1.5077 1.25551 0
M  V30 1215 O 117.657 0.93427 1.95193 0
M  V30 1216 C 118.252 3.37154 -0.333572 0
M  V30 1217 C 116.811 3.76387 0.0315542 0
M  V30 1218 C 115.958 2.69377 -0.658117 0
M  V30 1219 H 118.909 1.36231 -0.81405 0
M  V30 1220 H 118.93 3.78014 0.43428 0
M  V30 1221 H 118.442 3.62586 -1.38393 0
M  V30 1222 H 116.543 3.56571 1.0811 0
M  V30 1223 H 116.656 4.77731 -0.361935 0
M  V30 1224 H 115.02 2.5452 -0.0957873 0
M  V30 1225 H 115.803 2.97646 -1.7106 0
M  V30 1226 N 118.248 0.346503 1.53744 0
M  V30 1227 C 119.158 -0.517293 2.28826 0
M  V30 1228 C 120.174 -1.10935 1.3405 0
M  V30 1229 O 121.35 -1.1244 1.6709 0
M  V30 1230 C 118.415 -1.65098 3.04866 0
M  V30 1231 C 117.476 -1.0884 4.15274 0
M  V30 1232 C 116.709 -2.16806 4.87679 0
M  V30 1233 O 116.932 -3.3758 4.59778 0
M  V30 1234 O 115.866 -1.80934 5.74061 0
M  V30 1235 H 119.692 0.0931396 3.03557 0
M  V30 1236 H 117.277 0.111458 1.48984 0
M  V30 1237 H 119.159 -2.31053 3.5241 0
M  V30 1238 H 117.834 -2.24717 2.32989 0
M  V30 1239 H 116.741 -0.3933 3.72027 0
M  V30 1240 H 118.074 -0.537036 4.89261 0
M  V30 1241 N 119.726 -1.57421 0.075193 0
M  V30 1242 C 120.689 -2.11791 -0.876203 0
M  V30 1243 C 121.689 -1.04268 -1.22412 0
M  V30 1244 O 122.879 -1.30242 -1.15684 0
M  V30 1245 C 120.011 -2.62207 -2.17854 0
M  V30 1246 H 121.204 -2.9716 -0.40444 0
M  V30 1247 H 118.757 -1.55333 -0.173557 0
M  V30 1248 H 119.492 -1.803 -2.6956 0
M  V30 1249 H 119.277 -3.40802 -1.93897 0
M  V30 1250 H 120.767 -3.04335 -2.85955 0
M  V30 1251 N 121.204 0.198386 -1.56346 0
M  V30 1252 C 122.45 0.920648 -1.80698 0
M  V30 1253 C 122.783 1.83045 -0.648697 0
M  V30 1254 O 122.058 1.91308 0.350925 0
M  V30 1255 C 122.341 1.73971 -3.15287 0
M  V30 1256 C 122.194 0.85485 -4.41602 0
M  V30 1257 C 123.513 2.71296 -3.46535 0
M  V30 1258 H 120.632 0.333261 -0.657348 0
M  V30 1259 H 123.274 0.188198 -1.89066 0
M  V30 1260 H 121.424 2.36416 -3.08285 0
M  V30 1261 H 123.096 0.245362 -4.60647 0
M  V30 1262 H 121.339 0.161398 -4.335 0
M  V30 1263 H 122.01 1.46286 -5.32264 0
M  V30 1264 H 124.486 2.18983 -3.53816 0
M  V30 1265 H 123.362 3.2569 -4.41834 0
M  V30 1266 H 123.623 3.5018 -2.69864 0
M  V30 1267 N 122.682 1.50554 0.465978 0
M  V30 1268 C 123.912 1.65323 1.23903 0
M  V30 1269 C 124.32 0.338051 1.86155 0
M  V30 1270 O 123.663 -0.690518 1.70228 0
M  V30 1271 C 123.725 2.69048 2.3844 0
M  V30 1272 C 123.389 4.12462 1.96784 0
M  V30 1273 C 124.386 4.98168 1.48745 0
M  V30 1274 C 122.071 4.58407 2.05349 0
M  V30 1275 C 124.065 6.27868 1.0982 0
M  V30 1276 C 121.752 5.88112 1.66035 0
M  V30 1277 C 122.75 6.72668 1.18349 0
M  V30 1278 O 122.438 7.99951 0.795825 0
M  V30 1279 H 122.17 0.558629 0.38067 0
M  V30 1280 H 124.724 1.97561 0.562022 0
M  V30 1281 H 122.954 2.32062 3.09328 0
M  V30 1282 H 124.643 2.72985 3.0039 0
M  V30 1283 H 125.409 4.63885 1.41546 0
M  V30 1284 H 121.288 3.92735 2.41414 0
M  V30 1285 H 124.832 6.93819 0.725293 0
M  V30 1286 H 120.729 6.21914 1.72895 0
M  V30 1287 H 121.497 8.13265 0.924222 0
M  V30 1288 N 124.16 -0.719506 1.40217 0
M  V30 1289 C 125.406 -1.48152 1.38488 0
M  V30 1290 C 125.739 -1.94195 -0.0141867 0
M  V30 1291 O 125.014 -1.67884 -0.982096 0
M  V30 1292 C 125.297 -2.71035 2.37091 0
M  V30 1293 C 125.15 -2.30912 3.86005 0
M  V30 1294 C 126.469 -3.73182 2.33288 0
M  V30 1295 H 123.588 -0.537395 0.504357 0
M  V30 1296 H 126.23 -0.821472 1.71324 0
M  V30 1297 H 124.38 -3.27352 2.0922 0
M  V30 1298 H 126.052 -1.80107 4.24687 0
M  V30 1299 H 124.295 -1.62958 4.02029 0
M  V30 1300 H 124.966 -3.18978 4.50508 0
M  V30 1301 H 127.442 -3.26485 2.57966 0
M  V30 1302 H 126.318 -4.56806 3.04334 0
M  V30 1303 H 126.579 -4.21202 1.34317 0
M  V30 1304 N 125.638 -1.25649 -0.95132 0
M  V30 1305 C 126.884 -1.10757 -1.69884 0
M  V30 1306 C 127.217 0.350061 -1.91019 0
M  V30 1307 O 126.492 1.25783 -1.48354 0
M  V30 1308 C 126.775 -1.86606 -3.07978 0
M  V30 1309 C 126.628 -3.40217 -2.94232 0
M  V30 1310 C 127.947 -1.65182 -4.07925 0
M  V30 1311 H 125.066 -0.40374 -0.616574 0
M  V30 1312 H 127.708 -1.54521 -1.10558 0
M  V30 1313 H 125.858 -1.49409 -3.58621 0
M  V30 1314 H 127.53 -3.87108 -2.50889 0
M  V30 1315 H 125.773 -3.67759 -2.30078 0
M  V30 1316 H 126.444 -3.88505 -3.92133 0
M  V30 1317 H 128.92 -1.9757 -3.66204 0
M  V30 1318 H 127.796 -2.20683 -5.02583 0
M  V30 1319 H 128.057 -0.593933 -4.38092 0
M  V30 1320 N 127.117 1.15442 -1.07289 0
M  V30 1321 C 128.347 1.89821 -0.815576 0
M  V30 1322 C 128.755 1.7823 0.634867 0
M  V30 1323 O 128.098 1.13152 1.44715 0
M  V30 1324 C 128.16 3.40817 -1.14385 0
M  V30 1325 C 127.824 3.76193 -2.59476 0
M  V30 1326 C 128.821 3.77269 -3.57721 0
M  V30 1327 C 126.506 4.0652 -2.95037 0
M  V30 1328 C 128.5 4.08176 -4.89562 0
M  V30 1329 C 126.187 4.37092 -4.27076 0
M  V30 1330 C 127.185 4.37902 -5.24148 0
M  V30 1331 O 126.873 4.67741 -6.53815 0
M  V30 1332 H 126.605 0.608465 -0.294528 0
M  V30 1333 H 129.159 1.472 -1.43252 0
M  V30 1334 H 127.389 3.83835 -0.469865 0
M  V30 1335 H 129.078 3.96485 -0.869179 0
M  V30 1336 H 129.844 3.5394 -3.3159 0
M  V30 1337 H 125.723 4.05049 -2.20128 0
M  V30 1338 H 129.267 4.08723 -5.65324 0
M  V30 1339 H 125.164 4.59889 -4.5296 0
M  V30 1340 H 125.932 4.85509 -6.58957 0
M  V30 1341 N 128.595 0.856903 1.32268 0
M  V30 1342 C 129.872 0.382583 1.91822 0
M  V30 1343 C 130.252 -1.13407 1.78051 0
M  V30 1344 O 129.6 -1.95673 1.18001 0
M  V30 1345 C 129.81 0.849446 3.38505 0
M  V30 1346 C 131.158 0.867936 4.15634 0
M  V30 1347 O 132.182 0.794232 3.47232 0
M  V30 1348 O 131.041 0.972286 5.37781 0
M  V30 1349 H 128.135 0.112014 0.819379 0
M  V30 1350 H 130.681 0.943952 1.41024 0
M  V30 1351 H 129.453 1.89267 3.42482 0
M  V30 1352 H 129.076 0.265652 3.96712 0
M  V30 1353 N 130.073 -1.45103 0.615059 0
M  V30 1354 C 131.35 -1.95549 0.0448276 0
M  V30 1355 C 131.73 -1.55737 -1.4251 0
M  V30 1356 O 131.078 -0.823556 -2.13143 0
M  V30 1357 C 131.288 -3.48098 0.250785 0
M  V30 1358 C 132.636 -4.24384 0.135509 0
M  V30 1359 O 133.66 -3.55738 0.181299 0
M  V30 1360 O 132.519 -5.46493 0.0268878 0
M  V30 1361 H 129.613 -0.8264 -0.0314845 0
M  V30 1362 H 132.159 -1.55232 0.685642 0
M  V30 1363 H 130.931 -3.7007 1.27139 0
M  V30 1364 H 130.554 -3.95323 -0.424937 0
M  V30 1365 N 131.551 -0.354651 -1.53558 0
M  V30 1366 C 132.461 0.50515 -2.29097 0
M  V30 1367 C 133.477 1.10223 -1.34636 0
M  V30 1368 O 134.653 1.11553 -1.67684 0
M  V30 1369 C 131.718 1.63479 -3.05738 0
M  V30 1370 C 130.779 1.06636 -4.15845 0
M  V30 1371 C 130.012 2.14217 -4.88822 0
M  V30 1372 O 130.235 3.35137 -4.61562 0
M  V30 1373 O 129.169 1.77887 -5.75013 0
M  V30 1374 H 132.995 -0.109237 -3.03503 0
M  V30 1375 H 130.58 -0.119357 -1.48922 0
M  V30 1376 H 132.462 2.2918 -3.5363 0
M  V30 1377 H 131.137 2.23478 -2.34178 0
M  V30 1378 H 130.044 0.373565 -3.7223 0
M  V30 1379 H 131.377 0.511081 -4.89539 0
M  V30 1380 N 133.029 1.57378 -0.0835403 0
M  V30 1381 C 134.277 1.93547 0.581718 0
M  V30 1382 C 134.598 0.96524 1.69435 0
M  V30 1383 O 133.868 0.0153369 1.95894 0
M  V30 1384 H 132.448 0.714521 0.217874 0
M  V30 1385 H 135.11 1.94366 -0.144158 0
M  V30 1386 H 134.206 2.95665 0.999423 0
M  V30 1387 N 134.507 -0.190092 1.56449 0
M  V30 1388 C 135.755 -0.907908 1.80559 0
M  V30 1389 C 136.076 -1.83583 0.657438 0
M  V30 1390 O 135.346 -1.93203 -0.323924 0
M  V30 1391 H 133.926 -0.338247 0.666032 0
M  V30 1392 H 136.588 -0.194403 1.93928 0
M  V30 1393 H 135.684 -1.49604 2.73907 0
M  V30 1394 N 135.985 -1.50799 -0.457987 0
M  V30 1395 C 137.233 -1.62121 -1.2067 0
M  V30 1396 C 137.554 -0.329793 -1.92191 0
M  V30 1397 O 136.824 0.653409 -1.84682 0
M  V30 1398 H 135.404 -0.597441 -0.448411 0
M  V30 1399 H 138.066 -1.87637 -0.527096 0
M  V30 1400 H 137.162 -2.43882 -1.94751 0
M  V30 1401 N 137.463 0.71206 -1.40597 0
M  V30 1402 C 138.709 1.47292 -1.40274 0
M  V30 1403 C 139.064 1.92399 -0.00576812 0
M  V30 1404 O 138.357 1.65507 0.965297 0
M  V30 1405 C 138.551 2.71039 -2.32965 0
M  V30 1406 C 138.38 2.38035 -3.81536 0
M  V30 1407 C 137.15 2.29203 -4.50327 0
M  V30 1408 C 139.348 2.02076 -4.72938 0
M  V30 1409 N 137.33 1.88911 -5.84111 0
M  V30 1410 C 138.701 1.72412 -5.95545 0
M  V30 1411 C 140.756 1.88742 -4.60739 0
M  V30 1412 C 139.459 1.30756 -7.07316 0
M  V30 1413 C 141.485 1.4849 -5.72455 0
M  V30 1414 C 140.847 1.19726 -6.94151 0
M  V30 1415 H 136.946 0.536919 -0.568544 0
M  V30 1416 H 139.53 0.825424 -1.76337 0
M  V30 1417 H 137.701 3.33533 -1.99023 0
M  V30 1418 H 139.433 3.37404 -2.23474 0
M  V30 1419 H 136.188 2.47059 -4.04053 0
M  V30 1420 H 136.612 1.71293 -6.54972 0
M  V30 1421 H 141.254 2.0964 -3.67166 0
M  V30 1422 H 138.972 1.08601 -8.00769 0
M  V30 1423 H 142.558 1.38747 -5.65014 0
M  V30 1424 H 141.438 0.890482 -7.79128 0
M  V30 1425 N 138.941 1.26152 0.944643 0
M  V30 1426 C 139.904 1.07474 2.0244 0
M  V30 1427 C 140.904 0.0242064 1.60782 0
M  V30 1428 O 142.094 0.267302 1.72137 0
M  V30 1429 C 139.226 0.633956 3.34953 0
M  V30 1430 H 140.419 2.03336 2.20442 0
M  V30 1431 H 137.972 1.087 1.12312 0
M  V30 1432 H 138.707 -0.326811 3.22649 0
M  V30 1433 H 138.492 1.39247 3.66542 0
M  V30 1434 H 139.982 0.52501 4.14287 0
M  V30 1435 N 140.419 -1.14872 1.07899 0
M  V30 1436 C 141.667 -1.85422 0.803941 0
M  V30 1437 C 141.988 -1.83051 -0.67211 0
M  V30 1438 O 141.258 -1.27532 -1.48703 0
M  V30 1439 H 139.838 -0.686537 0.294408 0
M  V30 1440 H 142.5 -1.39226 1.3639 0
M  V30 1441 H 141.596 -2.90399 1.14346 0
M  V30 1442 N 141.898 -0.863906 -1.31812 0
M  V30 1443 C 143.314 -0.555004 -1.49639 0
M  V30 1444 C 143.514 0.912266 -1.79666 0
M  V30 1445 O 142.57 1.69479 -1.87171 0
M  V30 1446 C 143.883 -1.44998 -2.63431 0
M  V30 1447 C 145.431 -1.45138 -2.77316 0
M  V30 1448 C 145.906 -2.33179 -3.94197 0
M  V30 1449 N 147.397 -2.31025 -4.01474 0
M  V30 1450 C 148.132 -2.95871 -4.9117 0
M  V30 1451 N 147.628 -3.69863 -5.8581 0
M  V30 1452 N 149.421 -2.85211 -4.84367 0
M  V30 1453 H 141.572 -1.81339 -1.10589 0
M  V30 1454 H 143.835 -0.77505 -0.545895 0
M  V30 1455 H 143.541 -2.49377 -2.48 0
M  V30 1456 H 143.415 -1.14409 -3.59431 0
M  V30 1457 H 145.802 -0.415201 -2.92164 0
M  V30 1458 H 145.883 -1.79747 -1.82001 0
M  V30 1459 H 145.527 -3.3687 -3.80107 0
M  V30 1460 H 145.457 -1.95897 -4.88807 0
M  V30 1461 H 147.948 -1.77238 -3.33759 0
M  V30 1462 H 148.261 -4.16486 -6.50968 0
M  V30 1463 H 146.606 -3.73971 -5.85808 0
M  V30 1464 H 149.797 -2.26948 -4.09405 0
M  V30 1465 H 149.97 -3.36027 -5.54066 0
M  V30 1466 N 143.376 1.44774 -0.622745 0
M  V30 1467 C 144.623 2.02121 -0.1239 0
M  V30 1468 C 144.951 1.48915 1.25118 0
M  V30 1469 O 144.206 0.660045 1.84233 0
M  V30 1470 C 144.505 3.57364 -0.0508323 0
M  V30 1471 C 144.171 4.29787 -1.36358 0
M  V30 1472 C 142.833 4.4929 -1.72314 0
M  V30 1473 C 145.185 4.71062 -2.23048 0
M  V30 1474 C 142.513 5.07325 -2.94682 0
M  V30 1475 C 144.865 5.30452 -3.44679 0
M  V30 1476 C 143.529 5.48175 -3.80868 0
M  V30 1477 H 142.799 0.739612 -0.0453381 0
M  V30 1478 H 145.446 1.73648 -0.807389 0
M  V30 1479 H 143.751 3.85202 0.715991 0
M  V30 1480 H 145.448 3.99456 0.351533 0
M  V30 1481 H 142.038 4.14932 -1.07375 0
M  V30 1482 H 146.222 4.55715 -1.96565 0
M  V30 1483 H 141.478 5.19235 -3.22809 0
M  V30 1484 H 145.652 5.61385 -4.12092 0
M  V30 1485 H 143.279 5.92912 -4.75773 0
M  V30 1486 N 144.854 0.36279 1.53368 0
M  V30 1487 C 146.103 -0.22888 2.00397 0
M  V30 1488 C 146.416 -1.50096 1.25421 0
M  V30 1489 O 147.622 -2.17106 1.63025 0
M  V30 1490 C 146.078 -0.458417 3.56969 0
M  V30 1491 C 145.686 0.798877 4.4082 0
M  V30 1492 C 147.43 -1.00789 4.12361 0
M  V30 1493 C 145.337 0.539078 5.88938 0
M  V30 1494 H 144.267 -0.089305 0.748693 0
M  V30 1495 H 146.918 0.481099 1.77081 0
M  V30 1496 H 145.3 -1.22959 3.76427 0
M  V30 1497 H 146.474 1.57262 4.33134 0
M  V30 1498 H 144.789 1.27137 3.96516 0
M  V30 1499 H 147.386 -1.21754 5.20653 0
M  V30 1500 H 147.729 -1.9692 3.66781 0
M  V30 1501 H 148.262 -0.296961 3.9669 0
M  V30 1502 H 145.001 1.47064 6.3879 0
M  V30 1503 H 144.521 -0.196222 5.99479 0
M  V30 1504 H 146.2 0.163542 6.46793 0
M  V30 1505 N 146.332 -1.57332 0.0918853 0
M  V30 1506 C 147.578 -1.95328 -0.567313 0
M  V30 1507 C 147.933 -0.972866 -1.65991 0
M  V30 1508 O 147.226 0.00166256 -1.916 0
M  V30 1509 C 147.42 -3.37689 -1.17051 0
M  V30 1510 C 147.249 -4.49489 -0.137875 0
M  V30 1511 C 146.019 -5.04498 0.284515 0
M  V30 1512 C 148.217 -5.10393 0.63271 0
M  V30 1513 N 146.199 -5.99853 1.30576 0
M  V30 1514 C 147.57 -6.01435 1.50587 0
M  V30 1515 C 149.625 -4.93143 0.68658 0
M  V30 1516 C 148.328 -6.77077 2.42815 0
M  V30 1517 C 150.354 -5.69445 1.59645 0
M  V30 1518 C 149.716 -6.60151 2.45725 0
M  V30 1519 H 145.815 -0.761467 -0.178023 0
M  V30 1520 H 148.399 -1.93924 0.173706 0
M  V30 1521 H 146.57 -3.39793 -1.88136 0
M  V30 1522 H 148.302 -3.62872 -1.79181 0
M  V30 1523 H 145.057 -4.73489 -0.102593 0
M  V30 1524 H 145.481 -6.52231 1.81449 0
M  V30 1525 H 150.123 -4.22785 0.035244 0
M  V30 1526 H 147.841 -7.46699 3.08975 0
M  V30 1527 H 151.427 -5.58112 1.64323 0
M  V30 1528 H 150.307 -7.18159 3.14987 0
M  V30 1529 N 147.81 0.181792 -1.56548 0
M  V30 1530 C 148.74 1.22765 -1.98623 0
M  V30 1531 C 149.721 1.46747 -0.860189 0
M  V30 1532 O 150.906 1.58259 -1.12551 0
M  V30 1533 C 148.036 2.56894 -2.33715 0
M  V30 1534 C 146.99 2.475 -3.49182 0
M  V30 1535 C 146.316 3.86023 -3.69986 0
M  V30 1536 C 147.616 1.98866 -4.82959 0
M  V30 1537 H 149.31 0.877942 -2.86239 0
M  V30 1538 H 146.856 0.42088 -1.37712 0
M  V30 1539 H 148.809 3.30253 -2.61746 0
M  V30 1540 H 147.533 2.93632 -1.42997 0
M  V30 1541 H 146.192 1.76596 -3.21262 0
M  V30 1542 H 145.84 4.20136 -2.76576 0
M  V30 1543 H 145.54 3.80609 -4.47672 0
M  V30 1544 H 147.064 4.60984 -4.00407 0
M  V30 1545 H 148.478 2.61992 -5.09934 0
M  V30 1546 H 146.875 2.04424 -5.64208 0
M  V30 1547 H 147.945 0.942465 -4.75653 0
M  V30 1548 N 149.288 1.51039 0.449983 0
M  V30 1549 C 150.218 1.74379 1.55288 0
M  V30 1550 C 151.199 0.593236 1.5942 0
M  V30 1551 O 152.384 0.834625 1.7535 0
M  V30 1552 C 149.514 1.85728 2.93466 0
M  V30 1553 C 148.468 3.01078 3.04197 0
M  V30 1554 C 147.794 2.97595 4.44231 0
M  V30 1555 C 149.094 4.41254 2.7945 0
M  V30 1556 H 150.788 2.66725 1.36008 0
M  V30 1557 H 148.334 1.2835 0.652864 0
M  V30 1558 H 150.287 2.0064 3.70569 0
M  V30 1559 H 149.011 0.900207 3.13949 0
M  V30 1560 H 147.67 2.85851 2.29531 0
M  V30 1561 H 147.318 1.99691 4.61663 0
M  V30 1562 H 147.018 3.75046 4.52343 0
M  V30 1563 H 148.542 3.14583 5.23326 0
M  V30 1564 H 149.956 4.56897 3.46292 0
M  V30 1565 H 148.353 5.20315 2.98985 0
M  V30 1566 H 149.423 4.52164 1.75144 0
M  V30 1567 N 150.766 -0.704594 1.40972 0
M  V30 1568 C 152.043 -1.45847 1.30338 0
M  V30 1569 C 152.423 -2.10973 -0.0732344 0
M  V30 1570 O 151.771 -2.00997 -1.08685 0
M  V30 1571 C 151.981 -2.48525 2.45023 0
M  V30 1572 C 153.329 -3.1404 2.8577 0
M  V30 1573 O 154.353 -2.58848 2.44696 0
M  V30 1574 O 153.212 -4.13981 3.56766 0
M  V30 1575 H 150.306 -0.649092 0.512454 0
M  V30 1576 H 152.852 -0.735836 1.52917 0
M  V30 1577 H 151.624 -1.98994 3.36923 0
M  V30 1578 H 151.247 -3.2831 2.24272 0
M  V30 1579 N 152.244 -1.26651 -0.937939 0
M  V30 1580 C 153.49 -1.12553 -1.687 0
M  V30 1581 C 153.823 0.329782 -1.91379 0
M  V30 1582 O 153.098 1.24202 -1.4968 0
M  V30 1583 C 153.381 -1.89862 -3.05981 0
M  V30 1584 C 153.234 -3.43318 -2.90607 0
M  V30 1585 C 154.553 -1.69499 -4.0615 0
M  V30 1586 H 151.672 -0.410257 -0.612257 0
M  V30 1587 H 154.314 -1.55685 -1.08913 0
M  V30 1588 H 152.464 -1.53204 -3.57017 0
M  V30 1589 H 154.136 -3.89747 -2.46769 0
M  V30 1590 H 152.379 -3.70179 -2.26164 0
M  V30 1591 H 153.05 -3.92642 -3.8799 0
M  V30 1592 H 155.526 -2.01442 -3.64088 0
M  V30 1593 H 154.402 -2.26002 -5.00214 0
M  V30 1594 H 154.663 -0.640365 -4.37438 0
M  V30 1595 N 153.722 1.14298 -1.08507 0
M  V30 1596 C 154.971 1.84708 -0.810305 0
M  V30 1597 C 155.284 1.83903 0.666271 0
M  V30 1598 O 156.49 2.50112 1.05624 0
M  V30 1599 C 154.946 3.31572 -1.39957 0
M  V30 1600 C 154.554 3.40791 -2.90801 0
M  V30 1601 C 156.298 4.07087 -1.20334 0
M  V30 1602 C 154.205 4.81872 -3.4286 0
M  V30 1603 H 153.135 0.691985 -0.299454 0
M  V30 1604 H 155.786 1.28841 -1.30661 0
M  V30 1605 H 154.168 3.87183 -0.830976 0
M  V30 1606 H 155.342 2.95225 -3.53806 0
M  V30 1607 H 153.657 2.78732 -3.0935 0
M  V30 1608 H 156.254 5.11225 -1.56693 0
M  V30 1609 H 156.597 4.16054 -0.143237 0
M  V30 1610 H 157.13 3.57779 -1.73893 0
M  V30 1611 H 153.869 4.78094 -4.48449 0
M  V30 1612 H 153.389 5.27972 -2.84615 0
M  V30 1613 H 155.068 5.50765 -3.39509 0
M  V30 1614 N 155.201 0.870884 1.31352 0
M  V30 1615 C 156.449 0.48132 1.96285 0
M  V30 1616 C 156.77 -0.969813 1.69173 0
M  V30 1617 O 156.04 -1.67998 1.00764 0
M  V30 1618 H 154.62 0.175002 0.726212 0
M  V30 1619 H 157.282 1.11087 1.60143 0
M  V30 1620 H 156.378 0.639825 3.05471 0
M  V30 1621 N 156.679 -1.44442 0.630414 0
M  V30 1622 C 157.611 -2.2892 -0.113347 0
M  V30 1623 C 158.624 -1.41243 -0.80959 0
M  V30 1624 O 159.813 -1.65402 -0.671156 0
M  V30 1625 C 156.913 -3.17594 -1.18266 0
M  V30 1626 C 156.086 -4.33682 -0.569073 0
M  V30 1627 C 155.145 -5.03397 -1.53226 0
M  V30 1628 O 154.171 -5.59438 -1.04967 0
M  V30 1629 N 155.373 -5.04783 -2.86661 0
M  V30 1630 H 158.138 -2.93392 0.611636 0
M  V30 1631 H 155.699 -1.54881 0.471523 0
M  V30 1632 H 157.691 -3.61097 -1.82732 0
M  V30 1633 H 156.261 -2.54876 -1.80988 0
M  V30 1634 H 155.481 -3.9338 0.254187 0
M  V30 1635 H 156.769 -5.08608 -0.139767 0
M  V30 1636 H 156.167 -4.60584 -3.28449 0
M  V30 1637 H 154.724 -5.52077 -3.46489 0
M  V30 1638 N 158.157 -0.370918 -1.53173 0
M  V30 1639 C 159.089 0.507823 -2.23503 0
M  V30 1640 C 160.102 1.04182 -1.251 0
M  V30 1641 O 161.291 0.947286 -1.5129 0
M  V30 1642 C 158.391 1.71447 -2.92334 0
M  V30 1643 C 157.564 1.31105 -4.17289 0
M  V30 1644 C 156.623 2.38035 -4.69282 0
M  V30 1645 O 155.649 2.00204 -5.32829 0
M  V30 1646 N 156.851 3.69697 -4.47554 0
M  V30 1647 H 159.616 -0.0946382 -2.99551 0
M  V30 1648 H 157.177 -0.196358 -1.60705 0
M  V30 1649 H 159.169 2.42469 -3.24023 0
M  V30 1650 H 157.739 2.22368 -2.19707 0
M  V30 1651 H 156.959 0.430462 -3.91843 0
M  V30 1652 H 158.247 1.0179 -4.98514 0
M  V30 1653 H 157.645 4.03205 -3.9679 0
M  V30 1654 H 156.202 4.36807 -4.8378 0
M  V30 1655 N 159.635 1.57281 -0.100228 0
M  V30 1656 C 161.051 1.57527 0.256416 0
M  V30 1657 C 161.251 1.11173 1.68056 0
M  V30 1658 O 160.307 0.79053 2.39806 0
M  V30 1659 C 161.62 3.00673 0.0401747 0
M  V30 1660 C 163.168 3.12815 0.107528 0
M  V30 1661 C 163.643 4.57929 -0.0807834 0
M  V30 1662 N 165.134 4.63193 -0.0261207 0
M  V30 1663 C 165.869 5.73212 -0.146999 0
M  V30 1664 N 165.365 6.92047 -0.322999 0
M  V30 1665 N 167.158 5.62031 -0.0879044 0
M  V30 1666 H 159.309 1.85718 -1.03065 0
M  V30 1667 H 161.572 0.857446 -0.404339 0
M  V30 1668 H 161.278 3.38804 -0.943649 0
M  V30 1669 H 161.152 3.69042 0.780262 0
M  V30 1670 H 163.539 2.74554 1.08186 0
M  V30 1671 H 163.62 2.47028 -0.664134 0
M  V30 1672 H 163.264 4.96886 -1.05201 0
M  V30 1673 H 163.194 5.21783 0.710635 0
M  V30 1674 H 165.685 3.77748 0.107161 0
M  V30 1675 H 165.998 7.7173 -0.406608 0
M  V30 1676 H 164.343 6.94074 -0.358733 0
M  V30 1677 H 167.534 4.68075 0.048498 0
M  V30 1678 H 167.707 6.47734 -0.185557 0
M  V30 1679 N 161.113 -0.173488 1.56642 0
M  V30 1680 C 162.343 -0.904781 1.85734 0
M  V30 1681 C 162.751 -1.76431 0.68328 0
M  V30 1682 O 162.094 -1.802 -0.356865 0
M  V30 1683 C 162.156 -1.83382 3.09211 0
M  V30 1684 C 161.82 -1.15411 4.42187 0
M  V30 1685 C 162.817 -0.520609 5.17287 0
M  V30 1686 C 160.502 -1.15151 4.88923 0
M  V30 1687 C 162.496 0.106412 6.37311 0
M  V30 1688 C 160.183 -0.520664 6.08878 0
M  V30 1689 C 161.181 0.107196 6.82916 0
M  V30 1690 O 160.869 0.728102 8.00596 0
M  V30 1691 H 160.601 -0.268408 0.62043 0
M  V30 1692 H 163.155 -0.179096 2.04618 0
M  V30 1693 H 161.385 -2.59976 2.86268 0
M  V30 1694 H 163.074 -2.43476 3.24768 0
M  V30 1695 H 163.84 -0.514606 4.82262 0
M  V30 1696 H 159.719 -1.62961 4.31236 0
M  V30 1697 H 163.263 0.597081 6.9504 0
M  V30 1698 H 159.16 -0.524242 6.43368 0
M  V30 1699 H 159.928 0.627138 8.16094 0
M  V30 1700 N 162.591 -1.51276 -0.441967 0
M  V30 1701 C 163.541 -1.6864 -1.53442 0
M  V30 1702 C 164.525 -0.540444 -1.51552 0
M  V30 1703 O 165.717 -0.796157 -1.58083 0
M  V30 1704 C 162.846 -1.8106 -2.91672 0
M  V30 1705 C 161.932 -3.01424 -2.98336 0
M  V30 1706 N 162.323 -4.2467 -2.74752 0
M  V30 1707 C 160.621 -3.00584 -3.29493 0
M  V30 1708 C 161.322 -5.05891 -2.87139 0
M  V30 1709 N 160.298 -4.40442 -3.18609 0
M  V30 1710 H 164.1 -2.61598 -1.33954 0
M  V30 1711 H 161.614 -1.4886 -0.6492 0
M  V30 1712 H 163.611 -1.91609 -3.70259 0
M  V30 1713 H 162.271 -0.892795 -3.12185 0
M  V30 1714 H 163.282 -4.53691 -2.49769 0
M  V30 1715 H 159.959 -2.18417 -3.55809 0
M  V30 1716 H 161.349 -6.13983 -2.72899 0
M  V30 1717 N 164.069 0.697108 -1.41344 0
M  V30 1718 C 165.299 1.48377 -1.43763 0
M  V30 1719 C 165.707 1.89156 -0.0408726 0
M  V30 1720 O 165.05 1.57239 0.949812 0
M  V30 1721 C 165.112 2.7781 -2.2817 0
M  V30 1722 C 164.776 2.59244 -3.76353 0
M  V30 1723 C 165.773 2.25292 -4.68551 0
M  V30 1724 C 163.458 2.74933 -4.20378 0
M  V30 1725 C 165.452 2.07264 -6.02761 0
M  V30 1726 C 163.139 2.56521 -5.54653 0
M  V30 1727 C 164.137 2.22737 -6.4566 0
M  V30 1728 O 163.825 2.04485 -7.77458 0
M  V30 1729 H 163.557 0.463842 -0.491759 0
M  V30 1730 H 166.111 0.865934 -1.86255 0
M  V30 1731 H 164.341 3.41995 -1.8049 0
M  V30 1732 H 166.03 3.39608 -2.22309 0
M  V30 1733 H 166.796 2.12787 -4.35829 0
M  V30 1734 H 162.675 3.00213 -3.49848 0
M  V30 1735 H 166.219 1.80817 -6.73759 0
M  V30 1736 H 162.116 2.68616 -5.86955 0
M  V30 1737 H 162.884 2.1926 -7.88586 0
M  V30 1738 N 165.547 1.27147 0.931209 0
M  V30 1739 C 166.477 1.12081 2.04842 0
M  V30 1740 C 167.458 0.0232364 1.70084 0
M  V30 1741 O 168.643 0.197085 1.93197 0
M  V30 1742 C 165.773 0.76354 3.38803 0
M  V30 1743 C 164.727 1.81396 3.87659 0
M  V30 1744 C 164.053 1.31075 5.18385 0
M  V30 1745 C 165.353 3.21739 4.11438 0
M  V30 1746 H 167.047 2.05537 2.17703 0
M  V30 1747 H 164.593 0.989603 1.04608 0
M  V30 1748 H 166.546 0.644982 4.16435 0
M  V30 1749 H 165.27 -0.206727 3.25945 0
M  V30 1750 H 163.929 1.92136 3.12217 0
M  V30 1751 H 163.577 0.330037 5.01916 0
M  V30 1752 H 163.277 2.013 5.52044 0
M  V30 1753 H 164.801 1.20506 5.98591 0
M  V30 1754 H 166.215 3.14019 4.79651 0
M  V30 1755 H 164.612 3.89644 4.56397 0
M  V30 1756 H 165.682 3.67054 3.16859 0
M  V30 1757 N 167.025 -1.13721 1.09112 0
M  V30 1758 C 167.973 -2.21103 0.722219 0
M  V30 1759 C 168.967 -1.67147 -0.275374 0
M  V30 1760 O 170.173 -1.79477 -0.137176 0
M  V30 1761 H 166.548 -0.720445 0.215553 0
M  V30 1762 H 168.519 -2.49483 1.63709 0
M  V30 1763 C 167.268 -3.47352 0.15543 0
M  V30 1764 H 166.591 -3.89206 0.914246 0
M  V30 1765 H 168.031 -4.2395 -0.0647967 0
M  V30 1766 C 166.49 -3.1814 -1.10852 0
M  V30 1767 O 167.02 -3.36604 -2.19227 0
M  V30 1768 N 165.226 -2.72045 -1.02176 0
M  V30 1769 H 164.773 -2.57221 -0.139764 0
M  V30 1770 H 164.731 -2.52875 -1.8682 0
M  V30 1771 N 168.503 -0.877838 -1.30888 0
M  V30 1772 C 169.751 -0.491723 -1.96027 0
M  V30 1773 C 170.072 0.960827 -1.69685 0
M  V30 1774 O 169.342 1.67462 -1.01654 0
M  V30 1775 H 167.922 -0.17885 -0.725273 0
M  V30 1776 H 170.584 -1.11935 -1.59551 0
M  V30 1777 H 169.68 -0.656016 -3.05128 0
M  V30 1778 N 169.982 1.44106 -0.638065 0
M  V30 1779 C 171.23 2.01579 -0.145043 0
M  V30 1780 C 171.551 1.50496 1.24 0
M  V30 1781 O 170.821 0.711374 1.82527 0
M  V30 1782 H 169.401 0.745282 -0.05063 0
M  V30 1783 H 172.063 1.76516 -0.826327 0
M  V30 1784 H 171.159 3.11877 -0.118039 0
M  V30 1785 N 171.46 0.379036 1.52974 0
M  V30 1786 C 172.39 -0.452706 2.29069 0
M  V30 1787 C 173.371 -1.07237 1.32039 0
M  V30 1788 O 174.556 -1.08708 1.60923 0
M  V30 1789 C 171.686 -1.5856 3.08992 0
M  V30 1790 C 170.64 -1.0925 4.13822 0
M  V30 1791 C 169.966 -2.31668 4.81907 0
M  V30 1792 C 171.266 -0.167702 5.22031 0
M  V30 1793 H 172.96 0.182181 2.98845 0
M  V30 1794 H 170.506 0.0890592 1.43724 0
M  V30 1795 H 172.459 -2.1742 3.6098 0
M  V30 1796 H 171.183 -2.24792 2.36931 0
M  V30 1797 H 169.842 -0.526494 3.628 0
M  V30 1798 H 169.49 -2.96386 4.06404 0
M  V30 1799 H 169.19 -1.9934 5.52754 0
M  V30 1800 H 170.714 -2.91189 5.36695 0
M  V30 1801 H 172.128 -0.664186 5.6944 0
M  V30 1802 H 170.525 0.0653265 6.00064 0
M  V30 1803 H 171.595 0.786347 4.78482 0
M  V30 1804 N 172.938 -1.57226 0.108567 0
M  V30 1805 C 174.166 -1.99179 -0.559954 0
M  V30 1806 C 174.581 -0.988022 -1.60884 0
M  V30 1807 O 173.938 0.0205512 -1.82488 0
M  V30 1808 C 173.989 -3.41159 -1.19552 0
M  V30 1809 O 173.71 -4.37694 -0.188577 0
M  V30 1810 C 175.211 -3.98188 -1.94837 0
M  V30 1811 H 172.431 -0.654228 -0.149088 0
M  V30 1812 H 174.975 -2.03598 0.19183 0
M  V30 1813 H 173.13 -3.37711 -1.89815 0
M  V30 1814 H 173.544 -5.20469 -0.649014 0
M  V30 1815 H 175.018 -4.99644 -2.34648 0
M  V30 1816 H 175.495 -3.3675 -2.81951 0
M  V30 1817 H 176.101 -4.0515 -1.2936 0
M  V30 1818 N 174.416 0.165178 -1.56732 0
M  V30 1819 C 175.379 1.18822 -1.95995 0
M  V30 1820 C 176.379 1.3685 -0.84431 0
M  V30 1821 O 177.569 1.34152 -1.11126 0
M  V30 1822 C 174.701 2.5521 -2.26011 0
M  V30 1823 H 175.894 0.851825 -2.87548 0
M  V30 1824 H 173.447 0.407857 -1.50885 0
M  V30 1825 H 174.182 2.93852 -1.37191 0
M  V30 1826 H 173.967 2.43489 -3.07336 0
M  V30 1827 H 175.457 3.28927 -2.57288 0
M  V30 1828 N 175.894 1.51508 0.433938 0
M  V30 1829 C 177.14 1.65549 1.18173 0
M  V30 1830 C 177.495 0.368751 1.88833 0
M  V30 1831 O 176.788 -0.635616 1.8075 0
M  V30 1832 C 176.982 2.79928 2.22205 0
M  V30 1833 C 176.811 4.19601 1.61756 0
M  V30 1834 C 175.581 4.85489 1.40101 0
M  V30 1835 C 177.779 5.02574 1.09194 0
M  V30 1836 N 175.761 6.09266 0.752859 0
M  V30 1837 C 177.132 6.17381 0.569255 0
M  V30 1838 C 179.187 4.88079 0.984025 0
M  V30 1839 C 177.89 7.19282 -0.0507472 0
M  V30 1840 C 179.916 5.90191 0.377912 0
M  V30 1841 C 179.278 7.04272 -0.134216 0
M  V30 1842 H 175.377 0.659653 0.419979 0
M  V30 1843 H 177.961 1.88746 0.477818 0
M  V30 1844 H 176.132 2.5839 2.89982 0
M  V30 1845 H 177.864 2.83132 2.89168 0
M  V30 1846 H 174.619 4.43417 1.66369 0
M  V30 1847 H 175.043 6.75528 0.446123 0
M  V30 1848 H 179.685 4.00131 1.36583 0
M  V30 1849 H 177.403 8.06876 -0.444676 0
M  V30 1850 H 180.989 5.81045 0.296269 0
M  V30 1851 H 179.869 7.81933 -0.59585 0
M  V30 1852 N 177.372 -0.689602 1.41712 0
M  V30 1853 C 178.302 -1.81577 1.46806 0
M  V30 1854 C 179.283 -1.66945 0.326105 0
M  V30 1855 O 180.468 -1.86588 0.538377 0
M  V30 1856 C 177.598 -3.19762 1.35535 0
M  V30 1857 C 176.552 -3.49107 2.47605 0
M  V30 1858 C 175.878 -4.86711 2.21397 0
M  V30 1859 C 177.178 -3.47483 3.89939 0
M  V30 1860 H 178.872 -1.7757 2.41058 0
M  V30 1861 H 176.418 -0.852887 1.16025 0
M  V30 1862 H 178.371 -3.98263 1.3771 0
M  V30 1863 H 177.095 -3.24409 0.377708 0
M  V30 1864 H 175.754 -2.72959 2.44722 0
M  V30 1865 H 175.402 -4.8799 1.21961 0
M  V30 1866 H 175.102 -5.0731 2.96497 0
M  V30 1867 H 176.626 -5.67515 2.25297 0
M  V30 1868 H 178.04 -4.1598 3.94505 0
M  V30 1869 H 176.437 -3.79615 4.64771 0
M  V30 1870 H 177.507 -2.46341 4.17665 0
M  V30 1871 N 178.85 -1.27639 -0.924453 0
M  V30 1872 C 179.813 -1.10681 -2.00705 0
M  V30 1873 C 180.813 -0.0497823 -1.60723 0
M  V30 1874 O 182.003 -0.294654 -1.7169 0
M  V30 1875 C 179.135 -0.687164 -3.33902 0
M  V30 1876 H 180.328 -2.06817 -2.17179 0
M  V30 1877 H 177.881 -1.10473 -1.10569 0
M  V30 1878 H 178.616 0.275439 -3.23128 0
M  V30 1879 H 178.401 -1.45061 -3.6428 0
M  V30 1880 H 179.891 -0.590853 -4.13399 0
M  V30 1881 N 180.328 1.1314 -1.09713 0
M  V30 1882 C 181.238 2.22242 -0.751367 0
M  V30 1883 C 182.254 1.72224 0.247938 0
M  V30 1884 O 183.43 2.01205 0.0885463 0
M  V30 1885 C 180.495 3.46231 -0.180274 0
M  V30 1886 C 179.556 4.11125 -1.2359 0
M  V30 1887 C 178.789 5.29195 -0.691966 0
M  V30 1888 O 179.012 5.68342 0.48414 0
M  V30 1889 O 177.946 5.84214 -1.44838 0
M  V30 1890 H 181.772 2.54197 -1.66186 0
M  V30 1891 H 179.357 1.21331 -0.871735 0
M  V30 1892 H 181.239 4.21185 0.134739 0
M  V30 1893 H 179.914 3.1597 0.703185 0
M  V30 1894 H 178.821 3.37985 -1.60366 0
M  V30 1895 H 180.154 4.45524 -2.09211 0
M  V30 1896 N 181.806 0.884767 1.30421 0
M  V30 1897 C 183.083 0.423185 1.90967 0
M  V30 1898 C 183.463 -1.09605 1.80416 0
M  V30 1899 O 182.811 -1.93126 1.22125 0
M  V30 1900 C 183.021 0.921056 3.36627 0
M  V30 1901 C 184.369 0.955903 4.137 0
M  V30 1902 O 185.393 0.867706 3.4547 0
M  V30 1903 O 184.252 1.08614 5.35598 0
M  V30 1904 H 181.346 0.129369 0.816819 0
M  V30 1905 H 183.892 0.973653 1.3899 0
M  V30 1906 H 182.664 1.96489 3.3839 0
M  V30 1907 H 182.287 0.349741 3.96059 0
M  V30 1908 N 183.284 -1.43765 0.645699 0
M  V30 1909 C 184.7 -1.56509 0.312591 0
M  V30 1910 C 184.9 -1.6307 -1.18365 0
M  V30 1911 O 183.956 -1.58167 -1.96824 0
M  V30 1912 C 185.269 -2.82968 1.01733 0
M  V30 1913 C 186.817 -2.96701 0.996865 0
M  V30 1914 C 187.292 -4.25982 1.68236 0
M  V30 1915 N 188.783 -4.32829 1.64964 0
M  V30 1916 C 189.518 -5.31613 2.14885 0
M  V30 1917 N 189.014 -6.36718 2.73061 0
M  V30 1918 N 190.807 -5.23217 2.05428 0
M  V30 1919 H 182.958 -1.3775 1.61675 0
M  V30 1920 H 185.221 -0.661067 0.679481 0
M  V30 1921 H 184.927 -2.84156 2.0724 0
M  V30 1922 H 184.801 -3.72957 0.564177 0
M  V30 1923 H 187.188 -2.95058 -0.0497719 0
M  V30 1924 H 187.269 -2.08022 1.48865 0
M  V30 1925 H 186.913 -4.28386 2.72852 0
M  V30 1926 H 186.843 -5.13545 1.16529 0
M  V30 1927 H 189.334 -3.57493 1.22503 0
M  V30 1928 H 189.647 -7.08401 3.08848 0
M  V30 1929 H 187.992 -6.37362 2.77118 0
M  V30 1930 H 191.183 -4.40019 1.59689 0
M  V30 1931 H 191.356 -6.00045 2.44643 0
M  V30 1932 N 184.763 -0.387143 -1.52771 0
M  V30 1933 C 186.174 0.0873634 -1.86495 0
M  V30 1934 C 186.525 1.46336 -1.30691 0
M  V30 1935 O 185.65 2.068 -0.637409 0
M  V30 1936 C 186.245 0.165305 -3.38396 0
M  V30 1937 C 184.804 0.584101 -3.7184 0
M  V30 1938 C 183.951 -0.255279 -2.76122 0
M  V30 1939 H 186.902 -0.605104 -1.46711 0
M  V30 1940 H 186.923 0.984848 -3.67534 0
M  V30 1941 H 186.435 -0.836301 -3.78982 0
M  V30 1942 H 184.536 1.59315 -3.36823 0
M  V30 1943 H 184.649 0.343749 -4.77865 0
M  V30 1944 H 183.013 0.279126 -2.53166 0
M  V30 1945 H 183.796 -1.25482 -3.19545 0
M  V30 1946 N 186.241 1.57166 -0.116904 0
M  V30 1947 C 187.171 2.18222 0.830759 0
M  V30 1948 C 188.152 1.12167 1.27877 0
M  V30 1949 O 189.337 1.40394 1.34176 0
M  V30 1950 C 186.467 2.77996 2.08172 0
M  V30 1951 C 185.421 3.89614 1.77157 0
M  V30 1952 C 184.747 4.36187 3.09265 0
M  V30 1953 C 186.047 5.1181 1.04151 0
M  V30 1954 H 187.741 2.97664 0.321992 0
M  V30 1955 H 185.287 1.4318 0.153434 0
M  V30 1956 H 187.24 3.19366 2.74924 0
M  V30 1957 H 185.964 1.9584 2.6137 0
M  V30 1958 H 184.623 3.48816 1.12796 0
M  V30 1959 H 184.271 3.50893 3.60393 0
M  V30 1960 H 183.971 5.11455 2.89288 0
M  V30 1961 H 185.495 4.80207 3.77139 0
M  V30 1962 H 186.909 5.50214 1.61052 0
M  V30 1963 H 185.306 5.92648 0.942762 0
M  V30 1964 H 186.376 4.84892 0.0279022 0
M  V30 1965 N 187.719 -0.156864 1.56817 0
M  V30 1966 C 188.944 -0.890331 1.87318 0
M  V30 1967 C 189.369 -1.74394 0.704855 0
M  V30 1968 O 188.727 -1.77972 -0.345786 0
M  V30 1969 C 188.775 -1.73102 3.16336 0
M  V30 1970 O 187.879 -2.83422 2.99576 0
M  V30 1971 H 187.22 -0.24857 0.615718 0
M  V30 1972 H 189.75 -0.150649 2.04045 0
M  V30 1973 H 189.76 -2.12803 3.48107 0
M  V30 1974 H 188.435 -1.10412 4.00976 0
M  V30 1975 H 187.012 -2.47199 2.7919 0
M  V30 1976 N 189.197 -1.51736 -0.425897 0
M  V30 1977 C 190.613 -1.40166 -0.76326 0
M  V30 1978 C 190.813 -0.492962 -1.95377 0
M  V30 1979 O 189.869 0.0475815 -2.52455 0
M  V30 1980 C 191.182 -2.82403 -1.03291 0
M  V30 1981 C 192.73 -2.91632 -1.13665 0
M  V30 1982 C 193.205 -4.34801 -1.43916 0
M  V30 1983 N 194.696 -4.3796 -1.50816 0
M  V30 1984 C 195.431 -5.4578 -1.75817 0
M  V30 1985 N 194.927 -6.63744 -1.98534 0
M  V30 1986 N 196.72 -5.33274 -1.77694 0
M  V30 1987 H 188.871 -2.09361 0.358 0
M  V30 1988 H 191.134 -0.942941 0.0978094 0
M  V30 1989 H 190.84 -3.50943 -0.230696 0
M  V30 1990 H 190.714 -3.22428 -1.95754 0
M  V30 1991 H 193.101 -2.23284 -1.92947 0
M  V30 1992 H 193.182 -2.55088 -0.190756 0
M  V30 1993 H 192.826 -5.03703 -0.65157 0
M  V30 1994 H 192.756 -4.68868 -2.39729 0
M  V30 1995 H 195.247 -3.52919 -1.35118 0
M  V30 1996 H 195.56 -7.41704 -2.17013 0
M  V30 1997 H 193.905 -6.66839 -1.95832 0
M  V30 1998 H 197.096 -4.40098 -1.59473 0
M  V30 1999 H 197.269 -6.1738 -1.9684 0
M  V30 2000 N 190.675 0.682077 -1.42076 0
M  V30 2001 C 191.585 1.82535 -1.47371 0
M  V30 2002 C 192.601 1.7017 -0.363079 0
M  V30 2003 O 193.777 1.91848 -0.612875 0
M  V30 2004 C 190.842 3.18624 -1.36674 0
M  V30 2005 C 189.903 3.42999 -2.58167 0
M  V30 2006 C 189.136 4.72595 -2.4797 0
M  V30 2007 O 189.359 5.50006 -1.5116 0
M  V30 2008 O 188.293 4.98054 -3.37974 0
M  V30 2009 H 192.119 1.81023 -2.43853 0
M  V30 2010 H 189.704 0.836887 -1.2376 0
M  V30 2011 H 191.586 3.99847 -1.33043 0
M  V30 2012 H 190.261 3.20789 -0.433138 0
M  V30 2013 H 189.168 2.61653 -2.67373 0
M  V30 2014 H 190.501 3.45659 -3.50401 0
M  V30 2015 N 192.153 1.28127 0.917671 0
M  V30 2016 C 193.083 1.14248 2.03641 0
M  V30 2017 C 194.064 0.0412748 1.7005 0
M  V30 2018 O 195.249 0.217566 1.92977 0
M  V30 2019 C 192.379 0.799431 3.37974 0
M  V30 2020 C 191.333 1.85497 3.85713 0
M  V30 2021 C 190.659 1.36565 5.16966 0
M  V30 2022 C 191.959 3.26085 4.08002 0
M  V30 2023 H 193.653 2.07835 2.15511 0
M  V30 2024 H 191.199 1.00064 1.03553 0
M  V30 2025 H 193.152 0.689114 4.15727 0
M  V30 2026 H 191.876 -0.172145 3.26146 0
M  V30 2027 H 190.535 1.95437 3.10161 0
M  V30 2028 H 190.183 0.383253 5.01538 0
M  V30 2029 H 189.883 2.07143 5.49878 0
M  V30 2030 H 191.407 1.26848 5.97279 0
M  V30 2031 H 192.821 3.19089 4.76293 0
M  V30 2032 H 191.218 3.94462 4.52238 0
M  V30 2033 H 192.288 3.70394 3.12948 0
M  V30 2034 N 193.631 -1.12557 1.10312 0
M  V30 2035 C 195.042 -1.65574 0.862678 0
M  V30 2036 C 195.393 -1.86566 -0.607256 0
M  V30 2037 O 194.518 -1.59121 -1.46662 0
M  V30 2038 C 195.113 -3.00776 1.55947 0
M  V30 2039 C 193.672 -3.50748 1.36576 0
M  V30 2040 C 192.819 -2.25797 1.60968 0
M  V30 2041 H 195.77 -0.963552 1.26101 0
M  V30 2042 H 195.791 -3.67185 0.997753 0
M  V30 2043 H 195.303 -2.85465 2.62928 0
M  V30 2044 H 193.404 -3.71245 0.317531 0
M  V30 2045 H 193.517 -4.30289 2.10686 0
M  V30 2046 H 191.881 -2.32841 1.03234 0
M  V30 2047 H 192.664 -2.13043 2.69198 0
M  V30 2048 N 195.109 -0.891671 -1.2995 0
M  V30 2049 C 196.072 -0.36828 -2.26222 0
M  V30 2050 C 197.072 0.493014 -1.53056 0
M  V30 2051 O 198.262 0.299213 -1.71611 0
M  V30 2052 C 195.394 0.47442 -3.37583 0
M  V30 2053 H 196.587 -1.21844 -2.74033 0
M  V30 2054 H 194.14 -0.669107 -1.41254 0
M  V30 2055 H 194.875 1.34489 -2.95099 0
M  V30 2056 H 194.66 -0.142615 -3.91841 0
M  V30 2057 H 196.15 0.83218 -4.09224 0
M  V30 2058 N 196.587 1.43421 -0.653314 0
M  V30 2059 C 197.998 1.85065 -0.246537 0
M  V30 2060 C 198.349 1.54688 1.2069 0
M  V30 2061 O 197.474 0.995896 1.92122 0
M  V30 2062 C 198.069 3.35922 -0.440666 0
M  V30 2063 C 196.628 3.76297 -0.0882064 0
M  V30 2064 C 195.775 2.67147 -0.743484 0
M  V30 2065 H 198.726 1.33572 -0.856979 0
M  V30 2066 H 198.747 3.79204 0.313798 0
M  V30 2067 H 198.259 3.58 -1.49858 0
M  V30 2068 H 196.36 3.5983 0.96711 0
M  V30 2069 H 196.473 4.76338 -0.513738 0
M  V30 2070 H 194.837 2.54086 -0.176712 0
M  V30 2071 H 195.62 2.92053 -1.80443 0
M  V30 2072 N 198.065 0.39524 1.52563 0
M  V30 2073 C 199.028 -0.425001 2.25225 0
M  V30 2074 C 200.028 -0.985266 1.27079 0
M  V30 2075 O 201.218 -0.866332 1.5113 0
M  V30 2076 C 198.35 -1.59686 3.01186 0
M  V30 2077 H 199.543 0.211233 2.99155 0
M  V30 2078 H 197.096 0.147472 1.55603 0
M  V30 2079 H 197.831 -2.27035 2.31572 0
M  V30 2080 H 197.616 -1.20176 3.73229 0
M  V30 2081 H 199.106 -2.17743 3.5634 0
M  V30 2082 N 199.544 -1.57102 0.125237 0
M  V30 2083 C 200.792 -1.95021 -0.530198 0
M  V30 2084 C 201.113 -1.00982 -1.66816 0
M  V30 2085 O 200.383 -0.0672693 -1.95784 0
M  V30 2086 H 198.963 -0.720046 -0.198853 0
M  V30 2087 H 201.625 -1.93916 0.19564 0
M  V30 2088 H 200.721 -2.98211 -0.920681 0
M  V30 2089 N 201.022 0.148545 -1.56898 0
M  V30 2090 C 202.27 0.859717 -1.82902 0
M  V30 2091 C 202.591 1.81775 -0.70588 0
M  V30 2092 O 201.861 1.93994 0.272586 0
M  V30 2093 H 200.441 0.320469 -0.674766 0
M  V30 2094 H 203.103 0.142918 -1.94375 0
M  V30 2095 H 202.199 1.4229 -2.77777 0
M  V30 2096 N 202.5 1.5196 0.417844 0
M  V30 2097 C 203.911 1.57851 0.997 0
M  V30 2098 C 204.262 0.413714 1.91789 0
M  V30 2099 O 203.387 -0.467057 2.113 0
M  V30 2100 C 203.982 2.86085 1.81496 0
M  V30 2101 C 202.541 2.94483 2.34428 0
M  V30 2102 C 201.688 2.52707 1.14169 0
M  V30 2103 H 204.639 1.57455 0.198392 0
M  V30 2104 H 204.66 2.70947 2.67148 0
M  V30 2105 H 204.172 3.70842 1.14446 0
M  V30 2106 H 202.273 2.142 3.04875 0
M  V30 2107 H 202.386 3.98546 2.65891 0
M  V30 2108 H 200.75 2.06353 1.49301 0
M  V30 2109 H 201.533 3.39828 0.486999 0
M  V30 2110 N 203.978 -0.674533 1.42435 0
M  V30 2111 C 205.224 -1.43671 1.43131 0
M  V30 2112 C 205.557 -1.94142 0.0476021 0
M  V30 2113 O 204.832 -1.70924 -0.928188 0
M  V30 2114 C 205.115 -2.63355 2.45594 0
M  V30 2115 C 204.968 -2.18514 3.93156 0
M  V30 2116 C 206.287 -3.65571 2.45043 0
M  V30 2117 H 203.406 -0.521077 0.521198 0
M  V30 2118 H 206.048 -0.766551 1.7385 0
M  V30 2119 H 204.198 -3.2053 2.19528 0
M  V30 2120 H 205.87 -1.66504 4.30202 0
M  V30 2121 H 204.113 -1.50086 4.07009 0
M  V30 2122 H 204.784 -3.04484 4.60428 0
M  V30 2123 H 207.26 -3.18113 2.68223 0
M  V30 2124 H 206.136 -4.46893 3.18713 0
M  V30 2125 H 206.397 -4.16716 1.47649 0
M  V30 2126 N 205.456 -1.28612 -0.910864 0
M  V30 2127 C 206.419 -1.12803 -1.9952 0
M  V30 2128 C 207.419 -0.0668264 -1.60661 0
M  V30 2129 O 208.609 -0.312847 -1.71368 0
M  V30 2130 C 205.741 -0.72254 -3.33155 0
M  V30 2131 H 206.934 -2.09109 -2.14973 0
M  V30 2132 H 204.487 -1.11639 -1.09391 0
M  V30 2133 H 205.222 0.241152 -3.23402 0
M  V30 2134 H 205.007 -1.48916 -3.62721 0
M  V30 2135 H 206.497 -0.634666 -4.12749 0
M  V30 2136 N 206.934 1.1197 -1.10907 0
M  V30 2137 C 207.864 2.19928 -0.784473 0
M  V30 2138 C 208.845 1.6833 0.244726 0
M  V30 2139 O 210.03 1.93892 0.109418 0
M  V30 2140 C 207.16 3.46597 -0.220827 0
M  V30 2141 C 206.114 4.11376 -1.18127 0
M  V30 2142 C 205.44 5.32554 -0.478594 0
M  V30 2143 C 206.74 4.56945 -2.52979 0
M  V30 2144 H 208.434 2.47337 -1.68715 0
M  V30 2145 H 205.98 1.18879 -0.812642 0
M  V30 2146 H 207.933 4.21396 0.0184278 0
M  V30 2147 H 206.657 3.1863 0.717113 0
M  V30 2148 H 205.316 3.38564 -1.40606 0
M  V30 2149 H 204.964 5.00856 0.463976 0
M  V30 2150 H 204.664 5.76844 -1.11912 0
M  V30 2151 H 206.188 6.10096 -0.248 0
M  V30 2152 H 207.602 5.23093 -2.3462 0
M  V30 2153 H 205.999 5.1203 -3.12962 0
M  V30 2154 H 207.069 3.70676 -3.12614 0
M  V30 2155 N 208.412 0.89855 1.29475 0
M  V30 2156 C 209.637 0.538561 2.00285 0
M  V30 2157 C 210.062 -0.869135 1.66816 0
M  V30 2158 O 209.42 -1.57831 0.892145 0
M  V30 2159 C 209.468 0.736475 3.52999 0
M  V30 2160 O 208.572 -0.211537 4.11857 0
M  V30 2161 H 207.913 0.210563 0.62973 0
M  V30 2162 H 210.443 1.20982 1.64998 0
M  V30 2163 H 210.453 0.640685 4.02938 0
M  V30 2164 H 209.128 1.76276 3.76696 0
M  V30 2165 H 207.705 -0.0682991 3.72837 0
M  V30 2166 N 209.89 -1.43072 0.660911 0
M  V30 2167 C 210.82 -2.33497 -0.0122829 0
M  V30 2168 C 211.801 -1.49903 -0.803925 0
M  V30 2169 O 212.986 -1.78546 -0.763864 0
M  V30 2170 C 210.116 -3.33363 -0.973994 0
M  V30 2171 C 209.07 -4.27003 -0.291928 0
M  V30 2172 C 208.396 -5.16967 -1.36562 0
M  V30 2173 C 209.696 -5.15816 0.820462 0
M  V30 2174 H 211.39 -2.90038 0.742873 0
M  V30 2175 H 208.936 -1.39461 0.358688 0
M  V30 2176 H 210.889 -3.95524 -1.45392 0
M  V30 2177 H 209.613 -2.75095 -1.7604 0
M  V30 2178 H 208.272 -3.66217 0.167623 0
M  V30 2179 H 207.92 -4.55034 -2.14366 0
M  V30 2180 H 207.62 -5.80441 -0.914454 0
M  V30 2181 H 209.144 -5.82003 -1.84675 0
M  V30 2182 H 210.558 -5.71742 0.422366 0
M  V30 2183 H 208.955 -5.8805 1.19656 0
M  V30 2184 H 210.025 -4.55045 1.67518 0
M  V30 2185 N 211.368 -0.403325 -1.52352 0
M  V30 2186 C 212.318 0.442244 -2.2367 0
M  V30 2187 C 213.302 1.01823 -1.24583 0
M  V30 2188 O 214.494 0.942005 -1.49851 0
M  V30 2189 C 211.623 1.5615 -3.05732 0
M  V30 2190 C 210.709 0.996575 -4.12225 0
M  V30 2191 N 211.1 0.157804 -5.05554 0
M  V30 2192 C 209.398 1.26767 -4.27605 0
M  V30 2193 C 210.099 -0.155853 -5.81491 0
M  V30 2194 N 209.075 0.451775 -5.41719 0
M  V30 2195 H 212.877 -0.204964 -2.93184 0
M  V30 2196 H 210.391 -0.213418 -1.60992 0
M  V30 2197 H 212.388 2.17981 -3.55373 0
M  V30 2198 H 211.048 2.21139 -2.37755 0
M  V30 2199 H 212.059 -0.206049 -5.1749 0
M  V30 2200 H 208.736 1.91757 -3.70858 0
M  V30 2201 H 210.126 -0.836329 -6.66675 0
M  V30 2202 N 212.846 1.57033 -0.133567 0
M  V30 2203 C 214.123 1.87256 0.56522 0
M  V30 2204 C 214.503 1.03726 1.83859 0
M  V30 2205 O 213.851 0.120247 2.28183 0
M  V30 2206 C 214.061 3.3865 0.843636 0
M  V30 2207 C 215.409 4.07574 1.19032 0
M  V30 2208 O 216.433 3.43752 0.933429 0
M  V30 2209 O 215.292 5.20259 1.67312 0
M  V30 2210 H 212.386 0.775678 0.286796 0
M  V30 2211 H 214.932 1.68855 -0.169168 0
M  V30 2212 H 213.704 3.91257 -0.0581149 0
M  V30 2213 H 213.327 3.62532 1.63268 0
M  V30 2214 N 214.325 -0.140222 1.56975 0
M  V30 2215 C 215.235 -1.19223 2.02047 0
M  V30 2216 C 216.251 -1.46612 0.937062 0
M  V30 2217 O 217.427 -1.58148 1.24704 0
M  V30 2218 C 214.492 -2.50414 2.39778 0
M  V30 2219 C 213.553 -2.30612 3.621 0
M  V30 2220 C 212.786 -3.55547 3.98023 0
M  V30 2221 O 213.009 -4.62004 3.34528 0
M  V30 2222 O 211.943 -3.47808 4.91237 0
M  V30 2223 H 215.769 -0.839559 2.91865 0
M  V30 2224 H 213.354 -0.349453 1.45256 0
M  V30 2225 H 215.236 -3.27747 2.64877 0
M  V30 2226 H 213.911 -2.85198 1.53114 0
M  V30 2227 H 212.818 -1.51207 3.4218 0
M  V30 2228 H 214.151 -2.00741 4.49404 0
M  V30 2229 N 215.803 -1.52179 -0.40978 0
M  V30 2230 C 217.214 -1.58377 -0.988615 0
M  V30 2231 C 217.565 -0.423879 -1.91566 0
M  V30 2232 O 216.69 0.455844 -2.11544 0
M  V30 2233 C 217.285 -2.87044 -1.79976 0
M  V30 2234 C 215.844 -2.95722 -2.32863 0
M  V30 2235 C 214.991 -2.53309 -1.12828 0
M  V30 2236 H 217.942 -1.57558 -0.190039 0
M  V30 2237 H 217.963 -2.7236 -2.65707 0
M  V30 2238 H 217.475 -3.71444 -1.12478 0
M  V30 2239 H 215.576 -2.15814 -3.03735 0
M  V30 2240 H 215.689 -3.99951 -2.63773 0
M  V30 2241 H 214.053 -2.07142 -1.48204 0
M  V30 2242 H 214.836 -3.40082 -0.46897 0
M  V30 2243 N 217.281 0.66697 -1.42791 0
M  V30 2244 C 218.509 1.45505 -1.47091 0
M  V30 2245 C 218.924 1.8861 -0.0845873 0
M  V30 2246 O 218.281 1.58632 0.90234 0
M  V30 2247 C 218.332 2.69906 -2.40485 0
M  V30 2248 O 218.053 2.28608 -3.73725 0
M  V30 2249 C 219.554 3.63396 -2.53886 0
M  V30 2250 H 216.774 0.447459 -0.500022 0
M  V30 2251 H 219.318 0.818866 -1.8739 0
M  V30 2252 H 217.473 3.29696 -2.03419 0
M  V30 2253 H 217.887 3.08997 -4.23817 0
M  V30 2254 H 219.361 4.47387 -3.2334 0
M  V30 2255 H 219.838 4.09824 -1.57927 0
M  V30 2256 H 220.444 3.09495 -2.91706 0
M  V30 2257 N 218.759 1.29093 0.90403 0
M  V30 2258 C 219.722 1.1386 1.98919 0
M  V30 2259 C 220.722 0.0753457 1.60623 0
M  V30 2260 O 221.912 0.321931 1.71199 0
M  V30 2261 C 219.044 0.740198 3.32767 0
M  V30 2262 H 220.237 2.10246 2.13861 0
M  V30 2263 H 217.79 1.12218 1.08797 0
M  V30 2264 H 218.525 -0.223997 3.23525 0
M  V30 2265 H 218.31 1.50838 3.61926 0
M  V30 2266 H 219.8 0.656546 4.12407 0
M  V30 2267 N 220.237 -1.11381 1.11499 0
M  V30 2268 C 221.462 -1.87475 0.887019 0
M  V30 2269 C 221.887 -1.79639 -0.557796 0
M  V30 2270 O 221.245 -1.15924 -1.39396 0
M  V30 2271 C 221.293 -3.34213 1.35403 0
M  V30 2272 O 220.397 -4.0903 0.526146 0
M  V30 2273 H 219.738 -0.582099 0.319463 0
M  V30 2274 H 222.268 -1.40785 1.48461 0
M  V30 2275 H 222.278 -3.8506 1.34881 0
M  V30 2276 H 220.953 -3.39232 2.40612 0
M  V30 2277 H 219.53 -3.68082 0.597522 0
M  V30 2278 N 221.715 -0.905404 -1.28997 0
M  V30 2279 C 223.131 -0.60233 -1.47798 0
M  V30 2280 C 223.331 0.854645 -1.82478 0
M  V30 2281 O 222.387 1.63439 -1.92468 0
M  V30 2282 C 223.7 -1.53306 -2.58685 0
M  V30 2283 C 225.248 -1.53887 -2.72558 0
M  V30 2284 C 225.723 -2.45602 -3.86579 0
M  V30 2285 N 227.214 -2.43681 -3.93921 0
M  V30 2286 C 227.949 -3.11347 -4.81509 0
M  V30 2287 N 227.445 -3.88313 -5.73746 0
M  V30 2288 N 229.238 -3.00476 -4.75048 0
M  V30 2289 H 221.389 -1.84765 -1.04764 0
M  V30 2290 H 223.652 -0.792025 -0.520961 0
M  V30 2291 H 223.358 -2.57141 -2.39941 0
M  V30 2292 H 223.232 -1.25787 -3.55609 0
M  V30 2293 H 225.619 -0.507941 -2.90696 0
M  V30 2294 H 225.7 -1.85447 -1.76191 0
M  V30 2295 H 225.344 -3.48792 -3.69197 0
M  V30 2296 H 225.274 -2.11349 -4.82327 0
M  V30 2297 H 227.765 -1.87767 -3.27951 0
M  V30 2298 H 228.078 -4.36985 -6.37389 0
M  V30 2299 H 226.423 -3.92419 -5.73614 0
M  V30 2300 H 229.614 -2.39858 -4.01977 0
M  V30 2301 H 229.787 -3.53485 -5.43095 0
M  V30 2302 N 223.193 1.4272 -0.668489 0
M  V30 2303 C 224.47 1.95248 -0.117373 0
M  V30 2304 C 224.85 1.60919 1.36632 0
M  V30 2305 O 224.198 0.902095 2.09939 0
M  V30 2306 C 224.408 3.46927 -0.379806 0
M  V30 2307 C 225.756 4.23588 -0.292923 0
M  V30 2308 O 226.78 3.5482 -0.313204 0
M  V30 2309 O 225.639 5.46017 -0.229697 0
M  V30 2310 H 222.733 0.827 0.00079152 0
M  V30 2311 H 225.279 1.52581 -0.742783 0
M  V30 2312 H 224.051 3.65096 -1.40786 0
M  V30 2313 H 223.674 3.96627 0.277923 0
M  V30 2314 N 224.671 0.411399 1.52136 0
M  V30 2315 C 225.901 -0.16284 2.05957 0
M  V30 2316 C 226.309 -1.3922 1.28119 0
M  V30 2317 O 225.652 -1.80768 0.326881 0
M  V30 2318 C 225.714 -0.575946 3.54856 0
M  V30 2319 C 225.378 0.542998 4.53763 0
M  V30 2320 C 226.375 1.40726 5.00492 0
M  V30 2321 C 224.06 0.716337 4.97166 0
M  V30 2322 C 226.054 2.4298 5.8927 0
M  V30 2323 C 223.741 1.74218 5.8574 0
M  V30 2324 C 224.739 2.59731 6.31687 0
M  V30 2325 O 224.427 3.60558 7.18507 0
M  V30 2326 H 224.159 -0.0229125 0.675612 0
M  V30 2327 H 226.713 0.581634 1.96993 0
M  V30 2328 H 224.943 -1.37274 3.61515 0
M  V30 2329 H 226.632 -1.07836 3.91313 0
M  V30 2330 H 227.398 1.28476 4.67674 0
M  V30 2331 H 223.277 0.0603857 4.6096 0
M  V30 2332 H 226.821 3.0976 6.25055 0
M  V30 2333 H 222.718 1.86498 6.17971 0
M  V30 2334 H 223.486 3.56829 7.36624 0
M  V30 2335 N 226.149 -1.5696 0.141893 0
M  V30 2336 C 227.079 -2.19516 -0.795936 0
M  V30 2337 C 228.06 -1.14187 -1.26077 0
M  V30 2338 O 229.245 -1.42511 -1.31925 0
M  V30 2339 C 226.375 -2.81272 -2.03723 0
M  V30 2340 C 225.329 -3.92384 -1.70936 0
M  V30 2341 C 224.655 -4.41052 -3.02287 0
M  V30 2342 C 225.955 -5.13403 -0.959954 0
M  V30 2343 H 227.649 -2.98138 -0.274596 0
M  V30 2344 H 225.195 -1.43406 -0.130636 0
M  V30 2345 H 227.148 -3.237 -2.69808 0
M  V30 2346 H 225.872 -1.99973 -2.58221 0
M  V30 2347 H 224.531 -3.50566 -1.07232 0
M  V30 2348 H 224.179 -3.56582 -3.54765 0
M  V30 2349 H 223.879 -5.15993 -2.81114 0
M  V30 2350 H 225.403 -4.86146 -3.69451 0
M  V30 2351 H 226.817 -5.52706 -1.52279 0
M  V30 2352 H 225.214 -5.94073 -0.848357 0
M  V30 2353 H 226.284 -4.84875 0.0492434 0
M  V30 2354 N 227.627 0.131896 -1.57047 0
M  V30 2355 C 228.557 1.16384 -2.02428 0
M  V30 2356 C 229.538 1.43936 -0.90644 0
M  V30 2357 O 230.723 1.54599 -1.17528 0
M  V30 2358 C 227.853 2.49328 -2.4177 0
M  V30 2359 C 226.807 2.36266 -3.56879 0
M  V30 2360 C 226.133 3.74057 -3.8208 0
M  V30 2361 C 227.433 1.834 -4.89042 0
M  V30 2362 H 229.127 0.786433 -2.88887 0
M  V30 2363 H 226.673 0.376855 -1.38981 0
M  V30 2364 H 228.626 3.21759 -2.7212 0
M  V30 2365 H 227.35 2.88934 -1.52266 0
M  V30 2366 H 226.009 1.66286 -3.26718 0
M  V30 2367 H 225.657 4.11125 -2.89803 0
M  V30 2368 H 225.357 3.66174 -4.59554 0
M  V30 2369 H 226.881 4.48012 -4.1487 0
M  V30 2370 H 228.295 2.45636 -5.18011 0
M  V30 2371 H 226.692 1.8637 -5.70426 0
M  V30 2372 H 227.762 0.790662 -4.7841 0
M  V30 2373 N 229.106 1.52395 0.401703 0
M  V30 2374 C 230.354 1.66488 1.14569 0
M  V30 2375 C 230.675 0.400897 1.90835 0
M  V30 2376 O 229.945 -0.584415 1.8698 0
M  V30 2377 H 228.525 0.613672 0.425929 0
M  V30 2378 H 231.187 1.89464 0.457093 0
M  V30 2379 H 230.283 2.50942 1.85566 0
M  V30 2380 N 230.584 -0.659388 1.43143 0
M  V30 2381 C 232 -0.974337 1.26407 0
M  V30 2382 C 232.2 -2.007 0.179341 0
M  V30 2383 O 231.256 -2.4856 -0.444295 0
M  V30 2384 C 232.569 -1.46447 2.62628 0
M  V30 2385 C 234.117 -1.58144 2.7011 0
M  V30 2386 C 234.592 -2.1055 4.06734 0
M  V30 2387 N 236.083 -2.17861 4.08767 0
M  V30 2388 C 236.818 -2.59519 5.1131 0
M  V30 2389 N 236.314 -3.00518 6.24228 0
M  V30 2390 N 238.107 -2.59404 4.98664 0
M  V30 2391 H 230.258 0.0240528 2.12386 0
M  V30 2392 H 232.521 -0.0518065 0.946583 0
M  V30 2393 H 232.227 -0.780123 3.42939 0
M  V30 2394 H 232.101 -2.44058 2.87603 0
M  V30 2395 H 234.488 -2.25682 1.90136 0
M  V30 2396 H 234.569 -0.589828 2.48907 0
M  V30 2397 H 234.213 -1.43616 4.87172 0
M  V30 2398 H 234.143 -3.10531 4.25298 0
M  V30 2399 H 236.634 -1.88975 3.27257 0
M  V30 2400 H 236.947 -3.31036 6.98309 0
M  V30 2401 H 235.292 -2.98337 6.2771 0
M  V30 2402 H 238.483 -2.26747 4.09516 0
M  V30 2403 H 238.656 -2.91548 5.78709 0
M  V30 2404 N 232.062 -1.29571 -0.897171 0
M  V30 2405 C 232.992 -1.17473 -2.01798 0
M  V30 2406 C 233.973 -0.068323 -1.69963 0
M  V30 2407 O 235.158 -0.248239 -1.92607 0
M  V30 2408 C 232.288 -0.853099 -3.36659 0
M  V30 2409 C 231.242 -1.9161 -3.82713 0
M  V30 2410 C 230.568 -1.44773 -5.14728 0
M  V30 2411 C 231.868 -3.32535 -4.02763 0
M  V30 2412 H 233.562 -2.11237 -2.12177 0
M  V30 2413 H 231.108 -1.01699 -1.01948 0
M  V30 2414 H 233.061 -0.755165 -4.14578 0
M  V30 2415 H 231.785 0.120236 -3.26379 0
M  V30 2416 H 230.444 -2.00346 -3.07013 0
M  V30 2417 H 230.092 -0.462995 -5.00865 0
M  V30 2418 H 229.792 -2.15865 -5.46513 0
M  V30 2419 H 231.316 -1.36334 -5.95185 0
M  V30 2420 H 232.73 -3.26626 -4.71156 0
M  V30 2421 H 231.127 -4.01607 -4.45905 0
M  V30 2422 H 232.197 -3.75326 -3.07016 0
M  V30 2423 N 233.54 1.10788 -1.12088 0
M  V30 2424 C 234.788 1.8231 -0.872205 0
M  V30 2425 C 235.109 1.85419 0.603709 0
M  V30 2426 O 234.379 1.32963 1.43867 0
M  V30 2427 H 232.959 0.675137 -0.319686 0
M  V30 2428 H 235.621 1.34068 -1.41463 0
M  V30 2429 H 234.717 2.85955 -1.25045 0
M  V30 2430 N 235.018 0.912232 1.28515 0
M  V30 2431 C 235.981 0.404223 2.25607 0
M  V30 2432 C 236.981 -0.468602 1.53821 0
M  V30 2433 O 238.171 -0.271873 1.72065 0
M  V30 2434 C 235.303 -0.420653 3.38295 0
M  V30 2435 H 236.496 1.26188 2.7206 0
M  V30 2436 H 234.049 0.691495 1.40171 0
M  V30 2437 H 234.784 -1.29777 2.97201 0
M  V30 2438 H 234.569 0.204935 3.91564 0
M  V30 2439 H 236.059 -0.766971 4.10496 0
M  V30 2440 N 236.496 -1.42363 0.676048 0
M  V30 2441 C 237.459 -2.29199 0.00766941 0
M  V30 2442 C 238.459 -1.43389 -0.727745 0
M  V30 2443 O 239.649 -1.64764 -0.56556 0
M  V30 2444 C 236.781 -3.2591 -0.999785 0
M  V30 2445 H 237.974 -2.89794 0.771988 0
M  V30 2446 H 235.527 -1.50024 0.438468 0
M  V30 2447 H 236.262 -2.70256 -1.79255 0
M  V30 2448 H 236.047 -3.89202 -0.475829 0
M  V30 2449 H 237.537 -3.91028 -1.46583 0
M  V30 2450 N 237.974 -0.419461 -1.51915 0
M  V30 2451 C 239.251 0.211999 -1.94448 0
M  V30 2452 C 239.631 1.61703 -1.35703 0
M  V30 2453 O 238.979 2.22102 -0.536931 0
M  V30 2454 C 239.189 0.207872 -3.4838 0
M  V30 2455 C 240.537 0.422192 -4.22496 0
M  V30 2456 O 241.561 0.286778 -3.55044 0
M  V30 2457 O 240.42 0.690009 -5.42126 0
M  V30 2458 H 237.514 0.139586 -0.815135 0
M  V30 2459 H 240.06 -0.476151 -1.62883 0
M  V30 2460 H 238.832 -0.775102 -3.83546 0
M  V30 2461 H 238.455 0.939688 -3.86336 0
M  V30 2462 N 239.452 1.56882 -0.150215 0
M  V30 2463 C 240.382 2.19935 0.784284 0
M  V30 2464 C 241.363 1.14854 1.25469 0
M  V30 2465 O 242.548 1.43209 1.31168 0
M  V30 2466 C 239.678 2.82349 2.02229 0
M  V30 2467 C 238.632 3.93285 1.68853 0
M  V30 2468 C 237.958 4.42649 2.99944 0
M  V30 2469 C 239.258 5.13904 0.932714 0
M  V30 2470 H 240.952 2.9828 0.258781 0
M  V30 2471 H 238.498 1.43473 0.123029 0
M  V30 2472 H 240.451 3.25126 2.68088 0
M  V30 2473 H 239.175 2.0134 2.57157 0
M  V30 2474 H 237.834 3.5113 1.05371 0
M  V30 2475 H 237.482 3.58458 3.52869 0
M  V30 2476 H 237.182 5.17476 2.78374 0
M  V30 2477 H 238.706 4.88099 3.66868 0
M  V30 2478 H 240.12 5.53506 1.49345 0
M  V30 2479 H 238.517 5.94515 0.81684 0
M  V30 2480 H 239.587 4.84842 -0.0749568 0
M  V30 2481 N 240.93 -0.123565 1.57115 0
M  V30 2482 C 241.893 -1.13583 1.99076 0
M  V30 2483 C 242.893 -1.34564 0.880296 0
M  V30 2484 O 244.083 -1.31158 1.14644 0
M  V30 2485 C 241.215 -2.49128 2.32698 0
M  V30 2486 H 242.408 -0.775287 2.89706 0
M  V30 2487 H 239.961 -0.36771 1.51913 0
M  V30 2488 H 240.696 -2.90111 1.44934 0
M  V30 2489 H 240.481 -2.35255 3.13684 0
M  V30 2490 H 241.971 -3.2199 2.65918 0
M  V30 2491 N 242.408 -1.52605 -0.393616 0
M  V30 2492 C 243.657 -1.66649 -1.13627 0
M  V30 2493 C 243.97 -0.410364 -1.91247 0
M  V30 2494 O 245.176 -0.430854 -2.68059 0
M  V30 2495 C 243.632 -2.9449 -2.06891 0
M  V30 2496 C 243.24 -4.27266 -1.34714 0
M  V30 2497 C 244.984 -3.17899 -2.81319 0
M  V30 2498 C 242.891 -5.46217 -2.26717 0
M  V30 2499 H 241.821 -0.62084 -0.427871 0
M  V30 2500 H 244.472 -1.791 -0.399428 0
M  V30 2501 H 242.854 -2.75774 -2.84191 0
M  V30 2502 H 244.028 -4.56518 -0.626714 0
M  V30 2503 H 242.343 -4.10081 -0.722643 0
M  V30 2504 H 244.94 -4.03949 -3.50328 0
M  V30 2505 H 245.283 -2.32777 -3.45139 0
M  V30 2506 H 245.816 -3.37159 -2.11113 0
M  V30 2507 H 242.555 -6.33733 -1.67521 0
M  V30 2508 H 242.075 -5.21283 -2.96689 0
M  V30 2509 H 243.754 -5.7991 -2.86903 0
M  V30 2510 N 243.887 0.651787 -1.4349 0
M  V30 2511 C 245.133 1.4121 -1.46395 0
M  V30 2512 C 245.488 1.92202 -0.087366 0
M  V30 2513 O 244.781 1.69452 0.894231 0
M  V30 2514 C 244.975 2.60914 -2.44251 0
M  V30 2515 C 244.804 2.21639 -3.91288 0
M  V30 2516 C 243.574 2.09897 -4.59643 0
M  V30 2517 C 245.772 1.81835 -4.81083 0
M  V30 2518 N 243.754 1.63967 -5.91598 0
M  V30 2519 C 245.125 1.46998 -6.02322 0
M  V30 2520 C 247.18 1.69031 -4.6833 0
M  V30 2521 C 245.883 1.00638 -7.12225 0
M  V30 2522 C 247.909 1.24077 -5.78238 0
M  V30 2523 C 247.271 0.901772 -6.98604 0
M  V30 2524 H 243.37 0.512322 -0.590805 0
M  V30 2525 H 245.954 0.74989 -1.7968 0
M  V30 2526 H 244.125 3.24792 -2.1299 0
M  V30 2527 H 245.857 3.27622 -2.37584 0
M  V30 2528 H 242.612 2.297 -4.14168 0
M  V30 2529 H 243.036 1.43359 -6.61647 0
M  V30 2530 H 247.678 1.93878 -3.75727 0
M  V30 2531 H 245.396 0.745399 -8.04655 0
M  V30 2532 H 248.982 1.14657 -5.7039 0
M  V30 2533 H 247.862 0.559226 -7.82203 0
M  V30 2534 N 245.365 1.30045 0.890287 0
M  V30 2535 C 246.642 1.09227 1.62262 0
M  V30 2536 C 247.022 -0.360305 2.08002 0
M  V30 2537 O 246.37 -1.35084 1.84295 0
M  V30 2538 C 246.58 2.08835 2.79623 0
M  V30 2539 C 247.928 2.40266 3.50082 0
M  V30 2540 O 248.952 2.07104 2.89804 0
M  V30 2541 O 247.811 2.96967 4.58773 0
M  V30 2542 H 244.905 0.419132 0.712922 0
M  V30 2543 H 247.451 1.41451 0.937529 0
M  V30 2544 H 246.223 3.06633 2.43089 0
M  V30 2545 H 245.846 1.77397 3.55832 0
M  V30 2546 N 246.843 -1.10192 1.12674 0
M  V30 2547 C 247.806 -2.14786 0.799979 0
M  V30 2548 C 248.806 -1.59711 -0.18685 0
M  V30 2549 O 249.996 -1.74156 0.0392558 0
M  V30 2550 C 247.128 -3.40374 0.189228 0
M  V30 2551 H 248.321 -2.45203 1.72671 0
M  V30 2552 H 245.874 -1.25597 0.930326 0
M  V30 2553 H 246.609 -3.15577 -0.747107 0
M  V30 2554 H 246.394 -3.81637 0.899766 0
M  V30 2555 H 247.884 -4.17594 -0.0228143 0
M  V30 2556 N 248.321 -0.919034 -1.28029 0
M  V30 2557 C 249.737 -0.617972 -1.4715 0
M  V30 2558 C 249.937 0.835242 -1.83374 0
M  V30 2559 O 248.993 1.61388 -1.94191 0
M  V30 2560 C 250.306 -1.56041 -2.57044 0
M  V30 2561 C 251.854 -1.56769 -2.7091 0
M  V30 2562 C 252.329 -2.49688 -3.83953 0
M  V30 2563 N 253.82 -2.47845 -3.91314 0
M  V30 2564 C 254.555 -3.16437 -4.78179 0
M  V30 2565 N 254.051 -3.94376 -5.69596 0
M  V30 2566 N 255.844 -3.05498 -4.71834 0
M  V30 2567 H 247.995 -1.85866 -1.02798 0
M  V30 2568 H 250.258 -0.797506 -0.512531 0
M  V30 2569 H 249.964 -2.59671 -2.372 0
M  V30 2570 H 249.838 -1.29551 -3.54255 0
M  V30 2571 H 252.225 -0.538745 -2.90141 0
M  V30 2572 H 252.306 -1.87305 -1.74214 0
M  V30 2573 H 251.95 -3.52688 -3.65477 0
M  V30 2574 H 251.88 -2.16453 -4.80058 0
M  V30 2575 H 254.371 -1.91234 -3.25941 0
M  V30 2576 H 254.684 -4.43721 -6.32718 0
M  V30 2577 H 253.029 -3.98481 -5.69419 0
M  V30 2578 H 256.22 -2.44108 -3.99411 0
M  V30 2579 H 256.393 -3.59225 -5.39316 0
M  V30 2580 N 249.799 1.42003 -0.683588 0
M  V30 2581 C 251.024 2.06265 -0.216647 0
M  V30 2582 C 251.449 1.51059 1.12083 0
M  V30 2583 O 250.807 0.632638 1.69904 0
M  V30 2584 C 250.855 3.60191 -0.171759 0
M  V30 2585 O 249.959 4.03396 0.857069 0
M  V30 2586 H 249.3 0.65502 -0.108834 0
M  V30 2587 H 251.83 1.81982 -0.935077 0
M  V30 2588 H 251.84 4.08 0.0014303 0
M  V30 2589 H 250.515 3.99743 -1.14796 0
M  V30 2590 H 249.092 3.67117 0.654208 0
M  V30 2591 N 251.277 0.427512 1.51691 0
M  V30 2592 C 252.688 -0.0378867 1.86662 0
M  V30 2593 C 253.039 -1.42819 1.34525 0
M  V30 2594 O 252.164 -2.05037 0.692014 0
M  V30 2595 C 252.759 -0.0755266 3.38716 0
M  V30 2596 C 251.318 -0.485309 3.73258 0
M  V30 2597 C 250.465 0.328399 2.75349 0
M  V30 2598 H 253.416 0.64379 1.45055 0
M  V30 2599 H 253.437 -0.887056 3.70016 0
M  V30 2600 H 252.949 0.936487 3.76632 0
M  V30 2601 H 251.05 -1.50329 3.40928 0
M  V30 2602 H 251.163 -0.21693 4.78609 0
M  V30 2603 H 249.527 -0.211905 2.53817 0
M  V30 2604 H 250.31 1.3391 3.16106 0
M  V30 2605 N 252.755 -1.56801 0.158532 0
M  V30 2606 C 253.687 -2.14488 -0.807923 0
M  V30 2607 C 254.7 -1.09721 -1.20271 0
M  V30 2608 O 255.889 -1.36956 -1.14478 0
M  V30 2609 C 252.989 -2.66217 -2.09718 0
M  V30 2610 C 252.162 -3.95507 -1.86796 0
M  V30 2611 C 251.221 -4.3243 -2.99818 0
M  V30 2612 O 250.247 -5.00543 -2.71008 0
M  V30 2613 N 251.449 -3.92947 -4.27285 0
M  V30 2614 H 254.214 -2.98042 -0.314816 0
M  V30 2615 H 251.775 -1.61881 -0.0246692 0
M  V30 2616 H 253.767 -2.87924 -2.84398 0
M  V30 2617 H 252.337 -1.87324 -2.50257 0
M  V30 2618 H 251.557 -3.82309 -0.96089 0
M  V30 2619 H 252.845 -4.79972 -1.68833 0
M  V30 2620 H 252.243 -3.38087 -4.53557 0
M  V30 2621 H 250.8 -4.19681 -4.9871 0
M  V30 2622 N 254.233 0.115231 -1.57178 0
M  V30 2623 C 255.143 1.15994 -2.03918 0
M  V30 2624 C 256.159 1.45103 -0.960268 0
M  V30 2625 O 257.335 1.56144 -1.27204 0
M  V30 2626 C 254.4 2.46568 -2.43732 0
M  V30 2627 C 253.461 2.24822 -3.65723 0
M  V30 2628 C 252.694 3.4917 -4.03629 0
M  V30 2629 O 252.917 4.56623 -3.41835 0
M  V30 2630 O 251.851 3.39949 -4.96708 0
M  V30 2631 H 255.677 0.793019 -2.93164 0
M  V30 2632 H 253.262 0.3263 -1.45793 0
M  V30 2633 H 255.144 3.23492 -2.70057 0
M  V30 2634 H 253.819 2.82726 -1.57631 0
M  V30 2635 H 252.726 1.45744 -3.44542 0
M  V30 2636 H 254.059 1.93566 -4.52541 0
M  V30 2637 N 255.711 1.52812 0.385517 0
M  V30 2638 C 256.941 1.71658 1.14966 0
M  V30 2639 C 257.349 0.436253 1.84102 0
M  V30 2640 O 256.692 -0.599313 1.73649 0
M  V30 2641 C 256.754 2.81309 2.23843 0
M  V30 2642 C 256.418 4.22313 1.74644 0
M  V30 2643 C 257.415 5.05352 1.22129 0
M  V30 2644 C 255.1 4.68648 1.80761 0
M  V30 2645 C 257.094 6.32807 0.763838 0
M  V30 2646 C 254.781 5.96086 1.34627 0
M  V30 2647 C 255.779 6.77996 0.825264 0
M  V30 2648 O 255.467 8.03045 0.370669 0
M  V30 2649 H 255.199 0.578022 0.350523 0
M  V30 2650 H 257.753 2.00263 0.456509 0
M  V30 2651 H 255.983 2.48133 2.96592 0
M  V30 2652 H 257.672 2.88524 2.85497 0
M  V30 2653 H 258.438 4.70736 1.16758 0
M  V30 2654 H 254.317 4.04979 2.20256 0
M  V30 2655 H 257.861 6.96689 0.356494 0
M  V30 2656 H 253.758 6.30205 1.39686 0
M  V30 2657 H 254.526 8.17021 0.491829 0
M  V30 2658 N 257.189 -0.644168 1.43834 0
M  V30 2659 C 258.605 -0.960875 1.27434 0
M  V30 2660 C 258.805 -2.00499 0.200618 0
M  V30 2661 O 257.861 -2.49018 -0.417906 0
M  V30 2662 C 259.174 -1.43653 2.64167 0
M  V30 2663 C 260.722 -1.55271 2.71772 0
M  V30 2664 C 261.197 -2.06224 4.08944 0
M  V30 2665 N 262.688 -2.13513 4.11055 0
M  V30 2666 C 263.423 -2.54081 5.14033 0
M  V30 2667 N 262.919 -2.9388 6.27381 0
M  V30 2668 N 264.712 -2.54101 5.01387 0
M  V30 2669 H 256.863 0.0465779 2.12349 0
M  V30 2670 H 259.126 -0.0417638 0.94708 0
M  V30 2671 H 258.832 -0.743706 3.43747 0
M  V30 2672 H 258.706 -2.40993 2.90176 0
M  V30 2673 H 261.093 -2.23653 1.92519 0
M  V30 2674 H 261.174 -0.563395 2.49519 0
M  V30 2675 H 260.818 -1.38441 4.88668 0
M  V30 2676 H 260.748 -3.06003 4.28567 0
M  V30 2677 H 263.239 -1.85493 3.29242 0
M  V30 2678 H 263.552 -3.2361 7.01781 0
M  V30 2679 H 261.897 -2.91663 6.30839 0
M  V30 2680 H 265.088 -2.22391 4.11898 0
M  V30 2681 H 265.261 -2.85394 5.81768 0
M  V30 2682 N 258.668 -1.30515 -0.883378 0
M  V30 2683 C 259.916 -1.19194 -1.63209 0
M  V30 2684 C 260.237 0.253205 -1.93349 0
M  V30 2685 O 259.507 1.17025 -1.57105 0
M  V30 2686 H 258.087 -0.438148 -0.605009 0
M  V30 2687 H 260.749 -1.63663 -1.05832 0
M  V30 2688 H 259.845 -1.75396 -2.58153 0
M  V30 2689 N 260.146 1.09593 -1.13257 0
M  V30 2690 C 261.056 2.19739 -0.821691 0
M  V30 2691 C 262.072 1.72926 0.19302 0
M  V30 2692 O 263.248 2.01385 0.0244895 0
M  V30 2693 C 260.313 3.45482 -0.290333 0
M  V30 2694 C 259.374 4.06985 -1.36607 0
M  V30 2695 C 258.607 5.26726 -0.859975 0
M  V30 2696 O 258.83 5.69594 0.303082 0
M  V30 2697 O 257.764 5.7931 -1.63351 0
M  V30 2698 H 261.59 2.48781 -1.74189 0
M  V30 2699 H 259.175 1.18496 -0.909894 0
M  V30 2700 H 261.057 4.214 0.000674022 0
M  V30 2701 H 259.732 3.18047 0.602306 0
M  V30 2702 H 258.639 3.32712 -1.71037 0
M  V30 2703 H 259.972 4.38643 -2.23279 0
M  V30 2704 N 261.624 0.925811 1.2754 0
M  V30 2705 C 262.571 0.422045 2.26908 0
M  V30 2706 C 263.541 -0.510029 1.58076 0
M  V30 2707 O 264.726 -0.429599 1.85901 0
M  V30 2708 C 261.866 -0.320837 3.43605 0
M  V30 2709 C 260.979 0.64513 4.27156 0
M  V30 2710 C 260.114 -0.117405 5.3107 0
M  V30 2711 C 259.153 0.841391 6.0629 0
M  V30 2712 N 258.29 0.111604 7.02011 0
M  V30 2713 H 263.13 1.27441 2.69375 0
M  V30 2714 H 260.667 0.639697 1.32462 0
M  V30 2715 H 262.625 -0.76785 4.10073 0
M  V30 2716 H 261.255 -1.13745 3.02096 0
M  V30 2717 H 260.307 1.21067 3.6062 0
M  V30 2718 H 261.619 1.37797 4.79389 0
M  V30 2719 H 260.773 -0.624422 6.03478 0
M  V30 2720 H 259.512 -0.883219 4.79636 0
M  V30 2721 H 258.517 1.35967 5.32722 0
M  V30 2722 H 259.742 1.60696 6.59813 0
M  V30 2723 H 257.688 -0.635999 6.5291 0
M  V30 2724 H 257.605 0.784044 7.51923 0
M  V30 2725 H 258.873 -0.374823 7.78598 0
M  V30 2726 N 263.102 -1.41638 0.69111 0
M  V30 2727 C 264.348 -2.01598 0.220519 0
M  V30 2728 C 264.681 -1.54594 -1.17535 0
M  V30 2729 O 263.956 -0.755177 -1.79241 0
M  V30 2730 C 264.239 -3.59062 0.273243 0
M  V30 2731 C 264.092 -4.16203 1.70573 0
M  V30 2732 C 265.411 -4.38546 -0.369457 0
M  V30 2733 H 262.53 -0.732468 0.0816045 0
M  V30 2734 H 265.172 -1.68445 0.878986 0
M  V30 2735 H 263.322 -3.87435 -0.287411 0
M  V30 2736 H 264.994 -3.98722 2.31989 0
M  V30 2737 H 263.237 -3.71414 2.2413 0
M  V30 2738 H 263.908 -5.25358 1.69419 0
M  V30 2739 H 266.384 -4.1596 0.107977 0
M  V30 2740 H 265.26 -5.48069 -0.302002 0
M  V30 2741 H 265.521 -4.17662 -1.44951 0
M  V30 2742 N 264.58 -0.43555 -1.51462 0
M  V30 2743 C 265.51 0.367376 -2.30592 0
M  V30 2744 C 266.491 1.02263 -1.35928 0
M  V30 2745 O 267.676 1.02661 -1.64847 0
M  V30 2746 C 264.806 1.46983 -3.14664 0
M  V30 2747 C 263.76 0.938161 -4.17591 0
M  V30 2748 C 263.086 2.13622 -4.90173 0
M  V30 2749 C 264.386 -0.0261621 -5.22293 0
M  V30 2750 H 266.08 -0.292969 -2.97963 0
M  V30 2751 H 263.626 -0.14234 -1.43295 0
M  V30 2752 H 265.579 2.03873 -3.688 0
M  V30 2753 H 264.303 2.15843 -2.4511 0
M  V30 2754 H 262.962 0.391481 -3.64504 0
M  V30 2755 H 262.61 2.81098 -4.17124 0
M  V30 2756 H 262.31 1.78688 -5.59772 0
M  V30 2757 H 263.834 2.7107 -5.47132 0
M  V30 2758 H 265.248 0.452384 -5.71512 0
M  V30 2759 H 263.645 -0.287992 -5.99409 0
M  V30 2760 H 264.715 -0.963391 -4.75233 0
M  V30 2761 N 266.058 1.56714 -0.166846 0
M  V30 2762 C 267.021 2.16539 0.751232 0
M  V30 2763 C 268.021 1.11228 1.16125 0
M  V30 2764 O 269.211 1.36765 1.07894 0
M  V30 2765 C 266.343 2.74462 2.02196 0
M  V30 2766 H 267.536 2.99013 0.230499 0
M  V30 2767 H 265.089 1.56081 0.0826982 0
M  V30 2768 H 265.824 1.95709 2.58589 0
M  V30 2769 H 265.609 3.51527 1.73698 0
M  V30 2770 H 267.099 3.20489 2.67725 0
M  V30 2771 N 267.536 -0.106894 1.57237 0
M  V30 2772 C 268.499 -1.11466 2.0027 0
M  V30 2773 C 269.499 -1.33623 0.894519 0
M  V30 2774 O 270.689 -1.29935 1.16028 0
M  V30 2775 C 267.821 -2.46646 2.35327 0
M  V30 2776 H 269.014 -0.744516 2.90512 0
M  V30 2777 H 266.567 -0.351576 1.52295 0
M  V30 2778 H 267.302 -2.88558 1.48003 0
M  V30 2779 H 267.087 -2.31915 3.16161 0
M  V30 2780 H 268.577 -3.19151 2.69318 0
M  V30 2781 N 269.014 -1.53014 -0.377408 0
M  V30 2782 C 269.961 -1.78616 -1.46168 0
M  V30 2783 C 270.931 -0.629917 -1.53692 0
M  V30 2784 O 272.116 -0.870861 -1.69766 0
M  V30 2785 C 269.256 -1.97123 -2.8326 0
M  V30 2786 C 268.369 -3.24831 -2.84796 0
M  V30 2787 C 267.504 -3.33591 -4.13389 0
M  V30 2788 C 266.543 -4.55377 -4.09021 0
M  V30 2789 N 265.68 -4.61355 -5.29241 0
M  V30 2790 H 270.52 -2.71142 -1.23637 0
M  V30 2791 H 268.057 -1.34326 -0.599577 0
M  V30 2792 H 270.015 -2.05839 -3.62886 0
M  V30 2793 H 268.645 -1.07946 -3.04216 0
M  V30 2794 H 267.697 -3.25128 -1.97474 0
M  V30 2795 H 269.009 -4.14523 -2.77439 0
M  V30 2796 H 268.163 -3.41554 -5.01424 0
M  V30 2797 H 266.902 -2.41894 -4.23484 0
M  V30 2798 H 265.907 -4.47527 -3.19373 0
M  V30 2799 H 267.132 -5.48402 -4.00539 0
M  V30 2800 H 265.078 -3.72554 -5.39944 0
M  V30 2801 H 264.995 -5.44935 -5.24006 0
M  V30 2802 H 266.263 -4.73586 -6.19141 0
M  V30 2803 N 270.492 0.636531 -1.44174 0
M  V30 2804 C 271.74 1.39343 -1.46383 0
M  V30 2805 C 272.061 1.94766 -0.0955715 0
M  V30 2806 O 271.331 1.75452 0.871395 0
M  V30 2807 H 269.911 0.517199 -0.538994 0
M  V30 2808 H 272.573 0.74957 -1.7991 0
M  V30 2809 H 271.669 2.22746 -2.18611 0
M  V30 2810 N 271.97 1.30982 0.876444 0
M  V30 2811 C 273.218 1.20058 1.62575 0
M  V30 2812 C 273.539 -0.242947 1.93481 0
M  V30 2813 O 272.809 -1.1619 1.57724 0
M  V30 2814 H 271.389 0.44135 0.602677 0
M  V30 2815 H 274.051 1.64222 1.04962 0
M  V30 2816 H 273.147 1.76762 2.57219 0
M  V30 2817 N 273.449 -1.08991 1.13837 0
M  V30 2818 C 274.399 -2.1393 0.788535 0
M  V30 2819 C 275.383 -1.59396 -0.219516 0
M  V30 2820 O 276.575 -1.76985 -0.0227557 0
M  V30 2821 C 273.704 -3.42305 0.261147 0
M  V30 2822 C 272.79 -4.03736 1.29837 0
M  V30 2823 N 273.181 -4.39659 2.50067 0
M  V30 2824 C 271.479 -4.30993 1.1472 0
M  V30 2825 C 272.18 -4.88113 3.16419 0
M  V30 2826 N 271.156 -4.85846 2.43832 0
M  V30 2827 H 274.958 -2.39516 1.70322 0
M  V30 2828 H 272.472 -1.26263 1.02134 0
M  V30 2829 H 274.469 -4.16899 -0.0077405 0
M  V30 2830 H 273.129 -3.18172 -0.647805 0
M  V30 2831 H 274.14 -4.30878 2.8734 0
M  V30 2832 H 270.817 -4.16444 0.296773 0
M  V30 2833 H 272.207 -5.25336 4.18894 0
M  V30 2834 N 274.927 -0.932562 -1.27047 0
M  V30 2835 C 276.176 -0.571351 -1.93439 0
M  V30 2836 C 276.489 0.892467 -1.74053 0
M  V30 2837 O 277.695 1.36267 -2.34826 0
M  V30 2838 C 276.151 -0.97106 -3.46552 0
M  V30 2839 C 275.759 -2.4559 -3.74686 0
M  V30 2840 C 277.503 -0.681333 -4.18997 0
M  V30 2841 C 275.41 -2.79475 -5.21198 0
M  V30 2842 H 274.34 -0.209966 -0.724176 0
M  V30 2843 H 276.991 -1.13403 -1.44263 0
M  V30 2844 H 275.373 -0.336983 -3.94564 0
M  V30 2845 H 276.547 -3.13829 -3.37414 0
M  V30 2846 H 274.862 -2.71802 -3.15456 0
M  V30 2847 H 277.459 -0.910939 -5.26883 0
M  V30 2848 H 277.802 0.381628 -4.14547 0
M  V30 2849 H 278.335 -1.27473 -3.76823 0
M  V30 2850 H 275.074 -3.847 -5.30741 0
M  V30 2851 H 274.594 -2.1589 -5.596 0
M  V30 2852 H 276.273 -2.67478 -5.89122 0
M  V30 2853 N 276.405 1.4127 -0.698611 0
M  V30 2854 C 277.816 1.84187 -0.305289 0
M  V30 2855 C 278.167 1.58449 1.15708 0
M  V30 2856 O 277.292 1.05651 1.88856 0
M  V30 2857 C 277.887 3.3435 -0.547314 0
M  V30 2858 C 276.446 3.75826 -0.207878 0
M  V30 2859 C 275.593 2.64647 -0.828099 0
M  V30 2860 H 278.544 1.30778 -0.89904 0
M  V30 2861 H 278.565 3.8001 0.192998 0
M  V30 2862 H 278.077 3.53051 -1.61172 0
M  V30 2863 H 276.178 3.62725 0.852143 0
M  V30 2864 H 276.291 4.74462 -0.665021 0
M  V30 2865 H 274.655 2.53395 -0.257458 0
M  V30 2866 H 275.438 2.86165 -1.89643 0
M  V30 2867 N 277.883 0.443576 1.51229 0
M  V30 2868 C 279.131 -0.120557 2.0174 0
M  V30 2869 C 279.452 -1.42665 1.32935 0
M  V30 2870 O 278.722 -1.9028 0.465866 0
M  V30 2871 H 277.302 -0.0475426 0.745486 0
M  V30 2872 H 279.964 0.587711 1.85828 0
M  V30 2873 H 279.06 -0.291972 3.10731 0
M  V30 2874 N 279.361 -1.56624 0.175154 0
M  V30 2875 C 280.324 -2.16934 -0.739738 0
M  V30 2876 C 281.324 -1.11842 -1.15533 0
M  V30 2877 O 282.514 -1.37335 -1.07167 0
M  V30 2878 C 279.646 -2.75531 -2.00738 0
M  V30 2879 H 280.839 -2.99131 -0.214639 0
M  V30 2880 H 278.392 -1.56123 -0.0744197 0
M  V30 2881 H 279.127 -1.97078 -2.57548 0
M  V30 2882 H 278.912 -3.52444 -1.71831 0
M  V30 2883 H 280.402 -3.21904 -2.66021 0
M  V30 2884 N 280.839 0.0985539 -1.57292 0
M  V30 2885 C 282.085 0.803867 -1.86188 0
M  V30 2886 C 282.418 1.78549 -0.763794 0
M  V30 2887 O 281.693 1.93153 0.22855 0
M  V30 2888 C 281.976 1.53568 -3.25713 0
M  V30 2889 C 281.829 0.572277 -4.46145 0
M  V30 2890 C 283.148 2.48708 -3.63087 0
M  V30 2891 H 280.267 0.290781 -0.677211 0
M  V30 2892 H 282.909 0.0675783 -1.8988 0
M  V30 2893 H 281.059 2.16332 -3.22696 0
M  V30 2894 H 282.731 -0.0480894 -4.61275 0
M  V30 2895 H 280.974 -0.114618 -4.33649 0
M  V30 2896 H 281.645 1.12139 -5.40489 0
M  V30 2897 H 284.121 1.96039 -3.67026 0
M  V30 2898 H 282.997 2.96932 -4.61652 0
M  V30 2899 H 283.258 3.32309 -2.91588 0
M  V30 2900 N 282.317 1.53212 0.369288 0
M  V30 2901 C 283.265 1.80054 1.47253 0
M  V30 2902 C 284.259 0.669456 1.55611 0
M  V30 2903 O 285.465 0.852328 1.58541 0
M  V30 2904 H 281.84 0.570034 0.490475 0
M  V30 2905 H 283.811 2.72403 1.21817 0
M  V30 2906 C 282.56 2.00403 2.84137 0
M  V30 2907 H 281.883 2.86876 2.78464 0
M  V30 2908 H 283.323 2.23164 3.60519 0
M  V30 2909 C 281.782 0.782081 3.27697 0
M  V30 2910 O 282.312 -0.0310205 4.01688 0
M  V30 2911 N 280.518 0.606573 2.84199 0
M  V30 2912 H 280.065 1.26939 2.24152 0
M  V30 2913 H 280.023 -0.20962 3.137 0
M  V30 2914 N 283.795 -0.628877 1.44509 0
M  V30 2915 C 285.042 -1.38839 1.47411 0
M  V30 2916 C 285.37 -1.94202 0.10757 0
M  V30 2917 O 284.625 -1.74243 -0.890947 0
M  V30 2918 C 284.924 -2.56995 2.48371 0
M  V30 2919 C 284.59 -2.19908 3.93639 0
M  V30 2920 C 283.252 -2.09506 4.33198 0
M  V30 2921 C 285.604 -1.9064 4.85083 0
M  V30 2922 C 282.932 -1.68028 5.62124 0
M  V30 2923 C 285.284 -1.50655 6.14399 0
M  V30 2924 C 283.948 -1.38796 6.5291 0
M  V30 2925 H 283.218 -0.508048 0.539414 0
M  V30 2926 H 285.865 -0.712913 1.77735 0
M  V30 2927 H 284.17 -3.29786 2.11538 0
M  V30 2928 H 285.867 -3.15223 2.47861 0
M  V30 2929 H 282.457 -2.28922 3.62343 0
M  V30 2930 H 286.641 -1.97585 4.55273 0
M  V30 2931 H 281.897 -1.57452 5.90778 0
M  V30 2932 H 286.071 -1.27048 6.84713 0
M  V30 2933 H 283.698 -1.06429 7.52713 0
M  V30 2934 N 285.273 -1.31445 -0.869486 0
M  V30 2935 C 286.183 -1.21097 -2.0093 0
M  V30 2936 C 287.199 -0.127584 -1.73532 0
M  V30 2937 O 288.375 -0.345477 -1.98415 0
M  V30 2938 C 285.44 -0.919378 -3.34288 0
M  V30 2939 C 284.501 -2.08971 -3.75006 0
M  V30 2940 C 283.734 -1.81194 -5.02001 0
M  V30 2941 O 283.957 -0.747296 -5.65484 0
M  V30 2942 O 282.891 -2.66883 -5.39497 0
M  V30 2943 H 286.717 -2.16883 -2.12592 0
M  V30 2944 H 284.302 -1.11189 -0.997868 0
M  V30 2945 H 286.184 -0.772625 -4.14257 0
M  V30 2946 H 284.859 0.00844772 -3.23699 0
M  V30 2947 H 283.766 -2.29187 -2.95676 0
M  V30 2948 H 285.099 -2.9998 -3.90221 0
M  V30 2949 N 286.751 1.08385 -1.14413 0
M  V30 2950 C 287.997 1.81212 -0.923793 0
M  V30 2951 C 288.352 1.84555 0.543814 0
M  V30 2952 O 287.645 1.31056 1.39767 0
M  V30 2953 C 287.839 3.26273 -1.45879 0
M  V30 2954 C 287.668 3.37063 -2.97689 0
M  V30 2955 C 286.438 3.4824 -3.66138 0
M  V30 2956 C 288.636 3.28698 -3.95553 0
M  V30 2957 N 286.618 3.47824 -5.05858 0
M  V30 2958 C 287.989 3.35276 -5.21527 0
M  V30 2959 C 290.044 3.12437 -3.8767 0
M  V30 2960 C 288.747 3.27267 -6.40538 0
M  V30 2961 C 290.773 3.05757 -5.06228 0
M  V30 2962 C 290.135 3.12938 -6.3107 0
M  V30 2963 H 286.234 0.6769 -0.391574 0
M  V30 2964 H 288.818 1.29455 -1.45429 0
M  V30 2965 H 286.989 3.76474 -0.95507 0
M  V30 2966 H 288.721 3.87165 -1.17835 0
M  V30 2967 H 285.476 3.52141 -3.16692 0
M  V30 2968 H 285.9 3.51171 -5.78798 0
M  V30 2969 H 290.542 3.05747 -2.92025 0
M  V30 2970 H 288.26 3.32718 -7.36427 0
M  V30 2971 H 291.846 2.94295 -5.01878 0
M  V30 2972 H 290.726 3.078 -7.21269 0
M  V30 2973 N 288.23 0.939286 1.26551 0
M  V30 2974 C 289.458 0.602536 1.97932 0
M  V30 2975 C 289.873 -0.82206 1.69964 0
M  V30 2976 O 289.23 -1.54789 0.966784 0
M  V30 2977 C 289.281 0.832946 3.51773 0
M  V30 2978 O 289.002 2.20151 3.78768 0
M  V30 2979 C 290.503 0.506483 4.40397 0
M  V30 2980 H 287.723 0.227248 0.631347 0
M  V30 2981 H 290.267 1.25948 1.61113 0
M  V30 2982 H 288.422 0.222644 3.8676 0
M  V30 2983 H 288.836 2.26013 4.73306 0
M  V30 2984 H 290.31 0.718333 5.47306 0
M  V30 2985 H 290.787 -0.558451 4.35635 0
M  V30 2986 H 291.393 1.09543 4.10951 0
M  V30 2987 N 289.708 -1.40897 0.706093 0
M  V30 2988 C 290.671 -2.29131 0.0562841 0
M  V30 2989 C 291.671 -1.44901 -0.697166 0
M  V30 2990 O 292.861 -1.65926 -0.530484 0
M  V30 2991 C 289.993 -3.27957 -0.93043 0
M  V30 2992 H 291.186 -2.88091 0.833284 0
M  V30 2993 H 288.739 -1.4906 0.470192 0
M  V30 2994 H 289.474 -2.73997 -1.73482 0
M  V30 2995 H 289.259 -3.90124 -0.393166 0
M  V30 2996 H 290.749 -3.94049 -1.38256 0
M  V30 2997 N 291.186 -0.45159 -1.50991 0
M  V30 2998 C 292.149 0.341117 -2.26647 0
M  V30 2999 C 293.149 0.937422 -1.30649 0
M  V30 3000 O 294.339 0.809644 -1.54241 0
M  V30 3001 C 291.471 1.48398 -3.06905 0
M  V30 3002 H 292.664 -0.322117 -2.98165 0
M  V30 3003 H 290.217 -0.205122 -1.54948 0
M  V30 3004 H 290.952 2.18284 -2.39838 0
M  V30 3005 H 290.737 1.06241 -3.77432 0
M  V30 3006 H 292.227 2.04367 -3.64176 0
M  V30 3007 N 292.664 1.56529 -0.183458 0
M  V30 3008 C 293.597 2.14417 0.781052 0
M  V30 3009 C 294.575 1.07761 1.21763 0
M  V30 3010 O 295.759 1.35807 1.30724 0
M  V30 3011 C 292.886 2.69361 2.05335 0
M  V30 3012 C 291.932 3.885 1.75982 0
M  V30 3013 S 292.765 5.27568 0.918256 0
M  V30 3014 C 293.921 5.85926 2.20095 0
M  V30 3015 H 294.154 2.95893 0.2889 0
M  V30 3016 H 291.687 1.54368 0.0313844 0
M  V30 3017 H 293.645 3.01662 2.78406 0
M  V30 3018 H 292.306 1.87949 2.51663 0
M  V30 3019 H 291.499 4.25314 2.70415 0
M  V30 3020 H 291.101 3.57149 1.10999 0
M  V30 3021 H 293.393 5.99579 3.15453 0
M  V30 3022 H 294.336 6.82761 1.87731 0
M  V30 3023 H 294.744 5.14438 2.32409 0
M  V30 3024 N 294.142 -0.090211 1.57342 0
M  V30 3025 C 295.419 -0.824761 1.77361 0
M  V30 3026 C 295.799 -1.96698 0.76637 0
M  V30 3027 O 295.147 -2.27586 -0.204179 0
M  V30 3028 C 295.357 -1.31481 3.23286 0
M  V30 3029 C 296.705 -1.75563 3.86604 0
M  V30 3030 O 297.729 -1.41093 3.27065 0
M  V30 3031 O 296.588 -2.39317 4.91314 0
M  V30 3032 H 293.682 -0.393776 0.727234 0
M  V30 3033 H 296.228 -0.0717138 1.69548 0
M  V30 3034 H 295 -0.496671 3.88135 0
M  V30 3035 H 294.623 -2.12973 3.35751 0
M  V30 3036 N 295.62 -1.53406 -0.361157 0
M  V30 3037 C 297.031 -1.61442 -0.937728 0
M  V30 3038 C 297.382 -0.48461 -1.90121 0
M  V30 3039 O 296.507 0.388312 -2.12888 0
M  V30 3040 C 297.102 -2.92624 -1.70753 0
M  V30 3041 C 295.661 -3.02981 -2.23337 0
M  V30 3042 C 294.808 -2.5677 -1.04712 0
M  V30 3043 H 297.759 -1.58083 -0.139816 0
M  V30 3044 H 297.78 -2.80675 -2.56908 0
M  V30 3045 H 297.292 -3.74834 -1.00604 0
M  V30 3046 H 295.393 -2.25368 -2.96715 0
M  V30 3047 H 295.506 -4.0814 -2.50916 0
M  V30 3048 H 293.87 -2.11752 -1.41539 0
M  V30 3049 H 294.653 -3.41402 -0.360539 0
M  V30 3050 N 297.098 0.621204 -1.44841 0
M  V30 3051 C 298.323 1.41244 -1.51871 0
M  V30 3052 C 298.748 1.87519 -0.147764 0
M  V30 3053 O 298.106 1.59334 0.865 0
M  V30 3054 C 298.154 2.60221 -2.49634 0
M  V30 3055 O 297.258 3.60395 -2.00473 0
M  V30 3056 H 296.599 0.42223 -0.512463 0
M  V30 3057 H 299.129 0.757305 -1.90069 0
M  V30 3058 H 299.139 3.0764 -2.67996 0
M  V30 3059 H 297.814 2.25887 -3.4921 0
M  V30 3060 H 296.391 3.19717 -1.91925 0
M  V30 3061 N 298.576 1.31904 0.862503 0
M  V30 3062 C 299.992 1.10724 1.14945 0
M  V30 3063 C 300.192 -0.117421 2.01158 0
M  V30 3064 O 299.248 -0.804595 2.39338 0
M  V30 3065 C 300.561 2.38267 1.83437 0
M  V30 3066 C 302.109 2.43949 1.96106 0
M  V30 3067 C 302.584 3.71394 2.68013 0
M  V30 3068 N 304.075 3.72331 2.75543 0
M  V30 3069 C 304.81 4.67641 3.31812 0
M  V30 3070 N 304.306 5.73313 3.88953 0
M  V30 3071 N 306.099 4.5515 3.29841 0
M  V30 3072 H 298.25 2.10436 0.288191 0
M  V30 3073 H 300.513 0.928705 0.190292 0
M  V30 3074 H 300.219 3.27759 1.27542 0
M  V30 3075 H 300.093 2.48633 2.83657 0
M  V30 3076 H 302.48 1.54922 2.51164 0
M  V30 3077 H 302.561 2.37543 0.949059 0
M  V30 3078 H 302.205 4.60791 2.13621 0
M  V30 3079 H 302.135 3.75069 3.69636 0
M  V30 3080 H 304.626 2.95947 2.34997 0
M  V30 3081 H 304.939 6.42107 4.30022 0
M  V30 3082 H 303.284 5.77077 3.87308 0
M  V30 3083 H 306.475 3.71766 2.84443 0
M  V30 3084 H 306.648 5.29604 3.73394 0
M  V30 3085 N 300.054 -1.07777 1.14986 0
M  V30 3086 C 301.017 -2.13041 0.845358 0
M  V30 3087 C 302.017 -1.60071 -0.152931 0
M  V30 3088 O 303.207 -1.74033 0.0761879 0
M  V30 3089 C 300.339 -3.39896 0.261383 0
M  V30 3090 H 301.532 -2.41485 1.77834 0
M  V30 3091 H 299.085 -1.23595 0.956757 0
M  V30 3092 H 299.82 -3.17091 -0.68 0
M  V30 3093 H 299.605 -3.79642 0.980514 0
M  V30 3094 H 301.095 -4.17548 0.0657687 0
M  V30 3095 N 301.532 -0.945985 -1.26051 0
M  V30 3096 C 302.462 -0.477172 -2.28572 0
M  V30 3097 C 303.443 0.472032 -1.63419 0
M  V30 3098 O 304.628 0.372853 -1.90587 0
M  V30 3099 C 301.758 0.253975 -3.4637 0
M  V30 3100 C 300.712 -0.609135 -4.23643 0
M  V30 3101 C 300.038 0.252252 -5.34105 0
M  V30 3102 C 301.338 -1.8829 -4.8718 0
M  V30 3103 H 303.032 -1.33402 -2.68038 0
M  V30 3104 H 300.578 -0.642904 -1.28852 0
M  V30 3105 H 302.531 0.593016 -4.17207 0
M  V30 3106 H 301.255 1.145 -3.05871 0
M  V30 3107 H 299.914 -0.931138 -3.54578 0
M  V30 3108 H 299.562 1.14278 -4.89846 0
M  V30 3109 H 299.262 -0.32188 -5.86718 0
M  V30 3110 H 300.786 0.586454 -6.07777 0
M  V30 3111 H 302.2 -1.61081 -5.50205 0
M  V30 3112 H 300.597 -2.40199 -5.49931 0
M  V30 3113 H 301.667 -2.59134 -4.09851 0
M  V30 3114 N 303.011 1.40521 -0.713556 0
M  V30 3115 C 304.427 1.54839 -0.386907 0
M  V30 3116 C 304.627 1.68532 1.1045 0
M  V30 3117 O 303.683 1.67377 1.89053 0
M  V30 3118 C 304.996 2.77792 -1.15118 0
M  V30 3119 C 306.544 2.91607 -1.13729 0
M  V30 3120 C 307.019 4.1747 -1.88368 0
M  V30 3121 N 308.51 4.24466 -1.85427 0
M  V30 3122 C 309.245 5.20755 -2.40004 0
M  V30 3123 N 308.741 6.22965 -3.03129 0
M  V30 3124 N 310.534 5.1282 -2.30158 0
M  V30 3125 H 302.685 1.29879 -1.68063 0
M  V30 3126 H 304.948 0.627896 -0.710247 0
M  V30 3127 H 304.654 2.73944 -2.20561 0
M  V30 3128 H 304.528 3.6984 -0.741477 0
M  V30 3129 H 306.915 2.94959 -0.0910608 0
M  V30 3130 H 306.996 2.00682 -1.5862 0
M  V30 3131 H 306.64 4.1488 -2.9298 0
M  V30 3132 H 306.57 5.074 -1.40898 0
M  V30 3133 H 309.061 3.51241 -1.3942 0
M  V30 3134 H 309.374 6.92859 -3.42295 0
M  V30 3135 H 307.719 6.23415 -3.07212 0
M  V30 3136 H 310.91 4.31899 -1.80501 0
M  V30 3137 H 311.083 5.87689 -2.72993 0
M  V30 3138 N 304.489 0.459591 1.5075 0
M  V30 3139 C 305.738 -0.100971 2.01447 0
M  V30 3140 C 306.051 -1.41816 1.34713 0
M  V30 3141 O 307.257 -2.06299 1.76502 0
M  V30 3142 C 305.713 -0.23047 3.59161 0
M  V30 3143 C 305.321 1.0776 4.34847 0
M  V30 3144 C 307.065 -0.743608 4.17936 0
M  V30 3145 C 304.972 0.91253 5.84317 0
M  V30 3146 H 303.902 -0.0415102 0.752856 0
M  V30 3147 H 306.553 0.592742 1.73663 0
M  V30 3148 H 304.935 -0.987703 3.83485 0
M  V30 3149 H 306.109 1.8449 4.22256 0
M  V30 3150 H 304.424 1.52097 3.87628 0
M  V30 3151 H 307.021 -0.883959 5.27343 0
M  V30 3152 H 307.364 -1.73196 3.78562 0
M  V30 3153 H 307.897 -0.04408 3.97776 0
M  V30 3154 H 304.636 1.87391 6.28144 0
M  V30 3155 H 304.156 0.185422 5.99513 0
M  V30 3156 H 305.835 0.574547 6.44444 0
M  V30 3157 N 305.967 -1.56429 0.191757 0
M  V30 3158 C 307.383 -1.58754 -0.164137 0
M  V30 3159 C 307.583 -1.20782 -1.61288 0
M  V30 3160 O 306.639 -0.928999 -2.34789 0
M  V30 3161 C 307.952 -3.00396 0.135195 0
M  V30 3162 C 309.5 -3.1291 0.0750351 0
M  V30 3163 C 309.975 -4.56679 0.347632 0
M  V30 3164 N 311.466 -4.62252 0.296131 0
M  V30 3165 C 312.201 -5.71379 0.480948 0
M  V30 3166 N 311.697 -6.88986 0.725933 0
M  V30 3167 N 313.49 -5.60563 0.415435 0
M  V30 3168 H 305.641 -1.79393 1.13718 0
M  V30 3169 H 307.904 -0.832414 0.453643 0
M  V30 3170 H 307.61 -3.32726 1.13958 0
M  V30 3171 H 307.484 -3.72963 -0.563773 0
M  V30 3172 H 309.871 -2.80394 -0.919948 0
M  V30 3173 H 309.952 -2.42736 0.807029 0
M  V30 3174 H 309.596 -4.89907 1.33992 0
M  V30 3175 H 309.526 -5.25039 -0.405212 0
M  V30 3176 H 312.017 -3.7773 0.113259 0
M  V30 3177 H 312.33 -7.68046 0.855857 0
M  V30 3178 H 310.675 -6.90801 0.762788 0
M  V30 3179 H 313.866 -4.67561 0.224486 0
M  V30 3180 H 314.039 -6.45551 0.562889 0
M  V30 3181 N 307.445 0.0818655 -1.57387 0
M  V30 3182 C 308.673 0.796108 -1.9097 0
M  V30 3183 C 309.088 1.71626 -0.786757 0
M  V30 3184 O 308.445 1.80908 0.240513 0
M  V30 3185 C 308.496 1.59829 -3.24248 0
M  V30 3186 O 308.217 0.715131 -4.32224 0
M  V30 3187 C 309.718 2.41442 -3.7178 0
M  V30 3188 H 306.938 0.22691 -0.631469 0
M  V30 3189 H 309.482 0.0551439 -2.04426 0
M  V30 3190 H 307.637 2.29163 -3.12351 0
M  V30 3191 H 308.051 1.27205 -5.08841 0
M  V30 3192 H 309.525 2.932 -4.67694 0
M  V30 3193 H 310.002 3.2051 -3.00283 0
M  V30 3194 H 310.608 1.77283 -3.86589 0
M  V30 3195 N 308.923 1.53595 0.353017 0
M  V30 3196 C 310.2 1.61002 1.11075 0
M  V30 3197 C 310.58 0.425356 2.0677 0
M  V30 3198 O 309.928 -0.583267 2.2093 0
M  V30 3199 C 310.138 2.96631 1.83877 0
M  V30 3200 C 311.486 3.51653 2.37961 0
M  V30 3201 O 312.51 2.98743 1.93987 0
M  V30 3202 O 311.369 4.44177 3.18386 0
M  V30 3203 H 308.463 0.650825 0.510251 0
M  V30 3204 H 311.009 1.6594 0.35527 0
M  V30 3205 H 309.781 3.74293 1.14108 0
M  V30 3206 H 309.404 2.95242 2.66304 0
M  V30 3207 N 310.401 -0.613514 1.45168 0
M  V30 3208 C 311.65 -1.36874 1.4815 0
M  V30 3209 C 311.963 -1.952 0.124982 0
M  V30 3210 O 313.169 -2.71481 0.0324176 0
M  V30 3211 C 311.625 -2.47905 2.60904 0
M  V30 3212 C 311.233 -1.96016 4.02842 0
M  V30 3213 C 312.977 -3.24965 2.73126 0
M  V30 3214 C 310.884 -3.04494 5.06988 0
M  V30 3215 H 309.814 -0.514428 0.551253 0
M  V30 3216 H 312.465 -0.658182 1.7129 0
M  V30 3217 H 310.847 -3.21618 2.31037 0
M  V30 3218 H 312.021 -1.29051 4.4236 0
M  V30 3219 H 310.336 -1.31719 3.95018 0
M  V30 3220 H 312.933 -4.05865 3.48106 0
M  V30 3221 H 313.276 -3.75588 1.79553 0
M  V30 3222 H 313.809 -2.5835 3.0249 0
M  V30 3223 H 310.548 -2.58795 6.0225 0
M  V30 3224 H 310.068 -3.70044 4.72046 0
M  V30 3225 H 311.747 -3.68976 5.31475 0
M  V30 3226 N 311.879 -1.3236 -0.855495 0
M  V30 3227 C 312.842 -1.21164 -1.94556 0
M  V30 3228 C 313.842 -0.134908 -1.60233 0
M  V30 3229 O 315.032 -0.385249 -1.69887 0
M  V30 3230 C 312.164 -0.863192 -3.29791 0
M  V30 3231 H 313.357 -2.18038 -2.05911 0
M  V30 3232 H 310.91 -1.16179 -1.04557 0
M  V30 3233 H 311.645 0.103769 -3.24134 0
M  V30 3234 H 311.43 -1.64166 -3.56078 0
M  V30 3235 H 312.92 -0.809156 -4.09686 0
M  V30 3236 N 313.357 1.07166 -1.15556 0
M  V30 3237 C 314.605 1.79443 -0.929764 0
M  V30 3238 C 314.926 1.87246 0.544414 0
M  V30 3239 O 314.196 1.37473 1.39564 0
M  V30 3240 H 312.776 0.664625 -0.341003 0
M  V30 3241 H 315.438 1.29499 -1.45657 0
M  V30 3242 H 314.534 2.81832 -1.34079 0
M  V30 3243 N 314.835 0.952656 1.25548 0
M  V30 3244 C 316.251 0.656769 1.4546 0
M  V30 3245 C 316.451 -0.78633 1.85524 0
M  V30 3246 O 315.507 -1.56183 1.98402 0
M  V30 3247 C 316.82 1.62801 2.52817 0
M  V30 3248 C 318.368 1.63897 2.66659 0
M  V30 3249 C 318.843 2.5978 3.77198 0
M  V30 3250 N 320.334 2.58133 3.84606 0
M  V30 3251 C 321.069 3.29003 4.69621 0
M  V30 3252 N 320.565 4.09339 5.58939 0
M  V30 3253 N 322.358 3.179 4.63569 0
M  V30 3254 H 314.509 1.88526 0.978344 0
M  V30 3255 H 316.772 0.810815 0.491206 0
M  V30 3256 H 316.478 2.65869 2.30232 0
M  V30 3257 H 316.352 1.38898 3.50695 0
M  V30 3258 H 318.739 0.615481 2.8861 0
M  V30 3259 H 318.82 1.91858 1.69187 0
M  V30 3260 H 318.464 3.62254 3.55997 0
M  V30 3261 H 318.394 2.29105 4.7415 0
M  V30 3262 H 320.885 1.99809 3.20757 0
M  V30 3263 H 321.198 4.6034 6.20731 0
M  V30 3264 H 319.543 4.13438 5.58654 0
M  V30 3265 H 322.734 2.54612 3.92798 0
M  V30 3266 H 322.907 3.73398 5.29602 0
M  V30 3267 N 316.313 -1.40141 0.720998 0
M  V30 3268 C 317.243 -2.33339 0.0867621 0
M  V30 3269 C 318.224 -1.53178 -0.739622 0
M  V30 3270 O 319.409 -1.81625 -0.687449 0
M  V30 3271 C 316.539 -3.37194 -0.831728 0
M  V30 3272 C 315.493 -4.27857 -0.110558 0
M  V30 3273 C 314.819 -5.22294 -1.14513 0
M  V30 3274 C 316.119 -5.11872 1.0385 0
M  V30 3275 H 317.813 -2.86626 0.865219 0
M  V30 3276 H 315.359 -1.37814 0.417516 0
M  V30 3277 H 317.312 -4.01335 -1.28485 0
M  V30 3278 H 316.036 -2.82314 -1.64214 0
M  V30 3279 H 314.695 -3.65176 0.322797 0
M  V30 3280 H 314.343 -4.63717 -1.94874 0
M  V30 3281 H 314.043 -5.83797 -0.667446 0
M  V30 3282 H 315.567 -5.89312 -1.59824 0
M  V30 3283 H 316.981 -5.69436 0.664482 0
M  V30 3284 H 315.378 -5.82445 1.4449 0
M  V30 3285 H 316.448 -4.4753 1.86668 0
M  V30 3286 N 317.792 -0.46758 -1.50504 0
M  V30 3287 C 318.702 0.33382 -2.32213 0
M  V30 3288 C 319.718 0.999323 -1.42441 0
M  V30 3289 O 320.894 0.988068 -1.75497 0
M  V30 3290 C 317.959 1.4035 -3.17022 0
M  V30 3291 C 317.02 0.754961 -4.2261 0
M  V30 3292 C 316.253 1.77367 -5.03365 0
M  V30 3293 O 316.476 2.99976 -4.8515 0
M  V30 3294 O 315.41 1.34744 -5.86624 0
M  V30 3295 H 319.236 -0.334067 -3.01857 0
M  V30 3296 H 316.821 -0.229496 -1.47627 0
M  V30 3297 H 318.703 2.02318 -3.69656 0
M  V30 3298 H 317.378 2.05492 -2.5011 0
M  V30 3299 H 316.285 0.0964244 -3.73976 0
M  V30 3300 H 317.618 0.146545 -4.91982 0
M  V30 3301 N 319.27 1.56325 -0.20005 0
M  V30 3302 C 320.18 2.22931 0.730668 0
M  V30 3303 C 321.196 1.22997 1.23076 0
M  V30 3304 O 322.372 1.55748 1.27689 0
M  V30 3305 C 319.437 2.87948 1.93098 0
M  V30 3306 C 318.498 4.03166 1.47497 0
M  V30 3307 C 317.731 4.65073 2.61807 0
M  V30 3308 O 317.954 4.25913 3.79413 0
M  V30 3309 O 316.888 5.54452 2.34237 0
M  V30 3310 H 320.714 3.03084 0.193391 0
M  V30 3311 H 318.299 1.49371 0.0294621 0
M  V30 3312 H 320.181 3.29063 2.6324 0
M  V30 3313 H 318.856 2.10771 2.45677 0
M  V30 3314 H 317.763 3.66664 0.742201 0
M  V30 3315 H 319.096 4.82022 0.995796 0
M  V30 3316 N 320.748 -0.0735177 1.57428 0
M  V30 3317 C 321.678 -1.0879 2.06608 0
M  V30 3318 C 322.659 -1.40473 0.959237 0
M  V30 3319 O 323.844 -1.5013 1.23185 0
M  V30 3320 C 320.974 -2.40183 2.50857 0
M  V30 3321 C 319.928 -2.22858 3.65402 0
M  V30 3322 C 319.254 -3.59619 3.957 0
M  V30 3323 C 320.554 -1.65123 4.95511 0
M  V30 3324 H 322.248 -0.678673 2.91607 0
M  V30 3325 H 319.794 -0.325013 1.40284 0
M  V30 3326 H 321.747 -3.11437 2.83874 0
M  V30 3327 H 320.471 -2.83083 1.62885 0
M  V30 3328 H 319.13 -1.54045 3.32664 0
M  V30 3329 H 318.778 -4.00086 3.04861 0
M  V30 3330 H 318.478 -3.48866 4.72828 0
M  V30 3331 H 320.002 -4.32306 4.31212 0
M  V30 3332 H 321.416 -2.26241 5.26771 0
M  V30 3333 H 319.813 -1.65071 5.7695 0
M  V30 3334 H 320.883 -0.612559 4.81015 0
M  V30 3335 N 322.226 -1.5378 -0.344866 0
M  V30 3336 C 323.474 -1.70625 -1.08311 0
M  V30 3337 C 323.795 -0.471447 -1.89215 0
M  V30 3338 O 323.065 0.514616 -1.8902 0
M  V30 3339 H 321.645 -0.629058 -0.402859 0
M  V30 3340 H 324.307 -1.9103 -0.386459 0
M  V30 3341 H 323.403 -2.57656 -1.76124 0
M  V30 3342 N 323.704 0.605807 -1.45491 0
M  V30 3343 C 324.953 1.36086 -1.48874 0
M  V30 3344 C 325.266 1.95131 -0.135333 0
M  V30 3345 O 326.472 2.7146 -0.0468144 0
M  V30 3346 C 324.928 2.46518 -2.62215 0
M  V30 3347 C 324.536 1.93877 -4.03876 0
M  V30 3348 C 326.28 3.23512 -2.74846 0
M  V30 3349 C 324.187 3.01801 -5.08596 0
M  V30 3350 H 323.117 0.511497 -0.553974 0
M  V30 3351 H 325.768 0.649089 -1.71636 0
M  V30 3352 H 324.15 3.20388 -2.32739 0
M  V30 3353 H 325.324 1.26704 -4.43038 0
M  V30 3354 H 323.639 1.29622 -3.95711 0
M  V30 3355 H 326.236 4.04013 -3.50253 0
M  V30 3356 H 326.579 3.74631 -1.81542 0
M  V30 3357 H 327.112 2.56742 -3.03856 0
M  V30 3358 H 323.851 2.55597 -6.03614 0
M  V30 3359 H 323.371 3.67535 -4.74002 0
M  V30 3360 H 325.05 3.66152 -5.33424 0
M  V30 3361 N 325.182 1.32811 0.848464 0
M  V30 3362 C 326.41 1.26739 1.63538 0
M  V30 3363 C 326.825 -0.163484 1.88091 0
M  V30 3364 O 326.182 -1.10258 1.45429 0
M  V30 3365 C 326.233 2.03013 2.99112 0
M  V30 3366 O 325.954 3.40518 2.75643 0
M  V30 3367 C 327.455 2.04038 3.93552 0
M  V30 3368 H 324.675 0.437024 0.509167 0
M  V30 3369 H 327.219 1.75033 1.05753 0
M  V30 3370 H 325.374 1.58426 3.53525 0
M  V30 3371 H 325.788 3.79635 3.61908 0
M  V30 3372 H 327.262 2.61877 4.85926 0
M  V30 3373 H 327.739 1.0282 4.26995 0
M  V30 3374 H 328.345 2.486 3.45077 0
M  V30 3375 N 326.66 -1.06551 1.16123 0
M  V30 3376 C 328.071 -1.60768 0.949232 0
M  V30 3377 C 328.422 -1.89523 -0.507508 0
M  V30 3378 O 327.547 -1.66671 -1.38021 0
M  V30 3379 C 328.142 -2.92086 1.71671 0
M  V30 3380 C 326.701 -3.43015 1.54977 0
M  V30 3381 C 325.848 -2.16947 1.72711 0
M  V30 3382 H 328.799 -0.895354 1.31031 0
M  V30 3383 H 328.82 -3.6138 1.19099 0
M  V30 3384 H 328.332 -2.71127 2.7769 0
M  V30 3385 H 326.433 -3.69039 0.513873 0
M  V30 3386 H 326.546 -4.18516 2.33198 0
M  V30 3387 H 324.91 -2.27041 1.15431 0
M  V30 3388 H 325.693 -1.98473 2.80113 0
M  V30 3389 N 328.138 -0.959301 -1.25041 0
M  V30 3390 C 329.415 -0.533805 -1.88175 0
M  V30 3391 C 329.795 0.988994 -1.865 0
M  V30 3392 O 329.143 1.85677 -1.33177 0
M  V30 3393 C 329.353 -1.11575 -3.30684 0
M  V30 3394 C 330.701 -1.19548 -4.07423 0
M  V30 3395 O 331.725 -1.06765 -3.39823 0
M  V30 3396 O 330.584 -1.39656 -5.28354 0
M  V30 3397 H 327.678 -0.176772 -0.807887 0
M  V30 3398 H 330.224 -1.05303 -1.33076 0
M  V30 3399 H 328.996 -2.15884 -3.26358 0
M  V30 3400 H 328.619 -0.580059 -3.93346 0
M  V30 3401 N 329.616 1.39756 -0.72842 0
M  V30 3402 C 330.563 2.30647 -0.0841519 0
M  V30 3403 C 331.533 1.48869 0.7367 0
M  V30 3404 O 332.718 1.77574 0.698015 0
M  V30 3405 C 329.858 3.35165 0.822091 0
M  V30 3406 C 328.971 4.31999 -0.0106663 0
M  V30 3407 C 328.106 5.23585 0.896241 0
M  V30 3408 C 327.145 6.12072 0.0583381 0
M  V30 3409 N 326.282 6.96035 0.920818 0
M  V30 3410 H 331.122 2.85173 -0.864891 0
M  V30 3411 H 328.659 1.40422 -0.438179 0
M  V30 3412 H 330.617 3.94345 1.36189 0
M  V30 3413 H 329.247 2.8211 1.56888 0
M  V30 3414 H 328.299 3.74492 -0.66781 0
M  V30 3415 H 329.611 4.9443 -0.658825 0
M  V30 3416 H 328.765 5.87759 1.50412 0
M  V30 3417 H 327.504 4.61459 1.57819 0
M  V30 3418 H 326.509 5.46916 -0.562389 0
M  V30 3419 H 327.734 6.76261 -0.6203 0
M  V30 3420 H 325.68 6.36485 1.58818 0
M  V30 3421 H 325.597 7.55284 0.32899 0
M  V30 3422 H 326.865 7.64646 1.51447 0
M  V30 3423 N 331.094 0.475555 1.50254 0
M  V30 3424 C 332.004 -0.321501 2.32387 0
M  V30 3425 C 333.02 -0.991755 1.42969 0
M  V30 3426 O 334.196 -0.978747 1.76018 0
M  V30 3427 C 331.261 -1.38667 3.17762 0
M  V30 3428 C 330.322 -0.732538 4.23004 0
M  V30 3429 C 329.555 -1.74695 5.04299 0
M  V30 3430 O 329.778 -2.97399 4.86734 0
M  V30 3431 O 328.712 -1.31631 5.8733 0
M  V30 3432 H 332.538 0.350071 3.01676 0
M  V30 3433 H 330.123 0.237321 1.47503 0
M  V30 3434 H 332.005 -2.00354 3.70724 0
M  V30 3435 H 330.68 -2.04163 2.51196 0
M  V30 3436 H 329.587 -0.0765902 3.74022 0
M  V30 3437 H 330.92 -0.120452 4.92053 0
M  V30 3438 N 332.573 -1.56217 0.208337 0
M  V30 3439 C 333.822 -1.97124 -0.427204 0
M  V30 3440 C 334.135 -1.09859 -1.61835 0
M  V30 3441 O 335.341 -1.40606 -2.32255 0
M  V30 3442 C 333.797 -3.50633 -0.811442 0
M  V30 3443 C 333.405 -4.46582 0.35615 0
M  V30 3444 C 335.149 -4.00282 -1.41332 0
M  V30 3445 C 333.056 -5.91379 -0.0497852 0
M  V30 3446 H 331.986 -0.736086 -0.163381 0
M  V30 3447 H 334.637 -1.8099 0.302456 0
M  V30 3448 H 333.019 -3.62319 -1.59815 0
M  V30 3449 H 334.193 -4.46636 1.1337 0
M  V30 3450 H 332.508 -4.07202 0.870396 0
M  V30 3451 H 335.105 -5.0595 -1.72972 0
M  V30 3452 H 335.448 -3.45359 -2.32449 0
M  V30 3453 H 335.981 -3.91764 -0.690323 0
M  V30 3454 H 332.72 -6.50255 0.827529 0
M  V30 3455 H 332.24 -5.94549 -0.791926 0
M  V30 3456 H 333.919 -6.45209 -0.481042 0
M  V30 3457 N 334.051 0.0651679 -1.57465 0
M  V30 3458 C 335.297 0.764193 -1.87851 0
M  V30 3459 C 335.63 1.76889 -0.801495 0
M  V30 3460 O 334.905 1.93594 0.187528 0
M  V30 3461 C 335.188 1.46625 -3.28897 0
M  V30 3462 C 335.041 0.477515 -4.47258 0
M  V30 3463 C 336.36 2.4095 -3.68281 0
M  V30 3464 H 333.479 0.276351 -0.683227 0
M  V30 3465 H 336.121 0.0272868 -1.8998 0
M  V30 3466 H 334.271 2.09438 -3.27212 0
M  V30 3467 H 335.943 -0.145922 -4.61069 0
M  V30 3468 H 334.186 -0.206576 -4.33308 0
M  V30 3469 H 334.857 1.0065 -5.42746 0
M  V30 3470 H 337.333 1.88209 -3.71102 0
M  V30 3471 H 336.209 2.87072 -4.67847 0
M  V30 3472 H 336.47 3.26049 -2.98571 0
M  V30 3473 N 335.529 1.53961 0.336706 0
M  V30 3474 C 336.757 1.75483 1.09605 0
M  V30 3475 C 337.172 0.4972 1.82136 0
M  V30 3476 O 336.529 -0.53149 1.74589 0
M  V30 3477 C 336.58 2.93943 2.10428 0
M  V30 3478 O 336.301 4.14842 1.40846 0
M  V30 3479 C 337.802 3.27571 2.98684 0
M  V30 3480 H 335.022 0.586166 0.326574 0
M  V30 3481 H 337.566 2.00808 0.38683 0
M  V30 3482 H 335.721 2.70929 2.76905 0
M  V30 3483 H 336.135 4.81383 2.08255 0
M  V30 3484 H 337.609 4.13791 3.6535 0
M  V30 3485 H 338.086 2.44168 3.65074 0
M  V30 3486 H 338.692 3.52615 2.37787 0
M  V30 3487 N 337.007 -0.598083 1.45811 0
M  V30 3488 C 337.957 -1.70272 1.51629 0
M  V30 3489 C 338.941 -1.56382 0.378629 0
M  V30 3490 O 340.133 -1.65557 0.626087 0
M  V30 3491 C 337.262 -3.09042 1.49493 0
M  V30 3492 C 336.348 -3.28284 2.68496 0
M  V30 3493 N 336.739 -3.17748 3.93535 0
M  V30 3494 C 335.037 -3.59182 2.64394 0
M  V30 3495 C 335.738 -3.38579 4.7301 0
M  V30 3496 N 334.714 -3.63016 4.04624 0
M  V30 3497 H 338.516 -1.60634 2.46118 0
M  V30 3498 H 336.03 -0.801642 1.41235 0
M  V30 3499 H 338.027 -3.88302 1.51747 0
M  V30 3500 H 336.687 -3.19823 0.560683 0
M  V30 3501 H 337.698 -2.95944 4.25014 0
M  V30 3502 H 334.375 -3.76742 1.79922 0
M  V30 3503 H 335.765 -3.35747 5.82 0
M  V30 3504 N 338.485 -1.33259 -0.841409 0
M  V30 3505 C 339.725 -1.25902 -1.61022 0
M  V30 3506 C 340.089 0.173325 -1.91216 0
M  V30 3507 O 341.29 0.370824 -2.6623 0
M  V30 3508 C 339.561 -2.10735 -2.88662 0
M  V30 3509 S 341.12 -2.20541 -3.79351 0
M  V30 3510 H 337.938 -0.447958 -0.552137 0
M  V30 3511 H 340.54 -1.68263 -0.995382 0
M  V30 3512 H 339.244 -3.1384 -2.64448 0
M  V30 3513 H 338.775 -1.69201 -3.55154 0
M  V30 3514 H 340.79 -1.36462 -4.77067 0
M  V30 3515 N 339.963 1.05934 -1.16686 0
M  V30 3516 C 340.895 2.13468 -0.834503 0
M  V30 3517 C 341.908 1.62013 0.15984 0
M  V30 3518 O 343.097 1.7838 -0.0654228 0
M  V30 3519 C 340.197 3.3817 -0.222361 0
M  V30 3520 C 339.37 4.18928 -1.25771 0
M  V30 3521 C 338.429 5.21985 -0.664703 0
M  V30 3522 O 337.455 5.53334 -1.33453 0
M  V30 3523 N 338.657 5.77919 0.546834 0
M  V30 3524 H 341.422 2.42578 -1.75999 0
M  V30 3525 H 338.983 1.21967 -1.06469 0
M  V30 3526 H 340.975 4.04266 0.187472 0
M  V30 3527 H 339.545 3.06655 0.606758 0
M  V30 3528 H 338.765 3.48433 -1.84358 0
M  V30 3529 H 340.053 4.69687 -1.95631 0
M  V30 3530 H 339.451 5.54721 1.10912 0
M  V30 3531 H 338.008 6.45573 0.898829 0
M  V30 3532 N 341.441 0.965919 1.2453 0
M  V30 3533 C 342.669 0.644385 1.96609 0
M  V30 3534 C 343.084 -0.785823 1.71669 0
M  V30 3535 O 342.441 -1.52703 0.999399 0
M  V30 3536 C 342.492 0.907375 3.49927 0
M  V30 3537 O 342.213 2.28136 3.74013 0
M  V30 3538 C 343.714 0.599784 4.39224 0
M  V30 3539 H 340.934 0.240588 0.626385 0
M  V30 3540 H 343.478 1.29337 1.58405 0
M  V30 3541 H 341.633 0.304631 3.862 0
M  V30 3542 H 342.047 2.36002 4.68405 0
M  V30 3543 H 343.521 0.834263 5.45659 0
M  V30 3544 H 343.998 -0.465921 4.36722 0
M  V30 3545 H 344.604 1.18235 4.08535 0
M  V30 3546 N 342.919 -1.39368 0.735821 0
M  V30 3547 C 343.869 -2.27885 0.0724287 0
M  V30 3548 C 344.853 -1.44301 -0.711756 0
M  V30 3549 O 346.045 -1.67206 -0.58063 0
M  V30 3550 C 343.174 -3.33029 -0.833454 0
M  V30 3551 C 342.26 -4.24078 -0.0433749 0
M  V30 3552 N 342.651 -4.96138 0.983903 0
M  V30 3553 C 340.949 -4.45164 -0.272905 0
M  V30 3554 C 341.65 -5.63069 1.4604 0
M  V30 3555 N 340.626 -5.37991 0.778857 0
M  V30 3556 H 344.428 -2.81052 0.859467 0
M  V30 3557 H 341.942 -1.5206 0.570227 0
M  V30 3558 H 343.939 -3.95311 -1.32419 0
M  V30 3559 H 342.599 -2.81421 -1.61964 0
M  V30 3560 H 343.61 -4.9958 1.36528 0
M  V30 3561 H 340.287 -4.04497 -1.03383 0
M  V30 3562 H 341.677 -6.30755 2.31511 0
M  V30 3563 N 344.397 -0.483516 -1.5 0
M  V30 3564 C 345.347 0.32306 -2.257 0
M  V30 3565 C 346.331 0.950755 -1.29805 0
M  V30 3566 O 347.523 0.861247 -1.54634 0
M  V30 3567 C 344.652 1.39724 -3.13579 0
M  V30 3568 C 343.738 0.776663 -4.16928 0
M  V30 3569 N 344.129 -0.1104 -5.0568 0
M  V30 3570 C 342.427 1.03922 -4.33724 0
M  V30 3571 C 343.128 -0.46387 -5.79848 0
M  V30 3572 N 342.104 0.163987 -5.43353 0
M  V30 3573 H 345.906 -0.360086 -2.91686 0
M  V30 3574 H 343.42 -0.298456 -1.59634 0
M  V30 3575 H 345.417 1.98837 -3.66428 0
M  V30 3576 H 344.077 2.08225 -2.49143 0
M  V30 3577 H 345.088 -0.480069 -5.1567 0
M  V30 3578 H 341.765 1.71829 -3.80501 0
M  V30 3579 H 343.155 -1.18854 -6.61304 0
M  V30 3580 N 345.875 1.56104 -0.216619 0
M  V30 3581 C 347.291 1.58995 0.13886 0
M  V30 3582 C 347.491 1.23333 1.59346 0
M  V30 3583 O 346.547 0.966234 2.33281 0
M  V30 3584 C 347.86 3.00143 -0.182968 0
M  V30 3585 C 349.408 3.12751 -0.124807 0
M  V30 3586 C 349.883 4.56068 -0.420241 0
M  V30 3587 N 351.374 4.61723 -0.369634 0
M  V30 3588 C 352.109 5.70542 -0.571789 0
M  V30 3589 N 351.605 6.87744 -0.835453 0
M  V30 3590 N 353.398 5.59831 -0.504563 0
M  V30 3591 H 345.549 1.77562 -1.16557 0
M  V30 3592 H 347.812 0.825091 -0.466828 0
M  V30 3593 H 347.518 3.30871 -1.19237 0
M  V30 3594 H 347.392 3.73813 0.504367 0
M  V30 3595 H 349.779 2.81822 0.875223 0
M  V30 3596 H 349.86 2.41421 -0.845544 0
M  V30 3597 H 349.504 4.87713 -1.41769 0
M  V30 3598 H 349.434 5.25617 0.321631 0
M  V30 3599 H 351.925 3.77502 -0.173338 0
M  V30 3600 H 352.238 7.66587 -0.977938 0
M  V30 3601 H 350.583 6.895 -0.872592 0
M  V30 3602 H 353.774 4.67145 -0.298842 0
M  V30 3603 H 353.947 6.44573 -0.665519 0
M  V30 3604 N 347.353 -0.0568162 1.57498 0
M  V30 3605 C 348.578 -0.769402 1.92601 0
M  V30 3606 C 349.003 -1.69559 0.814336 0
M  V30 3607 O 348.361 -1.79811 -0.231903 0
M  V30 3608 C 348.409 -1.52634 3.26704 0
M  V30 3609 O 347.513 -2.63797 3.16994 0
M  V30 3610 H 346.854 -0.208909 0.63028 0
M  V30 3611 H 349.384 -0.0205798 2.0459 0
M  V30 3612 H 349.394 -1.90234 3.60936 0
M  V30 3613 H 348.069 -0.846875 4.07186 0
M  V30 3614 H 346.646 -2.28943 2.94346 0
M  V30 3615 N 348.832 -1.54138 -0.328536 0
M  V30 3616 C 350.08 -1.71765 -1.06496 0
M  V30 3617 C 350.401 -0.49149 -1.88704 0
M  V30 3618 O 349.671 0.494539 -1.89555 0
M  V30 3619 H 348.251 -0.633295 -0.396164 0
M  V30 3620 H 350.913 -1.91429 -0.366176 0
M  V30 3621 H 350.009 -2.5951 -1.73381 0
M  V30 3622 N 350.31 0.590341 -1.46126 0
M  V30 3623 C 351.24 1.71032 -1.58966 0
M  V30 3624 C 352.221 1.64302 -0.440335 0
M  V30 3625 O 353.406 1.82436 -0.665634 0
M  V30 3626 C 350.536 3.09665 -1.57241 0
M  V30 3627 C 349.49 3.31221 -2.71066 0
M  V30 3628 C 348.816 4.70303 -2.54399 0
M  V30 3629 C 350.116 3.19796 -4.1295 0
M  V30 3630 H 351.81 1.60543 -2.52718 0
M  V30 3631 H 349.356 0.770933 -1.21625 0
M  V30 3632 H 351.309 3.87831 -1.64819 0
M  V30 3633 H 350.033 3.21036 -0.600289 0
M  V30 3634 H 348.692 2.55452 -2.62944 0
M  V30 3635 H 348.34 4.78429 -1.55288 0
M  V30 3636 H 348.04 4.85679 -3.30741 0
M  V30 3637 H 349.564 5.50647 -2.63857 0
M  V30 3638 H 350.978 3.87815 -4.22223 0
M  V30 3639 H 349.375 3.46696 -4.89818 0
M  V30 3640 H 350.445 2.16983 -4.33643 0
M  V30 3641 N 351.788 1.33704 0.83433 0
M  V30 3642 C 353.016 1.28467 1.62185 0
M  V30 3643 C 353.431 -0.143526 1.88254 0
M  V30 3644 O 352.788 -1.08709 1.4659 0
M  V30 3645 C 352.839 2.06174 2.96942 0
M  V30 3646 O 352.56 3.43422 2.72016 0
M  V30 3647 C 354.061 2.08201 3.91366 0
M  V30 3648 H 351.281 0.4424 0.504503 0
M  V30 3649 H 353.825 1.76145 1.03891 0
M  V30 3650 H 351.98 1.62167 3.51825 0
M  V30 3651 H 352.394 3.83453 3.57861 0
M  V30 3652 H 353.868 2.67017 4.83121 0
M  V30 3653 H 354.345 1.07343 4.2588 0
M  V30 3654 H 354.951 2.52246 3.42421 0
M  V30 3655 N 353.266 -1.05314 1.17247 0
M  V30 3656 C 354.496 -1.81707 0.983166 0
M  V30 3657 C 354.904 -1.83222 -0.471822 0
M  V30 3658 O 354.247 -1.25721 -1.3394 0
M  V30 3659 C 354.309 -3.29134 1.44606 0
M  V30 3660 C 353.973 -3.51304 2.92292 0
M  V30 3661 C 354.97 -3.4353 3.90235 0
M  V30 3662 C 352.655 -3.78306 3.30439 0
M  V30 3663 C 354.649 -3.62442 5.24323 0
M  V30 3664 C 352.336 -3.96866 4.64694 0
M  V30 3665 C 353.334 -3.88933 5.61445 0
M  V30 3666 O 353.022 -4.06976 6.93272 0
M  V30 3667 H 352.754 -0.579476 0.348114 0
M  V30 3668 H 355.308 -1.33705 1.55924 0
M  V30 3669 H 353.538 -3.78046 0.813537 0
M  V30 3670 H 355.227 -3.87049 1.22262 0
M  V30 3671 H 355.993 -3.22648 3.62109 0
M  V30 3672 H 351.872 -3.83585 2.55702 0
M  V30 3673 H 355.416 -3.56165 5.99827 0
M  V30 3674 H 351.313 -4.1724 4.92525 0
M  V30 3675 H 352.081 -4.24209 6.99992 0
M  V30 3676 N 354.744 -0.972509 -1.24016 0
M  V30 3677 C 355.674 -0.525548 -2.27509 0
M  V30 3678 C 356.655 0.437262 -1.64384 0
M  V30 3679 O 357.84 0.332343 -1.91335 0
M  V30 3680 C 354.97 0.180448 -3.46831 0
M  V30 3681 C 353.924 -0.698859 -4.22256 0
M  V30 3682 C 353.25 0.138903 -5.3452 0
M  V30 3683 C 354.55 -1.98582 -4.83076 0
M  V30 3684 H 356.244 -1.39058 -2.65148 0
M  V30 3685 H 353.79 -0.67009 -1.27459 0
M  V30 3686 H 355.743 0.504387 -4.18371 0
M  V30 3687 H 354.467 1.07987 -3.08231 0
M  V30 3688 H 353.126 -1.00614 -3.52523 0
M  V30 3689 H 352.774 1.03862 -4.9216 0
M  V30 3690 H 352.474 -0.446259 -5.85903 0
M  V30 3691 H 353.998 0.457404 -6.08884 0
M  V30 3692 H 355.412 -1.72715 -5.46665 0
M  V30 3693 H 353.809 -2.5181 -5.44713 0
M  V30 3694 H 354.879 -2.67769 -4.04262 0
M  V30 3695 N 356.222 1.38976 -0.743202 0
M  V30 3696 C 357.471 1.99581 -0.291592 0
M  V30 3697 C 357.784 1.59656 1.13001 0
M  V30 3698 O 358.99 2.13157 1.68156 0
M  V30 3699 C 357.446 3.56813 -0.470391 0
M  V30 3700 C 357.054 4.05695 -1.90041 0
M  V30 3701 C 358.798 4.24423 -0.0809709 0
M  V30 3702 C 356.705 5.5553 -2.02832 0
M  V30 3703 H 355.635 0.746615 -0.105272 0
M  V30 3704 H 358.286 1.58872 -0.918258 0
M  V30 3705 H 356.668 3.95359 0.225299 0
M  V30 3706 H 357.842 3.78464 -2.62872 0
M  V30 3707 H 356.157 3.50775 -2.24379 0
M  V30 3708 H 358.754 5.34474 -0.155445 0
M  V30 3709 H 359.097 4.04962 0.96497 0
M  V30 3710 H 359.63 3.9108 -0.728124 0
M  V30 3711 H 356.369 5.79881 -3.05643 0
M  V30 3712 H 355.889 5.84537 -1.34448 0
M  V30 3713 H 357.568 6.21069 -1.81335 0
M  V30 3714 N 357.7 0.491464 1.49741 0
M  V30 3715 C 358.663 -0.280906 2.27472 0
M  V30 3716 C 359.663 -0.902454 1.33088 0
M  V30 3717 O 360.853 -0.768465 1.56334 0
M  V30 3718 C 357.985 -1.40209 3.10732 0
M  V30 3719 H 359.178 0.401056 2.97206 0
M  V30 3720 H 356.731 0.246131 1.5435 0
M  V30 3721 H 357.466 -2.11849 2.45541 0
M  V30 3722 H 357.251 -0.961969 3.80117 0
M  V30 3723 H 358.741 -1.9464 3.69466 0
M  V30 3724 N 359.178 -1.55987 0.224894 0
M  V30 3725 C 360.125 -2.20436 -0.68385 0
M  V30 3726 C 361.095 -1.16102 -1.18783 0
M  V30 3727 O 362.28 -1.4447 -1.24632 0
M  V30 3728 C 359.42 -2.89076 -1.88491 0
M  V30 3729 C 358.533 -4.08012 -1.41951 0
M  V30 3730 C 357.668 -4.64426 -2.5784 0
M  V30 3731 C 356.707 -5.75656 -2.08053 0
M  V30 3732 N 355.844 -6.26347 -3.17227 0
M  V30 3733 H 360.684 -2.97727 -0.12754 0
M  V30 3734 H 358.221 -1.47011 -0.0511978 0
M  V30 3735 H 360.179 -3.27059 -2.59014 0
M  V30 3736 H 358.809 -2.14298 -2.41405 0
M  V30 3737 H 357.861 -3.75492 -0.609095 0
M  V30 3738 H 359.173 -4.88375 -1.01447 0
M  V30 3739 H 358.327 -5.04869 -3.3644 0
M  V30 3740 H 357.066 -3.83233 -3.01635 0
M  V30 3741 H 356.071 -5.34712 -1.27916 0
M  V30 3742 H 357.296 -6.58686 -1.65255 0
M  V30 3743 H 355.242 -5.48067 -3.60497 0
M  V30 3744 H 355.159 -7.01843 -2.80986 0
M  V30 3745 H 356.427 -6.71447 -3.95953 0
M  V30 3746 N 360.656 0.0484629 -1.57525 0
M  V30 3747 C 361.619 1.03956 -2.04269 0
M  V30 3748 C 362.619 1.30211 -0.943496 0
M  V30 3749 O 363.809 1.25539 -1.20771 0
M  V30 3750 C 360.941 2.37742 -2.44319 0
M  V30 3751 H 362.134 0.636182 -2.93075 0
M  V30 3752 H 359.687 0.294811 -1.53494 0
M  V30 3753 H 360.422 2.82866 -1.5861 0
M  V30 3754 H 360.207 2.20021 -3.24551 0
M  V30 3755 H 361.697 3.08936 -2.80978 0
M  V30 3756 N 362.134 1.5431 0.320358 0
M  V30 3757 C 363.064 1.86912 1.3995 0
M  V30 3758 C 364.045 0.726211 1.53819 0
M  V30 3759 O 365.23 0.980233 1.67646 0
M  V30 3760 C 362.36 2.09932 2.7667 0
M  V30 3761 C 361.314 3.25776 2.77586 0
M  V30 3762 C 360.64 3.34173 4.17412 0
M  V30 3763 C 361.94 4.6335 2.41048 0
M  V30 3764 H 363.634 2.77292 1.12914 0
M  V30 3765 H 361.18 1.33421 0.541738 0
M  V30 3766 H 363.133 2.31324 3.52232 0
M  V30 3767 H 361.857 1.16304 3.0519 0
M  V30 3768 H 360.516 3.04276 2.04479 0
M  V30 3769 H 360.164 2.38098 4.43078 0
M  V30 3770 H 359.864 4.12033 4.18931 0
M  V30 3771 H 361.388 3.57803 4.94782 0
M  V30 3772 H 362.802 4.84602 3.06324 0
M  V30 3773 H 361.199 5.43782 2.53813 0
M  V30 3774 H 362.269 4.65381 1.36193 0
M  V30 3775 N 363.613 -0.582584 1.46437 0
M  V30 3776 C 364.861 -1.33814 1.51453 0
M  V30 3777 C 365.182 -1.94277 0.167792 0
M  V30 3778 O 364.452 -1.78566 -0.805677 0
M  V30 3779 H 363.032 -0.496838 0.557818 0
M  V30 3780 H 365.694 -0.682281 1.82568 0
M  V30 3781 H 364.79 -2.14479 2.26728 0
M  V30 3782 N 365.091 -1.34144 -0.827227 0
M  V30 3783 C 366.321 -1.29138 -1.61267 0
M  V30 3784 C 366.729 0.137597 -1.88699 0
M  V30 3785 O 366.072 1.09379 -1.47587 0
M  V30 3786 C 366.134 -2.0097 -2.9808 0
M  V30 3787 C 365.798 -3.50242 -2.93563 0
M  V30 3788 C 366.795 -4.4523 -2.68452 0
M  V30 3789 C 364.48 -3.92592 -3.13331 0
M  V30 3790 C 366.474 -5.80542 -2.63154 0
M  V30 3791 C 364.161 -5.28005 -3.07658 0
M  V30 3792 C 365.159 -6.21792 -2.82602 0
M  V30 3793 O 364.847 -7.54723 -2.76853 0
M  V30 3794 H 364.579 -0.445851 -0.508127 0
M  V30 3795 H 367.133 -1.77263 -1.03763 0
M  V30 3796 H 365.363 -1.47451 -3.57484 0
M  V30 3797 H 367.052 -1.89309 -3.5905 0
M  V30 3798 H 367.818 -4.13832 -2.52919 0
M  V30 3799 H 363.697 -3.19994 -3.31851 0
M  V30 3800 H 367.241 -6.53717 -2.43516 0
M  V30 3801 H 363.138 -5.59023 -3.22743 0
M  V30 3802 H 363.906 -7.64409 -2.92611 0
M  V30 3803 N 366.569 1.04691 -1.17803 0
M  V30 3804 C 367.98 1.59238 -0.974689 0
M  V30 3805 C 368.331 1.90306 0.477292 0
M  V30 3806 O 367.456 1.68846 1.35352 0
M  V30 3807 C 368.051 2.89318 -1.76296 0
M  V30 3808 C 366.61 3.40506 -1.60414 0
M  V30 3809 C 365.757 2.14172 -1.76141 0
M  V30 3810 H 368.708 0.874395 -1.32439 0
M  V30 3811 H 368.729 3.5944 -1.24833 0
M  V30 3812 H 368.241 2.66675 -2.81968 0
M  V30 3813 H 366.342 3.68175 -0.572519 0
M  V30 3814 H 366.455 4.14753 -2.39827 0
M  V30 3815 H 364.819 2.25176 -1.19028 0
M  V30 3816 H 365.602 1.93992 -2.83235 0
M  V30 3817 N 368.047 0.979072 1.23499 0
M  V30 3818 C 369.463 0.687475 1.44034 0
M  V30 3819 C 369.663 -0.746801 1.8715 0
M  V30 3820 O 368.719 -1.51939 2.0167 0
M  V30 3821 C 370.032 1.68127 2.49307 0
M  V30 3822 C 371.58 1.69516 2.63122 0
M  V30 3823 C 372.055 2.67723 3.71603 0
M  V30 3824 N 373.546 2.66233 3.79044 0
M  V30 3825 C 374.281 3.38891 4.62537 0
M  V30 3826 N 373.777 4.21103 5.50131 0
M  V30 3827 N 375.57 3.27661 4.56721 0
M  V30 3828 H 367.721 1.90559 0.938135 0
M  V30 3829 H 369.984 0.821051 0.473897 0
M  V30 3830 H 369.69 2.70693 2.2454 0
M  V30 3831 H 369.564 1.46306 3.4767 0
M  V30 3832 H 371.951 0.676561 2.8724 0
M  V30 3833 H 372.032 1.95404 1.65079 0
M  V30 3834 H 371.676 3.69724 3.48233 0
M  V30 3835 H 371.606 2.39111 4.69184 0
M  V30 3836 H 374.097 2.06568 3.16446 0
M  V30 3837 H 374.41 4.73403 6.10827 0
M  V30 3838 H 372.755 4.25195 5.49759 0
M  V30 3839 H 375.946 2.62887 3.87309 0
M  V30 3840 H 376.119 3.84547 5.21562 0
M  V30 3841 N 369.525 -1.3858 0.750561 0
M  V30 3842 C 370.771 -2.00481 0.305825 0
M  V30 3843 C 371.104 -1.5944 -1.10872 0
M  V30 3844 O 370.379 -0.83052 -1.75877 0
M  V30 3845 C 370.662 -3.5758 0.425287 0
M  V30 3846 C 370.515 -4.08594 1.88072 0
M  V30 3847 C 371.834 -4.39719 -0.183122 0
M  V30 3848 H 368.953 -0.728348 0.112598 0
M  V30 3849 H 371.595 -1.64566 0.949638 0
M  V30 3850 H 369.745 -3.88306 -0.122828 0
M  V30 3851 H 371.417 -3.88523 2.48691 0
M  V30 3852 H 369.66 -3.61574 2.39681 0
M  V30 3853 H 370.331 -5.177 1.91548 0
M  V30 3854 H 372.807 -4.15128 0.284303 0
M  V30 3855 H 371.683 -5.48856 -0.0692757 0
M  V30 3856 H 371.944 -4.23434 -1.27106 0
M  V30 3857 N 371.003 -0.499398 -1.49478 0
M  V30 3858 C 371.95 0.279881 -2.29097 0
M  V30 3859 C 372.92 0.961805 -1.3542 0
M  V30 3860 O 374.105 0.968777 -1.64376 0
M  V30 3861 C 371.245 1.33932 -3.18051 0
M  V30 3862 C 370.358 0.669333 -4.26783 0
M  V30 3863 C 369.493 1.70907 -5.02955 0
M  V30 3864 C 368.532 1.02087 -6.03527 0
M  V30 3865 N 367.669 2.00474 -6.7287 0
M  V30 3866 H 372.509 -0.405317 -2.95231 0
M  V30 3867 H 370.046 -0.211726 -1.45568 0
M  V30 3868 H 372.004 1.96553 -3.67998 0
M  V30 3869 H 370.634 1.9933 -2.53904 0
M  V30 3870 H 369.686 -0.0701234 -3.80335 0
M  V30 3871 H 370.998 0.127503 -4.98637 0
M  V30 3872 H 370.152 2.41037 -5.56764 0
M  V30 3873 H 368.891 2.28476 -4.30871 0
M  V30 3874 H 367.896 0.305338 -5.48951 0
M  V30 3875 H 369.121 0.451708 -6.77596 0
M  V30 3876 H 367.067 2.57007 -6.03559 0
M  V30 3877 H 366.984 1.51353 -7.40694 0
M  V30 3878 H 368.252 2.69897 -7.31284 0
M  V30 3879 N 372.481 1.55866 -0.233164 0
M  V30 3880 C 373.729 1.9821 0.394593 0
M  V30 3881 C 374.05 1.12234 1.59463 0
M  V30 3882 O 373.32 0.201981 1.94856 0
M  V30 3883 H 371.9 0.732034 0.148778 0
M  V30 3884 H 374.562 1.92107 -0.32876 0
M  V30 3885 H 373.658 3.03845 0.713063 0
M  V30 3886 N 373.959 -0.0401083 1.57549 0
M  V30 3887 C 375.189 -0.744115 1.92734 0
M  V30 3888 C 375.597 -1.70005 0.830348 0
M  V30 3889 O 374.94 -1.82576 -0.20286 0
M  V30 3890 C 375.002 -1.56516 3.2364 0
M  V30 3891 C 374.666 -0.7752 4.50377 0
M  V30 3892 C 375.663 -0.0803326 5.19838 0
M  V30 3893 C 373.348 -0.733002 4.96923 0
M  V30 3894 C 375.342 0.646154 6.34116 0
M  V30 3895 C 373.029 -0.00276321 6.111 0
M  V30 3896 C 374.027 0.685585 6.7955 0
M  V30 3897 O 373.715 1.40399 7.91545 0
M  V30 3898 H 373.447 -0.214861 0.640945 0
M  V30 3899 H 376.001 -0.00503675 2.05399 0
M  V30 3900 H 374.231 -2.3478 3.07271 0
M  V30 3901 H 375.92 -2.15076 3.44234 0
M  V30 3902 H 376.686 -0.104035 4.84888 0
M  V30 3903 H 372.565 -1.25827 4.43496 0
M  V30 3904 H 376.109 1.18398 6.87479 0
M  V30 3905 H 372.006 0.0229012 6.45496 0
M  V30 3906 H 372.774 1.31653 8.07843 0
M  V30 3907 N 375.437 -1.54477 -0.31217 0
M  V30 3908 C 376.4 -1.83923 -1.36766 0
M  V30 3909 C 377.4 -0.711563 -1.44199 0
M  V30 3910 O 378.59 -0.979866 -1.44029 0
M  V30 3911 C 375.722 -2.0095 -2.75376 0
M  V30 3912 H 376.915 -2.78239 -1.11906 0
M  V30 3913 H 374.468 -1.46369 -0.548257 0
M  V30 3914 H 375.203 -1.08883 -3.05475 0
M  V30 3915 H 374.988 -2.83018 -2.71373 0
M  V30 3916 H 376.478 -2.2514 -3.51713 0
M  V30 3917 N 376.915 0.57481 -1.46744 0
M  V30 3918 C 378.163 1.33009 -1.52161 0
M  V30 3919 C 378.484 1.94185 -0.178092 0
M  V30 3920 O 377.754 1.7899 0.796196 0
M  V30 3921 H 376.334 0.493873 -0.560445 0
M  V30 3922 H 378.996 0.672589 -1.82927 0
M  V30 3923 H 378.092 2.13273 -2.27862 0
M  V30 3924 N 378.394 1.34581 0.820102 0
M  V30 3925 C 379.619 1.30333 1.61332 0
M  V30 3926 C 380.044 -0.119339 1.87721 0
M  V30 3927 O 379.402 -1.08197 1.45475 0
M  V30 3928 C 379.45 2.10258 2.92957 0
M  V30 3929 O 378.554 1.47404 3.85157 0
M  V30 3930 H 377.895 0.447488 0.490561 0
M  V30 3931 H 380.425 1.77425 1.01889 0
M  V30 3932 H 380.435 2.21718 3.42498 0
M  V30 3933 H 379.11 3.13693 2.73074 0
M  V30 3934 H 377.687 1.44703 3.43679 0
M  V30 3935 N 379.872 -1.04064 1.18357 0
M  V30 3936 C 381.118 -1.77658 0.990412 0
M  V30 3937 C 381.473 -1.86446 -0.474944 0
M  V30 3938 O 380.766 -1.36153 -1.34807 0
M  V30 3939 C 380.96 -3.20634 1.57888 0
M  V30 3940 C 380.789 -3.25782 3.09994 0
M  V30 3941 C 379.559 -3.34411 3.7881 0
M  V30 3942 C 381.757 -3.13791 4.0748 0
M  V30 3943 N 379.739 -3.28809 5.18418 0
M  V30 3944 C 381.11 -3.15689 5.33611 0
M  V30 3945 C 383.165 -2.97833 3.98998 0
M  V30 3946 C 381.868 -3.03268 6.52243 0
M  V30 3947 C 383.894 -2.86759 5.17227 0
M  V30 3948 C 383.256 -2.893 6.4225 0
M  V30 3949 H 379.355 -0.661901 0.416427 0
M  V30 3950 H 381.939 -1.23968 1.50133 0
M  V30 3951 H 380.11 -3.7267 1.09414 0
M  V30 3952 H 381.842 -3.82525 1.32124 0
M  V30 3953 H 378.597 -3.40144 3.29543 0
M  V30 3954 H 379.021 -3.29448 5.91433 0
M  V30 3955 H 383.663 -2.94698 3.03171 0
M  V30 3956 H 381.381 -3.05156 7.48268 0
M  V30 3957 H 384.967 -2.75465 5.12455 0
M  V30 3958 H 383.847 -2.80818 7.32196 0
M  V30 3959 N 381.35 -0.985608 -1.22978 0
M  V30 3960 C 382.598 -0.656087 -1.91154 0
M  V30 3961 C 382.919 0.813561 -1.77218 0
M  V30 3962 O 382.189 1.58244 -1.1548 0
M  V30 3963 H 380.769 -0.239674 -0.707506 0
M  V30 3964 H 383.431 -1.25054 -1.49491 0
M  V30 3965 H 382.527 -0.912253 -2.9847 0
M  V30 3966 N 382.828 1.3818 -0.7579 0
M  V30 3967 C 383.738 2.3421 -0.135247 0
M  V30 3968 C 384.754 1.59487 0.695683 0
M  V30 3969 O 385.93 1.91657 0.618832 0
M  V30 3970 C 382.995 3.3862 0.744139 0
M  V30 3971 C 382.056 4.2918 -0.101658 0
M  V30 3972 C 381.289 5.28603 0.735851 0
M  V30 3973 O 381.512 5.35166 1.97366 0
M  V30 3974 O 380.446 6.01707 0.152372 0
M  V30 3975 H 384.272 2.8916 -0.928436 0
M  V30 3976 H 381.857 1.40101 -0.518855 0
M  V30 3977 H 383.739 4.02539 1.2466 0
M  V30 3978 H 382.414 2.86019 1.51575 0
M  V30 3979 H 381.321 3.68407 -0.650167 0
M  V30 3980 H 382.654 4.85048 -0.836024 0
M  V30 3981 N 384.306 0.507319 1.49211 0
M  V30 3982 C 385.552 -0.0269732 2.03382 0
M  V30 3983 C 385.907 -1.34111 1.37957 0
M  V30 3984 O 385.2 -1.84733 0.508351 0
M  V30 3985 C 385.394 -0.229513 3.56662 0
M  V30 3986 C 385.223 1.06344 4.36945 0
M  V30 3987 C 383.993 1.617 4.78729 0
M  V30 3988 C 386.191 1.96833 4.75143 0
M  V30 3989 N 384.173 2.8552 5.43463 0
M  V30 3990 C 385.544 3.0523 5.39661 0
M  V30 3991 C 387.599 1.97434 4.57082 0
M  V30 3992 C 386.302 4.14265 5.88028 0
M  V30 3993 C 388.328 3.05448 5.06414 0
M  V30 3994 C 387.69 4.12564 5.70938 0
M  V30 3995 H 383.789 0.0310673 0.781383 0
M  V30 3996 H 386.373 0.683579 1.82305 0
M  V30 3997 H 384.544 -0.909127 3.7761 0
M  V30 3998 H 386.276 -0.761377 3.97473 0
M  V30 3999 H 383.031 1.16132 4.59141 0
M  V30 4000 H 383.455 3.48499 5.80412 0
M  V30 4001 H 388.097 1.15924 4.06597 0
M  V30 4002 H 385.815 4.96569 6.3753 0
M  V30 4003 H 389.401 3.06941 4.94246 0
M  V30 4004 H 388.281 4.94767 6.0842 0
M  V30 4005 N 385.784 -1.5574 0.241426 0
M  V30 4006 C 387.032 -1.98417 -0.384075 0
M  V30 4007 C 387.353 -1.13078 -1.58866 0
M  V30 4008 O 386.623 -0.212312 -1.94746 0
M  V30 4009 H 385.203 -0.732813 -0.144894 0
M  V30 4010 H 387.865 -1.9193 0.338943 0
M  V30 4011 H 386.961 -3.04219 -0.696939 0
M  V30 4012 N 387.262 0.0317525 -1.57568 0
M  V30 4013 C 388.21 1.05165 -2.07468 0
M  V30 4014 C 389.204 1.3761 -0.98792 0
M  V30 4015 O 390.41 1.36546 -1.17282 0
M  V30 4016 H 386.785 0.35666 -0.66204 0
M  V30 4017 H 388.756 0.604958 -2.92203 0
M  V30 4018 C 387.505 2.34488 -2.56731 0
M  V30 4019 H 386.828 2.10383 -3.39969 0
M  V30 4020 H 388.268 3.04203 -2.95358 0
M  V30 4021 C 386.727 3.03266 -1.46736 0
M  V30 4022 O 387.257 3.92988 -0.832069 0
M  V30 4023 N 385.463 2.6455 -1.20256 0
M  V30 4024 H 385.01 1.91674 -1.72102 0
M  V30 4025 H 384.968 3.10886 -0.468737 0
M  V30 4026 N 388.74 1.54641 0.303973 0
M  V30 4027 C 389.69 1.8177 1.37636 0
M  V30 4028 C 390.674 0.674697 1.46071 0
M  V30 4029 O 391.866 0.935251 1.50273 0
M  V30 4030 C 388.995 2.06584 2.74186 0
M  V30 4031 C 388.081 3.2706 2.69986 0
M  V30 4032 N 388.472 4.47682 2.35402 0
M  V30 4033 C 386.77 3.29028 3.01092 0
M  V30 4034 C 387.471 5.29689 2.40426 0
M  V30 4035 N 386.447 4.67339 2.7766 0
M  V30 4036 H 390.249 2.72596 1.09857 0
M  V30 4037 H 387.763 1.541 0.51254 0
M  V30 4038 H 389.76 2.24166 3.51504 0
M  V30 4039 H 388.42 1.17024 3.02879 0
M  V30 4040 H 389.431 4.74336 2.07908 0
M  V30 4041 H 386.108 2.49565 3.34699 0
M  V30 4042 H 387.498 6.3606 2.16512 0
M  V30 4043 N 390.218 -0.567019 1.47046 0
M  V30 4044 C 391.629 -1.14916 1.47143 0
M  V30 4045 C 391.98 -1.94954 0.220767 0
M  V30 4046 O 391.105 -2.05602 -0.67505 0
M  V30 4047 C 391.7 -2.09069 2.666 0
M  V30 4048 C 390.259 -2.62575 2.69687 0
M  V30 4049 C 389.406 -1.38755 2.40088 0
M  V30 4050 H 392.357 -0.354126 1.54699 0
M  V30 4051 H 392.378 -2.92789 2.43011 0
M  V30 4052 H 391.89 -1.50789 3.57609 0
M  V30 4053 H 389.991 -3.24681 1.82792 0
M  V30 4054 H 390.104 -3.04239 3.70102 0
M  V30 4055 H 388.468 -1.69098 1.90468 0
M  V30 4056 H 389.251 -0.822822 3.33293 0
M  V30 4057 N 391.696 -1.35014 -0.812953 0
M  V30 4058 C 392.973 -1.18502 -1.55617 0
M  V30 4059 C 393.353 0.238421 -2.09749 0
M  V30 4060 O 392.701 1.2411 -1.91857 0
M  V30 4061 C 392.911 -2.24783 -2.66971 0
M  V30 4062 C 394.259 -2.60268 -3.35478 0
M  V30 4063 O 395.283 -2.23648 -2.77236 0
M  V30 4064 O 394.142 -3.2321 -4.40678 0
M  V30 4065 H 391.236 -0.459984 -0.687272 0
M  V30 4066 H 393.782 -1.46677 -0.853464 0
M  V30 4067 H 392.554 -3.20284 -2.24798 0
M  V30 4068 H 392.177 -1.97841 -3.44884 0
M  V30 4069 N 393.175 1.03435 -1.18907 0
M  V30 4070 C 394.403 1.80381 -1.01342 0
M  V30 4071 C 394.818 1.83649 0.438005 0
M  V30 4072 O 394.175 1.27655 1.30424 0
M  V30 4073 C 394.226 3.25689 -1.56873 0
M  V30 4074 O 393.947 3.22673 -2.96334 0
M  V30 4075 C 395.448 4.19255 -1.44014 0
M  V30 4076 H 392.668 0.56784 -0.35749 0
M  V30 4077 H 395.212 1.30317 -1.576 0
M  V30 4078 H 393.367 3.72962 -1.04777 0
M  V30 4079 H 393.781 4.13748 -3.22355 0
M  V30 4080 H 395.255 5.19123 -1.87657 0
M  V30 4081 H 395.732 4.37467 -0.389815 0
M  V30 4082 H 396.338 3.77851 -1.95214 0
M  V30 4083 N 394.653 0.992116 1.22453 0
M  V30 4084 C 396.064 0.702776 1.72968 0
M  V30 4085 C 396.415 -0.780399 1.80012 0
M  V30 4086 O 395.54 -1.61007 1.44589 0
M  V30 4087 C 396.135 1.26903 3.14135 0
M  V30 4088 C 394.694 1.02909 3.62059 0
M  V30 4089 C 393.841 1.38969 2.39964 0
M  V30 4090 H 396.792 1.16457 1.07812 0
M  V30 4091 H 396.813 0.647223 3.74955 0
M  V30 4092 H 396.325 2.34851 3.08977 0
M  V30 4093 H 394.426 -0.0337979 3.72585 0
M  V30 4094 H 394.539 1.69191 4.48231 0
M  V30 4095 H 392.903 0.808279 2.41535 0
M  V30 4096 H 393.686 2.4792 2.37467 0
M  V30 4097 N 396.131 -1.37776 0.765217 0
M  V30 4098 C 397.377 -2.00145 0.327072 0
M  V30 4099 C 397.71 -1.60607 -1.09175 0
M  V30 4100 O 396.985 -0.849127 -1.74986 0
M  V30 4101 C 397.268 -3.57109 0.46319 0
M  V30 4102 C 397.121 -4.06576 1.92395 0
M  V30 4103 C 398.44 -4.39888 -0.136473 0
M  V30 4104 H 395.559 -0.727113 0.120316 0
M  V30 4105 H 398.201 -1.63549 0.967039 0
M  V30 4106 H 396.351 -3.88414 -0.0816358 0
M  V30 4107 H 398.023 -3.85864 2.52798 0
M  V30 4108 H 396.266 -3.59011 2.43503 0
M  V30 4109 H 396.937 -5.15639 1.97028 0
M  V30 4110 H 399.413 -4.14803 0.328317 0
M  V30 4111 H 398.289 -5.48899 -0.0110582 0
M  V30 4112 H 398.55 -4.24758 -1.22608 0
M  V30 4113 N 397.609 -0.515225 -1.4894 0
M  V30 4114 C 398.519 0.259774 -2.33157 0
M  V30 4115 C 399.535 0.953501 -1.45548 0
M  V30 4116 O 400.711 0.931735 -1.78552 0
M  V30 4117 C 397.776 1.30193 -3.21326 0
M  V30 4118 C 396.837 0.620129 -4.24797 0
M  V30 4119 C 396.07 1.61263 -5.08753 0
M  V30 4120 O 396.293 2.84389 -4.94448 0
M  V30 4121 O 395.227 1.16013 -5.90614 0
M  V30 4122 H 399.053 -0.429932 -3.00641 0
M  V30 4123 H 396.638 -0.276346 -1.46822 0
M  V30 4124 H 398.52 1.90455 -3.75905 0
M  V30 4125 H 397.195 1.97431 -2.56521 0
M  V30 4126 H 396.102 -0.0226019 -3.74093 0
M  V30 4127 H 397.435 -0.0100493 -4.92199 0
M  V30 4128 N 399.087 1.5561 -0.249682 0
M  V30 4129 C 400.017 2.24477 0.642826 0
M  V30 4130 C 400.998 1.22601 1.17911 0
M  V30 4131 O 402.183 1.5126 1.21795 0
M  V30 4132 C 399.313 2.94638 1.83863 0
M  V30 4133 C 398.267 4.03227 1.435 0
M  V30 4134 C 397.593 4.60828 2.71186 0
M  V30 4135 C 398.893 5.18796 0.604002 0
M  V30 4136 H 400.587 2.99321 0.0685625 0
M  V30 4137 H 398.133 1.43965 0.0315363 0
M  V30 4138 H 400.086 3.41517 2.46868 0
M  V30 4139 H 398.81 2.17287 2.43832 0
M  V30 4140 H 397.469 3.57121 0.828275 0
M  V30 4141 H 397.117 3.80174 3.29358 0
M  V30 4142 H 396.817 5.34132 2.44901 0
M  V30 4143 H 398.341 5.10442 3.35084 0
M  V30 4144 H 399.755 5.61883 1.13842 0
M  V30 4145 H 398.152 5.98506 0.437097 0
M  V30 4146 H 399.222 4.83384 -0.383147 0
M  V30 4147 O 400.604 0.114399 1.61094 0
M  V30 4148 H 401.295 -0.485048 1.87529 0
M  V30 END ATOM
M  V30 BEGIN BOND
M  V30 END BOND
M  V30 END CTAB
M  END
$$$$
