drugbank_target|O43708 Maleylacetoacetate isomerase (DB00143; DB04447; DB08809; DB09462)
 OpenBabel12092119403D

  0  0  0     0  0            999 V3000
M  V30 BEGIN CTAB
M  V30 COUNTS 3454 3486 0 0 0
M  V30 BEGIN ATOM
M  V30 1 H -0.908 1.98254 -0.117106 0
M  V30 2 N 0 1.576 0 0
M  V30 3 C 0.933 2.03868 1.02534 0
M  V30 4 C 1.911 0.928543 1.3348 0
M  V30 5 O 3.095 1.19667 1.45644 0
M  V30 6 C 0.222 2.43627 2.35294 0
M  V30 7 C -0.732 3.65373 2.2001 0
M  V30 8 S 0.101 5.13292 1.52614 0
M  V30 9 C 1.257 5.56322 2.86805 0
M  V30 10 H 1.49 2.90518 0.631377 0
M  V30 11 H -0.977 1.52953 0.210867 0
M  V30 12 H 0.981 2.67203 3.11629 0
M  V30 13 H -0.358 1.57376 2.7183 0
M  V30 14 H -1.165 3.90944 3.18086 0
M  V30 15 H -1.563 3.418 1.51819 0
M  V30 16 H 0.729 5.58782 3.83104 0
M  V30 17 H 1.672 6.56266 2.65933 0
M  V30 18 H 2.08 4.83886 2.90714 0
M  V30 19 N 1.4781 -0.272755 1.55222 0
M  V30 20 C 2.4101 -1.35946 1.8453 0
M  V30 21 C 3.4231 -1.45525 0.729818 0
M  V30 22 O 4.6121 -1.47337 1.00767 0
M  V30 23 C 1.7121 -2.74069 1.99347 0
M  V30 24 C 0.8851 -2.87079 3.30007 0
M  V30 25 C -0.0559 -4.05879 3.34886 0
M  V30 26 O -1.0299 -3.96626 4.08261 0
M  V30 27 N 0.1721 -5.17857 2.62307 0
M  V30 28 H 2.9371 -1.11149 2.78327 0
M  V30 29 H 0.4981 -0.462869 1.55142 0
M  V30 30 H 2.4901 -3.51838 1.99981 0
M  V30 31 H 1.0601 -2.91688 1.12415 0
M  V30 32 H 0.2801 -1.96193 3.41909 0
M  V30 33 H 1.5681 -2.92701 4.16177 0
M  V30 34 H 0.9661 -5.28261 2.02377 0
M  V30 35 H -0.4769 -5.93855 2.68663 0
M  V30 36 N 2.9562 -1.48159 -0.537278 0
M  V30 37 C 3.9192 -1.61665 -1.62472 0
M  V30 38 C 4.9192 -0.490395 -1.5314 0
M  V30 39 O 6.1092 -0.755998 -1.5694 0
M  V30 40 C 3.2412 -1.57997 -3.02076 0
M  V30 41 H 4.4342 -2.58621 -1.51839 0
M  V30 42 H 1.9872 -1.36647 -0.758771 0
M  V30 43 H 2.7222 -0.624913 -3.18222 0
M  V30 44 H 2.5072 -2.39755 -3.10258 0
M  V30 45 H 3.9972 -1.70627 -3.81151 0
M  V30 46 N 4.4343 0.785586 -1.36625 0
M  V30 47 C 5.6823 1.54057 -1.30808 0
M  V30 48 C 6.0033 1.94683 0.111157 0
M  V30 49 O 5.2733 1.65241 1.05224 0
M  V30 50 H 3.8533 0.571354 -0.481211 0
M  V30 51 H 6.5153 0.935821 -1.70963 0
M  V30 52 H 5.6113 2.44637 -1.93801 0
M  V30 53 N 5.9124 1.20967 1.01018 0
M  V30 54 C 6.8594 0.964281 2.09691 0
M  V30 55 C 7.8294 -0.107853 1.65749 0
M  V30 56 O 9.0144 0.0381987 1.90762 0
M  V30 57 C 6.1544 0.52943 3.41015 0
M  V30 58 C 5.2674 1.67043 3.98398 0
M  V30 59 C 4.4024 1.18525 5.17808 0
M  V30 60 C 3.4414 2.29892 5.67288 0
M  V30 61 N 2.5784 1.82546 6.77954 0
M  V30 62 H 7.4184 1.89463 2.30017 0
M  V30 63 H 4.9554 0.944289 1.1279 0
M  V30 64 H 6.9134 0.258588 4.16398 0
M  V30 65 H 5.5434 -0.363919 3.20742 0
M  V30 66 H 4.5954 2.05603 3.20049 0
M  V30 67 H 5.9074 2.50877 4.31117 0
M  V30 68 H 5.0614 0.870762 6.00419 0
M  V30 69 H 3.8004 0.316887 4.86669 0
M  V30 70 H 2.8054 2.6215 4.83278 0
M  V30 71 H 4.0304 3.17216 6.00459 0
M  V30 72 H 1.9764 0.980454 6.48632 0
M  V30 73 H 1.8934 2.59956 7.09901 0
M  V30 74 H 3.1614 1.54115 7.64113 0
M  V30 75 N 7.3905 -1.2043 1.01659 0
M  V30 76 C 8.8015 -1.71517 0.737482 0
M  V30 77 C 9.1525 -1.81547 -0.743973 0
M  V30 78 O 8.2775 -1.47803 -1.58061 0
M  V30 79 C 8.8725 -3.11515 1.33206 0
M  V30 80 C 7.4315 -3.59912 1.10183 0
M  V30 81 C 6.5785 -2.37116 1.43776 0
M  V30 82 H 9.5295 -1.05444 1.18606 0
M  V30 83 H 9.5505 -3.73575 0.722636 0
M  V30 84 H 9.0625 -3.04182 2.41028 0
M  V30 85 H 7.1635 -3.72577 0.0412756 0
M  V30 86 H 7.2765 -4.44731 1.78188 0
M  V30 87 H 5.6405 -2.39857 0.856778 0
M  V30 88 H 6.4235 -2.32424 2.52654 0
M  V30 89 N 8.8686 -0.792821 -1.36206 0
M  V30 90 C 10.1176 -0.363353 -1.984 0
M  V30 91 C 10.4306 1.07172 -1.63626 0
M  V30 92 O 11.6366 1.60362 -2.19081 0
M  V30 93 C 10.0926 -0.59872 -3.54885 0
M  V30 94 C 9.7006 -2.04543 -3.9858 0
M  V30 95 C 11.4446 -0.233926 -4.23855 0
M  V30 96 C 9.3516 -2.22727 -5.47856 0
M  V30 97 H 8.2816 -0.13212 -0.742334 0
M  V30 98 H 10.9326 -0.974935 -1.55458 0
M  V30 99 H 9.3146 0.0826222 -3.95914 0
M  V30 100 H 10.4886 -2.76345 -3.68741 0
M  V30 101 H 8.8036 -2.36879 -3.42458 0
M  V30 102 H 11.4006 -0.348027 -5.33566 0
M  V30 103 H 11.7436 0.818351 -4.08177 0
M  V30 104 H 12.2766 -0.868639 -3.882 0
M  V30 105 H 9.0156 -3.2635 -5.68486 0
M  V30 106 H 8.5356 -1.55434 -5.7931 0
M  V30 107 H 10.2146 -2.03607 -6.14128 0
M  V30 108 N 10.3467 1.47872 -0.545128 0
M  V30 109 C 11.2767 2.32661 0.197793 0
M  V30 110 C 12.2577 1.43041 0.920504 0
M  V30 111 O 13.4427 1.71912 0.90333 0
M  V30 112 C 10.5727 3.24569 1.23582 0
M  V30 113 C 9.5267 4.23333 0.630323 0
M  V30 114 C 8.8527 5.0448 1.77211 0
M  V30 115 C 10.1527 5.20704 -0.407974 0
M  V30 116 H 11.8467 2.95024 -0.510045 0
M  V30 117 H 9.3927 1.4187 -0.246731 0
M  V30 118 H 11.3457 3.8272 1.76362 0
M  V30 119 H 10.0697 2.60236 1.97344 0
M  V30 120 H 8.7287 3.6639 0.123922 0
M  V30 121 H 8.3767 4.36561 2.49847 0
M  V30 122 H 8.0767 5.71339 1.37281 0
M  V30 123 H 9.6007 5.65487 2.3034 0
M  V30 124 H 11.0147 5.7329 0.033305 0
M  V30 125 H 9.4117 5.95699 -0.725486 0
M  V30 126 H 10.4817 4.66917 -1.30828 0
M  V30 127 N 11.8248 0.280983 1.55075 0
M  V30 128 C 13.0548 -0.336804 2.03836 0
M  V30 129 C 13.4628 -1.49577 1.15859 0
M  V30 130 O 12.8058 -1.82888 0.172503 0
M  V30 131 C 12.8678 -0.874616 3.48699 0
M  V30 132 C 12.5318 0.156478 4.56732 0
M  V30 133 C 13.5288 0.978032 5.10618 0
M  V30 134 C 11.2138 0.292409 5.01448 0
M  V30 135 C 13.2078 1.92165 6.07743 0
M  V30 136 C 10.8948 1.23949 5.98398 0
M  V30 137 C 11.8928 2.05261 6.51427 0
M  V30 138 O 11.5808 2.98367 7.4648 0
M  V30 139 H 11.3128 -0.0800885 0.671239 0
M  V30 140 H 13.8668 0.412589 2.01213 0
M  V30 141 H 12.0968 -1.67418 3.4858 0
M  V30 142 H 13.7858 -1.40612 3.80766 0
M  V30 143 H 14.5518 0.883782 4.7688 0
M  V30 144 H 10.4308 -0.330498 4.59814 0
M  V30 145 H 13.9748 2.55672 6.49059 0
M  V30 146 H 9.8718 1.33454 6.31554 0
M  V30 147 H 10.6398 2.93116 7.64215 0
M  V30 148 N 13.3029 -1.57598 0.00835791 0
M  V30 149 C 14.5279 -1.95617 -0.689103 0
M  V30 150 C 14.9529 -0.883753 -1.66046 0
M  V30 151 O 14.3109 0.157352 -1.80616 0
M  V30 152 C 14.3589 -3.32736 -1.38994 0
M  V30 153 O 13.4629 -3.27631 -2.50463 0
M  V30 154 H 12.8039 -0.638379 -0.182668 0
M  V30 155 H 15.3339 -2.045 0.064036 0
M  V30 156 H 15.3439 -3.68494 -1.75147 0
M  V30 157 H 14.0189 -4.1034 -0.677778 0
M  V30 158 H 12.5959 -3.03561 -2.16576 0
M  V30 159 N 14.781 0.264519 -1.55364 0
M  V30 160 C 16.011 1.01153 -1.80143 0
M  V30 161 C 16.419 1.80115 -0.579253 0
M  V30 162 O 15.762 1.77813 0.46132 0
M  V30 163 C 15.824 2.01098 -2.97993 0
M  V30 164 C 15.488 1.40995 -4.34706 0
M  V30 165 C 16.485 0.821316 -5.13372 0
M  V30 166 C 14.17 1.43461 -4.81378 0
M  V30 167 C 16.164 0.265339 -6.36847 0
M  V30 168 C 13.851 0.874771 -6.04807 0
M  V30 169 C 14.849 0.291146 -6.82379 0
M  V30 170 O 14.537 -0.260093 -8.03479 0
M  V30 171 H 14.269 0.304125 -0.603725 0
M  V30 172 H 16.823 0.298089 -2.03225 0
M  V30 173 H 15.053 2.76224 -2.70623 0
M  V30 174 H 16.742 2.61997 -3.1002 0
M  V30 175 H 17.508 0.794903 -4.78442 0
M  V30 176 H 13.387 1.87826 -4.21002 0
M  V30 177 H 16.931 -0.190837 -6.97339 0
M  V30 178 H 12.828 0.898452 -6.39217 0
M  V30 179 H 13.596 -0.150265 -8.18362 0
M  V30 180 N 16.2591 1.48442 0.529413 0
M  V30 181 C 17.5061 1.56488 1.28521 0
M  V30 182 C 17.8341 0.239042 1.93025 0
M  V30 183 O 17.0891 -0.770713 1.79885 0
M  V30 184 C 17.3881 2.6523 2.39558 0
M  V30 185 C 17.0541 4.07648 1.92702 0
M  V30 186 C 15.7161 4.46411 1.79641 0
M  V30 187 C 18.0681 4.96896 1.573 0
M  V30 188 C 15.3961 5.72226 1.29514 0
M  V30 189 C 17.7481 6.23202 1.08636 0
M  V30 190 C 16.4121 6.60821 0.941919 0
M  V30 191 H 15.6821 0.572631 0.470292 0
M  V30 192 H 18.3291 1.82161 0.59072 0
M  V30 193 H 16.6341 2.33419 3.14679 0
M  V30 194 H 18.3311 2.68671 2.97686 0
M  V30 195 H 14.9211 3.77036 2.03819 0
M  V30 196 H 19.1051 4.67626 1.66251 0
M  V30 197 H 14.3611 6.00097 1.17019 0
M  V30 198 H 18.5351 6.91753 0.803136 0
M  V30 199 H 16.1621 7.58198 0.5513 0
M  V30 200 N 17.7372 -0.778329 1.37039 0
M  V30 201 C 19.1532 -1.07796 1.17695 0
M  V30 202 C 19.3532 -2.01498 0.00860115 0
M  V30 203 O 18.4092 -2.43901 -0.653352 0
M  V30 204 C 19.7222 -1.68178 2.49272 0
M  V30 205 C 21.2702 -1.80467 2.55735 0
M  V30 206 C 21.7452 -2.44263 3.87427 0
M  V30 207 N 23.2362 -2.51721 3.88833 0
M  V30 208 C 23.9712 -3.01919 4.87476 0
M  V30 209 N 23.4672 -3.5234 5.96513 0
M  V30 210 N 25.2602 -3.00733 4.74885 0
M  V30 211 H 17.4112 -0.156032 2.11826 0
M  V30 212 H 19.6742 -0.131844 0.938787 0
M  V30 213 H 19.3802 -1.06796 3.35093 0
M  V30 214 H 19.2542 -2.67554 2.65885 0
M  V30 215 H 21.6412 -2.40984 1.70325 0
M  V30 216 H 21.7222 -0.798656 2.43013 0
M  V30 217 H 21.3662 -1.84388 4.73248 0
M  V30 218 H 21.2962 -3.45458 3.9745 0
M  V30 219 H 23.7872 -2.1603 3.10063 0
M  V30 220 H 24.1002 -3.89027 6.67741 0
M  V30 221 H 22.4452 -3.50462 6.00168 0
M  V30 222 H 25.6362 -2.60638 3.88826 0
M  V30 223 H 25.8092 -3.39545 5.51918 0
M  V30 224 N 19.2153 -1.21501 -1.00376 0
M  V30 225 C 20.4403 -1.05977 -1.78279 0
M  V30 226 C 20.8653 0.385994 -1.84097 0
M  V30 227 O 20.2233 1.27849 -1.28547 0
M  V30 228 C 20.2713 -1.66302 -3.19963 0
M  V30 229 O 19.3753 -0.909333 -4.0225 0
M  V30 230 H 18.7163 -0.372906 -0.549397 0
M  V30 231 H 21.2463 -1.6107 -1.26165 0
M  V30 232 H 21.2563 -1.70574 -3.70632 0
M  V30 233 H 19.9313 -2.71515 -3.15043 0
M  V30 234 H 18.5083 -0.941795 -3.60811 0
M  V30 235 N 20.6934 1.19889 -1.02296 0
M  V30 236 C 21.9184 1.9393 -0.735237 0
M  V30 237 C 22.3434 1.74639 0.698782 0
M  V30 238 O 21.7014 1.04481 1.48167 0
M  V30 239 C 21.7494 3.43916 -1.08417 0
M  V30 240 O 20.8534 4.11917 -0.199446 0
M  V30 241 H 20.1944 0.605645 -0.272196 0
M  V30 242 H 22.7244 1.52137 -1.36804 0
M  V30 243 H 22.7344 3.9456 -1.03856 0
M  V30 244 H 21.4094 3.5728 -2.12894 0
M  V30 245 H 19.9864 3.71666 -0.303136 0
M  V30 246 N 22.1715 0.800033 1.35784 0
M  V30 247 C 23.4115 0.382891 2.00782 0
M  V30 248 C 23.7755 -1.02891 1.62103 0
M  V30 249 O 24.9765 -1.54771 2.19771 0
M  V30 250 C 23.2475 0.553299 3.53091 0
M  V30 251 S 24.8065 0.225608 4.3822 0
M  V30 252 H 21.6245 0.145737 0.695904 0
M  V30 253 H 24.2265 1.04085 1.65489 0
M  V30 254 H 22.9305 1.58091 3.78729 0
M  V30 255 H 22.4615 -0.120214 3.93216 0
M  V30 256 H 24.4765 -0.969074 4.86645 0
M  V30 257 N 23.6496 -1.47581 0.552962 0
M  V30 258 C 24.8746 -2.07378 0.0300593 0
M  V30 259 C 25.2996 -1.40355 -1.25229 0
M  V30 260 O 24.6576 -0.477099 -1.7491 0
M  V30 261 C 24.7056 -3.60274 -0.153231 0
M  V30 262 O 23.8096 -3.94041 -1.21678 0
M  V30 263 H 23.1506 -0.662158 0.0494182 0
M  V30 264 H 25.6806 -1.89662 0.767434 0
M  V30 265 H 25.6906 -4.0633 -0.368761 0
M  V30 266 H 24.3656 -4.08455 0.783397 0
M  V30 267 H 22.9426 -3.59735 -0.982079 0
M  V30 268 N 25.1277 -0.289203 -1.54924 0
M  V30 269 C 26.3737 0.316922 -2.00916 0
M  V30 270 C 26.7287 1.52424 -1.17408 0
M  V30 271 O 26.0217 1.90097 -0.239536 0
M  V30 272 C 26.2157 0.736119 -3.49737 0
M  V30 273 C 26.0447 -0.429036 -4.47649 0
M  V30 274 C 24.8147 -0.917311 -4.96904 0
M  V30 275 C 27.0127 -1.27016 -4.98369 0
M  V30 276 N 24.9947 -2.05046 -5.78644 0
M  V30 277 C 26.3657 -2.25097 -5.77695 0
M  V30 278 C 28.4207 -1.30188 -4.80578 0
M  V30 279 C 27.1237 -3.26114 -6.41126 0
M  V30 280 C 29.1497 -2.30057 -5.44819 0
M  V30 281 C 28.5117 -3.2687 -6.23968 0
M  V30 282 H 24.6107 0.0807535 -0.777819 0
M  V30 283 H 27.1947 -0.416434 -1.90194 0
M  V30 284 H 25.3657 1.43867 -3.60773 0
M  V30 285 H 27.0977 1.32078 -3.82541 0
M  V30 286 H 23.8527 -0.494248 -4.71014 0
M  V30 287 H 24.2767 -2.62108 -6.24202 0
M  V30 288 H 28.9187 -0.567163 -4.18979 0
M  V30 289 H 26.6367 -4.00512 -7.01866 0
M  V30 290 H 30.2227 -2.33271 -5.32988 0
M  V30 291 H 29.1027 -4.02883 -6.72796 0
M  V30 292 N 26.6058 1.57591 -0.0167156 0
M  V30 293 C 28.0218 1.55946 0.339557 0
M  V30 294 C 28.2218 1.02109 1.73713 0
M  V30 295 O 27.2778 0.662303 2.43659 0
M  V30 296 C 28.5908 3.00037 0.199499 0
M  V30 297 C 30.1388 3.11805 0.273193 0
M  V30 298 C 30.6138 4.57713 0.162068 0
M  V30 299 N 32.1048 4.6268 0.219444 0
M  V30 300 C 32.8398 5.73185 0.157054 0
M  V30 301 N 32.3358 6.92786 0.0442936 0
M  V30 302 N 34.1288 5.61707 0.21014 0
M  V30 303 H 26.2798 1.90921 -0.930758 0
M  V30 304 H 28.5428 0.877674 -0.358319 0
M  V30 305 H 28.2488 3.4333 -0.76273 0
M  V30 306 H 28.1228 3.64387 0.974786 0
M  V30 307 H 30.5098 2.68433 1.22587 0
M  V30 308 H 30.5908 2.50201 -0.532256 0
M  V30 309 H 30.2348 5.01763 -0.78714 0
M  V30 310 H 30.1648 5.17283 0.986222 0
M  V30 311 H 32.6558 3.76649 0.307246 0
M  V30 312 H 32.9688 7.728 0.00304069 0
M  V30 313 H 31.3138 6.94999 0.00968457 0
M  V30 314 H 34.5048 4.6716 0.296546 0
M  V30 315 H 34.6778 6.47807 0.158054 0
M  V30 316 N 28.0839 -0.256276 1.55502 0
M  V30 317 C 29.3299 -0.987079 1.77157 0
M  V30 318 C 29.6629 -1.85327 0.580315 0
M  V30 319 O 28.9379 -1.89874 -0.421686 0
M  V30 320 C 29.2209 -1.85553 3.08613 0
M  V30 321 C 29.0739 -1.01816 4.38125 0
M  V30 322 C 30.3929 -2.8397 3.36228 0
M  V30 323 H 27.5119 -0.357428 0.644526 0
M  V30 324 H 30.1539 -0.258239 1.88237 0
M  V30 325 H 28.3039 -2.47695 2.99298 0
M  V30 326 H 29.9759 -0.416159 4.59419 0
M  V30 327 H 28.2189 -0.322178 4.32602 0
M  V30 328 H 28.8899 -1.65939 5.26468 0
M  V30 329 H 31.3659 -2.31964 3.45445 0
M  V30 330 H 30.2419 -3.41864 4.29442 0
M  V30 331 H 30.5029 -3.59955 2.56681 0
M  V30 332 N 29.562 -1.4872 -0.521534 0
M  V30 333 C 30.978 -1.35028 -0.850855 0
M  V30 334 C 31.178 -0.367712 -1.98116 0
M  V30 335 O 30.234 0.208037 -2.51642 0
M  V30 336 C 31.547 -2.75263 -1.21041 0
M  V30 337 C 33.095 -2.83813 -1.31981 0
M  V30 338 C 33.57 -4.24769 -1.71276 0
M  V30 339 N 35.061 -4.27482 -1.78363 0
M  V30 340 C 35.796 -5.33494 -2.1017 0
M  V30 341 N 35.292 -6.49775 -2.40343 0
M  V30 342 N 37.085 -5.20894 -2.11248 0
M  V30 343 H 29.236 -2.11214 0.22413 0
M  V30 344 H 31.499 -0.947252 0.0376439 0
M  V30 345 H 31.205 -3.48765 -0.453415 0
M  V30 346 H 31.079 -3.09327 -2.15863 0
M  V30 347 H 33.466 -2.10561 -2.06756 0
M  V30 348 H 33.547 -2.53358 -0.352596 0
M  V30 349 H 33.191 -4.9854 -0.970588 0
M  V30 350 H 33.121 -4.52673 -2.69062 0
M  V30 351 H 35.612 -3.43611 -1.57288 0
M  V30 352 H 35.925 -7.26402 -2.63743 0
M  V30 353 H 34.27 -6.53035 -2.37844 0
M  V30 354 H 37.461 -4.29065 -1.87139 0
M  V30 355 H 37.634 -6.03612 -2.35704 0
M  V30 356 N 31.0401 0.771051 -1.3745 0
M  V30 357 C 32.2891 1.52491 -1.3202 0
M  V30 358 C 32.6021 1.9538 0.0927347 0
M  V30 359 O 33.8081 2.70159 0.269503 0
M  V30 360 C 32.2641 2.75366 -2.31736 0
M  V30 361 C 31.8721 2.39573 -3.78562 0
M  V30 362 C 33.6161 3.53307 -2.35318 0
M  V30 363 C 31.5231 3.58954 -4.70007 0
M  V30 364 H 30.4531 0.572506 -0.490666 0
M  V30 365 H 33.1041 0.844474 -1.62914 0
M  V30 366 H 31.4861 3.45303 -1.93861 0
M  V30 367 H 32.6601 1.77415 -4.25277 0
M  V30 368 H 30.9751 1.74805 -3.77932 0
M  V30 369 H 33.5721 4.42039 -3.00842 0
M  V30 370 H 33.9151 3.93217 -1.36698 0
M  V30 371 H 34.4481 2.90367 -2.71904 0
M  V30 372 H 31.1871 3.24125 -5.69757 0
M  V30 373 H 30.7071 4.20214 -4.27996 0
M  V30 374 H 32.3861 4.25758 -4.87175 0
M  V30 375 N 32.5182 1.22032 0.997298 0
M  V30 376 C 33.4812 0.987909 2.06816 0
M  V30 377 C 34.4812 -0.0440084 1.6074 0
M  V30 378 O 35.6712 0.194053 1.73116 0
M  V30 379 C 32.8032 0.49132 3.37341 0
M  V30 380 H 33.9962 1.93803 2.28868 0
M  V30 381 H 31.5492 1.03838 1.16822 0
M  V30 382 H 32.2842 -0.463364 3.20973 0
M  V30 383 H 32.0692 1.23575 3.72118 0
M  V30 384 H 33.5592 0.348824 4.16141 0
M  V30 385 N 33.9963 -1.19345 1.0293 0
M  V30 386 C 34.9263 -2.2481 0.631105 0
M  V30 387 C 35.9073 -1.66245 -0.360104 0
M  V30 388 O 37.0923 -1.92677 -0.242726 0
M  V30 389 C 34.2223 -3.47295 -0.0184607 0
M  V30 390 C 33.1763 -4.18536 0.895073 0
M  V30 391 C 32.5023 -5.34586 0.110592 0
M  V30 392 C 33.8023 -4.73287 2.209 0
M  V30 393 H 35.4963 -2.58372 1.51275 0
M  V30 394 H 33.0423 -1.24194 0.728818 0
M  V30 395 H 34.9953 -4.20268 -0.308675 0
M  V30 396 H 33.7193 -3.12933 -0.934907 0
M  V30 397 H 32.3783 -3.47446 1.16949 0
M  V30 398 H 32.0263 -4.96469 -0.807902 0
M  V30 399 H 31.7263 -5.83183 0.719087 0
M  V30 400 H 33.2503 -6.10355 -0.172871 0
M  V30 401 H 34.6643 -5.38013 1.98028 0
M  V30 402 H 33.0613 -5.32373 2.76946 0
M  V30 403 H 34.1313 -3.91331 2.86336 0
M  V30 404 N 35.4744 -0.807222 -1.35358 0
M  V30 405 C 36.4374 -0.223665 -2.28106 0
M  V30 406 C 37.4374 0.589354 -1.4961 0
M  V30 407 O 38.6274 0.407745 -1.69361 0
M  V30 408 C 35.7594 0.688149 -3.33882 0
M  V30 409 H 36.9524 -1.04169 -2.81227 0
M  V30 410 H 34.5054 -0.577921 -1.45223 0
M  V30 411 H 35.2404 1.52984 -2.85948 0
M  V30 412 H 35.0254 0.10687 -3.91954 0
M  V30 413 H 36.5154 1.09075 -4.03104 0
M  V30 414 N 36.9525 1.47285 -0.560781 0
M  V30 415 C 37.8825 2.32857 0.173105 0
M  V30 416 C 38.8635 1.44009 0.905281 0
M  V30 417 O 40.0485 1.7286 0.885046 0
M  V30 418 C 37.1785 3.25861 1.20133 0
M  V30 419 C 36.1325 4.23978 0.585388 0
M  V30 420 C 35.4585 5.06332 1.7185 0
M  V30 421 C 36.7585 5.20242 -0.463178 0
M  V30 422 H 38.4525 2.94466 -0.541307 0
M  V30 423 H 35.9985 1.41601 -0.261764 0
M  V30 424 H 37.9515 3.84569 1.72293 0
M  V30 425 H 36.6755 2.62315 1.94573 0
M  V30 426 H 35.3345 3.66501 0.085054 0
M  V30 427 H 34.9825 4.39186 2.45203 0
M  V30 428 H 34.6825 5.72762 1.31213 0
M  V30 429 H 36.2065 5.67899 2.24329 0
M  V30 430 H 37.6205 5.73293 -0.027502 0
M  V30 431 H 36.0175 5.94896 -0.788627 0
M  V30 432 H 37.0875 4.65504 -1.35773 0
M  V30 433 N 38.4306 0.297415 1.54768 0
M  V30 434 C 39.3776 -0.580276 2.23386 0
M  V30 435 C 40.3476 -1.13238 1.21517 0
M  V30 436 O 41.5326 -1.17757 1.50126 0
M  V30 437 C 38.6726 -1.74801 2.97555 0
M  V30 438 C 37.7856 -1.22764 4.1419 0
M  V30 439 C 36.9206 -2.35895 4.75949 0
M  V30 440 C 35.9596 -1.80974 5.84735 0
M  V30 441 N 35.0966 -2.87664 6.40464 0
M  V30 442 H 39.9366 0.0114833 2.97998 0
M  V30 443 H 37.4736 0.0174361 1.4709 0
M  V30 444 H 39.4316 -2.43475 3.38786 0
M  V30 445 H 38.0616 -2.31145 2.25326 0
M  V30 446 H 37.1136 -0.433271 3.77924 0
M  V30 447 H 38.4256 -0.785551 4.92575 0
M  V30 448 H 37.5796 -3.12523 5.20014 0
M  V30 449 H 36.3186 -2.83429 3.96887 0
M  V30 450 H 35.3236 -1.02834 5.40097 0
M  V30 451 H 36.5486 -1.34348 6.65678 0
M  V30 452 H 34.4946 -3.34538 5.64287 0
M  V30 453 H 34.4116 -2.4794 7.14186 0
M  V30 454 H 35.6796 -3.642 6.89187 0
M  V30 455 N 39.9087 -1.5758 0.0250728 0
M  V30 456 C 41.1567 -1.91255 -0.653151 0
M  V30 457 C 41.4777 -0.901691 -1.729 0
M  V30 458 O 40.7477 0.0573785 -1.95816 0
M  V30 459 H 39.3277 -0.705942 -0.244243 0
M  V30 460 H 41.9897 -1.94767 0.0719209 0
M  V30 461 H 41.0857 -2.91752 -1.10847 0
M  V30 462 N 41.3868 0.248026 -1.55636 0
M  V30 463 C 42.6358 0.974134 -1.76617 0
M  V30 464 C 42.9488 1.86528 -0.588796 0
M  V30 465 O 44.1548 2.62805 -0.681594 0
M  V30 466 C 42.6108 1.78213 -3.12679 0
M  V30 467 C 42.2188 0.93843 -4.38061 0
M  V30 468 C 43.9628 2.50104 -3.42999 0
M  V30 469 C 41.8698 1.74225 -5.65155 0
M  V30 470 H 40.7998 0.36745 -0.658405 0
M  V30 471 H 43.4508 0.22884 -1.82067 0
M  V30 472 H 41.8328 2.56933 -3.01333 0
M  V30 473 H 43.0068 0.193635 -4.60393 0
M  V30 474 H 41.3218 0.332905 -4.15067 0
M  V30 475 H 43.9188 3.10694 -4.3517 0
M  V30 476 H 44.2618 3.21662 -2.64271 0
M  V30 477 H 44.7948 1.78395 -3.55556 0
M  V30 478 H 41.5338 1.07043 -6.46701 0
M  V30 479 H 41.0538 2.46235 -5.46926 0
M  V30 480 H 42.7328 2.30967 -6.0437 0
M  V30 481 N 42.8649 1.48995 0.513639 0
M  V30 482 C 44.1419 1.48338 1.27495 0
M  V30 483 C 44.5219 0.204065 2.10111 0
M  V30 484 O 43.8699 -0.813881 2.13514 0
M  V30 485 C 44.0799 2.75498 2.14247 0
M  V30 486 C 45.4279 3.24484 2.73852 0
M  V30 487 O 46.4519 2.76528 2.24523 0
M  V30 488 O 45.3109 4.07974 3.6362 0
M  V30 489 H 42.4049 0.593149 0.576284 0
M  V30 490 H 44.9509 1.61246 0.528948 0
M  V30 491 H 43.7229 3.60109 1.53092 0
M  V30 492 H 43.3459 2.6539 2.96064 0
M  V30 493 N 44.343 -0.763751 1.37857 0
M  V30 494 C 45.573 -1.55067 1.3652 0
M  V30 495 C 45.981 -1.89135 -0.0494227 0
M  V30 496 O 45.324 -1.52529 -1.02375 0
M  V30 497 C 45.386 -2.8838 2.14656 0
M  V30 498 C 45.05 -2.76905 3.63555 0
M  V30 499 C 46.047 -2.4739 4.57268 0
M  V30 500 C 43.732 -2.94676 4.06781 0
M  V30 501 C 45.726 -2.35786 5.92186 0
M  V30 502 C 43.413 -2.82692 5.41782 0
M  V30 503 C 44.411 -2.53289 6.34298 0
M  V30 504 O 44.099 -2.41345 7.66817 0
M  V30 505 H 43.831 -0.486776 0.469069 0
M  V30 506 H 46.385 -0.953812 1.81911 0
M  V30 507 H 44.615 -3.50217 1.63967 0
M  V30 508 H 46.304 -3.49828 2.05852 0
M  V30 509 H 47.07 -2.33339 4.2518 0
M  V30 510 H 42.949 -3.16563 3.35126 0
M  V30 511 H 46.493 -2.12757 6.64365 0
M  V30 512 H 42.39 -2.96314 5.7347 0
M  V30 513 H 43.158 -2.56634 7.77226 0
M  V30 514 N 45.8211 -1.22559 -0.990812 0
M  V30 515 C 46.7681 -0.997519 -2.0813 0
M  V30 516 C 47.7381 0.0814702 -1.659 0
M  V30 517 O 48.9231 -0.0685424 -1.90677 0
M  V30 518 C 46.0631 -0.583615 -3.40129 0
M  V30 519 C 45.1761 -1.7336 -3.9569 0
M  V30 520 C 44.3111 -1.26748 -5.15857 0
M  V30 521 C 43.3501 -2.38888 -5.63559 0
M  V30 522 N 42.4871 -1.93308 -6.74964 0
M  V30 523 H 47.3271 -1.93099 -2.26973 0
M  V30 524 H 44.8641 -0.962114 -1.11273 0
M  V30 525 H 46.8221 -0.324801 -4.15934 0
M  V30 526 H 45.4521 0.312845 -3.2128 0
M  V30 527 H 44.5041 -2.10669 -3.16738 0
M  V30 528 H 45.8161 -2.57704 -4.27071 0
M  V30 529 H 44.9701 -0.966173 -5.98957 0
M  V30 530 H 43.7091 -0.394272 -4.86104 0
M  V30 531 H 42.7141 -2.69805 -4.79046 0
M  V30 532 H 43.9391 -3.26728 -5.95336 0
M  V30 533 H 41.8851 -1.08352 -6.4699 0
M  V30 534 H 41.8021 -2.71217 -7.05675 0
M  V30 535 H 43.0701 -1.66252 -7.61564 0
M  V30 536 N 47.2992 1.18797 -1.03562 0
M  V30 537 C 48.5272 1.92599 -0.755869 0
M  V30 538 C 48.9422 1.75886 0.686271 0
M  V30 539 O 48.2992 1.08517 1.46732 0
M  V30 540 C 48.3502 3.44159 -1.10619 0
M  V30 541 O 48.0712 3.60341 -2.4917 0
M  V30 542 C 49.5722 4.3507 -0.850214 0
M  V30 543 H 46.7922 0.611587 -0.276048 0
M  V30 544 H 49.3362 1.50742 -1.38192 0
M  V30 545 H 47.4912 3.83823 -0.525194 0
M  V30 546 H 47.9052 4.54128 -2.62427 0
M  V30 547 H 49.3792 5.39989 -1.14523 0
M  V30 548 H 49.8562 4.38673 0.215176 0
M  V30 549 H 50.4622 4.01097 -1.41426 0
M  V30 550 N 48.7773 0.814389 1.34928 0
M  V30 551 C 50.0233 0.399013 1.98836 0
M  V30 552 C 50.3563 -1.03314 1.64438 0
M  V30 553 O 49.6313 -1.71811 0.911659 0
M  V30 554 C 49.9143 0.591629 3.55207 0
M  V30 555 C 49.7673 2.06928 3.99376 0
M  V30 556 C 51.0863 0.022199 4.40094 0
M  V30 557 H 48.2053 0.146451 0.722303 0
M  V30 558 H 50.8473 1.02537 1.59957 0
M  V30 559 H 48.9973 0.0584441 3.88456 0
M  V30 560 H 50.6693 2.66544 3.76499 0
M  V30 561 H 48.9123 2.56287 3.49999 0
M  V30 562 H 49.5833 2.1549 5.08201 0
M  V30 563 H 52.0593 0.477643 4.13349 0
M  V30 564 H 50.9353 0.186832 5.48582 0
M  V30 565 H 51.1963 -1.07215 4.28902 0
M  V30 566 N 50.2554 -1.46986 0.568584 0
M  V30 567 C 51.6664 -1.86188 0.138219 0
M  V30 568 C 52.0174 -1.47388 -1.29504 0
M  V30 569 O 51.1424 -0.88219 -1.97602 0
M  V30 570 C 51.7374 -3.3792 0.244065 0
M  V30 571 C 50.2964 -3.76171 -0.131335 0
M  V30 572 C 49.4434 -2.71027 0.586465 0
M  V30 573 H 52.3944 -1.38342 0.777645 0
M  V30 574 H 52.4154 -3.76729 -0.534351 0
M  V30 575 H 51.9274 -3.66128 1.28731 0
M  V30 576 H 50.0284 -3.5358 -1.17526 0
M  V30 577 H 50.1414 -4.78523 0.235146 0
M  V30 578 H 48.5054 -2.54684 0.0282722 0
M  V30 579 H 49.2884 -3.02077 1.63109 0
M  V30 580 N 51.7335 -0.305618 -1.54608 0
M  V30 581 C 52.9825 0.303098 -1.9941 0
M  V30 582 C 53.2955 1.54648 -1.19764 0
M  V30 583 O 54.5015 2.23007 -1.54855 0
M  V30 584 C 52.9575 0.590588 -3.55021 0
M  V30 585 C 52.5655 -0.634719 -4.43481 0
M  V30 586 C 54.3095 1.16025 -4.08336 0
M  V30 587 C 52.2165 -0.320126 -5.90533 0
M  V30 588 H 51.1465 0.117031 -0.744862 0
M  V30 589 H 53.7975 -0.415045 -1.78745 0
M  V30 590 H 52.1795 1.36845 -3.71604 0
M  V30 591 H 53.3535 -1.41079 -4.38672 0
M  V30 592 H 51.6685 -1.12333 -4.00962 0
M  V30 593 H 54.2655 1.40994 -5.15776 0
M  V30 594 H 54.6085 2.10397 -3.5922 0
M  V30 595 H 55.1415 0.443985 -3.95315 0
M  V30 596 H 51.8805 -1.23254 -6.43808 0
M  V30 597 H 51.4005 0.418579 -5.98338 0
M  V30 598 H 53.0795 0.0766241 -6.46955 0
M  V30 599 N 53.2116 1.57565 -0.0334293 0
M  V30 600 C 54.1596 2.1164 0.96496 0
M  V30 601 C 55.1536 1.04398 1.33407 0
M  V30 602 O 56.3596 1.22828 1.3158 0
M  V30 603 H 52.7346 0.676222 0.32898 0
M  V30 604 H 54.7056 2.94455 0.483614 0
M  V30 605 C 53.4546 2.66207 2.23672 0
M  V30 606 H 52.7776 3.48378 1.96145 0
M  V30 607 H 54.2176 3.07685 2.9173 0
M  V30 608 C 52.6766 1.59151 2.96939 0
M  V30 609 O 53.2066 0.993858 3.89211 0
M  V30 610 N 51.4126 1.31093 2.59351 0
M  V30 611 H 50.9596 1.7988 1.84393 0
M  V30 612 H 50.9176 0.596889 3.08682 0
M  V30 613 N 54.6897 -0.239769 1.55765 0
M  V30 614 C 55.6197 -1.30052 1.9393 0
M  V30 615 C 56.6007 -1.49839 0.805132 0
M  V30 616 O 57.7857 -1.62328 1.06599 0
M  V30 617 C 54.9157 -2.65391 2.2402 0
M  V30 618 C 53.8697 -2.60289 3.39755 0
M  V30 619 C 53.1957 -3.99489 3.55405 0
M  V30 620 C 54.4957 -2.16654 4.75246 0
M  V30 621 H 56.1897 -0.983573 2.82783 0
M  V30 622 H 53.7357 -0.471701 1.36055 0
M  V30 623 H 55.6887 -3.3974 2.49308 0
M  V30 624 H 54.4127 -2.98736 1.32 0
M  V30 625 H 53.0717 -1.88398 3.14487 0
M  V30 626 H 52.7197 -4.30112 2.60793 0
M  V30 627 H 52.4197 -3.96962 4.33238 0
M  V30 628 H 53.9437 -4.75528 3.83022 0
M  V30 629 H 55.3577 -2.80737 4.99859 0
M  V30 630 H 53.7547 -2.25223 5.56232 0
M  V30 631 H 54.8247 -1.11835 4.71827 0
M  V30 632 N 56.1678 -1.49265 -0.50573 0
M  V30 633 C 57.4168 -1.57761 -1.25675 0
M  V30 634 C 57.7298 -0.267371 -1.93764 0
M  V30 635 O 58.9358 -0.230827 -2.70517 0
M  V30 636 C 57.3918 -2.78332 -2.28165 0
M  V30 637 C 56.9998 -4.16096 -1.66037 0
M  V30 638 C 58.7438 -2.96155 -3.04125 0
M  V30 639 C 56.6508 -5.27895 -2.6661 0
M  V30 640 H 55.5808 -0.587391 -0.472745 0
M  V30 641 H 58.2318 -1.75644 -0.53118 0
M  V30 642 H 56.6138 -2.53934 -3.03865 0
M  V30 643 H 57.7878 -4.50612 -0.963622 0
M  V30 644 H 56.1028 -4.03591 -1.02484 0
M  V30 645 H 58.6998 -3.76849 -3.79327 0
M  V30 646 H 59.0428 -2.06534 -3.61455 0
M  V30 647 H 59.5758 -3.2057 -2.35541 0
M  V30 648 H 56.3148 -6.1956 -2.14068 0
M  V30 649 H 55.8348 -4.97839 -3.34539 0
M  V30 650 H 57.5138 -5.57031 -3.29129 0
M  V30 651 N 57.6459 0.756429 -1.3826 0
M  V30 652 C 58.5929 1.87011 -1.35261 0
M  V30 653 C 59.5629 1.64695 -0.215616 0
M  V30 654 O 60.7479 1.864 -0.407399 0
M  V30 655 C 57.8879 3.24275 -1.18068 0
M  V30 656 C 57.0009 3.58442 -2.41129 0
M  V30 657 C 56.1359 4.84994 -2.16689 0
M  V30 658 C 55.1749 5.11939 -3.35537 0
M  V30 659 N 54.3119 6.29685 -3.10549 0
M  V30 660 H 59.1519 1.8891 -2.30472 0
M  V30 661 H 56.6889 0.923373 -1.14509 0
M  V30 662 H 58.6469 4.03479 -1.06116 0
M  V30 663 H 57.2769 3.21711 -0.264973 0
M  V30 664 H 56.3289 2.74103 -2.63764 0
M  V30 665 H 57.6409 3.74283 -3.29717 0
M  V30 666 H 56.7949 5.72135 -2.01857 0
M  V30 667 H 55.5339 4.71286 -1.25462 0
M  V30 668 H 54.5389 4.23268 -3.50891 0
M  V30 669 H 55.7639 5.27546 -4.27635 0
M  V30 670 H 53.7099 6.17306 -2.21967 0
M  V30 671 H 53.6269 6.46014 -3.92686 0
M  V30 672 H 54.8949 7.19722 -2.99367 0
M  V30 673 N 59.124 1.23083 0.984299 0
M  V30 674 C 60.401 0.9689 1.69917 0
M  V30 675 C 60.781 -0.513604 2.04757 0
M  V30 676 O 60.129 -1.48383 1.73767 0
M  V30 677 C 60.339 1.87518 2.94343 0
M  V30 678 C 61.687 2.13636 3.6694 0
M  V30 679 O 62.711 1.85036 3.04368 0
M  V30 680 O 61.57 2.62119 4.79537 0
M  V30 681 H 58.664 0.365095 0.742048 0
M  V30 682 H 61.21 1.34107 1.03987 0
M  V30 683 H 59.982 2.87756 2.65164 0
M  V30 684 H 59.605 1.50514 3.6801 0
M  V30 685 N 60.6021 -1.18246 1.0419 0
M  V30 686 C 62.0181 -1.40269 0.761366 0
M  V30 687 C 62.2181 -1.90777 -0.648578 0
M  V30 688 O 61.2741 -2.0929 -1.41258 0
M  V30 689 C 62.5871 -2.40237 1.8085 0
M  V30 690 C 64.1351 -2.53961 1.82955 0
M  V30 691 C 64.6101 -3.57194 2.86664 0
M  V30 692 N 66.1011 -3.64702 2.85563 0
M  V30 693 C 66.8361 -4.44309 3.6246 0
M  V30 694 N 66.3321 -5.27514 4.49111 0
M  V30 695 N 68.1251 -4.39084 3.50944 0
M  V30 696 H 60.2761 -0.837882 1.95175 0
M  V30 697 H 62.5391 -0.430608 0.84456 0
M  V30 698 H 62.2451 -2.10176 2.81991 0
M  V30 699 H 62.1191 -3.39601 1.64168 0
M  V30 700 H 64.5061 -2.83338 0.824855 0
M  V30 701 H 64.5871 -1.54706 2.03715 0
M  V30 702 H 64.2311 -3.28558 3.87314 0
M  V30 703 H 64.1611 -4.5613 2.6316 0
M  V30 704 H 66.6521 -3.05289 2.22727 0
M  V30 705 H 66.9651 -5.85411 5.04493 0
M  V30 706 H 65.3101 -5.2693 4.53178 0
M  V30 707 H 68.5011 -3.7313 2.82651 0
M  V30 708 H 68.6741 -5.00883 4.11121 0
M  V30 709 N 62.0802 -0.821533 -1.34494 0
M  V30 710 C 63.3282 -0.408139 -1.97936 0
M  V30 711 C 63.6492 1.03193 -1.65457 0
M  V30 712 O 62.9192 1.71622 -0.944595 0
M  V30 713 H 61.4992 -0.147928 -0.732206 0
M  V30 714 H 64.1612 -1.05067 -1.64155 0
M  V30 715 H 63.2572 -0.52601 -3.07635 0
M  V30 716 N 63.5583 1.46682 -0.576371 0
M  V30 717 C 64.4903 2.28341 0.198231 0
M  V30 718 C 65.5033 1.38141 0.861453 0
M  V30 719 O 66.6923 1.62797 0.732082 0
M  V30 720 C 63.7923 3.12986 1.29972 0
M  V30 721 C 62.9653 4.31271 0.729639 0
M  V30 722 C 62.0243 4.97363 1.71803 0
M  V30 723 O 61.0503 5.55156 1.25658 0
M  V30 724 N 62.2523 4.93796 3.05198 0
M  V30 725 H 65.0173 2.9546 -0.502324 0
M  V30 726 H 62.5783 1.56525 -0.413715 0
M  V30 727 H 64.5703 3.54066 1.96008 0
M  V30 728 H 63.1403 2.47984 1.90323 0
M  V30 729 H 62.3603 3.94052 -0.108012 0
M  V30 730 H 63.6483 5.07739 0.328438 0
M  V30 731 H 63.0463 4.48077 3.45317 0
M  V30 732 H 61.6033 5.38837 3.6674 0
M  V30 733 N 65.0364 0.313813 1.54444 0
M  V30 734 C 65.9684 -0.590425 2.21465 0
M  V30 735 C 66.9814 -1.08753 1.21147 0
M  V30 736 O 68.1704 -1.00278 1.4767 0
M  V30 737 C 65.2704 -1.82179 2.85769 0
M  V30 738 C 64.4434 -1.46502 4.12136 0
M  V30 739 C 63.5024 -2.55288 4.60124 0
M  V30 740 O 62.5284 -2.19842 5.25032 0
M  V30 741 N 63.7304 -3.86053 4.33525 0
M  V30 742 H 66.4954 -0.0166033 2.99695 0
M  V30 743 H 64.0564 0.136578 1.61323 0
M  V30 744 H 66.0484 -2.54328 3.14801 0
M  V30 745 H 64.6184 -2.30369 2.11303 0
M  V30 746 H 63.8384 -0.575595 3.89975 0
M  V30 747 H 65.1264 -1.20221 4.94393 0
M  V30 748 H 64.5244 -4.17654 3.81552 0
M  V30 749 H 63.0814 -4.54461 4.67235 0
M  V30 750 N 66.5145 -1.57545 0.0417849 0
M  V30 751 C 67.7615 -1.92317 -0.634082 0
M  V30 752 C 68.0895 -0.919334 -1.71402 0
M  V30 753 O 67.3445 0.0698253 -1.95575 0
M  V30 754 C 67.6435 -3.33794 -1.27735 0
M  V30 755 C 67.3095 -4.49716 -0.326543 0
M  V30 756 C 65.9715 -4.81156 -0.0648814 0
M  V30 757 C 68.3235 -5.20182 0.325623 0
M  V30 758 C 65.6515 -5.80414 0.856539 0
M  V30 759 C 68.0035 -6.20424 1.23518 0
M  V30 760 C 66.6675 -6.50298 1.5056 0
M  V30 761 H 65.9375 -0.703736 -0.232027 0
M  V30 762 H 68.5845 -1.91205 0.106259 0
M  V30 763 H 66.8895 -3.31228 -2.09274 0
M  V30 764 H 68.5865 -3.57975 -1.80707 0
M  V30 765 H 65.1765 -4.25176 -0.540665 0
M  V30 766 H 69.3605 -4.96112 0.136546 0
M  V30 767 H 64.6165 -6.019 1.07363 0
M  V30 768 H 68.7905 -6.74141 1.74664 0
M  V30 769 H 66.4175 -7.27025 2.22123 0
M  V30 770 N 67.9926 0.231505 -1.5589 0
M  V30 771 C 69.2176 0.978689 -1.82856 0
M  V30 772 C 69.6426 1.77559 -0.620846 0
M  V30 773 O 69.0006 1.76119 0.430305 0
M  V30 774 C 69.0486 1.87997 -3.07716 0
M  V30 775 O 68.1526 2.97393 -2.85712 0
M  V30 776 H 67.4936 0.277663 -0.603158 0
M  V30 777 H 70.0236 0.24783 -2.03093 0
M  V30 778 H 70.0336 2.2917 -3.37558 0
M  V30 779 H 68.7086 1.29417 -3.95252 0
M  V30 780 H 67.2856 2.60238 -2.67078 0
M  V30 781 N 69.4707 1.49531 0.497807 0
M  V30 782 C 70.4177 1.66436 1.59899 0
M  V30 783 C 71.3877 0.505793 1.58212 0
M  V30 784 O 72.5727 0.733202 1.7615 0
M  V30 785 C 69.7127 1.7399 2.98029 0
M  V30 786 C 68.8257 3.01172 3.09708 0
M  V30 787 C 67.9607 2.99686 4.38591 0
M  V30 788 C 66.9997 4.21434 4.43914 0
M  V30 789 N 66.1367 4.1784 5.64229 0
M  V30 790 H 70.9767 2.60459 1.44793 0
M  V30 791 H 68.5137 1.29137 0.704423 0
M  V30 792 H 70.4717 1.76352 3.78095 0
M  V30 793 H 69.1017 0.834301 3.11832 0
M  V30 794 H 68.1537 3.08408 2.22685 0
M  V30 795 H 69.4657 3.91165 3.09502 0
M  V30 796 H 68.6197 3.00628 5.2698 0
M  V30 797 H 67.3587 2.07477 4.41367 0
M  V30 798 H 66.3637 4.20733 3.53926 0
M  V30 799 H 67.5887 5.14839 4.42851 0
M  V30 800 H 65.5347 3.28469 5.67841 0
M  V30 801 H 65.4517 5.01571 5.65652 0
M  V30 802 H 66.7197 4.22889 6.54817 0
M  V30 803 N 70.9488 -0.749086 1.3866 0
M  V30 804 C 72.2258 -1.4992 1.25632 0
M  V30 805 C 72.6058 -2.10633 -0.140317 0
M  V30 806 O 71.9538 -1.97437 -1.15025 0
M  V30 807 C 72.1638 -2.56195 2.36992 0
M  V30 808 C 73.5118 -3.22972 2.75634 0
M  V30 809 O 74.5358 -2.66502 2.36337 0
M  V30 810 O 73.3948 -4.25122 3.43415 0
M  V30 811 H 70.4888 -0.665067 0.491544 0
M  V30 812 H 73.0348 -0.784113 1.50498 0
M  V30 813 H 71.8068 -2.09612 3.30422 0
M  V30 814 H 71.4298 -3.35279 2.13714 0
M  V30 815 N 72.4269 -1.23603 -0.977757 0
M  V30 816 C 73.6739 -1.06971 -1.71941 0
M  V30 817 C 74.0019 0.393009 -1.90488 0
M  V30 818 O 73.2569 1.30719 -1.4564 0
M  V30 819 C 73.5559 -1.7433 -3.11999 0
M  V30 820 C 73.2219 -3.24252 -3.13323 0
M  V30 821 C 71.8839 -3.65156 -3.13392 0
M  V30 822 C 74.2359 -4.20141 -3.08433 0
M  V30 823 C 71.5639 -5.00403 -3.0629 0
M  V30 824 C 73.9159 -5.55384 -3.02873 0
M  V30 825 C 72.5799 -5.95647 -3.01265 0
M  V30 826 H 71.8499 -0.391433 -0.629175 0
M  V30 827 H 74.4969 -1.53572 -1.14403 0
M  V30 828 H 72.8019 -1.20096 -3.7294 0
M  V30 829 H 74.4989 -1.58936 -3.68158 0
M  V30 830 H 71.0889 -2.91692 -3.14029 0
M  V30 831 H 75.2729 -3.89547 -3.07517 0
M  V30 832 H 70.5289 -5.3081 -3.03399 0
M  V30 833 H 74.7029 -6.29398 -2.98046 0
M  V30 834 H 72.3299 -7.0041 -2.95516 0
M  V30 835 N 73.905 1.17692 -1.04816 0
M  V30 836 C 74.837 2.21103 -0.603822 0
M  V30 837 C 75.85 1.59411 0.33046 0
M  V30 838 O 77.039 1.7807 0.12379 0
M  V30 839 C 74.139 3.38623 0.136898 0
M  V30 840 C 73.312 4.29888 -0.807137 0
M  V30 841 C 72.371 5.26088 -0.10836 0
M  V30 842 O 71.397 5.64353 -0.741232 0
M  V30 843 N 72.599 5.68882 1.15558 0
M  V30 844 H 75.364 2.59848 -1.49329 0
M  V30 845 H 72.925 1.32553 -0.929587 0
M  V30 846 H 74.917 4.00009 0.614401 0
M  V30 847 H 73.487 2.98508 0.927993 0
M  V30 848 H 72.707 3.65993 -1.46434 0
M  V30 849 H 73.995 4.87759 -1.44807 0
M  V30 850 H 73.393 5.39861 1.69015 0
M  V30 851 H 71.95 6.32429 1.57722 0
M  V30 852 N 75.3831 0.828654 1.34056 0
M  V30 853 C 76.3461 0.259927 2.27721 0
M  V30 854 C 77.3461 -0.565478 1.50529 0
M  V30 855 O 78.5361 -0.38075 1.69988 0
M  V30 856 C 75.6681 -0.634944 3.34935 0
M  V30 857 H 76.8611 1.0863 2.79534 0
M  V30 858 H 74.4141 0.600951 1.44285 0
M  V30 859 H 75.1491 -1.48416 2.88346 0
M  V30 860 H 74.9341 -0.0444999 3.92075 0
M  V30 861 H 76.4241 -1.02648 4.04788 0
M  V30 862 N 76.8612 -1.46375 0.584142 0
M  V30 863 C 77.7912 -2.33103 -0.136037 0
M  V30 864 C 78.7722 -1.45431 -0.882255 0
M  V30 865 O 79.9572 -1.74246 -0.857434 0
M  V30 866 C 77.0872 -3.27731 -1.14933 0
M  V30 867 C 76.0412 -4.24855 -0.517862 0
M  V30 868 C 75.3672 -5.09001 -1.63773 0
M  V30 869 C 76.6672 -5.19439 0.545886 0
M  V30 870 H 78.3612 -2.93568 0.588086 0
M  V30 871 H 75.9072 -1.41166 0.284259 0
M  V30 872 H 77.8602 -3.87261 -1.66153 0
M  V30 873 H 76.5842 -2.65377 -1.90375 0
M  V30 874 H 75.2432 -3.6659 -0.0267361 0
M  V30 875 H 74.8912 -4.43031 -2.38185 0
M  V30 876 H 74.5912 -5.74777 -1.22085 0
M  V30 877 H 76.1152 -5.71396 -2.15266 0
M  V30 878 H 77.5292 -5.73177 0.118704 0
M  V30 879 H 75.9262 -5.93566 0.88317 0
M  V30 880 H 76.9962 -4.63285 1.43162 0
M  V30 881 N 78.3393 -0.321999 -1.54275 0
M  V30 882 C 79.2873 0.560206 -2.25753 0
M  V30 883 C 80.2813 1.11984 -1.27106 0
M  V30 884 O 81.4873 1.06806 -1.44888 0
M  V30 885 H 77.8623 0.199304 -0.725108 0
M  V30 886 H 79.8333 -0.0649365 -2.98329 0
M  V30 887 C 78.5823 1.71023 -3.02731 0
M  V30 888 H 77.9053 1.28885 -3.78456 0
M  V30 889 H 79.3453 2.30314 -3.55993 0
M  V30 890 C 77.8043 2.62692 -2.10938 0
M  V30 891 O 78.3343 3.64364 -1.6912 0
M  V30 892 N 76.5403 2.30891 -1.76459 0
M  V30 893 H 76.0873 1.48253 -2.10663 0
M  V30 894 H 76.0453 2.92487 -1.1532 0
M  V30 895 N 79.8174 1.5752 -0.0501392 0
M  V30 896 C 81.2284 1.80271 0.485705 0
M  V30 897 C 81.5794 0.96228 1.70981 0
M  V30 898 O 80.7044 0.178578 2.15662 0
M  V30 899 C 81.2994 3.26957 0.887938 0
M  V30 900 C 79.8584 3.5063 1.36877 0
M  V30 901 C 79.0054 2.75165 0.343468 0
M  V30 902 H 81.9564 1.56281 -0.276028 0
M  V30 903 H 81.9774 3.37821 1.75093 0
M  V30 904 H 81.4894 3.881 -0.0031809 0
M  V30 905 H 79.5904 2.94766 2.27911 0
M  V30 906 H 79.7034 4.59343 1.36164 0
M  V30 907 H 78.0674 2.4127 0.816128 0
M  V30 908 H 78.8504 3.39034 -0.539548 0
M  V30 909 N 81.2955 -0.223234 1.56011 0
M  V30 910 C 82.2285 -1.30377 1.87289 0
M  V30 911 C 83.2065 -1.45286 0.730112 0
M  V30 912 O 84.3905 -1.61126 0.978302 0
M  V30 913 C 81.5175 -2.67431 2.07843 0
M  V30 914 C 80.5635 -2.69546 3.30526 0
M  V30 915 S 81.3965 -2.23781 4.865 0
M  V30 916 C 82.5525 -3.62714 5.10088 0
M  V30 917 H 82.7855 -1.03652 2.78646 0
M  V30 918 H 80.3185 -0.425393 1.48424 0
M  V30 919 H 82.2765 -3.46336 2.20368 0
M  V30 920 H 80.9375 -2.91381 1.17285 0
M  V30 921 H 80.1305 -3.70255 3.41947 0
M  V30 922 H 79.7325 -1.98703 3.16849 0
M  V30 923 H 82.0245 -4.58391 4.98883 0
M  V30 924 H 82.9675 -3.5621 6.11981 0
M  V30 925 H 83.3755 -3.56323 4.37829 0
M  V30 926 N 82.7736 -1.49793 -0.48987 0
M  V30 927 C 83.7206 -1.67281 -1.59014 0
M  V30 928 C 84.6906 -0.514177 -1.57941 0
M  V30 929 O 85.8756 -0.742533 -1.75759 0
M  V30 930 C 83.0156 -1.75569 -2.97102 0
M  V30 931 C 82.1286 -3.0281 -3.08107 0
M  V30 932 C 81.2636 -3.02008 -4.36995 0
M  V30 933 C 80.3026 -4.23782 -4.41673 0
M  V30 934 N 79.4396 -4.20826 -5.62005 0
M  V30 935 H 84.2796 -2.61224 -1.43409 0
M  V30 936 H 81.8166 -1.29508 -0.697565 0
M  V30 937 H 83.7746 -1.78354 -3.77155 0
M  V30 938 H 82.4046 -0.850827 -3.11385 0
M  V30 939 H 81.4566 -3.09584 -2.21047 0
M  V30 940 H 82.7686 -3.92801 -3.07423 0
M  V30 941 H 81.9226 -3.03418 -5.25378 0
M  V30 942 H 80.6616 -2.09815 -4.4026 0
M  V30 943 H 79.6666 -4.22604 -3.5169 0
M  V30 944 H 80.8916 -5.17181 -4.40115 0
M  V30 945 H 78.8376 -3.31476 -5.66091 0
M  V30 946 H 78.7546 -5.04564 -5.62984 0
M  V30 947 H 80.0226 -4.26355 -6.52565 0
M  V30 948 N 84.2517 0.741722 -1.39055 0
M  V30 949 C 85.1837 1.8657 -1.33133 0
M  V30 950 C 86.1967 1.61001 -0.241329 0
M  V30 951 O 87.3857 1.7136 -0.499784 0
M  V30 952 C 84.4857 3.22457 -1.04283 0
M  V30 953 C 83.6587 3.75435 -2.24427 0
M  V30 954 C 82.7177 4.89867 -1.92138 0
M  V30 955 O 81.7437 5.03879 -2.64754 0
M  V30 956 N 82.9457 5.73738 -0.88347 0
M  V30 957 H 85.7107 1.92156 -2.29991 0
M  V30 958 H 83.2717 0.922172 -1.3307 0
M  V30 959 H 85.2637 3.9657 -0.807128 0
M  V30 960 H 83.8337 3.12181 -0.161807 0
M  V30 961 H 83.0537 2.92751 -2.6399 0
M  V30 962 H 84.3417 4.07563 -3.04581 0
M  V30 963 H 83.7397 5.64999 -0.281517 0
M  V30 964 H 82.2967 6.47947 -0.707662 0
M  V30 965 N 85.7298 1.2412 0.971189 0
M  V30 966 C 86.9758 1.08041 1.71625 0
M  V30 967 C 87.3088 -0.380407 1.90438 0
M  V30 968 O 86.5838 -1.28127 1.46334 0
M  V30 969 C 86.8668 1.81682 3.10908 0
M  V30 970 C 86.7198 3.35493 2.99608 0
M  V30 971 C 88.0388 1.58671 4.10501 0
M  V30 972 H 85.1578 0.39388 0.622919 0
M  V30 973 H 87.7998 1.52743 1.13003 0
M  V30 974 H 85.9498 1.43684 3.60953 0
M  V30 975 H 87.6218 3.83068 2.57015 0
M  V30 976 H 85.8648 3.64052 2.35899 0
M  V30 977 H 86.5358 3.82217 3.98264 0
M  V30 978 H 89.0118 1.91719 3.69301 0
M  V30 979 H 87.8878 2.1266 5.06031 0
M  V30 980 H 88.1488 0.524161 4.38982 0
M  V30 981 N 87.2079 -1.17134 1.05439 0
M  V30 982 C 88.6189 -1.69084 0.791676 0
M  V30 983 C 88.9699 -1.83822 -0.685839 0
M  V30 984 O 88.0949 -1.52757 -1.53278 0
M  V30 985 C 88.6899 -3.07119 1.4305 0
M  V30 986 C 87.2489 -3.56225 1.21577 0
M  V30 987 C 86.3959 -2.32421 1.51247 0
M  V30 988 H 89.3469 -1.01617 1.219 0
M  V30 989 H 89.3679 -3.71087 0.84112 0
M  V30 990 H 88.8799 -2.9636 2.50584 0
M  V30 991 H 86.9809 -3.72257 0.159787 0
M  V30 992 H 87.0939 -4.38837 1.92246 0
M  V30 993 H 85.4579 -2.3701 0.932653 0
M  V30 994 H 86.2409 -2.24268 2.5992 0
M  V30 995 N 88.686 -0.835752 -1.33615 0
M  V30 996 C 89.914 -0.443344 -2.02094 0
M  V30 997 C 90.329 0.954522 -1.62894 0
M  V30 998 O 89.686 1.61982 -0.840723 0
M  V30 999 C 89.737 -0.550775 -3.5728 0
M  V30 1000 O 89.458 -1.89356 -3.95065 0
M  V30 1001 C 90.959 -0.154919 -4.43029 0
M  V30 1002 H 88.179 -0.176359 -0.647409 0
M  V30 1003 H 90.723 -1.12746 -1.70612 0
M  V30 1004 H 88.878 0.0853997 -3.87306 0
M  V30 1005 H 89.292 -1.87687 -4.89769 0
M  V30 1006 H 90.766 -0.281144 -5.51284 0
M  V30 1007 H 91.243 0.902863 -4.2982 0
M  V30 1008 H 91.849 -0.765404 -4.18356 0
M  V30 1009 N 90.1641 1.46063 -0.591896 0
M  V30 1010 C 91.0941 2.33172 0.123673 0
M  V30 1011 C 92.0751 1.45897 0.87453 0
M  V30 1012 O 93.2601 1.74698 0.848181 0
M  V30 1013 C 90.3901 3.28336 1.13194 0
M  V30 1014 C 89.3441 4.25124 0.495324 0
M  V30 1015 C 88.6701 5.09863 1.61071 0
M  V30 1016 C 89.9701 5.19143 -0.573425 0
M  V30 1017 H 91.6641 2.93252 -0.603646 0
M  V30 1018 H 89.2101 1.41014 -0.291741 0
M  V30 1019 H 91.1631 3.88137 1.64097 0
M  V30 1020 H 89.8871 2.66383 1.88965 0
M  V30 1021 H 88.5461 3.66599 0.00729452 0
M  V30 1022 H 88.1941 4.44288 2.35832 0
M  V30 1023 H 87.8941 5.75417 1.19035 0
M  V30 1024 H 89.4181 5.72529 2.12233 0
M  V30 1025 H 90.8321 5.73106 -0.1491 0
M  V30 1026 H 89.2291 5.93089 -0.914636 0
M  V30 1027 H 90.2991 4.62519 -1.45617 0
M  V30 1028 N 91.6422 0.330177 1.54103 0
M  V30 1029 C 92.5892 -0.532762 2.24567 0
M  V30 1030 C 93.5592 -1.10635 1.23892 0
M  V30 1031 O 94.7442 -1.14546 1.5259 0
M  V30 1032 C 91.8842 -1.6845 3.01195 0
M  V30 1033 C 90.9972 -1.13951 4.167 0
M  V30 1034 C 90.1322 -2.25746 4.80845 0
M  V30 1035 C 89.1712 -1.6853 5.88442 0
M  V30 1036 N 88.3082 -2.74014 6.46421 0
M  V30 1037 H 93.1482 0.0746905 2.97906 0
M  V30 1038 H 90.6852 0.048632 1.4702 0
M  V30 1039 H 92.6432 -2.36234 3.43874 0
M  V30 1040 H 91.2732 -2.26314 2.30178 0
M  V30 1041 H 90.3252 -0.35301 3.78758 0
M  V30 1042 H 91.6372 -0.680892 4.94131 0
M  V30 1043 H 90.7912 -3.01422 5.26526 0
M  V30 1044 H 89.5302 -2.74947 4.0281 0
M  V30 1045 H 88.5352 -0.913543 5.42157 0
M  V30 1046 H 89.7602 -1.20198 6.68378 0
M  V30 1047 H 87.7062 -3.22494 5.71256 0
M  V30 1048 H 87.6232 -2.32735 7.19285 0
M  V30 1049 H 88.8912 -3.49499 6.96757 0
M  V30 1050 N 93.1203 -1.57491 0.0584922 0
M  V30 1051 C 94.3693 -1.92155 -0.613146 0
M  V30 1052 C 94.6823 -0.939334 -1.71569 0
M  V30 1053 O 95.8883 -1.17829 -2.44599 0
M  V30 1054 C 94.3443 -3.41303 -1.14195 0
M  V30 1055 C 93.9523 -4.47944 -0.0711265 0
M  V30 1056 C 95.6963 -3.84988 -1.78841 0
M  V30 1057 C 93.6033 -5.88212 -0.613225 0
M  V30 1058 H 92.5333 -0.717162 -0.232796 0
M  V30 1059 H 95.1843 -1.83049 0.12857 0
M  V30 1060 H 93.5663 -3.45437 -1.93621 0
M  V30 1061 H 94.7403 -4.55408 0.702836 0
M  V30 1062 H 93.0553 -4.13644 0.478313 0
M  V30 1063 H 95.6523 -4.87159 -2.20408 0
M  V30 1064 H 95.9953 -3.21632 -2.64308 0
M  V30 1065 H 96.5283 -3.83401 -1.06059 0
M  V30 1066 H 93.2673 -6.55183 0.203978 0
M  V30 1067 H 92.7873 -5.84294 -1.35501 0
M  V30 1068 H 94.4663 -6.37687 -1.09383 0
M  V30 1069 N 94.5984 0.214957 -1.56127 0
M  V30 1070 C 95.8754 0.963093 -1.70247 0
M  V30 1071 C 96.2554 2.02166 -0.60764 0
M  V30 1072 O 95.6034 2.25244 0.384385 0
M  V30 1073 C 95.8134 1.56756 -3.11815 0
M  V30 1074 C 97.1614 2.0573 -3.7143 0
M  V30 1075 O 98.1854 1.66637 -3.14818 0
M  V30 1076 O 97.0444 2.77603 -4.70743 0
M  V30 1077 H 94.1384 0.450321 -0.693643 0
M  V30 1078 H 96.6844 0.206219 -1.68442 0
M  V30 1079 H 95.4564 0.803533 -3.82961 0
M  V30 1080 H 95.0794 2.3898 -3.17765 0
M  V30 1081 N 96.0765 1.50051 0.48192 0
M  V30 1082 C 97.3245 1.60181 1.23234 0
M  V30 1083 C 97.6455 0.299176 1.92691 0
M  V30 1084 O 96.9155 -0.682708 1.83619 0
M  V30 1085 H 95.4955 0.590232 0.457859 0
M  V30 1086 H 98.1575 1.86775 0.556881 0
M  V30 1087 H 97.2535 2.40753 1.98607 0
M  V30 1088 N 97.5546 -0.734337 1.39446 0
M  V30 1089 C 98.8036 -1.48937 1.36017 0
M  V30 1090 C 99.1166 -1.95557 -0.0409005 0
M  V30 1091 O 100.323 -2.70779 -0.19778 0
M  V30 1092 C 98.7786 -2.69125 2.38955 0
M  V30 1093 C 98.3866 -2.29452 3.8478 0
M  V30 1094 C 100.131 -3.46944 2.44603 0
M  V30 1095 C 98.0376 -3.46366 4.79358 0
M  V30 1096 H 96.9676 -0.559296 0.505672 0
M  V30 1097 H 99.6186 -0.800983 1.65095 0
M  V30 1098 H 98.0006 -3.40041 2.02948 0
M  V30 1099 H 99.1746 -1.66077 4.29831 0
M  V30 1100 H 97.4896 -1.64723 3.82433 0
M  V30 1101 H 100.087 -4.33907 3.12456 0
M  V30 1102 H 100.43 -3.89454 1.47076 0
M  V30 1103 H 100.963 -2.83056 2.79507 0
M  V30 1104 H 97.7016 -3.08905 5.78151 0
M  V30 1105 H 97.2216 -4.08719 4.38986 0
M  V30 1106 H 98.9006 -4.12691 4.98292 0
M  V30 1107 N 99.0327 -1.24633 -0.964593 0
M  V30 1108 C 100.261 -1.11501 -1.74285 0
M  V30 1109 C 100.676 0.332165 -1.85855 0
M  V30 1110 O 100.033 1.22903 -1.34911 0
M  V30 1111 C 100.084 -1.75258 -3.16175 0
M  V30 1112 O 99.8047 -3.14318 -3.05182 0
M  V30 1113 C 101.306 -1.67776 -4.10324 0
M  V30 1114 H 98.5257 -0.389407 -0.546446 0
M  V30 1115 H 101.07 -1.64801 -1.21083 0
M  V30 1116 H 99.2247 -1.25954 -3.66353 0
M  V30 1117 H 99.6387 -3.4551 -3.94618 0
M  V30 1118 H 101.113 -2.17064 -5.0753 0
M  V30 1119 H 101.59 -0.639584 -4.34518 0
M  V30 1120 H 102.196 -2.16522 -3.66058 0
M  V30 1121 N 100.511 1.16574 -1.06058 0
M  V30 1122 C 101.76 1.86385 -0.770944 0
M  V30 1123 C 102.073 1.82448 0.705129 0
M  V30 1124 O 103.279 2.47815 1.10905 0
M  V30 1125 C 101.735 3.34466 -1.32893 0
M  V30 1126 C 101.343 3.46883 -2.83507 0
M  V30 1127 C 103.087 4.09548 -1.11672 0
M  V30 1128 C 100.994 4.89036 -3.32562 0
M  V30 1129 H 99.9238 0.698181 -0.284709 0
M  V30 1130 H 102.575 1.31583 -1.27899 0
M  V30 1131 H 100.957 3.88859 -0.748662 0
M  V30 1132 H 102.131 3.02663 -3.47465 0
M  V30 1133 H 100.446 2.85232 -3.03368 0
M  V30 1134 H 103.043 5.14434 -1.45814 0
M  V30 1135 H 103.386 4.16264 -0.0549535 0
M  V30 1136 H 103.919 3.61387 -1.66265 0
M  V30 1137 H 100.658 4.87499 -4.38207 0
M  V30 1138 H 100.178 5.3389 -2.73351 0
M  V30 1139 H 101.857 5.57843 -3.2775 0
M  V30 1140 N 101.989 0.842826 1.3317 0
M  V30 1141 C 102.939 0.250877 2.26616 0
M  V30 1142 C 103.923 -0.596427 1.49437 0
M  V30 1143 O 105.115 -0.447747 1.71243 0
M  V30 1144 C 102.244 -0.569779 3.38539 0
M  V30 1145 C 101.33 0.289254 4.23112 0
M  V30 1146 N 101.721 1.36987 4.86897 0
M  V30 1147 C 100.019 0.0769631 4.45934 0
M  V30 1148 C 100.72 1.89737 5.49886 0
M  V30 1149 N 99.6959 1.19827 5.30229 0
M  V30 1150 H 103.498 1.07718 2.73448 0
M  V30 1151 H 101.012 0.687693 1.47121 0
M  V30 1152 H 103.009 -1.01018 4.04476 0
M  V30 1153 H 101.669 -1.39401 2.93253 0
M  V30 1154 H 102.68 1.75277 4.87338 0
M  V30 1155 H 99.3569 -0.713507 4.11358 0
M  V30 1156 H 100.747 2.80253 6.10662 0
M  V30 1157 N 103.467 -1.45747 0.599634 0
M  V30 1158 C 104.399 -2.28628 -0.161879 0
M  V30 1159 C 105.412 -1.39494 -0.839367 0
M  V30 1160 O 106.601 -1.63941 -0.706089 0
M  V30 1161 C 103.701 -3.15014 -1.24976 0
M  V30 1162 C 102.874 -4.32378 -0.660935 0
M  V30 1163 C 101.933 -5.00033 -1.63869 0
M  V30 1164 O 100.959 -5.57085 -1.1681 0
M  V30 1165 N 102.161 -4.98589 -2.97303 0
M  V30 1166 H 104.926 -2.94624 0.549265 0
M  V30 1167 H 102.487 -1.55847 0.438565 0
M  V30 1168 H 104.479 -3.5714 -1.9035 0
M  V30 1169 H 103.049 -2.5098 -1.86354 0
M  V30 1170 H 102.269 -3.9383 0.170688 0
M  V30 1171 H 103.557 -5.08197 -0.247619 0
M  V30 1172 H 102.955 -4.53514 -3.38145 0
M  V30 1173 H 101.512 -5.44603 -3.58121 0
M  V30 1174 N 104.945 -0.338344 -1.53925 0
M  V30 1175 C 106.17 0.263987 -2.05713 0
M  V30 1176 C 106.595 1.43847 -1.21201 0
M  V30 1177 O 105.953 1.79904 -0.224535 0
M  V30 1178 C 106.001 0.662 -3.54471 0
M  V30 1179 O 105.105 1.76265 -3.72833 0
M  V30 1180 H 104.446 0.0448722 -0.662482 0
M  V30 1181 H 106.976 -0.491048 -1.9862 0
M  V30 1182 H 106.986 0.940594 -3.9701 0
M  V30 1183 H 105.661 -0.196937 -4.15433 0
M  V30 1184 H 104.238 1.48173 -3.42198 0
M  V30 1185 N 106.423 1.57458 -0.0668435 0
M  V30 1186 C 107.353 2.15468 0.899764 0
M  V30 1187 C 108.334 1.08042 1.31381 0
M  V30 1188 O 109.519 1.36054 1.38574 0
M  V30 1189 C 106.649 2.71232 2.16911 0
M  V30 1190 C 105.603 3.83781 1.89463 0
M  V30 1191 C 104.929 4.26127 3.22986 0
M  V30 1192 C 106.229 5.08238 1.20381 0
M  V30 1193 H 107.923 2.96488 0.416529 0
M  V30 1194 H 105.469 1.4262 0.198908 0
M  V30 1195 H 107.422 3.10458 2.84945 0
M  V30 1196 H 106.146 1.87426 2.67468 0
M  V30 1197 H 104.805 3.45051 1.23836 0
M  V30 1198 H 104.453 3.39249 3.71374 0
M  V30 1199 H 104.153 5.01993 3.05413 0
M  V30 1200 H 105.677 4.67966 3.92225 0
M  V30 1201 H 107.091 5.44811 1.78475 0
M  V30 1202 H 105.488 5.89349 1.13083 0
M  V30 1203 H 106.558 4.84558 0.182153 0
M  V30 1204 N 107.901 -0.206675 1.56239 0
M  V30 1205 C 108.864 -1.23976 1.92776 0
M  V30 1206 C 109.864 -1.39041 0.807729 0
M  V30 1207 O 111.054 -1.37051 1.0753 0
M  V30 1208 C 108.186 -2.61112 2.19165 0
M  V30 1209 H 109.379 -0.927764 2.85189 0
M  V30 1210 H 106.932 -0.447718 1.4975 0
M  V30 1211 H 107.667 -2.97386 1.29352 0
M  V30 1212 H 107.452 -2.51552 3.00772 0
M  V30 1213 H 108.942 -3.35633 2.48476 0
M  V30 1214 N 109.379 -1.50304 -0.473955 0
M  V30 1215 C 110.628 -1.60392 -1.22301 0
M  V30 1216 C 110.941 -0.308411 -1.93153 0
M  V30 1217 O 112.147 -0.288156 -2.69966 0
M  V30 1218 C 110.603 -2.83109 -2.2221 0
M  V30 1219 C 110.211 -4.19524 -1.57173 0
M  V30 1220 C 111.955 -3.0254 -2.97775 0
M  V30 1221 C 109.862 -5.33431 -2.55353 0
M  V30 1222 H 108.792 -0.597286 -0.460179 0
M  V30 1223 H 111.443 -1.76731 -0.493803 0
M  V30 1224 H 109.825 -2.60322 -2.9841 0
M  V30 1225 H 110.999 -4.52554 -0.867824 0
M  V30 1226 H 109.314 -4.05674 -0.939002 0
M  V30 1227 H 111.911 -3.84811 -3.71248 0
M  V30 1228 H 112.254 -2.14154 -3.56992 0
M  V30 1229 H 112.787 -3.25494 -2.28688 0
M  V30 1230 H 109.526 -6.23962 -2.00878 0
M  V30 1231 H 109.046 -5.04823 -3.23904 0
M  V30 1232 H 110.725 -5.63887 -3.17239 0
M  V30 1233 N 110.857 0.726932 -1.39834 0
M  V30 1234 C 112.106 1.48214 -1.36805 0
M  V30 1235 C 112.419 1.95576 0.0305291 0
M  V30 1236 O 113.625 2.7088 0.183417 0
M  V30 1237 C 112.081 2.67854 -2.40379 0
M  V30 1238 C 111.689 2.27408 -3.85992 0
M  V30 1239 C 113.433 3.45641 -2.46439 0
M  V30 1240 C 111.34 3.43819 -4.81189 0
M  V30 1241 H 110.27 0.556606 -0.508631 0
M  V30 1242 H 112.921 0.792216 -1.65518 0
M  V30 1243 H 111.303 3.3896 -2.04749 0
M  V30 1244 H 112.477 1.63795 -4.30706 0
M  V30 1245 H 110.792 1.62692 -3.83302 0
M  V30 1246 H 113.389 4.32244 -3.14753 0
M  V30 1247 H 113.732 3.88669 -1.49139 0
M  V30 1248 H 114.265 2.8157 -2.81004 0
M  V30 1249 H 111.004 3.05834 -5.79781 0
M  V30 1250 H 110.524 4.06385 -4.41148 0
M  V30 1251 H 112.203 4.10043 -5.00474 0
M  V30 1252 N 112.336 1.25143 0.95797 0
M  V30 1253 C 113.246 1.06968 2.08794 0
M  V30 1254 C 114.262 0.00773911 1.73998 0
M  V30 1255 O 115.438 0.207972 2.00323 0
M  V30 1256 C 112.503 0.68691 3.39827 0
M  V30 1257 C 111.564 1.82641 3.88511 0
M  V30 1258 C 110.797 1.46181 5.1329 0
M  V30 1259 O 111.02 0.355971 5.69288 0
M  V30 1260 O 109.954 2.29085 5.566 0
M  V30 1261 H 113.78 2.01723 2.27027 0
M  V30 1262 H 111.365 1.04051 1.07209 0
M  V30 1263 H 113.247 0.485417 4.18595 0
M  V30 1264 H 111.922 -0.231417 3.22872 0
M  V30 1265 H 110.829 2.08274 3.10762 0
M  V30 1266 H 112.162 2.72386 4.09959 0
M  V30 1267 N 113.814 -1.1601 1.06675 0
M  V30 1268 C 115.044 -1.90251 0.805497 0
M  V30 1269 C 115.452 -1.77891 -0.64431 0
M  V30 1270 O 114.795 -1.12383 -1.45313 0
M  V30 1271 C 114.857 -3.41419 1.12576 0
M  V30 1272 C 114.521 -3.77564 2.57477 0
M  V30 1273 C 115.518 -3.79161 3.55715 0
M  V30 1274 C 113.203 -4.08079 2.92877 0
M  V30 1275 C 115.197 -4.10767 4.8739 0
M  V30 1276 C 112.884 -4.39351 4.24751 0
M  V30 1277 C 113.882 -4.40675 5.21818 0
M  V30 1278 O 113.57 -4.71202 6.51325 0
M  V30 1279 H 113.302 -0.610018 0.291297 0
M  V30 1280 H 115.856 -1.47958 1.4247 0
M  V30 1281 H 114.086 -3.84079 0.449503 0
M  V30 1282 H 115.775 -3.9694 0.84814 0
M  V30 1283 H 116.541 -3.55693 3.29708 0
M  V30 1284 H 112.42 -4.06211 2.17976 0
M  V30 1285 H 115.964 -4.11715 5.63148 0
M  V30 1286 H 111.861 -4.62285 4.50514 0
M  V30 1287 H 112.629 -4.88996 6.56373 0
M  V30 1288 N 115.292 -0.849877 -1.32721 0
M  V30 1289 C 116.222 -0.306308 -2.31482 0
M  V30 1290 C 117.203 0.591952 -1.59468 0
M  V30 1291 O 118.388 0.513199 -1.87296 0
M  V30 1292 C 115.518 0.510204 -3.43532 0
M  V30 1293 C 114.472 -0.293209 -4.26994 0
M  V30 1294 C 113.798 0.647743 -5.30762 0
M  V30 1295 C 115.098 -1.51634 -4.99804 0
M  V30 1296 H 116.792 -1.13153 -2.77195 0
M  V30 1297 H 114.338 -0.545553 -1.33266 0
M  V30 1298 H 116.291 0.900856 -4.11658 0
M  V30 1299 H 115.015 1.36874 -2.96535 0
M  V30 1300 H 113.674 -0.665555 -3.60508 0
M  V30 1301 H 113.322 1.50299 -4.8002 0
M  V30 1302 H 113.022 0.11422 -5.87489 0
M  V30 1303 H 114.546 1.03567 -6.01753 0
M  V30 1304 H 115.96 -1.19824 -5.60638 0
M  V30 1305 H 114.357 -1.98745 -5.66234 0
M  V30 1306 H 115.427 -2.28018 -4.27943 0
M  V30 1307 N 116.77 1.45427 -0.607355 0
M  V30 1308 C 117.68 2.34325 0.113463 0
M  V30 1309 C 118.696 1.51226 0.860617 0
M  V30 1310 O 119.872 1.84029 0.818255 0
M  V30 1311 C 116.937 3.28839 1.09844 0
M  V30 1312 C 115.998 4.27844 0.353271 0
M  V30 1313 C 115.231 5.17842 1.29133 0
M  V30 1314 O 115.454 5.11264 2.52913 0
M  V30 1315 O 114.388 5.96713 0.788523 0
M  V30 1316 H 118.214 2.97364 -0.617094 0
M  V30 1317 H 115.799 1.44807 -0.367619 0
M  V30 1318 H 117.681 3.8708 1.66575 0
M  V30 1319 H 116.356 2.68365 1.81003 0
M  V30 1320 H 115.263 3.7322 -0.256494 0
M  V30 1321 H 116.596 4.91173 -0.317822 0
M  V30 1322 N 118.248 0.346503 1.53744 0
M  V30 1323 C 119.158 -0.517293 2.28826 0
M  V30 1324 C 120.174 -1.10935 1.3405 0
M  V30 1325 O 121.35 -1.1244 1.6709 0
M  V30 1326 C 118.415 -1.65098 3.04866 0
M  V30 1327 C 117.476 -1.0884 4.15274 0
M  V30 1328 C 116.709 -2.16806 4.87679 0
M  V30 1329 O 116.932 -3.3758 4.59778 0
M  V30 1330 O 115.866 -1.80934 5.74061 0
M  V30 1331 H 119.692 0.0931396 3.03557 0
M  V30 1332 H 117.277 0.111458 1.48984 0
M  V30 1333 H 119.159 -2.31053 3.5241 0
M  V30 1334 H 117.834 -2.24717 2.32989 0
M  V30 1335 H 116.741 -0.3933 3.72027 0
M  V30 1336 H 118.074 -0.537036 4.89261 0
M  V30 1337 N 119.726 -1.57421 0.075193 0
M  V30 1338 C 120.659 -2.08528 -0.926904 0
M  V30 1339 C 121.637 -0.991171 -1.28898 0
M  V30 1340 O 122.821 -1.26479 -1.39769 0
M  V30 1341 C 119.948 -2.54576 -2.23402 0
M  V30 1342 C 118.994 -3.75454 -2.02327 0
M  V30 1343 S 119.827 -5.19989 -1.27951 0
M  V30 1344 C 120.983 -5.69372 -2.59935 0
M  V30 1345 H 121.216 -2.932 -0.492048 0
M  V30 1346 H 118.749 -1.53785 -0.137651 0
M  V30 1347 H 120.707 -2.81767 -2.98526 0
M  V30 1348 H 119.368 -1.70166 -2.64012 0
M  V30 1349 H 118.561 -4.05675 -2.99071 0
M  V30 1350 H 118.163 -3.48654 -1.35339 0
M  V30 1351 H 120.455 -5.76424 -3.56008 0
M  V30 1352 H 121.398 -6.68207 -2.34319 0
M  V30 1353 H 121.806 -4.97205 -2.67296 0
M  V30 1354 N 121.204 0.198386 -1.56346 0
M  V30 1355 C 122.62 0.549085 -1.49857 0
M  V30 1356 C 122.82 1.86016 -0.774611 0
M  V30 1357 O 121.876 2.50416 -0.323776 0
M  V30 1358 C 123.189 0.606868 -2.94512 0
M  V30 1359 C 124.737 0.695925 -3.05165 0
M  V30 1360 C 125.212 0.784848 -4.51225 0
M  V30 1361 N 126.703 0.848463 -4.55363 0
M  V30 1362 C 127.438 0.937378 -5.65686 0
M  V30 1363 N 126.934 0.9888 -6.85707 0
M  V30 1364 N 128.727 0.974312 -5.53592 0
M  V30 1365 H 120.878 -0.661655 -2.01831 0
M  V30 1366 H 123.141 -0.235261 -0.918344 0
M  V30 1367 H 122.847 -0.28732 -3.50524 0
M  V30 1368 H 122.721 1.46268 -3.47686 0
M  V30 1369 H 125.108 1.58055 -2.49204 0
M  V30 1370 H 125.189 -0.186022 -2.55123 0
M  V30 1371 H 124.833 -0.0954072 -5.0781 0
M  V30 1372 H 124.763 1.68255 -4.98997 0
M  V30 1373 H 127.254 0.818103 -3.68938 0
M  V30 1374 H 127.567 1.05707 -7.65536 0
M  V30 1375 H 125.912 0.957534 -6.88372 0
M  V30 1376 H 129.103 0.930954 -4.58749 0
M  V30 1377 H 129.276 1.04015 -6.39597 0
M  V30 1378 N 122.682 1.50554 0.465978 0
M  V30 1379 C 124.093 1.54599 1.04671 0
M  V30 1380 C 124.444 0.352488 1.93008 0
M  V30 1381 O 123.569 -0.534044 2.09707 0
M  V30 1382 C 124.164 2.80166 1.90505 0
M  V30 1383 C 122.723 2.86876 2.43678 0
M  V30 1384 C 121.87 2.48947 1.22151 0
M  V30 1385 H 124.821 1.56744 0.248384 0
M  V30 1386 H 124.842 2.62311 2.75633 0
M  V30 1387 H 124.354 3.67013 1.26186 0
M  V30 1388 H 122.455 2.04393 3.11536 0
M  V30 1389 H 122.568 3.89885 2.78436 0
M  V30 1390 H 120.932 2.01498 1.5579 0
M  V30 1391 H 121.715 3.38107 0.594866 0
M  V30 1392 N 124.16 -0.719506 1.40217 0
M  V30 1393 C 125.388 -1.50864 1.41589 0
M  V30 1394 C 125.803 -1.88794 0.0145275 0
M  V30 1395 O 125.16 -1.55174 -0.960594 0
M  V30 1396 C 125.211 -2.78646 2.30302 0
M  V30 1397 O 124.932 -2.42321 3.64983 0
M  V30 1398 C 126.433 -3.72569 2.40224 0
M  V30 1399 H 123.653 -0.465709 0.48307 0
M  V30 1400 H 126.197 -0.88785 1.84221 0
M  V30 1401 H 124.352 -3.37019 1.91042 0
M  V30 1402 H 124.766 -3.24514 4.12057 0
M  V30 1403 H 126.24 -4.5908 3.06512 0
M  V30 1404 H 126.717 -4.15403 1.42608 0
M  V30 1405 H 127.323 -3.20109 2.80019 0
M  V30 1406 N 125.638 -1.25649 -0.95132 0
M  V30 1407 C 127.049 -1.09654 -1.51106 0
M  V30 1408 C 127.4 0.326615 -1.93462 0
M  V30 1409 O 126.525 1.21697 -1.78938 0
M  V30 1410 C 127.12 -1.98437 -2.74605 0
M  V30 1411 C 125.679 -1.86618 -3.2688 0
M  V30 1412 C 124.826 -1.9239 -1.99703 0
M  V30 1413 H 127.777 -1.38887 -0.767865 0
M  V30 1414 H 127.798 -1.5263 -3.48546 0
M  V30 1415 H 127.31 -3.02009 -2.43746 0
M  V30 1416 H 125.411 -0.859421 -3.62553 0
M  V30 1417 H 125.524 -2.71607 -3.94673 0
M  V30 1418 H 123.888 -1.36317 -2.15151 0
M  V30 1419 H 124.671 -2.97573 -1.71188 0
M  V30 1420 N 127.117 1.15442 -1.07289 0
M  V30 1421 C 128.533 1.38201 -0.798288 0
M  V30 1422 C 128.733 1.92429 0.597769 0
M  V30 1423 O 127.789 2.12962 1.3566 0
M  V30 1424 C 129.102 2.35357 -1.87156 0
M  V30 1425 C 130.65 2.49021 -1.89624 0
M  V30 1426 C 131.125 3.49468 -2.96034 0
M  V30 1427 N 132.616 3.57003 -2.95132 0
M  V30 1428 C 133.351 4.34543 -3.74112 0
M  V30 1429 N 132.847 5.15421 -4.6294 0
M  V30 1430 N 134.64 4.29625 -3.62462 0
M  V30 1431 H 126.791 0.78584 -1.97328 0
M  V30 1432 H 129.054 0.408065 -0.855679 0
M  V30 1433 H 128.76 2.02626 -2.87464 0
M  V30 1434 H 128.634 3.35129 -1.73114 0
M  V30 1435 H 131.021 2.81051 -0.899687 0
M  V30 1436 H 131.102 1.4925 -2.07745 0
M  V30 1437 H 130.746 3.18173 -3.95889 0
M  V30 1438 H 130.676 4.48992 -2.75161 0
M  V30 1439 H 133.167 2.99276 -2.30743 0
M  V30 1440 H 133.48 5.7183 -5.19837 0
M  V30 1441 H 131.825 5.14729 -4.66989 0
M  V30 1442 H 135.016 3.65505 -2.92444 0
M  V30 1443 H 135.189 4.89807 -4.24256 0
M  V30 1444 N 128.595 0.856903 1.32268 0
M  V30 1445 C 129.525 0.31858 2.31316 0
M  V30 1446 C 130.506 -0.583487 1.59779 0
M  V30 1447 O 131.691 -0.503259 1.87566 0
M  V30 1448 C 128.821 -0.491979 3.43798 0
M  V30 1449 C 127.775 0.315849 4.26833 0
M  V30 1450 C 127.101 -0.619586 5.31098 0
M  V30 1451 C 128.401 1.54282 4.98993 0
M  V30 1452 H 130.095 1.14621 2.76591 0
M  V30 1453 H 127.641 0.552613 1.32974 0
M  V30 1454 H 129.594 -0.879012 4.1213 0
M  V30 1455 H 128.318 -1.35299 2.97257 0
M  V30 1456 H 126.977 0.684664 3.6015 0
M  V30 1457 H 126.625 -1.47751 4.8081 0
M  V30 1458 H 126.325 -0.0830621 5.87541 0
M  V30 1459 H 127.849 -1.00375 6.02293 0
M  V30 1460 H 129.263 1.22796 5.59995 0
M  V30 1461 H 127.66 2.01745 5.65172 0
M  V30 1462 H 128.73 2.30285 4.26728 0
M  V30 1463 N 130.073 -1.45103 0.615059 0
M  V30 1464 C 131.003 -2.33339 -0.0865619 0
M  V30 1465 C 131.984 -1.4727 -0.851209 0
M  V30 1466 O 133.169 -1.76026 -0.820281 0
M  V30 1467 C 130.299 -3.30095 -1.07956 0
M  V30 1468 C 129.253 -4.25858 -0.427628 0
M  V30 1469 C 128.579 -5.12361 -1.5294 0
M  V30 1470 C 129.879 -5.18165 0.655944 0
M  V30 1471 H 131.573 -2.92254 0.650224 0
M  V30 1472 H 129.119 -1.40532 0.314138 0
M  V30 1473 H 131.072 -3.90698 -1.57901 0
M  V30 1474 H 129.796 -2.69355 -1.84703 0
M  V30 1475 H 128.455 -3.66564 0.0510292 0
M  V30 1476 H 128.103 -4.47984 -2.28734 0
M  V30 1477 H 127.803 -5.77238 -1.09865 0
M  V30 1478 H 129.327 -5.75833 -2.03098 0
M  V30 1479 H 130.741 -5.72796 0.240257 0
M  V30 1480 H 129.138 -5.91559 1.00888 0
M  V30 1481 H 130.208 -4.60144 1.52957 0
M  V30 1482 N 131.551 -0.354651 -1.53558 0
M  V30 1483 C 132.962 0.126902 -1.86268 0
M  V30 1484 C 133.313 1.49075 -1.27558 0
M  V30 1485 O 132.438 2.08105 -0.5934 0
M  V30 1486 C 133.033 0.237046 -3.3797 0
M  V30 1487 C 131.592 0.662842 -3.70518 0
M  V30 1488 C 130.739 -0.196652 -2.76602 0
M  V30 1489 H 133.69 -0.573849 -1.47962 0
M  V30 1490 H 133.711 1.06259 -3.65362 0
M  V30 1491 H 133.223 -0.755725 -3.80671 0
M  V30 1492 H 131.324 1.66424 -3.33367 0
M  V30 1493 H 131.437 0.445034 -4.77029 0
M  V30 1494 H 129.801 0.332763 -2.52517 0
M  V30 1495 H 130.584 -1.18676 -3.22135 0
M  V30 1496 N 133.029 1.57378 -0.0835403 0
M  V30 1497 C 133.961 2.10389 0.909338 0
M  V30 1498 C 134.974 1.03858 1.25369 0
M  V30 1499 O 136.163 1.31338 1.20882 0
M  V30 1500 C 133.263 2.55908 2.2218 0
M  V30 1501 C 132.436 3.86145 2.05453 0
M  V30 1502 C 131.495 4.17633 3.20108 0
M  V30 1503 O 130.521 4.87043 2.94581 0
M  V30 1504 N 131.723 3.72113 4.45547 0
M  V30 1505 H 134.488 2.962 0.456657 0
M  V30 1506 H 132.049 1.61579 0.101877 0
M  V30 1507 H 134.041 2.74027 2.97811 0
M  V30 1508 H 132.611 1.75171 2.58909 0
M  V30 1509 H 131.831 3.7729 1.1422 0
M  V30 1510 H 133.119 4.7137 1.91541 0
M  V30 1511 H 132.517 3.16062 4.69171 0
M  V30 1512 H 131.074 3.95409 5.18165 0
M  V30 1513 N 134.507 -0.190092 1.56449 0
M  V30 1514 C 135.784 -0.935886 1.71757 0
M  V30 1515 C 136.164 -2.01173 0.639726 0
M  V30 1516 O 135.512 -2.25827 -0.348502 0
M  V30 1517 C 135.722 -1.51775 3.1427 0
M  V30 1518 C 137.07 -1.99794 3.74656 0
M  V30 1519 O 138.094 -1.61607 3.1743 0
M  V30 1520 O 136.953 -2.70079 4.751 0
M  V30 1521 H 134.047 -0.439229 0.700719 0
M  V30 1522 H 136.593 -0.179395 1.68749 0
M  V30 1523 H 135.365 -0.742505 3.84191 0
M  V30 1524 H 134.988 -2.33894 3.21527 0
M  V30 1525 N 135.985 -1.50799 -0.457987 0
M  V30 1526 C 137.396 -1.55152 -1.0385 0
M  V30 1527 C 137.747 -0.362719 -1.92818 0
M  V30 1528 O 136.872 0.522915 -2.09987 0
M  V30 1529 C 137.467 -2.81173 -1.89017 0
M  V30 1530 C 136.026 -2.88164 -2.42154 0
M  V30 1531 C 135.173 -2.49591 -1.20829 0
M  V30 1532 H 138.124 -1.56874 -0.240068 0
M  V30 1533 H 138.145 -2.63769 -2.74238 0
M  V30 1534 H 137.657 -3.67677 -1.24238 0
M  V30 1535 H 135.758 -2.06042 -3.10447 0
M  V30 1536 H 135.871 -3.91356 -2.76364 0
M  V30 1537 H 134.235 -2.02322 -1.54719 0
M  V30 1538 H 135.018 -3.38418 -0.576927 0
M  V30 1539 N 137.463 0.71206 -1.40597 0
M  V30 1540 C 138.41 1.82613 -1.41142 0
M  V30 1541 C 139.38 1.63925 -0.267903 0
M  V30 1542 O 140.565 1.85009 -0.466495 0
M  V30 1543 C 137.705 3.20354 -1.28324 0
M  V30 1544 C 136.818 3.50589 -2.52411 0
M  V30 1545 C 135.953 4.77855 -2.32009 0
M  V30 1546 C 134.992 5.01005 -3.51654 0
M  V30 1547 N 134.129 6.19487 -3.30425 0
M  V30 1548 H 138.969 1.81482 -2.36365 0
M  V30 1549 H 136.506 0.886475 -1.17388 0
M  V30 1550 H 138.464 3.99899 -1.18899 0
M  V30 1551 H 137.094 3.20705 -0.367189 0
M  V30 1552 H 136.146 2.65573 -2.72351 0
M  V30 1553 H 137.458 3.63604 -3.41458 0
M  V30 1554 H 136.612 5.65424 -2.19956 0
M  V30 1555 H 135.351 4.67056 -1.40392 0
M  V30 1556 H 134.356 4.1189 -3.64179 0
M  V30 1557 H 135.581 5.13674 -4.44202 0
M  V30 1558 H 133.527 6.09932 -2.41494 0
M  V30 1559 H 133.444 6.33194 -4.13039 0
M  V30 1560 H 134.712 7.09834 -3.22113 0
M  V30 1561 N 138.941 1.26152 0.944643 0
M  V30 1562 C 139.888 1.07408 2.04285 0
M  V30 1563 C 140.858 -0.0198413 1.66088 0
M  V30 1564 O 142.043 0.139264 1.90291 0
M  V30 1565 C 139.183 0.70945 3.37729 0
M  V30 1566 C 138.296 1.87926 3.88983 0
M  V30 1567 C 137.431 1.45807 5.10797 0
M  V30 1568 C 136.47 2.5964 5.54305 0
M  V30 1569 N 135.607 2.18226 6.67324 0
M  V30 1570 H 140.447 2.01389 2.1965 0
M  V30 1571 H 137.984 1.00275 1.07626 0
M  V30 1572 H 139.942 0.478948 4.14442 0
M  V30 1573 H 138.572 -0.193389 3.2222 0
M  V30 1574 H 137.624 2.22279 3.08701 0
M  V30 1575 H 138.936 2.73377 4.17213 0
M  V30 1576 H 138.09 1.18781 5.94959 0
M  V30 1577 H 136.829 0.574414 4.84305 0
M  V30 1578 H 135.834 2.87399 4.68702 0
M  V30 1579 H 137.059 3.48599 5.828 0
M  V30 1580 H 135.005 1.3229 6.42523 0
M  V30 1581 H 134.922 2.97221 6.95123 0
M  V30 1582 H 136.19 1.94403 7.54869 0
M  V30 1583 N 140.419 -1.14872 1.07899 0
M  V30 1584 C 141.835 -1.37776 0.805606 0
M  V30 1585 C 142.035 -1.92743 -0.587555 0
M  V30 1586 O 141.091 -2.13678 -1.34528 0
M  V30 1587 C 142.404 -2.34361 1.88402 0
M  V30 1588 C 143.952 -2.48012 1.90942 0
M  V30 1589 C 144.427 -3.47893 2.97883 0
M  V30 1590 N 145.918 -3.55433 2.97021 0
M  V30 1591 C 146.653 -4.32553 3.76412 0
M  V30 1592 N 146.149 -5.12959 4.65666 0
M  V30 1593 N 147.942 -4.27697 3.64735 0
M  V30 1594 H 140.093 -0.775365 1.97742 0
M  V30 1595 H 142.356 -0.403521 0.857831 0
M  V30 1596 H 142.062 -2.01098 2.88535 0
M  V30 1597 H 141.936 -3.34206 1.74889 0
M  V30 1598 H 144.323 -2.8057 0.914579 0
M  V30 1599 H 144.404 -1.48147 2.08534 0
M  V30 1600 H 144.048 -3.16069 3.97571 0
M  V30 1601 H 143.978 -4.47527 2.77538 0
M  V30 1602 H 146.469 -2.98048 2.32326 0
M  V30 1603 H 146.782 -5.69065 5.22862 0
M  V30 1604 H 145.127 -5.12245 4.69712 0
M  V30 1605 H 148.318 -3.63949 2.94378 0
M  V30 1606 H 148.491 -4.8755 4.26848 0
M  V30 1607 N 141.898 -0.863906 -1.31812 0
M  V30 1608 C 142.861 -0.320212 -2.26952 0
M  V30 1609 C 143.861 0.525369 -1.51975 0
M  V30 1610 O 145.051 0.335547 -1.70938 0
M  V30 1611 C 142.183 0.545919 -3.365 0
M  V30 1612 H 143.376 -1.16004 -2.76556 0
M  V30 1613 H 140.929 -0.638995 -1.42641 0
M  V30 1614 H 141.664 1.40718 -2.92179 0
M  V30 1615 H 141.449 -0.0594674 -3.92055 0
M  V30 1616 H 142.939 0.918796 -4.07367 0
M  V30 1617 N 143.376 1.44774 -0.622745 0
M  V30 1618 C 144.601 2.06999 -0.128968 0
M  V30 1619 C 145.026 1.4617 1.1839 0
M  V30 1620 O 144.384 0.560007 1.72434 0
M  V30 1621 C 144.432 3.60595 -0.0188351 0
M  V30 1622 O 143.536 3.99398 1.02739 0
M  V30 1623 H 142.877 0.659047 -0.0809544 0
M  V30 1624 H 145.407 1.85784 -0.85705 0
M  V30 1625 H 145.417 4.07627 0.174476 0
M  V30 1626 H 144.092 4.04252 -0.977384 0
M  V30 1627 H 142.669 3.64011 0.809326 0
M  V30 1628 N 144.854 0.36279 1.53368 0
M  V30 1629 C 146.1 -0.228113 2.01513 0
M  V30 1630 C 146.433 -1.48648 1.2497 0
M  V30 1631 O 145.708 -1.91459 0.342616 0
M  V30 1632 C 145.991 -0.522884 3.56284 0
M  V30 1633 C 145.844 0.74892 4.43521 0
M  V30 1634 C 147.163 -1.32461 4.19693 0
M  V30 1635 H 144.282 -0.0814343 0.732487 0
M  V30 1636 H 146.924 0.48713 1.83649 0
M  V30 1637 H 145.074 -1.1322 3.71636 0
M  V30 1638 H 146.746 1.38648 4.39971 0
M  V30 1639 H 144.989 1.36986 4.11603 0
M  V30 1640 H 145.66 0.497667 5.49752 0
M  V30 1641 H 148.136 -0.809203 4.08156 0
M  V30 1642 H 147.012 -1.49961 5.28018 0
M  V30 1643 H 147.273 -2.33232 3.75573 0
M  V30 1644 N 146.332 -1.57332 0.0918853 0
M  V30 1645 C 147.748 -1.57389 -0.264766 0
M  V30 1646 C 147.948 -1.10281 -1.68643 0
M  V30 1647 O 147.004 -0.777801 -2.40222 0
M  V30 1648 C 148.317 -3.00648 -0.0561195 0
M  V30 1649 C 149.865 -3.12754 -0.124116 0
M  V30 1650 C 150.34 -4.57965 0.0564972 0
M  V30 1651 N 151.831 -4.632 0.00155611 0
M  V30 1652 C 152.566 -5.73281 0.116598 0
M  V30 1653 N 152.062 -6.92208 0.286294 0
M  V30 1654 N 153.855 -5.6207 0.0580973 0
M  V30 1655 H 146.006 -1.86262 1.02079 0
M  V30 1656 H 148.269 -0.859579 0.399786 0
M  V30 1657 H 147.975 -3.393 0.925669 0
M  V30 1658 H 147.849 -3.68623 -0.799823 0
M  V30 1659 H 150.236 -2.73976 -1.09641 0
M  V30 1660 H 150.317 -2.47377 0.651024 0
M  V30 1661 H 149.961 -4.97436 1.02564 0
M  V30 1662 H 149.891 -5.21399 -0.738297 0
M  V30 1663 H 152.382 -3.77686 -0.127192 0
M  V30 1664 H 152.695 -7.71934 0.365676 0
M  V30 1665 H 151.04 -6.94254 0.32192 0
M  V30 1666 H 154.231 -4.68043 -0.0733204 0
M  V30 1667 H 154.404 -6.47824 0.151203 0
M  V30 1668 N 147.81 0.181792 -1.56548 0
M  V30 1669 C 148.743 1.25366 -1.90679 0
M  V30 1670 C 149.721 1.43299 -0.768376 0
M  V30 1671 O 150.905 1.58475 -1.02068 0
M  V30 1672 C 148.032 2.61826 -2.1486 0
M  V30 1673 C 147.078 2.60688 -3.37556 0
M  V30 1674 S 147.911 2.10804 -4.92262 0
M  V30 1675 C 149.067 3.49062 -5.19525 0
M  V30 1676 H 149.3 0.962277 -2.81296 0
M  V30 1677 H 146.833 0.385892 -1.495 0
M  V30 1678 H 148.791 3.40371 -2.29473 0
M  V30 1679 H 147.452 2.88169 -1.24969 0
M  V30 1680 H 146.645 3.61058 -3.51643 0
M  V30 1681 H 146.247 1.90232 -3.22006 0
M  V30 1682 H 148.539 4.45003 -5.10861 0
M  V30 1683 H 149.482 3.39859 -6.2121 0
M  V30 1684 H 149.89 3.4459 -4.47122 0
M  V30 1685 N 149.288 1.51039 0.449983 0
M  V30 1686 C 150.537 1.62317 1.19733 0
M  V30 1687 C 150.85 0.339101 1.92638 0
M  V30 1688 O 152.056 0.331069 2.69474 0
M  V30 1689 C 150.512 2.86608 2.17678 0
M  V30 1690 C 150.12 4.21972 1.50479 0
M  V30 1691 C 151.864 3.07239 2.92924 0
M  V30 1692 C 149.771 5.37426 2.46834 0
M  V30 1693 H 148.701 0.604532 0.450619 0
M  V30 1694 H 151.352 1.77494 0.465625 0
M  V30 1695 H 149.734 2.65037 2.94231 0
M  V30 1696 H 150.908 4.53878 0.795716 0
M  V30 1697 H 149.223 4.07117 0.874344 0
M  V30 1698 H 151.82 3.90668 3.65079 0
M  V30 1699 H 152.163 2.19807 3.5354 0
M  V30 1700 H 152.696 3.29091 2.23481 0
M  V30 1701 H 149.435 6.27079 1.90926 0
M  V30 1702 H 148.955 5.09912 3.15832 0
M  V30 1703 H 150.634 5.68862 3.08228 0
M  V30 1704 N 150.766 -0.704594 1.40972 0
M  V30 1705 C 151.991 -1.49858 1.43378 0
M  V30 1706 C 152.416 -1.88061 0.038184 0
M  V30 1707 O 151.774 -1.5402 -0.956425 0
M  V30 1708 C 151.822 -2.74333 2.34038 0
M  V30 1709 O 150.926 -3.7147 1.7912 0
M  V30 1710 H 150.267 -0.45139 0.486974 0
M  V30 1711 H 152.797 -0.866832 1.8533 0
M  V30 1712 H 152.807 -3.22741 2.49604 0
M  V30 1713 H 151.482 -2.45863 3.35446 0
M  V30 1714 H 150.059 -3.30363 1.72958 0
M  V30 1715 N 152.244 -1.26651 -0.937939 0
M  V30 1716 C 153.521 -1.0313 -1.66204 0
M  V30 1717 C 153.901 0.437256 -2.06522 0
M  V30 1718 O 153.249 1.41831 -1.79154 0
M  V30 1719 C 153.459 -1.98314 -2.87181 0
M  V30 1720 C 154.807 -2.27107 -3.58758 0
M  V30 1721 O 155.831 -1.96205 -2.97291 0
M  V30 1722 O 154.69 -2.79736 -4.69479 0
M  V30 1723 H 151.784 -0.392384 -0.727986 0
M  V30 1724 H 154.33 -1.37874 -0.989382 0
M  V30 1725 H 153.102 -2.97399 -2.54302 0
M  V30 1726 H 152.725 -1.64068 -3.6217 0
M  V30 1727 N 153.722 1.14298 -1.08507 0
M  V30 1728 C 154.652 2.21542 -0.737646 0
M  V30 1729 C 155.633 1.67773 0.280377 0
M  V30 1730 O 156.818 1.93616 0.150521 0
M  V30 1731 C 153.948 3.46988 -0.147259 0
M  V30 1732 C 152.902 4.13789 -1.09374 0
M  V30 1733 C 152.228 5.33449 -0.365524 0
M  V30 1734 C 153.528 4.62208 -2.4323 0
M  V30 1735 H 155.222 2.5086 -1.6343 0
M  V30 1736 H 152.768 1.20576 -0.787243 0
M  V30 1737 H 154.721 4.21262 0.107808 0
M  V30 1738 H 153.445 3.17037 0.784538 0
M  V30 1739 H 152.104 3.4147 -1.33393 0
M  V30 1740 H 151.752 4.99759 0.57011 0
M  V30 1741 H 151.452 5.79088 -0.996512 0
M  V30 1742 H 152.976 6.10485 -0.118534 0
M  V30 1743 H 154.39 5.27952 -2.23472 0
M  V30 1744 H 152.787 5.18553 -3.02031 0
M  V30 1745 H 153.857 3.77224 -3.04681 0
M  V30 1746 N 155.201 0.870884 1.31352 0
M  V30 1747 C 156.45 0.478408 1.95944 0
M  V30 1748 C 156.763 -0.974493 1.69597 0
M  V30 1749 O 157.969 -1.47316 2.28058 0
M  V30 1750 C 156.425 0.804609 3.50791 0
M  V30 1751 C 156.033 2.27433 3.85977 0
M  V30 1752 C 157.777 0.480648 4.2177 0
M  V30 1753 C 155.684 2.5429 5.33939 0
M  V30 1754 H 154.614 0.175175 0.733369 0
M  V30 1755 H 157.265 1.06391 1.4951 0
M  V30 1756 H 155.647 0.148347 3.95722 0
M  V30 1757 H 156.821 2.97373 3.52002 0
M  V30 1758 H 155.136 2.56442 3.28065 0
M  V30 1759 H 157.733 0.658519 5.30629 0
M  V30 1760 H 158.076 -0.578979 4.12254 0
M  V30 1761 H 158.609 1.09349 3.82476 0
M  V30 1762 H 155.348 3.58939 5.48491 0
M  V30 1763 H 154.868 1.88945 5.69263 0
M  V30 1764 H 156.547 2.39066 6.01212 0
M  V30 1765 N 156.679 -1.44442 0.630414 0
M  V30 1766 C 157.642 -2.29107 -0.0652523 0
M  V30 1767 C 158.642 -1.41002 -0.772995 0
M  V30 1768 O 159.832 -1.62881 -0.617692 0
M  V30 1769 C 156.964 -3.22564 -1.10296 0
M  V30 1770 H 158.157 -2.92103 0.679401 0
M  V30 1771 H 155.71 -1.51343 0.390517 0
M  V30 1772 H 156.445 -2.64416 -1.87762 0
M  V30 1773 H 156.23 -3.87491 -0.59941 0
M  V30 1774 H 157.72 -3.86167 -1.5895 0
M  V30 1775 N 158.157 -0.370918 -1.53173 0
M  V30 1776 C 159.405 0.216673 -2.00935 0
M  V30 1777 C 159.726 1.48845 -1.25977 0
M  V30 1778 O 158.996 1.92286 -0.374551 0
M  V30 1779 H 157.576 0.0830565 -0.742368 0
M  V30 1780 H 160.238 -0.49838 -1.8842 0
M  V30 1781 H 159.334 0.439893 -3.08984 0
M  V30 1782 N 159.635 1.57281 -0.100228 0
M  V30 1783 C 160.883 1.94153 0.561157 0
M  V30 1784 C 161.204 0.983157 1.68401 0
M  V30 1785 O 160.474 0.0361132 1.95867 0
M  V30 1786 H 159.054 0.716791 0.210283 0
M  V30 1787 H 161.716 1.94202 -0.164765 0
M  V30 1788 H 160.812 2.96709 0.968008 0
M  V30 1789 N 161.113 -0.173488 1.56642 0
M  V30 1790 C 162.362 -0.888758 1.81063 0
M  V30 1791 C 162.675 -1.83506 0.67712 0
M  V30 1792 O 163.881 -2.59254 0.806206 0
M  V30 1793 C 162.337 -1.63091 3.20826 0
M  V30 1794 C 161.945 -0.728357 4.4204 0
M  V30 1795 C 163.689 -2.33454 3.54541 0
M  V30 1796 C 161.596 -1.47062 5.72823 0
M  V30 1797 H 160.526 -0.335618 0.675186 0
M  V30 1798 H 163.177 -0.141712 1.82952 0
M  V30 1799 H 161.559 -2.42263 3.13248 0
M  V30 1800 H 162.733 0.0262449 4.60793 0
M  V30 1801 H 161.048 -0.134492 4.16183 0
M  V30 1802 H 163.645 -2.89578 4.49498 0
M  V30 1803 H 163.988 -3.08687 2.79317 0
M  V30 1804 H 164.521 -1.61227 3.63663 0
M  V30 1805 H 161.26 -0.760658 6.51072 0
M  V30 1806 H 160.78 -2.1986 5.58052 0
M  V30 1807 H 162.459 -2.01868 6.14702 0
M  V30 1808 N 162.591 -1.51276 -0.441967 0
M  V30 1809 C 163.523 -1.68444 -1.55433 0
M  V30 1810 C 164.536 -0.565187 -1.52674 0
M  V30 1811 O 165.725 -0.839356 -1.57534 0
M  V30 1812 C 162.825 -1.67966 -2.94348 0
M  V30 1813 C 161.998 -2.964 -3.21661 0
M  V30 1814 C 161.057 -2.88171 -4.40277 0
M  V30 1815 O 160.083 -3.62119 -4.39157 0
M  V30 1816 N 161.285 -2.03706 -5.43584 0
M  V30 1817 H 164.05 -2.644 -1.41112 0
M  V30 1818 H 161.611 -1.49104 -0.630838 0
M  V30 1819 H 163.603 -1.60035 -3.71713 0
M  V30 1820 H 162.173 -0.796225 -3.0229 0
M  V30 1821 H 161.393 -3.18234 -2.32638 0
M  V30 1822 H 162.681 -3.81427 -3.36736 0
M  V30 1823 H 162.079 -1.42995 -5.47329 0
M  V30 1824 H 160.636 -2.01658 -6.1982 0
M  V30 1825 N 164.069 0.697108 -1.41344 0
M  V30 1826 C 165.48 1.27697 -1.36199 0
M  V30 1827 C 165.831 1.9615 -0.0443463 0
M  V30 1828 O 164.956 1.98689 0.857419 0
M  V30 1829 C 165.551 2.32223 -2.46694 0
M  V30 1830 C 164.11 2.8579 -2.44952 0
M  V30 1831 C 163.257 1.59807 -2.26621 0
M  V30 1832 H 166.208 0.491968 -1.50882 0
M  V30 1833 H 166.229 3.1348 -2.15664 0
M  V30 1834 H 165.741 1.82373 -3.42581 0
M  V30 1835 H 163.842 3.3982 -1.52817 0
M  V30 1836 H 163.955 3.36325 -3.41207 0
M  V30 1837 H 162.319 1.8556 -1.7447 0
M  V30 1838 H 163.102 1.11956 -3.24532 0
M  V30 1839 N 165.547 1.27147 0.931209 0
M  V30 1840 C 166.477 1.12081 2.04842 0
M  V30 1841 C 167.458 0.0232364 1.70084 0
M  V30 1842 O 168.643 0.197085 1.93197 0
M  V30 1843 C 165.773 0.76354 3.38803 0
M  V30 1844 C 164.727 1.81396 3.87659 0
M  V30 1845 C 164.053 1.31075 5.18385 0
M  V30 1846 C 165.353 3.21739 4.11438 0
M  V30 1847 H 167.047 2.05537 2.17703 0
M  V30 1848 H 164.593 0.989603 1.04608 0
M  V30 1849 H 166.546 0.644982 4.16435 0
M  V30 1850 H 165.27 -0.206727 3.25945 0
M  V30 1851 H 163.929 1.92136 3.12217 0
M  V30 1852 H 163.577 0.330037 5.01916 0
M  V30 1853 H 163.277 2.013 5.52044 0
M  V30 1854 H 164.801 1.20506 5.98591 0
M  V30 1855 H 166.215 3.14019 4.79651 0
M  V30 1856 H 164.612 3.89644 4.56397 0
M  V30 1857 H 165.682 3.67054 3.16859 0
M  V30 1858 N 167.025 -1.13721 1.09112 0
M  V30 1859 C 167.957 -2.1871 0.685467 0
M  V30 1860 C 168.97 -1.60527 -0.271068 0
M  V30 1861 O 170.159 -1.78407 -0.0576148 0
M  V30 1862 C 167.259 -3.38898 -0.0111255 0
M  V30 1863 C 166.432 -4.26597 0.966131 0
M  V30 1864 C 165.491 -5.25324 0.303539 0
M  V30 1865 O 164.517 -5.61213 0.950177 0
M  V30 1866 N 165.719 -5.72779 -0.943651 0
M  V30 1867 H 168.484 -2.54126 1.58871 0
M  V30 1868 H 166.045 -1.29012 0.978143 0
M  V30 1869 H 168.037 -4.02014 -0.465517 0
M  V30 1870 H 166.607 -3.01747 -0.816565 0
M  V30 1871 H 165.827 -3.60306 1.59917 0
M  V30 1872 H 167.115 -4.82048 1.6281 0
M  V30 1873 H 166.513 -5.45762 -1.48862 0
M  V30 1874 H 165.07 -6.37847 -1.34142 0
M  V30 1875 N 168.503 -0.877838 -1.30888 0
M  V30 1876 C 169.451 -0.328662 -2.30266 0
M  V30 1877 C 170.445 0.560496 -1.59859 0
M  V30 1878 O 171.651 0.445722 -1.74394 0
M  V30 1879 H 168.026 -0.0876142 -0.746879 0
M  V30 1880 H 169.997 -1.18061 -2.74051 0
M  V30 1881 C 168.746 0.448071 -3.44801 0
M  V30 1882 H 168.069 -0.226859 -3.99156 0
M  V30 1883 H 169.509 0.797541 -4.16432 0
M  V30 1884 C 167.968 1.64239 -2.94155 0
M  V30 1885 O 168.498 2.74175 -2.93583 0
M  V30 1886 N 166.704 1.47716 -2.50256 0
M  V30 1887 H 166.251 0.582821 -2.5092 0
M  V30 1888 H 166.209 2.27765 -2.16727 0
M  V30 1889 N 169.982 1.44106 -0.638065 0
M  V30 1890 C 170.912 2.33448 0.0494287 0
M  V30 1891 C 171.893 1.48606 0.827672 0
M  V30 1892 O 173.078 1.77308 0.792173 0
M  V30 1893 C 170.208 3.31771 1.02691 0
M  V30 1894 C 169.162 4.26485 0.359823 0
M  V30 1895 C 168.488 5.14729 1.44769 0
M  V30 1896 C 169.788 5.17056 -0.738296 0
M  V30 1897 H 171.482 2.91183 -0.696636 0
M  V30 1898 H 169.028 1.40014 -0.336456 0
M  V30 1899 H 170.981 3.93161 1.51666 0
M  V30 1900 H 169.705 2.7226 1.80395 0
M  V30 1901 H 168.364 3.66437 -0.10934 0
M  V30 1902 H 168.012 4.51566 2.21578 0
M  V30 1903 H 167.712 5.78913 1.00668 0
M  V30 1904 H 169.236 5.78991 1.93911 0
M  V30 1905 H 170.65 5.72342 -0.331354 0
M  V30 1906 H 169.047 5.89879 -1.10286 0
M  V30 1907 H 170.117 4.57652 -1.60258 0
M  V30 1908 N 171.46 0.379036 1.52974 0
M  V30 1909 C 172.685 -0.209353 2.06341 0
M  V30 1910 C 173.11 -1.40583 1.24972 0
M  V30 1911 O 172.468 -1.79246 0.272155 0
M  V30 1912 C 172.516 -0.567786 3.56102 0
M  V30 1913 O 171.62 -1.66318 3.77375 0
M  V30 1914 H 170.961 -0.0272919 0.663439 0
M  V30 1915 H 173.491 0.543536 1.97248 0
M  V30 1916 H 173.501 -0.835003 3.99364 0
M  V30 1917 H 172.176 0.307013 4.14765 0
M  V30 1918 H 170.753 -1.39048 3.46006 0
M  V30 1919 N 172.938 -1.57226 0.108567 0
M  V30 1920 C 174.184 -1.95121 -0.552761 0
M  V30 1921 C 174.517 -0.991345 -1.66991 0
M  V30 1922 O 173.792 -0.0267211 -1.94482 0
M  V30 1923 C 174.075 -3.43039 -1.09528 0
M  V30 1924 C 173.928 -4.49797 0.0177332 0
M  V30 1925 C 175.247 -3.92567 -1.98945 0
M  V30 1926 H 172.366 -0.709496 -0.199461 0
M  V30 1927 H 175.008 -1.89126 0.182011 0
M  V30 1928 H 173.158 -3.48279 -1.72146 0
M  V30 1929 H 174.83 -4.56661 0.652584 0
M  V30 1930 H 173.073 -4.284 0.682309 0
M  V30 1931 H 173.744 -5.50528 -0.402919 0
M  V30 1932 H 176.22 -3.89565 -1.46214 0
M  V30 1933 H 175.096 -4.96605 -2.33827 0
M  V30 1934 H 175.357 -3.32648 -2.91201 0
M  V30 1935 N 174.416 0.165178 -1.56732 0
M  V30 1936 C 175.346 1.20651 -1.99914 0
M  V30 1937 C 176.327 1.45827 -0.875705 0
M  V30 1938 O 177.512 1.57057 -1.14223 0
M  V30 1939 C 174.642 2.54401 -2.36427 0
M  V30 1940 C 173.596 2.43782 -3.51787 0
M  V30 1941 C 172.922 3.82078 -3.7406 0
M  V30 1942 C 174.222 1.93732 -4.85041 0
M  V30 1943 H 175.916 0.847534 -2.87154 0
M  V30 1944 H 173.462 0.40625 -1.38151 0
M  V30 1945 H 175.415 3.27458 -2.65234 0
M  V30 1946 H 174.139 2.92098 -1.46103 0
M  V30 1947 H 172.798 1.73178 -3.23117 0
M  V30 1948 H 172.446 4.17179 -2.81017 0
M  V30 1949 H 172.146 3.7584 -4.51684 0
M  V30 1950 H 173.67 4.56712 -4.05274 0
M  V30 1951 H 175.084 2.56569 -5.12684 0
M  V30 1952 H 173.481 1.98428 -5.66345 0
M  V30 1953 H 174.551 0.891962 -4.76626 0
M  V30 1954 N 175.894 1.51508 0.433938 0
M  V30 1955 C 176.841 1.73068 1.52696 0
M  V30 1956 C 177.811 0.572441 1.55924 0
M  V30 1957 O 178.996 0.807253 1.72882 0
M  V30 1958 C 176.136 1.86474 2.90381 0
M  V30 1959 C 175.249 3.14037 2.96656 0
M  V30 1960 C 174.384 3.18019 4.25485 0
M  V30 1961 C 173.423 4.39882 4.2564 0
M  V30 1962 N 172.56 4.41394 5.45999 0
M  V30 1963 H 177.4 2.66366 1.33615 0
M  V30 1964 H 174.937 1.32008 0.649018 0
M  V30 1965 H 176.895 1.92229 3.70275 0
M  V30 1966 H 175.525 0.965809 3.08013 0
M  V30 1967 H 174.577 3.17575 2.09404 0
M  V30 1968 H 175.889 4.0394 2.92633 0
M  V30 1969 H 175.043 3.22708 5.13755 0
M  V30 1970 H 173.782 2.2601 4.3217 0
M  V30 1971 H 172.787 4.35366 3.35763 0
M  V30 1972 H 174.012 5.33159 4.20617 0
M  V30 1973 H 171.958 3.52258 5.53399 0
M  V30 1974 H 171.875 5.25111 5.4387 0
M  V30 1975 H 173.143 4.50281 6.36292 0
M  V30 1976 N 177.372 -0.689602 1.41712 0
M  V30 1977 C 178.304 -1.815 1.39966 0
M  V30 1978 C 179.317 -1.59995 0.300917 0
M  V30 1979 O 180.506 -1.69387 0.563039 0
M  V30 1980 C 177.606 -3.18364 1.16179 0
M  V30 1981 C 176.779 -3.66847 2.38206 0
M  V30 1982 C 175.838 -4.82398 2.10186 0
M  V30 1983 O 174.864 -4.93706 2.83272 0
M  V30 1984 N 176.066 -5.70064 1.0958 0
M  V30 1985 H 178.831 -1.83488 2.36965 0
M  V30 1986 H 176.392 -0.872149 1.36401 0
M  V30 1987 H 178.384 -3.93301 0.953756 0
M  V30 1988 H 176.954 -3.11365 0.27756 0
M  V30 1989 H 176.174 -2.82751 2.74673 0
M  V30 1990 H 177.462 -3.95978 3.19498 0
M  V30 1991 H 176.86 -5.63565 0.491019 0
M  V30 1992 H 175.417 -6.44874 0.947656 0
M  V30 1993 N 178.85 -1.27639 -0.924453 0
M  V30 1994 C 180.096 -1.14336 -1.67497 0
M  V30 1995 C 180.429 0.309465 -1.91718 0
M  V30 1996 O 179.704 1.22608 -1.50989 0
M  V30 1997 C 179.987 -1.93096 -3.0395 0
M  V30 1998 C 179.84 -3.46381 -2.8695 0
M  V30 1999 C 181.159 -1.73798 -4.0433 0
M  V30 2000 H 178.278 -0.416728 -0.607871 0
M  V30 2001 H 180.92 -1.56832 -1.07256 0
M  V30 2002 H 179.07 -1.56982 -3.55372 0
M  V30 2003 H 180.742 -3.92343 -2.42621 0
M  V30 2004 H 178.985 -3.72557 -2.22225 0
M  V30 2005 H 179.656 -3.96735 -3.83804 0
M  V30 2006 H 182.132 -2.05293 -3.61931 0
M  V30 2007 H 181.008 -2.31294 -4.97789 0
M  V30 2008 H 181.269 -0.686725 -4.36734 0
M  V30 2009 N 180.328 1.1314 -1.09713 0
M  V30 2010 C 181.576 1.84119 -0.833338 0
M  V30 2011 C 181.897 1.84097 0.642904 0
M  V30 2012 O 181.167 1.29881 1.46655 0
M  V30 2013 H 179.747 0.681766 -0.305293 0
M  V30 2014 H 182.409 1.37038 -1.38588 0
M  V30 2015 H 181.505 2.88543 -1.18951 0
M  V30 2016 N 181.806 0.884767 1.30421 0
M  V30 2017 C 182.716 0.355398 2.31892 0
M  V30 2018 C 183.732 -0.542261 1.65335 0
M  V30 2019 O 184.908 -0.435432 1.96637 0
M  V30 2020 C 181.973 -0.421661 3.44126 0
M  V30 2021 C 181.034 0.505727 4.26311 0
M  V30 2022 C 180.267 -0.234343 5.33185 0
M  V30 2023 O 180.49 -1.46045 5.51386 0
M  V30 2024 O 179.424 0.415443 6.00465 0
M  V30 2025 H 183.25 1.19685 2.79122 0
M  V30 2026 H 180.835 0.648596 1.34587 0
M  V30 2027 H 182.717 -0.861641 4.12497 0
M  V30 2028 H 181.392 -1.23942 2.99032 0
M  V30 2029 H 180.299 0.994513 3.60639 0
M  V30 2030 H 181.632 1.28948 4.75009 0
M  V30 2031 N 183.284 -1.43765 0.645699 0
M  V30 2032 C 184.194 -2.34544 -0.0512957 0
M  V30 2033 C 185.21 -1.53455 -0.82022 0
M  V30 2034 O 186.386 -1.86133 -0.769176 0
M  V30 2035 C 183.451 -3.31636 -1.01087 0
M  V30 2036 C 182.512 -4.2863 -0.239712 0
M  V30 2037 C 181.745 -5.21084 -1.15358 0
M  V30 2038 O 181.968 -5.1779 -2.39269 0
M  V30 2039 O 180.902 -5.98593 -0.630038 0
M  V30 2040 H 184.728 -2.95624 0.695718 0
M  V30 2041 H 182.313 -1.43781 0.405882 0
M  V30 2042 H 184.195 -3.9136 -1.56254 0
M  V30 2043 H 182.87 -2.73069 -1.73824 0
M  V30 2044 H 181.777 -3.72408 0.355356 0
M  V30 2045 H 183.11 -4.90157 0.447936 0
M  V30 2046 N 184.763 -0.387143 -1.52771 0
M  V30 2047 C 185.696 0.493123 -2.22808 0
M  V30 2048 C 186.674 1.0658 -1.22798 0
M  V30 2049 O 187.858 1.11785 -1.51777 0
M  V30 2050 C 184.985 1.68238 -2.93962 0
M  V30 2051 C 184.031 1.23515 -4.08223 0
M  V30 2052 S 184.864 0.21848 -5.35054 0
M  V30 2053 C 186.02 1.41357 -6.09729 0
M  V30 2054 H 186.253 -0.101625 -2.97126 0
M  V30 2055 H 183.786 -0.171323 -1.53447 0
M  V30 2056 H 185.744 2.36443 -3.35567 0
M  V30 2057 H 184.405 2.24842 -2.19328 0
M  V30 2058 H 183.598 2.12304 -4.57103 0
M  V30 2059 H 183.2 0.632044 -3.68621 0
M  V30 2060 H 185.492 2.34101 -6.3577 0
M  V30 2061 H 186.435 0.965736 -7.01484 0
M  V30 2062 H 186.843 1.6294 -5.40473 0
M  V30 2063 N 186.241 1.57166 -0.116904 0
M  V30 2064 C 187.173 2.12271 0.864507 0
M  V30 2065 C 188.186 1.06494 1.23138 0
M  V30 2066 O 189.375 1.33873 1.18069 0
M  V30 2067 C 186.475 2.60564 2.16702 0
M  V30 2068 C 185.648 3.90416 1.97216 0
M  V30 2069 C 184.707 4.24329 3.11178 0
M  V30 2070 O 183.733 4.93182 2.84184 0
M  V30 2071 N 184.935 3.8148 4.37554 0
M  V30 2072 H 187.7 2.97102 0.393726 0
M  V30 2073 H 185.261 1.61759 0.0675805 0
M  V30 2074 H 187.253 2.80282 2.91932 0
M  V30 2075 H 185.823 1.80623 2.55135 0
M  V30 2076 H 185.043 3.79627 1.06192 0
M  V30 2077 H 186.331 4.75327 1.81499 0
M  V30 2078 H 185.729 3.25943 4.62361 0
M  V30 2079 H 184.286 4.06311 5.09661 0
M  V30 2080 N 187.719 -0.156864 1.56817 0
M  V30 2081 C 188.649 -1.19589 2.00551 0
M  V30 2082 C 189.63 -1.4536 0.883426 0
M  V30 2083 O 190.815 -1.56449 1.15054 0
M  V30 2084 C 187.945 -2.53143 2.37773 0
M  V30 2085 C 186.899 -2.41913 3.53075 0
M  V30 2086 C 186.225 -3.80088 3.76081 0
M  V30 2087 C 187.525 -1.91157 4.86062 0
M  V30 2088 H 189.219 -0.832293 2.87599 0
M  V30 2089 H 186.765 -0.398918 1.38364 0
M  V30 2090 H 188.718 -3.26047 2.66967 0
M  V30 2091 H 187.442 -2.91319 1.4765 0
M  V30 2092 H 186.101 -1.71462 3.24031 0
M  V30 2093 H 185.749 -4.15683 2.83225 0
M  V30 2094 H 185.449 -3.73439 4.53671 0
M  V30 2095 H 186.973 -4.54556 4.0769 0
M  V30 2096 H 188.387 -2.53846 5.14038 0
M  V30 2097 H 186.784 -1.95422 5.67389 0
M  V30 2098 H 187.854 -0.866673 4.77092 0
M  V30 2099 N 189.197 -1.51736 -0.425897 0
M  V30 2100 C 190.425 -1.68794 -1.1965 0
M  V30 2101 C 190.84 -0.390164 -1.84725 0
M  V30 2102 O 190.197 0.632376 -1.71194 0
M  V30 2103 C 190.248 -2.81174 -2.27208 0
M  V30 2104 O 189.969 -4.05925 -1.64793 0
M  V30 2105 C 191.47 -3.09599 -3.17275 0
M  V30 2106 H 188.69 -0.566128 -0.360194 0
M  V30 2107 H 191.234 -1.98211 -0.503249 0
M  V30 2108 H 189.389 -2.54324 -2.9223 0
M  V30 2109 H 189.803 -4.68423 -2.35967 0
M  V30 2110 H 191.277 -3.91786 -3.88854 0
M  V30 2111 H 191.754 -2.22468 -3.78688 0
M  V30 2112 H 192.36 -3.38151 -2.57941 0
M  V30 2113 N 190.675 0.682077 -1.42076 0
M  V30 2114 C 191.921 1.44283 -1.43366 0
M  V30 2115 C 192.276 1.92344 -0.0465775 0
M  V30 2116 O 191.569 1.67517 0.929973 0
M  V30 2117 C 191.763 2.66036 -2.38662 0
M  V30 2118 C 191.592 2.29889 -3.86499 0
M  V30 2119 C 190.362 2.19599 -4.55087 0
M  V30 2120 C 192.56 1.91999 -4.77117 0
M  V30 2121 N 190.542 1.76478 -5.87987 0
M  V30 2122 C 191.913 1.59741 -5.99068 0
M  V30 2123 C 193.968 1.78927 -4.64639 0
M  V30 2124 C 192.671 1.15723 -7.0993 0
M  V30 2125 C 194.697 1.36314 -5.75476 0
M  V30 2126 C 194.059 1.04975 -6.96534 0
M  V30 2127 H 190.158 0.524739 -0.579805 0
M  V30 2128 H 192.742 0.787834 -1.78048 0
M  V30 2129 H 190.913 3.29237 -2.06053 0
M  V30 2130 H 192.645 3.32588 -2.30581 0
M  V30 2131 H 189.4 2.38433 -4.09202 0
M  V30 2132 H 189.824 1.57362 -6.58458 0
M  V30 2133 H 194.466 2.01805 -3.7153 0
M  V30 2134 H 192.184 0.91591 -8.02893 0
M  V30 2135 H 195.77 1.26731 -5.6783 0
M  V30 2136 H 194.65 0.725017 -7.80841 0
M  V30 2137 N 192.153 1.28127 0.917671 0
M  V30 2138 C 193.116 1.11744 2.00115 0
M  V30 2139 C 194.116 0.0583052 1.60694 0
M  V30 2140 O 195.306 0.303755 1.71531 0
M  V30 2141 C 192.438 0.704862 3.33533 0
M  V30 2142 H 193.631 2.07966 2.16079 0
M  V30 2143 H 191.184 1.11058 1.09981 0
M  V30 2144 H 191.919 -0.258299 3.2327 0
M  V30 2145 H 191.704 1.4699 3.63505 0
M  V30 2146 H 193.194 0.612768 4.1308 0
M  V30 2147 N 193.631 -1.12557 1.10312 0
M  V30 2148 C 194.563 -2.17971 0.708625 0
M  V30 2149 C 195.576 -1.60806 -0.254027 0
M  V30 2150 O 196.765 -1.78458 -0.0386891 0
M  V30 2151 C 193.865 -3.38891 0.0248198 0
M  V30 2152 C 193.038 -4.25548 1.01132 0
M  V30 2153 C 192.097 -5.24972 0.35924 0
M  V30 2154 O 191.123 -5.60174 1.00965 0
M  V30 2155 N 192.325 -5.73747 -0.882847 0
M  V30 2156 H 195.09 -2.52427 1.61557 0
M  V30 2157 H 192.651 -1.27967 0.991771 0
M  V30 2158 H 194.643 -4.02485 -0.422852 0
M  V30 2159 H 193.213 -3.02596 -0.784514 0
M  V30 2160 H 192.433 -3.58589 1.6373 0
M  V30 2161 H 193.721 -4.80294 1.67914 0
M  V30 2162 H 193.119 -5.4731 -1.43065 0
M  V30 2163 H 191.676 -6.39234 -1.27369 0
M  V30 2164 N 195.109 -0.891671 -1.2995 0
M  V30 2165 C 196.057 -0.353066 -2.29905 0
M  V30 2166 C 197.051 0.543509 -1.60444 0
M  V30 2167 O 198.257 0.4272 -1.74857 0
M  V30 2168 H 194.632 -0.095531 -0.745907 0
M  V30 2169 H 196.603 -1.20961 -2.72784 0
M  V30 2170 C 195.352 0.411475 -3.45257 0
M  V30 2171 H 194.675 -0.269182 -3.98893 0
M  V30 2172 H 196.115 0.753328 -4.17254 0
M  V30 2173 C 194.574 1.6111 -2.9588 0
M  V30 2174 O 195.104 2.71045 -2.96475 0
M  V30 2175 N 193.31 1.45054 -2.51809 0
M  V30 2176 H 192.857 0.556175 -2.51524 0
M  V30 2177 H 192.815 2.25453 -2.1913 0
M  V30 2178 N 196.587 1.43421 -0.653314 0
M  V30 2179 C 197.55 2.29182 0.0287951 0
M  V30 2180 C 198.55 1.42213 0.750465 0
M  V30 2181 O 199.74 1.63843 0.591701 0
M  V30 2182 C 196.872 3.24278 1.05151 0
M  V30 2183 H 198.065 2.90985 -0.725786 0
M  V30 2184 H 195.618 1.50702 -0.414545 0
M  V30 2185 H 196.353 2.6737 1.83532 0
M  V30 2186 H 196.138 3.88396 0.537687 0
M  V30 2187 H 197.628 3.88647 1.52786 0
M  V30 2188 N 198.065 0.39524 1.52563 0
M  V30 2189 C 199.314 -0.186321 2.00838 0
M  V30 2190 C 199.627 -1.47402 1.28577 0
M  V30 2191 O 200.833 -2.13599 1.67593 0
M  V30 2192 C 199.289 -0.382595 3.57861 0
M  V30 2193 C 198.897 0.892202 4.39026 0
M  V30 2194 C 200.641 -0.9202 4.14406 0
M  V30 2195 C 198.548 0.66388 5.87662 0
M  V30 2196 H 197.478 -0.0734041 0.750418 0
M  V30 2197 H 200.129 0.518552 1.76021 0
M  V30 2198 H 198.511 -1.14946 3.7895 0
M  V30 2199 H 199.685 1.66414 4.29701 0
M  V30 2200 H 198 1.35519 3.9373 0
M  V30 2201 H 200.597 -1.10683 5.23119 0
M  V30 2202 H 200.94 -1.89096 3.70875 0
M  V30 2203 H 201.473 -0.212751 3.97231 0
M  V30 2204 H 198.212 1.6058 6.35527 0
M  V30 2205 H 197.732 -0.0690193 5.9976 0
M  V30 2206 H 199.411 0.300699 6.46301 0
M  V30 2207 N 199.544 -1.57102 0.125237 0
M  V30 2208 C 200.772 -1.99761 -0.538797 0
M  V30 2209 C 201.187 -1.00503 -1.59827 0
M  V30 2210 O 200.544 0.00119474 -1.825 0
M  V30 2211 C 200.595 -3.42408 -1.15927 0
M  V30 2212 O 200.316 -4.37869 -0.142143 0
M  V30 2213 C 201.817 -4.00232 -1.90602 0
M  V30 2214 H 199.037 -0.655772 -0.14214 0
M  V30 2215 H 201.581 -2.03383 0.213413 0
M  V30 2216 H 199.736 -3.39706 -1.86223 0
M  V30 2217 H 200.15 -5.21128 -0.593775 0
M  V30 2218 H 201.624 -5.02105 -2.29335 0
M  V30 2219 H 202.101 -3.39721 -2.78363 0
M  V30 2220 H 202.707 -4.06499 -1.25055 0
M  V30 2221 N 201.022 0.148545 -1.56898 0
M  V30 2222 C 202.262 0.86765 -1.85071 0
M  V30 2223 C 202.626 1.78417 -0.709317 0
M  V30 2224 O 203.827 2.54261 -0.872049 0
M  V30 2225 C 202.098 1.62306 -3.1842 0
M  V30 2226 S 203.657 2.3878 -3.68143 0
M  V30 2227 H 200.475 0.290174 -0.649092 0
M  V30 2228 H 203.077 0.127755 -1.95082 0
M  V30 2229 H 201.781 0.941192 -3.99462 0
M  V30 2230 H 201.312 2.4039 -3.1141 0
M  V30 2231 H 203.327 3.63942 -3.37285 0
M  V30 2232 N 202.5 1.5196 0.417844 0
M  V30 2233 C 203.748 1.65263 1.16329 0
M  V30 2234 C 204.069 0.380634 1.91249 0
M  V30 2235 O 203.339 -0.604214 1.86349 0
M  V30 2236 H 201.919 0.60912 0.432414 0
M  V30 2237 H 204.581 1.88969 0.477162 0
M  V30 2238 H 203.677 2.4896 1.88217 0
M  V30 2239 N 203.978 -0.674533 1.42435 0
M  V30 2240 C 205.225 -1.43459 1.42919 0
M  V30 2241 C 205.553 -1.94446 0.0457312 0
M  V30 2242 O 204.808 -1.7132 -0.94593 0
M  V30 2243 C 205.107 -2.64767 2.40069 0
M  V30 2244 C 204.773 -2.3232 3.86443 0
M  V30 2245 C 203.435 -2.23182 4.26314 0
M  V30 2246 C 205.787 -2.05977 4.78773 0
M  V30 2247 C 203.115 -1.85827 5.56494 0
M  V30 2248 C 205.467 -1.70125 6.09295 0
M  V30 2249 C 204.131 -1.59498 6.48164 0
M  V30 2250 H 203.401 -0.524952 0.522978 0
M  V30 2251 H 206.048 -0.769097 1.75377 0
M  V30 2252 H 204.353 -3.36349 2.00939 0
M  V30 2253 H 206.05 -3.22949 2.37707 0
M  V30 2254 H 202.64 -2.40334 3.54877 0
M  V30 2255 H 206.824 -2.11969 4.48757 0
M  V30 2256 H 202.08 -1.76168 5.8547 0
M  V30 2257 H 206.254 -1.48767 6.80324 0
M  V30 2258 H 203.881 -1.30322 7.48946 0
M  V30 2259 N 205.456 -1.28612 -0.910864 0
M  V30 2260 C 206.404 -1.1265 -2.03501 0
M  V30 2261 C 207.398 -0.0450054 -1.6934 0
M  V30 2262 O 208.604 -0.203988 -1.7884 0
M  V30 2263 H 204.979 -0.347639 -0.666822 0
M  V30 2264 H 206.95 -2.07849 -2.14106 0
M  V30 2265 C 205.699 -0.808143 -3.38178 0
M  V30 2266 H 205.022 -1.63231 -3.6496 0
M  V30 2267 H 206.462 -0.736426 -4.17556 0
M  V30 2268 C 204.921 0.488226 -3.33344 0
M  V30 2269 O 205.451 1.51766 -3.71927 0
M  V30 2270 N 203.657 0.490009 -2.86439 0
M  V30 2271 H 203.204 -0.348161 -2.55236 0
M  V30 2272 H 203.162 1.35741 -2.83587 0
M  V30 2273 N 206.934 1.1197 -1.10907 0
M  V30 2274 C 207.897 2.16031 -0.765707 0
M  V30 2275 C 208.897 1.59393 0.212235 0
M  V30 2276 O 210.087 1.74196 -0.0115441 0
M  V30 2277 C 207.219 3.40632 -0.135053 0
M  V30 2278 H 208.412 2.47919 -1.68748 0
M  V30 2279 H 205.965 1.27061 -0.910226 0
M  V30 2280 H 206.7 3.14348 0.797218 0
M  V30 2281 H 206.485 3.8302 -0.838937 0
M  V30 2282 H 207.975 4.17505 0.0892469 0
M  V30 2283 N 208.412 0.89855 1.29475 0
M  V30 2284 C 209.342 0.39201 2.30186 0
M  V30 2285 C 210.323 -0.532359 1.61555 0
M  V30 2286 O 211.508 -0.443331 1.89072 0
M  V30 2287 C 208.638 -0.382353 3.45189 0
M  V30 2288 C 207.592 0.451483 4.25612 0
M  V30 2289 C 206.918 -0.450307 5.328 0
M  V30 2290 C 208.218 1.70079 4.93832 0
M  V30 2291 H 209.912 1.23362 2.72804 0
M  V30 2292 H 207.458 0.594638 1.31149 0
M  V30 2293 H 209.411 -0.747451 4.14718 0
M  V30 2294 H 208.135 -1.25774 3.01411 0
M  V30 2295 H 206.794 0.798897 3.57789 0
M  V30 2296 H 206.442 -1.32379 4.85268 0
M  V30 2297 H 206.142 0.103902 5.87508 0
M  V30 2298 H 207.666 -0.811623 6.05182 0
M  V30 2299 H 209.08 1.40549 5.55805 0
M  V30 2300 H 207.477 2.19623 5.58467 0
M  V30 2301 H 208.547 2.43744 4.19186 0
M  V30 2302 N 209.89 -1.43072 0.660911 0
M  V30 2303 C 210.8 -2.34585 -0.0264163 0
M  V30 2304 C 211.816 -1.54316 -0.803898 0
M  V30 2305 O 212.992 -1.86939 -0.749391 0
M  V30 2306 C 210.057 -3.32689 -0.975639 0
M  V30 2307 C 209.118 -4.2886 -0.194236 0
M  V30 2308 C 208.351 -5.22278 -1.09825 0
M  V30 2309 O 208.574 -5.20299 -2.33763 0
M  V30 2310 O 207.508 -5.99228 -0.566513 0
M  V30 2311 H 211.334 -2.94869 0.727034 0
M  V30 2312 H 208.919 -1.43342 0.42111 0
M  V30 2313 H 210.801 -3.92995 -1.52094 0
M  V30 2314 H 209.476 -2.74898 -1.70918 0
M  V30 2315 H 208.383 -3.72011 0.394835 0
M  V30 2316 H 209.716 -4.89655 0.499899 0
M  V30 2317 N 211.368 -0.403325 -1.52352 0
M  V30 2318 C 212.3 0.4603 -2.2453 0
M  V30 2319 C 213.313 1.01505 -1.27282 0
M  V30 2320 O 214.502 0.914982 -1.53266 0
M  V30 2321 C 211.602 1.65208 -2.95905 0
M  V30 2322 C 210.775 1.22224 -4.19976 0
M  V30 2323 C 209.834 2.28028 -4.74226 0
M  V30 2324 O 208.86 1.88857 -5.36956 0
M  V30 2325 N 210.062 3.6012 -4.55295 0
M  V30 2326 H 212.827 -0.158156 -2.99282 0
M  V30 2327 H 210.388 -0.230402 -1.60252 0
M  V30 2328 H 212.38 2.35541 -3.29093 0
M  V30 2329 H 210.95 2.17658 -2.24374 0
M  V30 2330 H 210.17 0.34725 -3.92668 0
M  V30 2331 H 211.458 0.911924 -5.00561 0
M  V30 2332 H 210.856 3.94698 -4.05253 0
M  V30 2333 H 209.413 4.26447 -4.92936 0
M  V30 2334 N 212.846 1.57033 -0.133567 0
M  V30 2335 C 214.095 1.94861 0.520768 0
M  V30 2336 C 214.408 1.02012 1.66892 0
M  V30 2337 O 215.614 1.29365 2.38699 0
M  V30 2338 C 214.07 3.46362 0.977809 0
M  V30 2339 C 213.678 4.47773 -0.142674 0
M  V30 2340 C 215.422 3.93083 1.60269 0
M  V30 2341 C 213.329 5.90468 0.331883 0
M  V30 2342 H 212.259 0.727453 0.198315 0
M  V30 2343 H 214.91 1.82227 -0.215759 0
M  V30 2344 H 213.292 3.54282 1.7692 0
M  V30 2345 H 214.466 4.51536 -0.919317 0
M  V30 2346 H 212.781 4.10891 -0.675124 0
M  V30 2347 H 215.378 4.97121 1.96914 0
M  V30 2348 H 215.721 3.33876 2.48662 0
M  V30 2349 H 216.254 3.88025 0.876453 0
M  V30 2350 H 212.993 6.53463 -0.516341 0
M  V30 2351 H 212.513 5.90094 1.07469 0
M  V30 2352 H 214.192 6.42179 0.788332 0
M  V30 2353 N 214.325 -0.140222 1.56975 0
M  V30 2354 C 215.255 -1.17456 2.01808 0
M  V30 2355 C 216.236 -1.44415 0.898794 0
M  V30 2356 O 217.421 -1.5522 1.16707 0
M  V30 2357 C 214.551 -2.50607 2.40444 0
M  V30 2358 C 213.505 -2.38155 3.55621 0
M  V30 2359 C 212.831 -3.76078 3.80091 0
M  V30 2360 C 214.131 -1.85991 4.88062 0
M  V30 2361 H 215.825 -0.801743 2.88466 0
M  V30 2362 H 213.371 -0.38422 1.38779 0
M  V30 2363 H 215.324 -3.23197 2.7041 0
M  V30 2364 H 214.048 -2.89737 1.50732 0
M  V30 2365 H 212.707 -1.68016 3.25832 0
M  V30 2366 H 212.355 -4.12656 2.87618 0
M  V30 2367 H 212.055 -3.68606 4.57606 0
M  V30 2368 H 213.579 -4.50206 4.12488 0
M  V30 2369 H 214.993 -2.4838 5.16701 0
M  V30 2370 H 213.39 -1.89393 5.6943 0
M  V30 2371 H 214.46 -0.816023 4.77984 0
M  V30 2372 N 215.803 -1.52179 -0.40978 0
M  V30 2373 C 216.735 -1.71703 -1.51825 0
M  V30 2374 C 217.748 -0.597445 -1.51441 0
M  V30 2375 O 218.937 -0.872582 -1.55719 0
M  V30 2376 C 216.037 -1.74171 -2.90719 0
M  V30 2377 C 215.21 -3.03156 -3.15302 0
M  V30 2378 C 214.269 -2.97445 -4.34065 0
M  V30 2379 O 213.295 -3.71352 -4.31377 0
M  V30 2380 N 214.497 -2.15191 -5.39141 0
M  V30 2381 H 217.262 -2.67334 -1.35472 0
M  V30 2382 H 214.823 -1.50409 -0.599069 0
M  V30 2383 H 216.815 -1.67884 -3.68235 0
M  V30 2384 H 215.385 -0.860166 -3.00533 0
M  V30 2385 H 214.605 -3.23097 -2.25836 0
M  V30 2386 H 215.893 -3.88484 -3.28569 0
M  V30 2387 H 215.291 -1.54573 -5.44173 0
M  V30 2388 H 213.848 -2.1476 -6.15403 0
M  V30 2389 N 217.281 0.66697 -1.42791 0
M  V30 2390 C 218.506 1.46004 -1.47301 0
M  V30 2391 C 218.931 1.87894 -0.0880317 0
M  V30 2392 O 218.289 1.56502 0.915253 0
M  V30 2393 C 218.337 2.68031 -2.41229 0
M  V30 2394 O 217.441 3.6659 -1.88906 0
M  V30 2395 H 216.782 0.43832 -0.49877 0
M  V30 2396 H 219.312 0.817391 -1.87563 0
M  V30 2397 H 219.322 3.1601 -2.58073 0
M  V30 2398 H 217.997 2.36883 -3.41847 0
M  V30 2399 H 216.574 3.25661 -1.81656 0
M  V30 2400 N 218.759 1.29093 0.90403 0
M  V30 2401 C 219.987 1.19689 1.68766 0
M  V30 2402 C 220.402 -0.243113 1.87228 0
M  V30 2403 O 219.759 -1.16326 1.40621 0
M  V30 2404 C 219.81 1.90144 3.07453 0
M  V30 2405 O 219.531 3.2852 2.89838 0
M  V30 2406 C 221.032 1.87162 4.01852 0
M  V30 2407 H 218.252 0.415035 0.527244 0
M  V30 2408 H 220.796 1.7039 1.13082 0
M  V30 2409 H 218.951 1.43289 3.59926 0
M  V30 2410 H 219.365 3.63944 3.77684 0
M  V30 2411 H 220.839 2.41032 4.96596 0
M  V30 2412 H 221.316 0.84617 4.30972 0
M  V30 2413 H 221.922 2.33741 3.5531 0
M  V30 2414 N 220.237 -1.11381 1.11499 0
M  V30 2415 C 221.2 -2.15622 0.777153 0
M  V30 2416 C 222.2 -1.59504 -0.203779 0
M  V30 2417 O 223.39 -1.74188 0.020782 0
M  V30 2418 C 220.522 -3.40556 0.153116 0
M  V30 2419 H 221.715 -2.47021 1.70061 0
M  V30 2420 H 219.268 -1.26577 0.916952 0
M  V30 2421 H 220.003 -3.14767 -0.780536 0
M  V30 2422 H 219.788 -3.8257 0.859238 0
M  V30 2423 H 221.278 -4.17546 -0.0671044 0
M  V30 2424 N 221.715 -0.905404 -1.28997 0
M  V30 2425 C 222.963 -0.533192 -1.9494 0
M  V30 2426 C 223.284 0.924618 -1.71685 0
M  V30 2427 O 222.554 1.65268 -1.05183 0
M  V30 2428 H 221.134 -0.194194 -0.721317 0
M  V30 2429 H 223.796 -1.15294 -1.57141 0
M  V30 2430 H 222.892 -0.72059 -3.03667 0
M  V30 2431 N 223.193 1.4272 -0.668489 0
M  V30 2432 C 224.442 2.00846 -0.185389 0
M  V30 2433 C 224.755 1.53442 1.21305 0
M  V30 2434 O 225.961 2.03944 1.79218 0
M  V30 2435 C 224.417 3.58805 -0.280591 0
M  V30 2436 C 224.025 4.15198 -1.68268 0
M  V30 2437 C 225.769 4.24255 0.14412 0
M  V30 2438 C 223.676 5.655 -1.73099 0
M  V30 2439 H 222.606 0.751145 -0.0655475 0
M  V30 2440 H 225.257 1.63516 -0.832752 0
M  V30 2441 H 223.639 3.93608 0.434553 0
M  V30 2442 H 224.813 3.91866 -2.42441 0
M  V30 2443 H 223.128 3.62176 -2.05469 0
M  V30 2444 H 225.725 5.34547 0.128086 0
M  V30 2445 H 226.068 3.99277 1.17827 0
M  V30 2446 H 226.601 3.94389 -0.519798 0
M  V30 2447 H 223.34 5.95268 -2.74475 0
M  V30 2448 H 222.86 5.90842 -1.03274 0
M  V30 2449 H 224.539 6.29808 -1.48158 0
M  V30 2450 N 224.671 0.411399 1.52136 0
M  V30 2451 C 225.901 -0.16284 2.05957 0
M  V30 2452 C 226.309 -1.3922 1.28119 0
M  V30 2453 O 225.652 -1.80768 0.326881 0
M  V30 2454 C 225.714 -0.575946 3.54856 0
M  V30 2455 C 225.378 0.542998 4.53763 0
M  V30 2456 C 226.375 1.40726 5.00492 0
M  V30 2457 C 224.06 0.716337 4.97166 0
M  V30 2458 C 226.054 2.4298 5.8927 0
M  V30 2459 C 223.741 1.74218 5.8574 0
M  V30 2460 C 224.739 2.59731 6.31687 0
M  V30 2461 O 224.427 3.60558 7.18507 0
M  V30 2462 H 224.159 -0.0229125 0.675612 0
M  V30 2463 H 226.713 0.581634 1.96993 0
M  V30 2464 H 224.943 -1.37274 3.61515 0
M  V30 2465 H 226.632 -1.07836 3.91313 0
M  V30 2466 H 227.398 1.28476 4.67674 0
M  V30 2467 H 223.277 0.0603857 4.6096 0
M  V30 2468 H 226.821 3.0976 6.25055 0
M  V30 2469 H 222.718 1.86498 6.17971 0
M  V30 2470 H 223.486 3.56829 7.36624 0
M  V30 2471 N 226.149 -1.5696 0.141893 0
M  V30 2472 C 227.389 -1.9785 -0.513304 0
M  V30 2473 C 227.753 -1.02467 -1.62371 0
M  V30 2474 O 228.954 -1.32382 -2.33941 0
M  V30 2475 C 227.225 -3.42797 -1.01118 0
M  V30 2476 S 228.784 -4.05709 -1.67169 0
M  V30 2477 H 225.602 -0.691318 -0.166135 0
M  V30 2478 H 228.204 -1.94114 0.232398 0
M  V30 2479 H 226.908 -4.0995 -0.192179 0
M  V30 2480 H 226.439 -3.50235 -1.79162 0
M  V30 2481 H 228.454 -3.98342 -2.95868 0
M  V30 2482 N 227.627 0.131896 -1.57047 0
M  V30 2483 C 228.873 0.843179 -1.84441 0
M  V30 2484 C 229.206 1.80129 -0.725749 0
M  V30 2485 O 228.481 1.92624 0.269469 0
M  V30 2486 C 228.764 1.60442 -3.22382 0
M  V30 2487 C 228.617 0.666782 -4.4483 0
M  V30 2488 C 229.936 2.56354 -3.5773 0
M  V30 2489 H 227.055 0.305081 -0.670891 0
M  V30 2490 H 229.697 0.107839 -1.89694 0
M  V30 2491 H 227.847 2.23128 -3.18035 0
M  V30 2492 H 229.519 0.0497646 -4.61273 0
M  V30 2493 H 227.762 -0.022609 -4.33794 0
M  V30 2494 H 228.433 1.23579 -5.37989 0
M  V30 2495 H 230.909 2.0378 -3.62785 0
M  V30 2496 H 229.785 3.06657 -4.5525 0
M  V30 2497 H 230.046 3.38419 -2.84473 0
M  V30 2498 N 229.106 1.52395 0.401703 0
M  V30 2499 C 230.354 1.66488 1.14569 0
M  V30 2500 C 230.675 0.400897 1.90835 0
M  V30 2501 O 229.945 -0.584415 1.8698 0
M  V30 2502 H 228.525 0.613672 0.425929 0
M  V30 2503 H 231.187 1.89464 0.457093 0
M  V30 2504 H 230.283 2.50942 1.85566 0
M  V30 2505 N 230.584 -0.659388 1.43143 0
M  V30 2506 C 231.861 -1.41627 1.34912 0
M  V30 2507 C 232.241 -2.11099 -0.00607785 0
M  V30 2508 O 231.589 -2.04353 -1.02236 0
M  V30 2509 C 231.799 -2.40604 2.52805 0
M  V30 2510 C 233.147 -3.04789 2.95616 0
M  V30 2511 O 234.171 -2.50932 2.52807 0
M  V30 2512 O 233.03 -4.02421 3.69756 0
M  V30 2513 H 230.124 -0.63246 0.532844 0
M  V30 2514 H 232.67 -0.686814 1.5518 0
M  V30 2515 H 231.442 -1.88174 3.43083 0
M  V30 2516 H 231.065 -3.21009 2.34604 0
M  V30 2517 N 232.062 -1.29571 -0.897171 0
M  V30 2518 C 232.972 -1.16808 -2.03453 0
M  V30 2519 C 233.988 -0.0907471 -1.73763 0
M  V30 2520 O 235.164 -0.303312 -1.99103 0
M  V30 2521 C 232.229 -0.848264 -3.36163 0
M  V30 2522 C 231.29 -2.0097 -3.79354 0
M  V30 2523 C 230.523 -1.70505 -5.05731 0
M  V30 2524 O 230.746 -0.62718 -5.66941 0
M  V30 2525 O 229.68 -2.5538 -5.45036 0
M  V30 2526 H 233.506 -2.12325 -2.17144 0
M  V30 2527 H 231.091 -1.09047 -1.02123 0
M  V30 2528 H 232.973 -0.684581 -4.15802 0
M  V30 2529 H 231.648 0.0771071 -3.23608 0
M  V30 2530 H 230.555 -2.22863 -3.00471 0
M  V30 2531 H 231.888 -2.91636 -3.96496 0
M  V30 2532 N 233.54 1.10788 -1.12088 0
M  V30 2533 C 234.786 1.82942 -0.875226 0
M  V30 2534 C 235.119 1.84779 0.597538 0
M  V30 2535 O 234.394 1.30578 1.44152 0
M  V30 2536 C 234.677 3.29789 -1.44606 0
M  V30 2537 C 234.53 3.36307 -2.98693 0
M  V30 2538 C 235.849 4.26064 -1.10261 0
M  V30 2539 H 232.968 0.664195 -0.319397 0
M  V30 2540 H 235.61 1.29867 -1.38689 0
M  V30 2541 H 233.76 3.75118 -1.01089 0
M  V30 2542 H 235.432 2.99487 -3.50864 0
M  V30 2543 H 233.675 2.76318 -3.34411 0
M  V30 2544 H 234.346 4.39694 -3.33726 0
M  V30 2545 H 236.822 3.88951 -1.4784 0
M  V30 2546 H 235.698 5.27183 -1.52869 0
M  V30 2547 H 235.959 4.42098 -0.0142953 0
M  V30 2548 N 235.018 0.912232 1.28515 0
M  V30 2549 C 236.246 0.560416 1.99166 0
M  V30 2550 C 236.661 -0.857927 1.68182 0
M  V30 2551 O 236.018 -1.56805 0.933733 0
M  V30 2552 C 236.069 0.758142 3.53461 0
M  V30 2553 O 235.79 2.12067 3.83352 0
M  V30 2554 C 237.291 0.412954 4.41372 0
M  V30 2555 H 234.511 0.213805 0.636026 0
M  V30 2556 H 237.055 1.22502 1.63749 0
M  V30 2557 H 235.21 0.140556 3.87145 0
M  V30 2558 H 235.624 2.15923 4.77993 0
M  V30 2559 H 237.098 0.60208 5.48707 0
M  V30 2560 H 237.575 -0.65073 4.34353 0
M  V30 2561 H 238.181 1.00802 4.13182 0
M  V30 2562 N 236.496 -1.42363 0.676048 0
M  V30 2563 C 237.429 -2.28141 -0.0516916 0
M  V30 2564 C 238.407 -1.41135 -0.807439 0
M  V30 2565 O 239.591 -1.70573 -0.802305 0
M  V30 2566 C 236.718 -3.21007 -1.08039 0
M  V30 2567 C 235.764 -4.24426 -0.420076 0
M  V30 2568 S 236.597 -5.29134 0.823246 0
M  V30 2569 C 237.753 -6.25566 -0.204344 0
M  V30 2570 H 237.986 -2.89515 0.675884 0
M  V30 2571 H 235.519 -1.47211 0.465635 0
M  V30 2572 H 237.477 -3.75048 -1.66881 0
M  V30 2573 H 236.138 -2.58766 -1.78042 0
M  V30 2574 H 235.331 -4.89596 -1.19633 0
M  V30 2575 H 234.933 -3.7388 0.0947845 0
M  V30 2576 H 237.225 -6.69098 -1.06369 0
M  V30 2577 H 238.168 -7.06895 0.412915 0
M  V30 2578 H 238.576 -5.61811 -0.55038 0
M  V30 2579 N 237.974 -0.419461 -1.51915 0
M  V30 2580 C 238.937 0.389116 -2.25873 0
M  V30 2581 C 239.937 0.964924 -1.28631 0
M  V30 2582 O 241.127 0.842179 -1.52489 0
M  V30 2583 C 238.259 1.54874 -3.03689 0
M  V30 2584 H 239.452 -0.258799 -2.98781 0
M  V30 2585 H 237.005 -0.172209 -1.55348 0
M  V30 2586 H 237.74 2.23323 -2.35154 0
M  V30 2587 H 237.525 1.14223 -3.75094 0
M  V30 2588 H 239.015 2.12046 -3.59759 0
M  V30 2589 N 239.452 1.56882 -0.150215 0
M  V30 2590 C 240.729 1.87844 0.545327 0
M  V30 2591 C 241.109 1.0567 1.82749 0
M  V30 2592 O 240.457 0.144442 2.28043 0
M  V30 2593 C 240.667 3.39526 0.80767 0
M  V30 2594 C 242.015 4.08814 1.14703 0
M  V30 2595 O 243.039 3.44723 0.896917 0
M  V30 2596 O 241.898 5.22004 1.61784 0
M  V30 2597 H 238.992 0.778677 0.278553 0
M  V30 2598 H 241.538 1.68666 -0.187068 0
M  V30 2599 H 240.31 3.91173 -0.0996096 0
M  V30 2600 H 239.933 3.64243 1.59413 0
M  V30 2601 N 240.93 -0.123565 1.57115 0
M  V30 2602 C 241.86 -1.15309 2.03042 0
M  V30 2603 C 242.841 -1.43454 0.914061 0
M  V30 2604 O 244.026 -1.53973 1.18347 0
M  V30 2605 C 241.156 -2.48043 2.43089 0
M  V30 2606 C 240.11 -2.3437 3.58127 0
M  V30 2607 C 239.436 -3.72026 3.84059 0
M  V30 2608 C 240.736 -1.80804 4.90007 0
M  V30 2609 H 242.43 -0.771102 2.893 0
M  V30 2610 H 239.976 -0.369479 1.39179 0
M  V30 2611 H 241.929 -3.20311 2.73823 0
M  V30 2612 H 240.653 -2.88122 1.53796 0
M  V30 2613 H 239.312 -1.64551 3.27595 0
M  V30 2614 H 238.96 -4.09582 2.91979 0
M  V30 2615 H 238.66 -3.63732 4.6149 0
M  V30 2616 H 240.184 -4.45806 4.1724 0
M  V30 2617 H 241.598 -2.42886 5.19307 0
M  V30 2618 H 239.995 -1.83343 5.71407 0
M  V30 2619 H 241.065 -0.76528 4.78823 0
M  V30 2620 N 242.408 -1.52605 -0.393616 0
M  V30 2621 C 243.648 -1.6911 -1.1481 0
M  V30 2622 C 244.012 -0.41969 -1.87357 0
M  V30 2623 O 245.213 -0.461034 -2.64817 0
M  V30 2624 C 243.484 -2.88909 -2.10395 0
M  V30 2625 S 245.043 -3.25977 -2.93742 0
M  V30 2626 H 241.861 -0.595337 -0.38871 0
M  V30 2627 H 244.463 -1.90641 -0.433178 0
M  V30 2628 H 243.167 -3.79672 -1.55812 0
M  V30 2629 H 242.698 -2.69698 -2.86403 0
M  V30 2630 H 244.713 -2.75806 -4.12487 0
M  V30 2631 N 243.887 0.651787 -1.4349 0
M  V30 2632 C 244.817 1.77621 -1.51569 0
M  V30 2633 C 245.798 1.66022 -0.370253 0
M  V30 2634 O 246.983 1.85095 -0.587658 0
M  V30 2635 C 244.113 3.16056 -1.43966 0
M  V30 2636 C 243.067 3.4242 -2.56774 0
M  V30 2637 C 242.393 4.8067 -2.34223 0
M  V30 2638 C 243.693 3.37023 -3.99015 0
M  V30 2639 H 245.387 1.71117 -2.45681 0
M  V30 2640 H 242.933 0.821825 -1.18246 0
M  V30 2641 H 244.886 3.94472 -1.48221 0
M  V30 2642 H 243.61 3.23293 -0.463586 0
M  V30 2643 H 242.269 2.66375 -2.51873 0
M  V30 2644 H 241.917 4.84585 -1.34856 0
M  V30 2645 H 241.617 4.9927 -3.09844 0
M  V30 2646 H 243.141 5.61342 -2.40265 0
M  V30 2647 H 244.555 4.05374 -4.05395 0
M  V30 2648 H 242.952 3.67159 -4.74673 0
M  V30 2649 H 244.022 2.3518 -4.2405 0
M  V30 2650 N 245.365 1.30045 0.890287 0
M  V30 2651 C 246.611 1.18737 1.64406 0
M  V30 2652 C 246.944 -0.258525 1.92472 0
M  V30 2653 O 246.219 -1.18562 1.54186 0
M  V30 2654 C 246.502 2.01087 2.98724 0
M  V30 2655 C 246.355 3.53867 2.77665 0
M  V30 2656 C 247.674 1.84457 3.9958 0
M  V30 2657 H 244.793 0.432698 0.596608 0
M  V30 2658 H 247.435 1.5962 1.0306 0
M  V30 2659 H 245.585 1.66349 3.51084 0
M  V30 2660 H 247.257 3.98637 2.32133 0
M  V30 2661 H 245.5 3.78318 2.12269 0
M  V30 2662 H 246.171 4.06772 3.7315 0
M  V30 2663 H 248.647 2.14817 3.56361 0
M  V30 2664 H 247.523 2.44411 4.91482 0
M  V30 2665 H 247.784 0.802276 4.3476 0
M  V30 2666 N 246.843 -1.10192 1.12674 0
M  V30 2667 C 248.254 -1.63707 0.897604 0
M  V30 2668 C 248.605 -1.87812 -0.567546 0
M  V30 2669 O 247.73 -1.62196 -1.43253 0
M  V30 2670 C 248.325 -2.974 1.62292 0
M  V30 2671 C 246.884 -3.47772 1.43986 0
M  V30 2672 C 246.031 -2.22332 1.65722 0
M  V30 2673 H 248.982 -0.936587 1.28116 0
M  V30 2674 H 249.003 -3.64986 1.07541 0
M  V30 2675 H 248.515 -2.79824 2.68924 0
M  V30 2676 H 246.616 -3.70487 0.396206 0
M  V30 2677 H 246.729 -4.25723 2.19765 0
M  V30 2678 H 245.093 -2.30599 1.08149 0
M  V30 2679 H 245.876 -2.07285 2.73657 0
M  V30 2680 N 248.321 -0.919034 -1.28029 0
M  V30 2681 C 249.253 -0.368762 -2.26214 0
M  V30 2682 C 250.266 0.495716 -1.55069 0
M  V30 2683 O 251.455 0.30974 -1.75792 0
M  V30 2684 C 248.555 0.491049 -3.35324 0
M  V30 2685 C 247.728 -0.352133 -4.3598 0
M  V30 2686 C 246.787 0.443622 -5.24327 0
M  V30 2687 O 245.813 -0.14566 -5.69014 0
M  V30 2688 N 247.015 1.74545 -5.53637 0
M  V30 2689 H 249.78 -1.21273 -2.74068 0
M  V30 2690 H 247.341 -0.785541 -1.41566 0
M  V30 2691 H 249.333 1.03026 -3.91366 0
M  V30 2692 H 247.903 1.23574 -2.87138 0
M  V30 2693 H 247.123 -1.07269 -3.79324 0
M  V30 2694 H 248.411 -0.928883 -5.00249 0
M  V30 2695 H 247.809 2.24666 -5.19174 0
M  V30 2696 H 246.366 2.23138 -6.12416 0
M  V30 2697 N 249.799 1.42003 -0.683588 0
M  V30 2698 C 251.045 2.01712 -0.209825 0
M  V30 2699 C 251.378 1.53968 1.18353 0
M  V30 2700 O 250.653 0.745661 1.79639 0
M  V30 2701 C 250.936 3.59202 -0.254197 0
M  V30 2702 C 250.789 4.17102 -1.68363 0
M  V30 2703 C 252.108 4.38344 0.392709 0
M  V30 2704 H 249.227 0.732891 -0.0777189 0
M  V30 2705 H 251.869 1.68909 -0.87004 0
M  V30 2706 H 250.019 3.87278 0.307954 0
M  V30 2707 H 251.691 3.99946 -2.29871 0
M  V30 2708 H 249.934 3.72597 -2.22157 0
M  V30 2709 H 250.605 5.26249 -1.6663 0
M  V30 2710 H 253.081 4.16011 -0.0859162 0
M  V30 2711 H 251.957 5.47901 0.331063 0
M  V30 2712 H 252.218 4.16887 1.47164 0
M  V30 2713 N 251.277 0.427512 1.51691 0
M  V30 2714 C 252.24 -0.377132 2.26076 0
M  V30 2715 C 253.24 -0.958089 1.29141 0
M  V30 2716 O 254.43 -0.83408 1.52934 0
M  V30 2717 C 251.562 -1.53262 3.04506 0
M  V30 2718 H 252.755 0.27464 2.9864 0
M  V30 2719 H 250.308 0.180445 1.55255 0
M  V30 2720 H 251.043 -2.22072 2.36335 0
M  V30 2721 H 250.828 -1.12232 3.75694 0
M  V30 2722 H 252.318 -2.10135 3.60878 0
M  V30 2723 N 252.755 -1.56801 0.158532 0
M  V30 2724 C 253.703 -2.18638 -0.793729 0
M  V30 2725 C 254.697 -1.14669 -1.24689 0
M  V30 2726 O 255.903 -1.32895 -1.21403 0
M  V30 2727 H 252.278 -0.700226 -0.274204 0
M  V30 2728 H 254.249 -2.97367 -0.248095 0
M  V30 2729 C 252.998 -2.83139 -2.0181 0
M  V30 2730 H 252.321 -3.62863 -1.67841 0
M  V30 2731 H 253.761 -3.29894 -2.66357 0
M  V30 2732 C 252.22 -1.82244 -2.83353 0
M  V30 2733 O 252.75 -1.3 -3.80083 0
M  V30 2734 N 250.956 -1.51288 -2.48114 0
M  V30 2735 H 250.503 -1.93964 -1.69516 0
M  V30 2736 H 250.461 -0.840296 -3.02963 0
M  V30 2737 N 254.233 0.115231 -1.57178 0
M  V30 2738 C 255.196 1.12526 -1.99676 0
M  V30 2739 C 256.196 1.34095 -0.88742 0
M  V30 2740 O 257.386 1.30548 -1.15337 0
M  V30 2741 C 254.518 2.4789 -2.34015 0
M  V30 2742 H 255.711 0.759912 -2.90113 0
M  V30 2743 H 253.264 0.359648 -1.52106 0
M  V30 2744 H 253.999 2.89339 -1.4647 0
M  V30 2745 H 253.784 2.33588 -3.14927 0
M  V30 2746 H 255.274 3.20575 -2.67622 0
M  V30 2747 N 255.711 1.52812 0.385517 0
M  V30 2748 C 256.621 1.80766 1.49535 0
M  V30 2749 C 257.637 0.694651 1.59532 0
M  V30 2750 O 258.813 0.982611 1.75803 0
M  V30 2751 C 255.878 1.97381 2.85029 0
M  V30 2752 C 254.939 3.21295 2.84724 0
M  V30 2753 C 254.172 3.37108 4.13756 0
M  V30 2754 O 254.395 2.5765 5.08893 0
M  V30 2755 O 253.329 4.30378 4.20783 0
M  V30 2756 H 257.155 2.75015 1.28842 0
M  V30 2757 H 254.74 1.37946 0.573697 0
M  V30 2758 H 256.622 2.09996 3.65349 0
M  V30 2759 H 255.297 1.06322 3.05741 0
M  V30 2760 H 254.204 3.1412 2.03174 0
M  V30 2761 H 255.537 4.12212 2.68965 0
M  V30 2762 N 257.189 -0.644168 1.43834 0
M  V30 2763 C 258.605 -0.960875 1.27434 0
M  V30 2764 C 258.805 -2.00499 0.200618 0
M  V30 2765 O 257.861 -2.49018 -0.417906 0
M  V30 2766 C 259.174 -1.43653 2.64167 0
M  V30 2767 C 260.722 -1.55271 2.71772 0
M  V30 2768 C 261.197 -2.06224 4.08944 0
M  V30 2769 N 262.688 -2.13513 4.11055 0
M  V30 2770 C 263.423 -2.54081 5.14033 0
M  V30 2771 N 262.919 -2.9388 6.27381 0
M  V30 2772 N 264.712 -2.54101 5.01387 0
M  V30 2773 H 256.863 0.0465779 2.12349 0
M  V30 2774 H 259.126 -0.0417638 0.94708 0
M  V30 2775 H 258.832 -0.743706 3.43747 0
M  V30 2776 H 258.706 -2.40993 2.90176 0
M  V30 2777 H 261.093 -2.23653 1.92519 0
M  V30 2778 H 261.174 -0.563395 2.49519 0
M  V30 2779 H 260.818 -1.38441 4.88668 0
M  V30 2780 H 260.748 -3.06003 4.28567 0
M  V30 2781 H 263.239 -1.85493 3.29242 0
M  V30 2782 H 263.552 -3.2361 7.01781 0
M  V30 2783 H 261.897 -2.91663 6.30839 0
M  V30 2784 H 265.088 -2.22391 4.11898 0
M  V30 2785 H 265.261 -2.85394 5.81768 0
M  V30 2786 N 258.668 -1.30515 -0.883378 0
M  V30 2787 C 259.915 -1.1943 -1.63532 0
M  V30 2788 C 260.243 0.250627 -1.92878 0
M  V30 2789 O 259.498 1.19556 -1.54935 0
M  V30 2790 C 259.797 -1.96994 -2.98209 0
M  V30 2791 C 259.463 -3.466 -2.88408 0
M  V30 2792 C 258.125 -3.87397 -2.85442 0
M  V30 2793 C 260.477 -4.41863 -2.76418 0
M  V30 2794 C 257.805 -5.21745 -2.68327 0
M  V30 2795 C 260.157 -5.7632 -2.60841 0
M  V30 2796 C 258.821 -6.16354 -2.56251 0
M  V30 2797 H 258.091 -0.437025 -0.598406 0
M  V30 2798 H 260.738 -1.61635 -1.02696 0
M  V30 2799 H 259.043 -1.47429 -3.63004 0
M  V30 2800 H 260.74 -1.85808 -3.55354 0
M  V30 2801 H 257.33 -3.14182 -2.91527 0
M  V30 2802 H 261.514 -4.11285 -2.77775 0
M  V30 2803 H 256.77 -5.51853 -2.63189 0
M  V30 2804 H 260.944 -6.49772 -2.50538 0
M  V30 2805 H 258.571 -7.20401 -2.42748 0
M  V30 2806 N 260.146 1.09593 -1.13257 0
M  V30 2807 C 261.093 2.1618 -0.808381 0
M  V30 2808 C 262.063 1.64517 0.228754 0
M  V30 2809 O 263.248 1.9053 0.101381 0
M  V30 2810 C 260.388 3.43973 -0.278675 0
M  V30 2811 C 259.501 4.09545 -1.37466 0
M  V30 2812 C 258.636 5.25088 -0.803479 0
M  V30 2813 C 257.675 5.82579 -1.87799 0
M  V30 2814 N 256.812 6.89486 -1.32488 0
M  V30 2815 H 261.652 2.43254 -1.72138 0
M  V30 2816 H 259.189 1.19392 -0.859294 0
M  V30 2817 H 261.147 4.17174 0.0465583 0
M  V30 2818 H 259.777 3.17223 0.597459 0
M  V30 2819 H 258.829 3.34226 -1.81652 0
M  V30 2820 H 260.141 4.48307 -2.18684 0
M  V30 2821 H 259.295 6.05178 -0.429427 0
M  V30 2822 H 258.034 4.87684 0.0397956 0
M  V30 2823 H 257.039 5.01152 -2.26113 0
M  V30 2824 H 258.264 6.22045 -2.72463 0
M  V30 2825 H 256.21 6.54064 -0.503575 0
M  V30 2826 H 256.127 7.27007 -2.07355 0
M  V30 2827 H 257.395 7.73336 -0.978336 0
M  V30 2828 N 261.624 0.925811 1.2754 0
M  V30 2829 C 262.87 0.566092 1.94739 0
M  V30 2830 C 263.203 -0.890057 1.72603 0
M  V30 2831 O 262.478 -1.63467 1.05399 0
M  V30 2832 C 262.761 0.89054 3.48915 0
M  V30 2833 C 262.614 2.4003 3.80402 0
M  V30 2834 C 263.933 0.395101 4.38323 0
M  V30 2835 H 261.052 0.20714 0.707292 0
M  V30 2836 H 263.694 1.15725 1.50691 0
M  V30 2837 H 261.844 0.387452 3.86563 0
M  V30 2838 H 263.516 2.97494 3.52555 0
M  V30 2839 H 261.759 2.85028 3.2702 0
M  V30 2840 H 262.43 2.57785 4.8811 0
M  V30 2841 H 264.906 0.826241 4.07814 0
M  V30 2842 H 263.782 0.651086 5.45025 0
M  V30 2843 H 264.043 -0.704798 4.36446 0
M  V30 2844 N 263.102 -1.41638 0.69111 0
M  V30 2845 C 264.379 -1.95036 0.148421 0
M  V30 2846 C 264.759 -1.63072 -1.34055 0
M  V30 2847 O 264.107 -0.93538 -2.08478 0
M  V30 2848 C 264.317 -3.46279 0.434951 0
M  V30 2849 C 265.665 -4.23069 0.360275 0
M  V30 2850 O 266.689 -3.54277 0.369613 0
M  V30 2851 O 265.548 -5.45583 0.316534 0
M  V30 2852 H 262.642 -0.826908 0.0123654 0
M  V30 2853 H 265.188 -1.5138 0.766963 0
M  V30 2854 H 263.96 -3.6281 1.46576 0
M  V30 2855 H 263.583 -3.97019 -0.214787 0
M  V30 2856 N 264.58 -0.43555 -1.51462 0
M  V30 2857 C 265.51 0.367376 -2.30592 0
M  V30 2858 C 266.491 1.02263 -1.35928 0
M  V30 2859 O 267.676 1.02661 -1.64847 0
M  V30 2860 C 264.806 1.46983 -3.14664 0
M  V30 2861 C 263.76 0.938161 -4.17591 0
M  V30 2862 C 263.086 2.13622 -4.90173 0
M  V30 2863 C 264.386 -0.0261621 -5.22293 0
M  V30 2864 H 266.08 -0.292969 -2.97963 0
M  V30 2865 H 263.626 -0.14234 -1.43295 0
M  V30 2866 H 265.579 2.03873 -3.688 0
M  V30 2867 H 264.303 2.15843 -2.4511 0
M  V30 2868 H 262.962 0.391481 -3.64504 0
M  V30 2869 H 262.61 2.81098 -4.17124 0
M  V30 2870 H 262.31 1.78688 -5.59772 0
M  V30 2871 H 263.834 2.7107 -5.47132 0
M  V30 2872 H 265.248 0.452384 -5.71512 0
M  V30 2873 H 263.645 -0.287992 -5.99409 0
M  V30 2874 H 264.715 -0.963391 -4.75233 0
M  V30 2875 N 266.058 1.56714 -0.166846 0
M  V30 2876 C 267.286 2.0112 0.485644 0
M  V30 2877 C 267.701 1.04705 1.57106 0
M  V30 2878 O 267.058 0.0471923 1.82439 0
M  V30 2879 C 267.109 3.45361 1.06808 0
M  V30 2880 O 266.83 4.38092 0.0259995 0
M  V30 2881 C 268.331 4.05145 1.79924 0
M  V30 2882 H 265.551 0.65931 0.124704 0
M  V30 2883 H 268.095 2.02746 -0.267262 0
M  V30 2884 H 266.25 3.44524 1.7715 0
M  V30 2885 H 266.664 5.22519 0.455398 0
M  V30 2886 H 268.138 5.08009 2.15942 0
M  V30 2887 H 268.615 3.46982 2.69258 0
M  V30 2888 H 269.221 4.09672 1.14234 0
M  V30 2889 N 267.536 -0.106894 1.57237 0
M  V30 2890 C 268.947 -0.662723 1.74542 0
M  V30 2891 C 269.298 -1.7971 0.787319 0
M  V30 2892 O 268.423 -2.16368 -0.0369636 0
M  V30 2893 C 269.018 -1.20896 3.16496 0
M  V30 2894 C 267.577 -1.71096 3.35266 0
M  V30 2895 C 266.724 -0.615642 2.7038 0
M  V30 2896 H 269.675 0.119106 1.58252 0
M  V30 2897 H 269.696 -2.07847 3.18716 0
M  V30 2898 H 269.208 -0.383122 3.86204 0
M  V30 2899 H 267.309 -2.56119 2.70618 0
M  V30 2900 H 267.422 -1.81208 4.43509 0
M  V30 2901 H 265.786 -1.05222 2.31949 0
M  V30 2902 H 266.569 0.199419 3.4272 0
M  V30 2903 N 269.014 -1.53014 -0.377408 0
M  V30 2904 C 270.244 -1.72265 -1.14054 0
M  V30 2905 C 270.652 -0.44601 -1.83868 0
M  V30 2906 O 269.995 0.590095 -1.73964 0
M  V30 2907 C 270.057 -2.82492 -2.22348 0
M  V30 2908 C 269.721 -4.23233 -1.72402 0
M  V30 2909 C 270.718 -5.05992 -1.19448 0
M  V30 2910 C 268.403 -4.696 -1.78273 0
M  V30 2911 C 270.397 -6.33203 -0.730268 0
M  V30 2912 C 268.084 -5.96792 -1.31464 0
M  V30 2913 C 269.082 -6.78424 -0.789297 0
M  V30 2914 O 268.77 -8.0323 -0.328077 0
M  V30 2915 H 268.502 -0.579873 -0.347453 0
M  V30 2916 H 271.056 -2.00502 -0.445882 0
M  V30 2917 H 269.286 -2.49702 -2.95272 0
M  V30 2918 H 270.975 -2.90034 -2.83963 0
M  V30 2919 H 271.741 -4.71349 -1.14259 0
M  V30 2920 H 267.62 -4.06142 -2.18106 0
M  V30 2921 H 271.164 -6.96868 -0.319542 0
M  V30 2922 H 267.061 -6.30937 -1.36342 0
M  V30 2923 H 267.829 -8.1727 -0.448493 0
M  V30 2924 N 270.492 0.636531 -1.44174 0
M  V30 2925 C 271.903 1.21806 -1.41493 0
M  V30 2926 C 272.254 1.95785 -0.1275 0
M  V30 2927 O 271.379 2.02147 0.772376 0
M  V30 2928 C 271.974 2.21551 -2.56321 0
M  V30 2929 C 270.533 2.75143 -2.56853 0
M  V30 2930 C 269.68 1.50052 -2.33195 0
M  V30 2931 H 272.631 0.427531 -1.52833 0
M  V30 2932 H 272.652 3.0405 -2.28765 0
M  V30 2933 H 272.164 1.67679 -3.50008 0
M  V30 2934 H 270.265 3.33033 -1.67093 0
M  V30 2935 H 270.378 3.2155 -3.55165 0
M  V30 2936 H 268.742 1.77993 -1.82183 0
M  V30 2937 H 269.525 0.980903 -3.28988 0
M  V30 2938 N 271.97 1.30982 0.876444 0
M  V30 2939 C 273.198 1.23242 1.6619 0
M  V30 2940 C 273.613 -0.203345 1.87702 0
M  V30 2941 O 272.97 -1.13317 1.43057 0
M  V30 2942 C 273.021 1.96623 3.03351 0
M  V30 2943 O 272.742 3.34594 2.82804 0
M  V30 2944 C 274.243 1.95644 3.97792 0
M  V30 2945 H 271.463 0.426126 0.518322 0
M  V30 2946 H 274.007 1.7275 1.09442 0
M  V30 2947 H 272.162 1.50892 3.56806 0
M  V30 2948 H 272.576 3.71873 3.69879 0
M  V30 2949 H 274.05 2.51511 4.91372 0
M  V30 2950 H 274.527 0.937395 4.2908 0
M  V30 2951 H 275.133 2.41225 3.50272 0
M  V30 2952 N 273.449 -1.08991 1.13837 0
M  V30 2953 C 274.698 -1.80631 0.897509 0
M  V30 2954 C 275.011 -1.86872 -0.57777 0
M  V30 2955 O 276.217 -2.54866 -0.935701 0
M  V30 2956 C 274.673 -3.24517 1.55618 0
M  V30 2957 C 274.281 -3.26529 3.0673 0
M  V30 2958 C 276.025 -4.00882 1.3962 0
M  V30 2959 C 273.932 -4.64965 3.65461 0
M  V30 2960 H 272.862 -0.67691 0.332129 0
M  V30 2961 H 275.513 -1.2246 1.3666 0
M  V30 2962 H 273.895 -3.82778 1.01476 0
M  V30 2963 H 275.069 -2.78008 3.67489 0
M  V30 2964 H 273.384 -2.63656 3.22296 0
M  V30 2965 H 275.981 -5.03167 1.80906 0
M  V30 2966 H 276.324 -4.14896 0.341578 0
M  V30 2967 H 276.857 -3.49075 1.90766 0
M  V30 2968 H 273.596 -4.56153 4.70749 0
M  V30 2969 H 273.116 -5.13792 3.09481 0
M  V30 2970 H 274.795 -5.3394 3.654 0
M  V30 2971 N 274.927 -0.932562 -1.27047 0
M  V30 2972 C 276.152 -0.591474 -1.98787 0
M  V30 2973 C 276.577 0.824601 -1.69062 0
M  V30 2974 O 275.935 1.5541 -0.933677 0
M  V30 2975 C 275.983 -0.829808 -3.50922 0
M  V30 2976 O 275.087 0.102266 -4.12273 0
M  V30 2977 H 274.428 -0.227185 -0.623926 0
M  V30 2978 H 276.958 -1.25314 -1.61733 0
M  V30 2979 H 276.968 -0.747292 -4.01098 0
M  V30 2980 H 275.643 -1.86201 -3.7189 0
M  V30 2981 H 274.22 -0.0305761 -3.72887 0
M  V30 2982 N 276.405 1.4127 -0.698611 0
M  V30 2983 C 277.63 2.06024 -0.238512 0
M  V30 2984 C 278.055 1.5224 1.10475 0
M  V30 2985 O 277.413 0.650623 1.69223 0
M  V30 2986 C 277.461 3.59988 -0.209952 0
M  V30 2987 O 276.565 4.04282 0.814235 0
M  V30 2988 H 275.906 0.653829 -0.115775 0
M  V30 2989 H 278.436 1.8098 -0.954326 0
M  V30 2990 H 278.446 4.07979 -0.0418436 0
M  V30 2991 H 277.121 3.98503 -1.1903 0
M  V30 2992 H 275.698 3.6779 0.615234 0
M  V30 2993 N 277.883 0.443576 1.51229 0
M  V30 2994 C 279.132 -0.122332 2.01329 0
M  V30 2995 C 279.445 -1.43237 1.33201 0
M  V30 2996 O 280.651 -2.0816 1.74304 0
M  V30 2997 C 279.107 -0.268551 3.58897 0
M  V30 2998 C 278.715 1.03142 4.35965 0
M  V30 2999 C 280.459 -0.787894 4.17124 0
M  V30 3000 C 278.366 0.850504 5.85252 0
M  V30 3001 H 277.296 -0.0494929 0.752374 0
M  V30 3002 H 279.947 0.574289 1.74282 0
M  V30 3003 H 278.329 -1.02832 3.82415 0
M  V30 3004 H 279.503 1.80001 4.24189 0
M  V30 3005 H 277.818 1.47977 3.89219 0
M  V30 3006 H 280.415 -0.939841 5.26375 0
M  V30 3007 H 280.758 -1.77201 3.76703 0
M  V30 3008 H 281.291 -0.0862669 3.97706 0
M  V30 3009 H 278.03 1.80718 6.30096 0
M  V30 3010 H 277.55 0.121825 5.99676 0
M  V30 3011 H 279.229 0.506163 6.45017 0
M  V30 3012 N 279.361 -1.56624 0.175154 0
M  V30 3013 C 280.309 -2.19468 -0.770495 0
M  V30 3014 C 281.303 -1.15985 -1.23466 0
M  V30 3015 O 282.509 -1.34176 -1.19987 0
M  V30 3016 H 278.884 -0.703095 -0.266761 0
M  V30 3017 H 280.855 -2.97613 -0.216542 0
M  V30 3018 C 279.604 -2.85264 -1.98796 0
M  V30 3019 H 278.927 -3.64623 -1.63983 0
M  V30 3020 H 280.367 -3.327 -2.62843 0
M  V30 3021 C 278.826 -1.85239 -2.81404 0
M  V30 3022 O 279.356 -1.34024 -3.78682 0
M  V30 3023 N 277.562 -1.53911 -2.46495 0
M  V30 3024 H 277.109 -1.95751 -1.67449 0
M  V30 3025 H 277.067 -0.872382 -3.02054 0
M  V30 3026 N 280.839 0.0985539 -1.57292 0
M  V30 3027 C 281.786 1.11981 -2.01814 0
M  V30 3028 C 282.756 1.39999 -0.89384 0
M  V30 3029 O 283.941 1.5152 -1.15958 0
M  V30 3030 C 281.081 2.43577 -2.44467 0
M  V30 3031 C 280.194 2.2232 -3.70402 0
M  V30 3032 C 279.329 3.4729 -4.01949 0
M  V30 3033 C 278.368 3.2128 -5.21005 0
M  V30 3034 N 277.505 4.38507 -5.48321 0
M  V30 3035 H 282.345 0.733149 -2.88841 0
M  V30 3036 H 279.882 0.350482 -1.42864 0
M  V30 3037 H 281.84 3.20373 -2.6724 0
M  V30 3038 H 280.47 2.80097 -1.60455 0
M  V30 3039 H 279.522 1.36343 -3.55126 0
M  V30 3040 H 280.834 1.99089 -4.57345 0
M  V30 3041 H 279.988 4.32495 -4.25479 0
M  V30 3042 H 278.727 3.73572 -3.13521 0
M  V30 3043 H 277.732 2.34468 -4.97298 0
M  V30 3044 H 278.957 2.96348 -6.11028 0
M  V30 3045 H 276.903 4.64871 -4.62851 0
M  V30 3046 H 276.82 4.18455 -6.29628 0
M  V30 3047 H 278.088 5.24787 -5.76385 0
M  V30 3048 N 282.317 1.53212 0.369288 0
M  V30 3049 C 283.733 1.42902 0.710712 0
M  V30 3050 C 283.933 0.565135 1.93413 0
M  V30 3051 O 282.989 0.0461484 2.52458 0
M  V30 3052 C 284.302 2.86042 0.927382 0
M  V30 3053 C 285.85 2.9565 1.02762 0
M  V30 3054 C 286.325 4.39843 1.27679 0
M  V30 3055 N 287.816 4.43256 1.34457 0
M  V30 3056 C 288.551 5.51929 1.55439 0
M  V30 3057 N 288.047 6.70655 1.73762 0
M  V30 3058 N 289.84 5.39502 1.57779 0
M  V30 3059 H 281.991 2.07888 -0.435457 0
M  V30 3060 H 284.254 0.938661 -0.132739 0
M  V30 3061 H 283.96 3.51557 0.100287 0
M  V30 3062 H 283.834 3.29472 1.83653 0
M  V30 3063 H 286.221 2.30291 1.84527 0
M  V30 3064 H 286.302 2.5562 0.0959504 0
M  V30 3065 H 285.946 5.05774 0.464175 0
M  V30 3066 H 285.876 4.77443 2.22162 0
M  V30 3067 H 288.367 3.5769 1.21926 0
M  V30 3068 H 288.68 7.49248 1.89335 0
M  V30 3069 H 287.025 6.73648 1.70948 0
M  V30 3070 H 290.216 4.45713 1.43029 0
M  V30 3071 H 290.389 6.2426 1.7379 0
M  V30 3072 N 283.795 -0.628877 1.44509 0
M  V30 3073 C 284.725 -1.75187 1.54376 0
M  V30 3074 C 285.706 -1.65411 0.396618 0
M  V30 3075 O 286.891 -1.84137 0.617031 0
M  V30 3076 C 284.021 -3.13725 1.48976 0
M  V30 3077 C 282.975 -3.38291 2.62189 0
M  V30 3078 C 282.301 -4.76883 2.41841 0
M  V30 3079 C 283.601 -3.30632 4.04326 0
M  V30 3080 H 285.295 -1.67187 2.48373 0
M  V30 3081 H 282.841 -0.802909 1.19538 0
M  V30 3082 H 284.794 -3.92064 1.54478 0
M  V30 3083 H 283.518 -3.22515 0.514961 0
M  V30 3084 H 282.177 -2.62334 2.56079 0
M  V30 3085 H 281.825 -4.82378 1.42548 0
M  V30 3086 H 281.525 -4.94278 3.17747 0
M  V30 3087 H 283.049 -5.57449 2.49165 0
M  V30 3088 H 284.463 -3.98873 4.11793 0
M  V30 3089 H 282.86 -3.59561 4.80454 0
M  V30 3090 H 283.93 -2.28404 4.27738 0
M  V30 3091 N 285.273 -1.31445 -0.869486 0
M  V30 3092 C 286.203 -1.21727 -1.99261 0
M  V30 3093 C 287.184 -0.104359 -1.6978 0
M  V30 3094 O 288.369 -0.289038 -1.92037 0
M  V30 3095 C 285.499 -0.924317 -3.34774 0
M  V30 3096 C 284.453 -1.99685 -3.78563 0
M  V30 3097 C 283.779 -1.55658 -5.11541 0
M  V30 3098 C 285.079 -3.41003 -3.95619 0
M  V30 3099 H 286.773 -2.1569 -2.07649 0
M  V30 3100 H 284.319 -1.03839 -0.997675 0
M  V30 3101 H 286.272 -0.842934 -4.12883 0
M  V30 3102 H 284.996 0.0509793 -3.2656 0
M  V30 3103 H 283.655 -2.06813 -3.02694 0
M  V30 3104 H 283.303 -0.569132 -4.9977 0
M  V30 3105 H 283.003 -2.27409 -5.41811 0
M  V30 3106 H 284.527 -1.48928 -5.92159 0
M  V30 3107 H 285.941 -3.36547 -4.64122 0
M  V30 3108 H 284.338 -4.10975 -4.37286 0
M  V30 3109 H 285.408 -3.81754 -2.98985 0
M  V30 3110 N 286.751 1.08385 -1.14413 0
M  V30 3111 C 287.997 1.81044 -0.913834 0
M  V30 3112 C 288.33 1.86004 0.558209 0
M  V30 3113 O 287.605 1.33606 1.4135 0
M  V30 3114 C 287.888 3.26648 -1.51569 0
M  V30 3115 C 287.741 3.29895 -3.0576 0
M  V30 3116 C 289.06 4.23629 -1.19273 0
M  V30 3117 H 286.179 0.65727 -0.333414 0
M  V30 3118 H 288.821 1.26896 -1.41412 0
M  V30 3119 H 286.971 3.72889 -1.09023 0
M  V30 3120 H 288.643 2.91977 -3.57137 0
M  V30 3121 H 286.886 2.69163 -3.40197 0
M  V30 3122 H 287.557 4.32516 -3.42977 0
M  V30 3123 H 290.033 3.85727 -1.56057 0
M  V30 3124 H 288.909 5.23822 -1.64017 0
M  V30 3125 H 289.17 4.41968 -0.108068 0
M  V30 3126 N 288.23 0.939286 1.26551 0
M  V30 3127 C 289.16 0.465044 2.28822 0
M  V30 3128 C 290.141 -0.480692 1.63167 0
M  V30 3129 O 291.326 -0.382955 1.90387 0
M  V30 3130 C 288.456 -0.27234 3.46231 0
M  V30 3131 C 287.41 0.58666 4.2396 0
M  V30 3132 C 286.736 -0.280573 5.33963 0
M  V30 3133 C 288.036 1.85704 4.88171 0
M  V30 3134 H 289.73 1.31979 2.68741 0
M  V30 3135 H 287.276 0.636061 1.29191 0
M  V30 3136 H 289.229 -0.615133 4.16886 0
M  V30 3137 H 287.953 -1.16121 3.0526 0
M  V30 3138 H 286.612 0.91232 3.55067 0
M  V30 3139 H 286.26 -1.16874 4.89234 0
M  V30 3140 H 285.96 0.29076 5.8688 0
M  V30 3141 H 287.484 -0.618678 6.07458 0
M  V30 3142 H 288.898 1.58161 5.51052 0
M  V30 3143 H 287.295 2.37279 5.51197 0
M  V30 3144 H 288.365 2.56957 4.11219 0
M  V30 3145 N 289.708 -1.40897 0.706093 0
M  V30 3146 C 290.618 -2.3455 0.0482286 0
M  V30 3147 C 291.634 -1.56796 -0.754396 0
M  V30 3148 O 292.81 -1.89228 -0.689538 0
M  V30 3149 C 289.875 -3.35625 -0.869303 0
M  V30 3150 C 288.936 -4.29261 -0.0576994 0
M  V30 3151 C 288.169 -5.25508 -0.931531 0
M  V30 3152 O 288.392 -5.27472 -2.17092 0
M  V30 3153 O 287.326 -6.00727 -0.375587 0
M  V30 3154 H 291.152 -2.92407 0.820476 0
M  V30 3155 H 288.737 -1.4193 0.4665 0
M  V30 3156 H 290.619 -3.97635 -1.39514 0
M  V30 3157 H 289.294 -2.80196 -1.62086 0
M  V30 3158 H 288.201 -3.70566 0.512988 0
M  V30 3159 H 289.534 -4.87817 0.655426 0
M  V30 3160 N 291.186 -0.45159 -1.50991 0
M  V30 3161 C 292.149 0.341117 -2.26647 0
M  V30 3162 C 293.149 0.937422 -1.30649 0
M  V30 3163 O 294.339 0.809644 -1.54241 0
M  V30 3164 C 291.471 1.48398 -3.06905 0
M  V30 3165 H 292.664 -0.322117 -2.98165 0
M  V30 3166 H 290.217 -0.205122 -1.54948 0
M  V30 3167 H 290.952 2.18284 -2.39838 0
M  V30 3168 H 290.737 1.06241 -3.77432 0
M  V30 3169 H 292.227 2.04367 -3.64176 0
M  V30 3170 N 292.664 1.56529 -0.183458 0
M  V30 3171 C 293.911 1.97244 0.458357 0
M  V30 3172 C 294.239 1.06992 1.62428 0
M  V30 3173 O 293.494 0.106542 1.9541 0
M  V30 3174 C 293.793 3.43939 0.971637 0
M  V30 3175 C 293.459 4.5083 -0.0796784 0
M  V30 3176 C 292.121 4.79786 -0.368584 0
M  V30 3177 C 294.473 5.15138 -0.792638 0
M  V30 3178 C 291.801 5.70345 -1.37563 0
M  V30 3179 C 294.153 6.06784 -1.78875 0
M  V30 3180 C 292.817 6.34102 -2.08497 0
M  V30 3181 H 292.087 0.721768 0.167725 0
M  V30 3182 H 294.734 1.89472 -0.277976 0
M  V30 3183 H 293.039 3.48724 1.78602 0
M  V30 3184 H 294.736 3.72791 1.47744 0
M  V30 3185 H 291.326 4.28317 0.155668 0
M  V30 3186 H 295.51 4.92868 -0.582659 0
M  V30 3187 H 290.766 5.89789 -1.61118 0
M  V30 3188 H 294.94 6.55677 -2.3465 0
M  V30 3189 H 292.567 7.04074 -2.86678 0
M  V30 3190 N 294.142 -0.090211 1.57342 0
M  V30 3191 C 295.074 -1.13541 1.99101 0
M  V30 3192 C 296.087 -1.3604 0.894258 0
M  V30 3193 O 297.276 -1.34606 1.17233 0
M  V30 3194 C 294.376 -2.49001 2.29895 0
M  V30 3195 C 293.549 -2.46712 3.61182 0
M  V30 3196 C 292.608 -3.64136 3.79857 0
M  V30 3197 O 291.634 -3.46405 4.51655 0
M  V30 3198 N 292.836 -4.83802 3.20806 0
M  V30 3199 H 295.601 -0.779942 2.89373 0
M  V30 3200 H 293.162 -0.279125 1.59476 0
M  V30 3201 H 295.154 -3.26166 2.39578 0
M  V30 3202 H 293.724 -2.76619 1.45605 0
M  V30 3203 H 292.944 -1.55058 3.62423 0
M  V30 3204 H 294.232 -2.42265 4.4742 0
M  V30 3205 H 293.63 -5.01112 2.62494 0
M  V30 3206 H 292.187 -5.58543 3.35966 0
M  V30 3207 N 295.62 -1.53406 -0.361157 0
M  V30 3208 C 296.866 -1.70054 -1.10496 0
M  V30 3209 C 297.199 -0.453278 -1.88836 0
M  V30 3210 O 296.474 0.5495 -1.86576 0
M  V30 3211 C 296.757 -2.95317 -2.06058 0
M  V30 3212 C 296.61 -4.3021 -1.31298 0
M  V30 3213 C 297.929 -3.16193 -3.06121 0
M  V30 3214 H 295.048 -0.618799 -0.400321 0
M  V30 3215 H 297.69 -1.86052 -0.385318 0
M  V30 3216 H 295.84 -2.81809 -2.67425 0
M  V30 3217 H 297.512 -4.55538 -0.726807 0
M  V30 3218 H 295.755 -4.29421 -0.614853 0
M  V30 3219 H 296.426 -5.14 -2.01265 0
M  V30 3220 H 298.902 -3.28916 -2.5486 0
M  V30 3221 H 297.778 -4.05266 -3.70204 0
M  V30 3222 H 298.039 -2.31676 -3.76535 0
M  V30 3223 N 297.098 0.621204 -1.44841 0
M  V30 3224 C 298.323 1.41244 -1.51871 0
M  V30 3225 C 298.748 1.87519 -0.147764 0
M  V30 3226 O 298.106 1.59334 0.865 0
M  V30 3227 C 298.154 2.60221 -2.49634 0
M  V30 3228 O 297.258 3.60395 -2.00473 0
M  V30 3229 H 296.599 0.42223 -0.512463 0
M  V30 3230 H 299.129 0.757305 -1.90069 0
M  V30 3231 H 299.139 3.0764 -2.67996 0
M  V30 3232 H 297.814 2.25887 -3.4921 0
M  V30 3233 H 296.391 3.19717 -1.91925 0
M  V30 3234 N 298.576 1.31904 0.862503 0
M  V30 3235 C 299.526 1.16772 1.95827 0
M  V30 3236 C 300.51 0.0767098 1.60717 0
M  V30 3237 O 301.702 0.302407 1.74398 0
M  V30 3238 C 298.831 0.884858 3.317 0
M  V30 3239 C 297.917 2.0172 3.73055 0
M  V30 3240 N 298.308 3.265 3.86305 0
M  V30 3241 C 296.606 1.91861 4.02623 0
M  V30 3242 C 297.307 4.00616 4.2176 0
M  V30 3243 N 296.283 3.28847 4.32852 0
M  V30 3244 H 300.085 2.11382 2.04193 0
M  V30 3245 H 297.599 1.2357 1.05377 0
M  V30 3246 H 299.596 0.757419 4.09962 0
M  V30 3247 H 298.256 -0.0529448 3.24657 0
M  V30 3248 H 299.267 3.61529 3.70833 0
M  V30 3249 H 295.944 1.05593 4.03926 0
M  V30 3250 H 297.334 5.08182 4.39546 0
M  V30 3251 N 300.054 -1.07777 1.14986 0
M  V30 3252 C 301.465 -1.61766 0.932127 0
M  V30 3253 C 301.816 -1.88974 -0.527581 0
M  V30 3254 O 300.941 -1.65198 -1.39781 0
M  V30 3255 C 301.536 -2.93891 1.68563 0
M  V30 3256 C 300.095 -3.44639 1.5133 0
M  V30 3257 C 299.242 -2.18767 1.704 0
M  V30 3258 H 302.193 -0.909201 1.30074 0
M  V30 3259 H 302.214 -3.62623 1.15259 0
M  V30 3260 H 301.726 -2.74057 2.74799 0
M  V30 3261 H 299.827 -3.69564 0.474702 0
M  V30 3262 H 299.94 -4.20966 2.28746 0
M  V30 3263 H 298.304 -2.28253 1.13016 0
M  V30 3264 H 299.087 -2.01433 2.77992 0
M  V30 3265 N 301.532 -0.945985 -1.26051 0
M  V30 3266 C 302.772 -0.603665 -1.95282 0
M  V30 3267 C 303.136 0.842377 -1.72534 0
M  V30 3268 O 304.337 1.29387 -2.35611 0
M  V30 3269 C 302.608 -0.942292 -3.44754 0
M  V30 3270 S 304.167 -0.711242 -4.32997 0
M  V30 3271 H 300.985 -0.222176 -0.675395 0
M  V30 3272 H 303.587 -1.21832 -1.52896 0
M  V30 3273 H 302.291 -1.99203 -3.58812 0
M  V30 3274 H 301.822 -0.317546 -3.92116 0
M  V30 3275 H 303.837 0.422221 -4.944 0
M  V30 3276 N 303.011 1.40521 -0.713556 0
M  V30 3277 C 304.427 1.54839 -0.386907 0
M  V30 3278 C 304.627 1.68532 1.1045 0
M  V30 3279 O 303.683 1.67377 1.89053 0
M  V30 3280 C 304.996 2.77792 -1.15118 0
M  V30 3281 C 306.544 2.91607 -1.13729 0
M  V30 3282 C 307.019 4.1747 -1.88368 0
M  V30 3283 N 308.51 4.24466 -1.85427 0
M  V30 3284 C 309.245 5.20755 -2.40004 0
M  V30 3285 N 308.741 6.22965 -3.03129 0
M  V30 3286 N 310.534 5.1282 -2.30158 0
M  V30 3287 H 302.685 1.29879 -1.68063 0
M  V30 3288 H 304.948 0.627896 -0.710247 0
M  V30 3289 H 304.654 2.73944 -2.20561 0
M  V30 3290 H 304.528 3.6984 -0.741477 0
M  V30 3291 H 306.915 2.94959 -0.0910608 0
M  V30 3292 H 306.996 2.00682 -1.5862 0
M  V30 3293 H 306.64 4.1488 -2.9298 0
M  V30 3294 H 306.57 5.074 -1.40898 0
M  V30 3295 H 309.061 3.51241 -1.3942 0
M  V30 3296 H 309.374 6.92859 -3.42295 0
M  V30 3297 H 307.719 6.23415 -3.07212 0
M  V30 3298 H 310.91 4.31899 -1.80501 0
M  V30 3299 H 311.083 5.87689 -2.72993 0
M  V30 3300 N 304.489 0.459591 1.5075 0
M  V30 3301 C 305.421 -0.37665 2.26084 0
M  V30 3302 C 306.434 -0.967109 1.30961 0
M  V30 3303 O 307.623 -0.857468 1.56556 0
M  V30 3304 C 304.723 -1.54112 3.01832 0
M  V30 3305 C 303.896 -1.06553 4.24223 0
M  V30 3306 C 302.955 -2.1027 4.82362 0
M  V30 3307 O 301.981 -1.68798 5.43595 0
M  V30 3308 N 303.183 -3.42974 4.68347 0
M  V30 3309 H 305.948 0.269124 2.98489 0
M  V30 3310 H 303.509 0.28972 1.59287 0
M  V30 3311 H 305.501 -2.23165 3.37608 0
M  V30 3312 H 304.071 -2.0918 2.32298 0
M  V30 3313 H 303.291 -0.201274 3.93686 0
M  V30 3314 H 304.579 -0.725516 5.03601 0
M  V30 3315 H 303.977 -3.79385 4.19623 0
M  V30 3316 H 302.534 -4.07858 5.08424 0
M  V30 3317 N 305.967 -1.56429 0.191757 0
M  V30 3318 C 307.378 -1.83912 -0.321428 0
M  V30 3319 C 307.729 -1.11231 -1.61623 0
M  V30 3320 O 306.854 -0.37202 -2.13178 0
M  V30 3321 C 307.449 -3.33624 -0.589961 0
M  V30 3322 C 306.008 -3.6153 -1.04753 0
M  V30 3323 C 305.155 -2.7714 -0.0943327 0
M  V30 3324 H 308.106 -1.53161 0.415612 0
M  V30 3325 H 308.127 -3.52213 -1.43966 0
M  V30 3326 H 307.639 -3.86495 0.352588 0
M  V30 3327 H 305.74 -3.14089 -2.00447 0
M  V30 3328 H 305.853 -4.69737 -0.942549 0
M  V30 3329 H 304.217 -2.47638 -0.595589 0
M  V30 3330 H 305 -3.32799 0.842601 0
M  V30 3331 N 307.445 0.0818655 -1.57387 0
M  V30 3332 C 308.722 0.815343 -1.77796 0
M  V30 3333 C 309.102 1.96289 -0.77679 0
M  V30 3334 O 308.45 2.27691 0.192106 0
M  V30 3335 C 308.66 1.29765 -3.23978 0
M  V30 3336 C 310.008 1.7351 -3.8753 0
M  V30 3337 O 311.032 1.39356 -3.27808 0
M  V30 3338 O 309.891 2.36708 -4.92576 0
M  V30 3339 H 306.985 0.389914 -0.729312 0
M  V30 3340 H 309.531 0.0627213 -1.69584 0
M  V30 3341 H 308.303 0.47608 -3.88393 0
M  V30 3342 H 307.926 2.11189 -3.36875 0
M  V30 3343 N 308.923 1.53595 0.353017 0
M  V30 3344 C 310.151 1.74311 1.1146 0
M  V30 3345 C 310.566 0.477854 1.82653 0
M  V30 3346 O 309.923 -0.549977 1.74016 0
M  V30 3347 C 309.974 2.91694 2.13534 0
M  V30 3348 O 309.695 4.13325 1.45238 0
M  V30 3349 C 311.196 3.24384 3.02142 0
M  V30 3350 H 308.416 0.582669 0.332773 0
M  V30 3351 H 310.96 2.00386 0.408107 0
M  V30 3352 H 309.115 2.67977 2.79763 0
M  V30 3353 H 309.529 4.79148 2.13349 0
M  V30 3354 H 311.003 4.09893 3.69718 0
M  V30 3355 H 311.48 2.40282 3.67643 0
M  V30 3356 H 312.086 3.50073 2.41514 0
M  V30 3357 N 310.401 -0.613514 1.45168 0
M  V30 3358 C 311.812 -1.19539 1.43413 0
M  V30 3359 C 312.163 -1.95558 0.158632 0
M  V30 3360 O 311.288 -2.0335 -0.740119 0
M  V30 3361 C 311.883 -2.17445 2.59813 0
M  V30 3362 C 310.442 -2.71022 2.61197 0
M  V30 3363 C 309.589 -1.46323 2.35552 0
M  V30 3364 H 312.54 -0.403163 1.53494 0
M  V30 3365 H 312.561 -3.00373 2.33574 0
M  V30 3366 H 312.073 -1.62089 3.52631 0
M  V30 3367 H 310.174 -3.30332 1.7237 0
M  V30 3368 H 310.287 -3.15859 3.60236 0
M  V30 3369 H 308.651 -1.75072 1.84992 0
M  V30 3370 H 309.434 -0.92844 3.30507 0
M  V30 3371 N 311.879 -1.3236 -0.855495 0
M  V30 3372 C 313.107 -1.2587 -1.64208 0
M  V30 3373 C 313.522 0.173457 -1.88002 0
M  V30 3374 O 312.879 1.11027 -1.44842 0
M  V30 3375 C 312.93 -2.01424 -3.00184 0
M  V30 3376 O 312.651 -3.39051 -2.77445 0
M  V30 3377 C 314.152 -2.01948 -3.94629 0
M  V30 3378 H 311.372 -0.434318 -0.511477 0
M  V30 3379 H 313.916 -1.74469 -1.0668 0
M  V30 3380 H 312.071 -1.56549 -3.5436 0
M  V30 3381 H 312.485 -3.77711 -3.63916 0
M  V30 3382 H 313.959 -2.59297 -4.87308 0
M  V30 3383 H 314.436 -1.00554 -4.27534 0
M  V30 3384 H 315.042 -2.46767 -3.4639 0
M  V30 3385 N 313.357 1.07166 -1.15556 0
M  V30 3386 C 314.267 2.17947 -0.868116 0
M  V30 3387 C 315.283 1.73297 0.156297 0
M  V30 3388 O 316.459 2.01392 -0.0182327 0
M  V30 3389 C 313.524 3.44789 -0.36355 0
M  V30 3390 C 312.585 4.03996 -1.45209 0
M  V30 3391 C 311.818 5.24783 -0.971508 0
M  V30 3392 O 312.041 5.70109 0.182194 0
M  V30 3393 O 310.975 5.75715 -1.75603 0
M  V30 3394 H 314.801 2.4503 -1.79427 0
M  V30 3395 H 312.386 1.16539 -0.934824 0
M  V30 3396 H 314.268 4.21307 -0.0887113 0
M  V30 3397 H 312.943 3.19253 0.534708 0
M  V30 3398 H 311.85 3.29009 -1.78056 0
M  V30 3399 H 313.183 4.33808 -2.32533 0
M  V30 3400 N 314.835 0.952656 1.25548 0
M  V30 3401 C 315.765 0.489287 2.28316 0
M  V30 3402 C 316.746 -0.463359 1.63667 0
M  V30 3403 O 317.931 -0.36274 1.90782 0
M  V30 3404 C 315.061 -0.235603 3.465 0
M  V30 3405 C 314.015 0.631593 4.23314 0
M  V30 3406 C 313.341 -0.223923 5.34231 0
M  V30 3407 C 314.641 1.90871 4.86174 0
M  V30 3408 H 316.335 1.34822 2.67326 0
M  V30 3409 H 313.881 0.649728 1.28509 0
M  V30 3410 H 315.834 -0.570882 4.17515 0
M  V30 3411 H 314.558 -1.12877 3.06474 0
M  V30 3412 H 313.217 0.949929 3.54079 0
M  V30 3413 H 312.865 -1.11678 4.90446 0
M  V30 3414 H 312.565 0.35299 5.86539 0
M  V30 3415 H 314.089 -0.554214 6.0808 0
M  V30 3416 H 315.503 1.63997 5.49343 0
M  V30 3417 H 313.9 2.43112 5.4865 0
M  V30 3418 H 314.97 2.61304 4.08471 0
M  V30 3419 N 316.313 -1.40141 0.720998 0
M  V30 3420 C 317.729 -1.54632 0.395113 0
M  V30 3421 C 317.929 -1.69115 -1.09555 0
M  V30 3422 O 316.985 -1.68377 -1.88163 0
M  V30 3423 C 318.298 -2.77177 1.1659 0
M  V30 3424 C 319.846 -2.91 1.15274 0
M  V30 3425 C 320.321 -4.16465 1.90579 0
M  V30 3426 N 321.812 -4.23476 1.87675 0
M  V30 3427 C 322.547 -5.19475 2.42762 0
M  V30 3428 N 322.043 -6.21348 3.06428 0
M  V30 3429 N 323.836 -5.11592 2.32874 0
M  V30 3430 H 315.987 -1.28986 1.68749 0
M  V30 3431 H 318.25 -0.62412 0.713567 0
M  V30 3432 H 317.956 -2.72771 2.22011 0
M  V30 3433 H 317.83 -3.69442 0.76108 0
M  V30 3434 H 320.217 -2.94907 0.106702 0
M  V30 3435 H 320.298 -1.99838 1.59682 0
M  V30 3436 H 319.942 -4.1332 2.95176 0
M  V30 3437 H 319.872 -5.06646 1.43587 0
M  V30 3438 H 322.363 -3.50497 1.41281 0
M  V30 3439 H 322.676 -6.91034 3.45965 0
M  V30 3440 H 321.021 -6.21777 3.10514 0
M  V30 3441 H 324.212 -4.30936 1.82789 0
M  V30 3442 H 324.385 -5.86233 2.76106 0
M  V30 3443 N 317.792 -0.46758 -1.50504 0
M  V30 3444 C 318.755 0.317059 -2.26996 0
M  V30 3445 C 319.755 0.923513 -1.31635 0
M  V30 3446 O 320.945 0.793239 -1.55091 0
M  V30 3447 C 318.077 1.45134 -3.08462 0
M  V30 3448 H 319.27 -0.353723 -2.97807 0
M  V30 3449 H 316.823 -0.221545 -1.54722 0
M  V30 3450 H 317.558 2.15728 -2.4214 0
M  V30 3451 H 317.343 1.02232 -3.78538 0
M  V30 3452 H 318.833 2.00493 -3.66323 0
M  V30 3453 O 319.309 1.5785 -0.341429 0
M  V30 3454 H 320 1.92508 0.21453 0
M  V30 END ATOM
M  V30 BEGIN BOND
M  V30 END BOND
M  V30 END CTAB
M  END
$$$$
