drugbank_target|Q96GD3 Polycomb protein SCMH1 (DB03345)
 OpenBabel12092120563D

  0  0  0     0  0            999 V3000
M  V30 BEGIN CTAB
M  V30 COUNTS 10304 10442 0 0 0
M  V30 BEGIN ATOM
M  V30 1 H -0.908 1.98254 -0.117106 0
M  V30 2 N 0 1.576 0 0
M  V30 3 C 0.933 2.03868 1.02534 0
M  V30 4 C 1.911 0.928543 1.3348 0
M  V30 5 O 3.095 1.19667 1.45644 0
M  V30 6 C 0.222 2.43627 2.35294 0
M  V30 7 C -0.732 3.65373 2.2001 0
M  V30 8 S 0.101 5.13292 1.52614 0
M  V30 9 C 1.257 5.56322 2.86805 0
M  V30 10 H 1.49 2.90518 0.631377 0
M  V30 11 H -0.977 1.52953 0.210867 0
M  V30 12 H 0.981 2.67203 3.11629 0
M  V30 13 H -0.358 1.57376 2.7183 0
M  V30 14 H -1.165 3.90944 3.18086 0
M  V30 15 H -1.563 3.418 1.51819 0
M  V30 16 H 0.729 5.58782 3.83104 0
M  V30 17 H 1.672 6.56266 2.65933 0
M  V30 18 H 2.08 4.83886 2.90714 0
M  V30 19 N 1.4781 -0.272755 1.55222 0
M  V30 20 C 2.4081 -1.34136 1.91127 0
M  V30 21 C 3.3891 -1.51513 0.773168 0
M  V30 22 O 4.5741 -1.64552 1.03132 0
M  V30 23 C 1.7041 -2.70083 2.1834 0
M  V30 24 C 0.6581 -2.67437 3.34158 0
M  V30 25 C -0.0159 -4.06938 3.46851 0
M  V30 26 C 1.2841 -2.26686 4.70543 0
M  V30 27 H 2.9781 -1.04333 2.80633 0
M  V30 28 H 0.5241 -0.500454 1.35024 0
M  V30 29 H 2.4771 -3.44952 2.42046 0
M  V30 30 H 1.2011 -3.01469 1.25634 0
M  V30 31 H -0.1399 -1.95026 3.1042 0
M  V30 32 H -0.4919 -4.35547 2.51611 0
M  V30 33 H -0.7919 -4.06062 4.2472 0
M  V30 34 H 0.7321 -4.83545 3.72849 0
M  V30 35 H 2.1461 -2.91277 4.93792 0
M  V30 36 H 0.5431 -2.36971 5.5133 0
M  V30 37 H 1.6131 -1.21818 4.69349 0
M  V30 38 N 2.9562 -1.48159 -0.537278 0
M  V30 39 C 4.2022 -1.56035 -1.29541 0
M  V30 40 C 4.5352 -0.230377 -1.92829 0
M  V30 41 O 3.8102 0.762952 -1.78911 0
M  V30 42 C 4.0932 -2.69323 -2.39034 0
M  V30 43 C 3.9462 -4.12002 -1.80485 0
M  V30 44 C 5.2652 -2.78408 -3.40847 0
M  V30 45 H 2.3842 -0.567992 -0.469632 0
M  V30 46 H 5.0262 -1.80302 -0.599277 0
M  V30 47 H 3.1762 -2.48763 -2.98412 0
M  V30 48 H 4.8482 -4.43981 -1.25215 0
M  V30 49 H 3.0912 -4.19344 -1.11055 0
M  V30 50 H 3.7622 -4.87077 -2.59731 0
M  V30 51 H 6.2382 -2.97012 -2.91416 0
M  V30 52 H 5.1142 -3.59416 -4.14863 0
M  V30 53 H 5.3752 -1.86269 -4.00944 0
M  V30 54 N 4.4343 0.785586 -1.36625 0
M  V30 55 C 5.6743 1.55678 -1.32453 0
M  V30 56 C 6.0383 1.91769 0.0941089 0
M  V30 57 O 7.2393 2.67536 0.26042 0
M  V30 58 C 5.5103 2.79701 -2.22491 0
M  V30 59 S 7.0693 3.69907 -2.36038 0
M  V30 60 H 3.8873 0.533141 -0.470405 0
M  V30 61 H 6.4893 0.924953 -1.72235 0
M  V30 62 H 5.1933 2.51244 -3.24507 0
M  V30 63 H 4.7243 3.47854 -1.83742 0
M  V30 64 H 6.7393 4.71016 -1.56072 0
M  V30 65 N 5.9124 1.20967 1.01018 0
M  V30 66 C 7.1424 1.04803 1.78044 0
M  V30 67 C 7.5504 -0.405462 1.84804 0
M  V30 68 O 6.8934 -1.2932 1.30468 0
M  V30 69 C 6.9554 1.56377 3.23707 0
M  V30 70 C 6.6194 3.04767 3.40538 0
M  V30 71 C 7.6164 4.02366 3.29239 0
M  V30 72 C 5.3014 3.43862 3.66147 0
M  V30 73 C 7.2954 5.37049 3.43304 0
M  V30 74 C 4.9824 4.78699 3.79855 0
M  V30 75 C 5.9804 5.75101 3.68439 0
M  V30 76 O 5.6684 7.07493 3.81719 0
M  V30 77 H 5.4004 0.368778 0.56655 0
M  V30 78 H 7.9544 1.60642 1.27997 0
M  V30 79 H 6.1844 0.949297 3.74867 0
M  V30 80 H 7.8734 1.36136 3.8239 0
M  V30 81 H 8.6394 3.73506 3.09384 0
M  V30 82 H 4.5184 2.69364 3.74118 0
M  V30 83 H 8.0624 6.12277 3.34309 0
M  V30 84 H 3.9594 5.07247 3.99213 0
M  V30 85 H 4.7274 7.1483 3.98697 0
M  V30 86 N 7.3905 -1.2043 1.01659 0
M  V30 87 C 8.6155 -1.94318 0.724942 0
M  V30 88 C 9.0405 -1.74266 -0.708034 0
M  V30 89 O 8.3985 -1.03694 -1.48719 0
M  V30 90 C 8.4465 -3.44486 1.06591 0
M  V30 91 O 7.5505 -4.12017 0.177599 0
M  V30 92 H 6.8915 -0.60708 0.26898 0
M  V30 93 H 9.4215 -1.52861 1.35995 0
M  V30 94 H 9.4315 -3.95106 1.01762 0
M  V30 95 H 8.1065 -3.58404 2.10997 0
M  V30 96 H 6.6835 -3.71821 0.283421 0
M  V30 97 N 8.8686 -0.792821 -1.36206 0
M  V30 98 C 10.1146 -0.36733 -1.99446 0
M  V30 99 C 10.4476 1.05917 -1.62774 0
M  V30 100 O 9.7226 1.7324 -0.88421 0
M  V30 101 C 10.0056 -0.535044 -3.56103 0
M  V30 102 C 9.8586 -2.00548 -4.02617 0
M  V30 103 C 11.1776 0.0478191 -4.40074 0
M  V30 104 H 8.2966 -0.134941 -0.724541 0
M  V30 105 H 10.9386 -0.999794 -1.61568 0
M  V30 106 H 9.0886 0.00336329 -3.885 0
M  V30 107 H 10.7606 -2.60521 -3.80692 0
M  V30 108 H 9.0036 -2.50686 -3.54032 0
M  V30 109 H 9.6746 -2.07377 -5.11565 0
M  V30 110 H 12.1506 -0.411822 -4.14057 0
M  V30 111 H 11.0266 -0.0995336 -5.4881 0
M  V30 112 H 11.2876 1.14025 -4.27142 0
M  V30 113 N 10.3467 1.47872 -0.545128 0
M  V30 114 C 11.2767 2.32661 0.197793 0
M  V30 115 C 12.2577 1.43041 0.920504 0
M  V30 116 O 13.4427 1.71912 0.90333 0
M  V30 117 C 10.5727 3.24569 1.23582 0
M  V30 118 C 9.5267 4.23333 0.630323 0
M  V30 119 C 8.8527 5.0448 1.77211 0
M  V30 120 C 10.1527 5.20704 -0.407974 0
M  V30 121 H 11.8467 2.95024 -0.510045 0
M  V30 122 H 9.3927 1.4187 -0.246731 0
M  V30 123 H 11.3457 3.8272 1.76362 0
M  V30 124 H 10.0697 2.60236 1.97344 0
M  V30 125 H 8.7287 3.6639 0.123922 0
M  V30 126 H 8.3767 4.36561 2.49847 0
M  V30 127 H 8.0767 5.71339 1.37281 0
M  V30 128 H 9.6007 5.65487 2.3034 0
M  V30 129 H 11.0147 5.7329 0.033305 0
M  V30 130 H 9.4117 5.95699 -0.725486 0
M  V30 131 H 10.4817 4.66917 -1.30828 0
M  V30 132 N 11.8248 0.280983 1.55075 0
M  V30 133 C 12.7878 -0.590896 2.21452 0
M  V30 134 C 13.7878 -1.07682 1.19421 0
M  V30 135 O 14.9778 -0.97605 1.44288 0
M  V30 136 C 12.1098 -1.81587 2.88511 0
M  V30 137 H 13.3028 -0.0112554 2.99898 0
M  V30 138 H 10.8558 0.0316438 1.56268 0
M  V30 139 H 11.5908 -2.43587 2.14093 0
M  V30 140 H 11.3758 -1.4753 3.63287 0
M  V30 141 H 12.8658 -2.43575 3.39206 0
M  V30 142 N 13.3029 -1.57598 0.00835791 0
M  V30 143 C 14.5429 -1.92788 -0.679136 0
M  V30 144 C 14.9069 -0.883378 -1.70471 0
M  V30 145 O 16.1079 -1.12079 -2.44319 0
M  V30 146 C 14.3789 -3.32994 -1.29807 0
M  V30 147 S 15.9379 -3.90082 -2.00952 0
M  V30 148 H 12.7559 -0.67475 -0.224127 0
M  V30 149 H 15.3579 -1.95385 0.0670497 0
M  V30 150 H 14.0619 -4.06846 -0.538922 0
M  V30 151 H 13.5929 -3.33791 -2.082 0
M  V30 152 H 15.6079 -3.71834 -3.28563 0
M  V30 153 N 14.781 0.264519 -1.55364 0
M  V30 154 C 15.691 1.34902 -1.91934 0
M  V30 155 C 16.707 1.53595 -0.817593 0
M  V30 156 O 17.883 1.67558 -1.11742 0
M  V30 157 C 14.948 2.68676 -2.19121 0
M  V30 158 C 14.009 2.58657 -3.4263 0
M  V30 159 C 13.242 3.86051 -3.68511 0
M  V30 160 O 13.465 4.87126 -2.96757 0
M  V30 161 O 12.399 3.85744 -4.62045 0
M  V30 162 H 16.225 1.06883 -2.8427 0
M  V30 163 H 13.81 0.463775 -1.42019 0
M  V30 164 H 15.692 3.47759 -2.37995 0
M  V30 165 H 14.367 2.96463 -1.29966 0
M  V30 166 H 13.274 1.7792 -3.29082 0
M  V30 167 H 14.607 2.35818 -4.32031 0
M  V30 168 N 16.2591 1.48442 0.529413 0
M  V30 169 C 17.5081 1.55742 1.28169 0
M  V30 170 C 17.8211 0.236511 1.94165 0
M  V30 171 O 19.0271 0.187761 2.7085 0
M  V30 172 C 17.4831 2.74667 2.32564 0
M  V30 173 C 17.0911 4.13402 1.72636 0
M  V30 174 C 18.8351 2.9128 3.08798 0
M  V30 175 C 16.7421 5.23587 2.74975 0
M  V30 176 H 15.6721 0.579796 0.48203 0
M  V30 177 H 18.3231 1.74776 0.559056 0
M  V30 178 H 16.7051 2.49067 3.07866 0
M  V30 179 H 17.8791 4.49022 1.03519 0
M  V30 180 H 16.1941 4.0191 1.08892 0
M  V30 181 H 18.7911 3.70767 3.85274 0
M  V30 182 H 19.1341 2.00757 3.64695 0
M  V30 183 H 19.6671 3.16782 2.40611 0
M  V30 184 H 16.4061 6.16076 2.23897 0
M  V30 185 H 15.9261 4.92454 3.42417 0
M  V30 186 H 17.6051 5.51724 3.37949 0
M  V30 187 N 17.7372 -0.778329 1.37039 0
M  V30 188 C 18.6672 -1.90546 1.34962 0
M  V30 189 C 19.6482 -1.68681 0.219274 0
M  V30 190 O 20.8332 -1.89634 0.418624 0
M  V30 191 C 17.9632 -3.27734 1.14925 0
M  V30 192 C 16.9172 -3.64147 2.24902 0
M  V30 193 C 16.2432 -4.99806 1.89996 0
M  V30 194 C 17.5432 -3.71579 3.67051 0
M  V30 195 H 19.2372 -1.92541 2.29277 0
M  V30 196 H 16.7832 -0.924948 1.10366 0
M  V30 197 H 18.7362 -4.06215 1.12104 0
M  V30 198 H 17.4602 -3.26154 0.170631 0
M  V30 199 H 16.1192 -2.8797 2.26868 0
M  V30 200 H 15.7672 -4.94759 0.906796 0
M  V30 201 H 15.4672 -5.25139 2.63634 0
M  V30 202 H 16.9912 -5.80694 1.88749 0
M  V30 203 H 18.4052 -4.40227 3.67251 0
M  V30 204 H 16.8022 -4.08405 4.39688 0
M  V30 205 H 17.8722 -2.72404 4.01154 0
M  V30 206 N 19.2153 -1.21501 -1.00376 0
M  V30 207 C 20.4613 -1.04457 -1.74529 0
M  V30 208 C 20.8163 0.417386 -1.87818 0
M  V30 209 O 20.1093 1.30556 -1.40234 0
M  V30 210 C 20.3033 -1.67673 -3.15627 0
M  V30 211 C 20.1323 -3.19865 -3.16096 0
M  V30 212 C 18.9023 -3.88915 -3.22604 0
M  V30 213 C 21.1003 -4.16936 -3.01112 0
M  V30 214 N 19.0823 -5.28284 -3.12712 0
M  V30 215 C 20.4533 -5.43066 -2.99131 0
M  V30 216 C 22.5083 -4.07968 -2.85423 0
M  V30 217 C 21.2113 -6.6126 -2.83068 0
M  V30 218 C 23.2373 -5.258 -2.70718 0
M  V30 219 C 22.5993 -6.50842 -2.69414 0
M  V30 220 H 18.6983 -0.436584 -0.648782 0
M  V30 221 H 21.2823 -1.53875 -1.19293 0
M  V30 222 H 19.4533 -1.20822 -3.6913 0
M  V30 223 H 21.1853 -1.43824 -3.78281 0
M  V30 224 H 17.9403 -3.39847 -3.2985 0
M  V30 225 H 18.3643 -6.01284 -3.11105 0
M  V30 226 H 23.0063 -3.1209 -2.85236 0
M  V30 227 H 20.7243 -7.57298 -2.82002 0
M  V30 228 H 24.3103 -5.20683 -2.59577 0
M  V30 229 H 23.1903 -7.40485 -2.5817 0
M  V30 230 N 20.6934 1.19889 -1.02296 0
M  V30 231 C 21.9704 1.85148 -0.630832 0
M  V30 232 C 22.3504 1.91385 0.890782 0
M  V30 233 O 21.6984 1.42642 1.78509 0
M  V30 234 C 21.9084 3.24442 -1.28602 0
M  V30 235 C 23.2564 4.00663 -1.4055 0
M  V30 236 O 24.2804 3.33818 -1.24273 0
M  V30 237 O 23.1394 5.20387 -1.66913 0
M  V30 238 H 20.2334 0.797613 -0.218499 0
M  V30 239 H 22.7794 1.27427 -1.12074 0
M  V30 240 H 21.5514 3.14704 -2.32545 0
M  V30 241 H 21.1744 3.89802 -0.7836 0
M  V30 242 N 22.1715 0.800033 1.35784 0
M  V30 243 C 23.1015 0.220184 2.3246 0
M  V30 244 C 24.0825 -0.65073 1.57161 0
M  V30 245 O 25.2675 -0.582359 1.85263 0
M  V30 246 C 22.3975 -0.637353 3.41402 0
M  V30 247 C 21.3515 0.134531 4.27789 0
M  V30 248 C 20.6775 -0.844285 5.27992 0
M  V30 249 C 21.9775 1.32979 5.05088 0
M  V30 250 H 23.6715 1.02787 2.81203 0
M  V30 251 H 21.2175 0.495717 1.35199 0
M  V30 252 H 23.1705 -1.05302 4.08031 0
M  V30 253 H 21.8945 -1.47785 2.91251 0
M  V30 254 H 20.5535 0.531296 3.6273 0
M  V30 255 H 20.2015 -1.68011 4.74111 0
M  V30 256 H 19.9015 -0.332184 5.8666 0
M  V30 257 H 21.4255 -1.2583 5.97494 0
M  V30 258 H 22.8395 0.98934 5.64699 0
M  V30 259 H 21.2365 1.77593 5.7322 0
M  V30 260 H 22.3065 2.11978 4.36111 0
M  V30 261 N 23.6496 -1.47581 0.552962 0
M  V30 262 C 25.0606 -1.86324 0.118463 0
M  V30 263 C 25.4116 -1.46006 -1.3106 0
M  V30 264 O 24.5366 -0.861182 -1.98526 0
M  V30 265 C 25.1316 -3.3816 0.20821 0
M  V30 266 C 23.6906 -3.7601 -0.171226 0
M  V30 267 C 22.8376 -2.71634 0.557686 0
M  V30 268 H 25.7886 -1.39159 0.762928 0
M  V30 269 H 25.8096 -3.76141 -0.574278 0
M  V30 270 H 25.3216 -3.67473 1.24841 0
M  V30 271 H 23.4226 -3.52313 -1.21269 0
M  V30 272 H 23.5356 -4.78745 0.184379 0
M  V30 273 H 21.8996 -2.547 0.00125792 0
M  V30 274 H 22.6826 -3.0379 1.59896 0
M  V30 275 N 25.1277 -0.289203 -1.54924 0
M  V30 276 C 26.3677 0.324536 -2.01807 0
M  V30 277 C 26.7317 1.5199 -1.17316 0
M  V30 278 O 27.9327 2.20422 -1.53843 0
M  V30 279 C 26.2037 0.683578 -3.50802 0
M  V30 280 S 27.7627 1.28185 -4.19659 0
M  V30 281 H 24.5807 0.100236 -0.703899 0
M  V30 282 H 27.1827 -0.414325 -1.91059 0
M  V30 283 H 25.8867 -0.195073 -4.09936 0
M  V30 284 H 25.4177 1.45354 -3.65562 0
M  V30 285 H 27.4327 2.57006 -4.24456 0
M  V30 286 N 26.6058 1.57591 -0.0167156 0
M  V30 287 C 27.8308 1.9598 0.67872 0
M  V30 288 C 28.2558 0.892546 1.65575 0
M  V30 289 O 27.6138 -0.147772 1.80697 0
M  V30 290 C 27.6618 3.33468 1.37227 0
M  V30 291 O 26.7658 3.28954 2.48722 0
M  V30 292 H 26.1068 0.639339 0.17928 0
M  V30 293 H 28.6368 2.04463 -0.0748802 0
M  V30 294 H 28.6468 3.69417 1.7319 0
M  V30 295 H 27.3218 4.10694 0.656007 0
M  V30 296 H 25.8988 3.04705 2.14963 0
M  V30 297 N 28.0839 -0.256276 1.55502 0
M  V30 298 C 29.3329 -0.983486 1.76098 0
M  V30 299 C 29.6459 -1.86837 0.578896 0
M  V30 300 O 30.8519 -2.63163 0.667648 0
M  V30 301 C 29.3079 -1.79868 3.1173 0
M  V30 302 C 28.9159 -0.961648 4.37557 0
M  V30 303 C 30.6599 -2.51919 3.41668 0
M  V30 304 C 28.5669 -1.77219 5.64223 0
M  V30 305 H 27.4969 -0.370936 0.656447 0
M  V30 306 H 30.1479 -0.238492 1.81944 0
M  V30 307 H 28.5299 -2.58527 2.99966 0
M  V30 308 H 29.7039 -0.218048 4.60284 0
M  V30 309 H 28.0189 -0.354913 4.14885 0
M  V30 310 H 30.6159 -3.12998 4.33516 0
M  V30 311 H 30.9589 -3.23059 2.62562 0
M  V30 312 H 31.4919 -1.80278 3.54605 0
M  V30 313 H 28.2309 -1.10471 6.46124 0
M  V30 314 H 27.7509 -2.49132 5.45613 0
M  V30 315 H 29.4299 -2.34169 6.03137 0
M  V30 316 N 29.562 -1.4872 -0.521534 0
M  V30 317 C 30.495 -1.58451 -1.64221 0
M  V30 318 C 31.473 -0.434513 -1.56687 0
M  V30 319 O 32.657 -0.647275 -1.77038 0
M  V30 320 C 29.784 -1.52037 -3.02659 0
M  V30 321 C 28.83 -2.71981 -3.28525 0
M  V30 322 S 29.663 -4.33869 -3.13876 0
M  V30 323 C 30.819 -4.30067 -4.54745 0
M  V30 324 H 31.052 -2.53256 -1.55719 0
M  V30 325 H 28.585 -1.37358 -0.705143 0
M  V30 326 H 30.543 -1.49023 -3.82495 0
M  V30 327 H 29.204 -0.585541 -3.08594 0
M  V30 328 H 28.397 -2.63656 -4.29536 0
M  V30 329 H 27.999 -2.72302 -2.56374 0
M  V30 330 H 30.291 -4.00521 -5.46433 0
M  V30 331 H 31.234 -5.31287 -4.68123 0
M  V30 332 H 31.642 -3.60419 -4.34463 0
M  V30 333 N 31.0401 0.771051 -1.3745 0
M  V30 334 C 32.2881 1.52661 -1.32435 0
M  V30 335 C 32.6091 1.9479 0.0905024 0
M  V30 336 O 31.8791 1.66348 1.03466 0
M  V30 337 H 30.4591 0.566218 -0.487244 0
M  V30 338 H 33.1211 0.917636 -1.71946 0
M  V30 339 H 32.2171 2.42568 -1.96385 0
M  V30 340 N 32.5182 1.22032 0.997298 0
M  V30 341 C 33.7432 1.06921 1.77715 0
M  V30 342 C 34.1682 -0.376226 1.84299 0
M  V30 343 O 33.5262 -1.27165 1.29223 0
M  V30 344 C 33.5742 1.67996 3.19076 0
M  V30 345 O 32.6782 0.930653 4.01762 0
M  V30 346 H 32.0192 0.375814 0.547412 0
M  V30 347 H 34.5492 1.61737 1.25309 0
M  V30 348 H 34.5592 1.72538 3.69723 0
M  V30 349 H 33.2342 2.73182 3.13599 0
M  V30 350 H 31.8112 0.960917 3.60307 0
M  V30 351 N 33.9963 -1.19345 1.0293 0
M  V30 352 C 35.4073 -1.70725 0.755633 0
M  V30 353 C 35.7583 -1.82326 -0.724676 0
M  V30 354 O 34.8833 -1.49471 -1.56484 0
M  V30 355 C 35.4783 -3.10084 1.36503 0
M  V30 356 C 34.0373 -3.58723 1.13994 0
M  V30 357 C 33.1843 -2.35577 1.46283 0
M  V30 358 H 36.1353 -1.0418 1.19718 0
M  V30 359 H 36.1563 -3.72787 0.762217 0
M  V30 360 H 35.6683 -3.01609 2.44241 0
M  V30 361 H 33.7693 -3.72512 0.0807901 0
M  V30 362 H 33.8823 -4.42816 1.82894 0
M  V30 363 H 32.2463 -2.38935 0.88217 0
M  V30 364 H 33.0293 -2.29731 2.55105 0
M  V30 365 N 35.4744 -0.807222 -1.35358 0
M  V30 366 C 36.4044 -0.232509 -2.3234 0
M  V30 367 C 37.3854 0.642386 -1.57504 0
M  V30 368 O 38.5704 0.572526 -1.85569 0
M  V30 369 C 35.7004 0.619238 -3.41735 0
M  V30 370 C 34.6544 -0.157215 -4.27711 0
M  V30 371 C 33.9804 0.816273 -5.28433 0
M  V30 372 C 35.2804 -1.35656 -5.04376 0
M  V30 373 H 36.9744 -1.04276 -2.80654 0
M  V30 374 H 34.5204 -0.50288 -1.34934 0
M  V30 375 H 36.4734 1.03137 -4.08584 0
M  V30 376 H 35.1974 1.46239 -2.92031 0
M  V30 377 H 33.8564 -0.550525 -3.62443 0
M  V30 378 H 33.5044 1.65494 -4.74996 0
M  V30 379 H 33.2044 0.301067 -5.86828 0
M  V30 380 H 34.7284 1.22659 -5.98153 0
M  V30 381 H 36.1424 -1.01927 -5.64166 0
M  V30 382 H 34.5394 -1.8063 -5.7227 0
M  V30 383 H 35.6094 -2.14288 -4.34981 0
M  V30 384 N 36.9525 1.47285 -0.560781 0
M  V30 385 C 38.2005 2.02064 -0.0379868 0
M  V30 386 C 38.5215 1.43711 1.31803 0
M  V30 387 O 37.7915 0.61362 1.86042 0
M  V30 388 H 36.3715 0.746918 -0.0110531 0
M  V30 389 H 39.0335 1.80648 -0.731598 0
M  V30 390 H 38.1295 3.12064 0.0474463 0
M  V30 391 N 38.4306 0.297415 1.54768 0
M  V30 392 C 39.3806 -0.595275 2.20092 0
M  V30 393 C 40.3646 -1.10163 1.17273 0
M  V30 394 O 41.5566 -1.043 1.43006 0
M  V30 395 C 38.6856 -1.7684 2.94249 0
M  V30 396 C 37.7716 -1.27818 4.0438 0
M  V30 397 N 38.1626 -0.505695 5.03266 0
M  V30 398 C 36.4606 -1.55923 4.17857 0
M  V30 399 C 37.1616 -0.245094 5.81183 0
M  V30 400 N 36.1376 -0.823881 5.3732 0
M  V30 401 H 39.9396 0.00250837 2.939 0
M  V30 402 H 37.4536 0.102007 1.62079 0
M  V30 403 H 39.4506 -2.41944 3.39513 0
M  V30 404 H 38.1106 -2.36992 2.21957 0
M  V30 405 H 39.1216 -0.150928 5.1768 0
M  V30 406 H 35.7986 -2.16849 3.56767 0
M  V30 407 H 37.1886 0.375084 6.70852 0
M  V30 408 N 39.9087 -1.5758 0.0250728 0
M  V30 409 C 41.1557 -1.91633 -0.654444 0
M  V30 410 C 41.4837 -0.901103 -1.72367 0
M  V30 411 O 40.7387 0.0905647 -1.9549 0
M  V30 412 C 41.0377 -3.32421 -1.31268 0
M  V30 413 C 40.7037 -4.49344 -0.374223 0
M  V30 414 C 39.3657 -4.8106 -0.115911 0
M  V30 415 C 41.7177 -5.20498 0.270432 0
M  V30 416 C 39.0457 -5.8129 0.79493 0
M  V30 417 C 41.3977 -6.21699 1.1693 0
M  V30 418 C 40.0617 -6.51859 1.43655 0
M  V30 419 H 39.3317 -0.701236 -0.239478 0
M  V30 420 H 41.9787 -1.91307 0.0859734 0
M  V30 421 H 40.2837 -3.28989 -2.12775 0
M  V30 422 H 41.9807 -3.56038 -1.84494 0
M  V30 423 H 38.5707 -4.24579 -0.58573 0
M  V30 424 H 42.7547 -4.96229 0.0839194 0
M  V30 425 H 38.0107 -6.03005 1.00973 0
M  V30 426 H 42.1847 -6.75955 1.67504 0
M  V30 427 H 39.8117 -7.2934 2.144 0
M  V30 428 N 41.3868 0.248026 -1.55636 0
M  V30 429 C 42.6148 0.993808 -1.81469 0
M  V30 430 C 43.0298 1.78991 -0.60064 0
M  V30 431 O 42.3868 1.77345 0.430682 0
M  V30 432 C 42.4378 1.93258 -3.05506 0
M  V30 433 O 42.1588 1.16869 -4.22224 0
M  V30 434 C 43.6598 2.79444 -3.4413 0
M  V30 435 H 40.8798 0.292486 -0.603898 0
M  V30 436 H 43.4238 0.271253 -2.02693 0
M  V30 437 H 41.5788 2.60943 -2.86335 0
M  V30 438 H 41.9928 1.80359 -4.92515 0
M  V30 439 H 43.4668 3.41066 -4.34026 0
M  V30 440 H 43.9438 3.50499 -2.64665 0
M  V30 441 H 44.5498 2.17214 -3.65648 0
M  V30 442 N 42.8649 1.48995 0.513639 0
M  V30 443 C 44.1109 1.59053 1.26783 0
M  V30 444 C 44.4659 0.268136 1.90522 0
M  V30 445 O 43.7589 -0.730534 1.77126 0
M  V30 446 C 43.9529 2.67756 2.36731 0
M  V30 447 C 43.7819 4.10437 1.83771 0
M  V30 448 C 42.5519 4.7738 1.65639 0
M  V30 449 C 44.7499 4.9608 1.35681 0
M  V30 450 N 42.7319 6.04419 1.07476 0
M  V30 451 C 44.1029 6.13496 0.895715 0
M  V30 452 C 46.1579 4.82177 1.24136 0
M  V30 453 C 44.8609 7.1854 0.3306 0
M  V30 454 C 46.8869 5.87358 0.690229 0
M  V30 455 C 46.2489 7.03993 0.239292 0
M  V30 456 H 42.3479 0.636463 0.454355 0
M  V30 457 H 44.9319 1.85948 0.577196 0
M  V30 458 H 43.1029 2.42655 3.03271 0
M  V30 459 H 44.8349 2.67406 3.0377 0
M  V30 460 H 41.5899 4.33974 1.8964 0
M  V30 461 H 42.0139 6.72214 0.803579 0
M  V30 462 H 46.6559 3.92329 1.57601 0
M  V30 463 H 44.3739 8.08098 -0.0163435 0
M  V30 464 H 47.9599 5.78658 0.603852 0
M  V30 465 H 46.8399 7.83992 -0.180526 0
M  V30 466 N 44.343 -0.763751 1.37857 0
M  V30 467 C 45.62 -1.51244 1.24035 0
M  V30 468 C 46 -2.10472 -0.162649 0
M  V30 469 O 45.348 -1.96206 -1.17112 0
M  V30 470 C 45.558 -2.58694 2.34261 0
M  V30 471 C 46.906 -3.25878 2.72193 0
M  V30 472 O 47.93 -2.68993 2.33497 0
M  V30 473 O 46.789 -4.2874 3.38887 0
M  V30 474 H 43.883 -0.670243 0.484462 0
M  V30 475 H 46.429 -0.800031 1.49658 0
M  V30 476 H 45.201 -2.13105 3.2818 0
M  V30 477 H 44.824 -3.37527 2.10146 0
M  V30 478 N 45.8211 -1.22559 -0.990812 0
M  V30 479 C 46.7681 -0.997519 -2.0813 0
M  V30 480 C 47.7381 0.0814702 -1.659 0
M  V30 481 O 48.9231 -0.0685424 -1.90677 0
M  V30 482 C 46.0631 -0.583615 -3.40129 0
M  V30 483 C 45.1761 -1.7336 -3.9569 0
M  V30 484 C 44.3111 -1.26748 -5.15857 0
M  V30 485 C 43.3501 -2.38888 -5.63559 0
M  V30 486 N 42.4871 -1.93308 -6.74964 0
M  V30 487 H 47.3271 -1.93099 -2.26973 0
M  V30 488 H 44.8641 -0.962114 -1.11273 0
M  V30 489 H 46.8221 -0.324801 -4.15934 0
M  V30 490 H 45.4521 0.312845 -3.2128 0
M  V30 491 H 44.5041 -2.10669 -3.16738 0
M  V30 492 H 45.8161 -2.57704 -4.27071 0
M  V30 493 H 44.9701 -0.966173 -5.98957 0
M  V30 494 H 43.7091 -0.394272 -4.86104 0
M  V30 495 H 42.7141 -2.69805 -4.79046 0
M  V30 496 H 43.9391 -3.26728 -5.95336 0
M  V30 497 H 41.8851 -1.08352 -6.4699 0
M  V30 498 H 41.8021 -2.71217 -7.05675 0
M  V30 499 H 43.0701 -1.66252 -7.61564 0
M  V30 500 N 47.2992 1.18797 -1.03562 0
M  V30 501 C 48.5292 1.92319 -0.754773 0
M  V30 502 C 48.9372 1.7612 0.691248 0
M  V30 503 O 48.2802 1.08491 1.48241 0
M  V30 504 C 48.3422 3.44284 -1.03484 0
M  V30 505 C 48.0062 3.84258 -2.47376 0
M  V30 506 C 49.0032 3.88459 -3.45537 0
M  V30 507 C 46.6882 4.15701 -2.81954 0
M  V30 508 C 48.6822 4.23545 -4.76328 0
M  V30 509 C 46.3692 4.50458 -4.12954 0
M  V30 510 C 47.3672 4.54356 -5.09951 0
M  V30 511 O 47.0552 4.88305 -6.38603 0
M  V30 512 H 46.7872 0.617527 -0.275021 0
M  V30 513 H 49.3412 1.51683 -1.38497 0
M  V30 514 H 47.5712 3.85135 -0.347513 0
M  V30 515 H 49.2602 3.99049 -0.7426 0
M  V30 516 H 50.0262 3.6431 -3.20162 0
M  V30 517 H 45.9052 4.11847 -2.0713 0
M  V30 518 H 49.4492 4.26502 -5.52035 0
M  V30 519 H 45.3462 4.74067 -4.38099 0
M  V30 520 H 46.1142 5.06227 -6.43177 0
M  V30 521 N 48.7773 0.814389 1.34928 0
M  V30 522 C 49.7073 0.244827 2.32213 0
M  V30 523 C 50.6883 -0.634024 1.57842 0
M  V30 524 O 51.8733 -0.562676 1.8587 0
M  V30 525 C 49.0033 -0.601106 3.42058 0
M  V30 526 C 47.9573 0.179896 4.27622 0
M  V30 527 C 47.2833 -0.788237 5.28858 0
M  V30 528 C 48.5833 1.38329 5.03649 0
M  V30 529 H 50.2773 1.05763 2.80097 0
M  V30 530 H 47.8233 0.510029 1.34665 0
M  V30 531 H 49.7763 -1.00968 4.09125 0
M  V30 532 H 48.5003 -1.44688 2.92802 0
M  V30 533 H 47.1593 0.569739 3.62146 0
M  V30 534 H 46.8073 -1.62973 4.75866 0
M  V30 535 H 46.5073 -0.269942 5.8698 0
M  V30 536 H 48.0313 -1.19485 5.98795 0
M  V30 537 H 49.4453 1.04918 5.63618 0
M  V30 538 H 47.8423 1.83662 5.71304 0
M  V30 539 H 48.9123 2.16592 4.33839 0
M  V30 540 N 50.2554 -1.46986 0.568584 0
M  V30 541 C 51.2024 -2.30153 -0.172707 0
M  V30 542 C 52.1724 -1.39759 -0.897586 0
M  V30 543 O 53.3574 -1.68716 -0.891044 0
M  V30 544 C 50.4974 -3.23952 -1.1895 0
M  V30 545 C 49.6104 -4.29441 -0.469517 0
M  V30 546 C 48.7454 -5.1038 -1.47259 0
M  V30 547 C 47.7844 -6.07632 -0.738225 0
M  V30 548 N 46.9214 -6.8149 -1.68868 0
M  V30 549 H 51.7614 -2.93019 0.542596 0
M  V30 550 H 49.2984 -1.44422 0.279401 0
M  V30 551 H 51.2564 -3.76767 -1.79173 0
M  V30 552 H 49.8864 -2.62926 -1.87269 0
M  V30 553 H 48.9384 -3.79594 0.247467 0
M  V30 554 H 50.2504 -4.98689 0.105241 0
M  V30 555 H 49.4044 -5.67402 -2.14803 0
M  V30 556 H 48.1434 -4.4106 -2.08128 0
M  V30 557 H 47.1484 -5.49778 -0.0489293 0
M  V30 558 H 48.3734 -6.78966 -0.135129 0
M  V30 559 H 46.3194 -6.14891 -2.28573 0
M  V30 560 H 46.2364 -7.46948 -1.16636 0
M  V30 561 H 47.5044 -7.43078 -2.3549 0
M  V30 562 N 51.7335 -0.305618 -1.54608 0
M  V30 563 C 52.6435 0.57778 -2.27374 0
M  V30 564 C 53.6595 1.14451 -1.31061 0
M  V30 565 O 54.8355 1.16831 -1.6405 0
M  V30 566 C 51.9005 1.73123 -3.00382 0
M  V30 567 C 50.9615 1.19812 -4.12242 0
M  V30 568 C 50.1945 2.2966 -4.81759 0
M  V30 569 O 50.4175 3.49651 -4.50666 0
M  V30 570 O 49.3515 1.96091 -5.69062 0
M  V30 571 H 53.1775 -0.012624 -3.03697 0
M  V30 572 H 50.7625 -0.0719184 -1.49227 0
M  V30 573 H 52.6445 2.40315 -3.4616 0
M  V30 574 H 51.3195 2.30815 -2.26949 0
M  V30 575 H 50.2265 0.491798 -3.70853 0
M  V30 576 H 51.5595 0.666566 -4.87666 0
M  V30 577 N 53.2116 1.57565 -0.0334293 0
M  V30 578 C 54.4396 1.9628 0.654347 0
M  V30 579 C 54.8546 0.910138 1.65414 0
M  V30 580 O 54.2116 -0.107595 1.82183 0
M  V30 581 C 54.2626 3.35067 1.35693 0
M  V30 582 O 53.9836 4.36296 0.397191 0
M  V30 583 C 55.4846 3.88439 2.13613 0
M  V30 584 H 52.7046 0.646369 0.180132 0
M  V30 585 H 55.2486 2.04282 -0.0944721 0
M  V30 586 H 53.4036 3.2827 2.05712 0
M  V30 587 H 53.8176 5.1678 0.896597 0
M  V30 588 H 55.2916 4.8788 2.58219 0
M  V30 589 H 55.7686 3.22914 2.97696 0
M  V30 590 H 56.3746 3.98516 1.48543 0
M  V30 591 N 54.6897 -0.239769 1.55765 0
M  V30 592 C 55.9297 -0.974076 1.79697 0
M  V30 593 C 56.2937 -1.82249 0.604088 0
M  V30 594 O 57.4947 -2.58913 0.722324 0
M  V30 595 C 55.7657 -1.80595 3.08416 0
M  V30 596 S 57.3247 -2.59838 3.53596 0
M  V30 597 H 54.1427 -0.327524 0.63107 0
M  V30 598 H 56.7447 -0.241277 1.94005 0
M  V30 599 H 55.4487 -1.17249 3.93295 0
M  V30 600 H 54.9797 -2.58137 2.96865 0
M  V30 601 H 56.9947 -3.82987 3.15492 0
M  V30 602 N 56.1678 -1.49265 -0.50573 0
M  V30 603 C 57.3928 -1.62478 -1.28902 0
M  V30 604 C 57.8178 -0.294332 -1.85783 0
M  V30 605 O 57.1758 0.737412 -1.65626 0
M  V30 606 C 57.2238 -2.69268 -2.39848 0
M  V30 607 O 56.3278 -2.28113 -3.43567 0
M  V30 608 H 55.6688 -0.54399 -0.380751 0
M  V30 609 H 58.1988 -1.95421 -0.605952 0
M  V30 610 H 58.2088 -2.91291 -2.85681 0
M  V30 611 H 56.8838 -3.65846 -1.97812 0
M  V30 612 H 55.4608 -2.16401 -3.03685 0
M  V30 613 N 57.6459 0.756429 -1.3826 0
M  V30 614 C 58.8919 1.51772 -1.34511 0
M  V30 615 C 59.2249 1.94089 0.0656691 0
M  V30 616 O 58.4999 1.65221 1.02626 0
M  V30 617 C 58.7829 2.77226 -2.29821 0
M  V30 618 C 58.6359 2.41065 -3.79747 0
M  V30 619 C 59.9549 3.79236 -2.23312 0
M  V30 620 H 57.0739 0.550578 -0.489931 0
M  V30 621 H 59.7159 0.866607 -1.69086 0
M  V30 622 H 57.8659 3.32784 -2.00467 0
M  V30 623 H 59.5379 1.91303 -4.19763 0
M  V30 624 H 57.7809 1.7356 -3.97567 0
M  V30 625 H 58.4519 3.3081 -4.41892 0
M  V30 626 H 60.9279 3.3321 -2.49219 0
M  V30 627 H 59.8039 4.64714 -2.92116 0
M  V30 628 H 60.0649 4.24615 -1.23102 0
M  V30 629 N 59.124 1.23083 0.984299 0
M  V30 630 C 60.535 1.05609 1.5396 0
M  V30 631 C 60.886 -0.377793 1.92528 0
M  V30 632 O 60.011 -1.26398 1.75649 0
M  V30 633 C 60.606 1.91087 2.7977 0
M  V30 634 C 59.165 1.77885 3.31713 0
M  V30 635 C 58.312 1.87028 2.04733 0
M  V30 636 H 61.263 1.36802 0.804419 0
M  V30 637 H 61.284 1.43336 3.5247 0
M  V30 638 H 60.796 2.9544 2.51668 0
M  V30 639 H 58.897 0.762995 3.64704 0
M  V30 640 H 59.01 2.61047 4.01735 0
M  V30 641 H 57.374 1.30565 2.18689 0
M  V30 642 H 58.157 2.92929 1.79017 0
M  V30 643 N 60.6021 -1.18246 1.0419 0
M  V30 644 C 61.5651 -2.20128 0.638452 0
M  V30 645 C 62.5651 -1.57885 -0.304805 0
M  V30 646 O 63.7551 -1.73967 -0.0900369 0
M  V30 647 C 60.8871 -3.4084 -0.0637751 0
M  V30 648 H 62.0801 -2.57336 1.54007 0
M  V30 649 H 59.6331 -1.32152 0.834598 0
M  V30 650 H 60.3681 -3.09166 -0.979136 0
M  V30 651 H 60.1531 -3.8726 0.614198 0
M  V30 652 H 61.6431 -4.16274 -0.332512 0
M  V30 653 N 62.0802 -0.821533 -1.34494 0
M  V30 654 C 63.4912 -0.467956 -1.8074 0
M  V30 655 C 63.8422 1.01151 -1.68116 0
M  V30 656 O 62.9672 1.78707 -1.22036 0
M  V30 657 C 63.5622 -0.842627 -3.28154 0
M  V30 658 C 62.1212 -0.541439 -3.72485 0
M  V30 659 C 61.2682 -1.06028 -2.56229 0
M  V30 660 H 64.2192 -1.01183 -1.22261 0
M  V30 661 H 64.2402 -0.145876 -3.8022 0
M  V30 662 H 63.7522 -1.91945 -3.37311 0
M  V30 663 H 61.8532 0.526034 -3.68868 0
M  V30 664 H 61.9662 -1.08453 -4.66663 0
M  V30 665 H 60.3302 -0.481892 -2.501 0
M  V30 666 H 61.1132 -2.14352 -2.68157 0
M  V30 667 N 63.5583 1.46682 -0.576371 0
M  V30 668 C 64.8043 2.02712 -0.0596221 0
M  V30 669 C 65.1373 1.44765 1.29448 0
M  V30 670 O 64.4123 0.610355 1.84675 0
M  V30 671 C 64.6953 3.60098 0.0129503 0
M  V30 672 C 64.5483 4.28441 -1.3696 0
M  V30 673 C 65.8673 4.34224 0.71678 0
M  V30 674 H 62.9863 0.736637 -0.0231407 0
M  V30 675 H 65.6283 1.74898 -0.742351 0
M  V30 676 H 63.7783 3.83926 0.594378 0
M  V30 677 H 65.4503 4.15896 -1.9957 0
M  V30 678 H 63.6933 3.8805 -1.93907 0
M  V30 679 H 64.3643 5.3716 -1.27135 0
M  V30 680 H 66.8403 4.15503 0.222908 0
M  V30 681 H 65.7163 5.43936 0.73657 0
M  V30 682 H 65.9773 4.04823 1.77682 0
M  V30 683 N 65.0364 0.313813 1.54444 0
M  V30 684 C 65.9864 -0.571898 2.20711 0
M  V30 685 C 66.9704 -1.08913 1.18435 0
M  V30 686 O 68.1624 -1.02777 1.44104 0
M  V30 687 C 65.2914 -1.7371 2.96108 0
M  V30 688 C 64.3774 -1.23522 4.05713 0
M  V30 689 N 64.7684 -0.452288 5.03774 0
M  V30 690 C 63.0664 -1.51482 4.19487 0
M  V30 691 C 63.7674 -0.183438 5.81411 0
M  V30 692 N 62.7434 -0.766845 5.38164 0
M  V30 693 H 66.5454 0.0336802 2.93881 0
M  V30 694 H 64.0594 0.119192 1.61962 0
M  V30 695 H 66.0564 -2.38329 3.4206 0
M  V30 696 H 64.7164 -2.34625 2.24458 0
M  V30 697 H 65.7274 -0.0960131 5.17811 0
M  V30 698 H 62.4044 -2.13053 3.59047 0
M  V30 699 H 63.7944 0.446216 6.70417 0
M  V30 700 N 66.5145 -1.57545 0.0417849 0
M  V30 701 C 67.7545 -1.94185 -0.63809 0
M  V30 702 C 68.1185 -0.919339 -1.68559 0
M  V30 703 O 69.3195 -1.17236 -2.41886 0
M  V30 704 C 67.5905 -3.35672 -1.22714 0
M  V30 705 S 69.1495 -3.94256 -1.92633 0
M  V30 706 H 65.9675 -0.679353 -0.209764 0
M  V30 707 H 68.5695 -1.95199 0.108479 0
M  V30 708 H 67.2735 -4.07898 -0.452503 0
M  V30 709 H 66.8045 -3.38132 -2.01073 0
M  V30 710 H 68.8195 -3.7872 -3.20602 0
M  V30 711 N 67.9926 0.231505 -1.5589 0
M  V30 712 C 69.2396 0.957352 -1.78441 0
M  V30 713 C 69.5676 1.84726 -0.60882 0
M  V30 714 O 68.8226 1.91416 0.40725 0
M  V30 715 C 69.1216 1.83577 -3.0665 0
M  V30 716 C 68.7876 1.09993 -4.37278 0
M  V30 717 C 67.4496 0.896629 -4.72773 0
M  V30 718 C 69.8016 0.579558 -5.17968 0
M  V30 719 C 67.1296 0.160896 -5.86479 0
M  V30 720 C 69.4816 -0.142783 -6.32439 0
M  V30 721 C 68.1456 -0.357427 -6.66542 0
M  V30 722 H 67.4156 0.35032 -0.65296 0
M  V30 723 H 70.0626 0.226259 -1.90159 0
M  V30 724 H 68.3676 2.63441 -2.90011 0
M  V30 725 H 70.0646 2.39934 -3.21298 0
M  V30 726 H 66.6546 1.26835 -4.09403 0
M  V30 727 H 70.8386 0.724125 -4.90989 0
M  V30 728 H 66.0946 -0.0157293 -6.11398 0
M  V30 729 H 70.2686 -0.553559 -6.94196 0
M  V30 730 H 67.8956 -0.929466 -7.54497 0
M  V30 731 N 69.4707 1.49531 0.497807 0
M  V30 732 C 70.4177 1.66436 1.59899 0
M  V30 733 C 71.3877 0.505793 1.58212 0
M  V30 734 O 72.5727 0.733202 1.7615 0
M  V30 735 C 69.7127 1.7399 2.98029 0
M  V30 736 C 68.8257 3.01172 3.09708 0
M  V30 737 C 67.9607 2.99686 4.38591 0
M  V30 738 C 66.9997 4.21434 4.43914 0
M  V30 739 N 66.1367 4.1784 5.64229 0
M  V30 740 H 70.9767 2.60459 1.44793 0
M  V30 741 H 68.5137 1.29137 0.704423 0
M  V30 742 H 70.4717 1.76352 3.78095 0
M  V30 743 H 69.1017 0.834301 3.11832 0
M  V30 744 H 68.1537 3.08408 2.22685 0
M  V30 745 H 69.4657 3.91165 3.09502 0
M  V30 746 H 68.6197 3.00628 5.2698 0
M  V30 747 H 67.3587 2.07477 4.41367 0
M  V30 748 H 66.3637 4.20733 3.53926 0
M  V30 749 H 67.5887 5.14839 4.42851 0
M  V30 750 H 65.5347 3.28469 5.67841 0
M  V30 751 H 65.4517 5.01571 5.65652 0
M  V30 752 H 66.7197 4.22889 6.54817 0
M  V30 753 N 70.9488 -0.749086 1.3866 0
M  V30 754 C 71.8808 -1.87273 1.32142 0
M  V30 755 C 72.8938 -1.61127 0.232787 0
M  V30 756 O 74.0828 -1.71623 0.49069 0
M  V30 757 C 71.1828 -3.23005 1.02571 0
M  V30 758 C 70.3558 -3.7662 2.22433 0
M  V30 759 C 69.4148 -4.90879 1.89537 0
M  V30 760 O 68.4408 -5.05276 2.62078 0
M  V30 761 N 69.6428 -5.74198 0.853031 0
M  V30 762 H 72.4078 -1.93373 2.28969 0
M  V30 763 H 69.9688 -0.929216 1.32579 0
M  V30 764 H 71.9608 -3.96992 0.786085 0
M  V30 765 H 70.5308 -3.12262 0.145249 0
M  V30 766 H 69.7508 -2.94147 2.62434 0
M  V30 767 H 71.0388 -4.09173 3.02415 0
M  V30 768 H 70.4368 -5.6514 0.25155 0
M  V30 769 H 68.9938 -6.48313 0.67329 0
M  V30 770 N 72.4269 -1.23603 -0.977757 0
M  V30 771 C 73.6519 -1.09735 -1.75991 0
M  V30 772 C 74.0769 0.346858 -1.84874 0
M  V30 773 O 73.4349 1.25093 -1.3123 0
M  V30 774 C 73.4829 -1.73051 -3.16363 0
M  V30 775 O 72.5869 -0.994452 -4.0023 0
M  V30 776 H 71.9279 -0.384476 -0.541364 0
M  V30 777 H 74.4579 -1.6371 -1.2272 0
M  V30 778 H 74.4679 -1.78398 -3.66931 0
M  V30 779 H 73.1429 -2.78137 -3.09213 0
M  V30 780 H 71.7199 -1.01812 -3.58732 0
M  V30 781 N 73.905 1.17692 -1.04816 0
M  V30 782 C 75.135 1.91508 -0.775128 0
M  V30 783 C 75.543 1.76844 0.67253 0
M  V30 784 O 74.886 1.10057 1.47082 0
M  V30 785 C 74.948 3.43167 -1.0713 0
M  V30 786 C 74.612 3.81612 -2.51438 0
M  V30 787 C 75.609 3.84772 -3.49638 0
M  V30 788 C 73.294 4.12687 -2.86348 0
M  V30 789 C 75.288 4.18469 -4.80794 0
M  V30 790 C 72.975 4.46053 -4.17708 0
M  V30 791 C 73.973 4.48921 -5.14741 0
M  V30 792 O 73.661 4.81504 -6.43746 0
M  V30 793 H 73.393 0.614575 -0.281555 0
M  V30 794 H 75.947 1.50206 -1.40098 0
M  V30 795 H 74.177 3.84745 -0.388342 0
M  V30 796 H 75.866 3.98239 -0.784883 0
M  V30 797 H 76.632 3.60893 -3.24008 0
M  V30 798 H 72.511 4.09627 -2.11486 0
M  V30 799 H 76.055 4.20623 -5.56527 0
M  V30 800 H 71.952 4.69393 -4.43103 0
M  V30 801 H 72.72 4.99377 -6.4851 0
M  V30 802 N 75.3831 0.828654 1.34056 0
M  V30 803 C 76.6111 0.43262 2.02326 0
M  V30 804 C 77.0261 -0.963147 1.62385 0
M  V30 805 O 76.3831 -1.62425 0.832121 0
M  V30 806 C 76.4341 0.53182 3.57567 0
M  V30 807 O 76.1551 1.87258 3.96063 0
M  V30 808 C 77.6561 0.131422 4.43105 0
M  V30 809 H 74.8761 0.172923 0.648335 0
M  V30 810 H 77.4201 1.1184 1.71208 0
M  V30 811 H 75.5751 -0.105938 3.87255 0
M  V30 812 H 75.9891 1.85087 4.90758 0
M  V30 813 H 77.4631 0.251904 5.51425 0
M  V30 814 H 77.9401 -0.925645 4.29335 0
M  V30 815 H 78.5461 0.743207 4.18756 0
M  V30 816 N 76.8612 -1.46375 0.584142 0
M  V30 817 C 78.2722 -1.86031 0.157959 0
M  V30 818 C 78.6232 -1.48753 -1.27933 0
M  V30 819 O 77.7482 -0.903098 -1.96655 0
M  V30 820 C 78.3432 -3.37642 0.279892 0
M  V30 821 C 76.9022 -3.76289 -0.09143 0
M  V30 822 C 76.0492 -2.7039 0.615178 0
M  V30 823 H 79.0002 -1.37509 0.792274 0
M  V30 824 H 79.0212 -3.77275 -0.494364 0
M  V30 825 H 78.5332 -3.64742 1.32607 0
M  V30 826 H 76.6342 -3.54806 -1.13769 0
M  V30 827 H 76.7472 -4.78246 0.285886 0
M  V30 828 H 75.1112 -2.5464 0.0552833 0
M  V30 829 H 75.8942 -3.0033 1.66303 0
M  V30 830 N 78.3393 -0.321999 -1.54275 0
M  V30 831 C 79.7503 0.166384 -1.85957 0
M  V30 832 C 80.1013 1.51747 -1.24367 0
M  V30 833 O 79.2263 2.09317 -0.549124 0
M  V30 834 C 79.8213 0.308681 -3.37391 0
M  V30 835 C 78.3803 0.741286 -3.69028 0
M  V30 836 C 77.5273 -0.137937 -2.76957 0
M  V30 837 H 80.4783 -0.542335 -1.49146 0
M  V30 838 H 80.4993 1.13984 -3.63026 0
M  V30 839 H 80.0113 -0.674809 -3.82188 0
M  V30 840 H 78.1123 1.73458 -3.29762 0
M  V30 841 H 78.2253 0.546118 -4.75977 0
M  V30 842 H 76.5893 0.386251 -2.51754 0
M  V30 843 H 77.3723 -1.11816 -3.2458 0
M  V30 844 N 79.8174 1.5752 -0.0501392 0
M  V30 845 C 81.0424 1.97376 0.636997 0
M  V30 846 C 81.4674 0.927466 1.63645 0
M  V30 847 O 80.8254 -0.10941 1.8097 0
M  V30 848 C 80.8734 3.36304 1.30123 0
M  V30 849 O 79.9774 3.34156 2.41689 0
M  V30 850 H 79.3184 0.642998 0.165679 0
M  V30 851 H 81.8484 2.04258 -0.118233 0
M  V30 852 H 81.8584 3.73008 1.65315 0
M  V30 853 H 80.5334 4.11993 0.568746 0
M  V30 854 H 79.1104 3.09196 2.08451 0
M  V30 855 N 81.2955 -0.223234 1.56011 0
M  V30 856 C 82.2435 -1.29627 1.93131 0
M  V30 857 C 83.2375 -1.48608 0.813146 0
M  V30 858 O 84.4435 -1.49802 0.997966 0
M  V30 859 H 80.8185 -0.434563 0.613726 0
M  V30 860 H 82.7895 -0.955995 2.82672 0
M  V30 861 C 81.5385 -2.63983 2.26292 0
M  V30 862 H 80.8615 -2.50185 3.11846 0
M  V30 863 H 82.3015 -3.3788 2.56151 0
M  V30 864 C 80.7605 -3.18866 1.08747 0
M  V30 865 O 81.2905 -4.00192 0.347727 0
M  V30 866 N 79.4965 -2.77217 0.871743 0
M  V30 867 H 79.0435 -2.1119 1.47501 0
M  V30 868 H 79.0015 -3.1428 0.0869905 0
M  V30 869 N 82.7736 -1.49793 -0.48987 0
M  V30 870 C 83.6836 -1.70036 -1.61632 0
M  V30 871 C 84.6996 -0.583102 -1.63939 0
M  V30 872 O 85.8756 -0.859169 -1.82154 0
M  V30 873 C 82.9406 -1.77277 -2.97949 0
M  V30 874 C 82.0016 -3.00918 -3.06181 0
M  V30 875 C 81.2346 -3.07804 -4.35996 0
M  V30 876 O 81.4576 -2.21982 -5.25433 0
M  V30 877 O 80.3916 -4.00369 -4.49431 0
M  V30 878 H 84.2176 -2.65486 -1.47482 0
M  V30 879 H 81.8026 -1.33666 -0.667362 0
M  V30 880 H 83.6846 -1.84329 -3.78947 0
M  V30 881 H 82.3596 -0.850076 -3.12339 0
M  V30 882 H 81.2666 -2.99377 -2.2433 0
M  V30 883 H 82.5996 -3.92704 -2.96723 0
M  V30 884 N 84.2517 0.741722 -1.39055 0
M  V30 885 C 85.4987 1.50114 -1.35912 0
M  V30 886 C 85.8267 1.94443 0.0470937 0
M  V30 887 O 85.0817 1.66612 1.02659 0
M  V30 888 C 85.3807 2.7592 -2.27163 0
M  V30 889 C 85.0467 2.50493 -3.74919 0
M  V30 890 C 83.7087 2.43267 -4.1518 0
M  V30 891 C 86.0607 2.28585 -4.684 0
M  V30 892 C 83.3887 2.12166 -5.46994 0
M  V30 893 C 85.7407 1.99002 -6.00484 0
M  V30 894 C 84.4047 1.90241 -6.39816 0
M  V30 895 H 83.6747 0.549306 -0.497336 0
M  V30 896 H 86.3217 0.851896 -1.71508 0
M  V30 897 H 84.6267 3.45553 -1.84663 0
M  V30 898 H 86.3237 3.33923 -2.22028 0
M  V30 899 H 82.9137 2.56992 -3.43006 0
M  V30 900 H 87.0977 2.33139 -4.38132 0
M  V30 901 H 82.3537 2.03901 -5.76398 0
M  V30 902 H 86.5277 1.81057 -6.72452 0
M  V30 903 H 84.1547 1.65907 -7.41875 0
M  V30 904 N 85.7298 1.2412 0.971189 0
M  V30 905 C 86.6768 1.0305 2.06517 0
M  V30 906 C 87.6468 -0.0550666 1.66009 0
M  V30 907 O 88.8318 0.0988688 1.90544 0
M  V30 908 C 85.9718 0.637653 3.39158 0
M  V30 909 C 85.0848 1.79633 3.92882 0
M  V30 910 C 84.2198 1.34939 5.13775 0
M  V30 911 C 83.2588 2.47823 5.59687 0
M  V30 912 N 82.3958 2.04022 6.71803 0
M  V30 913 H 87.2358 1.96685 2.23873 0
M  V30 914 H 84.7728 0.979694 1.09729 0
M  V30 915 H 86.7308 0.390931 4.15364 0
M  V30 916 H 85.3608 -0.261693 3.21737 0
M  V30 917 H 84.4128 2.15681 3.13346 0
M  V30 918 H 85.7248 2.64466 4.22918 0
M  V30 919 H 84.8788 1.06134 5.97345 0
M  V30 920 H 83.6178 0.471557 4.85415 0
M  V30 921 H 82.6228 2.77392 4.74693 0
M  V30 922 H 83.8478 3.36158 5.90063 0
M  V30 923 H 81.7938 1.18632 6.45184 0
M  V30 924 H 81.7108 2.82409 7.01271 0
M  V30 925 H 82.9788 1.78347 7.58823 0
M  V30 926 N 87.2079 -1.17134 1.05439 0
M  V30 927 C 88.4569 -1.86791 0.761049 0
M  V30 928 C 88.7699 -1.82072 -0.714795 0
M  V30 929 O 89.9759 -2.47223 -1.12218 0
M  V30 930 C 88.4319 -3.35166 1.31117 0
M  V30 931 C 88.0399 -3.48381 2.81664 0
M  V30 932 C 89.7839 -4.10134 1.09499 0
M  V30 933 C 87.6909 -4.90793 3.29964 0
M  V30 934 H 86.6209 -0.699681 0.281002 0
M  V30 935 H 89.2719 -1.3226 1.27199 0
M  V30 936 H 87.6539 -3.8925 0.72803 0
M  V30 937 H 88.8279 -3.04502 3.45855 0
M  V30 938 H 87.1429 -2.86836 3.01851 0
M  V30 939 H 89.7399 -5.152 1.43084 0
M  V30 940 H 90.0829 -4.16287 0.0328772 0
M  V30 941 H 90.6159 -3.62264 1.64346 0
M  V30 942 H 87.3549 -4.89816 4.35616 0
M  V30 943 H 86.8749 -5.35333 2.70516 0
M  V30 944 H 88.5539 -5.59573 3.24787 0
M  V30 945 N 88.686 -0.835752 -1.33615 0
M  V30 946 C 89.911 -0.442389 -2.02627 0
M  V30 947 C 90.336 0.947735 -1.62479 0
M  V30 948 O 89.694 1.61907 -0.815826 0
M  V30 949 C 89.742 -0.567216 -3.56111 0
M  V30 950 O 88.846 0.407799 -4.10379 0
M  V30 951 H 88.187 -0.180278 -0.639059 0
M  V30 952 H 90.717 -1.12972 -1.70583 0
M  V30 953 H 90.727 -0.447708 -4.05536 0
M  V30 954 H 89.402 -1.58103 -3.84677 0
M  V30 955 H 87.979 0.246107 -3.72087 0
M  V30 956 N 90.1641 1.46063 -0.591896 0
M  V30 957 C 91.0971 2.27452 0.184617 0
M  V30 958 C 92.0751 1.36188 0.888351 0
M  V30 959 O 93.2591 1.65606 0.90039 0
M  V30 960 C 90.3861 3.14162 1.26571 0
M  V30 961 C 89.4321 4.21255 0.666814 0
M  V30 962 S 90.2651 5.33034 -0.513345 0
M  V30 963 C 91.4211 6.23311 0.56872 0
M  V30 964 H 91.6541 2.92963 -0.505939 0
M  V30 965 H 89.1871 1.49676 -0.379014 0
M  V30 966 H 91.1451 3.6468 1.88463 0
M  V30 967 H 89.8061 2.47946 1.92826 0
M  V30 968 H 88.9991 4.81788 1.47974 0
M  V30 969 H 88.6011 3.73797 0.123359 0
M  V30 970 H 90.8931 6.61758 1.45198 0
M  V30 971 H 91.8361 7.081 -7.23824e-05 0
M  V30 972 H 92.2441 5.57646 0.876996 0
M  V30 973 N 91.6422 0.330177 1.54103 0
M  V30 974 C 92.5892 -0.532762 2.24567 0
M  V30 975 C 93.5592 -1.10635 1.23892 0
M  V30 976 O 94.7442 -1.14546 1.5259 0
M  V30 977 C 91.8842 -1.6845 3.01195 0
M  V30 978 C 90.9972 -1.13951 4.167 0
M  V30 979 C 90.1322 -2.25746 4.80845 0
M  V30 980 C 89.1712 -1.6853 5.88442 0
M  V30 981 N 88.3082 -2.74014 6.46421 0
M  V30 982 H 93.1482 0.0746905 2.97906 0
M  V30 983 H 90.6852 0.048632 1.4702 0
M  V30 984 H 92.6432 -2.36234 3.43874 0
M  V30 985 H 91.2732 -2.26314 2.30178 0
M  V30 986 H 90.3252 -0.35301 3.78758 0
M  V30 987 H 91.6372 -0.680892 4.94131 0
M  V30 988 H 90.7912 -3.01422 5.26526 0
M  V30 989 H 89.5302 -2.74947 4.0281 0
M  V30 990 H 88.5352 -0.913543 5.42157 0
M  V30 991 H 89.7602 -1.20198 6.68378 0
M  V30 992 H 87.7062 -3.22494 5.71256 0
M  V30 993 H 87.6232 -2.32735 7.19285 0
M  V30 994 H 88.8912 -3.49499 6.96757 0
M  V30 995 N 93.1203 -1.57491 0.0584922 0
M  V30 996 C 94.0503 -2.14988 -0.911178 0
M  V30 997 C 95.0313 -1.07343 -1.31952 0
M  V30 998 O 96.2163 -1.35318 -1.39294 0
M  V30 999 C 93.3463 -2.70078 -2.18347 0
M  V30 1000 C 92.3003 -3.82771 -1.91495 0
M  V30 1001 C 91.6263 -4.24408 -3.25241 0
M  V30 1002 C 92.9263 -5.07592 -1.23075 0
M  V30 1003 H 94.6203 -2.96263 -0.432246 0
M  V30 1004 H 92.1663 -1.42512 -0.206469 0
M  V30 1005 H 94.1193 -3.08943 -2.86587 0
M  V30 1006 H 92.8433 -1.86005 -2.68458 0
M  V30 1007 H 91.5023 -3.44389 -1.25664 0
M  V30 1008 H 91.1503 -3.37275 -3.73168 0
M  V30 1009 H 90.8503 -5.00366 -3.08071 0
M  V30 1010 H 92.3743 -4.65879 -3.94701 0
M  V30 1011 H 93.7883 -5.43857 -1.81362 0
M  V30 1012 H 92.1853 -5.88741 -1.16207 0
M  V30 1013 H 93.2553 -4.84454 -0.207847 0
M  V30 1014 N 94.5984 0.214957 -1.56127 0
M  V30 1015 C 95.5084 1.28727 -1.96129 0
M  V30 1016 C 96.5244 1.50916 -0.866044 0
M  V30 1017 O 97.7004 1.63918 -1.17016 0
M  V30 1018 C 94.7654 2.61569 -2.27558 0
M  V30 1019 C 93.8264 2.47625 -3.50685 0
M  V30 1020 C 93.0594 3.74132 -3.80606 0
M  V30 1021 O 93.2824 4.77438 -3.12104 0
M  V30 1022 O 92.2164 3.70849 -4.74083 0
M  V30 1023 H 96.0424 0.977855 -2.87527 0
M  V30 1024 H 93.6274 0.418358 -1.43423 0
M  V30 1025 H 95.5094 3.40012 -2.48938 0
M  V30 1026 H 94.1844 2.92178 -1.39332 0
M  V30 1027 H 93.0914 1.67361 -3.34576 0
M  V30 1028 H 94.4244 2.21954 -4.39315 0
M  V30 1029 N 96.0765 1.50051 0.48192 0
M  V30 1030 C 97.0395 1.67584 1.5636 0
M  V30 1031 C 98.0395 0.546894 1.51214 0
M  V30 1032 O 99.2295 0.813725 1.54026 0
M  V30 1033 C 96.3615 1.691 2.96003 0
M  V30 1034 H 97.5545 2.64078 1.42136 0
M  V30 1035 H 95.1075 1.39369 0.707533 0
M  V30 1036 H 95.8425 0.742589 3.15684 0
M  V30 1037 H 95.6275 2.51105 3.01146 0
M  V30 1038 H 97.1175 1.84656 3.74556 0
M  V30 1039 N 97.5546 -0.734337 1.39446 0
M  V30 1040 C 98.4866 -1.85861 1.34121 0
M  V30 1041 C 99.4996 -1.60871 0.249864 0
M  V30 1042 O 100.689 -1.71093 0.508865 0
M  V30 1043 C 97.7886 -3.21899 1.05991 0
M  V30 1044 C 96.9616 -3.74239 2.26415 0
M  V30 1045 C 96.0206 -4.88841 1.94733 0
M  V30 1046 O 95.0466 -5.02468 2.67422 0
M  V30 1047 N 96.2486 -5.73261 0.913884 0
M  V30 1048 H 99.0136 -1.90934 2.31007 0
M  V30 1049 H 96.5746 -0.915102 1.33557 0
M  V30 1050 H 98.5666 -3.96136 0.828147 0
M  V30 1051 H 97.1366 -3.12091 0.178361 0
M  V30 1052 H 96.3566 -2.91347 2.65539 0
M  V30 1053 H 97.6446 -4.05942 3.06738 0
M  V30 1054 H 97.0426 -5.64842 0.311476 0
M  V30 1055 H 95.5996 -6.47563 0.742015 0
M  V30 1056 N 99.0327 -1.24633 -0.964593 0
M  V30 1057 C 100.31 -0.995809 -1.68354 0
M  V30 1058 C 100.69 0.480964 -2.05548 0
M  V30 1059 O 100.038 1.45599 -1.76105 0
M  V30 1060 C 100.248 -1.92177 -2.91323 0
M  V30 1061 C 101.596 -2.19446 -3.63495 0
M  V30 1062 O 102.62 -1.89855 -3.01386 0
M  V30 1063 O 101.479 -2.69714 -4.75307 0
M  V30 1064 H 98.5727 -0.376854 -0.736146 0
M  V30 1065 H 101.119 -1.35745 -1.0184 0
M  V30 1066 H 99.8907 -2.91938 -2.60553 0
M  V30 1067 H 99.5137 -1.56349 -3.65569 0
M  V30 1068 N 100.511 1.16574 -1.06058 0
M  V30 1069 C 101.922 1.68662 -0.800632 0
M  V30 1070 C 102.273 1.84184 0.67608 0
M  V30 1071 O 101.398 1.53568 1.52466 0
M  V30 1072 C 101.993 3.06356 -1.44676 0
M  V30 1073 C 100.552 3.55575 -1.23465 0
M  V30 1074 C 99.6988 2.31616 -1.52477 0
M  V30 1075 H 102.65 1.00969 -1.22438 0
M  V30 1076 H 102.671 3.70636 -0.860788 0
M  V30 1077 H 102.183 2.95027 -2.52152 0
M  V30 1078 H 100.284 3.72167 -0.179527 0
M  V30 1079 H 100.397 4.37812 -1.94571 0
M  V30 1080 H 98.7608 2.36512 -0.945209 0
M  V30 1081 H 99.5438 2.22887 -2.61106 0
M  V30 1082 N 101.989 0.842826 1.3317 0
M  V30 1083 C 103.405 0.531128 1.50503 0
M  V30 1084 C 103.605 -0.940734 1.78192 0
M  V30 1085 O 102.661 -1.72436 1.84451 0
M  V30 1086 C 103.974 1.40789 2.65705 0
M  V30 1087 C 105.522 1.40708 2.79589 0
M  V30 1088 C 105.997 2.26878 3.97857 0
M  V30 1089 N 107.488 2.24609 4.05099 0
M  V30 1090 C 108.223 2.88019 4.95815 0
M  V30 1091 N 107.719 3.60496 5.9162 0
M  V30 1092 N 109.512 2.77469 4.88843 0
M  V30 1093 H 101.663 1.79557 1.1346 0
M  V30 1094 H 103.926 0.766267 0.558156 0
M  V30 1095 H 103.632 2.454 2.51936 0
M  V30 1096 H 103.506 1.08677 3.61205 0
M  V30 1097 H 105.893 0.368668 2.92788 0
M  V30 1098 H 105.974 1.76829 1.84838 0
M  V30 1099 H 105.618 3.3078 3.85418 0
M  V30 1100 H 105.548 1.88096 4.91861 0
M  V30 1101 H 108.039 1.71906 3.36536 0
M  V30 1102 H 108.352 4.06076 6.57512 0
M  V30 1103 H 106.697 3.64604 5.91683 0
M  V30 1104 H 109.888 2.20406 4.12963 0
M  V30 1105 H 110.061 3.2717 5.59342 0
M  V30 1106 N 103.467 -1.45747 0.599634 0
M  V30 1107 C 104.415 -2.322 -0.136426 0
M  V30 1108 C 105.409 -1.45497 -0.867583 0
M  V30 1109 O 106.615 -1.62027 -0.78405 0
M  V30 1110 H 102.99 -0.749368 -0.0628588 0
M  V30 1111 H 104.961 -2.92072 0.611281 0
M  V30 1112 C 103.71 -3.28974 -1.12567 0
M  V30 1113 H 103.033 -3.9568 -0.572484 0
M  V30 1114 H 104.473 -3.92212 -1.61077 0
M  V30 1115 C 102.932 -2.55561 -2.19523 0
M  V30 1116 O 103.462 -2.33111 -3.27143 0
M  V30 1117 N 101.668 -2.15832 -1.94589 0
M  V30 1118 H 101.215 -2.3429 -1.07078 0
M  V30 1119 H 101.173 -1.67034 -2.66359 0
M  V30 1120 N 104.945 -0.338344 -1.53925 0
M  V30 1121 C 106.173 0.261298 -2.05243 0
M  V30 1122 C 106.588 1.44625 -1.21363 0
M  V30 1123 O 105.945 1.80811 -0.247736 0
M  V30 1124 C 105.996 0.681412 -3.5502 0
M  V30 1125 O 105.717 -0.456414 -4.35716 0
M  V30 1126 C 107.218 1.34232 -4.22489 0
M  V30 1127 H 104.438 0.0513685 -0.669031 0
M  V30 1128 H 106.982 -0.488822 -1.98572 0
M  V30 1129 H 105.137 1.38148 -3.61931 0
M  V30 1130 H 105.551 -0.122564 -5.24357 0
M  V30 1131 H 107.025 1.58708 -5.28693 0
M  V30 1132 H 107.502 2.29426 -3.74514 0
M  V30 1133 H 108.108 0.684424 -4.19757 0
M  V30 1134 N 106.423 1.57458 -0.0668435 0
M  V30 1135 C 107.651 1.97624 0.612565 0
M  V30 1136 C 108.066 0.94502 1.63447 0
M  V30 1137 O 107.423 -0.0689276 1.8237 0
M  V30 1138 C 107.474 3.37869 1.28555 0
M  V30 1139 O 107.195 4.3704 0.304557 0
M  V30 1140 C 108.696 3.92882 2.05325 0
M  V30 1141 H 105.916 0.650045 0.166381 0
M  V30 1142 H 108.46 2.04035 -0.137782 0
M  V30 1143 H 106.615 3.3256 1.98702 0
M  V30 1144 H 107.029 5.18565 0.786779 0
M  V30 1145 H 108.503 4.93247 2.47812 0
M  V30 1146 H 108.98 3.29156 2.9078 0
M  V30 1147 H 109.586 4.01577 1.40056 0
M  V30 1148 N 107.901 -0.206675 1.56239 0
M  V30 1149 C 109.126 -0.949474 1.8439 0
M  V30 1150 C 109.551 -1.76549 0.649016 0
M  V30 1151 O 108.909 -1.76782 -0.402231 0
M  V30 1152 C 108.957 -1.83078 3.10668 0
M  V30 1153 O 108.061 -2.9281 2.90407 0
M  V30 1154 H 107.402 -0.268033 0.607499 0
M  V30 1155 H 109.932 -0.215488 2.03462 0
M  V30 1156 H 109.942 -2.2377 3.41161 0
M  V30 1157 H 108.617 -1.23112 3.97261 0
M  V30 1158 H 107.194 -2.55956 2.71184 0
M  V30 1159 N 109.379 -1.50304 -0.473955 0
M  V30 1160 C 110.607 -1.64902 -1.24959 0
M  V30 1161 C 111.022 -0.331198 -1.85872 0
M  V30 1162 O 110.379 0.68652 -1.69095 0
M  V30 1163 C 110.43 -2.73803 -2.36038 0
M  V30 1164 O 110.151 -4.00477 -1.77624 0
M  V30 1165 C 111.652 -2.99349 -3.26964 0
M  V30 1166 H 108.872 -0.554383 -0.378022 0
M  V30 1167 H 111.416 -1.9651 -0.566054 0
M  V30 1168 H 109.571 -2.44898 -3.00173 0
M  V30 1169 H 109.985 -4.60678 -2.5075 0
M  V30 1170 H 111.459 -3.79217 -4.01121 0
M  V30 1171 H 111.936 -2.10307 -3.85574 0
M  V30 1172 H 112.542 -3.29774 -2.68569 0
M  V30 1173 N 110.857 0.726932 -1.39834 0
M  V30 1174 C 112.097 1.4992 -1.38936 0
M  V30 1175 C 112.461 1.91996 0.0126883 0
M  V30 1176 O 113.662 2.68399 0.146715 0
M  V30 1177 C 111.933 2.70013 -2.34153 0
M  V30 1178 S 113.492 3.59563 -2.51515 0
M  V30 1179 H 110.31 0.51271 -0.492595 0
M  V30 1180 H 112.912 0.85107 -1.76003 0
M  V30 1181 H 111.616 2.37254 -3.34871 0
M  V30 1182 H 111.147 3.39748 -1.98331 0
M  V30 1183 H 113.162 4.63973 -1.75909 0
M  V30 1184 N 112.336 1.25143 0.95797 0
M  V30 1185 C 113.585 1.0909 1.69654 0
M  V30 1186 C 113.898 -0.368548 1.92097 0
M  V30 1187 O 115.104 -0.649455 2.63618 0
M  V30 1188 C 113.56 1.90395 3.05414 0
M  V30 1189 C 113.168 3.4081 2.90779 0
M  V30 1190 C 114.912 1.82901 3.83076 0
M  V30 1191 C 112.819 4.14423 4.21909 0
M  V30 1192 H 111.749 0.404625 0.636235 0
M  V30 1193 H 114.4 1.4931 1.06672 0
M  V30 1194 H 112.782 1.42996 3.69281 0
M  V30 1195 H 113.956 3.95859 2.35865 0
M  V30 1196 H 112.271 3.49361 2.26575 0
M  V30 1197 H 114.868 2.35196 4.80195 0
M  V30 1198 H 115.211 0.796224 4.08615 0
M  V30 1199 H 115.744 2.28033 3.25954 0
M  V30 1200 H 112.483 5.18102 4.01561 0
M  V30 1201 H 112.003 3.64159 4.76601 0
M  V30 1202 H 113.682 4.21956 4.90471 0
M  V30 1203 N 113.814 -1.1601 1.06675 0
M  V30 1204 C 114.777 -2.18724 0.685001 0
M  V30 1205 C 115.777 -1.58496 -0.271246 0
M  V30 1206 O 116.967 -1.74119 -0.0531156 0
M  V30 1207 C 114.099 -3.40899 0.00853648 0
M  V30 1208 H 115.292 -2.54011 1.59431 0
M  V30 1209 H 112.845 -1.30352 0.862441 0
M  V30 1210 H 113.58 -3.11173 -0.913337 0
M  V30 1211 H 113.365 -3.8587 0.696204 0
M  V30 1212 H 114.855 -4.16886 -0.24414 0
M  V30 1213 N 115.292 -0.849877 -1.32721 0
M  V30 1214 C 116.52 -0.464754 -2.01613 0
M  V30 1215 C 116.935 0.937191 -1.63897 0
M  V30 1216 O 116.292 1.61081 -0.857856 0
M  V30 1217 C 116.343 -0.588638 -3.56675 0
M  V30 1218 O 116.064 -1.93535 -3.93034 0
M  V30 1219 C 117.565 -0.2019 -4.4284 0
M  V30 1220 H 114.785 -0.183215 -0.645502 0
M  V30 1221 H 117.329 -1.1455 -1.69407 0
M  V30 1222 H 115.484 0.0443159 -3.87375 0
M  V30 1223 H 115.898 -1.92871 -4.87751 0
M  V30 1224 H 117.372 -0.339599 -5.50954 0
M  V30 1225 H 117.849 0.857224 -4.30753 0
M  V30 1226 H 118.455 -0.809733 -4.17521 0
M  V30 1227 N 116.77 1.45427 -0.607355 0
M  V30 1228 C 118.016 2.0254 -0.102607 0
M  V30 1229 C 118.349 1.47478 1.26348 0
M  V30 1230 O 117.624 0.64939 1.83339 0
M  V30 1231 C 117.907 3.60044 -0.0634347 0
M  V30 1232 C 117.76 4.2544 -1.46017 0
M  V30 1233 C 119.079 4.35646 0.624514 0
M  V30 1234 H 116.198 0.73598 -0.0387607 0
M  V30 1235 H 118.84 1.73284 -0.779282 0
M  V30 1236 H 116.99 3.85101 0.512808 0
M  V30 1237 H 118.662 4.11569 -2.08347 0
M  V30 1238 H 116.905 3.83849 -2.02094 0
M  V30 1239 H 117.576 5.34342 -1.385 0
M  V30 1240 H 120.052 4.15882 0.134723 0
M  V30 1241 H 118.928 5.45376 0.621028 0
M  V30 1242 H 119.189 4.08501 1.69055 0
M  V30 1243 N 118.248 0.346503 1.53744 0
M  V30 1244 C 119.494 -0.249473 2.0126 0
M  V30 1245 C 119.827 -1.49965 1.23386 0
M  V30 1246 O 119.102 -1.91811 0.32229 0
M  V30 1247 C 119.385 -0.560643 3.55709 0
M  V30 1248 C 119.238 0.701836 4.44291 0
M  V30 1249 C 120.557 -1.36905 4.18264 0
M  V30 1250 H 117.676 -0.0891987 0.731582 0
M  V30 1251 H 120.318 0.467624 1.84156 0
M  V30 1252 H 118.468 -1.17156 3.70414 0
M  V30 1253 H 120.14 1.33974 4.41417 0
M  V30 1254 H 118.383 1.32612 4.13033 0
M  V30 1255 H 119.054 0.43933 5.50249 0
M  V30 1256 H 121.53 -0.852448 4.07275 0
M  V30 1257 H 120.406 -1.55553 5.26398 0
M  V30 1258 H 120.667 -2.37203 3.73078 0
M  V30 1259 N 119.726 -1.57421 0.075193 0
M  V30 1260 C 120.974 -1.93236 -0.591974 0
M  V30 1261 C 121.295 -0.956241 -1.69944 0
M  V30 1262 O 120.565 -0.00494792 -1.95899 0
M  V30 1263 H 119.145 -0.713355 -0.22166 0
M  V30 1264 H 121.807 -1.9444 0.133848 0
M  V30 1265 H 120.903 -2.95131 -1.01509 0
M  V30 1266 N 121.204 0.198386 -1.56346 0
M  V30 1267 C 122.134 1.24865 -1.9731 0
M  V30 1268 C 123.115 1.47651 -0.844576 0
M  V30 1269 O 124.3 1.59444 -1.10866 0
M  V30 1270 C 121.43 2.59358 -2.30977 0
M  V30 1271 C 120.384 2.5119 -3.46537 0
M  V30 1272 C 119.71 3.89926 -3.65871 0
M  V30 1273 C 121.01 2.03977 -4.80823 0
M  V30 1274 H 122.704 0.908252 -2.85291 0
M  V30 1275 H 120.25 0.435462 -1.37258 0
M  V30 1276 H 122.203 3.33011 -2.58228 0
M  V30 1277 H 120.927 2.95132 -1.39874 0
M  V30 1278 H 119.586 1.79993 -3.19371 0
M  V30 1279 H 119.234 4.23046 -2.72105 0
M  V30 1280 H 118.934 3.85336 -4.4361 0
M  V30 1281 H 120.458 4.65205 -3.95495 0
M  V30 1282 H 121.872 2.67386 -5.07127 0
M  V30 1283 H 120.269 2.10397 -5.62008 0
M  V30 1284 H 121.339 0.992861 -4.74626 0
M  V30 1285 N 122.682 1.50554 0.465978 0
M  V30 1286 C 123.91 1.65563 1.24083 0
M  V30 1287 C 124.325 0.341051 1.85694 0
M  V30 1288 O 123.682 -0.677543 1.69457 0
M  V30 1289 C 123.733 2.75051 2.34583 0
M  V30 1290 O 123.454 4.01413 1.75497 0
M  V30 1291 C 124.955 3.01078 3.25372 0
M  V30 1292 H 122.175 0.55638 0.375077 0
M  V30 1293 H 124.719 1.96807 0.555624 0
M  V30 1294 H 122.874 2.46486 2.9887 0
M  V30 1295 H 123.288 4.62002 2.48303 0
M  V30 1296 H 124.762 3.81339 3.99105 0
M  V30 1297 H 125.239 2.12349 3.84453 0
M  V30 1298 H 125.845 3.31194 2.66816 0
M  V30 1299 N 124.16 -0.719506 1.40217 0
M  V30 1300 C 125.408 -1.47641 1.3801 0
M  V30 1301 C 125.729 -1.94992 -0.018145 0
M  V30 1302 O 124.999 -1.70073 -0.972207 0
M  V30 1303 H 123.579 -0.547744 0.507923 0
M  V30 1304 H 126.241 -0.853187 1.75233 0
M  V30 1305 H 125.337 -2.35112 2.05253 0
M  V30 1306 N 125.638 -1.25649 -0.95132 0
M  V30 1307 C 126.601 -1.06399 -2.03007 0
M  V30 1308 C 127.601 -0.0156794 -1.60792 0
M  V30 1309 O 128.791 -0.25817 -1.72276 0
M  V30 1310 C 125.923 -0.616184 -3.35285 0
M  V30 1311 H 127.116 -2.02164 -2.21517 0
M  V30 1312 H 124.669 -1.08103 -1.12887 0
M  V30 1313 H 125.404 0.343917 -3.22471 0
M  V30 1314 H 125.189 -1.37301 -3.67275 0
M  V30 1315 H 126.679 -0.503032 -4.14559 0
M  V30 1316 N 127.117 1.15442 -1.07289 0
M  V30 1317 C 128.533 1.38201 -0.798288 0
M  V30 1318 C 128.733 1.92429 0.597769 0
M  V30 1319 O 127.789 2.12962 1.3566 0
M  V30 1320 C 129.102 2.35357 -1.87156 0
M  V30 1321 C 130.65 2.49021 -1.89624 0
M  V30 1322 C 131.125 3.49468 -2.96034 0
M  V30 1323 N 132.616 3.57003 -2.95132 0
M  V30 1324 C 133.351 4.34543 -3.74112 0
M  V30 1325 N 132.847 5.15421 -4.6294 0
M  V30 1326 N 134.64 4.29625 -3.62462 0
M  V30 1327 H 126.791 0.78584 -1.97328 0
M  V30 1328 H 129.054 0.408065 -0.855679 0
M  V30 1329 H 128.76 2.02626 -2.87464 0
M  V30 1330 H 128.634 3.35129 -1.73114 0
M  V30 1331 H 131.021 2.81051 -0.899687 0
M  V30 1332 H 131.102 1.4925 -2.07745 0
M  V30 1333 H 130.746 3.18173 -3.95889 0
M  V30 1334 H 130.676 4.48992 -2.75161 0
M  V30 1335 H 133.167 2.99276 -2.30743 0
M  V30 1336 H 133.48 5.7183 -5.19837 0
M  V30 1337 H 131.825 5.14729 -4.66989 0
M  V30 1338 H 135.016 3.65505 -2.92444 0
M  V30 1339 H 135.189 4.89807 -4.24256 0
M  V30 1340 N 128.595 0.856903 1.32268 0
M  V30 1341 C 129.525 0.31858 2.31316 0
M  V30 1342 C 130.506 -0.583487 1.59779 0
M  V30 1343 O 131.691 -0.503259 1.87566 0
M  V30 1344 C 128.821 -0.491979 3.43798 0
M  V30 1345 C 127.775 0.315849 4.26833 0
M  V30 1346 C 127.101 -0.619586 5.31098 0
M  V30 1347 C 128.401 1.54282 4.98993 0
M  V30 1348 H 130.095 1.14621 2.76591 0
M  V30 1349 H 127.641 0.552613 1.32974 0
M  V30 1350 H 129.594 -0.879012 4.1213 0
M  V30 1351 H 128.318 -1.35299 2.97257 0
M  V30 1352 H 126.977 0.684664 3.6015 0
M  V30 1353 H 126.625 -1.47751 4.8081 0
M  V30 1354 H 126.325 -0.0830621 5.87541 0
M  V30 1355 H 127.849 -1.00375 6.02293 0
M  V30 1356 H 129.263 1.22796 5.59995 0
M  V30 1357 H 127.66 2.01745 5.65172 0
M  V30 1358 H 128.73 2.30285 4.26728 0
M  V30 1359 N 130.073 -1.45103 0.615059 0
M  V30 1360 C 131.489 -1.57137 0.279322 0
M  V30 1361 C 131.689 -1.60523 -1.21797 0
M  V30 1362 O 130.745 -1.53956 -2.00134 0
M  V30 1363 C 132.058 -2.85062 0.957083 0
M  V30 1364 C 133.606 -2.98749 0.933706 0
M  V30 1365 C 134.081 -4.29455 1.59162 0
M  V30 1366 N 135.572 -4.36231 1.55746 0
M  V30 1367 C 136.307 -5.36051 2.0356 0
M  V30 1368 N 135.803 -6.42367 2.59494 0
M  V30 1369 N 137.596 -5.27456 1.94284 0
M  V30 1370 H 129.747 -1.41148 1.58717 0
M  V30 1371 H 132.01 -0.675331 0.665306 0
M  V30 1372 H 131.716 -2.88488 2.01166 0
M  V30 1373 H 131.59 -3.7407 0.48494 0
M  V30 1374 H 133.977 -2.94886 -0.112347 0
M  V30 1375 H 134.058 -2.11132 1.44419 0
M  V30 1376 H 133.702 -4.34077 2.63704 0
M  V30 1377 H 133.632 -5.15901 1.0561 0
M  V30 1378 H 136.123 -3.60011 1.14893 0
M  V30 1379 H 136.436 -7.14793 2.93752 0
M  V30 1380 H 134.781 -6.43097 2.63537 0
M  V30 1381 H 137.972 -4.43308 1.5032 0
M  V30 1382 H 138.145 -6.05099 2.3186 0
M  V30 1383 N 131.551 -0.354651 -1.53558 0
M  V30 1384 C 132.481 0.489091 -2.2832 0
M  V30 1385 C 133.462 1.09324 -1.30316 0
M  V30 1386 O 134.647 1.11255 -1.59173 0
M  V30 1387 C 131.777 1.63456 -3.0643 0
M  V30 1388 C 130.731 1.1582 -4.12031 0
M  V30 1389 C 130.057 2.39305 -4.7816 0
M  V30 1390 C 131.357 0.250731 -5.21698 0
M  V30 1391 H 133.051 -0.134614 -2.99097 0
M  V30 1392 H 130.597 -0.0661826 -1.43848 0
M  V30 1393 H 132.55 2.23136 -3.57475 0
M  V30 1394 H 131.274 2.28533 -2.33325 0
M  V30 1395 H 129.933 0.584146 -3.61916 0
M  V30 1396 H 129.581 3.02814 -4.01637 0
M  V30 1397 H 129.281 2.08109 -5.49513 0
M  V30 1398 H 130.805 2.99691 -5.31994 0
M  V30 1399 H 132.219 0.754695 -5.68311 0
M  V30 1400 H 130.616 0.0301468 -6.00092 0
M  V30 1401 H 131.686 -0.710125 -4.79672 0
M  V30 1402 N 133.029 1.57378 -0.0835403 0
M  V30 1403 C 134.445 1.57246 0.273109 0
M  V30 1404 C 134.645 1.09385 1.69225 0
M  V30 1405 O 133.701 0.765051 2.40631 0
M  V30 1406 C 135.014 3.00614 0.0720628 0
M  V30 1407 C 136.562 3.12684 0.1407 0
M  V30 1408 C 137.037 4.57989 -0.0322094 0
M  V30 1409 N 138.528 4.63194 0.0230085 0
M  V30 1410 C 139.263 5.73335 -0.0861941 0
M  V30 1411 N 138.759 6.9235 -0.24958 0
M  V30 1412 N 140.552 5.62093 -0.0282886 0
M  V30 1413 H 132.703 1.86801 -1.0109 0
M  V30 1414 H 134.966 0.861687 -0.395222 0
M  V30 1415 H 134.672 3.39786 -0.907662 0
M  V30 1416 H 134.546 3.68193 0.81936 0
M  V30 1417 H 136.933 2.73391 1.11092 0
M  V30 1418 H 137.014 2.47719 -0.637896 0
M  V30 1419 H 136.658 4.97973 -0.999247 0
M  V30 1420 H 136.588 5.21 0.765937 0
M  V30 1421 H 139.079 3.77613 0.14722 0
M  V30 1422 H 139.392 7.72117 -0.324733 0
M  V30 1423 H 137.737 6.94415 -0.285097 0
M  V30 1424 H 140.928 4.67997 0.0981408 0
M  V30 1425 H 141.101 6.47895 -0.116845 0
M  V30 1426 N 134.507 -0.190092 1.56449 0
M  V30 1427 C 135.437 -1.23816 1.97969 0
M  V30 1428 C 136.418 -1.47201 0.852395 0
M  V30 1429 O 137.603 -1.58854 1.1171 0
M  V30 1430 C 134.733 -2.5813 2.3235 0
M  V30 1431 C 133.687 -2.49348 3.47864 0
M  V30 1432 C 133.013 -3.8798 3.67934 0
M  V30 1433 C 134.313 -2.01424 4.81898 0
M  V30 1434 H 136.007 -0.89311 2.85769 0
M  V30 1435 H 133.553 -0.428177 1.37487 0
M  V30 1436 H 135.506 -3.31637 2.59991 0
M  V30 1437 H 134.23 -2.94386 1.41438 0
M  V30 1438 H 132.889 -1.78297 3.20321 0
M  V30 1439 H 132.537 -4.21597 2.74344 0
M  V30 1440 H 132.237 -3.82978 4.45648 0
M  V30 1441 H 133.761 -4.63101 3.97957 0
M  V30 1442 H 135.175 -2.64693 5.08538 0
M  V30 1443 H 133.572 -2.07413 5.63116 0
M  V30 1444 H 134.642 -0.967677 4.75146 0
M  V30 1445 N 135.985 -1.50799 -0.457987 0
M  V30 1446 C 137.262 -1.52968 -1.21902 0
M  V30 1447 C 137.642 -0.281906 -2.09209 0
M  V30 1448 O 136.99 0.734076 -2.16388 0
M  V30 1449 C 137.2 -2.8326 -2.03875 0
M  V30 1450 C 138.548 -3.34425 -2.6162 0
M  V30 1451 O 139.572 -2.8467 -2.14106 0
M  V30 1452 O 138.431 -4.21188 -3.48228 0
M  V30 1453 H 135.525 -0.614129 -0.553873 0
M  V30 1454 H 138.071 -1.63098 -0.468739 0
M  V30 1455 H 136.843 -3.65543 -1.39621 0
M  V30 1456 H 136.466 -2.76195 -2.8601 0
M  V30 1457 N 137.463 0.71206 -1.40597 0
M  V30 1458 C 138.711 1.46907 -1.38791 0
M  V30 1459 C 139.032 1.94998 0.00780391 0
M  V30 1460 O 138.302 1.70587 0.963174 0
M  V30 1461 H 136.882 0.545043 -0.51082 0
M  V30 1462 H 139.544 0.843882 -1.75683 0
M  V30 1463 H 138.64 2.34021 -2.06496 0
M  V30 1464 N 138.941 1.26152 0.944643 0
M  V30 1465 C 140.166 1.14363 1.7302 0
M  V30 1466 C 140.591 -0.29772 1.85729 0
M  V30 1467 O 139.949 -1.2157 1.34501 0
M  V30 1468 C 139.997 1.81378 3.11664 0
M  V30 1469 O 139.101 1.10022 3.97453 0
M  V30 1470 H 138.442 0.398694 0.53098 0
M  V30 1471 H 140.972 1.66906 1.18337 0
M  V30 1472 H 140.982 1.88064 3.62072 0
M  V30 1473 H 139.657 2.86237 3.0173 0
M  V30 1474 H 138.234 1.11287 3.55907 0
M  V30 1475 N 140.419 -1.14872 1.07899 0
M  V30 1476 C 141.696 -1.81928 0.71845 0
M  V30 1477 C 142.076 -1.95417 -0.798455 0
M  V30 1478 O 141.424 -1.50997 -1.715 0
M  V30 1479 C 141.634 -3.17937 1.43935 0
M  V30 1480 C 142.982 -3.93501 1.59506 0
M  V30 1481 O 144.006 -3.27509 1.40058 0
M  V30 1482 O 142.865 -5.1183 1.91551 0
M  V30 1483 H 139.959 -0.78628 0.256305 0
M  V30 1484 H 142.505 -1.21934 1.18026 0
M  V30 1485 H 141.277 -3.0325 2.47295 0
M  V30 1486 H 140.9 -3.85619 0.968687 0
M  V30 1487 N 141.898 -0.863906 -1.31812 0
M  V30 1488 C 142.846 -0.30422 -2.30602 0
M  V30 1489 C 143.84 0.577419 -1.59255 0
M  V30 1490 O 145.046 0.464194 -1.73912 0
M  V30 1491 H 141.421 -0.0796877 -0.747766 0
M  V30 1492 H 143.392 -1.15148 -2.75288 0
M  V30 1493 C 142.141 0.484617 -3.44306 0
M  V30 1494 H 141.464 -0.18451 -3.99374 0
M  V30 1495 H 142.904 0.841664 -4.15562 0
M  V30 1496 C 141.363 1.6735 -2.92396 0
M  V30 1497 O 141.893 2.77273 -2.90659 0
M  V30 1498 N 140.099 1.50362 -2.48676 0
M  V30 1499 H 139.646 0.609402 -2.50288 0
M  V30 1500 H 139.604 2.30051 -2.14299 0
M  V30 1501 N 143.376 1.44774 -0.622745 0
M  V30 1502 C 144.323 2.30635 0.0871679 0
M  V30 1503 C 145.293 1.42994 0.845097 0
M  V30 1504 O 146.478 1.71907 0.827812 0
M  V30 1505 C 143.618 3.28144 1.06844 0
M  V30 1506 C 142.731 4.30888 0.309809 0
M  V30 1507 C 141.866 5.15494 1.28215 0
M  V30 1508 C 140.905 6.09953 0.512198 0
M  V30 1509 N 140.042 6.87287 1.43458 0
M  V30 1510 H 144.882 2.90803 -0.650974 0
M  V30 1511 H 142.419 1.43286 -0.33281 0
M  V30 1512 H 144.377 3.83157 1.65066 0
M  V30 1513 H 143.007 2.69695 1.77382 0
M  V30 1514 H 142.059 3.78414 -0.388181 0
M  V30 1515 H 143.371 4.97955 -0.290254 0
M  V30 1516 H 142.525 5.74983 1.93596 0
M  V30 1517 H 141.264 4.48481 1.91614 0
M  V30 1518 H 140.269 5.49581 -0.155151 0
M  V30 1519 H 141.494 6.78999 -0.116958 0
M  V30 1520 H 139.44 6.2295 2.05594 0
M  V30 1521 H 139.357 7.50763 0.888335 0
M  V30 1522 H 140.625 7.51306 2.07749 0
M  V30 1523 N 144.854 0.36279 1.53368 0
M  V30 1524 C 145.802 -0.500155 2.27159 0
M  V30 1525 C 146.796 -1.08575 1.3003 0
M  V30 1526 O 148.002 -1.02927 1.47668 0
M  V30 1527 H 144.377 -0.180009 0.730138 0
M  V30 1528 H 146.348 0.14401 2.98052 0
M  V30 1529 C 145.097 -1.62937 3.07159 0
M  V30 1530 H 144.42 -1.18806 3.8174 0
M  V30 1531 H 145.86 -2.20795 3.61975 0
M  V30 1532 C 144.319 -2.57007 2.17829 0
M  V30 1533 O 144.849 -3.59752 1.78721 0
M  V30 1534 N 143.055 -2.26131 1.82518 0
M  V30 1535 H 142.602 -1.42616 2.14519 0
M  V30 1536 H 142.56 -2.89327 1.23034 0
M  V30 1537 N 146.332 -1.57332 0.0918853 0
M  V30 1538 C 147.609 -1.85691 -0.614668 0
M  V30 1539 C 147.989 -0.988146 -1.86545 0
M  V30 1540 O 147.337 -0.0597055 -2.28422 0
M  V30 1541 C 147.547 -3.36294 -0.933126 0
M  V30 1542 C 148.895 -4.04275 -1.29796 0
M  V30 1543 O 149.919 -3.41157 -1.02424 0
M  V30 1544 O 148.778 -5.1564 -1.81047 0
M  V30 1545 H 145.872 -0.767802 -0.307261 0
M  V30 1546 H 148.418 -1.69244 0.12434 0
M  V30 1547 H 147.19 -3.91273 -0.0456404 0
M  V30 1548 H 146.813 -3.58076 -1.72822 0
M  V30 1549 N 147.81 0.181792 -1.56548 0
M  V30 1550 C 149.057 0.900097 -1.81396 0
M  V30 1551 C 149.385 1.82695 -0.667281 0
M  V30 1552 O 148.64 1.92614 0.346146 0
M  V30 1553 C 148.939 1.73728 -3.12335 0
M  V30 1554 C 148.605 0.960255 -4.40556 0
M  V30 1555 C 147.267 0.745766 -4.75386 0
M  V30 1556 C 149.619 0.414477 -5.19549 0
M  V30 1557 C 146.947 -0.0257694 -5.86694 0
M  V30 1558 C 149.299 -0.343916 -6.31664 0
M  V30 1559 C 147.963 -0.569301 -6.65068 0
M  V30 1560 H 147.233 0.329369 -0.663775 0
M  V30 1561 H 149.88 0.165647 -1.90782 0
M  V30 1562 H 148.185 2.54081 -2.98245 0
M  V30 1563 H 149.882 2.29591 -3.28769 0
M  V30 1564 H 146.472 1.13746 -4.13231 0
M  V30 1565 H 150.656 0.567554 -4.93044 0
M  V30 1566 H 145.912 -0.210233 -6.11038 0
M  V30 1567 H 150.086 -0.774133 -6.92084 0
M  V30 1568 H 147.713 -1.16903 -7.51158 0
M  V30 1569 N 149.288 1.51039 0.449983 0
M  V30 1570 C 150.534 1.64287 1.19923 0
M  V30 1571 C 150.889 0.348701 1.89214 0
M  V30 1572 O 150.182 -0.654751 1.80065 0
M  V30 1573 C 150.376 2.77556 2.25161 0
M  V30 1574 C 150.205 4.17862 1.66198 0
M  V30 1575 C 148.975 4.83976 1.45243 0
M  V30 1576 C 151.173 5.01388 1.14519 0
M  V30 1577 N 149.155 6.08433 0.817437 0
M  V30 1578 C 150.526 6.16743 0.634705 0
M  V30 1579 C 152.581 4.87008 1.03574 0
M  V30 1580 C 151.284 7.19295 0.0255452 0
M  V30 1581 C 153.31 5.89757 0.440489 0
M  V30 1582 C 152.672 7.04375 -0.0595112 0
M  V30 1583 H 148.771 0.655161 0.426952 0
M  V30 1584 H 151.355 1.88228 0.49781 0
M  V30 1585 H 149.526 2.553 2.92706 0
M  V30 1586 H 151.258 2.80049 2.92155 0
M  V30 1587 H 148.013 4.41627 1.71063 0
M  V30 1588 H 148.437 6.75017 0.517747 0
M  V30 1589 H 153.079 3.9866 1.4082 0
M  V30 1590 H 150.797 8.07302 -0.359071 0
M  V30 1591 H 154.383 5.80698 0.35788 0
M  V30 1592 H 153.263 7.82521 -0.512882 0
M  V30 1593 N 150.766 -0.704594 1.40972 0
M  V30 1594 C 152.182 -1.01406 1.23244 0
M  V30 1595 C 152.382 -2.01169 0.115399 0
M  V30 1596 O 151.438 -2.47021 -0.523147 0
M  V30 1597 C 152.751 -1.54728 2.57836 0
M  V30 1598 C 154.299 -1.66658 2.64942 0
M  V30 1599 C 154.774 -2.23383 3.9983 0
M  V30 1600 N 156.265 -2.30756 4.01629 0
M  V30 1601 C 157 -2.75655 5.02794 0
M  V30 1602 N 156.496 -3.20225 6.14352 0
M  V30 1603 N 158.289 -2.75138 4.90159 0
M  V30 1604 H 150.44 -0.0435285 2.12355 0
M  V30 1605 H 152.703 -0.0818951 0.944456 0
M  V30 1606 H 152.409 -0.888832 3.40283 0
M  V30 1607 H 152.283 -2.53084 2.79693 0
M  V30 1608 H 154.67 -2.31617 1.8286 0
M  V30 1609 H 154.751 -0.668717 2.46904 0
M  V30 1610 H 154.395 -1.59043 4.82357 0
M  V30 1611 H 154.325 -3.23904 4.15203 0
M  V30 1612 H 156.816 -1.99291 3.21079 0
M  V30 1613 H 157.129 -3.53084 6.87424 0
M  V30 1614 H 155.474 -3.18156 6.17901 0
M  V30 1615 H 158.665 -2.39661 4.02095 0
M  V30 1616 H 158.838 -3.09812 5.6914 0
M  V30 1617 N 152.244 -1.26651 -0.937939 0
M  V30 1618 C 153.174 -1.10993 -2.05433 0
M  V30 1619 C 154.155 -0.0142161 -1.70094 0
M  V30 1620 O 155.34 -0.186837 -1.93299 0
M  V30 1621 C 152.47 -0.745561 -3.39203 0
M  V30 1622 C 151.424 -1.79337 -3.88616 0
M  V30 1623 C 150.75 -1.28324 -5.19073 0
M  V30 1624 C 152.05 -3.19553 -4.13138 0
M  V30 1625 H 153.744 -2.0438 -2.1879 0
M  V30 1626 H 151.29 -0.984041 -1.05131 0
M  V30 1627 H 153.243 -0.622888 -4.16771 0
M  V30 1628 H 151.967 0.22401 -3.25831 0
M  V30 1629 H 150.626 -1.90477 -3.13231 0
M  V30 1630 H 150.274 -0.303414 -5.02084 0
M  V30 1631 H 149.974 -1.98369 -5.53103 0
M  V30 1632 H 151.498 -1.1733 -5.99221 0
M  V30 1633 H 152.912 -3.11471 -4.81309 0
M  V30 1634 H 151.309 -3.87218 -4.58457 0
M  V30 1635 H 152.379 -3.65368 -3.18801 0
M  V30 1636 N 153.722 1.14298 -1.08507 0
M  V30 1637 C 154.968 1.85633 -0.816581 0
M  V30 1638 C 155.301 1.82784 0.656021 0
M  V30 1639 O 154.576 1.25926 1.48233 0
M  V30 1640 C 154.859 3.34223 -1.34041 0
M  V30 1641 C 154.712 3.45639 -2.87843 0
M  V30 1642 C 156.031 4.29356 -0.9665 0
M  V30 1643 H 153.15 0.67402 -0.298104 0
M  V30 1644 H 155.792 1.34214 -1.34487 0
M  V30 1645 H 153.942 3.78144 -0.89104 0
M  V30 1646 H 155.614 3.10498 -3.41158 0
M  V30 1647 H 153.857 2.86817 -3.25451 0
M  V30 1648 H 154.528 4.50089 -3.19569 0
M  V30 1649 H 157.004 3.93457 -1.35391 0
M  V30 1650 H 155.88 5.3178 -1.3602 0
M  V30 1651 H 156.141 4.41919 0.126362 0
M  V30 1652 N 155.201 0.870884 1.31352 0
M  V30 1653 C 156.478 0.402907 1.91405 0
M  V30 1654 C 156.858 -1.11512 1.79244 0
M  V30 1655 O 156.206 -1.94411 1.2007 0
M  V30 1656 C 156.416 0.885301 3.37585 0
M  V30 1657 C 157.764 0.911971 4.14691 0
M  V30 1658 O 158.788 0.831016 3.46371 0
M  V30 1659 O 157.647 1.02927 5.3672 0
M  V30 1660 H 154.741 0.120698 0.818145 0
M  V30 1661 H 157.287 0.958857 1.40014 0
M  V30 1662 H 156.059 1.92889 3.40455 0
M  V30 1663 H 155.682 0.307714 3.96407 0
M  V30 1664 N 156.679 -1.44442 0.630414 0
M  V30 1665 C 157.904 -2.06927 0.139944 0
M  V30 1666 C 158.329 -1.46795 -1.17613 0
M  V30 1667 O 157.687 -0.569144 -1.72135 0
M  V30 1668 C 157.735 -3.6058 0.0379581 0
M  V30 1669 O 156.839 -3.99937 -1.0062 0
M  V30 1670 H 156.18 -0.658608 0.0844483 0
M  V30 1671 H 158.71 -1.85327 0.866891 0
M  V30 1672 H 158.72 -4.07714 -0.152856 0
M  V30 1673 H 157.395 -4.03728 0.998809 0
M  V30 1674 H 155.972 -3.64436 -0.79001 0
M  V30 1675 N 158.157 -0.370918 -1.53173 0
M  V30 1676 C 159.12 0.460778 -2.24521 0
M  V30 1677 C 160.12 1.00536 -1.25496 0
M  V30 1678 O 161.31 0.890266 -1.49733 0
M  V30 1679 C 158.442 1.64457 -2.98608 0
M  V30 1680 H 159.635 -0.163613 -2.99453 0
M  V30 1681 H 157.188 -0.122699 -1.55818 0
M  V30 1682 H 157.923 2.30691 -2.2793 0
M  V30 1683 H 157.708 1.26099 -3.7127 0
M  V30 1684 H 159.198 2.23384 -3.5283 0
M  V30 1685 N 159.635 1.57281 -0.100228 0
M  V30 1686 C 160.545 2.17833 0.870965 0
M  V30 1687 C 161.561 1.14921 1.30649 0
M  V30 1688 O 162.737 1.47313 1.37335 0
M  V30 1689 C 159.802 2.75085 2.1102 0
M  V30 1690 C 158.863 3.9297 1.72838 0
M  V30 1691 C 158.096 4.47482 2.90854 0
M  V30 1692 O 158.319 4.00922 4.05731 0
M  V30 1693 O 157.253 5.38433 2.69023 0
M  V30 1694 H 161.079 3.0124 0.38575 0
M  V30 1695 H 158.664 1.48881 0.124397 0
M  V30 1696 H 160.546 3.11656 2.83634 0
M  V30 1697 H 159.221 1.94721 2.58584 0
M  V30 1698 H 158.128 3.61201 0.973883 0
M  V30 1699 H 159.461 4.74713 1.30033 0
M  V30 1700 N 161.113 -0.173488 1.56642 0
M  V30 1701 C 162.362 -0.888758 1.81063 0
M  V30 1702 C 162.675 -1.83506 0.67712 0
M  V30 1703 O 163.881 -2.59254 0.806206 0
M  V30 1704 C 162.337 -1.63091 3.20826 0
M  V30 1705 C 161.945 -0.728357 4.4204 0
M  V30 1706 C 163.689 -2.33454 3.54541 0
M  V30 1707 C 161.596 -1.47062 5.72823 0
M  V30 1708 H 160.526 -0.335618 0.675186 0
M  V30 1709 H 163.177 -0.141712 1.82952 0
M  V30 1710 H 161.559 -2.42263 3.13248 0
M  V30 1711 H 162.733 0.0262449 4.60793 0
M  V30 1712 H 161.048 -0.134492 4.16183 0
M  V30 1713 H 163.645 -2.89578 4.49498 0
M  V30 1714 H 163.988 -3.08687 2.79317 0
M  V30 1715 H 164.521 -1.61227 3.63663 0
M  V30 1716 H 161.26 -0.760658 6.51072 0
M  V30 1717 H 160.78 -2.1986 5.58052 0
M  V30 1718 H 162.459 -2.01868 6.14702 0
M  V30 1719 N 162.591 -1.51276 -0.441967 0
M  V30 1720 C 163.523 -1.68444 -1.55433 0
M  V30 1721 C 164.536 -0.565187 -1.52674 0
M  V30 1722 O 165.725 -0.839356 -1.57534 0
M  V30 1723 C 162.825 -1.67966 -2.94348 0
M  V30 1724 C 161.998 -2.964 -3.21661 0
M  V30 1725 C 161.057 -2.88171 -4.40277 0
M  V30 1726 O 160.083 -3.62119 -4.39157 0
M  V30 1727 N 161.285 -2.03706 -5.43584 0
M  V30 1728 H 164.05 -2.644 -1.41112 0
M  V30 1729 H 161.611 -1.49104 -0.630838 0
M  V30 1730 H 163.603 -1.60035 -3.71713 0
M  V30 1731 H 162.173 -0.796225 -3.0229 0
M  V30 1732 H 161.393 -3.18234 -2.32638 0
M  V30 1733 H 162.681 -3.81427 -3.36736 0
M  V30 1734 H 162.079 -1.42995 -5.47329 0
M  V30 1735 H 160.636 -2.01658 -6.1982 0
M  V30 1736 N 164.069 0.697108 -1.41344 0
M  V30 1737 C 165.48 1.27697 -1.36199 0
M  V30 1738 C 165.831 1.9615 -0.0443463 0
M  V30 1739 O 164.956 1.98689 0.857419 0
M  V30 1740 C 165.551 2.32223 -2.46694 0
M  V30 1741 C 164.11 2.8579 -2.44952 0
M  V30 1742 C 163.257 1.59807 -2.26621 0
M  V30 1743 H 166.208 0.491968 -1.50882 0
M  V30 1744 H 166.229 3.1348 -2.15664 0
M  V30 1745 H 165.741 1.82373 -3.42581 0
M  V30 1746 H 163.842 3.3982 -1.52817 0
M  V30 1747 H 163.955 3.36325 -3.41207 0
M  V30 1748 H 162.319 1.8556 -1.7447 0
M  V30 1749 H 163.102 1.11956 -3.24532 0
M  V30 1750 N 165.547 1.27147 0.931209 0
M  V30 1751 C 166.796 1.12664 1.67302 0
M  V30 1752 C 167.109 -0.327718 1.92835 0
M  V30 1753 O 168.315 -0.593392 2.64936 0
M  V30 1754 C 166.771 1.9683 3.01307 0
M  V30 1755 C 166.379 3.46901 2.83485 0
M  V30 1756 C 168.123 1.90985 3.79111 0
M  V30 1757 C 166.03 4.23279 4.13024 0
M  V30 1758 H 164.96 0.41803 0.627509 0
M  V30 1759 H 167.611 1.51539 1.03481 0
M  V30 1760 H 165.993 1.50797 3.66164 0
M  V30 1761 H 167.167 4.00773 2.27415 0
M  V30 1762 H 165.482 3.54088 2.19113 0
M  V30 1763 H 168.079 2.45328 4.75098 0
M  V30 1764 H 168.422 0.882718 4.06834 0
M  V30 1765 H 168.955 2.34895 3.21044 0
M  V30 1766 H 165.694 5.26503 3.90481 0
M  V30 1767 H 165.214 3.74186 4.6877 0
M  V30 1768 H 166.893 4.32265 4.81411 0
M  V30 1769 N 167.025 -1.13721 1.09112 0
M  V30 1770 C 168.273 -1.84559 0.823562 0
M  V30 1771 C 168.594 -1.83754 -0.652658 0
M  V30 1772 O 167.864 -1.29102 -1.47342 0
M  V30 1773 H 166.444 -0.683376 0.301673 0
M  V30 1774 H 169.106 -1.37771 1.37859 0
M  V30 1775 H 168.202 -2.8917 1.17419 0
M  V30 1776 N 168.503 -0.877838 -1.30888 0
M  V30 1777 C 169.451 -0.328662 -2.30266 0
M  V30 1778 C 170.445 0.560496 -1.59859 0
M  V30 1779 O 171.651 0.445722 -1.74394 0
M  V30 1780 H 168.026 -0.0876142 -0.746879 0
M  V30 1781 H 169.997 -1.18061 -2.74051 0
M  V30 1782 C 168.746 0.448071 -3.44801 0
M  V30 1783 H 168.069 -0.226859 -3.99156 0
M  V30 1784 H 169.509 0.797541 -4.16432 0
M  V30 1785 C 167.968 1.64239 -2.94155 0
M  V30 1786 O 168.498 2.74175 -2.93583 0
M  V30 1787 N 166.704 1.47716 -2.50256 0
M  V30 1788 H 166.251 0.582821 -2.5092 0
M  V30 1789 H 166.209 2.27765 -2.16727 0
M  V30 1790 N 169.982 1.44106 -0.638065 0
M  V30 1791 C 171.222 2.03858 -0.148733 0
M  V30 1792 C 171.586 1.49153 1.20903 0
M  V30 1793 O 172.787 2.00452 1.79088 0
M  V30 1794 C 171.058 3.57117 -0.142314 0
M  V30 1795 S 172.617 4.37897 0.281385 0
M  V30 1796 H 169.435 0.708069 -0.0644912 0
M  V30 1797 H 172.037 1.7639 -0.843009 0
M  V30 1798 H 170.741 3.94436 -1.13349 0
M  V30 1799 H 170.272 3.89205 0.572988 0
M  V30 1800 H 172.287 4.72218 1.52395 0
M  V30 1801 N 171.46 0.379036 1.52974 0
M  V30 1802 C 172.37 -0.468639 2.29872 0
M  V30 1803 C 173.386 -1.08067 1.36373 0
M  V30 1804 O 174.562 -1.08871 1.69438 0
M  V30 1805 C 171.627 -1.58594 3.083 0
M  V30 1806 C 170.688 -1.00007 4.17489 0
M  V30 1807 C 169.921 -2.06413 4.92168 0
M  V30 1808 O 170.144 -3.27751 4.66835 0
M  V30 1809 O 169.078 -1.68717 5.7777 0
M  V30 1810 H 172.904 0.157508 3.03291 0
M  V30 1811 H 170.489 0.143035 1.48714 0
M  V30 1812 H 172.371 -2.23525 3.57232 0
M  V30 1813 H 171.046 -2.19724 2.37703 0
M  V30 1814 H 169.953 -0.314299 3.72777 0
M  V30 1815 H 171.286 -0.433135 4.90291 0
M  V30 1816 N 172.938 -1.57226 0.108567 0
M  V30 1817 C 173.885 -2.14756 -0.845481 0
M  V30 1818 C 174.855 -1.06971 -1.27068 0
M  V30 1819 O 176.04 -1.34827 -1.35005 0
M  V30 1820 C 173.18 -2.74298 -2.09415 0
M  V30 1821 C 172.293 -3.96358 -1.71826 0
M  V30 1822 C 171.428 -4.44021 -2.9158 0
M  V30 1823 C 170.467 -5.58637 -2.50181 0
M  V30 1824 N 169.604 -6.01091 -3.62814 0
M  V30 1825 H 174.444 -2.95961 -0.348035 0
M  V30 1826 H 171.981 -1.46226 -0.160106 0
M  V30 1827 H 173.939 -3.06945 -2.82561 0
M  V30 1828 H 172.569 -1.95801 -2.56636 0
M  V30 1829 H 171.621 -3.69939 -0.885947 0
M  V30 1830 H 172.933 -4.79504 -1.37394 0
M  V30 1831 H 172.087 -4.78522 -3.72963 0
M  V30 1832 H 170.826 -3.59803 -3.29231 0
M  V30 1833 H 169.831 -5.23751 -1.67228 0
M  V30 1834 H 171.056 -6.44613 -2.13659 0
M  V30 1835 H 169.002 -5.19817 -4.00158 0
M  V30 1836 H 168.919 -6.79066 -3.32273 0
M  V30 1837 H 170.187 -6.40227 -4.44668 0
M  V30 1838 N 174.416 0.165178 -1.56732 0
M  V30 1839 C 175.364 1.22369 -1.97809 0
M  V30 1840 C 176.358 1.45488 -0.867741 0
M  V30 1841 O 177.564 1.45995 -1.05288 0
M  V30 1842 H 173.939 0.411486 -0.629431 0
M  V30 1843 H 175.91 0.850425 -2.86025 0
M  V30 1844 C 174.659 2.55403 -2.35934 0
M  V30 1845 H 173.982 2.38438 -3.20916 0
M  V30 1846 H 175.422 3.2814 -2.68514 0
M  V30 1847 C 173.881 3.14611 -1.20506 0
M  V30 1848 O 174.411 3.98626 -0.496016 0
M  V30 1849 N 172.617 2.7379 -0.97403 0
M  V30 1850 H 172.164 2.0557 -1.55238 0
M  V30 1851 H 172.122 3.1374 -0.203573 0
M  V30 1852 N 175.894 1.51508 0.433938 0
M  V30 1853 C 177.142 1.6402 1.18075 0
M  V30 1854 C 177.463 0.360328 1.91642 0
M  V30 1855 O 176.733 -0.623945 1.85698 0
M  V30 1856 H 175.313 0.6045 0.43885 0
M  V30 1857 H 177.975 1.88452 0.497178 0
M  V30 1858 H 177.071 2.46949 1.90847 0
M  V30 1859 N 177.372 -0.689602 1.41712 0
M  V30 1860 C 178.62 -1.4468 1.4111 0
M  V30 1861 C 178.941 -1.94986 0.0232196 0
M  V30 1862 O 178.211 -1.72097 -0.935913 0
M  V30 1863 H 176.791 -0.536847 0.519427 0
M  V30 1864 H 179.453 -0.815825 1.77004 0
M  V30 1865 H 178.549 -2.30706 2.10193 0
M  V30 1866 N 178.85 -1.27639 -0.924453 0
M  V30 1867 C 179.783 -1.04966 -2.02626 0
M  V30 1868 C 180.761 0.0309505 -1.62571 0
M  V30 1869 O 181.945 -0.114846 -1.8815 0
M  V30 1870 C 179.072 -0.59292 -3.3347 0
M  V30 1871 C 178.118 -1.66858 -3.92506 0
M  V30 1872 S 178.951 -3.2619 -4.24689 0
M  V30 1873 C 180.107 -2.82325 -5.58609 0
M  V30 1874 H 180.34 -1.98252 -2.21547 0
M  V30 1875 H 177.873 -1.11506 -1.06798 0
M  V30 1876 H 179.831 -0.336086 -4.09122 0
M  V30 1877 H 178.492 0.319939 -3.12466 0
M  V30 1878 H 177.685 -1.30038 -4.86935 0
M  V30 1879 H 177.287 -1.87766 -3.2345 0
M  V30 1880 H 179.579 -2.2783 -6.38044 0
M  V30 1881 H 180.522 -3.75511 -6.00331 0
M  V30 1882 H 180.93 -2.21367 -5.19285 0
M  V30 1883 N 180.328 1.1314 -1.09713 0
M  V30 1884 C 181.258 2.20748 -0.761102 0
M  V30 1885 C 182.239 1.68061 0.262566 0
M  V30 1886 O 183.424 1.93765 0.129977 0
M  V30 1887 C 180.554 3.46812 -0.184054 0
M  V30 1888 C 179.508 4.12606 -1.13757 0
M  V30 1889 C 178.834 5.33031 -0.422083 0
M  V30 1890 C 180.134 4.59603 -2.48118 0
M  V30 1891 H 181.828 2.49113 -1.66082 0
M  V30 1892 H 179.374 1.19734 -0.799987 0
M  V30 1893 H 181.327 4.21353 0.0631215 0
M  V30 1894 H 180.051 3.17851 0.750868 0
M  V30 1895 H 178.71 3.40036 -1.37007 0
M  V30 1896 H 178.358 5.00335 0.517072 0
M  V30 1897 H 178.058 5.77999 -1.05788 0
M  V30 1898 H 179.582 6.10325 -0.183277 0
M  V30 1899 H 180.996 5.25552 -2.29059 0
M  V30 1900 H 179.393 5.15321 -3.07514 0
M  V30 1901 H 180.463 3.73971 -3.08665 0
M  V30 1902 N 181.806 0.884767 1.30421 0
M  V30 1903 C 182.738 0.308655 2.27112 0
M  V30 1904 C 183.751 -0.536655 1.53701 0
M  V30 1905 O 184.94 -0.35624 1.74909 0
M  V30 1906 C 182.04 -0.579782 3.33904 0
M  V30 1907 C 181.213 0.236417 4.36761 0
M  V30 1908 C 180.272 -0.582482 5.22966 0
M  V30 1909 O 179.298 -0.00525502 5.692 0
M  V30 1910 N 180.5 -1.89163 5.48815 0
M  V30 1911 H 183.265 1.13964 2.77186 0
M  V30 1912 H 180.826 0.747731 1.43599 0
M  V30 1913 H 182.818 -1.13366 3.88497 0
M  V30 1914 H 181.388 -1.31144 2.83761 0
M  V30 1915 H 180.608 0.97174 3.82035 0
M  V30 1916 H 181.896 0.795924 5.02536 0
M  V30 1917 H 181.294 -2.38352 5.13035 0
M  V30 1918 H 179.851 -2.39296 6.06284 0
M  V30 1919 N 183.284 -1.43765 0.645699 0
M  V30 1920 C 184.695 -1.85193 0.236719 0
M  V30 1921 C 185.046 -1.54045 -1.21509 0
M  V30 1922 O 184.171 -0.985694 -1.92647 0
M  V30 1923 C 184.766 -3.36151 0.422845 0
M  V30 1924 C 183.325 -3.76338 0.0682492 0
M  V30 1925 C 182.472 -2.67538 0.729306 0
M  V30 1926 H 185.423 -1.34025 0.849883 0
M  V30 1927 H 185.444 -3.79032 -0.333904 0
M  V30 1928 H 184.956 -3.5879 1.47958 0
M  V30 1929 H 183.057 -3.59312 -0.986179 0
M  V30 1930 H 183.17 -4.76603 0.488469 0
M  V30 1931 H 181.534 -2.54176 0.163235 0
M  V30 1932 H 182.317 -2.93006 1.78892 0
M  V30 1933 N 184.763 -0.387143 -1.52771 0
M  V30 1934 C 186.174 0.0873634 -1.86495 0
M  V30 1935 C 186.525 1.46336 -1.30691 0
M  V30 1936 O 185.65 2.068 -0.637409 0
M  V30 1937 C 186.245 0.165305 -3.38396 0
M  V30 1938 C 184.804 0.584101 -3.7184 0
M  V30 1939 C 183.951 -0.255279 -2.76122 0
M  V30 1940 H 186.902 -0.605104 -1.46711 0
M  V30 1941 H 186.923 0.984848 -3.67534 0
M  V30 1942 H 186.435 -0.836301 -3.78982 0
M  V30 1943 H 184.536 1.59315 -3.36823 0
M  V30 1944 H 184.649 0.343749 -4.77865 0
M  V30 1945 H 183.013 0.279126 -2.53166 0
M  V30 1946 H 183.796 -1.25482 -3.19545 0
M  V30 1947 N 186.241 1.57166 -0.116904 0
M  V30 1948 C 187.171 2.18222 0.830759 0
M  V30 1949 C 188.152 1.12167 1.27877 0
M  V30 1950 O 189.337 1.40394 1.34176 0
M  V30 1951 C 186.467 2.77996 2.08172 0
M  V30 1952 C 185.421 3.89614 1.77157 0
M  V30 1953 C 184.747 4.36187 3.09265 0
M  V30 1954 C 186.047 5.1181 1.04151 0
M  V30 1955 H 187.741 2.97664 0.321992 0
M  V30 1956 H 185.287 1.4318 0.153434 0
M  V30 1957 H 187.24 3.19366 2.74924 0
M  V30 1958 H 185.964 1.9584 2.6137 0
M  V30 1959 H 184.623 3.48816 1.12796 0
M  V30 1960 H 184.271 3.50893 3.60393 0
M  V30 1961 H 183.971 5.11455 2.89288 0
M  V30 1962 H 185.495 4.80207 3.77139 0
M  V30 1963 H 186.909 5.50214 1.61052 0
M  V30 1964 H 185.306 5.92648 0.942762 0
M  V30 1965 H 186.376 4.84892 0.0279022 0
M  V30 1966 N 187.719 -0.156864 1.56817 0
M  V30 1967 C 188.967 -0.869404 1.82444 0
M  V30 1968 C 189.288 -1.82147 0.69623 0
M  V30 1969 O 188.558 -1.93847 -0.28287 0
M  V30 1970 H 187.138 -0.324043 0.673056 0
M  V30 1971 H 189.8 -0.153224 1.94297 0
M  V30 1972 H 188.896 -1.43761 2.77019 0
M  V30 1973 N 189.197 -1.51736 -0.425897 0
M  V30 1974 C 190.444 -1.6497 -1.17436 0
M  V30 1975 C 190.772 -0.371445 -1.9092 0
M  V30 1976 O 190.027 0.644963 -1.84767 0
M  V30 1977 C 190.326 -2.81103 -2.20717 0
M  V30 1978 C 189.992 -4.19954 -1.64162 0
M  V30 1979 C 188.654 -4.57725 -1.48462 0
M  V30 1980 C 191.006 -5.06552 -1.22696 0
M  V30 1981 C 188.334 -5.79789 -0.897873 0
M  V30 1982 C 190.686 -6.29205 -0.654464 0
M  V30 1983 C 189.35 -6.6574 -0.484456 0
M  V30 1984 H 188.62 -0.603668 -0.429727 0
M  V30 1985 H 191.267 -1.85798 -0.463829 0
M  V30 1986 H 189.572 -2.54542 -2.97852 0
M  V30 1987 H 191.269 -2.8854 -2.78471 0
M  V30 1988 H 187.859 -3.90181 -1.77361 0
M  V30 1989 H 192.043 -4.77968 -1.33642 0
M  V30 1990 H 187.299 -6.06733 -0.75402 0
M  V30 1991 H 191.473 -6.95643 -0.324694 0
M  V30 1992 H 189.1 -7.60195 -0.0276833 0
M  V30 1993 N 190.675 0.682077 -1.42076 0
M  V30 1994 C 192.091 0.994324 -1.24841 0
M  V30 1995 C 192.291 2.0096 -0.147389 0
M  V30 1996 O 191.347 2.47822 0.483782 0
M  V30 1997 C 192.66 1.50607 -2.60265 0
M  V30 1998 C 194.208 1.62421 -2.6756 0
M  V30 1999 C 194.683 2.16994 -4.03333 0
M  V30 2000 N 196.174 2.24337 -4.0525 0
M  V30 2001 C 196.909 2.67621 -5.07116 0
M  V30 2002 N 196.405 3.1041 -6.19368 0
M  V30 2003 N 198.198 2.67305 -4.94474 0
M  V30 2004 H 190.349 0.00973908 -2.12398 0
M  V30 2005 H 192.612 0.0668593 -0.945639 0
M  V30 2006 H 192.318 0.834583 -3.41654 0
M  V30 2007 H 192.192 2.48602 -2.83684 0
M  V30 2008 H 194.579 2.28678 -1.86521 0
M  V30 2009 H 194.66 0.629352 -2.47937 0
M  V30 2010 H 194.304 1.51349 -4.84826 0
M  V30 2011 H 194.234 3.17258 -4.20304 0
M  V30 2012 H 196.725 1.94158 -3.24209 0
M  V30 2013 H 197.038 3.42103 -6.92954 0
M  V30 2014 H 195.383 3.08286 -6.22884 0
M  V30 2015 H 198.574 2.33233 -4.05857 0
M  V30 2016 H 198.747 3.00718 -5.73997 0
M  V30 2017 N 192.153 1.28127 0.917671 0
M  V30 2018 C 193.083 1.14248 2.03641 0
M  V30 2019 C 194.064 0.0412748 1.7005 0
M  V30 2020 O 195.249 0.217566 1.92977 0
M  V30 2021 C 192.379 0.799431 3.37974 0
M  V30 2022 C 191.333 1.85497 3.85713 0
M  V30 2023 C 190.659 1.36565 5.16966 0
M  V30 2024 C 191.959 3.26085 4.08002 0
M  V30 2025 H 193.653 2.07835 2.15511 0
M  V30 2026 H 191.199 1.00064 1.03553 0
M  V30 2027 H 193.152 0.689114 4.15727 0
M  V30 2028 H 191.876 -0.172145 3.26146 0
M  V30 2029 H 190.535 1.95437 3.10161 0
M  V30 2030 H 190.183 0.383253 5.01538 0
M  V30 2031 H 189.883 2.07143 5.49878 0
M  V30 2032 H 191.407 1.26848 5.97279 0
M  V30 2033 H 192.821 3.19089 4.76293 0
M  V30 2034 H 191.218 3.94462 4.52238 0
M  V30 2035 H 192.288 3.70394 3.12948 0
M  V30 2036 N 193.631 -1.12557 1.10312 0
M  V30 2037 C 194.579 -2.20325 0.745629 0
M  V30 2038 C 195.573 -1.67429 -0.25763 0
M  V30 2039 O 196.779 -1.79612 -0.118132 0
M  V30 2040 H 193.154 -0.718118 0.223182 0
M  V30 2041 H 195.125 -2.47733 1.66346 0
M  V30 2042 C 193.874 -3.47168 0.192262 0
M  V30 2043 H 193.197 -3.88215 0.955475 0
M  V30 2044 H 194.637 -4.23995 -0.0198274 0
M  V30 2045 C 193.096 -3.19298 -1.07472 0
M  V30 2046 O 193.626 -3.3891 -2.15645 0
M  V30 2047 N 191.832 -2.73113 -0.992847 0
M  V30 2048 H 191.379 -2.57354 -0.112474 0
M  V30 2049 H 191.337 -2.54842 -1.84127 0
M  V30 2050 N 195.109 -0.891671 -1.2995 0
M  V30 2051 C 196.072 -0.36828 -2.26222 0
M  V30 2052 C 197.072 0.493014 -1.53056 0
M  V30 2053 O 198.262 0.299213 -1.71611 0
M  V30 2054 C 195.394 0.47442 -3.37583 0
M  V30 2055 H 196.587 -1.21844 -2.74033 0
M  V30 2056 H 194.14 -0.669107 -1.41254 0
M  V30 2057 H 194.875 1.34489 -2.95099 0
M  V30 2058 H 194.66 -0.142615 -3.91841 0
M  V30 2059 H 196.15 0.83218 -4.09224 0
M  V30 2060 N 196.587 1.43421 -0.653314 0
M  V30 2061 C 197.812 2.06678 -0.172846 0
M  V30 2062 C 198.237 1.48648 1.15262 0
M  V30 2063 O 197.595 0.596457 1.71208 0
M  V30 2064 C 197.643 3.60474 -0.0953184 0
M  V30 2065 O 196.747 4.01487 0.942442 0
M  V30 2066 H 196.088 0.657181 -0.0949155 0
M  V30 2067 H 198.618 1.83925 -0.896265 0
M  V30 2068 H 198.628 4.07905 0.0879728 0
M  V30 2069 H 197.303 4.02088 -1.06291 0
M  V30 2070 H 195.88 3.65646 0.731932 0
M  V30 2071 N 198.065 0.39524 1.52563 0
M  V30 2072 C 199.29 -0.187456 2.06551 0
M  V30 2073 C 199.715 -1.39249 1.26457 0
M  V30 2074 O 199.073 -1.78947 0.291151 0
M  V30 2075 C 199.121 -0.529985 3.56684 0
M  V30 2076 O 198.225 -1.62307 3.79118 0
M  V30 2077 H 197.566 -0.0202537 0.663691 0
M  V30 2078 H 200.096 0.564426 1.96661 0
M  V30 2079 H 200.106 -0.792598 4.00227 0
M  V30 2080 H 198.781 0.350987 4.14416 0
M  V30 2081 H 197.358 -1.3537 3.47461 0
M  V30 2082 N 199.544 -1.57102 0.125237 0
M  V30 2083 C 200.79 -1.96488 -0.525753 0
M  V30 2084 C 201.145 -1.00786 -1.6389 0
M  V30 2085 O 200.438 -0.038979 -1.9156 0
M  V30 2086 C 200.632 -3.40096 -1.09862 0
M  V30 2087 C 200.461 -4.4968 -0.0425004 0
M  V30 2088 C 199.231 -5.03781 0.391463 0
M  V30 2089 C 201.429 -5.08936 0.740829 0
M  V30 2090 N 199.411 -5.96948 1.4327 0
M  V30 2091 C 200.782 -5.98105 1.6331 0
M  V30 2092 C 202.837 -4.91576 0.791029 0
M  V30 2093 C 201.54 -6.71774 2.57122 0
M  V30 2094 C 203.566 -5.6593 1.71688 0
M  V30 2095 C 202.928 -6.5479 2.59672 0
M  V30 2096 H 199.027 -0.765072 -0.161831 0
M  V30 2097 H 201.611 -1.93511 0.214801 0
M  V30 2098 H 199.782 -3.43707 -1.80887 0
M  V30 2099 H 201.514 -3.66591 -1.71444 0
M  V30 2100 H 198.269 -4.736 -0.00213584 0
M  V30 2101 H 198.693 -6.48236 1.95243 0
M  V30 2102 H 203.335 -4.22615 0.124915 0
M  V30 2103 H 201.053 -7.39977 3.24744 0
M  V30 2104 H 204.639 -5.54501 1.76125 0
M  V30 2105 H 203.519 -7.11316 3.30149 0
M  V30 2106 N 201.022 0.148545 -1.56898 0
M  V30 2107 C 202.433 0.708766 -1.72723 0
M  V30 2108 C 202.784 1.81734 -0.739395 0
M  V30 2109 O 201.909 2.16194 0.0943169 0
M  V30 2110 C 202.504 1.29245 -3.13179 0
M  V30 2111 C 201.063 1.79925 -3.30611 0
M  V30 2112 C 200.21 0.687111 -2.68652 0
M  V30 2113 H 203.161 -0.0771063 -1.58513 0
M  V30 2114 H 203.182 2.16224 -3.13093 0
M  V30 2115 H 202.694 0.485382 -3.85053 0
M  V30 2116 H 200.795 2.63203 -2.63732 0
M  V30 2117 H 200.908 1.92903 -4.38549 0
M  V30 2118 H 199.272 1.11335 -2.29078 0
M  V30 2119 H 200.055 -0.108483 -3.43129 0
M  V30 2120 N 202.5 1.5196 0.417844 0
M  V30 2121 C 203.433 1.69387 1.52916 0
M  V30 2122 C 204.411 0.541419 1.53321 0
M  V30 2123 O 205.595 0.767695 1.72159 0
M  V30 2124 C 202.722 1.72525 2.91467 0
M  V30 2125 C 201.768 2.93967 3.09008 0
M  V30 2126 S 202.601 4.54461 2.83242 0
M  V30 2127 C 203.757 4.60372 4.24038 0
M  V30 2128 H 203.99 2.63382 1.37903 0
M  V30 2129 H 201.523 1.41889 0.608845 0
M  V30 2130 H 203.481 1.75018 3.7132 0
M  V30 2131 H 202.142 0.796733 3.03827 0
M  V30 2132 H 201.335 2.92619 4.10353 0
M  V30 2133 H 200.937 2.89316 2.37007 0
M  V30 2134 H 203.229 4.37213 5.17544 0
M  V30 2135 H 204.172 5.62273 4.30412 0
M  V30 2136 H 204.58 3.89492 4.08602 0
M  V30 2137 N 203.978 -0.674533 1.42435 0
M  V30 2138 C 205.225 -1.43459 1.42919 0
M  V30 2139 C 205.553 -1.94446 0.0457312 0
M  V30 2140 O 204.808 -1.7132 -0.94593 0
M  V30 2141 C 205.107 -2.64767 2.40069 0
M  V30 2142 C 204.773 -2.3232 3.86443 0
M  V30 2143 C 203.435 -2.23182 4.26314 0
M  V30 2144 C 205.787 -2.05977 4.78773 0
M  V30 2145 C 203.115 -1.85827 5.56494 0
M  V30 2146 C 205.467 -1.70125 6.09295 0
M  V30 2147 C 204.131 -1.59498 6.48164 0
M  V30 2148 H 203.401 -0.524952 0.522978 0
M  V30 2149 H 206.048 -0.769097 1.75377 0
M  V30 2150 H 204.353 -3.36349 2.00939 0
M  V30 2151 H 206.05 -3.22949 2.37707 0
M  V30 2152 H 202.64 -2.40334 3.54877 0
M  V30 2153 H 206.824 -2.11969 4.48757 0
M  V30 2154 H 202.08 -1.76168 5.8547 0
M  V30 2155 H 206.254 -1.48767 6.80324 0
M  V30 2156 H 203.881 -1.30322 7.48946 0
M  V30 2157 N 205.456 -1.28612 -0.910864 0
M  V30 2158 C 206.386 -1.15326 -2.03032 0
M  V30 2159 C 207.367 -0.0502924 -1.70026 0
M  V30 2160 O 208.552 -0.227797 -1.92859 0
M  V30 2161 C 205.682 -0.817343 -3.37545 0
M  V30 2162 C 204.636 -1.8754 -3.84724 0
M  V30 2163 C 203.962 -1.39305 -5.16235 0
M  V30 2164 C 205.262 -3.28244 -4.06267 0
M  V30 2165 H 206.956 -2.08975 -2.14406 0
M  V30 2166 H 204.502 -1.00612 -1.03021 0
M  V30 2167 H 206.455 -0.711151 -4.15356 0
M  V30 2168 H 205.179 0.154846 -3.26233 0
M  V30 2169 H 203.838 -1.97079 -3.09121 0
M  V30 2170 H 203.486 -0.409846 -5.01328 0
M  V30 2171 H 203.186 -2.10057 -5.48771 0
M  V30 2172 H 204.71 -1.30014 -5.96598 0
M  V30 2173 H 206.124 -3.21611 -4.74594 0
M  V30 2174 H 204.521 -3.96855 -4.5014 0
M  V30 2175 H 205.591 -3.72048 -3.10979 0
M  V30 2176 N 206.934 1.1197 -1.10907 0
M  V30 2177 C 207.864 2.19928 -0.784473 0
M  V30 2178 C 208.845 1.6833 0.244726 0
M  V30 2179 O 210.03 1.93892 0.109418 0
M  V30 2180 C 207.16 3.46597 -0.220827 0
M  V30 2181 C 206.114 4.11376 -1.18127 0
M  V30 2182 C 205.44 5.32554 -0.478594 0
M  V30 2183 C 206.74 4.56945 -2.52979 0
M  V30 2184 H 208.434 2.47337 -1.68715 0
M  V30 2185 H 205.98 1.18879 -0.812642 0
M  V30 2186 H 207.933 4.21396 0.0184278 0
M  V30 2187 H 206.657 3.1863 0.717113 0
M  V30 2188 H 205.316 3.38564 -1.40606 0
M  V30 2189 H 204.964 5.00856 0.463976 0
M  V30 2190 H 204.664 5.76844 -1.11912 0
M  V30 2191 H 206.188 6.10096 -0.248 0
M  V30 2192 H 207.602 5.23093 -2.3462 0
M  V30 2193 H 205.999 5.1203 -3.12962 0
M  V30 2194 H 207.069 3.70676 -3.12614 0
M  V30 2195 N 208.412 0.89855 1.29475 0
M  V30 2196 C 209.359 0.373819 2.27753 0
M  V30 2197 C 210.329 -0.543444 1.56958 0
M  V30 2198 O 211.514 -0.468934 1.84948 0
M  V30 2199 C 208.654 -0.393648 3.42848 0
M  V30 2200 C 207.767 0.554379 4.28428 0
M  V30 2201 C 206.902 -0.230026 5.30702 0
M  V30 2202 C 205.941 0.712599 6.07938 0
M  V30 2203 N 205.078 -0.0373283 7.0209 0
M  V30 2204 H 209.918 1.21699 2.72017 0
M  V30 2205 H 207.455 0.611456 1.33789 0
M  V30 2206 H 209.413 -0.85466 4.08352 0
M  V30 2207 H 208.043 -1.20128 2.99615 0
M  V30 2208 H 207.095 1.13391 3.63107 0
M  V30 2209 H 208.407 1.27597 4.82204 0
M  V30 2210 H 207.561 -0.752288 6.02018 0
M  V30 2211 H 206.3 -0.984758 4.77654 0
M  V30 2212 H 205.305 1.24637 5.35486 0
M  V30 2213 H 206.53 1.46664 6.63074 0
M  V30 2214 H 204.476 -0.774348 6.51414 0
M  V30 2215 H 204.393 0.624374 7.53417 0
M  V30 2216 H 205.661 -0.539891 7.77628 0
M  V30 2217 N 209.89 -1.43072 0.660911 0
M  V30 2218 C 211.118 -2.06067 0.185422 0
M  V30 2219 C 211.533 -1.49582 -1.15198 0
M  V30 2220 O 210.89 -0.630134 -1.71276 0
M  V30 2221 C 210.941 -3.61371 0.0966523 0
M  V30 2222 O 210.662 -4.15758 1.38119 0
M  V30 2223 C 212.163 -4.41455 -0.403996 0
M  V30 2224 H 209.383 -0.664459 0.0934604 0
M  V30 2225 H 211.927 -1.83447 0.90373 0
M  V30 2226 H 210.082 -3.8315 -0.572259 0
M  V30 2227 H 210.496 -5.09499 1.24542 0
M  V30 2228 H 211.97 -5.50437 -0.415045 0
M  V30 2229 H 212.447 -4.15036 -1.43674 0
M  V30 2230 H 213.053 -4.24663 0.232691 0
M  V30 2231 N 211.368 -0.403325 -1.52352 0
M  V30 2232 C 212.298 0.416205 -2.29761 0
M  V30 2233 C 213.279 1.05123 -1.33728 0
M  V30 2234 O 214.464 1.06134 -1.62632 0
M  V30 2235 C 211.594 1.53624 -3.11475 0
M  V30 2236 C 210.548 1.02653 -4.15507 0
M  V30 2237 C 209.874 2.23971 -4.85532 0
M  V30 2238 C 211.174 0.08463 -5.22231 0
M  V30 2239 H 212.868 -0.229701 -2.98518 0
M  V30 2240 H 210.414 -0.111913 -1.43564 0
M  V30 2241 H 212.367 2.1165 -3.64393 0
M  V30 2242 H 211.091 2.20994 -2.40477 0
M  V30 2243 H 209.75 0.46871 -3.63591 0
M  V30 2244 H 209.398 2.89883 -4.11068 0
M  V30 2245 H 209.098 1.90521 -5.55856 0
M  V30 2246 H 210.622 2.82614 -5.41259 0
M  V30 2247 H 212.036 0.573509 -5.70424 0
M  V30 2248 H 210.433 -0.160783 -5.99885 0
M  V30 2249 H 211.503 -0.86237 -4.7717 0
M  V30 2250 N 212.846 1.57033 -0.133567 0
M  V30 2251 C 213.794 2.17348 0.828412 0
M  V30 2252 C 214.788 1.12671 1.26498 0
M  V30 2253 O 215.994 1.30947 1.23502 0
M  V30 2254 H 212.369 0.695775 0.285309 0
M  V30 2255 H 214.34 2.96935 0.295372 0
M  V30 2256 C 213.089 2.79893 2.06289 0
M  V30 2257 H 212.412 3.60147 1.73592 0
M  V30 2258 H 213.852 3.25615 2.71572 0
M  V30 2259 C 212.311 1.77713 2.86216 0
M  V30 2260 O 212.841 1.23937 3.82103 0
M  V30 2261 N 211.047 1.47321 2.50489 0
M  V30 2262 H 210.594 1.91243 1.7258 0
M  V30 2263 H 210.552 0.79199 3.04261 0
M  V30 2264 N 214.325 -0.140222 1.56975 0
M  V30 2265 C 215.573 -0.850005 1.83356 0
M  V30 2266 C 215.894 -1.81399 0.71551 0
M  V30 2267 O 215.164 -1.94136 -0.262294 0
M  V30 2268 H 213.744 -0.316886 0.676456 0
M  V30 2269 H 216.406 -0.132608 1.94448 0
M  V30 2270 H 215.502 -1.40814 2.78528 0
M  V30 2271 N 215.803 -1.52179 -0.40978 0
M  V30 2272 C 216.766 -1.74853 -1.48186 0
M  V30 2273 C 217.766 -0.618417 -1.48433 0
M  V30 2274 O 218.956 -0.886286 -1.49969 0
M  V30 2275 C 216.088 -1.8303 -2.87598 0
M  V30 2276 H 217.281 -2.70559 -1.29374 0
M  V30 2277 H 214.834 -1.42586 -0.640233 0
M  V30 2278 H 215.569 -0.89236 -3.11781 0
M  V30 2279 H 215.354 -2.65187 -2.88822 0
M  V30 2280 H 216.844 -2.02316 -3.65319 0
M  V30 2281 N 217.281 0.66697 -1.42791 0
M  V30 2282 C 218.191 1.80962 -1.49299 0
M  V30 2283 C 219.207 1.69775 -0.381108 0
M  V30 2284 O 220.383 1.91188 -0.633188 0
M  V30 2285 C 217.448 3.17156 -1.40045 0
M  V30 2286 C 216.509 3.40242 -2.6179 0
M  V30 2287 C 215.742 4.69939 -2.52969 0
M  V30 2288 O 215.965 5.48372 -1.56985 0
M  V30 2289 O 214.899 4.94441 -3.43237 0
M  V30 2290 H 218.725 1.78427 -2.45759 0
M  V30 2291 H 216.31 0.823713 -1.24641 0
M  V30 2292 H 218.192 3.98413 -1.37276 0
M  V30 2293 H 216.867 3.20312 -0.467138 0
M  V30 2294 H 215.774 2.58802 -2.70134 0
M  V30 2295 H 217.107 3.41923 -3.54047 0
M  V30 2296 N 218.759 1.29093 0.90403 0
M  V30 2297 C 219.692 1.08176 2.00931 0
M  V30 2298 C 220.67 -0.005083 1.62599 0
M  V30 2299 O 221.854 0.144765 1.87943 0
M  V30 2300 C 218.981 0.645897 3.32484 0
M  V30 2301 C 218.027 1.73081 3.89801 0
M  V30 2302 S 218.86 3.32905 4.19446 0
M  V30 2303 C 220.016 2.91176 5.54046 0
M  V30 2304 H 220.249 2.01752 2.18365 0
M  V30 2305 H 217.782 1.13191 1.0501 0
M  V30 2306 H 219.74 0.401131 4.08535 0
M  V30 2307 H 218.401 -0.270188 3.12936 0
M  V30 2308 H 217.594 1.37768 4.84805 0
M  V30 2309 H 217.196 1.92888 3.20422 0
M  V30 2310 H 219.488 2.37952 6.34338 0
M  V30 2311 H 220.431 3.85014 5.94281 0
M  V30 2312 H 220.839 2.296 5.15698 0
M  V30 2313 N 220.237 -1.11381 1.11499 0
M  V30 2314 C 221.2 -2.15622 0.777153 0
M  V30 2315 C 222.2 -1.59504 -0.203779 0
M  V30 2316 O 223.39 -1.74188 0.020782 0
M  V30 2317 C 220.522 -3.40556 0.153116 0
M  V30 2318 H 221.715 -2.47021 1.70061 0
M  V30 2319 H 219.268 -1.26577 0.916952 0
M  V30 2320 H 220.003 -3.14767 -0.780536 0
M  V30 2321 H 219.788 -3.8257 0.859238 0
M  V30 2322 H 221.278 -4.17546 -0.0671044 0
M  V30 2323 N 221.715 -0.905404 -1.28997 0
M  V30 2324 C 223.126 -0.581953 -1.77398 0
M  V30 2325 C 223.477 0.902552 -1.74208 0
M  V30 2326 O 222.602 1.70584 -1.33154 0
M  V30 2327 C 223.197 -1.04961 -3.22131 0
M  V30 2328 C 221.756 -0.777229 -3.68288 0
M  V30 2329 C 220.903 -1.22109 -2.48967 0
M  V30 2330 H 223.854 -1.08754 -1.15578 0
M  V30 2331 H 223.875 -0.387387 -3.78523 0
M  V30 2332 H 223.387 -2.13008 -3.24421 0
M  V30 2333 H 221.488 0.290383 -3.71467 0
M  V30 2334 H 221.601 -1.37911 -4.58822 0
M  V30 2335 H 219.965 -0.639971 -2.46529 0
M  V30 2336 H 220.748 -2.30972 -2.53982 0
M  V30 2337 N 223.193 1.4272 -0.668489 0
M  V30 2338 C 224.442 2.00846 -0.185389 0
M  V30 2339 C 224.755 1.53442 1.21305 0
M  V30 2340 O 225.961 2.03944 1.79218 0
M  V30 2341 C 224.417 3.58805 -0.280591 0
M  V30 2342 C 224.025 4.15198 -1.68268 0
M  V30 2343 C 225.769 4.24255 0.14412 0
M  V30 2344 C 223.676 5.655 -1.73099 0
M  V30 2345 H 222.606 0.751145 -0.0655475 0
M  V30 2346 H 225.257 1.63516 -0.832752 0
M  V30 2347 H 223.639 3.93608 0.434553 0
M  V30 2348 H 224.813 3.91866 -2.42441 0
M  V30 2349 H 223.128 3.62176 -2.05469 0
M  V30 2350 H 225.725 5.34547 0.128086 0
M  V30 2351 H 226.068 3.99277 1.17827 0
M  V30 2352 H 226.601 3.94389 -0.519798 0
M  V30 2353 H 223.34 5.95268 -2.74475 0
M  V30 2354 H 222.86 5.90842 -1.03274 0
M  V30 2355 H 224.539 6.29808 -1.48158 0
M  V30 2356 N 224.671 0.411399 1.52136 0
M  V30 2357 C 226.087 0.0623865 1.59478 0
M  V30 2358 C 226.287 -1.42554 1.4241 0
M  V30 2359 O 225.343 -2.19263 1.2522 0
M  V30 2360 C 226.656 0.559331 2.95452 0
M  V30 2361 C 228.204 0.517503 3.08692 0
M  V30 2362 C 228.679 0.990994 4.4715 0
M  V30 2363 N 230.17 0.947908 4.53397 0
M  V30 2364 C 230.905 1.28544 5.58806 0
M  V30 2365 N 230.401 1.69454 6.71757 0
M  V30 2366 N 232.194 1.20526 5.49026 0
M  V30 2367 H 224.345 1.37982 1.61477 0
M  V30 2368 H 226.608 0.566977 0.759764 0
M  V30 2369 H 226.314 1.59938 3.1323 0
M  V30 2370 H 226.188 -0.0298014 3.77188 0
M  V30 2371 H 228.575 -0.513505 2.90598 0
M  V30 2372 H 228.656 1.14272 2.28857 0
M  V30 2373 H 228.3 2.02034 4.65988 0
M  V30 2374 H 228.23 0.34257 5.25485 0
M  V30 2375 H 230.721 0.647157 3.72317 0
M  V30 2376 H 231.034 1.93513 7.48179 0
M  V30 2377 H 229.379 1.73359 6.73032 0
M  V30 2378 H 232.57 0.884505 4.59667 0
M  V30 2379 H 232.743 1.47161 6.31069 0
M  V30 2380 N 226.149 -1.5696 0.141893 0
M  V30 2381 C 227.398 -1.95135 -0.510427 0
M  V30 2382 C 227.711 -1.02896 -1.66348 0
M  V30 2383 O 228.917 -1.30629 -2.38009 0
M  V30 2384 C 227.373 -3.46876 -0.959427 0
M  V30 2385 C 226.981 -4.47691 0.166419 0
M  V30 2386 C 228.725 -3.93927 -1.58183 0
M  V30 2387 C 226.632 -5.90636 -0.300565 0
M  V30 2388 H 225.562 -0.728494 -0.194454 0
M  V30 2389 H 228.213 -1.8211 0.22542 0
M  V30 2390 H 226.595 -3.55215 -1.75038 0
M  V30 2391 H 227.769 -4.51043 0.94325 0
M  V30 2392 H 226.084 -4.10527 0.696905 0
M  V30 2393 H 228.681 -4.98158 -1.94275 0
M  V30 2394 H 229.024 -3.3519 -2.46888 0
M  V30 2395 H 229.557 -3.88484 -0.855863 0
M  V30 2396 H 226.296 -6.5318 0.550989 0
M  V30 2397 H 225.816 -5.90655 -1.04338 0
M  V30 2398 H 227.495 -6.42588 -0.754265 0
M  V30 2399 N 227.627 0.131896 -1.57047 0
M  V30 2400 C 228.874 0.841932 -1.84168 0
M  V30 2401 C 229.202 1.8048 -0.725066 0
M  V30 2402 O 228.457 1.93618 0.284692 0
M  V30 2403 C 228.756 1.63703 -3.17704 0
M  V30 2404 C 228.422 0.81961 -4.43388 0
M  V30 2405 C 227.084 0.594148 -4.77518 0
M  V30 2406 C 229.436 0.248977 -5.20605 0
M  V30 2407 C 226.764 -0.212409 -5.86315 0
M  V30 2408 C 229.116 -0.544701 -6.30251 0
M  V30 2409 C 227.78 -0.780599 -6.6292 0
M  V30 2410 H 227.05 0.308085 -0.673917 0
M  V30 2411 H 229.697 0.104867 -1.91213 0
M  V30 2412 H 228.002 2.44464 -3.06177 0
M  V30 2413 H 229.699 2.19015 -3.35907 0
M  V30 2414 H 226.289 1.00542 -4.16641 0
M  V30 2415 H 230.473 0.410408 -4.946 0
M  V30 2416 H 225.729 -0.404524 -6.1006 0
M  V30 2417 H 229.903 -0.993922 -6.89271 0
M  V30 2418 H 227.53 -1.40742 -7.47058 0
M  V30 2419 N 229.106 1.52395 0.401703 0
M  V30 2420 C 230.056 1.72649 1.48917 0
M  V30 2421 C 231.04 0.580436 1.50066 0
M  V30 2422 O 232.232 0.83779 1.55917 0
M  V30 2423 C 229.361 1.88729 2.86769 0
M  V30 2424 C 228.447 3.09228 2.90239 0
M  V30 2425 N 228.838 4.31805 2.63396 0
M  V30 2426 C 227.136 3.09214 3.21408 0
M  V30 2427 C 227.837 5.13326 2.73625 0
M  V30 2428 N 226.813 4.48735 3.06819 0
M  V30 2429 H 230.615 2.65058 1.26971 0
M  V30 2430 H 228.129 1.50528 0.609504 0
M  V30 2431 H 230.126 2.01358 3.65049 0
M  V30 2432 H 228.786 0.975252 3.09708 0
M  V30 2433 H 229.797 4.60154 2.37653 0
M  V30 2434 H 226.474 2.27774 3.49893 0
M  V30 2435 H 227.864 6.21003 2.56524 0
M  V30 2436 N 230.584 -0.659388 1.43143 0
M  V30 2437 C 231.531 -1.77249 1.47822 0
M  V30 2438 C 232.501 -1.62818 0.328558 0
M  V30 2439 O 233.686 -1.83151 0.534838 0
M  V30 2440 C 230.826 -3.15371 1.40126 0
M  V30 2441 C 229.939 -3.4098 2.65249 0
M  V30 2442 C 229.074 -4.68915 2.49584 0
M  V30 2443 C 228.113 -4.87608 3.70006 0
M  V30 2444 N 227.25 -6.06796 3.53189 0
M  V30 2445 H 232.09 -1.72584 2.42938 0
M  V30 2446 H 229.627 -0.842297 1.20598 0
M  V30 2447 H 231.585 -3.9521 1.33659 0
M  V30 2448 H 230.215 -3.19121 0.485964 0
M  V30 2449 H 229.267 -2.55282 2.8202 0
M  V30 2450 H 230.579 -3.50681 3.54717 0
M  V30 2451 H 229.733 -5.56871 2.4079 0
M  V30 2452 H 228.472 -4.61524 1.5763 0
M  V30 2453 H 227.477 -3.9809 3.79215 0
M  V30 2454 H 228.702 -4.96834 4.62961 0
M  V30 2455 H 226.648 -6.00549 2.63965 0
M  V30 2456 H 226.565 -6.17428 4.36255 0
M  V30 2457 H 227.833 -6.9739 3.48236 0
M  V30 2458 N 232.062 -1.29571 -0.897171 0
M  V30 2459 C 232.972 -1.16808 -2.03453 0
M  V30 2460 C 233.988 -0.0907471 -1.73763 0
M  V30 2461 O 235.164 -0.303312 -1.99103 0
M  V30 2462 C 232.229 -0.848264 -3.36163 0
M  V30 2463 C 231.29 -2.0097 -3.79354 0
M  V30 2464 C 230.523 -1.70505 -5.05731 0
M  V30 2465 O 230.746 -0.62718 -5.66941 0
M  V30 2466 O 229.68 -2.5538 -5.45036 0
M  V30 2467 H 233.506 -2.12325 -2.17144 0
M  V30 2468 H 231.091 -1.09047 -1.02123 0
M  V30 2469 H 232.973 -0.684581 -4.15802 0
M  V30 2470 H 231.648 0.0771071 -3.23608 0
M  V30 2471 H 230.555 -2.22863 -3.00471 0
M  V30 2472 H 231.888 -2.91636 -3.96496 0
M  V30 2473 N 233.54 1.10788 -1.12088 0
M  V30 2474 C 234.951 1.64181 -0.88891 0
M  V30 2475 C 235.302 1.87508 0.577498 0
M  V30 2476 O 234.427 1.61434 1.44112 0
M  V30 2477 C 235.022 2.98257 -1.60712 0
M  V30 2478 C 233.581 3.4853 -1.42139 0
M  V30 2479 C 232.728 2.23208 -1.6454 0
M  V30 2480 H 235.679 0.943368 -1.27618 0
M  V30 2481 H 235.7 3.65552 -1.05604 0
M  V30 2482 H 235.212 2.81246 -2.67436 0
M  V30 2483 H 233.313 3.70692 -0.376552 0
M  V30 2484 H 233.426 4.26882 -2.17505 0
M  V30 2485 H 231.79 2.31169 -1.06925 0
M  V30 2486 H 232.573 2.08733 -2.72554 0
M  V30 2487 N 235.018 0.912232 1.28515 0
M  V30 2488 C 236.429 0.591352 1.77087 0
M  V30 2489 C 236.78 -0.8933 1.74684 0
M  V30 2490 O 235.905 -1.69876 1.34056 0
M  V30 2491 C 236.5 1.06668 3.2157 0
M  V30 2492 C 235.059 0.79675 3.67871 0
M  V30 2493 C 234.206 1.23427 2.48316 0
M  V30 2494 H 237.157 1.09365 1.15 0
M  V30 2495 H 237.178 0.407455 3.78312 0
M  V30 2496 H 236.69 2.14726 3.23287 0
M  V30 2497 H 234.791 -0.270679 3.71616 0
M  V30 2498 H 234.904 1.40343 4.58084 0
M  V30 2499 H 233.268 0.653036 2.46186 0
M  V30 2500 H 234.051 2.32316 2.52753 0
M  V30 2501 N 236.496 -1.42363 0.676048 0
M  V30 2502 C 237.721 -2.06377 0.205705 0
M  V30 2503 C 238.146 -1.50463 -1.12883 0
M  V30 2504 O 237.504 -0.623619 -1.70237 0
M  V30 2505 C 237.552 -3.60277 0.152655 0
M  V30 2506 O 236.656 -4.02935 -0.87845 0
M  V30 2507 H 235.997 -0.655588 0.105359 0
M  V30 2508 H 238.527 -1.82475 0.925412 0
M  V30 2509 H 238.537 -4.07993 -0.0230675 0
M  V30 2510 H 237.212 -4.00346 1.12675 0
M  V30 2511 H 235.789 -3.66764 -0.673668 0
M  V30 2512 N 237.974 -0.419461 -1.51915 0
M  V30 2513 C 239.385 0.0477853 -1.86639 0
M  V30 2514 C 239.736 1.43531 -1.33766 0
M  V30 2515 O 238.861 2.05401 -0.68113 0
M  V30 2516 C 239.456 0.0934885 -3.38671 0
M  V30 2517 C 238.015 0.505097 -3.72996 0
M  V30 2518 C 237.162 -0.313792 -2.75519 0
M  V30 2519 H 240.113 -0.636088 -1.45395 0
M  V30 2520 H 240.134 0.906667 -3.6954 0
M  V30 2521 H 239.646 -0.916501 -3.77123 0
M  V30 2522 H 237.747 1.52135 -3.40126 0
M  V30 2523 H 237.86 0.242309 -4.78487 0
M  V30 2524 H 236.224 0.225363 -2.53701 0
M  V30 2525 H 237.007 -1.32232 -3.16812 0
M  V30 2526 N 239.452 1.56882 -0.150215 0
M  V30 2527 C 240.677 2.01027 0.510184 0
M  V30 2528 C 241.102 1.02966 1.57415 0
M  V30 2529 O 240.46 0.00590158 1.81299 0
M  V30 2530 C 240.508 3.43899 1.08472 0
M  V30 2531 O 239.612 3.4885 2.19948 0
M  V30 2532 H 238.953 0.652233 0.124451 0
M  V30 2533 H 241.483 2.03093 -0.247894 0
M  V30 2534 H 241.493 3.82766 1.41259 0
M  V30 2535 H 240.168 4.14776 0.305582 0
M  V30 2536 H 238.745 3.21827 1.88366 0
M  V30 2537 N 240.93 -0.123565 1.57115 0
M  V30 2538 C 241.88 -1.1575 1.96433 0
M  V30 2539 C 242.864 -1.37313 0.838686 0
M  V30 2540 O 244.056 -1.38482 1.10235 0
M  V30 2541 C 241.185 -2.48526 2.36833 0
M  V30 2542 C 240.271 -2.30457 3.5602 0
M  V30 2543 N 240.662 -1.8219 4.71848 0
M  V30 2544 C 238.96 -2.61129 3.61563 0
M  V30 2545 C 239.661 -1.77721 5.53886 0
M  V30 2546 N 238.637 -2.21899 4.96248 0
M  V30 2547 H 242.439 -0.776797 2.83449 0
M  V30 2548 H 239.953 -0.331364 1.58983 0
M  V30 2549 H 241.95 -3.233 2.63216 0
M  V30 2550 H 240.61 -2.87358 1.5118 0
M  V30 2551 H 241.621 -1.51805 4.95152 0
M  V30 2552 H 238.298 -3.03678 2.86507 0
M  V30 2553 H 239.688 -1.41697 6.56789 0
M  V30 2554 N 242.408 -1.52605 -0.393616 0
M  V30 2555 C 243.356 -1.77688 -1.50099 0
M  V30 2556 C 244.35 -0.644615 -1.56656 0
M  V30 2557 O 245.556 -0.826997 -1.59877 0
M  V30 2558 H 241.931 -0.562159 -0.499481 0
M  V30 2559 H 243.902 -2.7043 -1.26135 0
M  V30 2560 C 242.651 -1.95858 -2.87289 0
M  V30 2561 H 241.974 -2.8241 -2.82992 0
M  V30 2562 H 243.414 -2.174 -3.64024 0
M  V30 2563 C 241.873 -0.729848 -3.28899 0
M  V30 2564 O 242.403 0.0949217 -4.01588 0
M  V30 2565 N 240.609 -0.561283 -2.85128 0
M  V30 2566 H 240.156 -1.23357 -2.26143 0
M  V30 2567 H 240.114 0.2595 -3.13327 0
M  V30 2568 N 243.887 0.651787 -1.4349 0
M  V30 2569 C 245.134 1.41167 -1.45183 0
M  V30 2570 C 245.462 1.94349 -0.0766601 0
M  V30 2571 O 244.717 1.72804 0.918555 0
M  V30 2572 C 245.016 2.60914 -2.44251 0
M  V30 2573 C 244.682 2.26142 -3.9009 0
M  V30 2574 C 243.344 2.16371 -4.2981 0
M  V30 2575 C 245.696 1.98334 -4.81989 0
M  V30 2576 C 243.024 1.7695 -5.5938 0
M  V30 2577 C 245.376 1.6041 -6.11924 0
M  V30 2578 C 244.04 1.49166 -6.5062 0
M  V30 2579 H 243.31 0.516566 -0.531263 0
M  V30 2580 H 245.957 0.741099 -1.76579 0
M  V30 2581 H 244.262 3.3311 -2.06265 0
M  V30 2582 H 245.959 3.19127 -2.42815 0
M  V30 2583 H 242.549 2.34658 -3.58655 0
M  V30 2584 H 246.733 2.04803 -4.52072 0
M  V30 2585 H 241.989 1.66831 -5.88198 0
M  V30 2586 H 246.163 1.37925 -6.82605 0
M  V30 2587 H 243.79 1.1839 -7.50925 0
M  V30 2588 N 245.365 1.30045 0.890287 0
M  V30 2589 C 246.612 1.18561 1.64163 0
M  V30 2590 C 246.94 -0.260852 1.92743 0
M  V30 2591 O 246.195 -1.20376 1.54299 0
M  V30 2592 C 246.494 1.95409 2.99249 0
M  V30 2593 C 246.16 3.45066 2.90242 0
M  V30 2594 C 244.822 3.85878 2.87492 0
M  V30 2595 C 247.174 4.4039 2.78758 0
M  V30 2596 C 244.502 5.20314 2.7109 0
M  V30 2597 C 246.854 5.74928 2.63894 0
M  V30 2598 C 245.518 6.14986 2.59516 0
M  V30 2599 H 244.788 0.433846 0.600715 0
M  V30 2600 H 247.435 1.61088 1.03552 0
M  V30 2601 H 245.74 1.45501 3.63781 0
M  V30 2602 H 247.437 1.8392 3.56334 0
M  V30 2603 H 244.027 3.12631 2.93189 0
M  V30 2604 H 248.211 4.09806 2.79952 0
M  V30 2605 H 243.467 5.50449 2.66112 0
M  V30 2606 H 247.641 6.48434 2.53981 0
M  V30 2607 H 245.268 7.19104 2.46565 0
M  V30 2608 N 246.843 -1.10192 1.12674 0
M  V30 2609 C 247.79 -2.16606 0.796906 0
M  V30 2610 C 248.76 -1.64394 -0.237476 0
M  V30 2611 O 249.945 -1.90474 -0.111484 0
M  V30 2612 C 247.085 -3.44116 0.26043 0
M  V30 2613 C 246.198 -4.10268 1.35293 0
M  V30 2614 C 245.333 -5.25507 0.775621 0
M  V30 2615 C 244.372 -5.83567 1.84706 0
M  V30 2616 N 243.509 -6.90179 1.28829 0
M  V30 2617 H 248.349 -2.44163 1.70846 0
M  V30 2618 H 245.886 -1.19846 0.85295 0
M  V30 2619 H 247.844 -4.17143 -0.0686814 0
M  V30 2620 H 246.474 -3.16901 -0.614274 0
M  V30 2621 H 245.526 -3.35184 1.79877 0
M  V30 2622 H 246.838 -4.4946 2.16303 0
M  V30 2623 H 245.992 -6.05398 0.397327 0
M  V30 2624 H 244.731 -4.87656 -0.0656581 0
M  V30 2625 H 243.736 -5.02344 2.23452 0
M  V30 2626 H 244.961 -6.23482 2.69161 0
M  V30 2627 H 242.907 -6.54322 0.468881 0
M  V30 2628 H 242.824 -7.28097 2.03497 0
M  V30 2629 H 244.092 -7.73844 0.937311 0
M  V30 2630 N 248.321 -0.919034 -1.28029 0
M  V30 2631 C 249.254 -0.355887 -2.25408 0
M  V30 2632 C 250.232 0.542874 -1.5327 0
M  V30 2633 O 251.416 0.485338 -1.82145 0
M  V30 2634 C 248.543 0.490759 -3.35126 0
M  V30 2635 C 247.589 -0.343358 -4.25116 0
M  V30 2636 S 248.422 -1.75344 -5.05979 0
M  V30 2637 C 249.578 -0.914244 -6.19187 0
M  V30 2638 H 249.811 -1.18123 -2.72826 0
M  V30 2639 H 247.344 -0.720636 -1.36551 0
M  V30 2640 H 249.302 0.973404 -3.98792 0
M  V30 2641 H 247.963 1.29054 -2.86363 0
M  V30 2642 H 247.156 0.304266 -5.03081 0
M  V30 2643 H 246.758 -0.759851 -3.662 0
M  V30 2644 H 249.05 -0.146282 -6.77342 0
M  V30 2645 H 249.993 -1.66661 -6.88208 0
M  V30 2646 H 250.401 -0.460082 -5.62622 0
M  V30 2647 N 249.799 1.42003 -0.683588 0
M  V30 2648 C 251.047 2.01015 -0.209101 0
M  V30 2649 C 251.368 1.54365 1.19149 0
M  V30 2650 O 250.638 0.769083 1.80172 0
M  V30 2651 H 249.218 0.743294 -0.074315 0
M  V30 2652 H 251.88 1.73798 -0.882066 0
M  V30 2653 H 250.976 3.11343 -0.2172 0
M  V30 2654 N 251.277 0.427512 1.51691 0
M  V30 2655 C 252.21 -0.433876 2.24037 0
M  V30 2656 C 253.188 -1.03287 1.25581 0
M  V30 2657 O 254.372 -1.07722 1.54688 0
M  V30 2658 C 251.499 -1.60385 2.98319 0
M  V30 2659 C 250.545 -1.12648 4.11355 0
M  V30 2660 S 251.378 -0.076543 5.35445 0
M  V30 2661 C 252.534 -1.25141 6.13262 0
M  V30 2662 H 252.767 0.180367 2.96752 0
M  V30 2663 H 250.3 0.211946 1.52938 0
M  V30 2664 H 252.258 -2.27462 3.41718 0
M  V30 2665 H 250.919 -2.18948 2.25213 0
M  V30 2666 H 250.112 -2.0011 4.62571 0
M  V30 2667 H 249.714 -0.534088 3.70167 0
M  V30 2668 H 252.006 -2.17162 6.41753 0
M  V30 2669 H 252.949 -0.779411 7.03797 0
M  V30 2670 H 253.357 -1.48553 5.44603 0
M  V30 2671 N 252.755 -1.56801 0.158532 0
M  V30 2672 C 253.702 -2.17337 -0.776729 0
M  V30 2673 C 254.672 -1.1096 -1.23601 0
M  V30 2674 O 255.857 -1.39054 -1.30647 0
M  V30 2675 C 252.997 -2.80822 -2.00582 0
M  V30 2676 C 252.11 -4.01624 -1.59129 0
M  V30 2677 C 251.245 -4.53072 -2.77306 0
M  V30 2678 C 250.284 -5.66314 -2.32282 0
M  V30 2679 N 249.421 -6.12329 -3.43508 0
M  V30 2680 H 254.261 -2.96918 -0.253701 0
M  V30 2681 H 251.798 -1.46661 -0.113504 0
M  V30 2682 H 253.756 -3.15779 -2.72652 0
M  V30 2683 H 252.386 -2.03866 -2.50277 0
M  V30 2684 H 251.438 -3.72571 -0.767806 0
M  V30 2685 H 252.75 -4.83633 -1.2207 0
M  V30 2686 H 251.904 -4.90145 -3.57551 0
M  V30 2687 H 250.643 -3.70095 -3.17617 0
M  V30 2688 H 249.648 -5.28806 -1.5048 0
M  V30 2689 H 250.873 -6.51085 -1.93043 0
M  V30 2690 H 248.819 -5.32284 -3.83418 0
M  V30 2691 H 248.736 -6.89293 -3.105 0
M  V30 2692 H 250.004 -6.5405 -4.24075 0
M  V30 2693 N 254.233 0.115231 -1.57178 0
M  V30 2694 C 255.163 1.1423 -2.03651 0
M  V30 2695 C 256.144 1.42967 -0.921655 0
M  V30 2696 O 257.329 1.53343 -1.19162 0
M  V30 2697 C 254.459 2.4675 -2.44401 0
M  V30 2698 C 253.413 2.32467 -3.59365 0
M  V30 2699 C 252.739 3.69984 -3.86026 0
M  V30 2700 C 254.039 1.78203 -4.90959 0
M  V30 2701 H 255.733 0.755749 -2.89705 0
M  V30 2702 H 253.279 0.362093 -1.39373 0
M  V30 2703 H 255.232 3.18854 -2.75517 0
M  V30 2704 H 253.956 2.87302 -1.55322 0
M  V30 2705 H 252.615 1.62811 -3.28463 0
M  V30 2706 H 252.263 4.08028 -2.94147 0
M  V30 2707 H 251.963 3.61279 -4.63412 0
M  V30 2708 H 253.487 4.43587 -4.19599 0
M  V30 2709 H 254.901 2.40128 -5.20587 0
M  V30 2710 H 253.298 1.8031 -5.72371 0
M  V30 2711 H 254.368 0.739876 -4.79222 0
M  V30 2712 N 255.711 1.52812 0.385517 0
M  V30 2713 C 256.621 1.80766 1.49535 0
M  V30 2714 C 257.637 0.694651 1.59532 0
M  V30 2715 O 258.813 0.982611 1.75803 0
M  V30 2716 C 255.878 1.97381 2.85029 0
M  V30 2717 C 254.939 3.21295 2.84724 0
M  V30 2718 C 254.172 3.37108 4.13756 0
M  V30 2719 O 254.395 2.5765 5.08893 0
M  V30 2720 O 253.329 4.30378 4.20783 0
M  V30 2721 H 257.155 2.75015 1.28842 0
M  V30 2722 H 254.74 1.37946 0.573697 0
M  V30 2723 H 256.622 2.09996 3.65349 0
M  V30 2724 H 255.297 1.06322 3.05741 0
M  V30 2725 H 254.204 3.1412 2.03174 0
M  V30 2726 H 255.537 4.12212 2.68965 0
M  V30 2727 N 257.189 -0.644168 1.43834 0
M  V30 2728 C 258.152 -1.73857 1.49353 0
M  V30 2729 C 259.152 -1.56315 0.377112 0
M  V30 2730 O 260.342 -1.62048 0.639226 0
M  V30 2731 C 257.474 -3.12819 1.35488 0
M  V30 2732 H 258.667 -1.70342 2.46827 0
M  V30 2733 H 256.22 -0.856652 1.30733 0
M  V30 2734 H 256.955 -3.2194 0.390569 0
M  V30 2735 H 256.74 -3.26958 2.16428 0
M  V30 2736 H 258.23 -3.92606 1.42302 0
M  V30 2737 N 258.668 -1.30515 -0.883378 0
M  V30 2738 C 259.914 -1.19607 -1.63774 0
M  V30 2739 C 260.247 0.248314 -1.92606 0
M  V30 2740 O 259.522 1.17742 -1.54813 0
M  V30 2741 C 259.805 -2.02669 -2.97653 0
M  V30 2742 C 259.658 -3.55335 -2.75784 0
M  V30 2743 C 260.977 -1.86573 -3.98596 0
M  V30 2744 H 258.096 -0.435856 -0.594305 0
M  V30 2745 H 260.738 -1.60165 -1.02212 0
M  V30 2746 H 258.888 -1.68208 -3.50197 0
M  V30 2747 H 260.56 -3.99863 -2.30016 0
M  V30 2748 H 258.803 -3.79438 -2.1026 0
M  V30 2749 H 259.474 -4.08745 -3.70988 0
M  V30 2750 H 261.95 -2.16703 -3.55217 0
M  V30 2751 H 260.826 -2.47014 -4.90179 0
M  V30 2752 H 261.087 -0.825321 -4.34328 0
M  V30 2753 N 260.146 1.09593 -1.13257 0
M  V30 2754 C 261.423 1.78293 -0.804432 0
M  V30 2755 C 261.803 1.99004 0.70431 0
M  V30 2756 O 261.151 1.59007 1.641 0
M  V30 2757 C 261.361 3.10707 -1.5894 0
M  V30 2758 C 262.709 3.85443 -1.78099 0
M  V30 2759 O 263.733 3.20454 -1.55525 0
M  V30 2760 O 262.592 5.02108 -2.15753 0
M  V30 2761 H 259.686 0.773156 -0.293528 0
M  V30 2762 H 262.232 1.16164 -1.23709 0
M  V30 2763 H 261.004 2.91106 -2.61482 0
M  V30 2764 H 260.627 3.80558 -1.15157 0
M  V30 2765 N 261.624 0.925811 1.2754 0
M  V30 2766 C 263.04 0.625767 1.46821 0
M  V30 2767 C 263.24 -0.825506 1.83814 0
M  V30 2768 O 262.296 -1.60356 1.95044 0
M  V30 2769 C 263.609 1.57402 2.56213 0
M  V30 2770 C 265.157 1.58204 2.70075 0
M  V30 2771 C 265.632 2.51721 3.82623 0
M  V30 2772 N 267.123 2.49917 3.89994 0
M  V30 2773 C 267.858 3.18968 4.76494 0
M  V30 2774 N 267.354 3.97391 5.67496 0
M  V30 2775 N 269.147 3.07996 4.70208 0
M  V30 2776 H 261.298 1.86409 1.01811 0
M  V30 2777 H 263.561 0.800213 0.508295 0
M  V30 2778 H 263.267 2.60925 2.35819 0
M  V30 2779 H 263.141 1.31428 3.53563 0
M  V30 2780 H 265.528 0.554124 2.89851 0
M  V30 2781 H 265.609 1.88226 1.73218 0
M  V30 2782 H 265.253 3.54622 3.63601 0
M  V30 2783 H 265.183 2.18996 4.78903 0
M  V30 2784 H 267.674 1.9296 3.24923 0
M  V30 2785 H 267.987 4.4707 6.30356 0
M  V30 2786 H 266.332 4.01495 5.67298 0
M  V30 2787 H 269.523 2.46223 3.9811 0
M  V30 2788 H 269.696 3.6208 5.37403 0
M  V30 2789 N 263.102 -1.41638 0.69111 0
M  V30 2790 C 264.049 -2.30789 0.0229705 0
M  V30 2791 C 265.019 -1.46863 -0.775911 0
M  V30 2792 O 266.204 -1.75661 -0.74485 0
M  V30 2793 C 263.344 -3.32868 -0.910666 0
M  V30 2794 C 262.457 -4.31875 -0.103874 0
M  V30 2795 C 261.592 -5.21024 -1.03475 0
M  V30 2796 C 260.631 -6.11702 -0.220598 0
M  V30 2797 N 259.768 -6.93349 -1.10504 0
M  V30 2798 H 264.608 -2.87366 0.788978 0
M  V30 2799 H 262.145 -1.41535 0.400794 0
M  V30 2800 H 264.103 -3.90596 -1.46597 0
M  V30 2801 H 262.733 -2.77851 -1.64312 0
M  V30 2802 H 261.785 -3.76131 0.568285 0
M  V30 2803 H 263.097 -4.96003 0.527504 0
M  V30 2804 H 262.251 -5.83565 -1.65943 0
M  V30 2805 H 260.99 -4.57112 -1.69999 0
M  V30 2806 H 259.995 -5.48215 0.417187 0
M  V30 2807 H 261.22 -6.77668 0.440784 0
M  V30 2808 H 259.166 -6.3205 -1.75638 0
M  V30 2809 H 259.083 -7.54146 -0.529125 0
M  V30 2810 H 260.351 -7.60362 -1.71667 0
M  V30 2811 N 264.58 -0.43555 -1.51462 0
M  V30 2812 C 265.528 0.391205 -2.29287 0
M  V30 2813 C 266.522 1.02247 -1.35062 0
M  V30 2814 O 267.728 0.957646 -1.52411 0
M  V30 2815 H 264.103 0.144968 -0.737895 0
M  V30 2816 H 266.074 -0.286051 -2.97026 0
M  V30 2817 C 264.823 1.48096 -3.14583 0
M  V30 2818 H 264.146 1.00457 -3.86973 0
M  V30 2819 H 265.586 2.03273 -3.72097 0
M  V30 2820 C 264.045 2.46321 -2.29843 0
M  V30 2821 O 264.575 3.50815 -1.95682 0
M  V30 2822 N 262.781 2.17166 -1.931 0
M  V30 2823 H 262.328 1.32218 -2.21079 0
M  V30 2824 H 262.286 2.83127 -1.36698 0
M  V30 2825 N 266.058 1.56714 -0.166846 0
M  V30 2826 C 267.469 1.83378 0.350646 0
M  V30 2827 C 267.82 1.08646 1.63372 0
M  V30 2828 O 266.945 0.338058 2.13743 0
M  V30 2829 C 267.54 3.32643 0.642963 0
M  V30 2830 C 266.099 3.59818 1.10491 0
M  V30 2831 C 265.246 2.76954 0.138411 0
M  V30 2832 H 268.197 1.53803 -0.391193 0
M  V30 2833 H 268.218 3.49878 1.49551 0
M  V30 2834 H 267.73 3.87007 -0.291055 0
M  V30 2835 H 265.831 3.1086 2.05418 0
M  V30 2836 H 265.944 4.68178 1.01716 0
M  V30 2837 H 264.308 2.4666 0.634911 0
M  V30 2838 H 265.091 3.34097 -0.789549 0
M  V30 2839 N 267.536 -0.106894 1.57237 0
M  V30 2840 C 268.486 -1.1366 1.9765 0
M  V30 2841 C 269.47 -1.36416 0.853203 0
M  V30 2842 O 270.662 -1.37305 1.11697 0
M  V30 2843 C 267.791 -2.46 2.39455 0
M  V30 2844 C 266.877 -2.26668 3.58445 0
M  V30 2845 N 267.268 -1.77176 4.73754 0
M  V30 2846 C 265.566 -2.57279 3.64312 0
M  V30 2847 C 266.267 -1.71836 5.5574 0
M  V30 2848 N 265.243 -2.16623 4.98573 0
M  V30 2849 H 269.045 -0.74669 2.84256 0
M  V30 2850 H 266.559 -0.314483 1.59326 0
M  V30 2851 H 268.556 -3.2049 2.6663 0
M  V30 2852 H 267.216 -2.85738 1.54219 0
M  V30 2853 H 268.227 -1.46545 4.96734 0
M  V30 2854 H 264.904 -3.00622 2.89711 0
M  V30 2855 H 266.294 -1.34723 6.58255 0
M  V30 2856 N 269.014 -1.53014 -0.377408 0
M  V30 2857 C 270.261 -1.68623 -1.12128 0
M  V30 2858 C 270.589 -0.431997 -1.89642 0
M  V30 2859 O 269.844 0.585855 -1.86725 0
M  V30 2860 C 270.143 -2.87982 -2.11663 0
M  V30 2861 C 269.809 -4.24964 -1.50719 0
M  V30 2862 C 268.471 -4.62217 -1.33825 0
M  V30 2863 C 270.823 -5.10199 -1.06519 0
M  V30 2864 C 268.151 -5.82352 -0.712963 0
M  V30 2865 C 270.503 -6.30969 -0.453955 0
M  V30 2866 C 269.167 -6.66944 -0.272411 0
M  V30 2867 H 268.437 -0.617034 -0.410305 0
M  V30 2868 H 271.084 -1.8718 -0.404484 0
M  V30 2869 H 269.389 -2.63889 -2.89603 0
M  V30 2870 H 271.086 -2.97253 -2.6915 0
M  V30 2871 H 267.676 -3.95626 -1.64858 0
M  V30 2872 H 271.86 -4.81978 -1.18368 0
M  V30 2873 H 267.116 -6.08824 -0.560611 0
M  V30 2874 H 271.29 -6.96324 -0.103217 0
M  V30 2875 H 268.917 -7.59898 0.214181 0
M  V30 2876 N 270.492 0.636531 -1.44174 0
M  V30 2877 C 271.741 1.39213 -1.45954 0
M  V30 2878 C 272.054 1.95374 -0.0939119 0
M  V30 2879 O 273.26 2.71498 0.0107767 0
M  V30 2880 C 271.716 2.52025 -2.56927 0
M  V30 2881 C 271.324 2.024 -3.99673 0
M  V30 2882 C 273.068 3.29269 -2.67922 0
M  V30 2883 C 270.975 3.12521 -5.0208 0
M  V30 2884 H 269.905 0.523132 -0.542999 0
M  V30 2885 H 272.556 0.685349 -1.70221 0
M  V30 2886 H 270.938 3.25253 -2.25891 0
M  V30 2887 H 272.112 1.36073 -4.40251 0
M  V30 2888 H 270.427 1.37987 -3.92872 0
M  V30 2889 H 273.024 4.11352 -3.41605 0
M  V30 2890 H 273.367 3.78397 -1.73555 0
M  V30 2891 H 273.9 2.63129 -2.98342 0
M  V30 2892 H 270.639 2.68343 -5.98057 0
M  V30 2893 H 270.159 3.77507 -4.66099 0
M  V30 2894 H 271.838 3.77385 -5.25538 0
M  V30 2895 N 271.97 1.30982 0.876444 0
M  V30 2896 C 273.21 1.21589 1.64303 0
M  V30 2897 C 273.574 -0.223962 1.90689 0
M  V30 2898 O 274.775 -0.44128 2.65153 0
M  V30 2899 C 273.046 2.03007 2.94148 0
M  V30 2900 S 274.605 2.10405 3.85065 0
M  V30 2901 H 271.423 0.433161 0.563819 0
M  V30 2902 H 274.025 1.65565 1.03964 0
M  V30 2903 H 272.729 3.06719 2.72675 0
M  V30 2904 H 272.26 1.59725 3.59515 0
M  V30 2905 H 274.275 1.23765 4.80517 0
M  V30 2906 N 273.449 -1.08991 1.13837 0
M  V30 2907 C 274.86 -1.62746 0.914917 0
M  V30 2908 C 275.211 -1.88403 -0.547594 0
M  V30 2909 O 274.336 -1.63706 -1.41525 0
M  V30 2910 C 274.931 -2.95662 1.65437 0
M  V30 2911 C 273.49 -3.46225 1.47666 0
M  V30 2912 C 272.637 -2.20562 1.6807 0
M  V30 2913 H 275.588 -0.922946 1.29102 0
M  V30 2914 H 275.609 -3.63825 1.11407 0
M  V30 2915 H 275.121 -2.76956 2.71877 0
M  V30 2916 H 273.222 -3.70046 0.435478 0
M  V30 2917 H 273.335 -4.23368 2.24268 0
M  V30 2918 H 271.699 -2.29439 1.10589 0
M  V30 2919 H 272.482 -2.0437 2.7584 0
M  V30 2920 N 274.927 -0.932562 -1.27047 0
M  V30 2921 C 275.89 -0.440064 -2.24936 0
M  V30 2922 C 276.89 0.444071 -1.54547 0
M  V30 2923 O 278.08 0.244465 -1.72476 0
M  V30 2924 C 275.212 0.36678 -3.38921 0
M  V30 2925 H 276.405 -1.305 -2.70018 0
M  V30 2926 H 273.958 -0.713707 -1.39054 0
M  V30 2927 H 274.693 1.25033 -2.99228 0
M  V30 2928 H 274.478 -0.267204 -3.91188 0
M  V30 2929 H 275.968 0.701567 -4.11665 0
M  V30 2930 N 276.405 1.4127 -0.698611 0
M  V30 2931 C 277.633 2.05503 -0.239992 0
M  V30 2932 C 278.048 1.52584 1.11191 0
M  V30 2933 O 277.405 0.675323 1.69545 0
M  V30 2934 C 277.456 3.60987 -0.192429 0
M  V30 2935 O 277.177 4.1195 -1.49094 0
M  V30 2936 C 278.678 4.42371 0.28681 0
M  V30 2937 H 275.898 0.661748 -0.111045 0
M  V30 2938 H 278.442 1.80987 -0.95205 0
M  V30 2939 H 276.597 3.84533 0.470472 0
M  V30 2940 H 277.011 5.06018 -1.38007 0
M  V30 2941 H 278.485 5.51344 0.26896 0
M  V30 2942 H 278.962 4.18699 1.32619 0
M  V30 2943 H 279.568 4.23897 -0.345201 0
M  V30 2944 N 277.883 0.443576 1.51229 0
M  V30 2945 C 279.132 -0.122332 2.01329 0
M  V30 2946 C 279.445 -1.43237 1.33201 0
M  V30 2947 O 280.651 -2.0816 1.74304 0
M  V30 2948 C 279.107 -0.268551 3.58897 0
M  V30 2949 C 278.715 1.03142 4.35965 0
M  V30 2950 C 280.459 -0.787894 4.17124 0
M  V30 2951 C 278.366 0.850504 5.85252 0
M  V30 2952 H 277.296 -0.0494929 0.752374 0
M  V30 2953 H 279.947 0.574289 1.74282 0
M  V30 2954 H 278.329 -1.02832 3.82415 0
M  V30 2955 H 279.503 1.80001 4.24189 0
M  V30 2956 H 277.818 1.47977 3.89219 0
M  V30 2957 H 280.415 -0.939841 5.26375 0
M  V30 2958 H 280.758 -1.77201 3.76703 0
M  V30 2959 H 281.291 -0.0862669 3.97706 0
M  V30 2960 H 278.03 1.80718 6.30096 0
M  V30 2961 H 277.55 0.121825 5.99676 0
M  V30 2962 H 279.229 0.506163 6.45017 0
M  V30 2963 N 279.361 -1.56624 0.175154 0
M  V30 2964 C 280.609 -1.96609 -0.467885 0
M  V30 2965 C 280.93 -1.06238 -1.63519 0
M  V30 2966 O 280.2 -0.129523 -1.95471 0
M  V30 2967 H 278.78 -0.726008 -0.175845 0
M  V30 2968 H 281.442 -1.93195 0.257234 0
M  V30 2969 H 280.538 -3.00989 -0.825342 0
M  V30 2970 N 280.839 0.0985539 -1.57292 0
M  V30 2971 C 281.749 1.13824 -2.05137 0
M  V30 2972 C 282.765 1.44076 -0.975604 0
M  V30 2973 O 283.941 1.54786 -1.28853 0
M  V30 2974 C 281.006 2.43969 -2.46333 0
M  V30 2975 C 280.067 2.2093 -3.68087 0
M  V30 2976 C 279.3 3.44869 -4.0731 0
M  V30 2977 O 279.523 4.52972 -3.46659 0
M  V30 2978 O 278.457 3.34661 -5.00285 0
M  V30 2979 H 282.283 0.761881 -2.93988 0
M  V30 2980 H 279.868 0.310818 -1.46131 0
M  V30 2981 H 281.75 3.20609 -2.73473 0
M  V30 2982 H 280.425 2.81038 -1.60621 0
M  V30 2983 H 279.332 1.42081 -3.46069 0
M  V30 2984 H 280.665 1.88755 -4.54568 0
M  V30 2985 N 282.317 1.53212 0.369288 0
M  V30 2986 C 283.563 1.69466 1.11397 0
M  V30 2987 C 283.896 0.443257 1.89074 0
M  V30 2988 O 283.171 -0.559386 1.86282 0
M  V30 2989 C 283.454 2.9422 2.07621 0
M  V30 2990 C 283.307 4.29508 1.33577 0
M  V30 2991 C 284.626 3.14565 3.07794 0
M  V30 2992 H 281.745 0.616667 0.403597 0
M  V30 2993 H 284.387 1.85845 0.395179 0
M  V30 2994 H 282.537 2.80387 2.68916 0
M  V30 2995 H 284.209 4.55147 0.750955 0
M  V30 2996 H 282.452 4.29088 0.637618 0
M  V30 2997 H 283.123 5.12926 2.03989 0
M  V30 2998 H 285.599 3.2756 2.56601 0
M  V30 2999 H 284.475 4.03297 3.72348 0
M  V30 3000 H 284.736 2.29675 3.77759 0
M  V30 3001 N 283.795 -0.628877 1.44509 0
M  V30 3002 C 285.211 -0.947305 1.28446 0
M  V30 3003 C 285.411 -2.00275 0.221872 0
M  V30 3004 O 284.467 -2.49447 -0.391471 0
M  V30 3005 C 285.78 -1.40843 2.65676 0
M  V30 3006 C 287.328 -1.52379 2.73404 0
M  V30 3007 C 287.803 -2.01875 4.11109 0
M  V30 3008 N 289.294 -2.09142 4.13296 0
M  V30 3009 C 290.029 -2.48615 5.16699 0
M  V30 3010 N 289.525 -2.87209 6.30462 0
M  V30 3011 N 291.318 -2.48768 5.04054 0
M  V30 3012 H 283.469 0.0690977 2.12288 0
M  V30 3013 H 285.732 -0.0317164 0.947469 0
M  V30 3014 H 285.438 -0.707206 3.44516 0
M  V30 3015 H 285.312 -2.37902 2.92716 0
M  V30 3016 H 287.699 -2.21598 1.9488 0
M  V30 3017 H 287.78 -0.536898 2.50102 0
M  V30 3018 H 287.424 -1.3325 4.90109 0
M  V30 3019 H 287.354 -3.0144 4.31789 0
M  V30 3020 H 289.845 -1.81991 3.31191 0
M  V30 3021 H 290.158 -3.16149 7.05174 0
M  V30 3022 H 288.503 -2.84955 6.33897 0
M  V30 3023 H 291.694 -2.18009 4.14234 0
M  V30 3024 H 291.867 -2.79207 5.84763 0
M  V30 3025 N 285.273 -1.31445 -0.869486 0
M  V30 3026 C 286.521 -1.20918 -1.61936 0
M  V30 3027 C 286.842 0.232683 -1.93607 0
M  V30 3028 O 286.112 1.15352 -1.58338 0
M  V30 3029 H 284.692 -0.44454 -0.600328 0
M  V30 3030 H 287.354 -1.64776 -1.0409 0
M  V30 3031 H 286.45 -1.78124 -2.56278 0
M  V30 3032 N 286.751 1.08385 -1.14413 0
M  V30 3033 C 287.976 1.85057 -0.936413 0
M  V30 3034 C 288.401 1.81055 0.509971 0
M  V30 3035 O 287.759 1.1958 1.36273 0
M  V30 3036 C 287.807 3.30505 -1.44217 0
M  V30 3037 O 286.911 4.07491 -0.634409 0
M  V30 3038 H 286.252 0.573425 -0.334784 0
M  V30 3039 H 288.782 1.36799 -1.52142 0
M  V30 3040 H 288.792 3.81348 -1.45043 0
M  V30 3041 H 287.467 3.32734 -2.49522 0
M  V30 3042 H 286.044 3.66368 -0.694902 0
M  V30 3043 N 288.23 0.939286 1.26551 0
M  V30 3044 C 289.14 0.453432 2.30176 0
M  V30 3045 C 290.156 -0.471649 1.67486 0
M  V30 3046 O 291.332 -0.35164 1.98306 0
M  V30 3047 C 288.397 -0.275326 3.45605 0
M  V30 3048 C 287.458 0.686084 4.23782 0
M  V30 3049 C 286.691 -0.00798994 5.33699 0
M  V30 3050 O 286.914 -1.22528 5.57085 0
M  V30 3051 O 285.848 0.669746 5.98162 0
M  V30 3052 H 289.674 1.31416 2.73795 0
M  V30 3053 H 287.259 0.705095 1.31715 0
M  V30 3054 H 289.141 -0.685911 4.1578 0
M  V30 3055 H 287.816 -1.11147 3.0402 0
M  V30 3056 H 286.723 1.14658 3.56096 0
M  V30 3057 H 288.056 1.48979 4.69112 0
M  V30 3058 N 289.708 -1.40897 0.706093 0
M  V30 3059 C 290.954 -2.01352 0.241889 0
M  V30 3060 C 291.287 -1.55832 -1.15888 0
M  V30 3061 O 290.562 -0.774145 -1.7843 0
M  V30 3062 C 290.845 -3.58752 0.311311 0
M  V30 3063 C 290.698 -4.1437 1.74978 0
M  V30 3064 C 292.017 -4.38914 -0.322922 0
M  V30 3065 H 289.136 -0.731562 0.0893687 0
M  V30 3066 H 291.778 -1.67504 0.896802 0
M  V30 3067 H 289.928 -3.87718 -0.246302 0
M  V30 3068 H 291.6 -3.96239 2.36205 0
M  V30 3069 H 289.843 -3.69016 2.28057 0
M  V30 3070 H 290.514 -5.23532 1.74981 0
M  V30 3071 H 292.99 -4.15822 0.152089 0
M  V30 3072 H 291.866 -5.48358 -0.243855 0
M  V30 3073 H 292.127 -4.19176 -1.40513 0
M  V30 3074 N 291.186 -0.45159 -1.50991 0
M  V30 3075 C 292.116 0.342898 -2.30969 0
M  V30 3076 C 293.097 1.00815 -1.37005 0
M  V30 3077 O 294.282 1.00907 -1.65926 0
M  V30 3078 C 291.412 1.43637 -3.16205 0
M  V30 3079 C 290.366 0.893818 -4.18563 0
M  V30 3080 C 289.692 2.08411 -4.92411 0
M  V30 3081 C 290.992 -0.0815568 -5.22236 0
M  V30 3082 H 292.686 -0.324556 -2.97636 0
M  V30 3083 H 290.232 -0.157531 -1.43136 0
M  V30 3084 H 292.185 1.9995 -3.70942 0
M  V30 3085 H 290.909 2.13232 -2.47386 0
M  V30 3086 H 289.568 0.352798 -3.64898 0
M  V30 3087 H 289.216 2.76658 -4.20082 0
M  V30 3088 H 288.916 1.72741 -5.61636 0
M  V30 3089 H 290.44 2.65251 -5.49976 0
M  V30 3090 H 291.854 0.391742 -5.7196 0
M  V30 3091 H 290.251 -0.351551 -5.99069 0
M  V30 3092 H 291.321 -1.01374 -4.74185 0
M  V30 3093 N 292.664 1.56529 -0.183458 0
M  V30 3094 C 293.91 1.97537 0.459036 0
M  V30 3095 C 294.243 1.06989 1.62071 0
M  V30 3096 O 293.518 0.11948 1.94133 0
M  V30 3097 C 293.801 3.47874 0.930368 0
M  V30 3098 C 293.654 4.492 -0.232317 0
M  V30 3099 C 294.973 4.01612 1.79989 0
M  V30 3100 H 292.092 0.718204 0.165383 0
M  V30 3101 H 294.734 1.88042 -0.272038 0
M  V30 3102 H 292.884 3.56095 1.55333 0
M  V30 3103 H 294.556 4.53027 -0.86972 0
M  V30 3104 H 292.799 4.24657 -0.885928 0
M  V30 3105 H 293.47 5.51823 0.139796 0
M  V30 3106 H 295.946 3.96097 1.27461 0
M  V30 3107 H 294.822 5.07195 2.09867 0
M  V30 3108 H 295.083 3.46163 2.74998 0
M  V30 3109 N 294.142 -0.090211 1.57342 0
M  V30 3110 C 295.37 -0.806224 1.90546 0
M  V30 3111 C 295.785 -1.72041 0.777644 0
M  V30 3112 O 295.142 -1.80778 -0.250103 0
M  V30 3113 C 295.193 -1.61546 3.23396 0
M  V30 3114 O 294.914 -0.738043 4.31839 0
M  V30 3115 C 296.415 -2.4341 3.70495 0
M  V30 3116 H 293.635 -0.230256 0.630257 0
M  V30 3117 H 296.179 -0.0659843 2.04394 0
M  V30 3118 H 294.334 -2.30816 3.11131 0
M  V30 3119 H 294.748 -1.29901 5.08159 0
M  V30 3120 H 296.222 -2.95676 4.66133 0
M  V30 3121 H 296.699 -3.22098 2.98579 0
M  V30 3122 H 297.305 -1.79331 3.85643 0
M  V30 3123 N 295.62 -1.53406 -0.361157 0
M  V30 3124 C 296.867 -1.69802 -1.10333 0
M  V30 3125 C 297.195 -0.452087 -1.89173 0
M  V30 3126 O 296.45 0.566017 -1.87336 0
M  V30 3127 C 296.749 -2.90211 -2.08596 0
M  V30 3128 C 296.415 -4.26539 -1.46203 0
M  V30 3129 C 295.077 -4.6361 -1.28915 0
M  V30 3130 C 297.429 -5.113 -1.01101 0
M  V30 3131 C 294.757 -5.83075 -0.651157 0
M  V30 3132 C 297.109 -6.31415 -0.387007 0
M  V30 3133 C 295.773 -6.67195 -0.201657 0
M  V30 3134 H 295.043 -0.621351 -0.403737 0
M  V30 3135 H 297.69 -1.87598 -0.384609 0
M  V30 3136 H 295.995 -2.66946 -2.86788 0
M  V30 3137 H 297.692 -3.00091 -2.65982 0
M  V30 3138 H 294.282 -3.97352 -1.60653 0
M  V30 3139 H 298.466 -4.83206 -1.13249 0
M  V30 3140 H 293.722 -6.09385 -0.496006 0
M  V30 3141 H 297.896 -6.96394 -0.0293563 0
M  V30 3142 H 295.523 -7.59628 0.294766 0
M  V30 3143 N 297.098 0.621204 -1.44841 0
M  V30 3144 C 298.375 1.38 -1.38619 0
M  V30 3145 C 298.755 2.11041 -0.0498935 0
M  V30 3146 O 298.103 2.06992 0.967816 0
M  V30 3147 C 298.313 2.33817 -2.59096 0
M  V30 3148 C 299.661 2.96844 -3.03593 0
M  V30 3149 O 300.685 2.44141 -2.59371 0
M  V30 3150 O 299.544 3.92476 -3.80296 0
M  V30 3151 H 296.638 0.61811 -0.549426 0
M  V30 3152 H 299.184 0.645429 -1.56947 0
M  V30 3153 H 297.956 1.79012 -3.47952 0
M  V30 3154 H 297.579 3.14676 -2.43032 0
M  V30 3155 N 298.576 1.31904 0.862503 0
M  V30 3156 C 299.824 1.21776 1.61292 0
M  V30 3157 C 300.145 -0.222413 1.93727 0
M  V30 3158 O 299.415 -1.1451 1.58947 0
M  V30 3159 H 297.995 0.447717 0.597962 0
M  V30 3160 H 300.657 1.65326 1.03215 0
M  V30 3161 H 299.753 1.7948 2.5533 0
M  V30 3162 N 300.054 -1.07777 1.14986 0
M  V30 3163 C 301.3 -1.80719 0.93339 0
M  V30 3164 C 301.655 -1.8484 -0.534019 0
M  V30 3165 O 300.948 -1.31795 -1.3907 0
M  V30 3166 C 301.142 -3.25495 1.47608 0
M  V30 3167 C 300.971 -3.3548 2.99472 0
M  V30 3168 C 299.741 -3.46293 3.6798 0
M  V30 3169 C 301.939 -3.26596 3.97291 0
M  V30 3170 N 299.921 -3.45136 5.07695 0
M  V30 3171 C 301.292 -3.32506 5.23297 0
M  V30 3172 C 303.347 -3.10376 3.89321 0
M  V30 3173 C 302.05 -3.23866 6.42264 0
M  V30 3174 C 304.076 -3.03069 5.07842 0
M  V30 3175 C 303.438 -3.09587 6.32721 0
M  V30 3176 H 299.537 -0.674814 0.395158 0
M  V30 3177 H 302.121 -1.28681 1.46114 0
M  V30 3178 H 300.292 -3.75963 0.975022 0
M  V30 3179 H 302.024 -3.86535 1.19887 0
M  V30 3180 H 298.779 -3.50456 3.18555 0
M  V30 3181 H 299.203 -3.48097 5.80653 0
M  V30 3182 H 303.845 -3.04194 2.93642 0
M  V30 3183 H 301.563 -3.28807 7.38181 0
M  V30 3184 H 305.149 -2.91629 5.03432 0
M  V30 3185 H 304.029 -3.0397 7.22891 0
M  V30 3186 N 301.532 -0.945985 -1.26051 0
M  V30 3187 C 302.948 -0.649045 -1.45807 0
M  V30 3188 C 303.148 0.796158 -1.85104 0
M  V30 3189 O 302.204 1.57233 -1.97571 0
M  V30 3190 C 303.517 -1.61458 -2.53677 0
M  V30 3191 C 305.065 -1.62481 -2.67524 0
M  V30 3192 C 305.54 -2.57776 -3.7857 0
M  V30 3193 N 307.031 -2.5609 -3.85969 0
M  V30 3194 C 307.766 -3.26508 -4.7136 0
M  V30 3195 N 307.262 -4.0637 -5.61102 0
M  V30 3196 N 309.055 -3.15437 -4.65248 0
M  V30 3197 H 301.206 -1.88005 -0.988328 0
M  V30 3198 H 303.469 -0.808198 -0.4955 0
M  V30 3199 H 303.175 -2.64644 -2.31638 0
M  V30 3200 H 303.049 -1.37036 -3.51427 0
M  V30 3201 H 305.436 -0.600167 -2.88933 0
M  V30 3202 H 305.517 -1.90958 -1.70202 0
M  V30 3203 H 305.161 -3.60361 -3.57913 0
M  V30 3204 H 305.091 -2.26587 -4.75359 0
M  V30 3205 H 307.582 -1.98105 -3.21812 0
M  V30 3206 H 307.895 -4.57042 -6.23164 0
M  V30 3207 H 306.24 -4.10469 -5.60839 0
M  V30 3208 H 309.431 -2.52525 -3.94143 0
M  V30 3209 H 309.604 -3.70584 -5.31575 0
M  V30 3210 N 303.011 1.40521 -0.713556 0
M  V30 3211 C 304.259 2.00527 -0.251692 0
M  V30 3212 C 304.58 1.56857 1.15848 0
M  V30 3213 O 303.85 0.807127 1.785 0
M  V30 3214 H 302.43 0.741551 -0.0900646 0
M  V30 3215 H 305.092 1.71887 -0.918733 0
M  V30 3216 H 304.188 3.10813 -0.283192 0
M  V30 3217 N 304.489 0.459591 1.5075 0
M  V30 3218 C 305.452 -0.329093 2.26825 0
M  V30 3219 C 306.452 -0.930481 1.31144 0
M  V30 3220 O 307.642 -0.801453 1.54669 0
M  V30 3221 C 304.774 -1.46768 3.07688 0
M  V30 3222 H 305.967 0.337924 2.9799 0
M  V30 3223 H 303.52 0.213336 1.54837 0
M  V30 3224 H 304.255 -2.17009 2.40993 0
M  V30 3225 H 304.04 -1.04238 3.77991 0
M  V30 3226 H 305.53 -2.02433 3.65254 0
M  V30 3227 N 305.967 -1.56429 0.191757 0
M  V30 3228 C 307.214 -1.97485 -0.447891 0
M  V30 3229 C 307.542 -1.07852 -1.61859 0
M  V30 3230 O 306.797 -0.116903 -1.95351 0
M  V30 3231 C 307.096 -3.44449 -0.953384 0
M  V30 3232 C 306.762 -4.50781 0.103586 0
M  V30 3233 C 305.424 -4.79584 0.394023 0
M  V30 3234 C 307.776 -5.1471 0.819946 0
M  V30 3235 C 305.104 -5.69607 1.40585 0
M  V30 3236 C 307.456 -6.05827 1.8209 0
M  V30 3237 C 306.12 -6.32987 2.11857 0
M  V30 3238 H 305.39 -0.722648 -0.163895 0
M  V30 3239 H 308.037 -1.89322 0.28802 0
M  V30 3240 H 306.342 -3.49666 -1.76751 0
M  V30 3241 H 308.039 -3.73569 -1.45765 0
M  V30 3242 H 304.629 -4.28394 -0.132951 0
M  V30 3243 H 308.813 -4.92552 0.608789 0
M  V30 3244 H 304.069 -5.88926 1.64243 0
M  V30 3245 H 308.243 -6.54424 2.38123 0
M  V30 3246 H 305.87 -7.02544 2.90407 0
M  V30 3247 N 307.445 0.0818655 -1.57387 0
M  V30 3248 C 308.722 0.815343 -1.77796 0
M  V30 3249 C 309.102 1.96289 -0.77679 0
M  V30 3250 O 308.45 2.27691 0.192106 0
M  V30 3251 C 308.66 1.29765 -3.23978 0
M  V30 3252 C 310.008 1.7351 -3.8753 0
M  V30 3253 O 311.032 1.39356 -3.27808 0
M  V30 3254 O 309.891 2.36708 -4.92576 0
M  V30 3255 H 306.985 0.389914 -0.729312 0
M  V30 3256 H 309.531 0.0627213 -1.69584 0
M  V30 3257 H 308.303 0.47608 -3.88393 0
M  V30 3258 H 307.926 2.11189 -3.36875 0
M  V30 3259 N 308.923 1.53595 0.353017 0
M  V30 3260 C 310.153 1.74058 1.11299 0
M  V30 3261 C 310.561 0.475205 1.83135 0
M  V30 3262 O 309.904 -0.562344 1.74881 0
M  V30 3263 C 309.966 2.85994 2.17825 0
M  V30 3264 C 309.63 4.25923 1.65647 0
M  V30 3265 C 310.627 5.07829 1.11383 0
M  V30 3266 C 308.312 4.72377 1.7078 0
M  V30 3267 C 310.306 6.34285 0.629439 0
M  V30 3268 C 307.993 5.98808 1.21953 0
M  V30 3269 C 308.991 6.79594 0.681265 0
M  V30 3270 O 308.679 8.03651 0.200248 0
M  V30 3271 H 308.411 0.585327 0.338183 0
M  V30 3272 H 310.965 2.01186 0.413927 0
M  V30 3273 H 309.195 2.54368 2.91262 0
M  V30 3274 H 310.884 2.94515 2.79313 0
M  V30 3275 H 311.65 4.73107 1.06746 0
M  V30 3276 H 307.529 4.0956 2.11617 0
M  V30 3277 H 311.073 6.97288 0.208636 0
M  V30 3278 H 306.97 6.33026 1.26287 0
M  V30 3279 H 307.738 8.1788 0.318416 0
M  V30 3280 N 310.401 -0.613514 1.45168 0
M  V30 3281 C 311.647 -1.37279 1.50087 0
M  V30 3282 C 312.002 -1.91902 0.138294 0
M  V30 3283 O 311.295 -1.71764 -0.84899 0
M  V30 3284 C 311.489 -2.54347 2.51083 0
M  V30 3285 C 311.318 -2.11186 3.97027 0
M  V30 3286 C 310.088 -1.97636 4.65046 0
M  V30 3287 C 312.286 -1.69016 4.85735 0
M  V30 3288 N 310.268 -1.48224 5.95737 0
M  V30 3289 C 311.639 -1.30976 6.06008 0
M  V30 3290 C 313.694 -1.56555 4.72647 0
M  V30 3291 C 312.397 -0.817197 7.14643 0
M  V30 3292 C 314.423 -1.08702 5.81324 0
M  V30 3293 C 313.785 -0.716233 7.00749 0
M  V30 3294 H 309.884 -0.496478 0.60418 0
M  V30 3295 H 312.468 -0.701988 1.81605 0
M  V30 3296 H 310.639 -3.19031 2.21527 0
M  V30 3297 H 312.371 -3.21208 2.46187 0
M  V30 3298 H 309.126 -2.18638 4.20112 0
M  V30 3299 H 309.55 -1.25767 6.65216 0
M  V30 3300 H 314.192 -1.83849 3.80736 0
M  V30 3301 H 311.91 -0.531797 8.06348 0
M  V30 3302 H 315.496 -0.994943 5.7323 0
M  V30 3303 H 314.376 -0.351642 7.83411 0
M  V30 3304 N 311.879 -1.3236 -0.855495 0
M  V30 3305 C 313.119 -1.24187 -1.62348 0
M  V30 3306 C 313.483 0.193597 -1.91021 0
M  V30 3307 O 314.684 0.39904 -2.65822 0
M  V30 3308 C 312.955 -2.07661 -2.90881 0
M  V30 3309 S 314.514 -2.16505 -3.81669 0
M  V30 3310 H 311.332 -0.442076 -0.556857 0
M  V30 3311 H 313.934 -1.67198 -1.01317 0
M  V30 3312 H 312.638 -3.11018 -2.67761 0
M  V30 3313 H 312.169 -1.65425 -3.56929 0
M  V30 3314 H 314.184 -1.31394 -4.78487 0
M  V30 3315 N 313.357 1.07166 -1.15556 0
M  V30 3316 C 314.773 1.31899 -0.898603 0
M  V30 3317 C 314.973 1.96333 0.453383 0
M  V30 3318 O 314.029 2.22438 1.19489 0
M  V30 3319 C 315.342 2.20826 -2.04099 0
M  V30 3320 C 316.89 2.34269 -2.07574 0
M  V30 3321 C 317.365 3.26546 -3.21141 0
M  V30 3322 N 318.856 3.34127 -3.20801 0
M  V30 3323 C 319.591 4.05595 -4.05315 0
M  V30 3324 N 319.087 4.79661 -4.99897 0
M  V30 3325 N 320.88 4.01555 -3.93332 0
M  V30 3326 H 313.031 0.637302 -2.02613 0
M  V30 3327 H 315.294 0.343468 -0.883591 0
M  V30 3328 H 315 1.80744 -3.01703 0
M  V30 3329 H 314.874 3.21364 -1.97496 0
M  V30 3330 H 317.261 2.73603 -1.10568 0
M  V30 3331 H 317.342 1.33429 -2.18244 0
M  V30 3332 H 316.986 2.87931 -4.184 0
M  V30 3333 H 316.916 4.27345 -3.07708 0
M  V30 3334 H 319.407 2.81336 -2.52306 0
M  V30 3335 H 319.72 5.31694 -5.60822 0
M  V30 3336 H 318.065 4.78671 -5.03884 0
M  V30 3337 H 321.256 3.42806 -3.18751 0
M  V30 3338 H 321.429 4.56987 -4.5942 0
M  V30 3339 N 314.835 0.952656 1.25548 0
M  V30 3340 C 316.082 0.606373 1.93208 0
M  V30 3341 C 316.41 -0.85631 1.74636 0
M  V30 3342 O 315.665 -1.62951 1.08376 0
M  V30 3343 C 315.964 0.908818 3.45652 0
M  V30 3344 C 315.63 2.35722 3.84378 0
M  V30 3345 C 314.292 2.75312 3.9466 0
M  V30 3346 C 316.644 3.29793 4.03591 0
M  V30 3347 C 313.972 4.08047 4.21562 0
M  V30 3348 C 316.324 4.62138 4.31985 0
M  V30 3349 C 314.988 5.01528 4.40484 0
M  V30 3350 H 314.258 0.221888 0.706998 0
M  V30 3351 H 316.905 1.20132 1.49133 0
M  V30 3352 H 315.21 0.231456 3.91116 0
M  V30 3353 H 316.907 0.619498 3.96186 0
M  V30 3354 H 313.497 2.04017 3.76928 0
M  V30 3355 H 317.681 3.00397 3.95064 0
M  V30 3356 H 312.937 4.38212 4.26357 0
M  V30 3357 H 317.111 5.35012 4.45797 0
M  V30 3358 H 314.738 6.04406 4.61083 0
M  V30 3359 N 316.313 -1.40141 0.720998 0
M  V30 3360 C 317.59 -1.94677 0.189757 0
M  V30 3361 C 317.97 -1.65879 -1.30566 0
M  V30 3362 O 317.318 -0.979391 -2.06447 0
M  V30 3363 C 317.528 -3.45279 0.508304 0
M  V30 3364 C 318.876 -4.22209 0.449934 0
M  V30 3365 O 319.9 -3.53413 0.444677 0
M  V30 3366 O 318.759 -5.44788 0.432189 0
M  V30 3367 H 315.853 -0.826459 0.0299026 0
M  V30 3368 H 318.399 -1.49719 0.7989 0
M  V30 3369 H 317.171 -3.59619 1.54239 0
M  V30 3370 H 316.794 -3.97386 -0.130525 0
M  V30 3371 N 317.792 -0.46758 -1.50504 0
M  V30 3372 C 319.017 0.0886943 -2.0721 0
M  V30 3373 C 319.442 1.33057 -1.32956 0
M  V30 3374 O 318.8 1.77354 -0.376197 0
M  V30 3375 C 318.848 0.359202 -3.58806 0
M  V30 3376 O 317.952 1.44034 -3.8643 0
M  V30 3377 H 317.293 -0.0114349 -0.663902 0
M  V30 3378 H 319.823 -0.657613 -1.93744 0
M  V30 3379 H 319.833 0.600742 -4.03553 0
M  V30 3380 H 318.508 -0.548311 -4.1227 0
M  V30 3381 H 317.085 1.18638 -3.53524 0
M  V30 3382 N 319.27 1.56325 -0.20005 0
M  V30 3383 C 320.686 1.58839 0.155716 0
M  V30 3384 C 320.886 1.21636 1.60645 0
M  V30 3385 O 319.942 0.941437 2.34293 0
M  V30 3386 C 321.255 3.0032 -0.151124 0
M  V30 3387 C 322.803 3.12866 -0.0916284 0
M  V30 3388 C 323.278 4.56488 -0.371845 0
M  V30 3389 N 324.769 4.62089 -0.320641 0
M  V30 3390 C 325.504 5.71116 -0.511243 0
M  V30 3391 N 325 6.88592 -0.762461 0
M  V30 3392 N 326.793 5.60335 -0.445157 0
M  V30 3393 H 318.944 1.78788 -1.14668 0
M  V30 3394 H 321.207 0.829996 -0.458051 0
M  V30 3395 H 320.913 3.32117 -1.15721 0
M  V30 3396 H 320.787 3.73257 0.543986 0
M  V30 3397 H 323.174 2.80878 0.905065 0
M  V30 3398 H 323.255 2.42304 -0.81989 0
M  V30 3399 H 322.899 4.89189 -1.36588 0
M  V30 3400 H 322.829 5.25246 0.377362 0
M  V30 3401 H 325.32 3.77665 -0.13329 0
M  V30 3402 H 325.633 7.67581 -0.896576 0
M  V30 3403 H 323.978 6.90387 -0.799412 0
M  V30 3404 H 327.169 4.67436 -0.249278 0
M  V30 3405 H 327.342 6.45243 -0.597116 0
M  V30 3406 N 320.748 -0.0735177 1.57428 0
M  V30 3407 C 322.025 -0.805903 1.78226 0
M  V30 3408 C 322.405 -1.95874 0.787189 0
M  V30 3409 O 321.753 -2.2779 -0.180029 0
M  V30 3410 C 321.963 -1.28045 3.24662 0
M  V30 3411 C 323.311 -1.71453 3.88444 0
M  V30 3412 O 324.335 -1.37616 3.28543 0
M  V30 3413 O 323.194 -2.34093 4.93825 0
M  V30 3414 H 320.288 -0.386041 0.73137 0
M  V30 3415 H 322.834 -0.0537269 1.69615 0
M  V30 3416 H 321.606 -0.455476 3.8864 0
M  V30 3417 H 321.229 -2.094 3.37991 0
M  V30 3418 N 322.226 -1.5378 -0.344866 0
M  V30 3419 C 323.475 -1.7018 -1.08267 0
M  V30 3420 C 323.788 -0.471 -1.89845 0
M  V30 3421 O 324.994 -0.515917 -2.66553 0
M  V30 3422 C 323.45 -3.00923 -1.97417 0
M  V30 3423 C 323.058 -4.31335 -1.21053 0
M  V30 3424 C 324.802 -3.26688 -2.71063 0
M  V30 3425 C 322.709 -5.53153 -2.09225 0
M  V30 3426 H 321.639 -0.634138 -0.407903 0
M  V30 3427 H 324.29 -1.8028 -0.342246 0
M  V30 3428 H 322.672 -2.84676 -2.75274 0
M  V30 3429 H 323.846 -4.58281 -0.481159 0
M  V30 3430 H 322.161 -4.12173 -0.591813 0
M  V30 3431 H 324.758 -4.1489 -3.37299 0
M  V30 3432 H 325.101 -2.43639 -3.37558 0
M  V30 3433 H 325.634 -3.43705 -2.0028 0
M  V30 3434 H 322.373 -6.38741 -1.47274 0
M  V30 3435 H 321.893 -5.30458 -2.79955 0
M  V30 3436 H 323.572 -5.88744 -2.68308 0
M  V30 3437 N 323.704 0.605807 -1.45491 0
M  V30 3438 C 324.951 1.36476 -1.49601 0
M  V30 3439 C 325.279 1.94007 -0.138452 0
M  V30 3440 O 324.534 1.75638 0.863114 0
M  V30 3441 C 324.833 2.53012 -2.52428 0
M  V30 3442 C 324.499 2.13617 -3.97087 0
M  V30 3443 C 323.161 2.02587 -4.36477 0
M  V30 3444 C 325.513 1.82899 -4.88055 0
M  V30 3445 C 322.841 1.59064 -5.64726 0
M  V30 3446 C 325.193 1.40861 -6.16718 0
M  V30 3447 C 323.857 1.28391 -6.55036 0
M  V30 3448 H 323.127 0.499402 -0.547429 0
M  V30 3449 H 325.774 0.684546 -1.78847 0
M  V30 3450 H 324.079 3.26379 -2.16758 0
M  V30 3451 H 325.776 3.1124 -2.52845 0
M  V30 3452 H 322.366 2.23129 -3.65939 0
M  V30 3453 H 326.55 1.90317 -4.58359 0
M  V30 3454 H 321.806 1.48034 -5.93208 0
M  V30 3455 H 325.98 1.16138 -6.86648 0
M  V30 3456 H 323.607 0.944403 -7.54311 0
M  V30 3457 N 325.182 1.32811 0.848464 0
M  V30 3458 C 326.593 1.21315 1.41914 0
M  V30 3459 C 326.944 -0.171847 1.95446 0
M  V30 3460 O 326.069 -1.07093 1.88043 0
M  V30 3461 C 326.664 2.19631 2.57968 0
M  V30 3462 C 325.223 2.12003 3.11017 0
M  V30 3463 C 324.37 2.07651 1.83783 0
M  V30 3464 H 327.321 1.44549 0.655071 0
M  V30 3465 H 327.342 1.79845 3.35315 0
M  V30 3466 H 326.854 3.20423 2.18976 0
M  V30 3467 H 324.955 1.14481 3.54577 0
M  V30 3468 H 325.068 3.02111 3.71841 0
M  V30 3469 H 323.432 1.52983 2.03638 0
M  V30 3470 H 324.215 3.10235 1.47 0
M  V30 3471 N 326.66 -1.06551 1.16123 0
M  V30 3472 C 327.906 -1.79567 0.94252 0
M  V30 3473 C 328.239 -1.86869 -0.528547 0
M  V30 3474 O 327.514 -1.35838 -1.39206 0
M  V30 3475 C 327.797 -3.24195 1.56747 0
M  V30 3476 C 327.65 -3.24989 3.10969 0
M  V30 3477 C 328.969 -4.21678 1.25998 0
M  V30 3478 H 326.088 -0.651883 0.343828 0
M  V30 3479 H 328.73 -1.2463 1.43413 0
M  V30 3480 H 326.88 -3.71107 1.14942 0
M  V30 3481 H 328.552 -2.86258 3.61737 0
M  V30 3482 H 326.795 -2.63716 3.44436 0
M  V30 3483 H 327.466 -4.27005 3.49815 0
M  V30 3484 H 329.942 -3.83196 1.62174 0
M  V30 3485 H 328.818 -5.21146 1.7233 0
M  V30 3486 H 329.079 -4.4174 0.178367 0
M  V30 3487 N 328.138 -0.959301 -1.25041 0
M  V30 3488 C 329.386 -0.615393 -1.92503 0
M  V30 3489 C 329.707 0.850969 -1.75452 0
M  V30 3490 O 328.977 1.60658 -1.12098 0
M  V30 3491 H 327.557 -0.224613 -0.712431 0
M  V30 3492 H 330.219 -1.21855 -1.5211 0
M  V30 3493 H 329.315 -0.848738 -3.00338 0
M  V30 3494 N 329.616 1.39756 -0.72842 0
M  V30 3495 C 330.862 2.01425 -0.282761 0
M  V30 3496 C 331.217 1.56754 1.11561 0
M  V30 3497 O 330.51 0.783482 1.74849 0
M  V30 3498 C 330.704 3.56002 -0.315776 0
M  V30 3499 C 330.533 4.1568 -1.71582 0
M  V30 3500 C 329.303 4.48555 -2.32651 0
M  V30 3501 C 331.501 4.39667 -2.66829 0
M  V30 3502 N 329.483 4.93698 -3.64877 0
M  V30 3503 C 330.854 4.86942 -3.8378 0
M  V30 3504 C 332.909 4.21724 -2.64675 0
M  V30 3505 C 331.612 5.18158 -4.98904 0
M  V30 3506 C 333.638 4.54049 -3.78937 0
M  V30 3507 C 333 5.01525 -4.94623 0
M  V30 3508 H 329.099 0.76756 -0.149583 0
M  V30 3509 H 331.683 1.69784 -0.952976 0
M  V30 3510 H 329.854 3.87046 0.324057 0
M  V30 3511 H 331.586 4.0443 0.147808 0
M  V30 3512 H 328.341 4.36128 -1.84633 0
M  V30 3513 H 328.765 5.20635 -4.32744 0
M  V30 3514 H 333.407 3.84228 -1.76433 0
M  V30 3515 H 331.125 5.54562 -5.87781 0
M  V30 3516 H 334.711 4.41795 -3.78561 0
M  V30 3517 H 333.591 5.26065 -5.81572 0
M  V30 3518 N 331.094 0.475555 1.50254 0
M  V30 3519 C 332.334 -0.0765802 2.04256 0
M  V30 3520 C 332.698 -1.36587 1.34937 0
M  V30 3521 O 333.899 -2.00066 1.79519 0
M  V30 3522 C 332.17 -0.251668 3.56513 0
M  V30 3523 S 333.729 -0.761716 4.32138 0
M  V30 3524 H 330.547 -0.0138456 0.710865 0
M  V30 3525 H 333.149 0.643714 1.84598 0
M  V30 3526 H 331.853 0.692404 4.04517 0
M  V30 3527 H 331.384 -0.997946 3.80532 0
M  V30 3528 H 333.399 -2.03451 4.52573 0
M  V30 3529 N 332.573 -1.56217 0.208337 0
M  V30 3530 C 333.798 -2.02782 -0.435222 0
M  V30 3531 C 334.223 -1.08738 -1.53485 0
M  V30 3532 O 333.581 -0.0731855 -1.81152 0
M  V30 3533 C 333.629 -3.47687 -0.956335 0
M  V30 3534 O 332.733 -3.56773 -2.06849 0
M  V30 3535 H 332.074 -0.656403 -0.100158 0
M  V30 3536 H 334.604 -2.02033 0.3231 0
M  V30 3537 H 334.614 -3.87745 -1.26955 0
M  V30 3538 H 333.289 -4.15624 -0.15143 0
M  V30 3539 H 331.866 -3.28597 -1.76292 0
M  V30 3540 N 334.051 0.0651679 -1.57465 0
M  V30 3541 C 334.981 1.07693 -2.07182 0
M  V30 3542 C 335.962 1.39962 -0.966673 0
M  V30 3543 O 337.147 1.49475 -1.2398 0
M  V30 3544 C 334.277 2.3885 -2.52127 0
M  V30 3545 C 333.231 2.20917 -3.66579 0
M  V30 3546 C 332.557 3.57515 -3.97601 0
M  V30 3547 C 333.857 1.62493 -4.9638 0
M  V30 3548 H 335.551 0.663199 -2.91962 0
M  V30 3549 H 333.097 0.317569 -1.40455 0
M  V30 3550 H 335.05 3.09928 -2.85522 0
M  V30 3551 H 333.774 2.82215 -1.64384 0
M  V30 3552 H 332.433 1.52279 -3.33477 0
M  V30 3553 H 332.081 3.98463 -3.06979 0
M  V30 3554 H 331.781 3.46353 -4.74672 0
M  V30 3555 H 333.305 4.30013 -4.33499 0
M  V30 3556 H 334.719 2.23445 -5.27963 0
M  V30 3557 H 333.116 1.62009 -5.77818 0
M  V30 3558 H 334.186 0.587041 -4.81333 0
M  V30 3559 N 335.529 1.53961 0.336706 0
M  V30 3560 C 336.757 1.75483 1.09605 0
M  V30 3561 C 337.172 0.4972 1.82136 0
M  V30 3562 O 336.529 -0.53149 1.74589 0
M  V30 3563 C 336.58 2.93943 2.10428 0
M  V30 3564 O 336.301 4.14842 1.40846 0
M  V30 3565 C 337.802 3.27571 2.98684 0
M  V30 3566 H 335.022 0.586166 0.326574 0
M  V30 3567 H 337.566 2.00808 0.38683 0
M  V30 3568 H 335.721 2.70929 2.76905 0
M  V30 3569 H 336.135 4.81383 2.08255 0
M  V30 3570 H 337.609 4.13791 3.6535 0
M  V30 3571 H 338.086 2.44168 3.65074 0
M  V30 3572 H 338.692 3.52615 2.37787 0
M  V30 3573 N 337.007 -0.598083 1.45811 0
M  V30 3574 C 338.255 -1.35413 1.50026 0
M  V30 3575 C 338.576 -1.94444 0.147177 0
M  V30 3576 O 337.846 -1.77701 -0.824571 0
M  V30 3577 H 336.426 -0.502727 0.552517 0
M  V30 3578 H 339.088 -0.701606 1.81834 0
M  V30 3579 H 338.184 -2.16871 2.2444 0
M  V30 3580 N 338.485 -1.33259 -0.841409 0
M  V30 3581 C 339.762 -1.15174 -1.58096 0
M  V30 3582 C 340.142 0.282858 -2.09196 0
M  V30 3583 O 339.49 1.28151 -1.89181 0
M  V30 3584 C 339.7 -2.1907 -2.71679 0
M  V30 3585 C 341.048 -2.53093 -3.40924 0
M  V30 3586 O 342.072 -2.17717 -2.81918 0
M  V30 3587 O 340.931 -3.1379 -4.47435 0
M  V30 3588 H 338.025 -0.445303 -0.696875 0
M  V30 3589 H 340.571 -1.44833 -0.884385 0
M  V30 3590 H 339.343 -3.15443 -2.31541 0
M  V30 3591 H 338.966 -1.90481 -3.49002 0
M  V30 3592 N 339.963 1.05934 -1.16686 0
M  V30 3593 C 340.911 2.15603 -0.872817 0
M  V30 3594 C 341.905 1.68647 0.159576 0
M  V30 3595 O 343.111 1.79995 0.0132125 0
M  V30 3596 H 339.486 0.703885 -0.264671 0
M  V30 3597 H 341.457 2.37613 -1.80507 0
M  V30 3598 C 340.206 3.45457 -0.394344 0
M  V30 3599 H 339.529 3.81984 -1.18019 0
M  V30 3600 H 340.969 4.2339 -0.227408 0
M  V30 3601 C 339.428 3.25021 0.88673 0
M  V30 3602 O 339.958 3.50906 1.95519 0
M  V30 3603 N 338.164 2.78437 0.831925 0
M  V30 3604 H 337.711 2.57572 -0.0377619 0
M  V30 3605 H 337.669 2.65144 1.68956 0
M  V30 3606 N 341.441 0.965919 1.2453 0
M  V30 3607 C 342.371 0.513476 2.27784 0
M  V30 3608 C 343.352 -0.445974 1.6415 0
M  V30 3609 O 344.537 -0.342485 1.91156 0
M  V30 3610 C 341.667 -0.198839 3.4673 0
M  V30 3611 C 340.621 0.676456 4.2262 0
M  V30 3612 C 339.947 -0.167248 5.34438 0
M  V30 3613 C 341.247 1.96017 4.84123 0
M  V30 3614 H 342.941 1.3765 2.65881 0
M  V30 3615 H 340.487 0.663321 1.27813 0
M  V30 3616 H 342.44 -0.526567 4.18097 0
M  V30 3617 H 341.164 -1.0962 3.07654 0
M  V30 3618 H 339.823 0.98743 3.53052 0
M  V30 3619 H 339.471 -1.0647 4.91603 0
M  V30 3620 H 339.171 0.415181 5.86131 0
M  V30 3621 H 340.695 -0.489688 6.08633 0
M  V30 3622 H 342.109 1.69814 5.47573 0
M  V30 3623 H 340.506 2.48918 5.4604 0
M  V30 3624 H 341.576 2.65622 4.05676 0
M  V30 3625 N 342.919 -1.39368 0.735821 0
M  V30 3626 C 343.851 -2.2913 0.0567723 0
M  V30 3627 C 344.864 -1.46859 -0.702589 0
M  V30 3628 O 346.053 -1.69925 -0.546616 0
M  V30 3629 C 343.153 -3.25492 -0.943823 0
M  V30 3630 C 342.326 -4.36709 -0.24581 0
M  V30 3631 C 341.385 -5.13376 -1.15463 0
M  V30 3632 O 340.411 -5.65683 -0.631803 0
M  V30 3633 N 341.613 -5.24656 -2.48427 0
M  V30 3634 H 344.378 -2.88047 0.827582 0
M  V30 3635 H 341.939 -1.50957 0.585112 0
M  V30 3636 H 343.931 -3.73657 -1.55443 0
M  V30 3637 H 342.501 -2.676 -1.61583 0
M  V30 3638 H 341.721 -3.9041 0.545286 0
M  V30 3639 H 343.009 -5.08244 0.237891 0
M  V30 3640 H 342.407 -4.83679 -2.93379 0
M  V30 3641 H 340.964 -5.76258 -3.04582 0
M  V30 3642 N 344.397 -0.483516 -1.5 0
M  V30 3643 C 345.808 -0.0314176 -1.86674 0
M  V30 3644 C 346.159 1.37728 -1.39733 0
M  V30 3645 O 345.284 2.02327 -0.767635 0
M  V30 3646 C 345.879 -0.0502376 -3.38763 0
M  V30 3647 C 344.438 0.346442 -3.74802 0
M  V30 3648 C 343.585 -0.430366 -2.7394 0
M  V30 3649 H 346.536 -0.697182 -1.42566 0
M  V30 3650 H 346.557 0.749116 -3.73053 0
M  V30 3651 H 346.069 -1.07563 -3.72897 0
M  V30 3652 H 344.17 1.37572 -3.46273 0
M  V30 3653 H 344.283 0.0391486 -4.79084 0
M  V30 3654 H 342.647 0.117557 -2.54429 0
M  V30 3655 H 343.43 -1.4555 -3.10918 0
M  V30 3656 N 345.875 1.56104 -0.216619 0
M  V30 3657 C 347.286 1.844 0.292128 0
M  V30 3658 C 347.637 1.13788 1.59833 0
M  V30 3659 O 346.762 0.405888 2.12559 0
M  V30 3660 C 347.357 3.3452 0.53681 0
M  V30 3661 C 345.916 3.63151 0.989876 0
M  V30 3662 C 345.063 2.77255 0.0502302 0
M  V30 3663 H 348.014 1.52481 -0.439926 0
M  V30 3664 H 348.035 3.54459 1.38345 0
M  V30 3665 H 347.547 3.85885 -0.414031 0
M  V30 3666 H 345.648 3.17238 1.95425 0
M  V30 3667 H 345.761 4.71177 0.867698 0
M  V30 3668 H 344.125 2.48555 0.556117 0
M  V30 3669 H 344.908 3.31416 -0.89544 0
M  V30 3670 N 347.353 -0.0568162 1.57498 0
M  V30 3671 C 348.601 -0.751617 1.87604 0
M  V30 3672 C 348.922 -1.77351 0.81066 0
M  V30 3673 O 348.192 -1.95254 -0.159018 0
M  V30 3674 H 346.772 -0.280583 0.692302 0
M  V30 3675 H 349.434 -0.0293483 1.94878 0
M  V30 3676 H 348.53 -1.25852 2.856 0
M  V30 3677 N 348.832 -1.54138 -0.328536 0
M  V30 3678 C 350.06 -1.76062 -1.08673 0
M  V30 3679 C 350.475 -0.506852 -1.81869 0
M  V30 3680 O 349.832 0.522223 -1.74869 0
M  V30 3681 C 349.883 -2.95054 -2.08866 0
M  V30 3682 O 349.604 -4.15583 -1.38644 0
M  V30 3683 C 351.105 -3.2915 -2.96943 0
M  V30 3684 H 348.325 -0.587889 -0.323461 0
M  V30 3685 H 350.869 -2.0101 -0.376175 0
M  V30 3686 H 349.024 -2.72394 -2.75464 0
M  V30 3687 H 349.438 -4.82481 -2.05699 0
M  V30 3688 H 350.912 -4.15723 -3.63151 0
M  V30 3689 H 351.389 -2.461 -3.63774 0
M  V30 3690 H 351.995 -3.53871 -2.35914 0
M  V30 3691 N 350.31 0.590341 -1.46126 0
M  V30 3692 C 351.257 1.69994 -1.56111 0
M  V30 3693 C 352.227 1.61065 -0.405867 0
M  V30 3694 O 353.412 1.8039 -0.621613 0
M  V30 3695 C 350.552 3.08326 -1.55013 0
M  V30 3696 C 349.665 3.27936 -2.81215 0
M  V30 3697 C 348.8 4.56473 -2.71673 0
M  V30 3698 C 347.839 4.694 -3.92849 0
M  V30 3699 N 346.976 5.89254 -3.81738 0
M  V30 3700 H 351.816 1.60797 -2.50895 0
M  V30 3701 H 349.353 0.783799 -1.24479 0
M  V30 3702 H 351.311 3.88383 -1.52362 0
M  V30 3703 H 349.941 3.16439 -0.637667 0
M  V30 3704 H 348.993 2.41536 -2.93879 0
M  V30 3705 H 350.305 3.33357 -3.71045 0
M  V30 3706 H 349.459 5.44748 -2.67085 0
M  V30 3707 H 348.198 4.53477 -1.7947 0
M  V30 3708 H 347.203 3.79544 -3.97777 0
M  V30 3709 H 348.428 4.7418 -4.86138 0
M  V30 3710 H 346.374 5.87271 -2.92317 0
M  V30 3711 H 346.291 5.95911 -4.65217 0
M  V30 3712 H 347.559 6.79981 -3.81112 0
M  V30 3713 N 351.788 1.33704 0.83433 0
M  V30 3714 C 353.034 1.25603 1.59222 0
M  V30 3715 C 353.367 -0.176659 1.93395 0
M  V30 3716 O 352.642 -1.11915 1.59076 0
M  V30 3717 C 352.925 2.13576 2.89926 0
M  V30 3718 C 352.778 3.65326 2.62406 0
M  V30 3719 C 354.097 2.01238 3.91397 0
M  V30 3720 H 351.216 0.457613 0.577719 0
M  V30 3721 H 353.858 1.63848 0.961972 0
M  V30 3722 H 352.008 1.8109 3.43713 0
M  V30 3723 H 353.68 4.08124 2.15017 0
M  V30 3724 H 351.923 3.8698 1.96033 0
M  V30 3725 H 352.594 4.22232 3.55562 0
M  V30 3726 H 355.07 2.29738 3.46929 0
M  V30 3727 H 353.946 2.65036 4.80673 0
M  V30 3728 H 354.207 0.985951 4.30966 0
M  V30 3729 N 353.266 -1.05314 1.17247 0
M  V30 3730 C 354.512 -1.78557 0.961513 0
M  V30 3731 C 354.845 -1.87419 -0.508697 0
M  V30 3732 O 354.12 -1.37307 -1.37757 0
M  V30 3733 C 354.403 -3.22514 1.60176 0
M  V30 3734 C 354.256 -3.21673 3.14399 0
M  V30 3735 C 355.575 -4.20318 1.30463 0
M  V30 3736 H 352.694 -0.6482 0.350723 0
M  V30 3737 H 355.336 -1.23102 1.44727 0
M  V30 3738 H 353.486 -3.69867 1.18871 0
M  V30 3739 H 355.158 -2.82405 3.64753 0
M  V30 3740 H 353.401 -2.60048 3.47214 0
M  V30 3741 H 354.072 -4.23271 3.54324 0
M  V30 3742 H 356.548 -3.81454 1.66229 0
M  V30 3743 H 355.424 -5.19289 1.77848 0
M  V30 3744 H 355.685 -4.41526 0.22521 0
M  V30 3745 N 354.744 -0.972509 -1.24016 0
M  V30 3746 C 355.993 -0.632603 -1.91523 0
M  V30 3747 C 356.306 0.836641 -1.76804 0
M  V30 3748 O 357.512 1.28728 -2.39043 0
M  V30 3749 C 355.968 -1.08082 -3.43287 0
M  V30 3750 C 355.576 -2.57386 -3.66683 0
M  V30 3751 C 357.32 -0.814288 -4.16617 0
M  V30 3752 C 355.227 -2.95915 -5.12043 0
M  V30 3753 H 354.157 -0.232898 -0.717129 0
M  V30 3754 H 356.808 -1.17936 -1.40582 0
M  V30 3755 H 355.19 -0.462339 -3.93292 0
M  V30 3756 H 356.364 -3.24405 -3.27258 0
M  V30 3757 H 354.679 -2.81701 -3.06649 0
M  V30 3758 H 357.276 -1.0781 -5.23718 0
M  V30 3759 H 357.619 0.24955 -4.15551 0
M  V30 3760 H 358.152 -1.39397 -3.72577 0
M  V30 3761 H 354.891 -4.0139 -5.18234 0
M  V30 3762 H 354.411 -2.33584 -5.52448 0
M  V30 3763 H 356.09 -2.86086 -5.80314 0
M  V30 3764 N 356.222 1.38976 -0.743202 0
M  V30 3765 C 357.633 1.83123 -0.363732 0
M  V30 3766 C 357.984 1.6205 1.10609 0
M  V30 3767 O 357.109 1.11606 1.854 0
M  V30 3768 C 357.704 3.32439 -0.653408 0
M  V30 3769 C 356.263 3.74974 -0.327338 0
M  V30 3770 C 355.41 2.61878 -0.911875 0
M  V30 3771 H 358.361 1.27852 -0.940191 0
M  V30 3772 H 358.382 3.80432 0.0720031 0
M  V30 3773 H 357.894 3.47745 -1.72323 0
M  V30 3774 H 355.995 3.65252 0.736314 0
M  V30 3775 H 356.108 4.72106 -0.815631 0
M  V30 3776 H 354.472 2.52448 -0.337944 0
M  V30 3777 H 355.255 2.79987 -1.98651 0
M  V30 3778 N 357.7 0.491464 1.49741 0
M  V30 3779 C 358.647 -0.292027 2.28945 0
M  V30 3780 C 359.617 -0.968973 1.34908 0
M  V30 3781 O 360.802 -0.97748 1.6386 0
M  V30 3782 C 357.942 -1.35617 3.17336 0
M  V30 3783 C 357.055 -0.691957 4.26422 0
M  V30 3784 C 356.19 -1.73572 5.02042 0
M  V30 3785 C 355.229 -1.05286 6.02977 0
M  V30 3786 N 354.366 -2.0404 6.71798 0
M  V30 3787 H 359.206 0.389654 2.95442 0
M  V30 3788 H 356.743 0.204003 1.45679 0
M  V30 3789 H 358.701 -1.98502 3.66951 0
M  V30 3790 H 357.331 -2.00674 2.52844 0
M  V30 3791 H 356.383 0.0499523 3.80367 0
M  V30 3792 H 357.695 -0.153946 4.98562 0
M  V30 3793 H 356.849 -2.43987 5.55478 0
M  V30 3794 H 355.588 -2.30757 4.29654 0
M  V30 3795 H 354.593 -0.334446 5.48782 0
M  V30 3796 H 355.818 -0.487636 6.77347 0
M  V30 3797 H 353.764 -2.60205 6.02187 0
M  V30 3798 H 353.681 -1.55279 7.39881 0
M  V30 3799 H 354.949 -2.73772 7.29842 0
M  V30 3800 N 359.178 -1.55987 0.224894 0
M  V30 3801 C 360.126 -2.21808 -0.700283 0
M  V30 3802 C 361.12 -1.19854 -1.19714 0
M  V30 3803 O 362.326 -1.37925 -1.15658 0
M  V30 3804 H 358.701 -0.711226 -0.244258 0
M  V30 3805 H 360.672 -2.98152 -0.121749 0
M  V30 3806 C 359.421 -2.91444 -1.8962 0
M  V30 3807 H 358.744 -3.69655 -1.52299 0
M  V30 3808 H 360.184 -3.40894 -2.52125 0
M  V30 3809 C 358.643 -1.94098 -2.75368 0
M  V30 3810 O 359.173 -1.46004 -3.74227 0
M  V30 3811 N 357.379 -1.61675 -2.41474 0
M  V30 3812 H 356.926 -2.00979 -1.61137 0
M  V30 3813 H 356.884 -0.968036 -2.99126 0
M  V30 3814 N 360.656 0.0484629 -1.57525 0
M  V30 3815 C 362.067 0.597486 -1.76881 0
M  V30 3816 C 362.418 1.76664 -0.853475 0
M  V30 3817 O 361.543 2.16357 -0.0433656 0
M  V30 3818 C 362.138 1.09066 -3.20765 0
M  V30 3819 C 360.697 1.58535 -3.41385 0
M  V30 3820 C 359.844 0.514868 -2.72478 0
M  V30 3821 H 362.795 -0.177758 -1.57701 0
M  V30 3822 H 362.816 1.95875 -3.2621 0
M  V30 3823 H 362.328 0.239521 -3.8736 0
M  V30 3824 H 360.429 2.45898 -2.79937 0
M  V30 3825 H 360.542 1.64622 -4.49929 0
M  V30 3826 H 358.906 0.965407 -2.35695 0
M  V30 3827 H 359.689 -0.32648 -3.41744 0
M  V30 3828 N 362.134 1.5431 0.320358 0
M  V30 3829 C 363.364 1.7638 1.07582 0
M  V30 3830 C 363.772 0.513944 1.82086 0
M  V30 3831 O 363.115 -0.525123 1.76035 0
M  V30 3832 C 363.177 2.9055 2.1171 0
M  V30 3833 C 362.841 4.2934 1.56575 0
M  V30 3834 C 363.838 5.10077 1.00586 0
M  V30 3835 C 361.523 4.75893 1.60722 0
M  V30 3836 C 363.517 6.35477 0.494756 0
M  V30 3837 C 361.204 6.0126 1.09224 0
M  V30 3838 C 362.202 6.80886 0.53696 0
M  V30 3839 O 361.89 8.03894 0.0297371 0
M  V30 3840 H 361.622 0.592369 0.325692 0
M  V30 3841 H 364.176 2.02019 0.37116 0
M  V30 3842 H 362.406 2.60489 2.85801 0
M  V30 3843 H 364.095 3.00373 2.73003 0
M  V30 3844 H 364.861 4.75265 0.966869 0
M  V30 3845 H 360.74 4.13957 2.02882 0
M  V30 3846 H 364.284 6.97574 0.0606842 0
M  V30 3847 H 360.181 6.35562 1.12831 0
M  V30 3848 H 360.949 8.18372 0.14486 0
M  V30 3849 N 363.613 -0.582584 1.46437 0
M  V30 3850 C 365.024 -1.1647 1.45916 0
M  V30 3851 C 365.375 -1.95177 0.200077 0
M  V30 3852 O 364.5 -2.04874 -0.696819 0
M  V30 3853 C 365.095 -2.11885 2.64367 0
M  V30 3854 C 363.654 -2.65421 2.66887 0
M  V30 3855 C 362.801 -1.41294 2.38603 0
M  V30 3856 H 365.752 -0.370514 1.54314 0
M  V30 3857 H 365.773 -2.9535 2.39892 0
M  V30 3858 H 365.285 -1.54573 3.5599 0
M  V30 3859 H 363.386 -3.26602 1.79338 0
M  V30 3860 H 363.499 -3.08147 3.66854 0
M  V30 3861 H 361.863 -1.71109 1.88663 0
M  V30 3862 H 362.646 -0.858125 3.32402 0
M  V30 3863 N 365.091 -1.34144 -0.827227 0
M  V30 3864 C 366.054 -1.25264 -1.91942 0
M  V30 3865 C 367.054 -0.168866 -1.59911 0
M  V30 3866 O 368.244 -0.421198 -1.69031 0
M  V30 3867 C 365.376 -0.932952 -3.27885 0
M  V30 3868 H 366.569 -2.22357 -2.0124 0
M  V30 3869 H 364.122 -1.1837 -1.0207 0
M  V30 3870 H 364.857 0.0349917 -3.24281 0
M  V30 3871 H 364.642 -1.71682 -3.52516 0
M  V30 3872 H 366.132 -0.895874 -4.07877 0
M  V30 3873 N 366.569 1.04691 -1.17803 0
M  V30 3874 C 367.794 1.81984 -0.994813 0
M  V30 3875 C 368.219 1.82586 0.452112 0
M  V30 3876 O 367.577 1.23854 1.324 0
M  V30 3877 C 367.625 3.2575 -1.54659 0
M  V30 3878 O 366.729 4.05267 -0.763728 0
M  V30 3879 H 366.07 0.562483 -0.352857 0
M  V30 3880 H 368.6 1.3189 -1.56417 0
M  V30 3881 H 368.61 3.76541 -1.57102 0
M  V30 3882 H 367.285 3.24627 -2.59981 0
M  V30 3883 H 365.862 3.63972 -0.811108 0
M  V30 3884 N 368.047 0.979072 1.23499 0
M  V30 3885 C 369.324 0.563674 1.87302 0
M  V30 3886 C 369.704 -0.959199 1.88049 0
M  V30 3887 O 369.052 -1.83535 1.36114 0
M  V30 3888 C 369.262 1.16822 3.28867 0
M  V30 3889 C 370.61 1.26014 4.0547 0
M  V30 3890 O 371.634 1.12158 3.38082 0
M  V30 3891 O 370.493 1.48044 5.26066 0
M  V30 3892 H 367.587 0.189602 0.804972 0
M  V30 3893 H 370.133 1.07407 1.31384 0
M  V30 3894 H 368.905 2.21049 3.22883 0
M  V30 3895 H 368.528 0.642564 3.92373 0
M  V30 3896 N 369.525 -1.3858 0.750561 0
M  V30 3897 C 370.771 -2.00481 0.305825 0
M  V30 3898 C 371.104 -1.5944 -1.10872 0
M  V30 3899 O 370.379 -0.83052 -1.75877 0
M  V30 3900 C 370.662 -3.5758 0.425287 0
M  V30 3901 C 370.515 -4.08594 1.88072 0
M  V30 3902 C 371.834 -4.39719 -0.183122 0
M  V30 3903 H 368.953 -0.728348 0.112598 0
M  V30 3904 H 371.595 -1.64566 0.949638 0
M  V30 3905 H 369.745 -3.88306 -0.122828 0
M  V30 3906 H 371.417 -3.88523 2.48691 0
M  V30 3907 H 369.66 -3.61574 2.39681 0
M  V30 3908 H 370.331 -5.177 1.91548 0
M  V30 3909 H 372.807 -4.15128 0.284303 0
M  V30 3910 H 371.683 -5.48856 -0.0692757 0
M  V30 3911 H 371.944 -4.23434 -1.27106 0
M  V30 3912 N 371.003 -0.499398 -1.49478 0
M  V30 3913 C 371.951 0.293604 -2.3074 0
M  V30 3914 C 372.945 0.96427 -1.39277 0
M  V30 3915 O 374.151 0.892141 -1.56336 0
M  V30 3916 H 370.526 0.113541 -0.743379 0
M  V30 3917 H 372.497 -0.411772 -2.95545 0
M  V30 3918 C 371.246 1.3462 -3.20582 0
M  V30 3919 H 370.569 0.83954 -3.90886 0
M  V30 3920 H 372.009 1.87308 -3.80384 0
M  V30 3921 C 370.468 2.36351 -2.40083 0
M  V30 3922 O 370.998 3.422 -2.10385 0
M  V30 3923 N 369.204 2.0878 -2.02137 0
M  V30 3924 H 368.751 1.22723 -2.26488 0
M  V30 3925 H 368.709 2.77075 -1.48583 0
M  V30 3926 N 372.481 1.55866 -0.233164 0
M  V30 3927 C 373.709 2.02998 0.399905 0
M  V30 3928 C 374.124 1.11274 1.52524 0
M  V30 3929 O 373.481 0.124528 1.82075 0
M  V30 3930 C 373.532 3.4958 0.920639 0
M  V30 3931 O 373.253 4.37808 -0.159834 0
M  V30 3932 C 374.754 4.12411 1.62578 0
M  V30 3933 H 371.974 0.664006 0.0966281 0
M  V30 3934 H 374.518 2.0143 -0.353013 0
M  V30 3935 H 372.673 3.51727 1.62379 0
M  V30 3936 H 373.087 5.23981 0.23337 0
M  V30 3937 H 374.561 5.16711 1.94201 0
M  V30 3938 H 375.038 3.5809 2.54299 0
M  V30 3939 H 375.644 4.14148 0.967553 0
M  V30 3940 N 373.959 -0.0401083 1.57549 0
M  V30 3941 C 374.869 -1.06133 2.0922 0
M  V30 3942 C 375.885 -1.40356 1.0284 0
M  V30 3943 O 377.061 -1.49897 1.34509 0
M  V30 3944 C 374.126 -2.34658 2.55218 0
M  V30 3945 C 373.187 -2.07117 3.76033 0
M  V30 3946 C 372.42 -3.29514 4.19829 0
M  V30 3947 O 372.643 -4.39794 3.63232 0
M  V30 3948 O 371.577 -3.15863 5.12362 0
M  V30 3949 H 375.403 -0.652244 2.96613 0
M  V30 3950 H 372.988 -0.256368 1.47184 0
M  V30 3951 H 374.87 -3.10239 2.85184 0
M  V30 3952 H 373.545 -2.74883 1.70941 0
M  V30 3953 H 372.452 -1.29139 3.51104 0
M  V30 3954 H 373.785 -1.71754 4.61261 0
M  V30 3955 N 375.437 -1.54477 -0.31217 0
M  V30 3956 C 376.384 -1.84655 -1.38461 0
M  V30 3957 C 377.354 -0.694536 -1.50882 0
M  V30 3958 O 378.539 -0.942081 -1.6592 0
M  V30 3959 C 375.679 -2.0896 -2.74645 0
M  V30 3960 C 374.792 -3.36618 -2.70763 0
M  V30 3961 C 373.927 -3.50824 -3.98868 0
M  V30 3962 C 372.966 -4.72315 -3.89339 0
M  V30 3963 N 372.103 -4.83387 -5.09197 0
M  V30 3964 H 376.943 -2.76142 -1.12026 0
M  V30 3965 H 374.48 -1.36748 -0.542065 0
M  V30 3966 H 376.438 -2.21045 -3.53829 0
M  V30 3967 H 375.068 -1.20752 -2.99364 0
M  V30 3968 H 374.12 -3.33211 -1.83506 0
M  V30 3969 H 375.432 -4.25917 -2.59608 0
M  V30 3970 H 374.586 -3.62513 -4.86486 0
M  V30 3971 H 373.325 -2.59638 -4.12843 0
M  V30 3972 H 372.33 -4.6067 -3.00105 0
M  V30 3973 H 373.555 -5.64897 -3.76919 0
M  V30 3974 H 371.501 -3.9512 -5.23657 0
M  V30 3975 H 371.418 -5.66669 -5.00422 0
M  V30 3976 H 372.686 -4.9942 -5.98498 0
M  V30 3977 N 376.915 0.57481 -1.46744 0
M  V30 3978 C 378.326 1.15695 -1.46532 0
M  V30 3979 C 378.677 1.95068 -0.210425 0
M  V30 3980 O 377.802 2.05241 0.685944 0
M  V30 3981 C 378.397 2.1048 -2.65487 0
M  V30 3982 C 376.956 2.64002 -2.68291 0
M  V30 3983 C 376.103 1.40026 -2.39349 0
M  V30 3984 H 379.054 0.362325 -1.54509 0
M  V30 3985 H 379.075 2.94074 -2.41455 0
M  V30 3986 H 378.587 1.52683 -3.56805 0
M  V30 3987 H 376.688 3.25646 -1.81067 0
M  V30 3988 H 376.801 3.06197 -3.68483 0
M  V30 3989 H 375.165 1.70106 -1.89568 0
M  V30 3990 H 375.948 0.840485 -3.32852 0
M  V30 3991 N 378.394 1.34581 0.820102 0
M  V30 3992 C 379.619 1.30333 1.61332 0
M  V30 3993 C 380.044 -0.119339 1.87721 0
M  V30 3994 O 379.402 -1.08197 1.45475 0
M  V30 3995 C 379.45 2.10258 2.92957 0
M  V30 3996 O 378.554 1.47404 3.85157 0
M  V30 3997 H 377.895 0.447488 0.490561 0
M  V30 3998 H 380.425 1.77425 1.01889 0
M  V30 3999 H 380.435 2.21718 3.42498 0
M  V30 4000 H 379.11 3.13693 2.73074 0
M  V30 4001 H 377.687 1.44703 3.43679 0
M  V30 4002 N 379.872 -1.04064 1.18357 0
M  V30 4003 C 381.121 -1.76662 0.973313 0
M  V30 4004 C 381.434 -1.89154 -0.497991 0
M  V30 4005 O 382.64 -2.58606 -0.826762 0
M  V30 4006 C 381.096 -3.17624 1.69242 0
M  V30 4007 C 380.704 -3.13225 3.20303 0
M  V30 4008 C 382.448 -3.946 1.56497 0
M  V30 4009 C 380.355 -4.49046 3.84853 0
M  V30 4010 H 379.285 -0.662214 0.36054 0
M  V30 4011 H 381.936 -1.16553 1.41731 0
M  V30 4012 H 380.318 -3.78129 1.1762 0
M  V30 4013 H 381.492 -2.62172 3.78949 0
M  V30 4014 H 379.807 -2.49749 3.33189 0
M  V30 4015 H 382.404 -4.95042 2.02084 0
M  V30 4016 H 382.747 -4.13074 0.517243 0
M  V30 4017 H 383.28 -3.4067 2.05399 0
M  V30 4018 H 380.019 -4.35777 4.89672 0
M  V30 4019 H 379.539 -5.00203 3.30994 0
M  V30 4020 H 381.218 -5.17961 3.87718 0
M  V30 4021 N 381.35 -0.985608 -1.22978 0
M  V30 4022 C 382.3 -0.50118 -2.22423 0
M  V30 4023 C 383.284 0.426649 -1.5514 0
M  V30 4024 O 384.476 0.254656 -1.75159 0
M  V30 4025 C 381.605 0.190003 -3.42774 0
M  V30 4026 C 380.691 -0.757703 -4.17276 0
M  V30 4027 N 381.082 -1.90251 -4.68656 0
M  V30 4028 C 379.38 -0.57209 -4.42316 0
M  V30 4029 C 380.081 -2.49676 -5.25392 0
M  V30 4030 N 379.057 -1.78013 -5.13627 0
M  V30 4031 H 382.859 -1.37441 -2.59783 0
M  V30 4032 H 380.373 -0.846941 -1.38567 0
M  V30 4033 H 382.37 0.55439 -4.13197 0
M  V30 4034 H 381.03 1.05946 -3.06929 0
M  V30 4035 H 382.041 -2.28354 -4.64839 0
M  V30 4036 H 378.718 0.251909 -4.16739 0
M  V30 4037 H 380.108 -3.46384 -5.75732 0
M  V30 4038 N 382.828 1.3818 -0.7579 0
M  V30 4039 C 384.053 2.04827 -0.325679 0
M  V30 4040 C 384.478 1.56788 1.03919 0
M  V30 4041 O 383.836 0.721811 1.66312 0
M  V30 4042 C 383.884 3.58774 -0.362447 0
M  V30 4043 O 382.988 4.07372 0.642033 0
M  V30 4044 H 382.329 0.64833 -0.143402 0
M  V30 4045 H 384.859 1.7677 -1.03023 0
M  V30 4046 H 384.869 4.07434 -0.214844 0
M  V30 4047 H 383.544 3.93096 -1.35824 0
M  V30 4048 H 382.121 3.70068 0.458688 0
M  V30 4049 N 384.306 0.507319 1.49211 0
M  V30 4050 C 385.531 -0.033725 2.07373 0
M  V30 4051 C 385.956 -1.29485 1.36437 0
M  V30 4052 O 385.314 -1.76294 0.423087 0
M  V30 4053 C 385.362 -0.263945 3.59633 0
M  V30 4054 O 384.466 -1.33737 3.90113 0
M  V30 4055 H 383.807 0.0290331 0.663365 0
M  V30 4056 H 386.337 0.708749 1.91932 0
M  V30 4057 H 386.347 -0.493536 4.05004 0
M  V30 4058 H 385.022 0.657424 4.10671 0
M  V30 4059 H 383.599 -1.09224 3.56545 0
M  V30 4060 N 385.784 -1.5574 0.241426 0
M  V30 4061 C 387.012 -2.03208 -0.389134 0
M  V30 4062 C 387.427 -1.12082 -1.51931 0
M  V30 4063 O 386.784 -0.134183 -1.82006 0
M  V30 4064 C 386.835 -3.50064 -0.902087 0
M  V30 4065 O 386.556 -4.37717 0.18305 0
M  V30 4066 C 388.057 -4.13268 -1.60389 0
M  V30 4067 H 385.277 -0.664509 -0.0931053 0
M  V30 4068 H 387.821 -2.0124 0.36369 0
M  V30 4069 H 385.976 -3.52583 -1.60511 0
M  V30 4070 H 386.39 -5.24097 -0.205579 0
M  V30 4071 H 387.864 -5.17733 -1.91458 0
M  V30 4072 H 388.341 -3.59434 -2.52397 0
M  V30 4073 H 388.947 -4.14655 -0.945576 0
M  V30 4074 N 387.262 0.0317525 -1.57568 0
M  V30 4075 C 388.209 1.0332 -2.06382 0
M  V30 4076 C 389.179 1.36082 -0.952414 0
M  V30 4077 O 390.364 1.46466 -1.2228 0
M  V30 4078 C 387.504 2.32989 -2.54578 0
M  V30 4079 C 386.617 2.0641 -3.79498 0
M  V30 4080 C 385.752 3.2993 -4.16317 0
M  V30 4081 C 384.791 2.98893 -5.34162 0
M  V30 4082 N 383.928 4.14857 -5.66426 0
M  V30 4083 H 388.768 0.609982 -2.9169 0
M  V30 4084 H 386.305 0.289573 -1.44222 0
M  V30 4085 H 388.263 3.0875 -2.80587 0
M  V30 4086 H 386.893 2.73039 -1.7219 0
M  V30 4087 H 385.945 1.21158 -3.6059 0
M  V30 4088 H 387.257 1.79513 -4.65378 0
M  V30 4089 H 386.411 4.1406 -4.4344 0
M  V30 4090 H 385.15 3.59938 -3.29083 0
M  V30 4091 H 384.155 2.13164 -5.06795 0
M  V30 4092 H 385.38 2.70165 -6.23047 0
M  V30 4093 H 383.326 4.44821 -4.82151 0
M  V30 4094 H 383.243 3.91374 -6.4681 0
M  V30 4095 H 384.511 4.99868 -5.98124 0
M  V30 4096 N 388.74 1.54641 0.303973 0
M  V30 4097 C 389.968 1.77768 1.05858 0
M  V30 4098 C 390.383 0.535722 1.8104 0
M  V30 4099 O 389.74 -0.494337 1.75677 0
M  V30 4100 C 389.791 2.9834 2.04146 0
M  V30 4101 O 389.512 4.17736 1.32015 0
M  V30 4102 C 391.013 3.33832 2.91669 0
M  V30 4103 H 388.233 0.592961 0.314067 0
M  V30 4104 H 390.777 2.01583 0.344149 0
M  V30 4105 H 388.932 2.76742 2.71096 0
M  V30 4106 H 389.346 4.85693 1.97998 0
M  V30 4107 H 390.82 4.21448 3.56491 0
M  V30 4108 H 391.297 2.51857 3.59812 0
M  V30 4109 H 391.903 3.57579 2.30254 0
M  V30 4110 N 390.218 -0.567019 1.47046 0
M  V30 4111 C 391.464 -1.32658 1.53394 0
M  V30 4112 C 391.797 -1.93254 0.19148 0
M  V30 4113 O 391.072 -1.77338 -0.798844 0
M  V30 4114 C 391.355 -2.44412 2.64452 0
M  V30 4115 C 391.208 -1.88749 4.08282 0
M  V30 4116 C 392.527 -3.46387 2.71485 0
M  V30 4117 H 389.646 -0.48098 0.558415 0
M  V30 4118 H 392.288 -0.635481 1.79058 0
M  V30 4119 H 390.438 -3.03363 2.427 0
M  V30 4120 H 392.11 -1.34134 4.41368 0
M  V30 4121 H 390.353 -1.19481 4.17021 0
M  V30 4122 H 391.024 -2.69491 4.81745 0
M  V30 4123 H 393.5 -2.9734 2.91081 0
M  V30 4124 H 392.376 -4.2202 3.50985 0
M  V30 4125 H 392.637 -4.04616 1.78153 0
M  V30 4126 N 391.696 -1.35014 -0.812953 0
M  V30 4127 C 392.626 -1.30069 -1.93919 0
M  V30 4128 C 393.607 -0.176275 -1.69184 0
M  V30 4129 O 394.792 -0.370227 -1.90638 0
M  V30 4130 C 391.922 -1.06547 -3.30552 0
M  V30 4131 C 390.876 -2.15561 -3.69753 0
M  V30 4132 C 390.202 -1.77214 -5.04479 0
M  V30 4133 C 391.502 -3.57476 -3.808 0
M  V30 4134 H 393.196 -2.24303 -1.98314 0
M  V30 4135 H 390.742 -1.07977 -0.952736 0
M  V30 4136 H 392.695 -1.01729 -4.08937 0
M  V30 4137 H 391.419 -0.0875719 -3.26483 0
M  V30 4138 H 390.078 -2.19466 -2.9365 0
M  V30 4139 H 389.726 -0.780589 -4.96906 0
M  V30 4140 H 389.426 -2.50184 -5.31678 0
M  V30 4141 H 390.95 -1.7391 -5.8531 0
M  V30 4142 H 392.364 -3.55929 -4.4943 0
M  V30 4143 H 390.761 -4.29152 -4.19462 0
M  V30 4144 H 391.831 -3.94091 -2.82525 0
M  V30 4145 N 393.175 1.03435 -1.18907 0
M  V30 4146 C 394.085 2.15075 -0.937015 0
M  V30 4147 C 395.101 1.73706 0.101085 0
M  V30 4148 O 396.277 2.01232 -0.0822948 0
M  V30 4149 C 393.342 3.43458 -0.473057 0
M  V30 4150 C 392.403 3.99172 -1.57989 0
M  V30 4151 C 391.636 5.21427 -1.13797 0
M  V30 4152 O 391.859 5.704 0.000725941 0
M  V30 4153 O 390.793 5.69837 -1.9383 0
M  V30 4154 H 394.619 2.39198 -1.87131 0
M  V30 4155 H 392.204 1.13506 -0.971427 0
M  V30 4156 H 394.086 4.20811 -0.222702 0
M  V30 4157 H 392.761 3.20793 0.432869 0
M  V30 4158 H 391.668 3.23178 -1.88433 0
M  V30 4159 H 393.001 4.2619 -2.46217 0
M  V30 4160 N 394.653 0.992116 1.22453 0
M  V30 4161 C 395.603 0.512969 2.22155 0
M  V30 4162 C 396.587 -0.418416 1.55364 0
M  V30 4163 O 397.779 -0.245363 1.75291 0
M  V30 4164 C 394.908 -0.171822 3.4287 0
M  V30 4165 C 393.994 0.779822 4.16869 0
M  V30 4166 N 394.385 1.92734 4.6764 0
M  V30 4167 C 392.683 0.59554 4.42006 0
M  V30 4168 C 393.384 2.52458 5.24061 0
M  V30 4169 N 392.36 1.80735 5.12675 0
M  V30 4170 H 396.162 1.38817 2.5905 0
M  V30 4171 H 393.676 0.854277 1.38115 0
M  V30 4172 H 395.673 -0.532469 4.13486 0
M  V30 4173 H 394.333 -1.04317 3.07487 0
M  V30 4174 H 395.344 2.30816 4.63621 0
M  V30 4175 H 392.021 -0.229805 4.16867 0
M  V30 4176 H 393.411 3.49433 5.73887 0
M  V30 4177 N 396.131 -1.37776 0.765217 0
M  V30 4178 C 397.063 -2.28958 0.105361 0
M  V30 4179 C 398.076 -1.48316 -0.67128 0
M  V30 4180 O 399.265 -1.71046 -0.51045 0
M  V30 4181 C 396.365 -3.27421 -0.874569 0
M  V30 4182 C 395.538 -4.37132 -0.153123 0
M  V30 4183 C 394.597 -5.1571 -1.04547 0
M  V30 4184 O 393.623 -5.66896 -0.511672 0
M  V30 4185 N 394.825 -5.29808 -2.37243 0
M  V30 4186 H 397.59 -2.86227 0.888495 0
M  V30 4187 H 395.151 -1.49682 0.617 0
M  V30 4188 H 397.143 -3.7687 -1.47483 0
M  V30 4189 H 395.713 -2.70967 -1.55871 0
M  V30 4190 H 394.933 -3.89166 0.627975 0
M  V30 4191 H 396.221 -5.07625 0.345643 0
M  V30 4192 H 395.619 -4.89793 -2.83054 0
M  V30 4193 H 394.176 -5.82589 -2.9229 0
M  V30 4194 N 397.609 -0.515225 -1.4894 0
M  V30 4195 C 399.02 -0.0710067 -1.86565 0
M  V30 4196 C 399.371 1.34733 -1.42623 0
M  V30 4197 O 398.496 2.00653 -0.810379 0
M  V30 4198 C 399.091 -0.122083 -3.3858 0
M  V30 4199 C 397.65 0.266863 -3.75453 0
M  V30 4200 C 396.797 -0.488376 -2.72966 0
M  V30 4201 H 399.748 -0.727266 -1.41055 0
M  V30 4202 H 399.769 0.669818 -3.74558 0
M  V30 4203 H 399.281 -1.15448 -3.70531 0
M  V30 4204 H 397.382 1.30196 -3.49113 0
M  V30 4205 H 397.495 -0.0624811 -4.79059 0
M  V30 4206 H 395.859 0.0635622 -2.54621 0
M  V30 4207 H 396.642 -1.52113 -3.07761 0
M  V30 4208 N 399.087 1.5561 -0.249682 0
M  V30 4209 C 400.335 1.98618 0.373548 0
M  V30 4210 C 400.656 1.13919 1.58264 0
M  V30 4211 O 399.926 0.222637 1.94631 0
M  V30 4212 H 398.506 0.733571 0.141006 0
M  V30 4213 H 401.168 1.91748 -0.349117 0
M  V30 4214 H 400.264 3.04584 0.680796 0
M  V30 4215 N 400.565 -0.0233959 1.57583 0
M  V30 4216 C 401.497 -1.04994 2.03737 0
M  V30 4217 C 402.51 -1.32125 0.951152 0
M  V30 4218 O 403.699 -1.29512 1.22837 0
M  V30 4219 C 400.799 -2.39026 2.40249 0
M  V30 4220 C 399.972 -2.31171 3.7132 0
M  V30 4221 C 399.031 -3.47698 3.94959 0
M  V30 4222 O 398.057 -3.26937 4.65941 0
M  V30 4223 N 399.259 -4.6976 3.41037 0
M  V30 4224 H 402.024 -0.656507 2.92421 0
M  V30 4225 H 399.585 -0.211235 1.60516 0
M  V30 4226 H 401.577 -3.15712 2.53196 0
M  V30 4227 H 400.147 -2.70194 1.57207 0
M  V30 4228 H 399.367 -1.39547 3.68674 0
M  V30 4229 H 400.655 -2.23071 4.57293 0
M  V30 4230 H 400.053 -4.89528 2.83512 0
M  V30 4231 H 398.61 -5.43791 3.59353 0
M  V30 4232 N 402.043 -1.548 -0.295768 0
M  V30 4233 C 403.459 -1.4613 -0.641722 0
M  V30 4234 C 403.659 -0.656771 -1.90496 0
M  V30 4235 O 402.715 -0.166547 -2.5195 0
M  V30 4236 C 404.028 -2.90141 -0.789852 0
M  V30 4237 C 405.576 -3.00216 -0.885396 0
M  V30 4238 C 406.051 -4.45434 -1.06548 0
M  V30 4239 N 407.542 -4.49166 -1.13156 0
M  V30 4240 C 408.277 -5.58717 -1.28929 0
M  V30 4241 N 407.773 -6.78182 -1.41567 0
M  V30 4242 N 409.566 -5.46415 -1.31859 0
M  V30 4243 H 401.717 -2.05574 0.534147 0
M  V30 4244 H 403.98 -0.931259 0.177372 0
M  V30 4245 H 403.686 -3.51635 0.0675598 0
M  V30 4246 H 403.56 -3.37859 -1.67724 0
M  V30 4247 H 405.947 -2.38833 -1.73329 0
M  V30 4248 H 406.028 -2.55787 0.0261185 0
M  V30 4249 H 405.672 -5.07413 -0.222335 0
M  V30 4250 H 405.602 -4.87499 -1.9913 0
M  V30 4251 H 408.093 -3.631 -1.04721 0
M  V30 4252 H 408.406 -7.57428 -1.53372 0
M  V30 4253 H 406.751 -6.81037 -1.38613 0
M  V30 4254 H 409.942 -4.5203 -1.21601 0
M  V30 4255 H 410.115 -6.31841 -1.43808 0
M  V30 4256 N 403.521 0.559213 -1.47345 0
M  V30 4257 C 404.769 1.31388 -1.53563 0
M  V30 4258 C 405.09 1.93985 -0.198678 0
M  V30 4259 O 404.36 1.79825 0.777167 0
M  V30 4260 H 402.94 0.487901 -0.565652 0
M  V30 4261 H 405.602 0.65315 -1.8363 0
M  V30 4262 H 404.698 2.10844 -2.30111 0
M  V30 4263 N 404.999 1.35443 0.805782 0
M  V30 4264 C 406.415 1.15499 1.10146 0
M  V30 4265 C 406.615 -0.0319975 2.01475 0
M  V30 4266 O 405.671 -0.70236 2.42535 0
M  V30 4267 C 406.984 2.45833 1.73166 0
M  V30 4268 C 408.532 2.52047 1.85583 0
M  V30 4269 C 409.007 3.82427 2.52019 0
M  V30 4270 N 410.498 3.83682 2.59504 0
M  V30 4271 C 411.233 4.81294 3.11679 0
M  V30 4272 N 410.729 5.89294 3.64287 0
M  V30 4273 N 412.522 4.6873 3.1024 0
M  V30 4274 H 404.673 2.11469 0.198678 0
M  V30 4275 H 406.936 0.93594 0.150731 0
M  V30 4276 H 406.642 3.32874 1.13526 0
M  V30 4277 H 406.516 2.6044 2.72857 0
M  V30 4278 H 408.903 1.65435 2.44367 0
M  V30 4279 H 408.984 2.41354 0.847455 0
M  V30 4280 H 408.628 4.69437 1.93885 0
M  V30 4281 H 408.558 3.90409 3.53395 0
M  V30 4282 H 411.049 3.05648 2.22234 0
M  V30 4283 H 411.362 6.59768 4.02401 0
M  V30 4284 H 409.707 5.92985 3.62483 0
M  V30 4285 H 412.898 3.83496 2.68419 0
M  V30 4286 H 413.071 5.44965 3.50596 0
M  V30 4287 N 406.477 -1.02803 1.19454 0
M  V30 4288 C 407.424 -2.11099 0.933046 0
M  V30 4289 C 408.394 -1.65571 -0.132447 0
M  V30 4290 O 409.579 -1.90797 0.00987576 0
M  V30 4291 C 406.719 -3.41763 0.478747 0
M  V30 4292 C 405.832 -4.00833 1.6111 0
M  V30 4293 C 404.967 -5.19511 1.10825 0
M  V30 4294 C 404.006 -5.70639 2.21445 0
M  V30 4295 N 403.143 -6.80589 1.72461 0
M  V30 4296 H 407.983 -2.32804 1.86028 0
M  V30 4297 H 405.52 -1.14179 0.927441 0
M  V30 4298 H 407.478 -4.16736 0.196745 0
M  V30 4299 H 406.108 -3.20166 -0.411493 0
M  V30 4300 H 405.16 -3.23066 2.00829 0
M  V30 4301 H 406.472 -4.34794 2.4445 0
M  V30 4302 H 405.626 -6.01645 0.781533 0
M  V30 4303 H 404.365 -4.87086 0.244606 0
M  V30 4304 H 403.37 -4.87116 2.54947 0
M  V30 4305 H 404.595 -6.05102 3.08267 0
M  V30 4306 H 402.541 -6.50016 0.884056 0
M  V30 4307 H 402.458 -7.13681 2.49389 0
M  V30 4308 H 403.726 -7.66317 1.42755 0
M  V30 4309 N 407.956 -0.998596 -1.21925 0
M  V30 4310 C 409.367 -0.711939 -1.72593 0
M  V30 4311 C 409.718 0.770842 -1.80423 0
M  V30 4312 O 408.843 1.60237 -1.4544 0
M  V30 4313 C 409.438 -1.28567 -3.13458 0
M  V30 4314 C 407.997 -1.04828 -3.61508 0
M  V30 4315 C 407.144 -1.4024 -2.39224 0
M  V30 4316 H 410.095 -1.17027 -1.07193 0
M  V30 4317 H 410.116 -0.667098 -3.74607 0
M  V30 4318 H 409.628 -2.36486 -3.07727 0
M  V30 4319 H 407.729 0.0140383 -3.72597 0
M  V30 4320 H 407.842 -1.71566 -4.47328 0
M  V30 4321 H 406.206 -0.821077 -2.41103 0
M  V30 4322 H 406.989 -2.49176 -2.36149 0
M  V30 4323 N 409.434 1.37368 -0.772513 0
M  V30 4324 C 410.682 1.99279 -0.336516 0
M  V30 4325 C 411.003 1.6163 1.09091 0
M  V30 4326 O 410.273 0.882109 1.74916 0
M  V30 4327 H 408.853 0.737063 -0.121435 0
M  V30 4328 H 411.515 1.67836 -0.990809 0
M  V30 4329 H 410.611 3.09332 -0.414763 0
M  V30 4330 N 410.912 0.523116 1.48665 0
M  V30 4331 C 411.859 -0.243398 2.29513 0
M  V30 4332 C 412.829 -0.940139 1.36933 0
M  V30 4333 O 414.014 -0.942503 1.65896 0
M  V30 4334 C 411.154 -1.28855 3.20141 0
M  V30 4335 C 410.267 -0.60135 4.27794 0
M  V30 4336 C 409.402 -1.62884 5.05611 0
M  V30 4337 C 408.441 -0.924726 6.05075 0
M  V30 4338 N 407.578 -1.89744 6.75975 0
M  V30 4339 H 412.418 0.452234 2.94549 0
M  V30 4340 H 409.955 0.234858 1.45213 0
M  V30 4341 H 411.913 -1.90674 3.71079 0
M  V30 4342 H 410.543 -1.95266 2.57043 0
M  V30 4343 H 409.595 0.130623 3.80176 0
M  V30 4344 H 410.907 -0.0481585 4.98777 0
M  V30 4345 H 410.061 -2.32149 5.60528 0
M  V30 4346 H 408.8 -2.21592 4.34452 0
M  V30 4347 H 407.805 -0.217966 5.49368 0
M  V30 4348 H 409.03 -0.343851 6.78229 0
M  V30 4349 H 406.976 -2.47373 6.07571 0
M  V30 4350 H 406.893 -1.3955 7.43009 0
M  V30 4351 H 408.161 -2.58229 7.35485 0
M  V30 4352 N 412.39 -1.55475 0.257931 0
M  V30 4353 C 413.337 -2.21837 -0.636939 0
M  V30 4354 C 414.307 -1.18596 -1.16294 0
M  V30 4355 O 415.492 -1.47081 -1.21539 0
M  V30 4356 C 412.632 -2.9301 -1.82317 0
M  V30 4357 C 411.745 -4.10931 -1.33265 0
M  V30 4358 C 410.88 -4.69791 -2.47931 0
M  V30 4359 C 409.919 -5.7994 -1.95796 0
M  V30 4360 N 409.056 -6.32935 -3.0387 0
M  V30 4361 H 413.896 -2.9793 -0.0643591 0
M  V30 4362 H 411.433 -1.47086 -0.0200031 0
M  V30 4363 H 413.391 -3.3248 -2.52018 0
M  V30 4364 H 412.021 -2.1937 -2.36805 0
M  V30 4365 H 411.073 -3.76699 -0.52931 0
M  V30 4366 H 412.385 -4.90417 -0.910654 0
M  V30 4367 H 411.539 -5.11892 -3.25656 0
M  V30 4368 H 410.278 -3.89545 -2.93438 0
M  V30 4369 H 409.283 -5.37305 -1.16546 0
M  V30 4370 H 410.508 -6.62043 -1.51246 0
M  V30 4371 H 408.454 -5.55591 -3.48791 0
M  V30 4372 H 408.371 -7.07645 -2.66035 0
M  V30 4373 H 409.639 -6.79695 -3.81621 0
M  V30 4374 N 413.868 0.0150385 -1.57593 0
M  V30 4375 C 415.284 0.370907 -1.5523 0
M  V30 4376 C 415.484 1.75735 -0.985882 0
M  V30 4377 O 414.54 2.44944 -0.613077 0
M  V30 4378 C 415.853 0.259908 -2.99575 0
M  V30 4379 C 417.401 0.335959 -3.11192 0
M  V30 4380 C 417.876 0.254253 -4.57294 0
M  V30 4381 N 419.367 0.312618 -4.62144 0
M  V30 4382 C 420.102 0.272505 -5.72752 0
M  V30 4383 N 419.598 0.183864 -6.92556 0
M  V30 4384 N 421.391 0.323267 -5.6117 0
M  V30 4385 H 413.542 -0.892104 -1.92757 0
M  V30 4386 H 415.805 -0.340563 -0.884715 0
M  V30 4387 H 415.511 -0.693403 -3.44797 0
M  V30 4388 H 415.385 1.048 -3.62349 0
M  V30 4389 H 417.772 1.27971 -2.65909 0
M  V30 4390 H 417.853 -0.481739 -2.51223 0
M  V30 4391 H 417.497 -0.685887 -5.03247 0
M  V30 4392 H 417.427 1.09024 -5.15191 0
M  V30 4393 H 419.918 0.38307 -3.75953 0
M  V30 4394 H 420.231 0.15874 -7.72637 0
M  V30 4395 H 418.576 0.149708 -6.94839 0
M  V30 4396 H 421.767 0.390607 -4.66467 0
M  V30 4397 H 421.94 0.288539 -6.47357 0
M  V30 4398 N 415.346 1.54954 0.287554 0
M  V30 4399 C 416.594 1.74528 1.01904 0
M  V30 4400 C 416.915 0.541349 1.87335 0
M  V30 4401 O 416.185 -0.444108 1.908 0
M  V30 4402 H 414.765 0.643576 0.379235 0
M  V30 4403 H 417.427 1.92333 0.315294 0
M  V30 4404 H 416.523 2.64015 1.6644 0
M  V30 4405 N 416.824 -0.551391 1.4764 0
M  V30 4406 C 418.24 -0.877887 1.33287 0
M  V30 4407 C 418.44 -1.98817 0.327721 0
M  V30 4408 O 417.496 -2.51171 -0.258695 0
M  V30 4409 C 418.809 -1.26563 2.72768 0
M  V30 4410 C 420.357 -1.37673 2.81097 0
M  V30 4411 C 420.832 -1.79799 4.21232 0
M  V30 4412 N 422.323 -1.8694 4.23802 0
M  V30 4413 C 423.058 -2.20876 5.29151 0
M  V30 4414 N 422.554 -2.53386 6.448 0
M  V30 4415 N 424.347 -2.217 5.16532 0
M  V30 4416 H 416.498 0.18153 2.11623 0
M  V30 4417 H 418.761 0.0185514 0.947818 0
M  V30 4418 H 418.467 -0.523591 3.47781 0
M  V30 4419 H 418.341 -2.22052 3.04915 0
M  V30 4420 H 420.728 -2.10956 2.06353 0
M  V30 4421 H 420.809 -0.40357 2.52596 0
M  V30 4422 H 420.453 -1.07083 4.96483 0
M  V30 4423 H 420.383 -2.78128 4.4716 0
M  V30 4424 H 422.874 -1.64179 3.40373 0
M  V30 4425 H 423.187 -2.78325 7.20941 0
M  V30 4426 H 421.532 -2.50953 6.48111 0
M  V30 4427 H 424.723 -1.95745 4.25207 0
M  V30 4428 H 424.896 -2.47818 5.98741 0
M  V30 4429 N 418.302 -1.35869 -0.798587 0
M  V30 4430 C 419.53 -1.32722 -1.58722 0
M  V30 4431 C 419.945 0.0935631 -1.88568 0
M  V30 4432 O 419.302 1.04784 -1.49421 0
M  V30 4433 C 419.353 -2.13974 -2.91371 0
M  V30 4434 O 419.074 -3.50514 -2.62815 0
M  V30 4435 C 420.575 -2.18504 -3.85708 0
M  V30 4436 H 417.795 -0.45562 -0.492596 0
M  V30 4437 H 420.339 -1.78837 -0.991843 0
M  V30 4438 H 418.494 -1.71438 -3.47402 0
M  V30 4439 H 418.908 -3.92806 -3.47568 0
M  V30 4440 H 420.382 -2.79732 -4.75872 0
M  V30 4441 H 420.859 -1.18597 -4.22885 0
M  V30 4442 H 421.465 -2.61236 -3.35612 0
M  V30 4443 N 419.78 1.02168 -1.19998 0
M  V30 4444 C 421.191 1.57135 -1.00825 0
M  V30 4445 C 421.542 1.91276 0.436818 0
M  V30 4446 O 420.667 1.71679 1.3174 0
M  V30 4447 C 421.262 2.85514 -1.82393 0
M  V30 4448 C 419.821 3.37027 -1.67601 0
M  V30 4449 C 418.968 2.10388 -1.80644 0
M  V30 4450 H 421.919 0.846106 -1.34264 0
M  V30 4451 H 421.94 3.56711 -1.32429 0
M  V30 4452 H 421.452 2.60634 -2.87561 0
M  V30 4453 H 419.553 3.66878 -0.650485 0
M  V30 4454 H 419.666 4.09572 -2.4857 0
M  V30 4455 H 418.03 2.22601 -1.23778 0
M  V30 4456 H 418.813 1.8794 -2.87286 0
M  V30 4457 N 421.258 1.00505 1.21394 0
M  V30 4458 C 422.205 0.565496 2.23765 0
M  V30 4459 C 423.175 -0.408466 1.60999 0
M  V30 4460 O 424.36 -0.310503 1.88257 0
M  V30 4461 C 421.5 -0.101667 3.4495 0
M  V30 4462 C 420.613 0.915479 4.22188 0
M  V30 4463 C 419.748 0.220574 5.30742 0
M  V30 4464 C 418.787 1.22527 5.99711 0
M  V30 4465 N 417.924 0.557831 6.9988 0
M  V30 4466 H 422.764 1.44314 2.60725 0
M  V30 4467 H 420.301 0.722643 1.28126 0
M  V30 4468 H 422.259 -0.505504 4.14126 0
M  V30 4469 H 420.889 -0.94303 3.08718 0
M  V30 4470 H 419.941 1.43756 3.52191 0
M  V30 4471 H 421.253 1.68005 4.69655 0
M  V30 4472 H 420.407 -0.239368 6.06228 0
M  V30 4473 H 419.146 -0.576401 4.84282 0
M  V30 4474 H 418.151 1.69571 5.22997 0
M  V30 4475 H 419.376 2.02332 6.48258 0
M  V30 4476 H 417.322 -0.219486 6.55633 0
M  V30 4477 H 417.239 1.26065 7.45415 0
M  V30 4478 H 418.507 0.121095 7.79406 0
M  V30 4479 N 422.737 -1.36956 0.779787 0
M  V30 4480 C 423.965 -2.03755 0.359398 0
M  V30 4481 C 424.38 -1.58807 -1.02106 0
M  V30 4482 O 423.737 -0.773024 -1.6532 0
M  V30 4483 C 423.788 -3.59251 0.402568 0
M  V30 4484 O 423.509 -4.02557 1.72858 0
M  V30 4485 C 425.01 -4.43291 -0.0284068 0
M  V30 4486 H 422.23 -0.654148 0.149437 0
M  V30 4487 H 424.774 -1.75128 1.05595 0
M  V30 4488 H 422.929 -3.86621 -0.245478 0
M  V30 4489 H 423.343 -4.97111 1.67275 0
M  V30 4490 H 424.817 -5.51975 0.0529466 0
M  V30 4491 H 425.294 -4.25719 -1.07982 0
M  V30 4492 H 425.9 -4.21163 0.591758 0
M  V30 4493 N 424.215 -0.530993 -1.48385 0
M  V30 4494 C 425.145 0.219985 -2.32461 0
M  V30 4495 C 426.126 0.934111 -1.42156 0
M  V30 4496 O 427.311 0.919694 -1.71042 0
M  V30 4497 C 424.441 1.26674 -3.23375 0
M  V30 4498 C 423.395 0.67069 -4.22712 0
M  V30 4499 C 422.721 1.82017 -5.02766 0
M  V30 4500 C 424.021 -0.358268 -5.2107 0
M  V30 4501 H 425.715 -0.48187 -2.95497 0
M  V30 4502 H 423.261 -0.233182 -1.42099 0
M  V30 4503 H 425.214 1.80006 -3.81019 0
M  V30 4504 H 423.938 1.99818 -2.58341 0
M  V30 4505 H 422.597 0.158878 -3.66256 0
M  V30 4506 H 422.245 2.54002 -4.34157 0
M  V30 4507 H 421.945 1.42727 -5.70003 0
M  V30 4508 H 423.469 2.35725 -5.63264 0
M  V30 4509 H 424.883 0.0880081 -5.73232 0
M  V30 4510 H 423.28 -0.66861 -5.96364 0
M  V30 4511 H 424.35 -1.26367 -4.68145 0
M  V30 4512 N 425.693 1.55336 -0.266172 0
M  V30 4513 C 426.942 1.98574 0.353749 0
M  V30 4514 C 427.255 1.15789 1.57646 0
M  V30 4515 O 428.461 1.49129 2.26876 0
M  V30 4516 C 426.917 3.53403 0.680747 0
M  V30 4517 C 426.525 4.44953 -0.52165 0
M  V30 4518 C 428.269 4.05251 1.26379 0
M  V30 4519 C 426.176 5.91156 -0.169736 0
M  V30 4520 H 425.106 0.741643 0.135949 0
M  V30 4521 H 427.757 1.79743 -0.369421 0
M  V30 4522 H 426.139 3.68001 1.46257 0
M  V30 4523 H 427.313 4.42121 -1.29869 0
M  V30 4524 H 425.628 4.03691 -1.02093 0
M  V30 4525 H 428.225 5.12021 1.54074 0
M  V30 4526 H 428.568 3.53749 2.19471 0
M  V30 4527 H 429.101 3.94057 0.544447 0
M  V30 4528 H 425.84 6.46736 -1.0683 0
M  V30 4529 H 425.36 5.97079 0.570717 0
M  V30 4530 H 427.039 6.4655 0.241245 0
M  V30 4531 N 427.171 -0.0066808 1.57599 0
M  V30 4532 C 428.396 -0.707738 1.94951 0
M  V30 4533 C 428.821 -1.66882 0.867868 0
M  V30 4534 O 428.179 -1.80457 -0.17458 0
M  V30 4535 C 428.227 -1.42162 3.31394 0
M  V30 4536 O 427.331 -2.53578 3.25226 0
M  V30 4537 H 426.672 -0.188752 0.636607 0
M  V30 4538 H 429.202 0.0445193 2.04552 0
M  V30 4539 H 429.212 -1.78655 3.66806 0
M  V30 4540 H 427.887 -0.716903 4.09675 0
M  V30 4541 H 426.464 -2.19463 3.01481 0
M  V30 4542 N 428.649 -1.55105 -0.279332 0
M  V30 4543 C 429.599 -1.83937 -1.34727 0
M  V30 4544 C 430.583 -0.69785 -1.44979 0
M  V30 4545 O 431.775 -0.95904 -1.48766 0
M  V30 4546 C 428.904 -2.1092 -2.70864 0
M  V30 4547 C 427.99 -3.31314 -2.64748 0
M  V30 4548 N 428.381 -4.51371 -2.2825 0
M  V30 4549 C 426.679 -3.33777 -2.95819 0
M  V30 4550 C 427.38 -5.33447 -2.31969 0
M  V30 4551 N 426.356 -4.71697 -2.7019 0
M  V30 4552 H 430.158 -2.74309 -1.05506 0
M  V30 4553 H 427.672 -1.54896 -0.487959 0
M  V30 4554 H 429.669 -2.2973 -3.47893 0
M  V30 4555 H 428.329 -1.21828 -3.00979 0
M  V30 4556 H 429.34 -4.77584 -2.00335 0
M  V30 4557 H 426.017 -2.54858 -3.30687 0
M  V30 4558 H 427.407 -6.39424 -2.06365 0
M  V30 4559 N 430.127 0.543554 -1.4793 0
M  V30 4560 C 431.538 1.12561 -1.48953 0
M  V30 4561 C 431.889 1.94578 -0.251754 0
M  V30 4562 O 431.014 2.0665 0.642255 0
M  V30 4563 C 431.609 2.04801 -2.69892 0
M  V30 4564 C 430.168 2.58251 -2.73831 0
M  V30 4565 C 429.315 1.34918 -2.42265 0
M  V30 4566 H 432.266 0.32947 -1.55242 0
M  V30 4567 H 432.287 2.88886 -2.47639 0
M  V30 4568 H 431.799 1.4508 -3.59963 0
M  V30 4569 H 429.9 3.21732 -1.87934 0
M  V30 4570 H 430.013 2.98312 -3.74895 0
M  V30 4571 H 428.377 1.66046 -1.93134 0
M  V30 4572 H 429.16 0.769693 -3.3456 0
M  V30 4573 N 431.605 1.3629 0.791371 0
M  V30 4574 C 432.854 1.29742 1.54434 0
M  V30 4575 C 433.167 -0.121729 1.95221 0
M  V30 4576 O 434.373 -0.309579 2.69729 0
M  V30 4577 C 432.829 2.27623 2.78776 0
M  V30 4578 C 432.437 3.74963 2.45166 0
M  V30 4579 C 434.181 2.30047 3.56761 0
M  V30 4580 C 432.088 4.64626 3.65891 0
M  V30 4581 H 431.018 0.482113 0.579727 0
M  V30 4582 H 433.669 1.61642 0.868565 0
M  V30 4583 H 432.051 1.88714 3.48142 0
M  V30 4584 H 433.225 4.22596 1.83709 0
M  V30 4585 H 431.54 3.75295 1.80396 0
M  V30 4586 H 434.137 2.94247 4.46456 0
M  V30 4587 H 434.48 1.30846 3.95203 0
M  V30 4588 H 435.013 2.67563 2.94372 0
M  V30 4589 H 431.752 5.64883 3.32547 0
M  V30 4590 H 431.272 4.2171 4.26521 0
M  V30 4591 H 432.951 4.80801 4.32943 0
M  V30 4592 N 433.083 -1.0153 1.20538 0
M  V30 4593 C 434.308 -1.79283 1.04271 0
M  V30 4594 C 434.733 -1.8372 -0.403544 0
M  V30 4595 O 434.091 -1.27321 -1.2907 0
M  V30 4596 C 434.139 -3.21535 1.63241 0
M  V30 4597 O 433.243 -4.03099 0.870908 0
M  V30 4598 H 432.584 -0.55293 0.367647 0
M  V30 4599 H 435.114 -1.27696 1.59859 0
M  V30 4600 H 435.124 -3.72243 1.6703 0
M  V30 4601 H 433.799 -3.1762 2.68497 0
M  V30 4602 H 432.376 -3.61693 0.907323 0
M  V30 4603 N 434.561 -1.01147 -1.20859 0
M  V30 4604 C 435.524 -0.582224 -2.21682 0
M  V30 4605 C 436.524 0.344887 -1.57058 0
M  V30 4606 O 437.714 0.134281 -1.73682 0
M  V30 4607 C 434.846 0.150496 -3.40568 0
M  V30 4608 H 436.039 -1.47408 -2.61172 0
M  V30 4609 H 433.592 -0.800695 -1.34233 0
M  V30 4610 H 434.327 1.0575 -3.06574 0
M  V30 4611 H 434.112 -0.515444 -3.88697 0
M  V30 4612 H 435.602 0.438344 -4.15293 0
M  V30 4613 N 436.039 1.36541 -0.78704 0
M  V30 4614 C 437.45 1.81873 -0.421807 0
M  V30 4615 C 437.801 1.65487 1.05397 0
M  V30 4616 O 436.926 1.17448 1.81755 0
M  V30 4617 C 437.521 3.30192 -0.758841 0
M  V30 4618 C 436.08 3.73743 -0.446468 0
M  V30 4619 C 435.227 2.58844 -0.994728 0
M  V30 4620 H 438.178 1.24796 -0.98039 0
M  V30 4621 H 438.199 3.80468 -0.0490648 0
M  V30 4622 H 437.711 3.42087 -1.83299 0
M  V30 4623 H 435.812 3.6741 0.619739 0
M  V30 4624 H 435.925 4.69272 -0.965415 0
M  V30 4625 H 434.289 2.51245 -0.418087 0
M  V30 4626 H 435.072 2.73525 -2.07458 0
M  V30 4627 N 437.518 0.538854 1.48102 0
M  V30 4628 C 438.743 0.0102694 2.07397 0
M  V30 4629 C 439.168 -1.26562 1.39153 0
M  V30 4630 O 438.526 -1.75357 0.460387 0
M  V30 4631 C 438.574 -0.187602 3.60112 0
M  V30 4632 O 437.678 -1.25432 3.92862 0
M  V30 4633 H 437.019 0.0430975 0.6626 0
M  V30 4634 H 439.549 0.749301 1.90385 0
M  V30 4635 H 439.559 -0.407517 4.0596 0
M  V30 4636 H 438.234 0.744386 4.09184 0
M  V30 4637 H 436.811 -1.01636 3.58782 0
M  V30 4638 N 438.996 -1.55193 0.274407 0
M  V30 4639 C 439.943 -2.225 -0.613374 0
M  V30 4640 C 440.913 -1.19823 -1.15029 0
M  V30 4641 O 442.098 -1.48362 -1.19973 0
M  V30 4642 C 439.238 -2.94927 -1.79199 0
M  V30 4643 C 438.351 -4.12322 -1.28899 0
M  V30 4644 C 437.486 -4.72394 -2.42934 0
M  V30 4645 C 436.525 -5.81984 -1.89634 0
M  V30 4646 N 435.662 -6.36123 -2.9714 0
M  V30 4647 H 440.502 -2.97982 -0.032756 0
M  V30 4648 H 438.039 -1.47099 -0.00440146 0
M  V30 4649 H 439.997 -3.35134 -2.48478 0
M  V30 4650 H 438.627 -2.2187 -2.34465 0
M  V30 4651 H 437.679 -3.7724 -0.489327 0
M  V30 4652 H 438.991 -4.91355 -0.858587 0
M  V30 4653 H 438.145 -5.15317 -3.20208 0
M  V30 4654 H 436.884 -3.92636 -2.8929 0
M  V30 4655 H 435.889 -5.38511 -1.1084 0
M  V30 4656 H 437.114 -6.6361 -1.44215 0
M  V30 4657 H 435.06 -5.59259 -3.42878 0
M  V30 4658 H 434.977 -7.10427 -2.58515 0
M  V30 4659 H 436.245 -6.83704 -3.74391 0
M  V30 4660 N 440.474 -0.00167713 -1.576 0
M  V30 4661 C 441.702 0.693759 -1.94922 0
M  V30 4662 C 442.117 1.67215 -0.876626 0
M  V30 4663 O 441.474 1.81929 0.144279 0
M  V30 4664 C 441.525 1.42416 -3.32265 0
M  V30 4665 O 441.246 0.485014 -4.35407 0
M  V30 4666 C 442.747 2.21395 -3.84056 0
M  V30 4667 H 439.967 0.193118 -0.642609 0
M  V30 4668 H 442.511 -0.0532952 -2.04431 0
M  V30 4669 H 440.666 2.12284 -3.24059 0
M  V30 4670 H 441.08 1.00053 -5.14868 0
M  V30 4671 H 442.554 2.67996 -4.82578 0
M  V30 4672 H 443.031 3.04142 -3.16851 0
M  V30 4673 H 443.637 1.56542 -3.95443 0
M  V30 4674 N 441.952 1.55251 0.271103 0
M  V30 4675 C 442.915 1.87484 1.31842 0
M  V30 4676 C 443.915 0.749545 1.42262 0
M  V30 4677 O 445.105 1.01771 1.4138 0
M  V30 4678 C 442.237 2.0818 2.69951 0
M  V30 4679 H 443.43 2.81108 1.0449 0
M  V30 4680 H 440.983 1.47771 0.509258 0
M  V30 4681 H 441.718 1.16944 3.02481 0
M  V30 4682 H 441.503 2.90114 2.63774 0
M  V30 4683 H 442.993 2.34385 3.4562 0
M  V30 4684 N 443.43 -0.535701 1.48216 0
M  V30 4685 C 444.34 -1.66785 1.64985 0
M  V30 4686 C 445.356 -1.65654 0.532414 0
M  V30 4687 O 446.532 -1.8471 0.80275 0
M  V30 4688 C 443.597 -3.0326 1.68031 0
M  V30 4689 C 442.658 -3.1529 2.9136 0
M  V30 4690 C 441.891 -4.45255 2.94252 0
M  V30 4691 O 442.114 -5.32011 2.05719 0
M  V30 4692 O 441.048 -4.6153 3.86359 0
M  V30 4693 H 444.874 -1.55576 2.60825 0
M  V30 4694 H 442.459 -0.70815 1.31551 0
M  V30 4695 H 444.341 -3.84436 1.72589 0
M  V30 4696 H 443.016 -3.14805 0.753628 0
M  V30 4697 H 441.923 -2.3343 2.92337 0
M  V30 4698 H 443.256 -3.08658 3.83394 0
M  V30 4699 N 444.908 -1.36708 -0.784132 0
M  V30 4700 C 446.319 -1.27947 -1.35965 0
M  V30 4701 C 446.67 0.0784013 -1.96043 0
M  V30 4702 O 445.795 0.979989 -1.92938 0
M  V30 4703 C 446.39 -2.31689 -2.47195 0
M  V30 4704 C 444.949 -2.26601 -3.00548 0
M  V30 4705 C 444.096 -2.16184 -1.73666 0
M  V30 4706 H 447.047 -1.4751 -0.585358 0
M  V30 4707 H 447.068 -1.95638 -3.26352 0
M  V30 4708 H 446.58 -3.30506 -2.03439 0
M  V30 4709 H 444.681 -1.31268 -3.48711 0
M  V30 4710 H 444.794 -3.19508 -3.57004 0
M  V30 4711 H 443.158 -1.62524 -1.96107 0
M  V30 4712 H 443.941 -3.16896 -1.32031 0
M  V30 4713 N 446.386 1.0089 -1.21074 0
M  V30 4714 C 447.316 2.1145 -0.990523 0
M  V30 4715 C 448.297 1.69897 0.0831699 0
M  V30 4716 O 449.482 1.94052 -0.0758853 0
M  V30 4717 C 446.612 3.42914 -0.550177 0
M  V30 4718 C 445.566 3.98244 -1.56799 0
M  V30 4719 C 444.892 5.25568 -0.984013 0
M  V30 4720 C 446.192 4.30752 -2.95381 0
M  V30 4721 H 447.886 2.3013 -1.91521 0
M  V30 4722 H 445.432 1.10592 -0.92225 0
M  V30 4723 H 447.385 4.19653 -0.383305 0
M  V30 4724 H 446.109 3.24014 0.41015 0
M  V30 4725 H 444.768 3.23621 -1.72236 0
M  V30 4726 H 444.416 5.02998 -0.0155216 0
M  V30 4727 H 444.116 5.63551 -1.66384 0
M  V30 4728 H 445.64 6.04955 -0.828378 0
M  V30 4729 H 447.054 4.98349 -2.8341 0
M  V30 4730 H 445.451 4.79869 -3.60341 0
M  V30 4731 H 446.521 3.39192 -3.46521 0
M  V30 4732 N 447.864 1.01787 1.20321 0
M  V30 4733 C 448.811 0.589197 2.23153 0
M  V30 4734 C 449.781 -0.391367 1.61423 0
M  V30 4735 O 450.966 -0.290518 1.88575 0
M  V30 4736 C 448.106 -0.0650747 3.45039 0
M  V30 4737 C 447.219 0.960207 4.21194 0
M  V30 4738 C 446.354 0.276854 5.30478 0
M  V30 4739 C 445.393 1.2888 5.98378 0
M  V30 4740 N 444.53 0.632031 6.99249 0
M  V30 4741 H 449.37 1.47071 2.59179 0
M  V30 4742 H 446.907 0.736192 1.27352 0
M  V30 4743 H 448.865 -0.461552 4.14639 0
M  V30 4744 H 447.495 -0.910233 3.09701 0
M  V30 4745 H 446.547 1.47484 3.50646 0
M  V30 4746 H 447.859 1.72977 4.67847 0
M  V30 4747 H 447.013 -0.175056 6.06447 0
M  V30 4748 H 445.752 -0.525004 4.84866 0
M  V30 4749 H 444.757 1.75109 5.21169 0
M  V30 4750 H 445.982 2.09196 6.46076 0
M  V30 4751 H 443.928 -0.149935 6.55829 0
M  V30 4752 H 443.845 1.33964 7.44036 0
M  V30 4753 H 445.113 0.203755 7.79234 0
M  V30 4754 N 449.342 -1.36122 0.79427 0
M  V30 4755 C 450.589 -1.99111 0.368905 0
M  V30 4756 C 450.917 -1.63032 -1.0607 0
M  V30 4757 O 450.172 -0.879303 -1.74833 0
M  V30 4758 C 450.471 -3.5409 0.48527 0
M  V30 4759 C 450.137 -4.10003 1.87638 0
M  V30 4760 C 448.799 -4.24986 2.257 0
M  V30 4761 C 451.151 -4.40423 2.78706 0
M  V30 4762 C 448.479 -4.67701 3.54221 0
M  V30 4763 C 450.831 -4.84573 4.0666 0
M  V30 4764 C 449.495 -4.97761 4.44737 0
M  V30 4765 H 448.765 -0.7286 0.134992 0
M  V30 4766 H 451.412 -1.62534 1.01267 0
M  V30 4767 H 449.717 -3.91052 -0.241984 0
M  V30 4768 H 451.414 -4.00766 0.137109 0
M  V30 4769 H 448.004 -3.98784 1.57064 0
M  V30 4770 H 452.188 -4.28412 2.50553 0
M  V30 4771 H 447.444 -4.761 3.83587 0
M  V30 4772 H 451.618 -5.07074 4.77336 0
M  V30 4773 H 449.245 -5.30618 5.44379 0
M  V30 4774 N 450.82 -0.546701 -1.47814 0
M  V30 4775 C 452.231 -0.110564 -1.86372 0
M  V30 4776 C 452.582 1.31678 -1.45449 0
M  V30 4777 O 451.707 1.98889 -0.852758 0
M  V30 4778 C 452.302 -0.193873 -3.38245 0
M  V30 4779 C 450.861 0.187164 -3.75934 0
M  V30 4780 C 450.008 -0.546166 -2.71868 0
M  V30 4781 H 452.959 -0.757022 -1.39481 0
M  V30 4782 H 452.98 0.590218 -3.75895 0
M  V30 4783 H 452.492 -1.23282 -3.67999 0
M  V30 4784 H 450.593 1.22762 -3.51796 0
M  V30 4785 H 450.706 -0.164083 -4.78819 0
M  V30 4786 H 449.07 0.00953904 -2.54698 0
M  V30 4787 H 449.853 -1.58606 -3.04465 0
M  V30 4788 N 452.299 1.55045 -0.282633 0
M  V30 4789 C 453.246 2.22822 0.601566 0
M  V30 4790 C 454.216 1.20431 1.14392 0
M  V30 4791 O 455.401 1.48996 1.19184 0
M  V30 4792 C 452.541 2.95873 1.77632 0
M  V30 4793 C 451.654 4.12999 1.26711 0
M  V30 4794 C 450.789 4.73676 2.40426 0
M  V30 4795 C 449.828 5.82981 1.86545 0
M  V30 4796 N 448.965 6.3769 2.93762 0
M  V30 4797 H 453.805 2.97995 0.0169528 0
M  V30 4798 H 451.342 1.471 -0.00339964 0
M  V30 4799 H 453.3 3.36447 2.46697 0
M  V30 4800 H 451.93 2.2311 2.33285 0
M  V30 4801 H 450.982 3.77494 0.469314 0
M  V30 4802 H 452.294 4.91803 0.832518 0
M  V30 4803 H 451.448 5.17008 3.17471 0
M  V30 4804 H 450.187 3.94164 2.87203 0
M  V30 4805 H 449.192 5.39092 1.07983 0
M  V30 4806 H 450.417 6.64366 1.40694 0
M  V30 4807 H 448.363 5.61069 3.39908 0
M  V30 4808 H 448.28 7.11788 2.54744 0
M  V30 4809 H 449.548 6.8568 3.7076 0
M  V30 4810 N 453.777 0.010035 1.57597 0
M  V30 4811 C 454.724 -0.978122 2.09049 0
M  V30 4812 C 455.694 -1.33509 0.988159 0
M  V30 4813 O 456.879 -1.43172 1.26121 0
M  V30 4814 C 454.019 -2.26158 2.60666 0
M  V30 4815 C 453.132 -1.96275 3.84838 0
M  V30 4816 C 452.267 -3.18776 4.24918 0
M  V30 4817 C 451.306 -2.84625 5.41899 0
M  V30 4818 N 450.443 -3.99693 5.77226 0
M  V30 4819 H 455.283 -0.532431 2.93205 0
M  V30 4820 H 452.82 -0.251234 1.44939 0
M  V30 4821 H 454.778 -3.01202 2.88675 0
M  V30 4822 H 453.408 -2.68378 1.79369 0
M  V30 4823 H 452.46 -1.11555 3.63675 0
M  V30 4824 H 453.772 -1.67111 4.69974 0
M  V30 4825 H 452.926 -4.02157 4.54262 0
M  V30 4826 H 451.665 -3.51087 3.38511 0
M  V30 4827 H 450.67 -1.99653 5.12268 0
M  V30 4828 H 451.895 -2.53551 6.29991 0
M  V30 4829 H 449.841 -4.31882 4.93776 0
M  V30 4830 H 449.758 -3.74087 6.56959 0
M  V30 4831 H 451.026 -4.83834 6.11167 0
M  V30 4832 N 455.255 -1.55392 -0.262866 0
M  V30 4833 C 456.671 -1.47459 -0.610582 0
M  V30 4834 C 456.871 -0.697031 -1.8906 0
M  V30 4835 O 455.927 -0.219952 -2.5154 0
M  V30 4836 C 457.24 -2.91751 -0.728131 0
M  V30 4837 C 458.788 -3.02027 -0.821517 0
M  V30 4838 C 459.263 -4.47594 -0.97076 0
M  V30 4839 N 460.754 -4.51465 -1.03603 0
M  V30 4840 C 461.489 -5.61326 -1.17049 0
M  V30 4841 N 460.985 -6.81032 -1.2715 0
M  V30 4842 N 462.778 -5.49089 -1.20239 0
M  V30 4843 H 454.929 -2.04395 0.577632 0
M  V30 4844 H 457.192 -0.927287 0.197086 0
M  V30 4845 H 456.898 -3.51413 0.142132 0
M  V30 4846 H 456.772 -3.4134 -1.6052 0
M  V30 4847 H 459.159 -2.42456 -1.68224 0
M  V30 4848 H 459.24 -2.55674 0.0803688 0
M  V30 4849 H 458.884 -5.07771 -0.114655 0
M  V30 4850 H 458.814 -4.91613 -1.88745 0
M  V30 4851 H 461.305 -3.6524 -0.96996 0
M  V30 4852 H 461.618 -7.60511 -1.37271 0
M  V30 4853 H 459.963 -6.83824 -1.24136 0
M  V30 4854 H 463.154 -4.54507 -1.11985 0
M  V30 4855 H 463.327 -6.34749 -1.30373 0
M  V30 4856 N 456.733 0.527833 -1.48498 0
M  V30 4857 C 457.981 1.28101 -1.56316 0
M  V30 4858 C 458.302 1.9352 -0.239781 0
M  V30 4859 O 457.572 1.81433 0.738849 0
M  V30 4860 H 456.152 0.475793 -0.575873 0
M  V30 4861 H 458.814 0.614052 -1.84974 0
M  V30 4862 H 457.91 2.05916 -2.34532 0
M  V30 4863 N 458.211 1.37122 0.776871 0
M  V30 4864 C 459.622 1.28667 1.35284 0
M  V30 4865 C 459.973 -0.0680035 1.96082 0
M  V30 4866 O 459.098 -0.969743 1.93455 0
M  V30 4867 C 459.693 2.32997 2.45963 0
M  V30 4868 C 458.252 2.28191 2.99342 0
M  V30 4869 C 457.399 2.17101 1.72517 0
M  V30 4870 H 460.35 1.47819 0.577527 0
M  V30 4871 H 460.371 1.97366 3.2531 0
M  V30 4872 H 459.883 3.3158 2.01684 0
M  V30 4873 H 457.984 1.33115 3.4801 0
M  V30 4874 H 458.097 3.21397 3.55304 0
M  V30 4875 H 456.461 1.63562 1.95242 0
M  V30 4876 H 457.244 3.17591 1.30348 0
M  V30 4877 N 459.689 -1.00246 1.21608 0
M  V30 4878 C 460.636 -2.09073 0.977613 0
M  V30 4879 C 461.606 -1.65815 -0.097297 0
M  V30 4880 O 462.791 -1.90734 0.0503445 0
M  V30 4881 C 459.931 -3.40671 0.551133 0
M  V30 4882 C 459.044 -3.97326 1.69576 0
M  V30 4883 C 458.179 -5.17043 1.2182 0
M  V30 4884 C 457.218 -5.65813 2.335 0
M  V30 4885 N 456.355 -6.76778 1.86859 0
M  V30 4886 H 461.195 -2.28806 1.90924 0
M  V30 4887 H 458.732 -1.12186 0.951452 0
M  V30 4888 H 460.69 -4.16225 0.285097 0
M  V30 4889 H 459.32 -3.20967 -0.343489 0
M  V30 4890 H 458.372 -3.18734 2.07637 0
M  V30 4891 H 459.684 -4.29511 2.53617 0
M  V30 4892 H 458.838 -5.99852 0.908975 0
M  V30 4893 H 457.577 -4.86458 0.347869 0
M  V30 4894 H 456.582 -4.81599 2.65222 0
M  V30 4895 H 457.807 -5.98427 3.21033 0
M  V30 4896 H 455.753 -6.47994 1.02174 0
M  V30 4897 H 455.67 -7.08231 2.64471 0
M  V30 4898 H 456.938 -7.63116 1.58978 0
M  V30 4899 N 461.167 -1.02423 -1.1978 0
M  V30 4900 C 462.578 -0.748389 -1.71044 0
M  V30 4901 C 462.929 0.732398 -1.82017 0
M  V30 4902 O 462.054 1.57116 -1.48807 0
M  V30 4903 C 462.649 -1.35187 -3.1066 0
M  V30 4904 C 461.208 -1.12472 -3.59203 0
M  V30 4905 C 460.355 -1.45283 -2.36195 0
M  V30 4906 H 463.306 -1.19275 -1.04686 0
M  V30 4907 H 463.327 -0.746408 -3.73107 0
M  V30 4908 H 462.839 -2.4296 -3.02642 0
M  V30 4909 H 460.94 -0.0649983 -3.72543 0
M  V30 4910 H 461.053 -1.81016 -4.43588 0
M  V30 4911 H 459.417 -0.872034 -2.39307 0
M  V30 4912 H 460.2 -2.54129 -2.30811 0
M  V30 4913 N 462.645 1.35699 -0.801477 0
M  V30 4914 C 463.893 1.9852 -0.37871 0
M  V30 4915 C 464.214 1.63907 1.05638 0
M  V30 4916 O 463.484 0.919013 1.73006 0
M  V30 4917 H 462.064 0.734322 -0.137042 0
M  V30 4918 H 464.726 1.65697 -1.02619 0
M  V30 4919 H 463.822 3.08382 -0.480284 0
M  V30 4920 N 464.123 0.554532 1.47522 0
M  V30 4921 C 465.348 0.0322661 2.07375 0
M  V30 4922 C 465.773 -1.25079 1.40488 0
M  V30 4923 O 465.131 -1.74859 0.47896 0
M  V30 4924 C 465.179 -0.149397 3.6029 0
M  V30 4925 O 464.283 -1.21259 3.9417 0
M  V30 4926 H 463.624 0.0501228 0.662106 0
M  V30 4927 H 466.154 0.769452 1.8958 0
M  V30 4928 H 466.164 -0.364437 4.06369 0
M  V30 4929 H 464.839 0.787743 4.08372 0
M  V30 4930 H 463.416 -0.97825 3.5984 0
M  V30 4931 N 465.601 -1.54893 0.290851 0
M  V30 4932 C 466.548 -2.23138 -0.58974 0
M  V30 4933 C 467.518 -1.21036 -1.13752 0
M  V30 4934 O 468.703 -1.49626 -1.18392 0
M  V30 4935 C 465.843 -2.96811 -1.76061 0
M  V30 4936 C 464.956 -4.13665 -1.24519 0
M  V30 4937 C 464.091 -4.74944 -2.3791 0
M  V30 4938 C 463.13 -5.83963 -1.83451 0
M  V30 4939 N 462.267 -6.39239 -2.90376 0
M  V30 4940 H 467.107 -2.98 -0.00114915 0
M  V30 4941 H 464.644 -1.47096 0.0112006 0
M  V30 4942 H 466.602 -3.37751 -2.44909 0
M  V30 4943 H 465.232 -2.24344 -2.32098 0
M  V30 4944 H 464.284 -3.77737 -0.449288 0
M  V30 4945 H 465.596 -4.92238 -0.806424 0
M  V30 4946 H 464.75 -5.18684 -3.14724 0
M  V30 4947 H 463.489 -3.95682 -2.85109 0
M  V30 4948 H 462.494 -5.39657 -1.05122 0
M  V30 4949 H 463.719 -6.65103 -1.37169 0
M  V30 4950 H 461.665 -5.62864 -3.36927 0
M  V30 4951 H 461.582 -7.13129 -2.50965 0
M  V30 4952 H 462.85 -6.87637 -3.67118 0
M  V30 4953 N 467.08 -0.0183926 -1.57589 0
M  V30 4954 C 468.496 0.337897 -1.55982 0
M  V30 4955 C 468.696 1.73604 -1.02294 0
M  V30 4956 O 467.752 2.43589 -0.664895 0
M  V30 4957 C 469.065 0.196305 -3.00059 0
M  V30 4958 C 470.613 0.269875 -3.11834 0
M  V30 4959 C 471.088 0.157197 -4.5773 0
M  V30 4960 N 472.579 0.214521 -4.62703 0
M  V30 4961 C 473.314 0.150955 -5.73201 0
M  V30 4962 N 472.81 0.0369212 -6.9279 0
M  V30 4963 N 474.603 0.204162 -5.61729 0
M  V30 4964 H 466.754 -0.93279 -1.90821 0
M  V30 4965 H 469.017 -0.359253 -0.877292 0
M  V30 4966 H 468.723 -0.766383 -3.43248 0
M  V30 4967 H 468.597 0.970908 -3.6449 0
M  V30 4968 H 470.984 1.22302 -2.68563 0
M  V30 4969 H 471.065 -0.534918 -2.50144 0
M  V30 4970 H 470.709 -0.792479 -5.01679 0
M  V30 4971 H 470.639 0.980717 -5.17387 0
M  V30 4972 H 473.13 0.303238 -3.76681 0
M  V30 4973 H 473.443 -0.00518321 -7.728 0
M  V30 4974 H 471.788 0.0022886 -6.95 0
M  V30 4975 H 474.979 0.291575 -4.67191 0
M  V30 4976 H 475.152 0.15116 -6.47824 0
M  V30 4977 N 468.558 1.5553 0.254621 0
M  V30 4978 C 469.505 1.89666 1.31512 0
M  V30 4979 C 470.475 0.750057 1.482 0
M  V30 4980 O 471.66 1.00301 1.62309 0
M  V30 4981 C 468.8 2.19009 2.667 0
M  V30 4982 C 467.913 3.46435 2.58083 0
M  V30 4983 C 467.048 3.65386 3.85573 0
M  V30 4984 C 466.087 4.8644 3.71541 0
M  V30 4985 N 465.224 5.01952 4.90906 0
M  V30 4986 H 470.064 2.80109 1.017 0
M  V30 4987 H 467.601 1.38666 0.490938 0
M  V30 4988 H 469.559 2.34025 3.45381 0
M  V30 4989 H 468.189 1.31779 2.94676 0
M  V30 4990 H 467.241 3.39792 1.71013 0
M  V30 4991 H 468.553 4.35258 2.43622 0
M  V30 4992 H 467.707 3.80319 4.72697 0
M  V30 4993 H 466.446 2.74781 4.02922 0
M  V30 4994 H 465.451 4.71491 2.82801 0
M  V30 4995 H 466.676 5.78497 3.55694 0
M  V30 4996 H 464.622 4.14283 5.08631 0
M  V30 4997 H 464.539 5.84851 4.79046 0
M  V30 4998 H 465.807 5.21289 5.7955 0
M  V30 4999 N 470.036 -0.519951 1.48776 0
M  V30 5000 C 471.447 -1.10177 1.50725 0
M  V30 5001 C 471.798 -1.94153 0.282678 0
M  V30 5002 O 470.923 -2.07645 -0.609298 0
M  V30 5003 C 471.518 -2.00482 2.73116 0
M  V30 5004 C 470.077 -2.53862 2.77905 0
M  V30 5005 C 469.224 -1.31047 2.44381 0
M  V30 5006 H 472.175 -0.30473 1.55747 0
M  V30 5007 H 472.196 -2.8491 2.52203 0
M  V30 5008 H 471.708 -1.39335 3.62225 0
M  V30 5009 H 469.809 -3.18702 1.93029 0
M  V30 5010 H 469.922 -2.9231 3.79594 0
M  V30 5011 H 468.286 -1.62953 1.95751 0
M  V30 5012 H 469.069 -0.71637 3.35743 0
M  V30 5013 N 471.514 -1.37532 -0.769588 0
M  V30 5014 C 472.93 -1.18379 -1.07045 0
M  V30 5015 C 473.13 -0.0214312 -2.01489 0
M  V30 5016 O 472.186 0.637809 -2.44312 0
M  V30 5017 C 473.499 -2.50338 -1.66588 0
M  V30 5018 C 475.047 -2.56879 -1.78835 0
M  V30 5019 C 475.522 -3.88974 -2.41792 0
M  V30 5020 N 477.013 -3.90428 -2.4924 0
M  V30 5021 C 477.748 -4.89388 -2.98809 0
M  V30 5022 N 477.244 -5.98745 -3.48535 0
M  V30 5023 N 479.037 -4.76791 -2.97703 0
M  V30 5024 H 471.188 -2.11921 -0.142541 0
M  V30 5025 H 473.451 -0.939608 -0.125863 0
M  V30 5026 H 473.157 -3.35767 -1.0466 0
M  V30 5027 H 473.031 -2.67583 -2.65856 0
M  V30 5028 H 475.418 -1.71856 -2.39895 0
M  V30 5029 H 475.499 -2.43516 -0.783166 0
M  V30 5030 H 475.143 -4.74412 -1.81371 0
M  V30 5031 H 475.073 -3.99641 -3.4292 0
M  V30 5032 H 477.564 -3.11433 -2.14052 0
M  V30 5033 H 477.877 -6.70205 -3.84767 0
M  V30 5034 H 476.222 -6.02387 -3.46634 0
M  V30 5035 H 479.413 -3.90478 -2.58157 0
M  V30 5036 H 479.586 -5.54069 -3.36024 0
M  V30 5037 N 472.992 0.995999 -1.22138 0
M  V30 5038 C 474.22 1.77066 -1.07029 0
M  V30 5039 C 474.635 1.8495 0.379357 0
M  V30 5040 O 473.992 1.3174 1.26297 0
M  V30 5041 C 474.043 3.20533 -1.67155 0
M  V30 5042 O 473.764 3.13082 -3.06449 0
M  V30 5043 C 475.265 4.14461 -1.5728 0
M  V30 5044 H 472.485 0.556179 -0.375374 0
M  V30 5045 H 475.029 1.25238 -1.61666 0
M  V30 5046 H 473.184 3.6944 -1.16589 0
M  V30 5047 H 473.598 4.03283 -3.35355 0
M  V30 5048 H 475.072 5.1289 -2.04078 0
M  V30 5049 H 475.549 4.36005 -0.528795 0
M  V30 5050 H 476.155 3.71449 -2.07136 0
M  V30 5051 N 474.47 1.03057 1.19235 0
M  V30 5052 C 475.4 0.633497 2.24742 0
M  V30 5053 C 476.381 -0.358335 1.66283 0
M  V30 5054 O 477.566 -0.240676 1.92703 0
M  V30 5055 C 474.696 -0.0147648 3.47297 0
M  V30 5056 C 473.65 0.899527 4.18441 0
M  V30 5057 C 472.976 0.116281 5.34574 0
M  V30 5058 C 474.276 2.21404 4.73051 0
M  V30 5059 H 475.97 1.5155 2.58211 0
M  V30 5060 H 473.516 0.73014 1.24117 0
M  V30 5061 H 475.469 -0.304202 4.20301 0
M  V30 5062 H 474.193 -0.931577 3.13032 0
M  V30 5063 H 472.852 1.17319 3.47321 0
M  V30 5064 H 472.5 -0.802619 4.96555 0
M  V30 5065 H 472.2 0.725293 5.83107 0
M  V30 5066 H 473.724 -0.166376 6.10373 0
M  V30 5067 H 475.138 1.98601 5.37802 0
M  V30 5068 H 473.535 2.77512 5.32078 0
M  V30 5069 H 474.605 2.86752 3.91026 0
M  V30 5070 N 475.948 -1.35272 0.808662 0
M  V30 5071 C 476.878 -2.32315 0.234981 0
M  V30 5072 C 477.859 -1.57572 -0.64071 0
M  V30 5073 O 479.044 -1.8563 -0.570551 0
M  V30 5074 C 476.174 -3.41801 -0.615601 0
M  V30 5075 C 475.128 -4.27694 0.161767 0
M  V30 5076 C 474.454 -5.28519 -0.810649 0
M  V30 5077 C 475.754 -5.04231 1.36193 0
M  V30 5078 H 477.448 -2.80543 1.04575 0
M  V30 5079 H 474.994 -1.3488 0.504315 0
M  V30 5080 H 476.947 -4.08693 -1.02702 0
M  V30 5081 H 475.671 -2.92186 -1.45928 0
M  V30 5082 H 474.33 -3.62384 0.554382 0
M  V30 5083 H 473.978 -4.75171 -1.64988 0
M  V30 5084 H 473.678 -5.8686 -0.294822 0
M  V30 5085 H 475.202 -5.98283 -1.22023 0
M  V30 5086 H 476.616 -5.64058 1.02528 0
M  V30 5087 H 475.013 -5.72077 1.81239 0
M  V30 5088 H 476.083 -4.34753 2.14751 0
M  V30 5089 N 477.426 -0.562348 -1.47226 0
M  V30 5090 C 478.374 0.195476 -2.31777 0
M  V30 5091 C 479.368 0.90433 -1.43242 0
M  V30 5092 O 480.574 0.825031 -1.59979 0
M  V30 5093 H 476.949 0.0819095 -0.747526 0
M  V30 5094 H 478.92 -0.536753 -2.93533 0
M  V30 5095 C 477.669 1.20902 -3.26003 0
M  V30 5096 H 476.992 0.672997 -3.94095 0
M  V30 5097 H 478.432 1.71006 -3.87986 0
M  V30 5098 C 476.891 2.25955 -2.49891 0
M  V30 5099 O 477.421 3.32969 -2.2471 0
M  V30 5100 N 475.627 2.00019 -2.1081 0
M  V30 5101 H 475.174 1.13006 -2.31489 0
M  V30 5102 H 475.132 2.70523 -1.60201 0
M  V30 5103 N 478.904 1.54736 -0.299062 0
M  V30 5104 C 480.315 1.8569 0.193971 0
M  V30 5105 C 480.666 1.22101 1.53577 0
M  V30 5106 O 479.791 0.51799 2.10109 0
M  V30 5107 C 480.386 3.36895 0.358733 0
M  V30 5108 C 478.945 3.67887 0.795986 0
M  V30 5109 C 478.092 2.77131 -0.096807 0
M  V30 5110 H 481.043 1.49934 -0.520134 0
M  V30 5111 H 481.064 3.61294 1.19361 0
M  V30 5112 H 480.576 3.83148 -0.617998 0
M  V30 5113 H 478.677 3.27151 1.78334 0
M  V30 5114 H 478.79 4.75114 0.616718 0
M  V30 5115 H 477.154 2.51153 0.423581 0
M  V30 5116 H 477.937 3.26204 -1.06986 0
M  V30 5117 N 480.382 0.0267497 1.57577 0
M  V30 5118 C 481.793 -0.512413 1.79531 0
M  V30 5119 C 482.144 -1.72391 0.936791 0
M  V30 5120 O 481.269 -2.15903 0.146543 0
M  V30 5121 C 481.864 -0.936378 3.25603 0
M  V30 5122 C 480.423 -1.42067 3.4856 0
M  V30 5123 C 479.57 -0.384278 2.74624 0
M  V30 5124 H 482.521 0.252797 1.56674 0
M  V30 5125 H 482.542 -1.80088 3.35184 0
M  V30 5126 H 482.054 -0.0544332 3.88062 0
M  V30 5127 H 480.155 -2.32262 2.9135 0
M  V30 5128 H 480.268 -1.42968 4.57271 0
M  V30 5129 H 478.632 -0.851855 2.40032 0
M  V30 5130 H 479.415 0.489159 3.39797 0
M  V30 5131 N 481.861 -1.55662 -0.24637 0
M  V30 5132 C 483.272 -1.67953 -0.81539 0
M  V30 5133 C 483.623 -0.624302 -1.86002 0
M  V30 5134 O 482.748 0.229328 -2.15181 0
M  V30 5135 C 483.343 -3.04484 -1.48576 0
M  V30 5136 C 481.902 -3.18713 -2.00248 0
M  V30 5137 C 481.049 -2.6383 -0.853766 0
M  V30 5138 H 484 -1.58685 -0.0221692 0
M  V30 5139 H 484.021 -2.98959 -2.3538 0
M  V30 5140 H 483.533 -3.81264 -0.725222 0
M  V30 5141 H 481.634 -2.46757 -2.79181 0
M  V30 5142 H 481.747 -4.25628 -2.1995 0
M  V30 5143 H 480.111 -2.21667 -1.25442 0
M  V30 5144 H 480.894 -3.43135 -0.106302 0
M  V30 5145 N 483.339 0.512053 -1.4905 0
M  V30 5146 C 484.302 1.59704 -1.64399 0
M  V30 5147 C 485.302 1.52285 -0.516317 0
M  V30 5148 O 486.492 1.55635 -0.782527 0
M  V30 5149 C 483.624 2.9935 -1.63102 0
M  V30 5150 H 484.817 1.47428 -2.61161 0
M  V30 5151 H 482.37 0.735469 -1.37915 0
M  V30 5152 H 483.105 3.17116 -0.678836 0
M  V30 5153 H 482.89 3.06144 -2.44986 0
M  V30 5154 H 484.38 3.782 -1.77072 0
M  V30 5155 N 484.817 1.37938 0.762283 0
M  V30 5156 C 486.042 1.37059 1.55659 0
M  V30 5157 C 486.467 -0.0396123 1.88058 0
M  V30 5158 O 485.825 -1.01929 1.49934 0
M  V30 5159 C 485.873 2.22494 2.83776 0
M  V30 5160 O 484.977 1.63607 3.78559 0
M  V30 5161 H 484.318 0.467892 0.47114 0
M  V30 5162 H 486.848 1.81587 0.942725 0
M  V30 5163 H 486.858 2.36045 3.32786 0
M  V30 5164 H 485.533 3.24993 2.59524 0
M  V30 5165 H 484.11 1.5915 3.37233 0
M  V30 5166 N 486.295 -0.989507 1.22664 0
M  V30 5167 C 487.706 -1.54406 1.04955 0
M  V30 5168 C 488.057 -1.92366 -0.385951 0
M  V30 5169 O 487.182 -1.75111 -1.27142 0
M  V30 5170 C 487.777 -2.80578 1.89899 0
M  V30 5171 C 486.336 -3.32464 1.76478 0
M  V30 5172 C 485.483 -2.05524 1.86159 0
M  V30 5173 H 488.434 -0.810211 1.3646 0
M  V30 5174 H 488.455 -3.53075 1.4184 0
M  V30 5175 H 487.967 -2.52918 2.94371 0
M  V30 5176 H 486.068 -3.65024 0.747528 0
M  V30 5177 H 486.181 -4.02838 2.59342 0
M  V30 5178 H 484.545 -2.19241 1.29636 0
M  V30 5179 H 485.328 -1.80258 2.92168 0
M  V30 5180 N 487.773 -1.03688 -1.18687 0
M  V30 5181 C 489.001 -0.757918 -1.92518 0
M  V30 5182 C 489.416 0.684398 -1.75959 0
M  V30 5183 O 488.773 1.46617 -1.08673 0
M  V30 5184 C 488.824 -1.10985 -3.44042 0
M  V30 5185 O 488.545 -2.49554 -3.60076 0
M  V30 5186 C 490.046 -0.854844 -4.3498 0
M  V30 5187 H 487.266 -0.276699 -0.611293 0
M  V30 5188 H 489.81 -1.38352 -1.50595 0
M  V30 5189 H 487.965 -0.529279 -3.83767 0
M  V30 5190 H 488.379 -2.6291 -4.53849 0
M  V30 5191 H 489.853 -1.15098 -5.39867 0
M  V30 5192 H 490.33 0.210507 -4.38695 0
M  V30 5193 H 490.936 -1.41853 -4.00946 0
M  V30 5194 N 489.251 1.34841 -0.815825 0
M  V30 5195 C 490.479 2.0273 -0.413294 0
M  V30 5196 C 490.894 1.61459 0.978599 0
M  V30 5197 O 490.251 0.816584 1.63212 0
M  V30 5198 C 490.302 3.58058 -0.497676 0
M  V30 5199 O 490.023 3.97832 -1.8347 0
M  V30 5200 C 491.524 4.4321 -0.0891339 0
M  V30 5201 H 488.744 0.649956 -0.166728 0
M  V30 5202 H 491.288 1.72267 -1.10201 0
M  V30 5203 H 489.443 3.87136 0.142886 0
M  V30 5204 H 489.857 4.92501 -1.80396 0
M  V30 5205 H 491.331 5.5164 -0.199274 0
M  V30 5206 H 491.808 4.28432 0.966571 0
M  V30 5207 H 492.414 4.19446 -0.703214 0
M  V30 5208 N 490.729 0.570148 1.46925 0
M  V30 5209 C 491.954 0.0542592 2.07329 0
M  V30 5210 C 492.379 -1.23582 1.41806 0
M  V30 5211 O 491.737 -1.74341 0.497479 0
M  V30 5212 C 491.785 -0.111175 3.60429 0
M  V30 5213 O 490.889 -1.17071 3.95434 0
M  V30 5214 H 490.23 0.0571425 0.661537 0
M  V30 5215 H 492.76 0.789516 1.88753 0
M  V30 5216 H 492.77 -0.321315 4.06733 0
M  V30 5217 H 491.445 0.831012 4.07513 0
M  V30 5218 H 490.022 -0.940029 3.60857 0
M  V30 5219 N 492.207 -1.54576 0.307264 0
M  V30 5220 C 493.435 -2.04675 -0.302597 0
M  V30 5221 C 493.85 -1.18425 -1.47041 0
M  V30 5222 O 493.207 -0.211257 -1.81273 0
M  V30 5223 C 493.258 -3.53575 -0.752801 0
M  V30 5224 O 492.979 -4.36547 0.368536 0
M  V30 5225 C 494.48 -4.19699 -1.42717 0
M  V30 5226 H 491.7 -0.66786 -0.0648374 0
M  V30 5227 H 494.244 -1.99516 0.448716 0
M  V30 5228 H 492.399 -3.59074 -1.45412 0
M  V30 5229 H 492.813 -5.24497 0.0168937 0
M  V30 5230 H 494.287 -5.25388 -1.69327 0
M  V30 5231 H 494.764 -3.69815 -2.36925 0
M  V30 5232 H 495.37 -4.18293 -0.768856 0
M  V30 5233 N 493.685 -0.035106 -1.57561 0
M  V30 5234 C 495.096 0.502885 -1.798 0
M  V30 5235 C 495.447 1.71892 -0.945921 0
M  V30 5236 O 494.572 2.15822 -0.157991 0
M  V30 5237 C 495.167 0.919097 -3.26095 0
M  V30 5238 C 493.726 1.40216 -3.49308 0
M  V30 5239 C 492.873 0.369709 -2.74824 0
M  V30 5240 H 495.824 -0.261102 -1.56537 0
M  V30 5241 H 495.845 1.78308 -3.36135 0
M  V30 5242 H 495.357 0.0338526 -3.88085 0
M  V30 5243 H 493.458 2.30714 -2.92578 0
M  V30 5244 H 493.571 1.40541 -4.58023 0
M  V30 5245 H 491.935 0.839113 -2.40481 0
M  V30 5246 H 492.718 -0.507173 -3.39533 0
M  V30 5247 N 495.163 1.55791 0.238111 0
M  V30 5248 C 496.073 1.94196 1.31625 0
M  V30 5249 C 497.089 0.843545 1.52185 0
M  V30 5250 O 498.265 1.1457 1.65637 0
M  V30 5251 C 495.33 2.2365 2.64918 0
M  V30 5252 C 494.391 3.46971 2.52804 0
M  V30 5253 C 493.624 3.7501 3.79741 0
M  V30 5254 O 493.847 3.04982 4.82019 0
M  V30 5255 O 492.781 4.68525 3.77846 0
M  V30 5256 H 496.607 2.86044 1.02043 0
M  V30 5257 H 494.192 1.42786 0.439603 0
M  V30 5258 H 496.074 2.43863 3.4367 0
M  V30 5259 H 494.749 1.34979 2.94215 0
M  V30 5260 H 493.656 3.32055 1.72309 0
M  V30 5261 H 494.989 4.35971 2.28451 0
M  V30 5262 N 496.642 -0.504142 1.49319 0
M  V30 5263 C 498.053 -1.08572 1.51885 0
M  V30 5264 C 498.404 -1.93842 0.303255 0
M  V30 5265 O 497.529 -2.0828 -0.58724 0
M  V30 5266 C 498.124 -1.97574 2.75227 0
M  V30 5267 C 496.683 -2.509 2.80581 0
M  V30 5268 C 495.83 -1.28447 2.45757 0
M  V30 5269 H 498.781 -0.288194 1.56061 0
M  V30 5270 H 498.802 -2.82219 2.55211 0
M  V30 5271 H 498.314 -1.35486 3.63683 0
M  V30 5272 H 496.415 -3.16636 1.96398 0
M  V30 5273 H 496.528 -2.88268 3.82673 0
M  V30 5274 H 494.892 -1.60868 1.97468 0
M  V30 5275 H 495.675 -0.68072 3.36483 0
M  V30 5276 N 498.12 -1.38341 -0.754957 0
M  V30 5277 C 499.397 -1.24995 -1.50451 0
M  V30 5278 C 499.777 0.149244 -2.10572 0
M  V30 5279 O 499.125 1.15861 -1.96948 0
M  V30 5280 C 499.335 -2.35904 -2.57197 0
M  V30 5281 C 500.683 -2.74262 -3.24138 0
M  V30 5282 O 501.707 -2.35205 -2.67501 0
M  V30 5283 O 500.566 -3.4161 -4.26574 0
M  V30 5284 H 497.66 -0.48872 -0.667144 0
M  V30 5285 H 500.206 -1.50165 -0.790486 0
M  V30 5286 H 498.978 -3.2953 -2.11011 0
M  V30 5287 H 498.601 -2.12291 -3.36182 0
M  V30 5288 N 499.598 0.982988 -1.23187 0
M  V30 5289 C 500.826 1.75921 -1.08901 0
M  V30 5290 C 501.241 1.85341 0.359719 0
M  V30 5291 O 500.598 1.33072 1.24892 0
M  V30 5292 C 500.649 3.18742 -1.70545 0
M  V30 5293 O 500.37 3.09814 -3.09753 0
M  V30 5294 C 501.871 4.1277 -1.61667 0
M  V30 5295 H 499.091 0.552166 -0.381252 0
M  V30 5296 H 501.635 1.23516 -1.62985 0
M  V30 5297 H 499.79 3.68182 -1.20501 0
M  V30 5298 H 500.204 3.99703 -3.39614 0
M  V30 5299 H 501.678 5.10697 -2.09506 0
M  V30 5300 H 502.155 4.3542 -0.575009 0
M  V30 5301 H 502.761 3.69232 -2.11064 0
M  V30 5302 N 501.076 1.04316 1.18135 0
M  V30 5303 C 502.301 0.768047 1.92655 0
M  V30 5304 C 502.726 -0.66904 1.758 0
M  V30 5305 O 502.084 -1.46372 1.06981 0
M  V30 5306 C 502.132 1.14239 3.42026 0
M  V30 5307 O 501.236 0.269333 4.1152 0
M  V30 5308 H 500.577 0.282436 0.600937 0
M  V30 5309 H 503.107 1.39367 1.49793 0
M  V30 5310 H 503.117 1.10538 3.92741 0
M  V30 5311 H 501.792 2.18928 3.53615 0
M  V30 5312 H 500.369 0.366175 3.71098 0
M  V30 5313 N 502.554 -1.34406 0.822964 0
M  V30 5314 C 503.782 -2.02508 0.424039 0
M  V30 5315 C 504.197 -1.61975 -0.970022 0
M  V30 5316 O 503.554 -0.825228 -1.62777 0
M  V30 5317 C 503.605 -3.57789 0.516657 0
M  V30 5318 O 503.326 -3.96853 1.85577 0
M  V30 5319 C 504.827 -4.43157 0.112637 0
M  V30 5320 H 502.047 -0.649063 0.170173 0
M  V30 5321 H 504.591 -1.7168 1.11113 0
M  V30 5322 H 502.746 -3.87207 -0.122353 0
M  V30 5323 H 503.16 -4.91538 1.83005 0
M  V30 5324 H 504.634 -5.51527 0.228526 0
M  V30 5325 H 505.111 -4.28939 -0.943837 0
M  V30 5326 H 505.717 -4.19067 0.725449 0
M  V30 5327 N 504.032 -0.577932 -1.46621 0
M  V30 5328 C 505.278 -0.0617793 -2.02706 0
M  V30 5329 C 505.611 1.29294 -1.44903 0
M  V30 5330 O 504.886 1.8461 -0.61232 0
M  V30 5331 C 505.169 0.00911824 -3.60099 0
M  V30 5332 C 505.022 -1.37416 -4.28295 0
M  V30 5333 C 506.341 0.712159 -4.343 0
M  V30 5334 H 503.46 -0.0239246 -0.736612 0
M  V30 5335 H 506.102 -0.744211 -1.74818 0
M  V30 5336 H 504.252 0.590292 -3.83989 0
M  V30 5337 H 505.924 -2.00013 -4.15683 0
M  V30 5338 H 504.167 -1.94319 -3.87843 0
M  V30 5339 H 504.838 -1.27707 -5.37024 0
M  V30 5340 H 507.314 0.218486 -4.15526 0
M  V30 5341 H 506.19 0.730782 -5.44014 0
M  V30 5342 H 506.451 1.77251 -4.05012 0
M  V30 5343 N 505.51 1.54411 -0.315457 0
M  V30 5344 C 506.921 1.85885 0.174265 0
M  V30 5345 C 507.272 1.23723 1.52273 0
M  V30 5346 O 506.397 0.540246 2.09548 0
M  V30 5347 C 506.992 3.37257 0.322981 0
M  V30 5348 C 505.551 3.68711 0.756922 0
M  V30 5349 C 504.698 2.77013 -0.126195 0
M  V30 5350 H 507.649 1.49374 -0.536007 0
M  V30 5351 H 507.67 3.62539 1.15522 0
M  V30 5352 H 507.182 3.82471 -0.658602 0
M  V30 5353 H 505.283 3.29024 1.74854 0
M  V30 5354 H 505.396 4.75741 0.566291 0
M  V30 5355 H 503.76 2.51588 0.39692 0
M  V30 5356 H 504.543 3.25051 -1.1044 0
M  V30 5357 N 506.988 0.0434614 1.5754 0
M  V30 5358 C 507.92 -0.962586 2.08007 0
M  V30 5359 C 508.933 -1.27972 1.00634 0
M  V30 5360 O 510.122 -1.24186 1.28219 0
M  V30 5361 C 507.222 -2.28621 2.50171 0
M  V30 5362 C 506.395 -2.15214 3.80791 0
M  V30 5363 C 505.454 -3.30633 4.09351 0
M  V30 5364 O 504.48 -3.0688 4.79388 0
M  V30 5365 N 505.682 -4.54873 3.60654 0
M  V30 5366 H 508.447 -0.531891 2.94942 0
M  V30 5367 H 506.008 -0.142965 1.61268 0
M  V30 5368 H 508 -3.04689 2.66359 0
M  V30 5369 H 506.57 -2.63283 1.68525 0
M  V30 5370 H 505.79 -1.23785 3.74261 0
M  V30 5371 H 507.078 -2.03475 4.66343 0
M  V30 5372 H 506.476 -4.77063 3.04019 0
M  V30 5373 H 505.033 -5.2806 3.82094 0
M  V30 5374 N 508.466 -1.55915 -0.229846 0
M  V30 5375 C 509.743 -1.6932 -0.979295 0
M  V30 5376 C 510.123 -0.588321 -2.02736 0
M  V30 5377 O 509.471 0.40586 -2.24867 0
M  V30 5378 C 509.681 -3.10305 -1.59724 0
M  V30 5379 C 511.029 -3.6945 -2.09264 0
M  V30 5380 O 512.053 -3.13214 -1.69633 0
M  V30 5381 O 510.912 -4.68072 -2.82082 0
M  V30 5382 H 508.006 -0.689314 -0.456919 0
M  V30 5383 H 510.552 -1.68238 -0.222283 0
M  V30 5384 H 509.324 -3.82177 -0.840039 0
M  V30 5385 H 508.947 -3.1547 -2.42001 0
M  V30 5386 N 509.944 0.496216 -1.49584 0
M  V30 5387 C 510.907 1.57952 -1.66084 0
M  V30 5388 C 511.907 1.51729 -0.53244 0
M  V30 5389 O 513.097 1.54796 -0.79899 0
M  V30 5390 C 510.229 2.97604 -1.66268 0
M  V30 5391 H 511.422 1.44649 -2.6271 0
M  V30 5392 H 508.975 0.7208 -1.38687 0
M  V30 5393 H 509.71 3.16378 -0.712432 0
M  V30 5394 H 509.495 3.03528 -2.4822 0
M  V30 5395 H 510.985 3.76301 -1.81073 0
M  V30 5396 N 511.423 1.38739 0.74761 0
M  V30 5397 C 512.386 1.36241 1.84312 0
M  V30 5398 C 513.386 0.261811 1.58654 0
M  V30 5399 O 514.576 0.519031 1.66288 0
M  V30 5400 C 511.708 1.12253 3.21888 0
M  V30 5401 H 512.901 2.33712 1.87933 0
M  V30 5402 H 510.454 1.2412 0.949946 0
M  V30 5403 H 511.189 0.154133 3.23934 0
M  V30 5404 H 510.974 1.91943 3.41907 0
M  V30 5405 H 512.464 1.13215 4.0196 0
M  V30 5406 N 512.901 -0.976442 1.23707 0
M  V30 5407 C 514.129 -1.75341 1.09833 0
M  V30 5408 C 514.544 -1.8553 -0.349885 0
M  V30 5409 O 513.901 -1.33732 -1.24185 0
M  V30 5410 C 513.952 -3.17833 1.72233 0
M  V30 5411 O 513.673 -3.08167 3.11391 0
M  V30 5412 C 515.174 -4.11906 1.63853 0
M  V30 5413 H 512.394 -0.550137 0.384175 0
M  V30 5414 H 514.938 -1.2265 1.63638 0
M  V30 5415 H 513.093 -3.67538 1.22452 0
M  V30 5416 H 513.507 -3.97897 3.41729 0
M  V30 5417 H 514.981 -5.09579 2.12211 0
M  V30 5418 H 515.458 -4.35109 0.598092 0
M  V30 5419 H 516.064 -3.68107 2.13019 0
M  V30 5420 N 514.379 -1.04941 -1.1758 0
M  V30 5421 C 515.628 -0.753124 -1.87112 0
M  V30 5422 C 515.941 0.722507 -1.81767 0
M  V30 5423 O 517.147 1.13265 -2.46746 0
M  V30 5424 C 515.603 -1.29695 -3.35719 0
M  V30 5425 C 515.211 -2.80184 -3.49572 0
M  V30 5426 C 516.955 -1.07759 -4.10595 0
M  V30 5427 C 514.862 -3.2788 -4.92187 0
M  V30 5428 H 513.792 -0.278034 -0.700866 0
M  V30 5429 H 516.443 -1.26637 -1.32798 0
M  V30 5430 H 514.825 -0.711522 -3.89555 0
M  V30 5431 H 515.999 -3.44561 -3.05965 0
M  V30 5432 H 514.314 -3.00632 -2.88113 0
M  V30 5433 H 516.911 -1.40899 -5.15802 0
M  V30 5434 H 517.254 -0.0152302 -4.16297 0
M  V30 5435 H 517.787 -1.62809 -3.62957 0
M  V30 5436 H 514.526 -4.33535 -4.91658 0
M  V30 5437 H 514.046 -2.68245 -5.36475 0
M  V30 5438 H 515.725 -3.22412 -5.60945 0
M  V30 5439 N 515.857 1.33968 -0.830081 0
M  V30 5440 C 517.268 1.80439 -0.479455 0
M  V30 5441 C 517.619 1.68756 1.00079 0
M  V30 5442 O 516.744 1.23171 1.77927 0
M  V30 5443 C 517.339 3.27611 -0.863505 0
M  V30 5444 C 515.898 3.72133 -0.565145 0
M  V30 5445 C 515.045 2.55549 -1.07657 0
M  V30 5446 H 517.996 1.21614 -1.0196 0
M  V30 5447 H 518.017 3.8012 -0.170083 0
M  V30 5448 H 517.529 3.36082 -1.94089 0
M  V30 5449 H 515.63 3.69196 0.502536 0
M  V30 5450 H 515.743 4.65963 -1.11422 0
M  V30 5451 H 514.107 2.49788 -0.497807 0
M  V30 5452 H 514.89 2.66786 -2.16055 0
M  V30 5453 N 517.335 0.585699 1.46312 0
M  V30 5454 C 518.56 0.0762461 2.0726 0
M  V30 5455 C 518.985 -1.22071 1.43109 0
M  V30 5456 O 518.343 -1.73804 0.515942 0
M  V30 5457 C 518.391 -0.0729404 3.60526 0
M  V30 5458 O 517.495 -1.1287 3.96654 0
M  V30 5459 H 516.836 0.0641558 0.660893 0
M  V30 5460 H 519.366 0.809492 1.87905 0
M  V30 5461 H 519.376 -0.278158 4.07051 0
M  V30 5462 H 518.051 0.874188 4.06609 0
M  V30 5463 H 516.628 -0.901703 3.61834 0
M  V30 5464 N 518.813 -1.54241 0.323641 0
M  V30 5465 C 520.038 -2.05452 -0.283605 0
M  V30 5466 C 520.463 -1.19823 -1.44997 0
M  V30 5467 O 519.821 -0.207358 -1.8011 0
M  V30 5468 C 519.869 -3.53823 -0.695795 0
M  V30 5469 O 518.973 -3.71134 -1.79815 0
M  V30 5470 H 518.314 -0.662024 -0.0511917 0
M  V30 5471 H 520.844 -1.99079 0.472073 0
M  V30 5472 H 520.854 -3.96094 -0.978434 0
M  V30 5473 H 519.529 -4.15602 0.157287 0
M  V30 5474 H 518.106 -3.40768 -1.51431 0
M  V30 5475 N 520.291 -0.0518155 -1.57515 0
M  V30 5476 C 521.254 0.907547 -2.10467 0
M  V30 5477 C 522.254 1.23947 -1.02439 0
M  V30 5478 O 523.444 1.17604 -1.2851 0
M  V30 5479 C 520.576 2.21723 -2.58944 0
M  V30 5480 H 521.769 0.44851 -2.96527 0
M  V30 5481 H 519.322 0.196598 -1.55059 0
M  V30 5482 H 520.057 2.72206 -1.76279 0
M  V30 5483 H 519.842 1.98935 -3.37886 0
M  V30 5484 H 521.332 2.90441 -3.00056 0
M  V30 5485 N 521.769 1.56035 0.221574 0
M  V30 5486 C 522.702 1.87427 1.30178 0
M  V30 5487 C 523.68 0.731658 1.45209 0
M  V30 5488 O 524.864 0.980016 1.61022 0
M  V30 5489 C 521.991 2.08127 2.67209 0
M  V30 5490 C 521.037 3.30813 2.69194 0
M  V30 5491 S 521.87 4.86738 2.23263 0
M  V30 5492 C 523.026 5.10474 3.62171 0
M  V30 5493 H 523.259 2.78756 1.03355 0
M  V30 5494 H 520.792 1.48469 0.423813 0
M  V30 5495 H 522.75 2.20736 3.46101 0
M  V30 5496 H 521.411 1.17595 2.91256 0
M  V30 5497 H 520.604 3.42341 3.6989 0
M  V30 5498 H 520.206 3.1706 1.98366 0
M  V30 5499 H 522.498 4.9937 4.5786 0
M  V30 5500 H 523.441 6.12359 3.55558 0
M  V30 5501 H 523.849 4.38208 3.55857 0
M  V30 5502 N 523.247 -0.488276 1.49845 0
M  V30 5503 C 524.179 -1.60539 1.63584 0
M  V30 5504 C 525.192 -1.5434 0.517972 0
M  V30 5505 O 526.381 -1.60041 0.790516 0
M  V30 5506 C 523.481 -2.99374 1.58835 0
M  V30 5507 C 522.654 -3.30624 2.86368 0
M  V30 5508 C 521.713 -4.4893 2.74496 0
M  V30 5509 O 520.739 -4.50085 3.48443 0
M  V30 5510 N 521.941 -5.49591 1.86894 0
M  V30 5511 H 524.706 -1.49176 2.59936 0
M  V30 5512 H 522.267 -0.67639 1.47094 0
M  V30 5513 H 524.259 -3.76459 1.48529 0
M  V30 5514 H 522.829 -3.04595 0.702892 0
M  V30 5515 H 522.049 -2.42314 3.1093 0
M  V30 5516 H 523.337 -3.48305 3.70892 0
M  V30 5517 H 522.735 -5.51467 1.26097 0
M  V30 5518 H 521.292 -6.25728 1.82503 0
M  V30 5519 N 524.725 -1.39134 -0.740242 0
M  V30 5520 C 525.688 -1.37217 -1.83587 0
M  V30 5521 C 526.688 -0.270221 -1.58513 0
M  V30 5522 O 527.878 -0.527843 -1.6601 0
M  V30 5523 C 525.01 -1.13959 -3.21288 0
M  V30 5524 H 526.203 -2.34705 -1.86691 0
M  V30 5525 H 523.756 -1.24622 -0.94335 0
M  V30 5526 H 524.491 -0.17131 -3.23847 0
M  V30 5527 H 524.276 -1.93754 -3.40884 0
M  V30 5528 H 525.766 -1.15346 -4.01354 0
M  V30 5529 N 526.204 0.969867 -1.24223 0
M  V30 5530 C 527.615 1.52717 -1.07399 0
M  V30 5531 C 527.966 1.92956 0.355298 0
M  V30 5532 O 527.091 1.77112 1.2434 0
M  V30 5533 C 527.686 2.77521 -1.94339 0
M  V30 5534 C 526.245 3.29615 -1.81744 0
M  V30 5535 C 525.392 2.02537 -1.89405 0
M  V30 5536 H 528.343 0.788399 -1.37732 0
M  V30 5537 H 528.364 3.50773 -1.47439 0
M  V30 5538 H 527.876 2.48203 -2.98357 0
M  V30 5539 H 525.977 3.63789 -0.805505 0
M  V30 5540 H 526.09 3.98661 -2.65718 0
M  V30 5541 H 524.454 2.17151 -1.33108 0
M  V30 5542 H 525.237 1.75587 -2.94999 0
M  V30 5543 N 527.682 1.05563 1.17022 0
M  V30 5544 C 528.91 0.78845 1.91288 0
M  V30 5545 C 529.325 -0.656318 1.77025 0
M  V30 5546 O 528.682 -1.44869 1.10992 0
M  V30 5547 C 528.733 1.16444 3.42232 0
M  V30 5548 O 528.454 2.5525 3.5606 0
M  V30 5549 C 529.955 0.923937 4.33565 0
M  V30 5550 H 527.175 0.286389 0.606813 0
M  V30 5551 H 529.719 1.4073 1.48375 0
M  V30 5552 H 527.874 0.590266 3.82877 0
M  V30 5553 H 528.288 2.70097 4.49609 0
M  V30 5554 H 529.762 1.23672 5.37968 0
M  V30 5555 H 530.239 -0.140688 4.38975 0
M  V30 5556 H 530.845 1.48214 3.98639 0
M  V30 5557 N 529.16 -1.33526 0.837174 0
M  V30 5558 C 530.406 -1.9813 0.432704 0
M  V30 5559 C 530.739 -1.66168 -1.00508 0
M  V30 5560 O 530.014 -0.94069 -1.70239 0
M  V30 5561 C 530.297 -3.54151 0.651834 0
M  V30 5562 C 530.15 -3.95806 2.13676 0
M  V30 5563 C 531.469 -4.39993 0.0968937 0
M  V30 5564 H 528.588 -0.719713 0.15869 0
M  V30 5565 H 531.23 -1.58193 1.05237 0
M  V30 5566 H 529.38 -3.88301 0.124369 0
M  V30 5567 H 531.052 -3.71921 2.72896 0
M  V30 5568 H 529.295 -3.45599 2.62191 0
M  V30 5569 H 529.966 -5.0447 2.24084 0
M  V30 5570 H 532.442 -4.12479 0.547733 0
M  V30 5571 H 531.318 -5.48186 0.279917 0
M  V30 5572 H 531.579 -4.3066 -0.9992 0
M  V30 5573 N 530.638 -0.59345 -1.46 0
M  V30 5574 C 531.878 -0.0859747 -2.04219 0
M  V30 5575 C 532.242 1.25432 -1.45364 0
M  V30 5576 O 533.443 1.85168 -1.9485 0
M  V30 5577 C 531.714 -0.0324314 -3.57385 0
M  V30 5578 S 533.273 0.415908 -4.36824 0
M  V30 5579 H 530.091 -0.0426872 -0.709717 0
M  V30 5580 H 532.693 -0.788369 -1.78899 0
M  V30 5581 H 531.397 -1.01166 -3.97735 0
M  V30 5582 H 530.928 0.6924 -3.87259 0
M  V30 5583 H 532.943 1.66844 -4.67309 0
M  V30 5584 N 532.116 1.54067 -0.331816 0
M  V30 5585 C 533.365 1.99895 0.269209 0
M  V30 5586 C 533.678 1.22371 1.52593 0
M  V30 5587 O 534.884 1.58618 2.20347 0
M  V30 5588 C 533.34 3.55972 0.530244 0
M  V30 5589 C 532.948 4.4234 -0.709901 0
M  V30 5590 C 534.692 4.10247 1.09077 0
M  V30 5591 C 532.599 5.89905 -0.420312 0
M  V30 5592 H 531.529 0.746741 0.104371 0
M  V30 5593 H 534.18 1.78014 -0.445324 0
M  V30 5594 H 532.562 3.73873 1.30518 0
M  V30 5595 H 533.736 4.36215 -1.48504 0
M  V30 5596 H 532.051 3.98997 -1.19123 0
M  V30 5597 H 534.648 5.18095 1.32219 0
M  V30 5598 H 534.991 3.62739 2.0427 0
M  V30 5599 H 535.524 3.96011 0.376824 0
M  V30 5600 H 532.263 6.41623 -1.34164 0
M  V30 5601 H 531.783 5.98962 0.316962 0
M  V30 5602 H 533.462 6.46991 -0.0331956 0
M  V30 5603 N 533.594 0.0601682 1.57485 0
M  V30 5604 C 534.824 -0.620037 1.97076 0
M  V30 5605 C 535.232 -1.64381 0.936784 0
M  V30 5606 O 534.575 -1.83497 -0.0863377 0
M  V30 5607 C 534.637 -1.35617 3.32939 0
M  V30 5608 C 534.301 -0.487208 4.54396 0
M  V30 5609 C 535.298 0.250428 5.19297 0
M  V30 5610 C 532.983 -0.415494 5.00579 0
M  V30 5611 C 534.977 1.04812 6.28723 0
M  V30 5612 C 532.664 0.385879 6.0988 0
M  V30 5613 C 533.662 1.11637 6.73815 0
M  V30 5614 O 533.35 1.90454 7.81014 0
M  V30 5615 H 533.082 -0.173664 0.653312 0
M  V30 5616 H 535.636 0.1256 2.05016 0
M  V30 5617 H 533.866 -2.14763 3.2158 0
M  V30 5618 H 535.555 -1.92749 3.57215 0
M  V30 5619 H 536.321 0.204546 4.84568 0
M  V30 5620 H 532.2 -0.973679 4.506 0
M  V30 5621 H 535.744 1.6188 6.78558 0
M  V30 5622 H 531.641 0.433366 6.44044 0
M  V30 5623 H 532.409 1.82762 7.97835 0
M  V30 5624 N 535.072 -1.5615 -0.213296 0
M  V30 5625 C 536.002 -1.96109 -1.26742 0
M  V30 5626 C 536.983 -0.830448 -1.48451 0
M  V30 5627 O 538.168 -1.09339 -1.60495 0
M  V30 5628 C 535.298 -2.28492 -2.61551 0
M  V30 5629 C 534.252 -3.44124 -2.54485 0
M  V30 5630 C 533.578 -3.62134 -3.93399 0
M  V30 5631 C 534.878 -4.78855 -2.08556 0
M  V30 5632 H 536.572 -2.84412 -0.935434 0
M  V30 5633 H 534.118 -1.36836 -0.44854 0
M  V30 5634 H 536.071 -2.55039 -3.3546 0
M  V30 5635 H 534.795 -1.37052 -2.96453 0
M  V30 5636 H 533.454 -3.17639 -1.83033 0
M  V30 5637 H 533.102 -2.68055 -4.25623 0
M  V30 5638 H 532.802 -4.39913 -3.89551 0
M  V30 5639 H 534.326 -3.91038 -4.68958 0
M  V30 5640 H 535.74 -5.04552 -2.72213 0
M  V30 5641 H 534.137 -5.59975 -2.1575 0
M  V30 5642 H 535.207 -4.73657 -1.03811 0
M  V30 5643 N 536.55 0.480323 -1.50102 0
M  V30 5644 C 537.498 1.60024 -1.68805 0
M  V30 5645 C 538.492 1.60089 -0.553888 0
M  V30 5646 O 539.698 1.64349 -0.734127 0
M  V30 5647 H 536.073 0.530841 -0.532646 0
M  V30 5648 H 538.044 1.41408 -2.62767 0
M  V30 5649 C 536.793 2.98029 -1.79092 0
M  V30 5650 H 536.116 2.98694 -2.65748 0
M  V30 5651 H 537.556 3.75871 -1.96206 0
M  V30 5652 C 536.015 3.32538 -0.540388 0
M  V30 5653 O 536.545 4.00386 0.324637 0
M  V30 5654 N 534.751 2.87873 -0.397154 0
M  V30 5655 H 534.298 2.32834 -1.1021 0
M  V30 5656 H 534.256 3.11328 0.438425 0
M  V30 5657 N 538.028 1.39524 0.732853 0
M  V30 5658 C 538.975 1.38416 1.84688 0
M  V30 5659 C 539.945 0.243539 1.64305 0
M  V30 5660 O 541.13 0.438979 1.85681 0
M  V30 5661 C 538.27 1.23555 3.22224 0
M  V30 5662 C 537.383 2.47179 3.54298 0
M  V30 5663 C 536.518 2.2489 4.81246 0
M  V30 5664 C 535.557 3.44178 5.0617 0
M  V30 5665 N 534.694 3.21192 6.24323 0
M  V30 5666 H 539.534 2.33645 1.84971 0
M  V30 5667 H 537.071 1.16059 0.903804 0
M  V30 5668 H 539.029 1.12949 4.0162 0
M  V30 5669 H 537.659 0.31954 3.21215 0
M  V30 5670 H 536.711 2.68379 2.69587 0
M  V30 5671 H 538.023 3.36022 3.68633 0
M  V30 5672 H 537.177 2.11538 5.68627 0
M  V30 5673 H 535.916 1.33443 4.69089 0
M  V30 5674 H 534.921 3.58025 4.17251 0
M  V30 5675 H 536.146 4.36528 5.20212 0
M  V30 5676 H 534.092 2.32413 6.1345 0
M  V30 5677 H 534.009 4.03594 6.39256 0
M  V30 5678 H 535.277 3.1154 7.14537 0
M  V30 5679 N 539.506 -0.963266 1.24736 0
M  V30 5680 C 540.454 -2.07985 1.04139 0
M  V30 5681 C 541.448 -1.69381 -0.0250556 0
M  V30 5682 O 542.654 -1.79531 0.129863 0
M  V30 5683 H 539.029 -0.680627 0.319768 0
M  V30 5684 H 541 -2.22517 1.98818 0
M  V30 5685 C 539.749 -3.4123 0.667615 0
M  V30 5686 H 539.072 -3.71397 1.48 0
M  V30 5687 H 540.512 -4.20244 0.563136 0
M  V30 5688 C 538.971 -3.3104 -0.625647 0
M  V30 5689 O 539.501 -3.65334 -1.67016 0
M  V30 5690 N 537.707 -2.84168 -0.608033 0
M  V30 5691 H 537.254 -2.56458 0.242323 0
M  V30 5692 H 537.212 -2.77732 -1.47352 0
M  V30 5693 N 540.985 -1.06182 -1.16461 0
M  V30 5694 C 542.233 -0.776326 -1.86595 0
M  V30 5695 C 542.554 0.69921 -1.82033 0
M  V30 5696 O 541.824 1.50579 -1.2531 0
M  V30 5697 H 540.404 -0.284184 -0.690832 0
M  V30 5698 H 543.066 -1.34308 -1.41235 0
M  V30 5699 H 542.162 -1.10022 -2.92064 0
M  V30 5700 N 542.463 1.3308 -0.844243 0
M  V30 5701 C 543.688 2.02341 -0.455282 0
M  V30 5702 C 544.113 1.6308 0.93737 0
M  V30 5703 O 543.471 0.826118 1.61385 0
M  V30 5704 C 543.519 3.55743 -0.58988 0
M  V30 5705 O 542.623 4.1063 0.38166 0
M  V30 5706 H 541.964 0.637898 -0.184343 0
M  V30 5707 H 544.494 1.6986 -1.14056 0
M  V30 5708 H 544.504 4.05243 -0.473522 0
M  V30 5709 H 543.179 3.83662 -1.60549 0
M  V30 5710 H 541.756 3.72236 0.22241 0
M  V30 5711 N 543.941 0.601185 1.45683 0
M  V30 5712 C 545.169 0.100054 2.06658 0
M  V30 5713 C 545.584 -1.21285 1.44691 0
M  V30 5714 O 544.941 -1.73735 0.558772 0
M  V30 5715 C 544.992 -0.0528579 3.61461 0
M  V30 5716 O 544.713 1.20809 4.21114 0
M  V30 5717 C 546.214 -0.586193 4.39407 0
M  V30 5718 H 543.434 0.065905 0.667756 0
M  V30 5719 H 545.978 0.827101 1.87028 0
M  V30 5720 H 544.133 -0.730203 3.80456 0
M  V30 5721 H 544.547 1.03368 5.14213 0
M  V30 5722 H 546.021 -0.642297 5.4825 0
M  V30 5723 H 546.498 -1.60713 4.0874 0
M  V30 5724 H 547.104 0.0568935 4.25262 0
M  V30 5725 N 545.419 -1.53889 0.339982 0
M  V30 5726 C 546.667 -2.00458 -0.257112 0
M  V30 5727 C 546.988 -1.22953 -1.51353 0
M  V30 5728 O 546.258 -0.335734 -1.93002 0
M  V30 5729 H 544.838 -0.740544 -0.0979965 0
M  V30 5730 H 547.5 -1.89386 0.460317 0
M  V30 5731 H 546.596 -3.08035 -0.502057 0
M  V30 5732 N 546.897 -0.0685191 -1.57451 0
M  V30 5733 C 548.308 0.464634 -1.80826 0
M  V30 5734 C 548.659 1.69847 -0.982169 0
M  V30 5735 O 547.784 2.15439 -0.203734 0
M  V30 5736 C 548.379 0.849721 -3.27971 0
M  V30 5737 C 546.938 1.32776 -3.52204 0
M  V30 5738 C 546.085 0.311332 -2.75547 0
M  V30 5739 H 549.036 -0.294248 -1.55948 0
M  V30 5740 H 549.057 1.71138 -3.39841 0
M  V30 5741 H 548.569 -0.0484736 -3.8807 0
M  V30 5742 H 546.67 2.24456 -2.97406 0
M  V30 5743 H 546.783 1.30794 -4.60901 0
M  V30 5744 H 545.147 0.787915 -2.42206 0
M  V30 5745 H 545.93 -0.579078 -3.38381 0
M  V30 5746 N 548.375 1.56261 0.205012 0
M  V30 5747 C 549.325 1.90155 1.25798 0
M  V30 5748 C 550.309 0.766227 1.41484 0
M  V30 5749 O 551.501 1.02893 1.44021 0
M  V30 5750 C 548.63 2.23603 2.60493 0
M  V30 5751 C 547.716 3.43568 2.48639 0
M  V30 5752 N 548.107 4.61747 2.06455 0
M  V30 5753 C 546.405 3.4751 2.79558 0
M  V30 5754 C 547.106 5.43907 2.06253 0
M  V30 5755 N 546.082 4.84051 2.47377 0
M  V30 5756 H 549.884 2.79031 0.922986 0
M  V30 5757 H 547.398 1.57048 0.413501 0
M  V30 5758 H 549.395 2.46067 3.36537 0
M  V30 5759 H 548.055 1.36049 2.94823 0
M  V30 5760 H 549.066 4.86598 1.77321 0
M  V30 5761 H 545.743 2.70345 3.18151 0
M  V30 5762 H 547.133 6.48542 1.75622 0
M  V30 5763 N 549.853 -0.472356 1.50355 0
M  V30 5764 C 550.783 -1.57859 1.72055 0
M  V30 5765 C 551.764 -1.60283 0.569505 0
M  V30 5766 O 552.949 -1.7657 0.808503 0
M  V30 5767 C 550.079 -2.96191 1.81351 0
M  V30 5768 C 549.033 -3.08633 2.96529 0
M  V30 5769 C 548.359 -4.486 2.90968 0
M  V30 5770 C 549.659 -2.85969 4.37057 0
M  V30 5771 H 551.353 -1.39953 2.64676 0
M  V30 5772 H 548.899 -0.671846 1.27367 0
M  V30 5773 H 550.852 -3.73507 1.95117 0
M  V30 5774 H 549.576 -3.15251 0.853502 0
M  V30 5775 H 548.235 -2.33749 2.82413 0
M  V30 5776 H 547.883 -4.64577 1.92815 0
M  V30 5777 H 547.583 -4.57861 3.68289 0
M  V30 5778 H 549.107 -5.27938 3.0678 0
M  V30 5779 H 550.521 -3.53036 4.51706 0
M  V30 5780 H 548.918 -3.06677 5.15819 0
M  V30 5781 H 549.988 -1.81838 4.49514 0
M  V30 5782 N 551.331 -1.39911 -0.725443 0
M  V30 5783 C 552.608 -1.28158 -1.47766 0
M  V30 5784 C 552.988 0.104545 -2.10841 0
M  V30 5785 O 552.336 1.11657 -1.99361 0
M  V30 5786 C 552.546 -2.41306 -2.52135 0
M  V30 5787 C 553.894 -2.81076 -3.18247 0
M  V30 5788 O 554.918 -2.40827 -2.62452 0
M  V30 5789 O 553.777 -3.50581 -4.19231 0
M  V30 5790 H 550.871 -0.502761 -0.656628 0
M  V30 5791 H 553.417 -1.51808 -0.758456 0
M  V30 5792 H 552.189 -3.33932 -2.03974 0
M  V30 5793 H 551.812 -2.19374 -3.31603 0
M  V30 5794 N 552.809 0.956637 -1.25245 0
M  V30 5795 C 553.756 2.053 -1.05454 0
M  V30 5796 C 554.726 1.66062 0.0356889 0
M  V30 5797 O 555.911 1.90415 -0.121099 0
M  V30 5798 C 553.051 3.38391 -0.677191 0
M  V30 5799 C 552.164 3.90758 -1.84206 0
M  V30 5800 C 551.299 5.12165 -1.40926 0
M  V30 5801 C 550.338 5.56757 -2.54338 0
M  V30 5802 N 549.475 6.69376 -2.11848 0
M  V30 5803 H 554.315 2.21562 -1.99284 0
M  V30 5804 H 551.852 1.08578 -0.992434 0
M  V30 5805 H 553.81 4.1488 -0.43938 0
M  V30 5806 H 552.44 3.22021 0.224127 0
M  V30 5807 H 551.492 3.10808 -2.19323 0
M  V30 5808 H 552.804 4.19802 -2.69383 0
M  V30 5809 H 551.958 5.96065 -1.13098 0
M  V30 5810 H 550.697 4.84832 -0.528175 0
M  V30 5811 H 549.702 4.71423 -2.82913 0
M  V30 5812 H 550.927 5.861 -3.43022 0
M  V30 5813 H 548.873 6.43756 -1.26153 0
M  V30 5814 H 548.79 6.97927 -2.90574 0
M  V30 5815 H 550.058 7.5669 -1.87191 0
M  V30 5816 N 554.287 1.06798 1.15896 0
M  V30 5817 C 555.234 0.683314 2.20453 0
M  V30 5818 C 556.204 -0.32255 1.62938 0
M  V30 5819 O 557.389 -0.210276 1.89638 0
M  V30 5820 C 554.529 0.0813266 3.45004 0
M  V30 5821 C 553.642 1.13799 4.16742 0
M  V30 5822 C 552.777 0.501598 5.28826 0
M  V30 5823 C 551.816 1.54144 5.92373 0
M  V30 5824 N 550.953 0.928038 6.9594 0
M  V30 5825 H 555.793 1.57932 2.52708 0
M  V30 5826 H 553.33 0.789544 1.24115 0
M  V30 5827 H 555.288 -0.285274 4.16224 0
M  V30 5828 H 553.918 -0.77806 3.13283 0
M  V30 5829 H 552.97 1.62223 3.44075 0
M  V30 5830 H 554.282 1.92664 4.60089 0
M  V30 5831 H 553.436 0.0823162 6.06644 0
M  V30 5832 H 552.175 -0.318883 4.86656 0
M  V30 5833 H 551.18 1.97056 5.13273 0
M  V30 5834 H 552.405 2.3641 6.36621 0
M  V30 5835 H 550.351 0.12836 6.55874 0
M  V30 5836 H 550.268 1.65401 7.37685 0
M  V30 5837 H 551.536 0.534071 7.77668 0
M  V30 5838 N 555.766 -1.3263 0.851289 0
M  V30 5839 C 556.713 -2.28952 0.291469 0
M  V30 5840 C 557.683 -1.54897 -0.599676 0
M  V30 5841 O 558.868 -1.83137 -0.535305 0
M  V30 5842 C 556.008 -3.41206 -0.516992 0
M  V30 5843 C 555.121 -4.30148 0.399566 0
M  V30 5844 C 554.256 -5.29527 -0.4212 0
M  V30 5845 C 553.295 -6.10112 0.492969 0
M  V30 5846 N 552.432 -7.01499 -0.290414 0
M  V30 5847 H 557.272 -2.76228 1.11813 0
M  V30 5848 H 554.809 -1.35907 0.562826 0
M  V30 5849 H 556.767 -4.05005 -1.00132 0
M  V30 5850 H 555.397 -2.9509 -1.30851 0
M  V30 5851 H 554.449 -3.66959 1.00227 0
M  V30 5852 H 555.761 -4.8649 1.1013 0
M  V30 5853 H 554.915 -5.98914 -0.968832 0
M  V30 5854 H 553.654 -4.73794 -1.15632 0
M  V30 5855 H 552.659 -5.39632 1.05251 0
M  V30 5856 H 553.884 -6.6793 1.22664 0
M  V30 5857 H 551.83 -6.48199 -1.00868 0
M  V30 5858 H 551.747 -7.55178 0.352354 0
M  V30 5859 H 553.015 -7.75176 -0.819882 0
M  V30 5860 N 557.244 -0.608902 -1.45362 0
M  V30 5861 C 558.49 -0.104762 -2.02529 0
M  V30 5862 C 558.823 1.26191 -1.47613 0
M  V30 5863 O 558.098 1.8327 -0.65134 0
M  V30 5864 C 558.381 -0.0672661 -3.60037 0
M  V30 5865 C 558.234 -1.4647 -4.25284 0
M  V30 5866 C 559.553 0.619877 -4.35713 0
M  V30 5867 H 556.672 -0.0395438 -0.735938 0
M  V30 5868 H 559.314 -0.781126 -1.73201 0
M  V30 5869 H 557.464 0.50871 -3.85155 0
M  V30 5870 H 559.136 -2.08785 -4.11347 0
M  V30 5871 H 557.379 -2.02502 -3.83634 0
M  V30 5872 H 558.05 -1.39069 -5.34195 0
M  V30 5873 H 560.526 0.130297 -4.15896 0
M  V30 5874 H 559.402 0.615224 -5.45441 0
M  V30 5875 H 559.663 1.68621 -4.0868 0
M  V30 5876 N 558.722 1.53707 -0.348139 0
M  V30 5877 C 559.654 2.22725 0.540946 0
M  V30 5878 C 560.667 1.2354 1.06027 0
M  V30 5879 O 561.856 1.49867 0.96964 0
M  V30 5880 C 558.956 2.89756 1.75768 0
M  V30 5881 C 558.129 4.15297 1.37285 0
M  V30 5882 C 557.188 4.65697 2.44976 0
M  V30 5883 O 556.214 5.29798 2.08092 0
M  V30 5884 N 557.416 4.42017 3.763 0
M  V30 5885 H 560.181 2.99658 -0.0501592 0
M  V30 5886 H 557.742 1.60979 -0.17248 0
M  V30 5887 H 559.734 3.20388 2.47252 0
M  V30 5888 H 558.304 2.16382 2.25605 0
M  V30 5889 H 557.524 3.9116 0.488584 0
M  V30 5890 H 558.812 4.96948 1.09179 0
M  V30 5891 H 558.21 3.9076 4.09051 0
M  V30 5892 H 556.767 4.77242 4.4394 0
M  V30 5893 N 560.2 0.0768682 1.57412 0
M  V30 5894 C 561.132 -0.918248 2.10002 0
M  V30 5895 C 562.145 -1.25808 1.03325 0
M  V30 5896 O 563.334 -1.21438 1.30824 0
M  V30 5897 C 560.434 -2.23263 2.54964 0
M  V30 5898 C 559.607 -2.07088 3.8527 0
M  V30 5899 C 558.666 -3.21876 4.16272 0
M  V30 5900 O 557.692 -2.96643 4.8579 0
M  V30 5901 N 558.894 -4.4712 3.70221 0
M  V30 5902 H 561.659 -0.469209 2.96004 0
M  V30 5903 H 559.22 -0.108725 1.61535 0
M  V30 5904 H 561.212 -2.9897 2.72762 0
M  V30 5905 H 559.782 -2.59649 1.74072 0
M  V30 5906 H 559.002 -1.15818 3.76802 0
M  V30 5907 H 560.29 -1.93537 4.70554 0
M  V30 5908 H 559.688 -4.70506 3.1407 0
M  V30 5909 H 558.245 -5.19837 3.93209 0
M  V30 5910 N 561.678 -1.56367 -0.196722 0
M  V30 5911 C 562.608 -1.97442 -1.24655 0
M  V30 5912 C 563.589 -0.846147 -1.47561 0
M  V30 5913 O 564.774 -1.11035 -1.59326 0
M  V30 5914 C 561.904 -2.31253 -2.59112 0
M  V30 5915 C 560.858 -3.46804 -2.50821 0
M  V30 5916 C 560.184 -3.66286 -3.89536 0
M  V30 5917 C 561.484 -4.8104 -2.03465 0
M  V30 5918 H 563.178 -2.85388 -0.905216 0
M  V30 5919 H 560.724 -1.37304 -0.434002 0
M  V30 5920 H 562.677 -2.58583 -3.32736 0
M  V30 5921 H 561.401 -1.40188 -2.94983 0
M  V30 5922 H 560.06 -3.19563 -1.79653 0
M  V30 5923 H 559.708 -2.72555 -4.22756 0
M  V30 5924 H 559.408 -4.4402 -3.84864 0
M  V30 5925 H 560.932 -3.9599 -4.64784 0
M  V30 5926 H 562.346 -5.07411 -2.66846 0
M  V30 5927 H 560.743 -5.62232 -2.09798 0
M  V30 5928 H 561.813 -4.74732 -0.98781 0
M  V30 5929 N 563.156 0.464375 -1.50603 0
M  V30 5930 C 564.567 1.04507 -1.5471 0
M  V30 5931 C 564.918 1.9297 -0.354542 0
M  V30 5932 O 564.043 2.09763 0.531812 0
M  V30 5933 C 564.638 1.90207 -2.80369 0
M  V30 5934 C 563.197 2.43373 -2.87135 0
M  V30 5935 C 562.344 1.21886 -2.49076 0
M  V30 5936 H 565.295 0.246716 -1.56771 0
M  V30 5937 H 565.316 2.75353 -2.62604 0
M  V30 5938 H 564.828 1.25796 -3.67147 0
M  V30 5939 H 562.929 3.11318 -2.04724 0
M  V30 5940 H 563.042 2.7802 -3.90181 0
M  V30 5941 H 561.406 1.55575 -2.01664 0
M  V30 5942 H 562.189 0.591268 -3.3817 0
M  V30 5943 N 564.634 1.40294 0.718013 0
M  V30 5944 C 565.911 1.2894 1.47084 0
M  V30 5945 C 566.291 -0.0933625 2.10893 0
M  V30 5946 O 565.639 -1.10598 1.99951 0
M  V30 5947 C 565.849 2.4264 2.50852 0
M  V30 5948 C 567.197 2.8276 3.16752 0
M  V30 5949 O 568.221 2.42215 2.61171 0
M  V30 5950 O 567.08 3.528 4.17366 0
M  V30 5951 H 564.174 0.506236 0.653952 0
M  V30 5952 H 566.72 1.52208 0.750394 0
M  V30 5953 H 565.492 3.35009 2.022 0
M  V30 5954 H 565.115 2.21129 3.30435 0
M  V30 5955 N 566.112 -0.949982 1.2575 0
M  V30 5956 C 567.062 -2.03297 1.03221 0
M  V30 5957 C 568.046 -1.60867 -0.0324751 0
M  V30 5958 O 569.238 -1.76047 0.183423 0
M  V30 5959 C 566.367 -3.36938 0.657841 0
M  V30 5960 C 565.453 -3.85878 1.75952 0
M  V30 5961 N 565.844 -4.0756 2.99547 0
M  V30 5962 C 564.142 -4.14709 1.64111 0
M  V30 5963 C 564.843 -4.47961 3.71087 0
M  V30 5964 N 563.819 -4.5416 2.98731 0
M  V30 5965 H 567.621 -2.1806 1.97045 0
M  V30 5966 H 565.135 -1.13516 1.16138 0
M  V30 5967 H 567.132 -4.14155 0.477614 0
M  V30 5968 H 565.792 -3.2355 -0.273025 0
M  V30 5969 H 566.803 -3.94501 3.35544 0
M  V30 5970 H 563.48 -4.10158 0.779527 0
M  V30 5971 H 564.87 -4.73002 4.77199 0
M  V30 5972 N 567.59 -1.07411 -1.15328 0
M  V30 5973 C 568.837 -0.797649 -1.86128 0
M  V30 5974 C 569.165 0.676298 -1.82364 0
M  V30 5975 O 568.42 1.51223 -1.24218 0
M  V30 5976 C 568.719 -1.25191 -3.34757 0
M  V30 5977 C 568.385 -2.73191 -3.58716 0
M  V30 5978 C 567.047 -3.13616 -3.64964 0
M  V30 5979 C 569.399 -3.68718 -3.6837 0
M  V30 5980 C 566.727 -4.48383 -3.78377 0
M  V30 5981 C 569.079 -5.03248 -3.83306 0
M  V30 5982 C 567.743 -5.43293 -3.878 0
M  V30 5983 H 567.013 -0.29188 -0.681092 0
M  V30 5984 H 569.66 -1.34524 -1.36292 0
M  V30 5985 H 567.965 -0.623712 -3.86804 0
M  V30 5986 H 569.662 -1.01489 -3.87945 0
M  V30 5987 H 566.252 -2.40898 -3.54494 0
M  V30 5988 H 570.436 -3.38614 -3.62842 0
M  V30 5989 H 565.692 -4.78877 -3.80114 0
M  V30 5990 H 569.866 -5.77142 -3.89718 0
M  V30 5991 H 567.493 -6.47721 -3.97946 0
M  V30 5992 N 569.068 1.32177 -0.85831 0
M  V30 5993 C 570.316 1.96735 -0.462568 0
M  V30 5994 C 570.637 1.6824 0.985911 0
M  V30 5995 O 569.907 0.991564 1.68952 0
M  V30 5996 H 568.487 0.727849 -0.168064 0
M  V30 5997 H 571.149 1.61195 -1.09554 0
M  V30 5998 H 570.245 3.06068 -0.610647 0
M  V30 5999 N 570.547 0.616602 1.45037 0
M  V30 6000 C 571.958 0.199359 1.85633 0
M  V30 6001 C 572.309 -1.24588 1.51566 0
M  V30 6002 O 571.434 -1.94594 0.94668 0
M  V30 6003 C 572.029 0.355033 3.36935 0
M  V30 6004 C 570.588 -0.00758748 3.76399 0
M  V30 6005 C 569.735 0.675256 2.68953 0
M  V30 6006 H 572.686 0.822708 1.3571 0
M  V30 6007 H 572.707 -0.410201 3.78282 0
M  V30 6008 H 572.219 1.40699 3.61698 0
M  V30 6009 H 570.32 -1.05837 3.57252 0
M  V30 6010 H 570.433 0.392346 4.77491 0
M  V30 6011 H 568.797 0.111992 2.54454 0
M  V30 6012 H 569.58 1.72952 2.96551 0
M  V30 6013 N 572.025 -1.5352 0.356285 0
M  V30 6014 C 572.988 -2.24071 -0.482182 0
M  V30 6015 C 573.988 -1.24531 -1.01729 0
M  V30 6016 O 575.178 -1.48876 -0.904513 0
M  V30 6017 C 572.31 -2.97025 -1.67299 0
M  V30 6018 H 573.503 -2.99596 0.135031 0
M  V30 6019 H 571.056 -1.55928 0.107825 0
M  V30 6020 H 571.791 -2.25719 -2.32855 0
M  V30 6021 H 571.576 -3.7005 -1.29636 0
M  V30 6022 H 573.066 -3.50683 -2.26741 0
M  V30 6023 N 573.503 -0.0852151 -1.57369 0
M  V30 6024 C 574.919 0.271436 -1.57275 0
M  V30 6025 C 575.119 1.69109 -1.09565 0
M  V30 6026 O 574.175 2.40549 -0.767611 0
M  V30 6027 C 575.488 0.0688638 -3.00621 0
M  V30 6028 C 577.036 0.137373 -3.12698 0
M  V30 6029 C 577.511 -0.0370832 -4.57985 0
M  V30 6030 N 579.002 0.0180794 -4.63196 0
M  V30 6031 C 579.737 -0.0922953 -5.73326 0
M  V30 6032 N 579.233 -0.256948 -6.92323 0
M  V30 6033 N 581.026 -0.0342702 -5.6209 0
M  V30 6034 H 573.177 -1.01288 -1.86693 0
M  V30 6035 H 575.44 -0.396138 -0.861266 0
M  V30 6036 H 575.146 -0.911277 -3.39689 0
M  V30 6037 H 575.02 0.815442 -3.6828 0
M  V30 6038 H 577.407 1.10801 -2.73509 0
M  V30 6039 H 577.488 -0.640532 -2.47651 0
M  V30 6040 H 577.132 -1.00455 -4.97867 0
M  V30 6041 H 577.062 0.760392 -5.21081 0
M  V30 6042 H 579.553 0.143202 -3.77629 0
M  V30 6043 H 579.866 -0.332949 -7.72082 0
M  V30 6044 H 578.211 -0.292487 -6.94384 0
M  V30 6045 H 581.402 0.0931605 -4.68007 0
M  V30 6046 H 581.575 -0.12374 -6.47882 0
M  V30 6047 N 574.981 1.5647 0.188427 0
M  V30 6048 C 575.944 1.9421 1.21718 0
M  V30 6049 C 576.944 0.823901 1.38089 0
M  V30 6050 O 578.134 1.09122 1.35787 0
M  V30 6051 C 575.266 2.22197 2.58537 0
M  V30 6052 H 576.459 2.86252 0.894418 0
M  V30 6053 H 574.012 1.50263 0.430211 0
M  V30 6054 H 574.747 1.32814 2.95856 0
M  V30 6055 H 574.532 3.03688 2.48025 0
M  V30 6056 H 576.022 2.52376 3.3271 0
M  V30 6057 N 576.459 -0.456382 1.50847 0
M  V30 6058 C 577.684 -1.2349 1.66628 0
M  V30 6059 C 578.109 -1.84715 0.355254 0
M  V30 6060 O 577.467 -1.67961 -0.682559 0
M  V30 6061 C 577.515 -2.30865 2.77009 0
M  V30 6062 O 576.619 -3.35882 2.39285 0
M  V30 6063 H 575.96 -0.36266 0.556214 0
M  V30 6064 H 578.49 -0.541374 1.97308 0
M  V30 6065 H 578.5 -2.75949 3.00526 0
M  V30 6066 H 577.175 -1.85677 3.72152 0
M  V30 6067 H 575.752 -2.96406 2.26269 0
M  V30 6068 N 577.937 -1.40673 -0.710563 0
M  V30 6069 C 579.183 -1.39428 -1.47267 0
M  V30 6070 C 579.516 0.00182129 -1.942 0
M  V30 6071 O 578.791 0.971387 -1.68506 0
M  V30 6072 C 579.074 -2.38812 -2.6952 0
M  V30 6073 C 578.927 -3.87467 -2.28449 0
M  V30 6074 C 580.246 -2.3566 -3.71689 0
M  V30 6075 H 577.365 -0.507768 -0.534173 0
M  V30 6076 H 580.007 -1.71843 -0.810547 0
M  V30 6077 H 578.157 -2.113 -3.26013 0
M  V30 6078 H 579.829 -4.25825 -1.77399 0
M  V30 6079 H 578.072 -4.03058 -1.60395 0
M  V30 6080 H 578.743 -4.5253 -3.16103 0
M  V30 6081 H 581.219 -2.6004 -3.24836 0
M  V30 6082 H 580.095 -3.07237 -4.54859 0
M  V30 6083 H 580.356 -1.36996 -4.20339 0
M  V30 6084 N 579.415 0.9433 -1.26252 0
M  V30 6085 C 580.661 1.69175 -1.11837 0
M  V30 6086 C 580.994 1.91238 0.337891 0
M  V30 6087 O 580.269 1.49152 1.24836 0
M  V30 6088 C 580.552 3.06783 -1.88563 0
M  V30 6089 C 580.405 2.9206 -3.42083 0
M  V30 6090 C 581.724 4.06865 -1.67776 0
M  V30 6091 H 578.843 0.61399 -0.407658 0
M  V30 6092 H 581.485 1.09572 -1.55222 0
M  V30 6093 H 579.635 3.57663 -1.51689 0
M  V30 6094 H 581.307 2.48419 -3.88698 0
M  V30 6095 H 579.55 2.27731 -3.69217 0
M  V30 6096 H 580.221 3.89651 -3.90994 0
M  V30 6097 H 582.697 3.64939 -1.99897 0
M  V30 6098 H 581.573 5.01168 -2.23879 0
M  V30 6099 H 581.834 4.37705 -0.621816 0
M  V30 6100 N 580.893 1.08022 1.14757 0
M  V30 6101 C 581.823 0.728248 2.21853 0
M  V30 6102 C 582.804 -0.287486 1.67653 0
M  V30 6103 O 583.989 -0.158727 1.9355 0
M  V30 6104 C 581.119 0.132549 3.47047 0
M  V30 6105 C 580.073 1.07619 4.14249 0
M  V30 6106 C 579.399 0.342907 5.33599 0
M  V30 6107 C 580.699 2.41268 4.63235 0
M  V30 6108 H 582.393 1.62365 2.51551 0
M  V30 6109 H 579.939 0.782125 1.20908 0
M  V30 6110 H 581.892 -0.125665 4.21213 0
M  V30 6111 H 580.616 -0.797971 3.16702 0
M  V30 6112 H 579.275 1.31944 3.42033 0
M  V30 6113 H 578.923 -0.59129 4.99513 0
M  V30 6114 H 578.623 0.971955 5.79506 0
M  V30 6115 H 580.147 0.0926538 6.1053 0
M  V30 6116 H 581.561 2.21232 5.28894 0
M  V30 6117 H 579.958 2.9983 5.19829 0
M  V30 6118 H 581.028 3.03079 3.78512 0
M  V30 6119 N 582.371 -1.3172 0.865308 0
M  V30 6120 C 583.303 -2.27545 0.274906 0
M  V30 6121 C 584.316 -1.52887 -0.559413 0
M  V30 6122 O 585.505 -1.74361 -0.382166 0
M  V30 6123 C 582.605 -3.33006 -0.629286 0
M  V30 6124 C 581.778 -4.37063 0.171553 0
M  V30 6125 C 580.837 -5.22044 -0.660052 0
M  V30 6126 O 579.863 -5.69129 -0.0897527 0
M  V30 6127 N 581.065 -5.45946 -1.97289 0
M  V30 6128 H 583.83 -2.78848 1.09836 0
M  V30 6129 H 581.391 -1.44693 0.726331 0
M  V30 6130 H 583.383 -3.86772 -1.19121 0
M  V30 6131 H 581.953 -2.81782 -1.35342 0
M  V30 6132 H 581.173 -3.83436 0.914919 0
M  V30 6133 H 582.461 -5.03662 0.721235 0
M  V30 6134 H 581.859 -5.0944 -2.45942 0
M  V30 6135 H 580.416 -6.02665 -2.4827 0
M  V30 6136 N 583.85 -0.624285 -1.44708 0
M  V30 6137 C 584.782 0.12305 -2.28869 0
M  V30 6138 C 585.795 0.81557 -1.40898 0
M  V30 6139 O 586.984 0.678162 -1.65116 0
M  V30 6140 C 584.084 1.19612 -3.1709 0
M  V30 6141 C 583.257 0.587452 -4.33437 0
M  V30 6142 C 582.316 1.55358 -5.02743 0
M  V30 6143 O 581.341 1.07338 -5.58988 0
M  V30 6144 N 582.543 2.88798 -5.03563 0
M  V30 6145 H 585.308 -0.599193 -2.93649 0
M  V30 6146 H 582.87 -0.464954 -1.5508 0
M  V30 6147 H 584.861 1.84261 -3.60319 0
M  V30 6148 H 583.432 1.82067 -2.54107 0
M  V30 6149 H 582.652 -0.237509 -3.93484 0
M  V30 6150 H 583.94 0.161326 -5.08544 0
M  V30 6151 H 583.338 3.30399 -4.59188 0
M  V30 6152 H 581.894 3.48826 -5.50603 0
M  V30 6153 N 585.328 1.53329 -0.364422 0
M  V30 6154 C 586.291 2.24323 0.470292 0
M  V30 6155 C 587.291 1.25068 1.01067 0
M  V30 6156 O 588.481 1.49354 0.896605 0
M  V30 6157 C 585.613 2.97908 1.65722 0
M  V30 6158 H 586.806 2.9952 -0.150917 0
M  V30 6159 H 584.359 1.55868 -0.116092 0
M  V30 6160 H 585.094 2.2695 2.31655 0
M  V30 6161 H 584.879 3.70732 1.27671 0
M  V30 6162 H 586.369 3.5188 2.24878 0
M  V30 6163 N 586.806 0.0935595 1.57322 0
M  V30 6164 C 588.052 -0.571355 1.94585 0
M  V30 6165 C 588.385 -1.67929 0.975366 0
M  V30 6166 O 587.66 -1.94498 0.00816206 0
M  V30 6167 C 587.943 -1.12797 3.41978 0
M  V30 6168 C 587.796 -0.0251881 4.49793 0
M  V30 6169 C 589.115 -2.02682 3.90651 0
M  V30 6170 H 586.234 -0.206223 0.70756 0
M  V30 6171 H 588.876 0.163956 1.89291 0
M  V30 6172 H 587.026 -1.75461 3.4662 0
M  V30 6173 H 588.698 0.608979 4.57263 0
M  V30 6174 H 586.941 0.641399 4.29032 0
M  V30 6175 H 587.612 -0.455433 5.50118 0
M  V30 6176 H 590.088 -1.49925 3.88152 0
M  V30 6177 H 588.964 -2.38555 4.94351 0
M  V30 6178 H 589.225 -2.94362 3.29854 0
M  V30 6179 N 588.284 -1.56567 -0.180126 0
M  V30 6180 C 589.216 -1.92275 -1.24751 0
M  V30 6181 C 590.229 -0.814922 -1.40936 0
M  V30 6182 O 591.418 -1.09336 -1.41095 0
M  V30 6183 C 588.518 -2.15265 -2.61752 0
M  V30 6184 C 587.691 -3.46467 -2.66981 0
M  V30 6185 C 586.75 -3.58391 -3.85283 0
M  V30 6186 O 585.776 -4.31086 -3.7169 0
M  V30 6187 N 586.978 -2.92587 -5.01371 0
M  V30 6188 H 589.743 -2.84435 -0.944302 0
M  V30 6189 H 587.304 -1.57617 -0.369952 0
M  V30 6190 H 589.296 -2.20515 -3.39345 0
M  V30 6191 H 587.866 -1.29533 -2.845 0
M  V30 6192 H 587.086 -3.52953 -1.75549 0
M  V30 6193 H 588.374 -4.32819 -2.67479 0
M  V30 6194 H 587.772 -2.3338 -5.15316 0
M  V30 6195 H 586.329 -3.03444 -5.76858 0
M  V30 6196 N 589.762 0.448376 -1.51087 0
M  V30 6197 C 590.725 1.52588 -1.71025 0
M  V30 6198 C 591.725 1.49958 -0.580442 0
M  V30 6199 O 592.915 1.52176 -0.847833 0
M  V30 6200 C 590.047 2.92163 -1.75652 0
M  V30 6201 H 591.24 1.36218 -2.67179 0
M  V30 6202 H 588.793 0.676313 -1.4091 0
M  V30 6203 H 589.528 3.13951 -0.812724 0
M  V30 6204 H 589.313 2.95478 -2.57751 0
M  V30 6205 H 590.803 3.70349 -1.92953 0
M  V30 6206 N 591.24 1.41047 0.703093 0
M  V30 6207 C 592.48 1.41461 1.4754 0
M  V30 6208 C 592.844 0.0199013 1.9199 0
M  V30 6209 O 594.045 -0.101138 2.6861 0
M  V30 6210 C 592.316 2.38703 2.66 0
M  V30 6211 S 593.875 2.57582 3.55242 0
M  V30 6212 H 590.693 0.501226 0.504275 0
M  V30 6213 H 593.295 1.77422 0.821074 0
M  V30 6214 H 591.999 3.3885 2.31536 0
M  V30 6215 H 591.53 2.04069 3.36333 0
M  V30 6216 H 593.545 1.83758 4.6092 0
M  V30 6217 N 592.718 -0.936591 1.26751 0
M  V30 6218 C 593.967 -1.67778 1.11953 0
M  V30 6219 C 594.28 -1.92694 -0.33589 0
M  V30 6220 O 595.486 -2.64682 -0.604618 0
M  V30 6221 C 593.942 -3.02138 1.95551 0
M  V30 6222 C 593.55 -2.84953 3.45696 0
M  V30 6223 C 595.294 -3.79917 1.89377 0
M  V30 6224 C 593.201 -4.14814 4.21525 0
M  V30 6225 H 592.131 -0.629275 0.415366 0
M  V30 6226 H 594.782 -1.04122 1.51099 0
M  V30 6227 H 593.164 -3.668 1.49243 0
M  V30 6228 H 594.338 -2.29112 3.99805 0
M  V30 6229 H 592.653 -2.20612 3.53156 0
M  V30 6230 H 595.25 -4.76134 2.43312 0
M  V30 6231 H 595.593 -4.07204 0.865464 0
M  V30 6232 H 596.126 -3.22037 2.33532 0
M  V30 6233 H 592.865 -3.92709 5.24843 0
M  V30 6234 H 592.385 -4.70352 3.72195 0
M  V30 6235 H 594.064 -4.83239 4.3022 0
M  V30 6236 N 594.196 -1.08629 -1.14182 0
M  V30 6237 C 595.473 -0.73002 -1.81466 0
M  V30 6238 C 595.853 0.785996 -1.95922 0
M  V30 6239 O 595.201 1.70535 -1.52086 0
M  V30 6240 C 595.411 -1.45957 -3.17014 0
M  V30 6241 C 596.759 -1.62008 -3.92477 0
M  V30 6242 O 597.783 -1.42141 -3.26611 0
M  V30 6243 O 596.642 -1.94806 -5.106 0
M  V30 6244 H 593.736 -0.261307 -0.784632 0
M  V30 6245 H 596.282 -1.188 -1.2118 0
M  V30 6246 H 595.054 -2.49221 -3.01669 0
M  V30 6247 H 594.677 -0.993222 -3.84995 0
M  V30 6248 N 595.674 1.31259 -0.872281 0
M  V30 6249 C 596.914 1.98418 -0.490894 0
M  V30 6250 C 597.278 1.67429 0.939755 0
M  V30 6251 O 598.479 2.27818 1.42661 0
M  V30 6252 C 596.75 3.49583 -0.743408 0
M  V30 6253 S 598.309 4.36359 -0.462226 0
M  V30 6254 H 595.127 0.687005 -0.183151 0
M  V30 6255 H 597.729 1.59619 -1.12881 0
M  V30 6256 H 596.433 3.69627 -1.78338 0
M  V30 6257 H 595.964 3.93291 -0.0925758 0
M  V30 6258 H 597.979 4.91173 0.704525 0
M  V30 6259 N 597.152 0.631951 1.44375 0
M  V30 6260 C 598.115 -0.0628142 2.29114 0
M  V30 6261 C 599.115 -0.771494 1.41084 0
M  V30 6262 O 600.305 -0.615959 1.62947 0
M  V30 6263 C 597.437 -1.09953 3.22681 0
M  V30 6264 H 598.63 0.682509 2.92031 0
M  V30 6265 H 596.183 0.392128 1.51301 0
M  V30 6266 H 596.918 -1.87481 2.64616 0
M  V30 6267 H 596.703 -0.595286 3.87555 0
M  V30 6268 H 598.193 -1.58538 3.86336 0
M  V30 6269 N 598.631 -1.53133 0.372548 0
M  V30 6270 C 599.861 -2.05476 -0.215202 0
M  V30 6271 C 600.269 -1.24534 -1.42436 0
M  V30 6272 O 599.612 -0.280771 -1.81542 0
M  V30 6273 C 599.674 -3.53276 -0.666068 0
M  V30 6274 C 599.338 -4.54998 0.427342 0
M  V30 6275 C 600.335 -5.03911 1.27944 0
M  V30 6276 C 598.02 -4.98828 0.589579 0
M  V30 6277 C 600.014 -5.95263 2.27905 0
M  V30 6278 C 597.701 -5.89984 1.59255 0
M  V30 6279 C 598.699 -6.38093 2.43571 0
M  V30 6280 O 598.387 -7.27451 3.42156 0
M  V30 6281 H 598.119 -0.67481 -0.040099 0
M  V30 6282 H 600.673 -1.98409 0.531312 0
M  V30 6283 H 598.903 -3.57904 -1.4643 0
M  V30 6284 H 600.592 -3.88442 -1.1776 0
M  V30 6285 H 601.358 -4.70792 1.16532 0
M  V30 6286 H 597.237 -4.60965 -0.0569456 0
M  V30 6287 H 600.781 -6.32736 2.93753 0
M  V30 6288 H 596.678 -6.22518 1.70711 0
M  V30 6289 H 597.446 -7.45467 3.37967 0
M  V30 6290 N 600.109 -0.101901 -1.5727 0
M  V30 6291 C 601.059 0.865346 -2.1094 0
M  V30 6292 C 602.043 1.2394 -1.02605 0
M  V30 6293 O 603.235 1.21334 -1.28868 0
M  V30 6294 C 600.364 2.12187 -2.69874 0
M  V30 6295 C 599.45 1.77295 -3.85263 0
M  V30 6296 N 599.841 1.12993 -4.93017 0
M  V30 6297 C 598.139 2.06862 -3.95126 0
M  V30 6298 C 598.84 0.968631 -5.73579 0
M  V30 6299 N 597.816 1.48814 -5.22834 0
M  V30 6300 H 601.618 0.364368 -2.91633 0
M  V30 6301 H 599.132 0.101104 -1.62085 0
M  V30 6302 H 601.129 2.82431 -3.06657 0
M  V30 6303 H 599.789 2.62844 -1.90639 0
M  V30 6304 H 600.8 0.795935 -5.11747 0
M  V30 6305 H 597.477 2.59686 -3.26909 0
M  V30 6306 H 598.867 0.465231 -6.70287 0
M  V30 6307 N 601.587 1.56661 0.17182 0
M  V30 6308 C 602.519 1.92934 1.2373 0
M  V30 6309 C 603.532 0.822385 1.40502 0
M  V30 6310 O 604.721 1.10083 1.40514 0
M  V30 6311 C 601.821 2.16651 2.60607 0
M  V30 6312 C 600.994 3.47878 2.6514 0
M  V30 6313 C 600.053 3.60429 3.83377 0
M  V30 6314 O 599.079 4.33051 3.69398 0
M  V30 6315 N 600.281 2.95241 4.99813 0
M  V30 6316 H 603.046 2.84931 0.929205 0
M  V30 6317 H 600.607 1.5781 0.361588 0
M  V30 6318 H 602.599 2.22312 3.38171 0
M  V30 6319 H 601.169 1.3104 2.83809 0
M  V30 6320 H 600.389 3.53879 1.73675 0
M  V30 6321 H 601.677 4.34232 2.6518 0
M  V30 6322 H 601.075 2.3611 5.14071 0
M  V30 6323 H 599.632 3.06499 5.75241 0
M  V30 6324 N 603.065 -0.440357 1.51323 0
M  V30 6325 C 604.012 -1.53429 1.72419 0
M  V30 6326 C 604.982 -1.56165 0.565826 0
M  V30 6327 O 606.167 -1.73222 0.799917 0
M  V30 6328 C 603.307 -2.91169 1.85242 0
M  V30 6329 C 602.42 -2.97985 3.12777 0
M  V30 6330 C 601.555 -4.26829 3.16212 0
M  V30 6331 C 600.594 -4.27501 4.38074 0
M  V30 6332 N 599.731 -5.47866 4.39076 0
M  V30 6333 H 604.571 -1.34743 2.65797 0
M  V30 6334 H 602.108 -0.654608 1.31732 0
M  V30 6335 H 604.066 -3.71087 1.90658 0
M  V30 6336 H 602.696 -3.0842 0.952744 0
M  V30 6337 H 601.748 -2.10749 3.16685 0
M  V30 6338 H 603.06 -2.94342 4.02696 0
M  V30 6339 H 602.214 -5.15118 3.20527 0
M  V30 6340 H 600.953 -4.33124 2.24176 0
M  V30 6341 H 599.958 -3.37606 4.33938 0
M  V30 6342 H 601.183 -4.22873 5.31371 0
M  V30 6343 H 599.129 -5.54887 3.49909 0
M  V30 6344 H 599.046 -5.46091 5.22801 0
M  V30 6345 H 600.314 -6.38195 4.4758 0
M  V30 6346 N 604.543 -1.41418 -0.695603 0
M  V30 6347 C 605.771 -1.4413 -1.48439 0
M  V30 6348 C 606.186 -0.0465698 -1.88743 0
M  V30 6349 O 605.543 0.934117 -1.56782 0
M  V30 6350 C 605.594 -2.34998 -2.74696 0
M  V30 6351 O 605.315 -3.69043 -2.36091 0
M  V30 6352 C 606.816 -2.46513 -3.68438 0
M  V30 6353 H 604.036 -0.490905 -0.457442 0
M  V30 6354 H 606.58 -1.85702 -0.856454 0
M  V30 6355 H 604.735 -1.96735 -3.33728 0
M  V30 6356 H 605.149 -4.17505 -3.17474 0
M  V30 6357 H 606.623 -3.1426 -4.53811 0
M  V30 6358 H 607.1 -1.49638 -4.12922 0
M  V30 6359 H 607.706 -2.85412 -3.1531 0
M  V30 6360 N 606.021 0.929856 -1.27246 0
M  V30 6361 C 607.267 1.6798 -1.13625 0
M  V30 6362 C 607.6 1.91586 0.317589 0
M  V30 6363 O 606.875 1.50467 1.23247 0
M  V30 6364 C 607.158 3.04766 -1.91806 0
M  V30 6365 C 607.011 2.88415 -3.45162 0
M  V30 6366 C 608.33 4.05063 -1.72082 0
M  V30 6367 H 605.449 0.609632 -0.414147 0
M  V30 6368 H 608.091 1.0792 -1.56376 0
M  V30 6369 H 606.241 3.56034 -1.55474 0
M  V30 6370 H 607.913 2.44282 -3.91311 0
M  V30 6371 H 606.156 2.23802 -3.71611 0
M  V30 6372 H 606.827 3.85482 -3.95105 0
M  V30 6373 H 609.303 3.62798 -2.03757 0
M  V30 6374 H 608.179 4.98765 -2.29182 0
M  V30 6375 H 608.44 4.37021 -0.668206 0
M  V30 6376 N 607.499 1.09233 1.13605 0
M  V30 6377 C 608.746 0.827159 1.84836 0
M  V30 6378 C 609.074 -0.647199 1.83416 0
M  V30 6379 O 608.329 -1.49228 1.26608 0
M  V30 6380 C 608.628 1.305 3.32723 0
M  V30 6381 C 608.294 2.78864 3.54325 0
M  V30 6382 C 606.956 3.19382 3.59928 0
M  V30 6383 C 609.308 3.74532 3.62457 0
M  V30 6384 C 606.636 4.54346 3.71196 0
M  V30 6385 C 608.988 5.09283 3.75252 0
M  V30 6386 C 607.652 5.49394 3.79108 0
M  V30 6387 H 606.922 0.302679 0.676363 0
M  V30 6388 H 609.569 1.36676 1.34134 0
M  V30 6389 H 607.874 0.68517 3.85762 0
M  V30 6390 H 609.571 1.07648 3.86281 0
M  V30 6391 H 606.161 2.46507 3.50617 0
M  V30 6392 H 610.345 3.44343 3.57409 0
M  V30 6393 H 605.601 4.84864 3.72447 0
M  V30 6394 H 609.775 5.83269 3.80487 0
M  V30 6395 H 607.402 6.5397 3.87591 0
M  V30 6396 N 608.977 -1.30795 0.87923 0
M  V30 6397 C 610.202 -2.01063 0.508769 0
M  V30 6398 C 610.627 -1.65508 -0.893803 0
M  V30 6399 O 609.985 -0.868616 -1.59138 0
M  V30 6400 C 610.033 -3.54054 0.683991 0
M  V30 6401 O 609.137 -4.11498 -0.272654 0
M  V30 6402 H 608.478 -0.632786 0.201191 0
M  V30 6403 H 611.008 -1.66776 1.18519 0
M  V30 6404 H 611.018 -4.03845 0.580798 0
M  V30 6405 H 609.693 -3.79271 1.70665 0
M  V30 6406 H 608.27 -3.72695 -0.12364 0
M  V30 6407 N 610.455 -0.639598 -1.44038 0
M  V30 6408 C 611.702 -0.14748 -2.01962 0
M  V30 6409 C 612.03 1.23372 -1.50365 0
M  V30 6410 O 611.285 1.8345 -0.681501 0
M  V30 6411 C 611.584 -0.0925348 -3.5728 0
M  V30 6412 C 611.25 -1.41365 -4.28167 0
M  V30 6413 C 609.912 -1.77545 -4.47248 0
M  V30 6414 C 612.264 -2.2853 -4.68427 0
M  V30 6415 C 609.592 -3.00583 -5.03852 0
M  V30 6416 C 611.944 -3.50846 -5.26393 0
M  V30 6417 C 610.608 -3.8724 -5.43692 0
M  V30 6418 H 609.878 -0.0539666 -0.739032 0
M  V30 6419 H 612.525 -0.827599 -1.72694 0
M  V30 6420 H 610.83 0.670987 -3.86012 0
M  V30 6421 H 612.527 0.304891 -3.99839 0
M  V30 6422 H 609.117 -1.1221 -4.13651 0
M  V30 6423 H 613.301 -2.0187 -4.5339 0
M  V30 6424 H 608.557 -3.28846 -5.15432 0
M  V30 6425 H 612.731 -4.18616 -5.56537 0
M  V30 6426 H 610.358 -4.8266 -5.87319 0
M  V30 6427 N 611.933 1.52934 -0.380664 0
M  V30 6428 C 612.863 2.29118 0.450268 0
M  V30 6429 C 613.844 1.32153 1.07096 0
M  V30 6430 O 615.029 1.61038 1.08537 0
M  V30 6431 C 612.159 3.09161 1.58231 0
M  V30 6432 C 611.113 4.13938 1.0881 0
M  V30 6433 C 610.439 4.82153 2.31155 0
M  V30 6434 C 611.739 5.22048 0.162146 0
M  V30 6435 H 613.433 2.98826 -0.185361 0
M  V30 6436 H 610.979 1.43715 -0.0905886 0
M  V30 6437 H 612.932 3.61211 2.17036 0
M  V30 6438 H 611.656 2.3717 2.2454 0
M  V30 6439 H 610.315 3.62855 0.522633 0
M  V30 6440 H 609.963 4.06719 2.95953 0
M  V30 6441 H 609.663 5.52966 1.98752 0
M  V30 6442 H 611.187 5.37004 2.90618 0
M  V30 6443 H 612.601 5.6951 0.658126 0
M  V30 6444 H 610.998 6.00057 -0.0717122 0
M  V30 6445 H 612.068 4.78398 -0.791438 0
M  V30 6446 N 613.412 0.11024 1.57214 0
M  V30 6447 C 614.359 -0.843195 2.14846 0
M  V30 6448 C 615.329 -1.26954 1.07107 0
M  V30 6449 O 616.514 -1.34861 1.34971 0
M  V30 6450 C 613.654 -2.09123 2.74521 0
M  V30 6451 C 612.767 -1.71404 3.96541 0
M  V30 6452 C 611.902 -2.91107 4.44331 0
M  V30 6453 C 610.941 -2.49586 5.58903 0
M  V30 6454 N 610.078 -3.62175 6.01477 0
M  V30 6455 H 614.918 -0.344886 2.95998 0
M  V30 6456 H 612.455 -0.15855 1.46243 0
M  V30 6457 H 614.413 -2.82234 3.07246 0
M  V30 6458 H 613.043 -2.56427 1.96074 0
M  V30 6459 H 612.095 -0.88201 3.70033 0
M  V30 6460 H 613.407 -1.36884 4.7965 0
M  V30 6461 H 612.561 -3.72454 4.78919 0
M  V30 6462 H 611.3 -3.28848 3.60153 0
M  V30 6463 H 610.305 -1.6667 5.23929 0
M  V30 6464 H 611.53 -2.12973 6.4484 0
M  V30 6465 H 609.476 -3.99605 5.20242 0
M  V30 6466 H 609.393 -3.3155 6.79419 0
M  V30 6467 H 610.661 -4.43987 6.407 0
M  V30 6468 N 614.89 -1.56749 -0.16351 0
M  V30 6469 C 615.822 -1.93587 -1.22705 0
M  V30 6470 C 616.835 -0.829824 -1.40063 0
M  V30 6471 O 618.024 -1.10826 -1.39928 0
M  V30 6472 C 615.124 -2.1803 -2.59454 0
M  V30 6473 C 614.297 -3.4928 -2.63292 0
M  V30 6474 C 613.356 -3.62457 -3.8146 0
M  V30 6475 O 612.382 -4.35004 -3.67096 0
M  V30 6476 N 613.584 -2.97888 -4.9824 0
M  V30 6477 H 616.349 -2.8542 -0.914081 0
M  V30 6478 H 613.91 -1.58 -0.353214 0
M  V30 6479 H 615.902 -2.24102 -3.36987 0
M  V30 6480 H 614.472 -1.32543 -2.8311 0
M  V30 6481 H 613.692 -3.54795 -1.71796 0
M  V30 6482 H 614.98 -4.35632 -2.62873 0
M  V30 6483 H 614.378 -2.38833 -5.12811 0
M  V30 6484 H 612.935 -3.09545 -5.73607 0
M  V30 6485 N 616.368 0.432326 -1.51554 0
M  V30 6486 C 617.616 1.17901 -1.64146 0
M  V30 6487 C 617.937 1.91604 -0.362367 0
M  V30 6488 O 617.207 1.85764 0.621968 0
M  V30 6489 H 615.787 0.438206 -0.604966 0
M  V30 6490 H 618.449 0.495172 -1.88505 0
M  V30 6491 H 617.545 1.90584 -2.47152 0
M  V30 6492 N 617.846 1.41785 0.688094 0
M  V30 6493 C 618.796 1.40684 1.79421 0
M  V30 6494 C 619.78 0.280096 1.58443 0
M  V30 6495 O 620.972 0.521332 1.69148 0
M  V30 6496 C 618.101 1.29874 3.17785 0
M  V30 6497 C 617.187 2.47442 3.44432 0
M  V30 6498 N 617.578 3.72895 3.41736 0
M  V30 6499 C 615.876 2.41416 3.75013 0
M  V30 6500 C 616.577 4.50912 3.67496 0
M  V30 6501 N 615.553 3.81131 3.87608 0
M  V30 6502 H 619.355 2.35591 1.7571 0
M  V30 6503 H 616.869 1.35946 0.888393 0
M  V30 6504 H 618.866 1.27168 3.97031 0
M  V30 6505 H 617.526 0.359587 3.22703 0
M  V30 6506 H 618.537 4.05676 3.21943 0
M  V30 6507 H 615.214 1.56011 3.87256 0
M  V30 6508 H 616.604 5.59865 3.71484 0
M  V30 6509 N 619.324 -0.923095 1.27737 0
M  V30 6510 C 620.572 -1.66797 1.14119 0
M  V30 6511 C 620.893 -1.92479 -0.312541 0
M  V30 6512 O 620.163 -1.53432 -1.218 0
M  V30 6513 H 618.743 -0.618196 0.419336 0
M  V30 6514 H 621.405 -1.10815 1.60331 0
M  V30 6515 H 620.501 -2.63424 1.67374 0
M  V30 6516 N 620.802 -1.09834 -1.13024 0
M  V30 6517 C 622.05 -0.835297 -1.8403 0
M  V30 6518 C 622.371 0.640944 -1.84165 0
M  V30 6519 O 621.641 1.46517 -1.30037 0
M  V30 6520 H 620.221 -0.306018 -0.681441 0
M  V30 6521 H 622.883 -1.38734 -1.36891 0
M  V30 6522 H 621.979 -1.19258 -2.88416 0
M  V30 6523 N 622.28 1.30327 -0.886154 0
M  V30 6524 C 623.19 2.31854 -0.357866 0
M  V30 6525 C 624.206 1.65392 0.540502 0
M  V30 6526 O 625.382 1.96683 0.433339 0
M  V30 6527 C 622.447 3.44171 0.417999 0
M  V30 6528 C 621.508 4.26257 -0.510263 0
M  V30 6529 C 620.741 5.3321 0.228669 0
M  V30 6530 O 620.964 5.51542 1.45458 0
M  V30 6531 O 619.898 6.0042 -0.421832 0
M  V30 6532 H 623.724 2.78995 -1.19982 0
M  V30 6533 H 621.309 1.34518 -0.650028 0
M  V30 6534 H 623.191 4.12588 0.857251 0
M  V30 6535 H 621.866 2.99164 1.23623 0
M  V30 6536 H 620.773 3.60533 -0.99835 0
M  V30 6537 H 622.106 4.74871 -1.29454 0
M  V30 6538 N 623.758 0.647228 1.43697 0
M  V30 6539 C 625.004 0.158422 2.0218 0
M  V30 6540 C 625.337 -1.22233 1.50907 0
M  V30 6541 O 624.612 -1.81478 0.699702 0
M  V30 6542 C 624.895 0.1627 3.59732 0
M  V30 6543 C 624.748 1.57694 4.21251 0
M  V30 6544 C 626.067 -0.504138 4.37203 0
M  V30 6545 H 623.186 0.059042 0.734631 0
M  V30 6546 H 625.828 0.826772 1.71069 0
M  V30 6547 H 623.978 -0.406414 3.86368 0
M  V30 6548 H 625.65 2.19618 4.05667 0
M  V30 6549 H 623.893 2.12603 3.7813 0
M  V30 6550 H 624.564 1.53183 5.3032 0
M  V30 6551 H 627.04 -0.0199841 4.16095 0
M  V30 6552 H 625.916 -0.470394 5.46881 0
M  V30 6553 H 626.177 -1.57726 4.13007 0
M  V30 6554 N 625.236 -1.5273 0.388769 0
M  V30 6555 C 626.485 -2.00757 -0.194833 0
M  V30 6556 C 626.798 -1.27951 -1.47946 0
M  V30 6557 O 628.004 -1.66686 -2.14308 0
M  V30 6558 C 626.46 -3.57695 -0.397762 0
M  V30 6559 C 626.068 -4.394 0.873583 0
M  V30 6560 C 627.812 -4.14012 -0.937759 0
M  V30 6561 C 625.719 -5.87938 0.638962 0
M  V30 6562 H 624.649 -0.750101 -0.0765845 0
M  V30 6563 H 627.3 -1.76239 0.511086 0
M  V30 6564 H 625.682 -3.7846 -1.16552 0
M  V30 6565 H 626.856 -4.30403 1.64591 0
M  V30 6566 H 625.171 -3.94301 1.33849 0
M  V30 6567 H 627.768 -5.22645 -1.12899 0
M  V30 6568 H 628.111 -3.7007 -1.90666 0
M  V30 6569 H 628.644 -3.97137 -0.229588 0
M  V30 6570 H 625.383 -6.36202 1.57885 0
M  V30 6571 H 624.903 -5.99726 -0.094443 0
M  V30 6572 H 626.582 -6.46423 0.273299 0
M  V30 6573 N 626.714 -0.118576 -1.57153 0
M  V30 6574 C 627.939 0.550582 -1.99958 0
M  V30 6575 C 628.364 1.59458 -0.997736 0
M  V30 6576 O 627.722 1.81274 0.0306269 0
M  V30 6577 C 627.77 1.15379 -3.41643 0
M  V30 6578 O 626.874 2.26932 -3.44348 0
M  V30 6579 H 626.215 0.137567 -0.649593 0
M  V30 6580 H 628.745 -0.206926 -2.03551 0
M  V30 6581 H 628.755 1.48942 -3.79843 0
M  V30 6582 H 627.43 0.389087 -4.14076 0
M  V30 6583 H 626.007 1.94812 -3.17967 0
M  V30 6584 N 628.193 1.56834 0.155195 0
M  V30 6585 C 629.156 1.96748 1.17571 0
M  V30 6586 C 630.156 0.853006 1.3631 0
M  V30 6587 O 631.346 1.11978 1.33441 0
M  V30 6588 C 628.478 2.27631 2.53765 0
M  V30 6589 H 629.671 2.88085 0.833498 0
M  V30 6590 H 627.224 1.51141 0.398242 0
M  V30 6591 H 627.959 1.39059 2.92973 0
M  V30 6592 H 627.744 3.0888 2.41527 0
M  V30 6593 H 629.234 2.59377 3.27282 0
M  V30 6594 N 629.671 -0.424282 1.51781 0
M  V30 6595 C 630.917 -1.17434 1.6534 0
M  V30 6596 C 631.25 -1.90549 0.374806 0
M  V30 6597 O 630.525 -1.84145 -0.626179 0
M  V30 6598 C 630.808 -2.18093 2.86544 0
M  V30 6599 C 630.661 -1.48975 4.24413 0
M  V30 6600 C 631.98 -3.18934 3.03264 0
M  V30 6601 H 629.099 -0.425566 0.601716 0
M  V30 6602 H 631.741 -0.461921 1.84299 0
M  V30 6603 H 629.891 -2.78849 2.7051 0
M  V30 6604 H 631.563 -0.914551 4.52143 0
M  V30 6605 H 629.806 -0.791893 4.26511 0
M  V30 6606 H 630.477 -2.22347 5.05238 0
M  V30 6607 H 632.953 -2.68243 3.18096 0
M  V30 6608 H 631.829 -3.86645 3.89611 0
M  V30 6609 H 632.09 -3.85793 2.15908 0
M  V30 6610 N 631.149 -1.42148 -0.680565 0
M  V30 6611 C 632.396 -1.4231 -1.44063 0
M  V30 6612 C 632.724 -0.037488 -1.94464 0
M  V30 6613 O 631.979 0.953184 -1.70918 0
M  V30 6614 C 632.278 -2.38945 -2.65782 0
M  V30 6615 C 631.944 -3.85455 -2.33956 0
M  V30 6616 C 630.606 -4.25364 -2.24987 0
M  V30 6617 C 632.958 -4.77895 -2.08004 0
M  V30 6618 C 630.286 -5.55701 -1.88184 0
M  V30 6619 C 632.638 -6.08568 -1.72706 0
M  V30 6620 C 631.302 -6.47482 -1.62244 0
M  V30 6621 H 630.572 -0.520748 -0.527164 0
M  V30 6622 H 633.219 -1.7505 -0.776524 0
M  V30 6623 H 631.524 -1.99511 -3.37198 0
M  V30 6624 H 633.221 -2.36336 -3.23954 0
M  V30 6625 H 629.811 -3.53855 -2.41836 0
M  V30 6626 H 633.995 -4.47854 -2.1387 0
M  V30 6627 H 629.251 -5.84718 -1.78648 0
M  V30 6628 H 633.425 -6.79688 -1.5165 0
M  V30 6629 H 631.052 -7.48387 -1.33496 0
M  V30 6630 N 632.627 0.916307 -1.28225 0
M  V30 6631 C 633.904 1.64429 -1.05936 0
M  V30 6632 C 634.284 2.07234 0.402139 0
M  V30 6633 O 633.632 1.81535 1.3877 0
M  V30 6634 C 633.842 2.83773 -2.03159 0
M  V30 6635 C 635.19 3.54852 -2.33164 0
M  V30 6636 O 636.214 2.93918 -2.01223 0
M  V30 6637 O 635.073 4.64663 -2.87664 0
M  V30 6638 H 632.167 0.721221 -0.404683 0
M  V30 6639 H 634.713 0.965838 -1.39534 0
M  V30 6640 H 633.485 2.49217 -3.01673 0
M  V30 6641 H 633.108 3.59333 -1.70192 0
M  V30 6642 N 634.105 1.10431 1.1244 0
M  V30 6643 C 635.521 0.836096 1.35947 0
M  V30 6644 C 635.721 -0.544475 1.94004 0
M  V30 6645 O 634.777 -1.29735 2.16622 0
M  V30 6646 C 636.09 1.93575 2.30107 0
M  V30 6647 C 637.638 1.9642 2.43697 0
M  V30 6648 C 638.113 3.05559 3.41171 0
M  V30 6649 N 639.604 3.04865 3.48728 0
M  V30 6650 C 640.339 3.85954 4.24061 0
M  V30 6651 N 639.835 4.76977 5.02458 0
M  V30 6652 N 641.628 3.74172 4.19466 0
M  V30 6653 H 633.779 1.9942 0.731124 0
M  V30 6654 H 636.042 0.866607 0.384312 0
M  V30 6655 H 635.748 2.92943 1.94621 0
M  V30 6656 H 635.622 1.8229 3.30227 0
M  V30 6657 H 638.009 0.97685 2.78463 0
M  V30 6658 H 638.09 2.11782 1.43465 0
M  V30 6659 H 637.734 4.04513 3.07135 0
M  V30 6660 H 637.664 2.87438 4.41234 0
M  V30 6661 H 640.155 2.38908 2.92799 0
M  V30 6662 H 640.468 5.35409 5.57277 0
M  V30 6663 H 638.813 4.81006 5.01655 0
M  V30 6664 H 642.004 3.02412 3.57302 0
M  V30 6665 H 642.177 4.37602 4.77921 0
M  V30 6666 N 635.583 -1.29855 0.893053 0
M  V30 6667 C 636.493 -2.31661 0.370157 0
M  V30 6668 C 637.509 -1.65677 -0.531723 0
M  V30 6669 O 638.685 -1.9691 -0.422902 0
M  V30 6670 C 635.75 -3.44388 -0.399741 0
M  V30 6671 C 634.811 -4.2598 0.532861 0
M  V30 6672 C 634.044 -5.33324 -0.200388 0
M  V30 6673 O 634.267 -5.52305 -1.42531 0
M  V30 6674 O 633.201 -6.00188 0.453668 0
M  V30 6675 H 637.027 -2.78354 1.2146 0
M  V30 6676 H 634.612 -1.34171 0.657153 0
M  V30 6677 H 636.494 -4.13037 -0.835358 0
M  V30 6678 H 635.169 -2.99815 -1.22035 0
M  V30 6679 H 634.076 -3.59998 1.01746 0
M  V30 6680 H 635.409 -4.74178 1.3197 0
M  V30 6681 N 637.061 -0.65484 -1.43351 0
M  V30 6682 C 637.993 0.0744757 -2.29079 0
M  V30 6683 C 639.006 0.7855 -1.42596 0
M  V30 6684 O 640.195 0.642986 -1.66517 0
M  V30 6685 C 637.295 1.12859 -3.19556 0
M  V30 6686 C 636.468 0.495381 -4.34586 0
M  V30 6687 C 635.527 1.44659 -5.05925 0
M  V30 6688 O 634.553 0.954567 -5.61139 0
M  V30 6689 N 635.755 2.78051 -5.09576 0
M  V30 6690 H 638.52 -0.661346 -2.92312 0
M  V30 6691 H 636.081 -0.497744 -1.54059 0
M  V30 6692 H 638.073 1.76577 -3.64147 0
M  V30 6693 H 636.643 1.76636 -2.57912 0
M  V30 6694 H 635.863 -0.32092 -3.92892 0
M  V30 6695 H 637.151 0.0534203 -5.08772 0
M  V30 6696 H 636.549 3.20584 -4.66093 0
M  V30 6697 H 635.106 3.37068 -5.57878 0
M  V30 6698 N 638.539 1.52521 -0.396863 0
M  V30 6699 C 639.489 2.2348 0.451722 0
M  V30 6700 C 640.473 1.2415 1.0235 0
M  V30 6701 O 641.665 1.4945 0.948348 0
M  V30 6702 C 638.794 3.05067 1.57445 0
M  V30 6703 C 637.88 4.11799 1.01404 0
M  V30 6704 N 638.271 5.05482 0.179234 0
M  V30 6705 C 636.569 4.27064 1.28578 0
M  V30 6706 C 637.27 5.81552 -0.131202 0
M  V30 6707 N 636.246 5.41523 0.474735 0
M  V30 6708 H 640.048 2.93269 -0.192534 0
M  V30 6709 H 637.562 1.61081 -0.206591 0
M  V30 6710 H 639.559 3.54446 2.19485 0
M  V30 6711 H 638.219 2.36816 2.22145 0
M  V30 6712 H 639.23 5.17573 -0.18411 0
M  V30 6713 H 635.907 3.70042 1.93327 0
M  V30 6714 H 637.297 6.67023 -0.808061 0
M  V30 6715 N 640.017 0.126909 1.57088 0
M  V30 6716 C 641.245 -0.53667 1.99819 0
M  V30 6717 C 641.66 -1.5972 1.00673 0
M  V30 6718 O 641.017 -1.825 0.000747365 0
M  V30 6719 C 641.068 -1.15563 3.42531 0
M  V30 6720 O 640.789 -0.137483 4.37884 0
M  V30 6721 C 642.29 -1.90176 4.00435 0
M  V30 6722 H 639.51 -0.141443 0.655923 0
M  V30 6723 H 642.054 0.215578 2.03361 0
M  V30 6724 H 640.209 -1.85861 3.39904 0
M  V30 6725 H 640.623 -0.588229 5.21191 0
M  V30 6726 H 642.097 -2.28801 5.02349 0
M  V30 6727 H 642.574 -2.78002 3.40017 0
M  V30 6728 H 643.18 -1.24623 4.06632 0
M  V30 6729 N 641.495 -1.56914 -0.146875 0
M  V30 6730 C 642.425 -2.01308 -1.1831 0
M  V30 6731 C 643.406 -0.892664 -1.44795 0
M  V30 6732 O 644.591 -1.16048 -1.55713 0
M  V30 6733 C 641.721 -2.3938 -2.51624 0
M  V30 6734 C 640.675 -3.54608 -2.3966 0
M  V30 6735 C 640.001 -3.78493 -3.77686 0
M  V30 6736 C 641.301 -4.87269 -1.88058 0
M  V30 6737 H 642.995 -2.88123 -0.813964 0
M  V30 6738 H 640.541 -1.38615 -0.3901 0
M  V30 6739 H 642.494 -2.69037 -3.24341 0
M  V30 6740 H 641.218 -1.49502 -2.90373 0
M  V30 6741 H 639.877 -3.25116 -1.69396 0
M  V30 6742 H 639.525 -2.85866 -4.13871 0
M  V30 6743 H 639.225 -4.56039 -3.70543 0
M  V30 6744 H 640.749 -4.10576 -4.51951 0
M  V30 6745 H 642.163 -5.15644 -2.50568 0
M  V30 6746 H 640.56 -5.68622 -1.91805 0
M  V30 6747 H 641.63 -4.77634 -0.836277 0
M  V30 6748 N 642.974 0.416227 -1.52004 0
M  V30 6749 C 643.922 1.5272 -1.7544 0
M  V30 6750 C 644.916 1.57596 -0.621289 0
M  V30 6751 O 646.122 1.61087 -0.803172 0
M  V30 6752 H 642.497 0.507772 -0.554682 0
M  V30 6753 H 644.468 1.30136 -2.68528 0
M  V30 6754 C 643.217 2.90165 -1.91571 0
M  V30 6755 H 642.54 2.87154 -2.78178 0
M  V30 6756 H 643.98 3.67211 -2.11972 0
M  V30 6757 C 642.439 3.29947 -0.680942 0
M  V30 6758 O 642.969 4.01403 0.154527 0
M  V30 6759 N 641.175 2.8593 -0.518894 0
M  V30 6760 H 640.722 2.2795 -1.19986 0
M  V30 6761 H 640.68 3.12907 0.305985 0
M  V30 6762 N 644.452 1.42507 0.673017 0
M  V30 6763 C 645.382 1.48916 1.79851 0
M  V30 6764 C 646.363 0.345566 1.66553 0
M  V30 6765 O 647.548 0.560116 1.85947 0
M  V30 6766 C 644.678 1.39258 3.18158 0
M  V30 6767 C 643.632 2.51662 3.46194 0
M  V30 6768 C 642.958 2.27062 4.84094 0
M  V30 6769 C 644.258 3.93968 3.42909 0
M  V30 6770 H 645.952 2.43114 1.74745 0
M  V30 6771 H 643.498 1.17013 0.839288 0
M  V30 6772 H 645.451 1.42349 3.96629 0
M  V30 6773 H 644.175 0.415542 3.23946 0
M  V30 6774 H 642.834 2.47891 2.70084 0
M  V30 6775 H 642.482 1.27648 4.86534 0
M  V30 6776 H 642.182 3.02398 5.03815 0
M  V30 6777 H 643.706 2.31905 5.64847 0
M  V30 6778 H 645.12 3.99332 4.11347 0
M  V30 6779 H 643.517 4.6917 3.74165 0
M  V30 6780 H 644.587 4.20512 2.41449 0
M  V30 6781 N 645.93 -0.909495 1.28709 0
M  V30 6782 C 647.341 -1.47419 1.14563 0
M  V30 6783 C 647.692 -1.94432 -0.262832 0
M  V30 6784 O 646.817 -1.82842 -1.15748 0
M  V30 6785 C 647.412 -2.67933 2.07358 0
M  V30 6786 C 645.971 -3.20568 1.97264 0
M  V30 6787 C 645.118 -1.93269 1.98852 0
M  V30 6788 H 648.069 -0.721787 1.41336 0
M  V30 6789 H 648.09 -3.43339 1.64007 0
M  V30 6790 H 647.602 -2.33685 3.09859 0
M  V30 6791 H 645.703 -3.59531 0.978157 0
M  V30 6792 H 645.816 -3.85529 2.84436 0
M  V30 6793 H 644.18 -2.10553 1.43317 0
M  V30 6794 H 644.963 -1.61312 3.0304 0
M  V30 6795 N 647.408 -1.11026 -1.11852 0
M  V30 6796 C 648.371 -0.768006 -2.1595 0
M  V30 6797 C 649.371 0.210538 -1.59416 0
M  V30 6798 O 650.561 -0.0133978 -1.74195 0
M  V30 6799 C 647.693 -0.138678 -3.40618 0
M  V30 6800 H 648.886 -1.69012 -2.4774 0
M  V30 6801 H 646.439 -0.911578 -1.26964 0
M  V30 6802 H 647.174 0.793872 -3.14433 0
M  V30 6803 H 646.959 -0.843012 -3.8293 0
M  V30 6804 H 648.449 0.0848039 -4.17514 0
M  V30 6805 N 648.886 1.2938 -0.899927 0
M  V30 6806 C 650.132 1.9584 -0.526742 0
M  V30 6807 C 650.465 1.70774 0.924651 0
M  V30 6808 O 649.74 1.02084 1.65557 0
M  V30 6809 C 650.023 3.50638 -0.820062 0
M  V30 6810 C 649.876 3.85161 -2.32317 0
M  V30 6811 C 651.195 4.3903 -0.30671 0
M  V30 6812 H 648.314 0.711322 -0.192848 0
M  V30 6813 H 650.956 1.52992 -1.12665 0
M  V30 6814 H 649.106 3.87265 -0.309491 0
M  V30 6815 H 650.778 3.58477 -2.9033 0
M  V30 6816 H 649.021 3.32696 -2.78381 0
M  V30 6817 H 649.692 4.93204 -2.47898 0
M  V30 6818 H 652.168 4.09396 -0.743908 0
M  V30 6819 H 651.044 5.46226 -0.541144 0
M  V30 6820 H 651.305 4.34937 0.792588 0
M  V30 6821 N 650.364 0.662433 1.43002 0
M  V30 6822 C 651.312 -0.035345 2.32573 0
M  V30 6823 C 652.306 -0.803505 1.49131 0
M  V30 6824 O 653.512 -0.712865 1.65282 0
M  V30 6825 H 649.887 -0.0302194 0.751393 0
M  V30 6826 H 651.858 0.737686 2.89138 0
M  V30 6827 C 650.607 -0.981575 3.33557 0
M  V30 6828 H 649.93 -0.399914 3.97795 0
M  V30 6829 H 651.37 -1.43873 3.98844 0
M  V30 6830 C 649.829 -2.08204 2.64863 0
M  V30 6831 O 650.359 -3.16698 2.47113 0
M  V30 6832 N 648.565 -1.85022 2.24088 0
M  V30 6833 H 648.112 -0.967909 2.38724 0
M  V30 6834 H 648.07 -2.58845 1.78457 0
M  V30 6835 N 651.842 -1.52309 0.404946 0
M  V30 6836 C 653.067 -2.06666 -0.1743 0
M  V30 6837 C 653.492 -1.27341 -1.38441 0
M  V30 6838 O 652.85 -0.302539 -1.78758 0
M  V30 6839 C 652.898 -3.57014 -0.507262 0
M  V30 6840 O 652.002 -3.80144 -1.59889 0
M  V30 6841 H 651.343 -0.663807 -0.0160273 0
M  V30 6842 H 653.873 -1.96297 0.576937 0
M  V30 6843 H 653.883 -4.00724 -0.767098 0
M  V30 6844 H 652.558 -4.14184 0.377368 0
M  V30 6845 H 651.135 -3.48316 -1.33155 0
M  V30 6846 N 653.32 -0.135238 -1.57019 0
M  V30 6847 C 654.569 0.518694 -1.94917 0
M  V30 6848 C 654.882 1.66783 -1.0219 0
M  V30 6849 O 656.088 2.38561 -1.29619 0
M  V30 6850 C 654.544 0.974123 -3.46466 0
M  V30 6851 C 654.152 -0.147439 -4.47757 0
M  V30 6852 C 655.896 1.59851 -3.93253 0
M  V30 6853 C 653.803 0.325599 -5.90503 0
M  V30 6854 H 652.733 0.19754 -0.727663 0
M  V30 6855 H 655.384 -0.217698 -1.82204 0
M  V30 6856 H 653.766 1.76542 -3.5447 0
M  V30 6857 H 654.94 -0.924122 -4.51438 0
M  V30 6858 H 653.255 -0.679496 -4.10818 0
M  V30 6859 H 655.852 1.96385 -4.9733 0
M  V30 6860 H 656.195 2.48306 -3.3414 0
M  V30 6861 H 656.728 0.872323 -3.88118 0
M  V30 6862 H 653.467 -0.523295 -6.53408 0
M  V30 6863 H 652.987 1.06841 -5.90208 0
M  V30 6864 H 654.666 0.781498 -6.42263 0
M  V30 6865 N 654.798 1.5699 0.138552 0
M  V30 6866 C 656.026 1.87976 0.864437 0
M  V30 6867 C 656.441 0.724372 1.74351 0
M  V30 6868 O 655.798 -0.305575 1.79924 0
M  V30 6869 C 655.849 3.18276 1.71414 0
M  V30 6870 O 655.57 4.29365 0.870487 0
M  V30 6871 C 657.071 3.62834 2.54688 0
M  V30 6872 H 654.291 0.622878 0.249528 0
M  V30 6873 H 656.835 2.04094 0.128805 0
M  V30 6874 H 654.99 3.03886 2.40274 0
M  V30 6875 H 655.404 5.03924 1.45466 0
M  V30 6876 H 656.878 4.5682 3.0987 0
M  V30 6877 H 657.355 2.88533 3.31127 0
M  V30 6878 H 657.961 3.79946 1.91105 0
M  V30 6879 N 656.276 -0.40816 1.52223 0
M  V30 6880 C 657.506 -1.17501 1.69932 0
M  V30 6881 C 657.914 -1.84729 0.408874 0
M  V30 6882 O 657.257 -1.7274 -0.625025 0
M  V30 6883 C 657.319 -2.27994 2.77955 0
M  V30 6884 C 656.983 -1.80894 4.19674 0
M  V30 6885 C 657.98 -1.29618 5.03483 0
M  V30 6886 C 655.665 -1.87698 4.65913 0
M  V30 6887 C 657.659 -0.857695 6.31603 0
M  V30 6888 C 655.346 -1.43461 5.94022 0
M  V30 6889 C 656.344 -0.925822 6.76696 0
M  V30 6890 O 656.032 -0.489841 8.02406 0
M  V30 6891 H 655.764 -0.359065 0.572755 0
M  V30 6892 H 658.318 -0.486188 1.99563 0
M  V30 6893 H 656.548 -3.00243 2.43703 0
M  V30 6894 H 658.237 -2.89749 2.84254 0
M  V30 6895 H 659.003 -1.23733 4.68951 0
M  V30 6896 H 654.882 -2.26244 4.01665 0
M  V30 6897 H 658.426 -0.459879 6.96083 0
M  V30 6898 H 654.323 -1.49026 6.28062 0
M  V30 6899 H 655.091 -0.613062 8.16201 0
M  V30 6900 N 657.755 -1.42862 -0.66545 0
M  V30 6901 C 659.001 -1.44043 -1.42757 0
M  V30 6902 C 659.334 -0.0599629 -1.94107 0
M  V30 6903 O 658.609 0.917286 -1.71511 0
M  V30 6904 C 658.892 -2.47266 -2.61786 0
M  V30 6905 C 658.745 -3.94539 -2.16007 0
M  V30 6906 C 660.064 -2.47365 -3.64003 0
M  V30 6907 H 657.183 -0.524506 -0.517748 0
M  V30 6908 H 659.825 -1.74335 -0.755466 0
M  V30 6909 H 657.975 -2.21565 -3.19126 0
M  V30 6910 H 659.647 -4.31254 -1.63762 0
M  V30 6911 H 657.89 -4.07957 -1.47491 0
M  V30 6912 H 658.561 -4.62357 -3.01546 0
M  V30 6913 H 661.037 -2.70243 -3.16399 0
M  V30 6914 H 659.913 -3.21552 -4.44854 0
M  V30 6915 H 660.174 -1.50299 -4.15767 0
M  V30 6916 N 659.233 0.902656 -1.29189 0
M  V30 6917 C 660.163 2.02294 -1.16616 0
M  V30 6918 C 661.144 1.6999 -0.0611175 0
M  V30 6919 O 662.329 1.9271 -0.240072 0
M  V30 6920 C 659.459 3.37018 -0.83882 0
M  V30 6921 C 658.413 3.83522 -1.89986 0
M  V30 6922 C 657.739 5.15337 -1.42589 0
M  V30 6923 C 659.039 4.04169 -3.30824 0
M  V30 6924 H 660.733 2.13071 -2.10336 0
M  V30 6925 H 658.279 1.02378 -1.01266 0
M  V30 6926 H 660.232 4.14895 -0.737584 0
M  V30 6927 H 658.956 3.26325 0.134071 0
M  V30 6928 H 657.615 3.07859 -1.99043 0
M  V30 6929 H 657.263 5.01056 -0.441759 0
M  V30 6930 H 656.963 5.47423 -2.13547 0
M  V30 6931 H 658.487 5.95758 -1.3381 0
M  V30 6932 H 659.901 4.72537 -3.24626 0
M  V30 6933 H 658.298 4.47604 -3.99713 0
M  V30 6934 H 659.368 3.08604 -3.74021 0
M  V30 6935 N 660.711 1.11618 1.11262 0
M  V30 6936 C 662.127 0.850468 1.35053 0
M  V30 6937 C 662.327 -0.523868 1.94571 0
M  V30 6938 O 661.383 -1.2743 2.17986 0
M  V30 6939 C 662.696 1.96005 2.28041 0
M  V30 6940 C 664.244 1.98993 2.416 0
M  V30 6941 C 664.719 3.0916 3.37911 0
M  V30 6942 N 666.21 3.08547 3.45475 0
M  V30 6943 C 666.945 3.9043 4.19943 0
M  V30 6944 N 666.441 4.8228 4.97371 0
M  V30 6945 N 668.234 3.786 4.15474 0
M  V30 6946 H 660.385 2.00184 0.709932 0
M  V30 6947 H 662.648 0.870635 0.375099 0
M  V30 6948 H 662.354 2.9499 1.91503 0
M  V30 6949 H 662.228 1.85782 3.28275 0
M  V30 6950 H 664.615 1.00633 2.77411 0
M  V30 6951 H 664.696 2.13292 1.4121 0
M  V30 6952 H 664.34 4.07748 3.02827 0
M  V30 6953 H 664.27 2.92102 4.3816 0
M  V30 6954 H 666.761 2.42 2.90249 0
M  V30 6955 H 667.074 5.41289 5.51567 0
M  V30 6956 H 665.419 4.863 4.96525 0
M  V30 6957 H 668.61 3.06185 3.54074 0
M  V30 6958 H 668.783 4.42647 4.73253 0
M  V30 6959 N 662.189 -1.289 0.906776 0
M  V30 6960 C 663.436 -1.95269 0.536326 0
M  V30 6961 C 663.764 -1.71435 -0.918711 0
M  V30 6962 O 663.019 -1.02431 -1.66752 0
M  V30 6963 C 663.318 -3.48704 0.783617 0
M  V30 6964 C 662.984 -3.92626 2.21711 0
M  V30 6965 C 661.646 -4.04329 2.60906 0
M  V30 6966 C 663.998 -4.15218 3.15029 0
M  V30 6967 C 661.326 -4.35998 3.92584 0
M  V30 6968 C 663.678 -4.48365 4.46264 0
M  V30 6969 C 662.342 -4.58278 4.85322 0
M  V30 6970 H 661.612 -0.714538 0.196256 0
M  V30 6971 H 664.259 -1.53366 1.14678 0
M  V30 6972 H 662.564 -3.91696 0.0903048 0
M  V30 6973 H 664.261 -3.98162 0.476267 0
M  V30 6974 H 660.851 -3.84038 1.90296 0
M  V30 6975 H 665.035 -4.05636 2.8596 0
M  V30 6976 H 660.291 -4.41878 4.22557 0
M  V30 6977 H 664.465 -4.64795 5.18593 0
M  V30 6978 H 662.092 -4.82573 5.87391 0
M  V30 6979 N 663.667 -0.670007 -1.42649 0
M  V30 6980 C 664.597 -0.00258501 -2.335 0
M  V30 6981 C 665.578 0.794364 -1.50412 0
M  V30 6982 O 666.763 0.75248 -1.79029 0
M  V30 6983 C 663.893 0.952748 -3.33976 0
M  V30 6984 C 662.847 0.264733 -4.2718 0
M  V30 6985 C 662.173 1.33267 -5.17826 0
M  V30 6986 C 663.473 -0.853289 -5.15283 0
M  V30 6987 H 665.167 -0.761326 -2.89559 0
M  V30 6988 H 662.713 -0.367561 -1.3923 0
M  V30 6989 H 664.666 1.4287 -3.96442 0
M  V30 6990 H 663.39 1.74285 -2.7621 0
M  V30 6991 H 662.049 -0.190938 -3.66102 0
M  V30 6992 H 661.697 2.11464 -4.5639 0
M  V30 6993 H 661.397 0.877476 -5.81011 0
M  V30 6994 H 662.921 1.80965 -5.83167 0
M  V30 6995 H 664.335 -0.458763 -5.71462 0
M  V30 6996 H 662.732 -1.23398 -5.87276 0
M  V30 6997 H 663.802 -1.70412 -4.53969 0
M  V30 6998 N 665.145 1.52092 -0.413018 0
M  V30 6999 C 666.055 2.30858 0.417318 0
M  V30 7000 C 667.071 1.38746 1.05003 0
M  V30 7001 O 668.247 1.71821 1.05069 0
M  V30 7002 C 665.312 3.11756 1.51687 0
M  V30 7003 C 664.373 4.19613 0.906825 0
M  V30 7004 C 663.606 4.96644 1.95399 0
M  V30 7005 O 663.829 4.7402 3.17271 0
M  V30 7006 O 662.763 5.81385 1.55805 0
M  V30 7007 H 666.589 3.02865 -0.225028 0
M  V30 7008 H 664.174 1.48358 -0.176126 0
M  V30 7009 H 666.056 3.62122 2.15512 0
M  V30 7010 H 664.731 2.42539 2.14375 0
M  V30 7011 H 663.638 3.73385 0.231183 0
M  V30 7012 H 664.971 4.91134 0.323814 0
M  V30 7013 N 666.623 0.143563 1.56945 0
M  V30 7014 C 667.57 -0.797433 2.16586 0
M  V30 7015 C 668.54 -1.24654 1.09775 0
M  V30 7016 O 669.725 -1.31968 1.37801 0
M  V30 7017 C 666.865 -2.03253 2.78895 0
M  V30 7018 C 665.978 -1.62954 4.00087 0
M  V30 7019 C 665.113 -2.81617 4.50406 0
M  V30 7020 C 664.152 -2.37675 5.64072 0
M  V30 7021 N 663.289 -3.49335 6.09023 0
M  V30 7022 H 668.129 -0.282023 2.96662 0
M  V30 7023 H 665.666 -0.127494 1.46546 0
M  V30 7024 H 667.624 -2.75653 3.13163 0
M  V30 7025 H 666.254 -2.52211 2.01469 0
M  V30 7026 H 665.306 -0.803322 3.71821 0
M  V30 7027 H 666.618 -1.26679 4.82446 0
M  V30 7028 H 665.772 -3.62212 4.86711 0
M  V30 7029 H 664.511 -3.21134 3.67048 0
M  V30 7030 H 663.516 -1.55519 5.27346 0
M  V30 7031 H 664.741 -1.99247 6.49213 0
M  V30 7032 H 662.687 -3.8848 5.28601 0
M  V30 7033 H 662.604 -3.17064 6.86299 0
M  V30 7034 H 663.872 -4.30297 6.49973 0
M  V30 7035 N 668.101 -1.57061 -0.130224 0
M  V30 7036 C 669.031 -2.02552 -1.16168 0
M  V30 7037 C 670.012 -0.907971 -1.4384 0
M  V30 7038 O 671.197 -1.17693 -1.54473 0
M  V30 7039 C 668.327 -2.42035 -2.49071 0
M  V30 7040 C 667.281 -3.5713 -2.35886 0
M  V30 7041 C 666.607 -3.82478 -3.7365 0
M  V30 7042 C 667.907 -4.89236 -1.8288 0
M  V30 7043 H 669.601 -2.8897 -0.783359 0
M  V30 7044 H 667.147 -1.39021 -0.375376 0
M  V30 7045 H 669.1 -2.72462 -3.21469 0
M  V30 7046 H 667.824 -1.52573 -2.88771 0
M  V30 7047 H 666.483 -3.26895 -1.65938 0
M  V30 7048 H 666.131 -2.9024 -4.10816 0
M  V30 7049 H 665.831 -4.59944 -3.65685 0
M  V30 7050 H 667.355 -4.15347 -4.47571 0
M  V30 7051 H 668.769 -5.18272 -2.45085 0
M  V30 7052 H 667.166 -5.70624 -1.85763 0
M  V30 7053 H 668.236 -4.78494 -0.785571 0
M  V30 7054 N 669.579 0.400081 -1.52437 0
M  V30 7055 C 670.819 1.15526 -1.68622 0
M  V30 7056 C 671.183 1.87533 -0.411744 0
M  V30 7057 O 672.384 2.6501 -0.449804 0
M  V30 7058 C 670.655 2.11618 -2.88015 0
M  V30 7059 S 672.214 2.95121 -3.24729 0
M  V30 7060 H 669.032 0.39123 -0.593683 0
M  V30 7061 H 671.634 0.441255 -1.90455 0
M  V30 7062 H 670.338 1.5742 -3.79008 0
M  V30 7063 H 669.869 2.87544 -2.68481 0
M  V30 7064 H 671.884 4.13653 -2.74055 0
M  V30 7065 N 671.057 1.43213 0.657864 0
M  V30 7066 C 672.007 1.44459 1.76396 0
M  V30 7067 C 672.991 0.313641 1.57814 0
M  V30 7068 O 674.183 0.557094 1.68004 0
M  V30 7069 C 671.312 1.36586 3.14959 0
M  V30 7070 C 670.398 2.54692 3.39106 0
M  V30 7071 N 670.789 3.80059 3.33749 0
M  V30 7072 C 669.087 2.49316 3.69807 0
M  V30 7073 C 669.788 4.58606 3.57849 0
M  V30 7074 N 668.764 3.89267 3.79437 0
M  V30 7075 H 672.566 2.39265 1.70673 0
M  V30 7076 H 670.08 1.378 0.859357 0
M  V30 7077 H 672.077 1.35561 3.94245 0
M  V30 7078 H 670.737 0.427956 3.21867 0
M  V30 7079 H 671.748 4.12414 3.13266 0
M  V30 7080 H 668.425 1.6419 3.83859 0
M  V30 7081 H 669.815 5.67619 3.59525 0
M  V30 7082 N 672.536 -0.895792 1.29666 0
M  V30 7083 C 673.484 -2.02173 1.15017 0
M  V30 7084 C 674.478 -1.69276 0.0647651 0
M  V30 7085 O 675.684 -1.7859 0.224846 0
M  V30 7086 H 672.059 -0.662719 0.355397 0
M  V30 7087 H 674.03 -2.11666 2.10334 0
M  V30 7088 C 672.779 -3.37212 0.847555 0
M  V30 7089 H 672.102 -3.6303 1.67479 0
M  V30 7090 H 673.542 -4.16668 0.785106 0
M  V30 7091 C 672.001 -3.33891 -0.44929 0
M  V30 7092 O 672.531 -3.73673 -1.47415 0
M  V30 7093 N 670.737 -2.86991 -0.456547 0
M  V30 7094 H 670.284 -2.54813 0.377925 0
M  V30 7095 H 670.242 -2.85152 -1.32423 0
M  V30 7096 N 674.014 -1.12206 -1.10668 0
M  V30 7097 C 674.944 -0.810086 -2.18997 0
M  V30 7098 C 675.925 0.225065 -1.68604 0
M  V30 7099 O 677.11 0.086783 -1.94006 0
M  V30 7100 C 674.24 -0.261262 -3.46316 0
M  V30 7101 C 673.194 -1.2292 -4.09969 0
M  V30 7102 C 672.52 -0.540713 -5.31959 0
M  V30 7103 C 673.82 -2.58295 -4.53962 0
M  V30 7104 H 675.514 -1.7159 -2.45352 0
M  V30 7105 H 673.06 -0.82646 -1.17922 0
M  V30 7106 H 675.013 -0.0307522 -4.21389 0
M  V30 7107 H 673.737 0.679879 -3.19445 0
M  V30 7108 H 672.396 -1.44548 -3.369 0
M  V30 7109 H 672.044 0.405492 -5.01363 0
M  V30 7110 H 671.744 -1.18637 -5.75499 0
M  V30 7111 H 673.268 -0.319184 -6.09765 0
M  V30 7112 H 674.682 -2.40709 -5.20319 0
M  V30 7113 H 673.079 -3.18916 -5.08343 0
M  V30 7114 H 674.149 -3.16918 -3.67002 0
M  V30 7115 N 675.492 1.28418 -0.913599 0
M  V30 7116 C 676.908 1.47411 -0.611728 0
M  V30 7117 C 677.108 1.83018 0.843008 0
M  V30 7118 O 676.164 1.93505 1.6221 0
M  V30 7119 C 677.477 2.57703 -1.5495 0
M  V30 7120 C 679.025 2.71572 -1.5562 0
M  V30 7121 C 679.5 3.85008 -2.48058 0
M  V30 7122 N 680.991 3.92361 -2.46184 0
M  V30 7123 C 681.726 4.79516 -3.14407 0
M  V30 7124 N 681.222 5.71262 -3.91958 0
M  V30 7125 N 683.015 4.73125 -3.03495 0
M  V30 7126 H 675.166 1.03585 -1.85429 0
M  V30 7127 H 677.429 0.515907 -0.795326 0
M  V30 7128 H 677.135 2.38298 -2.58663 0
M  V30 7129 H 677.009 3.54801 -1.28048 0
M  V30 7130 H 679.396 2.90366 -0.526441 0
M  V30 7131 H 679.477 1.75006 -1.86565 0
M  V30 7132 H 679.121 3.66969 -3.51136 0
M  V30 7133 H 679.051 4.80971 -2.14416 0
M  V30 7134 H 681.542 3.26749 -1.89851 0
M  V30 7135 H 681.855 6.34593 -4.41034 0
M  V30 7136 H 680.2 5.71103 -3.96063 0
M  V30 7137 H 683.391 4.00442 -2.42413 0
M  V30 7138 H 683.564 5.40834 -3.56935 0
M  V30 7139 N 676.97 0.677563 1.42291 0
M  V30 7140 C 678.195 0.207901 2.06355 0
M  V30 7141 C 678.62 -1.12723 1.50583 0
M  V30 7142 O 677.978 -1.70171 0.62543 0
M  V30 7143 C 678.026 0.156489 3.6026 0
M  V30 7144 O 677.13 -0.874162 4.03029 0
M  V30 7145 H 676.471 0.106056 0.655475 0
M  V30 7146 H 679.001 0.927354 1.82377 0
M  V30 7147 H 679.011 -0.0187258 4.07996 0
M  V30 7148 H 677.686 1.13101 4.00226 0
M  V30 7149 H 676.263 -0.669764 3.66836 0
M  V30 7150 N 678.448 -1.51871 0.421078 0
M  V30 7151 C 679.725 -1.9447 -0.20993 0
M  V30 7152 C 680.105 -1.35875 -1.61558 0
M  V30 7153 O 679.453 -0.539294 -2.22045 0
M  V30 7154 C 679.663 -3.48402 -0.204165 0
M  V30 7155 C 681.011 -4.2254 -0.417696 0
M  V30 7156 O 682.035 -3.55074 -0.282999 0
M  V30 7157 O 680.894 -5.422 -0.684239 0
M  V30 7158 H 677.988 -0.815283 -0.138718 0
M  V30 7159 H 680.534 -1.62832 0.477884 0
M  V30 7160 H 679.306 -3.83464 0.779183 0
M  V30 7161 H 678.929 -3.86436 -0.935576 0
M  V30 7162 N 679.926 -0.151884 -1.56866 0
M  V30 7163 C 680.874 0.80299 -2.183 0
M  V30 7164 C 681.868 1.25174 -1.14139 0
M  V30 7165 O 683.074 1.21966 -1.3238 0
M  V30 7166 H 679.449 0.277169 -0.699057 0
M  V30 7167 H 681.42 0.260699 -2.97259 0
M  V30 7168 C 680.169 2.03009 -2.82281 0
M  V30 7169 H 679.492 1.69377 -3.62148 0
M  V30 7170 H 680.932 2.67753 -3.28762 0
M  V30 7171 C 679.391 2.84123 -1.81041 0
M  V30 7172 O 679.921 3.8063 -1.28388 0
M  V30 7173 N 678.127 2.48753 -1.50234 0
M  V30 7174 H 677.674 1.70337 -1.93244 0
M  V30 7175 H 677.632 3.03316 -0.827445 0
M  V30 7176 N 681.404 1.57128 0.121893 0
M  V30 7177 C 682.334 2.03165 1.15092 0
M  V30 7178 C 683.315 0.915587 1.43356 0
M  V30 7179 O 684.5 1.1851 1.53847 0
M  V30 7180 C 681.63 2.43352 2.47784 0
M  V30 7181 C 680.584 3.58376 2.33989 0
M  V30 7182 C 679.91 3.84454 3.71617 0
M  V30 7183 C 681.21 4.90199 1.80283 0
M  V30 7184 H 682.904 2.89382 0.768023 0
M  V30 7185 H 680.45 1.39218 0.367998 0
M  V30 7186 H 682.403 2.74163 3.20019 0
M  V30 7187 H 681.127 1.54103 2.87958 0
M  V30 7188 H 679.786 3.2777 1.64202 0
M  V30 7189 H 679.434 2.92414 4.09271 0
M  V30 7190 H 679.134 4.61877 3.6324 0
M  V30 7191 H 680.658 4.17714 4.45362 0
M  V30 7192 H 682.072 5.19565 2.42333 0
M  V30 7193 H 680.469 5.71601 1.82735 0
M  V30 7194 H 681.539 4.78904 0.760184 0
M  V30 7195 N 682.882 -0.391992 1.52647 0
M  V30 7196 C 684.129 -1.13732 1.67545 0
M  V30 7197 C 684.457 -1.90045 0.413881 0
M  V30 7198 O 683.712 -1.86157 -0.603646 0
M  V30 7199 C 684.011 -2.14401 2.85949 0
M  V30 7200 C 683.677 -1.54767 4.23507 0
M  V30 7201 C 682.339 -1.38229 4.60919 0
M  V30 7202 C 684.691 -1.11382 5.0916 0
M  V30 7203 C 682.019 -0.7685 5.81645 0
M  V30 7204 C 684.371 -0.514143 6.30507 0
M  V30 7205 C 683.035 -0.33604 6.66654 0
M  V30 7206 H 682.305 -0.416174 0.613091 0
M  V30 7207 H 684.952 -0.422327 1.86785 0
M  V30 7208 H 683.257 -2.92108 2.61114 0
M  V30 7209 H 684.954 -2.71974 2.94671 0
M  V30 7210 H 681.544 -1.68626 3.94035 0
M  V30 7211 H 685.728 -1.22962 4.80826 0
M  V30 7212 H 680.984 -0.618681 6.08262 0
M  V30 7213 H 685.158 -0.169657 6.96193 0
M  V30 7214 H 682.785 0.14166 7.60068 0
M  V30 7215 N 684.36 -1.4356 -0.65026 0
M  V30 7216 C 685.608 -1.45046 -1.40734 0
M  V30 7217 C 685.929 -0.0769822 -1.94848 0
M  V30 7218 O 685.199 0.888098 -1.74613 0
M  V30 7219 H 683.779 -0.534034 -0.522318 0
M  V30 7220 H 686.441 -1.79186 -0.766703 0
M  V30 7221 H 685.537 -2.16476 -2.24822 0
M  V30 7222 N 685.838 0.888903 -1.30139 0
M  V30 7223 C 686.786 2.0156 -1.16088 0
M  V30 7224 C 687.78 1.69239 -0.0737413 0
M  V30 7225 O 688.986 1.78468 -0.234313 0
M  V30 7226 H 685.361 0.660825 -0.358907 0
M  V30 7227 H 687.332 2.10547 -2.11453 0
M  V30 7228 C 686.081 3.36758 -0.865426 0
M  V30 7229 H 685.404 3.62137 -1.69402 0
M  V30 7230 H 686.844 4.16246 -0.807192 0
M  V30 7231 C 685.303 3.34124 0.431577 0
M  V30 7232 O 685.833 3.7445 1.45431 0
M  V30 7233 N 684.039 2.87229 0.441321 0
M  V30 7234 H 683.586 2.54609 -0.391433 0
M  V30 7235 H 683.544 2.8585 1.30909 0
M  V30 7236 N 687.317 1.12792 1.10072 0
M  V30 7237 C 688.249 0.757003 2.16338 0
M  V30 7238 C 689.262 -0.218144 1.61332 0
M  V30 7239 O 690.451 0.0010727 1.785 0
M  V30 7240 C 687.551 0.100303 3.38752 0
M  V30 7241 C 686.724 1.10586 4.2319 0
M  V30 7242 C 685.783 0.47609 5.24042 0
M  V30 7243 O 684.809 1.13418 5.57786 0
M  V30 7244 N 686.011 -0.754823 5.75572 0
M  V30 7245 H 688.776 1.6714 2.48766 0
M  V30 7246 H 686.337 1.02003 1.25726 0
M  V30 7247 H 688.329 -0.333092 4.03327 0
M  V30 7248 H 686.899 -0.716915 3.04268 0
M  V30 7249 H 686.119 1.71677 3.54853 0
M  V30 7250 H 687.407 1.78571 4.76435 0
M  V30 7251 H 686.805 -1.30838 5.50362 0
M  V30 7252 H 685.362 -1.13098 6.41913 0
M  V30 7253 N 688.795 -1.27931 0.920396 0
M  V30 7254 C 690.206 -1.76707 0.602616 0
M  V30 7255 C 690.557 -1.75249 -0.882159 0
M  V30 7256 O 689.682 -1.35135 -1.69019 0
M  V30 7257 C 690.277 -3.20884 1.08714 0
M  V30 7258 C 688.836 -3.67356 0.820157 0
M  V30 7259 C 687.983 -2.47525 1.25006 0
M  V30 7260 H 690.934 -1.14301 1.10095 0
M  V30 7261 H 690.955 -3.78045 0.431535 0
M  V30 7262 H 690.467 -3.21913 2.1678 0
M  V30 7263 H 688.568 -3.7178 -0.247012 0
M  V30 7264 H 688.681 -4.57181 1.43257 0
M  V30 7265 H 687.045 -2.45765 0.668698 0
M  V30 7266 H 687.828 -2.51269 2.3392 0
M  V30 7267 N 690.273 -0.685099 -1.4193 0
M  V30 7268 C 691.52 -0.211658 -2.01391 0
M  V30 7269 C 691.848 1.18526 -1.54214 0
M  V30 7270 O 691.103 1.81189 -0.739519 0
M  V30 7271 C 691.402 -0.206154 -3.56805 0
M  V30 7272 C 691.068 -1.54915 -4.23453 0
M  V30 7273 C 689.73 -1.91684 -4.41373 0
M  V30 7274 C 692.082 -2.43317 -4.60919 0
M  V30 7275 C 689.41 -3.16461 -4.94034 0
M  V30 7276 C 691.762 -3.67415 -5.14965 0
M  V30 7277 C 690.426 -4.04341 -5.31098 0
M  V30 7278 H 689.696 -0.0774511 -0.736941 0
M  V30 7279 H 692.343 -0.882121 -1.69973 0
M  V30 7280 H 690.648 0.547841 -3.87951 0
M  V30 7281 H 692.345 0.17753 -4.00607 0
M  V30 7282 H 688.935 -1.25314 -4.09871 0
M  V30 7283 H 693.119 -2.16192 -4.46738 0
M  V30 7284 H 688.375 -3.45078 -5.04709 0
M  V30 7285 H 692.549 -4.3611 -5.42938 0
M  V30 7286 H 690.176 -5.01101 -5.71666 0
M  V30 7287 N 691.751 1.51645 -0.429126 0
M  V30 7288 C 692.979 2.06433 0.138994 0
M  V30 7289 C 693.394 1.29735 1.37165 0
M  V30 7290 O 692.751 0.354638 1.79021 0
M  V30 7291 C 692.802 3.58439 0.469452 0
M  V30 7292 O 692.523 4.32238 -0.714273 0
M  V30 7293 C 694.024 4.29712 1.08914 0
M  V30 7294 H 691.244 0.6709 0.0115608 0
M  V30 7295 H 693.788 1.9532 -0.605843 0
M  V30 7296 H 691.943 3.69494 1.16419 0
M  V30 7297 H 692.357 5.22704 -0.433633 0
M  V30 7298 H 693.831 5.37182 1.27042 0
M  V30 7299 H 694.308 3.87473 2.06788 0
M  V30 7300 H 694.914 4.2308 0.434028 0
M  V30 7301 N 693.229 0.160201 1.56784 0
M  V30 7302 C 694.161 -0.80564 2.14574 0
M  V30 7303 C 695.174 -1.20154 1.09849 0
M  V30 7304 O 696.363 -1.14333 1.37078 0
M  V30 7305 C 693.463 -2.09434 2.6644 0
M  V30 7306 C 692.636 -1.86375 3.95706 0
M  V30 7307 C 691.695 -2.99358 4.32749 0
M  V30 7308 O 690.721 -2.70475 5.00831 0
M  V30 7309 N 691.923 -4.26867 3.93402 0
M  V30 7310 H 694.688 -0.311644 2.98075 0
M  V30 7311 H 692.249 -0.0229465 1.61884 0
M  V30 7312 H 694.241 -2.84091 2.88226 0
M  V30 7313 H 692.811 -2.50057 1.8759 0
M  V30 7314 H 692.031 -0.956821 3.82412 0
M  V30 7315 H 693.319 -1.68322 4.80151 0
M  V30 7316 H 692.717 -4.53197 3.38569 0
M  V30 7317 H 691.274 -4.98263 4.20211 0
M  V30 7318 N 694.707 -1.5719 -0.113559 0
M  V30 7319 C 695.935 -1.89328 -0.834422 0
M  V30 7320 C 696.35 -0.752018 -1.73177 0
M  V30 7321 O 695.707 0.276912 -1.80387 0
M  V30 7322 C 695.758 -3.20962 -1.66329 0
M  V30 7323 O 695.479 -4.30695 -0.802069 0
M  V30 7324 C 696.98 -3.6684 -2.48884 0
M  V30 7325 H 694.2 -0.626769 -0.239587 0
M  V30 7326 H 696.744 -2.04273 -0.0963195 0
M  V30 7327 H 694.899 -3.0767 -2.35409 0
M  V30 7328 H 695.313 -5.06175 -1.37431 0
M  V30 7329 H 696.787 -4.61692 -3.02563 0
M  V30 7330 H 697.264 -2.93765 -3.26495 0
M  V30 7331 H 697.87 -3.82938 -1.85036 0
M  V30 7332 N 696.185 0.383891 -1.52853 0
M  V30 7333 C 697.135 1.46892 -1.74375 0
M  V30 7334 C 698.119 1.49378 -0.597909 0
M  V30 7335 O 699.311 1.54929 -0.855929 0
M  V30 7336 C 696.44 2.84547 -1.92063 0
M  V30 7337 C 695.526 2.8661 -3.12594 0
M  V30 7338 N 695.917 2.58339 -4.3485 0
M  V30 7339 C 694.215 3.17777 -3.12944 0
M  V30 7340 C 694.916 2.67616 -5.16485 0
M  V30 7341 N 693.892 3.01561 -4.52285 0
M  V30 7342 H 697.694 1.23869 -2.66522 0
M  V30 7343 H 695.208 0.591895 -1.51229 0
M  V30 7344 H 697.205 3.62674 -2.05604 0
M  V30 7345 H 695.865 3.08549 -1.01133 0
M  V30 7346 H 696.876 2.32266 -4.62896 0
M  V30 7347 H 693.553 3.47211 -2.31842 0
M  V30 7348 H 694.943 2.4926 -6.23955 0
M  V30 7349 N 697.663 1.43903 0.642637 0
M  V30 7350 C 698.593 1.52697 1.76652 0
M  V30 7351 C 699.574 0.380816 1.65782 0
M  V30 7352 O 700.759 0.599432 1.84717 0
M  V30 7353 C 697.889 1.45975 3.15133 0
M  V30 7354 C 696.843 2.58949 3.40778 0
M  V30 7355 C 696.169 2.37279 4.79169 0
M  V30 7356 C 697.469 4.01153 3.34475 0
M  V30 7357 H 699.163 2.46766 1.69549 0
M  V30 7358 H 696.709 1.18767 0.814279 0
M  V30 7359 H 698.662 1.5073 3.93521 0
M  V30 7360 H 697.386 0.484162 3.22991 0
M  V30 7361 H 696.045 2.53564 2.64765 0
M  V30 7362 H 695.693 1.37939 4.83717 0
M  V30 7363 H 695.393 3.13016 4.97287 0
M  V30 7364 H 696.917 2.43834 5.59801 0
M  V30 7365 H 698.331 4.07968 4.02784 0
M  V30 7366 H 696.728 4.77001 3.64129 0
M  V30 7367 H 697.798 4.25539 2.32475 0
M  V30 7368 N 699.141 -0.881989 1.30609 0
M  V30 7369 C 700.366 -1.67236 1.22665 0
M  V30 7370 C 700.791 -1.8696 -0.206777 0
M  V30 7371 O 700.149 -1.4027 -1.14865 0
M  V30 7372 C 700.197 -3.02446 1.96363 0
M  V30 7373 O 699.301 -3.91614 1.29276 0
M  V30 7374 H 698.642 -0.510902 0.424117 0
M  V30 7375 H 701.172 -1.10055 1.72479 0
M  V30 7376 H 701.182 -3.52468 2.055 0
M  V30 7377 H 699.857 -2.8741 3.00613 0
M  V30 7378 H 698.434 -3.50055 1.28514 0
M  V30 7379 N 700.619 -1.13374 -1.09472 0
M  V30 7380 C 701.549 -0.833268 -2.18126 0
M  V30 7381 C 702.53 0.207169 -1.68834 0
M  V30 7382 O 703.715 0.0662012 -1.94087 0
M  V30 7383 C 700.845 -0.297979 -3.46019 0
M  V30 7384 C 699.799 -1.27261 -4.08642 0
M  V30 7385 C 699.125 -0.597104 -5.31356 0
M  V30 7386 C 700.425 -2.63095 -4.51197 0
M  V30 7387 H 702.119 -1.74182 -2.43518 0
M  V30 7388 H 699.665 -0.838921 -1.17039 0
M  V30 7389 H 701.618 -0.0754444 -4.21332 0
M  V30 7390 H 700.342 0.645959 -3.20148 0
M  V30 7391 H 699.001 -1.48113 -3.35348 0
M  V30 7392 H 698.649 0.352293 -5.01765 0
M  V30 7393 H 698.349 -1.24734 -5.74208 0
M  V30 7394 H 699.873 -0.38384 -6.09392 0
M  V30 7395 H 701.287 -2.46214 -5.17737 0
M  V30 7396 H 699.684 -3.2429 -5.04932 0
M  V30 7397 H 700.754 -3.20793 -3.6362 0
M  V30 7398 N 702.098 1.27442 -0.927168 0
M  V30 7399 C 703.326 1.98498 -0.583622 0
M  V30 7400 C 703.741 1.69171 0.838241 0
M  V30 7401 O 703.098 0.951969 1.55704 0
M  V30 7402 C 703.149 3.52552 -0.799341 0
M  V30 7403 O 702.87 3.80851 -2.16527 0
M  V30 7404 C 704.371 4.4086 -0.464436 0
M  V30 7405 H 701.591 0.633487 -0.221213 0
M  V30 7406 H 704.135 1.62308 -1.24404 0
M  V30 7407 H 702.29 3.86955 -0.185728 0
M  V30 7408 H 702.704 4.75441 -2.21487 0
M  V30 7409 H 704.178 5.47967 -0.666075 0
M  V30 7410 H 704.655 4.35082 0.599995 0
M  V30 7411 H 705.261 4.11977 -1.05617 0
M  V30 7412 N 703.576 0.692616 1.41565 0
M  V30 7413 C 704.539 0.0344174 2.29174 0
M  V30 7414 C 705.539 -0.710961 1.44229 0
M  V30 7415 O 706.729 -0.546293 1.65412 0
M  V30 7416 C 703.861 -0.961682 3.27054 0
M  V30 7417 H 705.054 0.805755 2.88873 0
M  V30 7418 H 702.607 0.455947 1.49502 0
M  V30 7419 H 703.342 -1.76089 2.72329 0
M  V30 7420 H 703.127 -0.430375 3.89731 0
M  V30 7421 H 704.617 -1.4201 3.92712 0
M  V30 7422 N 705.054 -1.51416 0.437162 0
M  V30 7423 C 706.303 -2.01275 -0.130865 0
M  V30 7424 C 706.616 -1.32593 -1.438 0
M  V30 7425 O 707.822 -1.7342 -2.08897 0
M  V30 7426 C 706.278 -3.5878 -0.283763 0
M  V30 7427 C 705.886 -4.36399 1.01293 0
M  V30 7428 C 707.63 -4.16786 -0.805569 0
M  V30 7429 C 705.537 -5.85608 0.825687 0
M  V30 7430 H 704.467 -0.752157 -0.0526818 0
M  V30 7431 H 707.118 -1.74524 0.566896 0
M  V30 7432 H 705.5 -3.81976 -1.04452 0
M  V30 7433 H 706.674 -4.24948 1.78201 0
M  V30 7434 H 704.989 -3.89843 1.46326 0
M  V30 7435 H 707.586 -5.25972 -0.962146 0
M  V30 7436 H 707.929 -3.75949 -1.78796 0
M  V30 7437 H 708.462 -3.97666 -0.103125 0
M  V30 7438 H 705.201 -6.30857 1.78045 0
M  V30 7439 H 704.721 -5.99723 0.0964029 0
M  V30 7440 H 706.4 -6.45226 0.478815 0
M  V30 7441 N 706.532 -0.168513 -1.56696 0
M  V30 7442 C 707.442 0.775435 -2.21414 0
M  V30 7443 C 708.458 1.25529 -1.20492 0
M  V30 7444 O 709.634 1.30801 -1.53144 0
M  V30 7445 C 706.699 1.9886 -2.83999 0
M  V30 7446 C 705.76 1.5559 -4.00113 0
M  V30 7447 C 704.993 2.71124 -4.59704 0
M  V30 7448 O 705.216 3.87917 -4.18182 0
M  V30 7449 O 704.15 2.4536 -5.4962 0
M  V30 7450 H 707.976 0.254416 -3.02632 0
M  V30 7451 H 705.561 0.0595507 -1.49281 0
M  V30 7452 H 707.443 2.69816 -3.23693 0
M  V30 7453 H 706.118 2.49874 -2.05779 0
M  V30 7454 H 705.025 0.815924 -3.65094 0
M  V30 7455 H 706.358 1.09271 -4.79917 0
M  V30 7456 N 708.01 1.57248 0.105221 0
M  V30 7457 C 709.24 1.89492 0.823175 0
M  V30 7458 C 709.648 0.75934 1.73294 0
M  V30 7459 O 708.991 -0.278182 1.81581 0
M  V30 7460 C 709.053 3.16891 1.69765 0
M  V30 7461 C 708.717 4.46787 0.960769 0
M  V30 7462 C 709.714 5.19061 0.295218 0
M  V30 7463 C 707.399 4.93467 0.937854 0
M  V30 7464 C 709.393 6.36246 -0.383393 0
M  V30 7465 C 707.08 6.10566 0.255452 0
M  V30 7466 C 708.078 6.81804 -0.404003 0
M  V30 7467 O 707.766 7.96673 -1.07549 0
M  V30 7468 H 707.498 0.631512 0.24118 0
M  V30 7469 H 710.052 2.05203 0.0899655 0
M  V30 7470 H 708.282 2.973 2.47285 0
M  V30 7471 H 709.971 3.35046 2.29126 0
M  V30 7472 H 710.737 4.84044 0.304448 0
M  V30 7473 H 706.616 4.37913 1.44058 0
M  V30 7474 H 710.16 6.91787 -0.898696 0
M  V30 7475 H 706.057 6.45039 0.244032 0
M  V30 7476 H 706.825 8.12596 -0.981355 0
M  V30 7477 N 709.488 -0.375779 1.53054 0
M  V30 7478 C 710.713 -1.14484 1.7294 0
M  V30 7479 C 711.138 -1.82572 0.452668 0
M  V30 7480 O 710.496 -1.71343 -0.592567 0
M  V30 7481 C 710.544 -2.15857 2.88857 0
M  V30 7482 O 709.648 -3.22725 2.56753 0
M  V30 7483 H 708.989 -0.332666 0.574656 0
M  V30 7484 H 711.519 -0.436025 1.999 0
M  V30 7485 H 711.529 -2.59631 3.14731 0
M  V30 7486 H 710.204 -1.65689 3.81471 0
M  V30 7487 H 708.781 -2.83996 2.41663 0
M  V30 7488 N 710.966 -1.44241 -0.634997 0
M  V30 7489 C 711.916 -1.47247 -1.74076 0
M  V30 7490 C 712.9 -0.338708 -1.57295 0
M  V30 7491 O 714.092 -0.583751 -1.67097 0
M  V30 7492 C 711.221 -1.41579 -3.12746 0
M  V30 7493 C 710.307 -2.60055 -3.35011 0
M  V30 7494 N 710.698 -3.85321 -3.27661 0
M  V30 7495 C 708.996 -2.55168 -3.65794 0
M  V30 7496 C 709.697 -4.64241 -3.50508 0
M  V30 7497 N 708.673 -3.95254 -3.73196 0
M  V30 7498 H 712.475 -2.4195 -1.66845 0
M  V30 7499 H 709.989 -1.3915 -0.837326 0
M  V30 7500 H 711.986 -1.41816 -3.92038 0
M  V30 7501 H 710.646 -0.479108 -3.21146 0
M  V30 7502 H 711.657 -4.17345 -3.06665 0
M  V30 7503 H 708.334 -1.70276 -3.81198 0
M  V30 7504 H 709.724 -5.73267 -3.50449 0
M  V30 7505 N 712.444 0.87505 -1.31075 0
M  V30 7506 C 713.669 1.66583 -1.23551 0
M  V30 7507 C 714.094 1.87067 0.19686 0
M  V30 7508 O 713.452 1.40877 1.1412 0
M  V30 7509 C 713.5 3.01401 -1.97965 0
M  V30 7510 O 712.604 3.90923 -1.31351 0
M  V30 7511 H 711.945 0.508645 -0.426821 0
M  V30 7512 H 714.475 1.09139 -1.7306 0
M  V30 7513 H 714.485 3.51374 -2.07366 0
M  V30 7514 H 713.16 2.85812 -3.02133 0
M  V30 7515 H 711.737 3.49369 -1.30368 0
M  V30 7516 N 713.922 1.13953 1.08869 0
M  V30 7517 C 714.872 0.790812 2.13846 0
M  V30 7518 C 715.856 -0.217819 1.59419 0
M  V30 7519 O 717.048 -0.0208723 1.76988 0
M  V30 7520 C 714.177 0.26479 3.42277 0
M  V30 7521 C 713.263 1.30267 4.03598 0
M  V30 7522 N 713.654 2.50535 4.39393 0
M  V30 7523 C 711.952 1.15178 4.30871 0
M  V30 7524 C 712.653 3.16938 4.87776 0
M  V30 7525 N 711.629 2.44349 4.85587 0
M  V30 7526 H 715.431 1.70577 2.39334 0
M  V30 7527 H 712.945 1.02268 1.26154 0
M  V30 7528 H 714.942 -0.00330398 4.169 0
M  V30 7529 H 713.602 -0.644419 3.18241 0
M  V30 7530 H 714.613 2.87798 4.30572 0
M  V30 7531 H 711.29 0.301204 4.16412 0
M  V30 7532 H 712.68 4.19453 5.2489 0
M  V30 7533 N 715.4 -1.26948 0.933913 0
M  V30 7534 C 716.677 -1.89212 0.495784 0
M  V30 7535 C 717.057 -1.84469 -1.02637 0
M  V30 7536 O 716.405 -1.29409 -1.88323 0
M  V30 7537 C 716.615 -3.32865 1.0489 0
M  V30 7538 C 717.963 -4.09749 1.11315 0
M  V30 7539 O 718.987 -3.41905 0.998966 0
M  V30 7540 O 717.846 -5.31061 1.28983 0
M  V30 7541 H 714.94 -0.811284 0.160459 0
M  V30 7542 H 717.486 -1.35171 1.02601 0
M  V30 7543 H 716.258 -3.30642 2.09265 0
M  V30 7544 H 715.881 -3.94435 0.500692 0
M  V30 7545 N 716.879 -0.700114 -1.41195 0
M  V30 7546 C 718.295 -0.372114 -1.55201 0
M  V30 7547 C 718.495 1.12053 -1.6747 0
M  V30 7548 O 717.551 1.90642 -1.65566 0
M  V30 7549 C 718.864 -1.12462 -2.78878 0
M  V30 7550 C 720.412 -1.10941 -2.92679 0
M  V30 7551 C 720.887 -1.84376 -4.19249 0
M  V30 7552 N 722.378 -1.81368 -4.26216 0
M  V30 7553 C 723.113 -2.35024 -5.23021 0
M  V30 7554 N 722.609 -2.9717 -6.25829 0
M  V30 7555 N 724.402 -2.25254 -5.14992 0
M  V30 7556 H 716.553 -1.66816 -1.31477 0
M  V30 7557 H 718.816 -0.704223 -0.634644 0
M  V30 7558 H 718.522 -2.17937 -2.76037 0
M  V30 7559 H 718.396 -0.706152 -3.70531 0
M  V30 7560 H 720.783 -0.062911 -2.95033 0
M  V30 7561 H 720.864 -1.56698 -2.02187 0
M  V30 7562 H 720.508 -2.89008 -4.17656 0
M  V30 7563 H 720.438 -1.3605 -5.08722 0
M  V30 7564 H 722.929 -1.36062 -3.52556 0
M  V30 7565 H 723.242 -3.35668 -6.96094 0
M  V30 7566 H 721.587 -3.01249 -6.26318 0
M  V30 7567 H 724.778 -1.76372 -4.33602 0
M  V30 7568 H 724.951 -2.67373 -5.90268 0
M  V30 7569 N 718.357 1.51182 -0.445186 0
M  V30 7570 C 719.587 2.06269 0.116922 0
M  V30 7571 C 719.995 1.31188 1.36332 0
M  V30 7572 O 719.338 0.367067 1.79995 0
M  V30 7573 C 719.4 3.56051 0.496757 0
M  V30 7574 C 719.064 4.52441 -0.64394 0
M  V30 7575 C 720.061 4.97233 -1.5184 0
M  V30 7576 C 717.746 4.95447 -0.826905 0
M  V30 7577 C 719.74 5.83712 -2.56046 0
M  V30 7578 C 717.427 5.81714 -1.87222 0
M  V30 7579 C 718.425 6.25745 -2.73738 0
M  V30 7580 O 718.113 7.10298 -3.76474 0
M  V30 7581 H 717.845 0.675954 0.00785733 0
M  V30 7582 H 720.399 1.95648 -0.625371 0
M  V30 7583 H 718.629 3.64483 1.29187 0
M  V30 7584 H 720.318 3.93618 0.990928 0
M  V30 7585 H 721.084 4.64696 -1.38862 0
M  V30 7586 H 716.963 4.60712 -0.163052 0
M  V30 7587 H 720.507 6.18 -3.23607 0
M  V30 7588 H 716.404 6.13664 -2.00218 0
M  V30 7589 H 717.172 7.28493 -3.73149 0
M  V30 7590 N 719.835 0.176821 1.56605 0
M  V30 7591 C 720.765 -0.746841 2.21234 0
M  V30 7592 C 721.746 -1.23502 1.16967 0
M  V30 7593 O 722.931 -1.28718 1.45414 0
M  V30 7594 C 720.061 -1.97407 2.8574 0
M  V30 7595 C 719.015 -1.62153 3.96094 0
M  V30 7596 C 718.341 -2.92387 4.47676 0
M  V30 7597 C 719.641 -0.845353 5.15413 0
M  V30 7598 H 721.335 -0.208116 2.98676 0
M  V30 7599 H 718.881 -0.0986594 1.43662 0
M  V30 7600 H 720.834 -2.62531 3.2963 0
M  V30 7601 H 719.558 -2.53703 2.05676 0
M  V30 7602 H 718.217 -0.993964 3.52868 0
M  V30 7603 H 717.865 -3.46734 3.64396 0
M  V30 7604 H 717.565 -2.69551 5.22127 0
M  V30 7605 H 719.089 -3.5853 4.94255 0
M  V30 7606 H 720.503 -1.39929 5.55961 0
M  V30 7607 H 718.9 -0.715814 5.95815 0
M  V30 7608 H 719.97 0.157239 4.84645 0
M  V30 7609 N 721.313 -1.57302 -0.09688 0
M  V30 7610 C 722.724 -1.7496 -0.651595 0
M  V30 7611 C 723.075 -0.798746 -1.79205 0
M  V30 7612 O 722.2 0.0231858 -2.16388 0
M  V30 7613 C 722.795 -3.17259 -1.18878 0
M  V30 7614 C 721.354 -3.36348 -1.68958 0
M  V30 7615 C 720.501 -2.70766 -0.598413 0
M  V30 7616 H 723.452 -1.58173 0.12918 0
M  V30 7617 H 723.473 -3.20033 -2.05814 0
M  V30 7618 H 722.985 -3.8644 -0.358523 0
M  V30 7619 H 721.086 -2.72243 -2.5439 0
M  V30 7620 H 721.199 -4.44654 -1.7838 0
M  V30 7621 H 719.563 -2.32615 -1.03743 0
M  V30 7622 H 720.346 -3.42586 0.221238 0
M  V30 7623 N 722.791 0.367657 -1.53252 0
M  V30 7624 C 724.039 1.10832 -1.68999 0
M  V30 7625 C 724.36 1.89894 -0.443306 0
M  V30 7626 O 723.63 1.88235 0.54262 0
M  V30 7627 H 722.21 0.412153 -0.623008 0
M  V30 7628 H 724.872 0.414775 -1.90435 0
M  V30 7629 H 723.968 1.7993 -2.55013 0
M  V30 7630 N 724.269 1.44576 0.627338 0
M  V30 7631 C 725.179 1.54232 1.76776 0
M  V30 7632 C 726.195 0.427782 1.6866 0
M  V30 7633 O 727.371 0.685671 1.89369 0
M  V30 7634 C 724.436 1.48738 3.13174 0
M  V30 7635 C 723.497 2.71074 3.32893 0
M  V30 7636 C 722.73 2.65832 4.62784 0
M  V30 7637 O 722.953 1.72048 5.43834 0
M  V30 7638 O 721.887 3.56742 4.84787 0
M  V30 7639 H 725.713 2.50586 1.71582 0
M  V30 7640 H 723.298 1.26865 0.789028 0
M  V30 7641 H 725.18 1.48211 3.94476 0
M  V30 7642 H 723.855 0.555292 3.18902 0
M  V30 7643 H 722.762 2.77168 2.51254 0
M  V30 7644 H 724.095 3.63342 3.32029 0
M  V30 7645 N 725.747 -0.868086 1.31537 0
M  V30 7646 C 726.975 -1.65402 1.24298 0
M  V30 7647 C 727.39 -1.87827 -0.191389 0
M  V30 7648 O 726.747 -1.43776 -1.12404 0
M  V30 7649 C 726.798 -3.02093 1.9855 0
M  V30 7650 O 726.519 -2.80668 3.36388 0
M  V30 7651 C 728.02 -3.96538 1.98173 0
M  V30 7652 H 725.24 -0.515598 0.429417 0
M  V30 7653 H 727.784 -1.0834 1.73444 0
M  V30 7654 H 725.939 -3.55838 1.53161 0
M  V30 7655 H 726.353 -3.67504 3.74221 0
M  V30 7656 H 727.827 -4.8976 2.54635 0
M  V30 7657 H 728.304 -4.28474 0.964697 0
M  V30 7658 H 728.91 -3.48729 2.4345 0
M  V30 7659 N 727.225 -1.14528 -1.08264 0
M  V30 7660 C 728.472 -0.914405 -1.80679 0
M  V30 7661 C 728.8 0.558952 -1.86295 0
M  V30 7662 O 728.055 1.43017 -1.33584 0
M  V30 7663 C 728.354 -1.46226 -3.26117 0
M  V30 7664 C 728.02 -2.95451 -3.40616 0
M  V30 7665 C 726.682 -3.36191 -3.4428 0
M  V30 7666 C 729.034 -3.91399 -3.44175 0
M  V30 7667 C 726.362 -4.71539 -3.49096 0
M  V30 7668 C 728.714 -5.26606 -3.50526 0
M  V30 7669 C 727.378 -5.66856 -3.52464 0
M  V30 7670 H 726.648 -0.334604 -0.661151 0
M  V30 7671 H 729.295 -1.4292 -1.27461 0
M  V30 7672 H 727.6 -0.868442 -3.82054 0
M  V30 7673 H 729.297 -1.25955 -3.80705 0
M  V30 7674 H 725.887 -2.62955 -3.38456 0
M  V30 7675 H 730.071 -3.61004 -3.40573 0
M  V30 7676 H 725.327 -5.02082 -3.4889 0
M  V30 7677 H 729.501 -6.00758 -3.52225 0
M  V30 7678 H 727.128 -6.71718 -3.55948 0
M  V30 7679 N 728.703 1.26451 -0.940633 0
M  V30 7680 C 729.949 1.94065 -0.58878 0
M  V30 7681 C 730.282 1.7363 0.869853 0
M  V30 7682 O 729.557 1.073 1.62225 0
M  V30 7683 C 729.84 3.47852 -0.931199 0
M  V30 7684 C 729.693 3.77575 -2.44453 0
M  V30 7685 C 731.012 4.37832 -0.446229 0
M  V30 7686 H 728.131 0.704827 -0.21538 0
M  V30 7687 H 730.773 1.4933 -1.17475 0
M  V30 7688 H 728.923 3.86085 -0.432539 0
M  V30 7689 H 730.595 3.49059 -3.01588 0
M  V30 7690 H 728.838 3.23671 -2.88825 0
M  V30 7691 H 729.509 4.85068 -2.63464 0
M  V30 7692 H 731.985 4.06822 -0.873778 0
M  V30 7693 H 730.861 5.44228 -0.714648 0
M  V30 7694 H 731.122 4.37239 0.653815 0
M  V30 7695 N 730.181 0.707592 1.40822 0
M  V30 7696 C 731.111 0.0644925 2.33411 0
M  V30 7697 C 732.092 -0.754205 1.52466 0
M  V30 7698 O 733.277 -0.704749 1.80961 0
M  V30 7699 C 730.407 -0.863865 3.36385 0
M  V30 7700 C 729.361 -0.15138 4.27732 0
M  V30 7701 C 728.687 -1.19491 5.21177 0
M  V30 7702 C 729.987 0.989607 5.12839 0
M  V30 7703 H 731.681 0.837829 2.87438 0
M  V30 7704 H 729.227 0.404346 1.38207 0
M  V30 7705 H 731.18 -1.32309 4.0009 0
M  V30 7706 H 729.904 -1.66901 2.80734 0
M  V30 7707 H 728.563 0.287937 3.65467 0
M  V30 7708 H 728.211 -1.9929 4.61836 0
M  V30 7709 H 727.911 -0.723123 5.83134 0
M  V30 7710 H 729.435 -1.6544 5.8776 0
M  V30 7711 H 730.849 0.610114 5.70044 0
M  V30 7712 H 729.246 1.38926 5.83798 0
M  V30 7713 H 730.316 1.82389 4.49291 0
M  V30 7714 N 731.66 -1.50943 0.453197 0
M  V30 7715 C 732.908 -2.01813 -0.107709 0
M  V30 7716 C 733.229 -1.33841 -1.41816 0
M  V30 7717 O 732.499 -0.477973 -1.8998 0
M  V30 7718 H 731.079 -0.745773 -0.0427948 0
M  V30 7719 H 733.741 -1.8545 0.599531 0
M  V30 7720 H 732.837 -3.10911 -0.27218 0
M  V30 7721 N 733.138 -0.185124 -1.56509 0
M  V30 7722 C 734.086 0.756505 -2.19954 0
M  V30 7723 C 735.08 1.22725 -1.16769 0
M  V30 7724 O 736.286 1.1913 -1.34937 0
M  V30 7725 H 732.661 0.262279 -0.704779 0
M  V30 7726 H 734.632 0.197587 -2.97745 0
M  V30 7727 C 733.381 1.96975 -2.86524 0
M  V30 7728 H 732.704 1.61658 -3.65659 0
M  V30 7729 H 734.144 2.60719 -3.34367 0
M  V30 7730 C 732.603 2.80219 -1.87027 0
M  V30 7731 O 733.133 3.77821 -1.36433 0
M  V30 7732 N 731.339 2.4551 -1.55477 0
M  V30 7733 H 730.886 1.66199 -1.96813 0
M  V30 7734 H 730.844 3.01493 -0.891597 0
M  V30 7735 N 734.616 1.57351 0.0885366 0
M  V30 7736 C 735.841 1.91011 0.80805 0
M  V30 7737 C 736.266 0.780009 1.71165 0
M  V30 7738 O 735.624 -0.268083 1.79307 0
M  V30 7739 C 735.672 3.23562 1.59185 0
M  V30 7740 O 734.776 3.11615 2.7013 0
M  V30 7741 H 734.117 0.625943 0.221565 0
M  V30 7742 H 736.647 2.04507 0.0617954 0
M  V30 7743 H 736.657 3.5703 1.97468 0
M  V30 7744 H 735.332 4.05398 0.928741 0
M  V30 7745 H 733.909 2.89673 2.34827 0
M  V30 7746 N 736.094 -0.359525 1.53444 0
M  V30 7747 C 737.024 -1.44662 1.8329 0
M  V30 7748 C 738.005 -1.55617 0.68683 0
M  V30 7749 O 739.19 -1.70086 0.93725 0
M  V30 7750 C 736.32 -2.81923 2.02822 0
M  V30 7751 C 735.274 -2.85787 3.18606 0
M  V30 7752 C 734.6 -4.25781 3.23442 0
M  V30 7753 C 735.9 -2.52762 4.57065 0
M  V30 7754 H 737.594 -1.19934 2.74329 0
M  V30 7755 H 735.14 -0.575517 1.31999 0
M  V30 7756 H 737.093 -3.58005 2.22285 0
M  V30 7757 H 735.817 -3.08051 1.085 0
M  V30 7758 H 734.476 -2.12157 2.98973 0
M  V30 7759 H 734.124 -4.48994 2.26745 0
M  V30 7760 H 733.824 -4.29281 4.01238 0
M  V30 7761 H 735.348 -5.03727 3.45096 0
M  V30 7762 H 736.762 -3.18557 4.76649 0
M  V30 7763 H 735.159 -2.67569 5.37147 0
M  V30 7764 H 736.229 -1.47993 4.61764 0
M  V30 7765 N 737.572 -1.44907 -0.619662 0
M  V30 7766 C 738.535 -1.52282 -1.71297 0
M  V30 7767 C 739.535 -0.40359 -1.55653 0
M  V30 7768 O 740.725 -0.666638 -1.6094 0
M  V30 7769 C 737.857 -1.40778 -3.10474 0
M  V30 7770 H 739.05 -2.49683 -1.66128 0
M  V30 7771 H 736.603 -1.32168 -0.834339 0
M  V30 7772 H 737.338 -0.445156 -3.2123 0
M  V30 7773 H 737.123 -2.21947 -3.23237 0
M  V30 7774 H 738.613 -1.48946 -3.90135 0
M  V30 7775 N 739.05 0.861098 -1.31996 0
M  V30 7776 C 740.466 1.14827 -1.10846 0
M  V30 7777 C 740.666 2.0117 0.11528 0
M  V30 7778 O 739.722 2.39423 0.802048 0
M  V30 7779 C 741.035 1.83183 -2.38462 0
M  V30 7780 C 742.583 1.95847 -2.44158 0
M  V30 7781 C 743.058 2.67617 -3.71679 0
M  V30 7782 N 744.549 2.75147 -3.72624 0
M  V30 7783 C 745.284 3.31314 -4.67994 0
M  V30 7784 N 744.78 3.88343 -5.73726 0
M  V30 7785 N 746.573 3.29356 -4.55501 0
M  V30 7786 H 738.724 0.285951 -2.10466 0
M  V30 7787 H 740.987 0.189303 -0.928907 0
M  V30 7788 H 740.693 1.27193 -3.27895 0
M  V30 7789 H 740.567 2.83393 -2.48935 0
M  V30 7790 H 742.954 2.50999 -1.55189 0
M  V30 7791 H 743.035 0.94653 -2.37644 0
M  V30 7792 H 742.679 2.13131 -4.61018 0
M  V30 7793 H 742.609 3.69237 -3.75462 0
M  V30 7794 H 745.1 2.34682 -2.96197 0
M  V30 7795 H 745.413 4.29338 -6.42564 0
M  V30 7796 H 743.758 3.86693 -5.77489 0
M  V30 7797 H 746.949 2.84047 -3.72069 0
M  V30 7798 H 747.122 3.7283 -5.30001 0
M  V30 7799 N 740.528 1.15101 1.07655 0
M  V30 7800 C 741.753 0.948177 1.84457 0
M  V30 7801 C 742.178 -0.498432 1.81376 0
M  V30 7802 O 741.536 -1.35509 1.20445 0
M  V30 7803 C 741.584 1.46318 3.29581 0
M  V30 7804 O 740.688 0.660342 4.07079 0
M  V30 7805 H 740.029 0.338428 0.571281 0
M  V30 7806 H 742.559 1.5301 1.35828 0
M  V30 7807 H 742.569 1.47468 3.80417 0
M  V30 7808 H 741.244 2.51635 3.31138 0
M  V30 7809 H 739.821 0.718216 3.65918 0
M  V30 7810 N 742.006 -1.2595 0.947325 0
M  V30 7811 C 742.936 -2.28521 0.479604 0
M  V30 7812 C 743.917 -1.63469 -0.470293 0
M  V30 7813 O 745.102 -1.90627 -0.370824 0
M  V30 7814 C 742.232 -3.46397 -0.250289 0
M  V30 7815 C 741.186 -4.23578 0.613643 0
M  V30 7816 C 740.512 -5.34131 -0.246568 0
M  V30 7817 C 741.812 -4.86979 1.88809 0
M  V30 7818 H 743.506 -2.67895 1.33688 0
M  V30 7819 H 741.052 -1.28783 0.644274 0
M  V30 7820 H 743.005 -4.17269 -0.588576 0
M  V30 7821 H 741.729 -3.05993 -1.14175 0
M  V30 7822 H 740.388 -3.54478 0.93491 0
M  V30 7823 H 740.036 -4.89968 -1.13756 0
M  V30 7824 H 739.736 -5.86683 0.328123 0
M  V30 7825 H 741.26 -6.07839 -0.579986 0
M  V30 7826 H 742.674 -5.50034 1.61666 0
M  V30 7827 H 741.071 -5.49675 2.40784 0
M  V30 7828 H 742.141 -4.09575 2.5957 0
M  V30 7829 N 743.484 -0.715051 -1.40445 0
M  V30 7830 C 744.394 -0.0631624 -2.34515 0
M  V30 7831 C 745.41 0.744397 -1.57273 0
M  V30 7832 O 746.586 0.677475 -1.89663 0
M  V30 7833 C 743.651 0.847915 -3.36172 0
M  V30 7834 C 742.712 0.0303655 -4.29289 0
M  V30 7835 C 741.945 0.898051 -5.2609 0
M  V30 7836 O 742.168 2.13729 -5.28844 0
M  V30 7837 O 741.102 0.337328 -6.00954 0
M  V30 7838 H 744.928 -0.839078 -2.91879 0
M  V30 7839 H 742.513 -0.475527 -1.4163 0
M  V30 7840 H 744.395 1.3698 -3.98515 0
M  V30 7841 H 743.07 1.60299 -2.81222 0
M  V30 7842 H 741.977 -0.536573 -3.70232 0
M  V30 7843 H 743.31 -0.686474 -4.87389 0
M  V30 7844 N 744.962 1.50701 -0.461195 0
M  V30 7845 C 746.373 1.867 -0.00370227 0
M  V30 7846 C 746.724 1.37673 1.39787 0
M  V30 7847 O 745.849 0.737515 2.03445 0
M  V30 7848 C 746.444 3.388 5.75786e-05 0
M  V30 7849 C 745.003 3.74247 0.402044 0
M  V30 7850 C 744.15 2.74549 -0.389652 0
M  V30 7851 H 747.101 1.43585 -0.675942 0
M  V30 7852 H 747.122 3.719 0.804414 0
M  V30 7853 H 746.634 3.74452 -1.02015 0
M  V30 7854 H 744.735 3.44192 1.42697 0
M  V30 7855 H 744.848 4.78973 0.110265 0
M  V30 7856 H 743.212 2.54226 0.155314 0
M  V30 7857 H 743.995 3.13044 -1.40919 0
M  V30 7858 N 746.441 0.193421 1.56409 0
M  V30 7859 C 747.391 -0.74089 2.15627 0
M  V30 7860 C 748.375 -1.17747 1.09656 0
M  V30 7861 O 749.567 -1.13615 1.35723 0
M  V30 7862 C 746.696 -1.96091 2.81786 0
M  V30 7863 C 745.782 -1.54531 3.94944 0
M  V30 7864 N 746.173 -0.840569 4.98767 0
M  V30 7865 C 744.471 -1.83473 4.06514 0
M  V30 7866 C 745.172 -0.632571 5.7825 0
M  V30 7867 N 744.148 -1.18078 5.30621 0
M  V30 7868 H 747.95 -0.193718 2.93261 0
M  V30 7869 H 745.464 -0.00643211 1.62399 0
M  V30 7870 H 747.461 -2.64071 3.22602 0
M  V30 7871 H 746.121 -2.51282 2.05639 0
M  V30 7872 H 747.132 -0.496218 5.15517 0
M  V30 7873 H 743.809 -2.40184 3.41493 0
M  V30 7874 H 745.199 -0.0736433 6.7186 0
M  V30 7875 N 747.919 -1.57396 -0.0801906 0
M  V30 7876 C 749.144 -1.91437 -0.797909 0
M  V30 7877 C 749.569 -0.789075 -1.70749 0
M  V30 7878 O 748.927 0.25857 -1.79447 0
M  V30 7879 C 748.975 -3.24402 -1.57467 0
M  V30 7880 O 748.079 -3.13043 -2.68473 0
M  V30 7881 H 747.42 -0.627109 -0.218243 0
M  V30 7882 H 749.95 -2.04537 -0.050949 0
M  V30 7883 H 749.96 -3.58072 -1.95571 0
M  V30 7884 H 748.635 -4.05884 -0.907229 0
M  V30 7885 H 747.212 -2.90915 -2.33287 0
M  V30 7886 N 749.397 0.351382 -1.53633 0
M  V30 7887 C 750.674 1.10903 -1.6112 0
M  V30 7888 C 751.054 2.06725 -0.427556 0
M  V30 7889 O 750.402 2.20992 0.580916 0
M  V30 7890 C 750.612 1.83561 -2.96827 0
M  V30 7891 C 751.96 2.37587 -3.51906 0
M  V30 7892 O 752.984 1.93669 -2.9895 0
M  V30 7893 O 751.843 3.17913 -4.44515 0
M  V30 7894 H 748.937 0.509558 -0.651368 0
M  V30 7895 H 751.483 0.353504 -1.65977 0
M  V30 7896 H 750.255 1.1371 -3.74414 0
M  V30 7897 H 749.878 2.6599 -2.95525 0
M  V30 7898 N 750.875 1.45233 0.611969 0
M  V30 7899 C 752.1 1.52767 1.40274 0
M  V30 7900 C 752.525 0.159701 1.87421 0
M  V30 7901 O 751.883 -0.854837 1.59882 0
M  V30 7902 C 751.931 2.51286 2.58626 0
M  V30 7903 O 751.035 2.02764 3.59111 0
M  V30 7904 H 750.376 0.515141 0.418958 0
M  V30 7905 H 752.906 1.90547 0.745188 0
M  V30 7906 H 752.916 2.69949 3.05927 0
M  V30 7907 H 751.591 3.50641 2.23659 0
M  V30 7908 H 750.168 1.93957 3.18489 0
M  V30 7909 N 752.353 -0.854086 1.3245 0
M  V30 7910 C 753.286 -1.96654 1.15768 0
M  V30 7911 C 754.264 -1.625 0.0569975 0
M  V30 7912 O 755.448 -1.87254 0.216412 0
M  V30 7913 C 752.575 -3.29776 0.772361 0
M  V30 7914 C 751.621 -3.82909 1.87837 0
M  V30 7915 S 752.454 -4.0643 3.48675 0
M  V30 7916 C 753.61 -5.42526 3.12116 0
M  V30 7917 H 753.843 -2.10504 2.09942 0
M  V30 7918 H 751.376 -1.00612 1.17118 0
M  V30 7919 H 753.334 -4.06706 0.556809 0
M  V30 7920 H 751.995 -3.13739 -0.150519 0
M  V30 7921 H 751.188 -4.79192 1.56177 0
M  V30 7922 H 750.79 -3.12825 2.0498 0
M  V30 7923 H 753.082 -6.24792 2.61996 0
M  V30 7924 H 754.025 -5.79148 4.07422 0
M  V30 7925 H 754.433 -5.06556 2.49121 0
M  V30 7926 N 753.831 -1.1567 -1.07043 0
M  V30 7927 C 755.108 -0.843948 -1.76456 0
M  V30 7928 C 755.488 0.659806 -2.00524 0
M  V30 7929 O 754.836 1.60518 -1.62623 0
M  V30 7930 C 755.046 -1.65822 -3.0709 0
M  V30 7931 C 756.394 -1.8664 -3.8138 0
M  V30 7932 O 757.418 -1.62624 -3.1691 0
M  V30 7933 O 756.277 -2.26884 -4.97178 0
M  V30 7934 H 753.371 -0.310677 -0.766426 0
M  V30 7935 H 755.917 -1.26266 -1.1338 0
M  V30 7936 H 754.689 -2.67902 -2.85209 0
M  V30 7937 H 754.312 -1.23605 -3.77899 0
M  V30 7938 N 755.309 1.25446 -0.953992 0
M  V30 7939 C 756.534 1.97755 -0.625129 0
M  V30 7940 C 756.959 1.70437 0.795787 0
M  V30 7941 O 756.317 0.95992 1.53803 0
M  V30 7942 C 756.365 3.49463 -0.889251 0
M  V30 7943 O 755.469 4.12387 0.0322757 0
M  V30 7944 H 754.81 0.61998 -0.237742 0
M  V30 7945 H 757.34 1.59582 -1.28041 0
M  V30 7946 H 757.35 3.99772 -0.815263 0
M  V30 7947 H 756.025 3.68676 -1.92487 0
M  V30 7948 H 754.602 3.72782 -0.0938625 0
M  V30 7949 N 756.787 0.722489 1.40064 0
M  V30 7950 C 757.75 0.0830209 2.2905 0
M  V30 7951 C 758.75 -0.680208 1.45705 0
M  V30 7952 O 759.94 -0.511084 1.66534 0
M  V30 7953 C 757.072 -0.892092 3.29021 0
M  V30 7954 H 758.265 0.866848 2.87099 0
M  V30 7955 H 755.818 0.487556 1.48501 0
M  V30 7956 H 756.553 -1.70273 2.76003 0
M  V30 7957 H 756.338 -0.34761 3.90556 0
M  V30 7958 H 757.828 -1.33648 3.95636 0
M  V30 7959 N 758.265 -1.50454 0.469181 0
M  V30 7960 C 759.49 -2.0722 -0.0864892 0
M  V30 7961 C 759.915 -1.33098 -1.32916 0
M  V30 7962 O 759.273 -0.378084 -1.77314 0
M  V30 7963 C 759.321 -3.58845 -0.355384 0
M  V30 7964 O 758.425 -3.86583 -1.43622 0
M  V30 7965 H 757.766 -0.663889 0.0121414 0
M  V30 7966 H 760.296 -1.93674 0.659674 0
M  V30 7967 H 760.306 -4.03617 -0.596447 0
M  V30 7968 H 758.981 -4.12211 0.552698 0
M  V30 7969 H 757.558 -3.5365 -1.18262 0
M  V30 7970 N 759.743 -0.201713 -1.56304 0
M  V30 7971 C 760.691 0.733133 -2.20744 0
M  V30 7972 C 761.685 1.2148 -1.18064 0
M  V30 7973 O 762.891 1.17692 -1.36193 0
M  V30 7974 H 759.266 0.254789 -0.707521 0
M  V30 7975 H 761.237 0.165996 -2.97938 0
M  V30 7976 C 759.986 1.93925 -2.88597 0
M  V30 7977 H 759.309 1.5777 -3.67353 0
M  V30 7978 H 760.749 2.57158 -3.37114 0
M  V30 7979 C 759.208 2.78219 -1.89989 0
M  V30 7980 O 759.738 3.76353 -1.40432 0
M  V30 7981 N 757.944 2.43847 -1.58072 0
M  V30 7982 H 757.491 1.64103 -1.98565 0
M  V30 7983 H 757.449 3.0053 -0.923524 0
M  V30 7984 N 761.222 1.57436 0.0718424 0
M  V30 7985 C 762.633 1.75975 0.623678 0
M  V30 7986 C 762.984 0.827155 1.77912 0
M  V30 7987 O 762.109 0.0112425 2.16397 0
M  V30 7988 C 762.704 3.1911 1.13816 0
M  V30 7989 C 761.263 3.38994 1.63586 0
M  V30 7990 C 760.41 2.71684 0.555261 0
M  V30 7991 H 763.361 1.57948 -0.154328 0
M  V30 7992 H 763.382 3.23267 2.00696 0
M  V30 7993 H 762.894 3.86962 0.296998 0
M  V30 7994 H 760.995 2.76256 2.50027 0
M  V30 7995 H 761.108 4.47436 1.71283 0
M  V30 7996 H 759.472 2.34236 1.00029 0
M  V30 7997 H 760.255 3.42191 -0.275712 0
M  V30 7998 N 762.7 -0.34323 1.53817 0
M  V30 7999 C 763.928 -1.10348 1.75017 0
M  V30 8000 C 764.343 -1.82345 0.489475 0
M  V30 8001 O 763.7 -1.74362 -0.538886 0
M  V30 8002 C 763.751 -2.11672 2.93048 0
M  V30 8003 O 763.472 -1.42603 4.14241 0
M  V30 8004 C 764.973 -3.0007 3.26301 0
M  V30 8005 H 762.193 -0.329056 0.584776 0
M  V30 8006 H 764.737 -0.395339 2.00642 0
M  V30 8007 H 762.892 -2.78051 2.69753 0
M  V30 8008 H 763.306 -2.10294 4.80496 0
M  V30 8009 H 764.78 -3.67101 4.12239 0
M  V30 8010 H 765.257 -3.66105 2.42618 0
M  V30 8011 H 765.863 -2.3928 3.51604 0
M  V30 8012 N 764.178 -1.45556 -0.604258 0
M  V30 8013 C 765.126 -1.5482 -1.7359 0
M  V30 8014 C 766.12 -0.417966 -1.64163 0
M  V30 8015 O 767.326 -0.594007 -1.69916 0
M  V30 8016 H 763.701 -0.486352 -0.573556 0
M  V30 8017 H 765.672 -2.5001 -1.62903 0
M  V30 8018 C 764.421 -1.53521 -3.11972 0
M  V30 8019 H 763.744 -2.39818 -3.19886 0
M  V30 8020 H 765.184 -1.64061 -3.90973 0
M  V30 8021 C 763.643 -0.260191 -3.35894 0
M  V30 8022 O 764.173 0.658582 -3.96265 0
M  V30 8023 N 762.379 -0.154839 -2.90187 0
M  V30 8024 H 761.926 -0.903378 -2.4124 0
M  V30 8025 H 761.884 0.697437 -3.06567 0
M  V30 8026 N 765.656 0.84705 -1.32902 0
M  V30 8027 C 766.586 1.97166 -1.25091 0
M  V30 8028 C 767.567 1.69578 -0.133161 0
M  V30 8029 O 768.752 1.91519 -0.321591 0
M  V30 8030 C 765.882 3.33157 -0.981006 0
M  V30 8031 C 764.836 3.75119 -2.06082 0
M  V30 8032 C 764.162 5.08826 -1.64318 0
M  V30 8033 C 765.462 3.89774 -3.47669 0
M  V30 8034 H 767.156 2.03958 -2.19184 0
M  V30 8035 H 764.702 0.979907 -1.05517 0
M  V30 8036 H 766.655 4.11393 -0.912891 0
M  V30 8037 H 765.379 3.266 -0.00445559 0
M  V30 8038 H 764.038 2.9914 -2.11921 0
M  V30 8039 H 763.686 4.98732 -0.653876 0
M  V30 8040 H 763.386 5.37873 -2.36572 0
M  V30 8041 H 764.91 5.89546 -1.58958 0
M  V30 8042 H 766.324 4.58343 -3.44376 0
M  V30 8043 H 764.721 4.30248 -4.18338 0
M  V30 8044 H 765.791 2.92463 -3.86773 0
M  V30 8045 N 767.134 1.16236 1.06428 0
M  V30 8046 C 768.38 0.944431 1.79467 0
M  V30 8047 C 768.713 -0.526558 1.86925 0
M  V30 8048 O 767.988 -1.39061 1.35986 0
M  V30 8049 C 768.271 1.57092 3.24028 0
M  V30 8050 C 768.124 3.11315 3.24658 0
M  V30 8051 C 769.443 1.26447 4.21544 0
M  V30 8052 H 766.562 0.344521 0.651517 0
M  V30 8053 H 769.204 1.43545 1.24478 0
M  V30 8054 H 767.354 1.15337 3.70985 0
M  V30 8055 H 769.026 3.62042 2.85873 0
M  V30 8056 H 767.269 3.44716 2.6335 0
M  V30 8057 H 767.94 3.50269 4.26633 0
M  V30 8058 H 770.416 1.62581 3.83023 0
M  V30 8059 H 769.292 1.72885 5.20963 0
M  V30 8060 H 769.553 0.183068 4.41721 0
M  V30 8061 N 768.612 -1.24939 0.960631 0
M  V30 8062 C 769.837 -1.9742 0.635608 0
M  V30 8063 C 770.262 -1.70857 -0.786737 0
M  V30 8064 O 769.62 -0.968063 -1.53291 0
M  V30 8065 C 769.668 -3.48987 0.907771 0
M  V30 8066 O 768.772 -4.12399 -0.0104053 0
M  V30 8067 H 768.113 -0.61871 0.241027 0
M  V30 8068 H 770.643 -1.58901 1.28886 0
M  V30 8069 H 770.653 -3.99334 0.836453 0
M  V30 8070 H 769.328 -3.6765 1.94439 0
M  V30 8071 H 767.905 -3.72727 0.113631 0
M  V30 8072 N 770.09 -0.729906 -1.39679 0
M  V30 8073 C 771.318 -0.285709 -2.04918 0
M  V30 8074 C 771.733 1.07765 -1.55023 0
M  V30 8075 O 771.09 1.67999 -0.712923 0
M  V30 8076 C 771.141 -0.272793 -3.60469 0
M  V30 8077 O 770.862 -1.58233 -4.08527 0
M  V30 8078 C 772.363 0.188199 -4.429 0
M  V30 8079 H 769.583 -0.125758 -0.65911 0
M  V30 8080 H 772.127 -0.992129 -1.78821 0
M  V30 8081 H 770.282 0.384699 -3.85485 0
M  V30 8082 H 770.696 -1.49245 -5.02818 0
M  V30 8083 H 772.17 0.14608 -5.51807 0
M  V30 8084 H 772.647 1.2326 -4.21549 0
M  V30 8085 H 773.253 -0.439541 -4.23023 0
M  V30 8086 N 771.568 1.50203 -0.477153 0
M  V30 8087 C 772.793 2.07263 0.0754986 0
M  V30 8088 C 773.218 1.33801 1.32208 0
M  V30 8089 O 772.576 0.387482 1.77111 0
M  V30 8090 C 772.624 3.59028 0.336348 0
M  V30 8091 O 771.728 3.87339 1.4157 0
M  V30 8092 H 771.069 0.663815 -0.015662 0
M  V30 8093 H 773.599 1.93321 -0.669936 0
M  V30 8094 H 773.609 4.03927 0.575034 0
M  V30 8095 H 772.284 4.11912 -0.574551 0
M  V30 8096 H 770.861 3.54272 1.16385 0
M  V30 8097 N 773.046 0.209999 1.56195 0
M  V30 8098 C 773.978 -0.736967 2.17029 0
M  V30 8099 C 774.991 -1.16599 1.13616 0
M  V30 8100 O 776.18 -1.09914 1.40646 0
M  V30 8101 C 773.28 -2.00852 2.72969 0
M  V30 8102 C 772.453 -1.73691 4.01435 0
M  V30 8103 C 771.512 -2.85439 4.42053 0
M  V30 8104 O 770.538 -2.54405 5.09183 0
M  V30 8105 N 771.74 -4.14135 4.06783 0
M  V30 8106 H 774.505 -0.216656 2.98916 0
M  V30 8107 H 772.066 0.0285672 1.61875 0
M  V30 8108 H 774.058 -2.74778 2.97118 0
M  V30 8109 H 772.628 -2.43963 1.95451 0
M  V30 8110 H 771.848 -0.834676 3.85262 0
M  V30 8111 H 773.136 -1.52961 4.85263 0
M  V30 8112 H 772.534 -4.42196 3.52816 0
M  V30 8113 H 771.091 -4.84642 4.35851 0
M  V30 8114 N 774.524 -1.57472 -0.0634922 0
M  V30 8115 C 775.94 -1.54016 -0.418466 0
M  V30 8116 C 776.14 -0.931376 -1.78683 0
M  V30 8117 O 775.196 -0.537465 -2.46714 0
M  V30 8118 C 776.509 -2.98634 -0.351906 0
M  V30 8119 C 778.057 -3.10012 -0.431494 0
M  V30 8120 C 778.532 -4.56296 -0.394754 0
M  V30 8121 N 780.023 -4.60964 -0.454583 0
M  V30 8122 C 780.758 -5.71643 -0.448501 0
M  V30 8123 N 780.254 -6.91663 -0.396742 0
M  V30 8124 N 782.047 -5.5991 -0.495677 0
M  V30 8125 H 774.198 -1.95409 0.832408 0
M  V30 8126 H 776.461 -0.894769 0.313197 0
M  V30 8127 H 776.167 -3.46766 0.587048 0
M  V30 8128 H 776.041 -3.58955 -1.15893 0
M  V30 8129 H 778.428 -2.61848 -1.36087 0
M  V30 8130 H 778.509 -2.52585 0.404258 0
M  V30 8131 H 778.153 -5.05119 0.530811 0
M  V30 8132 H 778.083 -5.11594 -1.24815 0
M  V30 8133 H 780.574 -3.74598 -0.498496 0
M  V30 8134 H 780.887 -7.71783 -0.396256 0
M  V30 8135 H 779.232 -6.9405 -0.363304 0
M  V30 8136 H 782.423 -4.65046 -0.533864 0
M  V30 8137 H 782.596 -6.46164 -0.487469 0
M  V30 8138 N 776.003 0.335068 -1.53997 0
M  V30 8139 C 776.953 1.4127 -1.7896 0
M  V30 8140 C 777.937 1.474 -0.64513 0
M  V30 8141 O 779.129 1.52127 -0.904785 0
M  V30 8142 C 776.258 2.78292 -2.01018 0
M  V30 8143 C 775.344 2.7652 -3.21555 0
M  V30 8144 N 775.735 2.44374 -4.42849 0
M  V30 8145 C 774.033 3.0766 -3.22895 0
M  V30 8146 C 774.734 2.51049 -5.24737 0
M  V30 8147 N 773.71 2.8702 -4.6165 0
M  V30 8148 H 777.512 1.15327 -2.70327 0
M  V30 8149 H 775.026 0.543483 -1.53036 0
M  V30 8150 H 777.023 3.55949 -2.17039 0
M  V30 8151 H 775.683 3.05175 -1.10898 0
M  V30 8152 H 776.694 2.17422 -4.70051 0
M  V30 8153 H 773.371 3.3966 -2.42771 0
M  V30 8154 H 774.761 2.29283 -6.31569 0
M  V30 8155 N 777.481 1.45874 0.596531 0
M  V30 8156 C 778.897 1.30524 0.918459 0
M  V30 8157 C 779.097 0.266429 1.99731 0
M  V30 8158 O 778.153 -0.335809 2.50257 0
M  V30 8159 C 779.466 2.68747 1.3489 0
M  V30 8160 C 781.014 2.7673 1.46251 0
M  V30 8161 C 781.489 4.15504 1.92667 0
M  V30 8162 N 782.98 4.17853 1.99883 0
M  V30 8163 C 783.715 5.22109 2.37044 0
M  V30 8164 N 783.211 6.36704 2.73094 0
M  V30 8165 N 785.004 5.09471 2.37479 0
M  V30 8166 H 777.155 2.12081 -0.116368 0
M  V30 8167 H 779.418 0.947941 0.0106033 0
M  V30 8168 H 779.124 3.46006 0.630288 0
M  V30 8169 H 778.998 2.97942 2.31323 0
M  V30 8170 H 781.385 1.99768 2.17202 0
M  V30 8171 H 781.466 2.51236 0.481054 0
M  V30 8172 H 781.11 4.92956 1.223 0
M  V30 8173 H 781.04 4.38396 2.91747 0
M  V30 8174 H 783.531 3.35163 1.74568 0
M  V30 8175 H 783.844 7.12041 3.00362 0
M  V30 8176 H 782.189 6.40087 2.70764 0
M  V30 8177 H 785.38 4.18987 2.08728 0
M  V30 8178 H 785.553 5.90837 2.66112 0
M  V30 8179 N 778.959 -0.83999 1.33349 0
M  V30 8180 C 780.37 -1.41139 1.22216 0
M  V30 8181 C 780.721 -1.95551 -0.159398 0
M  V30 8182 O 779.846 -1.88721 -1.05893 0
M  V30 8183 C 780.441 -2.56564 2.21269 0
M  V30 8184 C 779 -3.09661 2.13979 0
M  V30 8185 C 778.147 -1.82457 2.08818 0
M  V30 8186 H 781.098 -0.645853 1.44964 0
M  V30 8187 H 781.119 -3.34163 1.81976 0
M  V30 8188 H 780.631 -2.16932 3.21811 0
M  V30 8189 H 778.732 -3.53841 1.16736 0
M  V30 8190 H 778.845 -3.6991 3.04472 0
M  V30 8191 H 777.209 -2.0266 1.54276 0
M  V30 8192 H 777.992 -1.45022 3.11165 0
M  V30 8193 N 780.437 -1.16799 -1.0581 0
M  V30 8194 C 781.367 -0.902241 -2.15364 0
M  V30 8195 C 782.348 0.153351 -1.69407 0
M  V30 8196 O 783.533 0.00442032 -1.94199 0
M  V30 8197 C 780.663 -0.407911 -3.44896 0
M  V30 8198 C 779.617 -1.40197 -4.04387 0
M  V30 8199 C 778.943 -0.765848 -5.29187 0
M  V30 8200 C 780.243 -2.77316 -4.42598 0
M  V30 8201 H 781.937 -1.81841 -2.37853 0
M  V30 8202 H 779.483 -0.875731 -1.14311 0
M  V30 8203 H 781.436 -0.20945 -4.20879 0
M  V30 8204 H 780.16 0.54378 -3.22041 0
M  V30 8205 H 778.819 -1.58707 -3.30466 0
M  V30 8206 H 778.467 0.192482 -5.02632 0
M  V30 8207 H 778.167 -1.42939 -5.69949 0
M  V30 8208 H 779.691 -0.577519 -6.07863 0
M  V30 8209 H 781.105 -2.62561 -5.09642 0
M  V30 8210 H 779.502 -3.4019 -4.94359 0
M  V30 8211 H 780.572 -3.32199 -3.53231 0
M  V30 8212 N 781.915 1.24427 -0.967243 0
M  V30 8213 C 782.845 2.2773 -0.515899 0
M  V30 8214 C 783.826 1.64197 0.444227 0
M  V30 8215 O 785.011 1.91193 0.340451 0
M  V30 8216 C 782.141 3.46751 0.195149 0
M  V30 8217 C 781.095 4.22548 -0.680953 0
M  V30 8218 C 780.421 5.34456 0.161561 0
M  V30 8219 C 781.721 4.83914 -1.96532 0
M  V30 8220 H 783.415 2.65735 -1.37933 0
M  V30 8221 H 780.961 1.27742 -0.664681 0
M  V30 8222 H 782.914 4.18153 0.522117 0
M  V30 8223 H 781.638 3.07771 1.09292 0
M  V30 8224 H 780.297 3.52946 -0.991186 0
M  V30 8225 H 779.945 4.91716 1.05947 0
M  V30 8226 H 779.645 5.86087 -0.421418 0
M  V30 8227 H 781.169 6.08685 0.483211 0
M  V30 8228 H 782.583 5.47392 -1.70396 0
M  V30 8229 H 780.98 5.45775 -2.49499 0
M  V30 8230 H 782.05 4.05393 -2.66053 0
M  V30 8231 N 783.393 0.737304 1.3929 0
M  V30 8232 C 784.618 0.295237 2.05288 0
M  V30 8233 C 785.043 -1.06235 1.55228 0
M  V30 8234 O 784.401 -1.67365 0.697043 0
M  V30 8235 C 784.449 0.309146 3.59272 0
M  V30 8236 O 783.553 -0.702437 4.06374 0
M  V30 8237 H 782.894 0.133762 0.650387 0
M  V30 8238 H 785.424 1.00387 1.78279 0
M  V30 8239 H 785.434 0.154336 4.07708 0
M  V30 8240 H 784.109 1.29974 3.95069 0
M  V30 8241 H 782.686 -0.513574 3.69346 0
M  V30 8242 N 784.871 -1.49948 0.485112 0
M  V30 8243 C 786.096 -2.073 -0.0645059 0
M  V30 8244 C 786.521 -1.345 -1.31497 0
M  V30 8245 O 785.879 -0.39687 -1.76903 0
M  V30 8246 C 785.927 -3.59201 -0.317304 0
M  V30 8247 O 785.031 -3.88085 -1.39514 0
M  V30 8248 H 784.372 -0.663723 0.0191822 0
M  V30 8249 H 786.902 -1.92963 0.680179 0
M  V30 8250 H 786.912 -4.04227 -0.553604 0
M  V30 8251 H 785.587 -4.11602 0.596387 0
M  V30 8252 H 784.164 -3.54885 -1.14504 0
M  V30 8253 N 786.349 -0.21828 -1.56081 0
M  V30 8254 C 787.589 0.416193 -2.00118 0
M  V30 8255 C 787.953 1.5718 -1.10265 0
M  V30 8256 O 789.154 2.27206 -1.43635 0
M  V30 8257 C 787.425 0.842781 -3.47321 0
M  V30 8258 S 788.984 1.47182 -4.1338 0
M  V30 8259 H 785.802 0.132219 -0.698598 0
M  V30 8260 H 788.404 -0.326799 -1.92749 0
M  V30 8261 H 787.108 -0.00799925 -4.10399 0
M  V30 8262 H 786.639 1.61867 -3.58556 0
M  V30 8263 H 788.654 2.76087 -4.12299 0
M  V30 8264 N 787.827 1.57504 0.0551401 0
M  V30 8265 C 789.075 1.87684 0.74962 0
M  V30 8266 C 789.396 0.812547 1.77264 0
M  V30 8267 O 788.666 -0.15694 1.9527 0
M  V30 8268 H 787.246 0.6926 0.279846 0
M  V30 8269 H 789.908 1.94881 0.0272745 0
M  V30 8270 H 789.004 2.85734 1.25548 0
M  V30 8271 N 789.305 -0.326896 1.54172 0
M  V30 8272 C 790.235 -1.40741 1.86317 0
M  V30 8273 C 791.216 -1.54125 0.719684 0
M  V30 8274 O 792.401 -1.6806 0.973117 0
M  V30 8275 C 789.531 -2.77557 2.08757 0
M  V30 8276 C 788.485 -2.78965 3.24596 0
M  V30 8277 C 787.811 -4.18824 3.32401 0
M  V30 8278 C 789.111 -2.4301 4.62324 0
M  V30 8279 H 790.805 -1.14088 2.76811 0
M  V30 8280 H 788.351 -0.547389 1.3319 0
M  V30 8281 H 790.304 -3.53209 2.29829 0
M  V30 8282 H 789.028 -3.0568 1.15009 0
M  V30 8283 H 787.687 -2.05767 3.03406 0
M  V30 8284 H 787.335 -4.44083 2.36218 0
M  V30 8285 H 787.035 -4.20673 4.10253 0
M  V30 8286 H 788.559 -4.96294 3.55703 0
M  V30 8287 H 789.973 -3.08375 4.83299 0
M  V30 8288 H 788.37 -2.56116 5.42701 0
M  V30 8289 H 789.44 -1.38165 4.64799 0
M  V30 8290 N 790.784 -1.46188 -0.588786 0
M  V30 8291 C 792.195 -1.45421 -1.17088 0
M  V30 8292 C 792.546 -0.191801 -1.9526 0
M  V30 8293 O 791.671 0.705497 -2.04577 0
M  V30 8294 C 792.266 -2.63467 -2.13004 0
M  V30 8295 C 790.825 -2.6576 -2.6655 0
M  V30 8296 C 789.972 -2.38002 -1.42304 0
M  V30 8297 H 792.923 -1.54156 -0.377052 0
M  V30 8298 H 792.944 -2.38638 -2.96365 0
M  V30 8299 H 792.456 -3.55331 -1.56081 0
M  V30 8300 H 790.557 -1.77952 -3.27359 0
M  V30 8301 H 790.67 -3.65545 -3.09699 0
M  V30 8302 H 789.034 -1.87936 -1.71907 0
M  V30 8303 H 789.817 -3.32035 -0.872209 0
M  V30 8304 N 792.262 0.832906 -1.33792 0
M  V30 8305 C 793.673 1.40489 -1.22963 0
M  V30 8306 C 794.024 1.95633 0.149026 0
M  V30 8307 O 793.149 1.8928 1.04891 0
M  V30 8308 C 793.744 2.55387 -2.22627 0
M  V30 8309 C 792.303 3.08522 -2.15618 0
M  V30 8310 C 791.45 1.81347 -2.09782 0
M  V30 8311 H 794.401 0.638156 -1.45304 0
M  V30 8312 H 794.422 3.33193 -1.83746 0
M  V30 8313 H 793.934 2.15222 -3.22957 0
M  V30 8314 H 792.035 3.53217 -1.18611 0
M  V30 8315 H 792.148 3.6829 -3.0643 0
M  V30 8316 H 790.512 2.01839 -1.55349 0
M  V30 8317 H 791.295 1.43369 -3.1193 0
M  V30 8318 N 793.74 1.17359 1.05189 0
M  V30 8319 C 794.965 0.98709 1.82404 0
M  V30 8320 C 795.39 -0.459848 1.82392 0
M  V30 8321 O 794.748 -1.32924 1.23292 0
M  V30 8322 C 794.796 1.53276 3.26403 0
M  V30 8323 O 793.9 0.746541 4.05587 0
M  V30 8324 H 793.241 0.35047 0.563974 0
M  V30 8325 H 795.771 1.55856 1.32552 0
M  V30 8326 H 795.781 1.55504 3.77203 0
M  V30 8327 H 794.456 2.58603 3.25726 0
M  V30 8328 H 793.033 0.795671 3.64312 0
M  V30 8329 N 795.218 -1.23913 0.973828 0
M  V30 8330 C 796.446 -1.96195 0.656891 0
M  V30 8331 C 796.861 -1.72166 -0.774876 0
M  V30 8332 O 796.218 -1.0091 -1.52064 0
M  V30 8333 C 796.269 -3.49342 0.929638 0
M  V30 8334 O 795.99 -3.72553 2.30512 0
M  V30 8335 C 797.491 -4.38833 0.627739 0
M  V30 8336 H 794.711 -0.624841 0.244572 0
M  V30 8337 H 797.255 -1.57579 1.30343 0
M  V30 8338 H 795.41 -3.85999 0.329216 0
M  V30 8339 H 795.824 -4.66893 2.3898 0
M  V30 8340 H 797.298 -5.45117 0.868991 0
M  V30 8341 H 797.775 -4.37009 -0.438104 0
M  V30 8342 H 798.381 -4.07773 1.20834 0
M  V30 8343 N 796.696 -0.74468 -1.38897 0
M  V30 8344 C 797.659 -0.11945 -2.28889 0
M  V30 8345 C 798.659 0.656942 -1.46768 0
M  V30 8346 O 799.849 0.484525 -1.67326 0
M  V30 8347 C 796.981 0.839635 -3.30398 0
M  V30 8348 H 798.174 -0.912414 -2.85683 0
M  V30 8349 H 795.727 -0.511119 -1.47707 0
M  V30 8350 H 796.462 1.6586 -2.78677 0
M  V30 8351 H 796.247 0.285432 -3.9106 0
M  V30 8352 H 797.737 1.27337 -3.97712 0
M  V30 8353 N 798.174 1.49689 -0.493057 0
M  V30 8354 C 799.399 2.07331 0.0535114 0
M  V30 8355 C 799.824 1.35196 1.30781 0
M  V30 8356 O 799.182 0.406246 1.7669 0
M  V30 8357 C 799.23 3.59364 0.29825 0
M  V30 8358 O 798.334 3.88819 1.37454 0
M  V30 8359 H 797.675 0.663612 -0.0227018 0
M  V30 8360 H 800.205 1.926 -0.690402 0
M  V30 8361 H 800.215 4.04515 0.532159 0
M  V30 8362 H 798.89 4.1128 -0.618207 0
M  V30 8363 H 797.467 3.55487 1.12621 0
M  V30 8364 N 799.652 0.226554 1.55963 0
M  V30 8365 C 800.615 -0.668015 2.19249 0
M  V30 8366 C 801.615 -1.11794 1.1558 0
M  V30 8367 O 802.805 -1.02593 1.40784 0
M  V30 8368 C 799.937 -1.91571 2.81981 0
M  V30 8369 H 801.13 -0.116175 2.99675 0
M  V30 8370 H 798.683 -0.0230497 1.56283 0
M  V30 8371 H 799.418 -2.50929 2.05439 0
M  V30 8372 H 799.203 -1.6015 3.57903 0
M  V30 8373 H 800.693 -2.55294 3.30477 0
M  V30 8374 N 801.13 -1.57531 -0.0467866 0
M  V30 8375 C 802.376 -1.8873 -0.742218 0
M  V30 8376 C 802.709 -0.822084 -1.75941 0
M  V30 8377 O 801.984 0.164922 -1.938 0
M  V30 8378 C 802.267 -3.30586 -1.42776 0
M  V30 8379 C 802.12 -4.47785 -0.425285 0
M  V30 8380 C 803.439 -3.71068 -2.36636 0
M  V30 8381 H 800.558 -0.686406 -0.268359 0
M  V30 8382 H 803.2 -1.89999 -0.00511341 0
M  V30 8383 H 801.35 -3.29634 -2.05605 0
M  V30 8384 H 803.022 -4.60867 0.199721 0
M  V30 8385 H 801.265 -4.33037 0.25713 0
M  V30 8386 H 801.936 -5.43884 -0.943086 0
M  V30 8387 H 804.412 -3.73273 -1.83866 0
M  V30 8388 H 803.288 -4.71165 -2.81593 0
M  V30 8389 H 803.549 -3.02355 -3.22542 0
M  V30 8390 N 802.608 0.318715 -1.54344 0
M  V30 8391 C 804.024 0.663345 -1.45162 0
M  V30 8392 C 804.224 1.9145 -0.62842 0
M  V30 8393 O 803.28 2.5217 -0.129126 0
M  V30 8394 C 804.593 0.832836 -2.88937 0
M  V30 8395 C 806.141 0.929866 -2.98869 0
M  V30 8396 C 806.616 1.13149 -4.43803 0
M  V30 8397 N 808.107 1.19811 -4.47437 0
M  V30 8398 C 808.842 1.37209 -5.56742 0
M  V30 8399 N 808.338 1.51619 -6.76006 0
M  V30 8400 N 810.131 1.39956 -5.44398 0
M  V30 8401 H 802.282 -0.50357 -2.06344 0
M  V30 8402 H 804.545 -0.163528 -0.933789 0
M  V30 8403 H 804.251 -0.0153519 -3.51697 0
M  V30 8404 H 804.125 1.72721 -3.35332 0
M  V30 8405 H 806.512 1.76855 -2.36233 0
M  V30 8406 H 806.593 0.0118561 -2.55797 0
M  V30 8407 H 806.237 0.297636 -5.07027 0
M  V30 8408 H 806.167 2.06345 -4.84489 0
M  V30 8409 H 808.658 1.101 -3.61506 0
M  V30 8410 H 808.971 1.64599 -7.55067 0
M  V30 8411 H 807.316 1.48708 -6.78904 0
M  V30 8412 H 810.507 1.28298 -4.50175 0
M  V30 8413 H 810.68 1.53172 -6.29637 0
M  V30 8414 N 804.086 1.46499 0.581025 0
M  V30 8415 C 805.502 1.31491 0.904563 0
M  V30 8416 C 805.702 0.287598 1.99437 0
M  V30 8417 O 804.758 -0.309247 2.50599 0
M  V30 8418 C 806.071 2.70163 1.32032 0
M  V30 8419 C 807.619 2.78266 1.43308 0
M  V30 8420 C 808.094 4.17524 1.8825 0
M  V30 8421 N 809.585 4.19949 1.9544 0
M  V30 8422 C 810.32 5.24594 2.31493 0
M  V30 8423 N 809.816 6.39564 2.66326 0
M  V30 8424 N 811.609 5.11961 2.32062 0
M  V30 8425 H 803.76 2.11946 -0.138856 0
M  V30 8426 H 806.023 0.948 0.000548528 0
M  V30 8427 H 805.729 3.46655 0.593554 0
M  V30 8428 H 805.603 3.00379 2.2815 0
M  V30 8429 H 807.99 2.02061 2.15071 0
M  V30 8430 H 808.071 2.51732 0.45438 0
M  V30 8431 H 807.715 4.94225 1.17065 0
M  V30 8432 H 807.645 4.41466 2.87081 0
M  V30 8433 H 810.136 3.36996 1.71004 0
M  V30 8434 H 810.449 7.15187 2.92793 0
M  V30 8435 H 808.794 6.42923 2.6396 0
M  V30 8436 H 811.985 4.21177 2.04272 0
M  V30 8437 H 812.158 5.93626 2.5983 0
M  V30 8438 N 805.565 -0.825799 1.34232 0
M  V30 8439 C 806.495 -1.95151 1.28212 0
M  V30 8440 C 807.476 -1.69345 0.160123 0
M  V30 8441 O 808.661 -1.90983 0.352019 0
M  V30 8442 C 805.791 -3.31554 1.03388 0
M  V30 8443 C 804.745 -3.71793 2.12023 0
M  V30 8444 C 804.071 -5.06147 1.72392 0
M  V30 8445 C 805.371 -3.84193 3.53826 0
M  V30 8446 H 807.065 -2.00445 2.22401 0
M  V30 8447 H 804.611 -0.962996 1.07063 0
M  V30 8448 H 806.564 -4.09889 0.978225 0
M  V30 8449 H 805.288 -3.26551 0.0564142 0
M  V30 8450 H 803.947 -2.95731 2.16654 0
M  V30 8451 H 803.595 -4.97628 0.733137 0
M  V30 8452 H 803.295 -5.34041 2.451 0
M  V30 8453 H 804.819 -5.86943 1.68317 0
M  V30 8454 H 806.233 -4.52806 3.51624 0
M  V30 8455 H 804.63 -4.23538 4.2513 0
M  V30 8456 H 805.7 -2.86272 3.91377 0
M  V30 8457 N 807.043 -1.17915 -1.04565 0
M  V30 8458 C 808.283 -0.982331 -1.79247 0
M  V30 8459 C 808.647 0.47998 -1.85904 0
M  V30 8460 O 809.848 0.796078 -2.56741 0
M  V30 8461 C 808.119 -1.61329 -3.18916 0
M  V30 8462 S 809.678 -1.56355 -4.09998 0
M  V30 8463 H 806.496 -0.352869 -0.617256 0
M  V30 8464 H 809.098 -1.49971 -1.25415 0
M  V30 8465 H 807.802 -2.66993 -3.11678 0
M  V30 8466 H 807.333 -1.09599 -3.77825 0
M  V30 8467 H 809.348 -0.57593 -4.92846 0
M  V30 8468 N 808.521 1.23394 -0.980386 0
M  V30 8469 C 809.746 1.96384 -0.666935 0
M  V30 8470 C 810.171 1.72087 0.759456 0
M  V30 8471 O 809.529 0.992328 1.51732 0
M  V30 8472 C 809.577 3.47499 -0.963177 0
M  V30 8473 O 808.681 4.12363 -0.0552051 0
M  V30 8474 H 808.022 0.614797 -0.250839 0
M  V30 8475 H 810.552 1.56831 -1.31398 0
M  V30 8476 H 810.562 3.97953 -0.899877 0
M  V30 8477 H 809.237 3.6451 -2.00264 0
M  V30 8478 H 807.814 3.72499 -0.172914 0
M  V30 8479 N 809.999 0.752036 1.385 0
M  V30 8480 C 811.415 0.42946 1.53713 0
M  V30 8481 C 811.615 -1.0576 1.71514 0
M  V30 8482 O 810.671 -1.84366 1.72527 0
M  V30 8483 C 811.984 1.22735 2.74511 0
M  V30 8484 C 813.532 1.21727 2.8836 0
M  V30 8485 C 814.007 1.99809 4.12117 0
M  V30 8486 N 815.498 1.97062 4.19191 0
M  V30 8487 C 816.233 2.54274 5.13938 0
M  V30 8488 N 815.729 3.20193 6.14368 0
M  V30 8489 N 817.522 2.44212 5.06277 0
M  V30 8490 H 809.673 1.71581 1.25195 0
M  V30 8491 H 811.936 0.727293 0.60807 0
M  V30 8492 H 811.642 2.28032 2.67758 0
M  V30 8493 H 811.516 0.843186 3.67655 0
M  V30 8494 H 813.903 0.172367 2.94596 0
M  V30 8495 H 813.984 1.64094 1.96232 0
M  V30 8496 H 813.628 3.0431 4.06642 0
M  V30 8497 H 813.558 1.54837 5.03322 0
M  V30 8498 H 816.049 1.49054 3.47263 0
M  V30 8499 H 816.362 3.61272 6.83156 0
M  V30 8500 H 814.707 3.24287 6.14705 0
M  V30 8501 H 817.898 1.92343 4.26757 0
M  V30 8502 H 818.071 2.89096 5.79937 0
M  V30 8503 N 811.477 -1.49425 0.500989 0
M  V30 8504 C 812.725 -2.02053 -0.0434495 0
M  V30 8505 C 813.046 -1.38285 -1.37486 0
M  V30 8506 O 812.316 -0.538171 -1.88363 0
M  V30 8507 H 810.896 -0.746757 -0.0190469 0
M  V30 8508 H 813.558 -1.83449 0.658227 0
M  V30 8509 H 812.654 -3.11619 -0.173129 0
M  V30 8510 N 812.955 -0.234822 -1.55841 0
M  V30 8511 C 814.201 0.393843 -1.98939 0
M  V30 8512 C 814.534 1.58466 -1.1226 0
M  V30 8513 O 813.809 1.93635 -0.183242 0
M  V30 8514 C 814.092 0.815492 -3.50745 0
M  V30 8515 C 813.945 -0.379878 -4.48193 0
M  V30 8516 C 815.264 1.66687 -4.07312 0
M  V30 8517 H 812.383 0.141681 -0.723253 0
M  V30 8518 H 815.025 -0.333716 -1.87046 0
M  V30 8519 H 813.175 1.43541 -3.6101 0
M  V30 8520 H 814.847 -1.0182 -4.49923 0
M  V30 8521 H 813.09 -1.02507 -4.21515 0
M  V30 8522 H 813.761 -0.0417069 -5.51984 0
M  V30 8523 H 816.237 1.14369 -4.00074 0
M  V30 8524 H 815.113 1.93078 -5.13821 0
M  V30 8525 H 815.374 2.63468 -3.55017 0
M  V30 8526 N 814.433 1.57553 0.0384317 0
M  V30 8527 C 815.363 2.0898 1.04161 0
M  V30 8528 C 816.344 0.99029 1.38301 0
M  V30 8529 O 817.529 1.26499 1.47349 0
M  V30 8530 C 814.659 2.56145 2.34536 0
M  V30 8531 C 813.613 3.70275 2.14663 0
M  V30 8532 C 812.939 4.03612 3.50715 0
M  V30 8533 C 814.239 4.99067 1.54045 0
M  V30 8534 H 815.933 2.93046 0.613548 0
M  V30 8535 H 813.479 1.40973 0.293684 0
M  V30 8536 H 815.432 2.90741 3.05037 0
M  V30 8537 H 814.156 1.6915 2.79385 0
M  V30 8538 H 812.815 3.36013 1.46597 0
M  V30 8539 H 812.463 3.13698 3.93195 0
M  V30 8540 H 812.163 4.80482 3.38247 0
M  V30 8541 H 813.687 4.40735 4.22593 0
M  V30 8542 H 815.101 5.3168 2.14451 0
M  V30 8543 H 813.498 5.80484 1.52178 0
M  V30 8544 H 814.568 4.8226 0.505259 0
M  V30 8545 N 815.911 -0.310526 1.54511 0
M  V30 8546 C 816.858 -1.38264 1.84802 0
M  V30 8547 C 817.828 -1.50808 0.696141 0
M  V30 8548 O 819.013 -1.6582 0.943846 0
M  V30 8549 C 816.153 -2.74422 2.09252 0
M  V30 8550 C 815.266 -2.70405 3.36906 0
M  V30 8551 C 814.401 -3.98495 3.51248 0
M  V30 8552 C 813.44 -3.88836 4.72729 0
M  V30 8553 N 812.577 -5.08683 4.83928 0
M  V30 8554 H 817.417 -1.11732 2.76261 0
M  V30 8555 H 814.954 -0.540609 1.36806 0
M  V30 8556 H 816.912 -3.53593 2.21422 0
M  V30 8557 H 815.542 -2.99235 1.2107 0
M  V30 8558 H 814.594 -1.83151 3.33406 0
M  V30 8559 H 815.906 -2.59155 4.26193 0
M  V30 8560 H 815.06 -4.861 3.63031 0
M  V30 8561 H 813.799 -4.12567 2.60077 0
M  V30 8562 H 812.804 -2.99615 4.60989 0
M  V30 8563 H 814.029 -3.76318 5.65298 0
M  V30 8564 H 811.975 -5.23236 3.95677 0
M  V30 8565 H 811.892 -4.99819 5.67201 0
M  V30 8566 H 813.16 -5.97966 5.00057 0
M  V30 8567 N 817.389 -1.46805 -0.573248 0
M  V30 8568 C 818.637 -1.52302 -1.32847 0
M  V30 8569 C 818.958 -0.180159 -1.94166 0
M  V30 8570 O 818.228 0.794291 -1.79075 0
M  V30 8571 H 816.808 -0.56097 -0.493276 0
M  V30 8572 H 819.47 -1.82998 -0.670642 0
M  V30 8573 H 818.566 -2.28089 -2.13031 0
M  V30 8574 N 818.867 0.818669 -1.34668 0
M  V30 8575 C 820.092 1.61193 -1.30505 0
M  V30 8576 C 820.517 1.87734 0.117341 0
M  V30 8577 O 819.875 1.45591 1.08042 0
M  V30 8578 C 819.923 2.92733 -2.1057 0
M  V30 8579 O 819.027 3.85 -1.47813 0
M  V30 8580 H 818.368 0.490085 -0.44801 0
M  V30 8581 H 820.898 1.01701 -1.77534 0
M  V30 8582 H 820.908 3.42262 -2.22082 0
M  V30 8583 H 819.583 2.7274 -3.13984 0
M  V30 8584 H 818.16 3.43525 -1.45069 0
M  V30 8585 N 820.346 1.18468 1.03938 0
M  V30 8586 C 821.294 0.909286 2.14091 0
M  V30 8587 C 822.288 -0.130928 1.68893 0
M  V30 8588 O 823.494 0.0173403 1.79992 0
M  V30 8589 H 819.869 0.27658 0.699291 0
M  V30 8590 H 821.84 1.84514 2.34515 0
M  V30 8591 C 820.589 0.452922 3.44737 0
M  V30 8592 H 819.912 1.24485 3.79926 0
M  V30 8593 H 821.352 0.299238 4.22943 0
M  V30 8594 C 819.811 -0.831435 3.26479 0
M  V30 8595 O 820.341 -1.89535 3.54174 0
M  V30 8596 N 818.547 -0.784545 2.79809 0
M  V30 8597 H 818.094 0.0814746 2.57471 0
M  V30 8598 H 818.052 -1.64431 2.67973 0
M  V30 8599 N 821.824 -1.22873 0.986916 0
M  V30 8600 C 822.734 -2.28277 0.540978 0
M  V30 8601 C 823.75 -1.69164 -0.407363 0
M  V30 8602 O 824.926 -1.99504 -0.275674 0
M  V30 8603 C 821.991 -3.46404 -0.143181 0
M  V30 8604 C 821.052 -4.20854 0.847375 0
M  V30 8605 C 820.285 -5.33341 0.19577 0
M  V30 8606 O 820.508 -5.61356 -1.0117 0
M  V30 8607 O 819.442 -5.95169 0.897623 0
M  V30 8608 H 823.268 -2.68578 1.41773 0
M  V30 8609 H 820.853 -1.28927 0.754867 0
M  V30 8610 H 822.735 -4.18096 -0.526676 0
M  V30 8611 H 821.41 -3.08041 -0.994593 0
M  V30 8612 H 820.317 -3.51459 1.28169 0
M  V30 8613 H 821.65 -4.63082 1.6678 0
M  V30 8614 N 823.302 -0.75937 -1.38099 0
M  V30 8615 C 824.718 -0.437606 -1.53483 0
M  V30 8616 C 824.918 1.04849 -1.72072 0
M  V30 8617 O 823.974 1.83448 -1.73502 0
M  V30 8618 C 825.287 -1.24189 -2.73857 0
M  V30 8619 C 826.835 -1.23255 -2.8771 0
M  V30 8620 C 827.31 -2.01992 -4.11051 0
M  V30 8621 N 828.801 -1.99282 -4.1814 0
M  V30 8622 C 829.536 -2.56996 -5.12583 0
M  V30 8623 N 829.032 -3.23446 -6.12662 0
M  V30 8624 N 830.825 -2.46894 -5.04975 0
M  V30 8625 H 822.976 -1.72242 -1.24283 0
M  V30 8626 H 825.239 -0.730507 -0.604205 0
M  V30 8627 H 824.945 -2.29449 -2.66545 0
M  V30 8628 H 824.819 -0.862672 -3.67203 0
M  V30 8629 H 827.206 -0.187988 -2.94501 0
M  V30 8630 H 827.287 -1.65132 -1.95359 0
M  V30 8631 H 826.931 -3.06462 -4.05023 0
M  V30 8632 H 826.861 -1.57505 -5.02494 0
M  V30 8633 H 829.352 -1.50893 -3.46467 0
M  V30 8634 H 829.665 -3.6489 -6.81231 0
M  V30 8635 H 828.01 -3.27543 -6.12977 0
M  V30 8636 H 831.201 -1.94604 -4.25731 0
M  V30 8637 H 831.374 -2.92168 -5.78396 0
M  V30 8638 N 824.78 1.49157 -0.508906 0
M  V30 8639 C 826.196 1.58741 -0.165372 0
M  V30 8640 C 826.396 1.5133 1.33047 0
M  V30 8641 O 825.452 1.39135 2.10707 0
M  V30 8642 C 826.765 2.91217 -0.749194 0
M  V30 8643 C 828.313 3.047 -0.716015 0
M  V30 8644 C 828.788 4.39807 -1.27804 0
M  V30 8645 N 830.279 4.46319 -1.23908 0
M  V30 8646 C 831.014 5.49325 -1.64406 0
M  V30 8647 N 830.51 6.59395 -2.12534 0
M  V30 8648 N 832.303 5.40084 -1.55773 0
M  V30 8649 H 824.454 1.52217 -1.48134 0
M  V30 8650 H 826.717 0.721514 -0.614915 0
M  V30 8651 H 826.423 3.02233 -1.79856 0
M  V30 8652 H 826.297 3.76592 -0.214144 0
M  V30 8653 H 828.684 2.9331 0.324535 0
M  V30 8654 H 828.765 2.2099 -1.2883 0
M  V30 8655 H 828.409 4.5195 -2.31741 0
M  V30 8656 H 828.339 5.2217 -0.681623 0
M  V30 8657 H 830.83 3.67354 -0.886537 0
M  V30 8658 H 831.143 7.34102 -2.41485 0
M  V30 8659 H 829.488 6.60414 -2.16513 0
M  V30 8660 H 832.679 4.52986 -1.17987 0
M  V30 8661 H 832.852 6.20233 -1.87657 0
M  V30 8662 N 826.258 0.243083 1.55714 0
M  V30 8663 C 827.535 -0.432851 1.90751 0
M  V30 8664 C 827.915 -1.76153 1.16333 0
M  V30 8665 O 827.263 -2.26783 0.279565 0
M  V30 8666 C 827.473 -0.604685 3.43722 0
M  V30 8667 C 828.821 -0.90231 4.14902 0
M  V30 8668 O 829.845 -0.690689 3.49439 0
M  V30 8669 O 828.704 -1.3051 5.30688 0
M  V30 8670 H 825.798 -0.231835 0.79384 0
M  V30 8671 H 828.344 0.286867 1.67258 0
M  V30 8672 H 827.116 0.331655 3.89892 0
M  V30 8673 H 826.739 -1.37509 3.73065 0
M  V30 8674 N 827.736 -1.57571 -0.0300757 0
M  V30 8675 C 828.669 -2.01874 -1.06406 0
M  V30 8676 C 829.647 -0.902901 -1.35227 0
M  V30 8677 O 830.831 -1.16865 -1.47901 0
M  V30 8678 C 827.958 -2.39093 -2.39901 0
M  V30 8679 C 827.004 -3.61108 -2.26943 0
M  V30 8680 S 827.837 -5.10287 -1.62382 0
M  V30 8681 C 828.993 -5.50747 -2.97369 0
M  V30 8682 H 829.226 -2.89261 -0.686703 0
M  V30 8683 H 826.759 -1.52523 -0.240017 0
M  V30 8684 H 828.717 -2.61207 -3.16672 0
M  V30 8685 H 827.378 -1.52159 -2.74784 0
M  V30 8686 H 826.571 -3.84803 -3.25489 0
M  V30 8687 H 826.173 -3.3884 -1.58314 0
M  V30 8688 H 828.465 -5.51369 -3.93698 0
M  V30 8689 H 829.408 -6.51071 -2.78409 0
M  V30 8690 H 829.816 -4.7825 -2.99895 0
M  V30 8691 N 829.214 0.302327 -1.54673 0
M  V30 8692 C 830.124 1.39542 -1.88587 0
M  V30 8693 C 831.14 1.55543 -0.779895 0
M  V30 8694 O 832.316 1.70233 -1.07623 0
M  V30 8695 C 829.381 2.7394 -2.12504 0
M  V30 8696 C 828.442 2.66935 -3.3622 0
M  V30 8697 C 827.675 3.94923 -3.58987 0
M  V30 8698 O 827.898 4.94218 -2.84789 0
M  V30 8699 O 826.832 3.96896 -4.52501 0
M  V30 8700 H 830.658 1.13784 -2.81579 0
M  V30 8701 H 828.243 0.49827 -1.40846 0
M  V30 8702 H 830.125 3.5346 -2.29443 0
M  V30 8703 H 828.8 2.99544 -1.22698 0
M  V30 8704 H 827.707 1.85892 -3.24646 0
M  V30 8705 H 829.04 2.46283 -4.26152 0
M  V30 8706 N 830.692 1.47107 0.565454 0
M  V30 8707 C 831.917 1.57153 1.35343 0
M  V30 8708 C 832.342 0.219247 1.86818 0
M  V30 8709 O 831.7 -0.803539 1.62521 0
M  V30 8710 C 831.748 2.59387 2.50501 0
M  V30 8711 O 830.852 2.14086 3.52478 0
M  V30 8712 H 830.193 0.528209 0.402357 0
M  V30 8713 H 832.723 1.92821 0.684189 0
M  V30 8714 H 832.733 2.79546 2.97184 0
M  V30 8715 H 831.408 3.57579 2.12391 0
M  V30 8716 H 829.985 2.03991 3.12157 0
M  V30 8717 N 832.17 -0.811516 1.35101 0
M  V30 8718 C 833.417 -1.56835 1.28098 0
M  V30 8719 C 833.745 -1.93951 -0.14597 0
M  V30 8720 O 833 -1.61173 -1.11004 0
M  V30 8721 C 833.299 -2.87121 2.1283 0
M  V30 8722 C 832.965 -2.69245 3.61688 0
M  V30 8723 C 831.627 -2.64078 4.02264 0
M  V30 8724 C 833.979 -2.52122 4.56162 0
M  V30 8725 C 831.307 -2.39724 5.3549 0
M  V30 8726 C 833.659 -2.29298 5.89581 0
M  V30 8727 C 832.323 -2.2255 6.29307 0
M  V30 8728 H 831.593 -0.5739 0.468742 0
M  V30 8729 H 834.24 -0.93806 1.66951 0
M  V30 8730 H 832.545 -3.54502 1.66841 0
M  V30 8731 H 834.242 -3.44788 2.0475 0
M  V30 8732 H 830.832 -2.74112 3.29485 0
M  V30 8733 H 835.016 -2.5513 4.25702 0
M  V30 8734 H 830.272 -2.32965 5.65276 0
M  V30 8735 H 834.446 -2.15038 6.62368 0
M  V30 8736 H 832.073 -2.0344 7.32473 0
M  V30 8737 N 833.648 -1.19017 -1.03309 0
M  V30 8738 C 834.894 -1.0017 -1.77024 0
M  V30 8739 C 835.249 0.463062 -1.86744 0
M  V30 8740 O 834.542 1.33937 -1.37009 0
M  V30 8741 C 834.736 -1.59927 -3.19622 0
M  V30 8742 C 834.565 -3.12062 -3.23802 0
M  V30 8743 C 833.335 -3.80932 -3.31992 0
M  V30 8744 C 835.533 -4.0947 -3.1119 0
M  V30 8745 N 833.515 -5.20502 -3.25502 0
M  V30 8746 C 834.886 -5.3561 -3.12285 0
M  V30 8747 C 836.941 -4.00887 -2.95287 0
M  V30 8748 C 835.644 -6.54161 -2.99109 0
M  V30 8749 C 837.67 -5.19042 -2.83459 0
M  V30 8750 C 837.032 -6.44079 -2.85205 0
M  V30 8751 H 833.131 -0.420633 -0.659236 0
M  V30 8752 H 835.715 -1.5092 -1.23009 0
M  V30 8753 H 833.886 -1.11785 -3.71966 0
M  V30 8754 H 835.618 -1.34557 -3.81676 0
M  V30 8755 H 832.373 -3.31702 -3.38039 0
M  V30 8756 H 832.797 -5.93519 -3.25675 0
M  V30 8757 H 837.439 -3.05042 -2.92762 0
M  V30 8758 H 835.157 -7.50196 -3.00386 0
M  V30 8759 H 838.743 -5.14199 -2.72197 0
M  V30 8760 H 837.623 -7.33969 -2.7615 0
M  V30 8761 N 835.127 1.22348 -0.993418 0
M  V30 8762 C 836.074 2.24294 -0.544118 0
M  V30 8763 C 837.044 1.60602 0.42381 0
M  V30 8764 O 838.229 1.87952 0.328453 0
M  V30 8765 C 835.369 3.44837 0.134578 0
M  V30 8766 C 834.482 4.23043 -0.875151 0
M  V30 8767 C 833.617 5.30928 -0.169919 0
M  V30 8768 C 832.656 6.00853 -1.16798 0
M  V30 8769 N 831.793 7.00381 -0.491021 0
M  V30 8770 H 836.633 2.6209 -1.4182 0
M  V30 8771 H 834.17 1.2881 -0.710384 0
M  V30 8772 H 836.128 4.13625 0.544998 0
M  V30 8773 H 834.758 3.07804 0.972446 0
M  V30 8774 H 833.81 3.53546 -1.40389 0
M  V30 8775 H 835.122 4.71237 -1.63516 0
M  V30 8776 H 834.276 6.05972 0.297205 0
M  V30 8777 H 833.015 4.8371 0.622586 0
M  V30 8778 H 832.02 5.24591 -1.64573 0
M  V30 8779 H 833.245 6.50159 -1.96137 0
M  V30 8780 H 831.191 6.55393 0.282037 0
M  V30 8781 H 831.108 7.46584 -1.18947 0
M  V30 8782 H 832.376 7.79486 -0.0467169 0
M  V30 8783 N 836.605 0.766683 1.37694 0
M  V30 8784 C 837.535 0.163432 2.32927 0
M  V30 8785 C 838.516 -0.688861 1.55527 0
M  V30 8786 O 839.701 -0.627363 1.83787 0
M  V30 8787 C 836.831 -0.720416 3.39746 0
M  V30 8788 C 835.785 0.0301718 4.27989 0
M  V30 8789 C 835.111 -0.972788 5.25776 0
M  V30 8790 C 836.411 1.20623 5.0818 0
M  V30 8791 H 838.105 0.958988 2.83626 0
M  V30 8792 H 835.651 0.462601 1.36367 0
M  V30 8793 H 837.604 -1.15221 4.05342 0
M  V30 8794 H 836.328 -1.54844 2.8756 0
M  V30 8795 H 834.987 0.442685 3.63917 0
M  V30 8796 H 834.635 -1.79522 4.69873 0
M  V30 8797 H 834.335 -0.475145 5.85676 0
M  V30 8798 H 835.859 -1.40362 5.94248 0
M  V30 8799 H 837.273 0.851341 5.66944 0
M  V30 8800 H 835.67 1.63561 5.7738 0
M  V30 8801 H 836.74 2.01281 4.41151 0
M  V30 8802 N 838.083 -1.48885 0.516809 0
M  V30 8803 C 839.031 -2.31066 -0.266656 0
M  V30 8804 C 840.025 -1.40393 -0.94795 0
M  V30 8805 O 841.231 -1.57366 -0.873836 0
M  V30 8806 H 837.606 -0.744654 -0.104858 0
M  V30 8807 H 839.577 -2.95045 0.446236 0
M  V30 8808 C 838.326 -3.22131 -1.3087 0
M  V30 8809 H 837.649 -3.91839 -0.793865 0
M  V30 8810 H 839.089 -3.82544 -1.82856 0
M  V30 8811 C 837.548 -2.42825 -2.33533 0
M  V30 8812 O 838.078 -2.14364 -3.39722 0
M  V30 8813 N 836.284 -2.04559 -2.06407 0
M  V30 8814 H 835.831 -2.27905 -1.20071 0
M  V30 8815 H 835.789 -1.51807 -2.75322 0
M  V30 8816 N 839.561 -0.251338 -1.55583 0
M  V30 8817 C 840.977 0.103409 -1.59265 0
M  V30 8818 C 841.177 1.56559 -1.26852 0
M  V30 8819 O 840.233 2.31071 -1.01796 0
M  V30 8820 C 841.546 -0.249781 -2.99661 0
M  V30 8821 C 843.094 -0.194442 -3.12395 0
M  V30 8822 C 843.569 -0.521728 -4.55019 0
M  V30 8823 N 845.06 -0.472393 -4.60785 0
M  V30 8824 C 845.795 -0.698737 -5.69127 0
M  V30 8825 N 845.291 -0.988443 -6.85713 0
M  V30 8826 N 847.084 -0.629143 -5.58568 0
M  V30 8827 H 839.235 -1.20484 -1.74921 0
M  V30 8828 H 841.498 -0.485092 -0.814488 0
M  V30 8829 H 841.204 -1.26577 -3.28133 0
M  V30 8830 H 841.078 0.420973 -3.74844 0
M  V30 8831 H 843.465 0.812229 -2.83702 0
M  V30 8832 H 843.546 -0.899111 -2.39478 0
M  V30 8833 H 843.19 -1.52597 -4.84434 0
M  V30 8834 H 843.12 0.204468 -5.26203 0
M  V30 8835 H 845.611 -0.257386 -3.77022 0
M  V30 8836 H 845.924 -1.14846 -7.64219 0
M  V30 8837 H 844.269 -1.02596 -6.87386 0
M  V30 8838 H 847.46 -0.402826 -4.66364 0
M  V30 8839 H 847.633 -0.808935 -6.42931 0
M  V30 8840 N 841.039 1.57585 0.0217189 0
M  V30 8841 C 842.264 1.94267 0.726309 0
M  V30 8842 C 842.689 0.851904 1.67703 0
M  V30 8843 O 842.047 -0.191792 1.80283 0
M  V30 8844 C 842.095 3.30023 1.45318 0
M  V30 8845 O 841.199 3.22791 2.5667 0
M  V30 8846 H 840.54 0.634777 0.194818 0
M  V30 8847 H 843.07 2.04585 -0.0249985 0
M  V30 8848 H 843.08 3.65084 1.82147 0
M  V30 8849 H 841.755 4.08972 0.755962 0
M  V30 8850 H 840.332 2.99373 2.2233 0
M  V30 8851 N 842.517 -0.29412 1.54831 0
M  V30 8852 C 843.928 -0.866651 1.65366 0
M  V30 8853 C 844.279 -1.87834 0.56681 0
M  V30 8854 O 843.404 -2.14374 -0.295389 0
M  V30 8855 C 843.999 -1.57869 2.99771 0
M  V30 8856 C 842.558 -2.09954 3.12404 0
M  V30 8857 C 841.705 -0.934492 2.6108 0
M  V30 8858 H 844.656 -0.0709551 1.58541 0
M  V30 8859 H 844.677 -2.44462 2.91579 0
M  V30 8860 H 844.189 -0.84212 3.78853 0
M  V30 8861 H 842.29 -2.86637 2.38055 0
M  V30 8862 H 842.403 -2.32934 4.18663 0
M  V30 8863 H 840.767 -1.32199 2.17705 0
M  V30 8864 H 841.55 -0.211768 3.42646 0
M  V30 8865 N 843.995 -1.47404 -0.557645 0
M  V30 8866 C 845.243 -1.53703 -1.31224 0
M  V30 8867 C 845.564 -0.200742 -1.93964 0
M  V30 8868 O 844.834 0.775253 -1.79907 0
M  V30 8869 H 843.414 -0.566171 -0.487299 0
M  V30 8870 H 846.076 -1.83699 -0.651195 0
M  V30 8871 H 845.172 -2.30335 -2.10599 0
M  V30 8872 N 845.473 0.80434 -1.35529 0
M  V30 8873 C 846.698 1.598 -1.32207 0
M  V30 8874 C 847.123 1.87848 0.0974226 0
M  V30 8875 O 846.481 1.46728 1.06492 0
M  V30 8876 C 846.529 2.90483 -2.13663 0
M  V30 8877 O 845.633 3.83411 -1.51888 0
M  V30 8878 H 844.974 0.485305 -0.453183 0
M  V30 8879 H 847.504 0.998119 -1.78602 0
M  V30 8880 H 847.514 3.39888 -2.257 0
M  V30 8881 H 846.189 2.69395 -3.16859 0
M  V30 8882 H 844.766 3.41967 -1.48704 0
M  V30 8883 N 846.951 1.19563 1.02676 0
M  V30 8884 C 848.228 0.908857 1.73203 0
M  V30 8885 C 848.608 -0.584928 2.02834 0
M  V30 8886 O 847.956 -1.54372 1.68469 0
M  V30 8887 C 848.166 1.77105 3.00724 0
M  V30 8888 C 849.514 2.00667 3.7419 0
M  V30 8889 O 850.538 1.74274 3.10656 0
M  V30 8890 O 849.397 2.4518 4.88415 0
M  V30 8891 H 846.491 0.338909 0.754367 0
M  V30 8892 H 849.037 1.30387 1.08616 0
M  V30 8893 H 847.809 2.78303 2.7507 0
M  V30 8894 H 847.432 1.37546 3.73051 0
M  V30 8895 N 848.429 -1.21819 0.999893 0
M  V30 8896 C 849.845 -1.42847 0.711824 0
M  V30 8897 C 850.045 -1.88391 -0.714928 0
M  V30 8898 O 849.101 -2.0422 -1.48494 0
M  V30 8899 C 850.414 -2.46417 1.72334 0
M  V30 8900 C 851.962 -2.60207 1.73958 0
M  V30 8901 C 852.437 -3.67005 2.73992 0
M  V30 8902 N 853.928 -3.7447 2.72628 0
M  V30 8903 C 854.663 -4.56718 3.46693 0
M  V30 8904 N 854.159 -5.42904 4.3038 0
M  V30 8905 N 855.952 -4.51094 3.35366 0
M  V30 8906 H 848.103 -0.905656 1.92124 0
M  V30 8907 H 850.366 -0.459893 0.828977 0
M  V30 8908 H 850.072 -2.19914 2.74465 0
M  V30 8909 H 849.946 -3.45137 1.52186 0
M  V30 8910 H 852.333 -2.8605 0.725217 0
M  V30 8911 H 852.414 -1.61739 1.98177 0
M  V30 8912 H 852.058 -3.41908 3.75582 0
M  V30 8913 H 851.988 -4.65058 2.4704 0
M  V30 8914 H 854.479 -3.12895 2.11909 0
M  V30 8915 H 854.792 -6.02704 4.83702 0
M  V30 8916 H 853.137 -5.42463 4.34464 0
M  V30 8917 H 856.328 -3.82791 2.69423 0
M  V30 8918 H 856.501 -5.1496 3.93344 0
M  V30 8919 N 849.908 -0.773975 -1.37286 0
M  V30 8920 C 851.138 -0.350249 -2.03609 0
M  V30 8921 C 851.546 1.03313 -1.58502 0
M  V30 8922 O 850.889 1.67118 -0.7627 0
M  V30 8923 C 850.951 -0.317215 -3.58098 0
M  V30 8924 C 850.615 -1.64556 -4.26345 0
M  V30 8925 C 851.612 -2.59839 -4.50311 0
M  V30 8926 C 849.297 -1.92061 -4.64131 0
M  V30 8927 C 851.291 -3.80833 -5.11122 0
M  V30 8928 C 848.978 -3.13325 -5.24663 0
M  V30 8929 C 849.976 -4.0753 -5.48095 0
M  V30 8930 O 849.664 -5.26658 -6.0736 0
M  V30 8931 H 849.396 -0.144456 -0.660385 0
M  V30 8932 H 851.95 -1.0496 -1.76557 0
M  V30 8933 H 850.18 0.438528 -3.84205 0
M  V30 8934 H 851.869 0.0797428 -4.05822 0
M  V30 8935 H 852.635 -2.39872 -4.21529 0
M  V30 8936 H 848.514 -1.19562 -4.45226 0
M  V30 8937 H 852.058 -4.54377 -5.29327 0
M  V30 8938 H 847.955 -3.33177 -5.52869 0
M  V30 8939 H 848.723 -5.27513 -6.25837 0
M  V30 8940 N 851.386 1.48609 -0.524698 0
M  V30 8941 C 852.316 2.32366 0.229837 0
M  V30 8942 C 853.297 1.41759 0.940129 0
M  V30 8943 O 854.482 1.7065 0.926936 0
M  V30 8944 C 851.612 3.22835 1.28043 0
M  V30 8945 C 850.566 4.22424 0.688603 0
M  V30 8946 C 849.892 5.0199 1.84146 0
M  V30 8947 C 851.192 5.21217 -0.336176 0
M  V30 8948 H 852.886 2.95698 -0.469339 0
M  V30 8949 H 850.432 1.42197 -0.227156 0
M  V30 8950 H 852.385 3.80253 1.8162 0
M  V30 8951 H 851.109 2.57492 2.00912 0
M  V30 8952 H 849.768 3.66185 0.174402 0
M  V30 8953 H 849.416 4.33076 2.5584 0
M  V30 8954 H 849.116 5.69392 1.45142 0
M  V30 8955 H 850.64 5.62259 2.38111 0
M  V30 8956 H 852.054 5.7319 0.112307 0
M  V30 8957 H 850.451 5.96642 -0.643324 0
M  V30 8958 H 851.521 4.68676 -1.24381 0
M  V30 8959 N 852.864 0.259585 1.55447 0
M  V30 8960 C 853.774 -0.645026 2.25558 0
M  V30 8961 C 854.79 -1.18291 1.27606 0
M  V30 8962 O 855.966 -1.21649 1.6051 0
M  V30 8963 C 853.031 -1.81964 2.9511 0
M  V30 8964 C 852.092 -1.31997 4.08504 0
M  V30 8965 C 851.325 -2.43861 4.74729 0
M  V30 8966 O 851.548 -3.62876 4.40088 0
M  V30 8967 O 850.482 -2.12898 5.6299 0
M  V30 8968 H 854.308 -0.0775399 3.03601 0
M  V30 8969 H 851.893 0.0275859 1.49375 0
M  V30 8970 H 853.775 -2.50485 3.38873 0
M  V30 8971 H 852.45 -2.37451 2.19997 0
M  V30 8972 H 851.357 -0.601676 3.6923 0
M  V30 8973 H 852.69 -0.811045 4.85472 0
M  V30 8974 N 854.342 -1.57594 -0.0133615 0
M  V30 8975 C 855.567 -1.94649 -0.715996 0
M  V30 8976 C 855.992 -0.860786 -1.67249 0
M  V30 8977 O 855.35 0.182228 -1.80382 0
M  V30 8978 C 855.398 -3.30789 -1.43566 0
M  V30 8979 O 854.502 -3.24148 -2.54955 0
M  V30 8980 H 853.843 -0.635801 -0.191449 0
M  V30 8981 H 856.373 -2.04569 0.0358478 0
M  V30 8982 H 856.383 -3.66045 -1.80208 0
M  V30 8983 H 855.058 -4.09367 -0.734263 0
M  V30 8984 H 853.635 -3.00548 -2.20739 0
M  V30 8985 N 855.82 0.285905 -1.54985 0
M  V30 8986 C 857.236 0.632405 -1.46536 0
M  V30 8987 C 857.436 1.90074 -0.668888 0
M  V30 8988 O 856.492 2.51839 -0.182586 0
M  V30 8989 C 857.805 0.771361 -2.90638 0
M  V30 8990 C 859.353 0.866262 -3.00774 0
M  V30 8991 C 859.828 1.0371 -4.46103 0
M  V30 8992 N 861.319 1.10294 -4.49877 0
M  V30 8993 C 862.054 1.25369 -5.59527 0
M  V30 8994 N 861.55 1.37246 -6.7907 0
M  V30 8995 N 863.343 1.28377 -5.47244 0
M  V30 8996 H 855.494 -0.547226 -2.0523 0
M  V30 8997 H 857.757 -0.183298 -0.930111 0
M  V30 8998 H 857.463 -0.0899485 -3.51585 0
M  V30 8999 H 857.337 1.65569 -3.3892 0
M  V30 9000 H 859.724 1.71805 -2.39931 0
M  V30 9001 H 859.805 -0.0424049 -2.55765 0
M  V30 9002 H 859.449 0.190021 -5.07544 0
M  V30 9003 H 859.379 1.96022 -4.88757 0
M  V30 9004 H 861.87 1.02407 -3.6376 0
M  V30 9005 H 862.183 1.48546 -7.58389 0
M  V30 9006 H 860.528 1.34274 -6.81906 0
M  V30 9007 H 863.719 1.1872 -4.52795 0
M  V30 9008 H 863.892 1.39782 -6.32744 0
M  V30 9009 N 857.298 1.47698 0.54982 0
M  V30 9010 C 858.575 1.45185 1.31075 0
M  V30 9011 C 858.955 0.152768 2.10547 0
M  V30 9012 O 858.303 -0.865706 2.11466 0
M  V30 9013 C 858.513 2.70192 2.20902 0
M  V30 9014 C 859.861 3.1771 2.81683 0
M  V30 9015 O 860.885 2.70971 2.312 0
M  V30 9016 O 859.744 3.98986 3.7346 0
M  V30 9017 H 856.838 0.57892 0.590577 0
M  V30 9018 H 859.384 1.59908 0.568112 0
M  V30 9019 H 858.156 3.56269 1.61828 0
M  V30 9020 H 857.779 2.58091 3.02448 0
M  V30 9021 N 858.776 -0.797141 1.35954 0
M  V30 9022 C 859.739 -1.89104 1.29508 0
M  V30 9023 C 860.739 -1.59495 0.204444 0
M  V30 9024 O 861.929 -1.68051 0.458746 0
M  V30 9025 C 859.061 -3.25726 1.00576 0
M  V30 9026 H 860.254 -1.96237 2.26785 0
M  V30 9027 H 857.807 -0.994075 1.20614 0
M  V30 9028 H 858.542 -3.24279 0.0372519 0
M  V30 9029 H 858.327 -3.48604 1.79492 0
M  V30 9030 H 859.817 -4.0578 0.986508 0
M  V30 9031 N 860.254 -1.20106 -1.0204 0
M  V30 9032 C 861.479 -1.0351 -1.79723 0
M  V30 9033 C 861.904 0.411328 -1.83548 0
M  V30 9034 O 861.262 1.29608 -1.26773 0
M  V30 9035 C 861.31 -1.61876 -3.22224 0
M  V30 9036 O 860.414 -0.853813 -4.03465 0
M  V30 9037 H 859.755 -0.365299 -0.554484 0
M  V30 9038 H 862.285 -1.59316 -1.28373 0
M  V30 9039 H 862.295 -1.65451 -3.72948 0
M  V30 9040 H 860.97 -2.67148 -3.18755 0
M  V30 9041 H 859.547 -0.891983 -3.62075 0
M  V30 9042 N 861.732 1.21287 -1.00634 0
M  V30 9043 C 863.148 1.42467 -0.719389 0
M  V30 9044 C 863.348 1.88767 0.704927 0
M  V30 9045 O 862.404 2.05004 1.47409 0
M  V30 9046 C 863.717 2.455 -1.73639 0
M  V30 9047 C 865.265 2.59281 -1.75335 0
M  V30 9048 C 865.74 3.65547 -2.75934 0
M  V30 9049 N 867.231 3.73019 -2.74611 0
M  V30 9050 C 867.966 4.54873 -3.4911 0
M  V30 9051 N 867.462 5.40614 -4.33253 0
M  V30 9052 N 869.255 4.49309 -3.37754 0
M  V30 9053 H 861.406 0.895454 -1.92602 0
M  V30 9054 H 863.669 0.455491 -0.831404 0
M  V30 9055 H 863.375 2.18455 -2.75627 0
M  V30 9056 H 863.249 3.44325 -1.54014 0
M  V30 9057 H 865.636 2.85661 -0.740377 0
M  V30 9058 H 865.717 1.60685 -1.99032 0
M  V30 9059 H 865.361 3.39911 -3.77389 0
M  V30 9060 H 865.291 4.63741 -2.49503 0
M  V30 9061 H 867.782 3.11766 -2.13565 0
M  V30 9062 H 868.095 6.0013 -4.86892 0
M  V30 9063 H 866.44 5.40151 -4.37335 0
M  V30 9064 H 869.631 3.81357 -2.71449 0
M  V30 9065 H 869.804 5.12867 -3.9607 0
M  V30 9066 N 863.21 0.781244 1.36873 0
M  V30 9067 C 864.14 0.188128 2.32741 0
M  V30 9068 C 865.121 -0.672326 1.56249 0
M  V30 9069 O 866.306 -0.607835 1.84442 0
M  V30 9070 C 863.436 -0.684341 3.40491 0
M  V30 9071 C 862.39 0.0755641 4.27933 0
M  V30 9072 C 861.716 -0.916968 5.26779 0
M  V30 9073 C 863.016 1.26006 5.06873 0
M  V30 9074 H 864.71 0.989016 2.82593 0
M  V30 9075 H 862.256 0.477038 1.35869 0
M  V30 9076 H 864.209 -1.10915 4.06541 0
M  V30 9077 H 862.933 -1.51785 2.89187 0
M  V30 9078 H 861.592 0.481258 3.63427 0
M  V30 9079 H 861.24 -1.74528 4.71751 0
M  V30 9080 H 860.94 -0.413 5.86147 0
M  V30 9081 H 862.464 -1.34052 5.95703 0
M  V30 9082 H 863.878 0.911425 5.66009 0
M  V30 9083 H 862.275 1.69676 5.75613 0
M  V30 9084 H 863.345 2.05948 4.38991 0
M  V30 9085 N 864.689 -1.48329 0.532571 0
M  V30 9086 C 865.914 -2.074 0.00147755 0
M  V30 9087 C 866.339 -1.38615 -1.27151 0
M  V30 9088 O 865.697 -0.452949 -1.75551 0
M  V30 9089 C 865.745 -3.60029 -0.202866 0
M  V30 9090 O 864.849 -3.92327 -1.27097 0
M  V30 9091 H 864.19 -0.662777 0.0402883 0
M  V30 9092 H 866.72 -1.90701 0.741224 0
M  V30 9093 H 866.73 -4.05783 -0.424722 0
M  V30 9094 H 865.405 -4.09496 0.727033 0
M  V30 9095 H 863.982 -3.58348 -1.03156 0
M  V30 9096 N 866.167 -0.267825 -1.55308 0
M  V30 9097 C 867.415 0.350343 -1.9904 0
M  V30 9098 C 867.736 1.56924 -1.15758 0
M  V30 9099 O 867.006 1.94358 -0.245336 0
M  V30 9100 H 865.586 0.132435 -0.735167 0
M  V30 9101 H 868.248 -0.371471 -1.91327 0
M  V30 9102 H 867.344 0.645203 -3.05358 0
M  V30 9103 N 867.645 1.57599 0.00500368 0
M  V30 9104 C 869.061 1.55463 0.361015 0
M  V30 9105 C 869.261 0.997051 1.75103 0
M  V30 9106 O 868.317 0.628661 2.44549 0
M  V30 9107 C 869.63 2.99734 0.240828 0
M  V30 9108 C 871.178 3.11399 0.316138 0
M  V30 9109 C 871.653 4.57446 0.22513 0
M  V30 9110 N 873.144 4.62334 0.283186 0
M  V30 9111 C 873.879 5.72914 0.23603 0
M  V30 9112 N 873.375 6.92659 0.139762 0
M  V30 9113 N 875.168 5.61364 0.287529 0
M  V30 9114 H 867.319 1.92185 -0.904359 0
M  V30 9115 H 869.582 0.882529 -0.34619 0
M  V30 9116 H 869.288 3.44348 -0.715343 0
M  V30 9117 H 869.162 3.63009 1.02491 0
M  V30 9118 H 871.549 2.66718 1.26275 0
M  V30 9119 H 871.63 2.50911 -0.497725 0
M  V30 9120 H 871.274 5.02801 -0.717917 0
M  V30 9121 H 871.204 5.15874 1.05742 0
M  V30 9122 H 873.695 3.7619 0.359123 0
M  V30 9123 H 874.008 7.72722 0.10954 0
M  V30 9124 H 872.353 6.9492 0.105462 0
M  V30 9125 H 875.544 4.66707 0.360897 0
M  V30 9126 H 875.717 6.47528 0.247313 0
M  V30 9127 N 869.123 -0.277682 1.55134 0
M  V30 9128 C 870.4 -1.0309 1.66228 0
M  V30 9129 C 870.78 -2.0445 0.525701 0
M  V30 9130 O 870.128 -2.23512 -0.474816 0
M  V30 9131 C 870.338 -1.6919 3.05247 0
M  V30 9132 C 871.686 -2.20526 3.62841 0
M  V30 9133 O 872.71 -1.79185 3.07849 0
M  V30 9134 O 871.569 -2.96342 4.59177 0
M  V30 9135 H 868.663 -0.4779 0.674937 0
M  V30 9136 H 871.209 -0.273912 1.67475 0
M  V30 9137 H 869.981 -0.957163 3.79413 0
M  V30 9138 H 869.604 -2.51587 3.07879 0
M  V30 9139 N 870.601 -1.47988 -0.541979 0
M  V30 9140 C 872.012 -1.49073 -1.12402 0
M  V30 9141 C 872.363 -0.253825 -1.94551 0
M  V30 9142 O 871.488 0.640056 -2.06718 0
M  V30 9143 C 872.083 -2.7011 -2.04514 0
M  V30 9144 C 870.642 -2.74105 -2.5796 0
M  V30 9145 C 869.789 -2.42409 -1.3466 0
M  V30 9146 H 872.74 -1.55277 -0.327818 0
M  V30 9147 H 872.761 -2.47946 -2.88623 0
M  V30 9148 H 872.273 -3.60117 -1.44697 0
M  V30 9149 H 870.374 -1.88276 -3.21532 0
M  V30 9150 H 870.487 -3.75213 -2.97913 0
M  V30 9151 H 868.851 -1.9331 -1.65841 0
M  V30 9152 H 869.634 -3.34642 -0.766133 0
M  V30 9153 N 872.079 0.78992 -1.36375 0
M  V30 9154 C 873.304 1.58389 -1.33895 0
M  V30 9155 C 873.729 1.8794 0.0774934 0
M  V30 9156 O 873.087 1.4785 1.0493 0
M  V30 9157 C 873.135 2.88201 -2.16732 0
M  V30 9158 O 872.239 3.81778 -1.55946 0
M  V30 9159 H 871.58 0.480471 -0.458305 0
M  V30 9160 H 874.11 0.979119 -1.79651 0
M  V30 9161 H 874.12 3.37475 -2.29292 0
M  V30 9162 H 872.795 2.66019 -3.19698 0
M  V30 9163 H 871.372 3.40371 -1.52323 0
M  V30 9164 N 873.557 1.20646 1.01402 0
M  V30 9165 C 874.782 1.04462 1.79172 0
M  V30 9166 C 875.207 -0.401588 1.83763 0
M  V30 9167 O 874.565 -1.28934 1.27459 0
M  V30 9168 C 874.613 1.63583 3.21361 0
M  V30 9169 O 873.717 0.875198 4.03006 0
M  V30 9170 H 873.058 0.368235 0.552539 0
M  V30 9171 H 875.588 1.59994 1.27526 0
M  V30 9172 H 875.598 1.67426 3.72065 0
M  V30 9173 H 874.273 2.68835 3.17334 0
M  V30 9174 H 872.85 0.911172 3.61597 0
M  V30 9175 N 875.035 -1.20752 1.01276 0
M  V30 9176 C 876.281 -1.90582 0.710627 0
M  V30 9177 C 876.636 -1.7713 -0.751184 0
M  V30 9178 O 875.929 -1.14223 -1.5383 0
M  V30 9179 C 876.123 -3.40808 1.07633 0
M  V30 9180 C 875.952 -3.68878 2.57214 0
M  V30 9181 C 874.722 -3.87805 3.23937 0
M  V30 9182 C 876.92 -3.71753 3.55393 0
M  V30 9183 N 874.902 -4.0336 4.62789 0
M  V30 9184 C 876.273 -3.92686 4.79789 0
M  V30 9185 C 878.328 -3.54697 3.4942 0
M  V30 9186 C 877.031 -3.98332 5.98936 0
M  V30 9187 C 879.057 -3.61612 4.67964 0
M  V30 9188 C 878.419 -3.83014 5.91168 0
M  V30 9189 H 874.518 -0.717219 0.311643 0
M  V30 9190 H 877.102 -1.45228 1.2968 0
M  V30 9191 H 875.273 -3.84923 0.518527 0
M  V30 9192 H 877.005 -3.98096 0.728128 0
M  V30 9193 H 873.76 -3.86029 2.74369 0
M  V30 9194 H 874.184 -4.15023 5.34869 0
M  V30 9195 H 878.826 -3.3712 2.55166 0
M  V30 9196 H 876.544 -4.14706 6.93574 0
M  V30 9197 H 880.13 -3.49728 4.64954 0
M  V30 9198 H 879.01 -3.88219 6.81363 0
M  V30 9199 N 876.513 -0.788492 -1.36457 0
M  V30 9200 C 877.741 -0.372365 -2.03522 0
M  V30 9201 C 878.156 1.01093 -1.59454 0
M  V30 9202 O 877.513 1.64824 -0.783535 0
M  V30 9203 C 877.564 -0.425435 -3.58988 0
M  V30 9204 O 877.285 -1.75418 -4.01448 0
M  V30 9205 C 878.786 0.000180167 -4.433 0
M  V30 9206 H 876.006 -0.1536 -0.653183 0
M  V30 9207 H 878.55 -1.06708 -1.74452 0
M  V30 9208 H 876.705 0.220856 -3.8677 0
M  V30 9209 H 877.119 -1.70437 -4.96036 0
M  V30 9210 H 878.593 -0.0880919 -5.5193 0
M  V30 9211 H 879.07 1.05269 -4.26398 0
M  V30 9212 H 879.676 -0.618563 -4.20778 0
M  V30 9213 N 877.991 1.48044 -0.54043 0
M  V30 9214 C 879.237 2.02797 -0.0101718 0
M  V30 9215 C 879.57 1.41565 1.32939 0
M  V30 9216 O 878.845 0.565139 1.86109 0
M  V30 9217 C 879.128 3.59959 0.100758 0
M  V30 9218 C 878.981 4.31654 -1.26471 0
M  V30 9219 C 880.3 4.32347 0.822455 0
M  V30 9220 H 877.419 0.736982 -0.00517052 0
M  V30 9221 H 880.061 1.76656 -0.69948 0
M  V30 9222 H 878.211 3.82363 0.687824 0
M  V30 9223 H 879.883 4.20639 -1.89369 0
M  V30 9224 H 878.126 3.92663 -1.84386 0
M  V30 9225 H 878.797 5.401 -1.13998 0
M  V30 9226 H 881.273 4.14835 0.324164 0
M  V30 9227 H 880.149 5.41978 0.868993 0
M  V30 9228 H 880.41 4.00369 1.87501 0
M  V30 9229 N 879.47 0.276058 1.55163 0
M  V30 9230 C 880.38 -0.621066 2.2623 0
M  V30 9231 C 881.396 -1.16931 1.28853 0
M  V30 9232 O 882.572 -1.1994 1.61791 0
M  V30 9233 C 879.637 -1.78824 2.97023 0
M  V30 9234 C 878.698 -1.27657 4.09881 0
M  V30 9235 C 877.931 -2.38812 4.77289 0
M  V30 9236 O 878.154 -3.58188 4.43912 0
M  V30 9237 O 877.088 -2.06915 5.65217 0
M  V30 9238 H 880.914 -0.0453346 3.03666 0
M  V30 9239 H 878.499 0.0434275 1.49337 0
M  V30 9240 H 880.381 -2.46877 3.41511 0
M  V30 9241 H 879.056 -2.35104 2.22503 0
M  V30 9242 H 877.963 -0.56248 3.69847 0
M  V30 9243 H 879.296 -0.759509 4.86305 0
M  V30 9244 N 880.948 -1.576 0.00335426 0
M  V30 9245 C 882.225 -1.81945 -0.718015 0
M  V30 9246 C 882.605 -0.881788 -1.91801 0
M  V30 9247 O 881.953 0.0687118 -2.28397 0
M  V30 9248 C 882.163 -3.30521 -1.12058 0
M  V30 9249 C 883.511 -3.96345 -1.52303 0
M  V30 9250 O 884.535 -3.34864 -1.21428 0
M  V30 9251 O 883.394 -5.04655 -2.09728 0
M  V30 9252 H 880.488 -0.749328 -0.34991 0
M  V30 9253 H 883.034 -1.69675 0.0290654 0
M  V30 9254 H 881.806 -3.90399 -0.265378 0
M  V30 9255 H 881.429 -3.47802 -1.92665 0
M  V30 9256 N 882.426 0.269451 -1.5528 0
M  V30 9257 C 883.672 1.00206 -1.76314 0
M  V30 9258 C 884.005 1.85812 -0.564581 0
M  V30 9259 O 883.28 1.89509 0.437769 0
M  V30 9260 C 883.563 1.88163 -3.07029 0
M  V30 9261 C 883.416 1.05527 -4.37246 0
M  V30 9262 C 884.735 2.8681 -3.33808 0
M  V30 9263 H 881.854 0.36288 -0.641473 0
M  V30 9264 H 884.496 0.274188 -1.88011 0
M  V30 9265 H 882.646 2.50224 -2.97187 0
M  V30 9266 H 884.318 0.455094 -4.5905 0
M  V30 9267 H 882.561 0.358842 -4.32313 0
M  V30 9268 H 883.232 1.70397 -5.25042 0
M  V30 9269 H 885.708 2.34884 -3.43466 0
M  V30 9270 H 884.584 3.45492 -4.26528 0
M  V30 9271 H 884.845 3.62118 -2.5362 0
M  V30 9272 N 883.904 1.48273 0.534124 0
M  V30 9273 C 884.837 1.57053 1.65559 0
M  V30 9274 C 885.815 0.421213 1.5705 0
M  V30 9275 O 886.999 0.632242 1.77581 0
M  V30 9276 C 884.126 1.49465 3.03937 0
M  V30 9277 C 883.172 2.69186 3.30819 0
M  V30 9278 S 884.005 4.31192 3.17543 0
M  V30 9279 C 885.161 4.26197 4.58375 0
M  V30 9280 H 885.394 2.51927 1.57861 0
M  V30 9281 H 882.927 1.36755 0.716763 0
M  V30 9282 H 884.885 1.45775 3.83745 0
M  V30 9283 H 883.546 0.559357 3.09079 0
M  V30 9284 H 882.739 2.60005 4.31756 0
M  V30 9285 H 882.341 2.70118 2.58674 0
M  V30 9286 H 884.633 3.95874 5.49809 0
M  V30 9287 H 885.576 5.27299 4.72611 0
M  V30 9288 H 885.984 3.56723 4.37503 0
M  V30 9289 N 885.382 -0.782676 1.36792 0
M  V30 9290 C 886.314 -1.9044 1.27536 0
M  V30 9291 C 887.327 -1.61647 0.193426 0
M  V30 9292 O 888.516 -1.72769 0.448692 0
M  V30 9293 C 885.616 -3.2541 0.946641 0
M  V30 9294 C 884.789 -3.81932 2.13183 0
M  V30 9295 C 883.848 -4.95355 1.7751 0
M  V30 9296 O 882.874 -5.11517 2.49678 0
M  V30 9297 N 884.076 -5.76108 0.712755 0
M  V30 9298 H 886.841 -1.98899 2.24186 0
M  V30 9299 H 884.402 -0.96127 1.30274 0
M  V30 9300 H 886.394 -3.98791 0.689043 0
M  V30 9301 H 884.964 -3.12524 0.0690591 0
M  V30 9302 H 884.184 -3.00459 2.55183 0
M  V30 9303 H 885.472 -4.16426 2.92347 0
M  V30 9304 H 884.87 -5.65586 0.113662 0
M  V30 9305 H 883.427 -6.49762 0.514995 0
M  V30 9306 N 886.86 -1.21182 -1.00761 0
M  V30 9307 C 888.107 -1.02746 -1.74498 0
M  V30 9308 C 888.435 0.439344 -1.89473 0
M  V30 9309 O 887.69 1.34232 -1.42409 0
M  V30 9310 C 887.989 -1.6667 -3.16158 0
M  V30 9311 C 887.655 -3.16515 -3.21137 0
M  V30 9312 C 886.317 -3.57405 -3.22203 0
M  V30 9313 C 888.669 -4.12495 -3.18587 0
M  V30 9314 C 885.997 -4.92786 -3.18401 0
M  V30 9315 C 888.349 -5.47833 -3.16326 0
M  V30 9316 C 887.013 -5.88124 -3.157 0
M  V30 9317 H 886.283 -0.375974 -0.638533 0
M  V30 9318 H 888.93 -1.50736 -1.18114 0
M  V30 9319 H 887.235 -1.10966 -3.75758 0
M  V30 9320 H 888.932 -1.49911 -3.71924 0
M  V30 9321 H 885.522 -2.83947 -3.21048 0
M  V30 9322 H 889.706 -3.81932 -3.16925 0
M  V30 9323 H 884.962 -5.23253 -3.16253 0
M  V30 9324 H 889.136 -6.21942 -3.13306 0
M  V30 9325 H 886.763 -6.92995 -3.12508 0
M  V30 9326 N 888.338 1.20213 -1.01915 0
M  V30 9327 C 889.584 1.89928 -0.711007 0
M  V30 9328 C 889.917 1.7881 0.75767 0
M  V30 9329 O 889.192 1.17399 1.55073 0
M  V30 9330 C 889.475 3.41225 -1.15053 0
M  V30 9331 C 889.328 3.61264 -2.67971 0
M  V30 9332 C 890.647 4.34108 -0.72377 0
M  V30 9333 H 887.766 0.689702 -0.259768 0
M  V30 9334 H 890.408 1.41557 -1.26734 0
M  V30 9335 H 888.558 3.82552 -0.677199 0
M  V30 9336 H 890.23 3.29173 -3.23176 0
M  V30 9337 H 888.473 3.04647 -3.08824 0
M  V30 9338 H 889.144 4.67331 -2.93779 0
M  V30 9339 H 891.62 4.00442 -1.13073 0
M  V30 9340 H 890.496 5.38581 -1.05931 0
M  V30 9341 H 890.757 4.40512 0.374424 0
M  V30 9342 N 889.816 0.795718 1.36037 0
M  V30 9343 C 891.232 0.478145 1.52269 0
M  V30 9344 C 891.432 -1.0025 1.74792 0
M  V30 9345 O 890.488 -1.78783 1.78305 0
M  V30 9346 C 891.801 1.31406 2.70468 0
M  V30 9347 C 893.349 1.3084 2.84341 0
M  V30 9348 C 893.824 2.12819 4.05551 0
M  V30 9349 N 895.315 2.10298 4.12709 0
M  V30 9350 C 896.05 2.70495 5.05589 0
M  V30 9351 N 895.546 3.39576 6.03871 0
M  V30 9352 N 897.339 2.60195 4.98252 0
M  V30 9353 H 889.49 1.75477 1.19673 0
M  V30 9354 H 891.753 0.74627 0.584624 0
M  V30 9355 H 891.459 2.36435 2.60368 0
M  V30 9356 H 891.333 0.959726 3.64786 0
M  V30 9357 H 893.72 0.266003 2.93899 0
M  V30 9358 H 893.801 1.70254 1.90912 0
M  V30 9359 H 893.445 3.17093 3.96755 0
M  V30 9360 H 893.375 1.70772 4.98141 0
M  V30 9361 H 895.866 1.60026 3.42345 0
M  V30 9362 H 896.179 3.82823 6.71317 0
M  V30 9363 H 894.524 3.43679 6.04077 0
M  V30 9364 H 897.715 2.05823 4.20422 0
M  V30 9365 H 897.888 3.074 5.70447 0
M  V30 9366 N 891.294 -1.47756 0.548274 0
M  V30 9367 C 892.204 -2.33678 -0.207773 0
M  V30 9368 C 893.22 -1.47636 -0.920843 0
M  V30 9369 O 894.396 -1.80583 -0.89173 0
M  V30 9370 C 891.461 -3.24147 -1.23003 0
M  V30 9371 C 890.522 -4.26073 -0.52535 0
M  V30 9372 C 889.755 -5.12219 -1.4989 0
M  V30 9373 O 889.978 -5.0066 -2.73305 0
M  V30 9374 O 888.912 -5.93051 -1.02828 0
M  V30 9375 H 892.738 -2.99609 0.496794 0
M  V30 9376 H 890.323 -1.4617 0.308982 0
M  V30 9377 H 892.205 -3.80055 -1.82034 0
M  V30 9378 H 890.88 -2.60855 -1.91668 0
M  V30 9379 H 889.787 -3.7395 0.105927 0
M  V30 9380 H 891.12 -4.92054 0.119686 0
M  V30 9381 N 892.772 -0.284283 -1.55015 0
M  V30 9382 C 893.735 0.586182 -2.21577 0
M  V30 9383 C 894.735 1.07427 -1.1965 0
M  V30 9384 O 895.925 0.972977 -1.44495 0
M  V30 9385 C 893.057 1.80973 -2.88897 0
M  V30 9386 H 894.25 0.00487253 -2.999 0
M  V30 9387 H 891.803 -0.0349696 -1.56261 0
M  V30 9388 H 892.538 2.43131 -2.14611 0
M  V30 9389 H 892.323 1.46757 -3.636 0
M  V30 9390 H 893.813 2.42853 -3.39724 0
M  V30 9391 N 894.251 1.57596 -0.0117121 0
M  V30 9392 C 895.528 1.82323 0.708356 0
M  V30 9393 C 895.908 0.891947 1.91331 0
M  V30 9394 O 895.256 -0.0565984 2.2843 0
M  V30 9395 C 895.466 3.31111 1.10303 0
M  V30 9396 C 896.814 3.97147 1.50199 0
M  V30 9397 O 897.838 3.35503 1.1965 0
M  V30 9398 O 896.697 5.0576 2.07049 0
M  V30 9399 H 893.791 0.751173 0.345931 0
M  V30 9400 H 896.337 1.69657 -0.0380632 0
M  V30 9401 H 895.109 3.90534 0.24467 0
M  V30 9402 H 894.732 3.48818 1.90818 0
M  V30 9403 N 895.729 -0.261212 1.5542 0
M  V30 9404 C 897.14 -0.83138 1.67167 0
M  V30 9405 C 897.491 -1.8659 0.606525 0
M  V30 9406 O 896.616 -2.14953 -0.24985 0
M  V30 9407 C 897.211 -1.51475 3.03052 0
M  V30 9408 C 895.77 -2.0328 3.16787 0
M  V30 9409 C 894.917 -0.878903 2.63003 0
M  V30 9410 H 897.868 -0.0373102 1.58656 0
M  V30 9411 H 897.889 -2.38222 2.96699 0
M  V30 9412 H 897.401 -0.76157 3.80554 0
M  V30 9413 H 895.502 -2.81523 2.44082 0
M  V30 9414 H 895.615 -2.24001 4.2351 0
M  V30 9415 H 893.979 -1.27551 2.2046 0
M  V30 9416 H 894.762 -0.13904 3.43018 0
M  V30 9417 N 897.207 -1.48554 -0.526253 0
M  V30 9418 C 898.139 -1.59446 -1.6465 0
M  V30 9419 C 899.152 -0.478525 -1.55608 0
M  V30 9420 O 900.341 -0.74953 -1.62001 0
M  V30 9421 C 897.441 -1.51164 -3.03319 0
M  V30 9422 C 896.614 -2.77861 -3.37805 0
M  V30 9423 C 895.673 -2.62982 -4.5577 0
M  V30 9424 O 894.699 -3.36876 -4.58806 0
M  V30 9425 N 895.901 -1.72847 -5.5417 0
M  V30 9426 H 898.666 -2.56055 -1.55743 0
M  V30 9427 H 896.227 -1.45325 -0.713606 0
M  V30 9428 H 898.219 -1.389 -3.80117 0
M  V30 9429 H 896.789 -0.625147 -3.06285 0
M  V30 9430 H 896.009 -3.04663 -2.50149 0
M  V30 9431 H 897.297 -3.61908 -3.57632 0
M  V30 9432 H 896.695 -1.12022 -5.54498 0
M  V30 9433 H 895.252 -1.6652 -6.3017 0
M  V30 9434 N 898.685 0.775411 -1.37205 0
M  V30 9435 C 899.615 1.90258 -1.35367 0
M  V30 9436 C 900.596 1.68634 -0.222864 0
M  V30 9437 O 901.781 1.89545 -0.422659 0
M  V30 9438 C 898.911 3.27488 -1.15623 0
M  V30 9439 C 897.865 3.63668 -2.25676 0
M  V30 9440 C 897.191 4.994 -1.91059 0
M  V30 9441 C 898.491 3.70797 -3.67841 0
M  V30 9442 H 900.185 1.92053 -2.29687 0
M  V30 9443 H 897.731 0.922597 -1.10563 0
M  V30 9444 H 899.684 4.05976 -1.12968 0
M  V30 9445 H 898.408 3.26117 -0.177573 0
M  V30 9446 H 897.067 2.87486 -2.2748 0
M  V30 9447 H 896.715 4.94565 -0.917324 0
M  V30 9448 H 896.415 5.24576 -2.64751 0
M  V30 9449 H 897.939 5.80291 -1.89985 0
M  V30 9450 H 899.353 4.39444 -3.68187 0
M  V30 9451 H 897.75 4.07468 -4.40556 0
M  V30 9452 H 898.82 2.71549 -4.01732 0
M  V30 9453 N 900.163 1.21714 1.00117 0
M  V30 9454 C 901.411 1.03465 1.73607 0
M  V30 9455 C 901.732 -0.432295 1.90148 0
M  V30 9456 O 901.002 -1.31157 1.45515 0
M  V30 9457 H 899.582 0.379857 0.643209 0
M  V30 9458 H 902.244 1.53088 1.20624 0
M  V30 9459 H 901.34 1.50574 2.73375 0
M  V30 9460 N 901.641 -1.19671 1.02551 0
M  V30 9461 C 903.052 -1.70964 0.750208 0
M  V30 9462 C 903.403 -1.82095 -0.730461 0
M  V30 9463 O 902.528 -1.48974 -1.56958 0
M  V30 9464 C 903.123 -3.10516 1.35518 0
M  V30 9465 C 901.682 -3.59083 1.12854 0
M  V30 9466 C 900.829 -2.36041 1.45534 0
M  V30 9467 H 903.78 -1.04559 1.19386 0
M  V30 9468 H 903.801 -3.73028 0.750378 0
M  V30 9469 H 903.313 -3.02383 2.43282 0
M  V30 9470 H 901.414 -3.72536 0.0689627 0
M  V30 9471 H 901.527 -4.43395 1.81488 0
M  V30 9472 H 899.891 -2.39214 0.87458 0
M  V30 9473 H 900.674 -2.3054 2.54374 0
M  V30 9474 N 903.119 -0.802921 -1.35613 0
M  V30 9475 C 904.069 -0.183492 -2.2726 0
M  V30 9476 C 905.053 0.640527 -1.47601 0
M  V30 9477 O 906.245 0.498386 -1.69838 0
M  V30 9478 C 903.374 0.67003 -3.36698 0
M  V30 9479 C 902.46 -0.163517 -4.23785 0
M  V30 9480 N 902.851 -1.22472 -4.90749 0
M  V30 9481 C 901.149 0.0554547 -4.45966 0
M  V30 9482 C 901.85 -1.73329 -5.55276 0
M  V30 9483 N 900.826 -1.04033 -5.33552 0
M  V30 9484 H 904.628 -0.995525 -2.76526 0
M  V30 9485 H 902.142 -0.643714 -1.49098 0
M  V30 9486 H 904.139 1.12981 -4.01299 0
M  V30 9487 H 902.799 1.48045 -2.88986 0
M  V30 9488 H 903.81 -1.60733 -4.92327 0
M  V30 9489 H 900.487 0.835312 -4.09058 0
M  V30 9490 H 901.877 -2.62 -6.18713 0
M  V30 9491 N 904.597 1.47463 -0.556102 0
M  V30 9492 C 905.56 2.28478 0.181743 0
M  V30 9493 C 906.56 1.36886 0.843738 0
M  V30 9494 O 907.75 1.59527 0.69977 0
M  V30 9495 C 904.882 3.16534 1.26566 0
M  V30 9496 H 906.075 2.95182 -0.529892 0
M  V30 9497 H 903.628 1.53134 -0.313005 0
M  V30 9498 H 904.363 2.5452 2.00973 0
M  V30 9499 H 904.148 3.83939 0.795798 0
M  V30 9500 H 905.638 3.77579 1.78393 0
M  V30 9501 N 906.075 0.2925 1.54862 0
M  V30 9502 C 907.352 -0.371946 1.92031 0
M  V30 9503 C 907.732 -1.72363 1.21878 0
M  V30 9504 O 907.08 -2.25779 0.351573 0
M  V30 9505 C 907.29 -0.495027 3.45471 0
M  V30 9506 C 908.638 -0.769855 4.17562 0
M  V30 9507 O 909.662 -0.579168 3.5146 0
M  V30 9508 O 908.521 -1.13561 5.34571 0
M  V30 9509 H 905.615 -0.206463 0.800813 0
M  V30 9510 H 908.161 0.339933 1.6626 0
M  V30 9511 H 906.933 0.455528 3.88639 0
M  V30 9512 H 906.556 -1.2557 3.7725 0
M  V30 9513 N 907.553 -1.57587 0.0200696 0
M  V30 9514 C 908.483 -2.12702 -0.963333 0
M  V30 9515 C 909.464 -1.04094 -1.34531 0
M  V30 9516 O 910.649 -1.31881 -1.42552 0
M  V30 9517 C 907.779 -2.64673 -2.24868 0
M  V30 9518 C 906.733 -3.77987 -2.00772 0
M  V30 9519 C 906.059 -4.16351 -3.35494 0
M  V30 9520 C 907.359 -5.0444 -1.35416 0
M  V30 9521 H 909.053 -2.95121 -0.504363 0
M  V30 9522 H 906.599 -1.41966 -0.24116 0
M  V30 9523 H 908.552 -3.01862 -2.94036 0
M  V30 9524 H 907.276 -1.79403 -2.72914 0
M  V30 9525 H 905.935 -3.41223 -1.34025 0
M  V30 9526 H 905.583 -3.28075 -3.81282 0
M  V30 9527 H 905.283 -4.92705 -3.20181 0
M  V30 9528 H 906.807 -4.56115 -4.05945 0
M  V30 9529 H 908.221 -5.39273 -1.94571 0
M  V30 9530 H 906.618 -5.85732 -1.30529 0
M  V30 9531 H 907.688 -4.83803 -0.325923 0
M  V30 9532 N 909.032 0.252966 -1.55557 0
M  V30 9533 C 910.279 0.981852 -1.77104 0
M  V30 9534 C 910.607 1.85547 -0.583305 0
M  V30 9535 O 909.862 1.90836 0.43359 0
M  V30 9536 C 910.161 1.87785 -3.04091 0
M  V30 9537 C 909.827 1.16009 -4.35721 0
M  V30 9538 C 908.489 0.961697 -4.71492 0
M  V30 9539 C 910.841 0.650884 -5.1712 0
M  V30 9540 C 908.169 0.241704 -5.86202 0
M  V30 9541 C 910.521 -0.0556124 -6.32576 0
M  V30 9542 C 909.185 -0.265536 -6.66972 0
M  V30 9543 H 908.455 0.359285 -0.64807 0
M  V30 9544 H 911.102 0.252443 -1.89829 0
M  V30 9545 H 909.407 2.67412 -2.86353 0
M  V30 9546 H 911.104 2.44339 -3.17961 0
M  V30 9547 H 907.694 1.32465 -4.07616 0
M  V30 9548 H 911.878 0.791719 -4.89944 0
M  V30 9549 H 907.134 0.0685292 -6.11362 0
M  V30 9550 H 911.308 -0.457839 -6.94893 0
M  V30 9551 H 908.935 -0.8254 -7.55706 0
M  V30 9552 N 910.51 1.48831 0.518367 0
M  V30 9553 C 911.926 1.35209 0.847979 0
M  V30 9554 C 912.126 0.371927 1.98038 0
M  V30 9555 O 911.182 -0.202681 2.51685 0
M  V30 9556 C 912.495 2.7552 1.20455 0
M  V30 9557 C 914.043 2.84094 1.31377 0
M  V30 9558 C 914.518 4.25132 1.70372 0
M  V30 9559 N 916.009 4.27861 1.77453 0
M  V30 9560 C 916.744 5.3394 2.09035 0
M  V30 9561 N 916.24 6.50285 2.3896 0
M  V30 9562 N 918.033 5.21343 2.10139 0
M  V30 9563 H 910.184 2.11166 -0.228624 0
M  V30 9564 H 912.447 0.94717 -0.0396599 0
M  V30 9565 H 912.153 3.48861 0.445991 0
M  V30 9566 H 912.027 3.09785 2.15204 0
M  V30 9567 H 914.414 2.11001 2.06307 0
M  V30 9568 H 914.495 2.53433 0.347203 0
M  V30 9569 H 914.139 4.98745 0.959975 0
M  V30 9570 H 914.069 4.53245 2.68098 0
M  V30 9571 H 916.56 3.43945 1.56557 0
M  V30 9572 H 916.873 7.26961 2.62196 0
M  V30 9573 H 915.218 6.5354 2.36454 0
M  V30 9574 H 918.409 4.29462 1.86225 0
M  V30 9575 H 918.582 6.04112 2.34419 0
M  V30 9576 N 911.988 -0.768124 1.37614 0
M  V30 9577 C 912.935 -1.88151 1.33671 0
M  V30 9578 C 913.905 -1.64871 0.201645 0
M  V30 9579 O 915.09 -1.86739 0.391582 0
M  V30 9580 C 912.23 -3.25264 1.15314 0
M  V30 9581 C 911.343 -3.60473 2.38082 0
M  V30 9582 C 910.478 -4.86814 2.12569 0
M  V30 9583 C 909.517 -5.14765 3.31184 0
M  V30 9584 N 908.654 -6.32295 3.052 0
M  V30 9585 H 913.494 -1.90857 2.28862 0
M  V30 9586 H 911.031 -0.933048 1.13722 0
M  V30 9587 H 912.989 -4.04364 1.02691 0
M  V30 9588 H 911.619 -3.21924 0.237689 0
M  V30 9589 H 910.671 -2.7633 2.61431 0
M  V30 9590 H 911.983 -3.77065 3.26532 0
M  V30 9591 H 911.137 -5.73826 1.96999 0
M  V30 9592 H 909.876 -4.72333 1.21462 0
M  V30 9593 H 908.881 -4.26227 3.4729 0
M  V30 9594 H 910.106 -5.31153 4.23147 0
M  V30 9595 H 908.052 -6.19166 2.16726 0
M  V30 9596 H 907.969 -6.4932 3.87195 0
M  V30 9597 H 909.237 -7.22234 2.93254 0
M  V30 9598 N 913.466 -1.22244 -0.994698 0
M  V30 9599 C 914.416 -0.958244 -2.06886 0
M  V30 9600 C 915.4 0.0904481 -1.60646 0
M  V30 9601 O 916.592 -0.119837 -1.76594 0
M  V30 9602 C 913.721 -0.535944 -3.39091 0
M  V30 9603 C 912.807 -1.61927 -3.9197 0
M  V30 9604 N 913.198 -2.84659 -4.18094 0
M  V30 9605 C 911.496 -1.49053 -4.20356 0
M  V30 9606 C 912.197 -3.54697 -4.61048 0
M  V30 9607 N 911.173 -2.82164 -4.64634 0
M  V30 9608 H 914.975 -1.89056 -2.25022 0
M  V30 9609 H 912.489 -1.1197 -1.17629 0
M  V30 9610 H 914.486 -0.327997 -4.15608 0
M  V30 9611 H 913.146 0.38949 -3.22355 0
M  V30 9612 H 914.157 -3.21104 -4.06341 0
M  V30 9613 H 910.834 -0.631154 -4.12702 0
M  V30 9614 H 912.224 -4.59837 -4.89898 0
M  V30 9615 N 914.944 1.19125 -1.03184 0
M  V30 9616 C 915.854 2.26112 -0.625329 0
M  V30 9617 C 916.87 1.7056 0.344298 0
M  V30 9618 O 918.046 2.0039 0.20144 0
M  V30 9619 C 915.111 3.46697 0.0145169 0
M  V30 9620 C 914.172 4.17419 -1.00299 0
M  V30 9621 C 913.405 5.32247 -0.393581 0
M  V30 9622 O 913.628 5.64724 0.802659 0
M  V30 9623 O 912.562 5.91428 -1.1179 0
M  V30 9624 H 916.388 2.63131 -1.51643 0
M  V30 9625 H 913.973 1.26036 -0.802197 0
M  V30 9626 H 915.855 4.19762 0.371139 0
M  V30 9627 H 914.53 3.11521 0.879581 0
M  V30 9628 H 913.437 3.4646 -1.41125 0
M  V30 9629 H 914.77 4.56573 -1.83852 0
M  V30 9630 N 916.422 0.810101 1.35185 0
M  V30 9631 C 917.671 0.388589 1.97921 0
M  V30 9632 C 917.984 -1.05079 1.64978 0
M  V30 9633 O 919.19 -1.57559 2.21105 0
M  V30 9634 C 917.646 0.643864 3.54094 0
M  V30 9635 C 917.254 2.09602 3.95943 0
M  V30 9636 C 918.998 0.287883 4.23523 0
M  V30 9637 C 916.905 2.29686 5.44976 0
M  V30 9638 H 915.835 0.141562 0.740592 0
M  V30 9639 H 918.486 0.994653 1.54204 0
M  V30 9640 H 916.868 -0.0321978 3.95987 0
M  V30 9641 H 918.042 2.81018 3.65192 0
M  V30 9642 H 916.357 2.4122 3.39414 0
M  V30 9643 H 918.954 0.415946 5.3308 0
M  V30 9644 H 919.297 -0.766305 4.09186 0
M  V30 9645 H 919.83 0.918004 3.87063 0
M  V30 9646 H 916.569 3.33563 5.64284 0
M  V30 9647 H 916.089 1.62798 5.77284 0
M  V30 9648 H 917.768 2.11411 6.11485 0
M  V30 9649 N 917.9 -1.47166 0.563914 0
M  V30 9650 C 919.177 -1.95586 -0.0236172 0
M  V30 9651 C 919.557 -1.50655 -1.47872 0
M  V30 9652 O 918.905 -0.748479 -2.15894 0
M  V30 9653 C 919.115 -3.48762 0.128841 0
M  V30 9654 C 920.463 -4.24598 -0.0130544 0
M  V30 9655 O 921.487 -3.56155 0.0567242 0
M  V30 9656 O 920.346 -5.46253 -0.164332 0
M  V30 9657 H 917.44 -0.824793 -0.0603789 0
M  V30 9658 H 919.986 -1.57536 0.63091 0
M  V30 9659 H 918.758 -3.74291 1.14113 0
M  V30 9660 H 918.381 -3.93594 -0.56299 0
M  V30 9661 N 919.378 -0.300708 -1.54705 0
M  V30 9662 C 920.626 0.308044 -1.99739 0
M  V30 9663 C 920.947 1.54433 -1.19061 0
M  V30 9664 O 920.217 1.93794 -0.286507 0
M  V30 9665 H 918.797 0.116811 -0.73781 0
M  V30 9666 H 921.459 -0.41197 -1.90496 0
M  V30 9667 H 920.555 0.580287 -3.06658 0
M  V30 9668 N 920.856 1.57574 -0.0284266 0
M  V30 9669 C 921.803 2.10176 0.953658 0
M  V30 9670 C 922.773 1.00367 1.32347 0
M  V30 9671 O 923.958 1.27783 1.4169 0
M  V30 9672 C 921.098 2.63287 2.231 0
M  V30 9673 C 920.211 3.87102 1.91771 0
M  V30 9674 C 919.346 4.28609 3.13795 0
M  V30 9675 C 918.385 5.45184 2.78282 0
M  V30 9676 N 917.522 5.81851 3.92929 0
M  V30 9677 H 922.362 2.93806 0.498176 0
M  V30 9678 H 919.899 1.45222 0.234302 0
M  V30 9679 H 921.857 2.9217 2.97813 0
M  V30 9680 H 920.487 1.82489 2.66266 0
M  V30 9681 H 919.539 3.64952 1.07303 0
M  V30 9682 H 920.851 4.71892 1.61615 0
M  V30 9683 H 920.005 4.58925 3.96829 0
M  V30 9684 H 918.744 3.42585 3.47112 0
M  V30 9685 H 917.749 5.14563 1.93661 0
M  V30 9686 H 918.974 6.32907 2.46182 0
M  V30 9687 H 916.92 4.98782 4.2609 0
M  V30 9688 H 916.837 6.6128 3.66395 0
M  V30 9689 H 918.105 6.16772 4.76669 0
M  V30 9690 N 922.334 -0.244713 1.55689 0
M  V30 9691 C 923.297 -1.2864 1.89695 0
M  V30 9692 C 924.297 -1.40969 0.773583 0
M  V30 9693 O 925.487 -1.39632 1.04156 0
M  V30 9694 C 922.619 -2.66379 2.12732 0
M  V30 9695 H 923.812 -0.997033 2.82841 0
M  V30 9696 H 921.365 -0.484103 1.48614 0
M  V30 9697 H 922.1 -3.00452 1.22062 0
M  V30 9698 H 921.885 -2.58812 2.94549 0
M  V30 9699 H 923.375 -3.41592 2.40218 0
M  V30 9700 N 923.813 -1.49104 -0.510467 0
M  V30 9701 C 924.743 -1.67981 -1.62187 0
M  V30 9702 C 925.724 -0.528529 -1.6168 0
M  V30 9703 O 926.909 -0.763305 -1.7857 0
M  V30 9704 C 924.039 -1.73755 -3.0071 0
M  V30 9705 C 922.993 -2.88579 -3.1608 0
M  V30 9706 C 922.319 -2.79457 -4.5586 0
M  V30 9707 C 923.619 -4.29638 -2.97 0
M  V30 9708 H 925.313 -2.61029 -1.46643 0
M  V30 9709 H 922.859 -1.25615 -0.704042 0
M  V30 9710 H 924.812 -1.85548 -3.78352 0
M  V30 9711 H 923.536 -0.772996 -3.17321 0
M  V30 9712 H 922.195 -2.76372 -2.40861 0
M  V30 9713 H 921.843 -1.80929 -4.69333 0
M  V30 9714 H 921.543 -3.56518 -4.67086 0
M  V30 9715 H 923.067 -2.93245 -5.35574 0
M  V30 9716 H 924.481 -4.42575 -3.64418 0
M  V30 9717 H 922.878 -5.07847 -3.19704 0
M  V30 9718 H 923.948 -4.44741 -1.93219 0
M  V30 9719 N 925.291 0.760815 -1.38019 0
M  V30 9720 C 926.221 1.88811 -1.37377 0
M  V30 9721 C 927.202 1.68388 -0.240737 0
M  V30 9722 O 928.387 1.89086 -0.442739 0
M  V30 9723 C 925.517 3.26244 -1.1909 0
M  V30 9724 C 924.471 3.61254 -2.29521 0
M  V30 9725 C 923.797 4.97346 -1.96345 0
M  V30 9726 C 925.097 3.66874 -3.71753 0
M  V30 9727 H 926.791 1.89606 -2.31711 0
M  V30 9728 H 924.337 0.910818 -1.11535 0
M  V30 9729 H 926.29 4.04755 -1.17267 0
M  V30 9730 H 925.014 3.2591 -0.212152 0
M  V30 9731 H 923.673 2.85057 -2.30517 0
M  V30 9732 H 923.321 4.93564 -0.969728 0
M  V30 9733 H 923.021 5.21739 -2.703 0
M  V30 9734 H 924.545 5.78244 -1.96129 0
M  V30 9735 H 925.959 4.35514 -3.72828 0
M  V30 9736 H 924.356 4.02772 -4.44853 0
M  V30 9737 H 925.426 2.67273 -4.0459 0
M  V30 9738 N 926.769 1.22769 0.988202 0
M  V30 9739 C 927.699 1.02627 2.09738 0
M  V30 9740 C 928.68 -0.0543211 1.70013 0
M  V30 9741 O 929.865 0.108811 1.93895 0
M  V30 9742 C 926.995 0.608302 3.41931 0
M  V30 9743 C 925.949 1.63536 3.95525 0
M  V30 9744 C 925.275 1.07308 5.23822 0
M  V30 9745 C 926.575 3.02649 4.25677 0
M  V30 9746 H 928.269 1.954 2.26847 0
M  V30 9747 H 925.815 0.940888 1.09011 0
M  V30 9748 H 927.768 0.454478 4.18942 0
M  V30 9749 H 926.492 -0.355095 3.24664 0
M  V30 9750 H 925.151 1.77704 3.20651 0
M  V30 9751 H 924.799 0.100894 5.02899 0
M  V30 9752 H 924.499 1.75925 5.60646 0
M  V30 9753 H 926.023 0.930938 6.03462 0
M  V30 9754 H 927.437 2.91828 4.93467 0
M  V30 9755 H 925.834 3.68434 4.73684 0
M  V30 9756 H 926.904 3.52228 3.33262 0
M  V30 9757 N 928.247 -1.18576 1.03814 0
M  V30 9758 C 929.177 -2.24334 0.647795 0
M  V30 9759 C 930.158 -1.66508 -0.34774 0
M  V30 9760 O 931.343 -1.92852 -0.228401 0
M  V30 9761 C 928.473 -3.47299 0.00734922 0
M  V30 9762 C 927.427 -4.17859 0.926152 0
M  V30 9763 C 926.753 -5.34489 0.150317 0
M  V30 9764 C 928.053 -4.71632 2.24411 0
M  V30 9765 H 929.747 -2.57241 1.53191 0
M  V30 9766 H 927.293 -1.23649 0.738028 0
M  V30 9767 H 929.246 -4.20486 -0.277434 0
M  V30 9768 H 927.97 -3.13619 -0.911626 0
M  V30 9769 H 926.629 -3.46567 1.19528 0
M  V30 9770 H 926.277 -4.97056 -0.770985 0
M  V30 9771 H 925.977 -5.82633 0.762407 0
M  V30 9772 H 927.501 -6.10467 -0.127508 0
M  V30 9773 H 928.915 -5.36526 2.02021 0
M  V30 9774 H 927.312 -5.303 2.80894 0
M  V30 9775 H 928.382 -3.89192 2.89236 0
M  V30 9776 N 929.725 -0.817259 -1.34754 0
M  V30 9777 C 931.141 -0.502309 -1.51489 0
M  V30 9778 C 931.341 0.974568 -1.76364 0
M  V30 9779 O 930.397 1.75924 -1.81127 0
M  V30 9780 C 931.71 -1.35693 -2.68343 0
M  V30 9781 C 933.258 -1.35347 -2.82224 0
M  V30 9782 C 933.733 -2.19244 -4.02114 0
M  V30 9783 N 935.224 -2.16837 -4.09311 0
M  V30 9784 C 935.959 -2.78505 -5.01221 0
M  V30 9785 N 935.455 -3.4914 -5.98392 0
M  V30 9786 N 937.248 -2.68089 -4.94049 0
M  V30 9787 H 929.399 -1.77359 -1.16866 0
M  V30 9788 H 931.662 -0.755476 -0.572678 0
M  V30 9789 H 931.368 -2.40548 -2.56573 0
M  V30 9790 H 931.242 -1.01764 -3.63213 0
M  V30 9791 H 933.629 -0.312727 -2.93438 0
M  V30 9792 H 933.71 -1.7327 -1.88179 0
M  V30 9793 H 933.354 -3.23365 -3.9166 0
M  V30 9794 H 933.284 -1.78675 -4.95361 0
M  V30 9795 H 935.775 -1.65452 -3.39756 0
M  V30 9796 H 936.088 -3.93455 -6.65141 0
M  V30 9797 H 934.433 -3.53246 -5.98533 0
M  V30 9798 H 937.624 -2.12485 -4.17094 0
M  V30 9799 H 937.797 -3.16436 -5.65484 0
M  V30 9800 N 931.203 1.46865 -0.571711 0
M  V30 9801 C 932.428 2.07323 -0.0564655 0
M  V30 9802 C 932.853 1.41938 1.23431 0
M  V30 9803 O 932.211 0.499334 1.74288 0
M  V30 9804 C 932.259 3.6044 0.107339 0
M  V30 9805 O 931.363 3.95558 1.1665 0
M  V30 9806 H 930.704 0.661475 -0.0578465 0
M  V30 9807 H 933.234 1.88669 -0.791524 0
M  V30 9808 H 933.244 4.06767 0.316987 0
M  V30 9809 H 931.919 4.07425 -0.835348 0
M  V30 9810 H 930.496 3.60957 0.936189 0
M  V30 9811 N 932.681 0.308908 1.54543 0
M  V30 9812 C 933.958 -0.351558 1.92415 0
M  V30 9813 C 934.338 -1.71061 1.23699 0
M  V30 9814 O 933.686 -2.25394 0.3755 0
M  V30 9815 C 933.896 -0.458357 3.45977 0
M  V30 9816 C 935.244 -0.725524 4.18355 0
M  V30 9817 O 936.268 -0.541859 3.52054 0
M  V30 9818 O 935.127 -1.07884 5.35745 0
M  V30 9819 H 932.221 -0.197957 0.802958 0
M  V30 9820 H 934.767 0.357548 1.65891 0
M  V30 9821 H 933.539 0.496723 3.88134 0
M  V30 9822 H 933.162 -1.21562 3.78561 0
M  V30 9823 N 934.159 -1.57557 0.0367827 0
M  V30 9824 C 935.092 -2.06205 -0.977479 0
M  V30 9825 C 936.07 -0.959444 -1.31276 0
M  V30 9826 O 937.254 -1.23033 -1.42811 0
M  V30 9827 C 934.381 -2.49053 -2.29544 0
M  V30 9828 C 933.427 -3.70409 -2.11423 0
M  V30 9829 S 934.26 -5.16715 -1.40593 0
M  V30 9830 C 935.416 -5.62864 -2.73742 0
M  V30 9831 H 935.649 -2.91913 -0.5634 0
M  V30 9832 H 933.182 -1.53404 -0.175111 0
M  V30 9833 H 935.14 -2.74403 -3.05308 0
M  V30 9834 H 933.801 -1.63677 -2.68083 0
M  V30 9835 H 932.994 -3.98262 -3.08875 0
M  V30 9836 H 932.596 -3.4525 -1.438 0
M  V30 9837 H 934.888 -5.67571 -3.69958 0
M  V30 9838 H 935.831 -6.62294 -2.50544 0
M  V30 9839 H 936.239 -4.90539 -2.79341 0
M  V30 9840 N 935.637 0.236453 -1.55816 0
M  V30 9841 C 936.57 1.3196 -1.86177 0
M  V30 9842 C 937.548 1.459 -0.717769 0
M  V30 9843 O 938.732 1.61949 -0.964606 0
M  V30 9844 C 935.859 2.69183 -2.05568 0
M  V30 9845 C 934.905 2.72338 -3.28229 0
M  V30 9846 S 935.738 2.27898 -4.84585 0
M  V30 9847 C 936.894 3.67025 -5.06994 0
M  V30 9848 H 937.127 1.06011 -2.77757 0
M  V30 9849 H 934.66 0.437961 -1.48058 0
M  V30 9850 H 936.618 3.48191 -2.17423 0
M  V30 9851 H 935.279 2.92365 -1.14811 0
M  V30 9852 H 934.472 3.7314 -3.38795 0
M  V30 9853 H 934.074 2.01382 -3.15153 0
M  V30 9854 H 936.366 4.62604 -4.94979 0
M  V30 9855 H 937.309 3.61385 -6.08939 0
M  V30 9856 H 937.717 3.60022 -4.34792 0
M  V30 9857 N 937.115 1.49373 0.502552 0
M  V30 9858 C 938.048 1.60529 1.6219 0
M  V30 9859 C 939.026 0.454431 1.56121 0
M  V30 9860 O 940.21 0.669768 1.762 0
M  V30 9861 C 937.337 1.55879 3.00698 0
M  V30 9862 C 936.383 2.76143 3.25034 0
M  V30 9863 S 937.216 4.37831 3.08325 0
M  V30 9864 C 938.372 4.35824 4.49231 0
M  V30 9865 H 938.605 2.55219 1.52482 0
M  V30 9866 H 936.138 1.38244 0.687594 0
M  V30 9867 H 938.096 1.53882 3.80566 0
M  V30 9868 H 936.757 0.624791 3.07823 0
M  V30 9869 H 935.95 2.69104 4.26144 0
M  V30 9870 H 935.552 2.75544 2.52886 0
M  V30 9871 H 937.844 4.07447 5.41288 0
M  V30 9872 H 938.787 5.37206 4.6132 0
M  V30 9873 H 939.195 3.65923 4.29838 0
M  V30 9874 N 938.594 -0.753485 1.38421 0
M  V30 9875 C 939.541 -1.86723 1.35659 0
M  V30 9876 C 940.511 -1.64648 0.219121 0
M  V30 9877 O 941.696 -1.86313 0.411366 0
M  V30 9878 C 938.836 -3.24023 1.18758 0
M  V30 9879 C 937.949 -3.57928 2.41892 0
M  V30 9880 C 937.084 -4.84532 2.17721 0
M  V30 9881 C 936.123 -5.11224 3.36626 0
M  V30 9882 N 935.26 -6.29023 3.11889 0
M  V30 9883 H 940.1 -1.88419 2.30873 0
M  V30 9884 H 937.637 -0.920934 1.14705 0
M  V30 9885 H 939.595 -4.03252 1.06974 0
M  V30 9886 H 938.225 -3.21654 0.27182 0
M  V30 9887 H 937.277 -2.73541 2.64347 0
M  V30 9888 H 938.589 -3.73581 3.30513 0
M  V30 9889 H 937.743 -5.71704 2.03074 0
M  V30 9890 H 936.482 -4.71018 1.26465 0
M  V30 9891 H 935.487 -4.2252 3.51791 0
M  V30 9892 H 936.712 -5.26635 4.28757 0
M  V30 9893 H 934.658 -6.16832 2.2328 0
M  V30 9894 H 934.575 -6.45177 3.9406 0
M  V30 9895 H 935.843 -7.19083 3.00898 0
M  V30 9896 N 940.072 -1.23292 -0.981677 0
M  V30 9897 C 941.302 -1.0893 -1.7555 0
M  V30 9898 C 941.71 0.362219 -1.857 0
M  V30 9899 O 941.053 1.2624 -1.33451 0
M  V30 9900 C 941.115 -1.6389 -3.19969 0
M  V30 9901 C 940.779 -3.12632 -3.33332 0
M  V30 9902 C 941.776 -4.0994 -3.19758 0
M  V30 9903 C 939.461 -3.52314 -3.58022 0
M  V30 9904 C 941.455 -5.44915 -3.30676 0
M  V30 9905 C 939.142 -4.87434 -3.6858 0
M  V30 9906 C 940.14 -5.83544 -3.54916 0
M  V30 9907 O 939.828 -7.16209 -3.65102 0
M  V30 9908 H 939.56 -0.381901 -0.557788 0
M  V30 9909 H 942.114 -1.63586 -1.24213 0
M  V30 9910 H 940.344 -1.03653 -3.72549 0
M  V30 9911 H 942.033 -1.45023 -3.79108 0
M  V30 9912 H 942.799 -3.80625 -3.00582 0
M  V30 9913 H 938.678 -2.78022 -3.67729 0
M  V30 9914 H 942.222 -6.19913 -3.19928 0
M  V30 9915 H 938.119 -5.16426 -3.87265 0
M  V30 9916 H 938.887 -7.23941 -3.81905 0
M  V30 9917 N 941.55 1.18024 -1.04442 0
M  V30 9918 C 942.483 2.20623 -0.583171 0
M  V30 9919 C 943.461 1.57994 0.384262 0
M  V30 9920 O 944.645 1.86135 0.297673 0
M  V30 9921 C 941.772 3.38378 0.147561 0
M  V30 9922 C 940.818 4.19423 -0.773711 0
M  V30 9923 S 941.651 4.85534 -2.25869 0
M  V30 9924 C 942.807 6.06686 -1.53891 0
M  V30 9925 H 943.04 2.59406 -1.45244 0
M  V30 9926 H 940.573 1.28518 -0.855708 0
M  V30 9927 H 942.531 4.06621 0.562988 0
M  V30 9928 H 941.192 2.97998 0.992765 0
M  V30 9929 H 940.385 5.03568 -0.208694 0
M  V30 9930 H 939.987 3.56579 -1.12816 0
M  V30 9931 H 942.279 6.72347 -0.834045 0
M  V30 9932 H 943.222 6.67702 -2.35755 0
M  V30 9933 H 943.63 5.55031 -1.02961 0
M  V30 9934 N 943.028 0.824394 1.34319 0
M  V30 9935 C 944.276 0.41235 1.97849 0
M  V30 9936 C 944.597 -1.02841 1.65677 0
M  V30 9937 O 943.867 -1.71421 0.948245 0
M  V30 9938 H 942.447 0.149486 0.73189 0
M  V30 9939 H 945.109 1.05416 1.63931 0
M  V30 9940 H 944.205 0.532557 3.07523 0
M  V30 9941 N 944.506 -1.46559 0.579492 0
M  V30 9942 C 945.436 -2.33059 -0.143437 0
M  V30 9943 C 946.417 -1.4515 -0.886868 0
M  V30 9944 O 947.602 -1.73973 -0.862961 0
M  V30 9945 C 944.732 -3.27364 -1.15973 0
M  V30 9946 C 943.686 -4.24689 -0.531348 0
M  V30 9947 C 943.012 -5.08479 -1.65388 0
M  V30 9948 C 944.312 -5.1961 0.529391 0
M  V30 9949 H 946.006 -2.93753 0.578762 0
M  V30 9950 H 943.552 -1.41256 0.279775 0
M  V30 9951 H 945.505 -3.86732 -1.67382 0
M  V30 9952 H 944.229 -2.64771 -1.91217 0
M  V30 9953 H 942.888 -3.6658 -0.0383749 0
M  V30 9954 H 942.536 -4.42273 -2.3959 0
M  V30 9955 H 942.236 -5.74387 -1.23909 0
M  V30 9956 H 943.76 -5.70709 -2.17079 0
M  V30 9957 H 945.174 -5.73212 0.100506 0
M  V30 9958 H 943.571 -5.93843 0.86432 0
M  V30 9959 H 944.641 -4.63737 1.4169 0
M  V30 9960 N 945.984 -0.3171 -1.54377 0
M  V30 9961 C 946.931 0.551782 -2.24107 0
M  V30 9962 C 947.901 1.11681 -1.22949 0
M  V30 9963 O 949.086 1.15836 -1.51614 0
M  V30 9964 C 946.226 1.70997 -2.99756 0
M  V30 9965 C 945.339 1.17479 -4.15719 0
M  V30 9966 C 944.474 2.29815 -4.78914 0
M  V30 9967 C 943.513 1.73513 -5.86992 0
M  V30 9968 N 942.65 2.79485 -6.44075 0
M  V30 9969 H 947.49 -0.049431 -2.97959 0
M  V30 9970 H 945.027 -0.0361658 -1.47056 0
M  V30 9971 H 946.985 2.39141 -3.41859 0
M  V30 9972 H 945.615 2.28257 -2.28251 0
M  V30 9973 H 944.667 0.385109 -3.78446 0
M  V30 9974 H 945.979 0.72276 -4.93536 0
M  V30 9975 H 945.133 3.05875 -5.23952 0
M  V30 9976 H 943.872 2.78352 -4.00464 0
M  V30 9977 H 942.877 0.959475 -5.41363 0
M  V30 9978 H 944.102 1.2586 -6.67335 0
M  V30 9979 H 942.048 3.27325 -5.68502 0
M  V30 9980 H 941.965 2.38825 -7.17286 0
M  V30 9981 H 943.233 3.55394 -6.93769 0
M  V30 9982 N 947.462 1.57535 -0.0451378 0
M  V30 9983 C 948.392 2.14208 0.929372 0
M  V30 9984 C 949.373 1.06221 1.32858 0
M  V30 9985 O 950.558 1.34132 1.40436 0
M  V30 9986 C 947.688 2.68217 2.20629 0
M  V30 9987 C 946.642 3.81134 1.94734 0
M  V30 9988 C 945.968 4.21636 3.28828 0
M  V30 9989 C 947.268 5.06531 1.27374 0
M  V30 9990 H 948.962 2.95886 0.457348 0
M  V30 9991 H 946.508 1.42332 0.218544 0
M  V30 9992 H 948.461 3.06502 2.89196 0
M  V30 9993 H 947.185 1.83722 2.70026 0
M  V30 9994 H 945.844 3.43312 1.28579 0
M  V30 9995 H 945.492 3.34099 3.76014 0
M  V30 9996 H 945.192 4.97736 3.12302 0
M  V30 9997 H 946.716 4.62516 3.98637 0
M  V30 9998 H 948.13 5.423 1.85967 0
M  V30 9999 H 946.527 5.87735 1.21194 0
M  V30 10000 H 947.597 4.84261 0.248913 0
M  V30 10001 N 948.94 -0.228186 1.55939 0
M  V30 10002 C 950.188 -0.951668 1.78291 0
M  V30 10003 C 950.509 -1.85132 0.612474 0
M  V30 10004 O 949.779 -1.92356 -0.370942 0
M  V30 10005 H 948.359 -0.354388 0.657585 0
M  V30 10006 H 951.021 -0.241635 1.93396 0
M  V30 10007 H 950.117 -1.56239 2.70177 0
M  V30 10008 N 950.418 -1.49637 -0.494624 0
M  V30 10009 C 951.829 -1.52573 -1.07603 0
M  V30 10010 C 952.18 -0.315591 -1.93645 0
M  V30 10011 O 951.305 0.573966 -2.08649 0
M  V30 10012 C 951.9 -2.7648 -1.95817 0
M  V30 10013 C 950.459 -2.82173 -2.49109 0
M  V30 10014 C 949.606 -2.4657 -1.2688 0
M  V30 10015 H 952.557 -1.56242 -0.278251 0
M  V30 10016 H 952.578 -2.57003 -2.80588 0
M  V30 10017 H 952.09 -3.64538 -1.33167 0
M  V30 10018 H 950.191 -1.9841 -3.15379 0
M  V30 10019 H 950.304 -3.84501 -2.85825 0
M  V30 10020 H 948.668 -1.98489 -1.59607 0
M  V30 10021 H 949.451 -3.3691 -0.659281 0
M  V30 10022 N 951.896 0.746133 -1.38819 0
M  V30 10023 C 952.859 1.84167 -1.36437 0
M  V30 10024 C 953.859 1.58626 -0.263499 0
M  V30 10025 O 955.049 1.66233 -0.520801 0
M  V30 10026 C 952.181 3.21769 -1.12596 0
M  V30 10027 H 953.374 1.87684 -2.33912 0
M  V30 10028 H 950.927 0.948625 -1.24221 0
M  V30 10029 H 951.662 3.23917 -0.15758 0
M  V30 10030 H 951.447 3.41702 -1.92307 0
M  V30 10031 H 952.937 4.0184 -1.13643 0
M  V30 10032 N 953.375 1.23811 0.975125 0
M  V30 10033 C 954.305 1.04846 2.08638 0
M  V30 10034 C 955.286 -0.0362859 1.70061 0
M  V30 10035 O 956.471 0.12937 1.93769 0
M  V30 10036 C 953.601 0.644534 3.41267 0
M  V30 10037 C 952.555 1.67722 3.93768 0
M  V30 10038 C 951.881 1.12857 5.22654 0
M  V30 10039 C 953.181 3.07147 4.22443 0
M  V30 10040 H 954.875 1.97795 2.24761 0
M  V30 10041 H 952.421 0.952397 1.08006 0
M  V30 10042 H 954.374 0.498887 4.18436 0
M  V30 10043 H 953.098 -0.320641 3.25022 0
M  V30 10044 H 951.757 1.81095 3.18748 0
M  V30 10045 H 951.405 0.154227 5.02764 0
M  V30 10046 H 951.105 1.81862 5.58749 0
M  V30 10047 H 952.629 0.994891 6.0244 0
M  V30 10048 H 954.043 2.97045 4.90344 0
M  V30 10049 H 952.44 3.73437 4.6975 0
M  V30 10050 H 953.51 3.55743 3.29507 0
M  V30 10051 N 954.853 -1.17469 1.05066 0
M  V30 10052 C 955.8 -2.21443 0.650512 0
M  V30 10053 C 956.77 -1.62441 -0.346702 0
M  V30 10054 O 957.955 -1.89305 -0.238404 0
M  V30 10055 C 955.095 -3.45087 0.0301014 0
M  V30 10056 C 954.208 -4.18385 1.07599 0
M  V30 10057 C 953.343 -5.29513 0.423038 0
M  V30 10058 C 952.382 -5.94596 1.45333 0
M  V30 10059 N 951.519 -6.97241 0.824623 0
M  V30 10060 H 956.359 -2.55025 1.54163 0
M  V30 10061 H 953.896 -1.25274 0.771032 0
M  V30 10062 H 955.854 -4.15754 -0.347032 0
M  V30 10063 H 954.484 -3.12093 -0.824481 0
M  V30 10064 H 953.536 -3.46446 1.57097 0
M  V30 10065 H 954.848 -4.62899 1.85813 0
M  V30 10066 H 954.002 -6.067 -0.00774975 0
M  V30 10067 H 952.741 -4.86129 -0.391092 0
M  V30 10068 H 951.746 -5.16142 1.89415 0
M  V30 10069 H 952.971 -6.40061 2.26934 0
M  V30 10070 H 950.917 -6.55993 0.0309804 0
M  V30 10071 H 950.834 -7.40059 1.54432 0
M  V30 10072 H 952.102 -7.78375 0.418567 0
M  V30 10073 N 956.331 -0.831506 -1.3388 0
M  V30 10074 C 957.261 -0.274378 -2.31882 0
M  V30 10075 C 958.242 0.613872 -1.58637 0
M  V30 10076 O 959.427 0.538961 -1.86571 0
M  V30 10077 C 956.557 0.557498 -3.42796 0
M  V30 10078 C 955.511 -0.234337 -4.27358 0
M  V30 10079 C 954.837 0.720825 -5.29819 0
M  V30 10080 C 956.137 -1.44732 -5.01847 0
M  V30 10081 H 957.831 -1.09322 -2.78728 0
M  V30 10082 H 955.377 -0.527136 -1.34005 0
M  V30 10083 H 957.33 0.957501 -4.10378 0
M  V30 10084 H 956.054 1.40947 -2.94621 0
M  V30 10085 H 954.713 -0.61581 -3.61391 0
M  V30 10086 H 954.361 1.569 -4.77903 0
M  V30 10087 H 954.061 0.195171 -5.87276 0
M  V30 10088 H 955.585 1.1185 -6.00268 0
M  V30 10089 H 956.999 -1.12087 -5.62236 0
M  V30 10090 H 955.396 -1.90923 -5.68919 0
M  V30 10091 H 956.466 -2.22099 -4.31045 0
M  V30 10092 N 957.809 1.4625 -0.587256 0
M  V30 10093 C 959.034 2.07252 -0.0784517 0
M  V30 10094 C 959.459 1.43239 1.21919 0
M  V30 10095 O 958.817 0.517791 1.73749 0
M  V30 10096 C 958.865 3.60534 0.0691037 0
M  V30 10097 O 957.969 3.96773 1.12448 0
M  V30 10098 H 957.31 0.660825 -0.064859 0
M  V30 10099 H 959.84 1.87819 -0.811491 0
M  V30 10100 H 959.85 4.0708 0.273826 0
M  V30 10101 H 958.525 4.06516 -0.878514 0
M  V30 10102 H 957.102 3.6193 0.897852 0
M  V30 10103 N 959.287 0.325282 1.54207 0
M  V30 10104 C 960.517 -0.278285 2.04717 0
M  V30 10105 C 960.925 -1.46198 1.20095 0
M  V30 10106 O 960.268 -1.82319 0.224813 0
M  V30 10107 C 960.33 -0.774387 3.51061 0
M  V30 10108 C 959.994 0.287225 4.56096 0
M  V30 10109 C 960.991 1.12388 5.07607 0
M  V30 10110 C 958.676 0.435908 5.00405 0
M  V30 10111 C 960.67 2.09492 6.0199 0
M  V30 10112 C 958.357 1.41037 5.94602 0
M  V30 10113 C 959.355 2.23834 6.45281 0
M  V30 10114 O 959.043 3.19625 7.37628 0
M  V30 10115 H 958.775 -0.0608309 0.673257 0
M  V30 10116 H 961.329 0.470049 1.99949 0
M  V30 10117 H 959.559 -1.57366 3.53232 0
M  V30 10118 H 961.248 -1.29649 3.84637 0
M  V30 10119 H 962.014 1.02 4.74153 0
M  V30 10120 H 957.893 -0.198668 4.60572 0
M  V30 10121 H 961.437 2.74157 6.4147 0
M  V30 10122 H 957.334 1.51487 6.27473 0
M  V30 10123 H 958.102 3.14884 7.55507 0
M  V30 10124 N 960.765 -1.57509 0.0534917 0
M  V30 10125 C 961.715 -2.08179 -0.929802 0
M  V30 10126 C 962.699 -0.987451 -1.27036 0
M  V30 10127 O 963.891 -1.25076 -1.2524 0
M  V30 10128 C 961.02 -2.63221 -2.20385 0
M  V30 10129 C 960.106 -3.79629 -1.89058 0
M  V30 10130 N 960.497 -4.8931 -1.28101 0
M  V30 10131 C 958.795 -3.88578 -2.18914 0
M  V30 10132 C 959.496 -5.70329 -1.14455 0
M  V30 10133 N 958.472 -5.18011 -1.64821 0
M  V30 10134 H 962.274 -2.90374 -0.453874 0
M  V30 10135 H 959.788 -1.61697 -0.150899 0
M  V30 10136 H 961.785 -2.97827 -2.91727 0
M  V30 10137 H 960.445 -1.82466 -2.68582 0
M  V30 10138 H 961.456 -5.09058 -0.952924 0
M  V30 10139 H 958.133 -3.18769 -2.69616 0
M  V30 10140 H 959.523 -6.6854 -0.671129 0
M  V30 10141 N 962.243 0.219913 -1.56058 0
M  V30 10142 C 963.492 0.942119 -1.78345 0
M  V30 10143 C 963.805 1.85435 -0.622344 0
M  V30 10144 O 965.011 2.61533 -0.728886 0
M  V30 10145 C 963.467 1.72544 -3.15843 0
M  V30 10146 C 963.075 0.859263 -4.39682 0
M  V30 10147 C 964.819 2.43876 -3.47455 0
M  V30 10148 C 962.726 1.64003 -5.68205 0
M  V30 10149 H 961.656 0.355514 -0.664925 0
M  V30 10150 H 964.307 0.195963 -1.82451 0
M  V30 10151 H 962.689 2.51456 -3.05918 0
M  V30 10152 H 963.863 0.110562 -4.60667 0
M  V30 10153 H 962.178 0.257985 -4.156 0
M  V30 10154 H 964.775 3.02794 -4.40704 0
M  V30 10155 H 965.118 3.16843 -2.7003 0
M  V30 10156 H 965.651 1.71952 -3.58716 0
M  V30 10157 H 962.39 0.953606 -6.48526 0
M  V30 10158 H 961.91 2.3633 -5.51279 0
M  V30 10159 H 963.589 2.20028 -6.08438 0
M  V30 10160 N 963.721 1.49897 0.486681 0
M  V30 10161 C 964.998 1.50614 1.24799 0
M  V30 10162 C 965.378 0.24193 2.09709 0
M  V30 10163 O 964.726 -0.775237 2.14947 0
M  V30 10164 C 964.936 2.79318 2.09243 0
M  V30 10165 C 966.284 3.29371 2.67955 0
M  V30 10166 O 967.308 2.80533 2.19499 0
M  V30 10167 O 966.167 4.14466 3.56202 0
M  V30 10168 H 963.261 0.603447 0.565491 0
M  V30 10169 H 965.807 1.62174 0.499778 0
M  V30 10170 H 964.579 3.62812 1.46572 0
M  V30 10171 H 964.202 2.70687 2.91229 0
M  V30 10172 N 965.199 -0.738761 1.39212 0
M  V30 10173 C 966.615 -1.04381 1.20734 0
M  V30 10174 C 966.815 -2.01391 0.0663082 0
M  V30 10175 O 965.871 -2.45672 -0.583229 0
M  V30 10176 C 967.184 -1.6097 2.53987 0
M  V30 10177 C 968.732 -1.73069 2.60799 0
M  V30 10178 C 969.207 -2.33067 3.94264 0
M  V30 10179 N 970.698 -2.40481 3.95883 0
M  V30 10180 C 971.433 -2.87834 4.95923 0
M  V30 10181 N 970.929 -3.35111 6.0636 0
M  V30 10182 N 972.722 -2.87009 4.83304 0
M  V30 10183 H 964.873 -0.0952996 2.12186 0
M  V30 10184 H 967.136 -0.104902 0.942178 0
M  V30 10185 H 966.842 -0.971548 3.38015 0
M  V30 10186 H 966.716 -2.59829 2.73439 0
M  V30 10187 H 969.103 -2.36007 1.77157 0
M  V30 10188 H 969.184 -0.728728 2.452 0
M  V30 10189 H 968.828 -1.70758 4.78335 0
M  V30 10190 H 968.758 -3.33933 4.07181 0
M  V30 10191 H 971.249 -2.07061 3.16123 0
M  V30 10192 H 971.562 -3.69742 6.78609 0
M  V30 10193 H 969.907 -3.33129 6.09959 0
M  V30 10194 H 973.098 -2.49395 3.96131 0
M  V30 10195 H 973.271 -3.23598 5.61416 0
M  V30 10196 N 966.677 -1.24326 -0.968545 0
M  V30 10197 C 967.607 -1.05951 -2.08079 0
M  V30 10198 C 968.588 0.0272666 -1.70078 0
M  V30 10199 O 969.773 -0.139644 -1.93697 0
M  V30 10200 C 966.903 -0.662623 -3.4092 0
M  V30 10201 C 965.857 -1.69807 -3.92873 0
M  V30 10202 C 965.183 -1.15628 -5.22048 0
M  V30 10203 C 966.483 -3.09383 -4.20808 0
M  V30 10204 H 968.177 -1.98984 -2.23709 0
M  V30 10205 H 965.723 -0.958112 -1.075 0
M  V30 10206 H 967.676 -0.521071 -4.18166 0
M  V30 10207 H 966.4 0.303399 -3.25188 0
M  V30 10208 H 965.059 -1.82783 -3.17783 0
M  V30 10209 H 964.707 -0.180888 -5.02675 0
M  V30 10210 H 964.407 -1.84822 -5.57776 0
M  V30 10211 H 965.931 -1.02683 -6.01904 0
M  V30 10212 H 967.345 -2.99642 -4.88761 0
M  V30 10213 H 965.742 -3.75923 -4.67763 0
M  V30 10214 H 966.812 -3.57486 -3.27616 0
M  V30 10215 N 968.156 1.1691 -1.05688 0
M  V30 10216 C 969.103 2.21095 -0.662246 0
M  V30 10217 C 970.073 1.62623 0.338083 0
M  V30 10218 O 971.258 1.89428 0.228362 0
M  V30 10219 C 968.398 3.45066 -0.0484018 0
M  V30 10220 C 967.511 4.17809 -1.09817 0
M  V30 10221 C 966.646 5.29281 -0.451114 0
M  V30 10222 C 965.685 5.93817 -1.48484 0
M  V30 10223 N 964.822 6.96793 -0.861588 0
M  V30 10224 H 969.662 2.54204 -1.55513 0
M  V30 10225 H 967.199 1.24863 -0.777665 0
M  V30 10226 H 969.157 4.15932 0.324978 0
M  V30 10227 H 967.787 3.12526 0.807918 0
M  V30 10228 H 966.839 3.45608 -1.58932 0
M  V30 10229 H 968.151 4.61907 -1.88265 0
M  V30 10230 H 967.305 6.06695 -0.0244251 0
M  V30 10231 H 966.044 4.8633 0.365306 0
M  V30 10232 H 965.049 5.1513 -1.92149 0
M  V30 10233 H 966.274 6.38848 -2.30325 0
M  V30 10234 H 964.22 6.55967 -0.0657688 0
M  V30 10235 H 964.137 7.39229 -1.58354 0
M  V30 10236 H 965.405 7.78142 -0.45984 0
M  V30 10237 N 969.634 0.838594 1.33437 0
M  V30 10238 C 970.566 0.229006 2.28053 0
M  V30 10239 C 971.579 -0.590103 1.51729 0
M  V30 10240 O 972.768 -0.417218 1.73556 0
M  V30 10241 C 969.868 -0.696251 3.31671 0
M  V30 10242 C 969.041 0.0834606 4.3732 0
M  V30 10243 C 968.1 -0.765097 5.20608 0
M  V30 10244 O 967.126 -0.2044 5.68833 0
M  V30 10245 N 968.328 -2.08249 5.4186 0
M  V30 10246 H 971.093 1.04196 2.81004 0
M  V30 10247 H 968.654 0.697031 1.46127 0
M  V30 10248 H 970.646 -1.26889 3.84293 0
M  V30 10249 H 969.216 -1.40992 2.78998 0
M  V30 10250 H 968.436 0.837481 3.85201 0
M  V30 10251 H 969.724 0.619613 5.05013 0
M  V30 10252 H 969.122 -2.56156 5.04381 0
M  V30 10253 H 967.679 -2.60362 5.97541 0
M  V30 10254 N 971.112 -1.45937 0.595003 0
M  V30 10255 C 972.36 -2.01921 0.0851368 0
M  V30 10256 C 972.681 -1.46748 -1.28413 0
M  V30 10257 O 971.951 -0.656873 -1.84559 0
M  V30 10258 H 970.531 -0.746457 0.0284826 0
M  V30 10259 H 973.193 -1.78891 0.773561 0
M  V30 10260 H 972.289 -3.1209 0.0254002 0
M  V30 10261 N 972.59 -0.333456 -1.54032 0
M  V30 10262 C 973.537 0.527981 -2.2468 0
M  V30 10263 C 974.507 1.10371 -1.24127 0
M  V30 10264 O 975.692 1.14221 -1.52834 0
M  V30 10265 C 972.832 1.67808 -3.01553 0
M  V30 10266 C 971.945 1.13064 -4.16942 0
M  V30 10267 C 971.08 2.24722 -4.81325 0
M  V30 10268 C 970.119 1.67277 -5.88799 0
M  V30 10269 N 969.256 2.72638 -6.47003 0
M  V30 10270 H 974.096 -0.0810308 -2.9789 0
M  V30 10271 H 971.633 -0.051761 -1.47009 0
M  V30 10272 H 973.591 2.35502 -3.44376 0
M  V30 10273 H 972.221 2.25823 -2.30659 0
M  V30 10274 H 971.273 0.344948 -3.78833 0
M  V30 10275 H 972.585 0.670373 -4.94275 0
M  V30 10276 H 971.739 3.00301 -5.27166 0
M  V30 10277 H 970.478 2.74089 -4.03394 0
M  V30 10278 H 969.483 0.902002 -5.4235 0
M  V30 10279 H 970.708 1.18775 -6.68632 0
M  V30 10280 H 968.654 3.21277 -5.71941 0
M  V30 10281 H 968.571 2.31204 -7.19778 0
M  V30 10282 H 969.839 3.48015 -6.97499 0
M  V30 10283 N 974.068 1.57479 -0.061844 0
M  V30 10284 C 975.315 1.93108 0.60954 0
M  V30 10285 C 975.643 0.941086 1.70217 0
M  V30 10286 O 974.898 -0.044914 1.95648 0
M  V30 10287 C 975.197 3.35394 1.23474 0
M  V30 10288 C 974.863 4.50095 0.269247 0
M  V30 10289 C 973.525 4.812 0.00360316 0
M  V30 10290 C 975.877 5.19725 -0.391839 0
M  V30 10291 C 973.205 5.79276 -0.930383 0
M  V30 10292 C 975.557 6.18801 -1.31408 0
M  V30 10293 C 974.221 6.48328 -1.58829 0
M  V30 10294 H 973.491 0.706634 0.223046 0
M  V30 10295 H 976.138 1.91054 -0.1306 0
M  V30 10296 H 974.443 3.33866 2.05039 0
M  V30 10297 H 976.14 3.60247 1.76134 0
M  V30 10298 H 972.73 4.2583 0.486477 0
M  V30 10299 H 976.914 4.95898 -0.199713 0
M  V30 10300 H 972.17 6.00484 -1.15019 0
M  V30 10301 H 976.344 6.71862 -1.83234 0
M  V30 10302 H 973.971 7.24137 -2.31363 0
M  V30 10303 O 975.585 -0.0790267 1.61307 0
M  V30 10304 H 976.276 -0.705778 1.80384 0
M  V30 END ATOM
M  V30 BEGIN BOND
M  V30 END BOND
M  V30 END CTAB
M  END
$$$$
