drugbank_target|P15474 3-dehydroquinate dehydratase (DB02786; DB02801; DB04347; DB04656; DB08485)
 OpenBabel12092119593D

  0  0  0     0  0            999 V3000
M  V30 BEGIN CTAB
M  V30 COUNTS 2317 2341 0 0 0
M  V30 BEGIN ATOM
M  V30 1 H -0.908 1.98254 -0.117106 0
M  V30 2 N 0 1.576 0 0
M  V30 3 C 0.933 2.03868 1.02534 0
M  V30 4 C 1.911 0.928543 1.3348 0
M  V30 5 O 3.095 1.19667 1.45644 0
M  V30 6 C 0.222 2.43627 2.35294 0
M  V30 7 C -0.732 3.65373 2.2001 0
M  V30 8 S 0.101 5.13292 1.52614 0
M  V30 9 C 1.257 5.56322 2.86805 0
M  V30 10 H 1.49 2.90518 0.631377 0
M  V30 11 H -0.977 1.52953 0.210867 0
M  V30 12 H 0.981 2.67203 3.11629 0
M  V30 13 H -0.358 1.57376 2.7183 0
M  V30 14 H -1.165 3.90944 3.18086 0
M  V30 15 H -1.563 3.418 1.51819 0
M  V30 16 H 0.729 5.58782 3.83104 0
M  V30 17 H 1.672 6.56266 2.65933 0
M  V30 18 H 2.08 4.83886 2.90714 0
M  V30 19 N 1.4781 -0.272755 1.55222 0
M  V30 20 C 2.8891 -0.84378 1.66545 0
M  V30 21 C 3.2401 -1.87035 0.592641 0
M  V30 22 O 2.3651 -2.14761 -0.265818 0
M  V30 23 C 2.9601 -1.53723 3.01918 0
M  V30 24 C 1.5191 -2.05628 3.15268 0
M  V30 25 C 0.6661 -0.898424 2.62343 0
M  V30 26 H 3.6171 -0.0490998 1.58624 0
M  V30 27 H 3.6381 -2.40421 2.94921 0
M  V30 28 H 3.1501 -0.78983 3.79978 0
M  V30 29 H 1.2511 -2.83329 2.41983 0
M  V30 30 H 1.3641 -2.27142 4.21833 0
M  V30 31 H -0.2719 -1.29186 2.19506 0
M  V30 32 H 0.5111 -0.164528 3.42906 0
M  V30 33 N 2.9562 -1.48159 -0.537278 0
M  V30 34 C 4.3722 -1.34118 -0.865129 0
M  V30 35 C 4.5722 -0.346678 -1.98495 0
M  V30 36 O 3.6282 0.234715 -2.51407 0
M  V30 37 C 4.9412 -2.73963 -1.23954 0
M  V30 38 C 6.4892 -2.82397 -1.34984 0
M  V30 39 C 6.9642 -4.22928 -1.75772 0
M  V30 40 N 8.4552 -4.25566 -1.82887 0
M  V30 41 C 9.1902 -5.31235 -2.15817 0
M  V30 42 N 8.6862 -6.47189 -2.47222 0
M  V30 43 N 10.4792 -5.18624 -2.16761 0
M  V30 44 H 2.6302 -2.1144 0.201715 0
M  V30 45 H 4.8932 -0.947598 0.0275949 0
M  V30 46 H 4.5992 -3.48264 -0.490381 0
M  V30 47 H 4.4732 -3.0702 -2.19132 0
M  V30 48 H 6.8602 -2.08356 -2.08978 0
M  V30 49 H 6.9412 -2.5297 -0.379448 0
M  V30 50 H 6.5852 -4.97482 -1.02341 0
M  V30 51 H 6.5152 -4.49794 -2.73848 0
M  V30 52 H 9.0062 -3.41924 -1.60924 0
M  V30 53 H 9.3192 -7.23564 -2.71433 0
M  V30 54 H 7.6642 -6.50476 -2.44757 0
M  V30 55 H 10.8552 -4.27056 -1.91679 0
M  V30 56 H 11.0282 -6.01078 -2.42093 0
M  V30 57 N 4.4343 0.785586 -1.36625 0
M  V30 58 C 5.6593 1.57963 -1.34397 0
M  V30 59 C 6.0843 1.87964 0.071526 0
M  V30 60 O 5.4423 1.48182 1.0446 0
M  V30 61 C 5.4903 2.87511 -2.17646 0
M  V30 62 O 4.5943 3.81281 -1.57158 0
M  V30 63 H 3.9353 0.479014 -0.459828 0
M  V30 64 H 6.4653 0.973411 -1.79961 0
M  V30 65 H 6.4753 3.36745 -2.30362 0
M  V30 66 H 5.1503 2.65002 -3.20541 0
M  V30 67 H 3.7273 3.39885 -1.53403 0
M  V30 68 N 5.9124 1.20967 1.01018 0
M  V30 69 C 6.8424 0.988272 2.11555 0
M  V30 70 C 7.8234 -0.0849778 1.69888 0
M  V30 71 O 9.0084 0.0738202 1.9406 0
M  V30 72 C 6.1384 0.546528 3.42973 0
M  V30 73 C 5.0924 1.56375 3.9841 0
M  V30 74 C 4.4184 0.97842 5.25672 0
M  V30 75 C 5.7184 2.94922 4.31066 0
M  V30 76 H 7.4124 1.91276 2.30334 0
M  V30 77 H 4.9584 0.921073 1.1069 0
M  V30 78 H 6.9114 0.378839 4.19694 0
M  V30 79 H 5.6354 -0.413598 3.23971 0
M  V30 80 H 4.2944 1.71891 3.23804 0
M  V30 81 H 3.9424 0.0101688 5.02999 0
M  V30 82 H 3.6424 1.65784 5.63728 0
M  V30 83 H 5.1664 0.821939 6.05043 0
M  V30 84 H 6.5804 2.8288 4.9865 0
M  V30 85 H 4.9774 3.5983 4.80253 0
M  V30 86 H 6.0474 3.4616 3.39561 0
M  V30 87 N 7.3905 -1.2043 1.01659 0
M  V30 88 C 8.3535 -2.21433 0.591616 0
M  V30 89 C 9.3535 -1.57203 -0.338226 0
M  V30 90 O 10.5435 -1.73737 -0.126918 0
M  V30 91 C 7.6755 -3.40628 -0.136058 0
M  V30 92 H 8.8685 -2.60545 1.48514 0
M  V30 93 H 6.4215 -1.33893 0.806379 0
M  V30 94 H 7.1565 -3.07019 -1.04449 0
M  V30 95 H 6.9415 -3.88475 0.531917 0
M  V30 96 H 8.4315 -4.15475 -0.420735 0
M  V30 97 N 8.8686 -0.792821 -1.36206 0
M  V30 98 C 9.8166 -0.181555 -2.3189 0
M  V30 99 C 10.8106 0.661025 -1.55971 0
M  V30 100 O 12.0166 0.555728 -1.71206 0
M  V30 101 H 8.3916 -0.0399382 -0.750939 0
M  V30 102 H 10.3626 -1.00394 -2.81005 0
M  V30 103 C 9.1116 0.666444 -3.41253 0
M  V30 104 H 8.4346 0.0274489 -3.99791 0
M  V30 105 H 9.8746 1.06076 -4.10517 0
M  V30 106 C 8.3336 1.82614 -2.83114 0
M  V30 107 O 8.8636 2.9229 -2.75553 0
M  V30 108 N 7.0696 1.63333 -2.40356 0
M  V30 109 H 6.6166 0.741217 -2.46706 0
M  V30 110 H 6.5746 2.41087 -2.01803 0
M  V30 111 N 10.3467 1.47872 -0.545128 0
M  V30 112 C 11.3097 2.28337 0.198717 0
M  V30 113 C 12.3097 1.36255 0.853888 0
M  V30 114 O 13.4997 1.59003 0.711606 0
M  V30 115 C 10.6317 3.15585 1.28915 0
M  V30 116 H 11.8247 2.95567 -0.507941 0
M  V30 117 H 9.3777 1.53362 -0.301616 0
M  V30 118 H 10.1127 2.53019 2.02859 0
M  V30 119 H 9.8977 3.83337 0.824309 0
M  V30 120 H 11.3877 3.76243 1.81194 0
M  V30 121 N 11.8248 0.280983 1.55075 0
M  V30 122 C 13.2358 -0.215629 1.85451 0
M  V30 123 C 13.5868 -1.54991 1.203 0
M  V30 124 O 12.7118 -2.10699 0.493435 0
M  V30 125 C 13.3068 -0.398026 3.36454 0
M  V30 126 C 11.8658 -0.838866 3.66933 0
M  V30 127 C 11.0128 0.064458 2.77225 0
M  V30 128 H 13.9638 0.502601 1.50531 0
M  V30 129 H 13.9848 -1.23569 3.59876 0
M  V30 130 H 13.4968 0.573241 3.83843 0
M  V30 131 H 11.5978 -1.8214 3.25048 0
M  V30 132 H 11.7108 -0.672123 4.74362 0
M  V30 133 H 10.0748 -0.452863 2.50642 0
M  V30 134 H 10.8578 1.03172 3.2743 0
M  V30 135 N 13.3029 -1.57598 0.00835791 0
M  V30 136 C 14.5519 -1.90107 -0.673968 0
M  V30 137 C 14.8649 -0.884275 -1.7447 0
M  V30 138 O 16.0709 -1.09987 -2.48224 0
M  V30 139 C 14.5269 -3.37497 -1.24995 0
M  V30 140 C 14.1349 -4.47491 -0.2136 0
M  V30 141 C 15.8789 -3.79104 -1.90999 0
M  V30 142 C 13.7859 -5.85963 -0.80005 0
M  V30 143 H 12.7159 -0.709393 -0.255495 0
M  V30 144 H 15.3669 -1.83365 0.0702693 0
M  V30 145 H 13.7489 -3.39102 -2.04513 0
M  V30 146 H 14.9229 -4.57414 0.557596 0
M  V30 147 H 13.2379 -4.14956 0.346474 0
M  V30 148 H 15.8349 -4.79901 -2.35795 0
M  V30 149 H 16.1779 -3.1306 -2.74407 0
M  V30 150 H 16.7109 -3.79833 -1.18203 0
M  V30 151 H 13.4499 -6.555 -0.00456708 0
M  V30 152 H 12.9699 -5.79687 -1.54021 0
M  V30 153 H 14.6489 -6.33884 -1.29615 0
M  V30 154 N 14.781 0.264519 -1.55364 0
M  V30 155 C 15.714 1.35297 -1.83766 0
M  V30 156 C 16.692 1.47171 -0.691336 0
M  V30 157 O 17.876 1.63663 -0.935238 0
M  V30 158 C 15.003 2.72847 -2.00679 0
M  V30 159 C 14.049 2.78214 -3.23263 0
M  V30 160 S 14.882 2.36601 -4.80396 0
M  V30 161 C 16.038 3.7611 -5.00292 0
M  V30 162 H 16.271 1.11003 -2.758 0
M  V30 163 H 13.804 0.464596 -1.47244 0
M  V30 164 H 15.762 3.52057 -2.11108 0
M  V30 165 H 14.423 2.94388 -1.09518 0
M  V30 166 H 13.616 3.7919 -3.3201 0
M  V30 167 H 13.218 2.07034 -3.11469 0
M  V30 168 H 15.51 4.71457 -4.86554 0
M  V30 169 H 16.453 3.7231 -6.02321 0
M  V30 170 H 16.861 3.67806 -4.28228 0
M  V30 171 N 16.2591 1.48442 0.529413 0
M  V30 172 C 17.5081 1.55742 1.28169 0
M  V30 173 C 17.8211 0.236511 1.94165 0
M  V30 174 O 19.0271 0.187761 2.7085 0
M  V30 175 C 17.4831 2.74667 2.32564 0
M  V30 176 C 17.0911 4.13402 1.72636 0
M  V30 177 C 18.8351 2.9128 3.08798 0
M  V30 178 C 16.7421 5.23587 2.74975 0
M  V30 179 H 15.6721 0.579796 0.48203 0
M  V30 180 H 18.3231 1.74776 0.559056 0
M  V30 181 H 16.7051 2.49067 3.07866 0
M  V30 182 H 17.8791 4.49022 1.03519 0
M  V30 183 H 16.1941 4.0191 1.08892 0
M  V30 184 H 18.7911 3.70767 3.85274 0
M  V30 185 H 19.1341 2.00757 3.64695 0
M  V30 186 H 19.6671 3.16782 2.40611 0
M  V30 187 H 16.4061 6.16076 2.23897 0
M  V30 188 H 15.9261 4.92454 3.42417 0
M  V30 189 H 17.6051 5.51724 3.37949 0
M  V30 190 N 17.7372 -0.778329 1.37039 0
M  V30 191 C 18.6672 -1.90546 1.34962 0
M  V30 192 C 19.6482 -1.68681 0.219274 0
M  V30 193 O 20.8332 -1.89634 0.418624 0
M  V30 194 C 17.9632 -3.27734 1.14925 0
M  V30 195 C 16.9172 -3.64147 2.24902 0
M  V30 196 C 16.2432 -4.99806 1.89996 0
M  V30 197 C 17.5432 -3.71579 3.67051 0
M  V30 198 H 19.2372 -1.92541 2.29277 0
M  V30 199 H 16.7832 -0.924948 1.10366 0
M  V30 200 H 18.7362 -4.06215 1.12104 0
M  V30 201 H 17.4602 -3.26154 0.170631 0
M  V30 202 H 16.1192 -2.8797 2.26868 0
M  V30 203 H 15.7672 -4.94759 0.906796 0
M  V30 204 H 15.4672 -5.25139 2.63634 0
M  V30 205 H 16.9912 -5.80694 1.88749 0
M  V30 206 H 18.4052 -4.40227 3.67251 0
M  V30 207 H 16.8022 -4.08405 4.39688 0
M  V30 208 H 17.8722 -2.72404 4.01154 0
M  V30 209 N 19.2153 -1.21501 -1.00376 0
M  V30 210 C 20.1633 -0.972442 -2.11297 0
M  V30 211 C 21.1573 0.080731 -1.69208 0
M  V30 212 O 22.3633 -0.0707666 -1.79861 0
M  V30 213 H 18.7383 -0.297218 -0.690772 0
M  V30 214 H 20.7093 -1.91394 -2.28934 0
M  V30 215 C 19.4583 -0.555065 -3.43241 0
M  V30 216 H 18.7813 -1.35709 -3.76062 0
M  V30 217 H 20.2213 -0.424664 -4.21868 0
M  V30 218 C 18.6803 0.734147 -3.28804 0
M  V30 219 O 19.2103 1.78937 -3.59645 0
M  V30 220 N 17.4163 0.701133 -2.82015 0
M  V30 221 H 16.9633 -0.157874 -2.57116 0
M  V30 222 H 16.9213 1.56403 -2.72737 0
M  V30 223 N 20.6934 1.19889 -1.02296 0
M  V30 224 C 21.9414 1.89046 -0.714558 0
M  V30 225 C 22.2624 1.79636 0.758681 0
M  V30 226 O 21.5324 1.20292 1.54618 0
M  V30 227 H 20.1124 0.699802 -0.261317 0
M  V30 228 H 22.7744 1.45574 -1.29592 0
M  V30 229 H 21.8704 2.95524 -1.0036 0
M  V30 230 N 22.1715 0.800033 1.35784 0
M  V30 231 C 23.5825 0.439142 1.81462 0
M  V30 232 C 23.9335 -1.03813 1.66485 0
M  V30 233 O 23.0585 -1.80626 1.19177 0
M  V30 234 C 23.6535 0.790314 3.29453 0
M  V30 235 C 22.2125 0.482111 3.733 0
M  V30 236 C 21.3595 1.01938 2.57883 0
M  V30 237 H 24.3105 0.992254 1.23855 0
M  V30 238 H 24.3315 0.0853677 3.80404 0
M  V30 239 H 23.8435 1.86554 3.40322 0
M  V30 240 H 21.9445 -0.584652 3.67984 0
M  V30 241 H 22.0575 1.01015 4.6833 0
M  V30 242 H 20.4215 0.442043 2.50835 0
M  V30 243 H 21.2045 2.10059 2.71533 0
M  V30 244 N 23.6496 -1.47581 0.552962 0
M  V30 245 C 24.5976 -2.31648 -0.21023 0
M  V30 246 C 25.5916 -1.42663 -0.913432 0
M  V30 247 O 26.7976 -1.5945 -0.835201 0
M  V30 248 H 23.1726 -0.746989 -0.0866676 0
M  V30 249 H 25.1436 -2.93869 0.518051 0
M  V30 250 C 23.8926 -3.25226 -1.22976 0
M  V30 251 H 23.2156 -3.93658 -0.698077 0
M  V30 252 H 24.6556 -3.86889 -1.73473 0
M  V30 253 C 23.1146 -2.48448 -2.27542 0
M  V30 254 O 23.6446 -2.22585 -3.34393 0
M  V30 255 N 21.8506 -2.09532 -2.01357 0
M  V30 256 H 21.3976 -2.30765 -1.14478 0
M  V30 257 H 21.3556 -1.58476 -2.71538 0
M  V30 258 N 25.1277 -0.289203 -1.54924 0
M  V30 259 C 26.0577 0.58549 -2.2604 0
M  V30 260 C 27.0387 1.14753 -1.25562 0
M  V30 261 O 28.2237 1.17906 -1.54311 0
M  V30 262 C 25.3537 1.76305 -2.99222 0
M  V30 263 C 24.3077 1.33191 -4.06748 0
M  V30 264 C 23.6337 2.5937 -4.6758 0
M  V30 265 C 24.9337 0.471775 -5.20165 0
M  V30 266 H 26.6277 -0.00763532 -2.99399 0
M  V30 267 H 24.1737 -0.00511229 -1.43999 0
M  V30 268 H 26.1267 2.38097 -3.47689 0
M  V30 269 H 24.8507 2.38223 -2.23422 0
M  V30 270 H 23.5097 0.737121 -3.59113 0
M  V30 271 H 23.1577 3.19576 -3.88433 0
M  V30 272 H 22.8577 2.31228 -5.40192 0
M  V30 273 H 24.3817 3.21985 -5.18804 0
M  V30 274 H 25.7957 0.995056 -5.64599 0
M  V30 275 H 24.1927 0.284639 -5.99425 0
M  V30 276 H 25.2627 -0.506041 -4.82252 0
M  V30 277 N 26.6058 1.57591 -0.0167156 0
M  V30 278 C 27.5538 2.10604 0.987353 0
M  V30 279 C 28.5478 1.02977 1.34507 0
M  V30 280 O 29.7538 1.21425 1.32875 0
M  V30 281 H 26.1288 0.672695 0.336134 0
M  V30 282 H 28.0998 2.93925 0.514817 0
M  V30 283 C 26.8488 2.6382 2.26483 0
M  V30 284 H 26.1718 3.46278 1.99829 0
M  V30 285 H 27.6118 3.04573 2.94977 0
M  V30 286 C 26.0708 1.55992 2.9861 0
M  V30 287 O 26.6008 0.952521 3.90243 0
M  V30 288 N 24.8068 1.28335 2.60727 0
M  V30 289 H 24.3538 1.77914 1.86291 0
M  V30 290 H 24.3118 0.564115 3.09298 0
M  V30 291 N 28.0839 -0.256276 1.55502 0
M  V30 292 C 29.0139 -1.32102 1.92539 0
M  V30 293 C 29.9949 -1.50684 0.789194 0
M  V30 294 O 31.1799 -1.63449 1.04872 0
M  V30 295 C 28.3099 -2.67752 2.21192 0
M  V30 296 C 27.2639 -2.63878 3.36975 0
M  V30 297 C 26.5899 -4.03236 3.51147 0
M  V30 298 C 27.8899 -2.21682 4.72921 0
M  V30 299 H 29.5839 -1.01351 2.81724 0
M  V30 300 H 27.1299 -0.486105 1.35547 0
M  V30 301 H 29.0829 -3.42365 2.45691 0
M  V30 302 H 27.8069 -3.0012 1.28824 0
M  V30 303 H 26.4659 -1.91722 3.12471 0
M  V30 304 H 26.1139 -4.32854 2.56216 0
M  V30 305 H 25.8139 -4.01535 4.29003 0
M  V30 306 H 27.3379 -4.79563 3.77957 0
M  V30 307 H 28.7519 -2.86023 4.96854 0
M  V30 308 H 27.1489 -2.3111 5.53812 0
M  V30 309 H 28.2189 -1.16833 4.70615 0
M  V30 310 N 29.562 -1.4872 -0.521534 0
M  V30 311 C 30.492 -1.66771 -1.63431 0
M  V30 312 C 31.473 -0.516499 -1.62069 0
M  V30 313 O 32.658 -0.750013 -1.79132 0
M  V30 314 C 29.788 -1.71515 -3.01993 0
M  V30 315 C 28.742 -2.86222 -3.18216 0
M  V30 316 C 28.068 -2.76061 -4.57924 0
M  V30 317 C 29.368 -4.27419 -3.00184 0
M  V30 318 H 31.062 -2.59932 -1.48579 0
M  V30 319 H 28.608 -1.25089 -0.713358 0
M  V30 320 H 30.561 -1.82731 -3.7972 0
M  V30 321 H 29.285 -0.749393 -3.17886 0
M  V30 322 H 27.944 -2.74575 -2.42908 0
M  V30 323 H 27.592 -1.77437 -4.70665 0
M  V30 324 H 27.292 -3.53037 -4.69722 0
M  V30 325 H 28.816 -2.89256 -5.37739 0
M  V30 326 H 30.23 -4.39855 -3.67697 0
M  V30 327 H 28.627 -5.05458 -3.2347 0
M  V30 328 H 29.697 -4.43293 -1.96518 0
M  V30 329 N 31.0401 0.771051 -1.3745 0
M  V30 330 C 32.2881 1.52661 -1.32435 0
M  V30 331 C 32.6091 1.9479 0.0905024 0
M  V30 332 O 31.8791 1.66348 1.03466 0
M  V30 333 H 30.4591 0.566218 -0.487244 0
M  V30 334 H 33.1211 0.917636 -1.71946 0
M  V30 335 H 32.2171 2.42568 -1.96385 0
M  V30 336 N 32.5182 1.22032 0.997298 0
M  V30 337 C 33.4502 0.944263 2.08845 0
M  V30 338 C 34.4632 -0.0754663 1.62625 0
M  V30 339 O 35.6522 0.157994 1.77799 0
M  V30 340 C 32.7522 0.397723 3.36558 0
M  V30 341 C 31.9252 1.47362 4.11829 0
M  V30 342 C 30.9842 0.934951 5.17827 0
M  V30 343 O 30.0102 1.62016 5.45655 0
M  V30 344 N 31.2122 -0.245895 5.79979 0
M  V30 345 H 33.9772 1.88363 2.33109 0
M  V30 346 H 31.5382 1.12661 1.16272 0
M  V30 347 H 33.5302 0.0227771 4.04694 0
M  V30 348 H 32.1002 -0.446646 3.09393 0
M  V30 349 H 31.3202 2.02208 3.38386 0
M  V30 350 H 32.6082 2.19764 4.58891 0
M  V30 351 H 32.0062 -0.819475 5.59733 0
M  V30 352 H 30.5632 -0.562272 6.4937 0
M  V30 353 N 33.9963 -1.19345 1.0293 0
M  V30 354 C 35.4123 -1.41069 0.746446 0
M  V30 355 C 35.6123 -1.90078 -0.668776 0
M  V30 356 O 34.6683 -2.0778 -1.4347 0
M  V30 357 C 35.9813 -2.42141 1.78292 0
M  V30 358 C 37.5293 -2.55887 1.80252 0
M  V30 359 C 38.0043 -3.60214 2.8286 0
M  V30 360 N 39.4953 -3.67711 2.81679 0
M  V30 361 C 40.2303 -4.48128 3.57727 0
M  V30 362 N 39.7263 -5.32248 4.43491 0
M  V30 363 N 41.5193 -4.42782 3.46267 0
M  V30 364 H 33.6703 -0.858536 1.94275 0
M  V30 365 H 35.9333 -0.439541 0.839945 0
M  V30 366 H 35.6393 -2.13155 2.79746 0
M  V30 367 H 35.5133 -3.41323 1.60557 0
M  V30 368 H 37.9003 -2.84196 0.794757 0
M  V30 369 H 37.9813 -1.56858 2.02062 0
M  V30 370 H 37.6253 -3.32647 3.83807 0
M  V30 371 H 37.5553 -4.58895 2.58307 0
M  V30 372 H 40.0463 -3.07634 2.19476 0
M  V30 373 H 40.3593 -5.90729 4.98256 0
M  V30 374 H 38.7043 -5.31707 4.47564 0
M  V30 375 H 41.8953 -3.76107 2.78677 0
M  V30 376 H 42.0683 -5.05215 4.05785 0
M  V30 377 N 35.4744 -0.807222 -1.35358 0
M  V30 378 C 36.4064 -0.175717 -2.28525 0
M  V30 379 C 37.4194 0.625354 -1.5031 0
M  V30 380 O 38.6084 0.457611 -1.72535 0
M  V30 381 C 35.7084 0.773471 -3.29956 0
M  V30 382 C 34.8814 0.0186296 -4.37396 0
M  V30 383 C 33.9404 0.886395 -5.18681 0
M  V30 384 O 32.9664 0.337106 -5.68201 0
M  V30 385 N 34.1684 2.20839 -5.36852 0
M  V30 386 H 36.9334 -0.976091 -2.83359 0
M  V30 387 H 34.4944 -0.662737 -1.47714 0
M  V30 388 H 36.4864 1.35824 -3.81227 0
M  V30 389 H 35.0564 1.47465 -2.75632 0
M  V30 390 H 34.2764 -0.747349 -3.87051 0
M  V30 391 H 35.5644 -0.501577 -5.06322 0
M  V30 392 H 34.9624 2.67858 -4.98265 0
M  V30 393 H 33.5194 2.74237 -5.91301 0
M  V30 394 N 36.9525 1.47285 -0.560781 0
M  V30 395 C 38.3635 1.86258 -0.128343 0
M  V30 396 C 38.7145 1.46699 1.30284 0
M  V30 397 O 37.8395 0.871698 1.98067 0
M  V30 398 C 38.4345 3.38044 -0.22614 0
M  V30 399 C 36.9935 3.76096 0.151283 0
M  V30 400 C 36.1405 2.71335 -0.572084 0
M  V30 401 H 39.0915 1.38752 -0.770297 0
M  V30 402 H 39.1125 3.76441 0.554322 0
M  V30 403 H 38.6245 3.66806 -1.26788 0
M  V30 404 H 36.7255 3.52951 1.19399 0
M  V30 405 H 36.8385 4.78641 -0.209765 0
M  V30 406 H 35.2025 2.54696 -0.0147653 0
M  V30 407 H 35.9855 3.02938 -1.61504 0
M  V30 408 N 38.4306 0.297415 1.54768 0
M  V30 409 C 39.3406 -0.58983 2.27064 0
M  V30 410 C 40.3566 -1.15144 1.30453 0
M  V30 411 O 41.5326 -1.17699 1.63428 0
M  V30 412 C 38.5976 -1.74714 2.9946 0
M  V30 413 C 37.6586 -1.21997 4.11601 0
M  V30 414 C 36.8916 -2.32212 4.80535 0
M  V30 415 O 37.1146 -3.52036 4.48806 0
M  V30 416 O 36.0486 -1.99106 5.68014 0
M  V30 417 H 39.8746 -0.00348199 3.037 0
M  V30 418 H 37.4596 0.0640035 1.49263 0
M  V30 419 H 39.3416 -2.42147 3.44881 0
M  V30 420 H 38.0166 -2.32016 2.25722 0
M  V30 421 H 36.9236 -0.511458 3.70587 0
M  V30 422 H 38.2566 -0.692419 4.87305 0
M  V30 423 N 39.9087 -1.5758 0.0250728 0
M  V30 424 C 41.1577 -1.90811 -0.653767 0
M  V30 425 C 41.4707 -0.90273 -1.73523 0
M  V30 426 O 42.6767 -1.12614 -2.47043 0
M  V30 427 C 41.1327 -3.38804 -1.21409 0
M  V30 428 C 40.7407 -4.47692 -0.166126 0
M  V30 429 C 42.4847 -3.81108 -1.86967 0
M  V30 430 C 40.3917 -5.86779 -0.737856 0
M  V30 431 H 39.3217 -0.712063 -0.247956 0
M  V30 432 H 41.9727 -1.83281 0.0897137 0
M  V30 433 H 40.3547 -3.41252 -2.00905 0
M  V30 434 H 41.5287 -4.56797 0.606079 0
M  V30 435 H 39.8437 -4.14565 0.390466 0
M  V30 436 H 42.4407 -4.82375 -2.30692 0
M  V30 437 H 42.7837 -3.15953 -2.71071 0
M  V30 438 H 43.3167 -3.81065 -1.14167 0
M  V30 439 H 40.0557 -6.55468 0.0649577 0
M  V30 440 H 39.5757 -5.81288 -1.47864 0
M  V30 441 H 41.2547 -6.35223 -1.22884 0
M  V30 442 N 41.3868 0.248026 -1.55636 0
M  V30 443 C 42.6168 0.992367 -1.81206 0
M  V30 444 C 43.0248 1.7949 -0.598324 0
M  V30 445 O 42.3678 1.78292 0.442434 0
M  V30 446 C 42.4298 1.97926 -3.00109 0
M  V30 447 C 42.0938 1.36377 -4.36177 0
M  V30 448 C 43.0908 0.76682 -5.14214 0
M  V30 449 C 40.7758 1.38347 -4.82872 0
M  V30 450 C 42.7698 0.197778 -6.37093 0
M  V30 451 C 40.4568 0.810574 -6.057 0
M  V30 452 C 41.4548 0.218754 -6.8265 0
M  V30 453 O 41.1428 -0.345298 -8.03158 0
M  V30 454 H 40.8748 0.297704 -0.606917 0
M  V30 455 H 43.4288 0.276517 -2.0353 0
M  V30 456 H 41.6588 2.73339 -2.73538 0
M  V30 457 H 43.3478 2.58694 -3.12781 0
M  V30 458 H 44.1138 0.744114 -4.79258 0
M  V30 459 H 39.9928 1.8335 -4.2297 0
M  V30 460 H 43.5368 -0.264788 -6.97097 0
M  V30 461 H 39.4338 0.830604 -6.40134 0
M  V30 462 H 40.2018 -0.237055 -8.18157 0
M  V30 463 N 42.8649 1.48995 0.513639 0
M  V30 464 C 44.1129 1.57531 1.26604 0
M  V30 465 C 44.4339 0.258236 1.93283 0
M  V30 466 O 43.7039 -0.721502 1.8213 0
M  V30 467 H 42.2839 0.580387 0.470276 0
M  V30 468 H 44.9459 1.85552 0.596373 0
M  V30 469 H 44.0419 2.36486 2.03669 0
M  V30 470 N 44.343 -0.763751 1.37857 0
M  V30 471 C 45.568 -1.55805 1.36893 0
M  V30 472 C 45.993 -1.88054 -0.0416135 0
M  V30 473 O 45.351 -1.49825 -1.02089 0
M  V30 474 C 45.399 -2.84012 2.22192 0
M  V30 475 O 44.503 -3.78732 1.63204 0
M  V30 476 H 43.844 -0.471638 0.46739 0
M  V30 477 H 46.374 -0.944657 1.81487 0
M  V30 478 H 46.384 -3.33037 2.35691 0
M  V30 479 H 45.059 -2.59869 3.24716 0
M  V30 480 H 43.636 -3.37402 1.58791 0
M  V30 481 N 45.8211 -1.22559 -0.990812 0
M  V30 482 C 47.0981 -0.959875 -1.70428 0
M  V30 483 C 47.4781 0.524455 -2.04481 0
M  V30 484 O 46.8261 1.49302 -1.72977 0
M  V30 485 C 47.0361 -1.85955 -2.95333 0
M  V30 486 C 48.3841 -2.11687 -3.68068 0
M  V30 487 O 49.4081 -1.8342 -3.05345 0
M  V30 488 O 48.2671 -2.59572 -4.80921 0
M  V30 489 H 45.3611 -0.361154 -0.743974 0
M  V30 490 H 47.9071 -1.33554 -1.04697 0
M  V30 491 H 46.6791 -2.86346 -2.66687 0
M  V30 492 H 46.3021 -1.4856 -3.68803 0
M  V30 493 N 47.2992 1.18797 -1.03562 0
M  V30 494 C 48.5272 1.92599 -0.755869 0
M  V30 495 C 48.9422 1.75886 0.686271 0
M  V30 496 O 48.2992 1.08517 1.46732 0
M  V30 497 C 48.3502 3.44159 -1.10619 0
M  V30 498 O 48.0712 3.60341 -2.4917 0
M  V30 499 C 49.5722 4.3507 -0.850214 0
M  V30 500 H 46.7922 0.611587 -0.276048 0
M  V30 501 H 49.3362 1.50742 -1.38192 0
M  V30 502 H 47.4912 3.83823 -0.525194 0
M  V30 503 H 47.9052 4.54128 -2.62427 0
M  V30 504 H 49.3792 5.39989 -1.14523 0
M  V30 505 H 49.8562 4.38673 0.215176 0
M  V30 506 H 50.4622 4.01097 -1.41426 0
M  V30 507 N 48.7773 0.814389 1.34928 0
M  V30 508 C 49.7073 0.244827 2.32213 0
M  V30 509 C 50.6883 -0.634024 1.57842 0
M  V30 510 O 51.8733 -0.562676 1.8587 0
M  V30 511 C 49.0033 -0.601106 3.42058 0
M  V30 512 C 47.9573 0.179896 4.27622 0
M  V30 513 C 47.2833 -0.788237 5.28858 0
M  V30 514 C 48.5833 1.38329 5.03649 0
M  V30 515 H 50.2773 1.05763 2.80097 0
M  V30 516 H 47.8233 0.510029 1.34665 0
M  V30 517 H 49.7763 -1.00968 4.09125 0
M  V30 518 H 48.5003 -1.44688 2.92802 0
M  V30 519 H 47.1593 0.569739 3.62146 0
M  V30 520 H 46.8073 -1.62973 4.75866 0
M  V30 521 H 46.5073 -0.269942 5.8698 0
M  V30 522 H 48.0313 -1.19485 5.98795 0
M  V30 523 H 49.4453 1.04918 5.63618 0
M  V30 524 H 47.8423 1.83662 5.71304 0
M  V30 525 H 48.9123 2.16592 4.33839 0
M  V30 526 N 50.2554 -1.46986 0.568584 0
M  V30 527 C 51.2184 -2.28624 -0.162366 0
M  V30 528 C 52.2184 -1.37596 -0.832103 0
M  V30 529 O 53.4084 -1.60115 -0.68622 0
M  V30 530 C 50.5404 -3.17596 -1.23878 0
M  V30 531 H 51.7334 -2.94722 0.554899 0
M  V30 532 H 49.2864 -1.52863 0.325976 0
M  V30 533 H 50.0214 -2.56214 -1.98808 0
M  V30 534 H 49.8064 -3.846 -0.763219 0
M  V30 535 H 51.2964 -3.79078 -1.75185 0
M  V30 536 N 51.7335 -0.305618 -1.54608 0
M  V30 537 C 53.0105 0.355652 -1.92339 0
M  V30 538 C 53.3905 1.71324 -1.23335 0
M  V30 539 O 52.7385 2.25473 -0.370702 0
M  V30 540 C 52.9485 0.46572 -3.45879 0
M  V30 541 C 54.2965 0.734426 -4.182 0
M  V30 542 O 55.3205 0.54935 -3.51938 0
M  V30 543 O 54.1795 1.09024 -5.35515 0
M  V30 544 H 51.2735 0.199666 -0.802535 0
M  V30 545 H 53.8195 -0.354017 -1.65966 0
M  V30 546 H 52.5915 -0.488461 -3.88239 0
M  V30 547 H 52.2145 1.22367 -3.78301 0
M  V30 548 N 53.2116 1.57565 -0.0334293 0
M  V30 549 C 54.4576 1.92262 0.645226 0
M  V30 550 C 54.7906 0.910543 1.71531 0
M  V30 551 O 54.0656 -0.066099 1.94388 0
M  V30 552 C 54.3486 3.37422 1.2577 0
M  V30 553 C 54.2016 4.49369 0.196891 0
M  V30 554 C 55.5206 3.82628 2.17449 0
M  V30 555 H 52.6396 0.699171 0.233085 0
M  V30 556 H 55.2816 1.89779 -0.0915694 0
M  V30 557 H 53.4316 3.39669 1.88566 0
M  V30 558 H 55.1036 4.59254 -0.433962 0
M  V30 559 H 53.3466 4.31168 -0.477137 0
M  V30 560 H 54.0176 5.47978 0.665124 0
M  V30 561 H 56.4936 3.82145 1.64634 0
M  V30 562 H 55.3696 4.84883 2.57254 0
M  V30 563 H 55.6306 3.18376 3.0674 0
M  V30 564 N 54.6897 -0.239769 1.55765 0
M  V30 565 C 55.5997 -1.31831 1.94056 0
M  V30 566 C 56.6157 -1.52275 0.841925 0
M  V30 567 O 57.7917 -1.65759 1.14394 0
M  V30 568 C 54.8567 -2.65156 2.23368 0
M  V30 569 C 53.9177 -2.53173 3.46701 0
M  V30 570 C 53.1507 -3.8014 3.74606 0
M  V30 571 O 53.3737 -4.82343 3.04469 0
M  V30 572 O 52.3077 -3.78344 4.68123 0
M  V30 573 H 56.1337 -1.02347 2.85935 0
M  V30 574 H 53.7187 -0.441123 1.42739 0
M  V30 575 H 55.6007 -3.43929 2.43497 0
M  V30 576 H 54.2757 -2.94358 1.34666 0
M  V30 577 H 53.1827 -1.72662 3.31871 0
M  V30 578 H 54.5157 -2.28915 4.35728 0
M  V30 579 N 56.1678 -1.49265 -0.50573 0
M  V30 580 C 57.1308 -1.65075 -1.59006 0
M  V30 581 C 58.1308 -0.522768 -1.52065 0
M  V30 582 O 59.3208 -0.789117 -1.55302 0
M  V30 583 C 56.4528 -1.64369 -2.98656 0
M  V30 584 H 57.6458 -2.61784 -1.46319 0
M  V30 585 H 55.1988 -1.38226 -0.729616 0
M  V30 586 H 55.9338 -0.692272 -3.16825 0
M  V30 587 H 55.7188 -2.46282 -3.05103 0
M  V30 588 H 57.2088 -1.78674 -3.77446 0
M  V30 589 N 57.6459 0.756429 -1.3826 0
M  V30 590 C 58.5759 1.88374 -1.37976 0
M  V30 591 C 59.5569 1.68311 -0.246082 0
M  V30 592 O 60.7419 1.88944 -0.44874 0
M  V30 593 C 57.8719 3.25864 -1.20125 0
M  V30 594 C 56.8259 3.60523 -2.30666 0
M  V30 595 C 56.1519 4.9672 -1.97923 0
M  V30 596 C 57.4519 3.65692 -3.72916 0
M  V30 597 H 59.1459 1.88869 -2.32312 0
M  V30 598 H 56.6919 0.907272 -1.11824 0
M  V30 599 H 58.6449 4.0438 -1.18552 0
M  V30 600 H 57.3689 3.25841 -0.222498 0
M  V30 601 H 56.0279 2.84324 -2.3142 0
M  V30 602 H 55.6759 4.93253 -0.985393 0
M  V30 603 H 55.3759 5.20878 -2.71955 0
M  V30 604 H 56.8999 5.77618 -1.97964 0
M  V30 605 H 58.3139 4.34328 -3.74208 0
M  V30 606 H 56.7109 4.01358 -4.4613 0
M  V30 607 H 57.7809 2.65987 -4.05436 0
M  V30 608 N 59.124 1.23083 0.984299 0
M  V30 609 C 60.364 1.07226 1.74017 0
M  V30 610 C 60.728 -0.384766 1.88105 0
M  V30 611 O 61.929 -0.664411 2.60459 0
M  V30 612 C 60.2 1.77348 3.10294 0
M  V30 613 S 61.759 1.77014 4.01512 0
M  V30 614 H 58.577 0.383819 0.598502 0
M  V30 615 H 61.179 1.56158 1.17622 0
M  V30 616 H 59.883 2.82506 2.97689 0
M  V30 617 H 59.414 1.28682 3.71759 0
M  V30 618 H 61.429 0.825956 4.89277 0
M  V30 619 N 60.6021 -1.18246 1.0419 0
M  V30 620 C 61.8481 -1.88536 0.747122 0
M  V30 621 C 62.1811 -1.80223 -0.723409 0
M  V30 622 O 61.4561 -1.20337 -1.52804 0
M  V30 623 C 61.7391 -3.38968 1.21544 0
M  V30 624 C 61.5921 -3.56084 2.74816 0
M  V30 625 C 62.9111 -4.32648 0.806482 0
M  V30 626 H 60.0301 -0.684619 0.272883 0
M  V30 627 H 62.6721 -1.39113 1.29413 0
M  V30 628 H 60.8221 -3.8119 0.750081 0
M  V30 629 H 62.4941 -3.22946 3.29399 0
M  V30 630 H 60.7371 -2.98699 3.14582 0
M  V30 631 H 61.4081 -4.61639 3.02644 0
M  V30 632 H 63.8841 -3.98211 1.20695 0
M  V30 633 H 62.7601 -5.36462 1.1619 0
M  V30 634 H 63.0211 -4.41146 -0.29029 0
M  V30 635 N 62.0802 -0.821533 -1.34494 0
M  V30 636 C 63.0272 -0.240397 -2.29545 0
M  V30 637 C 63.9972 0.634031 -1.53523 0
M  V30 638 O 65.1822 0.575966 -1.81899 0
M  V30 639 C 62.3222 0.592869 -3.39969 0
M  V30 640 C 61.4352 -0.30365 -4.30932 0
M  V30 641 C 60.5702 0.539049 -5.28458 0
M  V30 642 C 59.6092 -0.356942 -6.11058 0
M  V30 643 N 58.7462 0.446603 -7.00678 0
M  V30 644 H 63.5862 -1.05632 -2.7865 0
M  V30 645 H 61.1232 -0.532413 -1.37127 0
M  V30 646 H 63.0812 1.09129 -4.02675 0
M  V30 647 H 61.7112 1.37392 -2.92102 0
M  V30 648 H 60.7632 -0.920276 -3.691 0
M  V30 649 H 62.0752 -0.992661 -4.88823 0
M  V30 650 H 61.2292 1.102 -5.96608 0
M  V30 651 H 59.9682 1.26157 -4.71101 0
M  V30 652 H 58.9732 -0.932047 -5.41842 0
M  V30 653 H 60.1982 -1.07755 -6.70497 0
M  V30 654 H 58.1442 1.15282 -6.45791 0
M  V30 655 H 58.0612 -0.184048 -7.55776 0
M  V30 656 H 59.3292 0.992352 -7.73158 0
M  V30 657 N 63.5583 1.46682 -0.576371 0
M  V30 658 C 64.5213 2.28707 0.150239 0
M  V30 659 C 65.5213 1.38035 0.824794 0
M  V30 660 O 66.7113 1.60476 0.677719 0
M  V30 661 C 63.8433 3.18248 1.22192 0
M  V30 662 H 65.0363 2.94423 -0.570521 0
M  V30 663 H 62.5893 1.52688 -0.334078 0
M  V30 664 H 63.3243 2.57265 1.97447 0
M  V30 665 H 63.1093 3.85 0.742812 0
M  V30 666 H 64.5993 3.80001 1.73172 0
M  V30 667 N 65.0364 0.313813 1.54444 0
M  V30 668 C 65.9994 -0.54379 2.22656 0
M  V30 669 C 66.9994 -1.05124 1.21678 0
M  V30 670 O 68.1894 -0.945225 1.46325 0
M  V30 671 C 65.3214 -1.75427 2.92298 0
M  V30 672 H 66.5144 0.0523599 2.99854 0
M  V30 673 H 64.0674 0.0647834 1.56166 0
M  V30 674 H 64.8024 -2.38991 2.19211 0
M  V30 675 H 64.5874 -1.39791 3.66334 0
M  V30 676 H 66.0774 -2.36325 3.44297 0
M  V30 677 N 66.5145 -1.57545 0.0417849 0
M  V30 678 C 67.4775 -2.09885 -0.92093 0
M  V30 679 C 68.4775 -1.01648 -1.24596 0
M  V30 680 O 69.6675 -1.27759 -1.1842 0
M  V30 681 C 66.7995 -2.57527 -2.23367 0
M  V30 682 H 67.9925 -2.96236 -0.467382 0
M  V30 683 H 65.5455 -1.5493 -0.206467 0
M  V30 684 H 66.2805 -1.74542 -2.73323 0
M  V30 685 H 66.0655 -3.36613 -2.01083 0
M  V30 686 H 67.5555 -2.98201 -2.92346 0
M  V30 687 N 67.9926 0.231505 -1.5589 0
M  V30 688 C 68.9556 1.27028 -1.90779 0
M  V30 689 C 69.9556 1.40308 -0.785507 0
M  V30 690 O 71.1456 1.38744 -1.05336 0
M  V30 691 C 68.2776 2.64566 -2.14983 0
M  V30 692 H 69.4706 0.973017 -2.83677 0
M  V30 693 H 67.0236 0.471486 -1.49019 0
M  V30 694 H 67.7586 2.99406 -1.24604 0
M  V30 695 H 67.5436 2.56305 -2.96732 0
M  V30 696 H 69.0336 3.39543 -2.43105 0
M  V30 697 N 69.4707 1.49531 0.497807 0
M  V30 698 C 70.4207 1.62829 1.59596 0
M  V30 699 C 71.4047 0.483824 1.53453 0
M  V30 700 O 72.5967 0.736937 1.60929 0
M  V30 701 C 69.7257 1.7011 2.98191 0
M  V30 702 C 68.8117 2.90144 3.09317 0
M  V30 703 N 69.2027 4.1418 2.90324 0
M  V30 704 C 67.5007 2.88148 3.40422 0
M  V30 705 C 68.2017 4.94886 3.05717 0
M  V30 706 N 67.1777 4.28314 3.34736 0
M  V30 707 H 70.9797 2.56446 1.4357 0
M  V30 708 H 68.4937 1.46347 0.704001 0
M  V30 709 H 70.4907 1.77735 3.77115 0
M  V30 710 H 69.1507 0.776315 3.15283 0
M  V30 711 H 70.1617 4.44109 2.66436 0
M  V30 712 H 66.8387 2.05061 3.63671 0
M  V30 713 H 68.2287 6.03432 2.95499 0
M  V30 714 N 70.9488 -0.749086 1.3866 0
M  V30 715 C 72.1968 -1.50535 1.34847 0
M  V30 716 C 72.5178 -1.94909 -0.0595016 0
M  V30 717 O 71.7878 -1.67973 -1.00806 0
M  V30 718 H 70.3678 -0.558395 0.49619 0
M  V30 719 H 73.0298 -0.890165 1.73384 0
M  V30 720 H 72.1258 -2.39413 2.00219 0
M  V30 721 N 72.4269 -1.23603 -0.977757 0
M  V30 722 C 73.6749 -1.06759 -1.71601 0
M  V30 723 C 73.9959 0.395929 -1.90938 0
M  V30 724 O 73.2659 1.28356 -1.47992 0
M  V30 725 H 71.8459 -0.392062 -0.635843 0
M  V30 726 H 74.5079 -1.55362 -1.1768 0
M  V30 727 H 73.6039 -1.55763 -2.70452 0
M  V30 728 N 73.905 1.17692 -1.04816 0
M  V30 729 C 75.133 1.91786 -0.776254 0
M  V30 730 C 75.548 1.76604 0.667577 0
M  V30 731 O 74.905 1.10067 1.45573 0
M  V30 732 C 74.956 3.42967 -1.14263 0
M  V30 733 O 74.677 3.57678 -2.52978 0
M  V30 734 C 76.178 4.34144 -0.896311 0
M  V30 735 H 73.398 0.608624 -0.282519 0
M  V30 736 H 75.942 1.49268 -1.39783 0
M  V30 737 H 74.097 3.83245 -0.565874 0
M  V30 738 H 74.511 4.51319 -2.67229 0
M  V30 739 H 75.985 5.38744 -1.20244 0
M  V30 740 H 76.462 4.38876 0.168636 0
M  V30 741 H 77.068 3.99574 -1.45672 0
M  V30 742 N 75.3831 0.828654 1.34056 0
M  V30 743 C 76.6291 0.42008 1.98402 0
M  V30 744 C 76.9621 -1.01564 1.65525 0
M  V30 745 O 76.2371 -1.70834 0.929831 0
M  V30 746 C 76.5201 0.62927 3.54559 0
M  V30 747 C 76.3731 2.11152 3.97159 0
M  V30 748 C 77.6921 0.0688756 4.40046 0
M  V30 749 H 74.8111 0.154104 0.720709 0
M  V30 750 H 77.4531 1.04228 1.5886 0
M  V30 751 H 75.6031 0.0996418 3.88372 0
M  V30 752 H 77.2751 2.70522 3.73651 0
M  V30 753 H 75.5181 2.59985 3.47261 0
M  V30 754 H 76.1891 2.20868 5.05887 0
M  V30 755 H 78.6651 0.521458 4.1282 0
M  V30 756 H 77.5411 0.245006 5.48353 0
M  V30 757 H 77.8021 -1.0266 4.30015 0
M  V30 758 N 76.8612 -1.46375 0.584142 0
M  V30 759 C 78.1382 -1.956 0.0033388 0
M  V30 760 C 78.5182 -1.52679 -1.45782 0
M  V30 761 O 77.8662 -0.77816 -2.14842 0
M  V30 762 C 78.0762 -3.48551 0.176891 0
M  V30 763 C 79.4242 -4.24576 0.0454609 0
M  V30 764 O 80.4482 -3.56043 0.105801 0
M  V30 765 O 79.3072 -5.46427 -0.0890376 0
M  V30 766 H 76.4012 -0.825547 -0.0490066 0
M  V30 767 H 78.9472 -1.56652 0.65256 0
M  V30 768 H 77.7192 -3.72683 1.1926 0
M  V30 769 H 77.3422 -3.94332 -0.508695 0
M  V30 770 N 78.3393 -0.321999 -1.54275 0
M  V30 771 C 79.5863 0.281044 -2.0054 0
M  V30 772 C 79.9143 1.52265 -1.21019 0
M  V30 773 O 79.1693 1.93687 -0.279982 0
M  V30 774 C 79.4683 0.661769 -3.5122 0
M  V30 775 C 79.1343 -0.480482 -4.48333 0
M  V30 776 C 77.7963 -0.794005 -4.74604 0
M  V30 777 C 80.1483 -1.24783 -5.06042 0
M  V30 778 C 77.4763 -1.87763 -5.55844 0
M  V30 779 C 79.8283 -2.32153 -5.88462 0
M  V30 780 C 78.4923 -2.64089 -6.13036 0
M  V30 781 H 77.7623 0.102841 -0.733829 0
M  V30 782 H 80.4093 -0.445453 -1.86247 0
M  V30 783 H 78.7143 1.46867 -3.63232 0
M  V30 784 H 80.4113 1.13989 -3.84457 0
M  V30 785 H 77.0013 -0.226039 -4.28004 0
M  V30 786 H 81.1853 -1.01887 -4.85729 0
M  V30 787 H 76.4413 -2.12954 -5.73115 0
M  V30 788 H 80.6153 -2.92057 -6.32199 0
M  V30 789 H 78.2423 -3.48185 -6.75775 0
M  V30 790 N 79.8174 1.5752 -0.0501392 0
M  V30 791 C 81.2334 1.56631 0.306402 0
M  V30 792 C 81.4334 1.0577 1.71508 0
M  V30 793 O 80.4894 0.713837 2.422 0
M  V30 794 C 81.8024 3.00393 0.135811 0
M  V30 795 C 83.3504 3.12315 0.206993 0
M  V30 796 C 83.8254 4.57954 0.064944 0
M  V30 797 N 85.3164 4.63041 0.121254 0
M  V30 798 C 86.0514 5.73389 0.0354381 0
M  V30 799 N 85.5474 6.92724 -0.102666 0
M  V30 800 N 87.3404 5.62026 0.090946 0
M  V30 801 H 79.4914 1.88903 -0.971046 0
M  V30 802 H 81.7544 0.869876 -0.376855 0
M  V30 803 H 81.4604 3.41635 -0.835384 0
M  V30 804 H 81.3344 3.66373 0.897275 0
M  V30 805 H 83.7214 2.70973 1.16866 0
M  V30 806 H 83.8024 2.49016 -0.585208 0
M  V30 807 H 83.4464 4.99981 -0.893394 0
M  V30 808 H 83.3764 5.19258 0.876277 0
M  V30 809 H 85.8674 3.77216 0.227284 0
M  V30 810 H 86.1804 7.72633 -0.160882 0
M  V30 811 H 84.5254 6.94864 -0.137737 0
M  V30 812 H 87.7164 4.67684 0.197388 0
M  V30 813 H 87.8894 6.47997 0.0206089 0
M  V30 814 N 81.2955 -0.223234 1.56011 0
M  V30 815 C 82.2275 -1.30006 1.88762 0
M  V30 816 C 83.2405 -1.43129 0.775746 0
M  V30 817 O 84.4295 -1.44057 1.05403 0
M  V30 818 C 81.5295 -2.67589 2.07965 0
M  V30 819 C 80.7025 -2.76434 3.38973 0
M  V30 820 C 79.7615 -3.95019 3.47629 0
M  V30 821 O 78.7875 -3.83436 4.20672 0
M  V30 822 N 79.9895 -5.09249 2.78649 0
M  V30 823 H 82.7545 -1.02238 2.81722 0
M  V30 824 H 80.3155 -0.413278 1.56536 0
M  V30 825 H 82.3075 -3.45297 2.11073 0
M  V30 826 H 80.8775 -2.87964 1.21638 0
M  V30 827 H 80.0975 -1.85216 3.47978 0
M  V30 828 H 81.3855 -2.79313 4.25278 0
M  V30 829 H 80.7835 -5.21556 2.19081 0
M  V30 830 H 79.3405 -5.85007 2.8742 0
M  V30 831 N 82.7736 -1.49793 -0.48987 0
M  V30 832 C 83.9986 -1.63836 -1.27172 0
M  V30 833 C 84.4236 -0.31402 -1.8546 0
M  V30 834 O 83.7816 0.719803 -1.66399 0
M  V30 835 C 83.8296 -2.71797 -2.36978 0
M  V30 836 O 82.9336 -2.31744 -3.41128 0
M  V30 837 H 82.2746 -0.547997 -0.37496 0
M  V30 838 H 84.8046 -1.96053 -0.585191 0
M  V30 839 H 84.8146 -2.94305 -2.82575 0
M  V30 840 H 83.4896 -3.67923 -1.93921 0
M  V30 841 H 82.0666 -2.1961 -3.01373 0
M  V30 842 N 84.2517 0.741722 -1.39055 0
M  V30 843 C 85.1997 1.87702 -1.3737 0
M  V30 844 C 86.1937 1.67427 -0.257812 0
M  V30 845 O 87.3997 1.7485 -0.427489 0
M  V30 846 H 83.7747 0.617757 -0.428812 0
M  V30 847 H 85.7457 1.86239 -2.33147 0
M  V30 848 C 84.4947 3.25315 -1.22741 0
M  V30 849 H 83.8177 3.41509 -2.07873 0
M  V30 850 H 85.2577 4.04964 -1.25618 0
M  V30 851 C 83.7167 3.36838 0.0647316 0
M  V30 852 O 84.2467 3.88073 1.03741 0
M  V30 853 N 82.4527 2.90329 0.125544 0
M  V30 854 H 81.9997 2.48823 -0.666682 0
M  V30 855 H 81.9577 2.98418 0.989639 0
M  V30 856 N 85.7298 1.2412 0.971189 0
M  V30 857 C 86.6798 0.997551 2.05019 0
M  V30 858 C 87.6638 -0.0597747 1.60789 0
M  V30 859 O 88.8558 0.153516 1.76333 0
M  V30 860 C 85.9848 0.600557 3.38006 0
M  V30 861 C 85.0708 1.69377 3.88809 0
M  V30 862 N 85.4618 2.92586 4.12586 0
M  V30 863 C 83.7598 1.57048 4.17435 0
M  V30 864 C 84.4608 3.63431 4.54195 0
M  V30 865 N 83.4368 2.90979 4.59165 0
M  V30 866 H 87.2388 1.93316 2.21374 0
M  V30 867 H 84.7528 1.14194 1.1547 0
M  V30 868 H 86.7498 0.40725 4.14906 0
M  V30 869 H 85.4098 -0.327903 3.2304 0
M  V30 870 H 86.4208 3.288 4.00139 0
M  V30 871 H 83.0978 0.709798 4.11422 0
M  V30 872 H 84.4878 4.69102 4.81033 0
M  V30 873 N 87.2079 -1.17134 1.05439 0
M  V30 874 C 88.1179 -2.24878 0.668365 0
M  V30 875 C 89.1339 -1.71186 -0.311687 0
M  V30 876 O 90.3099 -2.00738 -0.163161 0
M  V30 877 C 87.3749 -3.46662 0.051648 0
M  V30 878 C 86.4359 -4.15429 1.08246 0
M  V30 879 C 85.6689 -5.31399 0.495082 0
M  V30 880 O 85.8919 -5.66153 -0.694743 0
M  V30 881 O 84.8259 -5.89187 1.23056 0
M  V30 882 H 88.6519 -2.60189 1.56637 0
M  V30 883 H 86.2369 -1.24482 0.826104 0
M  V30 884 H 88.1189 -4.20394 -0.290966 0
M  V30 885 H 86.7939 -3.13142 -0.819971 0
M  V30 886 H 85.7009 -3.43704 1.47711 0
M  V30 887 H 87.0339 -4.52982 1.92532 0
M  V30 888 N 88.686 -0.835752 -1.33615 0
M  V30 889 C 89.934 -0.429109 -1.97492 0
M  V30 890 C 90.255 1.01433 -1.66543 0
M  V30 891 O 89.525 1.70611 -0.962744 0
M  V30 892 H 88.105 -0.155686 -0.730596 0
M  V30 893 H 90.767 -1.06802 -1.63031 0
M  V30 894 H 89.863 -0.55861 -3.0706 0
M  V30 895 N 90.1641 1.46063 -0.591896 0
M  V30 896 C 91.0741 2.34192 0.13831 0
M  V30 897 C 92.0901 1.50305 0.876608 0
M  V30 898 O 93.2661 1.8315 0.837728 0
M  V30 899 C 90.3311 3.27656 1.13326 0
M  V30 900 C 89.3921 4.27445 0.39863 0
M  V30 901 C 88.6251 5.16443 1.34618 0
M  V30 902 O 88.8481 5.08553 2.58321 0
M  V30 903 O 87.7821 5.95843 0.851768 0
M  V30 904 H 91.6081 2.98002 -0.58552 0
M  V30 905 H 89.1931 1.45188 -0.352239 0
M  V30 906 H 91.0751 3.85291 1.70671 0
M  V30 907 H 89.7501 2.6643 1.83839 0
M  V30 908 H 88.6571 3.73471 -0.216895 0
M  V30 909 H 89.9901 4.91482 -0.265709 0
M  V30 910 N 91.6422 0.330177 1.54103 0
M  V30 911 C 92.5722 -0.525353 2.27513 0
M  V30 912 C 93.5532 -1.11383 1.2856 0
M  V30 913 O 94.7382 -1.13773 1.57383 0
M  V30 914 C 91.8682 -1.6831 3.03791 0
M  V30 915 C 90.8222 -1.2236 4.10137 0
M  V30 916 C 90.1482 -2.46882 4.74293 0
M  V30 917 C 91.4482 -0.333697 5.21233 0
M  V30 918 H 93.1422 0.087013 2.99274 0
M  V30 919 H 90.6882 0.0432893 1.43935 0
M  V30 920 H 92.6412 -2.28795 3.5388 0
M  V30 921 H 91.3652 -2.32216 2.29659 0
M  V30 922 H 90.0242 -0.64165 3.60941 0
M  V30 923 H 89.6722 -3.09165 3.96769 0
M  V30 924 H 89.3722 -2.16825 5.46133 0
M  V30 925 H 90.8962 -3.08117 5.27159 0
M  V30 926 H 92.3102 -0.845013 5.67038 0
M  V30 927 H 90.7072 -0.125612 5.99969 0
M  V30 928 H 91.7772 0.633724 4.80741 0
M  V30 929 N 93.1203 -1.57491 0.0584922 0
M  V30 930 C 94.3663 -1.93264 -0.614558 0
M  V30 931 C 94.6993 -0.937717 -1.7006 0
M  V30 932 O 93.9743 0.0351652 -1.94468 0
M  V30 933 C 94.2573 -3.3938 -1.20386 0
M  V30 934 C 94.1103 -4.49625 -0.125375 0
M  V30 935 C 95.4293 -3.86039 -2.11334 0
M  V30 936 H 92.5483 -0.702791 -0.221933 0
M  V30 937 H 95.1903 -1.8961 0.12175 0
M  V30 938 H 93.3403 -3.42626 -1.83139 0
M  V30 939 H 95.0123 -4.58506 0.506971 0
M  V30 940 H 93.2553 -4.30354 0.545672 0
M  V30 941 H 93.9263 -5.48967 -0.577861 0
M  V30 942 H 96.4023 -3.84716 -1.58534 0
M  V30 943 H 95.2783 -4.88914 -2.49507 0
M  V30 944 H 95.5393 -3.23215 -3.01636 0
M  V30 945 N 94.5984 0.214957 -1.56127 0
M  V30 946 C 95.8754 0.963093 -1.70247 0
M  V30 947 C 96.2554 2.02166 -0.60764 0
M  V30 948 O 95.6034 2.25244 0.384385 0
M  V30 949 C 95.8134 1.56756 -3.11815 0
M  V30 950 C 97.1614 2.0573 -3.7143 0
M  V30 951 O 98.1854 1.66637 -3.14818 0
M  V30 952 O 97.0444 2.77603 -4.70743 0
M  V30 953 H 94.1384 0.450321 -0.693643 0
M  V30 954 H 96.6844 0.206219 -1.68442 0
M  V30 955 H 95.4564 0.803533 -3.82961 0
M  V30 956 H 95.0794 2.3898 -3.17765 0
M  V30 957 N 96.0765 1.50051 0.48192 0
M  V30 958 C 97.3225 1.61706 1.2338 0
M  V30 959 C 97.6775 0.308488 1.89911 0
M  V30 960 O 96.9705 -0.692798 1.78636 0
M  V30 961 C 97.1645 2.72717 2.30998 0
M  V30 962 C 96.9935 4.14242 1.75024 0
M  V30 963 C 95.7635 4.80786 1.55476 0
M  V30 964 C 97.9615 4.98846 1.25128 0
M  V30 965 N 95.9435 6.06563 0.946311 0
M  V30 966 C 97.3145 6.15258 0.765382 0
M  V30 967 C 99.3695 4.84702 1.13881 0
M  V30 968 C 98.0725 7.19079 0.178113 0
M  V30 969 C 100.098 5.8869 0.565486 0
M  V30 970 C 99.4605 7.04343 0.0899105 0
M  V30 971 H 95.5595 0.645958 0.440753 0
M  V30 972 H 98.1435 1.8713 0.537624 0
M  V30 973 H 96.3145 2.49033 2.98055 0
M  V30 974 H 98.0465 2.73789 2.9803 0
M  V30 975 H 94.8015 4.37899 1.80392 0
M  V30 976 H 95.2255 6.73767 0.660812 0
M  V30 977 H 99.8675 3.95583 1.49244 0
M  V30 978 H 97.5855 8.07882 -0.187749 0
M  V30 979 H 101.171 5.79808 0.480974 0
M  V30 980 H 100.051 7.83433 -0.346782 0
M  V30 981 N 97.5546 -0.734337 1.39446 0
M  V30 982 C 98.8036 -1.48937 1.36017 0
M  V30 983 C 99.1166 -1.95557 -0.0409005 0
M  V30 984 O 100.323 -2.70779 -0.19778 0
M  V30 985 C 98.7786 -2.69125 2.38955 0
M  V30 986 C 98.3866 -2.29452 3.8478 0
M  V30 987 C 100.131 -3.46944 2.44603 0
M  V30 988 C 98.0376 -3.46366 4.79358 0
M  V30 989 H 96.9676 -0.559296 0.505672 0
M  V30 990 H 99.6186 -0.800983 1.65095 0
M  V30 991 H 98.0006 -3.40041 2.02948 0
M  V30 992 H 99.1746 -1.66077 4.29831 0
M  V30 993 H 97.4896 -1.64723 3.82433 0
M  V30 994 H 100.087 -4.33907 3.12456 0
M  V30 995 H 100.43 -3.89454 1.47076 0
M  V30 996 H 100.963 -2.83056 2.79507 0
M  V30 997 H 97.7016 -3.08905 5.78151 0
M  V30 998 H 97.2216 -4.08719 4.38986 0
M  V30 999 H 98.9006 -4.12691 4.98292 0
M  V30 1000 N 99.0327 -1.24633 -0.964593 0
M  V30 1001 C 99.9827 -1.00841 -2.04487 0
M  V30 1002 C 100.967 0.0512468 -1.60818 0
M  V30 1003 O 102.159 -0.162865 -1.76249 0
M  V30 1004 C 99.2877 -0.618474 -3.37683 0
M  V30 1005 C 98.3737 -1.71437 -3.87905 0
M  V30 1006 N 98.7647 -2.9477 -4.11029 0
M  V30 1007 C 97.0627 -1.5926 -4.16596 0
M  V30 1008 C 97.7637 -3.65834 -4.52261 0
M  V30 1009 N 96.7397 -2.9341 -4.57615 0
M  V30 1010 H 100.542 -1.94487 -2.20345 0
M  V30 1011 H 98.0557 -1.14805 -1.14863 0
M  V30 1012 H 100.053 -0.429247 -4.14684 0
M  V30 1013 H 98.7127 0.310766 -3.23209 0
M  V30 1014 H 99.7237 -3.30917 -3.9839 0
M  V30 1015 H 96.4007 -0.731606 -4.1104 0
M  V30 1016 H 97.7907 -4.71646 -4.78539 0
M  V30 1017 N 100.511 1.16574 -1.06058 0
M  V30 1018 C 101.421 2.2452 -0.680282 0
M  V30 1019 C 102.437 1.71348 0.302604 0
M  V30 1020 O 103.613 2.00822 0.152513 0
M  V30 1021 C 100.678 3.46629 -0.0700315 0
M  V30 1022 C 99.7388 4.14849 -1.10448 0
M  V30 1023 C 98.9718 5.31129 -0.523256 0
M  V30 1024 O 99.1948 5.66514 0.664709 0
M  V30 1025 O 98.1288 5.88526 -1.26179 0
M  V30 1026 H 101.955 2.59355 -1.58015 0
M  V30 1027 H 99.5398 1.24043 -0.832694 0
M  V30 1028 H 101.422 4.20543 0.268667 0
M  V30 1029 H 100.097 3.13573 0.803353 0
M  V30 1030 H 99.0038 3.42916 -1.49532 0
M  V30 1031 H 100.337 4.51954 -1.94931 0
M  V30 1032 N 101.989 0.842826 1.3317 0
M  V30 1033 C 102.952 0.284065 2.27433 0
M  V30 1034 C 103.952 -0.54948 1.5112 0
M  V30 1035 O 105.142 -0.362699 1.70382 0
M  V30 1036 C 102.274 -0.599384 3.35589 0
M  V30 1037 H 103.467 1.11589 2.78366 0
M  V30 1038 H 101.02 0.616221 1.4364 0
M  V30 1039 H 101.755 -1.45349 2.89904 0
M  V30 1040 H 101.54 -0.00291266 3.921 0
M  V30 1041 H 103.03 -0.983488 4.05854 0
M  V30 1042 N 103.467 -1.45747 0.599634 0
M  V30 1043 C 104.883 -1.57424 0.26264 0
M  V30 1044 C 105.083 -1.59222 -1.23493 0
M  V30 1045 O 104.139 -1.51825 -2.01756 0
M  V30 1046 C 105.452 -2.86061 0.926795 0
M  V30 1047 C 107 -2.99722 0.901967 0
M  V30 1048 C 107.475 -4.31119 1.54598 0
M  V30 1049 N 108.966 -4.37858 1.5111 0
M  V30 1050 C 109.701 -5.3818 1.97863 0
M  V30 1051 N 109.197 -6.45083 2.52666 0
M  V30 1052 N 110.99 -5.29487 1.88679 0
M  V30 1053 H 103.141 -1.42823 1.57211 0
M  V30 1054 H 105.404 -0.68235 0.658105 0
M  V30 1055 H 105.11 -2.90605 1.98095 0
M  V30 1056 H 104.984 -3.74563 0.445238 0
M  V30 1057 H 107.371 -2.9475 -0.143617 0
M  V30 1058 H 107.452 -2.12652 1.42171 0
M  V30 1059 H 107.096 -4.36849 2.59085 0
M  V30 1060 H 107.026 -5.16992 1.00132 0
M  V30 1061 H 109.517 -3.61209 1.11068 0
M  V30 1062 H 109.83 -7.17869 2.86155 0
M  V30 1063 H 108.175 -6.45856 2.56701 0
M  V30 1064 H 111.366 -4.44877 1.4561 0
M  V30 1065 H 111.539 -6.07524 2.25429 0
M  V30 1066 N 104.945 -0.338344 -1.53925 0
M  V30 1067 C 105.875 0.51328 -2.27789 0
M  V30 1068 C 106.856 1.107 -1.29149 0
M  V30 1069 O 108.041 1.12937 -1.57984 0
M  V30 1070 C 105.171 1.66697 -3.04679 0
M  V30 1071 C 104.125 1.20183 -4.1078 0
M  V30 1072 C 103.451 2.44363 -4.75595 0
M  V30 1073 C 104.751 0.30605 -5.21403 0
M  V30 1074 H 106.445 -0.102883 -2.99223 0
M  V30 1075 H 103.991 -0.0509219 -1.4391 0
M  V30 1076 H 105.944 2.26915 -3.55088 0
M  V30 1077 H 104.668 2.30995 -2.30887 0
M  V30 1078 H 103.327 0.622499 -3.61276 0
M  V30 1079 H 102.975 3.07057 -3.98403 0
M  V30 1080 H 102.675 2.13925 -5.47275 0
M  V30 1081 H 104.199 3.05317 -5.28786 0
M  V30 1082 H 105.613 0.814929 -5.67478 0
M  V30 1083 H 104.01 0.0937929 -6.00027 0
M  V30 1084 H 105.08 -0.65921 -4.80398 0
M  V30 1085 N 106.423 1.57458 -0.0668435 0
M  V30 1086 C 107.371 2.13639 0.919851 0
M  V30 1087 C 108.365 1.07204 1.31163 0
M  V30 1088 O 109.571 1.25591 1.28945 0
M  V30 1089 H 105.946 0.683048 0.314562 0
M  V30 1090 H 107.917 2.95415 0.421047 0
M  V30 1091 C 106.666 2.70892 2.17975 0
M  V30 1092 H 105.989 3.5246 1.88711 0
M  V30 1093 H 107.429 3.13803 2.85138 0
M  V30 1094 C 105.888 1.65414 2.93496 0
M  V30 1095 O 106.418 1.07619 3.87015 0
M  V30 1096 N 104.624 1.36564 2.56512 0
M  V30 1097 H 104.171 1.83751 1.80536 0
M  V30 1098 H 104.129 0.66223 3.07347 0
M  V30 1099 N 107.901 -0.206675 1.56239 0
M  V30 1100 C 108.851 -1.26 1.90021 0
M  V30 1101 C 109.835 -1.41566 0.764721 0
M  V30 1102 O 111.027 -1.44131 1.02739 0
M  V30 1103 C 108.156 -2.6073 2.23326 0
M  V30 1104 C 107.242 -2.49005 3.43304 0
M  V30 1105 N 107.633 -2.06946 4.61527 0
M  V30 1106 C 105.931 -2.79927 3.47213 0
M  V30 1107 C 106.632 -2.06832 5.43687 0
M  V30 1108 N 105.608 -2.47892 4.83788 0
M  V30 1109 H 109.41 -0.925955 2.78932 0
M  V30 1110 H 106.924 -0.415172 1.57003 0
M  V30 1111 H 108.921 -3.36798 2.45708 0
M  V30 1112 H 107.581 -2.94968 1.35735 0
M  V30 1113 H 108.592 -1.77839 4.86409 0
M  V30 1114 H 105.269 -3.18438 2.70006 0
M  V30 1115 H 106.659 -1.76312 6.48354 0
M  V30 1116 N 109.379 -1.50304 -0.473955 0
M  V30 1117 C 110.619 -1.62786 -1.23612 0
M  V30 1118 C 110.983 -0.319786 -1.89318 0
M  V30 1119 O 112.184 -0.320012 -2.66888 0
M  V30 1120 C 110.455 -2.77351 -2.25414 0
M  V30 1121 S 112.014 -3.09948 -3.10608 0
M  V30 1122 H 108.832 -0.573895 -0.419721 0
M  V30 1123 H 111.434 -1.88076 -0.533623 0
M  V30 1124 H 110.138 -3.70879 -1.75719 0
M  V30 1125 H 109.669 -2.54137 -3.00296 0
M  V30 1126 H 111.684 -2.53553 -4.26527 0
M  V30 1127 N 110.857 0.726932 -1.39834 0
M  V30 1128 C 112.105 1.4837 -1.37225 0
M  V30 1129 C 112.426 1.94979 0.0284857 0
M  V30 1130 O 111.696 1.69555 0.981213 0
M  V30 1131 H 110.276 0.55043 -0.505011 0
M  V30 1132 H 112.938 0.862468 -1.74778 0
M  V30 1133 H 112.034 2.36198 -2.04003 0
M  V30 1134 N 112.336 1.25143 0.95797 0
M  V30 1135 C 113.585 1.0909 1.69654 0
M  V30 1136 C 113.898 -0.368548 1.92097 0
M  V30 1137 O 115.104 -0.649455 2.63618 0
M  V30 1138 C 113.56 1.90395 3.05414 0
M  V30 1139 C 113.168 3.4081 2.90779 0
M  V30 1140 C 114.912 1.82901 3.83076 0
M  V30 1141 C 112.819 4.14423 4.21909 0
M  V30 1142 H 111.749 0.404625 0.636235 0
M  V30 1143 H 114.4 1.4931 1.06672 0
M  V30 1144 H 112.782 1.42996 3.69281 0
M  V30 1145 H 113.956 3.95859 2.35865 0
M  V30 1146 H 112.271 3.49361 2.26575 0
M  V30 1147 H 114.868 2.35196 4.80195 0
M  V30 1148 H 115.211 0.796224 4.08615 0
M  V30 1149 H 115.744 2.28033 3.25954 0
M  V30 1150 H 112.483 5.18102 4.01561 0
M  V30 1151 H 112.003 3.64159 4.76601 0
M  V30 1152 H 113.682 4.21956 4.90471 0
M  V30 1153 N 113.814 -1.1601 1.06675 0
M  V30 1154 C 115.06 -1.86909 0.786945 0
M  V30 1155 C 115.393 -1.81717 -0.685018 0
M  V30 1156 O 114.668 -1.23551 -1.50218 0
M  V30 1157 C 114.951 -3.36313 1.28707 0
M  V30 1158 C 114.804 -3.50175 2.82308 0
M  V30 1159 C 116.123 -4.3084 0.898071 0
M  V30 1160 H 113.242 -0.678677 0.287343 0
M  V30 1161 H 115.884 -1.36336 1.32334 0
M  V30 1162 H 114.034 -3.79513 0.830768 0
M  V30 1163 H 115.706 -3.15886 3.36175 0
M  V30 1164 H 113.949 -2.91959 3.20847 0
M  V30 1165 H 114.62 -4.55116 3.12368 0
M  V30 1166 H 117.096 -3.95561 1.29114 0
M  V30 1167 H 115.972 -5.33876 1.27543 0
M  V30 1168 H 116.233 -4.41662 -0.196651 0
M  V30 1169 N 115.292 -0.849877 -1.32721 0
M  V30 1170 C 116.541 -0.447175 -1.96681 0
M  V30 1171 C 116.854 1.00135 -1.68025 0
M  V30 1172 O 118.06 1.50926 -2.25685 0
M  V30 1173 C 116.516 -0.7487 -3.52026 0
M  V30 1174 C 116.124 -2.21264 -3.89546 0
M  V30 1175 C 117.868 -0.413487 -4.22481 0
M  V30 1176 C 115.775 -2.45763 -5.37917 0
M  V30 1177 H 114.705 -0.163486 -0.736063 0
M  V30 1178 H 117.356 -1.03999 -1.51183 0
M  V30 1179 H 115.738 -0.0853727 -3.95908 0
M  V30 1180 H 116.912 -2.91736 -3.56689 0
M  V30 1181 H 115.227 -2.5119 -3.32103 0
M  V30 1182 H 117.824 -0.574017 -5.3161 0
M  V30 1183 H 118.167 0.644492 -4.11281 0
M  V30 1184 H 118.7 -1.03251 -3.84167 0
M  V30 1185 H 115.439 -3.50168 -5.54132 0
M  V30 1186 H 114.959 -1.79864 -5.72197 0
M  V30 1187 H 116.638 -2.29471 -6.0494 0
M  V30 1188 N 116.77 1.45427 -0.607355 0
M  V30 1189 C 117.718 2.32269 0.12411 0
M  V30 1190 C 118.712 1.45955 0.859854 0
M  V30 1191 O 119.918 1.6244 0.775447 0
M  V30 1192 H 116.293 0.749691 0.0588839 0
M  V30 1193 H 118.264 2.91743 -0.626762 0
M  V30 1194 C 117.013 3.29567 1.1082 0
M  V30 1195 H 116.336 3.95978 0.551492 0
M  V30 1196 H 117.776 3.93061 1.58995 0
M  V30 1197 C 116.235 2.56722 2.18164 0
M  V30 1198 O 116.765 2.34842 3.25902 0
M  V30 1199 N 114.971 2.16861 1.93442 0
M  V30 1200 H 114.518 2.34855 1.05834 0
M  V30 1201 H 114.476 1.68444 2.65469 0
M  V30 1202 N 118.248 0.346503 1.53744 0
M  V30 1203 C 119.659 -0.136779 1.86198 0
M  V30 1204 C 120.01 -1.49749 1.26766 0
M  V30 1205 O 119.135 -2.08417 0.582355 0
M  V30 1206 C 119.73 -0.254966 3.37839 0
M  V30 1207 C 118.289 -0.682482 3.70161 0
M  V30 1208 C 117.436 0.181981 2.76702 0
M  V30 1209 H 120.387 0.565994 1.48264 0
M  V30 1210 H 120.408 -1.08195 3.64793 0
M  V30 1211 H 119.92 0.735526 3.81066 0
M  V30 1212 H 118.021 -1.68189 3.3248 0
M  V30 1213 H 118.134 -0.470326 4.76786 0
M  V30 1214 H 116.498 -0.34615 2.52337 0
M  V30 1215 H 117.281 1.16966 3.2276 0
M  V30 1216 N 119.726 -1.57421 0.075193 0
M  V30 1217 C 120.689 -2.11791 -0.876203 0
M  V30 1218 C 121.689 -1.04268 -1.22412 0
M  V30 1219 O 122.879 -1.30242 -1.15684 0
M  V30 1220 C 120.011 -2.62207 -2.17854 0
M  V30 1221 H 121.204 -2.9716 -0.40444 0
M  V30 1222 H 118.757 -1.55333 -0.173557 0
M  V30 1223 H 119.492 -1.803 -2.6956 0
M  V30 1224 H 119.277 -3.40802 -1.93897 0
M  V30 1225 H 120.767 -3.04335 -2.85955 0
M  V30 1226 N 121.204 0.198386 -1.56346 0
M  V30 1227 C 122.167 1.22952 -1.93431 0
M  V30 1228 C 123.167 1.38611 -0.815092 0
M  V30 1229 O 124.357 1.36479 -1.08255 0
M  V30 1230 C 121.489 2.59946 -2.20546 0
M  V30 1231 H 122.682 0.912626 -2.85677 0
M  V30 1232 H 120.235 0.43977 -1.49986 0
M  V30 1233 H 120.97 2.96696 -1.30927 0
M  V30 1234 H 120.755 2.49953 -3.02102 0
M  V30 1235 H 122.245 3.3431 -2.50253 0
M  V30 1236 N 122.682 1.50554 0.465978 0
M  V30 1237 C 123.912 1.65323 1.23903 0
M  V30 1238 C 124.32 0.338051 1.86155 0
M  V30 1239 O 123.663 -0.690518 1.70228 0
M  V30 1240 C 123.725 2.69048 2.3844 0
M  V30 1241 C 123.389 4.12462 1.96784 0
M  V30 1242 C 124.386 4.98168 1.48745 0
M  V30 1243 C 122.071 4.58407 2.05349 0
M  V30 1244 C 124.065 6.27868 1.0982 0
M  V30 1245 C 121.752 5.88112 1.66035 0
M  V30 1246 C 122.75 6.72668 1.18349 0
M  V30 1247 O 122.438 7.99951 0.795825 0
M  V30 1248 H 122.17 0.558629 0.38067 0
M  V30 1249 H 124.724 1.97561 0.562022 0
M  V30 1250 H 122.954 2.32062 3.09328 0
M  V30 1251 H 124.643 2.72985 3.0039 0
M  V30 1252 H 125.409 4.63885 1.41546 0
M  V30 1253 H 121.288 3.92735 2.41414 0
M  V30 1254 H 124.832 6.93819 0.725293 0
M  V30 1255 H 120.729 6.21914 1.72895 0
M  V30 1256 H 121.497 8.13265 0.924222 0
M  V30 1257 N 124.16 -0.719506 1.40217 0
M  V30 1258 C 125.385 -1.51371 1.4178 0
M  V30 1259 C 125.81 -1.88091 0.0182355 0
M  V30 1260 O 125.168 -1.52997 -0.972707 0
M  V30 1261 C 125.216 -2.768 2.31115 0
M  V30 1262 O 124.32 -3.73349 1.7517 0
M  V30 1263 H 123.661 -0.456529 0.482159 0
M  V30 1264 H 126.191 -0.88644 1.844 0
M  V30 1265 H 126.201 -3.25371 2.46167 0
M  V30 1266 H 124.876 -2.49407 3.3282 0
M  V30 1267 H 123.453 -3.32179 1.69444 0
M  V30 1268 N 125.638 -1.25649 -0.95132 0
M  V30 1269 C 126.588 -1.03004 -2.03406 0
M  V30 1270 C 127.572 0.034187 -1.60864 0
M  V30 1271 O 128.764 -0.181549 -1.76066 0
M  V30 1272 C 125.893 -0.654255 -3.37008 0
M  V30 1273 C 124.979 -1.75542 -3.86065 0
M  V30 1274 N 125.37 -2.99113 -4.07879 0
M  V30 1275 C 123.668 -1.63669 -4.14884 0
M  V30 1276 C 124.369 -3.70611 -4.48356 0
M  V30 1277 N 123.345 -2.98247 -4.54477 0
M  V30 1278 H 127.147 -1.96813 -2.1827 0
M  V30 1279 H 124.661 -1.16017 -1.13639 0
M  V30 1280 H 126.658 -0.473206 -4.14206 0
M  V30 1281 H 125.318 0.276468 -3.23521 0
M  V30 1282 H 126.329 -3.35124 -3.94857 0
M  V30 1283 H 123.006 -0.775161 -4.10241 0
M  V30 1284 H 124.396 -4.76695 -4.73509 0
M  V30 1285 N 127.117 1.15442 -1.07289 0
M  V30 1286 C 128.345 1.90096 -0.81676 0
M  V30 1287 C 128.76 1.7798 0.629966 0
M  V30 1288 O 128.117 1.1313 1.43206 0
M  V30 1289 C 128.168 3.40466 -1.21512 0
M  V30 1290 O 127.889 3.52232 -2.60508 0
M  V30 1291 C 129.39 4.32145 -0.988198 0
M  V30 1292 H 126.61 0.602495 -0.295366 0
M  V30 1293 H 129.154 1.4627 -1.42918 0
M  V30 1294 H 127.309 3.81958 -0.647039 0
M  V30 1295 H 127.723 4.45549 -2.76742 0
M  V30 1296 H 129.197 5.36072 -1.31645 0
M  V30 1297 H 129.674 4.39135 0.0755063 0
M  V30 1298 H 130.28 3.96395 -1.54115 0
M  V30 1299 N 128.595 0.856903 1.32268 0
M  V30 1300 C 129.82 0.474569 2.01897 0
M  V30 1301 C 130.245 -0.921766 1.63967 0
M  V30 1302 O 129.603 -1.60589 0.84148 0
M  V30 1303 C 129.651 0.623799 3.55164 0
M  V30 1304 O 128.755 -0.342459 4.10976 0
M  V30 1305 H 128.096 0.190422 0.63611 0
M  V30 1306 H 130.626 1.15672 1.68764 0
M  V30 1307 H 130.636 0.512169 4.04773 0
M  V30 1308 H 129.311 1.64202 3.82113 0
M  V30 1309 H 127.888 -0.18688 3.72431 0
M  V30 1310 N 130.073 -1.45103 0.615059 0
M  V30 1311 C 131.319 -2.02483 0.113347 0
M  V30 1312 C 131.652 -1.48146 -1.25564 0
M  V30 1313 O 130.927 -0.659104 -1.82992 0
M  V30 1314 C 131.21 -3.60005 0.0825278 0
M  V30 1315 C 131.063 -4.2466 1.48271 0
M  V30 1316 C 132.382 -4.35972 -0.601401 0
M  V30 1317 H 129.501 -0.735764 0.0426632 0
M  V30 1318 H 132.143 -1.72868 0.788461 0
M  V30 1319 H 130.293 -3.85367 -0.492378 0
M  V30 1320 H 131.965 -4.10458 2.10527 0
M  V30 1321 H 130.208 -3.82772 2.04127 0
M  V30 1322 H 130.879 -5.336 1.41332 0
M  V30 1323 H 133.355 -4.15947 -0.112666 0
M  V30 1324 H 132.231 -5.45697 -0.592097 0
M  V30 1325 H 132.492 -4.09391 -1.66887 0
M  V30 1326 N 131.551 -0.354651 -1.53558 0
M  V30 1327 C 132.514 0.484566 -2.24019 0
M  V30 1328 C 133.514 1.01861 -1.24422 0
M  V30 1329 O 134.704 0.906097 -1.4878 0
M  V30 1330 C 131.836 1.67615 -2.96847 0
M  V30 1331 H 133.029 -0.131843 -2.9961 0
M  V30 1332 H 130.582 -0.106165 -1.55939 0
M  V30 1333 H 131.317 2.33095 -2.25471 0
M  V30 1334 H 131.102 1.30029 -3.69912 0
M  V30 1335 H 132.592 2.27114 -3.50441 0
M  V30 1336 N 133.029 1.57378 -0.0835403 0
M  V30 1337 C 134.278 1.93106 0.582498 0
M  V30 1338 C 134.591 0.96651 1.70053 0
M  V30 1339 O 135.797 1.21705 2.42693 0
M  V30 1340 C 134.253 3.43076 1.08751 0
M  V30 1341 C 133.861 4.48 -0.000146404 0
M  V30 1342 C 135.605 3.87785 1.72694 0
M  V30 1343 C 133.512 5.89113 0.519568 0
M  V30 1344 H 132.442 0.720775 0.221358 0
M  V30 1345 H 135.093 1.82821 -0.157675 0
M  V30 1346 H 133.475 3.48474 1.88101 0
M  V30 1347 H 134.649 4.54233 -0.775199 0
M  V30 1348 H 132.964 4.1283 -0.54406 0
M  V30 1349 H 135.561 4.90604 2.1263 0
M  V30 1350 H 135.904 3.25796 2.59158 0
M  V30 1351 H 136.437 3.8504 0.999457 0
M  V30 1352 H 133.176 6.54775 -0.308186 0
M  V30 1353 H 132.696 5.86376 1.26188 0
M  V30 1354 H 134.375 6.39346 0.992237 0
M  V30 1355 N 134.507 -0.190092 1.56449 0
M  V30 1356 C 135.437 -1.23816 1.97969 0
M  V30 1357 C 136.418 -1.47201 0.852395 0
M  V30 1358 O 137.603 -1.58854 1.1171 0
M  V30 1359 C 134.733 -2.5813 2.3235 0
M  V30 1360 C 133.687 -2.49348 3.47864 0
M  V30 1361 C 133.013 -3.8798 3.67934 0
M  V30 1362 C 134.313 -2.01424 4.81898 0
M  V30 1363 H 136.007 -0.89311 2.85769 0
M  V30 1364 H 133.553 -0.428177 1.37487 0
M  V30 1365 H 135.506 -3.31637 2.59991 0
M  V30 1366 H 134.23 -2.94386 1.41438 0
M  V30 1367 H 132.889 -1.78297 3.20321 0
M  V30 1368 H 132.537 -4.21597 2.74344 0
M  V30 1369 H 132.237 -3.82978 4.45648 0
M  V30 1370 H 133.761 -4.63101 3.97957 0
M  V30 1371 H 135.175 -2.64693 5.08538 0
M  V30 1372 H 133.572 -2.07413 5.63116 0
M  V30 1373 H 134.642 -0.967677 4.75146 0
M  V30 1374 N 135.985 -1.50799 -0.457987 0
M  V30 1375 C 137.262 -1.52968 -1.21902 0
M  V30 1376 C 137.642 -0.281906 -2.09209 0
M  V30 1377 O 136.99 0.734076 -2.16388 0
M  V30 1378 C 137.2 -2.8326 -2.03875 0
M  V30 1379 C 138.548 -3.34425 -2.6162 0
M  V30 1380 O 139.572 -2.8467 -2.14106 0
M  V30 1381 O 138.431 -4.21188 -3.48228 0
M  V30 1382 H 135.525 -0.614129 -0.553873 0
M  V30 1383 H 138.071 -1.63098 -0.468739 0
M  V30 1384 H 136.843 -3.65543 -1.39621 0
M  V30 1385 H 136.466 -2.76195 -2.8601 0
M  V30 1386 N 137.463 0.71206 -1.40597 0
M  V30 1387 C 138.426 1.80785 -1.40888 0
M  V30 1388 C 139.426 1.57937 -0.302103 0
M  V30 1389 O 140.616 1.64913 -0.561182 0
M  V30 1390 C 137.748 3.18927 -1.20409 0
M  V30 1391 H 138.941 1.81924 -2.38419 0
M  V30 1392 H 136.494 0.91805 -1.26497 0
M  V30 1393 H 137.229 3.23436 -0.236522 0
M  V30 1394 H 137.014 3.36911 -2.00582 0
M  V30 1395 H 138.504 3.98949 -1.23408 0
M  V30 1396 N 138.941 1.26152 0.944643 0
M  V30 1397 C 139.871 1.09902 2.06019 0
M  V30 1398 C 140.852 0.00519538 1.70099 0
M  V30 1399 O 142.037 0.176583 1.93396 0
M  V30 1400 C 139.167 0.727562 3.39594 0
M  V30 1401 C 138.121 1.77274 3.89561 0
M  V30 1402 C 137.447 1.25569 5.19747 0
M  V30 1403 C 138.747 3.17357 4.14827 0
M  V30 1404 H 140.441 2.03217 2.19871 0
M  V30 1405 H 137.987 0.978452 1.05652 0
M  V30 1406 H 139.94 0.600777 4.17095 0
M  V30 1407 H 138.664 -0.241287 3.25707 0
M  V30 1408 H 137.323 1.88814 3.14237 0
M  V30 1409 H 136.971 0.276783 5.02238 0
M  V30 1410 H 136.671 1.95433 5.54148 0
M  V30 1411 H 138.195 1.1415 5.99835 0
M  V30 1412 H 139.609 3.08914 4.82954 0
M  V30 1413 H 138.006 3.84781 4.60504 0
M  V30 1414 H 139.076 3.63673 3.20734 0
M  V30 1415 N 140.419 -1.14872 1.07899 0
M  V30 1416 C 141.367 -2.21857 0.698727 0
M  V30 1417 C 142.361 -1.66845 -0.293086 0
M  V30 1418 O 143.567 -1.79321 -0.156204 0
M  V30 1419 H 139.942 -0.722691 0.207899 0
M  V30 1420 H 141.913 -2.51205 1.61054 0
M  V30 1421 C 140.662 -3.47498 0.11858 0
M  V30 1422 H 139.985 -3.90154 0.872914 0
M  V30 1423 H 141.425 -4.23858 -0.109759 0
M  V30 1424 C 139.884 -3.16947 -1.1422 0
M  V30 1425 O 140.414 -3.3426 -2.22785 0
M  V30 1426 N 138.62 -2.70946 -1.05055 0
M  V30 1427 H 138.167 -2.57058 -0.167038 0
M  V30 1428 H 138.125 -2.50879 -1.89491 0
M  V30 1429 N 141.898 -0.863906 -1.31812 0
M  V30 1430 C 143.126 -0.486111 -2.01108 0
M  V30 1431 C 143.541 0.919755 -1.64882 0
M  V30 1432 O 142.898 1.60162 -0.874893 0
M  V30 1433 C 142.949 -0.626435 -3.56031 0
M  V30 1434 O 142.67 -1.97693 -3.90959 0
M  V30 1435 C 144.171 -0.248857 -4.42601 0
M  V30 1436 H 141.391 -0.190052 -0.643523 0
M  V30 1437 H 143.935 -1.1634 -1.68182 0
M  V30 1438 H 142.09 0.00322717 -3.874 0
M  V30 1439 H 142.504 -1.98034 -4.85678 0
M  V30 1440 H 143.978 -0.398016 -5.50563 0
M  V30 1441 H 144.455 0.811489 -4.31638 0
M  V30 1442 H 145.061 -0.853971 -4.16638 0
M  V30 1443 N 143.376 1.44774 -0.622745 0
M  V30 1444 C 144.616 2.04004 -0.127102 0
M  V30 1445 C 144.98 1.47862 1.22478 0
M  V30 1446 O 146.181 1.98541 1.81204 0
M  V30 1447 C 144.452 3.57247 -0.104429 0
M  V30 1448 S 146.011 4.37574 0.327814 0
M  V30 1449 H 142.829 0.708713 -0.0569776 0
M  V30 1450 H 145.431 1.77275 -0.824253 0
M  V30 1451 H 144.135 3.95616 -1.09159 0
M  V30 1452 H 143.666 3.88575 0.614236 0
M  V30 1453 H 145.681 4.70575 1.57395 0
M  V30 1454 N 144.854 0.36279 1.53368 0
M  V30 1455 C 146.131 -0.284021 1.93527 0
M  V30 1456 C 146.511 -1.66628 1.29608 0
M  V30 1457 O 145.859 -2.23942 0.45413 0
M  V30 1458 C 146.069 -0.337028 3.47369 0
M  V30 1459 C 147.417 -0.578708 4.20638 0
M  V30 1460 O 148.441 -0.418352 3.53735 0
M  V30 1461 O 147.3 -0.89074 5.39192 0
M  V30 1462 H 144.394 -0.169743 0.809393 0
M  V30 1463 H 146.94 0.41537 1.64538 0
M  V30 1464 H 145.712 0.632217 3.86159 0
M  V30 1465 H 145.335 -1.08243 3.82582 0
M  V30 1466 N 146.332 -1.57332 0.0918853 0
M  V30 1467 C 147.58 -1.93853 -0.571446 0
M  V30 1468 C 147.901 -0.974212 -1.6892 0
M  V30 1469 O 147.171 -0.0257254 -1.95883 0
M  V30 1470 H 145.751 -0.715666 -0.214082 0
M  V30 1471 H 148.413 -1.94287 0.154464 0
M  V30 1472 H 147.509 -2.96191 -0.983729 0
M  V30 1473 N 147.81 0.181792 -1.56548 0
M  V30 1474 C 148.74 1.22765 -1.98623 0
M  V30 1475 C 149.721 1.46747 -0.860189 0
M  V30 1476 O 150.906 1.58259 -1.12551 0
M  V30 1477 C 148.036 2.56894 -2.33715 0
M  V30 1478 C 146.99 2.475 -3.49182 0
M  V30 1479 C 146.316 3.86023 -3.69986 0
M  V30 1480 C 147.616 1.98866 -4.82959 0
M  V30 1481 H 149.31 0.877942 -2.86239 0
M  V30 1482 H 146.856 0.42088 -1.37712 0
M  V30 1483 H 148.809 3.30253 -2.61746 0
M  V30 1484 H 147.533 2.93632 -1.42997 0
M  V30 1485 H 146.192 1.76596 -3.21262 0
M  V30 1486 H 145.84 4.20136 -2.76576 0
M  V30 1487 H 145.54 3.80609 -4.47672 0
M  V30 1488 H 147.064 4.60984 -4.00407 0
M  V30 1489 H 148.478 2.61992 -5.09934 0
M  V30 1490 H 146.875 2.04424 -5.64208 0
M  V30 1491 H 147.945 0.942465 -4.75653 0
M  V30 1492 N 149.288 1.51039 0.449983 0
M  V30 1493 C 150.699 1.557 1.03026 0
M  V30 1494 C 151.05 0.372939 1.92623 0
M  V30 1495 O 150.175 -0.511771 2.10261 0
M  V30 1496 C 150.77 2.82171 1.87523 0
M  V30 1497 C 149.329 2.89444 2.40622 0
M  V30 1498 C 148.476 2.50228 1.19504 0
M  V30 1499 H 151.427 1.56999 0.231745 0
M  V30 1500 H 151.448 2.65219 2.72835 0
M  V30 1501 H 150.96 3.68331 1.22286 0
M  V30 1502 H 149.061 2.07685 3.0935 0
M  V30 1503 H 149.174 3.92816 2.74285 0
M  V30 1504 H 147.538 2.03139 1.53644 0
M  V30 1505 H 148.321 3.38719 0.558972 0
M  V30 1506 N 150.766 -0.704594 1.40972 0
M  V30 1507 C 152.012 -1.46675 1.40051 0
M  V30 1508 C 152.345 -1.94199 0.00641102 0
M  V30 1509 O 151.62 -1.68916 -0.964235 0
M  V30 1510 C 151.903 -2.68505 2.39952 0
M  V30 1511 C 151.756 -2.26805 3.88432 0
M  V30 1512 C 153.075 -3.70686 2.37233 0
M  V30 1513 H 150.194 -0.532015 0.510028 0
M  V30 1514 H 152.836 -0.803255 1.72185 0
M  V30 1515 H 150.986 -3.25114 2.1268 0
M  V30 1516 H 152.658 -1.75592 4.26574 0
M  V30 1517 H 150.901 -1.58685 4.03734 0
M  V30 1518 H 151.572 -3.14181 4.53866 0
M  V30 1519 H 154.048 -3.23731 2.61415 0
M  V30 1520 H 152.924 -4.53553 3.09162 0
M  V30 1521 H 153.185 -4.19754 1.38777 0
M  V30 1522 N 152.244 -1.26651 -0.937939 0
M  V30 1523 C 153.49 -1.12553 -1.687 0
M  V30 1524 C 153.823 0.329782 -1.91379 0
M  V30 1525 O 153.098 1.24202 -1.4968 0
M  V30 1526 C 153.381 -1.89862 -3.05981 0
M  V30 1527 C 153.234 -3.43318 -2.90607 0
M  V30 1528 C 154.553 -1.69499 -4.0615 0
M  V30 1529 H 151.672 -0.410257 -0.612257 0
M  V30 1530 H 154.314 -1.55685 -1.08913 0
M  V30 1531 H 152.464 -1.53204 -3.57017 0
M  V30 1532 H 154.136 -3.89747 -2.46769 0
M  V30 1533 H 152.379 -3.70179 -2.26164 0
M  V30 1534 H 153.05 -3.92642 -3.8799 0
M  V30 1535 H 155.526 -2.01442 -3.64088 0
M  V30 1536 H 154.402 -2.26002 -5.00214 0
M  V30 1537 H 154.663 -0.640365 -4.37438 0
M  V30 1538 N 153.722 1.14298 -1.08507 0
M  V30 1539 C 154.632 2.23027 -0.727753 0
M  V30 1540 C 155.648 1.71952 0.26619 0
M  V30 1541 O 156.824 2.011 0.109882 0
M  V30 1542 C 153.889 3.46403 -0.143541 0
M  V30 1543 C 152.95 4.12413 -1.19223 0
M  V30 1544 C 152.183 5.29899 -0.635798 0
M  V30 1545 O 152.406 5.67796 0.544393 0
M  V30 1546 O 151.34 5.85717 -1.38634 0
M  V30 1547 H 155.166 2.55945 -1.63481 0
M  V30 1548 H 152.751 1.22248 -0.858817 0
M  V30 1549 H 154.633 4.21018 0.179404 0
M  V30 1550 H 153.308 3.15206 0.736659 0
M  V30 1551 H 152.215 3.39667 -1.56772 0
M  V30 1552 H 153.548 4.47718 -2.04474 0
M  V30 1553 N 155.201 0.870884 1.31352 0
M  V30 1554 C 156.447 0.482987 1.96965 0
M  V30 1555 C 156.78 -0.962462 1.68672 0
M  V30 1556 O 156.055 -1.6779 0.98371 0
M  V30 1557 C 156.338 0.741752 3.52378 0
M  V30 1558 C 156.191 2.2368 3.9024 0
M  V30 1559 C 157.51 0.208838 4.39604 0
M  V30 1560 H 154.629 0.176955 0.715441 0
M  V30 1561 H 157.271 1.09229 1.55464 0
M  V30 1562 H 155.421 0.223149 3.87859 0
M  V30 1563 H 157.093 2.82273 3.64856 0
M  V30 1564 H 155.336 2.70901 3.38814 0
M  V30 1565 H 156.007 2.3685 4.98604 0
M  V30 1566 H 158.483 0.652529 4.10952 0
M  V30 1567 H 157.359 0.419336 5.47296 0
M  V30 1568 H 157.62 -0.889275 4.33064 0
M  V30 1569 N 156.679 -1.44442 0.630414 0
M  V30 1570 C 157.629 -2.27794 -0.0968103 0
M  V30 1571 C 158.613 -1.38624 -0.816834 0
M  V30 1572 O 159.805 -1.62438 -0.70306 0
M  V30 1573 C 156.934 -3.25929 -1.07819 0
M  V30 1574 C 156.02 -4.22588 -0.357826 0
M  V30 1575 N 156.411 -5.0207 0.613169 0
M  V30 1576 C 154.709 -4.41914 -0.602365 0
M  V30 1577 C 155.41 -5.72351 1.03871 0
M  V30 1578 N 154.386 -5.42287 0.377642 0
M  V30 1579 H 158.188 -2.86653 0.648621 0
M  V30 1580 H 155.702 -1.55871 0.455862 0
M  V30 1581 H 157.699 -3.84399 -1.61378 0
M  V30 1582 H 156.359 -2.68631 -1.82393 0
M  V30 1583 H 157.37 -5.08331 0.990947 0
M  V30 1584 H 154.047 -3.95714 -1.33103 0
M  V30 1585 H 155.437 -6.4619 1.84086 0
M  V30 1586 N 158.157 -0.370918 -1.53173 0
M  V30 1587 C 159.406 0.218249 -2.00516 0
M  V30 1588 C 159.719 1.49429 -1.26215 0
M  V30 1589 O 160.925 2.16239 -1.64174 0
M  V30 1590 C 159.381 0.43948 -3.57207 0
M  V30 1591 C 158.989 -0.822244 -4.4039 0
M  V30 1592 C 160.733 0.986012 -4.1289 0
M  V30 1593 C 158.64 -0.570304 -5.88644 0
M  V30 1594 H 157.57 0.0853333 -0.749156 0
M  V30 1595 H 160.221 -0.490483 -1.76823 0
M  V30 1596 H 158.603 1.20961 -3.77074 0
M  V30 1597 H 159.777 -1.59557 -4.32294 0
M  V30 1598 H 158.092 -1.29238 -3.95836 0
M  V30 1599 H 160.689 1.18991 -5.21292 0
M  V30 1600 H 161.032 1.94972 -3.6782 0
M  V30 1601 H 161.565 0.27592 -3.96842 0
M  V30 1602 H 158.304 -1.50449 -6.38001 0
M  V30 1603 H 157.824 0.164427 -5.99575 0
M  V30 1604 H 159.503 -0.19784 -6.46697 0
M  V30 1605 N 159.635 1.57281 -0.100228 0
M  V30 1606 C 160.86 1.99302 0.573881 0
M  V30 1607 C 161.285 0.979059 1.60611 0
M  V30 1608 O 160.643 -0.0517803 1.81226 0
M  V30 1609 C 160.691 3.40274 1.19358 0
M  V30 1610 O 159.795 3.41676 2.30935 0
M  V30 1611 H 159.136 0.647944 0.145138 0
M  V30 1612 H 161.666 2.03779 -0.183156 0
M  V30 1613 H 161.676 3.78078 1.53365 0
M  V30 1614 H 160.351 4.13594 0.437385 0
M  V30 1615 H 158.928 3.15672 1.98509 0
M  V30 1616 N 161.113 -0.173488 1.56642 0
M  V30 1617 C 162.061 -1.23417 1.97157 0
M  V30 1618 C 163.055 -1.45946 0.860013 0
M  V30 1619 O 164.261 -1.46551 1.04512 0
M  V30 1620 H 160.636 -0.414818 0.62724 0
M  V30 1621 H 162.607 -0.865582 2.8557 0
M  V30 1622 C 161.356 -2.5665 2.34576 0
M  V30 1623 H 160.679 -2.40137 3.19647 0
M  V30 1624 H 162.119 -3.2956 2.6677 0
M  V30 1625 C 160.578 -3.15245 1.18836 0
M  V30 1626 O 161.108 -3.98883 0.474869 0
M  V30 1627 N 159.314 -2.74303 0.959497 0
M  V30 1628 H 158.861 -2.0639 1.54146 0
M  V30 1629 H 158.819 -3.13844 0.186932 0
M  V30 1630 N 162.591 -1.51276 -0.441967 0
M  V30 1631 C 163.84 -1.6295 -1.18871 0
M  V30 1632 C 164.153 -0.349312 -1.92456 0
M  V30 1633 O 165.359 -0.345355 -2.69295 0
M  V30 1634 C 163.815 -2.87759 -2.16155 0
M  V30 1635 C 163.423 -4.22764 -1.48239 0
M  V30 1636 C 165.167 -3.08788 -2.91291 0
M  V30 1637 C 163.074 -5.38728 -2.4398 0
M  V30 1638 H 162.004 -0.606913 -0.447406 0
M  V30 1639 H 164.655 -1.77739 -0.456205 0
M  V30 1640 H 163.037 -2.66593 -2.92821 0
M  V30 1641 H 164.211 -4.54293 -0.771635 0
M  V30 1642 H 162.526 -4.07575 -0.852741 0
M  V30 1643 H 165.123 -3.92599 -3.63002 0
M  V30 1644 H 165.466 -2.21679 -3.5237 0
M  V30 1645 H 165.999 -3.30272 -2.21733 0
M  V30 1646 H 162.738 -6.28082 -1.87598 0
M  V30 1647 H 162.258 -5.1158 -3.13123 0
M  V30 1648 H 163.937 -5.70489 -3.05207 0
M  V30 1649 N 164.069 0.697108 -1.41344 0
M  V30 1650 C 165.019 1.80313 -1.39539 0
M  V30 1651 C 166.003 1.58618 -0.270001 0
M  V30 1652 O 167.195 1.69477 -0.510551 0
M  V30 1653 C 164.324 3.18606 -1.27848 0
M  V30 1654 C 163.41 3.46001 -2.45244 0
M  V30 1655 N 163.801 3.44103 -3.70711 0
M  V30 1656 C 162.099 3.76542 -2.39023 0
M  V30 1657 C 162.8 3.7036 -4.48563 0
M  V30 1658 N 161.776 3.90027 -3.78655 0
M  V30 1659 H 165.578 1.77207 -2.34468 0
M  V30 1660 H 163.092 0.897031 -1.35378 0
M  V30 1661 H 165.089 3.97833 -1.24637 0
M  V30 1662 H 163.749 3.22925 -0.339032 0
M  V30 1663 H 164.76 3.2452 -4.03618 0
M  V30 1664 H 161.437 3.88241 -1.53542 0
M  V30 1665 H 162.827 3.75042 -5.57488 0
M  V30 1666 N 165.547 1.27147 0.931209 0
M  V30 1667 C 166.479 1.05364 2.03546 0
M  V30 1668 C 167.492 0.0108438 1.62796 0
M  V30 1669 O 168.681 0.25202 1.76712 0
M  V30 1670 C 165.781 0.575566 3.33977 0
M  V30 1671 C 164.954 1.68985 4.03439 0
M  V30 1672 C 164.013 1.20813 5.12143 0
M  V30 1673 O 163.039 1.90712 5.363 0
M  V30 1674 N 164.241 0.0618851 5.80467 0
M  V30 1675 H 167.006 2.00454 2.22796 0
M  V30 1676 H 164.567 1.18666 1.10136 0
M  V30 1677 H 166.559 0.237264 4.04004 0
M  V30 1678 H 165.129 -0.282016 3.11325 0
M  V30 1679 H 164.349 2.19861 3.27192 0
M  V30 1680 H 165.637 2.4378 4.46597 0
M  V30 1681 H 165.035 -0.521621 5.6329 0
M  V30 1682 H 163.592 -0.217264 6.51438 0
M  V30 1683 N 167.025 -1.13721 1.09112 0
M  V30 1684 C 168.441 -1.36914 0.820174 0
M  V30 1685 C 168.641 -1.93356 -0.567079 0
M  V30 1686 O 167.697 -2.15093 -1.32255 0
M  V30 1687 C 169.01 -2.3235 1.90877 0
M  V30 1688 C 170.558 -2.45973 1.93562 0
M  V30 1689 C 171.033 -3.44714 3.01556 0
M  V30 1690 N 172.524 -3.52263 3.00775 0
M  V30 1691 C 173.259 -4.28536 3.80978 0
M  V30 1692 N 172.755 -5.07991 4.71081 0
M  V30 1693 N 174.548 -4.23804 3.69251 0
M  V30 1694 H 166.699 -0.754348 1.98553 0
M  V30 1695 H 168.962 -0.3944 0.862063 0
M  V30 1696 H 168.668 -1.98027 2.90651 0
M  V30 1697 H 168.542 -3.32332 1.78424 0
M  V30 1698 H 170.929 -2.79584 0.944286 0
M  V30 1699 H 171.01 -1.45926 2.10093 0
M  V30 1700 H 170.654 -3.11835 4.00901 0
M  V30 1701 H 170.584 -4.44558 2.82269 0
M  V30 1702 H 173.075 -2.95567 2.35475 0
M  V30 1703 H 173.388 -5.63487 5.28869 0
M  V30 1704 H 171.733 -5.07235 4.75119 0
M  V30 1705 H 174.924 -3.60806 2.98222 0
M  V30 1706 H 175.097 -4.82995 4.31995 0
M  V30 1707 N 168.503 -0.877838 -1.30888 0
M  V30 1708 C 169.413 -0.343096 -2.32078 0
M  V30 1709 C 170.429 0.551022 -1.65045 0
M  V30 1710 O 171.605 0.445854 -1.96403 0
M  V30 1711 C 168.67 0.439905 -3.43898 0
M  V30 1712 C 167.731 -0.483111 -4.26573 0
M  V30 1713 C 166.964 0.262616 -5.33053 0
M  V30 1714 O 167.187 1.48967 -5.50604 0
M  V30 1715 O 166.121 -0.383593 -6.00676 0
M  V30 1716 H 169.947 -1.18203 -2.79753 0
M  V30 1717 H 167.532 -0.64145 -1.34929 0
M  V30 1718 H 169.414 0.883504 -4.12034 0
M  V30 1719 H 168.089 1.25526 -2.98371 0
M  V30 1720 H 166.996 -0.975374 -3.61161 0
M  V30 1721 H 168.329 -1.26427 -4.75686 0
M  V30 1722 N 169.982 1.44106 -0.638065 0
M  V30 1723 C 171.393 1.85316 -0.226894 0
M  V30 1724 C 171.744 1.53399 1.22324 0
M  V30 1725 O 170.869 0.975463 1.93167 0
M  V30 1726 C 171.464 3.3637 -0.405013 0
M  V30 1727 C 170.023 3.76369 -0.0482902 0
M  V30 1728 C 169.17 2.67921 -0.715108 0
M  V30 1729 H 172.121 1.34474 -0.842764 0
M  V30 1730 H 172.142 3.7885 0.354 0
M  V30 1731 H 171.654 3.59569 -1.46053 0
M  V30 1732 H 169.755 3.58784 1.00522 0
M  V30 1733 H 169.868 4.76856 -0.463187 0
M  V30 1734 H 168.232 2.54259 -0.149753 0
M  V30 1735 H 169.015 2.93951 -1.77335 0
M  V30 1736 N 171.46 0.379036 1.52974 0
M  V30 1737 C 172.707 -0.206421 2.01445 0
M  V30 1738 C 173.035 -1.47668 1.26587 0
M  V30 1739 O 172.29 -1.92514 0.351675 0
M  V30 1740 C 172.589 -0.53096 3.53434 0
M  V30 1741 C 172.255 0.646546 4.46241 0
M  V30 1742 C 170.917 0.969604 4.7133 0
M  V30 1743 C 173.269 1.43479 5.01062 0
M  V30 1744 C 170.597 2.08263 5.48492 0
M  V30 1745 C 172.949 2.53834 5.7944 0
M  V30 1746 C 171.613 2.86659 6.02812 0
M  V30 1747 H 170.883 -0.0755349 0.73714 0
M  V30 1748 H 173.53 0.514271 1.84465 0
M  V30 1749 H 171.835 -1.33285 3.68432 0
M  V30 1750 H 173.532 -0.996417 3.88423 0
M  V30 1751 H 170.122 0.384734 4.2687 0
M  V30 1752 H 174.306 1.19844 4.81613 0
M  V30 1753 H 169.562 2.34078 5.64816 0
M  V30 1754 H 173.736 3.15319 6.20924 0
M  V30 1755 H 171.363 3.73026 6.62387 0
M  V30 1756 N 172.938 -1.57226 0.108567 0
M  V30 1757 C 174.354 -1.5766 -0.248058 0
M  V30 1758 C 174.554 -1.12063 -1.67464 0
M  V30 1759 O 173.61 -0.803236 -2.39383 0
M  V30 1760 C 174.923 -3.0069 -0.0242287 0
M  V30 1761 C 176.471 -3.12868 -0.0909372 0
M  V30 1762 C 176.946 -4.57879 0.105067 0
M  V30 1763 N 178.437 -4.63172 0.0506846 0
M  V30 1764 C 179.172 -5.73126 0.177396 0
M  V30 1765 N 178.668 -6.91866 0.359696 0
M  V30 1766 N 180.461 -5.61977 0.117709 0
M  V30 1767 H 172.612 -1.85169 1.04049 0
M  V30 1768 H 174.875 -0.85529 0.40888 0
M  V30 1769 H 174.581 -3.38299 0.961604 0
M  V30 1770 H 174.455 -3.6945 -0.76068 0
M  V30 1771 H 176.842 -2.75124 -1.06729 0
M  V30 1772 H 176.923 -2.46672 0.677225 0
M  V30 1773 H 176.567 -4.96321 1.07834 0
M  V30 1774 H 176.497 -5.22153 -0.682954 0
M  V30 1775 H 178.988 -3.778 -0.0871266 0
M  V30 1776 H 179.301 -7.71503 0.447529 0
M  V30 1777 H 177.646 -6.93874 0.395536 0
M  V30 1778 H 180.837 -4.68094 -0.0236741 0
M  V30 1779 H 181.01 -6.47627 0.219905 0
M  V30 1780 N 174.416 0.165178 -1.56732 0
M  V30 1781 C 175.366 1.20917 -1.93295 0
M  V30 1782 C 176.35 1.39488 -0.801985 0
M  V30 1783 O 177.542 1.41356 -1.06525 0
M  V30 1784 C 174.671 2.54718 -2.3016 0
M  V30 1785 C 173.757 2.39815 -3.49785 0
M  V30 1786 N 174.148 1.94637 -4.66851 0
M  V30 1787 C 172.446 2.70623 -3.54513 0
M  V30 1788 C 173.147 1.92344 -5.4898 0
M  V30 1789 N 172.123 2.34978 -4.9019 0
M  V30 1790 H 175.925 0.851675 -2.81289 0
M  V30 1791 H 173.439 0.373399 -1.58049 0
M  V30 1792 H 175.436 3.30165 -2.54552 0
M  V30 1793 H 174.096 2.91265 -1.43508 0
M  V30 1794 H 175.107 1.6488 -4.90953 0
M  V30 1795 H 171.784 3.11167 -2.78354 0
M  V30 1796 H 173.174 1.5906 -6.52801 0
M  V30 1797 N 175.894 1.51508 0.433938 0
M  V30 1798 C 176.844 1.69451 1.52546 0
M  V30 1799 C 177.828 0.548474 1.51263 0
M  V30 1800 O 179.02 0.804529 1.57659 0
M  V30 1801 C 176.149 1.82604 2.90707 0
M  V30 1802 C 175.235 3.03002 2.96733 0
M  V30 1803 N 175.626 4.26121 2.72496 0
M  V30 1804 C 173.924 3.02327 3.27894 0
M  V30 1805 C 174.625 5.07407 2.84452 0
M  V30 1806 N 173.601 4.42126 3.16269 0
M  V30 1807 H 177.403 2.62305 1.32564 0
M  V30 1808 H 174.917 1.49202 0.641297 0
M  V30 1809 H 176.914 1.93569 3.69238 0
M  V30 1810 H 175.574 0.909339 3.11707 0
M  V30 1811 H 176.585 4.55009 2.4736 0
M  V30 1812 H 173.262 2.20301 3.54646 0
M  V30 1813 H 174.652 6.15422 2.69639 0
M  V30 1814 N 177.372 -0.689602 1.41712 0
M  V30 1815 C 178.597 -1.48329 1.44959 0
M  V30 1816 C 179.022 -1.8801 0.0581283 0
M  V30 1817 O 178.38 -1.55026 -0.940035 0
M  V30 1818 C 178.428 -2.71835 2.36935 0
M  V30 1819 O 177.532 -3.69549 1.8305 0
M  V30 1820 H 176.873 -0.446199 0.491734 0
M  V30 1821 H 179.403 -0.847127 1.86239 0
M  V30 1822 H 179.413 -3.20076 2.53013 0
M  V30 1823 H 178.088 -2.42291 3.38035 0
M  V30 1824 H 176.665 -3.2851 1.76452 0
M  V30 1825 N 178.85 -1.27639 -0.924453 0
M  V30 1826 C 180.08 -1.16819 -1.70402 0
M  V30 1827 C 180.488 0.277191 -1.87158 0
M  V30 1828 O 179.831 1.20025 -1.39067 0
M  V30 1829 C 179.893 -1.78305 -3.12166 0
M  V30 1830 C 179.557 -3.27502 -3.18734 0
M  V30 1831 C 180.554 -4.2409 -3.00738 0
M  V30 1832 C 178.239 -3.68269 -3.4159 0
M  V30 1833 C 180.233 -5.59422 -3.05492 0
M  V30 1834 C 177.92 -5.0373 -3.45977 0
M  V30 1835 C 178.918 -5.99116 -3.27946 0
M  V30 1836 O 178.606 -7.32108 -3.32074 0
M  V30 1837 H 178.338 -0.406931 -0.539799 0
M  V30 1838 H 180.892 -1.69078 -1.16626 0
M  V30 1839 H 179.122 -1.20528 -3.67437 0
M  V30 1840 H 180.811 -1.62154 -3.72103 0
M  V30 1841 H 181.577 -3.93931 -2.82919 0
M  V30 1842 H 177.456 -2.94496 -3.54673 0
M  V30 1843 H 181 -6.33852 -2.91337 0
M  V30 1844 H 176.897 -5.33543 -3.63321 0
M  V30 1845 H 177.665 -7.40598 -3.48507 0
M  V30 1846 N 180.328 1.1314 -1.09713 0
M  V30 1847 C 181.574 1.84757 -0.836224 0
M  V30 1848 C 181.907 1.8347 0.636598 0
M  V30 1849 O 181.182 1.27491 1.46889 0
M  V30 1850 C 181.465 3.32782 -1.37578 0
M  V30 1851 C 181.318 3.42567 -2.91493 0
M  V30 1852 C 182.637 4.28307 -1.01198 0
M  V30 1853 H 179.756 0.67082 -0.305236 0
M  V30 1854 H 182.398 1.3278 -1.35903 0
M  V30 1855 H 180.548 3.77177 -0.931097 0
M  V30 1856 H 182.22 3.06862 -3.44432 0
M  V30 1857 H 180.463 2.83349 -3.28475 0
M  V30 1858 H 181.134 4.46674 -3.24324 0
M  V30 1859 H 183.61 3.91999 -1.39556 0
M  V30 1860 H 182.486 5.30307 -1.41653 0
M  V30 1861 H 182.747 4.42029 0.0794833 0
M  V30 1862 N 181.806 0.884767 1.30421 0
M  V30 1863 C 183.031 0.517288 2.00845 0
M  V30 1864 C 183.456 -0.886779 1.65885 0
M  V30 1865 O 182.814 -1.58768 0.875354 0
M  V30 1866 C 182.862 0.698994 3.5376 0
M  V30 1867 O 181.966 -0.255208 4.1161 0
M  V30 1868 H 181.307 0.203872 0.631927 0
M  V30 1869 H 183.837 1.19225 1.66272 0
M  V30 1870 H 183.847 0.597912 4.03595 0
M  V30 1871 H 182.522 1.72271 3.78544 0
M  V30 1872 H 181.099 -0.10784 3.72744 0
M  V30 1873 N 183.284 -1.43765 0.645699 0
M  V30 1874 C 184.216 -2.29027 -0.0890605 0
M  V30 1875 C 185.229 -1.42093 -0.794563 0
M  V30 1876 O 186.418 -1.66104 -0.653575 0
M  V30 1877 C 183.518 -3.18831 -1.14891 0
M  V30 1878 C 182.691 -4.34261 -0.523043 0
M  V30 1879 C 181.75 -5.04994 -1.47878 0
M  V30 1880 O 180.776 -5.6052 -0.990277 0
M  V30 1881 N 181.978 -5.07795 -2.81291 0
M  V30 1882 H 184.743 -2.92727 0.64272 0
M  V30 1883 H 182.304 -1.54373 0.487924 0
M  V30 1884 H 184.296 -3.63015 -1.78892 0
M  V30 1885 H 182.866 -2.56782 -1.78275 0
M  V30 1886 H 182.086 -3.93088 0.295896 0
M  V30 1887 H 183.374 -5.08728 -0.0858147 0
M  V30 1888 H 182.772 -4.64042 -3.23546 0
M  V30 1889 H 181.329 -5.55721 -3.40614 0
M  V30 1890 N 184.763 -0.387143 -1.52771 0
M  V30 1891 C 186.179 -0.037007 -1.59557 0
M  V30 1892 C 186.379 1.44801 -1.40124 0
M  V30 1893 O 185.435 2.21227 -1.21716 0
M  V30 1894 C 186.748 -0.512256 -2.96305 0
M  V30 1895 C 188.296 -0.468328 -3.09476 0
M  V30 1896 C 188.771 -0.919731 -4.4867 0
M  V30 1897 N 190.262 -0.875656 -4.54848 0
M  V30 1898 C 190.997 -1.19637 -5.6078 0
M  V30 1899 N 190.493 -1.58745 -6.74368 0
M  V30 1900 N 192.286 -1.11776 -5.50874 0
M  V30 1901 H 184.437 -1.35395 -1.63652 0
M  V30 1902 H 186.7 -0.554818 -0.768688 0
M  V30 1903 H 186.406 -1.54935 -3.15734 0
M  V30 1904 H 186.28 0.089805 -3.77093 0
M  V30 1905 H 188.667 0.559671 -2.89744 0
M  V30 1906 H 188.748 -1.10616 -2.30646 0
M  V30 1907 H 188.392 -1.94595 -4.69143 0
M  V30 1908 H 188.322 -0.258927 -5.25963 0
M  V30 1909 H 190.813 -0.587843 -3.733 0
M  V30 1910 H 191.126 -1.81586 -7.51163 0
M  V30 1911 H 189.471 -1.6263 -6.75705 0
M  V30 1912 H 192.662 -0.811264 -4.61016 0
M  V30 1913 H 192.835 -1.37103 -6.3333 0
M  V30 1914 N 186.241 1.57166 -0.116904 0
M  V30 1915 C 187.204 2.14039 0.819742 0
M  V30 1916 C 188.204 1.07477 1.19605 0
M  V30 1917 O 189.394 1.33263 1.1219 0
M  V30 1918 C 186.526 2.67891 2.10826 0
M  V30 1919 H 187.719 2.98128 0.325511 0
M  V30 1920 H 185.272 1.55739 0.132312 0
M  V30 1921 H 186.007 1.87384 2.64685 0
M  V30 1922 H 185.792 3.45823 1.84793 0
M  V30 1923 H 187.282 3.11809 2.77785 0
M  V30 1924 N 187.719 -0.156864 1.56817 0
M  V30 1925 C 188.996 -0.899244 1.73704 0
M  V30 1926 C 189.376 -1.99771 0.682254 0
M  V30 1927 O 188.724 -2.26515 -0.300522 0
M  V30 1928 C 188.934 -1.45075 3.17418 0
M  V30 1929 C 190.282 -1.91802 3.7881 0
M  V30 1930 O 191.306 -1.54838 3.20786 0
M  V30 1931 O 190.165 -2.5994 4.80722 0
M  V30 1932 H 187.259 -0.424267 0.709878 0
M  V30 1933 H 189.805 -0.143561 1.69092 0
M  V30 1934 H 188.577 -0.660846 3.85679 0
M  V30 1935 H 188.2 -2.27021 3.26416 0
M  V30 1936 N 189.197 -1.51736 -0.425897 0
M  V30 1937 C 190.445 -1.64644 -1.17204 0
M  V30 1938 C 190.766 -0.370486 -1.91448 0
M  V30 1939 O 190.036 0.614088 -1.86026 0
M  V30 1940 H 188.616 -0.606819 -0.435638 0
M  V30 1941 H 191.278 -1.88713 -0.487177 0
M  V30 1942 H 190.374 -2.47958 -1.89534 0
M  V30 1943 N 190.675 0.682077 -1.42076 0
M  V30 1944 C 191.921 1.44428 -1.42367 0
M  V30 1945 C 192.254 1.94164 -0.0373056 0
M  V30 1946 O 191.529 1.70429 0.937239 0
M  V30 1947 C 191.812 2.64654 -2.44194 0
M  V30 1948 C 191.665 2.20596 -3.91991 0
M  V30 1949 C 192.984 3.66865 -2.431 0
M  V30 1950 H 190.103 0.523834 -0.518428 0
M  V30 1951 H 192.745 0.77576 -1.73442 0
M  V30 1952 H 190.895 3.2169 -2.17826 0
M  V30 1953 H 192.567 1.68783 -4.29313 0
M  V30 1954 H 190.81 1.52242 -4.06208 0
M  V30 1955 H 191.481 3.06921 -4.58807 0
M  V30 1956 H 193.957 3.19531 -2.66532 0
M  V30 1957 H 192.833 4.48577 -3.16339 0
M  V30 1958 H 193.094 4.17493 -1.45437 0
M  V30 1959 N 192.153 1.28127 0.917671 0
M  V30 1960 C 193.399 1.15223 1.66888 0
M  V30 1961 C 193.732 -0.299293 1.9188 0
M  V30 1962 O 193.007 -1.21805 1.51637 0
M  V30 1963 C 193.29 1.94706 3.02922 0
M  V30 1964 C 193.143 3.47898 2.85109 0
M  V30 1965 C 194.462 1.75939 4.03402 0
M  V30 1966 H 191.581 0.419946 0.605652 0
M  V30 1967 H 194.223 1.57398 1.06423 0
M  V30 1968 H 192.373 1.58864 3.54534 0
M  V30 1969 H 194.045 3.93624 2.40537 0
M  V30 1970 H 192.288 3.7373 2.20246 0
M  V30 1971 H 192.959 3.98765 3.81694 0
M  V30 1972 H 195.435 2.07209 3.60837 0
M  V30 1973 H 194.311 2.33931 4.96556 0
M  V30 1974 H 194.572 0.709877 4.36364 0
M  V30 1975 N 193.631 -1.12557 1.10312 0
M  V30 1976 C 194.594 -2.16434 0.75424 0
M  V30 1977 C 195.594 -1.59278 -0.220685 0
M  V30 1978 O 196.784 -1.742 0.00230591 0
M  V30 1979 C 193.916 -3.40699 0.116987 0
M  V30 1980 H 195.109 -2.48811 1.67431 0
M  V30 1981 H 192.662 -1.27542 0.903475 0
M  V30 1982 H 193.397 -3.13921 -0.813877 0
M  V30 1983 H 193.182 -3.83459 0.818613 0
M  V30 1984 H 194.672 -4.17451 -0.111387 0
M  V30 1985 N 195.109 -0.891671 -1.2995 0
M  V30 1986 C 196.357 -0.512486 -1.95494 0
M  V30 1987 C 196.678 0.942776 -1.70695 0
M  V30 1988 O 195.948 1.66374 -1.03424 0
M  V30 1989 H 194.528 -0.186533 -0.723336 0
M  V30 1990 H 197.19 -1.13621 -1.58355 0
M  V30 1991 H 196.286 -0.688342 -3.04415 0
M  V30 1992 N 196.587 1.43421 -0.653314 0
M  V30 1993 C 197.827 2.03689 -0.170346 0
M  V30 1994 C 198.191 1.50427 1.19314 0
M  V30 1995 O 199.392 2.0234 1.76952 0
M  V30 1996 C 197.663 3.56946 -0.180183 0
M  V30 1997 S 199.222 4.38171 0.234925 0
M  V30 1998 H 196.04 0.707345 -0.0719976 0
M  V30 1999 H 198.642 1.75486 -0.86167 0
M  V30 2000 H 197.346 3.93212 -1.17526 0
M  V30 2001 H 196.877 3.89791 0.531675 0
M  V30 2002 H 198.892 4.73808 1.47378 0
M  V30 2003 N 198.065 0.39524 1.52563 0
M  V30 2004 C 199.313 -0.184678 2.01254 0
M  V30 2005 C 199.634 -1.46822 1.28329 0
M  V30 2006 O 198.904 -1.91666 0.405094 0
M  V30 2007 H 197.484 -0.0712355 0.743596 0
M  V30 2008 H 200.146 0.528293 1.87603 0
M  V30 2009 H 199.242 -0.390681 3.09645 0
M  V30 2010 N 199.544 -1.57102 0.125237 0
M  V30 2011 C 200.79 -1.95697 -0.532035 0
M  V30 2012 C 201.123 -1.009 -1.6593 0
M  V30 2013 O 200.398 -0.047347 -1.94442 0
M  V30 2014 C 200.681 -3.44181 -1.05884 0
M  V30 2015 C 200.534 -4.49752 0.0654392 0
M  V30 2016 C 201.853 -3.94655 -1.9477 0
M  V30 2017 H 198.972 -0.711571 -0.191925 0
M  V30 2018 H 201.614 -1.88923 0.20206 0
M  V30 2019 H 199.764 -3.50085 -1.68442 0
M  V30 2020 H 201.436 -4.55943 0.700982 0
M  V30 2021 H 199.679 -4.27653 0.727709 0
M  V30 2022 H 200.35 -5.50924 -0.344505 0
M  V30 2023 H 202.826 -3.91094 -1.42074 0
M  V30 2024 H 201.702 -4.99057 -2.28546 0
M  V30 2025 H 201.963 -3.35718 -2.87656 0
M  V30 2026 N 201.022 0.148545 -1.56898 0
M  V30 2027 C 201.954 1.20852 -1.9475 0
M  V30 2028 C 202.967 1.39265 -0.843152 0
M  V30 2029 O 204.156 1.38864 -1.12156 0
M  V30 2030 C 201.256 2.57362 -2.20495 0
M  V30 2031 C 200.429 2.59947 -3.51776 0
M  V30 2032 C 199.488 3.77984 -3.6608 0
M  V30 2033 O 198.514 3.62929 -4.38487 0
M  V30 2034 N 199.716 4.95375 -3.02629 0
M  V30 2035 H 202.481 0.886804 -2.86279 0
M  V30 2036 H 200.042 0.338121 -1.5833 0
M  V30 2037 H 202.034 3.34833 -2.27307 0
M  V30 2038 H 200.604 2.81832 -1.35238 0
M  V30 2039 H 199.824 1.68403 -3.56419 0
M  V30 2040 H 201.112 2.58704 -4.38121 0
M  V30 2041 H 200.51 5.10509 -2.43715 0
M  V30 2042 H 199.067 5.70627 -3.15004 0
M  V30 2043 N 202.5 1.5196 0.417844 0
M  V30 2044 C 203.748 1.65263 1.16329 0
M  V30 2045 C 204.069 0.380634 1.91249 0
M  V30 2046 O 203.339 -0.604214 1.86349 0
M  V30 2047 H 201.919 0.60912 0.432414 0
M  V30 2048 H 204.581 1.88969 0.477162 0
M  V30 2049 H 203.677 2.4896 1.88217 0
M  V30 2050 N 203.978 -0.674533 1.42435 0
M  V30 2051 C 205.208 -1.46071 1.46105 0
M  V30 2052 C 205.616 -1.89067 0.0709605 0
M  V30 2053 O 204.959 -1.58731 -0.924677 0
M  V30 2054 C 205.021 -2.74145 2.32561 0
M  V30 2055 C 204.685 -2.53224 3.8043 0
M  V30 2056 C 205.682 -2.17809 4.72075 0
M  V30 2057 C 203.367 -2.6821 4.24698 0
M  V30 2058 C 205.361 -1.97648 6.05982 0
M  V30 2059 C 203.048 -2.47665 5.58664 0
M  V30 2060 C 204.046 -2.12437 6.49122 0
M  V30 2061 O 203.734 -1.9209 7.80613 0
M  V30 2062 H 203.466 -0.455959 0.499076 0
M  V30 2063 H 206.02 -0.836193 1.87609 0
M  V30 2064 H 204.25 -3.3908 1.85908 0
M  V30 2065 H 205.939 -3.36028 2.27683 0
M  V30 2066 H 206.705 -2.05826 4.39159 0
M  V30 2067 H 202.584 -2.94609 3.54579 0
M  V30 2068 H 206.128 -1.70075 6.7655 0
M  V30 2069 H 202.025 -2.59244 5.91154 0
M  V30 2070 H 202.793 -2.06686 7.91974 0
M  V30 2071 N 205.456 -1.28612 -0.910864 0
M  V30 2072 C 206.702 -1.16106 -1.66274 0
M  V30 2073 C 207.035 0.289113 -1.92036 0
M  V30 2074 O 206.31 1.21 -1.52281 0
M  V30 2075 C 206.593 -1.96309 -3.01885 0
M  V30 2076 C 206.446 -3.49405 -2.8326 0
M  V30 2077 C 207.765 -1.78076 -4.02463 0
M  V30 2078 H 204.884 -0.423152 -0.603417 0
M  V30 2079 H 207.526 -1.57961 -1.05586 0
M  V30 2080 H 205.676 -1.60742 -3.53687 0
M  V30 2081 H 207.348 -3.94894 -2.38446 0
M  V30 2082 H 205.591 -3.74893 -2.18261 0
M  V30 2083 H 206.262 -4.00784 -3.79574 0
M  V30 2084 H 208.738 -2.0912 -3.59733 0
M  V30 2085 H 207.614 -2.36561 -4.95308 0
M  V30 2086 H 207.875 -0.733008 -4.35981 0
M  V30 2087 N 206.934 1.1197 -1.10907 0
M  V30 2088 C 208.181 1.83588 -0.854507 0
M  V30 2089 C 208.509 1.84357 0.6199 0
M  V30 2090 O 207.764 1.28809 1.47332 0
M  V30 2091 C 208.063 3.30749 -1.35425 0
M  V30 2092 C 207.729 3.50146 -2.84093 0
M  V30 2093 C 206.391 3.55148 -3.2469 0
M  V30 2094 C 208.743 3.56857 -3.79872 0
M  V30 2095 C 206.071 3.6441 -4.59806 0
M  V30 2096 C 208.423 3.6765 -5.14797 0
M  V30 2097 C 207.087 3.7091 -5.54961 0
M  V30 2098 H 206.357 0.671795 -0.312686 0
M  V30 2099 H 209.004 1.32091 -1.38652 0
M  V30 2100 H 207.309 3.84703 -0.742361 0
M  V30 2101 H 209.006 3.8464 -1.1337 0
M  V30 2102 H 205.596 3.46919 -2.51685 0
M  V30 2103 H 209.78 3.52258 -3.49611 0
M  V30 2104 H 205.036 3.65208 -4.9034 0
M  V30 2105 H 209.21 3.71786 -5.88853 0
M  V30 2106 H 206.837 3.7784 -6.59652 0
M  V30 2107 N 208.412 0.89855 1.29475 0
M  V30 2108 C 209.66 0.522847 1.9522 0
M  V30 2109 C 209.981 -0.93371 1.71192 0
M  V30 2110 O 209.251 -1.65823 1.04305 0
M  V30 2111 H 207.831 0.190366 0.722336 0
M  V30 2112 H 210.493 1.14459 1.5775 0
M  V30 2113 H 209.589 0.704476 3.04045 0
M  V30 2114 N 209.89 -1.43072 0.660911 0
M  V30 2115 C 211.136 -2.0202 0.177708 0
M  V30 2116 C 211.469 -1.52066 -1.20787 0
M  V30 2117 O 210.744 -0.716987 -1.80802 0
M  V30 2118 C 211.027 -3.59561 0.197019 0
M  V30 2119 C 210.88 -4.19727 1.61706 0
M  V30 2120 C 212.199 -4.37664 -0.462396 0
M  V30 2121 H 209.318 -0.734034 0.0660494 0
M  V30 2122 H 211.96 -1.70272 0.843058 0
M  V30 2123 H 210.11 -3.86739 -0.369527 0
M  V30 2124 H 211.782 -4.03553 2.23479 0
M  V30 2125 H 210.025 -3.76084 2.16201 0
M  V30 2126 H 210.696 -5.28834 1.58237 0
M  V30 2127 H 213.172 -4.16095 0.0197215 0
M  V30 2128 H 212.048 -5.47305 -0.418188 0
M  V30 2129 H 212.309 -4.14493 -1.53778 0
M  V30 2130 N 211.368 -0.403325 -1.52352 0
M  V30 2131 C 212.278 0.432009 -2.30588 0
M  V30 2132 C 213.294 1.05884 -1.38075 0
M  V30 2133 O 214.47 1.06161 -1.71148 0
M  V30 2134 C 211.535 1.53669 -3.10784 0
M  V30 2135 C 210.596 0.933525 -4.19027 0
M  V30 2136 C 209.829 1.98557 -4.9539 0
M  V30 2137 O 210.052 3.20283 -4.71991 0
M  V30 2138 O 208.986 1.59504 -5.80381 0
M  V30 2139 H 212.812 -0.205739 -3.03002 0
M  V30 2140 H 210.397 -0.166675 -1.48467 0
M  V30 2141 H 212.279 2.17814 -3.60742 0
M  V30 2142 H 210.954 2.15915 -2.41169 0
M  V30 2143 H 209.861 0.254954 -3.7323 0
M  V30 2144 H 211.194 0.35508 -4.90918 0
M  V30 2145 N 212.846 1.57033 -0.133567 0
M  V30 2146 C 214.262 1.58035 0.222944 0
M  V30 2147 C 214.462 1.14713 1.6566 0
M  V30 2148 O 213.518 0.841218 2.38075 0
M  V30 2149 C 214.831 3.00691 -0.0236116 0
M  V30 2150 C 216.379 3.12973 0.0411512 0
M  V30 2151 C 216.854 4.57654 -0.177899 0
M  V30 2152 N 218.345 4.63033 -0.124365 0
M  V30 2153 C 219.08 5.72771 -0.268553 0
M  V30 2154 N 218.576 6.91206 -0.46972 0
M  V30 2155 N 220.369 5.61718 -0.2071 0
M  V30 2156 H 212.52 1.8349 -1.06981 0
M  V30 2157 H 214.783 0.848677 -0.422436 0
M  V30 2158 H 214.489 3.36726 -1.0153 0
M  V30 2159 H 214.363 3.70614 0.701808 0
M  V30 2160 H 216.75 2.76787 1.02338 0
M  V30 2161 H 216.831 2.45564 -0.716383 0
M  V30 2162 H 216.475 4.94542 -1.15717 0
M  V30 2163 H 216.405 5.23173 0.599797 0
M  V30 2164 H 218.896 3.7789 0.027011 0
M  V30 2165 H 219.209 7.70693 -0.570212 0
M  V30 2166 H 217.554 6.93156 -0.505876 0
M  V30 2167 H 220.745 4.68072 -0.0507986 0
M  V30 2168 H 220.918 6.47195 -0.322909 0
M  V30 2169 N 214.325 -0.140222 1.56975 0
M  V30 2170 C 215.574 -0.850152 1.82908 0
M  V30 2171 C 215.887 -1.82028 0.715892 0
M  V30 2172 O 217.093 -2.57485 0.861016 0
M  V30 2173 C 215.549 -1.5625 3.24213 0
M  V30 2174 C 215.157 -0.63443 4.43485 0
M  V30 2175 C 216.901 -2.25881 3.59413 0
M  V30 2176 C 214.808 -1.34879 5.75814 0
M  V30 2177 H 213.738 -0.321221 0.682153 0
M  V30 2178 H 216.389 -0.102874 1.83211 0
M  V30 2179 H 214.771 -2.35565 3.18316 0
M  V30 2180 H 215.945 0.12398 4.60633 0
M  V30 2181 H 214.26 -0.0461836 4.16374 0
M  V30 2182 H 216.857 -2.79978 4.5554 0
M  V30 2183 H 217.2 -3.02693 2.85802 0
M  V30 2184 H 217.733 -1.53477 3.67001 0
M  V30 2185 H 214.472 -0.622385 6.52539 0
M  V30 2186 H 213.992 -2.07974 5.6259 0
M  V30 2187 H 215.671 -1.88784 6.18845 0
M  V30 2188 N 215.803 -1.52179 -0.40978 0
M  V30 2189 C 216.766 -1.74853 -1.48186 0
M  V30 2190 C 217.766 -0.618417 -1.48433 0
M  V30 2191 O 218.956 -0.886286 -1.49969 0
M  V30 2192 C 216.088 -1.8303 -2.87598 0
M  V30 2193 H 217.281 -2.70559 -1.29374 0
M  V30 2194 H 214.834 -1.42586 -0.640233 0
M  V30 2195 H 215.569 -0.89236 -3.11781 0
M  V30 2196 H 215.354 -2.65187 -2.88822 0
M  V30 2197 H 216.844 -2.02316 -3.65319 0
M  V30 2198 N 217.281 0.66697 -1.42791 0
M  V30 2199 C 218.244 1.76211 -1.46568 0
M  V30 2200 C 219.244 1.56896 -0.352196 0
M  V30 2201 O 220.434 1.63044 -0.613364 0
M  V30 2202 C 217.566 3.14935 -1.30494 0
M  V30 2203 H 218.759 1.74247 -2.44086 0
M  V30 2204 H 216.312 0.877342 -1.29354 0
M  V30 2205 H 217.047 3.2252 -0.339301 0
M  V30 2206 H 216.832 3.30359 -2.11199 0
M  V30 2207 H 218.322 3.94821 -1.36038 0
M  V30 2208 N 218.759 1.29093 0.90403 0
M  V30 2209 C 219.689 1.16401 2.02418 0
M  V30 2210 C 220.67 0.0593085 1.69997 0
M  V30 2211 O 221.855 0.238021 1.92736 0
M  V30 2212 C 218.985 0.835233 3.37107 0
M  V30 2213 C 217.939 1.89578 3.83724 0
M  V30 2214 C 217.265 1.42041 5.15489 0
M  V30 2215 C 218.565 3.30394 4.04521 0
M  V30 2216 H 220.259 2.10109 2.13295 0
M  V30 2217 H 217.805 1.01157 1.02486 0
M  V30 2218 H 219.758 0.733169 4.14973 0
M  V30 2219 H 218.482 -0.137543 3.2631 0
M  V30 2220 H 217.141 1.98715 3.08071 0
M  V30 2221 H 216.789 0.436426 5.01103 0
M  V30 2222 H 216.489 2.12964 5.4765 0
M  V30 2223 H 218.013 1.33176 5.959 0
M  V30 2224 H 219.427 3.24123 4.72882 0
M  V30 2225 H 217.824 3.99237 4.48029 0
M  V30 2226 H 218.894 3.73692 3.09002 0
M  V30 2227 N 220.237 -1.11381 1.11499 0
M  V30 2228 C 221.2 -2.15622 0.777153 0
M  V30 2229 C 222.2 -1.59504 -0.203779 0
M  V30 2230 O 223.39 -1.74188 0.020782 0
M  V30 2231 C 220.522 -3.40556 0.153116 0
M  V30 2232 H 221.715 -2.47021 1.70061 0
M  V30 2233 H 219.268 -1.26577 0.916952 0
M  V30 2234 H 220.003 -3.14767 -0.780536 0
M  V30 2235 H 219.788 -3.8257 0.859238 0
M  V30 2236 H 221.278 -4.17546 -0.0671044 0
M  V30 2237 N 221.715 -0.905404 -1.28997 0
M  V30 2238 C 222.963 -0.533192 -1.9494 0
M  V30 2239 C 223.284 0.924618 -1.71685 0
M  V30 2240 O 222.554 1.65268 -1.05183 0
M  V30 2241 H 221.134 -0.194194 -0.721317 0
M  V30 2242 H 223.796 -1.15294 -1.57141 0
M  V30 2243 H 222.892 -0.72059 -3.03667 0
M  V30 2244 N 223.193 1.4272 -0.668489 0
M  V30 2245 C 224.156 2.292 0.00448567 0
M  V30 2246 C 225.156 1.43001 0.735339 0
M  V30 2247 O 226.346 1.64461 0.57429 0
M  V30 2248 C 223.478 3.25375 1.01705 0
M  V30 2249 H 224.671 2.90199 -0.756608 0
M  V30 2250 H 222.224 1.50254 -0.430506 0
M  V30 2251 H 222.959 2.69301 1.80686 0
M  V30 2252 H 222.744 3.88944 0.496463 0
M  V30 2253 H 224.234 3.90245 1.48655 0
M  V30 2254 N 224.671 0.411399 1.52136 0
M  V30 2255 C 225.919 -0.163322 2.01439 0
M  V30 2256 C 226.24 -1.45453 1.29879 0
M  V30 2257 O 225.51 -1.91225 0.4254 0
M  V30 2258 H 224.09 -0.0633447 0.744309 0
M  V30 2259 H 226.752 0.548161 1.87033 0
M  V30 2260 H 225.848 -0.357817 3.10042 0
M  V30 2261 N 226.149 -1.5696 0.141893 0
M  V30 2262 C 227.374 -2.00754 -0.520838 0
M  V30 2263 C 227.799 -1.0213 -1.57959 0
M  V30 2264 O 227.157 0.00371324 -1.813 0
M  V30 2265 C 227.205 -3.43318 -1.10294 0
M  V30 2266 O 226.309 -3.47679 -2.21795 0
M  V30 2267 H 225.65 -0.651564 -0.127908 0
M  V30 2268 H 228.18 -2.03221 0.23712 0
M  V30 2269 H 228.19 -3.82012 -1.43287 0
M  V30 2270 H 226.865 -4.14608 -0.327574 0
M  V30 2271 H 225.442 -3.20824 -1.9007 0
M  V30 2272 N 227.627 0.131896 -1.57047 0
M  V30 2273 C 228.59 1.14638 -1.98471 0
M  V30 2274 C 229.59 1.35029 -0.873148 0
M  V30 2275 O 230.78 1.31764 -1.13946 0
M  V30 2276 C 227.912 2.50358 -2.31373 0
M  V30 2277 H 229.105 0.79064 -2.8929 0
M  V30 2278 H 226.658 0.375761 -1.51716 0
M  V30 2279 H 227.393 2.90876 -1.43393 0
M  V30 2280 H 227.178 2.36915 -3.12432 0
M  V30 2281 H 228.668 3.23395 -2.64207 0
M  V30 2282 N 229.106 1.52395 0.401703 0
M  V30 2283 C 230.522 1.41363 0.740864 0
M  V30 2284 C 230.722 0.523982 1.94568 0
M  V30 2285 O 229.778 -0.00741204 2.52499 0
M  V30 2286 C 231.091 2.84011 0.987847 0
M  V30 2287 C 232.639 2.93404 1.09011 0
M  V30 2288 C 233.114 4.37036 1.3698 0
M  V30 2289 N 234.605 4.40304 1.43829 0
M  V30 2290 C 235.34 5.48508 1.67112 0
M  V30 2291 N 234.836 6.66819 1.87949 0
M  V30 2292 N 236.629 5.36034 1.69187 0
M  V30 2293 H 228.78 2.08765 -0.391262 0
M  V30 2294 H 231.043 0.941265 -0.112798 0
M  V30 2295 H 230.749 3.51265 0.174835 0
M  V30 2296 H 230.623 3.25502 1.906 0
M  V30 2297 H 233.01 2.26325 1.8937 0
M  V30 2298 H 233.091 2.55359 0.15015 0
M  V30 2299 H 232.735 5.04676 0.571353 0
M  V30 2300 H 232.665 4.72623 2.3224 0
M  V30 2301 H 235.156 3.55024 1.29486 0
M  V30 2302 H 235.469 7.45063 2.05185 0
M  V30 2303 H 233.814 6.6987 1.85199 0
M  V30 2304 H 237.005 4.42579 1.52451 0
M  V30 2305 H 237.178 6.20434 1.86993 0
M  V30 2306 N 230.584 -0.659388 1.43143 0
M  V30 2307 C 231.547 -1.75432 1.47501 0
M  V30 2308 C 232.547 -1.56707 0.360512 0
M  V30 2309 O 233.737 -1.62717 0.622002 0
M  V30 2310 C 230.869 -3.14239 1.32162 0
M  V30 2311 H 232.062 -1.7295 2.45006 0
M  V30 2312 H 229.615 -0.870469 1.29817 0
M  V30 2313 H 230.35 -3.22336 0.356401 0
M  V30 2314 H 230.135 -3.29235 2.12948 0
M  V30 2315 H 231.625 -3.94094 1.3813 0
M  V30 2316 O 232.101 -1.40162 -0.802292 0
M  V30 2317 H 232.792 -1.28727 -1.44738 0
M  V30 END ATOM
M  V30 BEGIN BOND
M  V30 END BOND
M  V30 END CTAB
M  END
$$$$
