drugbank_target|P09152 Respiratory nitrate reductase 1 alpha chain (DB04464; DB07349)
 OpenBabel12092120423D

  0  0  0     0  0            999 V3000
M  V30 BEGIN CTAB
M  V30 COUNTS 19473 19733 0 0 0
M  V30 BEGIN ATOM
M  V30 1 H -0.908 1.98254 -0.117106 0
M  V30 2 N 0 1.576 0 0
M  V30 3 C 0.933 2.03868 1.02534 0
M  V30 4 C 1.911 0.928543 1.3348 0
M  V30 5 O 3.095 1.19667 1.45644 0
M  V30 6 C 0.222 2.43627 2.35294 0
M  V30 7 C -0.732 3.65373 2.2001 0
M  V30 8 S 0.101 5.13292 1.52614 0
M  V30 9 C 1.257 5.56322 2.86805 0
M  V30 10 H 1.49 2.90518 0.631377 0
M  V30 11 H -0.977 1.52953 0.210867 0
M  V30 12 H 0.981 2.67203 3.11629 0
M  V30 13 H -0.358 1.57376 2.7183 0
M  V30 14 H -1.165 3.90944 3.18086 0
M  V30 15 H -1.563 3.418 1.51819 0
M  V30 16 H 0.729 5.58782 3.83104 0
M  V30 17 H 1.672 6.56266 2.65933 0
M  V30 18 H 2.08 4.83886 2.90714 0
M  V30 19 N 1.4781 -0.272755 1.55222 0
M  V30 20 C 2.7031 -1.02683 1.80197 0
M  V30 21 C 3.1281 -1.79142 0.573551 0
M  V30 22 O 2.4861 -1.74917 -0.476849 0
M  V30 23 C 2.5341 -1.9609 3.02624 0
M  V30 24 O 1.6381 -3.04863 2.77727 0
M  V30 25 H 0.9791 -0.293557 0.595584 0
M  V30 26 H 3.5091 -0.30159 2.02365 0
M  V30 27 H 3.5191 -2.38039 3.31363 0
M  V30 28 H 2.1941 -1.39851 3.91682 0
M  V30 29 H 0.7711 -2.67228 2.60084 0
M  V30 30 N 2.9562 -1.48159 -0.537278 0
M  V30 31 C 3.9032 -1.62138 -1.64256 0
M  V30 32 C 4.8732 -0.463668 -1.59497 0
M  V30 33 O 6.0582 -0.686241 -1.78032 0
M  V30 34 C 3.1982 -1.66028 -3.02537 0
M  V30 35 C 2.3112 -2.92855 -3.17585 0
M  V30 36 C 1.4462 -2.87952 -4.46382 0
M  V30 37 C 0.4852 -4.09516 -4.54932 0
M  V30 38 N -0.3778 -4.02733 -5.75109 0
M  V30 39 H 4.4622 -2.56529 -1.51647 0
M  V30 40 H 1.9992 -1.27224 -0.738414 0
M  V30 41 H 3.9572 -1.66265 -3.82638 0
M  V30 42 H 2.5872 -0.751331 -3.13934 0
M  V30 43 H 1.6392 -3.02395 -2.30784 0
M  V30 44 H 2.9512 -3.82822 -3.19764 0
M  V30 45 H 2.1052 -2.8655 -5.34765 0
M  V30 46 H 0.8442 -1.95702 -4.46712 0
M  V30 47 H -0.1508 -4.11201 -3.64957 0
M  V30 48 H 1.0742 -5.02917 -4.56346 0
M  V30 49 H -0.9798 -3.13299 -5.76351 0
M  V30 50 H -1.0628 -4.86397 -5.78752 0
M  V30 51 H 0.2052 -4.05379 -6.65799 0
M  V30 52 N 4.4343 0.785586 -1.36625 0
M  V30 53 C 5.6813 1.54362 -1.31067 0
M  V30 54 C 6.0093 1.94195 0.10893 0
M  V30 55 O 5.2643 1.63262 1.07908 0
M  V30 56 C 5.5633 2.83007 -2.1827 0
M  V30 57 C 5.2293 2.62294 -3.6676 0
M  V30 58 C 3.8913 2.56353 -4.0723 0
M  V30 59 C 6.2433 2.43371 -4.6089 0
M  V30 60 C 3.5713 2.29461 -5.39967 0
M  V30 61 C 5.9233 2.18005 -5.93849 0
M  V30 62 C 4.5873 2.105 -6.3344 0
M  V30 63 H 3.8573 0.564851 -0.479609 0
M  V30 64 H 6.5043 0.906028 -1.68711 0
M  V30 65 H 4.8093 3.51253 -1.73576 0
M  V30 66 H 6.5063 3.40817 -2.11292 0
M  V30 67 H 3.0963 2.67774 -3.34656 0
M  V30 68 H 7.2803 2.46959 -4.30494 0
M  V30 69 H 2.5363 2.22135 -5.69619 0
M  V30 70 H 6.7103 2.02359 -6.66351 0
M  V30 71 H 4.3373 1.89425 -7.36222 0
M  V30 72 N 5.9124 1.20967 1.01018 0
M  V30 73 C 6.8424 0.988272 2.11555 0
M  V30 74 C 7.8234 -0.0849778 1.69888 0
M  V30 75 O 9.0084 0.0738202 1.9406 0
M  V30 76 C 6.1384 0.546528 3.42973 0
M  V30 77 C 5.0924 1.56375 3.9841 0
M  V30 78 C 4.4184 0.97842 5.25672 0
M  V30 79 C 5.7184 2.94922 4.31066 0
M  V30 80 H 7.4124 1.91276 2.30334 0
M  V30 81 H 4.9584 0.921073 1.1069 0
M  V30 82 H 6.9114 0.378839 4.19694 0
M  V30 83 H 5.6354 -0.413598 3.23971 0
M  V30 84 H 4.2944 1.71891 3.23804 0
M  V30 85 H 3.9424 0.0101688 5.02999 0
M  V30 86 H 3.6424 1.65784 5.63728 0
M  V30 87 H 5.1664 0.821939 6.05043 0
M  V30 88 H 6.5804 2.8288 4.9865 0
M  V30 89 H 4.9774 3.5983 4.80253 0
M  V30 90 H 6.0474 3.4616 3.39561 0
M  V30 91 N 7.3905 -1.2043 1.01659 0
M  V30 92 C 8.6675 -1.8548 0.621004 0
M  V30 93 C 9.0475 -1.9091 -0.900919 0
M  V30 94 O 8.3955 -1.41694 -1.79263 0
M  V30 95 C 8.6055 -3.25119 1.2688 0
M  V30 96 C 9.9535 -4.01403 1.38423 0
M  V30 97 O 10.9775 -3.34473 1.22501 0
M  V30 98 O 9.8365 -5.21265 1.64151 0
M  V30 99 H 6.9305 -0.798761 0.214266 0
M  V30 100 H 9.4765 -1.28019 1.11396 0
M  V30 101 H 8.2485 -3.15932 2.30873 0
M  V30 102 H 7.8715 -3.90212 0.762917 0
M  V30 103 N 8.8686 -0.792821 -1.36206 0
M  V30 104 C 10.2846 -0.474903 -1.52371 0
M  V30 105 C 10.4846 1.00622 -1.74578 0
M  V30 106 O 9.5406 1.79162 -1.77924 0
M  V30 107 C 10.8536 -1.3083 -2.70747 0
M  V30 108 C 12.4016 -1.30234 -2.84619 0
M  V30 109 C 12.8766 -2.11956 -4.06004 0
M  V30 110 N 14.3676 -2.09419 -4.13156 0
M  V30 111 C 15.1026 -2.69419 -5.06163 0
M  V30 112 N 14.5986 -3.3829 -6.04592 0
M  V30 113 N 16.3916 -2.59134 -4.98804 0
M  V30 114 H 8.5426 -1.75222 -1.20046 0
M  V30 115 H 10.8056 -0.745024 -0.586211 0
M  V30 116 H 10.5116 -2.35881 -2.6087 0
M  V30 117 H 10.3856 -0.95196 -3.6499 0
M  V30 118 H 12.7726 -0.259748 -2.93955 0
M  V30 119 H 12.8536 -1.69847 -1.91274 0
M  V30 120 H 12.4976 -3.16248 -3.97429 0
M  V30 121 H 12.4276 -1.69711 -4.98503 0
M  V30 122 H 14.9186 -1.59297 -3.42685 0
M  V30 123 H 15.2316 -3.81394 -6.7213 0
M  V30 124 H 13.5766 -3.42393 -6.04807 0
M  V30 125 H 16.7676 -2.04927 -4.20859 0
M  V30 126 H 16.9406 -3.06185 -5.711 0
M  V30 127 N 10.3467 1.47872 -0.545128 0
M  V30 128 C 11.5937 2.02493 -0.0165858 0
M  V30 129 C 11.9217 1.42073 1.32836 0
M  V30 130 O 11.1767 0.561459 1.87473 0
M  V30 131 C 11.4757 3.57131 0.13867 0
M  V30 132 C 11.1417 4.36411 -1.13384 0
M  V30 133 C 9.8037 4.57792 -1.48256 0
M  V30 134 C 12.1557 4.82223 -1.97764 0
M  V30 135 C 9.4837 5.22233 -2.67376 0
M  V30 136 C 11.8357 5.47977 -3.16076 0
M  V30 137 C 10.4997 5.67593 -3.51275 0
M  V30 138 H 9.7697 0.740975 -0.00606918 0
M  V30 139 H 12.4167 1.77683 -0.714207 0
M  V30 140 H 10.7217 3.80865 0.919172 0
M  V30 141 H 12.4187 3.97031 0.562782 0
M  V30 142 H 9.0087 4.2004 -0.852297 0
M  V30 143 H 13.1927 4.65493 -1.72132 0
M  V30 144 H 8.4487 5.35616 -2.94831 0
M  V30 145 H 12.6227 5.8244 -3.81755 0
M  V30 146 H 10.2497 6.17298 -4.43675 0
M  V30 147 N 11.8248 0.280983 1.55075 0
M  V30 148 C 13.2408 -0.0729964 1.59433 0
M  V30 149 C 13.4408 -1.5411 1.29817 0
M  V30 150 O 12.4968 -2.29086 1.06187 0
M  V30 151 C 13.8098 0.306921 2.9913 0
M  V30 152 C 15.3578 0.254023 3.11968 0
M  V30 153 C 15.8328 0.608467 4.5394 0
M  V30 154 N 17.3238 0.560241 4.59799 0
M  V30 155 C 18.0588 0.80722 5.6769 0
M  V30 156 N 17.5548 1.11912 6.83701 0
M  V30 157 N 19.3478 0.735623 5.57266 0
M  V30 158 H 11.4988 1.238 1.7259 0
M  V30 159 H 13.7618 0.500547 0.805082 0
M  V30 160 H 13.4678 1.32816 3.25657 0
M  V30 161 H 13.3418 -0.349363 3.75579 0
M  V30 162 H 15.7288 -0.75794 2.852 0
M  V30 163 H 15.8098 0.944649 2.37718 0
M  V30 164 H 15.4538 1.61814 4.81434 0
M  V30 165 H 15.3838 -0.104013 5.26497 0
M  V30 166 H 17.8748 0.329288 3.76463 0
M  V30 167 H 18.1878 1.29409 7.61888 0
M  V30 168 H 16.5328 1.15695 6.85303 0
M  V30 169 H 19.7238 0.491752 4.6551 0
M  V30 170 H 19.8968 0.931482 6.4127 0
M  V30 171 N 13.3029 -1.57598 0.00835791 0
M  V30 172 C 14.5329 -1.94931 -0.684496 0
M  V30 173 C 14.9409 -0.882233 -1.67372 0
M  V30 174 O 14.2839 0.146621 -1.83114 0
M  V30 175 C 14.3459 -3.283 -1.4649 0
M  V30 176 C 14.0099 -4.52548 -0.63634 0
M  V30 177 C 15.0069 -5.19839 0.0795586 0
M  V30 178 C 12.6919 -4.98942 -0.579849 0
M  V30 179 C 14.6859 -6.3183 0.840843 0
M  V30 180 C 12.3729 -6.10819 0.185155 0
M  V30 181 C 13.3709 -6.77121 0.894227 0
M  V30 182 O 13.0589 -7.86853 1.64673 0
M  V30 183 H 12.7909 -0.647249 -0.19505 0
M  V30 184 H 15.3449 -2.05318 0.0581272 0
M  V30 185 H 13.5749 -3.14345 -2.2522 0
M  V30 186 H 15.2639 -3.50685 -2.04389 0
M  V30 187 H 16.0299 -4.84979 0.0451202 0
M  V30 188 H 11.9089 -4.47155 -1.1213 0
M  V30 189 H 15.4529 -6.83513 1.39483 0
M  V30 190 H 11.3499 -6.4512 0.221384 0
M  V30 191 H 12.1179 -8.03412 1.56432 0
M  V30 192 N 14.781 0.264519 -1.55364 0
M  V30 193 C 16.028 0.994986 -1.7637 0
M  V30 194 C 16.356 1.85976 -0.5695 0
M  V30 195 O 15.611 1.90509 0.44776 0
M  V30 196 C 15.91 1.9004 -3.02687 0
M  V30 197 C 15.576 1.19243 -4.34847 0
M  V30 198 C 14.238 0.996709 -4.70764 0
M  V30 199 C 16.59 0.689296 -5.16622 0
M  V30 200 C 13.918 0.285261 -5.86006 0
M  V30 201 C 16.27 -0.00860079 -6.32599 0
M  V30 202 C 14.934 -0.215963 -6.67151 0
M  V30 203 H 14.204 0.364091 -0.645383 0
M  V30 204 H 16.851 0.266543 -1.89636 0
M  V30 205 H 15.156 2.69533 -2.84357 0
M  V30 206 H 16.853 2.46695 -3.16137 0
M  V30 207 H 13.443 1.3549 -4.06621 0
M  V30 208 H 17.627 0.828108 -4.89342 0
M  V30 209 H 12.883 0.113961 -6.11294 0
M  V30 210 H 17.057 -0.406186 -6.95214 0
M  V30 211 H 14.684 -0.769217 -7.56298 0
M  V30 212 N 16.2591 1.48442 0.529413 0
M  V30 213 C 17.2061 1.63007 1.63394 0
M  V30 214 C 18.1761 0.47212 1.59249 0
M  V30 215 O 19.3611 0.695673 1.77666 0
M  V30 216 C 16.5011 1.6763 3.01653 0
M  V30 217 C 15.6141 2.94535 3.16027 0
M  V30 218 C 14.7491 2.90316 4.44849 0
M  V30 219 C 13.7881 4.11923 4.52754 0
M  V30 220 N 12.9251 4.05777 5.72965 0
M  V30 221 H 17.7651 2.5733 1.50285 0
M  V30 222 H 15.3021 1.27613 0.731656 0
M  V30 223 H 17.2601 1.68292 3.81751 0
M  V30 224 H 15.8901 0.76797 3.13532 0
M  V30 225 H 14.9421 3.03615 2.29177 0
M  V30 226 H 16.2541 3.84512 3.17729 0
M  V30 227 H 15.4081 2.89382 5.33238 0
M  V30 228 H 14.1471 1.98068 4.45668 0
M  V30 229 H 13.1521 4.13131 3.62771 0
M  V30 230 H 14.3771 5.0533 4.53672 0
M  V30 231 H 12.3231 3.16351 5.74681 0
M  V30 232 H 12.2401 4.8946 5.76164 0
M  V30 233 H 13.5081 4.08904 6.6364 0
M  V30 234 N 17.7372 -0.778329 1.37039 0
M  V30 235 C 18.6692 -1.90034 1.2814 0
M  V30 236 C 19.6822 -1.61585 0.198558 0
M  V30 237 O 20.8712 -1.72625 0.454175 0
M  V30 238 C 17.9712 -3.25108 0.956968 0
M  V30 239 C 17.1442 -3.81253 2.14394 0
M  V30 240 C 16.2032 -4.94789 1.79082 0
M  V30 241 O 15.2292 -5.10721 2.51301 0
M  V30 242 N 16.4312 -5.75878 0.731043 0
M  V30 243 H 19.1962 -1.98186 2.24816 0
M  V30 244 H 16.7572 -0.957129 1.30578 0
M  V30 245 H 18.7492 -3.9857 0.701701 0
M  V30 246 H 17.3192 -3.125 0.0789812 0
M  V30 247 H 16.5392 -2.99647 2.56135 0
M  V30 248 H 17.8272 -4.15495 2.93668 0
M  V30 249 H 17.2252 -5.65547 0.131618 0
M  V30 250 H 15.7822 -6.49596 0.535622 0
M  V30 251 N 19.2153 -1.21501 -1.00376 0
M  V30 252 C 20.1623 -0.975387 -2.09177 0
M  V30 253 C 21.1323 0.0990615 -1.65804 0
M  V30 254 O 22.3173 -0.0483147 -1.90739 0
M  V30 255 C 19.4573 -0.547507 -3.40729 0
M  V30 256 C 18.5703 -1.69153 -3.97506 0
M  V30 257 C 17.7053 -1.2127 -5.17172 0
M  V30 258 C 16.7443 -2.32897 -5.66061 0
M  V30 259 N 15.8813 -1.86138 -6.76976 0
M  V30 260 H 20.7213 -1.9068 -2.29009 0
M  V30 261 H 18.2583 -0.950257 -1.12288 0
M  V30 262 H 20.2163 -0.280667 -4.16255 0
M  V30 263 H 18.8463 0.346904 -3.20931 0
M  V30 264 H 17.8983 -2.07298 -3.18954 0
M  V30 265 H 19.2103 -2.5316 -4.29781 0
M  V30 266 H 18.3643 -0.902591 -5.99948 0
M  V30 267 H 17.1033 -0.342692 -4.86495 0
M  V30 268 H 16.1083 -2.64709 -4.81881 0
M  V30 269 H 17.3333 -3.20396 -5.98768 0
M  V30 270 H 15.2793 -1.01484 -6.48103 0
M  V30 271 H 15.1963 -2.63717 -7.08512 0
M  V30 272 H 16.4643 -1.58165 -7.63285 0
M  V30 273 N 20.6934 1.19889 -1.02296 0
M  V30 274 C 21.9414 1.89046 -0.714558 0
M  V30 275 C 22.2624 1.79636 0.758681 0
M  V30 276 O 21.5324 1.20292 1.54618 0
M  V30 277 H 20.1124 0.699802 -0.261317 0
M  V30 278 H 22.7744 1.45574 -1.29592 0
M  V30 279 H 21.8704 2.95524 -1.0036 0
M  V30 280 N 22.1715 0.800033 1.35784 0
M  V30 281 C 23.0815 0.207204 2.33683 0
M  V30 282 C 24.0975 -0.64631 1.61551 0
M  V30 283 O 25.2735 -0.559604 1.93469 0
M  V30 284 C 22.3385 -0.639659 3.40748 0
M  V30 285 C 21.3995 0.233585 4.28664 0
M  V30 286 C 20.6325 -0.572954 5.30616 0
M  V30 287 O 20.8555 -1.80816 5.40982 0
M  V30 288 O 19.7895 0.0327285 6.01891 0
M  V30 289 H 23.6155 1.01692 2.86169 0
M  V30 290 H 21.2005 0.561691 1.38439 0
M  V30 291 H 23.0825 -1.12223 4.06182 0
M  V30 292 H 21.7575 -1.42708 2.90544 0
M  V30 293 H 20.6645 0.763147 3.66233 0
M  V30 294 H 21.9975 0.984784 4.82248 0
M  V30 295 N 23.6496 -1.47581 0.552962 0
M  V30 296 C 24.8776 -2.06875 0.0320556 0
M  V30 297 C 25.2926 -1.40625 -1.25976 0
M  V30 298 O 24.6496 -0.501349 -1.75479 0
M  V30 299 C 24.7006 -3.61092 -0.17167 0
M  V30 300 O 24.4216 -4.24858 1.06899 0
M  V30 301 C 25.9226 -4.37242 -0.730344 0
M  V30 302 H 23.1426 -0.669561 0.043915 0
M  V30 303 H 25.6866 -1.89646 0.765163 0
M  V30 304 H 23.8416 -3.7785 -0.854894 0
M  V30 305 H 24.2556 -5.17334 0.864059 0
M  V30 306 H 25.7296 -5.45842 -0.822203 0
M  V30 307 H 26.2066 -4.03235 -1.74064 0
M  V30 308 H 26.8126 -4.25219 -0.0829543 0
M  V30 309 N 25.1277 -0.289203 -1.54924 0
M  V30 310 C 26.3747 0.323519 -1.99899 0
M  V30 311 C 26.7027 1.54797 -1.17762 0
M  V30 312 O 25.9577 1.94237 -0.238835 0
M  V30 313 C 26.2567 0.736119 -3.49737 0
M  V30 314 C 25.9227 -0.385276 -4.49251 0
M  V30 315 C 24.5847 -0.693156 -4.76181 0
M  V30 316 C 26.9367 -1.14021 -5.08575 0
M  V30 317 C 24.2647 -1.7593 -5.59701 0
M  V30 318 C 26.6167 -2.19619 -5.93254 0
M  V30 319 C 25.2807 -2.51026 -6.185 0
M  V30 320 H 24.5507 0.118384 -0.731482 0
M  V30 321 H 27.1977 -0.405847 -1.8715 0
M  V30 322 H 25.5027 1.54539 -3.60035 0
M  V30 323 H 27.1997 1.22118 -3.81953 0
M  V30 324 H 23.7897 -0.135202 -4.28387 0
M  V30 325 H 27.9737 -0.915611 -4.87781 0
M  V30 326 H 23.2297 -2.0075 -5.77503 0
M  V30 327 H 27.4037 -2.78581 -6.38252 0
M  V30 328 H 25.0307 -3.33772 -6.83008 0
M  V30 329 N 26.6058 1.57591 -0.0167156 0
M  V30 330 C 27.5688 2.08393 0.954204 0
M  V30 331 C 28.5688 0.996531 1.26198 0
M  V30 332 O 29.7588 1.25858 1.20438 0
M  V30 333 C 26.8908 2.5394 2.27436 0
M  V30 334 H 28.0838 2.95455 0.514451 0
M  V30 335 H 25.6368 1.54582 0.231089 0
M  V30 336 H 26.3718 1.70171 2.76066 0
M  V30 337 H 26.1568 3.33371 2.06412 0
M  V30 338 H 27.6468 2.93512 2.97053 0
M  V30 339 N 28.0839 -0.256276 1.55502 0
M  V30 340 C 29.3609 -1.00789 1.67633 0
M  V30 341 C 29.7409 -2.03706 0.553826 0
M  V30 342 O 29.0889 -2.24145 -0.443969 0
M  V30 343 C 29.2989 -1.64968 3.07549 0
M  V30 344 C 30.6469 -2.15505 3.65845 0
M  V30 345 O 31.6709 -1.74925 3.1029 0
M  V30 346 O 30.5299 -2.89986 4.63217 0
M  V30 347 H 27.6239 -0.468553 0.681459 0
M  V30 348 H 30.1699 -0.250806 1.67836 0
M  V30 349 H 28.9419 -0.904785 3.80696 0
M  V30 350 H 28.5649 -2.47321 3.11317 0
M  V30 351 N 29.562 -1.4872 -0.521534 0
M  V30 352 C 30.81 -1.56857 -1.27437 0
M  V30 353 C 31.131 -0.247982 -1.93417 0
M  V30 354 O 30.401 0.731151 -1.81744 0
M  V30 355 H 28.981 -0.577885 -0.473347 0
M  V30 356 H 31.643 -1.85233 -0.606205 0
M  V30 357 H 30.739 -2.35402 -2.0492 0
M  V30 358 N 31.0401 0.771051 -1.3745 0
M  V30 359 C 31.9901 1.87456 -1.29785 0
M  V30 360 C 32.9741 1.59827 -0.185541 0
M  V30 361 O 34.1661 1.71945 -0.419997 0
M  V30 362 C 31.2951 3.24935 -1.1078 0
M  V30 363 C 30.3811 3.58514 -2.26558 0
M  V30 364 N 30.7721 3.6327 -3.5195 0
M  V30 365 C 29.0701 3.88683 -2.18727 0
M  V30 366 C 29.7711 3.93616 -4.283 0
M  V30 367 N 28.7471 4.09551 -3.57448 0
M  V30 368 H 32.5491 1.89386 -2.24745 0
M  V30 369 H 30.0631 0.967531 -1.30432 0
M  V30 370 H 32.0601 4.03881 -1.03374 0
M  V30 371 H 30.7201 3.24268 -0.16738 0
M  V30 372 H 31.7311 3.45458 -3.85848 0
M  V30 373 H 28.4081 3.95834 -1.32746 0
M  V30 374 H 29.7981 4.04066 -5.36824 0
M  V30 375 N 32.5182 1.22032 0.997298 0
M  V30 376 C 33.7662 1.04016 1.73278 0
M  V30 377 C 34.0872 -0.426255 1.90284 0
M  V30 378 O 33.3572 -1.30694 1.45931 0
M  V30 379 H 31.9372 0.381897 0.642 0
M  V30 380 H 34.5992 1.5347 1.20137 0
M  V30 381 H 33.6952 1.51441 2.72896 0
M  V30 382 N 33.9963 -1.19345 1.0293 0
M  V30 383 C 34.9283 -2.22036 0.56857 0
M  V30 384 C 35.9413 -1.58865 -0.355779 0
M  V30 385 O 37.1303 -1.77851 -0.152103 0
M  V30 386 C 34.2303 -3.38363 -0.190752 0
M  V30 387 C 33.4033 -4.31118 0.738643 0
M  V30 388 C 32.4623 -5.26194 0.0246497 0
M  V30 389 O 31.4883 -5.65461 0.651354 0
M  V30 390 N 32.6903 -5.66971 -1.24594 0
M  V30 391 H 35.4553 -2.6219 1.45177 0
M  V30 392 H 33.0163 -1.34015 0.908381 0
M  V30 393 H 35.0083 -3.98981 -0.677961 0
M  V30 394 H 33.5783 -2.96994 -0.975366 0
M  V30 395 H 32.7983 -3.68276 1.40593 0
M  V30 396 H 34.0863 -4.90001 1.37029 0
M  V30 397 H 33.4843 -5.37104 -1.77583 0
M  V30 398 H 32.0413 -6.2984 -1.67764 0
M  V30 399 N 35.4744 -0.807222 -1.35358 0
M  V30 400 C 36.4044 -0.232509 -2.3234 0
M  V30 401 C 37.3854 0.642386 -1.57504 0
M  V30 402 O 38.5704 0.572526 -1.85569 0
M  V30 403 C 35.7004 0.619238 -3.41735 0
M  V30 404 C 34.6544 -0.157215 -4.27711 0
M  V30 405 C 33.9804 0.816273 -5.28433 0
M  V30 406 C 35.2804 -1.35656 -5.04376 0
M  V30 407 H 36.9744 -1.04276 -2.80654 0
M  V30 408 H 34.5204 -0.50288 -1.34934 0
M  V30 409 H 36.4734 1.03137 -4.08584 0
M  V30 410 H 35.1974 1.46239 -2.92031 0
M  V30 411 H 33.8564 -0.550525 -3.62443 0
M  V30 412 H 33.5044 1.65494 -4.74996 0
M  V30 413 H 33.2044 0.301067 -5.86828 0
M  V30 414 H 34.7284 1.22659 -5.98153 0
M  V30 415 H 36.1424 -1.01927 -5.64166 0
M  V30 416 H 34.5394 -1.8063 -5.7227 0
M  V30 417 H 35.6094 -2.14288 -4.34981 0
M  V30 418 N 36.9525 1.47285 -0.560781 0
M  V30 419 C 37.8825 2.32857 0.173105 0
M  V30 420 C 38.8635 1.44009 0.905281 0
M  V30 421 O 40.0485 1.7286 0.885046 0
M  V30 422 C 37.1785 3.25861 1.20133 0
M  V30 423 C 36.1325 4.23978 0.585388 0
M  V30 424 C 35.4585 5.06332 1.7185 0
M  V30 425 C 36.7585 5.20242 -0.463178 0
M  V30 426 H 38.4525 2.94466 -0.541307 0
M  V30 427 H 35.9985 1.41601 -0.261764 0
M  V30 428 H 37.9515 3.84569 1.72293 0
M  V30 429 H 36.6755 2.62315 1.94573 0
M  V30 430 H 35.3345 3.66501 0.085054 0
M  V30 431 H 34.9825 4.39186 2.45203 0
M  V30 432 H 34.6825 5.72762 1.31213 0
M  V30 433 H 36.2065 5.67899 2.24329 0
M  V30 434 H 37.6205 5.73293 -0.027502 0
M  V30 435 H 36.0175 5.94896 -0.788627 0
M  V30 436 H 37.0875 4.65504 -1.35773 0
M  V30 437 N 38.4306 0.297415 1.54768 0
M  V30 438 C 39.3786 -0.596051 2.24833 0
M  V30 439 C 40.3726 -1.13992 1.25308 0
M  V30 440 O 41.5786 -1.09098 1.4317 0
M  V30 441 H 37.9536 -0.210814 0.721846 0
M  V30 442 H 39.9246 0.0174667 2.98395 0
M  V30 443 C 38.6736 -1.75818 2.99972 0
M  V30 444 H 37.9966 -1.3489 3.76357 0
M  V30 445 H 39.4366 -2.35949 3.52284 0
M  V30 446 C 37.8956 -2.66014 2.06732 0
M  V30 447 O 38.4256 -3.67009 1.63302 0
M  V30 448 N 36.6316 -2.33669 1.72763 0
M  V30 449 H 36.1786 -1.51586 2.08277 0
M  V30 450 H 36.1366 -2.94285 1.10652 0
M  V30 451 N 39.9087 -1.5758 0.0250728 0
M  V30 452 C 41.1367 -1.9593 -0.664747 0
M  V30 453 C 41.5517 -0.901352 -1.65895 0
M  V30 454 O 40.9087 0.117255 -1.82123 0
M  V30 455 C 40.9597 -3.34342 -1.37468 0
M  V30 456 O 40.6807 -4.36079 -0.420324 0
M  V30 457 C 42.1817 -3.873 -2.1567 0
M  V30 458 H 39.4017 -0.645405 -0.183557 0
M  V30 459 H 41.9457 -2.04329 0.0836372 0
M  V30 460 H 40.1007 -3.27175 -2.0745 0
M  V30 461 H 40.5147 -5.16297 -0.923991 0
M  V30 462 H 41.9887 -4.86504 -2.60803 0
M  V30 463 H 42.4657 -3.21331 -2.99405 0
M  V30 464 H 43.0717 -3.97723 -1.50654 0
M  V30 465 N 41.3868 0.248026 -1.55636 0
M  V30 466 C 42.3348 1.32683 -1.91045 0
M  V30 467 C 43.3288 1.49883 -0.789401 0
M  V30 468 O 44.5348 1.51371 -0.974007 0
M  V30 469 H 40.9098 0.444272 -0.606734 0
M  V30 470 H 42.8808 1.00085 -2.81115 0
M  V30 471 C 41.6298 2.6755 -2.22064 0
M  V30 472 H 40.9528 2.55114 -3.07826 0
M  V30 473 H 42.3928 3.41912 -2.50743 0
M  V30 474 C 40.8518 3.20556 -1.0366 0
M  V30 475 O 41.3818 4.00695 -0.284016 0
M  V30 476 N 39.5878 2.78568 -0.82753 0
M  V30 477 H 39.1348 2.1351 -1.44123 0
M  V30 478 H 39.0928 3.14378 -0.0369803 0
M  V30 479 N 42.8649 1.48995 0.513639 0
M  V30 480 C 44.2809 1.35478 0.843682 0
M  V30 481 C 44.4809 0.378213 1.97919 0
M  V30 482 O 43.5369 -0.194689 2.51748 0
M  V30 483 C 44.8499 2.75901 1.1958 0
M  V30 484 C 46.3979 2.84509 1.30474 0
M  V30 485 C 46.8729 4.25671 1.69021 0
M  V30 486 N 48.3639 4.28422 1.76094 0
M  V30 487 C 49.0989 5.34601 2.07338 0
M  V30 488 N 48.5949 6.5104 2.36894 0
M  V30 489 N 50.3879 5.22007 2.08483 0
M  V30 490 H 42.5389 2.11092 -0.235328 0
M  V30 491 H 44.8019 0.947039 -0.0426669 0
M  V30 492 H 44.5079 3.49001 0.434913 0
M  V30 493 H 44.3819 3.10467 2.1422 0
M  V30 494 H 46.7689 2.11655 2.05637 0
M  V30 495 H 46.8499 2.53542 0.339155 0
M  V30 496 H 46.4939 4.99048 0.944135 0
M  V30 497 H 46.4239 4.54094 2.66658 0
M  V30 498 H 48.9149 3.44441 1.55464 0
M  V30 499 H 49.2279 7.2779 2.59887 0
M  V30 500 H 47.5729 6.54287 2.34378 0
M  V30 501 H 50.7639 4.30051 1.84861 0
M  V30 502 H 50.9369 6.04854 2.325 0
M  V30 503 N 44.343 -0.763751 1.37857 0
M  V30 504 C 45.62 -1.51244 1.24035 0
M  V30 505 C 46 -2.10472 -0.162649 0
M  V30 506 O 45.348 -1.96206 -1.17112 0
M  V30 507 C 45.558 -2.58694 2.34261 0
M  V30 508 C 46.906 -3.25878 2.72193 0
M  V30 509 O 47.93 -2.68993 2.33497 0
M  V30 510 O 46.789 -4.2874 3.38887 0
M  V30 511 H 43.883 -0.670243 0.484462 0
M  V30 512 H 46.429 -0.800031 1.49658 0
M  V30 513 H 45.201 -2.13105 3.2818 0
M  V30 514 H 44.824 -3.37527 2.10146 0
M  V30 515 N 45.8211 -1.22559 -0.990812 0
M  V30 516 C 47.0671 -1.06303 -1.73411 0
M  V30 517 C 47.4221 0.397442 -1.8825 0
M  V30 518 O 46.7151 1.29062 -1.41611 0
M  V30 519 C 46.9091 -1.71011 -3.13831 0
M  V30 520 C 46.7381 -3.232 -3.12685 0
M  V30 521 C 45.5081 -3.92314 -3.18461 0
M  V30 522 C 47.7061 -4.20107 -2.96673 0
M  V30 523 N 45.6881 -5.31571 -3.07091 0
M  V30 524 C 47.0591 -5.46208 -2.93354 0
M  V30 525 C 49.1141 -4.10973 -2.8108 0
M  V30 526 C 47.8171 -6.64225 -2.76039 0
M  V30 527 C 49.8431 -5.28642 -2.65126 0
M  V30 528 C 49.2051 -6.53663 -2.62496 0
M  V30 529 H 45.3041 -0.443441 -0.644115 0
M  V30 530 H 47.8881 -1.55131 -1.17654 0
M  V30 531 H 46.0591 -1.2473 -3.67827 0
M  V30 532 H 47.7911 -1.47828 -3.76735 0
M  V30 533 H 44.5461 -3.43326 -3.26227 0
M  V30 534 H 44.9701 -6.0455 -3.0471 0
M  V30 535 H 49.6121 -3.15098 -2.8191 0
M  V30 536 H 47.3301 -7.60246 -2.73954 0
M  V30 537 H 50.9161 -5.23407 -2.54039 0
M  V30 538 H 49.7961 -7.43182 -2.50302 0
M  V30 539 N 47.2992 1.18797 -1.03562 0
M  V30 540 C 48.2092 2.25913 -0.632505 0
M  V30 541 C 49.2252 1.70668 0.338882 0
M  V30 542 O 50.4012 2.00453 0.195076 0
M  V30 543 C 47.4662 3.467 0.00350942 0
M  V30 544 C 46.5272 4.17098 -1.01624 0
M  V30 545 C 45.7602 5.32119 -0.410478 0
M  V30 546 O 45.9832 5.64976 0.784725 0
M  V30 547 O 44.9172 5.9107 -1.13667 0
M  V30 548 H 48.7432 2.62648 -1.52478 0
M  V30 549 H 46.3282 1.25781 -0.806195 0
M  V30 550 H 48.2102 4.19878 0.35781 0
M  V30 551 H 46.8852 3.11798 0.869686 0
M  V30 552 H 45.7922 3.4601 -1.42224 0
M  V30 553 H 47.1252 4.55987 -1.85301 0
M  V30 554 N 48.7773 0.814389 1.34928 0
M  V30 555 C 50.0543 0.321363 1.92942 0
M  V30 556 C 50.4343 -1.19014 1.74353 0
M  V30 557 O 49.7823 -1.99328 1.11716 0
M  V30 558 C 49.9923 0.741323 3.41036 0
M  V30 559 C 51.3403 0.735266 4.18185 0
M  V30 560 O 52.3643 0.68336 3.49584 0
M  V30 561 O 51.2233 0.800703 5.40602 0
M  V30 562 H 48.3173 0.0858893 0.822528 0
M  V30 563 H 50.8633 0.898609 1.43955 0
M  V30 564 H 49.6353 1.78276 3.4833 0
M  V30 565 H 49.2583 0.139307 3.97356 0
M  V30 566 N 50.2554 -1.46986 0.568584 0
M  V30 567 C 51.5034 -2.02041 0.0487022 0
M  V30 568 C 51.8244 -1.44408 -1.31039 0
M  V30 569 O 51.0944 -0.623477 -1.85714 0
M  V30 570 H 49.6744 -0.746849 0.015014 0
M  V30 571 H 52.3364 -1.80257 0.741168 0
M  V30 572 H 51.4324 -3.12085 -0.0308961 0
M  V30 573 N 51.7335 -0.305618 -1.54608 0
M  V30 574 C 52.9635 0.304333 -2.04346 0
M  V30 575 C 53.3715 1.47715 -1.18224 0
M  V30 576 O 52.7145 1.82591 -0.201577 0
M  V30 577 C 52.7765 0.819031 -3.50046 0
M  V30 578 C 52.4405 -0.22912 -4.56425 0
M  V30 579 C 53.4375 -1.05914 -5.08997 0
M  V30 580 C 51.1225 -0.372148 -5.0092 0
M  V30 581 C 53.1165 -2.01809 -6.04609 0
M  V30 582 C 50.8035 -1.33454 -5.9635 0
M  V30 583 C 51.8015 -2.15599 -6.48079 0
M  V30 584 O 51.4895 -3.10205 -7.41639 0
M  V30 585 H 51.2215 0.0693996 -0.672428 0
M  V30 586 H 53.7755 -0.444548 -2.00532 0
M  V30 587 H 52.0055 1.61852 -3.51199 0
M  V30 588 H 53.6945 1.34537 -3.82955 0
M  V30 589 H 54.4605 -0.959538 -4.75413 0
M  V30 590 H 50.3395 0.257304 -4.60281 0
M  V30 591 H 53.8835 -2.65966 -6.44909 0
M  V30 592 H 49.7805 -1.43485 -6.29351 0
M  V30 593 H 50.5485 -3.05237 -7.59455 0
M  V30 594 N 53.2116 1.57565 -0.0334293 0
M  V30 595 C 54.6276 1.56297 0.322997 0
M  V30 596 C 54.8276 1.03945 1.7262 0
M  V30 597 O 53.8836 0.688109 2.42943 0
M  V30 598 C 55.1966 3.00232 0.167664 0
M  V30 599 C 56.7446 3.12078 0.240107 0
M  V30 600 C 57.2196 4.57859 0.113513 0
M  V30 601 N 58.7106 4.62887 0.170359 0
M  V30 602 C 59.4456 5.73319 0.0962517 0
M  V30 603 N 58.9416 6.92794 -0.0291881 0
M  V30 604 N 60.7346 5.61898 0.150551 0
M  V30 605 H 52.8856 1.89923 -0.950956 0
M  V30 606 H 55.1486 0.873824 -0.367608 0
M  V30 607 H 54.8546 3.42501 -0.799102 0
M  V30 608 H 54.7286 3.654 0.936083 0
M  V30 609 H 57.1156 2.69718 1.19733 0
M  V30 610 H 57.1966 2.49623 -0.558763 0
M  V30 611 H 56.8406 5.009 -0.840314 0
M  V30 612 H 56.7706 5.18299 0.931302 0
M  V30 613 H 59.2616 3.76954 0.26728 0
M  V30 614 H 59.5746 7.7276 -0.0789252 0
M  V30 615 H 57.9196 6.94971 -0.0640299 0
M  V30 616 H 61.1106 4.67448 0.246981 0
M  V30 617 H 61.2836 6.47938 0.0893365 0
M  V30 618 N 54.6897 -0.239769 1.55765 0
M  V30 619 C 55.6217 -1.32001 1.87372 0
M  V30 620 C 56.6347 -1.43944 0.760522 0
M  V30 621 O 57.8237 -1.45167 1.0387 0
M  V30 622 C 54.9237 -2.69779 2.05115 0
M  V30 623 C 54.0967 -2.80014 3.36022 0
M  V30 624 C 53.1557 -3.98684 3.4342 0
M  V30 625 O 52.1817 -3.87877 4.16582 0
M  V30 626 N 53.3837 -5.12176 2.73232 0
M  V30 627 H 56.1487 -1.0522 2.80622 0
M  V30 628 H 53.7097 -0.429857 1.56089 0
M  V30 629 H 55.7017 -3.47517 2.07399 0
M  V30 630 H 54.2717 -2.89237 1.18577 0
M  V30 631 H 53.4917 -1.88896 3.45994 0
M  V30 632 H 54.7797 -2.83808 4.22292 0
M  V30 633 H 54.1777 -5.2385 2.13536 0
M  V30 634 H 52.7347 -5.88022 2.81199 0
M  V30 635 N 56.1678 -1.49265 -0.50573 0
M  V30 636 C 57.5838 -1.35923 -0.836486 0
M  V30 637 C 57.7838 -0.388704 -1.97715 0
M  V30 638 O 56.8398 0.181336 -2.51848 0
M  V30 639 C 58.1528 -2.76531 -1.18115 0
M  V30 640 C 59.7008 -2.85197 -1.28964 0
M  V30 641 C 60.1758 -4.26561 -1.66761 0
M  V30 642 N 61.6668 -4.2935 -1.73819 0
M  V30 643 C 62.4018 -5.35693 -2.045 0
M  V30 644 N 61.8978 -6.52287 -2.33438 0
M  V30 645 N 63.6908 -5.23105 -2.05711 0
M  V30 646 H 55.8418 -2.10965 0.246519 0
M  V30 647 H 58.1048 -0.9468 0.0476887 0
M  V30 648 H 57.8108 -3.49226 -0.416398 0
M  V30 649 H 57.6848 -3.11599 -2.1257 0
M  V30 650 H 60.0718 -2.12742 -2.04511 0
M  V30 651 H 60.1528 -2.53718 -0.325704 0
M  V30 652 H 59.7968 -4.99541 -0.917656 0
M  V30 653 H 59.7268 -4.55502 -2.64246 0
M  V30 654 H 62.2178 -3.4526 -1.53635 0
M  V30 655 H 62.5308 -7.29158 -2.56024 0
M  V30 656 H 60.8758 -6.55521 -2.30905 0
M  V30 657 H 64.0668 -4.31026 -1.82577 0
M  V30 658 H 64.2398 -6.06078 -2.29289 0
M  V30 659 N 57.6459 0.756429 -1.3826 0
M  V30 660 C 58.8919 1.5168 -1.35517 0
M  V30 661 C 59.2469 1.9232 0.0554451 0
M  V30 662 O 58.5399 1.62352 1.01746 0
M  V30 663 C 58.7339 2.78313 -2.24224 0
M  V30 664 C 58.5629 2.50053 -3.7377 0
M  V30 665 C 57.3329 2.43414 -4.42807 0
M  V30 666 C 59.5309 2.1702 -4.66269 0
M  V30 667 N 57.5129 2.07398 -5.77805 0
M  V30 668 C 58.8839 1.91271 -5.89759 0
M  V30 669 C 60.9389 2.03305 -4.54501 0
M  V30 670 C 59.6419 1.53192 -7.02798 0
M  V30 671 C 61.6679 1.66627 -5.67441 0
M  V30 672 C 61.0299 1.4175 -6.8999 0
M  V30 673 H 57.1289 0.554735 -0.551174 0
M  V30 674 H 59.7129 0.881106 -1.73622 0
M  V30 675 H 57.8839 3.39696 -1.88311 0
M  V30 676 H 59.6159 3.44343 -2.12627 0
M  V30 677 H 56.3709 2.59789 -3.95988 0
M  V30 678 H 56.7949 1.92044 -6.4919 0
M  V30 679 H 61.4369 2.21215 -3.60311 0
M  V30 680 H 59.1549 1.34022 -7.96909 0
M  V30 681 H 62.7409 1.56652 -5.60314 0
M  V30 682 H 61.6209 1.1379 -7.759 0
M  V30 683 N 59.124 1.23083 0.984299 0
M  V30 684 C 60.056 0.96636 2.07832 0
M  V30 685 C 61.069 -0.0582135 1.62696 0
M  V30 686 O 62.258 0.176843 1.77622 0
M  V30 687 C 59.358 0.433397 3.36117 0
M  V30 688 C 58.531 1.51722 4.10243 0
M  V30 689 C 57.59 0.989821 5.16807 0
M  V30 690 O 56.616 1.67794 5.43906 0
M  V30 691 N 57.818 -0.184367 5.80207 0
M  V30 692 H 60.583 1.90824 2.31098 0
M  V30 693 H 58.144 1.13888 1.1507 0
M  V30 694 H 60.136 0.065699 4.04647 0
M  V30 695 H 58.706 -0.413806 3.09849 0
M  V30 696 H 57.926 2.05786 3.36223 0
M  V30 697 H 59.214 2.24619 4.56534 0
M  V30 698 H 58.612 -0.760062 5.60571 0
M  V30 699 H 57.169 -0.493366 6.4993 0
M  V30 700 N 60.6021 -1.18246 1.0419 0
M  V30 701 C 61.5521 -2.19843 0.604392 0
M  V30 702 C 62.5361 -1.56962 -0.353814 0
M  V30 703 O 63.7281 -1.76156 -0.17267 0
M  V30 704 C 60.8571 -3.43287 -0.0298975 0
M  V30 705 C 59.9431 -4.13288 0.951531 0
M  V30 706 N 60.3341 -4.59271 2.11906 0
M  V30 707 C 58.6321 -4.39165 0.7778 0
M  V30 708 C 59.3331 -5.13173 2.73912 0
M  V30 709 N 58.3091 -5.04763 2.01779 0
M  V30 710 H 62.1111 -2.53089 1.4941 0
M  V30 711 H 59.6251 -1.34465 0.910658 0
M  V30 712 H 61.6221 -4.15334 -0.361037 0
M  V30 713 H 60.2821 -3.11537 -0.915127 0
M  V30 714 H 61.2931 -4.5368 2.49789 0
M  V30 715 H 57.9701 -4.17461 -0.0572331 0
M  V30 716 H 59.3601 -5.58947 3.72864 0
M  V30 717 N 62.0802 -0.821533 -1.34494 0
M  V30 718 C 63.3572 -0.33159 -1.92769 0
M  V30 719 C 63.7372 1.18088 -1.74981 0
M  V30 720 O 63.0852 1.98733 -1.12772 0
M  V30 721 C 63.2952 -0.759398 -3.40638 0
M  V30 722 C 64.6432 -0.757433 -4.1779 0
M  V30 723 O 65.6672 -0.70189 -3.49216 0
M  V30 724 O 64.5262 -0.829361 -5.4017 0
M  V30 725 H 61.6202 -0.0902502 -0.822061 0
M  V30 726 H 64.1662 -0.906231 -1.43477 0
M  V30 727 H 62.9382 -1.8012 -3.47379 0
M  V30 728 H 62.5612 -0.160378 -3.97276 0
M  V30 729 N 63.5583 1.46682 -0.576371 0
M  V30 730 C 64.5053 2.30241 0.160499 0
M  V30 731 C 65.4753 1.40233 0.890162 0
M  V30 732 O 66.6603 1.69186 0.882084 0
M  V30 733 C 63.8003 3.24578 1.1723 0
M  V30 734 C 62.9133 4.29684 0.446736 0
M  V30 735 C 62.0483 5.11154 1.44551 0
M  V30 736 C 61.0873 6.08015 0.70599 0
M  V30 737 N 60.2243 6.82376 1.65251 0
M  V30 738 H 65.0643 2.92727 -0.558127 0
M  V30 739 H 62.6013 1.44272 -0.287056 0
M  V30 740 H 64.5593 3.77711 1.77172 0
M  V30 741 H 63.1893 2.63916 1.85872 0
M  V30 742 H 62.2413 3.79458 -0.267594 0
M  V30 743 H 63.5533 4.98626 -0.131686 0
M  V30 744 H 62.7073 5.68533 2.11791 0
M  V30 745 H 61.4463 4.42158 2.05786 0
M  V30 746 H 60.4513 5.49796 0.0197725 0
M  V30 747 H 61.6763 6.79028 0.09912 0
M  V30 748 H 59.6223 6.16094 2.25308 0
M  V30 749 H 59.5393 7.47556 1.12673 0
M  V30 750 H 60.8073 7.44316 2.31546 0
M  V30 751 N 65.0364 0.313813 1.54444 0
M  V30 752 C 66.2854 -0.292519 1.99568 0
M  V30 753 C 66.5984 -1.54011 1.20582 0
M  V30 754 O 67.8044 -2.22183 1.56035 0
M  V30 755 C 66.2604 -0.571752 3.55329 0
M  V30 756 C 65.8684 0.658229 4.43138 0
M  V30 757 C 67.6124 -1.13857 4.08946 0
M  V30 758 C 65.5194 0.351439 5.90355 0
M  V30 759 H 64.4494 -0.113079 0.745472 0
M  V30 760 H 67.1004 0.424518 1.78522 0
M  V30 761 H 65.4824 -1.34872 3.72325 0
M  V30 762 H 66.6564 1.43403 4.37918 0
M  V30 763 H 64.9714 1.14458 4.0036 0
M  V30 764 H 67.5684 -1.38257 5.16516 0
M  V30 765 H 67.9114 -2.08489 3.6033 0
M  V30 766 H 68.4444 -0.423015 3.95544 0
M  V30 767 H 65.1834 1.26667 6.43145 0
M  V30 768 H 64.7034 -0.386842 5.98551 0
M  V30 769 H 66.3824 -0.0423134 6.46986 0
M  V30 770 N 66.5145 -1.57545 0.0417849 0
M  V30 771 C 67.7605 -1.92601 -0.635021 0
M  V30 772 C 68.0935 -0.919627 -1.71045 0
M  V30 773 O 67.3685 0.0557892 -1.9442 0
M  V30 774 C 67.6515 -3.38085 -1.23979 0
M  V30 775 C 67.5045 -4.49467 -0.173057 0
M  V30 776 C 68.8235 -3.83776 -2.15416 0
M  V30 777 H 65.9425 -0.700397 -0.229374 0
M  V30 778 H 68.5845 -1.89728 0.101633 0
M  V30 779 H 66.7345 -3.40664 -1.86762 0
M  V30 780 H 68.4065 -4.59018 0.458312 0
M  V30 781 H 66.6495 -4.30909 0.499996 0
M  V30 782 H 67.3205 -5.48323 -0.636054 0
M  V30 783 H 69.7965 -3.83013 -1.62605 0
M  V30 784 H 68.6725 -4.8624 -2.54679 0
M  V30 785 H 68.9335 -3.19998 -3.05047 0
M  V30 786 N 67.9926 0.231505 -1.5589 0
M  V30 787 C 69.4086 0.580748 -1.48659 0
M  V30 788 C 69.6086 1.87617 -0.73498 0
M  V30 789 O 68.6646 2.51046 -0.270586 0
M  V30 790 C 69.9776 0.669202 -2.93159 0
M  V30 791 C 71.5256 0.760499 -3.03621 0
M  V30 792 C 72.0006 0.880383 -4.49459 0
M  V30 793 N 73.4916 0.944861 -4.53461 0
M  V30 794 C 74.2266 1.05716 -5.63571 0
M  V30 795 N 73.7226 1.13403 -6.83456 0
M  V30 796 N 75.5156 1.09152 -5.514 0
M  V30 797 H 67.6666 -0.618695 -2.03189 0
M  V30 798 H 69.9296 -0.215728 -0.923128 0
M  V30 799 H 69.6356 -0.212904 -3.51055 0
M  V30 800 H 69.5096 1.5361 -3.44505 0
M  V30 801 H 71.8966 1.63305 -2.45796 0
M  V30 802 H 71.9776 -0.131864 -2.5546 0
M  V30 803 H 71.6216 0.0123284 -5.07899 0
M  V30 804 H 71.5516 1.78802 -4.95316 0
M  V30 805 H 74.0426 0.896176 -3.6712 0
M  V30 806 H 74.3556 1.21921 -7.63122 0
M  V30 807 H 72.7006 1.10333 -6.86186 0
M  V30 808 H 75.8916 1.02805 -4.56671 0
M  V30 809 H 76.0646 1.17558 -6.37247 0
M  V30 810 N 69.4707 1.49531 0.497807 0
M  V30 811 C 70.6957 1.63159 1.28039 0
M  V30 812 C 71.1207 0.30418 1.85624 0
M  V30 813 O 70.4787 -0.728618 1.66015 0
M  V30 814 C 70.5267 2.70537 2.38416 0
M  V30 815 O 69.6307 2.29931 3.42353 0
M  V30 816 H 68.9717 0.546001 0.377861 0
M  V30 817 H 71.5017 1.9574 0.59558 0
M  V30 818 H 71.5117 2.92802 2.84132 0
M  V30 819 H 70.1867 3.6689 1.95869 0
M  V30 820 H 68.7637 2.18009 3.02533 0
M  V30 821 N 70.9488 -0.749086 1.3866 0
M  V30 822 C 72.1768 -1.53834 1.38358 0
M  V30 823 C 72.5918 -1.88783 -0.0255219 0
M  V30 824 O 71.9488 -1.53101 -0.993292 0
M  V30 825 C 71.9998 -2.83468 2.2434 0
M  V30 826 O 71.7208 -2.50008 3.5976 0
M  V30 827 C 73.2218 -3.7758 2.32267 0
M  V30 828 H 70.4418 -0.47585 0.473083 0
M  V30 829 H 72.9858 -0.926726 1.82297 0
M  V30 830 H 71.1408 -3.40995 1.83851 0
M  V30 831 H 71.5548 -3.33182 4.05081 0
M  V30 832 H 73.0288 -4.65478 2.96706 0
M  V30 833 H 73.5058 -4.18334 1.33765 0
M  V30 834 H 74.1118 -3.25976 2.73166 0
M  V30 835 N 72.4269 -1.23603 -0.977757 0
M  V30 836 C 73.3769 -0.986664 -2.05545 0
M  V30 837 C 74.3609 0.0683009 -1.60755 0
M  V30 838 O 75.5529 -0.144162 -1.76412 0
M  V30 839 C 72.6819 -0.582623 -3.3832 0
M  V30 840 C 71.7679 -1.67313 -3.89701 0
M  V30 841 N 72.1589 -2.90394 -4.14132 0
M  V30 842 C 70.4569 -1.54832 -4.18262 0
M  V30 843 C 71.1579 -3.61017 -4.56116 0
M  V30 844 N 70.1339 -2.8854 -4.60701 0
M  V30 845 H 73.9359 -1.92139 -2.22396 0
M  V30 846 H 71.4499 -1.1358 -1.16074 0
M  V30 847 H 73.4469 -0.38524 -4.15116 0
M  V30 848 H 72.1069 0.34503 -3.22862 0
M  V30 849 H 73.1179 -3.26673 -4.01877 0
M  V30 850 H 69.7949 -0.687969 -4.11793 0
M  V30 851 H 71.1849 -4.66544 -4.83514 0
M  V30 852 N 73.905 1.17692 -1.04816 0
M  V30 853 C 75.153 1.87488 -0.754497 0
M  V30 854 C 75.474 1.81205 0.720407 0
M  V30 855 O 74.744 1.23544 1.52032 0
M  V30 856 H 73.324 0.694101 -0.276102 0
M  V30 857 H 75.986 1.42793 -1.32651 0
M  V30 858 H 75.082 2.93328 -1.06606 0
M  V30 859 N 75.3831 0.828654 1.34056 0
M  V30 860 C 76.6291 0.42008 1.98402 0
M  V30 861 C 76.9621 -1.01564 1.65525 0
M  V30 862 O 76.2371 -1.70834 0.929831 0
M  V30 863 C 76.5201 0.62927 3.54559 0
M  V30 864 C 76.3731 2.11152 3.97159 0
M  V30 865 C 77.6921 0.0688756 4.40046 0
M  V30 866 H 74.8111 0.154104 0.720709 0
M  V30 867 H 77.4531 1.04228 1.5886 0
M  V30 868 H 75.6031 0.0996418 3.88372 0
M  V30 869 H 77.2751 2.70522 3.73651 0
M  V30 870 H 75.5181 2.59985 3.47261 0
M  V30 871 H 76.1891 2.20868 5.05887 0
M  V30 872 H 78.6651 0.521458 4.1282 0
M  V30 873 H 77.5411 0.245006 5.48353 0
M  V30 874 H 77.8021 -1.0266 4.30015 0
M  V30 875 N 76.8612 -1.46375 0.584142 0
M  V30 876 C 77.8092 -2.32042 -0.161047 0
M  V30 877 C 78.8032 -1.44569 -0.882966 0
M  V30 878 O 80.0092 -1.61186 -0.801191 0
M  V30 879 H 76.3842 -0.748659 -0.0708033 0
M  V30 880 H 78.3552 -2.92704 0.580269 0
M  V30 881 C 77.1042 -3.27762 -1.1605 0
M  V30 882 H 76.4272 -3.95051 -0.614419 0
M  V30 883 H 77.8672 -3.90481 -1.65228 0
M  V30 884 C 76.3262 -2.53218 -2.22221 0
M  V30 885 O 76.8562 -2.29628 -3.29597 0
M  V30 886 N 75.0622 -2.13756 -1.96868 0
M  V30 887 H 74.6092 -2.33142 -1.09557 0
M  V30 888 H 74.5672 -1.642 -2.68115 0
M  V30 889 N 78.3393 -0.321999 -1.54275 0
M  V30 890 C 79.5793 0.281657 -2.0245 0
M  V30 891 C 79.9433 1.49468 -1.20513 0
M  V30 892 O 81.1443 2.17109 -1.58484 0
M  V30 893 C 79.4153 0.609014 -3.52173 0
M  V30 894 S 80.9743 1.19255 -4.22284 0
M  V30 895 H 77.7923 0.0852825 -0.705867 0
M  V30 896 H 80.3943 -0.454758 -1.90137 0
M  V30 897 H 79.0983 -0.281982 -4.0943 0
M  V30 898 H 78.6293 1.37567 -3.68563 0
M  V30 899 H 80.6443 2.47944 -4.29812 0
M  V30 900 N 79.8174 1.5752 -0.0501392 0
M  V30 901 C 81.0454 1.96963 0.633492 0
M  V30 902 C 81.4604 0.927631 1.6444 0
M  V30 903 O 80.8174 -0.0882665 1.82286 0
M  V30 904 C 80.8684 3.36487 1.32132 0
M  V30 905 O 80.5894 4.36693 0.350894 0
M  V30 906 C 82.0904 3.90682 2.09481 0
M  V30 907 H 79.3104 0.648244 0.173266 0
M  V30 908 H 81.8544 2.0417 -0.116134 0
M  V30 909 H 80.0094 3.30434 2.02218 0
M  V30 910 H 80.4234 5.17702 0.841735 0
M  V30 911 H 81.8974 4.90591 2.5303 0
M  V30 912 H 82.3744 3.26053 2.94255 0
M  V30 913 H 82.9804 4.00069 1.44307 0
M  V30 914 N 81.2955 -0.223234 1.56011 0
M  V30 915 C 82.5435 -0.946003 1.78592 0
M  V30 916 C 82.8645 -1.84936 0.618349 0
M  V30 917 O 82.1345 -1.92473 -0.364833 0
M  V30 918 H 80.7145 -0.352298 0.658707 0
M  V30 919 H 83.3765 -0.235494 1.93472 0
M  V30 920 H 82.4725 -1.55381 2.70672 0
M  V30 921 N 82.7736 -1.49793 -0.48987 0
M  V30 922 C 83.9986 -1.63836 -1.27172 0
M  V30 923 C 84.4236 -0.31402 -1.8546 0
M  V30 924 O 83.7816 0.719803 -1.66399 0
M  V30 925 C 83.8296 -2.71797 -2.36978 0
M  V30 926 O 82.9336 -2.31744 -3.41128 0
M  V30 927 H 82.2746 -0.547997 -0.37496 0
M  V30 928 H 84.8046 -1.96053 -0.585191 0
M  V30 929 H 84.8146 -2.94305 -2.82575 0
M  V30 930 H 83.4896 -3.67923 -1.93921 0
M  V30 931 H 82.0666 -2.1961 -3.01373 0
M  V30 932 N 84.2517 0.741722 -1.39055 0
M  V30 933 C 85.4917 1.51385 -1.37338 0
M  V30 934 C 85.8557 1.91972 0.0330513 0
M  V30 935 O 87.0567 2.68229 0.175174 0
M  V30 936 C 85.3277 2.72481 -2.31276 0
M  V30 937 S 86.8867 3.62211 -2.47687 0
M  V30 938 H 83.7047 0.517906 -0.487129 0
M  V30 939 H 86.3067 0.86969 -1.7509 0
M  V30 940 H 85.0107 2.40793 -3.32336 0
M  V30 941 H 84.5417 3.41832 -1.94716 0
M  V30 942 H 86.5567 4.65812 -1.70978 0
M  V30 943 N 85.7298 1.2412 0.971189 0
M  V30 944 C 86.9548 1.10667 1.75407 0
M  V30 945 C 87.3798 -0.337048 1.85056 0
M  V30 946 O 86.7378 -1.24396 1.31892 0
M  V30 947 C 86.7858 1.74726 3.15441 0
M  V30 948 O 85.8898 1.01566 3.99697 0
M  V30 949 H 85.2308 0.387341 0.539317 0
M  V30 950 H 87.7608 1.64358 1.2185 0
M  V30 951 H 87.7708 1.80341 3.6598 0
M  V30 952 H 86.4458 2.79773 3.07734 0
M  V30 953 H 85.0228 1.03713 3.58187 0
M  V30 954 N 87.2079 -1.17134 1.05439 0
M  V30 955 C 88.4539 -1.87979 0.776872 0
M  V30 956 C 88.8089 -1.7965 -0.688751 0
M  V30 957 O 88.1019 -1.19535 -1.4974 0
M  V30 958 C 88.2959 -3.36833 1.19491 0
M  V30 959 C 88.1249 -3.59653 2.69963 0
M  V30 960 C 86.8949 -3.76234 3.37307 0
M  V30 961 C 89.0929 -3.59091 3.68182 0
M  V30 962 N 87.0749 -3.86922 4.76618 0
M  V30 963 C 88.4459 -3.75659 4.93235 0
M  V30 964 C 90.5009 -3.42255 3.61616 0
M  V30 965 C 89.2039 -3.77133 6.12506 0
M  V30 966 C 91.2299 -3.45018 4.8033 0
M  V30 967 C 90.5919 -3.62096 6.04207 0
M  V30 968 H 86.6909 -0.705876 0.336546 0
M  V30 969 H 89.2749 -1.40602 1.34682 0
M  V30 970 H 87.4459 -3.82873 0.652884 0
M  V30 971 H 89.1779 -3.95305 0.866966 0
M  V30 972 H 85.9329 -3.76193 2.87708 0
M  V30 973 H 86.3569 -3.96055 5.49062 0
M  V30 974 H 90.9989 -3.27986 2.66805 0
M  V30 975 H 88.7169 -3.90186 7.07659 0
M  V30 976 H 92.3029 -3.33246 4.76905 0
M  V30 977 H 91.1829 -3.64142 6.94529 0
M  V30 978 N 88.686 -0.835752 -1.33615 0
M  V30 979 C 89.633 -0.26473 -2.29277 0
M  V30 980 C 90.603 0.617712 -1.54187 0
M  V30 981 O 91.788 0.556641 -1.825 0
M  V30 982 C 88.928 0.556777 -3.40579 0
M  V30 983 C 88.041 -0.349339 -4.30585 0
M  V30 984 C 87.176 0.482969 -5.29 0
M  V30 985 C 86.215 -0.421732 -6.10645 0
M  V30 986 N 85.352 0.372262 -7.01112 0
M  V30 987 H 90.192 -1.08582 -2.77514 0
M  V30 988 H 87.729 -0.546927 -1.36554 0
M  V30 989 H 89.687 1.04852 -4.03809 0
M  V30 990 H 88.317 1.34286 -2.93542 0
M  V30 991 H 87.369 -0.959372 -3.68104 0
M  V30 992 H 88.681 -1.04445 -4.87742 0
M  V30 993 H 87.835 1.03866 -5.97743 0
M  V30 994 H 86.574 1.21153 -4.72412 0
M  V30 995 H 85.579 -0.989464 -5.40823 0
M  V30 996 H 86.804 -1.14861 -6.69316 0
M  V30 997 H 84.75 1.08426 -6.46977 0
M  V30 998 H 84.667 -0.264198 -7.55538 0
M  V30 999 H 85.935 0.910293 -7.74167 0
M  V30 1000 N 90.1641 1.46063 -0.591896 0
M  V30 1001 C 91.4131 2.01547 -0.0786637 0
M  V30 1002 C 91.7261 1.46796 1.29268 0
M  V30 1003 O 92.9321 1.94157 1.89777 0
M  V30 1004 C 91.3881 3.59787 -0.0900024 0
M  V30 1005 C 90.9961 4.23534 -1.46023 0
M  V30 1006 C 92.7401 4.22895 0.368806 0
M  V30 1007 C 90.6471 5.73881 -1.4288 0
M  V30 1008 H 89.5771 0.753564 -0.0256388 0
M  V30 1009 H 92.2281 1.677 -0.744905 0
M  V30 1010 H 90.6101 3.90752 0.642586 0
M  V30 1011 H 91.7841 4.04167 -2.21328 0
M  V30 1012 H 90.0991 3.72558 -1.85982 0
M  V30 1013 H 92.6961 5.33116 0.411258 0
M  V30 1014 H 93.0391 3.9247 1.38827 0
M  V30 1015 H 93.5721 3.9659 -0.31001 0
M  V30 1016 H 90.3111 6.0898 -2.42536 0
M  V30 1017 H 89.8311 5.95486 -0.718095 0
M  V30 1018 H 91.5101 6.36776 -1.14565 0
M  V30 1019 N 91.6422 0.330177 1.54103 0
M  V30 1020 C 92.8722 -0.271784 2.04805 0
M  V30 1021 C 93.2802 -1.45816 1.20559 0
M  V30 1022 O 92.6232 -1.82247 0.2306 0
M  V30 1023 C 92.6852 -0.763238 3.51305 0
M  V30 1024 C 92.3492 0.301705 4.56003 0
M  V30 1025 C 93.3462 1.13999 5.07248 0
M  V30 1026 C 91.0312 0.451793 5.00264 0
M  V30 1027 C 93.0252 2.11402 6.01322 0
M  V30 1028 C 90.7122 1.42924 5.94151 0
M  V30 1029 C 91.7102 2.25882 6.44567 0
M  V30 1030 O 91.3982 3.21965 7.3661 0
M  V30 1031 H 91.1302 -0.058693 0.673447 0
M  V30 1032 H 93.6842 0.476395 1.99799 0
M  V30 1033 H 91.9142 -1.56244 3.5373 0
M  V30 1034 H 93.6032 -1.28427 3.85047 0
M  V30 1035 H 94.3692 1.03505 4.73827 0
M  V30 1036 H 90.2482 -0.184044 4.60632 0
M  V30 1037 H 93.7922 2.76192 6.40596 0
M  V30 1038 H 89.6892 1.53479 6.26988 0
M  V30 1039 H 90.4572 3.17281 7.54503 0
M  V30 1040 N 93.1203 -1.57491 0.0584922 0
M  V30 1041 C 94.3663 -1.93264 -0.614558 0
M  V30 1042 C 94.6993 -0.937717 -1.7006 0
M  V30 1043 O 93.9743 0.0351652 -1.94468 0
M  V30 1044 C 94.2573 -3.3938 -1.20386 0
M  V30 1045 C 94.1103 -4.49625 -0.125375 0
M  V30 1046 C 95.4293 -3.86039 -2.11334 0
M  V30 1047 H 92.5483 -0.702791 -0.221933 0
M  V30 1048 H 95.1903 -1.8961 0.12175 0
M  V30 1049 H 93.3403 -3.42626 -1.83139 0
M  V30 1050 H 95.0123 -4.58506 0.506971 0
M  V30 1051 H 93.2553 -4.30354 0.545672 0
M  V30 1052 H 93.9263 -5.48967 -0.577861 0
M  V30 1053 H 96.4023 -3.84716 -1.58534 0
M  V30 1054 H 95.2783 -4.88914 -2.49507 0
M  V30 1055 H 95.5393 -3.23215 -3.01636 0
M  V30 1056 N 94.5984 0.214957 -1.56127 0
M  V30 1057 C 95.5454 1.26642 -1.92952 0
M  V30 1058 C 96.5154 1.46244 -0.78753 0
M  V30 1059 O 97.7004 1.59704 -1.04399 0
M  V30 1060 C 94.8404 2.6104 -2.25726 0
M  V30 1061 C 93.9534 2.49183 -3.52891 0
M  V30 1062 C 93.0884 3.76149 -3.7508 0
M  V30 1063 C 92.1274 3.59041 -4.95738 0
M  V30 1064 N 91.2644 4.77972 -5.14283 0
M  V30 1065 H 96.1044 0.945384 -2.82607 0
M  V30 1066 H 93.6414 0.455489 -1.3987 0
M  V30 1067 H 95.5994 3.39313 -2.42739 0
M  V30 1068 H 94.2294 2.91227 -1.39236 0
M  V30 1069 H 93.2814 1.6231 -3.44034 0
M  V30 1070 H 94.5934 2.32466 -4.41318 0
M  V30 1071 H 93.7474 4.62865 -3.92226 0
M  V30 1072 H 92.4864 3.95799 -2.84947 0
M  V30 1073 H 91.4914 2.7071 -4.78535 0
M  V30 1074 H 92.7164 3.40856 -5.87362 0
M  V30 1075 H 90.6624 4.97923 -4.27093 0
M  V30 1076 H 90.5794 4.64006 -5.96853 0
M  V30 1077 H 91.8474 5.66096 -5.35869 0
M  V30 1078 N 96.0765 1.50051 0.48192 0
M  V30 1079 C 97.0245 1.68635 1.60203 0
M  V30 1080 C 98.0185 0.552184 1.60148 0
M  V30 1081 O 99.2245 0.732377 1.64427 0
M  V30 1082 H 95.5995 0.532081 0.531407 0
M  V30 1083 H 97.5705 2.62616 1.41688 0
M  V30 1084 C 96.3195 1.78775 2.9822 0
M  V30 1085 H 95.6425 2.6543 2.98976 0
M  V30 1086 H 97.0825 1.95806 3.7608 0
M  V30 1087 C 95.5415 0.536849 3.32595 0
M  V30 1088 O 96.0715 -0.328897 4.00351 0
M  V30 1089 N 94.2775 0.394091 2.87915 0
M  V30 1090 H 93.8245 1.09962 2.32951 0
M  V30 1091 H 93.7825 -0.441737 3.11281 0
M  V30 1092 N 97.5546 -0.734337 1.39446 0
M  V30 1093 C 98.8026 -1.49096 1.36436 0
M  V30 1094 C 99.1236 -1.94961 -0.0388255 0
M  V30 1095 O 98.3936 -1.69033 -0.990191 0
M  V30 1096 H 96.9736 -0.5531 0.502085 0
M  V30 1097 H 99.6356 -0.871725 1.74319 0
M  V30 1098 H 98.7316 -2.37276 2.02747 0
M  V30 1099 N 99.0327 -1.24633 -0.964593 0
M  V30 1100 C 99.9627 -1.06611 -2.07741 0
M  V30 1101 C 100.944 0.0218666 -1.70086 0
M  V30 1102 O 102.129 -0.145793 -1.93652 0
M  V30 1103 C 99.2587 -0.673444 -3.40708 0
M  V30 1104 C 98.2127 -1.71054 -3.92332 0
M  V30 1105 C 97.5387 -1.17285 -5.21678 0
M  V30 1106 C 98.8387 -3.10718 -4.19824 0
M  V30 1107 H 100.533 -1.99693 -2.23076 0
M  V30 1108 H 98.0787 -0.96152 -1.07195 0
M  V30 1109 H 100.032 -0.534345 -4.17998 0
M  V30 1110 H 98.7557 0.293073 -3.25282 0
M  V30 1111 H 97.4147 -1.83791 -3.17201 0
M  V30 1112 H 97.0627 -0.196847 -5.02615 0
M  V30 1113 H 96.7627 -1.86592 -5.57187 0
M  V30 1114 H 98.2867 -1.04593 -6.01575 0
M  V30 1115 H 99.7007 -3.01192 -4.87808 0
M  V30 1116 H 98.0977 -3.77406 -4.66567 0
M  V30 1117 H 99.1677 -3.58524 -3.26479 0
M  V30 1118 N 100.511 1.16574 -1.06058 0
M  V30 1119 C 101.757 1.87324 -0.777022 0
M  V30 1120 C 102.09 1.81351 0.694645 0
M  V30 1121 O 101.365 1.22753 1.50871 0
M  V30 1122 C 101.648 3.36991 -1.26922 0
M  V30 1123 C 101.501 3.51667 -2.80447 0
M  V30 1124 C 102.82 4.3131 -0.87521 0
M  V30 1125 H 99.9388 0.680191 -0.28374 0
M  V30 1126 H 102.581 1.37036 -1.3161 0
M  V30 1127 H 100.731 3.79949 -0.81063 0
M  V30 1128 H 102.403 3.17664 -3.34495 0
M  V30 1129 H 100.646 2.93656 -3.19294 0
M  V30 1130 H 101.317 4.56766 -3.0995 0
M  V30 1131 H 103.793 3.9624 -1.27014 0
M  V30 1132 H 102.669 5.34545 -1.2471 0
M  V30 1133 H 102.93 4.41552 0.220071 0
M  V30 1134 N 101.989 0.842826 1.3317 0
M  V30 1135 C 103.217 0.454055 2.01856 0
M  V30 1136 C 103.632 -0.94587 1.63397 0
M  V30 1137 O 102.989 -1.61534 0.849302 0
M  V30 1138 C 103.04 0.569715 3.56982 0
M  V30 1139 O 102.761 1.91448 3.94055 0
M  V30 1140 C 104.262 0.178412 4.42941 0
M  V30 1141 H 101.482 0.17979 0.646465 0
M  V30 1142 H 104.026 1.1365 1.70012 0
M  V30 1143 H 102.181 -0.0648587 3.87346 0
M  V30 1144 H 102.595 1.90282 4.88767 0
M  V30 1145 H 104.069 0.310376 5.51127 0
M  V30 1146 H 104.546 -0.880056 4.30293 0
M  V30 1147 H 105.152 0.787579 4.17944 0
M  V30 1148 N 103.467 -1.45747 0.599634 0
M  V30 1149 C 104.713 -2.03153 0.100263 0
M  V30 1150 C 105.068 -1.46073 -1.25221 0
M  V30 1151 O 104.361 -0.622878 -1.81193 0
M  V30 1152 C 104.555 -3.57399 -0.00602758 0
M  V30 1153 C 104.384 -4.2944 1.3346 0
M  V30 1154 C 103.154 -4.6768 1.91321 0
M  V30 1155 C 105.352 -4.61905 2.2616 0
M  V30 1156 N 103.334 -5.24544 3.18946 0
M  V30 1157 C 104.705 -5.19518 3.3838 0
M  V30 1158 C 106.76 -4.43841 2.25631 0
M  V30 1159 C 105.463 -5.60972 4.50226 0
M  V30 1160 C 107.489 -4.86322 3.36518 0
M  V30 1161 C 106.851 -5.44021 4.4746 0
M  V30 1162 H 102.95 -0.777911 0.0798696 0
M  V30 1163 H 105.534 -1.77674 0.796244 0
M  V30 1164 H 103.705 -3.82556 -0.671212 0
M  V30 1165 H 105.437 -4.01457 -0.51133 0
M  V30 1166 H 102.192 -4.5098 1.44617 0
M  V30 1167 H 102.616 -5.57483 3.84112 0
M  V30 1168 H 107.258 -3.98552 1.41123 0
M  V30 1169 H 104.976 -6.0523 5.35464 0
M  V30 1170 H 108.562 -4.74084 3.37247 0
M  V30 1171 H 107.442 -5.76289 5.31846 0
M  V30 1172 N 104.945 -0.338344 -1.53925 0
M  V30 1173 C 105.855 0.529421 -2.28548 0
M  V30 1174 C 106.871 1.11645 -1.3346 0
M  V30 1175 O 108.047 1.13325 -1.66492 0
M  V30 1176 C 105.112 1.66713 -3.03987 0
M  V30 1177 C 104.173 1.11041 -4.14691 0
M  V30 1178 C 103.406 2.19389 -4.86522 0
M  V30 1179 O 103.629 3.40013 -4.57982 0
M  V30 1180 O 102.563 1.83976 -5.73094 0
M  V30 1181 H 106.389 -0.0770399 -3.03602 0
M  V30 1182 H 103.974 -0.103555 -1.49041 0
M  V30 1183 H 105.856 2.32918 -3.5118 0
M  V30 1184 H 104.531 2.25949 -2.31794 0
M  V30 1185 H 103.438 0.413024 -3.71813 0
M  V30 1186 H 104.771 0.562975 -4.8897 0
M  V30 1187 N 106.423 1.57458 -0.0668435 0
M  V30 1188 C 107.651 1.97624 0.612565 0
M  V30 1189 C 108.066 0.94502 1.63447 0
M  V30 1190 O 107.423 -0.0689276 1.8237 0
M  V30 1191 C 107.474 3.37869 1.28555 0
M  V30 1192 O 107.195 4.3704 0.304557 0
M  V30 1193 C 108.696 3.92882 2.05325 0
M  V30 1194 H 105.916 0.650045 0.166381 0
M  V30 1195 H 108.46 2.04035 -0.137782 0
M  V30 1196 H 106.615 3.3256 1.98702 0
M  V30 1197 H 107.029 5.18565 0.786779 0
M  V30 1198 H 108.503 4.93247 2.47812 0
M  V30 1199 H 108.98 3.29156 2.9078 0
M  V30 1200 H 109.586 4.01577 1.40056 0
M  V30 1201 N 107.901 -0.206675 1.56239 0
M  V30 1202 C 108.833 -1.27997 1.9013 0
M  V30 1203 C 109.846 -1.42299 0.790883 0
M  V30 1204 O 111.035 -1.42931 1.06925 0
M  V30 1205 C 108.135 -2.65368 2.10792 0
M  V30 1206 C 107.308 -2.72824 3.41886 0
M  V30 1207 C 106.367 -3.9131 3.51799 0
M  V30 1208 O 105.393 -3.78953 4.24716 0
M  V30 1209 N 106.595 -5.06265 2.84035 0
M  V30 1210 H 109.36 -0.992444 2.82791 0
M  V30 1211 H 106.921 -0.396652 1.56966 0
M  V30 1212 H 108.913 -3.43039 2.14724 0
M  V30 1213 H 107.483 -2.86657 1.24685 0
M  V30 1214 H 106.703 -1.81515 3.49923 0
M  V30 1215 H 107.991 -2.74786 4.28217 0
M  V30 1216 H 107.389 -5.19203 2.246 0
M  V30 1217 H 105.946 -5.81925 2.93609 0
M  V30 1218 N 109.379 -1.50304 -0.473955 0
M  V30 1219 C 110.311 -1.65109 -1.58971 0
M  V30 1220 C 111.324 -0.532676 -1.53839 0
M  V30 1221 O 112.513 -0.805751 -1.59279 0
M  V30 1222 C 109.613 -1.61684 -2.97845 0
M  V30 1223 C 108.786 -2.8951 -3.27876 0
M  V30 1224 C 107.845 -2.78768 -4.4629 0
M  V30 1225 O 106.871 -3.52722 -4.46739 0
M  V30 1226 N 108.073 -1.9213 -5.47783 0
M  V30 1227 H 110.838 -2.61347 -1.46689 0
M  V30 1228 H 108.399 -1.47732 -0.662324 0
M  V30 1229 H 110.391 -1.52114 -3.75024 0
M  V30 1230 H 108.961 -0.731925 -3.03911 0
M  V30 1231 H 108.181 -3.13228 -2.39336 0
M  V30 1232 H 109.469 -3.74199 -3.4475 0
M  V30 1233 H 108.867 -1.31353 -5.50239 0
M  V30 1234 H 107.424 -1.88466 -6.23958 0
M  V30 1235 N 110.857 0.726932 -1.39834 0
M  V30 1236 C 112.085 1.51613 -1.40787 0
M  V30 1237 C 112.5 1.88799 -0.00451505 0
M  V30 1238 O 111.857 1.54662 0.968809 0
M  V30 1239 C 111.908 2.79863 -2.28821 0
M  V30 1240 O 111.629 2.44253 -3.63692 0
M  V30 1241 C 113.13 3.73837 -2.38245 0
M  V30 1242 H 110.35 0.468264 -0.480593 0
M  V30 1243 H 112.894 0.897607 -1.83748 0
M  V30 1244 H 111.049 3.38027 -1.89252 0
M  V30 1245 H 111.463 3.26695 -4.1033 0
M  V30 1246 H 112.937 4.60699 -3.04073 0
M  V30 1247 H 113.414 4.16153 -1.40403 0
M  V30 1248 H 114.02 3.21589 -2.78317 0
M  V30 1249 N 112.336 1.25143 0.95797 0
M  V30 1250 C 113.613 1.00472 1.67823 0
M  V30 1251 C 113.993 -0.470056 2.058 0
M  V30 1252 O 113.341 -1.44663 1.76875 0
M  V30 1253 C 113.551 1.9372 2.90299 0
M  V30 1254 C 114.899 2.21371 3.62326 0
M  V30 1255 O 115.923 1.91451 3.00375 0
M  V30 1256 O 114.782 2.72231 4.7387 0
M  V30 1257 H 111.876 0.380752 0.734137 0
M  V30 1258 H 114.422 1.36283 1.01119 0
M  V30 1259 H 113.194 2.93316 2.59001 0
M  V30 1260 H 112.817 1.58286 3.64735 0
M  V30 1261 N 113.814 -1.1601 1.06675 0
M  V30 1262 C 115.044 -1.90251 0.805497 0
M  V30 1263 C 115.452 -1.77891 -0.64431 0
M  V30 1264 O 114.795 -1.12383 -1.45313 0
M  V30 1265 C 114.857 -3.41419 1.12576 0
M  V30 1266 C 114.521 -3.77564 2.57477 0
M  V30 1267 C 115.518 -3.79161 3.55715 0
M  V30 1268 C 113.203 -4.08079 2.92877 0
M  V30 1269 C 115.197 -4.10767 4.8739 0
M  V30 1270 C 112.884 -4.39351 4.24751 0
M  V30 1271 C 113.882 -4.40675 5.21818 0
M  V30 1272 O 113.57 -4.71202 6.51325 0
M  V30 1273 H 113.302 -0.610018 0.291297 0
M  V30 1274 H 115.856 -1.47958 1.4247 0
M  V30 1275 H 114.086 -3.84079 0.449503 0
M  V30 1276 H 115.775 -3.9694 0.84814 0
M  V30 1277 H 116.541 -3.55693 3.29708 0
M  V30 1278 H 112.42 -4.06211 2.17976 0
M  V30 1279 H 115.964 -4.11715 5.63148 0
M  V30 1280 H 111.861 -4.62285 4.50514 0
M  V30 1281 H 112.629 -4.88996 6.56373 0
M  V30 1282 N 115.292 -0.849877 -1.32721 0
M  V30 1283 C 116.703 -0.506188 -1.79707 0
M  V30 1284 C 117.054 0.975627 -1.70223 0
M  V30 1285 O 116.179 1.76078 -1.25799 0
M  V30 1286 C 116.774 -0.912044 -3.26293 0
M  V30 1287 C 115.333 -0.620326 -3.71253 0
M  V30 1288 C 114.48 -1.11439 -2.53922 0
M  V30 1289 H 117.431 -1.03754 -1.20087 0
M  V30 1290 H 117.452 -0.226493 -3.79825 0
M  V30 1291 H 116.964 -1.99057 -3.33164 0
M  V30 1292 H 115.065 0.447674 -3.69901 0
M  V30 1293 H 115.178 -1.18327 -4.64258 0
M  V30 1294 H 113.542 -0.534834 -2.49021 0
M  V30 1295 H 114.325 -2.19992 -2.6355 0
M  V30 1296 N 116.77 1.45427 -0.607355 0
M  V30 1297 C 118.186 1.57283 -0.270985 0
M  V30 1298 C 118.386 1.59875 1.22647 0
M  V30 1299 O 117.442 1.52893 2.00948 0
M  V30 1300 C 118.755 2.85566 -0.941952 0
M  V30 1301 C 120.303 2.9924 -0.917849 0
M  V30 1302 C 120.778 4.30293 -1.56882 0
M  V30 1303 N 122.269 4.37051 -1.5343 0
M  V30 1304 C 123.004 5.37123 -2.00715 0
M  V30 1305 N 122.5 6.43734 -2.56084 0
M  V30 1306 N 124.293 5.28479 -1.91484 0
M  V30 1307 H 116.444 1.41988 -1.57966 0
M  V30 1308 H 118.707 0.67885 -0.661715 0
M  V30 1309 H 118.413 2.8955 -1.99633 0
M  V30 1310 H 118.287 3.74322 -0.465096 0
M  V30 1311 H 120.674 2.94822 0.127984 0
M  V30 1312 H 120.755 2.11895 -1.43297 0
M  V30 1313 H 120.399 4.35469 -2.61398 0
M  V30 1314 H 120.329 5.16454 -1.02873 0
M  V30 1315 H 122.82 3.60615 -1.12982 0
M  V30 1316 H 123.133 7.16341 -2.89958 0
M  V30 1317 H 121.478 6.44485 -2.60122 0
M  V30 1318 H 124.669 4.44098 -1.47967 0
M  V30 1319 H 124.842 6.0632 -2.28648 0
M  V30 1320 N 118.248 0.346503 1.53744 0
M  V30 1321 C 119.476 -0.25041 2.05379 0
M  V30 1322 C 119.891 -1.43979 1.22129 0
M  V30 1323 O 119.248 -1.80677 0.257321 0
M  V30 1324 C 119.299 -0.662575 3.55376 0
M  V30 1325 O 119.02 0.479515 4.35468 0
M  V30 1326 C 120.521 -1.31989 4.23195 0
M  V30 1327 H 117.741 -0.0478198 0.669294 0
M  V30 1328 H 120.285 0.499346 1.9831 0
M  V30 1329 H 118.44 -1.36227 3.62658 0
M  V30 1330 H 118.854 0.15037 5.24284 0
M  V30 1331 H 120.328 -1.55902 5.29527 0
M  V30 1332 H 120.805 -2.27436 3.75725 0
M  V30 1333 H 121.411 -0.662154 4.20114 0
M  V30 1334 N 119.726 -1.57421 0.075193 0
M  V30 1335 C 121.142 -1.57099 -0.281444 0
M  V30 1336 C 121.342 -1.08486 -1.69803 0
M  V30 1337 O 120.398 -0.752279 -2.41033 0
M  V30 1338 C 121.711 -3.00571 -0.0880041 0
M  V30 1339 C 123.259 -3.12605 -0.157281 0
M  V30 1340 C 123.734 -4.57999 0.0079207 0
M  V30 1341 N 125.225 -4.63176 -0.0475725 0
M  V30 1342 C 125.96 -5.73373 0.0557876 0
M  V30 1343 N 125.456 -6.92473 0.21286 0
M  V30 1344 N 127.249 -5.621 -0.00152098 0
M  V30 1345 H 119.4 -1.87335 1.00098 0
M  V30 1346 H 121.663 -0.86377 0.390646 0
M  V30 1347 H 121.369 -3.40262 0.889629 0
M  V30 1348 H 121.243 -3.67754 -0.838875 0
M  V30 1349 H 123.63 -2.72798 -1.1254 0
M  V30 1350 H 123.711 -2.48053 0.62475 0
M  V30 1351 H 123.355 -4.98496 0.972824 0
M  V30 1352 H 123.285 -5.20586 -0.793556 0
M  V30 1353 H 125.776 -3.7753 -0.167244 0
M  V30 1354 H 126.089 -7.72279 0.283781 0
M  V30 1355 H 124.434 -6.94556 0.248267 0
M  V30 1356 H 127.625 -4.67938 -0.122958 0
M  V30 1357 H 127.798 -6.47948 0.0824844 0
M  V30 1358 N 121.204 0.198386 -1.56346 0
M  V30 1359 C 122.615 0.763358 -1.70381 0
M  V30 1360 C 122.966 1.83995 -0.681203 0
M  V30 1361 O 122.091 2.15785 0.16305 0
M  V30 1362 C 122.686 1.39143 -3.08909 0
M  V30 1363 C 121.245 1.90352 -3.2472 0
M  V30 1364 C 120.392 0.772233 -2.6633 0
M  V30 1365 H 123.343 -0.0266377 -1.58678 0
M  V30 1366 H 123.364 2.26076 -3.06055 0
M  V30 1367 H 122.876 0.607638 -3.83314 0
M  V30 1368 H 120.977 2.71461 -2.55225 0
M  V30 1369 H 121.09 2.06757 -4.3219 0
M  V30 1370 H 119.454 1.18566 -2.2542 0
M  V30 1371 H 120.237 0.00073556 -3.433 0
M  V30 1372 N 122.682 1.50554 0.465978 0
M  V30 1373 C 123.959 1.5232 1.22712 0
M  V30 1374 C 124.339 0.270807 2.09356 0
M  V30 1375 O 123.687 -0.745541 2.15995 0
M  V30 1376 C 123.897 2.82175 2.05374 0
M  V30 1377 C 125.245 3.33033 2.6339 0
M  V30 1378 O 126.269 2.83531 2.15612 0
M  V30 1379 O 125.128 4.19336 3.50456 0
M  V30 1380 H 122.222 0.611183 0.557122 0
M  V30 1381 H 124.768 1.62847 0.477381 0
M  V30 1382 H 123.54 3.64797 1.41558 0
M  V30 1383 H 123.163 2.74675 2.87471 0
M  V30 1384 N 124.16 -0.719506 1.40217 0
M  V30 1385 C 125.09 -1.8465 1.42922 0
M  V30 1386 C 126.071 -1.67599 0.29062 0
M  V30 1387 O 127.256 -1.87688 0.498677 0
M  V30 1388 C 124.386 -3.22565 1.28722 0
M  V30 1389 C 123.34 -3.54281 2.40144 0
M  V30 1390 C 122.666 -4.91298 2.11023 0
M  V30 1391 C 123.966 -3.55676 3.82481 0
M  V30 1392 H 125.66 -1.82644 2.37237 0
M  V30 1393 H 123.206 -0.877305 1.1419 0
M  V30 1394 H 125.159 -4.01095 1.29232 0
M  V30 1395 H 123.883 -3.25137 0.308811 0
M  V30 1396 H 122.542 -2.78088 2.38877 0
M  V30 1397 H 122.19 -4.90468 1.11582 0
M  V30 1398 H 121.89 -5.13485 2.8567 0
M  V30 1399 H 123.414 -5.72166 2.13209 0
M  V30 1400 H 124.828 -4.24254 3.85592 0
M  V30 1401 H 123.225 -3.89388 4.56614 0
M  V30 1402 H 124.295 -2.55144 4.12346 0
M  V30 1403 N 125.638 -1.25649 -0.95132 0
M  V30 1404 C 127.049 -1.09654 -1.51106 0
M  V30 1405 C 127.4 0.326615 -1.93462 0
M  V30 1406 O 126.525 1.21697 -1.78938 0
M  V30 1407 C 127.12 -1.98437 -2.74605 0
M  V30 1408 C 125.679 -1.86618 -3.2688 0
M  V30 1409 C 124.826 -1.9239 -1.99703 0
M  V30 1410 H 127.777 -1.38887 -0.767865 0
M  V30 1411 H 127.798 -1.5263 -3.48546 0
M  V30 1412 H 127.31 -3.02009 -2.43746 0
M  V30 1413 H 125.411 -0.859421 -3.62553 0
M  V30 1414 H 125.524 -2.71607 -3.94673 0
M  V30 1415 H 123.888 -1.36317 -2.15151 0
M  V30 1416 H 124.671 -2.97573 -1.71188 0
M  V30 1417 N 127.117 1.15442 -1.07289 0
M  V30 1418 C 128.065 2.22225 -0.686952 0
M  V30 1419 C 129.059 1.66688 0.30193 0
M  V30 1420 O 130.265 1.79236 0.165712 0
M  V30 1421 H 126.64 0.723783 -0.204064 0
M  V30 1422 H 128.611 2.52056 -1.5972 0
M  V30 1423 C 127.36 3.47556 -0.100149 0
M  V30 1424 H 126.683 3.90612 -0.852211 0
M  V30 1425 H 128.123 4.23794 0.132235 0
M  V30 1426 C 126.582 3.16337 1.159 0
M  V30 1427 O 127.112 3.33074 2.24555 0
M  V30 1428 N 125.318 2.70385 1.06491 0
M  V30 1429 H 124.865 2.56966 0.180668 0
M  V30 1430 H 124.823 2.49871 1.90819 0
M  V30 1431 N 128.595 0.856903 1.32268 0
M  V30 1432 C 129.545 0.274899 2.26337 0
M  V30 1433 C 130.529 -0.580543 1.50062 0
M  V30 1434 O 131.721 -0.429559 1.71708 0
M  V30 1435 C 128.85 -0.533841 3.39124 0
M  V30 1436 C 127.936 0.334114 4.22782 0
M  V30 1437 N 128.327 1.42143 4.85416 0
M  V30 1438 C 126.625 0.124256 4.45827 0
M  V30 1439 C 127.326 1.95559 5.47843 0
M  V30 1440 N 126.302 1.25444 5.28928 0
M  V30 1441 H 130.104 1.10612 2.72291 0
M  V30 1442 H 127.618 0.703258 1.46383 0
M  V30 1443 H 129.615 -0.96722 4.05525 0
M  V30 1444 H 128.275 -1.36283 2.94715 0
M  V30 1445 H 129.286 1.80436 4.85451 0
M  V30 1446 H 125.963 -0.669837 4.12092 0
M  V30 1447 H 127.353 2.86714 6.07655 0
M  V30 1448 N 130.073 -1.45103 0.615059 0
M  V30 1449 C 130.983 -2.34382 -0.101034 0
M  V30 1450 C 131.999 -1.51681 -0.852585 0
M  V30 1451 O 133.175 -1.8446 -0.808484 0
M  V30 1452 C 130.24 -3.29417 -1.08099 0
M  V30 1453 C 129.301 -4.28025 -0.330577 0
M  V30 1454 C 128.534 -5.1852 -1.26385 0
M  V30 1455 O 128.757 -5.12598 -2.50198 0
M  V30 1456 O 127.691 -5.97122 -0.756866 0
M  V30 1457 H 131.517 -2.97033 0.632855 0
M  V30 1458 H 129.102 -1.4461 0.375293 0
M  V30 1459 H 130.984 -3.87958 -1.6452 0
M  V30 1460 H 129.659 -2.69321 -1.79577 0
M  V30 1461 H 128.566 -3.73078 0.276283 0
M  V30 1462 H 129.899 -4.90997 0.343866 0
M  V30 1463 N 131.551 -0.354651 -1.53558 0
M  V30 1464 C 132.962 0.126902 -1.86268 0
M  V30 1465 C 133.313 1.49075 -1.27558 0
M  V30 1466 O 132.438 2.08105 -0.5934 0
M  V30 1467 C 133.033 0.237046 -3.3797 0
M  V30 1468 C 131.592 0.662842 -3.70518 0
M  V30 1469 C 130.739 -0.196652 -2.76602 0
M  V30 1470 H 133.69 -0.573849 -1.47962 0
M  V30 1471 H 133.711 1.06259 -3.65362 0
M  V30 1472 H 133.223 -0.755725 -3.80671 0
M  V30 1473 H 131.324 1.66424 -3.33367 0
M  V30 1474 H 131.437 0.445034 -4.77029 0
M  V30 1475 H 129.801 0.332763 -2.52517 0
M  V30 1476 H 130.584 -1.18676 -3.22135 0
M  V30 1477 N 133.029 1.57378 -0.0835403 0
M  V30 1478 C 134.445 1.57246 0.273109 0
M  V30 1479 C 134.645 1.09385 1.69225 0
M  V30 1480 O 133.701 0.765051 2.40631 0
M  V30 1481 C 135.014 3.00614 0.0720628 0
M  V30 1482 C 136.562 3.12684 0.1407 0
M  V30 1483 C 137.037 4.57989 -0.0322094 0
M  V30 1484 N 138.528 4.63194 0.0230085 0
M  V30 1485 C 139.263 5.73335 -0.0861941 0
M  V30 1486 N 138.759 6.9235 -0.24958 0
M  V30 1487 N 140.552 5.62093 -0.0282886 0
M  V30 1488 H 132.703 1.86801 -1.0109 0
M  V30 1489 H 134.966 0.861687 -0.395222 0
M  V30 1490 H 134.672 3.39786 -0.907662 0
M  V30 1491 H 134.546 3.68193 0.81936 0
M  V30 1492 H 136.933 2.73391 1.11092 0
M  V30 1493 H 137.014 2.47719 -0.637896 0
M  V30 1494 H 136.658 4.97973 -0.999247 0
M  V30 1495 H 136.588 5.21 0.765937 0
M  V30 1496 H 139.079 3.77613 0.14722 0
M  V30 1497 H 139.392 7.72117 -0.324733 0
M  V30 1498 H 137.737 6.94415 -0.285097 0
M  V30 1499 H 140.928 4.67997 0.0981408 0
M  V30 1500 H 141.101 6.47895 -0.116845 0
M  V30 1501 N 134.507 -0.190092 1.56449 0
M  V30 1502 C 135.755 -0.907908 1.80559 0
M  V30 1503 C 136.076 -1.83583 0.657438 0
M  V30 1504 O 135.346 -1.93203 -0.323924 0
M  V30 1505 H 133.926 -0.338247 0.666032 0
M  V30 1506 H 136.588 -0.194403 1.93928 0
M  V30 1507 H 135.684 -1.49604 2.73907 0
M  V30 1508 N 135.985 -1.50799 -0.457987 0
M  V30 1509 C 137.225 -1.64088 -1.21879 0
M  V30 1510 C 137.589 -0.339848 -1.88968 0
M  V30 1511 O 138.79 -0.348301 -2.66534 0
M  V30 1512 C 137.061 -2.79726 -2.2246 0
M  V30 1513 S 138.62 -3.13225 -3.07303 0
M  V30 1514 H 135.438 -0.578314 -0.41361 0
M  V30 1515 H 138.04 -1.88632 -0.513645 0
M  V30 1516 H 136.744 -3.72722 -1.71775 0
M  V30 1517 H 136.275 -2.57308 -2.97584 0
M  V30 1518 H 138.29 -2.58062 -4.23814 0
M  V30 1519 N 137.463 0.71206 -1.40597 0
M  V30 1520 C 138.874 1.29135 -1.34837 0
M  V30 1521 C 139.225 1.96186 -0.0235395 0
M  V30 1522 O 138.35 1.97768 0.878444 0
M  V30 1523 C 138.945 2.34827 -2.44217 0
M  V30 1524 C 137.504 2.88371 -2.41907 0
M  V30 1525 C 136.651 1.62202 -2.24913 0
M  V30 1526 H 139.602 0.507944 -1.50352 0
M  V30 1527 H 139.623 3.15749 -2.12327 0
M  V30 1528 H 139.135 1.85996 -3.40627 0
M  V30 1529 H 137.236 3.41422 -1.49204 0
M  V30 1530 H 137.349 3.39925 -3.37621 0
M  V30 1531 H 135.713 1.874 -1.72492 0
M  V30 1532 H 136.496 1.15391 -3.23326 0
M  V30 1533 N 138.941 1.26152 0.944643 0
M  V30 1534 C 140.357 1.03189 1.21754 0
M  V30 1535 C 140.557 -0.245112 2.00004 0
M  V30 1536 O 139.613 -0.955176 2.33736 0
M  V30 1537 C 140.926 2.26119 1.98219 0
M  V30 1538 C 142.474 2.30984 2.11224 0
M  V30 1539 C 142.949 3.53597 2.91089 0
M  V30 1540 N 144.44 3.54053 2.98664 0
M  V30 1541 C 145.175 4.45593 3.60881 0
M  V30 1542 N 144.671 5.47416 4.24626 0
M  V30 1543 N 146.464 4.33252 3.58119 0
M  V30 1544 H 138.615 2.08177 0.421437 0
M  V30 1545 H 140.878 0.914723 0.248969 0
M  V30 1546 H 140.584 3.18984 1.48128 0
M  V30 1547 H 140.458 2.3009 2.98895 0
M  V30 1548 H 142.845 1.38635 2.60508 0
M  V30 1549 H 142.926 2.31026 1.09821 0
M  V30 1550 H 142.57 4.46273 2.42493 0
M  V30 1551 H 142.5 3.50802 3.92741 0
M  V30 1552 H 144.991 2.80403 2.53343 0
M  V30 1553 H 145.304 6.13459 4.69987 0
M  V30 1554 H 143.649 5.51278 4.23223 0
M  V30 1555 H 146.84 3.52924 3.0751 0
M  V30 1556 H 147.013 5.04786 4.06319 0
M  V30 1557 N 140.419 -1.14872 1.07899 0
M  V30 1558 C 141.667 -1.85422 0.803941 0
M  V30 1559 C 141.988 -1.83051 -0.67211 0
M  V30 1560 O 141.258 -1.27532 -1.48703 0
M  V30 1561 H 139.838 -0.686537 0.294408 0
M  V30 1562 H 142.5 -1.39226 1.3639 0
M  V30 1563 H 141.596 -2.90399 1.14346 0
M  V30 1564 N 141.898 -0.863906 -1.31812 0
M  V30 1565 C 142.861 -0.320212 -2.26952 0
M  V30 1566 C 143.861 0.525369 -1.51975 0
M  V30 1567 O 145.051 0.335547 -1.70938 0
M  V30 1568 C 142.183 0.545919 -3.365 0
M  V30 1569 H 143.376 -1.16004 -2.76556 0
M  V30 1570 H 140.929 -0.638995 -1.42641 0
M  V30 1571 H 141.664 1.40718 -2.92179 0
M  V30 1572 H 141.449 -0.0594674 -3.92055 0
M  V30 1573 H 142.939 0.918796 -4.07367 0
M  V30 1574 N 143.376 1.44774 -0.622745 0
M  V30 1575 C 144.601 2.06999 -0.128968 0
M  V30 1576 C 145.026 1.4617 1.1839 0
M  V30 1577 O 144.384 0.560007 1.72434 0
M  V30 1578 C 144.432 3.60595 -0.0188351 0
M  V30 1579 O 143.536 3.99398 1.02739 0
M  V30 1580 H 142.877 0.659047 -0.0809544 0
M  V30 1581 H 145.407 1.85784 -0.85705 0
M  V30 1582 H 145.417 4.07627 0.174476 0
M  V30 1583 H 144.092 4.04252 -0.977384 0
M  V30 1584 H 142.669 3.64011 0.809326 0
M  V30 1585 N 144.854 0.36279 1.53368 0
M  V30 1586 C 146.084 -0.228281 2.05335 0
M  V30 1587 C 146.492 -1.43226 1.23625 0
M  V30 1588 O 145.835 -1.81717 0.269206 0
M  V30 1589 C 145.897 -0.688549 3.52845 0
M  V30 1590 C 145.561 0.398362 4.5526 0
M  V30 1591 C 146.558 1.24732 5.04716 0
M  V30 1592 C 144.243 0.557805 4.99193 0
M  V30 1593 C 146.237 2.2411 5.96702 0
M  V30 1594 C 143.924 1.55495 5.90986 0
M  V30 1595 C 144.922 2.39503 6.39631 0
M  V30 1596 O 144.61 3.37517 7.29615 0
M  V30 1597 H 144.342 -0.044395 0.674541 0
M  V30 1598 H 146.896 0.518668 1.98744 0
M  V30 1599 H 145.126 -1.48706 3.56964 0
M  V30 1600 H 146.815 -1.20231 3.87685 0
M  V30 1601 H 147.581 1.13532 4.71525 0
M  V30 1602 H 143.46 -0.0862959 4.60919 0
M  V30 1603 H 147.004 2.89718 6.34594 0
M  V30 1604 H 142.901 1.66744 6.23592 0
M  V30 1605 H 143.669 3.33213 7.47604 0
M  V30 1606 N 146.332 -1.57332 0.0918853 0
M  V30 1607 C 147.557 -1.98995 -0.584442 0
M  V30 1608 C 147.982 -0.970528 -1.61128 0
M  V30 1609 O 147.34 0.0613904 -1.81196 0
M  V30 1610 C 147.388 -3.39636 -1.21161 0
M  V30 1611 O 146.492 -3.40447 -2.32744 0
M  V30 1612 H 145.833 -0.647165 -0.148572 0
M  V30 1613 H 148.363 -2.03873 0.172347 0
M  V30 1614 H 148.373 -3.7726 -1.55367 0
M  V30 1615 H 147.048 -4.13356 -0.459313 0
M  V30 1616 H 145.625 -3.14614 -2.0018 0
M  V30 1617 N 147.81 0.181792 -1.56548 0
M  V30 1618 C 149.056 0.896803 -1.82562 0
M  V30 1619 C 149.411 1.80324 -0.670908 0
M  V30 1620 O 148.704 1.8868 0.333235 0
M  V30 1621 C 148.898 1.73728 -3.12335 0
M  V30 1622 C 148.727 0.913714 -4.4032 0
M  V30 1623 C 147.497 0.592903 -5.01809 0
M  V30 1624 C 149.695 0.260164 -5.13642 0
M  V30 1625 N 147.677 -0.247901 -6.13399 0
M  V30 1626 C 149.048 -0.442256 -6.18421 0
M  V30 1627 C 151.103 0.177253 -4.97584 0
M  V30 1628 C 149.806 -1.21971 -7.08883 0
M  V30 1629 C 151.832 -0.586839 -5.88481 0
M  V30 1630 C 151.194 -1.27766 -6.92716 0
M  V30 1631 H 147.293 0.307122 -0.719166 0
M  V30 1632 H 149.877 0.164535 -1.94004 0
M  V30 1633 H 148.048 2.44105 -3.02105 0
M  V30 1634 H 149.78 2.39279 -3.26386 0
M  V30 1635 H 146.535 0.920502 -4.64568 0
M  V30 1636 H 146.959 -0.658304 -6.73792 0
M  V30 1637 H 151.601 0.696993 -4.17015 0
M  V30 1638 H 149.319 -1.75083 -7.88905 0
M  V30 1639 H 152.905 -0.652522 -5.78129 0
M  V30 1640 H 151.785 -1.85943 -7.61836 0
M  V30 1641 N 149.288 1.51039 0.449983 0
M  V30 1642 C 150.518 1.66627 1.22143 0
M  V30 1643 C 150.926 0.357776 1.85786 0
M  V30 1644 O 150.269 -0.672424 1.70951 0
M  V30 1645 C 150.331 2.71562 2.35573 0
M  V30 1646 C 149.995 4.14526 1.92399 0
M  V30 1647 C 150.992 4.99717 1.43453 0
M  V30 1648 C 148.677 4.60559 2.00475 0
M  V30 1649 C 150.671 6.28998 1.03155 0
M  V30 1650 C 148.358 5.8984 1.59788 0
M  V30 1651 C 149.356 6.73886 1.11208 0
M  V30 1652 O 149.044 8.0075 0.710935 0
M  V30 1653 H 148.776 0.562635 0.374724 0
M  V30 1654 H 151.33 1.98146 0.541036 0
M  V30 1655 H 149.56 2.3533 3.06849 0
M  V30 1656 H 151.249 2.76156 2.97478 0
M  V30 1657 H 152.015 4.65361 1.36618 0
M  V30 1658 H 147.894 3.95273 2.37235 0
M  V30 1659 H 151.438 6.9455 0.651663 0
M  V30 1660 H 147.335 6.23713 1.66289 0
M  V30 1661 H 148.103 8.142 0.837913 0
M  V30 1662 N 150.766 -0.704594 1.40972 0
M  V30 1663 C 151.696 -1.83124 1.44872 0
M  V30 1664 C 152.677 -1.67281 0.30838 0
M  V30 1665 O 153.862 -1.87149 0.518556 0
M  V30 1666 C 150.992 -3.21181 1.32136 0
M  V30 1667 C 149.946 -3.51714 2.43888 0
M  V30 1668 C 149.272 -4.89032 2.16222 0
M  V30 1669 C 150.572 -3.516 3.86232 0
M  V30 1670 H 152.266 -1.80117 2.39161 0
M  V30 1671 H 149.812 -0.865145 1.15114 0
M  V30 1672 H 151.765 -3.99702 1.33479 0
M  V30 1673 H 150.489 -3.24791 0.343279 0
M  V30 1674 H 149.148 -2.75539 2.41813 0
M  V30 1675 H 148.796 -4.89256 1.16778 0
M  V30 1676 H 148.496 -5.10426 2.911 0
M  V30 1677 H 150.02 -5.69873 2.19265 0
M  V30 1678 H 151.434 -4.2014 3.9007 0
M  V30 1679 H 149.831 -3.84523 4.60719 0
M  V30 1680 H 150.901 -2.50757 4.15029 0
M  V30 1681 N 152.244 -1.26651 -0.937939 0
M  V30 1682 C 153.474 -1.15006 -1.71631 0
M  V30 1683 C 153.882 0.297026 -1.86854 0
M  V30 1684 O 153.225 1.21493 -1.37786 0
M  V30 1685 C 153.287 -1.74984 -3.14039 0
M  V30 1686 C 152.951 -3.24103 -3.2219 0
M  V30 1687 C 153.948 -4.20877 -3.05219 0
M  V30 1688 C 151.633 -3.64625 -3.45476 0
M  V30 1689 C 153.627 -5.56151 -3.11408 0
M  V30 1690 C 151.314 -5.00032 -3.513 0
M  V30 1691 C 152.312 -5.95604 -3.34282 0
M  V30 1692 O 152 -7.28545 -3.3982 0
M  V30 1693 H 151.732 -0.401183 -0.544085 0
M  V30 1694 H 154.286 -1.67832 -1.18413 0
M  V30 1695 H 152.516 -1.16624 -3.68695 0
M  V30 1696 H 154.205 -1.58199 -3.73802 0
M  V30 1697 H 154.971 -3.90908 -2.87081 0
M  V30 1698 H 150.85 -2.90718 -3.57777 0
M  V30 1699 H 154.394 -6.30727 -2.98043 0
M  V30 1700 H 150.291 -5.29659 -3.68959 0
M  V30 1701 H 151.059 -7.3686 -3.56343 0
M  V30 1702 N 153.722 1.14298 -1.08507 0
M  V30 1703 C 154.947 1.8976 -0.837001 0
M  V30 1704 C 155.372 1.78097 0.605228 0
M  V30 1705 O 154.73 1.12188 1.4242 0
M  V30 1706 C 154.778 3.37685 -1.26495 0
M  V30 1707 O 153.882 4.10281 -0.417514 0
M  V30 1708 H 153.223 0.590365 -0.303917 0
M  V30 1709 H 155.753 1.44672 -1.44676 0
M  V30 1710 H 155.763 3.88501 -1.24625 0
M  V30 1711 H 154.438 3.45492 -2.31534 0
M  V30 1712 H 153.015 3.69536 -0.499722 0
M  V30 1713 N 155.201 0.870884 1.31352 0
M  V30 1714 C 156.164 0.332243 2.26779 0
M  V30 1715 C 157.164 -0.517302 1.52252 0
M  V30 1716 O 158.354 -0.326477 1.71113 0
M  V30 1717 C 155.486 -0.528066 3.36785 0
M  V30 1718 H 156.679 1.17469 2.75937 0
M  V30 1719 H 154.232 0.64655 1.423 0
M  V30 1720 H 154.967 -1.39167 2.92922 0
M  V30 1721 H 154.752 0.0802582 3.92018 0
M  V30 1722 H 156.242 -0.897179 4.07849 0
M  V30 1723 N 156.679 -1.44442 0.630414 0
M  V30 1724 C 157.627 -2.32437 -0.0871428 0
M  V30 1725 C 158.621 -1.47304 -0.836525 0
M  V30 1726 O 159.827 -1.63653 -0.749506 0
M  V30 1727 H 156.202 -0.750533 -0.0469495 0
M  V30 1728 H 158.173 -2.90709 0.673096 0
M  V30 1729 C 156.922 -3.31288 -1.05563 0
M  V30 1730 H 156.245 -3.96805 -0.488426 0
M  V30 1731 H 157.685 -3.9554 -1.52721 0
M  V30 1732 C 156.144 -2.6016 -2.14052 0
M  V30 1733 O 156.674 -2.39997 -3.22124 0
M  V30 1734 N 154.88 -2.19911 -1.89967 0
M  V30 1735 H 154.427 -2.36509 -1.02085 0
M  V30 1736 H 154.385 -1.72646 -2.62756 0
M  V30 1737 N 158.157 -0.370918 -1.53173 0
M  V30 1738 C 159.573 -0.0200818 -1.59587 0
M  V30 1739 C 159.773 1.46279 -1.38581 0
M  V30 1740 O 158.829 2.22506 -1.19363 0
M  V30 1741 C 160.142 -0.4808 -2.96831 0
M  V30 1742 C 161.69 -0.435477 -3.09956 0
M  V30 1743 C 162.165 -0.872092 -4.4962 0
M  V30 1744 N 163.656 -0.827364 -4.55751 0
M  V30 1745 C 164.391 -1.13683 -5.62018 0
M  V30 1746 N 163.887 -1.51584 -6.76014 0
M  V30 1747 N 165.68 -1.05927 -5.52029 0
M  V30 1748 H 157.831 -1.33652 -1.65079 0
M  V30 1749 H 160.094 -0.546634 -0.774529 0
M  V30 1750 H 159.8 -1.51577 -3.1736 0
M  V30 1751 H 159.674 0.129796 -3.76977 0
M  V30 1752 H 162.061 0.590371 -2.89134 0
M  V30 1753 H 162.142 -1.08164 -2.31806 0
M  V30 1754 H 161.786 -1.89608 -4.71181 0
M  V30 1755 H 161.716 -0.203127 -5.26208 0
M  V30 1756 H 164.207 -0.548216 -3.73902 0
M  V30 1757 H 164.52 -1.73609 -7.53047 0
M  V30 1758 H 162.865 -1.55454 -6.77391 0
M  V30 1759 H 166.056 -0.762321 -4.61851 0
M  V30 1760 H 166.229 -1.30378 -6.34749 0
M  V30 1761 N 159.635 1.57281 -0.100228 0
M  V30 1762 C 160.565 2.17328 0.853857 0
M  V30 1763 C 161.546 1.10804 1.2906 0
M  V30 1764 O 162.731 1.38963 1.35657 0
M  V30 1765 C 159.861 2.75772 2.11109 0
M  V30 1766 C 158.815 3.87713 1.81279 0
M  V30 1767 C 158.141 4.32882 3.13874 0
M  V30 1768 C 159.441 5.10677 1.09574 0
M  V30 1769 H 161.135 2.97305 0.353545 0
M  V30 1770 H 158.681 1.43009 0.168612 0
M  V30 1771 H 160.634 3.16433 2.78296 0
M  V30 1772 H 159.358 1.93057 2.63432 0
M  V30 1773 H 158.017 3.476 1.16489 0
M  V30 1774 H 157.665 3.47051 3.64095 0
M  V30 1775 H 157.365 5.08358 2.94696 0
M  V30 1776 H 158.889 4.7618 3.82211 0
M  V30 1777 H 160.303 5.48474 1.66879 0
M  V30 1778 H 158.7 5.91615 1.00557 0
M  V30 1779 H 159.77 4.84835 0.0793299 0
M  V30 1780 N 161.113 -0.173488 1.56642 0
M  V30 1781 C 162.06 -1.21482 1.96242 0
M  V30 1782 C 163.03 -1.44104 0.826027 0
M  V30 1783 O 164.215 -1.5688 1.08597 0
M  V30 1784 C 161.355 -2.54964 2.32567 0
M  V30 1785 C 160.468 -2.39739 3.59373 0
M  V30 1786 C 159.603 -3.66072 3.84921 0
M  V30 1787 C 158.642 -3.45771 5.05083 0
M  V30 1788 N 157.779 -4.64169 5.26775 0
M  V30 1789 H 162.619 -0.870123 2.85014 0
M  V30 1790 H 160.156 -0.418245 1.41029 0
M  V30 1791 H 162.114 -3.32758 2.5165 0
M  V30 1792 H 160.744 -2.87433 1.46908 0
M  V30 1793 H 159.796 -1.53131 3.48217 0
M  V30 1794 H 161.108 -2.20683 4.47326 0
M  V30 1795 H 160.262 -4.52303 4.0436 0
M  V30 1796 H 159.001 -3.88105 2.9534 0
M  V30 1797 H 158.006 -2.57927 4.85545 0
M  V30 1798 H 159.231 -3.25163 5.96193 0
M  V30 1799 H 157.177 -4.86425 4.40144 0
M  V30 1800 H 157.094 -4.48019 6.08946 0
M  V30 1801 H 158.362 -5.51689 5.5069 0
M  V30 1802 N 162.591 -1.51276 -0.441967 0
M  V30 1803 C 163.821 -1.67273 -1.21257 0
M  V30 1804 C 164.229 -0.367624 -1.85594 0
M  V30 1805 O 163.572 0.663349 -1.71305 0
M  V30 1806 C 163.634 -2.72807 -2.34129 0
M  V30 1807 C 163.298 -4.1554 -1.90198 0
M  V30 1808 C 164.295 -5.00471 -1.40801 0
M  V30 1809 C 161.98 -4.61616 -1.9803 0
M  V30 1810 C 163.974 -6.29536 -0.998174 0
M  V30 1811 C 161.661 -5.90679 -1.56658 0
M  V30 1812 C 162.659 -6.74466 -1.07633 0
M  V30 1813 O 162.347 -8.01116 -0.668459 0
M  V30 1814 H 162.079 -0.564614 -0.371734 0
M  V30 1815 H 164.633 -1.9843 -0.530521 0
M  V30 1816 H 162.863 -2.36954 -3.05597 0
M  V30 1817 H 164.552 -2.77729 -2.96009 0
M  V30 1818 H 165.318 -4.66079 -1.34148 0
M  V30 1819 H 161.197 -3.96526 -2.35135 0
M  V30 1820 H 164.741 -6.94885 -0.61482 0
M  V30 1821 H 160.638 -6.24586 -1.62979 0
M  V30 1822 H 161.406 -8.14633 -0.794722 0
M  V30 1823 N 164.069 0.697108 -1.41344 0
M  V30 1824 C 165.48 1.27697 -1.36199 0
M  V30 1825 C 165.831 1.9615 -0.0443463 0
M  V30 1826 O 164.956 1.98689 0.857419 0
M  V30 1827 C 165.551 2.32223 -2.46694 0
M  V30 1828 C 164.11 2.8579 -2.44952 0
M  V30 1829 C 163.257 1.59807 -2.26621 0
M  V30 1830 H 166.208 0.491968 -1.50882 0
M  V30 1831 H 166.229 3.1348 -2.15664 0
M  V30 1832 H 165.741 1.82373 -3.42581 0
M  V30 1833 H 163.842 3.3982 -1.52817 0
M  V30 1834 H 163.955 3.36325 -3.41207 0
M  V30 1835 H 162.319 1.8556 -1.7447 0
M  V30 1836 H 163.102 1.11956 -3.24532 0
M  V30 1837 N 165.547 1.27147 0.931209 0
M  V30 1838 C 166.48 1.0389 2.0318 0
M  V30 1839 C 167.458 -0.0395716 1.62552 0
M  V30 1840 O 168.642 0.104867 1.88208 0
M  V30 1841 C 165.769 0.575227 3.3378 0
M  V30 1842 C 164.815 1.64774 3.93385 0
M  V30 1843 S 165.648 3.23933 4.26413 0
M  V30 1844 C 166.804 2.79358 5.60098 0
M  V30 1845 H 167.037 1.97075 2.22596 0
M  V30 1846 H 164.57 1.10938 1.07387 0
M  V30 1847 H 166.528 0.314385 4.09294 0
M  V30 1848 H 165.189 -0.336505 3.12292 0
M  V30 1849 H 164.382 1.27454 4.87618 0
M  V30 1850 H 163.984 1.86048 3.24441 0
M  V30 1851 H 166.276 2.24443 6.39243 0
M  V30 1852 H 167.219 3.72322 6.02314 0
M  V30 1853 H 167.627 2.1861 5.20452 0
M  V30 1854 N 167.025 -1.13721 1.09112 0
M  V30 1855 C 167.958 -2.18094 0.67158 0
M  V30 1856 C 168.936 -1.59414 -0.320299 0
M  V30 1857 O 170.12 -1.87183 -0.222444 0
M  V30 1858 C 167.247 -3.38698 -0.0111189 0
M  V30 1859 C 166.293 -4.15966 0.942055 0
M  V30 1860 S 167.126 -4.7604 2.45246 0
M  V30 1861 C 168.282 -5.99994 1.78208 0
M  V30 1862 H 168.515 -2.53344 1.55577 0
M  V30 1863 H 166.048 -1.24967 0.906789 0
M  V30 1864 H 168.006 -4.08559 -0.398716 0
M  V30 1865 H 166.667 -3.01756 -0.871905 0
M  V30 1866 H 165.86 -5.02318 0.411396 0
M  V30 1867 H 165.462 -3.51745 1.2709 0
M  V30 1868 H 167.754 -6.68441 1.10424 0
M  V30 1869 H 168.697 -6.57662 2.62463 0
M  V30 1870 H 169.105 -5.50432 1.25238 0
M  V30 1871 N 168.503 -0.877838 -1.30888 0
M  V30 1872 C 169.919 -0.570844 -1.49042 0
M  V30 1873 C 170.119 0.893159 -1.80624 0
M  V30 1874 O 169.175 1.67485 -1.88958 0
M  V30 1875 C 170.488 -1.47784 -2.61878 0
M  V30 1876 C 172.036 -1.48071 -2.75761 0
M  V30 1877 C 172.511 -2.37347 -3.91702 0
M  V30 1878 N 174.002 -2.35271 -3.99001 0
M  V30 1879 C 174.737 -3.01063 -4.88004 0
M  V30 1880 N 174.233 -3.76055 -5.81854 0
M  V30 1881 N 176.026 -2.90332 -4.81315 0
M  V30 1882 H 168.177 -1.82502 -1.0866 0
M  V30 1883 H 170.44 -0.780797 -0.537644 0
M  V30 1884 H 170.146 -2.51993 -2.45341 0
M  V30 1885 H 170.02 -1.18215 -3.58197 0
M  V30 1886 H 172.407 -0.446166 -2.91708 0
M  V30 1887 H 172.488 -1.81668 -1.80085 0
M  V30 1888 H 172.132 -3.40883 -3.76512 0
M  V30 1889 H 172.062 -2.01071 -4.86701 0
M  V30 1890 H 174.553 -1.80768 -3.3186 0
M  V30 1891 H 174.866 -4.23366 -6.46514 0
M  V30 1892 H 173.211 -3.80163 -5.81808 0
M  V30 1893 H 176.402 -2.31278 -4.06974 0
M  V30 1894 H 176.575 -3.41885 -5.50471 0
M  V30 1895 N 169.982 1.44106 -0.638065 0
M  V30 1896 C 170.929 2.30715 0.062701 0
M  V30 1897 C 171.899 1.43882 0.829883 0
M  V30 1898 O 173.084 1.72775 0.809532 0
M  V30 1899 C 170.224 3.29258 1.03358 0
M  V30 1900 C 169.337 4.31192 0.26409 0
M  V30 1901 C 168.472 5.16825 1.22741 0
M  V30 1902 C 167.511 6.10462 0.447475 0
M  V30 1903 N 166.648 6.8877 1.36161 0
M  V30 1904 H 171.488 2.90096 -0.681781 0
M  V30 1905 H 169.025 1.42925 -0.347988 0
M  V30 1906 H 170.983 3.84886 1.60992 0
M  V30 1907 H 169.613 2.71562 1.74511 0
M  V30 1908 H 168.665 3.77981 -0.428295 0
M  V30 1909 H 169.977 4.97619 -0.343052 0
M  V30 1910 H 169.131 5.77004 1.87487 0
M  V30 1911 H 167.87 4.50488 1.86847 0
M  V30 1912 H 166.875 5.49386 -0.213433 0
M  V30 1913 H 168.1 6.78837 -0.188968 0
M  V30 1914 H 166.046 6.25096 1.98975 0
M  V30 1915 H 165.963 7.51663 0.808656 0
M  V30 1916 H 167.231 7.53467 1.99769 0
M  V30 1917 N 171.46 0.379036 1.52974 0
M  V30 1918 C 172.876 0.0285448 1.59574 0
M  V30 1919 C 173.076 -1.45542 1.39355 0
M  V30 1920 O 172.132 -2.2187 1.20541 0
M  V30 1921 C 173.445 0.496535 2.96572 0
M  V30 1922 C 174.993 0.451909 3.0972 0
M  V30 1923 C 175.468 0.895924 4.49152 0
M  V30 1924 N 176.959 0.851522 4.55306 0
M  V30 1925 C 177.694 1.16661 5.61407 0
M  V30 1926 N 177.19 1.55166 6.752 0
M  V30 1927 N 178.983 1.08853 5.51459 0
M  V30 1928 H 171.134 1.34525 1.64367 0
M  V30 1929 H 173.397 0.550733 0.771619 0
M  V30 1930 H 173.103 1.53258 3.16552 0
M  V30 1931 H 172.977 -0.109802 3.7704 0
M  V30 1932 H 175.364 -0.575029 2.89443 0
M  V30 1933 H 175.445 1.09392 2.3123 0
M  V30 1934 H 175.089 1.92104 4.70168 0
M  V30 1935 H 175.019 0.23103 5.26093 0
M  V30 1936 H 177.51 0.568038 3.73606 0
M  V30 1937 H 177.823 1.776 7.52116 0
M  V30 1938 H 176.168 1.59044 6.76557 0
M  V30 1939 H 179.359 0.786803 4.6144 0
M  V30 1940 H 179.532 1.33742 6.34048 0
M  V30 1941 N 172.938 -1.57226 0.108567 0
M  V30 1942 C 173.868 -2.17778 -0.84232 0
M  V30 1943 C 174.849 -1.11487 -1.2847 0
M  V30 1944 O 176.034 -1.39681 -1.34918 0
M  V30 1945 C 173.164 -2.76888 -2.09644 0
M  V30 1946 C 172.118 -3.88669 -1.79221 0
M  V30 1947 C 171.444 -4.34541 -3.11574 0
M  V30 1948 C 172.744 -5.11251 -1.06864 0
M  V30 1949 H 174.438 -2.97489 -0.337774 0
M  V30 1950 H 171.984 -1.43097 -0.161025 0
M  V30 1951 H 173.937 -3.17904 -2.76614 0
M  V30 1952 H 172.661 -1.94451 -2.62405 0
M  V30 1953 H 171.32 -3.48213 -1.14644 0
M  V30 1954 H 170.968 -3.48977 -3.62249 0
M  V30 1955 H 170.668 -5.09914 -2.91996 0
M  V30 1956 H 172.192 -4.782 -3.7968 0
M  V30 1957 H 173.606 -5.49352 -1.63968 0
M  V30 1958 H 172.003 -5.9214 -0.974178 0
M  V30 1959 H 173.073 -4.8487 -0.0536168 0
M  V30 1960 N 174.416 0.165178 -1.56732 0
M  V30 1961 C 175.349 1.23336 -1.91998 0
M  V30 1962 C 176.327 1.42476 -0.783531 0
M  V30 1963 O 177.511 1.57384 -1.03743 0
M  V30 1964 C 174.638 2.59533 -2.17625 0
M  V30 1965 C 173.684 2.57093 -3.40302 0
M  V30 1966 S 174.517 2.05571 -4.9447 0
M  V30 1967 C 175.673 3.43532 -5.23198 0
M  V30 1968 H 175.906 0.932387 -2.82301 0
M  V30 1969 H 173.439 0.370013 -1.49901 0
M  V30 1970 H 175.397 3.37918 -2.3307 0
M  V30 1971 H 174.058 2.86827 -1.28019 0
M  V30 1972 H 173.251 3.57308 -3.55453 0
M  V30 1973 H 172.853 1.86806 -3.24005 0
M  V30 1974 H 175.145 4.39559 -5.15552 0
M  V30 1975 H 176.088 3.33251 -6.2478 0
M  V30 1976 H 176.496 3.39828 -4.50752 0
M  V30 1977 N 175.894 1.51508 0.433938 0
M  V30 1978 C 176.841 1.73068 1.52696 0
M  V30 1979 C 177.811 0.572441 1.55924 0
M  V30 1980 O 178.996 0.807253 1.72882 0
M  V30 1981 C 176.136 1.86474 2.90381 0
M  V30 1982 C 175.249 3.14037 2.96656 0
M  V30 1983 C 174.384 3.18019 4.25485 0
M  V30 1984 C 173.423 4.39882 4.2564 0
M  V30 1985 N 172.56 4.41394 5.45999 0
M  V30 1986 H 177.4 2.66366 1.33615 0
M  V30 1987 H 174.937 1.32008 0.649018 0
M  V30 1988 H 176.895 1.92229 3.70275 0
M  V30 1989 H 175.525 0.965809 3.08013 0
M  V30 1990 H 174.577 3.17575 2.09404 0
M  V30 1991 H 175.889 4.0394 2.92633 0
M  V30 1992 H 175.043 3.22708 5.13755 0
M  V30 1993 H 173.782 2.2601 4.3217 0
M  V30 1994 H 172.787 4.35366 3.35763 0
M  V30 1995 H 174.012 5.33159 4.20617 0
M  V30 1996 H 171.958 3.52258 5.53399 0
M  V30 1997 H 171.875 5.25111 5.4387 0
M  V30 1998 H 173.143 4.50281 6.36292 0
M  V30 1999 N 177.372 -0.689602 1.41712 0
M  V30 2000 C 178.305 -1.81403 1.3845 0
M  V30 2001 C 179.283 -1.60653 0.250874 0
M  V30 2002 O 180.467 -1.83323 0.43874 0
M  V30 2003 C 177.594 -3.18176 1.1611 0
M  V30 2004 C 176.64 -3.57705 2.3227 0
M  V30 2005 S 177.473 -3.61827 3.94767 0
M  V30 2006 C 178.629 -5.01318 3.74742 0
M  V30 2007 H 178.862 -1.83893 2.33603 0
M  V30 2008 H 176.395 -0.858878 1.28307 0
M  V30 2009 H 178.353 -3.97132 1.03907 0
M  V30 2010 H 177.014 -3.13288 0.225668 0
M  V30 2011 H 176.207 -4.57082 2.12349 0
M  V30 2012 H 175.809 -2.86073 2.40911 0
M  V30 2013 H 178.101 -5.88986 3.34817 0
M  V30 2014 H 179.044 -5.26283 4.73743 0
M  V30 2015 H 179.452 -4.73138 3.07898 0
M  V30 2016 N 178.85 -1.27639 -0.924453 0
M  V30 2017 C 180.096 -1.15345 -1.67532 0
M  V30 2018 C 180.451 0.297096 -1.90092 0
M  V30 2019 O 179.744 1.21374 -1.48253 0
M  V30 2020 C 179.938 -1.87407 -3.04325 0
M  V30 2021 C 179.767 -3.3932 -2.95114 0
M  V30 2022 C 178.537 -4.08644 -2.97218 0
M  V30 2023 C 180.735 -4.35242 -2.73987 0
M  V30 2024 N 178.717 -5.47102 -2.78482 0
M  V30 2025 C 180.088 -5.6099 -2.63988 0
M  V30 2026 C 182.143 -4.25294 -2.589 0
M  V30 2027 C 180.846 -6.77924 -2.40442 0
M  V30 2028 C 182.872 -5.41952 -2.36731 0
M  V30 2029 C 182.234 -6.66658 -2.27478 0
M  V30 2030 H 178.333 -0.47696 -0.619704 0
M  V30 2031 H 180.917 -1.6115 -1.09265 0
M  V30 2032 H 179.088 -1.44053 -3.60699 0
M  V30 2033 H 180.82 -1.6759 -3.68369 0
M  V30 2034 H 177.575 -3.60136 -3.07569 0
M  V30 2035 H 177.999 -6.19852 -2.72236 0
M  V30 2036 H 182.641 -3.29598 -2.64811 0
M  V30 2037 H 180.359 -7.73699 -2.3327 0
M  V30 2038 H 183.945 -5.36137 -2.25938 0
M  V30 2039 H 182.825 -7.55405 -2.10555 0
M  V30 2040 N 180.328 1.1314 -1.09713 0
M  V30 2041 C 181.744 1.36477 -0.827423 0
M  V30 2042 C 181.944 1.93654 0.556817 0
M  V30 2043 O 181 2.15791 1.31112 0
M  V30 2044 C 182.313 2.31334 -1.92106 0
M  V30 2045 C 183.861 2.44943 -1.94864 0
M  V30 2046 C 184.336 3.4311 -3.0338 0
M  V30 2047 N 185.827 3.50662 -3.02639 0
M  V30 2048 C 186.562 4.2651 -3.83246 0
M  V30 2049 N 186.058 5.05485 -4.73768 0
M  V30 2050 N 187.851 4.2184 -3.71493 0
M  V30 2051 H 180.002 0.743807 -1.9895 0
M  V30 2052 H 182.265 0.389823 -0.864143 0
M  V30 2053 H 181.971 1.96483 -2.91698 0
M  V30 2054 H 181.845 3.31381 -1.80184 0
M  V30 2055 H 184.232 2.79079 -0.959099 0
M  V30 2056 H 184.313 1.4481 -2.10864 0
M  V30 2057 H 183.957 3.09704 -4.02549 0
M  V30 2058 H 183.887 4.43055 -2.84622 0
M  V30 2059 H 186.378 2.94315 -2.37039 0
M  V30 2060 H 186.691 5.60675 -5.3185 0
M  V30 2061 H 185.036 5.04708 -4.77802 0
M  V30 2062 H 188.227 3.5922 -3.00131 0
M  V30 2063 H 188.4 4.80697 -4.3455 0
M  V30 2064 N 181.806 0.884767 1.30421 0
M  V30 2065 C 182.716 0.355398 2.31892 0
M  V30 2066 C 183.732 -0.542261 1.65335 0
M  V30 2067 O 184.908 -0.435432 1.96637 0
M  V30 2068 C 181.973 -0.421661 3.44126 0
M  V30 2069 C 181.034 0.505727 4.26311 0
M  V30 2070 C 180.267 -0.234343 5.33185 0
M  V30 2071 O 180.49 -1.46045 5.51386 0
M  V30 2072 O 179.424 0.415443 6.00465 0
M  V30 2073 H 183.25 1.19685 2.79122 0
M  V30 2074 H 180.835 0.648596 1.34587 0
M  V30 2075 H 182.717 -0.861641 4.12497 0
M  V30 2076 H 181.392 -1.23942 2.99032 0
M  V30 2077 H 180.299 0.994513 3.60639 0
M  V30 2078 H 181.632 1.28948 4.75009 0
M  V30 2079 N 183.284 -1.43765 0.645699 0
M  V30 2080 C 184.247 -2.29163 -0.0409488 0
M  V30 2081 C 185.247 -1.41813 -0.757996 0
M  V30 2082 O 186.437 -1.63527 -0.600382 0
M  V30 2083 C 183.569 -3.23716 -1.06869 0
M  V30 2084 H 184.762 -2.91366 0.710345 0
M  V30 2085 H 182.315 -1.5092 0.406547 0
M  V30 2086 H 183.05 -2.66393 -1.84947 0
M  V30 2087 H 182.835 -3.88105 -0.558277 0
M  V30 2088 H 184.325 -3.87831 -1.54845 0
M  V30 2089 N 184.763 -0.387143 -1.52771 0
M  V30 2090 C 185.71 0.449048 -2.26389 0
M  V30 2091 C 186.68 1.05961 -1.27912 0
M  V30 2092 O 187.865 1.08804 -1.56737 0
M  V30 2093 C 185.005 1.57155 -3.0724 0
M  V30 2094 C 184.118 0.984066 -4.20643 0
M  V30 2095 C 183.253 2.07745 -4.88892 0
M  V30 2096 C 182.292 1.46574 -5.94292 0
M  V30 2097 N 181.429 2.49834 -6.56146 0
M  V30 2098 H 186.269 -0.185205 -2.97424 0
M  V30 2099 H 183.806 -0.103164 -1.46738 0
M  V30 2100 H 185.764 2.23309 -3.52405 0
M  V30 2101 H 184.394 2.17615 -2.38419 0
M  V30 2102 H 183.446 0.212193 -3.79808 0
M  V30 2103 H 184.758 0.497029 -4.96318 0
M  V30 2104 H 183.912 2.81673 -5.3735 0
M  V30 2105 H 182.651 2.59807 -4.12737 0
M  V30 2106 H 181.656 0.711696 -5.45174 0
M  V30 2107 H 182.881 0.953088 -6.72379 0
M  V30 2108 H 180.827 3.0107 -5.82832 0
M  V30 2109 H 180.744 2.05879 -7.27427 0
M  V30 2110 H 182.012 3.23399 -7.09249 0
M  V30 2111 N 186.241 1.57166 -0.116904 0
M  V30 2112 C 187.204 2.14039 0.819742 0
M  V30 2113 C 188.204 1.07477 1.19605 0
M  V30 2114 O 189.394 1.33263 1.1219 0
M  V30 2115 C 186.526 2.67891 2.10826 0
M  V30 2116 H 187.719 2.98128 0.325511 0
M  V30 2117 H 185.272 1.55739 0.132312 0
M  V30 2118 H 186.007 1.87384 2.64685 0
M  V30 2119 H 185.792 3.45823 1.84793 0
M  V30 2120 H 187.282 3.11809 2.77785 0
M  V30 2121 N 187.719 -0.156864 1.56817 0
M  V30 2122 C 188.649 -1.19589 2.00551 0
M  V30 2123 C 189.63 -1.4536 0.883426 0
M  V30 2124 O 190.815 -1.56449 1.15054 0
M  V30 2125 C 187.945 -2.53143 2.37773 0
M  V30 2126 C 186.899 -2.41913 3.53075 0
M  V30 2127 C 186.225 -3.80088 3.76081 0
M  V30 2128 C 187.525 -1.91157 4.86062 0
M  V30 2129 H 189.219 -0.832293 2.87599 0
M  V30 2130 H 186.765 -0.398918 1.38364 0
M  V30 2131 H 188.718 -3.26047 2.66967 0
M  V30 2132 H 187.442 -2.91319 1.4765 0
M  V30 2133 H 186.101 -1.71462 3.24031 0
M  V30 2134 H 185.749 -4.15683 2.83225 0
M  V30 2135 H 185.449 -3.73439 4.53671 0
M  V30 2136 H 186.973 -4.54556 4.0769 0
M  V30 2137 H 188.387 -2.53846 5.14038 0
M  V30 2138 H 186.784 -1.95422 5.67389 0
M  V30 2139 H 187.854 -0.866673 4.77092 0
M  V30 2140 N 189.197 -1.51736 -0.425897 0
M  V30 2141 C 190.147 -1.70258 -1.51645 0
M  V30 2142 C 191.131 -0.556488 -1.5097 0
M  V30 2143 O 192.323 -0.812879 -1.5723 0
M  V30 2144 C 189.452 -1.84143 -2.89735 0
M  V30 2145 C 188.538 -3.04572 -2.95122 0
M  V30 2146 N 188.929 -4.2756 -2.70233 0
M  V30 2147 C 187.227 -3.04061 -3.26286 0
M  V30 2148 C 187.928 -5.08908 -2.81757 0
M  V30 2149 N 186.904 -4.43797 -3.13919 0
M  V30 2150 H 190.706 -2.63004 -1.31172 0
M  V30 2151 H 188.22 -1.4954 -0.633375 0
M  V30 2152 H 190.217 -1.95525 -3.68206 0
M  V30 2153 H 188.877 -0.925857 -3.1122 0
M  V30 2154 H 189.888 -4.56315 -2.44943 0
M  V30 2155 H 186.565 -2.22179 -3.53473 0
M  V30 2156 H 187.955 -6.16843 -2.66372 0
M  V30 2157 N 190.675 0.682077 -1.42076 0
M  V30 2158 C 191.9 1.47558 -1.45744 0
M  V30 2159 C 192.325 1.87977 -0.0680981 0
M  V30 2160 O 191.683 1.55522 0.9318 0
M  V30 2161 C 191.731 2.70575 -2.38373 0
M  V30 2162 O 190.835 3.68573 -1.85007 0
M  V30 2163 H 190.176 0.443585 -0.494093 0
M  V30 2164 H 192.706 0.837238 -1.86686 0
M  V30 2165 H 192.716 3.18729 -2.54707 0
M  V30 2166 H 191.391 2.40495 -3.39315 0
M  V30 2167 H 189.968 3.2757 -1.78192 0
M  V30 2168 N 192.153 1.28127 0.917671 0
M  V30 2169 C 193.43 1.05761 1.64542 0
M  V30 2170 C 193.81 -0.404344 2.07191 0
M  V30 2171 O 193.158 -1.38963 1.81388 0
M  V30 2172 C 193.368 2.02857 2.83989 0
M  V30 2173 C 194.716 2.32786 3.551 0
M  V30 2174 O 195.74 2.0091 2.94132 0
M  V30 2175 O 194.599 2.87169 4.64969 0
M  V30 2176 H 191.693 0.403916 0.721652 0
M  V30 2177 H 194.239 1.39431 0.967322 0
M  V30 2178 H 193.011 3.01407 2.49538 0
M  V30 2179 H 192.634 1.69809 3.59514 0
M  V30 2180 N 193.631 -1.12557 1.10312 0
M  V30 2181 C 195.042 -1.65574 0.862678 0
M  V30 2182 C 195.393 -1.86566 -0.607256 0
M  V30 2183 O 194.518 -1.59121 -1.46662 0
M  V30 2184 C 195.113 -3.00776 1.55947 0
M  V30 2185 C 193.672 -3.50748 1.36576 0
M  V30 2186 C 192.819 -2.25797 1.60968 0
M  V30 2187 H 195.77 -0.963552 1.26101 0
M  V30 2188 H 195.791 -3.67185 0.997753 0
M  V30 2189 H 195.303 -2.85465 2.62928 0
M  V30 2190 H 193.404 -3.71245 0.317531 0
M  V30 2191 H 193.517 -4.30289 2.10686 0
M  V30 2192 H 191.881 -2.32841 1.03234 0
M  V30 2193 H 192.664 -2.13043 2.69198 0
M  V30 2194 N 195.109 -0.891671 -1.2995 0
M  V30 2195 C 196.355 -0.514261 -1.96171 0
M  V30 2196 C 196.688 0.935506 -1.70182 0
M  V30 2197 O 195.963 1.66204 -1.01028 0
M  V30 2198 C 196.246 -0.797719 -3.51153 0
M  V30 2199 C 196.099 -2.2986 -3.86632 0
M  V30 2200 C 197.418 -0.278749 -4.39216 0
M  V30 2201 H 194.537 -0.188314 -0.712535 0
M  V30 2202 H 197.179 -1.11689 -1.53706 0
M  V30 2203 H 195.329 -0.284826 -3.87455 0
M  V30 2204 H 197.001 -2.88042 -3.60319 0
M  V30 2205 H 195.244 -2.76257 -3.34462 0
M  V30 2206 H 195.915 -2.44753 -4.94773 0
M  V30 2207 H 198.391 -0.717825 -4.09862 0
M  V30 2208 H 197.267 -0.506353 -5.46559 0
M  V30 2209 H 197.528 0.820266 -4.34424 0
M  V30 2210 N 196.587 1.43421 -0.653314 0
M  V30 2211 C 197.497 2.34568 0.0388565 0
M  V30 2212 C 198.513 1.53888 0.81207 0
M  V30 2213 O 199.689 1.86539 0.759294 0
M  V30 2214 C 196.754 3.32167 0.993269 0
M  V30 2215 C 195.815 4.28751 0.216977 0
M  V30 2216 C 195.048 5.21688 1.12593 0
M  V30 2217 O 195.271 5.19052 2.36519 0
M  V30 2218 O 194.205 5.98919 0.598284 0
M  V30 2219 H 198.031 2.95251 -0.711386 0
M  V30 2220 H 195.616 1.43564 -0.413502 0
M  V30 2221 H 197.498 3.92183 1.54176 0
M  V30 2222 H 196.173 2.73987 1.72374 0
M  V30 2223 H 195.08 3.72215 -0.375101 0
M  V30 2224 H 196.413 4.89913 -0.473924 0
M  V30 2225 N 198.065 0.39524 1.52563 0
M  V30 2226 C 199.028 -0.425001 2.25225 0
M  V30 2227 C 200.028 -0.985266 1.27079 0
M  V30 2228 O 201.218 -0.866332 1.5113 0
M  V30 2229 C 198.35 -1.59686 3.01186 0
M  V30 2230 H 199.543 0.211233 2.99155 0
M  V30 2231 H 197.096 0.147472 1.55603 0
M  V30 2232 H 197.831 -2.27035 2.31572 0
M  V30 2233 H 197.616 -1.20176 3.73229 0
M  V30 2234 H 199.106 -2.17743 3.5634 0
M  V30 2235 N 199.544 -1.57102 0.125237 0
M  V30 2236 C 200.79 -1.96488 -0.525753 0
M  V30 2237 C 201.145 -1.00786 -1.6389 0
M  V30 2238 O 200.438 -0.038979 -1.9156 0
M  V30 2239 C 200.632 -3.40096 -1.09862 0
M  V30 2240 C 200.461 -4.4968 -0.0425004 0
M  V30 2241 C 199.231 -5.03781 0.391463 0
M  V30 2242 C 201.429 -5.08936 0.740829 0
M  V30 2243 N 199.411 -5.96948 1.4327 0
M  V30 2244 C 200.782 -5.98105 1.6331 0
M  V30 2245 C 202.837 -4.91576 0.791029 0
M  V30 2246 C 201.54 -6.71774 2.57122 0
M  V30 2247 C 203.566 -5.6593 1.71688 0
M  V30 2248 C 202.928 -6.5479 2.59672 0
M  V30 2249 H 199.027 -0.765072 -0.161831 0
M  V30 2250 H 201.611 -1.93511 0.214801 0
M  V30 2251 H 199.782 -3.43707 -1.80887 0
M  V30 2252 H 201.514 -3.66591 -1.71444 0
M  V30 2253 H 198.269 -4.736 -0.00213584 0
M  V30 2254 H 198.693 -6.48236 1.95243 0
M  V30 2255 H 203.335 -4.22615 0.124915 0
M  V30 2256 H 201.053 -7.39977 3.24744 0
M  V30 2257 H 204.639 -5.54501 1.76125 0
M  V30 2258 H 203.519 -7.11316 3.30149 0
M  V30 2259 N 201.022 0.148545 -1.56898 0
M  V30 2260 C 201.985 1.16736 -1.97244 0
M  V30 2261 C 202.985 1.35947 -0.858777 0
M  V30 2262 O 204.175 1.32966 -1.12542 0
M  V30 2263 C 201.307 2.52798 -2.28705 0
M  V30 2264 H 202.5 0.821279 -2.88435 0
M  V30 2265 H 200.053 0.391831 -1.51309 0
M  V30 2266 H 200.788 2.92381 -1.403 0
M  V30 2267 H 200.573 2.40216 -3.09901 0
M  V30 2268 H 202.063 3.26179 -2.60762 0
M  V30 2269 N 202.5 1.5196 0.417844 0
M  V30 2270 C 203.725 1.69717 1.1921 0
M  V30 2271 C 204.15 0.402148 1.83751 0
M  V30 2272 O 203.508 -0.639593 1.69643 0
M  V30 2273 C 203.556 2.82794 2.2374 0
M  V30 2274 O 202.66 2.47756 3.29683 0
M  V30 2275 H 202.001 0.565263 0.348387 0
M  V30 2276 H 204.531 1.98621 0.490985 0
M  V30 2277 H 204.541 3.07452 2.68212 0
M  V30 2278 H 203.216 3.76756 1.76146 0
M  V30 2279 H 201.793 2.33739 2.90552 0
M  V30 2280 N 203.978 -0.674533 1.42435 0
M  V30 2281 C 205.227 -1.43034 1.42212 0
M  V30 2282 C 205.54 -1.95555 0.0420788 0
M  V30 2283 O 206.746 -2.71374 -0.0827558 0
M  V30 2284 C 205.202 -2.58748 2.50155 0
M  V30 2285 C 204.81 -2.12925 3.94166 0
M  V30 2286 C 206.554 -3.36257 2.59098 0
M  V30 2287 C 204.461 -3.25723 4.93618 0
M  V30 2288 H 203.391 -0.537345 0.528939 0
M  V30 2289 H 206.042 -0.73024 1.68344 0
M  V30 2290 H 204.424 -3.31128 2.17188 0
M  V30 2291 H 205.598 -1.47697 4.36488 0
M  V30 2292 H 203.913 -1.48354 3.89076 0
M  V30 2293 H 206.51 -4.20264 3.30578 0
M  V30 2294 H 206.853 -3.82866 1.63461 0
M  V30 2295 H 207.386 -2.70947 2.9126 0
M  V30 2296 H 204.125 -2.84105 5.90732 0
M  V30 2297 H 203.645 -3.89732 4.55926 0
M  V30 2298 H 205.324 -3.91186 5.15347 0
M  V30 2299 N 205.456 -1.28612 -0.910864 0
M  V30 2300 C 206.705 -1.15311 -1.65488 0
M  V30 2301 C 207.018 0.296999 -1.93332 0
M  V30 2302 O 208.224 0.551168 -2.65847 0
M  V30 2303 C 206.68 -2.01599 -2.98137 0
M  V30 2304 C 206.288 -3.51367 -2.7793 0
M  V30 2305 C 208.032 -1.96993 -3.76024 0
M  V30 2306 C 205.939 -4.29797 -4.06237 0
M  V30 2307 H 204.869 -0.42796 -0.620779 0
M  V30 2308 H 207.52 -1.53166 -1.01057 0
M  V30 2309 H 205.902 -1.56603 -3.63719 0
M  V30 2310 H 207.076 -4.0434 -2.21011 0
M  V30 2311 H 205.391 -3.57529 -2.13452 0
M  V30 2312 H 207.988 -2.52856 -4.71135 0
M  V30 2313 H 208.331 -0.94733 -4.05378 0
M  V30 2314 H 208.864 -2.39973 -3.17266 0
M  V30 2315 H 205.603 -5.32648 -3.82055 0
M  V30 2316 H 205.123 -3.81596 -4.62757 0
M  V30 2317 H 206.802 -4.39869 -4.74473 0
M  V30 2318 N 206.934 1.1197 -1.10907 0
M  V30 2319 C 207.844 2.21433 -0.774896 0
M  V30 2320 C 208.86 1.72478 0.229657 0
M  V30 2321 O 210.036 2.01288 0.0672008 0
M  V30 2322 C 207.101 3.4602 -0.216986 0
M  V30 2323 C 206.162 4.09791 -1.27944 0
M  V30 2324 C 205.395 5.28431 -0.748055 0
M  V30 2325 O 205.618 5.68823 0.423833 0
M  V30 2326 O 204.552 5.82644 -1.51027 0
M  V30 2327 H 208.378 2.5242 -1.68873 0
M  V30 2328 H 205.963 1.20399 -0.884555 0
M  V30 2329 H 207.845 4.21304 0.090059 0
M  V30 2330 H 206.52 3.16698 0.669633 0
M  V30 2331 H 205.427 3.36265 -1.63941 0
M  V30 2332 H 206.76 4.4328 -2.13925 0
M  V30 2333 N 208.412 0.89855 1.29475 0
M  V30 2334 C 209.689 0.443416 1.90508 0
M  V30 2335 C 210.069 -1.07685 1.81569 0
M  V30 2336 O 209.417 -1.9182 1.24166 0
M  V30 2337 C 209.627 0.956708 3.35631 0
M  V30 2338 C 210.975 0.999728 4.12663 0
M  V30 2339 O 211.999 0.904299 3.4453 0
M  V30 2340 O 210.858 1.14289 5.34416 0
M  V30 2341 H 207.952 0.138025 0.815401 0
M  V30 2342 H 210.498 0.98834 1.37949 0
M  V30 2343 H 209.27 2.00067 3.36287 0
M  V30 2344 H 208.893 0.391728 3.95666 0
M  V30 2345 N 209.89 -1.43072 0.660911 0
M  V30 2346 C 210.853 -2.29194 -0.0166406 0
M  V30 2347 C 211.853 -1.42609 -0.742912 0
M  V30 2348 O 213.043 -1.64155 -0.583004 0
M  V30 2349 C 210.175 -3.24831 -1.0343 0
M  V30 2350 H 211.368 -2.90596 0.741208 0
M  V30 2351 H 208.921 -1.5048 0.422532 0
M  V30 2352 H 209.656 -2.68339 -1.82111 0
M  V30 2353 H 209.441 -3.88676 -0.517082 0
M  V30 2354 H 210.931 -3.89451 -1.50723 0
M  V30 2355 N 211.368 -0.403325 -1.52352 0
M  V30 2356 C 212.645 0.232611 -1.94212 0
M  V30 2357 C 213.025 1.63133 -1.33981 0
M  V30 2358 O 212.373 2.22659 -0.513344 0
M  V30 2359 C 212.583 0.244811 -3.4814 0
M  V30 2360 C 213.931 0.46698 -4.22024 0
M  V30 2361 O 214.955 0.324419 -3.5472 0
M  V30 2362 O 213.814 0.74747 -5.41364 0
M  V30 2363 H 210.908 0.148223 -0.813609 0
M  V30 2364 H 213.454 -0.458848 -1.63379 0
M  V30 2365 H 212.226 -0.734378 -3.84347 0
M  V30 2366 H 211.849 0.980611 -3.85318 0
M  V30 2367 N 212.846 1.57033 -0.133567 0
M  V30 2368 C 213.793 2.16074 0.811208 0
M  V30 2369 C 214.763 1.08979 1.2535 0
M  V30 2370 O 215.948 1.36958 1.32843 0
M  V30 2371 C 213.088 2.77595 2.05024 0
M  V30 2372 C 212.201 3.99042 1.65498 0
M  V30 2373 C 211.336 4.48603 2.84479 0
M  V30 2374 C 210.375 5.62547 2.41262 0
M  V30 2375 N 209.512 6.06787 3.53206 0
M  V30 2376 H 214.352 2.96477 0.300906 0
M  V30 2377 H 211.889 1.46462 0.136822 0
M  V30 2378 H 213.847 3.11402 2.77642 0
M  V30 2379 H 212.477 1.99859 2.53488 0
M  V30 2380 H 211.529 3.71302 0.826981 0
M  V30 2381 H 212.841 4.81629 1.29748 0
M  V30 2382 H 211.995 4.84395 3.65303 0
M  V30 2383 H 210.734 3.64995 3.23465 0
M  V30 2384 H 209.739 5.26345 1.58874 0
M  V30 2385 H 210.964 6.47931 2.03377 0
M  V30 2386 H 208.91 5.26117 3.91838 0
M  V30 2387 H 208.827 6.84266 3.21427 0
M  V30 2388 H 210.095 6.4722 4.34427 0
M  V30 2389 N 214.325 -0.140222 1.56975 0
M  V30 2390 C 215.288 -1.15689 1.97861 0
M  V30 2391 C 216.288 -1.3549 0.865974 0
M  V30 2392 O 217.478 -1.32367 1.13246 0
M  V30 2393 C 214.61 -2.51582 2.30042 0
M  V30 2394 H 215.803 -0.805971 2.88867 0
M  V30 2395 H 213.356 -0.383801 1.51515 0
M  V30 2396 H 214.091 -2.91632 1.41849 0
M  V30 2397 H 213.876 -2.38569 3.11171 0
M  V30 2398 H 215.366 -3.24792 2.62488 0
M  V30 2399 N 215.803 -1.52179 -0.40978 0
M  V30 2400 C 216.75 -1.75475 -1.49924 0
M  V30 2401 C 217.72 -0.597175 -1.54994 0
M  V30 2402 O 218.905 -0.834655 -1.71575 0
M  V30 2403 C 216.045 -1.9107 -2.87378 0
M  V30 2404 C 215.158 -3.18717 -2.91622 0
M  V30 2405 C 214.293 -3.24747 -4.20372 0
M  V30 2406 C 213.332 -4.46598 -4.18588 0
M  V30 2407 N 212.469 -4.50025 -5.38908 0
M  V30 2408 H 217.309 -2.68458 -1.29361 0
M  V30 2409 H 214.846 -1.33024 -0.627934 0
M  V30 2410 H 216.804 -1.98096 -3.6717 0
M  V30 2411 H 215.434 -1.01469 -3.06437 0
M  V30 2412 H 214.486 -3.20866 -2.04326 0
M  V30 2413 H 215.798 -4.08544 -2.86169 0
M  V30 2414 H 214.952 -3.30841 -5.08556 0
M  V30 2415 H 213.691 -2.32857 -4.28519 0
M  V30 2416 H 212.696 -4.40652 -3.28794 0
M  V30 2417 H 213.921 -5.39783 -4.12081 0
M  V30 2418 H 211.867 -3.61017 -5.47725 0
M  V30 2419 H 211.784 -5.33697 -5.35447 0
M  V30 2420 H 213.052 -4.60347 -6.29048 0
M  V30 2421 N 217.281 0.66697 -1.42791 0
M  V30 2422 C 218.506 1.46004 -1.47301 0
M  V30 2423 C 218.931 1.87894 -0.0880317 0
M  V30 2424 O 218.289 1.56502 0.915253 0
M  V30 2425 C 218.337 2.68031 -2.41229 0
M  V30 2426 O 217.441 3.6659 -1.88906 0
M  V30 2427 H 216.782 0.43832 -0.49877 0
M  V30 2428 H 219.312 0.817391 -1.87563 0
M  V30 2429 H 219.322 3.1601 -2.58073 0
M  V30 2430 H 217.997 2.36883 -3.41847 0
M  V30 2431 H 216.574 3.25661 -1.81656 0
M  V30 2432 N 218.759 1.29093 0.90403 0
M  V30 2433 C 220.006 1.16813 1.65411 0
M  V30 2434 C 220.334 -0.28128 1.92455 0
M  V30 2435 O 219.589 -1.22006 1.53013 0
M  V30 2436 C 219.888 1.92224 3.01305 0
M  V30 2437 C 219.554 3.41968 2.93885 0
M  V30 2438 C 218.216 3.82807 2.91569 0
M  V30 2439 C 220.568 4.37409 2.83413 0
M  V30 2440 C 217.896 5.1741 2.76594 0
M  V30 2441 C 220.248 5.72097 2.69977 0
M  V30 2442 C 218.912 6.12199 2.66024 0
M  V30 2443 H 218.182 0.42745 0.605283 0
M  V30 2444 H 220.829 1.59981 1.05254 0
M  V30 2445 H 219.134 1.41635 3.65304 0
M  V30 2446 H 220.831 1.80131 3.58265 0
M  V30 2447 H 217.421 3.09504 2.96488 0
M  V30 2448 H 221.605 4.06813 2.84283 0
M  V30 2449 H 216.861 5.47596 2.71935 0
M  V30 2450 H 221.035 6.45704 2.60844 0
M  V30 2451 H 218.662 7.16448 2.54178 0
M  V30 2452 N 220.237 -1.11381 1.11499 0
M  V30 2453 C 221.184 -2.17439 0.773887 0
M  V30 2454 C 222.154 -1.64132 -0.254899 0
M  V30 2455 O 223.339 -1.90345 -0.13168 0
M  V30 2456 C 220.479 -3.44373 0.223917 0
M  V30 2457 C 219.592 -4.1168 1.30934 0
M  V30 2458 C 218.727 -5.263 0.71984 0
M  V30 2459 C 217.766 -5.85493 1.78507 0
M  V30 2460 N 216.903 -6.91507 1.21502 0
M  V30 2461 H 221.743 -2.45962 1.68246 0
M  V30 2462 H 219.28 -1.20744 0.840191 0
M  V30 2463 H 221.238 -4.17047 -0.112921 0
M  V30 2464 H 219.868 -3.16232 -0.647851 0
M  V30 2465 H 218.92 -3.37073 1.76312 0
M  V30 2466 H 220.232 -4.51729 2.11524 0
M  V30 2467 H 219.386 -6.05785 0.333094 0
M  V30 2468 H 218.125 -4.87559 -0.117377 0
M  V30 2469 H 217.13 -5.04686 2.18111 0
M  V30 2470 H 218.355 -6.26301 2.62533 0
M  V30 2471 H 216.301 -6.54783 0.399455 0
M  V30 2472 H 216.218 -7.30214 1.95763 0
M  V30 2473 H 217.486 -7.74795 0.855181 0
M  V30 2474 N 221.715 -0.905404 -1.28997 0
M  V30 2475 C 222.647 -0.344748 -2.26592 0
M  V30 2476 C 223.66 0.512135 -1.54535 0
M  V30 2477 O 224.849 0.328368 -1.75454 0
M  V30 2478 C 221.949 0.526587 -3.34784 0
M  V30 2479 C 221.122 -0.305871 -4.36329 0
M  V30 2480 C 220.181 0.499209 -5.23827 0
M  V30 2481 O 219.207 -0.0853004 -5.69136 0
M  V30 2482 N 220.409 1.80408 -5.51755 0
M  V30 2483 H 223.174 -1.18359 -2.75338 0
M  V30 2484 H 220.735 -0.770481 -1.42391 0
M  V30 2485 H 222.727 1.07171 -3.90252 0
M  V30 2486 H 221.297 1.26613 -2.85811 0
M  V30 2487 H 220.517 -1.0324 -3.80441 0
M  V30 2488 H 221.805 -0.875773 -5.01206 0
M  V30 2489 H 221.203 2.3016 -5.16762 0
M  V30 2490 H 219.76 2.29621 -6.10014 0
M  V30 2491 N 223.193 1.4272 -0.668489 0
M  V30 2492 C 224.156 2.292 0.00448567 0
M  V30 2493 C 225.156 1.43001 0.735339 0
M  V30 2494 O 226.346 1.64461 0.57429 0
M  V30 2495 C 223.478 3.25375 1.01705 0
M  V30 2496 H 224.671 2.90199 -0.756608 0
M  V30 2497 H 222.224 1.50254 -0.430506 0
M  V30 2498 H 222.959 2.69301 1.80686 0
M  V30 2499 H 222.744 3.88944 0.496463 0
M  V30 2500 H 224.234 3.90245 1.48655 0
M  V30 2501 N 224.671 0.411399 1.52136 0
M  V30 2502 C 226.087 0.0623865 1.59478 0
M  V30 2503 C 226.287 -1.42554 1.4241 0
M  V30 2504 O 225.343 -2.19263 1.2522 0
M  V30 2505 C 226.656 0.559331 2.95452 0
M  V30 2506 C 228.204 0.517503 3.08692 0
M  V30 2507 C 228.679 0.990994 4.4715 0
M  V30 2508 N 230.17 0.947908 4.53397 0
M  V30 2509 C 230.905 1.28544 5.58806 0
M  V30 2510 N 230.401 1.69454 6.71757 0
M  V30 2511 N 232.194 1.20526 5.49026 0
M  V30 2512 H 224.345 1.37982 1.61477 0
M  V30 2513 H 226.608 0.566977 0.759764 0
M  V30 2514 H 226.314 1.59938 3.1323 0
M  V30 2515 H 226.188 -0.0298014 3.77188 0
M  V30 2516 H 228.575 -0.513505 2.90598 0
M  V30 2517 H 228.656 1.14272 2.28857 0
M  V30 2518 H 228.3 2.02034 4.65988 0
M  V30 2519 H 228.23 0.34257 5.25485 0
M  V30 2520 H 230.721 0.647157 3.72317 0
M  V30 2521 H 231.034 1.93513 7.48179 0
M  V30 2522 H 229.379 1.73359 6.73032 0
M  V30 2523 H 232.57 0.884505 4.59667 0
M  V30 2524 H 232.743 1.47161 6.31069 0
M  V30 2525 N 226.149 -1.5696 0.141893 0
M  V30 2526 C 227.397 -1.95573 -0.509484 0
M  V30 2527 C 227.718 -1.02746 -1.65736 0
M  V30 2528 O 226.988 -0.0880311 -1.95702 0
M  V30 2529 H 225.568 -0.722115 -0.191205 0
M  V30 2530 H 228.23 -1.93697 0.216196 0
M  V30 2531 H 227.326 -2.99171 -0.889 0
M  V30 2532 N 227.627 0.131896 -1.57047 0
M  V30 2533 C 229.043 0.485031 -1.52051 0
M  V30 2534 C 229.243 1.82563 -0.85281 0
M  V30 2535 O 228.299 2.48817 -0.429694 0
M  V30 2536 C 229.612 0.481409 -2.96821 0
M  V30 2537 C 231.16 0.565868 -3.07842 0
M  V30 2538 C 231.635 0.592762 -4.54148 0
M  V30 2539 N 233.126 0.654564 -4.58552 0
M  V30 2540 C 233.861 0.696608 -5.69153 0
M  V30 2541 N 233.357 0.697078 -6.89284 0
M  V30 2542 N 235.15 0.738639 -5.57226 0
M  V30 2543 H 227.301 -0.746664 -1.98843 0
M  V30 2544 H 229.564 -0.273999 -0.90754 0
M  V30 2545 H 229.27 -0.435731 -3.4899 0
M  V30 2546 H 229.144 1.3139 -3.53577 0
M  V30 2547 H 231.531 1.47343 -2.55684 0
M  V30 2548 H 231.612 -0.29406 -2.54104 0
M  V30 2549 H 231.256 -0.310701 -5.06949 0
M  V30 2550 H 231.186 1.46939 -5.05684 0
M  V30 2551 H 233.677 0.660887 -3.72076 0
M  V30 2552 H 233.99 0.731426 -7.69331 0
M  V30 2553 H 232.335 0.66471 -6.91814 0
M  V30 2554 H 235.526 0.735545 -4.62285 0
M  V30 2555 H 235.699 0.767938 -6.43434 0
M  V30 2556 N 229.106 1.52395 0.401703 0
M  V30 2557 C 230.354 1.66488 1.14569 0
M  V30 2558 C 230.675 0.400897 1.90835 0
M  V30 2559 O 229.945 -0.584415 1.8698 0
M  V30 2560 H 228.525 0.613672 0.425929 0
M  V30 2561 H 231.187 1.89464 0.457093 0
M  V30 2562 H 230.283 2.50942 1.85566 0
M  V30 2563 N 230.584 -0.659388 1.43143 0
M  V30 2564 C 231.832 -1.41654 1.44147 0
M  V30 2565 C 232.153 -1.94893 0.0645739 0
M  V30 2566 O 231.423 -1.74044 -0.899198 0
M  V30 2567 H 230.003 -0.525708 0.530697 0
M  V30 2568 H 232.665 -0.778097 1.78694 0
M  V30 2569 H 231.761 -2.26195 2.1504 0
M  V30 2570 N 232.062 -1.29571 -0.897171 0
M  V30 2571 C 233.309 -1.17689 -1.6479 0
M  V30 2572 C 233.637 0.27107 -1.92602 0
M  V30 2573 O 232.892 1.21193 -1.53658 0
M  V30 2574 C 233.191 -1.9382 -3.00281 0
M  V30 2575 C 232.857 -3.43522 -2.92068 0
M  V30 2576 C 231.519 -3.84348 -2.89535 0
M  V30 2577 C 233.871 -4.38906 -2.81089 0
M  V30 2578 C 231.199 -5.18869 -2.73846 0
M  V30 2579 C 233.551 -5.73521 -2.66939 0
M  V30 2580 C 232.215 -6.13601 -2.62774 0
M  V30 2581 H 231.485 -0.430654 -0.603008 0
M  V30 2582 H 234.132 -1.60536 -1.04404 0
M  V30 2583 H 232.437 -1.4357 -3.64547 0
M  V30 2584 H 234.134 -1.82028 -3.57305 0
M  V30 2585 H 230.724 -3.11072 -2.94842 0
M  V30 2586 H 234.908 -4.08315 -2.82121 0
M  V30 2587 H 230.164 -5.4903 -2.69027 0
M  V30 2588 H 234.338 -6.47078 -2.57416 0
M  V30 2589 H 231.965 -7.17786 -2.50375 0
M  V30 2590 N 233.54 1.10788 -1.12088 0
M  V30 2591 C 234.786 1.82942 -0.875226 0
M  V30 2592 C 235.119 1.84779 0.597538 0
M  V30 2593 O 234.394 1.30578 1.44152 0
M  V30 2594 C 234.677 3.29789 -1.44606 0
M  V30 2595 C 234.53 3.36307 -2.98693 0
M  V30 2596 C 235.849 4.26064 -1.10261 0
M  V30 2597 H 232.968 0.664195 -0.319397 0
M  V30 2598 H 235.61 1.29867 -1.38689 0
M  V30 2599 H 233.76 3.75118 -1.01089 0
M  V30 2600 H 235.432 2.99487 -3.50864 0
M  V30 2601 H 233.675 2.76318 -3.34411 0
M  V30 2602 H 234.346 4.39694 -3.33726 0
M  V30 2603 H 236.822 3.88951 -1.4784 0
M  V30 2604 H 235.698 5.27183 -1.52869 0
M  V30 2605 H 235.959 4.42098 -0.0142953 0
M  V30 2606 N 235.018 0.912232 1.28515 0
M  V30 2607 C 236.434 0.610159 1.47476 0
M  V30 2608 C 236.634 -0.844955 1.82928 0
M  V30 2609 O 235.69 -1.62416 1.93332 0
M  V30 2610 C 237.003 1.54675 2.57868 0
M  V30 2611 C 238.551 1.55331 2.71738 0
M  V30 2612 C 239.026 2.47649 3.85272 0
M  V30 2613 N 240.517 2.45767 3.92623 0
M  V30 2614 C 241.252 3.13896 4.79851 0
M  V30 2615 N 240.748 3.9135 5.71679 0
M  V30 2616 N 242.541 3.02991 4.73448 0
M  V30 2617 H 234.692 1.85318 1.03783 0
M  V30 2618 H 236.955 0.794777 0.516753 0
M  V30 2619 H 236.661 2.5841 2.38574 0
M  V30 2620 H 236.535 1.27671 3.54937 0
M  V30 2621 H 238.922 0.52335 2.90422 0
M  V30 2622 H 239.003 1.86378 1.75205 0
M  V30 2623 H 238.647 3.50745 3.67342 0
M  V30 2624 H 238.577 2.13904 4.81199 0
M  V30 2625 H 241.068 1.89503 3.26951 0
M  V30 2626 H 241.381 4.40359 6.35062 0
M  V30 2627 H 239.726 3.95455 5.71524 0
M  V30 2628 H 242.917 2.41987 4.007 0
M  V30 2629 H 243.09 3.5636 5.41213 0
M  V30 2630 N 236.496 -1.42363 0.676048 0
M  V30 2631 C 237.721 -2.06377 0.205705 0
M  V30 2632 C 238.146 -1.50463 -1.12883 0
M  V30 2633 O 237.504 -0.623619 -1.70237 0
M  V30 2634 C 237.552 -3.60277 0.152655 0
M  V30 2635 O 236.656 -4.02935 -0.87845 0
M  V30 2636 H 235.997 -0.655588 0.105359 0
M  V30 2637 H 238.527 -1.82475 0.925412 0
M  V30 2638 H 238.537 -4.07993 -0.0230675 0
M  V30 2639 H 237.212 -4.00346 1.12675 0
M  V30 2640 H 235.789 -3.66764 -0.673668 0
M  V30 2641 N 237.974 -0.419461 -1.51915 0
M  V30 2642 C 239.199 0.154572 -2.06823 0
M  V30 2643 C 239.624 1.3722 -1.28656 0
M  V30 2644 O 238.982 1.78461 -0.319583 0
M  V30 2645 C 239.03 0.473172 -3.57482 0
M  V30 2646 O 238.134 1.56255 -3.81652 0
M  V30 2647 H 237.475 0.0096924 -0.663929 0
M  V30 2648 H 240.005 -0.595642 -1.95738 0
M  V30 2649 H 240.015 0.728825 -4.01438 0
M  V30 2650 H 238.69 -0.416873 -4.13805 0
M  V30 2651 H 237.267 1.29825 -3.49571 0
M  V30 2652 N 239.452 1.56882 -0.150215 0
M  V30 2653 C 240.698 1.97299 0.494427 0
M  V30 2654 C 241.053 1.0338 1.62266 0
M  V30 2655 O 240.346 0.0694497 1.91474 0
M  V30 2656 C 240.54 3.41801 1.04437 0
M  V30 2657 C 240.369 4.49691 -0.0290451 0
M  V30 2658 C 239.139 5.03095 -0.47156 0
M  V30 2659 C 241.337 5.07693 -0.821703 0
M  V30 2660 N 239.319 5.94593 -1.52749 0
M  V30 2661 C 240.69 5.95431 -1.72805 0
M  V30 2662 C 242.745 4.90256 -0.869134 0
M  V30 2663 C 241.448 6.67599 -2.67777 0
M  V30 2664 C 243.474 5.63127 -1.8067 0
M  V30 2665 C 242.836 6.50576 -2.70057 0
M  V30 2666 H 238.935 0.76755 0.149639 0
M  V30 2667 H 241.519 1.93145 -0.24556 0
M  V30 2668 H 239.69 3.46541 1.75396 0
M  V30 2669 H 241.422 3.69272 1.6559 0
M  V30 2670 H 238.177 4.73543 -0.0732101 0
M  V30 2671 H 238.601 6.45047 -2.05531 0
M  V30 2672 H 243.243 4.22363 -0.192134 0
M  V30 2673 H 240.961 7.34717 -3.36476 0
M  V30 2674 H 244.547 5.51629 -1.84924 0
M  V30 2675 H 243.427 7.05974 -3.41424 0
M  V30 2676 N 240.93 -0.123565 1.57115 0
M  V30 2677 C 241.862 -1.17739 1.96648 0
M  V30 2678 C 242.875 -1.37906 0.865201 0
M  V30 2679 O 244.064 -1.37062 1.14351 0
M  V30 2680 C 241.164 -2.53821 2.24562 0
M  V30 2681 C 240.337 -2.54317 3.55867 0
M  V30 2682 C 239.396 -3.72112 3.72047 0
M  V30 2683 O 238.422 -3.55907 4.44206 0
M  V30 2684 N 239.624 -4.90498 3.10471 0
M  V30 2685 H 242.389 -0.841147 2.87654 0
M  V30 2686 H 239.95 -0.31289 1.58848 0
M  V30 2687 H 241.942 -3.31175 2.32606 0
M  V30 2688 H 240.512 -2.79645 1.39705 0
M  V30 2689 H 239.732 -1.62711 3.59053 0
M  V30 2690 H 241.02 -2.51701 4.42181 0
M  V30 2691 H 240.418 -5.06567 2.51806 0
M  V30 2692 H 238.975 -5.65544 3.24043 0
M  V30 2693 N 242.408 -1.52605 -0.393616 0
M  V30 2694 C 243.318 -1.79971 -1.50492 0
M  V30 2695 C 244.334 -0.686181 -1.59899 0
M  V30 2696 O 245.51 -0.973274 -1.76322 0
M  V30 2697 C 242.575 -1.95867 -2.86072 0
M  V30 2698 C 241.636 -3.19781 -2.86424 0
M  V30 2699 C 240.869 -3.34909 -4.15538 0
M  V30 2700 O 241.092 -2.54948 -5.10253 0
M  V30 2701 O 240.026 -4.28141 -4.23059 0
M  V30 2702 H 243.852 -2.74328 -1.30299 0
M  V30 2703 H 241.437 -1.3764 -0.581005 0
M  V30 2704 H 243.319 -2.08056 -3.66457 0
M  V30 2705 H 241.994 -1.04699 -3.063 0
M  V30 2706 H 240.901 -3.13038 -2.04837 0
M  V30 2707 H 242.234 -4.1078 -2.71147 0
M  V30 2708 N 243.887 0.651787 -1.4349 0
M  V30 2709 C 245.133 1.41376 -1.45398 0
M  V30 2710 C 245.466 1.94041 -0.0784823 0
M  V30 2711 O 244.741 1.72379 0.900878 0
M  V30 2712 C 245.024 2.59414 -2.49752 0
M  V30 2713 C 244.877 2.12232 -3.96582 0
M  V30 2714 C 246.196 3.61626 -2.50827 0
M  V30 2715 H 243.315 0.512719 -0.529422 0
M  V30 2716 H 245.957 0.738796 -1.75048 0
M  V30 2717 H 244.107 3.16997 -2.246 0
M  V30 2718 H 245.779 1.59639 -4.32797 0
M  V30 2719 H 244.022 1.43592 -4.09346 0
M  V30 2720 H 244.693 2.9712 -4.65214 0
M  V30 2721 H 247.169 3.13805 -2.7325 0
M  V30 2722 H 246.045 4.41766 -3.25783 0
M  V30 2723 H 246.306 4.14314 -1.5426 0
M  V30 2724 N 245.365 1.30045 0.890287 0
M  V30 2725 C 246.313 1.15873 2.01683 0
M  V30 2726 C 247.307 0.0719403 1.69247 0
M  V30 2727 O 248.513 0.232414 1.78493 0
M  V30 2728 H 244.888 0.358203 0.661207 0
M  V30 2729 H 246.859 2.11229 2.10772 0
M  V30 2730 C 245.608 0.861842 3.36849 0
M  V30 2731 H 244.931 1.69016 3.62317 0
M  V30 2732 H 246.371 0.802762 4.16331 0
M  V30 2733 C 244.83 -0.435132 3.34078 0
M  V30 2734 O 245.36 -1.4583 3.74295 0
M  V30 2735 N 243.566 -0.444377 2.87182 0
M  V30 2736 H 243.113 0.388723 2.5465 0
M  V30 2737 H 243.071 -1.31213 2.85711 0
M  V30 2738 N 246.843 -1.10192 1.12674 0
M  V30 2739 C 247.753 -2.20172 0.810026 0
M  V30 2740 C 248.769 -1.72821 -0.202188 0
M  V30 2741 O 249.945 -2.01369 -0.0351691 0
M  V30 2742 C 247.01 -3.45631 0.272007 0
M  V30 2743 C 246.071 -4.07704 1.34447 0
M  V30 2744 C 245.304 -5.27175 0.832029 0
M  V30 2745 O 245.527 -5.69425 -0.333284 0
M  V30 2746 O 244.461 -5.80168 1.60277 0
M  V30 2747 H 248.287 -2.49701 1.72867 0
M  V30 2748 H 245.872 -1.18977 0.903597 0
M  V30 2749 H 247.754 -4.21394 -0.0230219 0
M  V30 2750 H 246.429 -3.17723 -0.619164 0
M  V30 2751 H 245.336 -3.33614 1.6927 0
M  V30 2752 H 246.669 -4.3982 2.2095 0
M  V30 2753 N 248.321 -0.919034 -1.28029 0
M  V30 2754 C 249.251 -0.428581 -2.29533 0
M  V30 2755 C 250.232 0.50659 -1.62381 0
M  V30 2756 O 251.417 0.413195 -1.89753 0
M  V30 2757 C 248.547 0.327388 -3.45753 0
M  V30 2758 C 247.501 -0.519137 -4.2484 0
M  V30 2759 C 246.827 0.365486 -5.33449 0
M  V30 2760 C 248.127 -1.77914 -4.91064 0
M  V30 2761 H 249.821 -1.27687 -2.70807 0
M  V30 2762 H 247.367 -0.615428 -1.30186 0
M  V30 2763 H 249.32 0.681378 -4.15855 0
M  V30 2764 H 248.044 1.20963 -3.03374 0
M  V30 2765 H 246.703 -0.855717 -3.56473 0
M  V30 2766 H 246.351 1.24642 -4.87312 0
M  V30 2767 H 246.051 -0.197356 -5.87268 0
M  V30 2768 H 247.575 0.715241 -6.06396 0
M  V30 2769 H 248.989 -1.49374 -5.53498 0
M  V30 2770 H 247.386 -2.2848 -5.54903 0
M  V30 2771 H 248.456 -2.50382 -4.15255 0
M  V30 2772 N 249.799 1.42003 -0.683588 0
M  V30 2773 C 251.048 2.00638 -0.206681 0
M  V30 2774 C 251.361 1.5472 1.19671 0
M  V30 2775 O 252.567 2.05833 1.77045 0
M  V30 2776 C 251.023 3.58487 -0.318632 0
M  V30 2777 C 250.631 4.1339 -1.72663 0
M  V30 2778 C 252.375 4.24384 0.0991141 0
M  V30 2779 C 250.282 5.63633 -1.79087 0
M  V30 2780 H 249.212 0.750408 -0.0735107 0
M  V30 2781 H 251.863 1.62624 -0.850048 0
M  V30 2782 H 250.245 3.94047 0.392781 0
M  V30 2783 H 251.419 3.89273 -2.46583 0
M  V30 2784 H 249.734 3.59976 -2.09299 0
M  V30 2785 H 252.331 5.34652 0.0713833 0
M  V30 2786 H 252.674 4.00505 1.13586 0
M  V30 2787 H 253.207 3.93816 -0.561599 0
M  V30 2788 H 249.946 5.92323 -2.80774 0
M  V30 2789 H 249.466 5.89714 -1.09535 0
M  V30 2790 H 251.145 6.28201 -1.5483 0
M  V30 2791 N 251.277 0.427512 1.51691 0
M  V30 2792 C 252.24 -0.377132 2.26076 0
M  V30 2793 C 253.24 -0.958089 1.29141 0
M  V30 2794 O 254.43 -0.83408 1.52934 0
M  V30 2795 C 251.562 -1.53262 3.04506 0
M  V30 2796 H 252.755 0.27464 2.9864 0
M  V30 2797 H 250.308 0.180445 1.55255 0
M  V30 2798 H 251.043 -2.22072 2.36335 0
M  V30 2799 H 250.828 -1.12232 3.75694 0
M  V30 2800 H 252.318 -2.10135 3.60878 0
M  V30 2801 N 252.755 -1.56801 0.158532 0
M  V30 2802 C 253.718 -2.16138 -0.762705 0
M  V30 2803 C 254.718 -1.1061 -1.16713 0
M  V30 2804 O 255.908 -1.36191 -1.08617 0
M  V30 2805 C 253.04 -2.73386 -2.03649 0
M  V30 2806 H 254.233 -2.98886 -0.246354 0
M  V30 2807 H 251.786 -1.56035 -0.0909744 0
M  V30 2808 H 252.521 -1.94335 -2.59623 0
M  V30 2809 H 252.306 -3.50601 -1.75559 0
M  V30 2810 H 253.796 -3.19065 -2.6942 0
M  V30 2811 N 254.233 0.115231 -1.57178 0
M  V30 2812 C 255.458 0.840354 -1.89612 0
M  V30 2813 C 255.883 1.72464 -0.750845 0
M  V30 2814 O 255.241 1.78826 0.298478 0
M  V30 2815 C 255.289 1.64654 -3.20814 0
M  V30 2816 O 254.393 2.7538 -3.06985 0
M  V30 2817 H 253.734 0.232158 -0.622092 0
M  V30 2818 H 256.264 0.0964977 -2.04372 0
M  V30 2819 H 256.274 2.03499 -3.53627 0
M  V30 2820 H 254.949 0.997416 -4.03763 0
M  V30 2821 H 253.526 2.3971 -2.85646 0
M  V30 2822 N 255.711 1.52812 0.385517 0
M  V30 2823 C 256.659 1.78482 1.49155 0
M  V30 2824 C 257.653 0.652914 1.56312 0
M  V30 2825 O 258.859 0.835464 1.59436 0
M  V30 2826 H 255.234 0.5648 0.496493 0
M  V30 2827 H 257.205 2.71095 1.24699 0
M  V30 2828 C 255.954 1.97378 2.86247 0
M  V30 2829 H 255.277 2.83907 2.81491 0
M  V30 2830 H 256.717 2.19327 3.62866 0
M  V30 2831 C 255.176 0.74728 3.28508 0
M  V30 2832 O 255.706 -0.0736232 4.01633 0
M  V30 2833 N 253.912 0.576396 2.84826 0
M  V30 2834 H 253.459 1.24555 2.25486 0
M  V30 2835 H 253.417 -0.24288 3.1346 0
M  V30 2836 N 257.189 -0.644168 1.43834 0
M  V30 2837 C 258.435 -1.40603 1.46146 0
M  V30 2838 C 258.768 -1.93997 0.0887717 0
M  V30 2839 O 258.043 -1.72854 -0.891724 0
M  V30 2840 C 258.326 -2.58086 2.51124 0
M  V30 2841 C 258.179 -2.10126 3.97702 0
M  V30 2842 C 259.498 -3.60291 2.52742 0
M  V30 2843 H 256.617 -0.509905 0.532134 0
M  V30 2844 H 259.259 -0.729502 1.75437 0
M  V30 2845 H 257.409 -3.15801 2.26278 0
M  V30 2846 H 259.081 -1.57342 4.33637 0
M  V30 2847 H 257.324 -1.41419 4.10101 0
M  V30 2848 H 257.995 -2.94649 4.66783 0
M  V30 2849 H 260.471 -3.12352 2.7491 0
M  V30 2850 H 259.347 -4.40032 3.28121 0
M  V30 2851 H 259.608 -4.1349 1.56455 0
M  V30 2852 N 258.668 -1.30515 -0.883378 0
M  V30 2853 C 259.898 -1.22182 -1.66599 0
M  V30 2854 C 260.306 0.217507 -1.87946 0
M  V30 2855 O 259.649 1.1554 -1.42815 0
M  V30 2856 C 259.711 -1.88146 -3.06335 0
M  V30 2857 C 259.375 -3.37476 -3.08154 0
M  V30 2858 C 260.372 -4.33443 -2.87094 0
M  V30 2859 C 258.057 -3.7895 -3.29701 0
M  V30 2860 C 260.051 -5.68858 -2.8754 0
M  V30 2861 C 257.738 -5.14482 -3.29776 0
M  V30 2862 C 258.736 -6.09246 -3.0872 0
M  V30 2863 O 258.424 -7.42302 -3.08615 0
M  V30 2864 H 258.156 -0.423898 -0.52658 0
M  V30 2865 H 260.71 -1.72703 -1.11188 0
M  V30 2866 H 258.94 -1.32157 -3.63416 0
M  V30 2867 H 260.629 -1.7391 -3.66756 0
M  V30 2868 H 261.395 -4.02733 -2.70243 0
M  V30 2869 H 257.274 -3.05631 -3.45124 0
M  V30 2870 H 260.818 -6.428 -2.71024 0
M  V30 2871 H 256.715 -5.44832 -3.46163 0
M  V30 2872 H 257.483 -7.5131 -3.24769 0
M  V30 2873 N 260.146 1.09593 -1.13257 0
M  V30 2874 C 261.374 1.855 -0.916378 0
M  V30 2875 C 261.789 1.81069 0.534738 0
M  V30 2876 O 261.146 1.20562 1.37007 0
M  V30 2877 C 261.197 3.33546 -1.39388 0
M  V30 2878 O 260.918 3.37927 -2.78813 0
M  V30 2879 C 262.419 4.26299 -1.21588 0
M  V30 2880 H 259.639 0.585991 -0.326887 0
M  V30 2881 H 262.183 1.38488 -1.5047 0
M  V30 2882 H 260.338 3.77992 -0.848597 0
M  V30 2883 H 260.752 4.30254 -2.9997 0
M  V30 2884 H 262.226 5.28341 -1.59876 0
M  V30 2885 H 262.703 4.38918 -0.157376 0
M  V30 2886 H 263.309 3.87668 -1.7491 0
M  V30 2887 N 261.624 0.925811 1.2754 0
M  V30 2888 C 262.873 0.561084 1.93739 0
M  V30 2889 C 263.186 -0.901685 1.73577 0
M  V30 2890 O 264.392 -1.37511 2.34101 0
M  V30 2891 C 262.848 0.952668 3.47062 0
M  V30 2892 C 262.456 2.43599 3.75983 0
M  V30 2893 C 264.2 0.659103 4.19352 0
M  V30 2894 C 262.107 2.76707 5.22673 0
M  V30 2895 H 261.037 0.206122 0.725279 0
M  V30 2896 H 263.688 1.12637 1.44863 0
M  V30 2897 H 262.07 0.316053 3.94737 0
M  V30 2898 H 263.244 3.12035 3.39073 0
M  V30 2899 H 261.559 2.70125 3.16893 0
M  V30 2900 H 264.156 0.882985 5.27359 0
M  V30 2901 H 264.499 -0.403607 4.14339 0
M  V30 2902 H 265.032 1.25473 3.77494 0
M  V30 2903 H 261.771 3.8188 5.32774 0
M  V30 2904 H 261.291 2.12919 5.60737 0
M  V30 2905 H 262.97 2.6435 5.90532 0
M  V30 2906 N 263.102 -1.41638 0.69111 0
M  V30 2907 C 264.049 -2.30789 0.0229705 0
M  V30 2908 C 265.019 -1.46863 -0.775911 0
M  V30 2909 O 266.204 -1.75661 -0.74485 0
M  V30 2910 C 263.344 -3.32868 -0.910666 0
M  V30 2911 C 262.457 -4.31875 -0.103874 0
M  V30 2912 C 261.592 -5.21024 -1.03475 0
M  V30 2913 C 260.631 -6.11702 -0.220598 0
M  V30 2914 N 259.768 -6.93349 -1.10504 0
M  V30 2915 H 264.608 -2.87366 0.788978 0
M  V30 2916 H 262.145 -1.41535 0.400794 0
M  V30 2917 H 264.103 -3.90596 -1.46597 0
M  V30 2918 H 262.733 -2.77851 -1.64312 0
M  V30 2919 H 261.785 -3.76131 0.568285 0
M  V30 2920 H 263.097 -4.96003 0.527504 0
M  V30 2921 H 262.251 -5.83565 -1.65943 0
M  V30 2922 H 260.99 -4.57112 -1.69999 0
M  V30 2923 H 259.995 -5.48215 0.417187 0
M  V30 2924 H 261.22 -6.77668 0.440784 0
M  V30 2925 H 259.166 -6.3205 -1.75638 0
M  V30 2926 H 259.083 -7.54146 -0.529125 0
M  V30 2927 H 260.351 -7.60362 -1.71667 0
M  V30 2928 N 264.58 -0.43555 -1.51462 0
M  V30 2929 C 265.528 0.391205 -2.29287 0
M  V30 2930 C 266.522 1.02247 -1.35062 0
M  V30 2931 O 267.728 0.957646 -1.52411 0
M  V30 2932 H 264.103 0.144968 -0.737895 0
M  V30 2933 H 266.074 -0.286051 -2.97026 0
M  V30 2934 C 264.823 1.48096 -3.14583 0
M  V30 2935 H 264.146 1.00457 -3.86973 0
M  V30 2936 H 265.586 2.03273 -3.72097 0
M  V30 2937 C 264.045 2.46321 -2.29843 0
M  V30 2938 O 264.575 3.50815 -1.95682 0
M  V30 2939 N 262.781 2.17166 -1.931 0
M  V30 2940 H 262.328 1.32218 -2.21079 0
M  V30 2941 H 262.286 2.83127 -1.36698 0
M  V30 2942 N 266.058 1.56714 -0.166846 0
M  V30 2943 C 267.288 2.00828 0.48494 0
M  V30 2944 C 267.696 1.04612 1.57648 0
M  V30 2945 O 267.039 0.0383201 1.8366 0
M  V30 2946 C 267.101 3.4137 1.12723 0
M  V30 2947 C 266.765 4.56654 0.177886 0
M  V30 2948 C 267.762 5.16402 -0.60207 0
M  V30 2949 C 265.447 5.02244 0.0750139 0
M  V30 2950 C 267.441 6.20167 -1.47215 0
M  V30 2951 C 265.128 6.05859 -0.798649 0
M  V30 2952 C 266.126 6.64691 -1.57082 0
M  V30 2953 O 265.814 7.66297 -2.42989 0
M  V30 2954 H 265.546 0.663587 0.128953 0
M  V30 2955 H 268.1 2.03692 -0.264365 0
M  V30 2956 H 266.33 3.35406 1.92457 0
M  V30 2957 H 268.019 3.69466 1.68076 0
M  V30 2958 H 268.785 4.82065 -0.53274 0
M  V30 2959 H 264.664 4.56167 0.665812 0
M  V30 2960 H 268.208 6.66016 -2.07531 0
M  V30 2961 H 264.105 6.39621 -0.869199 0
M  V30 2962 H 264.873 7.83601 -2.36455 0
M  V30 2963 N 267.536 -0.106894 1.57237 0
M  V30 2964 C 268.784 -0.810921 1.85117 0
M  V30 2965 C 269.105 -1.7984 0.753827 0
M  V30 2966 O 268.375 -1.94649 -0.221056 0
M  V30 2967 H 266.955 -0.302466 0.683025 0
M  V30 2968 H 269.617 -0.0913324 1.94686 0
M  V30 2969 H 268.713 -1.34875 2.81452 0
M  V30 2970 N 269.014 -1.53014 -0.377408 0
M  V30 2971 C 270.425 -1.60438 -0.954798 0
M  V30 2972 C 270.776 -0.464418 -1.90624 0
M  V30 2973 O 269.901 0.41087 -2.12464 0
M  V30 2974 C 270.496 -2.90797 -1.73847 0
M  V30 2975 C 269.055 -3.00595 -2.26538 0
M  V30 2976 C 268.202 -2.55645 -1.07429 0
M  V30 2977 H 271.153 -1.57926 -0.156575 0
M  V30 2978 H 271.174 -2.77935 -2.5987 0
M  V30 2979 H 270.686 -3.73746 -1.04574 0
M  V30 2980 H 268.787 -2.22208 -2.99089 0
M  V30 2981 H 268.9 -4.05456 -2.5523 0
M  V30 2982 H 267.264 -2.10239 -1.43777 0
M  V30 2983 H 268.047 -3.41 -0.396728 0
M  V30 2984 N 270.492 0.636531 -1.44174 0
M  V30 2985 C 271.769 1.39463 -1.37148 0
M  V30 2986 C 272.149 2.11082 -0.027507 0
M  V30 2987 O 271.497 2.05954 0.989716 0
M  V30 2988 C 271.707 2.36552 -2.56601 0
M  V30 2989 C 273.055 3.00048 -3.00427 0
M  V30 2990 O 274.079 2.46878 -2.56767 0
M  V30 2991 O 272.938 3.96488 -3.76111 0
M  V30 2992 H 270.032 0.623903 -0.542839 0
M  V30 2993 H 272.578 0.662039 -1.56253 0
M  V30 2994 H 271.35 1.82692 -3.46034 0
M  V30 2995 H 270.973 3.17236 -2.39681 0
M  V30 2996 N 271.97 1.30982 0.876444 0
M  V30 2997 C 273.386 1.09498 1.16113 0
M  V30 2998 C 273.586 -0.13875 2.01022 0
M  V30 2999 O 272.642 -0.829935 2.38471 0
M  V30 3000 C 273.955 2.36308 1.85954 0
M  V30 3001 C 275.503 2.41856 1.98683 0
M  V30 3002 C 275.978 3.6853 2.71937 0
M  V30 3003 N 277.469 3.69387 2.79477 0
M  V30 3004 C 278.204 4.64096 3.36753 0
M  V30 3005 N 277.7 5.69155 3.95012 0
M  V30 3006 N 279.493 4.51626 3.3465 0
M  V30 3007 H 271.644 2.10118 0.310494 0
M  V30 3008 H 273.907 0.926634 0.200131 0
M  V30 3009 H 273.613 3.26388 1.31011 0
M  V30 3010 H 273.487 2.4561 2.86278 0
M  V30 3011 H 275.874 1.52249 2.52793 0
M  V30 3012 H 275.955 2.36523 0.9742 0
M  V30 3013 H 275.599 4.58499 2.18496 0
M  V30 3014 H 275.529 3.71127 3.73593 0
M  V30 3015 H 278.02 2.93438 2.38123 0
M  V30 3016 H 278.333 6.3751 4.36808 0
M  V30 3017 H 276.678 5.72937 3.93406 0
M  V30 3018 H 279.869 3.68728 2.8837 0
M  V30 3019 H 280.042 5.25614 3.7899 0
M  V30 3020 N 273.449 -1.08991 1.13837 0
M  V30 3021 C 274.695 -1.81526 0.90422 0
M  V30 3022 C 275.028 -1.85706 -0.568066 0
M  V30 3023 O 274.303 -1.32855 -1.42056 0
M  V30 3024 C 274.586 -3.27447 1.49835 0
M  V30 3025 C 274.439 -3.31512 3.04006 0
M  V30 3026 C 275.758 -4.24256 1.17025 0
M  V30 3027 H 272.877 -0.659029 0.329923 0
M  V30 3028 H 275.519 -1.27644 1.40737 0
M  V30 3029 H 273.669 -3.73462 1.07044 0
M  V30 3030 H 275.341 -2.93867 3.55584 0
M  V30 3031 H 273.584 -2.70963 3.38765 0
M  V30 3032 H 274.255 -4.34329 3.40679 0
M  V30 3033 H 276.731 -3.86549 1.54009 0
M  V30 3034 H 275.607 -5.24684 1.61237 0
M  V30 3035 H 275.868 -4.42019 0.0846274 0
M  V30 3036 N 274.927 -0.932562 -1.27047 0
M  V30 3037 C 275.89 -0.440064 -2.24936 0
M  V30 3038 C 276.89 0.444071 -1.54547 0
M  V30 3039 O 278.08 0.244465 -1.72476 0
M  V30 3040 C 275.212 0.36678 -3.38921 0
M  V30 3041 H 276.405 -1.305 -2.70018 0
M  V30 3042 H 273.958 -0.713707 -1.39054 0
M  V30 3043 H 274.693 1.25033 -2.99228 0
M  V30 3044 H 274.478 -0.267204 -3.91188 0
M  V30 3045 H 275.968 0.701567 -4.11665 0
M  V30 3046 N 276.405 1.4127 -0.698611 0
M  V30 3047 C 277.653 2.00782 -0.230409 0
M  V30 3048 C 277.974 1.5562 1.17505 0
M  V30 3049 O 277.244 0.78815 1.79346 0
M  V30 3050 H 275.824 0.742464 -0.0821944 0
M  V30 3051 H 278.486 1.72852 -0.90045 0
M  V30 3052 H 277.582 3.11095 -0.25021 0
M  V30 3053 N 277.883 0.443576 1.51229 0
M  V30 3054 C 279.13 -0.120796 2.02139 0
M  V30 3055 C 279.458 -1.42166 1.32736 0
M  V30 3056 O 278.713 -1.90849 0.43301 0
M  V30 3057 C 279.012 -0.380579 3.55368 0
M  V30 3058 C 278.678 0.83523 4.43097 0
M  V30 3059 C 277.34 1.16864 4.66794 0
M  V30 3060 C 279.692 1.64601 4.94526 0
M  V30 3061 C 277.02 2.31339 5.39165 0
M  V30 3062 C 279.372 2.78181 5.68153 0
M  V30 3063 C 278.036 3.11969 5.90112 0
M  V30 3064 H 277.306 -0.0442023 0.73968 0
M  V30 3065 H 279.953 0.592046 1.82118 0
M  V30 3066 H 278.258 -1.17538 3.73754 0
M  V30 3067 H 279.955 -0.830777 3.923 0
M  V30 3068 H 276.545 0.565437 4.24854 0
M  V30 3069 H 280.729 1.40163 4.76097 0
M  V30 3070 H 275.985 2.57823 5.5438 0
M  V30 3071 H 280.159 3.41371 6.06992 0
M  V30 3072 H 277.786 4.00784 6.45969 0
M  V30 3073 N 279.361 -1.56624 0.175154 0
M  V30 3074 C 280.586 -2.01813 -0.478137 0
M  V30 3075 C 281.011 -1.05457 -1.55757 0
M  V30 3076 O 280.369 -0.0347439 -1.81267 0
M  V30 3077 C 280.417 -3.45581 -1.02987 0
M  V30 3078 O 279.521 -3.52305 -2.14371 0
M  V30 3079 H 278.862 -0.65413 -0.114059 0
M  V30 3080 H 281.392 -2.02673 0.280173 0
M  V30 3081 H 281.402 -3.84965 -1.35151 0
M  V30 3082 H 280.077 -4.1521 -0.239556 0
M  V30 3083 H 278.654 -3.24783 -1.83222 0
M  V30 3084 N 280.839 0.0985539 -1.57292 0
M  V30 3085 C 282.25 0.653457 -1.74891 0
M  V30 3086 C 282.601 1.7929 -0.796838 0
M  V30 3087 O 281.726 2.16385 0.0254886 0
M  V30 3088 C 282.321 1.19216 -3.17133 0
M  V30 3089 C 280.88 1.69316 -3.36168 0
M  V30 3090 C 280.027 0.601294 -2.70702 0
M  V30 3091 H 282.978 -0.127497 -1.58187 0
M  V30 3092 H 282.999 2.06154 -3.19814 0
M  V30 3093 H 282.511 0.362635 -3.86402 0
M  V30 3094 H 280.612 2.5468 -2.71972 0
M  V30 3095 H 280.725 1.78853 -4.44464 0
M  V30 3096 H 279.089 1.0399 -2.32504 0
M  V30 3097 H 279.872 -0.217592 -3.4261 0
M  V30 3098 N 282.317 1.53212 0.369288 0
M  V30 3099 C 283.566 1.68436 1.10961 0
M  V30 3100 C 283.879 0.440738 1.9057 0
M  V30 3101 O 285.085 0.473446 2.6734 0
M  V30 3102 C 283.541 2.97744 2.0218 0
M  V30 3103 C 283.149 4.29355 1.279 0
M  V30 3104 C 284.893 3.22334 2.76226 0
M  V30 3105 C 282.8 5.49755 2.17999 0
M  V30 3106 H 281.73 0.627568 0.41794 0
M  V30 3107 H 284.381 1.79713 0.370884 0
M  V30 3108 H 282.763 2.8026 2.79768 0
M  V30 3109 H 283.937 4.57458 0.554007 0
M  V30 3110 H 282.252 4.11179 0.657311 0
M  V30 3111 H 284.849 4.09471 3.43857 0
M  V30 3112 H 285.192 2.38238 3.41392 0
M  V30 3113 H 285.725 3.40475 2.05723 0
M  V30 3114 H 282.464 6.36318 1.57417 0
M  V30 3115 H 281.984 5.25937 2.88359 0
M  V30 3116 H 283.663 5.84401 2.77641 0
M  V30 3117 N 283.795 -0.628877 1.44509 0
M  V30 3118 C 285.206 -1.21054 1.42137 0
M  V30 3119 C 285.557 -1.95715 0.137881 0
M  V30 3120 O 284.682 -2.02554 -0.761645 0
M  V30 3121 C 285.277 -2.20189 2.57493 0
M  V30 3122 C 283.836 -2.73777 2.58308 0
M  V30 3123 C 282.983 -1.48813 2.33987 0
M  V30 3124 H 285.934 -0.41942 1.53057 0
M  V30 3125 H 285.955 -3.02833 2.30375 0
M  V30 3126 H 285.467 -1.6582 3.50892 0
M  V30 3127 H 283.568 -3.32142 1.68856 0
M  V30 3128 H 283.681 -3.19662 3.56865 0
M  V30 3129 H 282.045 -1.77024 1.83124 0
M  V30 3130 H 282.828 -0.963442 3.29504 0
M  V30 3131 N 285.273 -1.31445 -0.869486 0
M  V30 3132 C 286.236 -1.19094 -1.9583 0
M  V30 3133 C 287.236 -0.117906 -1.60367 0
M  V30 3134 O 288.426 -0.367208 -1.70286 0
M  V30 3135 C 285.558 -0.828165 -3.30688 0
M  V30 3136 H 286.751 -2.15842 -2.08212 0
M  V30 3137 H 284.304 -1.15063 -1.05784 0
M  V30 3138 H 285.039 0.138142 -3.24006 0
M  V30 3139 H 284.824 -1.6038 -3.578 0
M  V30 3140 H 286.314 -0.765658 -4.10521 0
M  V30 3141 N 286.751 1.08385 -1.14413 0
M  V30 3142 C 287.684 2.14642 -0.774871 0
M  V30 3143 C 288.662 1.60761 0.243876 0
M  V30 3144 O 289.846 1.88031 0.132883 0
M  V30 3145 C 286.973 3.38366 -0.150491 0
M  V30 3146 C 286.019 4.10997 -1.13945 0
M  V30 3147 S 286.852 4.63797 -2.67679 0
M  V30 3148 C 288.008 5.90808 -2.06631 0
M  V30 3149 H 288.241 2.45633 -1.67487 0
M  V30 3150 H 285.774 1.20498 -0.96538 0
M  V30 3151 H 287.732 4.09996 0.203334 0
M  V30 3152 H 286.393 3.05572 0.72694 0
M  V30 3153 H 285.586 4.99783 -0.65059 0
M  V30 3154 H 285.188 3.4528 -1.43727 0
M  V30 3155 H 287.48 6.62411 -1.4219 0
M  V30 3156 H 288.423 6.4439 -2.93542 0
M  V30 3157 H 288.831 5.4383 -1.51357 0
M  V30 3158 N 288.23 0.939286 1.26551 0
M  V30 3159 C 289.455 0.602008 1.98471 0
M  V30 3160 C 289.88 -0.815624 1.69497 0
M  V30 3161 O 289.238 -1.54912 0.941905 0
M  V30 3162 C 289.286 0.848407 3.50477 0
M  V30 3163 O 288.39 -0.0804009 4.12322 0
M  V30 3164 H 287.731 0.23049 0.622712 0
M  V30 3165 H 290.261 1.2617 1.61066 0
M  V30 3166 H 290.271 0.768553 4.00696 0
M  V30 3167 H 288.946 1.88171 3.70897 0
M  V30 3168 H 287.523 0.0503508 3.72866 0
M  V30 3169 N 289.708 -1.40897 0.706093 0
M  V30 3170 C 290.641 -2.282 -0.00328781 0
M  V30 3171 C 291.619 -1.42816 -0.77732 0
M  V30 3172 O 292.803 -1.72237 -0.765944 0
M  V30 3173 C 289.93 -3.23226 -1.01205 0
M  V30 3174 C 288.976 -4.25222 -0.329955 0
M  V30 3175 S 289.809 -5.27269 0.935298 0
M  V30 3176 C 290.965 -6.25859 -0.0716061 0
M  V30 3177 H 291.198 -2.88016 0.737143 0
M  V30 3178 H 288.731 -1.46191 0.496756 0
M  V30 3179 H 290.689 -3.78503 -1.58888 0
M  V30 3180 H 289.35 -2.62485 -1.72513 0
M  V30 3181 H 288.543 -4.92023 -1.09221 0
M  V30 3182 H 288.145 -3.73595 0.174069 0
M  V30 3183 H 290.437 -6.71204 -0.921521 0
M  V30 3184 H 291.38 -7.0586 0.562765 0
M  V30 3185 H 291.788 -5.62852 -0.431088 0
M  V30 3186 N 291.186 -0.45159 -1.50991 0
M  V30 3187 C 292.432 0.110237 -2.025 0
M  V30 3188 C 292.765 1.41109 -1.33424 0
M  V30 3189 O 292.04 1.89135 -0.453659 0
M  V30 3190 C 292.323 0.314271 -3.58726 0
M  V30 3191 C 292.176 -1.00623 -4.38401 0
M  V30 3192 C 293.495 1.07767 -4.26702 0
M  V30 3193 H 290.614 0.0385897 -0.735989 0
M  V30 3194 H 293.256 -0.593374 -1.80497 0
M  V30 3195 H 291.406 0.913601 -3.77605 0
M  V30 3196 H 293.078 -1.64064 -4.31139 0
M  V30 3197 H 291.321 -1.6075 -4.02917 0
M  V30 3198 H 291.992 -0.817341 -5.45915 0
M  V30 3199 H 294.468 0.56986 -4.12179 0
M  V30 3200 H 293.344 1.18921 -5.35863 0
M  V30 3201 H 293.605 2.10939 -3.88532 0
M  V30 3202 N 292.664 1.56529 -0.183458 0
M  V30 3203 C 293.889 2.02064 0.467428 0
M  V30 3204 C 294.314 1.06282 1.55196 0
M  V30 3205 O 293.672 0.0443565 1.81246 0
M  V30 3206 C 293.72 3.46122 1.01153 0
M  V30 3207 O 292.824 3.53437 2.12499 0
M  V30 3208 H 292.165 0.654726 0.110588 0
M  V30 3209 H 294.695 2.02521 -0.290917 0
M  V30 3210 H 294.705 3.85676 1.33108 0
M  V30 3211 H 293.38 4.15331 0.217533 0
M  V30 3212 H 291.957 3.2575 1.81497 0
M  V30 3213 N 294.142 -0.090211 1.57342 0
M  V30 3214 C 295.372 -0.805055 1.90269 0
M  V30 3215 C 295.78 -1.72561 0.775842 0
M  V30 3216 O 295.123 -1.81839 -0.260843 0
M  V30 3217 C 295.185 -1.66734 3.18497 0
M  V30 3218 C 294.849 -0.918092 4.47683 0
M  V30 3219 C 295.846 -0.245674 5.19319 0
M  V30 3220 C 293.531 -0.890724 4.94339 0
M  V30 3221 C 295.525 0.444088 6.35851 0
M  V30 3222 C 293.212 -0.197179 6.10782 0
M  V30 3223 C 294.21 0.469044 6.81388 0
M  V30 3224 O 293.898 1.15146 7.95611 0
M  V30 3225 H 293.63 -0.235143 0.633785 0
M  V30 3226 H 296.184 -0.0703805 2.05279 0
M  V30 3227 H 294.414 -2.44437 2.99646 0
M  V30 3228 H 296.103 -2.25919 3.37217 0
M  V30 3229 H 296.869 -0.258246 4.84312 0
M  V30 3230 H 292.748 -1.39873 4.39268 0
M  V30 3231 H 296.292 0.964667 6.90898 0
M  V30 3232 H 292.189 -0.18247 6.45242 0
M  V30 3233 H 292.957 1.05885 8.11622 0
M  V30 3234 N 295.62 -1.53406 -0.361157 0
M  V30 3235 C 296.583 -1.79479 -1.42548 0
M  V30 3236 C 297.583 -0.665327 -1.4639 0
M  V30 3237 O 298.773 -0.933549 -1.47073 0
M  V30 3238 C 295.905 -1.92087 -2.8163 0
M  V30 3239 H 297.098 -2.74538 -1.20701 0
M  V30 3240 H 294.651 -1.4455 -0.594546 0
M  V30 3241 H 295.386 -0.991099 -3.08784 0
M  V30 3242 H 295.171 -2.74241 -2.80239 0
M  V30 3243 H 296.661 -2.13836 -3.58697 0
M  V30 3244 N 297.098 0.621204 -1.44841 0
M  V30 3245 C 298.323 1.41244 -1.51871 0
M  V30 3246 C 298.748 1.87519 -0.147764 0
M  V30 3247 O 298.106 1.59334 0.865 0
M  V30 3248 C 298.154 2.60221 -2.49634 0
M  V30 3249 O 297.258 3.60395 -2.00473 0
M  V30 3250 H 296.599 0.42223 -0.512463 0
M  V30 3251 H 299.129 0.757305 -1.90069 0
M  V30 3252 H 299.139 3.0764 -2.67996 0
M  V30 3253 H 297.814 2.25887 -3.4921 0
M  V30 3254 H 296.391 3.19717 -1.91925 0
M  V30 3255 N 298.576 1.31904 0.862503 0
M  V30 3256 C 299.824 1.21776 1.61292 0
M  V30 3257 C 300.145 -0.222413 1.93727 0
M  V30 3258 O 299.415 -1.1451 1.58947 0
M  V30 3259 H 297.995 0.447717 0.597962 0
M  V30 3260 H 300.657 1.65326 1.03215 0
M  V30 3261 H 299.753 1.7948 2.5533 0
M  V30 3262 N 300.054 -1.07777 1.14986 0
M  V30 3263 C 301.017 -2.13041 0.845358 0
M  V30 3264 C 302.017 -1.60071 -0.152931 0
M  V30 3265 O 303.207 -1.74033 0.0761879 0
M  V30 3266 C 300.339 -3.39896 0.261383 0
M  V30 3267 H 301.532 -2.41485 1.77834 0
M  V30 3268 H 299.085 -1.23595 0.956757 0
M  V30 3269 H 299.82 -3.17091 -0.68 0
M  V30 3270 H 299.605 -3.79642 0.980514 0
M  V30 3271 H 301.095 -4.17548 0.0657687 0
M  V30 3272 N 301.532 -0.945985 -1.26051 0
M  V30 3273 C 302.948 -0.649045 -1.45807 0
M  V30 3274 C 303.148 0.796158 -1.85104 0
M  V30 3275 O 302.204 1.57233 -1.97571 0
M  V30 3276 C 303.517 -1.61458 -2.53677 0
M  V30 3277 C 305.065 -1.62481 -2.67524 0
M  V30 3278 C 305.54 -2.57776 -3.7857 0
M  V30 3279 N 307.031 -2.5609 -3.85969 0
M  V30 3280 C 307.766 -3.26508 -4.7136 0
M  V30 3281 N 307.262 -4.0637 -5.61102 0
M  V30 3282 N 309.055 -3.15437 -4.65248 0
M  V30 3283 H 301.206 -1.88005 -0.988328 0
M  V30 3284 H 303.469 -0.808198 -0.4955 0
M  V30 3285 H 303.175 -2.64644 -2.31638 0
M  V30 3286 H 303.049 -1.37036 -3.51427 0
M  V30 3287 H 305.436 -0.600167 -2.88933 0
M  V30 3288 H 305.517 -1.90958 -1.70202 0
M  V30 3289 H 305.161 -3.60361 -3.57913 0
M  V30 3290 H 305.091 -2.26587 -4.75359 0
M  V30 3291 H 307.582 -1.98105 -3.21812 0
M  V30 3292 H 307.895 -4.57042 -6.23164 0
M  V30 3293 H 306.24 -4.10469 -5.60839 0
M  V30 3294 H 309.431 -2.52525 -3.94143 0
M  V30 3295 H 309.604 -3.70584 -5.31575 0
M  V30 3296 N 303.011 1.40521 -0.713556 0
M  V30 3297 C 304.241 2.0494 -0.261395 0
M  V30 3298 C 304.649 1.53861 1.10107 0
M  V30 3299 O 303.992 0.689321 1.70276 0
M  V30 3300 C 304.054 3.59138 -0.161227 0
M  V30 3301 C 303.718 4.33096 -1.45865 0
M  V30 3302 C 304.715 4.61182 -2.40016 0
M  V30 3303 C 302.4 4.72043 -1.71701 0
M  V30 3304 C 304.394 5.27196 -3.58251 0
M  V30 3305 C 302.081 5.37789 -2.90218 0
M  V30 3306 C 303.079 5.65295 -3.83315 0
M  V30 3307 O 302.767 6.29683 -4.99754 0
M  V30 3308 H 302.499 0.666041 -0.115608 0
M  V30 3309 H 305.053 1.80954 -0.971849 0
M  V30 3310 H 303.283 3.81936 0.605153 0
M  V30 3311 H 304.972 4.05091 0.256105 0
M  V30 3312 H 305.738 4.31559 -2.21318 0
M  V30 3313 H 301.617 4.50003 -1.00092 0
M  V30 3314 H 305.161 5.48582 -4.30934 0
M  V30 3315 H 301.058 5.66831 -3.08825 0
M  V30 3316 H 301.826 6.4818 -4.99805 0
M  V30 3317 N 304.489 0.459591 1.5075 0
M  V30 3318 C 305.419 -0.330644 2.31147 0
M  V30 3319 C 306.4 -1.00087 1.37538 0
M  V30 3320 O 307.585 -1.00025 1.66459 0
M  V30 3321 C 304.715 -1.41958 3.16962 0
M  V30 3322 C 303.669 -0.871608 4.19031 0
M  V30 3323 C 302.995 -2.05797 4.9351 0
M  V30 3324 C 304.295 0.109251 5.22186 0
M  V30 3325 H 305.989 0.340336 2.97459 0
M  V30 3326 H 303.535 0.165119 1.4305 0
M  V30 3327 H 305.488 -1.9798 3.71997 0
M  V30 3328 H 304.212 -2.11917 2.48513 0
M  V30 3329 H 302.871 -0.333442 3.6508 0
M  V30 3330 H 302.519 -2.74427 4.21544 0
M  V30 3331 H 302.219 -1.6976 5.62544 0
M  V30 3332 H 303.743 -2.62331 5.51375 0
M  V30 3333 H 305.157 -0.361405 5.7216 0
M  V30 3334 H 303.554 0.383316 5.98875 0
M  V30 3335 H 304.624 1.03887 4.73641 0
M  V30 3336 N 305.967 -1.56429 0.191757 0
M  V30 3337 C 307.192 -2.02309 -0.456706 0
M  V30 3338 C 307.617 -1.07103 -1.5463 0
M  V30 3339 O 306.975 -0.0539677 -1.8122 0
M  V30 3340 C 307.023 -3.46654 -0.993159 0
M  V30 3341 O 306.127 -3.54559 -2.10622 0
M  V30 3342 H 305.468 -0.655303 -0.107114 0
M  V30 3343 H 307.998 -2.02364 0.301653 0
M  V30 3344 H 308.008 -3.86377 -1.31061 0
M  V30 3345 H 306.683 -4.1544 -0.195504 0
M  V30 3346 H 305.26 -3.26708 -1.79767 0
M  V30 3347 N 307.445 0.0818655 -1.57387 0
M  V30 3348 C 308.375 1.09885 -2.06028 0
M  V30 3349 C 309.356 1.4098 -0.951774 0
M  V30 3350 O 310.541 1.50781 -1.22387 0
M  V30 3351 C 307.671 2.4151 -2.4958 0
M  V30 3352 C 306.625 2.24792 -3.64215 0
M  V30 3353 C 305.951 3.61712 -3.93787 0
M  V30 3354 C 307.251 1.67749 -4.94629 0
M  V30 3355 H 308.945 0.694128 -2.91243 0
M  V30 3356 H 306.491 0.332448 -1.4011 0
M  V30 3357 H 308.444 3.12939 -2.82219 0
M  V30 3358 H 307.168 2.83943 -1.61381 0
M  V30 3359 H 305.827 1.55807 -3.31843 0
M  V30 3360 H 305.475 4.01697 -3.02735 0
M  V30 3361 H 305.175 3.51368 -4.70971 0
M  V30 3362 H 306.699 4.34587 -4.28913 0
M  V30 3363 H 308.113 2.29032 -5.25564 0
M  V30 3364 H 306.51 1.68128 -5.76067 0
M  V30 3365 H 307.58 0.638059 -4.80684 0
M  V30 3366 N 308.923 1.53595 0.353017 0
M  V30 3367 C 310.172 1.69603 1.09168 0
M  V30 3368 C 310.485 0.460925 1.90092 0
M  V30 3369 O 311.691 0.501774 2.66823 0
M  V30 3370 C 310.147 2.99872 1.9901 0
M  V30 3371 C 309.755 4.30687 1.23339 0
M  V30 3372 C 311.499 3.25246 2.72792 0
M  V30 3373 C 309.406 5.52036 2.12156 0
M  V30 3374 H 308.336 0.631966 0.411261 0
M  V30 3375 H 310.987 1.80096 0.351802 0
M  V30 3376 H 309.369 2.83212 2.7678 0
M  V30 3377 H 310.543 4.58019 0.505456 0
M  V30 3378 H 308.858 4.11853 0.613663 0
M  V30 3379 H 311.455 4.13095 3.39495 0
M  V30 3380 H 311.798 2.41846 3.38846 0
M  V30 3381 H 312.331 3.42638 2.021 0
M  V30 3382 H 309.07 6.37951 1.50659 0
M  V30 3383 H 308.59 5.28966 2.82764 0
M  V30 3384 H 310.269 5.87313 2.71427 0
M  V30 3385 N 310.401 -0.613514 1.45168 0
M  V30 3386 C 311.649 -1.36997 1.48581 0
M  V30 3387 C 311.97 -1.94589 0.126545 0
M  V30 3388 O 311.24 -1.76816 -0.843372 0
M  V30 3389 H 309.82 -0.508558 0.547154 0
M  V30 3390 H 312.482 -0.720853 1.81079 0
M  V30 3391 H 311.578 -2.1924 2.22127 0
M  V30 3392 N 311.879 -1.3236 -0.855495 0
M  V30 3393 C 313.127 -1.22629 -1.60644 0
M  V30 3394 C 313.448 0.212136 -1.93843 0
M  V30 3395 O 312.718 1.13666 -1.59552 0
M  V30 3396 H 311.298 -0.450882 -0.595579 0
M  V30 3397 H 313.96 -1.65871 -1.02337 0
M  V30 3398 H 313.056 -1.80832 -2.54374 0
M  V30 3399 N 313.357 1.07166 -1.15556 0
M  V30 3400 C 314.585 1.83514 -0.955519 0
M  V30 3401 C 315 1.82163 0.49621 0
M  V30 3402 O 314.357 1.23441 1.34419 0
M  V30 3403 C 314.408 3.30515 -1.46432 0
M  V30 3404 O 314.129 3.31937 -2.85918 0
M  V30 3405 C 315.63 4.23625 -1.30603 0
M  V30 3406 H 312.85 0.578926 -0.339244 0
M  V30 3407 H 315.394 1.35265 -1.53374 0
M  V30 3408 H 313.549 3.76106 -0.928584 0
M  V30 3409 H 313.963 4.23794 -3.09029 0
M  V30 3410 H 315.437 5.24831 -1.71047 0
M  V30 3411 H 315.914 4.38485 -0.250441 0
M  V30 3412 H 316.52 3.83871 -1.83094 0
M  V30 3413 N 314.835 0.952656 1.25548 0
M  V30 3414 C 316.075 0.614013 1.9496 0
M  V30 3415 C 316.439 -0.833215 1.72978 0
M  V30 3416 O 317.64 -1.28135 2.36294 0
M  V30 3417 C 315.911 0.960562 3.4425 0
M  V30 3418 S 317.47 0.734195 4.32614 0
M  V30 3419 H 314.288 0.225754 0.674208 0
M  V30 3420 H 316.89 1.22641 1.52248 0
M  V30 3421 H 315.594 2.01103 3.57751 0
M  V30 3422 H 315.125 0.338336 3.91942 0
M  V30 3423 H 317.14 -0.395995 4.94617 0
M  V30 3424 N 316.313 -1.40141 0.720998 0
M  V30 3425 C 317.243 -2.33339 0.0867621 0
M  V30 3426 C 318.224 -1.53178 -0.739622 0
M  V30 3427 O 319.409 -1.81625 -0.687449 0
M  V30 3428 C 316.539 -3.37194 -0.831728 0
M  V30 3429 C 315.493 -4.27857 -0.110558 0
M  V30 3430 C 314.819 -5.22294 -1.14513 0
M  V30 3431 C 316.119 -5.11872 1.0385 0
M  V30 3432 H 317.813 -2.86626 0.865219 0
M  V30 3433 H 315.359 -1.37814 0.417516 0
M  V30 3434 H 317.312 -4.01335 -1.28485 0
M  V30 3435 H 316.036 -2.82314 -1.64214 0
M  V30 3436 H 314.695 -3.65176 0.322797 0
M  V30 3437 H 314.343 -4.63717 -1.94874 0
M  V30 3438 H 314.043 -5.83797 -0.667446 0
M  V30 3439 H 315.567 -5.89312 -1.59824 0
M  V30 3440 H 316.981 -5.69436 0.664482 0
M  V30 3441 H 315.378 -5.82445 1.4449 0
M  V30 3442 H 316.448 -4.4753 1.86668 0
M  V30 3443 N 317.792 -0.46758 -1.50504 0
M  V30 3444 C 319.017 0.0886943 -2.0721 0
M  V30 3445 C 319.442 1.33057 -1.32956 0
M  V30 3446 O 318.8 1.77354 -0.376197 0
M  V30 3447 C 318.848 0.359202 -3.58806 0
M  V30 3448 O 317.952 1.44034 -3.8643 0
M  V30 3449 H 317.293 -0.0114349 -0.663902 0
M  V30 3450 H 319.823 -0.657613 -1.93744 0
M  V30 3451 H 319.833 0.600742 -4.03553 0
M  V30 3452 H 318.508 -0.548311 -4.1227 0
M  V30 3453 H 317.085 1.18638 -3.53524 0
M  V30 3454 N 319.27 1.56325 -0.20005 0
M  V30 3455 C 320.517 1.97719 0.437411 0
M  V30 3456 C 320.845 1.08709 1.61284 0
M  V30 3457 O 320.1 0.127261 1.95286 0
M  V30 3458 C 320.399 3.4495 0.935103 0
M  V30 3459 C 320.065 4.5072 -0.12749 0
M  V30 3460 C 318.727 4.79368 -0.419451 0
M  V30 3461 C 321.079 5.14268 -0.847231 0
M  V30 3462 C 318.407 5.68854 -1.43604 0
M  V30 3463 C 320.759 6.04852 -1.85301 0
M  V30 3464 C 319.423 6.31855 -2.15211 0
M  V30 3465 H 318.693 0.723507 0.16006 0
M  V30 3466 H 321.34 1.89166 -0.298056 0
M  V30 3467 H 319.645 3.50599 1.74894 0
M  V30 3468 H 321.342 3.74337 1.43781 0
M  V30 3469 H 317.932 4.28458 0.11023 0
M  V30 3470 H 322.116 4.92222 -0.634901 0
M  V30 3471 H 317.372 5.88047 -1.67364 0
M  V30 3472 H 321.546 6.53152 -2.41591 0
M  V30 3473 H 319.173 7.00994 -2.94129 0
M  V30 3474 N 320.748 -0.0735177 1.57428 0
M  V30 3475 C 321.978 -0.78483 1.91112 0
M  V30 3476 C 322.386 -1.71729 0.7941 0
M  V30 3477 O 321.729 -1.82105 -0.241542 0
M  V30 3478 C 321.791 -1.63346 3.20247 0
M  V30 3479 C 321.455 -0.870557 4.48632 0
M  V30 3480 C 322.452 -0.19058 5.19551 0
M  V30 3481 C 320.137 -0.838242 4.95256 0
M  V30 3482 C 322.131 0.511503 6.35344 0
M  V30 3483 C 319.818 -0.132386 6.10957 0
M  V30 3484 C 320.816 0.541288 6.80852 0
M  V30 3485 O 320.504 1.23578 7.94345 0
M  V30 3486 H 320.236 -0.228408 0.636244 0
M  V30 3487 H 322.79 -0.0486039 2.05342 0
M  V30 3488 H 321.02 -2.41245 3.02222 0
M  V30 3489 H 322.709 -2.22329 3.39595 0
M  V30 3490 H 323.475 -0.206864 4.84559 0
M  V30 3491 H 319.354 -1.35206 4.40727 0
M  V30 3492 H 322.898 1.03789 6.89836 0
M  V30 3493 H 318.795 -0.114023 6.45399 0
M  V30 3494 H 319.563 1.14487 8.10454 0
M  V30 3495 N 322.226 -1.5378 -0.344866 0
M  V30 3496 C 323.503 -1.61589 -1.10219 0
M  V30 3497 C 323.883 -0.436316 -2.06542 0
M  V30 3498 O 323.231 0.571543 -2.21237 0
M  V30 3499 C 323.441 -2.97602 -1.82301 0
M  V30 3500 C 324.789 -3.5291 -2.36093 0
M  V30 3501 O 325.813 -2.99768 -1.924 0
M  V30 3502 O 324.672 -4.45859 -3.16026 0
M  V30 3503 H 321.766 -0.653522 -0.506792 0
M  V30 3504 H 324.312 -1.66126 -0.346465 0
M  V30 3505 H 323.084 -3.74893 -1.12121 0
M  V30 3506 H 322.707 -2.9665 -2.64735 0
M  V30 3507 N 323.704 0.605807 -1.45491 0
M  V30 3508 C 324.95 1.36481 -1.50813 0
M  V30 3509 C 325.305 1.91826 -0.148469 0
M  V30 3510 O 324.598 1.72211 0.839869 0
M  V30 3511 C 324.792 2.53012 -2.52428 0
M  V30 3512 C 324.621 2.09078 -3.98141 0
M  V30 3513 C 323.391 1.95167 -4.66088 0
M  V30 3514 C 325.589 1.66438 -4.86624 0
M  V30 3515 N 323.571 1.45062 -5.96515 0
M  V30 3516 C 324.942 1.27761 -6.06694 0
M  V30 3517 C 326.997 1.54046 -4.7347 0
M  V30 3518 C 325.7 0.779286 -7.15066 0
M  V30 3519 C 327.726 1.05618 -5.81892 0
M  V30 3520 C 327.088 0.67906 -7.01119 0
M  V30 3521 H 323.187 0.493267 -0.606805 0
M  V30 3522 H 325.771 0.692347 -1.81974 0
M  V30 3523 H 323.942 3.17851 -2.23215 0
M  V30 3524 H 325.674 3.19897 -2.47887 0
M  V30 3525 H 322.429 2.16407 -4.21266 0
M  V30 3526 H 322.853 1.22237 -6.65873 0
M  V30 3527 H 327.495 1.81827 -3.81705 0
M  V30 3528 H 325.213 0.489026 -8.06619 0
M  V30 3529 H 328.799 0.964529 -5.73749 0
M  V30 3530 H 327.679 0.310091 -7.83587 0
M  V30 3531 N 325.182 1.32811 0.848464 0
M  V30 3532 C 326.412 1.26556 1.63301 0
M  V30 3533 C 326.82 -0.1676 1.88456 0
M  V30 3534 O 326.163 -1.11713 1.45828 0
M  V30 3535 C 326.225 1.96202 3.01239 0
M  V30 3536 C 325.889 3.45528 2.99098 0
M  V30 3537 C 326.886 4.40903 2.75501 0
M  V30 3538 C 324.571 3.87558 3.19537 0
M  V30 3539 C 326.565 5.76282 2.72356 0
M  V30 3540 C 324.252 5.23044 3.16019 0
M  V30 3541 C 325.25 6.17217 2.92458 0
M  V30 3542 O 324.938 7.50223 2.88825 0
M  V30 3543 H 324.67 0.43771 0.515156 0
M  V30 3544 H 327.224 1.7559 1.0657 0
M  V30 3545 H 325.454 1.41746 3.59785 0
M  V30 3546 H 327.143 1.83573 3.62016 0
M  V30 3547 H 327.909 4.09756 2.5947 0
M  V30 3548 H 323.788 3.14674 3.369 0
M  V30 3549 H 327.332 6.4976 2.53886 0
M  V30 3550 H 323.229 5.53818 3.31596 0
M  V30 3551 H 323.997 7.59657 3.04735 0
M  V30 3552 N 326.66 -1.06551 1.16123 0
M  V30 3553 C 327.9 -1.80889 0.951766 0
M  V30 3554 C 328.264 -1.85062 -0.511465 0
M  V30 3555 O 329.465 -2.55353 -0.83954 0
M  V30 3556 C 327.736 -3.21609 1.55893 0
M  V30 3557 S 329.295 -4.12593 1.49373 0
M  V30 3558 H 326.113 -0.623156 0.342341 0
M  V30 3559 H 328.715 -1.27943 1.47821 0
M  V30 3560 H 327.419 -3.16165 2.61664 0
M  V30 3561 H 326.95 -3.79631 1.0317 0
M  V30 3562 H 328.965 -4.93753 0.492196 0
M  V30 3563 N 328.138 -0.959301 -1.25041 0
M  V30 3564 C 329.415 -0.533805 -1.88175 0
M  V30 3565 C 329.795 0.988994 -1.865 0
M  V30 3566 O 329.143 1.85677 -1.33177 0
M  V30 3567 C 329.353 -1.11575 -3.30684 0
M  V30 3568 C 330.701 -1.19548 -4.07423 0
M  V30 3569 O 331.725 -1.06765 -3.39823 0
M  V30 3570 O 330.584 -1.39656 -5.28354 0
M  V30 3571 H 327.678 -0.176772 -0.807887 0
M  V30 3572 H 330.224 -1.05303 -1.33076 0
M  V30 3573 H 328.996 -2.15884 -3.26358 0
M  V30 3574 H 328.619 -0.580059 -3.93346 0
M  V30 3575 N 329.616 1.39756 -0.72842 0
M  V30 3576 C 330.546 2.33289 -0.0991354 0
M  V30 3577 C 331.527 1.53568 0.731489 0
M  V30 3578 O 332.712 1.81987 0.677807 0
M  V30 3579 C 329.842 3.3763 0.813834 0
M  V30 3580 C 328.796 4.2791 0.0878663 0
M  V30 3581 C 328.122 5.22894 1.11741 0
M  V30 3582 C 329.422 5.11314 -1.06563 0
M  V30 3583 H 331.116 2.86163 -0.880408 0
M  V30 3584 H 328.662 1.37591 -0.424819 0
M  V30 3585 H 330.615 4.0201 1.26355 0
M  V30 3586 H 329.339 2.83181 1.62715 0
M  V30 3587 H 327.998 3.65 -0.342159 0
M  V30 3588 H 327.646 4.64744 1.92412 0
M  V30 3589 H 327.346 5.84143 0.636477 0
M  V30 3590 H 328.87 5.90151 1.56697 0
M  V30 3591 H 330.284 5.69076 -0.694671 0
M  V30 3592 H 328.681 5.81671 -1.47577 0
M  V30 3593 H 329.751 4.46534 -1.89038 0
M  V30 3594 N 331.094 0.475555 1.50254 0
M  V30 3595 C 332.505 0.0215174 1.86688 0
M  V30 3596 C 332.856 -1.38467 1.39001 0
M  V30 3597 O 331.981 -2.02732 0.756894 0
M  V30 3598 C 332.576 0.0322715 3.38785 0
M  V30 3599 C 331.135 -0.366314 3.74613 0
M  V30 3600 C 330.282 0.415832 2.74164 0
M  V30 3601 H 333.233 0.689612 1.42934 0
M  V30 3602 H 333.254 -0.76889 3.7265 0
M  V30 3603 H 332.766 1.05584 3.73462 0
M  V30 3604 H 330.867 -1.39406 3.45538 0
M  V30 3605 H 330.98 -0.064555 4.79057 0
M  V30 3606 H 329.344 -0.131048 2.54363 0
M  V30 3607 H 330.127 1.43899 3.11686 0
M  V30 3608 N 332.573 -1.56217 0.208337 0
M  V30 3609 C 333.984 -1.84243 -0.301904 0
M  V30 3610 C 334.335 -1.12939 -1.60434 0
M  V30 3611 O 333.46 -0.39461 -2.12772 0
M  V30 3612 C 334.055 -3.34231 -0.554543 0
M  V30 3613 C 332.614 -3.62621 -1.00912 0
M  V30 3614 C 331.761 -2.77224 -0.064933 0
M  V30 3615 H 334.712 -1.52712 0.431833 0
M  V30 3616 H 334.733 -3.5372 -1.40223 0
M  V30 3617 H 334.245 -3.86099 0.393561 0
M  V30 3618 H 332.346 -3.16197 -1.97104 0
M  V30 3619 H 332.459 -4.7071 -0.892674 0
M  V30 3620 H 330.823 -2.48256 -0.56929 0
M  V30 3621 H 331.606 -3.31887 0.877851 0
M  V30 3622 N 334.051 0.0651679 -1.57465 0
M  V30 3623 C 335.014 1.06117 -2.03155 0
M  V30 3624 C 336.014 1.31204 -0.929632 0
M  V30 3625 O 337.204 1.26813 -1.19432 0
M  V30 3626 C 334.336 2.4032 -2.41783 0
M  V30 3627 H 335.529 0.667231 -2.92383 0
M  V30 3628 H 333.082 0.311075 -1.53173 0
M  V30 3629 H 333.817 2.84532 -1.55601 0
M  V30 3630 H 333.602 2.23451 -3.22199 0
M  V30 3631 H 335.092 3.11898 -2.77685 0
M  V30 3632 N 335.529 1.53961 0.336706 0
M  V30 3633 C 336.754 1.75797 1.10046 0
M  V30 3634 C 337.179 0.498985 1.81361 0
M  V30 3635 O 336.537 -0.548769 1.72795 0
M  V30 3636 C 336.585 2.94257 2.08436 0
M  V30 3637 O 335.689 2.64883 3.16087 0
M  V30 3638 H 335.03 0.582936 0.317934 0
M  V30 3639 H 337.56 2.00945 0.38501 0
M  V30 3640 H 337.57 3.21237 2.51537 0
M  V30 3641 H 336.245 3.85564 1.55927 0
M  V30 3642 H 334.822 2.48812 2.77753 0
M  V30 3643 N 337.007 -0.598083 1.45811 0
M  V30 3644 C 338.418 -1.18011 1.44673 0
M  V30 3645 C 338.769 -1.95378 0.179364 0
M  V30 3646 O 337.894 -2.04124 -0.718509 0
M  V30 3647 C 338.489 -2.14677 2.62105 0
M  V30 3648 C 337.048 -2.68236 2.64057 0
M  V30 3649 C 336.195 -1.43816 2.37091 0
M  V30 3650 H 339.146 -0.38686 1.53913 0
M  V30 3651 H 339.167 -2.97878 2.36746 0
M  V30 3652 H 338.679 -1.5834 3.5433 0
M  V30 3653 H 336.78 -3.28486 1.75864 0
M  V30 3654 H 336.893 -3.12021 3.63566 0
M  V30 3655 H 335.257 -1.731 1.86838 0
M  V30 3656 H 336.04 -0.893333 3.31473 0
M  V30 3657 N 338.485 -1.33259 -0.841409 0
M  V30 3658 C 339.417 -1.19136 -1.95804 0
M  V30 3659 C 340.43 -0.122965 -1.62335 0
M  V30 3660 O 341.619 -0.373154 -1.74556 0
M  V30 3661 C 338.719 -0.804268 -3.29218 0
M  V30 3662 C 337.892 -1.96376 -3.90839 0
M  V30 3663 C 336.951 -1.55806 -5.02604 0
M  V30 3664 O 335.977 -2.27203 -5.21888 0
M  V30 3665 N 337.179 -0.461609 -5.78662 0
M  V30 3666 H 339.944 -2.15326 -2.08458 0
M  V30 3667 H 337.505 -1.25971 -1.017 0
M  V30 3668 H 339.497 -0.51501 -4.0141 0
M  V30 3669 H 338.067 0.0668809 -3.12528 0
M  V30 3670 H 337.287 -2.41879 -3.11269 0
M  V30 3671 H 338.575 -2.73966 -4.28742 0
M  V30 3672 H 337.973 0.132343 -5.65545 0
M  V30 3673 H 336.53 -0.232013 -6.51387 0
M  V30 3674 N 339.963 1.05934 -1.16686 0
M  V30 3675 C 341.191 1.8249 -0.974929 0
M  V30 3676 C 341.606 1.82679 0.476861 0
M  V30 3677 O 340.963 1.2486 1.33103 0
M  V30 3678 C 341.014 3.28943 -1.49929 0
M  V30 3679 O 340.735 3.28886 -2.89423 0
M  V30 3680 C 342.236 4.22215 -1.35089 0
M  V30 3681 H 339.456 0.575295 -0.345365 0
M  V30 3682 H 342 1.33631 -1.548 0
M  V30 3683 H 340.155 3.751 -0.968423 0
M  V30 3684 H 340.569 4.20493 -3.13506 0
M  V30 3685 H 342.043 5.22987 -1.76603 0
M  V30 3686 H 342.52 4.38195 -0.296935 0
M  V30 3687 H 343.126 3.81907 -1.87155 0
M  V30 3688 N 341.441 0.965919 1.2453 0
M  V30 3689 C 342.687 0.637349 1.93156 0
M  V30 3690 C 343.042 -0.818261 1.74133 0
M  V30 3691 O 342.335 -1.58079 1.08266 0
M  V30 3692 C 342.529 0.945428 3.44669 0
M  V30 3693 C 342.358 2.42944 3.78429 0
M  V30 3694 C 341.128 3.08895 3.9989 0
M  V30 3695 C 343.326 3.40941 3.8505 0
M  V30 3696 N 341.308 4.47052 4.20735 0
M  V30 3697 C 342.679 4.64448 4.10717 0
M  V30 3698 C 344.734 3.35624 3.67779 0
M  V30 3699 C 343.437 5.83292 4.20907 0
M  V30 3700 C 345.463 4.53818 3.79214 0
M  V30 3701 C 344.825 5.76114 4.05304 0
M  V30 3702 H 340.924 0.284034 0.728594 0
M  V30 3703 H 343.508 1.24041 1.50073 0
M  V30 3704 H 341.679 0.371193 3.86622 0
M  V30 3705 H 343.411 0.575613 4.00586 0
M  V30 3706 H 340.166 2.59432 3.96222 0
M  V30 3707 H 340.59 5.18634 4.35141 0
M  V30 3708 H 345.232 2.4211 3.46616 0
M  V30 3709 H 342.95 6.77236 4.40883 0
M  V30 3710 H 346.536 4.51263 3.67224 0
M  V30 3711 H 345.416 6.66045 4.13949 0
M  V30 3712 N 342.919 -1.39368 0.735821 0
M  V30 3713 C 344.167 -2.00101 0.283562 0
M  V30 3714 C 344.488 -1.5868 -1.13338 0
M  V30 3715 O 343.758 -0.835423 -1.77193 0
M  V30 3716 H 342.338 -0.740024 0.101851 0
M  V30 3717 H 345 -1.70404 0.945962 0
M  V30 3718 H 344.096 -3.10323 0.332604 0
M  V30 3719 N 344.397 -0.483516 -1.5 0
M  V30 3720 C 345.307 0.309172 -2.32554 0
M  V30 3721 C 346.323 0.984159 -1.43493 0
M  V30 3722 O 347.499 0.969399 -1.76535 0
M  V30 3723 C 344.564 1.36979 -3.18493 0
M  V30 3724 C 343.625 0.710095 -4.23387 0
M  V30 3725 C 342.858 1.72018 -5.05218 0
M  V30 3726 O 343.081 2.94813 -4.88305 0
M  V30 3727 O 342.015 1.28515 -5.8802 0
M  V30 3728 H 345.841 -0.366064 -3.01486 0
M  V30 3729 H 343.426 -0.24514 -1.47375 0
M  V30 3730 H 345.308 1.98385 -3.71781 0
M  V30 3731 H 343.983 2.02828 -2.52275 0
M  V30 3732 H 342.89 0.0567539 -3.74057 0
M  V30 3733 H 344.223 0.0943557 -4.9211 0
M  V30 3734 N 345.875 1.56104 -0.216619 0
M  V30 3735 C 346.807 2.17339 0.72776 0
M  V30 3736 C 347.82 1.14109 1.16116 0
M  V30 3737 O 349.009 1.4111 1.09317 0
M  V30 3738 C 346.109 2.73818 1.99693 0
M  V30 3739 C 345.282 4.02168 1.71988 0
M  V30 3740 C 344.341 4.43259 2.83562 0
M  V30 3741 O 343.367 5.10257 2.52244 0
M  V30 3742 N 344.569 4.08535 4.12407 0
M  V30 3743 H 347.334 2.99005 0.203983 0
M  V30 3744 H 344.895 1.61861 -0.0354289 0
M  V30 3745 H 346.887 2.9828 2.73516 0
M  V30 3746 H 345.457 1.96483 2.43132 0
M  V30 3747 H 344.677 3.85612 0.818337 0
M  V30 3748 H 345.965 4.85907 1.50903 0
M  V30 3749 H 345.363 3.54687 4.40696 0
M  V30 3750 H 343.92 4.37901 4.8279 0
M  V30 3751 N 347.353 -0.0568162 1.57498 0
M  V30 3752 C 348.581 -0.765626 1.92213 0
M  V30 3753 C 348.996 -1.70353 0.813961 0
M  V30 3754 O 348.353 -1.81268 -0.211701 0
M  V30 3755 C 348.404 -1.5465 3.2675 0
M  V30 3756 O 348.125 -0.646278 4.33307 0
M  V30 3757 C 349.626 -2.35497 3.75574 0
M  V30 3758 H 346.846 -0.216835 0.634999 0
M  V30 3759 H 349.39 -0.0226146 2.04487 0
M  V30 3760 H 347.545 -2.24165 3.15957 0
M  V30 3761 H 347.959 -1.19093 5.108 0
M  V30 3762 H 349.433 -2.85722 4.72299 0
M  V30 3763 H 349.91 -3.15692 3.05344 0
M  V30 3764 H 350.516 -1.7111 3.8936 0
M  V30 3765 N 348.832 -1.54138 -0.328536 0
M  V30 3766 C 350.109 -1.62749 -1.08499 0
M  V30 3767 C 350.489 -0.458198 -2.06067 0
M  V30 3768 O 349.837 0.548046 -2.2183 0
M  V30 3769 C 350.047 -2.99519 -1.79135 0
M  V30 3770 C 351.395 -3.55394 -2.32337 0
M  V30 3771 O 352.419 -3.01792 -1.89209 0
M  V30 3772 O 351.278 -4.49186 -3.11279 0
M  V30 3773 H 348.372 -0.65886 -0.499832 0
M  V30 3774 H 350.918 -1.66484 -0.328826 0
M  V30 3775 H 349.69 -3.76061 -1.08139 0
M  V30 3776 H 349.313 -2.99441 -2.61574 0
M  V30 3777 N 350.31 0.590341 -1.46126 0
M  V30 3778 C 351.556 1.35082 -1.51264 0
M  V30 3779 C 351.889 1.93534 -0.160711 0
M  V30 3780 O 351.164 1.76045 0.826956 0
M  V30 3781 C 351.447 2.48588 -2.6053 0
M  V30 3782 C 351.3 1.95221 -4.05227 0
M  V30 3783 C 352.619 3.50662 -2.6594 0
M  V30 3784 H 349.738 0.489803 -0.550692 0
M  V30 3785 H 352.38 0.663887 -1.78024 0
M  V30 3786 H 350.53 3.07186 -2.37843 0
M  V30 3787 H 352.202 1.41139 -4.39178 0
M  V30 3788 H 350.445 1.26101 -4.15068 0
M  V30 3789 H 351.116 2.77121 -4.77397 0
M  V30 3790 H 353.592 3.01934 -2.86313 0
M  V30 3791 H 352.468 4.27551 -3.44226 0
M  V30 3792 H 352.729 4.07399 -1.71694 0
M  V30 3793 N 351.788 1.33704 0.83433 0
M  V30 3794 C 353.199 1.22813 1.4062 0
M  V30 3795 C 353.55 -0.151107 1.95617 0
M  V30 3796 O 352.675 -1.05092 1.89168 0
M  V30 3797 C 353.27 2.22355 2.55624 0
M  V30 3798 C 351.829 2.1529 3.08751 0
M  V30 3799 C 350.976 2.09589 1.8157 0
M  V30 3800 H 353.927 1.45236 0.639702 0
M  V30 3801 H 353.948 1.83391 3.33389 0
M  V30 3802 H 353.46 3.22728 2.15566 0
M  V30 3803 H 351.561 1.18235 3.53343 0
M  V30 3804 H 351.674 3.06038 3.68616 0
M  V30 3805 H 350.038 1.55134 2.02004 0
M  V30 3806 H 350.821 3.11777 1.43701 0
M  V30 3807 N 353.266 -1.05314 1.17247 0
M  V30 3808 C 354.176 -2.16538 0.90268 0
M  V30 3809 C 355.192 -1.73523 -0.128707 0
M  V30 3810 O 356.368 -2.01337 0.0502701 0
M  V30 3811 C 353.433 -3.44167 0.418356 0
M  V30 3812 C 352.494 -4.01635 1.51618 0
M  V30 3813 C 351.727 -5.23171 1.05487 0
M  V30 3814 O 351.95 -5.70327 -0.0914715 0
M  V30 3815 O 350.884 -5.72848 1.8474 0
M  V30 3816 H 354.71 -2.42145 1.83302 0
M  V30 3817 H 352.295 -1.15037 0.953246 0
M  V30 3818 H 354.177 -4.21112 0.155726 0
M  V30 3819 H 352.852 -3.20063 -0.48385 0
M  V30 3820 H 351.759 -3.26135 1.83268 0
M  V30 3821 H 353.092 -4.30053 2.39405 0
M  V30 3822 N 354.744 -0.972509 -1.24016 0
M  V30 3823 C 355.969 -0.654417 -1.96805 0
M  V30 3824 C 356.394 0.770398 -1.716 0
M  V30 3825 O 355.752 1.52361 -0.982647 0
M  V30 3826 C 355.8 -0.941031 -3.48105 0
M  V30 3827 O 354.904 -0.0289472 -4.1239 0
M  V30 3828 H 354.245 -0.24692 -0.616382 0
M  V30 3829 H 356.775 -1.30396 -1.57664 0
M  V30 3830 H 356.785 -0.87452 -3.98517 0
M  V30 3831 H 355.46 -1.97939 -3.65777 0
M  V30 3832 H 354.037 -0.149192 -3.72601 0
M  V30 3833 N 356.222 1.38976 -0.743202 0
M  V30 3834 C 357.185 2.28901 -0.117014 0
M  V30 3835 C 358.185 1.46698 0.658503 0
M  V30 3836 O 359.375 1.67274 0.486305 0
M  V30 3837 C 356.507 3.30309 0.84315 0
M  V30 3838 H 357.7 2.8578 -0.909373 0
M  V30 3839 H 355.253 1.47761 -0.509547 0
M  V30 3840 H 355.988 2.785 1.66157 0
M  V30 3841 H 355.773 3.91029 0.289594 0
M  V30 3842 H 357.263 3.97577 1.2776 0
M  V30 3843 N 357.7 0.491464 1.49741 0
M  V30 3844 C 358.977 -0.118984 1.95238 0
M  V30 3845 C 359.357 -1.55044 1.43264 0
M  V30 3846 O 358.705 -2.19287 0.642287 0
M  V30 3847 C 358.915 -0.0414187 3.48975 0
M  V30 3848 C 360.263 -0.220133 4.24029 0
M  V30 3849 O 361.287 -0.117055 3.56008 0
M  V30 3850 O 360.146 -0.430567 5.44801 0
M  V30 3851 H 357.24 -0.100536 0.820866 0
M  V30 3852 H 359.786 0.553322 1.60426 0
M  V30 3853 H 358.558 0.957214 3.79412 0
M  V30 3854 H 358.181 -0.754292 3.9038 0
M  V30 3855 N 359.178 -1.55987 0.224894 0
M  V30 3856 C 360.424 -1.99433 -0.39973 0
M  V30 3857 C 360.779 -1.11004 -1.57149 0
M  V30 3858 O 360.072 -0.160725 -1.90925 0
M  V30 3859 C 360.266 -3.46394 -0.880106 0
M  V30 3860 C 360.095 -4.4904 0.243565 0
M  V30 3861 C 358.865 -5.00272 0.711056 0
M  V30 3862 C 361.063 -5.03195 1.06299 0
M  V30 3863 N 359.045 -5.86628 1.80944 0
M  V30 3864 C 360.416 -5.86508 2.01017 0
M  V30 3865 C 362.471 -4.8555 1.10205 0
M  V30 3866 C 361.174 -6.54062 2.99324 0
M  V30 3867 C 363.2 -5.53866 2.07332 0
M  V30 3868 C 362.562 -6.3695 3.00789 0
M  V30 3869 H 358.661 -0.773815 -0.112847 0
M  V30 3870 H 361.245 -1.91754 0.337432 0
M  V30 3871 H 359.416 -3.54515 -1.58662 0
M  V30 3872 H 361.148 -3.76752 -1.47783 0
M  V30 3873 H 357.903 -4.72655 0.29906 0
M  V30 3874 H 358.327 -6.34507 2.36073 0
M  V30 3875 H 362.969 -4.20966 0.39343 0
M  V30 3876 H 360.687 -7.17827 3.71147 0
M  V30 3877 H 364.273 -5.42178 2.11032 0
M  V30 3878 H 363.153 -6.8888 3.74718 0
M  V30 3879 N 360.656 0.0484629 -1.57525 0
M  V30 3880 C 361.886 0.754326 -1.92337 0
M  V30 3881 C 362.294 1.70443 -0.82132 0
M  V30 3882 O 361.637 1.82466 0.21254 0
M  V30 3883 C 361.699 1.58231 -3.22805 0
M  V30 3884 C 361.363 0.799074 -4.4996 0
M  V30 3885 C 362.36 0.1079 -5.19788 0
M  V30 3886 C 360.045 0.759345 -4.96527 0
M  V30 3887 C 362.039 -0.612516 -6.3445 0
M  V30 3888 C 359.726 0.0351713 -6.1109 0
M  V30 3889 C 360.724 -0.649537 -6.79904 0
M  V30 3890 O 360.412 -1.36199 -7.92278 0
M  V30 3891 H 360.144 0.218257 -0.639797 0
M  V30 3892 H 362.698 0.0159295 -2.05394 0
M  V30 3893 H 360.928 2.36406 -3.06021 0
M  V30 3894 H 362.617 2.16898 -3.43089 0
M  V30 3895 H 363.383 0.129748 -4.84826 0
M  V30 3896 H 359.262 1.28177 -4.42822 0
M  V30 3897 H 362.806 -1.14751 -6.88097 0
M  V30 3898 H 358.703 0.0113314 -6.45499 0
M  V30 3899 H 359.471 -1.27366 -8.0853 0
M  V30 3900 N 362.134 1.5431 0.320358 0
M  V30 3901 C 363.082 1.84647 1.4145 0
M  V30 3902 C 364.076 0.718624 1.53402 0
M  V30 3903 O 365.282 0.902335 1.5575 0
M  V30 3904 H 361.657 0.585349 0.472091 0
M  V30 3905 H 363.628 2.7614 1.13089 0
M  V30 3906 C 362.377 2.09341 2.77617 0
M  V30 3907 H 361.7 2.9559 2.69196 0
M  V30 3908 H 363.14 2.3452 3.53237 0
M  V30 3909 C 361.599 0.885939 3.25043 0
M  V30 3910 O 362.129 0.0967891 4.01583 0
M  V30 3911 N 360.335 0.696682 2.82125 0
M  V30 3912 H 359.882 1.34006 2.2 0
M  V30 3913 H 359.84 -0.109712 3.14209 0
M  V30 3914 N 363.613 -0.582584 1.46437 0
M  V30 3915 C 364.838 -1.37168 1.55563 0
M  V30 3916 C 365.263 -1.87061 0.19743 0
M  V30 3917 O 364.621 -1.61572 -0.822451 0
M  V30 3918 C 364.669 -2.53511 2.56446 0
M  V30 3919 O 363.773 -3.54953 2.09958 0
M  V30 3920 H 363.114 -0.408494 0.523477 0
M  V30 3921 H 365.644 -0.706646 1.9201 0
M  V30 3922 H 365.654 -3.00426 2.76058 0
M  V30 3923 H 364.329 -2.16549 3.55076 0
M  V30 3924 H 362.906 -3.14516 2.00334 0
M  V30 3925 N 365.091 -1.34144 -0.827227 0
M  V30 3926 C 366.316 -1.29476 -1.62021 0
M  V30 3927 C 366.741 0.129292 -1.87655 0
M  V30 3928 O 366.099 1.08967 -1.449 0
M  V30 3929 C 366.147 -2.08702 -2.94068 0
M  V30 3930 O 365.251 -1.45359 -3.85933 0
M  V30 3931 H 364.592 -0.444881 -0.492927 0
M  V30 3932 H 367.122 -1.76882 -1.02829 0
M  V30 3933 H 367.132 -2.19898 -3.43669 0
M  V30 3934 H 365.807 -3.12241 -2.74734 0
M  V30 3935 H 364.384 -1.42879 -3.44442 0
M  V30 3936 N 366.569 1.04691 -1.17803 0
M  V30 3937 C 367.799 1.81183 -0.992788 0
M  V30 3938 C 368.207 1.8347 0.462098 0
M  V30 3939 O 367.55 1.2643 1.33271 0
M  V30 3940 C 367.612 3.28363 -1.46349 0
M  V30 3941 C 367.276 3.49749 -2.94151 0
M  V30 3942 C 368.273 3.41456 -3.92051 0
M  V30 3943 C 365.958 3.76548 -3.32441 0
M  V30 3944 C 367.952 3.59656 -5.26238 0
M  V30 3945 C 365.639 3.94396 -4.66792 0
M  V30 3946 C 366.637 3.8595 -5.635 0
M  V30 3947 O 366.325 4.03294 -6.9542 0
M  V30 3948 H 366.057 0.577622 -0.351182 0
M  V30 3949 H 368.611 1.32876 -1.5663 0
M  V30 3950 H 366.841 3.77609 -0.833574 0
M  V30 3951 H 368.53 3.86395 -1.24313 0
M  V30 3952 H 369.296 3.20723 -3.63815 0
M  V30 3953 H 365.175 3.82224 -2.57732 0
M  V30 3954 H 368.719 3.52979 -6.01707 0
M  V30 3955 H 364.616 4.14622 -4.94731 0
M  V30 3956 H 365.384 4.2049 -7.02232 0
M  V30 3957 N 368.047 0.979072 1.23499 0
M  V30 3958 C 369.296 0.642751 1.91185 0
M  V30 3959 C 369.609 -0.827253 1.77245 0
M  V30 3960 O 370.815 -1.27458 2.39722 0
M  V30 3961 C 369.271 1.09901 3.42709 0
M  V30 3962 C 368.879 2.59327 3.65313 0
M  V30 3963 C 370.623 0.836371 4.16179 0
M  V30 3964 C 368.53 2.98627 5.10467 0
M  V30 3965 H 367.46 0.236698 0.715884 0
M  V30 3966 H 370.111 1.1868 1.39955 0
M  V30 3967 H 368.493 0.48319 3.93041 0
M  V30 3968 H 369.667 3.26136 3.25533 0
M  V30 3969 H 367.982 2.83323 3.05151 0
M  V30 3970 H 370.579 1.10586 5.23139 0
M  V30 3971 H 370.922 -0.227509 4.15678 0
M  V30 3972 H 371.455 1.41371 3.71832 0
M  V30 3973 H 368.194 4.04133 5.16098 0
M  V30 3974 H 367.714 2.3651 5.51201 0
M  V30 3975 H 369.393 2.89159 5.78788 0
M  V30 3976 N 369.525 -1.3858 0.750561 0
M  V30 3977 C 370.774 -1.99424 0.302172 0
M  V30 3978 C 371.087 -1.60254 -1.12152 0
M  V30 3979 O 372.293 -2.14046 -1.67023 0
M  V30 3980 C 370.749 -3.56558 0.489307 0
M  V30 3981 C 370.357 -4.04682 1.92189 0
M  V30 3982 C 372.101 -4.24374 0.103478 0
M  V30 3983 C 370.008 -5.54446 2.05775 0
M  V30 3984 H 368.938 -0.746046 0.10923 0
M  V30 3985 H 371.589 -1.58383 0.92667 0
M  V30 3986 H 369.971 -3.95472 -0.204329 0
M  V30 3987 H 371.145 -3.77065 2.64875 0
M  V30 3988 H 369.46 -3.4958 2.26236 0
M  V30 3989 H 372.057 -5.34384 0.183787 0
M  V30 3990 H 372.4 -4.05468 -0.943481 0
M  V30 3991 H 372.933 -3.90688 0.748854 0
M  V30 3992 H 369.672 -5.78252 3.08714 0
M  V30 3993 H 369.192 -5.83816 1.37546 0
M  V30 3994 H 370.871 -6.20099 1.84626 0
M  V30 3995 N 371.003 -0.499398 -1.49478 0
M  V30 3996 C 371.966 0.268838 -2.27618 0
M  V30 3997 C 372.966 0.895383 -1.33565 0
M  V30 3998 O 374.156 0.760164 -1.56739 0
M  V30 3999 C 371.288 1.38559 -3.11471 0
M  V30 4000 H 372.481 -0.416812 -2.96989 0
M  V30 4001 H 370.034 -0.254313 -1.54217 0
M  V30 4002 H 370.769 2.10544 -2.46661 0
M  V30 4003 H 370.554 0.941797 -3.80621 0
M  V30 4004 H 372.044 1.92678 -3.70493 0
M  V30 4005 N 372.481 1.55866 -0.233164 0
M  V30 4006 C 373.727 1.99643 0.389148 0
M  V30 4007 C 374.082 1.11836 1.56558 0
M  V30 4008 O 373.375 0.170848 1.90837 0
M  V30 4009 C 373.569 3.46856 0.861724 0
M  V30 4010 C 373.398 4.48904 -0.267376 0
M  V30 4011 C 372.168 4.99888 -0.737577 0
M  V30 4012 C 374.366 5.02624 -1.08966 0
M  V30 4013 N 372.348 5.8566 -1.84052 0
M  V30 4014 C 373.719 5.85434 -2.04125 0
M  V30 4015 C 375.774 4.84959 -1.12779 0
M  V30 4016 C 374.477 6.52466 -3.02789 0
M  V30 4017 C 376.503 5.52759 -2.10266 0
M  V30 4018 C 375.865 6.35346 -3.04162 0
M  V30 4019 H 371.964 0.774402 0.108742 0
M  V30 4020 H 374.548 1.91572 -0.347596 0
M  V30 4021 H 372.719 3.55352 1.5678 0
M  V30 4022 H 374.451 3.77531 1.45783 0
M  V30 4023 H 371.206 4.7249 -0.324122 0
M  V30 4024 H 371.63 6.33246 -2.39434 0
M  V30 4025 H 376.272 4.20751 -0.415749 0
M  V30 4026 H 373.99 7.15849 -3.74948 0
M  V30 4027 H 377.576 5.41051 -2.13905 0
M  V30 4028 H 376.456 6.86883 -3.78366 0
M  V30 4029 N 373.959 -0.0401083 1.57549 0
M  V30 4030 C 375.207 -0.731677 1.8839 0
M  V30 4031 C 375.528 -1.76481 0.829425 0
M  V30 4032 O 374.798 -1.95411 -0.1383 0
M  V30 4033 H 373.378 -0.273225 0.695239 0
M  V30 4034 H 376.04 -0.00867725 1.94898 0
M  V30 4035 H 375.136 -1.22816 2.86919 0
M  V30 4036 N 375.437 -1.54477 -0.31217 0
M  V30 4037 C 376.662 -1.77526 -1.07235 0
M  V30 4038 C 377.087 -0.527775 -1.80544 0
M  V30 4039 O 376.445 0.52121 -1.73646 0
M  V30 4040 C 376.493 -2.97535 -2.03728 0
M  V30 4041 O 375.597 -2.69878 -3.11833 0
M  V30 4042 H 374.938 -0.58792 -0.30862 0
M  V30 4043 H 377.468 -2.01532 -0.352993 0
M  V30 4044 H 377.478 -3.25198 -2.46395 0
M  V30 4045 H 376.153 -3.87996 -1.49774 0
M  V30 4046 H 374.73 -2.53199 -2.7376 0
M  V30 4047 N 376.915 0.57481 -1.46744 0
M  V30 4048 C 377.863 1.70435 -1.58286 0
M  V30 4049 C 378.857 1.63287 -0.450956 0
M  V30 4050 O 380.063 1.68685 -0.628121 0
M  V30 4051 H 376.438 0.56364 -0.497809 0
M  V30 4052 H 378.409 1.57833 -2.53242 0
M  V30 4053 C 377.158 3.08815 -1.59776 0
M  V30 4054 H 376.481 3.1499 -2.46214 0
M  V30 4055 H 377.921 3.87588 -1.71905 0
M  V30 4056 C 376.38 3.35301 -0.327812 0
M  V30 4057 O 376.91 3.97511 0.57861 0
M  V30 4058 N 375.116 2.89816 -0.213274 0
M  V30 4059 H 374.663 2.39371 -0.951798 0
M  V30 4060 H 374.621 3.0791 0.63553 0
M  V30 4061 N 378.394 1.34581 0.820102 0
M  V30 4062 C 379.64 1.27285 1.57881 0
M  V30 4063 C 379.973 -0.156137 1.93571 0
M  V30 4064 O 379.248 -1.10222 1.60254 0
M  V30 4065 C 379.531 2.16639 2.87645 0
M  V30 4066 C 379.384 3.68088 2.58517 0
M  V30 4067 C 380.703 2.05378 3.8924 0
M  V30 4068 H 377.822 0.463714 0.572833 0
M  V30 4069 H 380.464 1.64859 0.944539 0
M  V30 4070 H 378.614 1.84725 3.41773 0
M  V30 4071 H 380.286 4.10382 2.10676 0
M  V30 4072 H 378.529 3.89038 1.91917 0
M  V30 4073 H 379.2 4.2598 3.51063 0
M  V30 4074 H 381.676 2.33404 3.44473 0
M  V30 4075 H 380.552 2.7012 4.77835 0
M  V30 4076 H 380.813 1.0316 4.29896 0
M  V30 4077 N 379.872 -1.04064 1.18357 0
M  V30 4078 C 381.283 -1.58719 0.98312 0
M  V30 4079 C 381.634 -1.90556 -0.467193 0
M  V30 4080 O 380.759 -1.69561 -1.34454 0
M  V30 4081 C 381.354 -2.88379 1.77828 0
M  V30 4082 C 379.913 -3.3965 1.62218 0
M  V30 4083 C 379.06 -2.13235 1.77274 0
M  V30 4084 H 382.011 -0.867359 1.32901 0
M  V30 4085 H 382.032 -3.58773 1.26737 0
M  V30 4086 H 381.544 -2.65176 2.83379 0
M  V30 4087 H 379.645 -3.67866 0.592036 0
M  V30 4088 H 379.758 -4.13475 2.42023 0
M  V30 4089 H 378.122 -2.24542 1.20221 0
M  V30 4090 H 378.905 -1.92487 2.8426 0
M  V30 4091 N 381.35 -0.985608 -1.22978 0
M  V30 4092 C 382.282 -0.488154 -2.23941 0
M  V30 4093 C 383.295 0.41282 -1.57479 0
M  V30 4094 O 384.484 0.216121 -1.77187 0
M  V30 4095 C 381.584 0.312611 -3.37455 0
M  V30 4096 C 380.757 -0.582741 -4.33501 0
M  V30 4097 C 379.816 0.165064 -5.25941 0
M  V30 4098 O 378.842 -0.447077 -5.67442 0
M  V30 4099 N 380.044 1.44953 -5.62111 0
M  V30 4100 H 382.809 -1.3563 -2.67254 0
M  V30 4101 H 380.37 -0.859477 -1.37203 0
M  V30 4102 H 382.362 0.821357 -3.96277 0
M  V30 4103 H 380.932 1.0818 -2.93285 0
M  V30 4104 H 380.152 -1.27225 -3.73105 0
M  V30 4105 H 381.44 -1.19275 -4.94622 0
M  V30 4106 H 380.838 1.9683 -5.30353 0
M  V30 4107 H 379.395 1.90361 -6.23383 0
M  V30 4108 N 382.828 1.3818 -0.7579 0
M  V30 4109 C 384.056 2.04301 -0.326937 0
M  V30 4110 C 384.471 1.57163 1.0462 0
M  V30 4111 O 383.828 0.746626 1.66529 0
M  V30 4112 C 383.879 3.59846 -0.345363 0
M  V30 4113 O 383.6 4.05256 -1.66432 0
M  V30 4114 C 385.101 4.4319 0.098927 0
M  V30 4115 H 382.321 0.656443 -0.139012 0
M  V30 4116 H 384.865 1.76786 -1.02796 0
M  V30 4117 H 383.02 3.86182 0.306955 0
M  V30 4118 H 383.434 4.99709 -1.59345 0
M  V30 4119 H 384.908 5.51989 0.0348745 0
M  V30 4120 H 385.385 4.23947 1.14741 0
M  V30 4121 H 385.991 4.22051 -0.52468 0
M  V30 4122 N 384.306 0.507319 1.49211 0
M  V30 4123 C 385.722 0.163682 1.58758 0
M  V30 4124 C 385.922 -1.33208 1.51188 0
M  V30 4125 O 384.978 -2.10855 1.38911 0
M  V30 4126 C 386.291 0.746095 2.91297 0
M  V30 4127 C 387.839 0.712773 3.04776 0
M  V30 4128 C 388.314 1.27336 4.39943 0
M  V30 4129 N 389.805 1.23433 4.46451 0
M  V30 4130 C 390.54 1.63821 5.495 0
M  V30 4131 N 390.036 2.11832 6.5962 0
M  V30 4132 N 391.829 1.55198 5.4025 0
M  V30 4133 H 383.98 1.47972 1.52375 0
M  V30 4134 H 386.243 0.614147 0.722168 0
M  V30 4135 H 385.949 1.79534 3.02424 0
M  V30 4136 H 385.823 0.210137 3.76614 0
M  V30 4137 H 388.21 -0.327656 2.93275 0
M  V30 4138 H 388.291 1.28595 2.21127 0
M  V30 4139 H 387.935 2.3126 4.52196 0
M  V30 4140 H 387.865 0.676066 5.22242 0
M  V30 4141 H 390.356 0.882627 3.67448 0
M  V30 4142 H 390.669 2.40703 7.34358 0
M  V30 4143 H 389.014 2.1581 6.60644 0
M  V30 4144 H 392.205 1.17505 4.53112 0
M  V30 4145 H 392.378 1.86997 6.20432 0
M  V30 4146 N 385.784 -1.5574 0.241426 0
M  V30 4147 C 387.012 -2.03208 -0.389134 0
M  V30 4148 C 387.427 -1.12082 -1.51931 0
M  V30 4149 O 386.784 -0.134183 -1.82006 0
M  V30 4150 C 386.835 -3.50064 -0.902087 0
M  V30 4151 O 386.556 -4.37717 0.18305 0
M  V30 4152 C 388.057 -4.13268 -1.60389 0
M  V30 4153 H 385.277 -0.664509 -0.0931053 0
M  V30 4154 H 387.821 -2.0124 0.36369 0
M  V30 4155 H 385.976 -3.52583 -1.60511 0
M  V30 4156 H 386.39 -5.24097 -0.205579 0
M  V30 4157 H 387.864 -5.17733 -1.91458 0
M  V30 4158 H 388.341 -3.59434 -2.52397 0
M  V30 4159 H 388.947 -4.14655 -0.945576 0
M  V30 4160 N 387.262 0.0317525 -1.57568 0
M  V30 4161 C 388.673 0.578692 -1.77505 0
M  V30 4162 C 389.024 1.75749 -0.872164 0
M  V30 4163 O 388.149 2.16298 -0.0663106 0
M  V30 4164 C 388.744 1.05658 -3.21904 0
M  V30 4165 C 387.303 1.54906 -3.43047 0
M  V30 4166 C 386.45 0.485939 -2.73009 0
M  V30 4167 H 389.401 -0.194475 -1.57504 0
M  V30 4168 H 389.422 1.92404 -3.28269 0
M  V30 4169 H 388.934 0.198422 -3.87592 0
M  V30 4170 H 387.035 2.42915 -2.82529 0
M  V30 4171 H 387.148 1.59841 -4.5165 0
M  V30 4172 H 385.512 0.940354 -2.36705 0
M  V30 4173 H 386.295 -0.362709 -3.41379 0
M  V30 4174 N 388.74 1.54641 0.303973 0
M  V30 4175 C 390.017 1.64455 1.05896 0
M  V30 4176 C 390.397 0.490923 2.05312 0
M  V30 4177 O 389.745 -0.512685 2.22674 0
M  V30 4178 C 389.955 3.02331 1.74347 0
M  V30 4179 C 391.303 3.59045 2.26653 0
M  V30 4180 O 392.327 3.04764 1.84384 0
M  V30 4181 O 391.186 4.54081 3.04093 0
M  V30 4182 H 388.28 0.666729 0.489287 0
M  V30 4183 H 390.826 1.66986 0.302298 0
M  V30 4184 H 389.598 3.77734 1.02142 0
M  V30 4185 H 389.221 3.03565 2.56777 0
M  V30 4186 N 390.218 -0.567019 1.47046 0
M  V30 4187 C 391.181 -1.65696 1.58359 0
M  V30 4188 C 392.181 -1.54097 0.459441 0
M  V30 4189 O 393.371 -1.58432 0.724225 0
M  V30 4190 C 390.503 -3.05197 1.51879 0
M  V30 4191 H 391.696 -1.57019 2.5551 0
M  V30 4192 H 389.249 -0.786148 1.3509 0
M  V30 4193 H 389.984 -3.19417 0.560673 0
M  V30 4194 H 389.769 -3.15025 2.33455 0
M  V30 4195 H 391.259 -3.84511 1.62913 0
M  V30 4196 N 391.696 -1.35014 -0.812953 0
M  V30 4197 C 392.646 -1.23959 -1.91359 0
M  V30 4198 C 393.63 -0.136306 -1.60322 0
M  V30 4199 O 394.822 -0.366925 -1.73155 0
M  V30 4200 C 391.951 -1.00736 -3.28188 0
M  V30 4201 C 391.037 -2.15426 -3.65311 0
M  V30 4202 N 391.428 -3.40612 -3.73921 0
M  V30 4203 C 389.726 -2.06672 -3.95225 0
M  V30 4204 C 390.427 -4.15994 -4.06601 0
M  V30 4205 N 389.403 -3.44685 -4.20349 0
M  V30 4206 H 393.205 -2.18815 -1.96208 0
M  V30 4207 H 390.719 -1.27395 -1.00718 0
M  V30 4208 H 392.716 -0.909052 -4.06868 0
M  V30 4209 H 391.376 -0.067586 -3.2463 0
M  V30 4210 H 392.387 -3.75043 -3.5716 0
M  V30 4211 H 389.064 -1.20511 -3.99729 0
M  V30 4212 H 390.454 -5.24145 -4.20382 0
M  V30 4213 N 393.175 1.03435 -1.18907 0
M  V30 4214 C 394.422 1.76743 -0.988334 0
M  V30 4215 C 394.75 1.88447 0.481441 0
M  V30 4216 O 394.005 1.39383 1.37371 0
M  V30 4217 C 394.304 3.19792 -1.59586 0
M  V30 4218 C 393.97 3.28108 -3.09283 0
M  V30 4219 C 392.632 3.30084 -3.5014 0
M  V30 4220 C 394.984 3.27696 -4.05296 0
M  V30 4221 C 392.312 3.29299 -4.85571 0
M  V30 4222 C 394.664 3.28451 -5.4065 0
M  V30 4223 C 393.328 3.28723 -5.80946 0
M  V30 4224 H 392.598 0.64675 -0.361657 0
M  V30 4225 H 395.245 1.21442 -1.48068 0
M  V30 4226 H 393.55 3.78136 -1.02568 0
M  V30 4227 H 395.247 3.75171 -1.41589 0
M  V30 4228 H 391.837 3.27294 -2.76725 0
M  V30 4229 H 396.021 3.25354 -3.74778 0
M  V30 4230 H 391.277 3.2783 -5.16079 0
M  V30 4231 H 395.451 3.27082 -6.14809 0
M  V30 4232 H 393.078 3.27868 -6.85862 0
M  V30 4233 N 394.653 0.992116 1.22453 0
M  V30 4234 C 395.9 0.667534 1.91181 0
M  V30 4235 C 396.228 -0.800317 1.77271 0
M  V30 4236 O 395.483 -1.59421 1.13505 0
M  V30 4237 C 395.782 1.01832 3.42586 0
M  V30 4238 C 395.448 2.47831 3.76684 0
M  V30 4239 C 394.11 2.87729 3.85701 0
M  V30 4240 C 396.462 3.42466 3.92895 0
M  V30 4241 C 393.79 4.21252 4.08367 0
M  V30 4242 C 396.142 4.75648 4.17064 0
M  V30 4243 C 394.806 5.15288 4.24305 0
M  V30 4244 H 394.076 0.244268 0.699581 0
M  V30 4245 H 396.723 1.24816 1.45235 0
M  V30 4246 H 395.028 0.355769 3.90181 0
M  V30 4247 H 396.725 0.745228 3.94014 0
M  V30 4248 H 393.315 2.15905 3.70247 0
M  V30 4249 H 397.499 3.12814 3.85307 0
M  V30 4250 H 392.755 4.51554 4.122 0
M  V30 4251 H 396.929 5.48924 4.2855 0
M  V30 4252 H 394.556 6.18769 4.41621 0
M  V30 4253 N 396.131 -1.37776 0.765217 0
M  V30 4254 C 397.359 -2.04124 0.337767 0
M  V30 4255 C 397.774 -1.57715 -1.03785 0
M  V30 4256 O 397.131 -0.755447 -1.6613 0
M  V30 4257 C 397.182 -3.59658 0.364442 0
M  V30 4258 O 396.903 -4.04367 1.68579 0
M  V30 4259 C 398.404 -4.43236 -0.0754221 0
M  V30 4260 H 395.624 -0.655696 0.142491 0
M  V30 4261 H 398.168 -1.76238 1.03732 0
M  V30 4262 H 396.323 -3.86339 -0.286471 0
M  V30 4263 H 396.737 -4.98857 1.61993 0
M  V30 4264 H 398.211 -5.52 -0.00560067 0
M  V30 4265 H 398.688 -4.2455 -1.12491 0
M  V30 4266 H 399.294 -4.21767 0.547055 0
M  V30 4267 N 397.609 -0.515225 -1.4894 0
M  V30 4268 C 398.519 0.259774 -2.33157 0
M  V30 4269 C 399.535 0.953501 -1.45548 0
M  V30 4270 O 400.711 0.931735 -1.78552 0
M  V30 4271 C 397.776 1.30193 -3.21326 0
M  V30 4272 C 396.837 0.620129 -4.24797 0
M  V30 4273 C 396.07 1.61263 -5.08753 0
M  V30 4274 O 396.293 2.84389 -4.94448 0
M  V30 4275 O 395.227 1.16013 -5.90614 0
M  V30 4276 H 399.053 -0.429932 -3.00641 0
M  V30 4277 H 396.638 -0.276346 -1.46822 0
M  V30 4278 H 398.52 1.90455 -3.75905 0
M  V30 4279 H 397.195 1.97431 -2.56521 0
M  V30 4280 H 396.102 -0.0226019 -3.74093 0
M  V30 4281 H 397.435 -0.0100493 -4.92199 0
M  V30 4282 N 399.087 1.5561 -0.249682 0
M  V30 4283 C 400.333 1.99306 0.374841 0
M  V30 4284 C 400.666 1.13767 1.57387 0
M  V30 4285 O 399.941 0.201711 1.93451 0
M  V30 4286 C 400.224 3.51507 0.781986 0
M  V30 4287 C 400.077 4.4781 -0.422629 0
M  V30 4288 C 401.396 4.08884 1.62793 0
M  V30 4289 H 398.515 0.724572 0.134773 0
M  V30 4290 H 401.157 1.86719 -0.351549 0
M  V30 4291 H 399.307 3.62363 1.4009 0
M  V30 4292 H 400.979 4.48931 -1.06108 0
M  V30 4293 H 399.222 4.20518 -1.06524 0
M  V30 4294 H 399.893 5.51919 -0.0943766 0
M  V30 4295 H 402.369 4.01147 1.10547 0
M  V30 4296 H 401.245 5.1564 1.88166 0
M  V30 4297 H 401.506 3.57515 2.60068 0
M  V30 4298 N 400.565 -0.0233959 1.57583 0
M  V30 4299 C 401.981 -0.379134 1.55031 0
M  V30 4300 C 402.181 -1.76255 0.976548 0
M  V30 4301 O 401.237 -2.45266 0.600078 0
M  V30 4302 C 402.55 -0.275792 2.99433 0
M  V30 4303 C 404.098 -0.352458 3.11009 0
M  V30 4304 C 404.573 -0.278501 4.57152 0
M  V30 4305 N 406.064 -0.337123 4.61972 0
M  V30 4306 C 406.799 -0.302876 5.726 0
M  V30 4307 N 406.295 -0.220589 6.92449 0
M  V30 4308 N 408.088 -0.353023 5.6099 0
M  V30 4309 H 400.239 0.881869 1.93227 0
M  V30 4310 H 402.502 0.335867 0.886509 0
M  V30 4311 H 402.208 0.675108 3.4516 0
M  V30 4312 H 402.082 -1.06721 3.61788 0
M  V30 4313 H 404.469 -1.29379 2.65226 0
M  V30 4314 H 404.55 0.468409 2.51475 0
M  V30 4315 H 404.194 0.659189 5.03604 0
M  V30 4316 H 404.124 -1.11755 5.14605 0
M  V30 4317 H 406.615 -0.403002 3.75745 0
M  V30 4318 H 406.928 -0.199713 7.72542 0
M  V30 4319 H 405.273 -0.186555 6.9475 0
M  V30 4320 H 408.464 -0.415339 4.66254 0
M  V30 4321 H 408.637 -0.322866 6.47195 0
M  V30 4322 N 402.043 -1.548 -0.295768 0
M  V30 4323 C 403.273 -1.78069 -1.04762 0
M  V30 4324 C 403.681 -0.542847 -1.81245 0
M  V30 4325 O 403.024 0.497051 -1.76848 0
M  V30 4326 C 403.086 -2.93881 -2.07061 0
M  V30 4327 C 402.75 -4.31777 -1.49725 0
M  V30 4328 C 403.747 -5.11613 -0.924581 0
M  V30 4329 C 401.432 -4.78389 -1.5313 0
M  V30 4330 C 403.426 -6.36184 -0.393594 0
M  V30 4331 C 401.113 -6.02921 -0.996447 0
M  V30 4332 C 402.111 -6.81654 -0.428569 0
M  V30 4333 O 401.799 -8.0384 0.0981593 0
M  V30 4334 H 401.531 -0.597475 -0.316226 0
M  V30 4335 H 404.085 -2.02584 -0.338973 0
M  V30 4336 H 402.315 -2.65003 -2.81621 0
M  V30 4337 H 404.004 -3.04679 -2.6819 0
M  V30 4338 H 404.77 -4.76743 -0.891136 0
M  V30 4339 H 400.649 -4.17132 -1.9627 0
M  V30 4340 H 404.193 -6.97582 0.0503014 0
M  V30 4341 H 400.09 -6.37277 -1.02706 0
M  V30 4342 H 400.858 -8.18499 -0.0146455 0
M  V30 4343 N 403.521 0.559213 -1.47345 0
M  V30 4344 C 404.468 1.66645 -1.59682 0
M  V30 4345 C 405.438 1.60168 -0.43994 0
M  V30 4346 O 406.623 1.79031 -0.659736 0
M  V30 4347 C 403.763 3.04969 -1.61518 0
M  V30 4348 C 402.876 3.21897 -2.88108 0
M  V30 4349 C 402.011 4.50608 -2.81294 0
M  V30 4350 C 401.05 4.60961 -4.02717 0
M  V30 4351 N 400.187 5.81024 -3.94151 0
M  V30 4352 H 405.027 1.55439 -2.54249 0
M  V30 4353 H 402.564 0.757219 -1.26113 0
M  V30 4354 H 404.522 3.85064 -1.60566 0
M  V30 4355 H 403.152 3.15015 -0.704645 0
M  V30 4356 H 402.204 2.35248 -2.98936 0
M  V30 4357 H 403.516 3.25412 -3.78032 0
M  V30 4358 H 402.67 5.3896 -2.7858 0
M  V30 4359 H 401.409 4.49568 -1.89049 0
M  V30 4360 H 400.414 3.71021 -4.05738 0
M  V30 4361 H 401.639 4.63761 -4.96087 0
M  V30 4362 H 399.585 5.80938 -3.04708 0
M  V30 4363 H 399.502 5.85909 -4.77752 0
M  V30 4364 H 400.77 6.71744 -3.9545 0
M  V30 4365 N 404.999 1.35443 0.805782 0
M  V30 4366 C 406.247 1.28507 1.55982 0
M  V30 4367 C 406.568 -0.140046 1.94496 0
M  V30 4368 O 405.838 -1.07666 1.63661 0
M  V30 4369 H 404.418 0.472676 0.578434 0
M  V30 4370 H 407.08 1.69555 0.961098 0
M  V30 4371 H 406.176 1.90148 2.47488 0
M  V30 4372 N 406.477 -1.02803 1.19454 0
M  V30 4373 C 407.705 -1.79841 1.02297 0
M  V30 4374 C 408.12 -1.83879 -0.428259 0
M  V30 4375 O 407.477 -1.28345 -1.29745 0
M  V30 4376 C 407.528 -3.24852 1.58598 0
M  V30 4377 O 407.249 -3.21097 2.98041 0
M  V30 4378 C 408.75 -4.18485 1.46236 0
M  V30 4379 H 405.97 -0.565936 0.360496 0
M  V30 4380 H 408.514 -1.2948 1.58288 0
M  V30 4381 H 406.669 -3.72401 1.06753 0
M  V30 4382 H 407.083 -4.12033 3.24545 0
M  V30 4383 H 408.557 -5.18121 1.90407 0
M  V30 4384 H 409.034 -4.37254 0.41301 0
M  V30 4385 H 409.64 -3.76811 1.97215 0
M  V30 4386 N 407.956 -0.998596 -1.21925 0
M  V30 4387 C 408.903 -0.553621 -2.24062 0
M  V30 4388 C 409.873 0.416999 -1.6078 0
M  V30 4389 O 411.058 0.320482 -1.88089 0
M  V30 4390 C 408.198 0.119959 -3.44891 0
M  V30 4391 C 407.311 -0.893077 -4.22668 0
M  V30 4392 C 406.446 -0.192424 -5.30851 0
M  V30 4393 C 405.485 -1.19344 -6.00353 0
M  V30 4394 N 404.622 -0.520707 -7.00166 0
M  V30 4395 H 409.462 -1.4293 -2.61486 0
M  V30 4396 H 406.999 -0.715838 -1.28507 0
M  V30 4397 H 408.957 0.527459 -4.13852 0
M  V30 4398 H 407.587 0.959389 -3.08214 0
M  V30 4399 H 406.639 -1.41886 -3.52948 0
M  V30 4400 H 407.951 -1.65512 -4.70539 0
M  V30 4401 H 407.105 0.271515 -6.06092 0
M  V30 4402 H 405.844 0.602075 -4.83969 0
M  V30 4403 H 404.849 -1.66795 -5.23889 0
M  V30 4404 H 406.074 -1.98891 -6.49322 0
M  V30 4405 H 404.02 0.254252 -6.55507 0
M  V30 4406 H 403.937 -1.2211 -7.46073 0
M  V30 4407 H 405.205 -0.0797596 -7.79459 0
M  V30 4408 N 409.434 1.37368 -0.772513 0
M  V30 4409 C 410.662 2.03942 -0.348588 0
M  V30 4410 C 411.077 1.58264 1.02947 0
M  V30 4411 O 410.434 0.764246 1.65727 0
M  V30 4412 C 410.485 3.5946 -0.38351 0
M  V30 4413 O 410.206 4.03468 -1.70721 0
M  V30 4414 C 411.707 4.4327 0.0519152 0
M  V30 4415 H 408.927 0.654931 -0.145966 0
M  V30 4416 H 411.471 1.75686 -1.04665 0
M  V30 4417 H 409.626 3.86486 0.265978 0
M  V30 4418 H 410.04 4.97991 -1.64636 0
M  V30 4419 H 411.514 5.51995 -0.0236733 0
M  V30 4420 H 411.991 4.2514 1.10238 0
M  V30 4421 H 412.597 4.21471 -0.569415 0
M  V30 4422 N 410.912 0.523116 1.48665 0
M  V30 4423 C 412.158 -0.0134963 2.02796 0
M  V30 4424 C 412.491 -1.34582 1.40004 0
M  V30 4425 O 411.766 -1.86756 0.543381 0
M  V30 4426 C 412.049 -0.14276 3.59817 0
M  V30 4427 C 411.902 1.21425 4.331 0
M  V30 4428 C 413.221 -0.872856 4.31357 0
M  V30 4429 H 410.34 -0.00343074 0.736992 0
M  V30 4430 H 412.982 0.678816 1.7746 0
M  V30 4431 H 411.132 -0.732401 3.81534 0
M  V30 4432 H 412.804 1.84447 4.2282 0
M  V30 4433 H 411.047 1.79791 3.94788 0
M  V30 4434 H 411.718 1.07687 5.41394 0
M  V30 4435 H 414.194 -0.372555 4.14429 0
M  V30 4436 H 413.07 -0.932185 5.40927 0
M  V30 4437 H 413.331 -1.92161 3.98154 0
M  V30 4438 N 412.39 -1.55475 0.257931 0
M  V30 4439 C 413.353 -2.20551 -0.623706 0
M  V30 4440 C 414.353 -1.17809 -1.09443 0
M  V30 4441 O 415.543 -1.42823 -0.997362 0
M  V30 4442 C 412.675 -2.85784 -1.8585 0
M  V30 4443 H 413.868 -2.99848 -0.0557743 0
M  V30 4444 H 411.421 -1.56298 0.0084422 0
M  V30 4445 H 412.156 -2.10453 -2.46739 0
M  V30 4446 H 411.941 -3.61057 -1.52907 0
M  V30 4447 H 413.431 -3.35553 -2.48584 0
M  V30 4448 N 413.868 0.0150385 -1.57593 0
M  V30 4449 C 415.114 0.704043 -1.90187 0
M  V30 4450 C 415.447 1.74249 -0.857366 0
M  V30 4451 O 414.722 1.94092 0.125843 0
M  V30 4452 C 415.005 1.36087 -3.33395 0
M  V30 4453 C 414.858 0.334981 -4.48551 0
M  V30 4454 C 416.177 2.29112 -3.7576 0
M  V30 4455 H 413.296 0.254475 -0.691673 0
M  V30 4456 H 415.938 -0.0331678 -1.89971 0
M  V30 4457 H 414.088 1.98922 -3.3371 0
M  V30 4458 H 415.76 -0.292534 -4.60372 0
M  V30 4459 H 414.003 -0.344325 -4.32431 0
M  V30 4460 H 414.674 0.833316 -5.45674 0
M  V30 4461 H 417.15 1.76308 -3.76902 0
M  V30 4462 H 416.026 2.72043 -4.76743 0
M  V30 4463 H 416.287 3.16385 -3.08793 0
M  V30 4464 N 415.346 1.54954 0.287554 0
M  V30 4465 C 416.574 1.78881 1.03967 0
M  V30 4466 C 416.989 0.554894 1.80462 0
M  V30 4467 O 416.346 -0.475676 1.76192 0
M  V30 4468 C 416.397 3.00488 2.0097 0
M  V30 4469 O 416.118 4.19113 1.27577 0
M  V30 4470 C 417.619 3.36907 2.88112 0
M  V30 4471 H 414.839 0.596259 0.307761 0
M  V30 4472 H 417.383 2.01937 0.322749 0
M  V30 4473 H 415.538 2.79601 2.68145 0
M  V30 4474 H 415.952 4.87765 1.92835 0
M  V30 4475 H 417.426 4.25205 3.52001 0
M  V30 4476 H 417.903 2.55659 3.57121 0
M  V30 4477 H 418.509 3.60001 2.26449 0
M  V30 4478 N 416.824 -0.551391 1.4764 0
M  V30 4479 C 418.235 -1.13349 1.48354 0
M  V30 4480 C 418.586 -1.94709 0.241432 0
M  V30 4481 O 417.711 -2.06306 -0.653205 0
M  V30 4482 C 418.306 -2.0623 2.68802 0
M  V30 4483 C 416.865 -2.597 2.72457 0
M  V30 4484 C 416.012 -1.36201 2.41546 0
M  V30 4485 H 418.963 -0.337698 1.55065 0
M  V30 4486 H 418.984 -2.90196 2.46103 0
M  V30 4487 H 418.496 -1.46987 3.59188 0
M  V30 4488 H 416.597 -3.22724 1.86225 0
M  V30 4489 H 416.71 -3.00296 3.73308 0
M  V30 4490 H 415.074 -1.67068 1.9225 0
M  V30 4491 H 415.857 -0.787425 3.34147 0
M  V30 4492 N 418.302 -1.35869 -0.798587 0
M  V30 4493 C 419.579 -1.20145 -1.54352 0
M  V30 4494 C 419.959 0.216161 -2.0999 0
M  V30 4495 O 419.307 1.22068 -1.93162 0
M  V30 4496 C 419.517 -2.27602 -2.64572 0
M  V30 4497 C 420.865 -2.63811 -3.32699 0
M  V30 4498 O 421.889 -2.26576 -2.74849 0
M  V30 4499 O 420.748 -3.27866 -4.37226 0
M  V30 4500 H 417.842 -0.467248 -0.682355 0
M  V30 4501 H 420.388 -1.47574 -0.837859 0
M  V30 4502 H 419.16 -3.2265 -2.21388 0
M  V30 4503 H 418.783 -2.01488 -3.42766 0
M  V30 4504 N 419.78 1.02168 -1.19998 0
M  V30 4505 C 421.01 1.79036 -1.031 0
M  V30 4506 C 421.418 1.84409 0.423078 0
M  V30 4507 O 420.761 1.29228 1.30559 0
M  V30 4508 C 420.823 3.25185 -1.53281 0
M  V30 4509 C 420.487 3.43431 -3.01503 0
M  V30 4510 C 421.484 3.33063 -3.99206 0
M  V30 4511 C 419.169 3.69412 -3.40353 0
M  V30 4512 C 421.163 3.48413 -5.33748 0
M  V30 4513 C 418.85 3.84406 -4.75053 0
M  V30 4514 C 419.848 3.7391 -5.71559 0
M  V30 4515 O 419.536 3.88452 -7.03818 0
M  V30 4516 H 419.268 0.570043 -0.363355 0
M  V30 4517 H 421.822 1.29524 -1.59414 0
M  V30 4518 H 420.052 3.75756 -0.913483 0
M  V30 4519 H 421.741 3.83671 -1.32481 0
M  V30 4520 H 422.507 3.12934 -3.70537 0
M  V30 4521 H 418.386 3.76671 -2.65782 0
M  V30 4522 H 421.93 3.40137 -6.09059 0
M  V30 4523 H 417.827 4.04035 -5.03415 0
M  V30 4524 H 418.595 4.055 -7.10993 0
M  V30 4525 N 421.258 1.00505 1.21394 0
M  V30 4526 C 422.221 0.570459 2.21987 0
M  V30 4527 C 423.221 -0.353211 1.56873 0
M  V30 4528 O 424.411 -0.14349 1.73608 0
M  V30 4529 C 421.543 -0.168555 3.40483 0
M  V30 4530 H 422.736 1.46021 2.6195 0
M  V30 4531 H 420.289 0.793565 1.34656 0
M  V30 4532 H 421.024 -1.07374 3.06009 0
M  V30 4533 H 420.809 0.494823 3.88965 0
M  V30 4534 H 422.299 -0.460362 4.15055 0
M  V30 4535 N 422.737 -1.36956 0.779787 0
M  V30 4536 C 423.647 -2.33965 0.172491 0
M  V30 4537 C 424.663 -1.60574 -0.670222 0
M  V30 4538 O 425.839 -1.92617 -0.588263 0
M  V30 4539 C 422.904 -3.39761 -0.690173 0
M  V30 4540 C 421.965 -4.28964 0.169924 0
M  V30 4541 C 421.198 -5.29707 -0.651662 0
M  V30 4542 O 421.421 -5.38238 -1.88827 0
M  V30 4543 O 420.355 -6.01873 -0.0566264 0
M  V30 4544 H 424.181 -2.87647 0.974321 0
M  V30 4545 H 421.766 -1.39258 0.541078 0
M  V30 4546 H 423.648 -4.04471 -1.1824 0
M  V30 4547 H 422.323 -2.88394 -1.47006 0
M  V30 4548 H 421.23 -3.67326 0.708696 0
M  V30 4549 H 422.563 -4.83656 0.913085 0
M  V30 4550 N 424.215 -0.530993 -1.48385 0
M  V30 4551 C 425.464 0.00474348 -2.01699 0
M  V30 4552 C 425.777 1.35227 -1.41325 0
M  V30 4553 O 426.983 1.97643 -1.86144 0
M  V30 4554 C 425.439 0.0588473 -3.59852 0
M  V30 4555 C 425.047 -1.28385 -4.2921 0
M  V30 4556 C 426.791 0.543358 -4.21008 0
M  V30 4557 C 424.698 -1.19028 -5.79298 0
M  V30 4558 H 423.628 0.00554317 -0.75398 0
M  V30 4559 H 426.279 -0.674924 -1.70637 0
M  V30 4560 H 424.661 0.803612 -3.8776 0
M  V30 4561 H 425.835 -2.04426 -4.12973 0
M  V30 4562 H 424.15 -1.70418 -3.7993 0
M  V30 4563 H 426.747 0.631351 -5.3096 0
M  V30 4564 H 427.09 1.54937 -3.86394 0
M  V30 4565 H 427.623 -0.145754 -3.97533 0
M  V30 4566 H 424.362 -2.17147 -6.18488 0
M  V30 4567 H 423.882 -0.471246 -5.97946 0
M  V30 4568 H 425.561 -0.881365 -6.40969 0
M  V30 4569 N 425.693 1.55336 -0.266172 0
M  V30 4570 C 426.656 2.20878 0.612001 0
M  V30 4571 C 427.656 1.18388 1.08816 0
M  V30 4572 O 428.846 1.4335 0.989774 0
M  V30 4573 C 425.978 2.86765 1.84332 0
M  V30 4574 H 427.171 2.99873 0.0398718 0
M  V30 4575 H 424.724 1.56291 -0.0167309 0
M  V30 4576 H 425.459 2.11759 2.45619 0
M  V30 4577 H 425.244 3.61862 1.5099 0
M  V30 4578 H 426.734 3.36867 2.46801 0
M  V30 4579 N 427.171 -0.0066808 1.57599 0
M  V30 4580 C 428.118 -1.00024 2.08 0
M  V30 4581 C 429.088 -1.34549 0.973943 0
M  V30 4582 O 430.273 -1.44502 1.24595 0
M  V30 4583 C 427.413 -2.2891 2.58252 0
M  V30 4584 C 426.526 -2.00346 3.82734 0
M  V30 4585 C 425.661 -3.23265 4.21513 0
M  V30 4586 C 424.7 -2.90357 5.3885 0
M  V30 4587 N 423.837 -4.05793 5.72954 0
M  V30 4588 H 428.677 -0.563499 2.92624 0
M  V30 4589 H 426.214 -0.266592 1.44664 0
M  V30 4590 H 428.172 -3.04247 2.85464 0
M  V30 4591 H 426.802 -2.70265 1.76512 0
M  V30 4592 H 425.854 -1.15406 3.62471 0
M  V30 4593 H 427.166 -1.72086 4.68175 0
M  V30 4594 H 426.32 -4.06953 4.49971 0
M  V30 4595 H 425.059 -3.54657 3.34768 0
M  V30 4596 H 424.064 -2.05075 5.10122 0
M  V30 4597 H 425.289 -2.60219 6.27266 0
M  V30 4598 H 423.235 -4.37094 4.89167 0
M  V30 4599 H 423.152 -3.81034 6.52954 0
M  V30 4600 H 424.42 -4.90289 6.06001 0
M  V30 4601 N 428.649 -1.55105 -0.279332 0
M  V30 4602 C 429.579 -1.90557 -1.34945 0
M  V30 4603 C 430.56 -0.766738 -1.51839 0
M  V30 4604 O 431.745 -1.02434 -1.64988 0
M  V30 4605 C 428.875 -2.17193 -2.71006 0
M  V30 4606 C 427.829 -3.33021 -2.68851 0
M  V30 4607 C 427.155 -3.45123 -4.08405 0
M  V30 4608 C 428.455 -4.69578 -2.28678 0
M  V30 4609 H 430.149 -2.80188 -1.05522 0
M  V30 4610 H 427.695 -1.34811 -0.506173 0
M  V30 4611 H 429.648 -2.40581 -3.45975 0
M  V30 4612 H 428.372 -1.24355 -3.01999 0
M  V30 4613 H 427.031 -3.0959 -1.9634 0
M  V30 4614 H 426.679 -2.49762 -4.3661 0
M  V30 4615 H 426.379 -4.22995 -4.07859 0
M  V30 4616 H 427.903 -3.70796 -4.85121 0
M  V30 4617 H 429.317 -4.92553 -2.93368 0
M  V30 4618 H 427.714 -5.5032 -2.39306 0
M  V30 4619 H 428.784 -4.68828 -1.23807 0
M  V30 4620 N 430.127 0.543554 -1.4793 0
M  V30 4621 C 431.367 1.31072 -1.56843 0
M  V30 4622 C 431.731 1.90604 -0.231124 0
M  V30 4623 O 432.932 2.68091 -0.195165 0
M  V30 4624 C 431.203 2.38106 -2.66533 0
M  V30 4625 S 432.762 3.24729 -2.95122 0
M  V30 4626 H 429.58 0.446035 -0.553691 0
M  V30 4627 H 432.182 0.620777 -1.85382 0
M  V30 4628 H 430.886 1.92828 -3.62278 0
M  V30 4629 H 430.417 3.11824 -2.39852 0
M  V30 4630 H 432.432 4.37891 -2.3338 0
M  V30 4631 N 431.605 1.3629 0.791371 0
M  V30 4632 C 432.882 1.20962 1.53712 0
M  V30 4633 C 433.262 -0.205021 2.10102 0
M  V30 4634 O 432.61 -1.21042 1.93807 0
M  V30 4635 C 432.82 2.29002 2.63361 0
M  V30 4636 C 434.168 2.65572 3.31295 0
M  V30 4637 O 435.192 2.2803 2.73643 0
M  V30 4638 O 434.051 3.3018 4.35481 0
M  V30 4639 H 431.145 0.47086 0.679867 0
M  V30 4640 H 433.691 1.48016 0.830021 0
M  V30 4641 H 432.463 3.2382 2.19674 0
M  V30 4642 H 432.086 2.03303 3.41692 0
M  V30 4643 N 433.083 -1.0153 1.20538 0
M  V30 4644 C 434.013 -2.11972 0.979295 0
M  V30 4645 C 434.994 -1.6985 -0.0921787 0
M  V30 4646 O 436.179 -1.94089 0.0655932 0
M  V30 4647 C 433.309 -3.43201 0.531984 0
M  V30 4648 C 432.263 -3.9907 1.54685 0
M  V30 4649 C 431.589 -5.26082 0.956127 0
M  V30 4650 C 432.889 -4.32313 2.93092 0
M  V30 4651 H 434.583 -2.31143 1.90298 0
M  V30 4652 H 432.129 -1.11079 0.916372 0
M  V30 4653 H 434.082 -4.1985 0.361044 0
M  V30 4654 H 432.806 -3.23792 -0.427327 0
M  V30 4655 H 431.465 -3.2453 1.70517 0
M  V30 4656 H 431.113 -5.02999 -0.0111538 0
M  V30 4657 H 430.813 -5.64426 1.63393 0
M  V30 4658 H 432.337 -6.05386 0.796284 0
M  V30 4659 H 433.751 -4.99845 2.80763 0
M  V30 4660 H 432.148 -4.81774 3.57791 0
M  V30 4661 H 433.218 -3.41025 3.44717 0
M  V30 4662 N 434.561 -1.01147 -1.20859 0
M  V30 4663 C 435.807 -0.708598 -1.90658 0
M  V30 4664 C 436.162 0.753069 -1.7705 0
M  V30 4665 O 435.455 1.53952 -1.14059 0
M  V30 4666 C 435.649 -1.0727 -3.40922 0
M  V30 4667 C 435.478 -2.56821 -3.69152 0
M  V30 4668 C 434.248 -3.23524 -3.8815 0
M  V30 4669 C 436.446 -3.54997 -3.72131 0
M  V30 4670 N 434.428 -4.62359 -4.03853 0
M  V30 4671 C 435.799 -4.79371 -3.93196 0
M  V30 4672 C 437.854 -3.49042 -3.55069 0
M  V30 4673 C 436.557 -5.98512 -3.98969 0
M  V30 4674 C 438.583 -4.67579 -3.6211 0
M  V30 4675 C 437.945 -5.9076 -3.83643 0
M  V30 4676 H 434.044 -0.31088 -0.71755 0
M  V30 4677 H 436.628 -1.29526 -1.45366 0
M  V30 4678 H 434.799 -0.51443 -3.84978 0
M  V30 4679 H 436.531 -0.723891 -3.98173 0
M  V30 4680 H 433.286 -2.73958 -3.86321 0
M  V30 4681 H 433.71 -5.34427 -4.15592 0
M  V30 4682 H 438.352 -2.54808 -3.37391 0
M  V30 4683 H 436.07 -6.93132 -4.15444 0
M  V30 4684 H 439.656 -4.64581 -3.50222 0
M  V30 4685 H 438.536 -6.8095 -3.88944 0
M  V30 4686 N 436.039 1.36541 -0.78704 0
M  V30 4687 C 436.969 2.32659 -0.197992 0
M  V30 4688 C 437.95 1.56533 0.665697 0
M  V30 4689 O 439.135 1.84698 0.60001 0
M  V30 4690 C 436.265 3.40778 0.669901 0
M  V30 4691 C 435.219 4.27897 -0.0937039 0
M  V30 4692 C 434.545 5.27163 0.894629 0
M  V30 4693 C 435.845 5.06334 -1.28154 0
M  V30 4694 H 437.539 2.82171 -1.00099 0
M  V30 4695 H 435.085 1.35665 -0.482793 0
M  V30 4696 H 437.038 4.07008 1.09191 0
M  V30 4697 H 435.762 2.89827 1.50558 0
M  V30 4698 H 434.421 3.6322 -0.49666 0
M  V30 4699 H 434.069 4.72486 1.72527 0
M  V30 4700 H 433.769 5.86317 0.388149 0
M  V30 4701 H 435.293 5.96266 1.31525 0
M  V30 4702 H 436.707 5.65617 -0.93541 0
M  V30 4703 H 435.104 5.74888 -1.72115 0
M  V30 4704 H 436.174 4.38114 -2.07807 0
M  V30 4705 N 437.518 0.538854 1.48102 0
M  V30 4706 C 438.481 -0.208395 2.28251 0
M  V30 4707 C 439.481 -0.859656 1.35892 0
M  V30 4708 O 440.671 -0.71834 1.58699 0
M  V30 4709 C 437.803 -1.30252 3.15035 0
M  V30 4710 H 438.996 0.495407 2.9578 0
M  V30 4711 H 436.549 0.295112 1.53489 0
M  V30 4712 H 437.284 -2.0393 2.52157 0
M  V30 4713 H 437.069 -0.840551 3.82985 0
M  V30 4714 H 438.559 -1.82787 3.75471 0
M  V30 4715 N 438.996 -1.55193 0.274407 0
M  V30 4716 C 440.407 -1.85358 -0.223488 0
M  V30 4717 C 440.758 -1.19642 -1.555 0
M  V30 4718 O 439.883 -0.484498 -2.10907 0
M  V30 4719 C 440.478 -3.36282 -0.412285 0
M  V30 4720 C 439.037 -3.66574 -0.854413 0
M  V30 4721 C 438.184 -2.7725 0.0527056 0
M  V30 4722 H 441.135 -1.50743 0.496215 0
M  V30 4723 H 441.156 -3.59349 -1.25094 0
M  V30 4724 H 440.668 -3.84083 0.556965 0
M  V30 4725 H 438.769 -3.24273 -1.83516 0
M  V30 4726 H 438.882 -4.74073 -0.692226 0
M  V30 4727 H 437.246 -2.50447 -0.463484 0
M  V30 4728 H 438.029 -3.27865 1.01783 0
M  V30 4729 N 440.474 -0.00167713 -1.576 0
M  V30 4730 C 441.421 0.989195 -2.08527 0
M  V30 4731 C 442.391 1.34031 -0.981065 0
M  V30 4732 O 443.576 1.43839 -1.2536 0
M  V30 4733 C 440.716 2.27537 -2.59463 0
M  V30 4734 C 439.829 1.98314 -3.83791 0
M  V30 4735 C 438.964 3.21025 -4.23222 0
M  V30 4736 C 438.003 2.87495 -5.40382 0
M  V30 4737 N 437.14 4.02749 -5.75098 0
M  V30 4738 H 441.98 0.547973 -2.92919 0
M  V30 4739 H 439.517 0.258917 -1.44803 0
M  V30 4740 H 441.475 3.02729 -2.87073 0
M  V30 4741 H 440.105 2.69325 -1.77943 0
M  V30 4742 H 439.157 1.13482 -3.63078 0
M  V30 4743 H 440.469 1.69601 -4.69081 0
M  V30 4744 H 439.623 4.04561 -4.52123 0
M  V30 4745 H 438.362 3.52877 -3.36644 0
M  V30 4746 H 437.367 2.02367 -5.11202 0
M  V30 4747 H 438.592 2.56889 -6.28637 0
M  V30 4748 H 436.538 4.34494 -4.91478 0
M  V30 4749 H 436.455 3.77566 -6.54966 0
M  V30 4750 H 437.723 4.87068 -6.08592 0
M  V30 4751 N 441.952 1.55251 0.271103 0
M  V30 4752 C 442.884 1.84675 1.35749 0
M  V30 4753 C 443.897 0.731366 1.45447 0
M  V30 4754 O 445.086 1.00924 1.4723 0
M  V30 4755 C 442.186 1.99638 2.73857 0
M  V30 4756 C 441.359 3.30312 2.86727 0
M  V30 4757 C 440.418 3.35318 4.05522 0
M  V30 4758 O 439.444 4.08682 3.96191 0
M  V30 4759 N 440.646 2.62857 5.17577 0
M  V30 4760 H 443.411 2.78445 1.10853 0
M  V30 4761 H 440.972 1.55191 0.461218 0
M  V30 4762 H 442.964 2.00355 3.51625 0
M  V30 4763 H 441.534 1.12725 2.91568 0
M  V30 4764 H 440.754 3.42118 1.95829 0
M  V30 4765 H 442.042 4.16488 2.92258 0
M  V30 4766 H 441.44 2.02939 5.28046 0
M  V30 4767 H 439.997 2.69295 5.93568 0
M  V30 4768 N 443.43 -0.535701 1.48216 0
M  V30 4769 C 444.678 -1.28928 1.55634 0
M  V30 4770 C 444.999 -1.93645 0.229514 0
M  V30 4771 O 444.269 -1.81038 -0.74846 0
M  V30 4772 H 442.849 -0.47884 0.573342 0
M  V30 4773 H 445.511 -0.623853 1.84646 0
M  V30 4774 H 444.607 -2.07157 2.33436 0
M  V30 4775 N 444.908 -1.36708 -0.784132 0
M  V30 4776 C 446.136 -1.34398 -1.57305 0
M  V30 4777 C 446.551 0.0735577 -1.88657 0
M  V30 4778 O 445.908 1.03193 -1.50524 0
M  V30 4779 C 445.959 -2.17053 -2.89085 0
M  V30 4780 O 445.68 -3.53281 -2.59083 0
M  V30 4781 C 447.181 -2.22583 -3.83369 0
M  V30 4782 H 444.401 -0.460819 -0.487736 0
M  V30 4783 H 446.945 -1.79879 -0.972819 0
M  V30 4784 H 445.1 -1.75113 -3.45564 0
M  V30 4785 H 445.514 -3.9647 -3.43383 0
M  V30 4786 H 446.988 -2.84763 -4.72878 0
M  V30 4787 H 447.465 -1.23075 -4.21603 0
M  V30 4788 H 448.071 -2.64781 -3.32823 0
M  V30 4789 N 446.386 1.0089 -1.21074 0
M  V30 4790 C 447.663 1.71834 -0.934469 0
M  V30 4791 C 448.043 2.0368 0.554753 0
M  V30 4792 O 447.391 1.70742 1.51854 0
M  V30 4793 C 447.601 2.98061 -1.8155 0
M  V30 4794 C 448.949 3.7117 -2.06199 0
M  V30 4795 O 449.973 3.08034 -1.78867 0
M  V30 4796 O 448.832 4.84721 -2.52404 0
M  V30 4797 H 445.926 0.749253 -0.35007 0
M  V30 4798 H 448.472 1.06668 -1.31985 0
M  V30 4799 H 447.244 2.70908 -2.82355 0
M  V30 4800 H 446.867 3.70968 -1.43068 0
M  V30 4801 N 447.864 1.01787 1.20321 0
M  V30 4802 C 448.827 0.593972 2.2137 0
M  V30 4803 C 449.827 -0.336553 1.57239 0
M  V30 4804 O 451.017 -0.125069 1.7375 0
M  V30 4805 C 448.149 -0.132433 3.40643 0
M  V30 4806 H 449.342 1.48791 2.60387 0
M  V30 4807 H 446.895 0.807803 1.33807 0
M  V30 4808 H 447.63 -1.04123 3.0713 0
M  V30 4809 H 447.415 0.53605 3.88418 0
M  V30 4810 H 448.905 -0.416314 4.1552 0
M  V30 4811 N 449.342 -1.36122 0.79427 0
M  V30 4812 C 450.305 -2.28309 0.201889 0
M  V30 4813 C 451.305 -1.49041 -0.603603 0
M  V30 4814 O 452.495 -1.68964 -0.423888 0
M  V30 4815 C 449.627 -3.3321 -0.719978 0
M  V30 4816 H 450.82 -2.82208 1.01481 0
M  V30 4817 H 448.373 -1.45768 0.564037 0
M  V30 4818 H 449.108 -2.84475 -1.55706 0
M  V30 4819 H 448.893 -3.91835 -0.144266 0
M  V30 4820 H 450.383 -4.02044 -1.12916 0
M  V30 4821 N 450.82 -0.546701 -1.47814 0
M  V30 4822 C 451.753 0.254472 -2.26777 0
M  V30 4823 C 452.731 0.929809 -1.33392 0
M  V30 4824 O 453.915 0.950889 -1.62759 0
M  V30 4825 C 451.042 1.36171 -3.10121 0
M  V30 4826 C 450.088 0.796038 -4.19005 0
M  V30 4827 S 450.921 -0.349191 -5.3436 0
M  V30 4828 C 452.077 0.760122 -6.21267 0
M  V30 4829 H 452.31 -0.415612 -2.94381 0
M  V30 4830 H 449.843 -0.332809 -1.5077 0
M  V30 4831 H 451.801 1.99588 -3.58713 0
M  V30 4832 H 450.462 2.00359 -2.41899 0
M  V30 4833 H 449.655 1.62719 -4.7701 0
M  V30 4834 H 449.257 0.238246 -3.7324 0
M  V30 4835 H 451.549 1.65479 -6.5698 0
M  V30 4836 H 452.492 0.217673 -7.07765 0
M  V30 4837 H 452.9 1.04806 -5.54685 0
M  V30 4838 N 452.299 1.55045 -0.282633 0
M  V30 4839 C 453.262 2.21515 0.588539 0
M  V30 4840 C 454.262 1.19535 1.07554 0
M  V30 4841 O 455.452 1.44391 0.974514 0
M  V30 4842 C 452.584 2.88704 1.8128 0
M  V30 4843 H 453.777 2.99899 0.00806397 0
M  V30 4844 H 451.33 1.56265 -0.0333067 0
M  V30 4845 H 452.065 2.14352 2.43359 0
M  V30 4846 H 451.85 3.63443 1.47144 0
M  V30 4847 H 453.34 3.39465 2.43214 0
M  V30 4848 N 453.777 0.010035 1.57597 0
M  V30 4849 C 454.707 -0.976857 2.12084 0
M  V30 4850 C 455.688 -1.35191 1.03235 0
M  V30 4851 O 456.873 -1.43389 1.3097 0
M  V30 4852 C 454.003 -2.26548 2.63236 0
M  V30 4853 C 452.957 -2.03175 3.76701 0
M  V30 4854 C 452.283 -3.38138 4.14206 0
M  V30 4855 C 453.583 -1.38625 5.03568 0
M  V30 4856 H 455.277 -0.523145 2.94794 0
M  V30 4857 H 452.823 -0.250195 1.4181 0
M  V30 4858 H 454.776 -2.95952 2.99984 0
M  V30 4859 H 453.5 -2.74051 1.77661 0
M  V30 4860 H 452.159 -1.36195 3.40362 0
M  V30 4861 H 451.807 -3.83363 3.25641 0
M  V30 4862 H 451.507 -3.23312 4.90656 0
M  V30 4863 H 453.031 -4.08841 4.53521 0
M  V30 4864 H 454.445 -1.98 5.38023 0
M  V30 4865 H 452.842 -1.34256 5.84889 0
M  V30 4866 H 453.912 -0.356722 4.83586 0
M  V30 4867 N 455.255 -1.55392 -0.262866 0
M  V30 4868 C 456.218 -1.88181 -1.30846 0
M  V30 4869 C 457.218 -0.757079 -1.41862 0
M  V30 4870 O 458.408 -1.02519 -1.40838 0
M  V30 4871 C 455.54 -2.09609 -2.68844 0
M  V30 4872 H 456.733 -2.81659 -1.02997 0
M  V30 4873 H 454.286 -1.48039 -0.501414 0
M  V30 4874 H 455.021 -1.18547 -3.01856 0
M  V30 4875 H 454.806 -2.91508 -2.62231 0
M  V30 4876 H 456.296 -2.36215 -3.44372 0
M  V30 4877 N 456.733 0.527833 -1.48498 0
M  V30 4878 C 457.666 1.64892 -1.57753 0
M  V30 4879 C 458.644 1.5687 -0.427867 0
M  V30 4880 O 459.828 1.77311 -0.639764 0
M  V30 4881 C 456.955 3.03301 -1.50752 0
M  V30 4882 C 456.001 3.29675 -2.70586 0
M  V30 4883 S 456.834 3.15712 -4.32535 0
M  V30 4884 C 457.99 4.56564 -4.28136 0
M  V30 4885 H 458.223 1.56792 -2.52594 0
M  V30 4886 H 455.756 0.710959 -1.37057 0
M  V30 4887 H 457.714 3.83123 -1.474 0
M  V30 4888 H 456.375 3.08839 -0.572454 0
M  V30 4889 H 455.568 4.3065 -2.61833 0
M  V30 4890 H 455.17 2.57526 -2.71212 0
M  V30 4891 H 457.462 5.48126 -3.98201 0
M  V30 4892 H 458.405 4.70371 -5.29298 0
M  V30 4893 H 458.813 4.35987 -3.58574 0
M  V30 4894 N 458.211 1.37122 0.776871 0
M  V30 4895 C 459.459 1.31787 1.53221 0
M  V30 4896 C 459.78 -0.0987589 1.9475 0
M  V30 4897 O 459.05 -1.0417 1.65908 0
M  V30 4898 H 457.63 0.484839 0.568278 0
M  V30 4899 H 460.292 1.71556 0.924917 0
M  V30 4900 H 459.388 1.95355 2.43398 0
M  V30 4901 N 459.689 -1.00246 1.21608 0
M  V30 4902 C 460.639 -2.07492 0.945051 0
M  V30 4903 C 461.623 -1.60585 -0.100675 0
M  V30 4904 O 462.815 -1.76667 0.10859 0
M  V30 4905 C 459.944 -3.39425 0.514342 0
M  V30 4906 C 459.03 -3.92993 1.59428 0
M  V30 4907 N 459.421 -4.19898 2.81991 0
M  V30 4908 C 457.719 -4.21297 1.46374 0
M  V30 4909 C 458.42 -4.63297 3.51754 0
M  V30 4910 N 457.396 -4.66421 2.79199 0
M  V30 4911 H 461.198 -2.26222 1.87619 0
M  V30 4912 H 458.712 -1.18339 1.11219 0
M  V30 4913 H 460.709 -4.15808 0.301527 0
M  V30 4914 H 459.369 -3.22101 -0.410008 0
M  V30 4915 H 460.38 -4.08377 3.1851 0
M  V30 4916 H 457.057 -4.13095 0.604863 0
M  V30 4917 H 458.447 -4.92816 4.56708 0
M  V30 4918 N 461.167 -1.02423 -1.1978 0
M  V30 4919 C 462.413 -0.719051 -1.89625 0
M  V30 4920 C 462.746 0.750083 -1.7913 0
M  V30 4921 O 462.021 1.54574 -1.18056 0
M  V30 4922 C 462.304 -1.16499 -3.40735 0
M  V30 4923 C 462.157 -2.695 -3.60125 0
M  V30 4924 C 463.476 -0.742166 -4.33797 0
M  V30 4925 H 460.595 -0.26269 -0.688595 0
M  V30 4926 H 463.237 -1.27333 -1.41018 0
M  V30 4927 H 461.387 -0.69341 -3.82262 0
M  V30 4928 H 463.059 -3.24569 -3.278 0
M  V30 4929 H 461.302 -3.10113 -3.03336 0
M  V30 4930 H 461.973 -2.95757 -4.66081 0
M  V30 4931 H 464.449 -1.1477 -3.99959 0
M  V30 4932 H 463.325 -1.08213 -5.38127 0
M  V30 4933 H 463.586 0.355747 -4.40666 0
M  V30 4934 N 462.645 1.35699 -0.801477 0
M  V30 4935 C 463.578 2.2768 -0.153922 0
M  V30 4936 C 464.556 1.47832 0.67709 0
M  V30 4937 O 465.74 1.77104 0.645474 0
M  V30 4938 C 462.867 3.2943 0.786986 0
M  V30 4939 C 461.913 4.26485 0.0362447 0
M  V30 4940 S 462.746 5.19573 -1.2963 0
M  V30 4941 C 463.902 6.24866 -0.359705 0
M  V30 4942 H 464.135 2.82254 -0.9338 0
M  V30 4943 H 461.668 1.42421 -0.596283 0
M  V30 4944 H 463.626 3.8855 1.32436 0
M  V30 4945 H 462.287 2.73745 1.54021 0
M  V30 4946 H 461.48 4.98378 0.750668 0
M  V30 4947 H 461.082 3.71508 -0.431017 0
M  V30 4948 H 463.374 6.75957 0.456954 0
M  V30 4949 H 464.317 7.00307 -1.04768 0
M  V30 4950 H 464.725 5.64484 0.0423274 0
M  V30 4951 N 464.123 0.554532 1.47522 0
M  V30 4952 C 465.053 -0.182974 2.32782 0
M  V30 4953 C 466.034 -0.911377 1.43624 0
M  V30 4954 O 467.219 -0.892366 1.72483 0
M  V30 4955 C 464.349 -1.21513 3.25349 0
M  V30 4956 C 463.303 -0.603355 4.23726 0
M  V30 4957 C 462.629 -1.73995 5.05598 0
M  V30 4958 C 463.929 0.441121 5.20434 0
M  V30 4959 H 465.623 0.52882 2.94693 0
M  V30 4960 H 463.169 0.255759 1.41711 0
M  V30 4961 H 465.122 -1.73922 3.83835 0
M  V30 4962 H 463.846 -1.95683 2.61487 0
M  V30 4963 H 462.505 -0.10059 3.66462 0
M  V30 4964 H 462.153 -2.47063 4.38143 0
M  V30 4965 H 461.853 -1.3364 5.72201 0
M  V30 4966 H 463.377 -2.26735 5.66942 0
M  V30 4967 H 464.791 0.00319931 5.733 0
M  V30 4968 H 463.188 0.763402 5.95224 0
M  V30 4969 H 464.258 1.33799 4.66075 0
M  V30 4970 N 465.601 -1.54893 0.290851 0
M  V30 4971 C 467.017 -1.59476 -0.0628432 0
M  V30 4972 C 467.217 -1.30795 -1.5328 0
M  V30 4973 O 466.273 -1.07644 -2.28406 0
M  V30 4974 C 467.586 -2.98928 0.325962 0
M  V30 4975 C 469.134 -3.11799 0.273882 0
M  V30 4976 C 469.609 -4.53544 0.637359 0
M  V30 4977 N 471.1 -4.59433 0.589507 0
M  V30 4978 C 471.835 -5.67164 0.84335 0
M  V30 4979 N 471.331 -6.82975 1.16263 0
M  V30 4980 N 473.124 -5.56786 0.771091 0
M  V30 4981 H 465.275 -1.71798 1.24896 0
M  V30 4982 H 467.538 -0.801879 0.505663 0
M  V30 4983 H 467.244 -3.24805 1.34887 0
M  V30 4984 H 467.118 -3.75793 -0.325441 0
M  V30 4985 H 469.505 -2.85677 -0.739765 0
M  V30 4986 H 469.586 -2.37112 0.959766 0
M  V30 4987 H 469.23 -4.80394 1.64877 0
M  V30 4988 H 469.16 -5.26553 -0.0704866 0
M  V30 4989 H 471.651 -3.76245 0.353252 0
M  V30 4990 H 471.964 -7.61048 1.34257 0
M  V30 4991 H 470.309 -6.84552 1.20057 0
M  V30 4992 H 473.5 -4.65187 0.521383 0
M  V30 4993 H 473.673 -6.40664 0.972295 0
M  V30 4994 N 467.08 -0.0183926 -1.57589 0
M  V30 4995 C 467.99 0.982943 -2.13015 0
M  V30 4996 C 469.006 1.36443 -1.07979 0
M  V30 4997 O 470.182 1.44802 -1.3998 0
M  V30 4998 C 467.247 2.25024 -2.63752 0
M  V30 4999 C 466.308 1.93018 -3.83461 0
M  V30 5000 C 465.541 3.13706 -4.31769 0
M  V30 5001 O 465.764 4.2601 -3.79305 0
M  V30 5002 O 464.698 2.96629 -5.23732 0
M  V30 5003 H 468.524 0.541709 -2.9883 0
M  V30 5004 H 466.109 0.201565 -1.48034 0
M  V30 5005 H 467.991 2.99441 -2.96502 0
M  V30 5006 H 466.666 2.68349 -1.81026 0
M  V30 5007 H 465.573 1.16019 -3.55655 0
M  V30 5008 H 466.906 1.54516 -4.67317 0
M  V30 5009 N 468.558 1.5553 0.254621 0
M  V30 5010 C 469.805 1.77 0.983736 0
M  V30 5011 C 470.133 0.58133 1.85609 0
M  V30 5012 O 469.388 -0.435621 1.9079 0
M  V30 5013 C 469.687 3.03891 1.88109 0
M  V30 5014 C 469.353 4.35597 1.16472 0
M  V30 5015 C 468.015 4.7139 0.966714 0
M  V30 5016 C 470.367 5.1705 0.656387 0
M  V30 5017 C 467.695 5.86176 0.247942 0
M  V30 5018 C 470.047 6.32581 -0.0488807 0
M  V30 5019 C 468.711 6.67 -0.258438 0
M  V30 5020 H 467.981 0.647688 0.359974 0
M  V30 5021 H 470.628 1.89802 0.254463 0
M  V30 5022 H 468.933 2.86068 2.67717 0
M  V30 5023 H 470.63 3.17701 2.44677 0
M  V30 5024 H 467.22 4.07475 1.32899 0
M  V30 5025 H 471.404 4.8986 0.796933 0
M  V30 5026 H 466.66 6.11354 0.075035 0
M  V30 5027 H 470.834 6.94942 -0.450444 0
M  V30 5028 H 468.461 7.55793 -0.817358 0
M  V30 5029 N 470.036 -0.519951 1.48776 0
M  V30 5030 C 470.986 -1.61995 1.60442 0
M  V30 5031 C 471.97 -1.54155 0.460991 0
M  V30 5032 O 473.162 -1.62006 0.712965 0
M  V30 5033 C 470.291 -3.00683 1.65664 0
M  V30 5034 C 469.377 -3.1359 2.8552 0
M  V30 5035 N 469.768 -2.96441 4.09825 0
M  V30 5036 C 468.066 -3.44662 2.83062 0
M  V30 5037 C 468.767 -3.1303 4.90293 0
M  V30 5038 N 467.743 -3.41058 4.23297 0
M  V30 5039 H 471.545 -1.47362 2.54287 0
M  V30 5040 H 469.059 -0.725649 1.45286 0
M  V30 5041 H 471.056 -3.79712 1.72117 0
M  V30 5042 H 469.716 -3.16401 0.729425 0
M  V30 5043 H 470.727 -2.72999 4.40104 0
M  V30 5044 H 467.404 -3.66675 1.9964 0
M  V30 5045 H 468.794 -3.04424 5.98979 0
M  V30 5046 N 471.514 -1.37532 -0.769588 0
M  V30 5047 C 472.444 -1.36172 -1.89682 0
M  V30 5048 C 473.425 -0.23001 -1.68538 0
M  V30 5049 O 474.61 -0.43069 -1.89364 0
M  V30 5050 C 471.74 -1.1701 -3.26995 0
M  V30 5051 C 470.694 -2.27216 -3.62708 0
M  V30 5052 C 470.02 -1.93174 -4.98586 0
M  V30 5053 C 471.32 -3.6941 -3.69234 0
M  V30 5054 H 473.014 -2.30499 -1.91078 0
M  V30 5055 H 470.56 -1.10953 -0.917902 0
M  V30 5056 H 472.513 -1.14688 -4.05493 0
M  V30 5057 H 471.237 -0.191395 -3.26039 0
M  V30 5058 H 469.896 -2.28697 -2.86519 0
M  V30 5059 H 469.544 -0.938281 -4.94171 0
M  V30 5060 H 469.244 -2.66973 -5.23449 0
M  V30 5061 H 470.768 -1.92443 -5.79481 0
M  V30 5062 H 472.182 -3.70047 -4.37879 0
M  V30 5063 H 470.579 -4.4228 -4.05597 0
M  V30 5064 H 471.649 -4.0288 -2.69844 0
M  V30 5065 N 472.992 0.995999 -1.22138 0
M  V30 5066 C 474.269 1.70834 -0.952642 0
M  V30 5067 C 474.649 2.04257 0.533119 0
M  V30 5068 O 473.997 1.72343 1.50034 0
M  V30 5069 C 474.207 2.96119 -1.84701 0
M  V30 5070 C 475.555 3.68962 -2.10124 0
M  V30 5071 O 476.579 3.0612 -1.82124 0
M  V30 5072 O 475.438 4.82017 -2.57531 0
M  V30 5073 H 472.532 0.745498 -0.357997 0
M  V30 5074 H 475.078 1.05262 -1.33109 0
M  V30 5075 H 473.85 2.67898 -2.85213 0
M  V30 5076 H 473.473 3.6943 -1.46995 0
M  V30 5077 N 474.47 1.03057 1.19235 0
M  V30 5078 C 475.418 0.606391 2.24557 0
M  V30 5079 C 476.412 -0.361826 1.65491 0
M  V30 5080 O 477.618 -0.23022 1.78522 0
M  V30 5081 H 473.993 0.177838 0.730669 0
M  V30 5082 H 475.964 1.50529 2.5765 0
M  V30 5083 C 474.713 -0.0252127 3.47691 0
M  V30 5084 H 474.036 0.710838 3.9343 0
M  V30 5085 H 475.476 -0.284931 4.23042 0
M  V30 5086 C 473.935 -1.27229 3.11953 0
M  V30 5087 O 474.465 -2.36416 3.24762 0
M  V30 5088 N 472.671 -1.16169 2.6637 0
M  V30 5089 H 472.218 -0.273189 2.56147 0
M  V30 5090 H 472.176 -1.99703 2.42829 0
M  V30 5091 N 475.948 -1.35272 0.808662 0
M  V30 5092 C 477.359 -1.81179 0.450688 0
M  V30 5093 C 477.71 -1.67143 -1.02751 0
M  V30 5094 O 476.835 -1.20325 -1.79864 0
M  V30 5095 C 477.43 -3.28943 0.811275 0
M  V30 5096 C 475.989 -3.72985 0.505871 0
M  V30 5097 C 475.136 -2.57229 1.03578 0
M  V30 5098 H 478.087 -1.2322 1.00012 0
M  V30 5099 H 478.108 -3.80342 0.109588 0
M  V30 5100 H 477.62 -3.39127 1.88718 0
M  V30 5101 H 475.721 -3.68349 -0.561209 0
M  V30 5102 H 475.834 -4.67677 1.03995 0
M  V30 5103 H 474.198 -2.50548 0.458005 0
M  V30 5104 H 474.981 -2.7019 2.11784 0
M  V30 5105 N 477.426 -0.562348 -1.47226 0
M  V30 5106 C 478.651 -0.0432632 -2.07355 0
M  V30 5107 C 479.076 1.24332 -1.41149 0
M  V30 5108 O 478.434 1.74603 -0.488226 0
M  V30 5109 C 478.482 0.130288 -3.60365 0
M  V30 5110 O 477.586 1.19166 -3.94808 0
M  V30 5111 H 476.927 -0.0536334 -0.66183 0
M  V30 5112 H 479.457 -0.779495 -1.89169 0
M  V30 5113 H 479.467 0.342881 -4.06557 0
M  V30 5114 H 478.142 -0.809389 -4.07948 0
M  V30 5115 H 476.719 0.959153 -3.60354 0
M  V30 5116 N 478.904 1.54736 -0.299062 0
M  V30 5117 C 479.836 2.20891 0.61153 0
M  V30 5118 C 480.849 1.20104 1.09904 0
M  V30 5119 O 482.038 1.46707 1.01683 0
M  V30 5120 C 479.138 2.84018 1.84897 0
M  V30 5121 C 478.311 4.10719 1.50428 0
M  V30 5122 C 477.37 4.57667 2.59667 0
M  V30 5123 O 476.396 5.2291 2.24842 0
M  V30 5124 N 477.598 4.29821 3.90172 0
M  V30 5125 H 480.363 2.99666 0.0452001 0
M  V30 5126 H 477.924 1.61446 -0.121178 0
M  V30 5127 H 479.916 3.1236 2.5732 0
M  V30 5128 H 478.486 2.09095 2.32375 0
M  V30 5129 H 477.706 3.89408 0.612781 0
M  V30 5130 H 478.994 4.93223 1.24934 0
M  V30 5131 H 478.392 3.77549 4.21276 0
M  V30 5132 H 476.949 4.62877 4.58899 0
M  V30 5133 N 480.382 0.0267497 1.57577 0
M  V30 5134 C 481.612 -0.6617 1.95717 0
M  V30 5135 C 482.02 -1.66331 0.901706 0
M  V30 5136 O 481.363 -1.83273 -0.125241 0
M  V30 5137 C 481.425 -1.42649 3.29987 0
M  V30 5138 C 481.089 -0.583482 4.5326 0
M  V30 5139 C 482.086 0.140221 5.19711 0
M  V30 5140 C 479.771 -0.521581 4.99585 0
M  V30 5141 C 481.765 0.914523 6.30805 0
M  V30 5142 C 479.452 0.256428 6.10562 0
M  V30 5143 C 480.45 0.973189 6.76031 0
M  V30 5144 O 480.138 1.73845 7.84878 0
M  V30 5145 H 479.87 -0.187483 0.649481 0
M  V30 5146 H 482.424 0.0820847 2.05236 0
M  V30 5147 H 480.654 -2.21536 3.16952 0
M  V30 5148 H 482.343 -2.00282 3.53047 0
M  V30 5149 H 483.109 0.101716 4.84893 0
M  V30 5150 H 478.988 -1.06904 4.48433 0
M  V30 5151 H 482.532 1.4745 6.81839 0
M  V30 5152 H 478.429 0.296657 6.44818 0
M  V30 5153 H 479.197 1.65797 8.01532 0
M  V30 5154 N 481.861 -1.55662 -0.24637 0
M  V30 5155 C 483.108 -1.77519 -0.974335 0
M  V30 5156 C 483.436 -0.591165 -1.85298 0
M  V30 5157 O 482.691 0.425497 -1.91018 0
M  V30 5158 C 482.99 -3.04885 -1.86494 0
M  V30 5159 C 482.656 -4.36209 -1.14161 0
M  V30 5160 C 481.318 -4.71896 -0.941701 0
M  V30 5161 C 483.67 -5.17391 -0.628957 0
M  V30 5162 C 480.998 -5.86299 -0.216852 0
M  V30 5163 C 483.35 -6.32546 0.0824273 0
M  V30 5164 C 482.014 -6.66853 0.293807 0
M  V30 5165 H 481.284 -0.649588 -0.356535 0
M  V30 5166 H 483.931 -1.89934 -0.244394 0
M  V30 5167 H 482.236 -2.87484 -2.66196 0
M  V30 5168 H 483.933 -3.18994 -2.42989 0
M  V30 5169 H 480.523 -4.08174 -1.30736 0
M  V30 5170 H 484.707 -4.90276 -0.770943 0
M  V30 5171 H 479.963 -6.11385 -0.0426124 0
M  V30 5172 H 484.137 -6.94693 0.487292 0
M  V30 5173 H 481.764 -7.55349 0.857428 0
M  V30 5174 N 483.339 0.512053 -1.4905 0
M  V30 5175 C 484.567 1.29116 -1.61669 0
M  V30 5176 C 484.982 1.86655 -0.283787 0
M  V30 5177 O 484.339 1.67293 0.729331 0
M  V30 5178 C 484.39 2.4293 -2.67707 0
M  V30 5179 O 484.111 1.87758 -3.95826 0
M  V30 5180 C 485.612 3.34476 -2.90931 0
M  V30 5181 H 482.832 0.392009 -0.544583 0
M  V30 5182 H 485.376 0.615881 -1.95006 0
M  V30 5183 H 483.531 3.06308 -2.37179 0
M  V30 5184 H 483.945 2.62393 -4.54148 0
M  V30 5185 H 485.419 4.10642 -3.68886 0
M  V30 5186 H 485.896 3.90801 -2.00427 0
M  V30 5187 H 486.502 2.76874 -3.22832 0
M  V30 5188 N 484.817 1.37938 0.762283 0
M  V30 5189 C 486.094 1.24196 1.51112 0
M  V30 5190 C 486.474 -0.160409 2.1049 0
M  V30 5191 O 485.822 -1.16904 1.96331 0
M  V30 5192 C 486.032 2.34537 2.58445 0
M  V30 5193 C 487.38 2.7254 3.25588 0
M  V30 5194 O 488.404 2.33783 2.68745 0
M  V30 5195 O 487.263 3.39343 4.28379 0
M  V30 5196 H 484.357 0.485175 0.669727 0
M  V30 5197 H 486.903 1.49743 0.798438 0
M  V30 5198 H 485.675 3.28406 2.12756 0
M  V30 5199 H 485.298 2.10505 3.37303 0
M  V30 5200 N 486.295 -0.989507 1.22664 0
M  V30 5201 C 487.525 -1.7624 1.0781 0
M  V30 5202 C 487.933 -1.85466 -0.374036 0
M  V30 5203 O 487.276 -1.32645 -1.27087 0
M  V30 5204 C 487.338 -3.21007 1.61849 0
M  V30 5205 C 487.002 -3.35316 3.10503 0
M  V30 5206 C 487.999 -3.22362 4.07896 0
M  V30 5207 C 485.684 -3.60258 3.50028 0
M  V30 5208 C 487.678 -3.34139 5.42798 0
M  V30 5209 C 485.365 -3.71676 4.85078 0
M  V30 5210 C 486.363 -3.58625 5.81272 0
M  V30 5211 O 486.051 -3.69655 7.1387 0
M  V30 5212 H 485.783 -0.560209 0.378341 0
M  V30 5213 H 488.337 -1.25252 1.62792 0
M  V30 5214 H 486.567 -3.73202 1.01279 0
M  V30 5215 H 488.256 -3.80024 1.42606 0
M  V30 5216 H 489.022 -3.03 3.78703 0
M  V30 5217 H 484.901 -3.69492 2.75675 0
M  V30 5218 H 488.445 -3.23869 6.17863 0
M  V30 5219 H 484.342 -3.90545 5.1395 0
M  V30 5220 H 485.11 -3.86507 7.21495 0
M  V30 5221 N 487.773 -1.03688 -1.18687 0
M  V30 5222 C 489.019 -0.739123 -1.88851 0
M  V30 5223 C 489.352 0.731042 -1.79915 0
M  V30 5224 O 488.627 1.53313 -1.19688 0
M  V30 5225 C 488.91 -1.20106 -3.3948 0
M  V30 5226 C 488.763 -2.73304 -3.57246 0
M  V30 5227 C 490.082 -0.788134 -4.32986 0
M  V30 5228 H 487.201 -0.269978 -0.68577 0
M  V30 5229 H 489.843 -1.28822 -1.3966 0
M  V30 5230 H 487.993 -0.733915 -3.81505 0
M  V30 5231 H 489.665 -3.28027 -3.24339 0
M  V30 5232 H 487.908 -3.13313 -3.00029 0
M  V30 5233 H 488.579 -3.00684 -4.62918 0
M  V30 5234 H 491.055 -1.19005 -3.98719 0
M  V30 5235 H 489.931 -1.13915 -5.36949 0
M  V30 5236 H 490.192 0.308988 -4.41019 0
M  V30 5237 N 489.251 1.34841 -0.815825 0
M  V30 5238 C 490.667 1.51543 -0.500697 0
M  V30 5239 C 490.867 1.76261 0.976444 0
M  V30 5240 O 489.923 1.8094 1.76117 0
M  V30 5241 C 491.236 2.68487 -1.35407 0
M  V30 5242 C 492.784 2.82368 -1.35046 0
M  V30 5243 C 493.259 4.02347 -2.18816 0
M  V30 5244 N 494.75 4.09542 -2.16402 0
M  V30 5245 C 495.485 5.01517 -2.77971 0
M  V30 5246 N 494.981 5.98763 -3.48503 0
M  V30 5247 N 496.774 4.94334 -2.67563 0
M  V30 5248 H 488.925 1.17055 -1.77234 0
M  V30 5249 H 491.188 0.573481 -0.754866 0
M  V30 5250 H 490.894 2.56829 -2.40274 0
M  V30 5251 H 490.768 3.63321 -1.01377 0
M  V30 5252 H 493.155 2.93471 -0.309604 0
M  V30 5253 H 493.236 1.88363 -1.73069 0
M  V30 5254 H 492.88 3.92004 -3.22948 0
M  V30 5255 H 492.81 4.95551 -1.78148 0
M  V30 5256 H 495.301 3.39932 -1.65091 0
M  V30 5257 H 495.614 6.6556 -3.92747 0
M  V30 5258 H 493.959 5.98909 -3.52609 0
M  V30 5259 H 497.15 4.1732 -2.12041 0
M  V30 5260 H 497.323 5.6582 -3.15834 0
M  V30 5261 N 490.729 0.570148 1.46925 0
M  V30 5262 C 492.145 0.23087 1.57921 0
M  V30 5263 C 492.345 -1.26676 1.56702 0
M  V30 5264 O 491.401 -2.04774 1.47729 0
M  V30 5265 C 492.714 0.868973 2.8787 0
M  V30 5266 C 494.262 0.841397 3.01479 0
M  V30 5267 C 494.737 1.45881 4.34146 0
M  V30 5268 N 496.228 1.42258 4.40814 0
M  V30 5269 C 496.963 1.8698 5.42057 0
M  V30 5270 N 496.459 2.39618 6.50042 0
M  V30 5271 N 498.252 1.77972 5.33181 0
M  V30 5272 H 490.403 1.54301 1.45962 0
M  V30 5273 H 492.666 0.644224 0.69547 0
M  V30 5274 H 492.372 1.922 2.94537 0
M  V30 5275 H 492.246 0.369682 3.75384 0
M  V30 5276 H 494.633 -0.202973 2.94401 0
M  V30 5277 H 494.714 1.37858 2.15474 0
M  V30 5278 H 494.358 2.50231 4.4198 0
M  V30 5279 H 494.288 0.896958 5.18905 0
M  V30 5280 H 496.779 1.03768 3.63374 0
M  V30 5281 H 497.092 2.71633 7.23488 0
M  V30 5282 H 495.437 2.43636 6.50897 0
M  V30 5283 H 498.628 1.36617 4.4772 0
M  V30 5284 H 498.801 2.13143 6.11943 0
M  V30 5285 N 492.207 -1.54576 0.307264 0
M  V30 5286 C 493.437 -2.04378 -0.302158 0
M  V30 5287 C 493.845 -1.18381 -1.47589 0
M  V30 5288 O 493.188 -0.20352 -1.82569 0
M  V30 5289 C 493.25 -3.50133 -0.815305 0
M  V30 5290 C 492.914 -4.56401 0.233977 0
M  V30 5291 C 493.911 -5.08884 1.06456 0
M  V30 5292 C 491.596 -5.0088 0.377478 0
M  V30 5293 C 493.59 -6.04394 2.02452 0
M  V30 5294 C 491.277 -5.96208 1.34088 0
M  V30 5295 C 492.275 -6.47849 2.16288 0
M  V30 5296 O 491.963 -7.41308 3.10994 0
M  V30 5297 H 491.695 -0.672502 -0.0686839 0
M  V30 5298 H 494.249 -2.00484 0.446682 0
M  V30 5299 H 492.479 -3.51371 -1.61478 0
M  V30 5300 H 494.168 -3.83098 -1.34129 0
M  V30 5301 H 494.934 -4.75311 0.964596 0
M  V30 5302 H 490.813 -4.60309 -0.252405 0
M  V30 5303 H 494.357 -6.44626 2.66652 0
M  V30 5304 H 490.254 -6.29198 1.44154 0
M  V30 5305 H 491.022 -7.5913 3.06045 0
M  V30 5306 N 493.685 -0.035106 -1.57561 0
M  V30 5307 C 494.913 0.652258 -1.9635 0
M  V30 5308 C 495.328 1.65317 -0.911897 0
M  V30 5309 O 494.685 1.82194 0.105657 0
M  V30 5310 C 494.736 1.35337 -3.35211 0
M  V30 5311 O 494.457 0.392548 -4.36338 0
M  V30 5312 C 495.958 2.13199 -3.88666 0
M  V30 5313 H 493.178 0.179444 -0.646561 0
M  V30 5314 H 495.722 -0.0966459 -2.04271 0
M  V30 5315 H 493.877 2.05362 -3.28489 0
M  V30 5316 H 494.291 0.891097 -5.16875 0
M  V30 5317 H 495.765 2.577 -4.88154 0
M  V30 5318 H 496.242 2.97353 -3.23231 0
M  V30 5319 H 496.848 1.48118 -3.98674 0
M  V30 5320 N 495.163 1.55791 0.238111 0
M  V30 5321 C 496.44 1.68798 0.98826 0
M  V30 5322 C 496.82 0.577562 2.03045 0
M  V30 5323 O 496.168 -0.41778 2.24648 0
M  V30 5324 C 496.378 3.09454 1.61367 0
M  V30 5325 C 497.726 3.68335 2.11221 0
M  V30 5326 O 498.75 3.1231 1.71292 0
M  V30 5327 O 497.609 4.6657 2.84561 0
M  V30 5328 H 494.703 0.686881 0.460568 0
M  V30 5329 H 497.249 1.68118 0.231202 0
M  V30 5330 H 496.021 3.81726 0.860295 0
M  V30 5331 H 495.644 3.14182 2.4367 0
M  V30 5332 N 496.642 -0.504142 1.49319 0
M  V30 5333 C 497.575 -1.62361 1.60356 0
M  V30 5334 C 498.553 -1.56169 0.45277 0
M  V30 5335 O 499.737 -1.76271 0.667892 0
M  V30 5336 C 496.864 -3.00864 1.55559 0
M  V30 5337 C 495.91 -3.25328 2.75797 0
M  V30 5338 S 496.743 -3.08791 4.37503 0
M  V30 5339 C 497.899 -4.49695 4.35345 0
M  V30 5340 H 498.132 -1.52753 2.55056 0
M  V30 5341 H 495.665 -0.689065 1.38171 0
M  V30 5342 H 497.623 -3.8073 1.53477 0
M  V30 5343 H 496.284 -3.0789 0.621515 0
M  V30 5344 H 495.477 -4.2643 2.68651 0
M  V30 5345 H 495.079 -2.53179 2.75275 0
M  V30 5346 H 497.371 -5.41721 4.06871 0
M  V30 5347 H 498.314 -4.61891 5.36714 0
M  V30 5348 H 498.722 -4.30227 3.65465 0
M  V30 5349 N 498.12 -1.38341 -0.754957 0
M  V30 5350 C 499.531 -1.30803 -1.3322 0
M  V30 5351 C 499.882 0.0368 -1.96165 0
M  V30 5352 O 499.007 0.938844 -1.94974 0
M  V30 5353 C 499.602 -2.3688 -2.42225 0
M  V30 5354 C 498.161 -2.32925 -2.95674 0
M  V30 5355 C 497.308 -2.19819 -1.69042 0
M  V30 5356 H 500.259 -1.48719 -0.553937 0
M  V30 5357 H 500.28 -2.02517 -3.22129 0
M  V30 5358 H 499.792 -3.34747 -1.96383 0
M  V30 5359 H 497.893 -1.38635 -3.45848 0
M  V30 5360 H 498.006 -3.27008 -3.50146 0
M  V30 5361 H 496.37 -1.66648 -1.92615 0
M  V30 5362 H 497.153 -3.19625 -1.25279 0
M  V30 5363 N 499.598 0.982988 -1.23187 0
M  V30 5364 C 500.531 2.07302 -0.953993 0
M  V30 5365 C 501.509 1.62249 0.106753 0
M  V30 5366 O 502.693 1.88481 -0.0269525 0
M  V30 5367 C 499.82 3.35873 -0.436716 0
M  V30 5368 C 498.866 3.99862 -1.48367 0
M  V30 5369 S 499.699 4.39443 -3.06023 0
M  V30 5370 C 500.855 5.7117 -2.55959 0
M  V30 5371 H 501.088 2.30554 -1.87702 0
M  V30 5372 H 498.621 1.11883 -1.06403 0
M  V30 5373 H 500.579 4.10244 -0.144872 0
M  V30 5374 H 499.24 3.10634 0.465351 0
M  V30 5375 H 498.433 4.92471 -1.07182 0
M  V30 5376 H 498.035 3.31857 -1.72473 0
M  V30 5377 H 500.327 6.47977 -1.97818 0
M  V30 5378 H 501.27 6.17194 -3.47098 0
M  V30 5379 H 501.678 5.29046 -1.96902 0
M  V30 5380 N 501.076 1.04316 1.18135 0
M  V30 5381 C 502.006 0.657299 2.24058 0
M  V30 5382 C 502.987 -0.340678 1.66654 0
M  V30 5383 O 504.172 -0.220223 1.92947 0
M  V30 5384 C 501.302 0.0220715 3.47293 0
M  V30 5385 C 500.256 0.943857 4.17463 0
M  V30 5386 C 499.582 0.172973 5.3442 0
M  V30 5387 C 500.882 2.26409 4.70677 0
M  V30 5388 H 502.576 1.5428 2.56589 0
M  V30 5389 H 500.122 0.743263 1.23335 0
M  V30 5390 H 502.075 -0.259607 4.206 0
M  V30 5391 H 500.799 -0.898323 3.14003 0
M  V30 5392 H 499.458 1.20996 3.46057 0
M  V30 5393 H 499.106 -0.749907 4.97379 0
M  V30 5394 H 498.806 0.787098 5.82304 0
M  V30 5395 H 500.33 -0.101628 6.10515 0
M  V30 5396 H 501.744 2.04294 5.35665 0
M  V30 5397 H 500.141 2.8314 5.29105 0
M  V30 5398 H 501.211 2.90883 3.87962 0
M  V30 5399 N 502.554 -1.34406 0.822964 0
M  V30 5400 C 503.8 -1.98578 0.411666 0
M  V30 5401 C 504.133 -1.65093 -1.02264 0
M  V30 5402 O 503.408 -0.92258 -1.71227 0
M  V30 5403 C 503.691 -3.54823 0.614235 0
M  V30 5404 C 503.544 -3.9805 2.09466 0
M  V30 5405 C 504.863 -4.40071 0.050221 0
M  V30 5406 H 501.982 -0.721355 0.151047 0
M  V30 5407 H 504.624 -1.59301 1.03554 0
M  V30 5408 H 502.774 -3.88411 0.0831774 0
M  V30 5409 H 504.446 -3.74795 2.68936 0
M  V30 5410 H 502.689 -3.4836 2.5851 0
M  V30 5411 H 503.36 -5.06819 2.18721 0
M  V30 5412 H 505.836 -4.13037 0.503953 0
M  V30 5413 H 504.712 -5.48452 0.221759 0
M  V30 5414 H 504.973 -4.29576 -1.04482 0
M  V30 5415 N 504.032 -0.577932 -1.46621 0
M  V30 5416 C 504.965 0.206312 -2.27265 0
M  V30 5417 C 505.943 0.901306 -1.35334 0
M  V30 5418 O 507.127 0.916151 -1.64739 0
M  V30 5419 C 504.254 1.29563 -3.1294 0
M  V30 5420 C 503.3 0.706981 -4.206 0
M  V30 5421 S 504.133 -0.462459 -5.33499 0
M  V30 5422 C 505.289 0.628171 -6.2274 0
M  V30 5423 H 505.522 -0.477961 -2.93433 0
M  V30 5424 H 503.055 -0.364715 -1.50031 0
M  V30 5425 H 505.013 1.91935 -3.62865 0
M  V30 5426 H 503.674 1.95183 -2.46095 0
M  V30 5427 H 502.867 1.52565 -4.80354 0
M  V30 5428 H 502.469 0.159022 -3.73662 0
M  V30 5429 H 504.761 1.51506 -6.60342 0
M  V30 5430 H 505.704 0.0674961 -7.08068 0
M  V30 5431 H 506.112 0.930167 -5.56784 0
M  V30 5432 N 505.51 1.54411 -0.315457 0
M  V30 5433 C 506.44 2.27002 0.547039 0
M  V30 5434 C 507.421 1.27492 1.12605 0
M  V30 5435 O 508.606 1.5629 1.15269 0
M  V30 5436 C 505.736 3.02171 1.71201 0
M  V30 5437 C 504.69 4.0895 1.26268 0
M  V30 5438 C 504.016 4.71915 2.51396 0
M  V30 5439 C 505.316 5.20891 0.383419 0
M  V30 5440 H 507.01 2.99343 -0.0584517 0
M  V30 5441 H 504.556 1.4397 -0.0295527 0
M  V30 5442 H 506.509 3.51681 2.32161 0
M  V30 5443 H 505.233 2.27433 2.34397 0
M  V30 5444 H 503.892 3.60312 0.676062 0
M  V30 5445 H 503.54 3.93801 3.12937 0
M  V30 5446 H 503.24 5.44039 2.22026 0
M  V30 5447 H 504.764 5.24195 3.13133 0
M  V30 5448 H 506.178 5.66206 0.899082 0
M  V30 5449 H 504.575 5.99821 0.182857 0
M  V30 5450 H 505.645 4.81324 -0.587821 0
M  V30 5451 N 506.988 0.0434614 1.5754 0
M  V30 5452 C 507.898 -0.94893 2.14552 0
M  V30 5453 C 508.914 -1.34707 1.10136 0
M  V30 5454 O 510.09 -1.42557 1.42266 0
M  V30 5455 C 507.155 -2.208 2.67298 0
M  V30 5456 C 506.216 -1.86893 3.86484 0
M  V30 5457 C 505.449 -3.06797 4.36705 0
M  V30 5458 O 505.672 -4.19921 3.86034 0
M  V30 5459 O 504.606 -2.8826 5.28384 0
M  V30 5460 H 508.432 -0.494099 2.99654 0
M  V30 5461 H 506.017 -0.177989 1.48336 0
M  V30 5462 H 507.899 -2.94686 3.01228 0
M  V30 5463 H 506.574 -2.65436 1.85272 0
M  V30 5464 H 505.481 -1.10347 3.57455 0
M  V30 5465 H 506.814 -1.47062 4.69716 0
M  V30 5466 N 508.466 -1.55915 -0.229846 0
M  V30 5467 C 509.376 -1.94891 -1.30593 0
M  V30 5468 C 510.392 -0.851604 -1.51736 0
M  V30 5469 O 511.568 -1.15447 -1.65027 0
M  V30 5470 C 508.633 -2.25052 -2.63728 0
M  V30 5471 C 507.694 -3.48306 -2.5096 0
M  V30 5472 C 506.927 -3.77019 -3.77747 0
M  V30 5473 O 507.15 -3.07534 -4.80395 0
M  V30 5474 O 506.084 -4.70523 -3.75356 0
M  V30 5475 H 509.91 -2.86581 -1.00525 0
M  V30 5476 H 507.495 -1.43017 -0.432025 0
M  V30 5477 H 509.377 -2.45682 -3.42372 0
M  V30 5478 H 508.052 -1.36538 -2.93495 0
M  V30 5479 H 506.959 -3.32964 -1.70546 0
M  V30 5480 H 508.292 -4.37177 -2.26136 0
M  V30 5481 N 509.944 0.496216 -1.49584 0
M  V30 5482 C 511.36 0.827814 -1.36453 0
M  V30 5483 C 511.56 1.97464 -0.401285 0
M  V30 5484 O 510.616 2.51958 0.165296 0
M  V30 5485 C 511.929 1.16352 -2.77277 0
M  V30 5486 C 513.477 1.27145 -2.86013 0
M  V30 5487 C 513.952 1.64042 -4.27615 0
M  V30 5488 N 515.443 1.71082 -4.30448 0
M  V30 5489 C 516.178 2.01085 -5.36984 0
M  V30 5490 N 515.674 2.2928 -6.5376 0
M  V30 5491 N 517.467 2.02376 -5.24405 0
M  V30 5492 H 509.618 -0.259947 -2.10803 0
M  V30 5493 H 511.881 -0.0537163 -0.946477 0
M  V30 5494 H 511.587 0.394153 -3.49484 0
M  V30 5495 H 511.461 2.10582 -3.12946 0
M  V30 5496 H 513.848 2.03152 -2.1404 0
M  V30 5497 H 513.929 0.309542 -2.5392 0
M  V30 5498 H 513.573 0.88583 -5.00115 0
M  V30 5499 H 513.503 2.6134 -4.57175 0
M  V30 5500 H 515.994 1.51434 -3.46232 0
M  V30 5501 H 516.307 2.51376 -7.30774 0
M  V30 5502 H 514.652 2.26726 -6.56978 0
M  V30 5503 H 517.843 1.79829 -4.32179 0
M  V30 5504 H 518.016 2.25425 -6.07526 0
M  V30 5505 N 511.423 1.38739 0.74761 0
M  V30 5506 C 512.7 1.25791 1.49786 0
M  V30 5507 C 513.08 -0.138075 2.10648 0
M  V30 5508 O 512.428 -1.14815 1.9756 0
M  V30 5509 C 512.638 2.37265 2.55942 0
M  V30 5510 C 513.986 2.75978 3.22679 0
M  V30 5511 O 515.01 2.36621 2.6625 0
M  V30 5512 O 513.869 3.43867 4.24756 0
M  V30 5513 H 510.963 0.492251 0.664543 0
M  V30 5514 H 513.509 1.50582 0.782511 0
M  V30 5515 H 512.281 3.30644 2.0926 0
M  V30 5516 H 511.904 2.14071 3.35051 0
M  V30 5517 N 512.901 -0.976442 1.23707 0
M  V30 5518 C 514.149 -1.71487 1.06942 0
M  V30 5519 C 514.47 -1.9098 -0.393897 0
M  V30 5520 O 513.74 -1.48128 -1.28198 0
M  V30 5521 H 512.32 -0.635425 0.392739 0
M  V30 5522 H 514.982 -1.17515 1.55487 0
M  V30 5523 H 514.078 -2.70286 1.56051 0
M  V30 5524 N 514.379 -1.04941 -1.1758 0
M  V30 5525 C 515.609 -0.777166 -1.91425 0
M  V30 5526 C 516.017 0.670647 -1.76915 0
M  V30 5527 O 515.36 1.46965 -1.10213 0
M  V30 5528 C 515.422 -1.07495 -3.43052 0
M  V30 5529 C 515.086 -2.51844 -3.81345 0
M  V30 5530 C 516.083 -3.50047 -3.844 0
M  V30 5531 C 513.768 -2.86787 -4.12382 0
M  V30 5532 C 515.762 -4.81239 -4.17957 0
M  V30 5533 C 513.449 -4.18182 -4.45608 0
M  V30 5534 C 514.447 -5.15219 -4.48373 0
M  V30 5535 O 514.135 -6.44258 -4.80819 0
M  V30 5536 H 513.867 -0.282209 -0.614275 0
M  V30 5537 H 516.421 -1.40258 -1.50056 0
M  V30 5538 H 514.651 -0.392437 -3.84704 0
M  V30 5539 H 516.34 -0.78912 -3.98155 0
M  V30 5540 H 517.106 -3.24391 -3.60548 0
M  V30 5541 H 512.985 -2.11922 -4.09402 0
M  V30 5542 H 516.529 -5.56974 -4.2003 0
M  V30 5543 H 512.426 -4.43602 -4.68922 0
M  V30 5544 H 513.194 -6.49041 -4.98686 0
M  V30 5545 N 515.857 1.33968 -0.830081 0
M  V30 5546 C 517.087 2.01987 -0.434142 0
M  V30 5547 C 517.495 1.62639 0.96671 0
M  V30 5548 O 516.838 0.831151 1.63822 0
M  V30 5549 C 516.9 3.5648 -0.465018 0
M  V30 5550 C 516.564 4.19176 -1.82045 0
M  V30 5551 C 517.561 4.39181 -2.78237 0
M  V30 5552 C 515.246 4.55792 -2.11089 0
M  V30 5553 C 517.24 4.94937 -4.01642 0
M  V30 5554 C 514.927 5.11258 -3.34752 0
M  V30 5555 C 515.925 5.30775 -4.29845 0
M  V30 5556 O 515.613 5.85064 -5.51322 0
M  V30 5557 H 515.345 0.653847 -0.171639 0
M  V30 5558 H 517.899 1.72066 -1.12171 0
M  V30 5559 H 516.129 3.8569 0.279284 0
M  V30 5560 H 517.818 4.05804 -0.0881334 0
M  V30 5561 H 518.584 4.11249 -2.57097 0
M  V30 5562 H 514.463 4.39901 -1.3787 0
M  V30 5563 H 518.007 5.10086 -4.75876 0
M  V30 5564 H 513.904 5.38619 -3.55753 0
M  V30 5565 H 514.672 6.03489 -5.5294 0
M  V30 5566 N 517.335 0.585699 1.46312 0
M  V30 5567 C 518.298 -0.135673 2.28798 0
M  V30 5568 C 519.298 -0.815988 1.38558 0
M  V30 5569 O 520.488 -0.667487 1.60904 0
M  V30 5570 C 517.62 -1.20163 3.1902 0
M  V30 5571 H 518.813 0.589257 2.94054 0
M  V30 5572 H 516.366 0.343794 1.52472 0
M  V30 5573 H 517.101 -1.95804 2.58517 0
M  V30 5574 H 516.886 -0.718282 3.85465 0
M  V30 5575 H 518.376 -1.70749 3.81096 0
M  V30 5576 N 518.813 -1.54241 0.323641 0
M  V30 5577 C 519.776 -2.22997 -0.529602 0
M  V30 5578 C 520.776 -1.22345 -1.04347 0
M  V30 5579 O 521.966 -1.46924 -0.935889 0
M  V30 5580 C 519.098 -2.93409 -1.73562 0
M  V30 5581 H 520.291 -2.99815 0.0714518 0
M  V30 5582 H 517.844 -1.56121 0.0747258 0
M  V30 5583 H 518.579 -2.20729 -2.37591 0
M  V30 5584 H 518.364 -3.67217 -1.37456 0
M  V30 5585 H 519.854 -3.45794 -2.34128 0
M  V30 5586 N 520.291 -0.0518155 -1.57515 0
M  V30 5587 C 521.539 0.620595 -1.92336 0
M  V30 5588 C 521.86 1.71345 -0.930907 0
M  V30 5589 O 521.13 1.95885 0.0241341 0
M  V30 5590 H 519.71 0.232226 -0.709986 0
M  V30 5591 H 522.372 -0.104969 -1.94617 0
M  V30 5592 H 521.468 1.05879 -2.93592 0
M  V30 5593 N 521.769 1.56035 0.221574 0
M  V30 5594 C 523.185 1.49026 0.571271 0
M  V30 5595 C 523.385 0.746912 1.87146 0
M  V30 5596 O 522.441 0.286566 2.50869 0
M  V30 5597 C 523.754 2.93579 0.650522 0
M  V30 5598 C 525.302 3.04099 0.741151 0
M  V30 5599 C 525.777 4.5001 0.851747 0
M  V30 5600 N 527.268 4.54053 0.915968 0
M  V30 5601 C 528.003 5.64232 1.02125 0
M  V30 5602 N 527.499 6.84164 1.09049 0
M  V30 5603 N 529.292 5.52084 1.05639 0
M  V30 5604 H 521.443 2.02791 -0.63162 0
M  V30 5605 H 523.706 0.921736 -0.221602 0
M  V30 5606 H 523.412 3.50912 -0.235253 0
M  V30 5607 H 523.286 3.45476 1.51413 0
M  V30 5608 H 525.673 2.4683 1.61737 0
M  V30 5609 H 525.754 2.55371 -0.148128 0
M  V30 5610 H 525.398 5.07896 -0.0200117 0
M  V30 5611 H 525.328 4.96444 1.75644 0
M  V30 5612 H 527.819 3.67683 0.872782 0
M  V30 5613 H 528.132 7.63883 1.1706 0
M  V30 5614 H 526.477 6.86875 1.05962 0
M  V30 5615 H 529.668 4.57317 0.998953 0
M  V30 5616 H 529.841 6.37983 1.13498 0
M  V30 5617 N 523.247 -0.488276 1.49845 0
M  V30 5618 C 524.18 -1.60651 1.62069 0
M  V30 5619 C 525.158 -1.5568 0.469308 0
M  V30 5620 O 526.342 -1.75553 0.686551 0
M  V30 5621 C 523.469 -2.99197 1.58741 0
M  V30 5622 C 522.515 -3.22385 2.79232 0
M  V30 5623 S 523.348 -3.04133 4.40753 0
M  V30 5624 C 524.504 -4.45052 4.4009 0
M  V30 5625 H 524.737 -1.50039 2.56662 0
M  V30 5626 H 522.27 -0.674371 1.38894 0
M  V30 5627 H 524.228 -3.79081 1.57506 0
M  V30 5628 H 522.889 -3.07213 0.654136 0
M  V30 5629 H 522.082 -4.23557 2.73159 0
M  V30 5630 H 521.684 -2.50245 2.77945 0
M  V30 5631 H 523.976 -5.37375 4.12594 0
M  V30 5632 H 524.919 -4.56172 5.41583 0
M  V30 5633 H 525.327 -4.26327 3.70008 0
M  V30 5634 N 524.725 -1.39134 -0.740242 0
M  V30 5635 C 525.655 -1.40165 -1.86751 0
M  V30 5636 C 526.636 -0.265708 -1.68012 0
M  V30 5637 O 527.821 -0.47076 -1.88408 0
M  V30 5638 C 524.951 -1.2392 -3.2444 0
M  V30 5639 C 523.905 -2.34858 -3.57807 0
M  V30 5640 C 523.231 -2.03707 -4.94376 0
M  V30 5641 C 524.531 -3.77159 -3.61315 0
M  V30 5642 H 526.225 -2.345 -1.86145 0
M  V30 5643 H 523.771 -1.12875 -0.89416 0
M  V30 5644 H 525.724 -1.23263 -4.02969 0
M  V30 5645 H 524.448 -0.26051 -3.25559 0
M  V30 5646 H 523.107 -2.34723 -2.81604 0
M  V30 5647 H 522.755 -1.04289 -4.9207 0
M  V30 5648 H 522.455 -2.78016 -5.17669 0
M  V30 5649 H 523.979 -2.04691 -5.75268 0
M  V30 5650 H 525.393 -3.79252 -4.29931 0
M  V30 5651 H 523.79 -4.50784 -3.96124 0
M  V30 5652 H 524.86 -4.08513 -2.61238 0
M  V30 5653 N 526.204 0.969867 -1.24223 0
M  V30 5654 C 527.62 1.23809 -1.00716 0
M  V30 5655 C 527.82 1.99469 0.285358 0
M  V30 5656 O 526.876 2.31764 1.00207 0
M  V30 5657 C 528.189 2.02734 -2.2208 0
M  V30 5658 C 529.737 2.15834 -2.26681 0
M  V30 5659 C 530.212 2.98154 -3.47661 0
M  V30 5660 N 531.703 3.05737 -3.47964 0
M  V30 5661 C 532.438 3.69785 -4.38231 0
M  V30 5662 N 531.934 4.35569 -5.3875 0
M  V30 5663 N 533.727 3.66775 -4.25949 0
M  V30 5664 H 525.878 0.463294 -2.07286 0
M  V30 5665 H 528.141 0.267348 -0.909521 0
M  V30 5666 H 527.847 1.54524 -3.15935 0
M  V30 5667 H 527.721 3.0347 -2.24021 0
M  V30 5668 H 530.108 2.63248 -1.33359 0
M  V30 5669 H 530.189 1.14453 -2.28767 0
M  V30 5670 H 529.833 2.51435 -4.41297 0
M  V30 5671 H 529.763 3.99729 -3.42818 0
M  V30 5672 H 532.254 2.58941 -2.75242 0
M  V30 5673 H 532.567 4.82251 -6.03866 0
M  V30 5674 H 530.912 4.34244 -5.42639 0
M  V30 5675 H 534.103 3.14558 -3.46657 0
M  V30 5676 H 534.276 4.16407 -4.96497 0
M  V30 5677 N 527.682 1.05563 1.17022 0
M  V30 5678 C 528.645 0.664098 2.19368 0
M  V30 5679 C 529.645 -0.286358 1.5823 0
M  V30 5680 O 530.835 -0.069728 1.7406 0
M  V30 5681 C 527.967 -0.0239932 3.40892 0
M  V30 5682 H 529.16 1.57 2.55521 0
M  V30 5683 H 526.713 0.849964 1.31169 0
M  V30 5684 H 527.448 -0.942988 3.10287 0
M  V30 5685 H 527.233 0.659351 3.86516 0
M  V30 5686 H 528.723 -0.283909 4.16634 0
M  V30 5687 N 529.16 -1.33526 0.837174 0
M  V30 5688 C 530.123 -2.27551 0.274421 0
M  V30 5689 C 531.123 -1.50886 -0.555881 0
M  V30 5690 O 532.313 -1.70227 -0.369918 0
M  V30 5691 C 529.445 -3.35332 -0.613605 0
M  V30 5692 H 530.638 -2.78837 1.10408 0
M  V30 5693 H 528.191 -1.439 0.610126 0
M  V30 5694 H 528.926 -2.89285 -1.46577 0
M  V30 5695 H 528.711 -3.92095 -0.0195341 0
M  V30 5696 H 530.201 -4.05433 -1.00068 0
M  V30 5697 N 530.638 -0.59345 -1.46 0
M  V30 5698 C 531.915 -0.0157933 -1.95594 0
M  V30 5699 C 532.295 1.44807 -1.53604 0
M  V30 5700 O 531.643 2.14342 -0.791824 0
M  V30 5701 C 531.853 -0.199081 -3.48432 0
M  V30 5702 C 533.201 -0.0724943 -4.24538 0
M  V30 5703 O 534.225 -0.128469 -3.55968 0
M  V30 5704 O 533.084 0.0542426 -5.46473 0
M  V30 5705 H 530.178 0.043749 -0.825842 0
M  V30 5706 H 532.724 -0.662522 -1.56233 0
M  V30 5707 H 531.496 -1.21631 -3.71916 0
M  V30 5708 H 531.119 0.483576 -3.94648 0
M  V30 5709 N 532.116 1.54067 -0.331816 0
M  V30 5710 C 533.046 2.27569 0.522932 0
M  V30 5711 C 534.027 1.28679 1.11247 0
M  V30 5712 O 535.212 1.57504 1.13605 0
M  V30 5713 C 532.342 3.0397 1.67987 0
M  V30 5714 C 531.296 4.10267 1.21924 0
M  V30 5715 C 530.622 4.74555 2.46377 0
M  V30 5716 C 531.922 5.21268 0.32815 0
M  V30 5717 H 533.616 2.99264 -0.0901977 0
M  V30 5718 H 531.162 1.4393 -0.044821 0
M  V30 5719 H 533.115 3.54123 2.28418 0
M  V30 5720 H 531.839 2.29906 2.31971 0
M  V30 5721 H 530.498 3.61009 0.637809 0
M  V30 5722 H 530.146 3.97098 3.08743 0
M  V30 5723 H 529.846 5.46363 2.16243 0
M  V30 5724 H 531.37 5.27487 3.07555 0
M  V30 5725 H 532.784 5.67128 0.838978 0
M  V30 5726 H 531.181 5.99982 0.119228 0
M  V30 5727 H 532.251 4.80673 -0.638839 0
M  V30 5728 N 533.594 0.0601682 1.57485 0
M  V30 5729 C 534.84 -0.612501 1.93329 0
M  V30 5730 C 535.173 -1.6996 0.939526 0
M  V30 5731 O 534.448 -1.94472 -0.0330957 0
M  V30 5732 C 534.731 -1.20025 3.39508 0
M  V30 5733 C 534.584 -0.12059 4.49638 0
M  V30 5734 C 535.903 -2.10923 3.86264 0
M  V30 5735 H 533.022 -0.221185 0.703027 0
M  V30 5736 H 535.664 0.123768 1.89596 0
M  V30 5737 H 533.814 -1.82774 3.42821 0
M  V30 5738 H 535.486 0.51185 4.58452 0
M  V30 5739 H 533.729 0.550251 4.30296 0
M  V30 5740 H 534.4 -0.572019 5.49028 0
M  V30 5741 H 536.876 -1.58124 3.84884 0
M  V30 5742 H 535.752 -2.48987 4.8918 0
M  V30 5743 H 536.013 -3.01292 3.23536 0
M  V30 5744 N 535.072 -1.5615 -0.213296 0
M  V30 5745 C 536.349 -1.70349 -0.961281 0
M  V30 5746 C 536.729 -0.609791 -2.02101 0
M  V30 5747 O 536.077 0.381987 -2.25285 0
M  V30 5748 C 536.287 -3.11982 -1.56424 0
M  V30 5749 C 537.635 -3.71649 -2.05334 0
M  V30 5750 O 538.659 -3.14995 -1.66302 0
M  V30 5751 O 537.518 -4.71038 -2.77102 0
M  V30 5752 H 534.612 -0.694121 -0.449582 0
M  V30 5753 H 537.158 -1.68464 -0.204426 0
M  V30 5754 H 535.93 -3.83046 -0.799457 0
M  V30 5755 H 535.553 -3.18019 -2.38641 0
M  V30 5756 N 536.55 0.480323 -1.50102 0
M  V30 5757 C 537.513 1.56181 -1.6775 0
M  V30 5758 C 538.513 1.51156 -0.548503 0
M  V30 5759 O 539.703 1.5394 -0.815363 0
M  V30 5760 C 536.835 2.95823 -1.69415 0
M  V30 5761 H 538.028 1.41855 -2.6423 0
M  V30 5762 H 535.581 0.70605 -1.39444 0
M  V30 5763 H 536.316 3.15604 -0.745948 0
M  V30 5764 H 536.101 3.00878 -2.51425 0
M  V30 5765 H 537.591 3.74359 -1.85054 0
M  V30 5766 N 538.028 1.39524 0.732853 0
M  V30 5767 C 538.958 1.41153 1.86005 0
M  V30 5768 C 539.939 0.274614 1.67869 0
M  V30 5769 O 541.124 0.480745 1.88155 0
M  V30 5770 C 538.254 1.25638 3.23778 0
M  V30 5771 C 537.208 2.36752 3.56556 0
M  V30 5772 C 536.534 2.06326 4.93289 0
M  V30 5773 C 537.834 3.79069 3.5931 0
M  V30 5774 H 539.528 2.35484 1.84899 0
M  V30 5775 H 537.074 1.13348 0.888162 0
M  V30 5776 H 539.027 1.25398 4.0231 0
M  V30 5777 H 537.751 0.277772 3.25417 0
M  V30 5778 H 536.41 2.36213 2.80355 0
M  V30 5779 H 536.058 1.06897 4.9151 0
M  V30 5780 H 535.758 2.80757 5.16187 0
M  V30 5781 H 537.282 2.07739 5.74175 0
M  V30 5782 H 538.696 3.81526 4.27914 0
M  V30 5783 H 537.093 4.52878 3.93728 0
M  V30 5784 H 538.163 4.09893 2.59068 0
M  V30 5785 N 539.506 -0.963266 1.24736 0
M  V30 5786 C 540.754 -1.70343 1.08755 0
M  V30 5787 C 541.075 -1.91387 -0.373619 0
M  V30 5788 O 540.345 -1.4948 -1.2662 0
M  V30 5789 H 538.925 -0.631224 0.399456 0
M  V30 5790 H 541.587 -1.15859 1.56725 0
M  V30 5791 H 540.683 -2.68616 1.58909 0
M  V30 5792 N 540.985 -1.06182 -1.16461 0
M  V30 5793 C 541.917 -0.629584 -2.20383 0
M  V30 5794 C 542.93 0.311834 -1.59786 0
M  V30 5795 O 544.119 0.103 -1.78203 0
M  V30 5796 C 541.219 0.0973695 -3.3876 0
M  V30 5797 C 540.392 -0.857252 -4.28917 0
M  V30 5798 C 539.451 -0.169749 -5.25926 0
M  V30 5799 O 538.477 -0.807044 -5.6345 0
M  V30 5800 N 539.679 1.08911 -5.70192 0
M  V30 5801 H 542.444 -1.52352 -2.58087 0
M  V30 5802 H 540.005 -0.944993 -1.31459 0
M  V30 5803 H 541.997 0.567676 -4.00699 0
M  V30 5804 H 540.567 0.893093 -2.99571 0
M  V30 5805 H 539.787 -1.50696 -3.64259 0
M  V30 5806 H 541.075 -1.50489 -4.86035 0
M  V30 5807 H 540.473 1.62703 -5.41797 0
M  V30 5808 H 539.03 1.50331 -6.34227 0
M  V30 5809 N 542.463 1.3308 -0.844243 0
M  V30 5810 C 543.373 2.32876 -0.283922 0
M  V30 5811 C 544.389 1.63589 0.592846 0
M  V30 5812 O 545.565 1.95205 0.495693 0
M  V30 5813 C 542.63 3.42667 0.527283 0
M  V30 5814 C 541.691 4.27664 -0.374394 0
M  V30 5815 C 540.924 5.32212 0.39819 0
M  V30 5816 O 541.147 5.46635 1.62932 0
M  V30 5817 O 540.081 6.01458 -0.2306 0
M  V30 5818 H 543.907 2.82671 -1.11045 0
M  V30 5819 H 541.492 1.36518 -0.606903 0
M  V30 5820 H 543.374 4.09652 0.988078 0
M  V30 5821 H 542.049 2.95079 1.33078 0
M  V30 5822 H 540.956 3.63526 -0.883144 0
M  V30 5823 H 542.289 4.78749 -1.1428 0
M  V30 5824 N 543.941 0.601185 1.45683 0
M  V30 5825 C 544.889 -0.133955 2.32214 0
M  V30 5826 C 545.883 -0.866034 1.45589 0
M  V30 5827 O 547.089 -0.782326 1.6211 0
M  V30 5828 H 543.464 -0.0620613 0.749435 0
M  V30 5829 H 545.435 0.614389 2.92007 0
M  V30 5830 C 544.184 -1.12216 3.29094 0
M  V30 5831 H 543.507 -0.568273 3.95741 0
M  V30 5832 H 544.947 -1.60659 3.92383 0
M  V30 5833 C 543.406 -2.19251 2.55794 0
M  V30 5834 O 543.936 -3.26894 2.33459 0
M  V30 5835 N 542.142 -1.9436 2.16039 0
M  V30 5836 H 541.689 -1.06829 2.34404 0
M  V30 5837 H 541.647 -2.66181 1.67318 0
M  V30 5838 N 545.419 -1.53889 0.339982 0
M  V30 5839 C 546.367 -2.26391 -0.533822 0
M  V30 5840 C 547.361 -1.28404 -1.10493 0
M  V30 5841 O 548.567 -1.46124 -1.05108 0
M  V30 5842 H 544.942 -0.727385 -0.190828 0
M  V30 5843 H 546.913 -2.98233 0.0997484 0
M  V30 5844 C 545.662 -3.04707 -1.67479 0
M  V30 5845 H 544.985 -3.79934 -1.2446 0
M  V30 5846 H 546.425 -3.58657 -2.26144 0
M  V30 5847 C 544.884 -2.13989 -2.60212 0
M  V30 5848 O 545.414 -1.73361 -3.62366 0
M  V30 5849 N 543.62 -1.79141 -2.28816 0
M  V30 5850 H 543.167 -2.12378 -1.45785 0
M  V30 5851 H 543.125 -1.18725 -2.91121 0
M  V30 5852 N 546.897 -0.0685191 -1.57451 0
M  V30 5853 C 548.308 0.464634 -1.80826 0
M  V30 5854 C 548.659 1.69847 -0.982169 0
M  V30 5855 O 547.784 2.15439 -0.203734 0
M  V30 5856 C 548.379 0.849721 -3.27971 0
M  V30 5857 C 546.938 1.32776 -3.52204 0
M  V30 5858 C 546.085 0.311332 -2.75547 0
M  V30 5859 H 549.036 -0.294248 -1.55948 0
M  V30 5860 H 549.057 1.71138 -3.39841 0
M  V30 5861 H 548.569 -0.0484736 -3.8807 0
M  V30 5862 H 546.67 2.24456 -2.97406 0
M  V30 5863 H 546.783 1.30794 -4.60901 0
M  V30 5864 H 545.147 0.787915 -2.42206 0
M  V30 5865 H 545.93 -0.579078 -3.38381 0
M  V30 5866 N 548.375 1.56261 0.205012 0
M  V30 5867 C 549.285 1.96944 1.27476 0
M  V30 5868 C 550.301 0.875636 1.50362 0
M  V30 5869 O 551.477 1.18058 1.6317 0
M  V30 5870 C 548.542 2.29219 2.60115 0
M  V30 5871 C 547.603 3.52255 2.45387 0
M  V30 5872 C 546.836 3.8298 3.71701 0
M  V30 5873 O 547.059 3.15138 4.75441 0
M  V30 5874 O 545.993 4.76435 3.67823 0
M  V30 5875 H 549.819 2.88144 0.959527 0
M  V30 5876 H 547.404 1.43686 0.409217 0
M  V30 5877 H 549.286 2.51098 3.3842 0
M  V30 5878 H 547.961 1.4119 2.91285 0
M  V30 5879 H 546.868 3.35635 1.65227 0
M  V30 5880 H 548.201 4.40719 2.19152 0
M  V30 5881 N 549.853 -0.472356 1.50355 0
M  V30 5882 C 551.099 -1.22348 1.62488 0
M  V30 5883 C 551.454 -1.89711 0.320574 0
M  V30 5884 O 550.747 -1.79074 -0.68141 0
M  V30 5885 C 550.941 -2.29257 2.74182 0
M  V30 5886 C 550.77 -1.72383 4.15348 0
M  V30 5887 C 549.54 -1.52411 4.81766 0
M  V30 5888 C 551.738 -1.21949 4.99633 0
M  V30 5889 N 549.72 -0.907669 6.07153 0
M  V30 5890 C 551.091 -0.726191 6.15732 0
M  V30 5891 C 553.146 -1.10792 4.85417 0
M  V30 5892 C 551.849 -0.132322 7.19178 0
M  V30 5893 C 553.875 -0.52799 5.89038 0
M  V30 5894 C 553.237 -0.0450604 7.04386 0
M  V30 5895 H 549.336 -0.436631 0.648751 0
M  V30 5896 H 551.92 -0.525698 1.87469 0
M  V30 5897 H 550.091 -2.96464 2.50926 0
M  V30 5898 H 551.823 -2.9628 2.75681 0
M  V30 5899 H 548.578 -1.776 4.39039 0
M  V30 5900 H 549.002 -0.617897 6.74174 0
M  V30 5901 H 553.644 -1.46722 3.96525 0
M  V30 5902 H 551.362 0.239187 8.07746 0
M  V30 5903 H 554.948 -0.444046 5.80103 0
M  V30 5904 H 553.828 0.396659 7.83196 0
M  V30 5905 N 551.331 -1.39911 -0.725443 0
M  V30 5906 C 552.278 -1.39393 -1.83952 0
M  V30 5907 C 553.248 -0.252249 -1.64173 0
M  V30 5908 O 554.433 -0.44882 -1.85446 0
M  V30 5909 C 551.573 -1.25262 -3.21564 0
M  V30 5910 C 550.686 -2.49054 -3.52982 0
M  V30 5911 C 549.821 -2.27439 -4.80047 0
M  V30 5912 C 548.86 -3.46857 -5.04338 0
M  V30 5913 N 547.997 -3.24499 -6.22611 0
M  V30 5914 H 552.837 -2.34622 -1.83729 0
M  V30 5915 H 550.374 -1.16537 -0.897636 0
M  V30 5916 H 552.332 -1.15077 -4.01015 0
M  V30 5917 H 550.962 -0.33657 -3.21041 0
M  V30 5918 H 550.014 -2.69805 -2.6816 0
M  V30 5919 H 551.326 -3.37973 -3.66846 0
M  V30 5920 H 550.48 -2.14551 -5.67497 0
M  V30 5921 H 549.219 -1.35929 -4.68374 0
M  V30 5922 H 548.224 -3.60232 -4.15346 0
M  V30 5923 H 549.449 -4.3928 -5.17889 0
M  V30 5924 H 547.395 -2.35663 -6.12208 0
M  V30 5925 H 547.312 -4.06978 -6.37106 0
M  V30 5926 H 548.58 -3.15325 -7.12875 0
M  V30 5927 N 552.809 0.956637 -1.25245 0
M  V30 5928 C 554.037 1.73571 -1.12608 0
M  V30 5929 C 554.452 1.86063 0.320324 0
M  V30 5930 O 553.809 1.35691 1.22042 0
M  V30 5931 C 553.86 3.15053 -1.77268 0
M  V30 5932 O 553.581 3.03174 -3.16255 0
M  V30 5933 C 555.082 4.09248 -1.70386 0
M  V30 5934 H 552.302 0.543955 -0.392879 0
M  V30 5935 H 554.846 1.20031 -1.65568 0
M  V30 5936 H 553.001 3.65543 -1.28284 0
M  V30 5937 H 553.415 3.9241 -3.48015 0
M  V30 5938 H 554.889 5.06138 -2.20291 0
M  V30 5939 H 555.366 4.34102 -0.667239 0
M  V30 5940 H 555.972 3.64672 -2.18849 0
M  V30 5941 N 554.287 1.06798 1.15896 0
M  V30 5942 C 555.533 0.788934 1.86825 0
M  V30 5943 C 555.866 -0.683084 1.8179 0
M  V30 5944 O 555.141 -1.50086 1.23711 0
M  V30 5945 C 555.424 1.29065 3.36176 0
M  V30 5946 C 555.277 2.8268 3.49874 0
M  V30 5947 C 556.596 0.902655 4.30744 0
M  V30 5948 H 553.715 0.288066 0.678371 0
M  V30 5949 H 556.357 1.32479 1.36195 0
M  V30 5950 H 554.507 0.834806 3.79425 0
M  V30 5951 H 556.179 3.36511 3.15528 0
M  V30 5952 H 554.422 3.21157 2.91617 0
M  V30 5953 H 555.093 3.12852 4.54783 0
M  V30 5954 H 557.569 1.29535 3.95424 0
M  V30 5955 H 556.445 1.28111 5.3374 0
M  V30 5956 H 556.706 -0.191951 4.41683 0
M  V30 5957 N 555.766 -1.3263 0.851289 0
M  V30 5958 C 556.729 -2.27247 0.298541 0
M  V30 5959 C 557.729 -1.51467 -0.539847 0
M  V30 5960 O 558.919 -1.7061 -0.351843 0
M  V30 5961 C 556.051 -3.35964 -0.578004 0
M  V30 5962 H 557.244 -2.7765 1.13359 0
M  V30 5963 H 554.797 -1.43245 0.625354 0
M  V30 5964 H 555.532 -2.90823 -1.435 0
M  V30 5965 H 555.317 -3.92094 0.0220539 0
M  V30 5966 H 556.807 -4.06472 -0.957626 0
M  V30 5967 N 557.244 -0.608902 -1.45362 0
M  V30 5968 C 558.491 -0.104607 -2.0223 0
M  V30 5969 C 558.819 1.26534 -1.47714 0
M  V30 5970 O 558.074 1.84855 -0.642435 0
M  V30 5971 C 558.373 -0.0167296 -3.57396 0
M  V30 5972 C 558.039 -1.32251 -4.31069 0
M  V30 5973 C 556.701 -1.68019 -4.50914 0
M  V30 5974 C 559.053 -2.18542 -4.73169 0
M  V30 5975 C 556.381 -2.89828 -5.10114 0
M  V30 5976 C 558.733 -3.39602 -5.33717 0
M  V30 5977 C 557.397 -3.7562 -5.51784 0
M  V30 5978 H 556.667 -0.0382785 -0.740011 0
M  V30 5979 H 559.314 -0.790782 -1.7441 0
M  V30 5980 H 557.619 0.752715 -3.84502 0
M  V30 5981 H 559.316 0.389634 -3.99103 0
M  V30 5982 H 555.906 -1.03411 -4.15938 0
M  V30 5983 H 560.09 -1.92208 -4.5757 0
M  V30 5984 H 555.346 -3.17839 -5.22291 0
M  V30 5985 H 559.52 -4.06716 -5.65292 0
M  V30 5986 H 557.147 -4.70093 -5.97425 0
M  V30 5987 N 558.722 1.53707 -0.348139 0
M  V30 5988 C 559.67 2.26671 0.521808 0
M  V30 5989 C 560.664 1.28988 1.09811 0
M  V30 5990 O 561.87 1.4668 1.04332 0
M  V30 5991 H 558.245 0.728387 0.186968 0
M  V30 5992 H 560.216 2.98176 -0.115563 0
M  V30 5993 C 558.965 3.05591 1.6586 0
M  V30 5994 H 558.288 3.80589 1.22443 0
M  V30 5995 H 559.728 3.59851 2.24239 0
M  V30 5996 C 558.187 2.15366 2.59073 0
M  V30 5997 O 558.717 1.7528 3.61441 0
M  V30 5998 N 556.923 1.80352 2.27863 0
M  V30 5999 H 556.47 2.13149 1.44656 0
M  V30 6000 H 556.428 1.20268 2.90488 0
M  V30 6001 N 560.2 0.0768682 1.57412 0
M  V30 6002 C 561.428 -0.59997 1.9801 0
M  V30 6003 C 561.843 -1.62842 0.955408 0
M  V30 6004 O 561.2 -1.8241 -0.057314 0
M  V30 6005 C 561.251 -1.26401 3.38681 0
M  V30 6006 O 560.972 -0.276723 4.37225 0
M  V30 6007 C 562.473 -2.0282 3.94182 0
M  V30 6008 H 559.693 -0.162239 0.651091 0
M  V30 6009 H 562.237 0.150771 2.03943 0
M  V30 6010 H 560.392 -1.96581 3.33819 0
M  V30 6011 H 560.806 -0.753744 5.19056 0
M  V30 6012 H 562.28 -2.44667 4.94815 0
M  V30 6013 H 562.757 -2.88678 3.31001 0
M  V30 6014 H 563.363 -1.37496 4.02461 0
M  V30 6015 N 561.678 -1.56367 -0.196722 0
M  V30 6016 C 562.626 -1.95304 -1.2633 0
M  V30 6017 C 563.62 -0.838252 -1.47206 0
M  V30 6018 O 564.826 -1.02325 -1.48087 0
M  V30 6019 H 561.201 -0.621013 -0.424083 0
M  V30 6020 H 563.172 -2.84254 -0.907879 0
M  V30 6021 C 561.921 -2.3074 -2.60104 0
M  V30 6022 H 561.244 -3.16047 -2.44856 0
M  V30 6023 H 562.684 -2.61849 -3.33484 0
M  V30 6024 C 561.143 -1.14143 -3.16975 0
M  V30 6025 O 561.673 -0.415602 -3.99544 0
M  V30 6026 N 559.879 -0.91867 -2.75697 0
M  V30 6027 H 559.426 -1.51065 -2.08656 0
M  V30 6028 H 559.384 -0.140321 -3.14087 0
M  V30 6029 N 563.156 0.464375 -1.50603 0
M  V30 6030 C 564.404 1.21356 -1.61608 0
M  V30 6031 C 564.725 1.92329 -0.321643 0
M  V30 6032 O 563.995 1.84403 0.661232 0
M  V30 6033 H 562.575 0.45094 -0.595535 0
M  V30 6034 H 565.237 0.535046 -1.87412 0
M  V30 6035 H 564.333 1.95783 -2.43054 0
M  V30 6036 N 564.634 1.40294 0.718013 0
M  V30 6037 C 565.544 1.42678 1.86226 0
M  V30 6038 C 566.56 0.319655 1.71039 0
M  V30 6039 O 567.736 0.563852 1.93346 0
M  V30 6040 C 564.801 1.2852 3.21999 0
M  V30 6041 C 563.862 2.49354 3.49458 0
M  V30 6042 C 563.095 2.35863 4.78753 0
M  V30 6043 O 563.318 1.37114 5.53675 0
M  V30 6044 O 562.252 3.25189 5.06494 0
M  V30 6045 H 566.078 2.39167 1.87171 0
M  V30 6046 H 563.663 1.2159 0.868112 0
M  V30 6047 H 565.545 1.22824 4.03103 0
M  V30 6048 H 564.22 0.351359 3.21787 0
M  V30 6049 H 563.127 2.60628 2.68373 0
M  V30 6050 H 564.46 3.41491 3.54464 0
M  V30 6051 N 566.112 -0.949982 1.2575 0
M  V30 6052 C 567.045 -2.047 1.00862 0
M  V30 6053 C 568.023 -1.62475 -0.0636982 0
M  V30 6054 O 569.207 -1.88343 0.0769153 0
M  V30 6055 C 566.334 -3.34597 0.525613 0
M  V30 6056 C 565.38 -3.95788 1.58916 0
M  V30 6057 S 566.213 -4.31175 3.17567 0
M  V30 6058 C 567.369 -5.64183 2.71013 0
M  V30 6059 H 567.602 -2.25497 1.93749 0
M  V30 6060 H 565.135 -1.09022 1.09332 0
M  V30 6061 H 567.093 -4.09716 0.25359 0
M  V30 6062 H 565.754 -3.11758 -0.382828 0
M  V30 6063 H 564.947 -4.89457 1.20201 0
M  V30 6064 H 564.549 -3.27168 1.81211 0
M  V30 6065 H 566.841 -6.42504 2.14928 0
M  V30 6066 H 567.784 -6.07774 3.6334 0
M  V30 6067 H 568.192 -5.2364 2.1086 0
M  V30 6068 N 567.59 -1.07411 -1.15328 0
M  V30 6069 C 568.836 -0.798831 -1.86404 0
M  V30 6070 C 569.169 0.673433 -1.8215 0
M  V30 6071 O 568.444 1.49428 -1.24505 0
M  V30 6072 C 568.727 -1.30846 -3.35487 0
M  V30 6073 C 568.58 -2.84532 -3.4837 0
M  V30 6074 C 569.899 -0.925486 -4.30259 0
M  V30 6075 H 567.018 -0.291659 -0.676834 0
M  V30 6076 H 569.66 -1.332 -1.35491 0
M  V30 6077 H 567.81 -0.854916 -3.78977 0
M  V30 6078 H 569.482 -3.3818 -3.13739 0
M  V30 6079 H 567.725 -3.22699 -2.8991 0
M  V30 6080 H 568.396 -3.15259 -4.53118 0
M  V30 6081 H 570.872 -1.3163 -3.94731 0
M  V30 6082 H 569.748 -1.3094 -5.33053 0
M  V30 6083 H 570.009 0.168525 -4.41779 0
M  V30 6084 N 569.068 1.32177 -0.85831 0
M  V30 6085 C 570.031 2.27086 -0.310588 0
M  V30 6086 C 571.031 1.51751 0.531806 0
M  V30 6087 O 572.221 1.70794 0.34279 0
M  V30 6088 C 569.353 3.36266 0.560179 0
M  V30 6089 H 570.546 2.77045 -1.1483 0
M  V30 6090 H 568.099 1.42911 -0.632942 0
M  V30 6091 H 568.834 2.9158 1.41956 0
M  V30 6092 H 568.619 3.92077 -0.0428473 0
M  V30 6093 H 570.109 4.06974 0.936056 0
M  V30 6094 N 570.547 0.616602 1.45037 0
M  V30 6095 C 571.958 0.199359 1.85633 0
M  V30 6096 C 572.309 -1.24588 1.51566 0
M  V30 6097 O 571.434 -1.94594 0.94668 0
M  V30 6098 C 572.029 0.355033 3.36935 0
M  V30 6099 C 570.588 -0.00758748 3.76399 0
M  V30 6100 C 569.735 0.675256 2.68953 0
M  V30 6101 H 572.686 0.822708 1.3571 0
M  V30 6102 H 572.707 -0.410201 3.78282 0
M  V30 6103 H 572.219 1.40699 3.61698 0
M  V30 6104 H 570.32 -1.05837 3.57252 0
M  V30 6105 H 570.433 0.392346 4.77491 0
M  V30 6106 H 568.797 0.111992 2.54454 0
M  V30 6107 H 569.58 1.72952 2.96551 0
M  V30 6108 N 572.025 -1.5352 0.356285 0
M  V30 6109 C 572.973 -2.26945 -0.50978 0
M  V30 6110 C 573.967 -1.29569 -1.09125 0
M  V30 6111 O 575.173 -1.47231 -1.03552 0
M  V30 6112 H 571.548 -0.729368 -0.183102 0
M  V30 6113 H 573.519 -2.98111 0.131374 0
M  V30 6114 C 572.268 -3.06466 -1.64237 0
M  V30 6115 H 571.591 -3.81233 -1.20423 0
M  V30 6116 H 573.031 -3.61035 -2.22327 0
M  V30 6117 C 571.49 -2.16737 -2.57928 0
M  V30 6118 O 572.02 -1.77195 -3.60507 0
M  V30 6119 N 570.226 -1.81558 -2.26903 0
M  V30 6120 H 569.773 -2.13913 -1.43524 0
M  V30 6121 H 569.731 -1.21806 -2.89846 0
M  V30 6122 N 573.503 -0.0852151 -1.57369 0
M  V30 6123 C 574.751 0.579658 -1.93609 0
M  V30 6124 C 575.072 1.69332 -0.967043 0
M  V30 6125 O 574.342 1.95892 -0.0174215 0
M  V30 6126 H 572.922 0.217113 -0.714752 0
M  V30 6127 H 575.584 -0.146226 -1.94351 0
M  V30 6128 H 574.68 0.996276 -2.95771 0
M  V30 6129 N 574.981 1.5647 0.188427 0
M  V30 6130 C 576.206 1.85486 0.927891 0
M  V30 6131 C 576.631 0.669575 1.75779 0
M  V30 6132 O 575.989 -0.381573 1.77239 0
M  V30 6133 C 576.037 3.12784 1.7944 0
M  V30 6134 O 575.141 2.93805 2.894 0
M  V30 6135 H 574.482 0.610585 0.260925 0
M  V30 6136 H 577.012 2.037 0.191729 0
M  V30 6137 H 577.022 3.43749 2.19774 0
M  V30 6138 H 575.697 3.98671 1.18468 0
M  V30 6139 H 574.274 2.74153 2.52774 0
M  V30 6140 N 576.459 -0.456382 1.50847 0
M  V30 6141 C 577.708 -1.2042 1.61808 0
M  V30 6142 C 578.021 -1.9278 0.330932 0
M  V30 6143 O 579.227 -2.69612 0.319643 0
M  V30 6144 C 577.683 -2.18891 2.85683 0
M  V30 6145 C 577.291 -1.52267 4.2133 0
M  V30 6146 C 579.035 -2.94224 3.05994 0
M  V30 6147 C 576.942 -2.4911 5.36375 0
M  V30 6148 H 575.872 -0.453177 0.602616 0
M  V30 6149 H 578.523 -0.473144 1.77295 0
M  V30 6150 H 576.905 -2.95351 2.63787 0
M  V30 6151 H 578.079 -0.814949 4.53536 0
M  V30 6152 H 576.394 -0.891594 4.06743 0
M  V30 6153 H 578.991 -3.66732 3.89117 0
M  V30 6154 H 579.334 -3.54469 2.18306 0
M  V30 6155 H 579.867 -2.24874 3.28141 0
M  V30 6156 H 576.606 -1.93582 6.26264 0
M  V30 6157 H 576.126 -3.17991 5.08569 0
M  V30 6158 H 577.805 -3.10637 5.67551 0
M  V30 6159 N 577.937 -1.40673 -0.710563 0
M  V30 6160 C 579.185 -1.38947 -1.46759 0
M  V30 6161 C 579.506 0.00572879 -1.94999 0
M  V30 6162 O 578.776 0.961358 -1.70689 0
M  V30 6163 H 577.356 -0.5114 -0.544499 0
M  V30 6164 H 580.018 -1.75773 -0.842012 0
M  V30 6165 H 579.114 -2.06745 -2.33801 0
M  V30 6166 N 579.415 0.9433 -1.26252 0
M  V30 6167 C 580.662 1.68925 -1.11672 0
M  V30 6168 C 580.99 1.91499 0.340329 0
M  V30 6169 O 580.245 1.49189 1.26653 0
M  V30 6170 C 580.544 3.07073 -1.82868 0
M  V30 6171 C 580.21 3.04262 -3.32769 0
M  V30 6172 C 578.872 3.03203 -3.7366 0
M  V30 6173 C 581.224 2.96729 -4.28487 0
M  V30 6174 C 578.552 2.92373 -5.0866 0
M  V30 6175 C 580.904 2.87442 -5.63525 0
M  V30 6176 C 579.568 2.84724 -6.03729 0
M  V30 6177 H 578.838 0.618141 -0.408635 0
M  V30 6178 H 581.485 1.10124 -1.56668 0
M  V30 6179 H 579.79 3.69486 -1.30335 0
M  V30 6180 H 581.487 3.63635 -1.69029 0
M  V30 6181 H 578.077 3.05865 -3.00241 0
M  V30 6182 H 582.261 2.96658 -3.97879 0
M  V30 6183 H 577.517 2.88645 -5.38975 0
M  V30 6184 H 581.691 2.80576 -6.37377 0
M  V30 6185 H 579.318 2.76089 -7.08293 0
M  V30 6186 N 580.893 1.08022 1.14757 0
M  V30 6187 C 582.309 0.807072 1.3769 0
M  V30 6188 C 582.509 -0.585504 1.92806 0
M  V30 6189 O 581.565 -1.34301 2.13821 0
M  V30 6190 C 582.878 1.88651 2.34161 0
M  V30 6191 C 584.426 1.91206 2.47809 0
M  V30 6192 C 584.901 2.98253 3.47576 0
M  V30 6193 N 586.392 2.974 3.55117 0
M  V30 6194 C 587.127 3.76872 4.32152 0
M  V30 6195 N 586.623 4.66212 5.12463 0
M  V30 6196 N 588.416 3.6519 4.27309 0
M  V30 6197 H 580.567 1.97824 0.77326 0
M  V30 6198 H 582.83 0.85826 0.402608 0
M  V30 6199 H 582.536 2.88749 2.00791 0
M  V30 6200 H 582.41 1.75244 3.3402 0
M  V30 6201 H 584.797 0.917564 2.80472 0
M  V30 6202 H 584.878 2.08691 1.47925 0
M  V30 6203 H 584.522 3.97907 3.15646 0
M  V30 6204 H 584.452 2.78014 4.47231 0
M  V30 6205 H 586.943 2.32643 2.97801 0
M  V30 6206 H 587.256 5.23468 5.68508 0
M  V30 6207 H 585.601 4.70257 5.11745 0
M  V30 6208 H 588.792 2.94765 3.63636 0
M  V30 6209 H 588.965 4.27366 4.87095 0
M  V30 6210 N 582.371 -1.3172 0.865308 0
M  V30 6211 C 583.617 -1.97559 0.483944 0
M  V30 6212 C 583.972 -1.67181 -0.95227 0
M  V30 6213 O 583.265 -0.955392 -1.66081 0
M  V30 6214 C 583.459 -3.5102 0.672283 0
M  V30 6215 C 583.288 -3.96312 2.12525 0
M  V30 6216 C 582.058 -4.22877 2.76591 0
M  V30 6217 C 584.256 -4.10596 3.09702 0
M  V30 6218 N 582.238 -4.5449 4.12689 0
M  V30 6219 C 583.609 -4.45867 4.30816 0
M  V30 6220 C 585.664 -3.92961 3.05755 0
M  V30 6221 C 584.367 -4.65344 5.48495 0
M  V30 6222 C 586.393 -4.13628 4.22688 0
M  V30 6223 C 585.755 -4.49227 5.42563 0
M  V30 6224 H 581.854 -0.74862 0.226035 0
M  V30 6225 H 584.438 -1.59336 1.11893 0
M  V30 6226 H 582.609 -3.88342 0.0669224 0
M  V30 6227 H 584.341 -4.03865 0.259765 0
M  V30 6228 H 581.096 -4.15343 2.27567 0
M  V30 6229 H 581.52 -4.74464 4.82921 0
M  V30 6230 H 586.162 -3.64531 2.14188 0
M  V30 6231 H 583.88 -4.92624 6.40584 0
M  V30 6232 H 587.466 -4.01474 4.21082 0
M  V30 6233 H 586.346 -4.64895 6.31539 0
M  V30 6234 N 583.85 -0.624285 -1.44708 0
M  V30 6235 C 585.098 -0.125802 -2.01708 0
M  V30 6236 C 585.418 1.2543 -1.49306 0
M  V30 6237 O 584.689 1.83198 -0.693924 0
M  V30 6238 H 583.269 -0.0435161 -0.745731 0
M  V30 6239 H 585.931 -0.809446 -1.77296 0
M  V30 6240 H 585.027 -0.0882734 -3.11975 0
M  V30 6241 N 585.328 1.53329 -0.364422 0
M  V30 6242 C 586.238 2.29414 0.490552 0
M  V30 6243 C 587.254 1.35335 1.09363 0
M  V30 6244 O 588.43 1.68391 1.10483 0
M  V30 6245 C 585.495 3.06772 1.61529 0
M  V30 6246 C 584.556 4.16516 1.03986 0
M  V30 6247 C 583.789 4.90176 2.111 0
M  V30 6248 O 584.012 4.63687 3.32191 0
M  V30 6249 O 582.946 5.76134 1.74222 0
M  V30 6250 H 586.772 3.03428 -0.12856 0
M  V30 6251 H 584.357 1.48843 -0.128837 0
M  V30 6252 H 586.239 3.55082 2.26924 0
M  V30 6253 H 584.914 2.35596 2.21983 0
M  V30 6254 H 583.821 3.7246 0.349856 0
M  V30 6255 H 585.154 4.89855 0.4799 0
M  V30 6256 N 586.806 0.0935595 1.57322 0
M  V30 6257 C 587.753 -0.865935 2.1394 0
M  V30 6258 C 588.723 -1.28083 1.05754 0
M  V30 6259 O 589.908 -1.36285 1.33533 0
M  V30 6260 C 587.048 -2.12023 2.72287 0
M  V30 6261 C 586.161 -1.756 3.94701 0
M  V30 6262 C 585.296 -2.95804 4.41218 0
M  V30 6263 C 584.335 -2.555 5.56225 0
M  V30 6264 N 583.472 -3.68534 5.97601 0
M  V30 6265 H 588.312 -0.376261 2.95615 0
M  V30 6266 H 585.849 -0.174052 1.46067 0
M  V30 6267 H 587.807 -2.85477 3.04235 0
M  V30 6268 H 586.437 -2.58492 1.93343 0
M  V30 6269 H 585.489 -0.921208 3.69077 0
M  V30 6270 H 586.801 -1.41964 4.78171 0
M  V30 6271 H 585.955 -3.77513 4.74941 0
M  V30 6272 H 584.694 -3.32649 3.56645 0
M  V30 6273 H 583.699 -1.72218 5.22131 0
M  V30 6274 H 584.924 -2.19801 6.42545 0
M  V30 6275 H 582.87 -4.051 5.15974 0
M  V30 6276 H 582.787 -3.38737 6.75865 0
M  V30 6277 H 584.055 -4.50757 6.35955 0
M  V30 6278 N 588.284 -1.56567 -0.180126 0
M  V30 6279 C 589.532 -1.81133 -0.896392 0
M  V30 6280 C 589.853 -0.669114 -1.83161 0
M  V30 6281 O 589.123 0.311616 -1.93406 0
M  V30 6282 H 587.703 -0.668172 -0.333999 0
M  V30 6283 H 590.365 -1.94048 -0.182051 0
M  V30 6284 H 589.461 -2.74854 -1.47857 0
M  V30 6285 N 589.762 0.448376 -1.51087 0
M  V30 6286 C 590.709 1.54341 -1.71603 0
M  V30 6287 C 591.679 1.56463 -0.557536 0
M  V30 6288 O 592.864 1.73644 -0.79072 0
M  V30 6289 C 590.004 2.92148 -1.83695 0
M  V30 6290 C 589.117 2.99639 -3.11192 0
M  V30 6291 C 588.252 4.285 -3.13944 0
M  V30 6292 C 587.291 4.29819 -4.35801 0
M  V30 6293 N 586.428 5.50186 -4.36164 0
M  V30 6294 H 591.268 1.36151 -2.65079 0
M  V30 6295 H 588.805 0.661585 -1.31383 0
M  V30 6296 H 590.763 3.72093 -1.88687 0
M  V30 6297 H 589.393 3.0892 -0.936374 0
M  V30 6298 H 588.445 2.12425 -3.15562 0
M  V30 6299 H 589.757 2.96474 -4.01129 0
M  V30 6300 H 588.911 5.16811 -3.17791 0
M  V30 6301 H 587.65 4.34307 -2.21876 0
M  V30 6302 H 586.655 3.39902 -4.32142 0
M  V30 6303 H 587.88 4.25685 -5.29121 0
M  V30 6304 H 585.826 5.56735 -3.46961 0
M  V30 6305 H 585.743 5.48856 -5.19897 0
M  V30 6306 H 587.011 6.40559 -4.44189 0
M  V30 6307 N 591.24 1.41047 0.703093 0
M  V30 6308 C 592.486 1.41209 1.46396 0
M  V30 6309 C 592.841 0.0180188 1.92392 0
M  V30 6310 O 592.134 -0.954739 1.66118 0
M  V30 6311 C 592.328 2.34686 2.6955 0
M  V30 6312 C 592.157 3.83044 2.35601 0
M  V30 6313 C 590.927 4.51777 2.26331 0
M  V30 6314 C 593.125 4.74215 1.9906 0
M  V30 6315 N 591.107 5.85302 1.85188 0
M  V30 6316 C 592.478 5.96631 1.68616 0
M  V30 6317 C 594.533 4.61932 1.85805 0
M  V30 6318 C 593.236 7.08134 1.26249 0
M  V30 6319 C 595.262 5.73389 1.44842 0
M  V30 6320 C 594.624 6.94899 1.15304 0
M  V30 6321 H 590.723 0.571951 0.533288 0
M  V30 6322 H 593.307 1.76859 0.814179 0
M  V30 6323 H 591.478 2.01143 3.32259 0
M  V30 6324 H 593.21 2.25618 3.35974 0
M  V30 6325 H 589.965 4.05618 2.44482 0
M  V30 6326 H 590.389 6.56049 1.67119 0
M  V30 6327 H 595.031 3.68494 2.07298 0
M  V30 6328 H 592.749 8.01445 1.035 0
M  V30 6329 H 596.335 5.65886 1.35146 0
M  V30 6330 H 595.215 7.79679 0.840854 0
M  V30 6331 N 592.718 -0.936591 1.26751 0
M  V30 6332 C 593.666 -2.0573 1.08527 0
M  V30 6333 C 594.66 -1.69397 0.0108784 0
M  V30 6334 O 595.866 -1.79215 0.167915 0
M  V30 6335 H 592.241 -0.673691 0.334133 0
M  V30 6336 H 594.212 -2.1825 2.03493 0
M  V30 6337 C 592.961 -3.39738 0.739845 0
M  V30 6338 H 592.284 -3.68174 1.55845 0
M  V30 6339 H 593.724 -4.18955 0.652149 0
M  V30 6340 C 592.183 -3.32292 -0.555288 0
M  V30 6341 O 592.713 -3.68794 -1.59229 0
M  V30 6342 N 590.919 -2.85394 -0.54762 0
M  V30 6343 H 590.466 -2.55886 0.296667 0
M  V30 6344 H 590.424 -2.80795 -1.41427 0
M  V30 6345 N 594.196 -1.08629 -1.14182 0
M  V30 6346 C 595.126 -0.740003 -2.21464 0
M  V30 6347 C 596.107 0.278591 -1.67803 0
M  V30 6348 O 597.292 0.148461 -1.93632 0
M  V30 6349 C 594.422 -0.150952 -3.46972 0
M  V30 6350 C 593.376 -1.09815 -4.13672 0
M  V30 6351 C 592.702 -0.3712 -5.3341 0
M  V30 6352 C 594.002 -2.43722 -4.61949 0
M  V30 6353 H 595.696 -1.63697 -2.50686 0
M  V30 6354 H 593.242 -0.788526 -1.20492 0
M  V30 6355 H 595.195 0.103325 -4.21273 0
M  V30 6356 H 593.919 0.781164 -3.1712 0
M  V30 6357 H 592.578 -1.33756 -3.41328 0
M  V30 6358 H 592.226 0.564792 -4.99819 0
M  V30 6359 H 591.926 -1.00267 -5.78982 0
M  V30 6360 H 593.45 -0.12503 -6.10472 0
M  V30 6361 H 594.864 -2.24034 -5.27714 0
M  V30 6362 H 593.261 -3.02582 -5.18232 0
M  V30 6363 H 594.331 -3.05082 -3.76899 0
M  V30 6364 N 595.674 1.31259 -0.872281 0
M  V30 6365 C 596.584 2.32221 -0.333255 0
M  V30 6366 C 597.6 1.6481 0.558013 0
M  V30 6367 O 598.776 1.96212 0.454175 0
M  V30 6368 C 595.841 3.43708 0.454479 0
M  V30 6369 C 594.902 4.26774 -0.465024 0
M  V30 6370 C 594.135 5.32937 0.28521 0
M  V30 6371 O 594.358 5.49968 1.513 0
M  V30 6372 O 593.292 6.00834 -0.358126 0
M  V30 6373 H 597.118 2.80252 -1.17016 0
M  V30 6374 H 594.703 1.352 -0.635724 0
M  V30 6375 H 596.585 4.11656 0.900963 0
M  V30 6376 H 595.26 2.97836 1.26789 0
M  V30 6377 H 594.167 3.61571 -0.960055 0
M  V30 6378 H 595.5 4.76217 -1.2441 0
M  V30 6379 N 597.152 0.631951 1.44375 0
M  V30 6380 C 598.084 -0.110911 2.28931 0
M  V30 6381 C 599.097 -0.808086 1.41329 0
M  V30 6382 O 600.286 -0.669396 1.65473 0
M  V30 6383 C 597.386 -1.17928 3.1772 0
M  V30 6384 C 596.559 -0.564458 4.33743 0
M  V30 6385 C 595.618 -1.5269 5.0356 0
M  V30 6386 O 594.644 -1.04372 5.59549 0
M  V30 6387 N 595.846 -2.86123 5.05088 0
M  V30 6388 H 598.611 0.614758 2.93327 0
M  V30 6389 H 596.172 0.473171 1.54831 0
M  V30 6390 H 598.164 -1.82348 3.61291 0
M  V30 6391 H 596.734 -1.80717 2.55069 0
M  V30 6392 H 595.954 0.258373 3.93352 0
M  V30 6393 H 597.242 -0.134355 5.08623 0
M  V30 6394 H 596.64 -3.27959 4.60933 0
M  V30 6395 H 595.197 -3.45901 5.52445 0
M  V30 6396 N 598.631 -1.53133 0.372548 0
M  V30 6397 C 600.047 -1.59585 0.02178 0
M  V30 6398 C 600.247 -1.38736 -1.46132 0
M  V30 6399 O 599.303 -1.19599 -2.22379 0
M  V30 6400 C 600.616 -2.9678 0.483959 0
M  V30 6401 C 602.164 -3.09909 0.438775 0
M  V30 6402 C 602.639 -4.49527 0.876876 0
M  V30 6403 N 604.13 -4.55663 0.832214 0
M  V30 6404 C 604.865 -5.61896 1.14281 0
M  V30 6405 N 604.361 -6.75852 1.52303 0
M  V30 6406 N 606.154 -5.51916 1.06515 0
M  V30 6407 H 598.305 -1.64936 1.33827 0
M  V30 6408 H 600.568 -0.773947 0.547458 0
M  V30 6409 H 600.274 -3.17198 1.51915 0
M  V30 6410 H 600.148 -3.7699 -0.125784 0
M  V30 6411 H 602.535 -2.89197 -0.587294 0
M  V30 6412 H 602.616 -2.31691 1.0841 0
M  V30 6413 H 602.26 -4.70979 1.90109 0
M  V30 6414 H 602.19 -5.26186 0.208727 0
M  V30 6415 H 604.681 -3.73844 0.552195 0
M  V30 6416 H 604.994 -7.52862 1.7441 0
M  V30 6417 H 603.339 -6.77226 1.56175 0
M  V30 6418 H 606.53 -4.6177 0.767235 0
M  V30 6419 H 606.703 -6.34609 1.31053 0
M  V30 6420 N 600.109 -0.101901 -1.5727 0
M  V30 6421 C 601.386 0.602832 -1.86079 0
M  V30 6422 C 601.766 1.85912 -1 0
M  V30 6423 O 601.114 2.28379 -0.0742488 0
M  V30 6424 C 601.324 0.911694 -3.36881 0
M  V30 6425 C 602.672 1.2722 -4.05093 0
M  V30 6426 O 603.696 1.0025 -3.41802 0
M  V30 6427 O 602.555 1.7776 -5.16782 0
M  V30 6428 H 599.649 0.302366 -0.769743 0
M  V30 6429 H 602.195 -0.135113 -1.69161 0
M  V30 6430 H 600.967 0.0207256 -3.91295 0
M  V30 6431 H 600.59 1.70538 -3.59169 0
M  V30 6432 N 601.587 1.56661 0.17182 0
M  V30 6433 C 602.835 1.81606 0.886774 0
M  V30 6434 C 603.156 0.678818 1.82803 0
M  V30 6435 O 602.426 -0.301354 1.93568 0
M  V30 6436 H 601.006 0.669934 0.330451 0
M  V30 6437 H 603.668 1.94142 0.171757 0
M  V30 6438 H 602.764 2.75634 1.46398 0
M  V30 6439 N 603.065 -0.440357 1.51323 0
M  V30 6440 C 604.012 -1.53429 1.72419 0
M  V30 6441 C 604.982 -1.56165 0.565826 0
M  V30 6442 O 606.167 -1.73222 0.799917 0
M  V30 6443 C 603.307 -2.91169 1.85242 0
M  V30 6444 C 602.42 -2.97985 3.12777 0
M  V30 6445 C 601.555 -4.26829 3.16212 0
M  V30 6446 C 600.594 -4.27501 4.38074 0
M  V30 6447 N 599.731 -5.47866 4.39076 0
M  V30 6448 H 604.571 -1.34743 2.65797 0
M  V30 6449 H 602.108 -0.654608 1.31732 0
M  V30 6450 H 604.066 -3.71087 1.90658 0
M  V30 6451 H 602.696 -3.0842 0.952744 0
M  V30 6452 H 601.748 -2.10749 3.16685 0
M  V30 6453 H 603.06 -2.94342 4.02696 0
M  V30 6454 H 602.214 -5.15118 3.20527 0
M  V30 6455 H 600.953 -4.33124 2.24176 0
M  V30 6456 H 599.958 -3.37606 4.33938 0
M  V30 6457 H 601.183 -4.22873 5.31371 0
M  V30 6458 H 599.129 -5.54887 3.49909 0
M  V30 6459 H 599.046 -5.46091 5.22801 0
M  V30 6460 H 600.314 -6.38195 4.4758 0
M  V30 6461 N 604.543 -1.41418 -0.695603 0
M  V30 6462 C 605.771 -1.4413 -1.48439 0
M  V30 6463 C 606.186 -0.0465698 -1.88743 0
M  V30 6464 O 605.543 0.934117 -1.56782 0
M  V30 6465 C 605.594 -2.34998 -2.74696 0
M  V30 6466 O 605.315 -3.69043 -2.36091 0
M  V30 6467 C 606.816 -2.46513 -3.68438 0
M  V30 6468 H 604.036 -0.490905 -0.457442 0
M  V30 6469 H 606.58 -1.85702 -0.856454 0
M  V30 6470 H 604.735 -1.96735 -3.33728 0
M  V30 6471 H 605.149 -4.17505 -3.17474 0
M  V30 6472 H 606.623 -3.1426 -4.53811 0
M  V30 6473 H 607.1 -1.49638 -4.12922 0
M  V30 6474 H 607.706 -2.85412 -3.1531 0
M  V30 6475 N 606.021 0.929856 -1.27246 0
M  V30 6476 C 607.269 1.674 -1.13233 0
M  V30 6477 C 607.59 1.92311 0.322744 0
M  V30 6478 O 606.86 1.52784 1.22612 0
M  V30 6479 H 605.44 0.620411 -0.416052 0
M  V30 6480 H 608.102 1.11663 -1.59741 0
M  V30 6481 H 607.198 2.64308 -1.65975 0
M  V30 6482 N 607.499 1.09233 1.13605 0
M  V30 6483 C 608.409 0.741939 2.22559 0
M  V30 6484 C 609.425 -0.255236 1.72118 0
M  V30 6485 O 610.601 -0.0970747 2.01166 0
M  V30 6486 C 607.666 0.165595 3.46304 0
M  V30 6487 C 606.727 1.21846 4.11645 0
M  V30 6488 C 605.96 0.669526 5.29484 0
M  V30 6489 O 606.183 -0.508228 5.68131 0
M  V30 6490 O 605.117 1.42361 5.84822 0
M  V30 6491 H 608.943 1.65107 2.54899 0
M  V30 6492 H 606.528 0.866584 1.21699 0
M  V30 6493 H 608.41 -0.152592 4.21124 0
M  V30 6494 H 607.085 -0.716573 3.15669 0
M  V30 6495 H 605.992 1.58931 3.38662 0
M  V30 6496 H 607.325 2.07321 4.46407 0
M  V30 6497 N 608.977 -1.30795 0.87923 0
M  V30 6498 C 609.887 -2.32041 0.345565 0
M  V30 6499 C 610.903 -1.65103 -0.549265 0
M  V30 6500 O 612.079 -1.9645 -0.443763 0
M  V30 6501 C 609.144 -3.43944 -0.436245 0
M  V30 6502 C 608.205 -4.26521 0.48765 0
M  V30 6503 C 607.438 -5.33081 -0.256943 0
M  V30 6504 O 607.661 -5.50762 -1.48381 0
M  V30 6505 O 606.595 -6.00635 0.389985 0
M  V30 6506 H 610.421 -2.79627 1.18501 0
M  V30 6507 H 608.006 -1.3486 0.642885 0
M  V30 6508 H 609.888 -4.12128 -0.879119 0
M  V30 6509 H 608.563 -2.98504 -1.25208 0
M  V30 6510 H 607.47 -3.61057 0.979216 0
M  V30 6511 H 608.803 -4.75551 1.26933 0
M  V30 6512 N 610.455 -0.639598 -1.44038 0
M  V30 6513 C 611.683 -0.154811 -2.0632 0
M  V30 6514 C 612.098 1.17406 -1.47856 0
M  V30 6515 O 611.455 1.72193 -0.604638 0
M  V30 6516 C 611.506 -0.0429958 -3.61474 0
M  V30 6517 O 611.227 -1.31932 -4.17763 0
M  V30 6518 C 612.728 0.469486 -4.40807 0
M  V30 6519 H 609.948 -0.0835862 -0.665773 0
M  V30 6520 H 612.492 -0.876397 -1.84769 0
M  V30 6521 H 610.647 0.629075 -3.82258 0
M  V30 6522 H 611.061 -1.16965 -5.11292 0
M  V30 6523 H 612.535 0.496712 -5.49761 0
M  V30 6524 H 613.012 1.49819 -4.12857 0
M  V30 6525 H 613.618 -0.169624 -4.24962 0
M  V30 6526 N 611.933 1.52934 -0.380664 0
M  V30 6527 C 612.843 2.29921 0.466192 0
M  V30 6528 C 613.859 1.36488 1.07922 0
M  V30 6529 O 615.035 1.69553 1.0869 0
M  V30 6530 C 612.1 3.08468 1.58266 0
M  V30 6531 C 611.161 4.17595 0.995627 0
M  V30 6532 C 610.394 4.92387 2.05889 0
M  V30 6533 O 610.617 4.67184 3.27254 0
M  V30 6534 O 609.551 5.77949 1.68102 0
M  V30 6535 H 613.377 3.03274 -0.160735 0
M  V30 6536 H 610.962 1.48698 -0.144617 0
M  V30 6537 H 612.844 3.57469 2.23145 0
M  V30 6538 H 611.519 2.37937 2.19471 0
M  V30 6539 H 610.426 3.72811 0.310332 0
M  V30 6540 H 611.759 4.90336 0.427918 0
M  V30 6541 N 613.412 0.11024 1.57214 0
M  V30 6542 C 614.342 -0.840002 2.17867 0
M  V30 6543 C 615.323 -1.28352 1.11624 0
M  V30 6544 O 616.508 -1.3477 1.39824 0
M  V30 6545 C 613.638 -2.09349 2.77111 0
M  V30 6546 C 612.592 -1.78807 3.8886 0
M  V30 6547 C 611.918 -3.11112 4.34872 0
M  V30 6548 C 613.218 -1.0632 5.11364 0
M  V30 6549 H 614.912 -0.334608 2.97524 0
M  V30 6550 H 612.458 -0.159502 1.43114 0
M  V30 6551 H 614.411 -2.76275 3.18198 0
M  V30 6552 H 613.135 -2.62198 1.9473 0
M  V30 6553 H 611.794 -1.14273 3.48335 0
M  V30 6554 H 611.442 -3.61877 3.49362 0
M  V30 6555 H 611.142 -2.91453 5.10224 0
M  V30 6556 H 612.666 -3.79171 4.78604 0
M  V30 6557 H 614.08 -1.63383 5.49526 0
M  V30 6558 H 612.477 -0.967876 5.92243 0
M  V30 6559 H 613.547 -0.0484569 4.84876 0
M  V30 6560 N 614.89 -1.56749 -0.16351 0
M  V30 6561 C 615.822 -1.93587 -1.22705 0
M  V30 6562 C 616.835 -0.829824 -1.40063 0
M  V30 6563 O 618.024 -1.10826 -1.39928 0
M  V30 6564 C 615.124 -2.1803 -2.59454 0
M  V30 6565 C 614.297 -3.4928 -2.63292 0
M  V30 6566 C 613.356 -3.62457 -3.8146 0
M  V30 6567 O 612.382 -4.35004 -3.67096 0
M  V30 6568 N 613.584 -2.97888 -4.9824 0
M  V30 6569 H 616.349 -2.8542 -0.914081 0
M  V30 6570 H 613.91 -1.58 -0.353214 0
M  V30 6571 H 615.902 -2.24102 -3.36987 0
M  V30 6572 H 614.472 -1.32543 -2.8311 0
M  V30 6573 H 613.692 -3.54795 -1.71796 0
M  V30 6574 H 614.98 -4.35632 -2.62873 0
M  V30 6575 H 614.378 -2.38833 -5.12811 0
M  V30 6576 H 612.935 -3.09545 -5.73607 0
M  V30 6577 N 616.368 0.432326 -1.51554 0
M  V30 6578 C 617.298 1.53242 -1.76179 0
M  V30 6579 C 618.279 1.58717 -0.611801 0
M  V30 6580 O 619.464 1.74364 -0.855033 0
M  V30 6581 C 616.594 2.91278 -1.89141 0
M  V30 6582 C 615.548 3.00663 -3.04608 0
M  V30 6583 C 614.874 4.40728 -3.02759 0
M  V30 6584 C 616.174 2.74281 -4.44485 0
M  V30 6585 H 617.868 1.32886 -2.68294 0
M  V30 6586 H 615.414 0.637841 -1.29103 0
M  V30 6587 H 617.367 3.68203 -2.04951 0
M  V30 6588 H 616.091 3.12877 -0.936785 0
M  V30 6589 H 614.75 2.26179 -2.88511 0
M  V30 6590 H 614.398 4.59301 -2.05065 0
M  V30 6591 H 614.098 4.47936 -3.80299 0
M  V30 6592 H 615.622 5.19619 -3.20669 0
M  V30 6593 H 617.036 3.40936 -4.60907 0
M  V30 6594 H 615.433 2.92893 -5.23769 0
M  V30 6595 H 616.503 1.69856 -4.54177 0
M  V30 6596 N 617.846 1.41785 0.688094 0
M  V30 6597 C 619.071 1.45117 1.48175 0
M  V30 6598 C 619.496 0.060129 1.88004 0
M  V30 6599 O 618.854 -0.938385 1.55126 0
M  V30 6600 C 618.902 2.37224 2.71583 0
M  V30 6601 O 618.006 1.83443 3.69354 0
M  V30 6602 H 617.347 0.492208 0.445676 0
M  V30 6603 H 619.877 1.86329 0.845145 0
M  V30 6604 H 619.887 2.53353 3.19806 0
M  V30 6605 H 618.562 3.38293 2.41931 0
M  V30 6606 H 617.139 1.76802 3.28322 0
M  V30 6607 N 619.324 -0.923095 1.27737 0
M  V30 6608 C 620.254 -2.04124 1.13383 0
M  V30 6609 C 621.235 -1.70066 0.0340658 0
M  V30 6610 O 622.42 -1.93068 0.209383 0
M  V30 6611 C 619.55 -3.3831 0.785097 0
M  V30 6612 C 618.504 -3.86496 1.8386 0
M  V30 6613 C 617.83 -5.1754 1.34373 0
M  V30 6614 C 619.13 -4.09381 3.24353 0
M  V30 6615 H 620.824 -2.1639 2.06919 0
M  V30 6616 H 618.37 -1.03976 0.996243 0
M  V30 6617 H 620.323 -4.16016 0.671485 0
M  V30 6618 H 619.047 -3.2607 -0.185969 0
M  V30 6619 H 617.706 -3.10987 1.9412 0
M  V30 6620 H 617.354 -5.01696 0.361989 0
M  V30 6621 H 617.054 -5.50751 2.04811 0
M  V30 6622 H 618.578 -5.97811 1.24315 0
M  V30 6623 H 619.992 -4.77641 3.17067 0
M  V30 6624 H 618.389 -4.53906 3.92542 0
M  V30 6625 H 619.459 -3.14515 3.69064 0
M  V30 6626 N 620.802 -1.09834 -1.13024 0
M  V30 6627 C 621.732 -0.763451 -2.20666 0
M  V30 6628 C 622.713 0.260778 -1.68089 0
M  V30 6629 O 623.898 0.127915 -1.93778 0
M  V30 6630 C 621.028 -0.187744 -3.46792 0
M  V30 6631 C 619.982 -1.14196 -4.12484 0
M  V30 6632 C 619.308 -0.427755 -5.32986 0
M  V30 6633 C 620.608 -2.48607 -4.59338 0
M  V30 6634 H 622.302 -1.66347 -2.48936 0
M  V30 6635 H 619.848 -0.801261 -1.19649 0
M  V30 6636 H 621.801 0.0586375 -4.21359 0
M  V30 6637 H 620.525 0.747485 -3.17931 0
M  V30 6638 H 619.184 -1.37369 -3.3989 0
M  V30 6639 H 618.832 0.511747 -5.0039 0
M  V30 6640 H 618.532 -1.06403 -5.77886 0
M  V30 6641 H 620.056 -0.189772 -6.10305 0
M  V30 6642 H 621.47 -2.29618 -5.25308 0
M  V30 6643 H 619.867 -3.08062 -5.14993 0
M  V30 6644 H 620.937 -3.09062 -3.73642 0
M  V30 6645 N 622.28 1.30327 -0.886154 0
M  V30 6646 C 623.528 1.9571 -0.504195 0
M  V30 6647 C 623.849 1.70294 0.950003 0
M  V30 6648 O 623.119 1.02718 1.66811 0
M  V30 6649 H 621.699 0.72412 -0.183465 0
M  V30 6650 H 624.361 1.58835 -1.12949 0
M  V30 6651 H 623.457 3.04704 -0.675431 0
M  V30 6652 N 623.758 0.647228 1.43697 0
M  V30 6653 C 624.983 0.164083 2.0675 0
M  V30 6654 C 625.408 -1.15892 1.48158 0
M  V30 6655 O 624.766 -1.71459 0.589194 0
M  V30 6656 C 624.814 0.0800368 3.60511 0
M  V30 6657 O 623.918 -0.959453 4.01084 0
M  V30 6658 H 623.259 0.0921288 0.657578 0
M  V30 6659 H 625.789 0.88846 1.84303 0
M  V30 6660 H 625.799 -0.105263 4.07864 0
M  V30 6661 H 624.474 1.04586 4.02535 0
M  V30 6662 H 623.051 -0.747425 3.65333 0
M  V30 6663 N 625.236 -1.5273 0.388769 0
M  V30 6664 C 626.168 -2.24081 -0.481704 0
M  V30 6665 C 627.181 -1.26307 -1.02715 0
M  V30 6666 O 628.37 -1.52386 -0.929565 0
M  V30 6667 C 625.47 -2.94315 -1.68024 0
M  V30 6668 C 624.643 -4.18791 -1.26226 0
M  V30 6669 C 623.702 -4.72028 -2.32542 0
M  V30 6670 O 622.728 -5.35129 -1.93972 0
M  V30 6671 N 623.93 -4.51838 -3.64448 0
M  V30 6672 H 626.695 -2.9942 0.129591 0
M  V30 6673 H 624.256 -1.60465 0.2151 0
M  V30 6674 H 626.248 -3.26831 -2.38671 0
M  V30 6675 H 624.818 -2.22287 -2.19789 0
M  V30 6676 H 624.038 -3.92318 -0.384703 0
M  V30 6677 H 625.326 -4.99668 -0.959647 0
M  V30 6678 H 624.724 -4.01468 -3.98547 0
M  V30 6679 H 623.281 -4.88845 -4.31131 0
M  V30 6680 N 626.714 -0.118576 -1.57153 0
M  V30 6681 C 627.991 0.583062 -1.86708 0
M  V30 6682 C 628.371 1.84841 -1.01967 0
M  V30 6683 O 627.719 2.28288 -0.0984673 0
M  V30 6684 C 627.929 0.875912 -3.3783 0
M  V30 6685 C 629.277 1.22916 -4.0642 0
M  V30 6686 O 630.301 0.966188 -3.42846 0
M  V30 6687 O 629.16 1.72269 -5.18638 0
M  V30 6688 H 626.254 0.294185 -0.772906 0
M  V30 6689 H 628.8 -0.153048 -1.69008 0
M  V30 6690 H 627.572 -0.0207776 -3.91294 0
M  V30 6691 H 627.195 1.66719 -3.60958 0
M  V30 6692 N 628.193 1.56834 0.155195 0
M  V30 6693 C 629.103 2.009 1.21146 0
M  V30 6694 C 630.119 0.923029 1.475 0
M  V30 6695 O 631.295 1.23189 1.59331 0
M  V30 6696 C 628.36 2.37378 2.52691 0
M  V30 6697 C 627.421 3.59883 2.34057 0
M  V30 6698 C 626.654 3.94612 3.59329 0
M  V30 6699 O 626.877 3.30104 4.65175 0
M  V30 6700 O 625.811 4.87895 3.52479 0
M  V30 6701 H 629.637 2.9105 0.867371 0
M  V30 6702 H 627.222 1.44916 0.363298 0
M  V30 6703 H 629.104 2.61737 3.3026 0
M  V30 6704 H 627.779 1.50385 2.86646 0
M  V30 6705 H 626.686 3.40722 1.54465 0
M  V30 6706 H 628.019 4.47468 2.0502 0
M  V30 6707 N 629.671 -0.424282 1.51781 0
M  V30 6708 C 630.92 -1.16961 1.64326 0
M  V30 6709 C 631.233 -1.92035 0.371749 0
M  V30 6710 O 632.439 -2.68873 0.37676 0
M  V30 6711 C 630.895 -2.12782 2.90262 0
M  V30 6712 C 630.503 -1.43295 4.24465 0
M  V30 6713 C 632.247 -2.87667 3.12166 0
M  V30 6714 C 630.154 -2.37676 5.41538 0
M  V30 6715 H 629.084 -0.440293 0.612093 0
M  V30 6716 H 631.735 -0.435431 1.78259 0
M  V30 6717 H 630.117 -2.8969 2.69992 0
M  V30 6718 H 631.291 -0.718564 4.55163 0
M  V30 6719 H 629.606 -0.805118 4.08542 0
M  V30 6720 H 632.203 -3.58395 3.96808 0
M  V30 6721 H 632.546 -3.49758 2.25776 0
M  V30 6722 H 633.079 -2.17863 3.32837 0
M  V30 6723 H 629.818 -1.80255 6.30229 0
M  V30 6724 H 629.338 -3.07132 5.15199 0
M  V30 6725 H 631.017 -2.98529 5.74012 0
M  V30 6726 N 631.149 -1.42148 -0.680565 0
M  V30 6727 C 632.112 -1.4488 -1.77602 0
M  V30 6728 C 633.112 -0.337209 -1.57224 0
M  V30 6729 O 634.302 -0.597778 -1.63622 0
M  V30 6730 C 631.434 -1.27483 -3.16166 0
M  V30 6731 H 632.627 -2.42412 -1.76568 0
M  V30 6732 H 630.18 -1.28511 -0.889645 0
M  V30 6733 H 630.915 -0.30851 -3.22829 0
M  V30 6734 H 630.7 -2.08037 -3.3236 0
M  V30 6735 H 632.19 -1.32265 -3.96101 0
M  V30 6736 N 632.627 0.916307 -1.28225 0
M  V30 6737 C 633.537 2.05165 -1.13775 0
M  V30 6738 C 634.553 1.73879 -0.0649418 0
M  V30 6739 O 635.729 1.99531 -0.273722 0
M  V30 6740 C 632.794 3.37385 -0.798267 0
M  V30 6741 C 631.855 3.82296 -1.95316 0
M  V30 6742 C 631.088 5.08206 -1.62978 0
M  V30 6743 O 631.311 5.6781 -0.542948 0
M  V30 6744 O 630.245 5.48768 -2.47261 0
M  V30 6745 H 634.071 2.20273 -2.09078 0
M  V30 6746 H 631.656 1.0373 -1.07519 0
M  V30 6747 H 633.538 4.16773 -0.62278 0
M  V30 6748 H 632.213 3.23458 0.125139 0
M  V30 6749 H 631.12 3.03746 -2.18378 0
M  V30 6750 H 632.453 4.00782 -2.85718 0
M  V30 6751 N 634.105 1.10431 1.1244 0
M  V30 6752 C 635.351 0.847972 1.84221 0
M  V30 6753 C 635.684 -0.624903 1.83871 0
M  V30 6754 O 634.959 -1.46074 1.28423 0
M  V30 6755 C 635.242 1.39695 3.319 0
M  V30 6756 C 635.095 2.93668 3.40704 0
M  V30 6757 C 636.414 1.03924 4.27654 0
M  V30 6758 H 633.533 0.309502 0.668863 0
M  V30 6759 H 636.175 1.36745 1.31912 0
M  V30 6760 H 634.325 0.955095 3.76577 0
M  V30 6761 H 635.997 3.46379 3.04662 0
M  V30 6762 H 634.24 3.30272 2.81252 0
M  V30 6763 H 634.911 3.27162 4.446 0
M  V30 6764 H 637.387 1.42049 3.91102 0
M  V30 6765 H 636.263 1.45027 5.29394 0
M  V30 6766 H 636.524 -0.051336 4.4207 0
M  V30 6767 N 635.583 -1.29855 0.893053 0
M  V30 6768 C 636.831 -1.9544 0.514566 0
M  V30 6769 C 637.152 -1.70795 -0.940959 0
M  V30 6770 O 636.422 -1.03601 -1.66264 0
M  V30 6771 H 635.002 -0.723137 0.187302 0
M  V30 6772 H 637.664 -1.58234 1.13789 0
M  V30 6773 H 636.76 -3.04341 0.691581 0
M  V30 6774 N 637.061 -0.65484 -1.43351 0
M  V30 6775 C 638.308 -0.168892 -2.01794 0
M  V30 6776 C 638.636 1.2177 -1.51665 0
M  V30 6777 O 637.891 1.82717 -0.70092 0
M  V30 6778 C 638.19 -0.130424 -3.57162 0
M  V30 6779 C 637.856 -1.45898 -4.26643 0
M  V30 6780 C 636.518 -1.82279 -4.4534 0
M  V30 6781 C 638.87 -2.33485 -4.65976 0
M  V30 6782 C 636.198 -3.0591 -5.00635 0
M  V30 6783 C 638.55 -3.5641 -5.22642 0
M  V30 6784 C 637.214 -3.92985 -5.39555 0
M  V30 6785 H 636.484 -0.061802 -0.738418 0
M  V30 6786 H 639.131 -0.845869 -1.71806 0
M  V30 6787 H 637.436 0.630008 -3.86702 0
M  V30 6788 H 639.133 0.262465 -4.0014 0
M  V30 6789 H 635.723 -1.16591 -4.12437 0
M  V30 6790 H 639.907 -2.06668 -4.51223 0
M  V30 6791 H 635.163 -3.34295 -5.11915 0
M  V30 6792 H 639.337 -4.24495 -5.52066 0
M  V30 6793 H 636.964 -4.88862 -5.82167 0
M  V30 6794 N 638.539 1.52521 -0.396863 0
M  V30 6795 C 639.95 1.86547 0.0754868 0
M  V30 6796 C 640.301 1.31621 1.45501 0
M  V30 6797 O 639.426 0.650563 2.0639 0
M  V30 6798 C 640.021 3.38495 0.143754 0
M  V30 6799 C 638.58 3.72205 0.560413 0
M  V30 6800 C 637.727 2.75954 -0.272856 0
M  V30 6801 H 640.678 1.46323 -0.614434 0
M  V30 6802 H 640.699 3.68153 0.961425 0
M  V30 6803 H 640.211 3.78442 -0.860415 0
M  V30 6804 H 638.312 3.3783 1.57167 0
M  V30 6805 H 638.425 4.78074 0.313314 0
M  V30 6806 H 636.789 2.53339 0.263 0
M  V30 6807 H 637.572 3.1874 -1.27515 0
M  V30 6808 N 640.017 0.126909 1.57088 0
M  V30 6809 C 641.247 -0.535892 1.99529 0
M  V30 6810 C 641.655 -1.60259 1.00566 0
M  V30 6811 O 640.998 -1.83698 -0.00843269 0
M  V30 6812 C 641.06 -1.21374 3.38391 0
M  V30 6813 C 640.724 -0.294044 4.56053 0
M  V30 6814 C 641.721 0.470454 5.17767 0
M  V30 6815 C 639.406 -0.202808 5.0189 0
M  V30 6816 C 641.4 1.31384 6.23712 0
M  V30 6817 C 639.087 0.644203 6.07695 0
M  V30 6818 C 640.085 1.40115 6.68473 0
M  V30 6819 O 639.773 2.23408 7.72233 0
M  V30 6820 H 639.505 -0.145799 0.66009 0
M  V30 6821 H 642.059 0.212441 2.04298 0
M  V30 6822 H 640.289 -2.00931 3.30399 0
M  V30 6823 H 641.978 -1.77424 3.65069 0
M  V30 6824 H 642.744 0.409884 4.83265 0
M  V30 6825 H 638.623 -0.781688 4.54324 0
M  V30 6826 H 642.167 1.90514 6.71081 0
M  V30 6827 H 638.064 0.706137 6.41626 0
M  V30 6828 H 638.832 2.16436 7.89365 0
M  V30 6829 N 641.495 -1.56914 -0.146875 0
M  V30 6830 C 642.742 -1.83356 -0.859467 0
M  V30 6831 C 643.07 -0.707811 -1.81164 0
M  V30 6832 O 642.325 0.303155 -1.93338 0
M  V30 6833 C 642.624 -3.16128 -1.66727 0
M  V30 6834 C 642.29 -4.42586 -0.861881 0
M  V30 6835 C 640.952 -4.76929 -0.639687 0
M  V30 6836 C 643.304 -5.20344 -0.298643 0
M  V30 6837 C 640.632 -5.86491 0.156451 0
M  V30 6838 C 642.984 -6.30742 0.484536 0
M  V30 6839 C 641.648 -6.63635 0.717306 0
M  V30 6840 H 640.918 -0.670947 -0.314501 0
M  V30 6841 H 643.565 -1.91104 -0.123108 0
M  V30 6842 H 641.87 -3.03831 -2.47374 0
M  V30 6843 H 643.567 -3.33802 -2.2221 0
M  V30 6844 H 640.157 -4.15662 -1.04513 0
M  V30 6845 H 644.341 -4.94186 -0.457585 0
M  V30 6846 H 639.597 -6.10419 0.346292 0
M  V30 6847 H 643.771 -6.90188 0.928105 0
M  V30 6848 H 641.398 -7.48367 1.33607 0
M  V30 6849 N 642.974 0.416227 -1.52004 0
M  V30 6850 C 644.222 1.16153 -1.65387 0
M  V30 6851 C 644.543 1.91208 -0.382669 0
M  V30 6852 O 643.813 1.86413 0.602231 0
M  V30 6853 H 642.393 0.431765 -0.60958 0
M  V30 6854 H 645.055 0.475151 -1.89019 0
M  V30 6855 H 644.151 1.87952 -2.4916 0
M  V30 6856 N 644.452 1.42507 0.673017 0
M  V30 6857 C 645.7 1.42789 1.43023 0
M  V30 6858 C 646.021 0.0459738 1.94946 0
M  V30 6859 O 645.291 -0.915765 1.73178 0
M  V30 6860 H 643.871 0.525657 0.530748 0
M  V30 6861 H 646.533 1.77944 0.795113 0
M  V30 6862 H 645.629 2.12872 2.28237 0
M  V30 6863 N 645.93 -0.909495 1.28709 0
M  V30 6864 C 647.207 -1.63865 1.06806 0
M  V30 6865 C 647.587 -2.07445 -0.391143 0
M  V30 6866 O 646.935 -1.82269 -1.37805 0
M  V30 6867 C 647.145 -2.82692 2.04661 0
M  V30 6868 C 648.493 -3.5361 2.35042 0
M  V30 6869 O 649.517 -2.92847 2.02779 0
M  V30 6870 O 648.376 -4.63131 2.90124 0
M  V30 6871 H 645.47 -0.719065 0.408502 0
M  V30 6872 H 648.016 -0.958424 1.40044 0
M  V30 6873 H 646.788 -2.47614 3.0299 0
M  V30 6874 H 646.411 -3.58426 1.72095 0
M  V30 6875 N 647.408 -1.11026 -1.11852 0
M  V30 6876 C 648.656 -0.854769 -1.83134 0
M  V30 6877 C 648.977 0.621375 -1.84835 0
M  V30 6878 O 648.247 1.45129 -1.31584 0
M  V30 6879 H 646.827 -0.313229 -0.678157 0
M  V30 6880 H 649.489 -1.40178 -1.35411 0
M  V30 6881 H 648.585 -1.22311 -2.87135 0
M  V30 6882 N 648.886 1.2938 -0.899927 0
M  V30 6883 C 650.114 1.99691 -0.541386 0
M  V30 6884 C 650.529 1.67355 0.873936 0
M  V30 6885 O 649.886 0.918728 1.57688 0
M  V30 6886 C 649.937 3.54168 -0.72438 0
M  V30 6887 O 649.658 3.85359 -2.08399 0
M  V30 6888 C 651.159 4.41746 -0.370819 0
M  V30 6889 H 648.379 0.638037 -0.207726 0
M  V30 6890 H 650.923 1.6491 -1.20934 0
M  V30 6891 H 649.078 3.87261 -0.103607 0
M  V30 6892 H 649.492 4.80032 -2.11352 0
M  V30 6893 H 650.966 5.49256 -0.549693 0
M  V30 6894 H 651.443 4.33712 0.692148 0
M  V30 6895 H 652.049 4.14125 -0.968543 0
M  V30 6896 N 650.364 0.662433 1.43002 0
M  V30 6897 C 651.274 -0.0239199 2.34588 0
M  V30 6898 C 652.29 -0.802255 1.54402 0
M  V30 6899 O 653.466 -0.747401 1.87018 0
M  V30 6900 C 650.531 -0.972098 3.32793 0
M  V30 6901 C 649.592 -0.189673 4.28881 0
M  V30 6902 C 648.825 -1.09269 5.22395 0
M  V30 6903 O 649.048 -2.33209 5.20547 0
M  V30 6904 O 647.982 -0.560136 5.99288 0
M  V30 6905 H 651.808 0.730171 2.94792 0
M  V30 6906 H 649.393 0.422635 1.43297 0
M  V30 6907 H 651.275 -1.51676 3.93157 0
M  V30 6908 H 649.95 -1.70626 2.75079 0
M  V30 6909 H 648.857 0.398794 3.71968 0
M  V30 6910 H 650.19 0.50511 4.89601 0
M  V30 6911 N 651.842 -1.52309 0.404946 0
M  V30 6912 C 652.792 -2.23717 -0.439864 0
M  V30 6913 C 653.776 -1.24692 -1.0169 0
M  V30 6914 O 654.968 -1.49951 -0.940409 0
M  V30 6915 C 652.097 -3.05898 -1.55825 0
M  V30 6916 C 651.183 -4.12331 -0.992188 0
M  V30 6917 N 651.574 -5.0557 -0.152424 0
M  V30 6918 C 649.872 -4.2774 -1.26312 0
M  V30 6919 C 650.573 -5.81474 0.162041 0
M  V30 6920 N 649.549 -5.41767 -0.44601 0
M  V30 6921 H 653.351 -2.93162 0.208084 0
M  V30 6922 H 650.865 -1.60969 0.215131 0
M  V30 6923 H 652.862 -3.55605 -2.17603 0
M  V30 6924 H 651.522 -2.37991 -2.20886 0
M  V30 6925 H 652.533 -5.17468 0.211556 0
M  V30 6926 H 649.21 -3.71062 -1.91362 0
M  V30 6927 H 650.6 -6.66585 0.843423 0
M  V30 6928 N 653.32 -0.135238 -1.57019 0
M  V30 6929 C 654.567 0.518794 -1.95742 0
M  V30 6930 C 654.895 1.65642 -1.01947 0
M  V30 6931 O 654.15 1.95645 -0.0464016 0
M  V30 6932 C 654.449 1.07694 -3.40788 0
M  V30 6933 C 654.115 0.058992 -4.50861 0
M  V30 6934 C 652.777 -0.220872 -4.80693 0
M  V30 6935 C 655.129 -0.633856 -5.17331 0
M  V30 6936 C 652.457 -1.19959 -5.74305 0
M  V30 6937 C 654.809 -1.60131 -6.11997 0
M  V30 6938 C 653.473 -1.889 -6.40213 0
M  V30 6939 H 652.743 0.18984 -0.716269 0
M  V30 6940 H 655.39 -0.219581 -1.90237 0
M  V30 6941 H 653.695 1.89241 -3.43067 0
M  V30 6942 H 655.392 1.59137 -3.68071 0
M  V30 6943 H 651.982 0.287304 -4.27636 0
M  V30 6944 H 656.166 -0.430823 -4.94427 0
M  V30 6945 H 651.422 -1.42905 -5.94465 0
M  V30 6946 H 655.596 -2.14376 -6.62583 0
M  V30 6947 H 653.223 -2.64891 -7.12556 0
M  V30 6948 N 654.798 1.5699 0.138552 0
M  V30 6949 C 655.746 1.99858 1.18994 0
M  V30 6950 C 656.74 0.89231 1.43994 0
M  V30 6951 O 657.946 1.0775 1.44187 0
M  V30 6952 H 654.321 0.636325 0.400743 0
M  V30 6953 H 656.292 2.87427 0.801755 0
M  V30 6954 C 655.041 2.40235 2.51361 0
M  V30 6955 H 654.364 3.24917 2.32957 0
M  V30 6956 H 655.804 2.74045 3.23535 0
M  V30 6957 C 654.263 1.25829 3.1252 0
M  V30 6958 O 654.793 0.563604 3.97727 0
M  V30 6959 N 652.999 1.02036 2.72097 0
M  V30 6960 H 652.546 1.58705 2.02905 0
M  V30 6961 H 652.504 0.256796 3.1335 0
M  V30 6962 N 656.276 -0.40816 1.52223 0
M  V30 6963 C 657.223 -1.49737 1.75635 0
M  V30 6964 C 658.193 -1.5493 0.598824 0
M  V30 6965 O 659.378 -1.71487 0.83648 0
M  V30 6966 C 656.518 -2.87174 1.91376 0
M  V30 6967 C 655.631 -2.91283 3.19027 0
M  V30 6968 C 654.766 -4.20026 3.25195 0
M  V30 6969 C 653.805 -4.18113 4.47044 0
M  V30 6970 N 652.942 -5.38429 4.50598 0
M  V30 6971 H 657.782 -1.29075 2.68596 0
M  V30 6972 H 655.319 -0.626518 1.33091 0
M  V30 6973 H 657.277 -3.66959 1.98486 0
M  V30 6974 H 655.907 -3.06329 1.01795 0
M  V30 6975 H 654.959 -2.03984 3.21084 0
M  V30 6976 H 656.271 -2.85734 4.08849 0
M  V30 6977 H 655.425 -5.08204 3.31382 0
M  V30 6978 H 654.164 -4.28271 2.33313 0
M  V30 6979 H 653.169 -3.28325 4.41002 0
M  V30 6980 H 654.394 -4.11507 5.40221 0
M  V30 6981 H 652.34 -5.4734 3.616 0
M  V30 6982 H 652.257 -5.34879 5.34266 0
M  V30 6983 H 653.525 -6.28557 4.61016 0
M  V30 6984 N 657.755 -1.42862 -0.66545 0
M  V30 6985 C 659.001 -1.44043 -1.42757 0
M  V30 6986 C 659.334 -0.0599629 -1.94107 0
M  V30 6987 O 658.609 0.917286 -1.71511 0
M  V30 6988 C 658.892 -2.47266 -2.61786 0
M  V30 6989 C 658.745 -3.94539 -2.16007 0
M  V30 6990 C 660.064 -2.47365 -3.64003 0
M  V30 6991 H 657.183 -0.524506 -0.517748 0
M  V30 6992 H 659.825 -1.74335 -0.755466 0
M  V30 6993 H 657.975 -2.21565 -3.19126 0
M  V30 6994 H 659.647 -4.31254 -1.63762 0
M  V30 6995 H 657.89 -4.07957 -1.47491 0
M  V30 6996 H 658.561 -4.62357 -3.01546 0
M  V30 6997 H 661.037 -2.70243 -3.16399 0
M  V30 6998 H 659.913 -3.21552 -4.44854 0
M  V30 6999 H 660.174 -1.50299 -4.15767 0
M  V30 7000 N 659.233 0.902656 -1.29189 0
M  V30 7001 C 660.143 2.03946 -1.15944 0
M  V30 7002 C 661.159 1.738 -0.0833803 0
M  V30 7003 O 662.335 1.9923 -0.29487 0
M  V30 7004 C 659.4 3.36519 -0.834006 0
M  V30 7005 C 658.461 3.80203 -1.9936 0
M  V30 7006 C 657.694 5.06449 -1.68359 0
M  V30 7007 O 657.917 5.67202 -0.603141 0
M  V30 7008 O 656.851 5.46114 -2.53067 0
M  V30 7009 H 660.677 2.18043 -2.11403 0
M  V30 7010 H 658.262 1.02584 -1.08613 0
M  V30 7011 H 660.144 4.16089 -0.666949 0
M  V30 7012 H 658.819 3.23573 0.0908245 0
M  V30 7013 H 657.726 3.01413 -2.21588 0
M  V30 7014 H 659.059 3.97729 -2.89952 0
M  V30 7015 N 660.711 1.11618 1.11262 0
M  V30 7016 C 661.641 0.79846 2.19424 0
M  V30 7017 C 662.622 -0.234003 1.68483 0
M  V30 7018 O 663.807 -0.0970704 1.93957 0
M  V30 7019 C 660.937 0.242892 3.4645 0
M  V30 7020 C 659.891 1.20744 4.10615 0
M  V30 7021 C 659.217 0.512494 5.32238 0
M  V30 7022 C 660.517 2.55884 4.55325 0
M  V30 7023 H 662.211 1.70286 2.46258 0
M  V30 7024 H 659.757 0.820195 1.18359 0
M  V30 7025 H 661.71 0.00840447 4.21399 0
M  V30 7026 H 660.434 -0.696811 3.1908 0
M  V30 7027 H 659.093 1.42759 3.37662 0
M  V30 7028 H 658.741 -0.432075 5.01141 0
M  V30 7029 H 658.441 1.15583 5.7612 0
M  V30 7030 H 659.965 0.286842 6.09926 0
M  V30 7031 H 661.379 2.37946 5.21588 0
M  V30 7032 H 659.776 3.16216 5.10027 0
M  V30 7033 H 660.846 3.14968 3.68678 0
M  V30 7034 N 662.189 -1.289 0.906776 0
M  V30 7035 C 663.099 -2.31256 0.394707 0
M  V30 7036 C 664.115 -1.66231 -0.514121 0
M  V30 7037 O 665.291 -1.97347 -0.401994 0
M  V30 7038 C 662.356 -3.44792 -0.363191 0
M  V30 7039 C 661.417 -4.25391 0.578012 0
M  V30 7040 C 660.65 -5.33506 -0.143811 0
M  V30 7041 O 660.873 -5.53786 -1.36665 0
M  V30 7042 O 659.807 -5.99673 0.5173 0
M  V30 7043 H 663.633 -2.77051 1.24405 0
M  V30 7044 H 661.218 -1.33466 0.671346 0
M  V30 7045 H 663.1 -4.139 -0.791503 0
M  V30 7046 H 661.775 -3.01093 -1.18848 0
M  V30 7047 H 660.682 -3.58899 1.05558 0
M  V30 7048 H 662.015 -4.72752 1.36992 0
M  V30 7049 N 663.667 -0.670007 -1.42649 0
M  V30 7050 C 664.615 0.0230106 -2.32589 0
M  V30 7051 C 665.609 0.795585 -1.49555 0
M  V30 7052 O 666.815 0.70409 -1.65658 0
M  V30 7053 H 663.19 0.0262342 -0.751542 0
M  V30 7054 H 665.161 -0.753009 -2.88743 0
M  V30 7055 C 663.91 0.963872 -3.34073 0
M  V30 7056 H 663.233 0.378813 -3.98001 0
M  V30 7057 H 664.673 1.41755 -3.99602 0
M  V30 7058 C 663.132 2.06797 -2.65964 0
M  V30 7059 O 663.662 3.15383 -2.48789 0
M  V30 7060 N 661.868 1.83831 -2.25066 0
M  V30 7061 H 661.415 0.955235 -2.39234 0
M  V30 7062 H 661.373 2.57895 -1.79827 0
M  V30 7063 N 665.145 1.52092 -0.413018 0
M  V30 7064 C 666.391 2.02154 0.161737 0
M  V30 7065 C 666.724 1.29789 1.44459 0
M  V30 7066 O 665.999 0.405378 1.90229 0
M  V30 7067 C 666.282 3.5781 0.405463 0
M  V30 7068 C 666.135 4.40819 -0.894335 0
M  V30 7069 C 667.454 4.23821 1.18591 0
M  V30 7070 H 664.573 0.734769 0.0573077 0
M  V30 7071 H 667.215 1.81948 -0.547247 0
M  V30 7072 H 665.365 3.75158 1.0094 0
M  V30 7073 H 667.037 4.35175 -1.53039 0
M  V30 7074 H 665.28 4.06877 -1.50444 0
M  V30 7075 H 665.951 5.47819 -0.678144 0
M  V30 7076 H 668.427 4.10596 0.674573 0
M  V30 7077 H 667.303 5.32663 1.3252 0
M  V30 7078 H 667.564 3.83038 2.20758 0
M  V30 7079 N 666.623 0.143563 1.56945 0
M  V30 7080 C 667.553 -0.7936 2.196 0
M  V30 7081 C 668.534 -1.25955 1.14321 0
M  V30 7082 O 669.719 -1.31773 1.42651 0
M  V30 7083 C 666.849 -2.03424 2.81489 0
M  V30 7084 C 665.803 -1.70519 3.92565 0
M  V30 7085 C 665.129 -3.01817 4.41373 0
M  V30 7086 C 666.429 -0.95449 5.13504 0
M  V30 7087 H 668.123 -0.271423 2.98167 0
M  V30 7088 H 665.669 -0.12911 1.4342 0
M  V30 7089 H 667.622 -2.69463 3.23987 0
M  V30 7090 H 666.346 -2.58008 2.00248 0
M  V30 7091 H 665.005 -1.06859 3.5068 0
M  V30 7092 H 664.653 -3.54386 3.56959 0
M  V30 7093 H 664.353 -2.80565 5.16292 0
M  V30 7094 H 665.877 -3.68934 4.86539 0
M  V30 7095 H 667.291 -1.5169 5.52868 0
M  V30 7096 H 665.688 -0.842035 5.94163 0
M  V30 7097 H 666.758 0.0544033 4.84869 0
M  V30 7098 N 668.101 -1.57061 -0.130224 0
M  V30 7099 C 669.031 -2.02552 -1.16168 0
M  V30 7100 C 670.012 -0.907971 -1.4384 0
M  V30 7101 O 671.197 -1.17693 -1.54473 0
M  V30 7102 C 668.327 -2.42035 -2.49071 0
M  V30 7103 C 667.281 -3.5713 -2.35886 0
M  V30 7104 C 666.607 -3.82478 -3.7365 0
M  V30 7105 C 667.907 -4.89236 -1.8288 0
M  V30 7106 H 669.601 -2.8897 -0.783359 0
M  V30 7107 H 667.147 -1.39021 -0.375376 0
M  V30 7108 H 669.1 -2.72462 -3.21469 0
M  V30 7109 H 667.824 -1.52573 -2.88771 0
M  V30 7110 H 666.483 -3.26895 -1.65938 0
M  V30 7111 H 666.131 -2.9024 -4.10816 0
M  V30 7112 H 665.831 -4.59944 -3.65685 0
M  V30 7113 H 667.355 -4.15347 -4.47571 0
M  V30 7114 H 668.769 -5.18272 -2.45085 0
M  V30 7115 H 667.166 -5.70624 -1.85763 0
M  V30 7116 H 668.236 -4.78494 -0.785571 0
M  V30 7117 N 669.579 0.400081 -1.52437 0
M  V30 7118 C 670.529 1.48734 -1.72807 0
M  V30 7119 C 671.513 1.50004 -0.582032 0
M  V30 7120 O 672.705 1.55828 -0.839449 0
M  V30 7121 C 669.834 2.86568 -1.89034 0
M  V30 7122 C 668.92 2.8991 -3.09537 0
M  V30 7123 N 669.311 2.62937 -4.32086 0
M  V30 7124 C 667.609 3.21078 -3.09556 0
M  V30 7125 C 668.31 2.73079 -5.13617 0
M  V30 7126 N 667.286 3.06342 -4.49061 0
M  V30 7127 H 671.088 1.26689 -2.65193 0
M  V30 7128 H 668.602 0.607902 -1.50593 0
M  V30 7129 H 670.599 3.64834 -2.01746 0
M  V30 7130 H 669.259 3.09604 -0.978547 0
M  V30 7131 H 670.27 2.37163 -4.60406 0
M  V30 7132 H 666.947 3.49651 -2.28146 0
M  V30 7133 H 668.337 2.55863 -6.21276 0
M  V30 7134 N 671.057 1.43213 0.657864 0
M  V30 7135 C 672.004 1.48011 1.77092 0
M  V30 7136 C 672.974 0.330291 1.62783 0
M  V30 7137 O 674.159 0.536787 1.83094 0
M  V30 7138 C 671.299 1.40461 3.15222 0
M  V30 7139 C 670.412 2.65612 3.40697 0
M  V30 7140 C 669.547 2.50083 4.68649 0
M  V30 7141 C 668.586 3.70525 4.87214 0
M  V30 7142 N 667.723 3.53835 6.0642 0
M  V30 7143 H 672.563 2.43121 1.72326 0
M  V30 7144 H 670.1 1.20687 0.841013 0
M  V30 7145 H 672.058 1.34079 3.95068 0
M  V30 7146 H 670.688 0.489359 3.19069 0
M  V30 7147 H 669.74 2.82292 2.54982 0
M  V30 7148 H 671.052 3.5509 3.50303 0
M  V30 7149 H 670.206 2.41383 5.56614 0
M  V30 7150 H 668.945 1.58121 4.61356 0
M  V30 7151 H 667.95 3.79639 3.97686 0
M  V30 7152 H 669.175 4.63489 4.96341 0
M  V30 7153 H 667.121 2.64604 6.00267 0
M  V30 7154 H 667.038 4.36912 6.16963 0
M  V30 7155 H 668.306 3.48978 6.97019 0
M  V30 7156 N 672.536 -0.895792 1.29666 0
M  V30 7157 C 673.466 -2.01673 1.17688 0
M  V30 7158 C 674.447 -1.69955 0.0701317 0
M  V30 7159 O 675.632 -1.9258 0.250289 0
M  V30 7160 C 672.762 -3.36568 0.856681 0
M  V30 7161 C 671.716 -3.82509 1.92017 0
M  V30 7162 C 671.042 -5.14574 1.4532 0
M  V30 7163 C 672.342 -4.02409 3.32963 0
M  V30 7164 H 674.036 -2.11953 2.11463 0
M  V30 7165 H 671.582 -1.01839 1.01807 0
M  V30 7166 H 673.535 -4.14498 0.759577 0
M  V30 7167 H 672.259 -3.26391 -0.116763 0
M  V30 7168 H 670.918 -3.068 2.00673 0
M  V30 7169 H 670.566 -5.00815 0.468325 0
M  V30 7170 H 670.266 -5.46283 2.16447 0
M  V30 7171 H 671.79 -5.9504 1.36968 0
M  V30 7172 H 673.204 -4.70808 3.27127 0
M  V30 7173 H 671.601 -4.45478 4.02082 0
M  V30 7174 H 672.671 -3.06616 3.75652 0
M  V30 7175 N 674.014 -1.12206 -1.10668 0
M  V30 7176 C 675.425 -0.890657 -1.64086 0
M  V30 7177 C 675.776 0.575502 -1.8757 0
M  V30 7178 O 674.901 1.4394 -1.61587 0
M  V30 7179 C 675.496 -1.61029 -2.98085 0
M  V30 7180 C 674.055 -1.4251 -3.48379 0
M  V30 7181 C 673.202 -1.64778 -2.23033 0
M  V30 7182 H 676.153 -1.27718 -0.94201 0
M  V30 7183 H 676.174 -1.05993 -3.65439 0
M  V30 7184 H 675.686 -2.67735 -2.80962 0
M  V30 7185 H 673.787 -0.380497 -3.70652 0
M  V30 7186 H 673.9 -2.17959 -4.26651 0
M  V30 7187 H 672.264 -1.07171 -2.31055 0
M  V30 7188 H 673.047 -2.72776 -2.08443 0
M  V30 7189 N 675.492 1.28418 -0.913599 0
M  V30 7190 C 676.738 1.9527 -0.547484 0
M  V30 7191 C 677.071 1.71745 0.906486 0
M  V30 7192 O 676.346 1.03834 1.64465 0
M  V30 7193 C 676.629 3.49748 -0.857205 0
M  V30 7194 C 676.482 3.82675 -2.3639 0
M  V30 7195 C 677.801 4.3868 -0.353258 0
M  V30 7196 H 674.92 0.709236 -0.200381 0
M  V30 7197 H 677.562 1.51789 -1.14281 0
M  V30 7198 H 675.712 3.86915 -0.350548 0
M  V30 7199 H 677.384 3.55378 -2.94116 0
M  V30 7200 H 675.627 3.29724 -2.81894 0
M  V30 7201 H 676.298 4.90547 -2.53115 0
M  V30 7202 H 678.774 4.08584 -0.787288 0
M  V30 7203 H 677.65 5.45621 -0.599049 0
M  V30 7204 H 677.911 4.35753 0.746413 0
M  V30 7205 N 676.97 0.677563 1.42291 0
M  V30 7206 C 677.917 0.000947061 2.308 0
M  V30 7207 C 678.887 -0.789889 1.46116 0
M  V30 7208 O 680.072 -0.761578 1.74942 0
M  V30 7209 C 677.212 -0.942387 3.31984 0
M  V30 7210 C 676.325 -0.14508 4.31756 0
M  V30 7211 C 675.46 -1.08442 5.20013 0
M  V30 7212 C 674.499 -0.278958 6.11464 0
M  V30 7213 N 673.636 -1.17115 6.92263 0
M  V30 7214 H 678.476 0.761521 2.88106 0
M  V30 7215 H 676.013 0.38727 1.41911 0
M  V30 7216 H 677.971 -1.50317 3.89179 0
M  V30 7217 H 676.601 -1.66956 2.76271 0
M  V30 7218 H 675.653 0.532368 3.76656 0
M  V30 7219 H 676.965 0.48015 4.96484 0
M  V30 7220 H 676.119 -1.71504 5.81955 0
M  V30 7221 H 674.858 -1.74353 4.55469 0
M  V30 7222 H 673.863 0.364856 5.48588 0
M  V30 7223 H 675.088 0.376099 6.78058 0
M  V30 7224 H 673.034 -1.81661 6.30345 0
M  V30 7225 H 672.951 -0.601063 7.53607 0
M  V30 7226 H 674.219 -1.78915 7.58689 0
M  V30 7227 N 678.448 -1.51871 0.421078 0
M  V30 7228 C 679.864 -1.59435 0.0725398 0
M  V30 7229 C 680.064 -1.43315 -1.41644 0
M  V30 7230 O 679.12 -1.26614 -2.18461 0
M  V30 7231 C 680.433 -2.9509 0.578132 0
M  V30 7232 C 681.981 -3.08356 0.537149 0
M  V30 7233 C 682.456 -4.4651 1.01945 0
M  V30 7234 N 683.947 -4.52784 0.976758 0
M  V30 7235 C 684.682 -5.57976 1.32099 0
M  V30 7236 N 684.178 -6.70664 1.73727 0
M  V30 7237 N 685.971 -5.48248 1.2402 0
M  V30 7238 H 678.122 -1.60595 1.39007 0
M  V30 7239 H 680.385 -0.756138 0.571803 0
M  V30 7240 H 680.091 -3.12205 1.61929 0
M  V30 7241 H 679.965 -3.772 -0.00578374 0
M  V30 7242 H 682.352 -2.90919 -0.494991 0
M  V30 7243 H 682.433 -2.28125 1.15727 0
M  V30 7244 H 682.077 -4.64692 2.04997 0
M  V30 7245 H 682.007 -5.25256 0.376023 0
M  V30 7246 H 684.498 -3.71898 0.670851 0
M  V30 7247 H 684.811 -7.46932 1.98274 0
M  V30 7248 H 683.156 -6.71914 1.77641 0
M  V30 7249 H 686.347 -4.59095 0.913756 0
M  V30 7250 H 686.52 -6.30119 1.51176 0
M  V30 7251 N 679.926 -0.151884 -1.56866 0
M  V30 7252 C 680.856 0.781943 -2.20018 0
M  V30 7253 C 681.837 1.25347 -1.14987 0
M  V30 7254 O 683.022 1.31015 -1.43348 0
M  V30 7255 C 680.152 2.01928 -2.82564 0
M  V30 7256 C 679.106 1.68434 -3.93464 0
M  V30 7257 C 678.432 2.99472 -4.42968 0
M  V30 7258 C 679.732 0.927244 -5.14003 0
M  V30 7259 H 681.426 0.255607 -2.98307 0
M  V30 7260 H 678.972 0.121502 -1.43486 0
M  V30 7261 H 680.925 2.67741 -3.25411 0
M  V30 7262 H 679.649 2.56943 -2.01614 0
M  V30 7263 H 678.308 1.04998 -3.51242 0
M  V30 7264 H 677.956 3.52488 -3.58834 0
M  V30 7265 H 677.656 2.77823 -5.17772 0
M  V30 7266 H 679.18 3.66348 -4.88489 0
M  V30 7267 H 680.594 1.48756 -5.53665 0
M  V30 7268 H 678.991 0.810513 -5.94601 0
M  V30 7269 H 680.061 -0.0801163 -4.84834 0
M  V30 7270 N 681.404 1.57128 0.121893 0
M  V30 7271 C 682.336 1.96773 1.17529 0
M  V30 7272 C 683.349 0.866668 1.37814 0
M  V30 7273 O 684.538 1.14497 1.3694 0
M  V30 7274 C 681.638 2.24832 2.53582 0
M  V30 7275 C 680.811 3.56138 2.53939 0
M  V30 7276 C 679.87 3.72443 3.71716 0
M  V30 7277 O 678.896 4.44584 3.55434 0
M  V30 7278 N 680.098 3.10993 4.90167 0
M  V30 7279 H 682.863 2.87743 0.838086 0
M  V30 7280 H 680.424 1.58881 0.311199 0
M  V30 7281 H 682.416 2.32958 3.30927 0
M  V30 7282 H 680.986 1.40002 2.79496 0
M  V30 7283 H 680.206 3.59226 1.62329 0
M  V30 7284 H 681.494 4.42448 2.51231 0
M  V30 7285 H 680.892 2.52345 5.06299 0
M  V30 7286 H 679.449 3.24644 5.65198 0
M  V30 7287 N 682.882 -0.391992 1.52647 0
M  V30 7288 C 683.812 -1.48517 1.8018 0
M  V30 7289 C 684.793 -1.57039 0.653667 0
M  V30 7290 O 685.978 -1.72036 0.900962 0
M  V30 7291 C 683.108 -2.86161 1.96797 0
M  V30 7292 C 682.062 -2.92481 3.12472 0
M  V30 7293 C 681.388 -4.32546 3.14338 0
M  V30 7294 C 682.688 -2.624 4.51601 0
M  V30 7295 H 684.382 -1.25726 2.71723 0
M  V30 7296 H 681.928 -0.603387 1.30749 0
M  V30 7297 H 683.881 -3.62639 2.14641 0
M  V30 7298 H 682.605 -3.10283 1.01941 0
M  V30 7299 H 681.264 -2.18451 2.94406 0
M  V30 7300 H 680.912 -4.53703 2.1717 0
M  V30 7301 H 680.612 -4.37695 3.92042 0
M  V30 7302 H 682.136 -5.10934 3.34333 0
M  V30 7303 H 683.55 -3.28596 4.69785 0
M  V30 7304 H 681.947 -2.78903 5.3135 0
M  V30 7305 H 683.017 -1.57754 4.58521 0
M  V30 7306 N 684.36 -1.4356 -0.65026 0
M  V30 7307 C 685.323 -1.48615 -1.74489 0
M  V30 7308 C 686.323 -0.370483 -1.56474 0
M  V30 7309 O 687.513 -0.632351 -1.62317 0
M  V30 7310 C 684.645 -1.34161 -3.13391 0
M  V30 7311 H 685.838 -2.46103 -1.71387 0
M  V30 7312 H 683.391 -1.30369 -0.862186 0
M  V30 7313 H 684.126 -0.376918 -3.22102 0
M  V30 7314 H 683.911 -2.1504 -3.27872 0
M  V30 7315 H 685.401 -1.40637 -3.93206 0
M  V30 7316 N 685.838 0.888903 -1.30139 0
M  V30 7317 C 687.115 1.62145 -1.094 0
M  V30 7318 C 687.495 2.08041 0.358091 0
M  V30 7319 O 686.843 1.84438 1.34888 0
M  V30 7320 C 687.053 2.794 -2.09133 0
M  V30 7321 C 688.401 3.49826 -2.40638 0
M  V30 7322 O 689.425 2.89583 -2.07412 0
M  V30 7323 O 688.284 4.58457 -2.97455 0
M  V30 7324 H 685.378 0.712475 -0.41989 0
M  V30 7325 H 687.924 0.936023 -1.41551 0
M  V30 7326 H 686.696 2.42762 -3.06891 0
M  V30 7327 H 686.319 3.55643 -1.77776 0
M  V30 7328 N 687.317 1.12792 1.10072 0
M  V30 7329 C 688.565 0.883796 1.81751 0
M  V30 7330 C 688.886 -0.591891 1.858 0
M  V30 7331 O 688.156 -1.43017 1.33876 0
M  V30 7332 H 686.736 0.323978 0.673088 0
M  V30 7333 H 689.398 1.42314 1.33164 0
M  V30 7334 H 688.494 1.26863 2.85153 0
M  V30 7335 N 688.795 -1.27931 0.920396 0
M  V30 7336 C 690.02 -1.99343 0.572478 0
M  V30 7337 C 690.445 -1.68267 -0.840696 0
M  V30 7338 O 689.803 -0.918805 -1.56294 0
M  V30 7339 C 689.851 -3.51698 0.796284 0
M  V30 7340 O 688.955 -4.12157 -0.141602 0
M  V30 7341 H 688.296 -0.626065 0.221221 0
M  V30 7342 H 690.826 -1.62921 1.23765 0
M  V30 7343 H 690.836 -4.01793 0.708984 0
M  V30 7344 H 689.511 -3.73649 1.82644 0
M  V30 7345 H 688.088 -3.729 -0.005007 0
M  V30 7346 N 690.273 -0.685099 -1.4193 0
M  V30 7347 C 691.501 -0.220372 -2.05723 0
M  V30 7348 C 691.916 1.12642 -1.51516 0
M  V30 7349 O 691.273 1.70182 -0.659114 0
M  V30 7350 C 691.324 -0.157974 -3.61155 0
M  V30 7351 O 691.045 -1.45156 -4.13354 0
M  V30 7352 C 692.546 0.329009 -4.42077 0
M  V30 7353 H 689.766 -0.104725 -0.662777 0
M  V30 7354 H 692.31 -0.934736 -1.81887 0
M  V30 7355 H 690.465 0.507144 -3.84066 0
M  V30 7356 H 690.879 -1.33172 -5.07312 0
M  V30 7357 H 692.353 0.321559 -5.51063 0
M  V30 7358 H 692.83 1.36608 -4.17414 0
M  V30 7359 H 693.436 -0.304737 -4.24207 0
M  V30 7360 N 691.751 1.51645 -0.429126 0
M  V30 7361 C 692.714 2.26116 0.374726 0
M  V30 7362 C 693.714 1.29242 0.956714 0
M  V30 7363 O 694.904 1.53022 0.832452 0
M  V30 7364 C 692.036 3.04669 1.52937 0
M  V30 7365 H 693.229 2.9861 -0.277818 0
M  V30 7366 H 690.782 1.55236 -0.182097 0
M  V30 7367 H 691.517 2.36571 2.21821 0
M  V30 7368 H 691.302 3.75814 1.11833 0
M  V30 7369 H 692.792 3.61102 2.09751 0
M  V30 7370 N 693.229 0.160201 1.56784 0
M  V30 7371 C 694.159 -0.770264 2.2043 0
M  V30 7372 C 695.14 -1.24736 1.15651 0
M  V30 7373 O 696.325 -1.30253 1.44041 0
M  V30 7374 C 693.455 -2.00427 2.83631 0
M  V30 7375 C 692.409 -1.66345 3.94352 0
M  V30 7376 C 691.735 -2.97119 4.4455 0
M  V30 7377 C 693.035 -0.899972 5.14488 0
M  V30 7378 H 694.729 -0.239783 2.98438 0
M  V30 7379 H 692.275 -0.113891 1.43549 0
M  V30 7380 H 694.228 -2.66012 3.26827 0
M  V30 7381 H 692.952 -2.5587 2.02973 0
M  V30 7382 H 691.611 -1.03133 3.51794 0
M  V30 7383 H 691.259 -3.5058 3.60698 0
M  V30 7384 H 690.959 -2.75073 5.19238 0
M  V30 7385 H 692.483 -3.63753 4.90425 0
M  V30 7386 H 693.897 -1.45818 5.54446 0
M  V30 7387 H 692.294 -0.778968 5.95023 0
M  V30 7388 H 693.364 0.105827 4.84785 0
M  V30 7389 N 694.707 -1.5719 -0.113559 0
M  V30 7390 C 695.953 -1.85412 -0.821597 0
M  V30 7391 C 696.286 -0.746722 -1.7927 0
M  V30 7392 O 695.561 0.246971 -1.92926 0
M  V30 7393 C 695.844 -3.24233 -1.56669 0
M  V30 7394 C 695.697 -4.45578 -0.614823 0
M  V30 7395 C 697.016 -3.60697 -2.52161 0
M  V30 7396 H 694.135 -0.674406 -0.29723 0
M  V30 7397 H 696.777 -1.89807 -0.085694 0
M  V30 7398 H 694.927 -3.20617 -2.19401 0
M  V30 7399 H 696.599 -4.613 0.00407137 0
M  V30 7400 H 694.842 -4.33738 0.0732332 0
M  V30 7401 H 695.513 -5.39395 -1.17292 0
M  V30 7402 H 697.989 -3.65139 -1.99532 0
M  V30 7403 H 696.865 -4.58798 -3.01323 0
M  V30 7404 H 697.126 -2.88403 -3.35076 0
M  V30 7405 N 696.185 0.383891 -1.52853 0
M  V30 7406 C 697.413 1.1495 -1.7203 0
M  V30 7407 C 697.828 1.83578 -0.440957 0
M  V30 7408 O 697.185 1.72872 0.584925 0
M  V30 7409 C 697.236 2.19368 -2.87333 0
M  V30 7410 O 696.957 1.53536 -4.10315 0
M  V30 7411 C 698.458 3.08616 -3.18231 0
M  V30 7412 H 695.678 0.344445 -0.575846 0
M  V30 7413 H 698.222 0.448397 -1.99524 0
M  V30 7414 H 696.377 2.85105 -2.62286 0
M  V30 7415 H 696.791 2.2296 -4.74752 0
M  V30 7416 H 698.265 3.77902 -4.02361 0
M  V30 7417 H 698.742 3.72409 -2.32826 0
M  V30 7418 H 699.348 2.48518 -3.45136 0
M  V30 7419 N 697.663 1.43903 0.642637 0
M  V30 7420 C 698.891 1.4954 1.42988 0
M  V30 7421 C 699.306 0.116588 1.8844 0
M  V30 7422 O 698.663 -0.875285 1.60141 0
M  V30 7423 C 698.714 2.45031 2.65785 0
M  V30 7424 O 698.435 3.77551 2.22232 0
M  V30 7425 C 699.936 2.60017 3.59035 0
M  V30 7426 H 697.156 0.507544 0.438907 0
M  V30 7427 H 699.7 1.88752 0.786942 0
M  V30 7428 H 697.855 2.08985 3.26196 0
M  V30 7429 H 698.269 4.29001 3.01759 0
M  V30 7430 H 699.743 3.30887 4.41835 0
M  V30 7431 H 700.22 1.64861 4.07084 0
M  V30 7432 H 700.826 2.96918 3.045 0
M  V30 7433 N 699.141 -0.881989 1.30609 0
M  V30 7434 C 700.387 -1.63647 1.19781 0
M  V30 7435 C 700.72 -1.92632 -0.246265 0
M  V30 7436 O 699.995 -1.54938 -1.17577 0
M  V30 7437 C 700.278 -2.97437 2.02985 0
M  V30 7438 C 700.131 -2.75406 3.55628 0
M  V30 7439 C 701.45 -3.98397 1.86997 0
M  V30 7440 H 698.569 -0.593841 0.436488 0
M  V30 7441 H 701.211 -1.02041 1.60273 0
M  V30 7442 H 699.361 -3.50018 1.68581 0
M  V30 7443 H 701.033 -2.2959 4.00107 0
M  V30 7444 H 699.276 -2.09856 3.79662 0
M  V30 7445 H 699.947 -3.70552 4.09139 0
M  V30 7446 H 702.423 -3.54986 2.17081 0
M  V30 7447 H 701.299 -4.89916 2.47536 0
M  V30 7448 H 701.56 -4.3424 0.829943 0
M  V30 7449 N 700.619 -1.13374 -1.09472 0
M  V30 7450 C 701.849 -0.917019 -1.85133 0
M  V30 7451 C 702.257 0.537568 -1.81402 0
M  V30 7452 O 701.6 1.38385 -1.20811 0
M  V30 7453 C 701.662 -1.32646 -3.34134 0
M  V30 7454 C 701.326 -2.79437 -3.61613 0
M  V30 7455 C 702.323 -3.77596 -3.57375 0
M  V30 7456 C 700.008 -3.16586 -3.89973 0
M  V30 7457 C 702.002 -5.10916 -3.81108 0
M  V30 7458 C 699.689 -4.50085 -4.13361 0
M  V30 7459 C 700.687 -5.47059 -4.0892 0
M  V30 7460 O 700.375 -6.78149 -4.31705 0
M  V30 7461 H 700.107 -0.326997 -0.591649 0
M  V30 7462 H 702.661 -1.51002 -1.39239 0
M  V30 7463 H 700.891 -0.676719 -3.80733 0
M  V30 7464 H 702.58 -1.08229 -3.91205 0
M  V30 7465 H 703.346 -3.50242 -3.35493 0
M  V30 7466 H 699.225 -2.41707 -3.92554 0
M  V30 7467 H 702.769 -5.86597 -3.77558 0
M  V30 7468 H 698.666 -4.77163 -4.34724 0
M  V30 7469 H 699.434 -6.84244 -4.49168 0
M  V30 7470 N 702.098 1.27442 -0.927168 0
M  V30 7471 C 703.375 1.89473 -0.485742 0
M  V30 7472 C 703.755 1.83922 1.03614 0
M  V30 7473 O 703.103 1.28409 1.89007 0
M  V30 7474 C 703.313 3.33417 -1.03123 0
M  V30 7475 C 704.661 4.10333 -1.0914 0
M  V30 7476 O 705.685 3.4243 -0.98082 0
M  V30 7477 O 704.544 5.31737 -1.26165 0
M  V30 7478 H 701.638 0.812124 -0.156154 0
M  V30 7479 H 704.184 1.35713 -1.01882 0
M  V30 7480 H 702.956 3.31747 -2.07508 0
M  V30 7481 H 702.579 3.94695 -0.479767 0
M  V30 7482 N 703.576 0.692616 1.41565 0
M  V30 7483 C 704.506 0.0397325 2.33466 0
M  V30 7484 C 705.487 -0.770334 1.51657 0
M  V30 7485 O 706.672 -0.723903 1.80203 0
M  V30 7486 C 703.802 -0.899495 3.3545 0
M  V30 7487 C 702.756 -0.196738 4.27548 0
M  V30 7488 C 702.082 -1.25012 5.19881 0
M  V30 7489 C 703.382 0.935158 5.1386 0
M  V30 7490 H 705.076 0.807296 2.88311 0
M  V30 7491 H 702.622 0.389665 1.38628 0
M  V30 7492 H 704.575 -1.36545 3.98665 0
M  V30 7493 H 703.299 -1.69869 2.78948 0
M  V30 7494 H 701.958 0.249158 3.65752 0
M  V30 7495 H 701.606 -2.04177 4.59696 0
M  V30 7496 H 701.306 -0.784931 5.82334 0
M  V30 7497 H 702.83 -1.71665 5.85972 0
M  V30 7498 H 704.244 0.549619 5.70659 0
M  V30 7499 H 702.641 1.32726 5.85238 0
M  V30 7500 H 703.711 1.77613 4.512 0
M  V30 7501 N 705.054 -1.51416 0.437162 0
M  V30 7502 C 706.282 -2.06503 -0.128045 0
M  V30 7503 C 706.697 -1.30461 -1.36475 0
M  V30 7504 O 706.054 -0.364127 -1.78831 0
M  V30 7505 C 706.105 -3.58683 -0.450437 0
M  V30 7506 O 705.826 -4.31853 0.737186 0
M  V30 7507 C 707.327 -4.30284 -1.06633 0
M  V30 7508 H 704.547 -0.670952 -0.00800269 0
M  V30 7509 H 707.091 -1.94996 0.616193 0
M  V30 7510 H 705.246 -3.70106 -1.14457 0
M  V30 7511 H 705.66 -5.22467 0.461347 0
M  V30 7512 H 707.134 -5.37848 -1.24191 0
M  V30 7513 H 707.611 -3.88564 -2.0473 0
M  V30 7514 H 708.217 -4.23304 -0.411585 0
M  V30 7515 N 706.532 -0.168513 -1.56696 0
M  V30 7516 C 707.462 0.758563 -2.20835 0
M  V30 7517 C 708.443 1.24121 -1.1631 0
M  V30 7518 O 709.628 1.29487 -1.4473 0
M  V30 7519 C 706.758 1.9892 -2.8469 0
M  V30 7520 C 705.712 1.64252 -3.95228 0
M  V30 7521 C 705.038 2.94757 -4.46119 0
M  V30 7522 C 706.338 0.872675 -5.14958 0
M  V30 7523 H 708.032 0.223953 -2.98561 0
M  V30 7524 H 705.578 0.106277 -1.43607 0
M  V30 7525 H 707.531 2.64275 -3.28233 0
M  V30 7526 H 706.255 2.5479 -2.04327 0
M  V30 7527 H 704.914 1.01266 -3.52336 0
M  V30 7528 H 704.562 3.48662 -3.62552 0
M  V30 7529 H 704.262 2.72316 -5.2069 0
M  V30 7530 H 705.786 3.61147 -4.92347 0
M  V30 7531 H 707.2 1.42875 -5.55211 0
M  V30 7532 H 705.597 0.747402 -5.95428 0
M  V30 7533 H 706.667 -0.131535 -4.84722 0
M  V30 7534 N 708.01 1.57248 0.105221 0
M  V30 7535 C 708.973 2.00388 1.11252 0
M  V30 7536 C 709.973 0.89594 1.33527 0
M  V30 7537 O 711.163 1.16166 1.29811 0
M  V30 7538 C 708.295 2.35589 2.46395 0
M  V30 7539 H 709.488 2.90591 0.741424 0
M  V30 7540 H 707.041 1.52332 0.349956 0
M  V30 7541 H 707.776 1.4831 2.884 0
M  V30 7542 H 707.561 3.16408 2.31578 0
M  V30 7543 H 709.051 2.69658 3.18864 0
M  V30 7544 N 709.488 -0.375779 1.53054 0
M  V30 7545 C 710.436 -1.48015 1.79428 0
M  V30 7546 C 711.43 -1.55893 0.662854 0
M  V30 7547 O 712.636 -1.58901 0.845599 0
M  V30 7548 H 709.011 -0.492887 0.56795 0
M  V30 7549 H 710.982 -1.22971 2.71884 0
M  V30 7550 C 709.731 -2.84984 1.99197 0
M  V30 7551 H 709.054 -2.79677 2.85693 0
M  V30 7552 H 710.494 -3.61462 2.21633 0
M  V30 7553 C 708.953 -3.28025 0.768183 0
M  V30 7554 O 709.483 -4.01671 -0.0480482 0
M  V30 7555 N 707.689 -2.84454 0.594521 0
M  V30 7556 H 707.236 -2.24688 1.25988 0
M  V30 7557 H 707.194 -3.13609 -0.222916 0
M  V30 7558 N 710.966 -1.44241 -0.634997 0
M  V30 7559 C 712.196 -1.50078 -1.41987 0
M  V30 7560 C 712.604 -0.123072 -1.88799 0
M  V30 7561 O 711.947 0.880552 -1.6122 0
M  V30 7562 C 712.009 -2.40033 -2.67628 0
M  V30 7563 C 711.673 -3.87268 -2.42637 0
M  V30 7564 C 712.67 -4.77902 -2.04708 0
M  V30 7565 C 710.355 -4.31933 -2.56396 0
M  V30 7566 C 712.349 -6.11202 -1.80862 0
M  V30 7567 C 710.036 -5.65281 -2.32164 0
M  V30 7568 C 711.034 -6.54734 -1.94455 0
M  V30 7569 O 710.722 -7.85613 -1.7049 0
M  V30 7570 H 710.454 -0.51146 -0.442023 0
M  V30 7571 H 713.008 -1.89843 -0.784138 0
M  V30 7572 H 711.238 -1.95188 -3.33824 0
M  V30 7573 H 712.927 -2.36863 -3.29622 0
M  V30 7574 H 713.693 -4.44668 -1.93638 0
M  V30 7575 H 709.572 -3.62569 -2.84719 0
M  V30 7576 H 713.116 -6.80983 -1.51353 0
M  V30 7577 H 709.013 -5.98078 -2.42843 0
M  V30 7578 H 709.781 -7.97373 -1.84767 0
M  V30 7579 N 712.444 0.87505 -1.31075 0
M  V30 7580 C 713.692 1.62447 -1.20231 0
M  V30 7581 C 714.013 1.93506 0.240888 0
M  V30 7582 O 713.283 1.57847 1.16022 0
M  V30 7583 H 711.863 0.602207 -0.441991 0
M  V30 7584 H 714.525 1.04788 -1.64334 0
M  V30 7585 H 713.621 2.57031 -1.77036 0
M  V30 7586 N 713.922 1.13953 1.08869 0
M  V30 7587 C 714.852 0.844824 2.17681 0
M  V30 7588 C 715.833 -0.198213 1.68941 0
M  V30 7589 O 717.018 -0.0559073 1.9412 0
M  V30 7590 C 714.148 0.316325 3.45856 0
M  V30 7591 C 713.102 1.29426 4.07962 0
M  V30 7592 C 712.428 0.625275 5.31031 0
M  V30 7593 C 713.728 2.65484 4.49795 0
M  V30 7594 H 715.422 1.75471 2.42591 0
M  V30 7595 H 712.968 0.845116 1.16592 0
M  V30 7596 H 714.921 0.0977876 4.21287 0
M  V30 7597 H 713.645 -0.628972 3.20486 0
M  V30 7598 H 712.304 1.49889 3.34558 0
M  V30 7599 H 711.952 -0.325678 5.01945 0
M  V30 7600 H 711.652 1.27777 5.73539 0
M  V30 7601 H 713.176 0.416152 6.0918 0
M  V30 7602 H 714.59 2.48957 5.16424 0
M  V30 7603 H 712.987 3.26963 5.03205 0
M  V30 7604 H 714.057 3.22717 3.61914 0
M  V30 7605 N 715.4 -1.26948 0.933913 0
M  V30 7606 C 716.31 -2.30366 0.443671 0
M  V30 7607 C 717.326 -1.67284 -0.478745 0
M  V30 7608 O 718.502 -1.98156 -0.360043 0
M  V30 7609 C 715.567 -3.45485 -0.289974 0
M  V30 7610 C 714.628 -4.24069 0.668114 0
M  V30 7611 C 713.861 -5.33691 -0.0306138 0
M  V30 7612 O 714.084 -5.5656 -1.24888 0
M  V30 7613 O 713.018 -5.98441 0.644384 0
M  V30 7614 H 716.844 -2.74349 1.30254 0
M  V30 7615 H 714.429 -1.32012 0.699506 0
M  V30 7616 H 716.311 -4.15486 -0.70353 0
M  V30 7617 H 714.986 -3.03546 -1.12435 0
M  V30 7618 H 713.893 -3.56579 1.13147 0
M  V30 7619 H 715.226 -4.69739 1.46989 0
M  V30 7620 N 716.879 -0.700114 -1.41195 0
M  V30 7621 C 718.295 -0.372114 -1.55201 0
M  V30 7622 C 718.495 1.12053 -1.6747 0
M  V30 7623 O 717.551 1.90642 -1.65566 0
M  V30 7624 C 718.864 -1.12462 -2.78878 0
M  V30 7625 C 720.412 -1.10941 -2.92679 0
M  V30 7626 C 720.887 -1.84376 -4.19249 0
M  V30 7627 N 722.378 -1.81368 -4.26216 0
M  V30 7628 C 723.113 -2.35024 -5.23021 0
M  V30 7629 N 722.609 -2.9717 -6.25829 0
M  V30 7630 N 724.402 -2.25254 -5.14992 0
M  V30 7631 H 716.553 -1.66816 -1.31477 0
M  V30 7632 H 718.816 -0.704223 -0.634644 0
M  V30 7633 H 718.522 -2.17937 -2.76037 0
M  V30 7634 H 718.396 -0.706152 -3.70531 0
M  V30 7635 H 720.783 -0.062911 -2.95033 0
M  V30 7636 H 720.864 -1.56698 -2.02187 0
M  V30 7637 H 720.508 -2.89008 -4.17656 0
M  V30 7638 H 720.438 -1.3605 -5.08722 0
M  V30 7639 H 722.929 -1.36062 -3.52556 0
M  V30 7640 H 723.242 -3.35668 -6.96094 0
M  V30 7641 H 721.587 -3.01249 -6.26318 0
M  V30 7642 H 724.778 -1.76372 -4.33602 0
M  V30 7643 H 724.951 -2.67373 -5.90268 0
M  V30 7644 N 718.357 1.51182 -0.445186 0
M  V30 7645 C 719.605 2.01753 0.11841 0
M  V30 7646 C 719.926 1.33087 1.42523 0
M  V30 7647 O 719.196 0.467891 1.9023 0
M  V30 7648 H 717.776 0.745536 0.0467492 0
M  V30 7649 H 720.438 1.85765 -0.589688 0
M  V30 7650 H 719.534 3.10762 0.288665 0
M  V30 7651 N 719.835 0.176821 1.56605 0
M  V30 7652 C 720.765 -0.746841 2.21234 0
M  V30 7653 C 721.746 -1.23502 1.16967 0
M  V30 7654 O 722.931 -1.28718 1.45414 0
M  V30 7655 C 720.061 -1.97407 2.8574 0
M  V30 7656 C 719.015 -1.62153 3.96094 0
M  V30 7657 C 718.341 -2.92387 4.47676 0
M  V30 7658 C 719.641 -0.845353 5.15413 0
M  V30 7659 H 721.335 -0.208116 2.98676 0
M  V30 7660 H 718.881 -0.0986594 1.43662 0
M  V30 7661 H 720.834 -2.62531 3.2963 0
M  V30 7662 H 719.558 -2.53703 2.05676 0
M  V30 7663 H 718.217 -0.993964 3.52868 0
M  V30 7664 H 717.865 -3.46734 3.64396 0
M  V30 7665 H 717.565 -2.69551 5.22127 0
M  V30 7666 H 719.089 -3.5853 4.94255 0
M  V30 7667 H 720.503 -1.39929 5.55961 0
M  V30 7668 H 718.9 -0.715814 5.95815 0
M  V30 7669 H 719.97 0.157239 4.84645 0
M  V30 7670 N 721.313 -1.57302 -0.09688 0
M  V30 7671 C 722.261 -2.02942 -1.13654 0
M  V30 7672 C 723.255 -0.930173 -1.41577 0
M  V30 7673 O 724.461 -1.11535 -1.41279 0
M  V30 7674 H 720.836 -0.646726 -0.383731 0
M  V30 7675 H 722.807 -2.89452 -0.725267 0
M  V30 7676 C 721.556 -2.46815 -2.44903 0
M  V30 7677 H 720.879 -3.30979 -2.24261 0
M  V30 7678 H 722.319 -2.82527 -3.16156 0
M  V30 7679 C 720.778 -1.34071 -3.09074 0
M  V30 7680 O 721.308 -0.668856 -3.96092 0
M  V30 7681 N 719.514 -1.09214 -2.69296 0
M  V30 7682 H 719.061 -1.64029 -1.98626 0
M  V30 7683 H 719.019 -0.339785 -3.12559 0
M  V30 7684 N 722.791 0.367657 -1.53252 0
M  V30 7685 C 724.068 1.12606 -1.59935 0
M  V30 7686 C 724.448 2.07167 -0.405606 0
M  V30 7687 O 723.796 2.20364 0.604323 0
M  V30 7688 C 724.006 1.86699 -2.94863 0
M  V30 7689 C 725.354 2.41306 -3.49366 0
M  V30 7690 O 726.378 1.96828 -2.96879 0
M  V30 7691 O 725.237 3.2261 -4.41118 0
M  V30 7692 H 722.331 0.516438 -0.645926 0
M  V30 7693 H 724.877 0.371088 -1.65593 0
M  V30 7694 H 723.649 1.17674 -3.73187 0
M  V30 7695 H 723.272 2.6911 -2.92687 0
M  V30 7696 N 724.269 1.44576 0.627338 0
M  V30 7697 C 725.515 1.47777 1.38888 0
M  V30 7698 C 725.848 0.111406 1.9388 0
M  V30 7699 O 725.123 -0.87149 1.73883 0
M  V30 7700 C 725.406 2.54119 2.55138 0
M  V30 7701 C 725.259 4.00128 2.0547 0
M  V30 7702 C 726.578 2.56929 3.57317 0
M  V30 7703 H 723.697 0.538048 0.50366 0
M  V30 7704 H 726.339 1.76277 0.708978 0
M  V30 7705 H 724.489 2.29948 3.13139 0
M  V30 7706 H 726.161 4.35444 1.5227 0
M  V30 7707 H 724.404 4.11724 1.36623 0
M  V30 7708 H 725.075 4.7019 2.89181 0
M  V30 7709 H 727.551 2.78536 3.09122 0
M  V30 7710 H 726.427 3.33234 4.36173 0
M  V30 7711 H 726.688 1.6127 4.11636 0
M  V30 7712 N 725.747 -0.868086 1.31537 0
M  V30 7713 C 726.695 -1.99688 1.1928 0
M  V30 7714 C 727.689 -1.69101 0.100656 0
M  V30 7715 O 728.895 -1.78073 0.262677 0
M  V30 7716 H 725.27 -0.655032 0.369374 0
M  V30 7717 H 727.241 -2.07157 2.14776 0
M  V30 7718 C 725.99 -3.35338 0.918892 0
M  V30 7719 H 725.313 -3.59396 1.75142 0
M  V30 7720 H 726.753 -4.14909 0.873311 0
M  V30 7721 C 725.212 -3.34769 -0.378366 0
M  V30 7722 O 725.742 -3.76716 -1.39456 0
M  V30 7723 N 723.948 -2.87895 -0.39557 0
M  V30 7724 H 723.495 -2.53954 0.431889 0
M  V30 7725 H 723.453 -2.87897 -1.26344 0
M  V30 7726 N 727.225 -1.14528 -1.08264 0
M  V30 7727 C 728.465 -0.924808 -1.82282 0
M  V30 7728 C 728.829 0.538881 -1.84283 0
M  V30 7729 O 730.03 0.877355 -2.54079 0
M  V30 7730 C 728.301 -1.51102 -3.23887 0
M  V30 7731 S 729.86 -1.43232 -4.14765 0
M  V30 7732 H 726.678 -0.333052 -0.62817 0
M  V30 7733 H 729.28 -1.45905 -1.30123 0
M  V30 7734 H 727.984 -2.56942 -3.20014 0
M  V30 7735 H 727.515 -0.975234 -3.8112 0
M  V30 7736 H 729.53 -0.418843 -4.94429 0
M  V30 7737 N 728.703 1.26451 -0.940633 0
M  V30 7738 C 729.666 2.24651 -0.454378 0
M  V30 7739 C 730.666 1.54826 0.434222 0
M  V30 7740 O 731.856 1.72628 0.233477 0
M  V30 7741 C 728.988 3.39148 0.345192 0
M  V30 7742 H 730.181 2.69182 -1.32217 0
M  V30 7743 H 727.734 1.38596 -0.722547 0
M  V30 7744 H 728.469 3.00018 1.23125 0
M  V30 7745 H 728.254 3.9101 -0.292107 0
M  V30 7746 H 729.744 4.12103 0.675341 0
M  V30 7747 N 730.181 0.707592 1.40822 0
M  V30 7748 C 731.409 0.253073 2.05346 0
M  V30 7749 C 731.824 -1.10218 1.53289 0
M  V30 7750 O 731.181 -1.69112 0.686105 0
M  V30 7751 C 731.232 0.215411 3.60858 0
M  V30 7752 O 730.953 1.51714 4.10992 0
M  V30 7753 C 732.454 -0.258636 4.42545 0
M  V30 7754 H 729.674 0.115256 0.661027 0
M  V30 7755 H 732.218 0.963555 1.80377 0
M  V30 7756 H 730.373 -0.445978 3.84824 0
M  V30 7757 H 730.787 1.41226 5.05129 0
M  V30 7758 H 732.261 -0.233849 5.51504 0
M  V30 7759 H 732.738 -1.2995 4.19535 0
M  V30 7760 H 733.344 0.372186 4.23668 0
M  V30 7761 N 731.66 -1.50943 0.453197 0
M  V30 7762 C 732.885 -2.07116 -0.108463 0
M  V30 7763 C 733.31 -1.31681 -1.3432 0
M  V30 7764 O 732.668 -0.359256 -1.77705 0
M  V30 7765 C 732.716 -3.58447 -0.393424 0
M  V30 7766 O 731.82 -3.85038 -1.47714 0
M  V30 7767 H 731.161 -0.66398 0.0050993 0
M  V30 7768 H 733.691 -1.94362 0.639095 0
M  V30 7769 H 733.701 -4.02961 -0.639222 0
M  V30 7770 H 732.376 -4.12774 0.508946 0
M  V30 7771 H 730.953 -3.52376 -1.22006 0
M  V30 7772 N 733.138 -0.185124 -1.56509 0
M  V30 7773 C 734.368 0.461469 -2.0138 0
M  V30 7774 C 734.776 1.56417 -1.06445 0
M  V30 7775 O 734.119 1.83603 -0.0597515 0
M  V30 7776 C 734.181 1.08731 -3.42663 0
M  V30 7777 C 733.845 0.124581 -4.5683 0
M  V30 7778 C 734.842 -0.662295 -5.15664 0
M  V30 7779 C 732.527 0.0163947 -5.02297 0
M  V30 7780 C 734.521 -1.54442 -6.18406 0
M  V30 7781 C 732.208 -0.869301 -6.04885 0
M  V30 7782 C 733.206 -1.64828 -6.62813 0
M  V30 7783 O 732.894 -2.51915 -7.63409 0
M  V30 7784 H 732.626 0.1212 -0.665046 0
M  V30 7785 H 735.18 -0.288119 -2.03369 0
M  V30 7786 H 733.41 1.8853 -3.37629 0
M  V30 7787 H 735.099 1.63753 -3.71403 0
M  V30 7788 H 735.865 -0.588963 -4.81411 0
M  V30 7789 H 731.744 0.61253 -4.56913 0
M  V30 7790 H 735.288 -2.15289 -6.63548 0
M  V30 7791 H 731.185 -0.943786 -6.38563 0
M  V30 7792 H 731.953 -2.45584 -7.80789 0
M  V30 7793 N 734.616 1.57351 0.0885366 0
M  V30 7794 C 735.893 1.77449 0.822873 0
M  V30 7795 C 736.273 0.768463 1.96616 0
M  V30 7796 O 735.621 -0.201757 2.27608 0
M  V30 7797 C 735.831 3.23425 1.31137 0
M  V30 7798 C 737.179 3.86791 1.75152 0
M  V30 7799 O 738.203 3.27215 1.40745 0
M  V30 7800 O 737.062 4.91568 2.38794 0
M  V30 7801 H 734.156 0.727653 0.393002 0
M  V30 7802 H 736.702 1.69556 0.0699095 0
M  V30 7803 H 735.474 3.88188 0.49254 0
M  V30 7804 H 735.097 3.35977 2.12615 0
M  V30 7805 N 736.094 -0.359525 1.53444 0
M  V30 7806 C 737.371 -1.11756 1.6053 0
M  V30 7807 C 737.751 -2.06949 0.416587 0
M  V30 7808 O 737.099 -2.20681 -0.592628 0
M  V30 7809 C 737.309 -1.85133 2.95849 0
M  V30 7810 C 738.657 -2.3945 3.50641 0
M  V30 7811 O 739.681 -1.95251 2.97918 0
M  V30 7812 O 738.54 -3.20266 4.42823 0
M  V30 7813 H 735.634 -0.513005 0.648656 0
M  V30 7814 H 738.18 -0.362301 1.65787 0
M  V30 7815 H 736.952 -1.15694 3.73806 0
M  V30 7816 H 736.575 -2.67554 2.9411 0
M  V30 7817 N 737.572 -1.44907 -0.619662 0
M  V30 7818 C 738.818 -1.48512 -1.38102 0
M  V30 7819 C 739.151 -0.121686 -1.93818 0
M  V30 7820 O 738.426 0.862256 -1.74343 0
M  V30 7821 C 738.709 -2.55469 -2.53787 0
M  V30 7822 C 738.562 -4.01212 -2.03345 0
M  V30 7823 C 739.881 -2.58821 -3.55949 0
M  V30 7824 H 737 -0.540712 -0.500799 0
M  V30 7825 H 739.642 -1.7665 -0.69962 0
M  V30 7826 H 737.792 -2.31606 -3.11915 0
M  V30 7827 H 739.464 -4.36245 -1.49959 0
M  V30 7828 H 737.707 -4.12443 -1.34438 0
M  V30 7829 H 738.378 -4.71717 -2.86683 0
M  V30 7830 H 740.854 -2.80172 -3.07641 0
M  V30 7831 H 739.73 -3.35542 -4.34399 0
M  V30 7832 H 739.991 -1.63451 -4.10775 0
M  V30 7833 N 739.05 0.861098 -1.31996 0
M  V30 7834 C 739.997 1.96912 -1.20392 0
M  V30 7835 C 740.967 1.65869 -0.0875899 0
M  V30 7836 O 742.152 1.88992 -0.262011 0
M  V30 7837 C 739.292 3.32435 -0.926335 0
M  V30 7838 C 738.405 3.76018 -2.12684 0
M  V30 7839 C 737.54 5.00301 -1.78529 0
M  V30 7840 C 736.579 5.36357 -2.94937 0
M  V30 7841 N 735.716 6.51818 -2.60917 0
M  V30 7842 H 740.556 2.06169 -2.1517 0
M  V30 7843 H 738.093 1.00917 -1.07024 0
M  V30 7844 H 740.051 4.10478 -0.745917 0
M  V30 7845 H 738.681 3.22796 -0.0153578 0
M  V30 7846 H 737.733 2.93683 -2.41774 0
M  V30 7847 H 739.045 3.98664 -2.99781 0
M  V30 7848 H 738.199 5.86034 -1.57001 0
M  V30 7849 H 736.938 4.79578 -0.886356 0
M  V30 7850 H 735.943 4.49139 -3.17103 0
M  V30 7851 H 737.168 5.59041 -3.85552 0
M  V30 7852 H 735.114 6.32624 -1.73558 0
M  V30 7853 H 735.031 6.7445 -3.41544 0
M  V30 7854 H 736.299 7.4072 -2.42804 0
M  V30 7855 N 740.528 1.15101 1.07655 0
M  V30 7856 C 741.491 0.847625 2.12951 0
M  V30 7857 C 742.491 -0.151227 1.60087 0
M  V30 7858 O 743.681 0.0780399 1.74025 0
M  V30 7859 C 740.813 0.265 3.39868 0
M  V30 7860 H 742.006 1.7809 2.41296 0
M  V30 7861 H 739.559 0.958072 1.23494 0
M  V30 7862 H 740.294 -0.676625 3.17163 0
M  V30 7863 H 740.079 0.984554 3.79538 0
M  V30 7864 H 741.569 0.0702121 4.17541 0
M  V30 7865 N 742.006 -1.2595 0.947325 0
M  V30 7866 C 743.236 -1.97258 0.614235 0
M  V30 7867 C 743.644 -1.70682 -0.816355 0
M  V30 7868 O 742.987 -0.97527 -1.55673 0
M  V30 7869 C 743.049 -3.50845 0.784081 0
M  V30 7870 C 742.713 -4.01084 2.19045 0
M  V30 7871 C 743.71 -4.12347 3.16648 0
M  V30 7872 C 741.395 -4.34936 2.51268 0
M  V30 7873 C 743.389 -4.56766 4.44572 0
M  V30 7874 C 741.076 -4.79043 3.79422 0
M  V30 7875 C 742.074 -4.89919 4.75887 0
M  V30 7876 O 741.762 -5.3305 6.01758 0
M  V30 7877 H 741.494 -0.635738 0.22981 0
M  V30 7878 H 744.048 -1.61268 1.27207 0
M  V30 7879 H 742.278 -3.86638 0.069101 0
M  V30 7880 H 743.967 -4.03363 0.453135 0
M  V30 7881 H 744.733 -3.86432 2.93079 0
M  V30 7882 H 740.612 -4.25702 1.76916 0
M  V30 7883 H 744.156 -4.6517 5.19868 0
M  V30 7884 H 740.053 -5.04402 4.02802 0
M  V30 7885 H 740.821 -5.51255 6.05029 0
M  V30 7886 N 743.484 -0.715051 -1.40445 0
M  V30 7887 C 744.712 -0.263959 -2.05209 0
M  V30 7888 C 745.127 1.09403 -1.53871 0
M  V30 7889 O 744.484 1.68746 -0.695064 0
M  V30 7890 C 744.535 -0.234545 -3.60738 0
M  V30 7891 O 744.256 -1.53891 -4.10182 0
M  V30 7892 C 745.757 0.235164 -4.42676 0
M  V30 7893 H 742.977 -0.11876 -0.660407 0
M  V30 7894 H 745.521 -0.973107 -1.79864 0
M  V30 7895 H 743.676 0.425563 -3.85055 0
M  V30 7896 H 744.09 -1.43903 -5.04373 0
M  V30 7897 H 745.564 0.204598 -5.51621 0
M  V30 7898 H 746.041 1.27724 -4.20218 0
M  V30 7899 H 746.647 -0.394649 -4.23465 0
M  V30 7900 N 744.962 1.50701 -0.461195 0
M  V30 7901 C 746.373 1.867 -0.00370227 0
M  V30 7902 C 746.724 1.37673 1.39787 0
M  V30 7903 O 745.849 0.737515 2.03445 0
M  V30 7904 C 746.444 3.388 5.75786e-05 0
M  V30 7905 C 745.003 3.74247 0.402044 0
M  V30 7906 C 744.15 2.74549 -0.389652 0
M  V30 7907 H 747.101 1.43585 -0.675942 0
M  V30 7908 H 747.122 3.719 0.804414 0
M  V30 7909 H 746.634 3.74452 -1.02015 0
M  V30 7910 H 744.735 3.44192 1.42697 0
M  V30 7911 H 744.848 4.78973 0.110265 0
M  V30 7912 H 743.212 2.54226 0.155314 0
M  V30 7913 H 743.995 3.13044 -1.40919 0
M  V30 7914 N 746.441 0.193421 1.56409 0
M  V30 7915 C 747.404 -0.714371 2.17783 0
M  V30 7916 C 748.404 -1.1422 1.13183 0
M  V30 7917 O 749.594 -1.05557 1.38576 0
M  V30 7918 C 746.726 -1.97509 2.77855 0
M  V30 7919 H 747.919 -0.179714 2.99361 0
M  V30 7920 H 745.472 -0.0561944 1.56199 0
M  V30 7921 H 746.207 -2.5523 2.0007 0
M  V30 7922 H 745.992 -1.67706 3.54425 0
M  V30 7923 H 747.482 -2.62246 3.24987 0
M  V30 7924 N 747.919 -1.57396 -0.0801906 0
M  V30 7925 C 749.165 -1.87979 -0.776884 0
M  V30 7926 C 749.52 -0.786098 -1.75608 0
M  V30 7927 O 748.813 0.210541 -1.9044 0
M  V30 7928 C 749.007 -3.22915 -1.53169 0
M  V30 7929 C 748.836 -4.45306 -0.627099 0
M  V30 7930 C 747.606 -5.04593 -0.267201 0
M  V30 7931 C 749.804 -5.14249 0.0724916 0
M  V30 7932 N 747.786 -6.10513 0.643995 0
M  V30 7933 C 749.157 -6.14267 0.841191 0
M  V30 7934 C 751.212 -4.97689 0.144847 0
M  V30 7935 C 749.915 -6.99514 1.67551 0
M  V30 7936 C 751.941 -5.83455 0.966112 0
M  V30 7937 C 751.303 -6.83005 1.72288 0
M  V30 7938 H 747.402 -0.737519 -0.259979 0
M  V30 7939 H 749.986 -1.94661 -0.0387512 0
M  V30 7940 H 748.157 -3.17256 -2.2406 0
M  V30 7941 H 749.889 -3.41174 -2.17675 0
M  V30 7942 H 746.644 -4.69548 -0.618194 0
M  V30 7943 H 747.068 -6.68125 1.09259 0
M  V30 7944 H 751.71 -4.20649 -0.4259 0
M  V30 7945 H 749.428 -7.75934 2.25726 0
M  V30 7946 H 753.014 -5.727 1.02497 0
M  V30 7947 H 751.894 -7.48219 2.34813 0
M  V30 7948 N 749.397 0.351382 -1.53633 0
M  V30 7949 C 750.36 1.41403 -1.80383 0
M  V30 7950 C 751.36 1.45963 -0.674635 0
M  V30 7951 O 752.55 1.46476 -0.942895 0
M  V30 7952 C 749.682 2.80401 -1.93876 0
M  V30 7953 H 750.875 1.18951 -2.75301 0
M  V30 7954 H 748.428 0.58533 -1.44926 0
M  V30 7955 H 749.163 3.08147 -1.01074 0
M  V30 7956 H 748.948 2.78488 -2.7602 0
M  V30 7957 H 750.438 3.57329 -2.16116 0
M  V30 7958 N 750.875 1.45233 0.611969 0
M  V30 7959 C 751.785 1.56098 1.7513 0
M  V30 7960 C 752.801 0.445646 1.68196 0
M  V30 7961 O 753.977 0.705718 1.88631 0
M  V30 7962 C 751.042 1.52052 3.11579 0
M  V30 7963 C 750.103 2.74589 3.29999 0
M  V30 7964 C 749.336 2.70726 4.59938 0
M  V30 7965 O 749.559 1.77806 5.41979 0
M  V30 7966 O 748.493 3.61864 4.80976 0
M  V30 7967 H 752.319 2.52392 1.68914 0
M  V30 7968 H 749.904 1.27695 0.775528 0
M  V30 7969 H 751.786 1.52387 3.92882 0
M  V30 7970 H 750.461 0.589085 3.18295 0
M  V30 7971 H 749.368 2.79817 2.48301 0
M  V30 7972 H 750.701 3.66843 3.28157 0
M  V30 7973 N 752.353 -0.854086 1.3245 0
M  V30 7974 C 753.285 -1.96932 1.17262 0
M  V30 7975 C 754.298 -1.62445 0.107469 0
M  V30 7976 O 755.487 -1.74904 0.356481 0
M  V30 7977 C 752.587 -3.29971 0.772817 0
M  V30 7978 C 751.76 -3.92695 1.92638 0
M  V30 7979 C 750.819 -5.04068 1.51003 0
M  V30 7980 O 749.845 -5.24032 2.22213 0
M  V30 7981 N 751.047 -5.79076 0.406371 0
M  V30 7982 H 753.812 -2.10503 2.13327 0
M  V30 7983 H 751.373 -1.02897 1.24995 0
M  V30 7984 H 753.365 -4.01883 0.476684 0
M  V30 7985 H 751.935 -3.1245 -0.0967 0
M  V30 7986 H 751.155 -3.13563 2.38897 0
M  V30 7987 H 752.443 -4.31337 2.69863 0
M  V30 7988 H 751.841 -5.65393 -0.186302 0
M  V30 7989 H 750.398 -6.51579 0.169846 0
M  V30 7990 N 753.831 -1.1567 -1.07043 0
M  V30 7991 C 755.08 -0.928039 -1.79082 0
M  V30 7992 C 755.393 0.545968 -1.87826 0
M  V30 7993 O 756.599 0.892308 -2.56418 0
M  V30 7994 C 755.055 -1.61103 -3.21829 0
M  V30 7995 C 754.663 -3.12228 -3.21275 0
M  V30 7996 C 756.407 -1.46404 -3.98455 0
M  V30 7997 C 754.314 -3.733 -4.58695 0
M  V30 7998 H 753.244 -0.34357 -0.671175 0
M  V30 7999 H 755.895 -1.38718 -1.20123 0
M  V30 8000 H 754.277 -1.07958 -3.81 0
M  V30 8001 H 755.451 -3.72155 -2.71731 0
M  V30 8002 H 753.766 -3.26725 -2.58147 0
M  V30 8003 H 756.363 -1.8942 -5.00024 0
M  V30 8004 H 756.706 -0.41195 -4.14257 0
M  V30 8005 H 757.239 -1.96663 -3.45787 0
M  V30 8006 H 753.978 -4.78423 -4.48098 0
M  V30 8007 H 753.498 -3.18157 -5.08465 0
M  V30 8008 H 755.177 -3.7441 -5.27661 0
M  V30 8009 N 755.309 1.25446 -0.953992 0
M  V30 8010 C 756.537 1.97215 -0.625595 0
M  V30 8011 C 756.952 1.70911 0.802168 0
M  V30 8012 O 756.309 0.984782 1.5365 0
M  V30 8013 C 756.36 3.50777 -0.873943 0
M  V30 8014 O 756.081 3.76173 -2.24556 0
M  V30 8015 C 757.582 4.39776 -0.557845 0
M  V30 8016 H 754.802 0.628652 -0.2346 0
M  V30 8017 H 757.346 1.59632 -1.27819 0
M  V30 8018 H 755.501 3.86474 -0.267765 0
M  V30 8019 H 755.915 4.70636 -2.31522 0
M  V30 8020 H 757.389 5.46431 -0.782157 0
M  V30 8021 H 757.866 4.36257 0.507573 0
M  V30 8022 H 758.472 4.09644 -1.14332 0
M  V30 8023 N 756.787 0.722489 1.40064 0
M  V30 8024 C 758.035 0.264455 2.00362 0
M  V30 8025 C 758.356 -1.14847 1.57592 0
M  V30 8026 O 757.626 -1.77982 0.818477 0
M  V30 8027 H 756.206 0.0947846 0.740962 0
M  V30 8028 H 758.868 0.929659 1.71299 0
M  V30 8029 H 757.964 0.302977 3.10626 0
M  V30 8030 N 758.265 -1.50454 0.469181 0
M  V30 8031 C 759.511 -2.02615 -0.0865971 0
M  V30 8032 C 759.844 -1.35062 -1.39542 0
M  V30 8033 O 759.119 -0.475701 -1.88593 0
M  V30 8034 C 759.402 -3.59068 -0.272385 0
M  V30 8035 C 759.255 -4.37196 1.05733 0
M  V30 8036 C 760.574 -4.2793 -1.0278 0
M  V30 8037 H 757.693 -0.736389 -0.0299977 0
M  V30 8038 H 760.335 -1.79792 0.614399 0
M  V30 8039 H 758.485 -3.78646 -0.869471 0
M  V30 8040 H 760.157 -4.29195 1.69084 0
M  V30 8041 H 758.4 -4.01013 1.65442 0
M  V30 8042 H 759.071 -5.44924 0.880997 0
M  V30 8043 H 761.547 -4.12816 -0.521718 0
M  V30 8044 H 760.423 -5.37214 -1.12659 0
M  V30 8045 H 760.684 -3.90968 -2.0639 0
M  V30 8046 N 759.743 -0.201713 -1.56304 0
M  V30 8047 C 760.968 0.443815 -2.02596 0
M  V30 8048 C 761.393 1.53945 -1.08086 0
M  V30 8049 O 760.751 1.81182 -0.0655056 0
M  V30 8050 C 760.799 0.971066 -3.47279 0
M  V30 8051 O 759.903 2.0836 -3.55893 0
M  V30 8052 H 759.244 0.10294 -0.655972 0
M  V30 8053 H 761.774 -0.314533 -2.02168 0
M  V30 8054 H 761.784 1.28598 -3.87204 0
M  V30 8055 H 760.459 0.169048 -4.15556 0
M  V30 8056 H 759.036 1.77683 -3.27846 0
M  V30 8057 N 761.222 1.57436 0.0718424 0
M  V30 8058 C 762.638 1.53792 0.426628 0
M  V30 8059 C 762.838 0.921887 1.79174 0
M  V30 8060 O 761.894 0.524374 2.46995 0
M  V30 8061 C 763.207 2.98443 0.367739 0
M  V30 8062 C 764.755 3.09778 0.447928 0
M  V30 8063 C 765.23 4.5608 0.418946 0
M  V30 8064 N 766.721 4.60716 0.479022 0
M  V30 8065 C 767.456 5.71397 0.47881 0
M  V30 8066 N 766.952 6.91443 0.433417 0
M  V30 8067 N 768.745 5.59639 0.525364 0
M  V30 8068 H 760.896 1.95848 -0.822033 0
M  V30 8069 H 763.159 0.896418 -0.308447 0
M  V30 8070 H 762.865 3.47072 -0.56865 0
M  V30 8071 H 762.739 3.58335 1.17795 0
M  V30 8072 H 765.126 2.61122 1.37474 0
M  V30 8073 H 765.207 2.52796 -0.390857 0
M  V30 8074 H 764.851 5.05393 -0.504016 0
M  V30 8075 H 764.781 5.10925 1.27526 0
M  V30 8076 H 767.272 3.74328 0.518355 0
M  V30 8077 H 767.585 7.71562 0.43718 0
M  V30 8078 H 765.93 6.93847 0.400106 0
M  V30 8079 H 769.121 4.64756 0.558519 0
M  V30 8080 H 769.294 6.45896 0.52173 0
M  V30 8081 N 762.7 -0.34323 1.53817 0
M  V30 8082 C 763.925 -1.1079 1.75329 0
M  V30 8083 C 764.35 -1.81571 0.491293 0
M  V30 8084 O 763.708 -1.72561 -0.556089 0
M  V30 8085 C 763.756 -2.09681 2.9337 0
M  V30 8086 O 762.86 -3.17207 2.63541 0
M  V30 8087 H 762.201 -0.320402 0.581583 0
M  V30 8088 H 764.731 -0.393525 2.0078 0
M  V30 8089 H 764.741 -2.52897 3.20168 0
M  V30 8090 H 763.416 -1.5756 3.84899 0
M  V30 8091 H 761.993 -2.78806 2.47632 0
M  V30 8092 N 764.178 -1.45556 -0.604258 0
M  V30 8093 C 765.11 -1.50494 -1.72871 0
M  V30 8094 C 766.123 -0.395368 -1.57926 0
M  V30 8095 O 767.312 -0.662603 -1.65746 0
M  V30 8096 C 764.412 -1.34874 -3.10906 0
M  V30 8097 C 763.585 -2.59564 -3.52058 0
M  V30 8098 C 762.644 -2.38453 -4.6907 0
M  V30 8099 O 761.67 -3.12082 -4.76018 0
M  V30 8100 N 762.872 -1.43229 -5.62553 0
M  V30 8101 H 765.637 -2.4744 -1.69097 0
M  V30 8102 H 763.198 -1.41338 -0.789636 0
M  V30 8103 H 765.19 -1.18556 -3.86945 0
M  V30 8104 H 763.76 -0.461913 -3.09168 0
M  V30 8105 H 762.98 -2.90974 -2.65946 0
M  V30 8106 H 764.268 -3.42441 -3.76313 0
M  V30 8107 H 763.666 -0.824714 -5.59656 0
M  V30 8108 H 762.223 -1.32882 -6.38111 0
M  V30 8109 N 765.656 0.84705 -1.32902 0
M  V30 8110 C 766.905 1.59667 -1.23245 0
M  V30 8111 C 767.218 1.94551 0.202349 0
M  V30 8112 O 768.424 2.68218 0.420847 0
M  V30 8113 C 766.88 2.8795 -2.15901 0
M  V30 8114 C 766.488 2.60461 -3.64505 0
M  V30 8115 C 768.232 3.65968 -2.15098 0
M  V30 8116 C 766.139 3.84791 -4.49099 0
M  V30 8117 H 765.069 0.599167 -0.457728 0
M  V30 8118 H 767.72 0.934662 -1.57912 0
M  V30 8119 H 766.102 3.55648 -1.74157 0
M  V30 8120 H 767.276 2.01026 -4.14639 0
M  V30 8121 H 765.591 1.9576 -3.67515 0
M  V30 8122 H 768.188 4.58241 -2.75534 0
M  V30 8123 H 768.531 4.00275 -1.14392 0
M  V30 8124 H 769.064 3.05184 -2.55162 0
M  V30 8125 H 765.803 3.55621 -5.50649 0
M  V30 8126 H 765.323 4.43594 -4.03713 0
M  V30 8127 H 767.002 4.52454 -4.62487 0
M  V30 8128 N 767.134 1.16236 1.06428 0
M  V30 8129 C 768.383 0.937523 1.78587 0
M  V30 8130 C 768.696 -0.536 1.88113 0
M  V30 8131 O 769.902 -0.878697 2.56887 0
M  V30 8132 C 768.358 1.62808 3.2097 0
M  V30 8133 C 767.966 3.13927 3.19615 0
M  V30 8134 C 769.71 1.48515 3.97673 0
M  V30 8135 C 767.617 3.75727 4.56709 0
M  V30 8136 H 766.547 0.347125 0.669343 0
M  V30 8137 H 769.198 1.39353 1.19385 0
M  V30 8138 H 767.58 1.09977 3.80422 0
M  V30 8139 H 768.754 3.7359 2.69753 0
M  V30 8140 H 767.069 3.28089 2.56411 0
M  V30 8141 H 769.666 1.92069 4.99013 0
M  V30 8142 H 770.009 0.433913 4.14032 0
M  V30 8143 H 770.542 1.98494 3.44739 0
M  V30 8144 H 767.281 4.80793 4.45554 0
M  V30 8145 H 766.801 3.20849 5.0677 0
M  V30 8146 H 768.48 3.77203 5.25668 0
M  V30 8147 N 768.612 -1.24939 0.960631 0
M  V30 8148 C 770.028 -1.45039 0.666018 0
M  V30 8149 C 770.228 -1.86021 -0.774501 0
M  V30 8150 O 769.284 -1.99392 -1.54916 0
M  V30 8151 C 770.597 -2.51775 1.64408 0
M  V30 8152 C 772.145 -2.6561 1.65592 0
M  V30 8153 C 772.62 -3.75536 2.62177 0
M  V30 8154 N 774.111 -3.82954 2.60577 0
M  V30 8155 C 774.846 -4.67517 3.31987 0
M  V30 8156 N 774.342 -5.56321 4.1289 0
M  V30 8157 N 776.135 -4.61535 3.20845 0
M  V30 8158 H 768.286 -0.96632 1.89145 0
M  V30 8159 H 770.549 -0.486034 0.813926 0
M  V30 8160 H 770.255 -2.28534 2.67329 0
M  V30 8161 H 770.129 -3.49804 1.41128 0
M  V30 8162 H 772.516 -2.88212 0.633846 0
M  V30 8163 H 772.597 -1.67962 1.92931 0
M  V30 8164 H 772.241 -3.53684 3.64514 0
M  V30 8165 H 772.171 -4.72682 2.32119 0
M  V30 8166 H 774.662 -3.19478 2.01847 0
M  V30 8167 H 774.975 -6.17787 4.64283 0
M  V30 8168 H 773.32 -5.5601 4.16987 0
M  V30 8169 H 776.511 -3.91169 2.57108 0
M  V30 8170 H 776.684 -5.27214 3.76762 0
M  V30 8171 N 770.09 -0.729906 -1.39679 0
M  V30 8172 C 771.339 -0.272534 -1.9985 0
M  V30 8173 C 771.652 1.14519 -1.58571 0
M  V30 8174 O 772.858 1.70182 -2.11543 0
M  V30 8175 C 771.314 -0.436322 -3.57245 0
M  V30 8176 C 770.922 -1.86161 -4.0749 0
M  V30 8177 C 772.666 -0.0404679 -4.24481 0
M  V30 8178 C 770.573 -1.97522 -5.5744 0
M  V30 8179 H 769.503 -0.0981428 -0.747585 0
M  V30 8180 H 772.154 -0.903056 -1.59741 0
M  V30 8181 H 770.536 0.263015 -3.95126 0
M  V30 8182 H 771.71 -2.59248 -3.80955 0
M  V30 8183 H 770.025 -2.21021 -3.529 0
M  V30 8184 H 772.622 -0.104437 -5.34598 0
M  V30 8185 H 772.965 1.00357 -4.04023 0
M  V30 8186 H 773.498 -0.690774 -3.91757 0
M  V30 8187 H 770.237 -3.00096 -5.82771 0
M  V30 8188 H 769.757 -1.28864 -5.85794 0
M  V30 8189 H 771.436 -1.754 -6.22771 0
M  V30 8190 N 771.568 1.50203 -0.477153 0
M  V30 8191 C 772.531 2.27194 0.302599 0
M  V30 8192 C 773.531 1.32221 0.915112 0
M  V30 8193 O 774.721 1.55593 0.783348 0
M  V30 8194 C 771.853 3.0938 1.43167 0
M  V30 8195 H 773.046 2.97575 -0.372678 0
M  V30 8196 H 770.599 1.54578 -0.231392 0
M  V30 8197 H 771.334 2.43509 2.14182 0
M  V30 8198 H 771.119 3.79181 0.998197 0
M  V30 8199 H 772.609 3.67592 1.98157 0
M  V30 8200 N 773.046 0.209999 1.56195 0
M  V30 8201 C 774.462 -0.145598 1.58934 0
M  V30 8202 C 774.662 -1.59868 1.22656 0
M  V30 8203 O 773.718 -2.33689 0.956336 0
M  V30 8204 C 775.031 0.170243 3.00218 0
M  V30 8205 C 776.579 0.111548 3.12801 0
M  V30 8206 C 777.054 0.400904 4.56242 0
M  V30 8207 N 778.545 0.350058 4.61875 0
M  V30 8208 C 779.28 0.547598 5.70779 0
M  V30 8209 N 778.776 0.806291 6.88092 0
M  V30 8210 N 780.569 0.480827 5.6004 0
M  V30 8211 H 772.72 1.15804 1.78054 0
M  V30 8212 H 774.983 0.463326 0.827063 0
M  V30 8213 H 774.689 1.17833 3.31373 0
M  V30 8214 H 774.563 -0.520208 3.73596 0
M  V30 8215 H 776.95 -0.887162 2.81449 0
M  V30 8216 H 777.031 0.835302 2.41777 0
M  V30 8217 H 776.675 1.397 4.8831 0
M  V30 8218 H 776.605 -0.34391 5.25476 0
M  V30 8219 H 779.096 0.157334 3.77572 0
M  V30 8220 H 779.409 0.945433 7.66995 0
M  V30 8221 H 777.754 0.843355 6.89864 0
M  V30 8222 H 780.945 0.279037 4.67268 0
M  V30 8223 H 781.118 0.638189 6.4485 0
M  V30 8224 N 774.524 -1.57472 -0.0634922 0
M  V30 8225 C 775.434 -2.07621 -1.09227 0
M  V30 8226 C 776.45 -1.00746 -1.41867 0
M  V30 8227 O 777.626 -1.32269 -1.51878 0
M  V30 8228 C 774.691 -2.51707 -2.38421 0
M  V30 8229 C 773.752 -3.72917 -2.12676 0
M  V30 8230 C 772.985 -4.14891 -3.3571 0
M  V30 8231 O 773.208 -3.56663 -4.45137 0
M  V30 8232 O 772.142 -5.07616 -3.23434 0
M  V30 8233 H 775.968 -2.95612 -0.696205 0
M  V30 8234 H 773.553 -1.46787 -0.27819 0
M  V30 8235 H 775.435 -2.80547 -3.14438 0
M  V30 8236 H 774.11 -1.66842 -2.77391 0
M  V30 8237 H 773.017 -3.49148 -1.34337 0
M  V30 8238 H 774.35 -4.5866 -1.78583 0
M  V30 8239 N 776.003 0.335068 -1.53997 0
M  V30 8240 C 777.25 1.07435 -1.71651 0
M  V30 8241 C 777.578 1.88378 -0.48413 0
M  V30 8242 O 776.833 1.8827 0.534139 0
M  V30 8243 C 777.132 2.0364 -2.9371 0
M  V30 8244 C 776.798 1.38942 -4.28959 0
M  V30 8245 C 775.46 1.21027 -4.65732 0
M  V30 8246 C 777.812 0.924083 -5.12943 0
M  V30 8247 C 775.14 0.552097 -5.84097 0
M  V30 8248 C 777.492 0.27978 -6.31981 0
M  V30 8249 C 776.156 0.0883843 -6.67441 0
M  V30 8250 H 775.426 0.393133 -0.628114 0
M  V30 8251 H 778.073 0.352712 -1.88224 0
M  V30 8252 H 776.378 2.82215 -2.71775 0
M  V30 8253 H 778.075 2.6085 -3.04562 0
M  V30 8254 H 774.665 1.53885 -4.00022 0
M  V30 8255 H 778.849 1.05032 -4.85059 0
M  V30 8256 H 774.105 0.392502 -6.10139 0
M  V30 8257 H 778.279 -0.0888479 -6.96343 0
M  V30 8258 H 775.906 -0.423657 -7.59019 0
M  V30 8259 N 777.481 1.45874 0.596531 0
M  V30 8260 C 778.444 1.54988 1.68853 0
M  V30 8261 C 779.444 0.428302 1.54991 0
M  V30 8262 O 780.634 0.692158 1.59859 0
M  V30 8263 C 777.766 1.457 3.08195 0
M  V30 8264 H 778.959 2.52294 1.62135 0
M  V30 8265 H 776.512 1.33479 0.813206 0
M  V30 8266 H 777.247 0.496204 3.20481 0
M  V30 8267 H 777.032 2.27061 3.19665 0
M  V30 8268 H 778.522 1.55133 3.87716 0
M  V30 8269 N 778.959 -0.83999 1.33349 0
M  V30 8270 C 780.236 -1.57973 1.15342 0
M  V30 8271 C 780.616 -2.09226 -0.280632 0
M  V30 8272 O 779.964 -1.89317 -1.2795 0
M  V30 8273 C 780.174 -2.71446 2.19359 0
M  V30 8274 C 781.522 -3.40654 2.53456 0
M  V30 8275 O 782.546 -2.81686 2.18017 0
M  V30 8276 O 781.405 -4.47101 3.14266 0
M  V30 8277 H 778.499 -0.6964 0.446044 0
M  V30 8278 H 781.045 -0.882843 1.44927 0
M  V30 8279 H 779.817 -2.31205 3.1569 0
M  V30 8280 H 779.44 -3.488 1.90852 0
M  V30 8281 N 780.437 -1.16799 -1.0581 0
M  V30 8282 C 781.385 -0.875111 -2.1551 0
M  V30 8283 C 782.379 0.157781 -1.68664 0
M  V30 8284 O 783.585 0.011297 -1.79996 0
M  V30 8285 H 779.96 -0.26542 -0.703602 0
M  V30 8286 H 781.931 -1.8076 -2.37421 0
M  V30 8287 C 780.68 -0.39802 -3.45414 0
M  V30 8288 H 780.003 -1.18425 -3.81858 0
M  V30 8289 H 781.443 -0.231913 -4.23365 0
M  V30 8290 C 779.902 0.88327 -3.25115 0
M  V30 8291 O 780.432 1.95145 -3.51114 0
M  V30 8292 N 778.638 0.828961 -2.78526 0
M  V30 8293 H 778.185 -0.0405029 -2.57568 0
M  V30 8294 H 778.143 1.68673 -2.65324 0
M  V30 8295 N 781.915 1.24427 -0.967243 0
M  V30 8296 C 782.878 2.23637 -0.501927 0
M  V30 8297 C 783.878 1.55712 0.401283 0
M  V30 8298 O 785.068 1.73085 0.196808 0
M  V30 8299 C 782.2 3.39804 0.273176 0
M  V30 8300 H 783.393 2.66317 -1.37897 0
M  V30 8301 H 780.946 1.37033 -0.751783 0
M  V30 8302 H 781.681 3.02562 1.16733 0
M  V30 8303 H 781.466 3.90303 -0.37498 0
M  V30 8304 H 782.956 4.13443 0.587776 0
M  V30 8305 N 783.393 0.737304 1.3929 0
M  V30 8306 C 784.67 0.212464 1.94443 0
M  V30 8307 C 785.05 -1.28621 1.67391 0
M  V30 8308 O 784.398 -2.0529 1.00342 0
M  V30 8309 C 784.608 0.548565 3.44662 0
M  V30 8310 C 785.956 0.499177 4.21656 0
M  V30 8311 O 786.98 0.485892 3.5287 0
M  V30 8312 O 785.839 0.495739 5.44247 0
M  V30 8313 H 782.933 0.0395457 0.826054 0
M  V30 8314 H 785.479 0.816319 1.48776 0
M  V30 8315 H 784.251 1.58426 3.57795 0
M  V30 8316 H 783.874 -0.0841399 3.97511 0
M  V30 8317 N 784.871 -1.49948 0.485112 0
M  V30 8318 C 785.818 -2.28819 -0.301729 0
M  V30 8319 C 786.788 -1.34496 -0.974683 0
M  V30 8320 O 787.973 -1.63444 -0.984418 0
M  V30 8321 C 785.113 -3.16758 -1.36961 0
M  V30 8322 C 784.226 -4.26125 -0.710027 0
M  V30 8323 C 783.361 -5.01302 -1.75699 0
M  V30 8324 C 782.4 -6.02525 -1.07841 0
M  V30 8325 N 781.537 -6.70927 -2.06886 0
M  V30 8326 H 786.377 -2.95604 0.377127 0
M  V30 8327 H 783.914 -1.45764 0.197826 0
M  V30 8328 H 785.872 -3.66106 -2.00056 0
M  V30 8329 H 784.502 -2.51991 -2.01744 0
M  V30 8330 H 783.554 -3.80385 0.0338278 0
M  V30 8331 H 784.866 -4.98493 -0.175079 0
M  V30 8332 H 784.02 -5.54438 -2.46339 0
M  V30 8333 H 782.759 -4.28672 -2.32577 0
M  V30 8334 H 781.764 -5.48635 -0.357706 0
M  V30 8335 H 782.989 -6.77134 -0.516345 0
M  V30 8336 H 780.935 -6.01079 -2.62755 0
M  V30 8337 H 780.852 -7.39216 -1.58414 0
M  V30 8338 H 782.12 -7.28675 -2.76863 0
M  V30 8339 N 786.349 -0.21828 -1.56081 0
M  V30 8340 C 787.577 0.419258 -2.02608 0
M  V30 8341 C 787.992 1.53578 -1.09814 0
M  V30 8342 O 787.349 1.82185 -0.107149 0
M  V30 8343 C 787.4 0.953955 -3.48686 0
M  V30 8344 O 787.121 -0.11805 -4.37941 0
M  V30 8345 C 788.622 1.66506 -4.10841 0
M  V30 8346 H 785.842 0.10296 -0.663054 0
M  V30 8347 H 788.386 -0.333776 -2.01758 0
M  V30 8348 H 786.541 1.65727 -3.50162 0
M  V30 8349 H 786.955 0.283359 -5.23734 0
M  V30 8350 H 788.429 1.99123 -5.14834 0
M  V30 8351 H 788.906 2.57705 -3.55647 0
M  V30 8352 H 789.512 1.00703 -4.13206 0
M  V30 8353 N 787.827 1.57504 0.0551401 0
M  V30 8354 C 788.777 2.0128 1.071 0
M  V30 8355 C 789.761 0.897592 1.33537 0
M  V30 8356 O 790.953 1.16151 1.33558 0
M  V30 8357 C 788.082 2.47414 2.37994 0
M  V30 8358 C 787.168 3.65703 2.14761 0
M  V30 8359 N 787.559 4.79323 1.61504 0
M  V30 8360 C 785.857 3.72574 2.45162 0
M  V30 8361 C 786.558 5.61089 1.53472 0
M  V30 8362 N 785.534 5.05426 2.00114 0
M  V30 8363 H 789.336 2.86558 0.652829 0
M  V30 8364 H 786.85 1.60274 0.26193 0
M  V30 8365 H 788.847 2.77023 3.11551 0
M  V30 8366 H 787.507 1.6353 2.80514 0
M  V30 8367 H 788.518 5.01284 1.30134 0
M  V30 8368 H 785.195 2.99439 2.90934 0
M  V30 8369 H 786.585 6.62328 1.13008 0
M  V30 8370 N 789.305 -0.326896 1.54172 0
M  V30 8371 C 790.553 -1.06313 1.71878 0
M  V30 8372 C 790.874 -1.88652 0.493498 0
M  V30 8373 O 790.144 -1.89608 -0.492522 0
M  V30 8374 H 788.724 -0.39549 0.633716 0
M  V30 8375 H 791.386 -0.364139 1.91468 0
M  V30 8376 H 790.482 -1.73105 2.59694 0
M  V30 8377 N 790.784 -1.46188 -0.588786 0
M  V30 8378 C 792.2 -1.31009 -0.911524 0
M  V30 8379 C 792.4 -0.277017 -1.99587 0
M  V30 8380 O 791.456 0.322532 -2.50432 0
M  V30 8381 C 792.769 -2.69459 -1.33463 0
M  V30 8382 C 794.317 -2.77502 -1.44782 0
M  V30 8383 C 794.792 -4.1652 -1.90461 0
M  V30 8384 N 796.283 -4.18907 -1.97665 0
M  V30 8385 C 797.018 -5.23359 -2.34271 0
M  V30 8386 N 796.514 -6.38143 -2.69714 0
M  V30 8387 N 798.307 -5.10723 -2.34774 0
M  V30 8388 H 790.458 -2.12016 0.127614 0
M  V30 8389 H 792.721 -0.947984 -0.00557599 0
M  V30 8390 H 792.427 -3.46336 -0.611929 0
M  V30 8391 H 792.301 -2.99165 -2.2974 0
M  V30 8392 H 794.688 -2.00917 -2.1614 0
M  V30 8393 H 794.769 -2.51488 -0.467724 0
M  V30 8394 H 794.413 -4.93597 -1.19684 0
M  V30 8395 H 794.343 -4.39937 -2.89418 0
M  V30 8396 H 796.834 -3.36084 -1.72789 0
M  V30 8397 H 797.147 -7.13624 -2.96582 0
M  V30 8398 H 795.492 -6.41514 -2.67366 0
M  V30 8399 H 798.683 -4.20088 -2.06503 0
M  V30 8400 H 798.856 -5.9224 -2.62975 0
M  V30 8401 N 792.262 0.832906 -1.33792 0
M  V30 8402 C 793.487 1.62568 -1.28788 0
M  V30 8403 C 793.912 1.87599 0.137246 0
M  V30 8404 O 793.27 1.44436 1.0958 0
M  V30 8405 C 793.318 2.9495 -2.07453 0
M  V30 8406 O 792.422 3.86546 -1.43722 0
M  V30 8407 H 791.763 0.494809 -0.442787 0
M  V30 8408 H 794.293 1.03578 -1.76445 0
M  V30 8409 H 794.303 3.44599 -2.1844 0
M  V30 8410 H 792.978 2.76055 -3.11073 0
M  V30 8411 H 791.555 3.45044 -1.41417 0
M  V30 8412 N 793.74 1.17359 1.05189 0
M  V30 8413 C 794.673 0.833768 2.12423 0
M  V30 8414 C 795.651 -0.19945 1.61372 0
M  V30 8415 O 796.835 -0.080979 1.88326 0
M  V30 8416 C 793.962 0.243745 3.37822 0
M  V30 8417 C 793.008 1.25235 4.07699 0
M  V30 8418 S 793.841 2.80368 4.56239 0
M  V30 8419 C 794.997 2.22846 5.84885 0
M  V30 8420 H 795.23 1.74197 2.40921 0
M  V30 8421 H 792.763 0.998242 1.1779 0
M  V30 8422 H 794.721 -0.0901915 4.10401 0
M  V30 8423 H 793.382 -0.642396 3.07461 0
M  V30 8424 H 792.575 0.788168 4.97799 0
M  V30 8425 H 792.177 1.53194 3.41185 0
M  V30 8426 H 794.469 1.60403 6.58238 0
M  V30 8427 H 795.412 3.112 6.3605 0
M  V30 8428 H 795.82 1.66296 5.39449 0
M  V30 8429 N 795.218 -1.23913 0.973828 0
M  V30 8430 C 796.467 -1.91455 0.63464 0
M  V30 8431 C 796.78 -1.76893 -0.834759 0
M  V30 8432 O 797.986 -2.3918 -1.28473 0
M  V30 8433 C 796.442 -3.43172 1.08447 0
M  V30 8434 C 796.05 -3.66409 2.57776 0
M  V30 8435 C 797.794 -4.1653 0.818721 0
M  V30 8436 C 795.701 -5.11728 2.9646 0
M  V30 8437 H 794.631 -0.716881 0.233661 0
M  V30 8438 H 797.282 -1.40457 1.18085 0
M  V30 8439 H 795.664 -3.93242 0.466524 0
M  V30 8440 H 796.838 -3.26913 3.24753 0
M  V30 8441 H 795.153 -3.06349 2.82027 0
M  V30 8442 H 797.75 -5.23603 1.08367 0
M  V30 8443 H 798.093 -4.15578 -0.245128 0
M  V30 8444 H 798.626 -3.72428 1.39793 0
M  V30 8445 H 795.365 -5.17806 4.01941 0
M  V30 8446 H 794.885 -5.52199 2.34172 0
M  V30 8447 H 796.564 -5.80009 2.86703 0
M  V30 8448 N 796.696 -0.74468 -1.38897 0
M  V30 8449 C 797.945 -0.293716 -1.9955 0
M  V30 8450 C 798.258 1.12831 -1.59777 0
M  V30 8451 O 799.464 1.67929 -2.13336 0
M  V30 8452 C 797.92 -0.474188 -3.56762 0
M  V30 8453 C 797.528 -1.90472 -4.05493 0
M  V30 8454 C 799.272 -0.0854875 -4.24414 0
M  V30 8455 C 797.179 -2.03423 -5.55314 0
M  V30 8456 H 796.109 -0.106066 -0.746502 0
M  V30 8457 H 798.76 -0.919948 -1.58774 0
M  V30 8458 H 797.142 0.221092 -3.95382 0
M  V30 8459 H 798.316 -2.63274 -3.78184 0
M  V30 8460 H 796.631 -2.24752 -3.50536 0
M  V30 8461 H 799.228 -0.161133 -5.34457 0
M  V30 8462 H 799.571 0.96066 -4.05064 0
M  V30 8463 H 800.104 -0.732286 -3.91002 0
M  V30 8464 H 796.843 -3.0626 -5.79556 0
M  V30 8465 H 796.363 -1.3507 -5.84394 0
M  V30 8466 H 798.042 -1.81996 -6.20876 0
M  V30 8467 N 798.174 1.49689 -0.493057 0
M  V30 8468 C 799.42 2.02727 0.0543518 0
M  V30 8469 C 799.753 1.37264 1.37376 0
M  V30 8470 O 799.028 0.505644 1.87812 0
M  V30 8471 C 799.311 3.59456 0.215226 0
M  V30 8472 C 799.164 4.35459 -1.12675 0
M  V30 8473 C 800.483 4.29511 0.959586 0
M  V30 8474 H 797.602 0.736773 0.0182786 0
M  V30 8475 H 800.244 1.78792 -0.642924 0
M  V30 8476 H 798.394 3.79981 0.809122 0
M  V30 8477 H 800.066 4.2645 -1.75891 0
M  V30 8478 H 798.309 3.9833 -1.71801 0
M  V30 8479 H 798.98 5.43454 -0.967578 0
M  V30 8480 H 801.456 4.13594 0.455977 0
M  V30 8481 H 800.332 5.38939 1.04098 0
M  V30 8482 H 800.593 3.94202 2.00144 0
M  V30 8483 N 799.652 0.226554 1.55963 0
M  V30 8484 C 800.9 -0.402991 1.98041 0
M  V30 8485 C 801.221 -1.59938 1.11557 0
M  V30 8486 O 800.491 -1.9494 0.193719 0
M  V30 8487 H 799.071 -0.15188 0.731397 0
M  V30 8488 H 801.733 0.320613 1.92245 0
M  V30 8489 H 800.829 -0.725937 3.0354 0
M  V30 8490 N 801.13 -1.57531 -0.0467866 0
M  V30 8491 C 802.093 -2.04379 -1.03738 0
M  V30 8492 C 803.093 -0.944881 -1.3011 0
M  V30 8493 O 804.283 -1.20904 -1.25411 0
M  V30 8494 C 801.415 -2.44572 -2.37482 0
M  V30 8495 H 802.608 -2.93142 -0.633063 0
M  V30 8496 H 800.161 -1.53526 -0.293177 0
M  V30 8497 H 800.896 -1.58911 -2.82697 0
M  V30 8498 H 800.681 -3.24785 -2.19675 0
M  V30 8499 H 802.171 -2.81307 -3.08636 0
M  V30 8500 N 802.608 0.318715 -1.54344 0
M  V30 8501 C 803.856 1.054 -1.72439 0
M  V30 8502 C 804.177 1.88388 -0.503495 0
M  V30 8503 O 803.447 1.89866 0.48246 0
M  V30 8504 H 802.027 0.392124 -0.635805 0
M  V30 8505 H 804.689 0.35398 -1.91659 0
M  V30 8506 H 803.785 1.71726 -2.60608 0
M  V30 8507 N 804.086 1.46499 0.581025 0
M  V30 8508 C 805.016 1.60052 1.70017 0
M  V30 8509 C 805.997 0.450788 1.64018 0
M  V30 8510 O 807.182 0.677237 1.82009 0
M  V30 8511 C 804.312 1.5921 3.08658 0
M  V30 8512 C 803.266 2.73169 3.29488 0
M  V30 8513 C 802.592 2.57389 4.68674 0
M  V30 8514 C 803.892 4.14978 3.1716 0
M  V30 8515 H 805.586 2.53735 1.5893 0
M  V30 8516 H 803.132 1.22113 0.763173 0
M  V30 8517 H 805.085 1.67285 3.86773 0
M  V30 8518 H 803.809 0.620718 3.20647 0
M  V30 8519 H 802.468 2.64566 2.53773 0
M  V30 8520 H 802.116 1.58331 4.77431 0
M  V30 8521 H 801.816 3.33826 4.83564 0
M  V30 8522 H 803.34 2.67358 5.48956 0
M  V30 8523 H 804.754 4.24684 3.85119 0
M  V30 8524 H 803.151 4.92016 3.4357 0
M  V30 8525 H 804.221 4.35016 2.14218 0
M  V30 8526 N 805.565 -0.825799 1.34232 0
M  V30 8527 C 806.513 -1.95792 1.25572 0
M  V30 8528 C 807.507 -1.68695 0.154404 0
M  V30 8529 O 808.713 -1.77147 0.319196 0
M  V30 8530 H 805.088 -0.642949 0.390027 0
M  V30 8531 H 807.059 -2.00219 2.21258 0
M  V30 8532 C 805.808 -3.32245 1.02511 0
M  V30 8533 H 805.131 -3.53642 1.86487 0
M  V30 8534 H 806.571 -4.1192 1.00487 0
M  V30 8535 C 805.03 -3.35803 -0.27167 0
M  V30 8536 O 805.56 -3.80962 -1.274 0
M  V30 8537 N 803.766 -2.89008 -0.303778 0
M  V30 8538 H 803.313 -2.52451 0.512464 0
M  V30 8539 H 803.271 -2.9177 -1.17121 0
M  V30 8540 N 807.043 -1.17915 -1.04565 0
M  V30 8541 C 807.993 -0.869634 -2.10764 0
M  V30 8542 C 808.977 0.158502 -1.60117 0
M  V30 8543 O 810.169 -0.04483 -1.76943 0
M  V30 8544 C 807.298 -0.391642 -3.41059 0
M  V30 8545 C 806.384 -1.45156 -3.98485 0
M  V30 8546 N 806.775 -2.6667 -4.29792 0
M  V30 8547 C 805.073 -1.3109 -4.263 0
M  V30 8548 C 805.774 -3.34823 -4.75677 0
M  V30 8549 N 804.75 -2.62203 -4.76183 0
M  V30 8550 H 808.552 -1.79342 -2.32838 0
M  V30 8551 H 806.066 -1.0688 -1.22272 0
M  V30 8552 H 808.063 -0.151428 -4.16625 0
M  V30 8553 H 806.723 0.525862 -3.20413 0
M  V30 8554 H 807.734 -3.0358 -4.19594 0
M  V30 8555 H 804.411 -0.455545 -4.15007 0
M  V30 8556 H 805.801 -4.38645 -5.0896 0
M  V30 8557 N 808.521 1.23394 -0.980386 0
M  V30 8558 C 809.767 1.924 -0.659848 0
M  V30 8559 C 810.122 1.75076 0.797883 0
M  V30 8560 O 809.415 1.10104 1.56805 0
M  V30 8561 C 809.609 3.43542 -0.985588 0
M  V30 8562 C 809.438 3.75568 -2.47343 0
M  V30 8563 C 808.208 3.96257 -3.13541 0
M  V30 8564 C 810.406 3.81045 -3.45412 0
M  V30 8565 N 808.388 4.15489 -4.51932 0
M  V30 8566 C 809.759 4.05269 -4.69209 0
M  V30 8567 C 811.814 3.63837 -3.39893 0
M  V30 8568 C 810.517 4.14071 -5.88164 0
M  V30 8569 C 812.543 3.73892 -4.58212 0
M  V30 8570 C 811.905 3.98553 -5.80805 0
M  V30 8571 H 808.004 0.725229 -0.292518 0
M  V30 8572 H 810.588 1.48615 -1.25784 0
M  V30 8573 H 808.759 3.86163 -0.416289 0
M  V30 8574 H 810.491 3.99887 -0.622324 0
M  V30 8575 H 807.246 3.93168 -2.64038 0
M  V30 8576 H 807.67 4.29058 -5.23677 0
M  V30 8577 H 812.312 3.43767 -2.46139 0
M  V30 8578 H 810.03 4.32949 -6.82335 0
M  V30 8579 H 813.616 3.61932 -4.55518 0
M  V30 8580 H 812.496 4.06148 -6.70831 0
M  V30 8581 N 809.999 0.752036 1.385 0
M  V30 8582 C 811.229 0.317812 2.04141 0
M  V30 8583 C 811.637 -1.05822 1.56839 0
M  V30 8584 O 810.98 -1.68311 0.736016 0
M  V30 8585 C 811.042 0.260205 3.58557 0
M  V30 8586 C 810.706 1.57753 4.28909 0
M  V30 8587 C 811.703 2.52642 4.54387 0
M  V30 8588 C 809.388 1.84653 4.67128 0
M  V30 8589 C 811.382 3.72653 5.17116 0
M  V30 8590 C 809.069 3.04938 5.29581 0
M  V30 8591 C 810.067 3.98759 5.54509 0
M  V30 8592 O 809.755 5.16929 6.15662 0
M  V30 8593 H 809.487 0.133931 0.6626 0
M  V30 8594 H 812.041 1.02138 1.78205 0
M  V30 8595 H 810.271 -0.499596 3.83459 0
M  V30 8596 H 811.96 -0.144295 4.05643 0
M  V30 8597 H 812.726 2.33135 4.25292 0
M  V30 8598 H 808.605 1.12464 4.47071 0
M  V30 8599 H 812.149 4.45898 5.36489 0
M  V30 8600 H 808.046 3.24339 5.58099 0
M  V30 8601 H 808.814 5.1749 6.3415 0
M  V30 8602 N 811.477 -1.49425 0.500989 0
M  V30 8603 C 812.427 -2.26061 -0.296698 0
M  V30 8604 C 813.411 -1.30906 -0.935541 0
M  V30 8605 O 814.603 -1.55628 -0.843142 0
M  V30 8606 C 811.732 -3.15189 -1.36055 0
M  V30 8607 C 810.818 -4.17806 -0.727952 0
M  V30 8608 N 811.209 -5.05516 0.169408 0
M  V30 8609 C 809.507 -4.34907 -0.988535 0
M  V30 8610 C 810.208 -5.79267 0.531509 0
M  V30 8611 N 809.184 -5.43507 -0.100564 0
M  V30 8612 H 812.986 -2.91246 0.394103 0
M  V30 8613 H 810.5 -1.59275 0.317065 0
M  V30 8614 H 812.497 -3.68724 -1.94547 0
M  V30 8615 H 811.157 -2.51556 -2.05303 0
M  V30 8616 H 812.168 -5.15075 0.540218 0
M  V30 8617 H 808.845 -3.82481 -1.67376 0
M  V30 8618 H 810.235 -6.59872 1.26564 0
M  V30 8619 N 812.955 -0.234822 -1.55841 0
M  V30 8620 C 813.885 0.664217 -2.23854 0
M  V30 8621 C 814.866 1.19076 -1.2147 0
M  V30 8622 O 816.051 1.23232 -1.50091 0
M  V30 8623 C 813.181 1.86666 -2.9287 0
M  V30 8624 C 812.135 1.47341 -4.01839 0
M  V30 8625 C 811.461 2.75571 -4.58219 0
M  V30 8626 C 812.761 0.653479 -5.18196 0
M  V30 8627 H 814.455 0.0971213 -2.99242 0
M  V30 8628 H 812.001 0.0452724 -1.43929 0
M  V30 8629 H 813.954 2.50116 -3.39146 0
M  V30 8630 H 812.678 2.45894 -2.1495 0
M  V30 8631 H 811.337 0.862314 -3.56314 0
M  V30 8632 H 810.985 3.32971 -3.77014 0
M  V30 8633 H 810.685 2.49987 -5.31771 0
M  V30 8634 H 812.209 3.39939 -5.07221 0
M  V30 8635 H 813.623 1.19198 -5.60771 0
M  V30 8636 H 812.02 0.494188 -5.98062 0
M  V30 8637 H 813.09 -0.337004 -4.83728 0
M  V30 8638 N 814.433 1.57553 0.0384317 0
M  V30 8639 C 815.71 1.79977 0.766002 0
M  V30 8640 C 816.09 0.830625 1.94072 0
M  V30 8641 O 815.438 -0.129243 2.28134 0
M  V30 8642 C 815.648 3.27434 1.20781 0
M  V30 8643 C 816.996 3.92167 1.62758 0
M  V30 8644 O 818.02 3.31527 1.30263 0
M  V30 8645 O 816.879 4.98917 2.23035 0
M  V30 8646 H 813.973 0.739787 0.369654 0
M  V30 8647 H 816.519 1.69693 0.0159312 0
M  V30 8648 H 815.291 3.89558 0.368792 0
M  V30 8649 H 814.914 3.42571 2.01819 0
M  V30 8650 N 815.911 -0.310526 1.54511 0
M  V30 8651 C 816.844 -1.40693 1.79668 0
M  V30 8652 C 817.822 -1.49159 0.64734 0
M  V30 8653 O 819.006 -1.66367 0.886239 0
M  V30 8654 C 816.133 -2.78685 1.92491 0
M  V30 8655 C 815.179 -2.87688 3.14861 0
M  V30 8656 S 816.012 -2.50759 4.7316 0
M  V30 8657 C 817.168 -3.90797 4.88906 0
M  V30 8658 H 817.401 -1.19142 2.72383 0
M  V30 8659 H 814.934 -0.508103 1.458 0
M  V30 8660 H 816.892 -3.58168 2.00563 0
M  V30 8661 H 815.553 -2.9751 1.00731 0
M  V30 8662 H 814.746 -3.8888 3.20607 0
M  V30 8663 H 814.348 -2.16189 3.05186 0
M  V30 8664 H 816.64 -4.85693 4.72344 0
M  V30 8665 H 817.583 -3.90027 5.91003 0
M  V30 8666 H 817.991 -3.80357 4.1712 0
M  V30 8667 N 817.389 -1.46805 -0.573248 0
M  V30 8668 C 818.337 -1.58468 -1.70267 0
M  V30 8669 C 819.331 -0.452694 -1.63239 0
M  V30 8670 O 820.537 -0.629915 -1.68618 0
M  V30 8671 H 816.912 -0.498408 -0.56311 0
M  V30 8672 H 818.883 -2.5341 -1.57563 0
M  V30 8673 C 817.632 -1.60104 -3.08645 0
M  V30 8674 H 816.955 -2.4655 -3.14727 0
M  V30 8675 H 818.395 -1.72318 -3.87405 0
M  V30 8676 C 816.854 -0.33138 -3.35266 0
M  V30 8677 O 817.384 0.57438 -3.97572 0
M  V30 8678 N 815.59 -0.216358 -2.89793 0
M  V30 8679 H 815.137 -0.954345 -2.3927 0
M  V30 8680 H 815.095 0.632253 -3.07977 0
M  V30 8681 N 818.867 0.818669 -1.34668 0
M  V30 8682 C 820.097 1.60441 -1.30162 0
M  V30 8683 C 820.505 1.88783 0.125579 0
M  V30 8684 O 819.848 1.48281 1.08437 0
M  V30 8685 C 819.91 2.96794 -2.02864 0
M  V30 8686 C 819.574 2.91327 -3.52105 0
M  V30 8687 C 820.571 2.65611 -4.4693 0
M  V30 8688 C 818.256 3.10825 -3.9458 0
M  V30 8689 C 820.25 2.59452 -5.82206 0
M  V30 8690 C 817.937 3.0429 -5.29954 0
M  V30 8691 C 818.935 2.78637 -6.23579 0
M  V30 8692 O 818.623 2.72042 -7.56471 0
M  V30 8693 H 818.355 0.505278 -0.449077 0
M  V30 8694 H 820.909 1.02632 -1.77921 0
M  V30 8695 H 819.139 3.56538 -1.49725 0
M  V30 8696 H 820.828 3.57837 -1.91592 0
M  V30 8697 H 821.594 2.50278 -4.15434 0
M  V30 8698 H 817.473 3.29807 -3.221 0
M  V30 8699 H 821.017 2.39349 -6.55254 0
M  V30 8700 H 816.914 3.19177 -5.61067 0
M  V30 8701 H 817.682 2.87738 -7.66257 0
M  V30 8702 N 820.346 1.18468 1.03938 0
M  V30 8703 C 821.762 0.934635 1.29371 0
M  V30 8704 C 821.962 -0.399067 1.97509 0
M  V30 8705 O 821.018 -1.13309 2.25648 0
M  V30 8706 C 822.331 2.10111 2.15114 0
M  V30 8707 C 823.879 2.13955 2.28456 0
M  V30 8708 C 824.354 3.30024 3.17566 0
M  V30 8709 N 825.845 3.29893 3.25153 0
M  V30 8710 C 826.58 4.16346 3.94263 0
M  V30 8711 N 826.076 5.12934 4.65693 0
M  V30 8712 N 827.869 4.04256 3.90556 0
M  V30 8713 H 820.02 2.04294 0.581185 0
M  V30 8714 H 822.283 0.892727 0.318971 0
M  V30 8715 H 821.989 3.06572 1.72355 0
M  V30 8716 H 821.863 2.06283 3.15796 0
M  V30 8717 H 824.25 1.18072 2.7045 0
M  V30 8718 H 824.331 2.2184 1.2736 0
M  V30 8719 H 823.975 4.26181 2.76283 0
M  V30 8720 H 823.905 3.19376 4.18697 0
M  V30 8721 H 826.396 2.59969 2.74271 0
M  V30 8722 H 826.709 5.75271 5.16026 0
M  V30 8723 H 825.054 5.16893 4.64593 0
M  V30 8724 H 828.245 3.28083 3.33885 0
M  V30 8725 H 828.418 4.71848 4.44144 0
M  V30 8726 N 821.824 -1.22873 0.986916 0
M  V30 8727 C 823.072 -1.91084 0.658121 0
M  V30 8728 C 823.393 -1.77304 -0.811675 0
M  V30 8729 O 822.663 -1.15649 -1.58121 0
M  V30 8730 H 821.243 -0.707251 0.240427 0
M  V30 8731 H 823.905 -1.49357 1.25213 0
M  V30 8732 H 823.001 -2.98373 0.915428 0
M  V30 8733 N 823.302 -0.75937 -1.38099 0
M  V30 8734 C 824.232 -0.151077 -2.33011 0
M  V30 8735 C 825.213 0.697099 -1.5516 0
M  V30 8736 O 826.398 0.637101 -1.83452 0
M  V30 8737 C 823.528 0.738423 -3.39359 0
M  V30 8738 C 822.482 -0.0074741 -4.27999 0
M  V30 8739 C 821.808 1.00066 -5.25253 0
M  V30 8740 C 823.108 -1.17926 -5.08813 0
M  V30 8741 H 824.802 -0.943933 -2.84131 0
M  V30 8742 H 822.348 -0.455362 -1.36611 0
M  V30 8743 H 824.301 1.17369 -4.04725 0
M  V30 8744 H 823.025 1.56366 -2.86735 0
M  V30 8745 H 821.684 -0.423379 -3.64147 0
M  V30 8746 H 821.332 1.82012 -4.68914 0
M  V30 8747 H 821.032 0.506199 -5.85416 0
M  V30 8748 H 822.556 1.43512 -5.93495 0
M  V30 8749 H 823.97 -0.821262 -5.67387 0
M  V30 8750 H 822.367 -1.60497 -5.78239 0
M  V30 8751 H 823.437 -1.98938 -4.42212 0
M  V30 8752 N 824.78 1.49157 -0.508906 0
M  V30 8753 C 826.029 2.0167 0.0346854 0
M  V30 8754 C 826.342 1.39302 1.37311 0
M  V30 8755 O 827.548 1.83189 2.00385 0
M  V30 8756 C 826.004 3.59725 0.112261 0
M  V30 8757 C 825.612 4.31069 -1.21999 0
M  V30 8758 C 827.356 4.20155 0.605798 0
M  V30 8759 C 825.263 5.81001 -1.10415 0
M  V30 8760 H 824.193 0.753814 0.0167355 0
M  V30 8761 H 826.844 1.7162 -0.649518 0
M  V30 8762 H 825.226 3.86525 0.861087 0
M  V30 8763 H 826.4 4.15962 -1.98273 0
M  V30 8764 H 824.715 3.82418 -1.64759 0
M  V30 8765 H 827.312 5.29964 0.710102 0
M  V30 8766 H 827.655 3.84051 1.60656 0
M  V30 8767 H 828.188 3.97705 -0.0867239 0
M  V30 8768 H 824.927 6.21643 -2.07941 0
M  V30 8769 H 824.447 5.9858 -0.382428 0
M  V30 8770 H 826.126 6.42207 -0.786116 0
M  V30 8771 N 826.258 0.243083 1.55714 0
M  V30 8772 C 827.206 -0.674349 2.2261 0
M  V30 8773 C 828.2 -1.18307 1.21243 0
M  V30 8774 O 829.406 -1.1404 1.39265 0
M  V30 8775 H 825.781 -0.235941 0.714028 0
M  V30 8776 H 827.752 -0.0869446 2.98273 0
M  V30 8777 C 826.501 -1.86206 2.93637 0
M  V30 8778 H 825.824 -1.47975 3.71407 0
M  V30 8779 H 827.264 -2.4813 3.43813 0
M  V30 8780 C 825.723 -2.73084 1.97298 0
M  V30 8781 O 826.253 -3.72497 1.50361 0
M  V30 8782 N 824.459 -2.39571 1.64482 0
M  V30 8783 H 824.006 -1.5878 2.02846 0
M  V30 8784 H 823.964 -2.97976 1.00288 0
M  V30 8785 N 827.736 -1.57571 -0.0300757 0
M  V30 8786 C 828.669 -2.01874 -1.06406 0
M  V30 8787 C 829.647 -0.902901 -1.35227 0
M  V30 8788 O 830.831 -1.16865 -1.47901 0
M  V30 8789 C 827.958 -2.39093 -2.39901 0
M  V30 8790 C 827.004 -3.61108 -2.26943 0
M  V30 8791 S 827.837 -5.10287 -1.62382 0
M  V30 8792 C 828.993 -5.50747 -2.97369 0
M  V30 8793 H 829.226 -2.89261 -0.686703 0
M  V30 8794 H 826.759 -1.52523 -0.240017 0
M  V30 8795 H 828.717 -2.61207 -3.16672 0
M  V30 8796 H 827.378 -1.52159 -2.74784 0
M  V30 8797 H 826.571 -3.84803 -3.25489 0
M  V30 8798 H 826.173 -3.3884 -1.58314 0
M  V30 8799 H 828.465 -5.51369 -3.93698 0
M  V30 8800 H 829.408 -6.51071 -2.78409 0
M  V30 8801 H 829.816 -4.7825 -2.99895 0
M  V30 8802 N 829.214 0.302327 -1.54673 0
M  V30 8803 C 830.144 1.37759 -1.88533 0
M  V30 8804 C 831.125 1.52961 -0.744113 0
M  V30 8805 O 832.31 1.6649 -0.999731 0
M  V30 8806 C 829.44 2.74201 -2.13146 0
M  V30 8807 C 828.394 2.73765 -3.28993 0
M  V30 8808 C 827.72 4.13483 -3.39022 0
M  V30 8809 C 829.02 2.35624 -4.66132 0
M  V30 8810 H 830.714 1.0967 -2.78591 0
M  V30 8811 H 828.26 0.52613 -1.34044 0
M  V30 8812 H 830.213 3.49508 -2.35419 0
M  V30 8813 H 828.937 3.03812 -1.19858 0
M  V30 8814 H 827.596 2.00914 -3.06642 0
M  V30 8815 H 827.244 4.40269 -2.43253 0
M  V30 8816 H 826.944 4.14093 -4.16894 0
M  V30 8817 H 828.468 4.90572 -3.63553 0
M  V30 8818 H 829.882 3.00647 -4.88143 0
M  V30 8819 H 828.279 2.47449 -5.46707 0
M  V30 8820 H 829.349 1.30753 -4.66939 0
M  V30 8821 N 830.692 1.47107 0.565454 0
M  V30 8822 C 831.941 1.5257 1.31929 0
M  V30 8823 C 832.254 0.189092 1.94684 0
M  V30 8824 O 833.46 0.121657 2.71227 0
M  V30 8825 C 831.916 2.68914 2.39193 0
M  V30 8826 C 831.524 4.09069 1.82665 0
M  V30 8827 C 833.268 2.83663 3.1581 0
M  V30 8828 C 831.175 5.16726 2.87661 0
M  V30 8829 H 830.105 0.567869 0.496025 0
M  V30 8830 H 832.756 1.73361 0.60151 0
M  V30 8831 H 831.138 2.41486 3.13848 0
M  V30 8832 H 832.312 4.46364 1.14438 0
M  V30 8833 H 830.627 3.99135 1.1866 0
M  V30 8834 H 833.224 3.61261 3.94201 0
M  V30 8835 H 833.567 1.91804 3.69482 0
M  V30 8836 H 834.1 3.10821 2.48265 0
M  V30 8837 H 830.839 6.10433 2.38854 0
M  V30 8838 H 830.359 4.83957 3.54324 0
M  V30 8839 H 832.038 5.43319 3.51303 0
M  V30 8840 N 832.17 -0.811516 1.35101 0
M  V30 8841 C 833.417 -1.56835 1.28098 0
M  V30 8842 C 833.745 -1.93951 -0.14597 0
M  V30 8843 O 833 -1.61173 -1.11004 0
M  V30 8844 C 833.299 -2.87121 2.1283 0
M  V30 8845 C 832.965 -2.69245 3.61688 0
M  V30 8846 C 831.627 -2.64078 4.02264 0
M  V30 8847 C 833.979 -2.52122 4.56162 0
M  V30 8848 C 831.307 -2.39724 5.3549 0
M  V30 8849 C 833.659 -2.29298 5.89581 0
M  V30 8850 C 832.323 -2.2255 6.29307 0
M  V30 8851 H 831.593 -0.5739 0.468742 0
M  V30 8852 H 834.24 -0.93806 1.66951 0
M  V30 8853 H 832.545 -3.54502 1.66841 0
M  V30 8854 H 834.242 -3.44788 2.0475 0
M  V30 8855 H 830.832 -2.74112 3.29485 0
M  V30 8856 H 835.016 -2.5513 4.25702 0
M  V30 8857 H 830.272 -2.32965 5.65276 0
M  V30 8858 H 834.446 -2.15038 6.62368 0
M  V30 8859 H 832.073 -2.0344 7.32473 0
M  V30 8860 N 833.648 -1.19017 -1.03309 0
M  V30 8861 C 834.888 -1.00129 -1.78195 0
M  V30 8862 C 835.252 0.460236 -1.86402 0
M  V30 8863 O 836.453 0.768802 -2.57571 0
M  V30 8864 C 834.724 -1.64703 -3.17187 0
M  V30 8865 S 836.283 -1.60695 -4.08317 0
M  V30 8866 H 833.101 -0.359395 -0.613479 0
M  V30 8867 H 835.703 -1.51293 -1.23818 0
M  V30 8868 H 834.407 -2.70283 -3.08829 0
M  V30 8869 H 833.938 -1.136 -3.76641 0
M  V30 8870 H 835.953 -0.628171 -4.92208 0
M  V30 8871 N 835.127 1.22348 -0.993418 0
M  V30 8872 C 836.375 1.90733 -0.668246 0
M  V30 8873 C 836.696 1.77732 0.802261 0
M  V30 8874 O 835.966 1.16486 1.57505 0
M  V30 8875 H 834.546 0.705966 -0.244174 0
M  V30 8876 H 837.208 1.48691 -1.26004 0
M  V30 8877 H 836.304 2.97883 -0.931239 0
M  V30 8878 N 836.605 0.766683 1.37694 0
M  V30 8879 C 837.845 0.333815 2.01656 0
M  V30 8880 C 838.209 -1.06813 1.59546 0
M  V30 8881 O 839.41 -1.60084 2.15932 0
M  V30 8882 C 837.681 0.467032 3.54335 0
M  V30 8883 S 839.24 0.118679 4.38639 0
M  V30 8884 H 836.058 0.128723 0.699251 0
M  V30 8885 H 838.66 1.00018 1.67978 0
M  V30 8886 H 837.364 1.48808 3.82471 0
M  V30 8887 H 836.895 -0.216066 3.92806 0
M  V30 8888 H 838.91 -1.08746 4.84137 0
M  V30 8889 N 838.083 -1.48885 0.516809 0
M  V30 8890 C 839.329 -2.02788 -0.0220928 0
M  V30 8891 C 839.662 -1.39433 -1.35175 0
M  V30 8892 O 838.937 -0.535459 -1.86984 0
M  V30 8893 C 839.22 -3.59753 -0.158012 0
M  V30 8894 C 839.073 -4.33611 1.19588 0
M  V30 8895 C 840.392 -4.30984 -0.891133 0
M  V30 8896 H 837.511 -0.736971 -0.00655488 0
M  V30 8897 H 840.153 -1.77746 0.671287 0
M  V30 8898 H 838.303 -3.8122 -0.748568 0
M  V30 8899 H 839.975 -4.23598 1.82653 0
M  V30 8900 H 838.218 -3.95547 1.78116 0
M  V30 8901 H 838.889 -5.41846 1.05391 0
M  V30 8902 H 841.365 -4.14267 -0.39012 0
M  V30 8903 H 840.241 -5.40527 -0.955107 0
M  V30 8904 H 840.502 -3.97336 -1.93847 0
M  V30 8905 N 839.561 -0.251338 -1.55583 0
M  V30 8906 C 840.809 0.371434 -1.98657 0
M  V30 8907 C 841.13 1.58143 -1.14087 0
M  V30 8908 O 840.4 1.94607 -0.224708 0
M  V30 8909 H 838.98 0.140225 -0.733721 0
M  V30 8910 H 841.642 -0.351157 -1.9171 0
M  V30 8911 H 840.738 0.677554 -3.04657 0
M  V30 8912 N 841.039 1.57585 0.0217189 0
M  V30 8913 C 841.971 2.03849 1.04777 0
M  V30 8914 C 842.984 0.952558 1.32023 0
M  V30 8915 O 844.173 1.22974 1.29381 0
M  V30 8916 C 841.273 2.40504 2.3877 0
M  V30 8917 C 840.446 3.71566 2.30775 0
M  V30 8918 C 839.505 3.95329 3.47277 0
M  V30 8919 O 838.531 4.66289 3.26441 0
M  V30 8920 N 839.733 3.41536 4.69397 0
M  V30 8921 H 842.498 2.92491 0.653395 0
M  V30 8922 H 840.059 1.60538 0.209527 0
M  V30 8923 H 842.051 2.53532 3.15442 0
M  V30 8924 H 840.621 1.57494 2.70027 0
M  V30 8925 H 839.841 3.68822 1.39155 0
M  V30 8926 H 841.129 4.5753 2.22584 0
M  V30 8927 H 840.527 2.84033 4.89226 0
M  V30 8928 H 839.084 3.59932 5.43408 0
M  V30 8929 N 842.517 -0.29412 1.54831 0
M  V30 8930 C 843.742 -1.05156 1.78765 0
M  V30 8931 C 844.167 -1.79916 0.548809 0
M  V30 8932 O 843.525 -1.74243 -0.500909 0
M  V30 8933 C 843.573 -2.00242 2.99893 0
M  V30 8934 O 842.677 -3.08662 2.73499 0
M  V30 8935 H 842.018 -0.301737 0.591482 0
M  V30 8936 H 844.548 -0.329449 2.0193 0
M  V30 8937 H 844.558 -2.42583 3.28051 0
M  V30 8938 H 843.233 -1.45235 3.89717 0
M  V30 8939 H 841.81 -2.70786 2.56377 0
M  V30 8940 N 843.995 -1.47404 -0.557645 0
M  V30 8941 C 845.243 -1.53703 -1.31224 0
M  V30 8942 C 845.564 -0.200742 -1.93964 0
M  V30 8943 O 844.834 0.775253 -1.79907 0
M  V30 8944 H 843.414 -0.566171 -0.487299 0
M  V30 8945 H 846.076 -1.83699 -0.651195 0
M  V30 8946 H 845.172 -2.30335 -2.10599 0
M  V30 8947 N 845.473 0.80434 -1.35529 0
M  V30 8948 C 846.721 1.55845 -1.28673 0
M  V30 8949 C 847.042 1.94511 0.137976 0
M  V30 8950 O 846.312 1.63775 1.07492 0
M  V30 8951 H 844.892 0.577931 -0.473291 0
M  V30 8952 H 847.554 0.959293 -1.69657 0
M  V30 8953 H 846.65 2.47285 -1.90411 0
M  V30 8954 N 846.951 1.19563 1.02676 0
M  V30 8955 C 848.199 0.997593 1.75763 0
M  V30 8956 C 848.52 -0.47253 1.89188 0
M  V30 8957 O 847.79 -1.34214 1.42701 0
M  V30 8958 H 846.37 0.366128 0.651122 0
M  V30 8959 H 849.032 1.50495 1.23844 0
M  V30 8960 H 848.128 1.44741 2.76508 0
M  V30 8961 N 848.429 -1.21819 0.999893 0
M  V30 8962 C 849.675 -1.91325 0.690373 0
M  V30 8963 C 850.03 -1.76323 -0.769929 0
M  V30 8964 O 849.323 -1.12585 -1.55033 0
M  V30 8965 C 849.517 -3.4193 1.04012 0
M  V30 8966 C 849.346 -3.71585 2.53287 0
M  V30 8967 C 848.116 -3.91219 3.19806 0
M  V30 8968 C 850.314 -3.75502 3.5143 0
M  V30 8969 N 848.296 -4.08246 4.58485 0
M  V30 8970 C 849.667 -3.97753 4.75597 0
M  V30 8971 C 851.722 -3.58383 3.45638 0
M  V30 8972 C 850.425 -4.04662 5.94677 0
M  V30 8973 C 852.451 -3.66555 4.64103 0
M  V30 8974 C 851.813 -3.89263 5.87072 0
M  V30 8975 H 847.912 -0.720484 0.304018 0
M  V30 8976 H 850.496 -1.46595 1.28133 0
M  V30 8977 H 848.667 -3.85452 0.477671 0
M  V30 8978 H 850.399 -3.98846 0.685864 0
M  V30 8979 H 847.154 -3.88917 2.7026 0
M  V30 8980 H 847.578 -4.20673 5.30437 0
M  V30 8981 H 852.22 -3.39807 2.51576 0
M  V30 8982 H 849.938 -4.22039 6.89136 0
M  V30 8983 H 853.524 -3.54639 4.61218 0
M  V30 8984 H 852.404 -3.95424 6.77207 0
M  V30 8985 N 849.908 -0.773975 -1.37286 0
M  V30 8986 C 850.871 -0.167974 -2.28584 0
M  V30 8987 C 851.871 0.625662 -1.48129 0
M  V30 8988 O 853.061 0.448924 -1.68316 0
M  V30 8989 C 850.193 0.769364 -3.32105 0
M  V30 8990 H 851.386 -0.972806 -2.83684 0
M  V30 8991 H 848.939 -0.542335 -1.46589 0
M  V30 8992 H 849.674 1.59912 -2.82132 0
M  V30 8993 H 849.459 0.202419 -3.91577 0
M  V30 8994 H 850.949 1.18872 -4.00324 0
M  V30 8995 N 851.386 1.48609 -0.524698 0
M  V30 8996 C 852.336 2.26505 0.260696 0
M  V30 8997 C 853.32 1.32378 0.914597 0
M  V30 8998 O 854.512 1.5695 0.818277 0
M  V30 8999 C 851.641 3.17313 1.31024 0
M  V30 9000 C 850.727 4.18911 0.661391 0
M  V30 9001 N 851.118 5.05183 -0.24981 0
M  V30 9002 C 849.416 4.36425 0.91922 0
M  V30 9003 C 850.117 5.78348 -0.623598 0
M  V30 9004 N 849.093 5.43598 0.0140839 0
M  V30 9005 H 852.895 2.90582 -0.440388 0
M  V30 9006 H 850.409 1.5875 -0.342364 0
M  V30 9007 H 852.406 3.71772 1.88656 0
M  V30 9008 H 851.066 2.54791 2.01275 0
M  V30 9009 H 852.077 5.1415 -0.622093 0
M  V30 9010 H 848.754 3.85095 1.6127 0
M  V30 9011 H 850.144 6.57775 -1.37046 0
M  V30 9012 N 852.864 0.259585 1.55447 0
M  V30 9013 C 854.094 -0.364863 2.03353 0
M  V30 9014 C 854.502 -1.5116 1.13786 0
M  V30 9015 O 853.845 -1.83109 0.147283 0
M  V30 9016 C 853.907 -0.922587 3.4746 0
M  V30 9017 C 853.571 0.0935207 4.56904 0
M  V30 9018 C 854.568 0.907571 5.11917 0
M  V30 9019 C 852.253 0.223276 5.01804 0
M  V30 9020 C 854.247 1.83771 6.10333 0
M  V30 9021 C 851.934 1.15691 6.00049 0
M  V30 9022 C 852.932 1.96264 6.54194 0
M  V30 9023 O 852.62 2.88052 7.50521 0
M  V30 9024 H 852.352 -0.0893313 0.670072 0
M  V30 9025 H 854.906 0.384821 2.01763 0
M  V30 9026 H 853.136 -1.72206 3.4624 0
M  V30 9027 H 854.825 -1.45846 3.78792 0
M  V30 9028 H 855.591 0.817979 4.78052 0
M  V30 9029 H 851.47 -0.393834 4.59315 0
M  V30 9030 H 855.014 2.46703 6.52521 0
M  V30 9031 H 850.911 1.24738 6.33333 0
M  V30 9032 H 851.679 2.82557 7.68182 0
M  V30 9033 N 854.342 -1.57594 -0.0133615 0
M  V30 9034 C 855.588 -1.90262 -0.702019 0
M  V30 9035 C 855.921 -0.859219 -1.74158 0
M  V30 9036 O 855.196 0.123778 -1.94106 0
M  V30 9037 C 855.479 -3.3354 -1.35732 0
M  V30 9038 C 855.332 -4.48586 -0.330208 0
M  V30 9039 C 856.651 -3.76004 -2.28712 0
M  V30 9040 H 853.77 -0.691943 -0.253739 0
M  V30 9041 H 856.412 -1.89967 0.0351894 0
M  V30 9042 H 854.562 -3.33921 -1.98567 0
M  V30 9043 H 856.234 -4.6034 0.297433 0
M  V30 9044 H 854.477 -4.32394 0.348926 0
M  V30 9045 H 855.148 -5.45762 -0.827508 0
M  V30 9046 H 857.624 -3.77089 -1.75906 0
M  V30 9047 H 856.5 -4.77032 -2.71535 0
M  V30 9048 H 856.761 -3.09129 -3.16056 0
M  V30 9049 N 855.82 0.285905 -1.54985 0
M  V30 9050 C 857.068 1.01718 -1.74636 0
M  V30 9051 C 857.389 1.87277 -0.543342 0
M  V30 9052 O 856.659 1.90847 0.442078 0
M  V30 9053 H 855.239 0.378549 -0.643979 0
M  V30 9054 H 857.901 0.313247 -1.92366 0
M  V30 9055 H 856.997 1.66159 -2.64192 0
M  V30 9056 N 857.298 1.47698 0.54982 0
M  V30 9057 C 858.23 1.56806 1.67166 0
M  V30 9058 C 859.243 0.453709 1.5635 0
M  V30 9059 O 860.432 0.723663 1.63173 0
M  V30 9060 C 857.532 1.4632 3.05686 0
M  V30 9061 C 856.705 2.72452 3.42182 0
M  V30 9062 C 855.764 2.55698 4.59897 0
M  V30 9063 O 854.79 3.29534 4.64108 0
M  V30 9064 N 855.992 1.64009 5.56849 0
M  V30 9065 H 858.757 2.53545 1.59797 0
M  V30 9066 H 856.318 1.44171 0.736635 0
M  V30 9067 H 858.31 1.32835 3.82279 0
M  V30 9068 H 856.88 0.57634 3.07241 0
M  V30 9069 H 856.1 3.00644 2.54964 0
M  V30 9070 H 857.388 3.56172 3.63344 0
M  V30 9071 H 856.786 1.03186 5.5621 0
M  V30 9072 H 855.343 1.56473 6.3274 0
M  V30 9073 N 858.776 -0.797141 1.35954 0
M  V30 9074 C 859.686 -1.94088 1.31784 0
M  V30 9075 C 860.702 -1.72588 0.221227 0
M  V30 9076 O 861.878 -1.96256 0.452255 0
M  V30 9077 C 858.943 -3.28828 1.09878 0
M  V30 9078 C 858.004 -3.63158 2.28942 0
M  V30 9079 C 857.237 -4.91469 2.08072 0
M  V30 9080 O 857.46 -5.60616 1.05196 0
M  V30 9081 O 856.394 -5.24277 2.95664 0
M  V30 9082 H 860.22 -2.00554 2.28061 0
M  V30 9083 H 857.805 -0.936288 1.16422 0
M  V30 9084 H 859.687 -4.09473 0.995485 0
M  V30 9085 H 858.362 -3.23271 0.16659 0
M  V30 9086 H 857.269 -2.82851 2.44839 0
M  V30 9087 H 858.602 -3.7343 3.20641 0
M  V30 9088 N 860.254 -1.20106 -1.0204 0
M  V30 9089 C 861.201 -0.946468 -2.10501 0
M  V30 9090 C 862.171 0.121902 -1.65652 0
M  V30 9091 O 863.356 -0.0220244 -1.90787 0
M  V30 9092 C 860.496 -0.500499 -3.41451 0
M  V30 9093 C 859.609 -1.63659 -3.998 0
M  V30 9094 C 858.744 -1.14131 -5.18794 0
M  V30 9095 C 857.783 -2.25074 -5.69217 0
M  V30 9096 N 856.92 -1.76791 -6.79477 0
M  V30 9097 H 861.76 -1.87506 -2.31615 0
M  V30 9098 H 859.297 -0.934693 -1.13587 0
M  V30 9099 H 861.255 -0.223276 -4.16602 0
M  V30 9100 H 859.885 0.391099 -3.20422 0
M  V30 9101 H 858.937 -2.02882 -3.21781 0
M  V30 9102 H 860.249 -2.47213 -4.33229 0
M  V30 9103 H 859.403 -0.819826 -6.01135 0
M  V30 9104 H 858.142 -0.275615 -4.86921 0
M  V30 9105 H 857.147 -2.58043 -4.85483 0
M  V30 9106 H 858.372 -3.12114 -6.03127 0
M  V30 9107 H 856.318 -0.925428 -6.4944 0
M  V30 9108 H 856.235 -2.53928 -7.12079 0
M  V30 9109 H 857.503 -1.47631 -7.65392 0
M  V30 9110 N 861.732 1.21287 -1.00634 0
M  V30 9111 C 862.662 2.25973 -0.588089 0
M  V30 9112 C 863.643 1.65527 0.391764 0
M  V30 9113 O 864.828 1.92179 0.279452 0
M  V30 9114 C 861.958 3.47197 0.0847336 0
M  V30 9115 C 860.912 4.20168 -0.815039 0
M  V30 9116 C 860.238 5.34699 -0.00855393 0
M  V30 9117 C 861.538 4.77416 -2.11828 0
M  V30 9118 H 863.232 2.61212 -1.46317 0
M  V30 9119 H 860.778 1.25563 -0.704985 0
M  V30 9120 H 862.731 4.19602 0.388821 0
M  V30 9121 H 861.455 3.11092 0.994456 0
M  V30 9122 H 860.114 3.49614 -1.10297 0
M  V30 9123 H 859.762 4.94837 0.902499 0
M  V30 9124 H 859.462 5.84449 -0.607664 0
M  V30 9125 H 860.986 6.09914 0.289317 0
M  V30 9126 H 862.4 5.41694 -1.87725 0
M  V30 9127 H 860.797 5.37561 -2.66736 0
M  V30 9128 H 861.867 3.96724 -2.78816 0
M  V30 9129 N 863.21 0.781244 1.36873 0
M  V30 9130 C 864.626 0.461968 1.52768 0
M  V30 9131 C 864.826 -1.02099 1.73719 0
M  V30 9132 O 863.882 -1.80665 1.76399 0
M  V30 9133 C 865.195 1.2853 2.71846 0
M  V30 9134 C 866.743 1.27817 2.85713 0
M  V30 9135 C 867.218 2.08506 4.07786 0
M  V30 9136 N 868.709 2.05909 4.14917 0
M  V30 9137 C 869.444 2.65118 5.08429 0
M  V30 9138 N 868.94 3.33152 6.07438 0
M  V30 9139 N 870.733 2.54896 5.00983 0
M  V30 9140 H 862.884 1.74198 1.21527 0
M  V30 9141 H 865.147 0.740027 0.592506 0
M  V30 9142 H 864.853 2.3366 2.62861 0
M  V30 9143 H 864.727 0.920981 3.65784 0
M  V30 9144 H 867.114 0.234817 2.94164 0
M  V30 9145 H 867.195 1.68219 1.92707 0
M  V30 9146 H 866.839 3.12867 4.00096 0
M  V30 9147 H 866.769 1.65479 4.99924 0
M  V30 9148 H 869.26 1.56386 3.44023 0
M  V30 9149 H 869.573 3.75681 6.75339 0
M  V30 9150 H 867.918 3.37253 6.07689 0
M  V30 9151 H 871.109 2.01352 4.22581 0
M  V30 9152 H 871.282 3.01332 5.73675 0
M  V30 9153 N 864.689 -1.48329 0.532571 0
M  V30 9154 C 866.1 -1.86469 0.0927749 0
M  V30 9155 C 866.451 -1.44186 -1.3306 0
M  V30 9156 O 865.576 -0.833741 -1.99694 0
M  V30 9157 C 866.171 -3.38414 0.161588 0
M  V30 9158 C 864.73 -3.75739 -0.223028 0
M  V30 9159 C 863.877 -2.72377 0.520199 0
M  V30 9160 H 866.828 -1.40197 0.743678 0
M  V30 9161 H 866.849 -3.75314 -0.626059 0
M  V30 9162 H 866.361 -3.69159 1.19765 0
M  V30 9163 H 864.462 -3.50608 -1.26113 0
M  V30 9164 H 864.575 -4.78954 0.118385 0
M  V30 9165 H 862.939 -2.54678 -0.0338425 0
M  V30 9166 H 863.722 -3.05965 1.55694 0
M  V30 9167 N 866.167 -0.267825 -1.55308 0
M  V30 9168 C 867.099 0.65591 -2.19614 0
M  V30 9169 C 868.112 1.12302 -1.17865 0
M  V30 9170 O 869.301 1.04618 -1.44628 0
M  V30 9171 C 866.401 1.90582 -2.80235 0
M  V30 9172 C 865.574 1.58673 -4.07605 0
M  V30 9173 C 864.633 2.68836 -4.52343 0
M  V30 9174 O 863.659 2.35331 -5.18274 0
M  V30 9175 N 864.861 3.98752 -4.21873 0
M  V30 9176 H 867.626 0.105566 -2.99514 0
M  V30 9177 H 865.187 -0.0886263 -1.61657 0
M  V30 9178 H 867.179 2.63561 -3.07112 0
M  V30 9179 H 865.749 2.3654 -2.04371 0
M  V30 9180 H 864.969 0.691113 -3.88094 0
M  V30 9181 H 866.257 1.34845 -4.90606 0
M  V30 9182 H 865.655 4.28797 -3.68985 0
M  V30 9183 H 864.212 4.68131 -4.53537 0
M  V30 9184 N 867.645 1.57599 0.00500368 0
M  V30 9185 C 868.873 1.94626 0.702016 0
M  V30 9186 C 869.288 0.86953 1.67585 0
M  V30 9187 O 868.645 -0.15199 1.81866 0
M  V30 9188 C 868.696 3.31658 1.43824 0
M  V30 9189 O 868.417 4.35197 0.503467 0
M  V30 9190 C 869.918 3.83114 2.23021 0
M  V30 9191 H 867.138 0.641785 0.195841 0
M  V30 9192 H 869.682 2.04451 -0.0446287 0
M  V30 9193 H 867.837 3.23156 2.13655 0
M  V30 9194 H 868.251 5.1444 1.02235 0
M  V30 9195 H 869.725 4.81438 2.7004 0
M  V30 9196 H 870.202 3.15559 3.05482 0
M  V30 9197 H 870.808 3.94775 1.58216 0
M  V30 9198 N 869.123 -0.277682 1.55134 0
M  V30 9199 C 870.371 -1.00791 1.75173 0
M  V30 9200 C 870.692 -1.86987 0.553266 0
M  V30 9201 O 869.962 -1.91079 -0.43195 0
M  V30 9202 H 868.542 -0.375129 0.645978 0
M  V30 9203 H 871.204 -0.303041 1.9253 0
M  V30 9204 H 870.3 -1.64756 2.6507 0
M  V30 9205 N 870.601 -1.47988 -0.541979 0
M  V30 9206 C 871.847 -1.56604 -1.29795 0
M  V30 9207 C 872.202 -0.231728 -1.90999 0
M  V30 9208 O 871.495 0.764203 -1.757 0
M  V30 9209 C 871.689 -2.63189 -2.41798 0
M  V30 9210 C 871.518 -4.06855 -1.9157 0
M  V30 9211 C 870.288 -4.74132 -1.74719 0
M  V30 9212 C 872.486 -4.934 -1.45123 0
M  V30 9213 N 870.468 -6.02258 -1.18991 0
M  V30 9214 C 871.839 -6.11675 -1.01263 0
M  V30 9215 C 873.894 -4.7972 -1.33315 0
M  V30 9216 C 872.597 -7.17778 -0.467663 0
M  V30 9217 C 874.623 -5.85934 -0.802192 0
M  V30 9218 C 873.985 -7.03409 -0.373595 0
M  V30 9219 H 870.084 -0.627677 -0.466418 0
M  V30 9220 H 872.668 -1.84812 -0.612576 0
M  V30 9221 H 870.839 -2.36823 -3.07846 0
M  V30 9222 H 872.571 -2.6156 -3.08818 0
M  V30 9223 H 869.326 -4.30276 -1.97887 0
M  V30 9224 H 869.75 -6.70558 -0.931715 0
M  V30 9225 H 874.392 -3.89249 -1.6506 0
M  V30 9226 H 872.11 -8.07982 -0.137874 0
M  V30 9227 H 875.696 -5.774 -0.714171 0
M  V30 9228 H 874.576 -7.84194 0.0308796 0
M  V30 9229 N 872.079 0.78992 -1.36375 0
M  V30 9230 C 873.011 1.91113 -1.26524 0
M  V30 9231 C 874.024 1.61747 -0.184851 0
M  V30 9232 O 875.213 1.73004 -0.439524 0
M  V30 9233 C 872.313 3.25908 -0.92937 0
M  V30 9234 C 871.486 3.83057 -2.11154 0
M  V30 9235 C 870.545 4.96289 -1.74881 0
M  V30 9236 O 869.571 5.12834 -2.46962 0
M  V30 9237 N 870.773 5.76478 -0.682193 0
M  V30 9238 H 873.538 2.00085 -2.23128 0
M  V30 9239 H 871.099 0.968165 -1.29762 0
M  V30 9240 H 873.091 3.99151 -0.667884 0
M  V30 9241 H 871.661 3.12556 -0.0524843 0
M  V30 9242 H 870.881 3.01808 -2.53586 0
M  V30 9243 H 872.169 4.1797 -2.90135 0
M  V30 9244 H 871.567 5.65638 -0.0836661 0
M  V30 9245 H 870.124 6.50026 -0.480529 0
M  V30 9246 N 873.557 1.20646 1.01402 0
M  V30 9247 C 874.968 1.01823 1.56489 0
M  V30 9248 C 875.319 -0.42463 1.9155 0
M  V30 9249 O 874.444 -1.30644 1.72514 0
M  V30 9250 C 875.039 1.84208 2.84347 0
M  V30 9251 C 873.598 1.69743 3.35953 0
M  V30 9252 C 872.745 1.8198 2.09233 0
M  V30 9253 H 875.696 1.348 0.837539 0
M  V30 9254 H 875.717 1.34698 3.55861 0
M  V30 9255 H 875.229 2.89215 2.58798 0
M  V30 9256 H 873.33 0.673833 3.66456 0
M  V30 9257 H 873.443 2.51173 4.07981 0
M  V30 9258 H 871.807 1.25193 2.21808 0
M  V30 9259 H 872.59 2.88477 1.86107 0
M  V30 9260 N 875.035 -1.20752 1.01276 0
M  V30 9261 C 875.965 -2.25658 0.600064 0
M  V30 9262 C 876.946 -1.65733 -0.38298 0
M  V30 9263 O 878.131 -1.92324 -0.269256 0
M  V30 9264 C 875.261 -3.47237 -0.0663197 0
M  V30 9265 C 874.215 -4.1973 0.83731 0
M  V30 9266 C 873.541 -5.34687 0.0369102 0
M  V30 9267 C 874.841 -4.76286 2.14357 0
M  V30 9268 H 876.535 -2.60432 1.477 0
M  V30 9269 H 874.081 -1.25187 0.711634 0
M  V30 9270 H 876.034 -4.19803 -0.366563 0
M  V30 9271 H 874.758 -3.11615 -0.977944 0
M  V30 9272 H 873.417 -3.49024 1.1215 0
M  V30 9273 H 873.065 -4.95309 -0.876244 0
M  V30 9274 H 872.765 -5.84119 0.63865 0
M  V30 9275 H 874.289 -6.10059 -0.256968 0
M  V30 9276 H 875.703 -5.40691 1.90595 0
M  V30 9277 H 874.1 -5.36139 2.69583 0
M  V30 9278 H 875.17 -3.9524 2.80916 0
M  V30 9279 N 876.513 -0.788492 -1.36457 0
M  V30 9280 C 877.476 -0.192209 -2.28393 0
M  V30 9281 C 878.476 0.609916 -1.48784 0
M  V30 9282 O 879.666 0.431046 -1.68783 0
M  V30 9283 C 876.798 0.734096 -3.32902 0
M  V30 9284 H 877.991 -1.00284 -2.82636 0
M  V30 9285 H 875.544 -0.557852 -1.46006 0
M  V30 9286 H 876.279 1.5691 -2.83813 0
M  V30 9287 H 876.064 0.160875 -3.9177 0
M  V30 9288 H 877.554 1.1462 -4.01562 0
M  V30 9289 N 877.991 1.48044 -0.54043 0
M  V30 9290 C 879.238 2.02497 -0.0101567 0
M  V30 9291 C 879.566 1.41651 1.33286 0
M  V30 9292 O 878.821 0.555504 1.8765 0
M  V30 9293 C 879.12 3.57085 0.150008 0
M  V30 9294 C 878.786 4.36769 -1.11998 0
M  V30 9295 C 877.448 4.58261 -1.46801 0
M  V30 9296 C 879.8 4.82848 -1.96232 0
M  V30 9297 C 877.128 5.23079 -2.65717 0
M  V30 9298 C 879.48 5.48977 -3.14335 0
M  V30 9299 C 878.144 5.68705 -3.49472 0
M  V30 9300 H 877.414 0.740991 -0.00371661 0
M  V30 9301 H 880.061 1.77909 -0.708562 0
M  V30 9302 H 878.366 3.80572 0.931259 0
M  V30 9303 H 880.063 3.96851 0.575384 0
M  V30 9304 H 876.653 4.20309 -0.838957 0
M  V30 9305 H 880.837 4.66038 -1.70654 0
M  V30 9306 H 876.093 5.36549 -2.93129 0
M  V30 9307 H 880.267 5.83649 -3.79904 0
M  V30 9308 H 877.894 6.18703 -4.41713 0
M  V30 9309 N 879.47 0.276058 1.55163 0
M  V30 9310 C 880.433 -0.597924 2.21263 0
M  V30 9311 C 881.433 -1.0806 1.19078 0
M  V30 9312 O 882.623 -0.980626 1.43977 0
M  V30 9313 C 879.755 -1.82503 2.87933 0
M  V30 9314 H 880.948 -0.0207769 2.99893 0
M  V30 9315 H 878.501 0.0266823 1.56277 0
M  V30 9316 H 879.236 -2.44266 2.13318 0
M  V30 9317 H 879.021 -1.48683 3.62816 0
M  V30 9318 H 880.511 -2.44651 3.38431 0
M  V30 9319 N 880.948 -1.576 0.00335426 0
M  V30 9320 C 881.878 -2.11668 -0.985839 0
M  V30 9321 C 882.859 -1.02661 -1.35627 0
M  V30 9322 O 884.044 -1.30361 -1.43943 0
M  V30 9323 C 881.174 -2.62273 -2.27662 0
M  V30 9324 C 880.128 -3.75837 -2.0477 0
M  V30 9325 C 879.454 -4.12769 -3.39891 0
M  V30 9326 C 880.754 -5.02975 -1.40759 0
M  V30 9327 H 882.448 -2.9457 -0.535637 0
M  V30 9328 H 879.994 -1.41702 -0.256204 0
M  V30 9329 H 881.947 -2.98727 -2.97221 0
M  V30 9330 H 880.671 -1.76498 -2.74802 0
M  V30 9331 H 879.33 -3.39782 -1.37636 0
M  V30 9332 H 878.978 -3.24013 -3.8474 0
M  V30 9333 H 878.678 -4.89281 -3.25389 0
M  V30 9334 H 880.202 -4.51784 -4.1076 0
M  V30 9335 H 881.616 -5.37179 -2.00279 0
M  V30 9336 H 880.013 -5.84315 -1.36734 0
M  V30 9337 H 881.083 -4.83431 -0.377218 0
M  V30 9338 N 882.426 0.269451 -1.5528 0
M  V30 9339 C 883.703 1.02207 -1.66773 0
M  V30 9340 C 884.083 2.04168 -0.536536 0
M  V30 9341 O 883.431 2.23761 0.462956 0
M  V30 9342 C 883.641 1.67569 -3.0614 0
M  V30 9343 C 884.989 2.18599 -3.64005 0
M  V30 9344 O 886.013 1.7755 -3.08795 0
M  V30 9345 O 884.872 2.93903 -4.60742 0
M  V30 9346 H 881.966 0.474314 -0.677462 0
M  V30 9347 H 884.512 0.265026 -1.67618 0
M  V30 9348 H 883.284 0.937029 -3.79915 0
M  V30 9349 H 882.907 2.49951 -3.09209 0
M  V30 9350 N 883.904 1.48273 0.534124 0
M  V30 9351 C 885.15 1.5729 1.28963 0
M  V30 9352 C 885.505 0.241854 1.90874 0
M  V30 9353 O 884.798 -0.754874 1.76103 0
M  V30 9354 C 884.992 2.64468 2.40398 0
M  V30 9355 C 884.821 4.07865 1.8941 0
M  V30 9356 C 883.591 4.75052 1.72202 0
M  V30 9357 C 885.789 4.94163 1.42505 0
M  V30 9358 N 883.771 6.0288 1.15795 0
M  V30 9359 C 885.142 6.12203 0.980176 0
M  V30 9360 C 887.197 4.8042 1.30769 0
M  V30 9361 C 885.9 7.18016 0.429591 0
M  V30 9362 C 887.926 5.86351 0.771107 0
M  V30 9363 C 887.288 7.03597 0.336287 0
M  V30 9364 H 883.387 0.630141 0.463083 0
M  V30 9365 H 885.971 1.85135 0.602767 0
M  V30 9366 H 884.142 2.38453 3.06586 0
M  V30 9367 H 885.874 2.63194 3.07426 0
M  V30 9368 H 882.629 4.3132 1.95603 0
M  V30 9369 H 883.053 6.71043 0.896141 0
M  V30 9370 H 887.695 3.90119 1.62993 0
M  V30 9371 H 885.413 8.08044 0.0950224 0
M  V30 9372 H 888.999 5.77771 0.68354 0
M  V30 9373 H 887.879 7.84167 -0.0724668 0
M  V30 9374 N 885.382 -0.782676 1.36792 0
M  V30 9375 C 886.314 -1.9044 1.27536 0
M  V30 9376 C 887.327 -1.61647 0.193426 0
M  V30 9377 O 888.516 -1.72769 0.448692 0
M  V30 9378 C 885.616 -3.2541 0.946641 0
M  V30 9379 C 884.789 -3.81932 2.13183 0
M  V30 9380 C 883.848 -4.95355 1.7751 0
M  V30 9381 O 882.874 -5.11517 2.49678 0
M  V30 9382 N 884.076 -5.76108 0.712755 0
M  V30 9383 H 886.841 -1.98899 2.24186 0
M  V30 9384 H 884.402 -0.96127 1.30274 0
M  V30 9385 H 886.394 -3.98791 0.689043 0
M  V30 9386 H 884.964 -3.12524 0.0690591 0
M  V30 9387 H 884.184 -3.00459 2.55183 0
M  V30 9388 H 885.472 -4.16426 2.92347 0
M  V30 9389 H 884.87 -5.65586 0.113662 0
M  V30 9390 H 883.427 -6.49762 0.514995 0
M  V30 9391 N 886.86 -1.21182 -1.00761 0
M  V30 9392 C 888.276 -0.968607 -1.26847 0
M  V30 9393 C 888.476 0.346561 -1.98497 0
M  V30 9394 O 887.532 1.07287 -2.28573 0
M  V30 9395 C 888.845 -2.1574 -2.09467 0
M  V30 9396 C 890.393 -2.19937 -2.22703 0
M  V30 9397 C 890.868 -3.38328 -3.08704 0
M  V30 9398 N 892.359 -3.38398 -3.16293 0
M  V30 9399 C 893.094 -4.26653 -3.83086 0
M  V30 9400 N 892.59 -5.25101 -4.5193 0
M  V30 9401 N 894.383 -4.14469 -3.797 0
M  V30 9402 H 886.534 -2.05763 -0.526816 0
M  V30 9403 H 888.797 -0.90087 -0.29519 0
M  V30 9404 H 888.503 -3.11034 -1.64167 0
M  V30 9405 H 888.377 -2.14584 -3.10216 0
M  V30 9406 H 890.764 -1.25201 -2.67224 0
M  V30 9407 H 890.845 -2.25139 -1.21433 0
M  V30 9408 H 890.489 -4.33356 -2.64886 0
M  V30 9409 H 890.419 -3.30364 -4.10082 0
M  V30 9410 H 892.91 -2.67149 -2.67282 0
M  V30 9411 H 893.223 -5.8875 -5.00592 0
M  V30 9412 H 891.568 -5.29029 -4.50726 0
M  V30 9413 H 894.759 -3.3682 -3.25069 0
M  V30 9414 H 894.932 -4.83458 -4.31477 0
M  V30 9415 N 888.338 1.20213 -1.01915 0
M  V30 9416 C 889.749 1.7136 -0.741131 0
M  V30 9417 C 890.1 1.81705 0.740107 0
M  V30 9418 O 889.225 1.48139 1.57746 0
M  V30 9419 C 889.82 3.11231 -1.33869 0
M  V30 9420 C 888.379 3.59677 -1.10948 0
M  V30 9421 C 887.526 2.36809 -1.4428 0
M  V30 9422 H 890.477 1.05191 -1.1883 0
M  V30 9423 H 890.498 3.7342 -0.730585 0
M  V30 9424 H 890.01 3.03669 -2.41675 0
M  V30 9425 H 888.111 3.72568 -0.0492052 0
M  V30 9426 H 888.224 4.44351 -1.79134 0
M  V30 9427 H 886.588 2.39674 -0.861881 0
M  V30 9428 H 887.371 2.31886 -2.53148 0
M  V30 9429 N 889.816 0.795718 1.36037 0
M  V30 9430 C 890.779 0.204318 2.28287 0
M  V30 9431 C 891.779 -0.602017 1.49105 0
M  V30 9432 O 892.969 -0.422089 1.69009 0
M  V30 9433 C 890.101 -0.716431 3.33287 0
M  V30 9434 H 891.294 1.01781 2.821 0
M  V30 9435 H 888.847 0.565588 1.45708 0
M  V30 9436 H 889.582 -1.55403 2.84641 0
M  V30 9437 H 889.367 -0.140096 3.9185 0
M  V30 9438 H 890.857 -1.12488 4.02164 0
M  V30 9439 N 891.294 -1.47756 0.548274 0
M  V30 9440 C 892.71 -1.58247 0.207401 0
M  V30 9441 C 892.91 -1.54804 -1.28988 0
M  V30 9442 O 891.966 -1.44673 -2.06944 0
M  V30 9443 C 893.279 -2.89129 0.826142 0
M  V30 9444 C 894.827 -3.02695 0.79655 0
M  V30 9445 C 895.302 -4.36264 1.3942 0
M  V30 9446 N 896.793 -4.42877 1.35698 0
M  V30 9447 C 897.528 -5.44773 1.78913 0
M  V30 9448 N 897.024 -6.53528 2.29942 0
M  V30 9449 N 898.817 -5.35765 1.70038 0
M  V30 9450 H 890.968 -1.48236 1.52117 0
M  V30 9451 H 893.231 -0.704957 0.633829 0
M  V30 9452 H 892.937 -2.97358 1.87806 0
M  V30 9453 H 892.811 -3.75891 0.313916 0
M  V30 9454 H 895.198 -2.94067 -0.246655 0
M  V30 9455 H 895.279 -2.17496 1.34644 0
M  V30 9456 H 894.923 -4.45646 2.43642 0
M  V30 9457 H 894.853 -5.20179 0.819827 0
M  V30 9458 H 897.344 -3.64874 0.983623 0
M  V30 9459 H 897.657 -7.27441 2.60863 0
M  V30 9460 H 896.002 -6.54442 2.33947 0
M  V30 9461 H 899.193 -4.49699 1.29955 0
M  V30 9462 H 899.366 -6.1504 2.04035 0
M  V30 9463 N 892.772 -0.284283 -1.55015 0
M  V30 9464 C 893.722 0.613913 -2.19579 0
M  V30 9465 C 894.706 1.11153 -1.16335 0
M  V30 9466 O 895.898 1.05508 -1.42116 0
M  V30 9467 C 893.027 1.79329 -2.92739 0
M  V30 9468 C 892.113 1.31242 -4.03282 0
M  V30 9469 N 892.504 0.548344 -5.02819 0
M  V30 9470 C 890.802 1.5946 -4.1652 0
M  V30 9471 C 891.503 0.294358 -5.80955 0
M  V30 9472 N 890.479 0.869406 -5.36603 0
M  V30 9473 H 894.281 0.0224088 -2.93891 0
M  V30 9474 H 891.795 -0.0882619 -1.6216 0
M  V30 9475 H 893.792 2.44814 -3.37449 0
M  V30 9476 H 892.452 2.38865 -2.1994 0
M  V30 9477 H 893.463 0.194812 -5.17533 0
M  V30 9478 H 890.14 2.19866 -3.54916 0
M  V30 9479 H 891.53 -0.318195 -6.71146 0
M  V30 9480 N 894.251 1.57596 -0.0117121 0
M  V30 9481 C 895.184 2.04624 1.01016 0
M  V30 9482 C 896.162 0.938437 1.32786 0
M  V30 9483 O 897.346 1.20746 1.44751 0
M  V30 9484 C 894.473 2.45369 2.33477 0
M  V30 9485 C 893.519 3.66998 2.17289 0
M  V30 9486 S 894.352 5.14412 1.48795 0
M  V30 9487 C 895.508 5.58438 2.82662 0
M  V30 9488 H 895.741 2.9098 0.60977 0
M  V30 9489 H 893.274 1.53106 0.199494 0
M  V30 9490 H 895.232 2.69511 3.09635 0
M  V30 9491 H 893.893 1.59391 2.70653 0
M  V30 9492 H 893.086 3.93297 3.15172 0
M  V30 9493 H 892.688 3.42918 1.49275 0
M  V30 9494 H 894.98 5.61614 3.78941 0
M  V30 9495 H 895.923 6.58224 2.61049 0
M  V30 9496 H 896.331 4.86033 2.8711 0
M  V30 9497 N 895.729 -0.261212 1.5542 0
M  V30 9498 C 896.677 -1.34298 1.89913 0
M  V30 9499 C 897.671 -1.50547 0.776665 0
M  V30 9500 O 898.877 -1.52191 0.961139 0
M  V30 9501 H 895.252 -0.4494 0.602946 0
M  V30 9502 H 897.223 -1.02464 2.80256 0
M  V30 9503 C 895.972 -2.69423 2.19788 0
M  V30 9504 H 895.295 -2.57715 3.05652 0
M  V30 9505 H 896.735 -3.44026 2.47835 0
M  V30 9506 C 895.194 -3.21423 1.00939 0
M  V30 9507 O 895.724 -4.00921 0.250034 0
M  V30 9508 N 893.93 -2.7926 0.803883 0
M  V30 9509 H 893.477 -2.14724 1.42308 0
M  V30 9510 H 893.435 -3.14398 0.0103257 0
M  V30 9511 N 897.207 -1.48554 -0.526253 0
M  V30 9512 C 898.432 -1.60686 -1.31129 0
M  V30 9513 C 898.857 -0.268701 -1.86171 0
M  V30 9514 O 898.215 0.760167 -1.64594 0
M  V30 9515 C 898.263 -2.65938 -2.43536 0
M  V30 9516 O 897.367 -2.23356 -3.46678 0
M  V30 9517 H 896.708 -0.538691 -0.388211 0
M  V30 9518 H 899.238 -1.94567 -0.632826 0
M  V30 9519 H 899.248 -2.87327 -2.89668 0
M  V30 9520 H 897.923 -3.63085 -2.02835 0
M  V30 9521 H 896.5 -2.12196 -3.06639 0
M  V30 9522 N 898.685 0.775411 -1.37205 0
M  V30 9523 C 899.913 1.56446 -1.35397 0
M  V30 9524 C 900.328 1.887 0.0615437 0
M  V30 9525 O 899.685 1.51178 1.02233 0
M  V30 9526 C 899.736 2.87697 -2.18889 0
M  V30 9527 O 899.457 2.56828 -3.54924 0
M  V30 9528 C 900.958 3.81944 -2.25019 0
M  V30 9529 H 898.178 0.484792 -0.463916 0
M  V30 9530 H 900.722 0.961346 -1.80495 0
M  V30 9531 H 898.877 3.44442 -1.7731 0
M  V30 9532 H 899.291 3.40851 -3.98649 0
M  V30 9533 H 900.765 4.71055 -2.87769 0
M  V30 9534 H 901.242 4.20811 -1.25757 0
M  V30 9535 H 901.848 3.3113 -2.66895 0
M  V30 9536 N 900.163 1.21714 1.00117 0
M  V30 9537 C 901.388 1.06357 1.78054 0
M  V30 9538 C 901.813 -0.382075 1.84179 0
M  V30 9539 O 901.171 -1.27575 1.28819 0
M  V30 9540 C 901.219 1.66982 3.19608 0
M  V30 9541 O 900.323 0.917892 4.02055 0
M  V30 9542 H 899.664 0.374074 0.548602 0
M  V30 9543 H 902.194 1.61338 1.25822 0
M  V30 9544 H 902.204 1.71363 3.70268 0
M  V30 9545 H 900.879 2.72185 3.14465 0
M  V30 9546 H 899.456 0.949473 3.6061 0
M  V30 9547 N 901.641 -1.19671 1.02551 0
M  V30 9548 C 902.871 -1.92952 0.738441 0
M  V30 9549 C 903.279 -1.75528 -0.706155 0
M  V30 9550 O 902.622 -1.0723 -1.49156 0
M  V30 9551 C 902.684 -3.45149 1.00562 0
M  V30 9552 C 902.348 -3.86341 2.44109 0
M  V30 9553 C 903.345 -3.91374 3.42231 0
M  V30 9554 C 901.03 -4.18076 2.7842 0
M  V30 9555 C 903.024 -4.27568 4.7272 0
M  V30 9556 C 900.711 -4.53943 4.0912 0
M  V30 9557 C 901.709 -4.58663 5.06081 0
M  V30 9558 O 901.397 -4.93701 6.3444 0
M  V30 9559 H 901.129 -0.619836 0.269776 0
M  V30 9560 H 903.683 -1.52852 1.37206 0
M  V30 9561 H 901.913 -3.85416 0.314849 0
M  V30 9562 H 903.602 -3.99664 0.708742 0
M  V30 9563 H 904.368 -3.67011 3.17061 0
M  V30 9564 H 900.247 -4.13589 2.03631 0
M  V30 9565 H 903.791 -4.31166 5.48399 0
M  V30 9566 H 899.688 -4.77764 4.34064 0
M  V30 9567 H 900.456 -5.11662 6.38862 0
M  V30 9568 N 903.119 -0.802921 -1.35613 0
M  V30 9569 C 904.366 -0.381576 -1.98872 0
M  V30 9570 C 904.694 1.0503 -1.63704 0
M  V30 9571 O 903.949 1.7427 -0.890418 0
M  V30 9572 C 904.248 -0.507806 -3.53774 0
M  V30 9573 C 903.914 -1.90245 -4.088 0
M  V30 9574 C 902.576 -2.28401 -4.2354 0
M  V30 9575 C 904.928 -2.81504 -4.3864 0
M  V30 9576 C 902.256 -3.57192 -4.65436 0
M  V30 9577 C 904.608 -4.09737 -4.81973 0
M  V30 9578 C 903.272 -4.47897 -4.94919 0
M  V30 9579 H 902.542 -0.139629 -0.727726 0
M  V30 9580 H 905.189 -1.023 -1.61886 0
M  V30 9581 H 903.494 0.21708 -3.91198 0
M  V30 9582 H 905.191 -0.162625 -4.0067 0
M  V30 9583 H 901.781 -1.596 -3.97776 0
M  V30 9584 H 905.965 -2.53276 -4.26808 0
M  V30 9585 H 901.221 -3.86611 -4.73648 0
M  V30 9586 H 905.395 -4.80555 -5.04024 0
M  V30 9587 H 903.022 -5.47747 -5.27141 0
M  V30 9588 N 904.597 1.47463 -0.556102 0
M  V30 9589 C 905.827 2.06568 -0.0364056 0
M  V30 9590 C 906.235 1.40939 1.26225 0
M  V30 9591 O 905.578 0.499572 1.76777 0
M  V30 9592 C 905.64 3.58755 0.231278 0
M  V30 9593 C 905.304 4.46417 -0.977776 0
M  V30 9594 C 906.301 4.846 -1.88305 0
M  V30 9595 C 903.986 4.87948 -1.19214 0
M  V30 9596 C 905.98 5.63111 -2.98639 0
M  V30 9597 C 903.667 5.66224 -2.29857 0
M  V30 9598 C 904.665 6.03716 -3.194 0
M  V30 9599 O 904.353 6.80415 -4.28125 0
M  V30 9600 H 904.085 0.674675 -0.042305 0
M  V30 9601 H 906.639 1.9047 -0.768775 0
M  V30 9602 H 904.869 3.73061 1.01794 0
M  V30 9603 H 906.558 3.99884 0.696221 0
M  V30 9604 H 907.324 4.53115 -1.72949 0
M  V30 9605 H 903.203 4.58233 -0.504347 0
M  V30 9606 H 906.747 5.92293 -3.68557 0
M  V30 9607 H 902.644 5.97121 -2.45186 0
M  V30 9608 H 903.412 6.98807 -4.26159 0
M  V30 9609 N 906.075 0.2925 1.54862 0
M  V30 9610 C 907.023 -0.603186 2.24643 0
M  V30 9611 C 908.017 -1.1439 1.24946 0
M  V30 9612 O 909.223 -1.09552 1.42823 0
M  V30 9613 H 905.598 -0.213105 0.721173 0
M  V30 9614 H 907.569 0.00799278 2.98399 0
M  V30 9615 C 906.318 -1.76769 2.99413 0
M  V30 9616 H 905.641 -1.36084 3.75927 0
M  V30 9617 H 907.081 -2.37066 3.51533 0
M  V30 9618 C 905.54 -2.66669 2.05886 0
M  V30 9619 O 906.07 -3.67525 1.62136 0
M  V30 9620 N 904.276 -2.34216 1.7202 0
M  V30 9621 H 903.823 -1.52246 2.07795 0
M  V30 9622 H 903.781 -2.94635 1.09717 0
M  V30 9623 N 907.553 -1.57587 0.0200696 0
M  V30 9624 C 908.503 -2.0616 -0.973751 0
M  V30 9625 C 909.487 -0.960282 -1.29102 0
M  V30 9626 O 910.679 -1.22391 -1.27865 0
M  V30 9627 C 907.808 -2.58487 -2.25919 0
M  V30 9628 C 906.894 -3.75533 -1.97068 0
M  V30 9629 N 907.285 -4.86482 -1.38451 0
M  V30 9630 C 905.583 -3.83847 -2.27107 0
M  V30 9631 C 906.284 -5.67773 -1.26527 0
M  V30 9632 N 905.26 -5.14398 -1.75772 0
M  V30 9633 H 909.062 -2.89346 -0.515365 0
M  V30 9634 H 906.576 -1.61341 -0.185163 0
M  V30 9635 H 908.573 -2.91572 -2.97979 0
M  V30 9636 H 907.233 -1.76728 -2.72392 0
M  V30 9637 H 908.244 -5.06922 -1.06069 0
M  V30 9638 H 904.921 -3.12978 -2.76316 0
M  V30 9639 H 906.311 -6.66966 -0.812785 0
M  V30 9640 N 909.032 0.252966 -1.55557 0
M  V30 9641 C 910.257 1.0038 -1.8149 0
M  V30 9642 C 910.682 1.78397 -0.596318 0
M  V30 9643 O 910.04 1.7551 0.454535 0
M  V30 9644 C 910.088 1.9222 -3.05096 0
M  V30 9645 O 909.192 3.01302 -2.81587 0
M  V30 9646 H 908.533 0.285949 -0.599274 0
M  V30 9647 H 911.063 0.275795 -2.02733 0
M  V30 9648 H 911.073 2.338 -3.34368 0
M  V30 9649 H 909.748 1.34852 -3.93431 0
M  V30 9650 H 908.325 2.63894 -2.63466 0
M  V30 9651 N 910.51 1.48831 0.518367 0
M  V30 9652 C 911.735 1.61379 1.30275 0
M  V30 9653 C 912.16 0.278571 1.86026 0
M  V30 9654 O 911.518 -0.751427 1.64995 0
M  V30 9655 C 911.566 2.67225 2.42122 0
M  V30 9656 O 910.67 2.25192 3.45489 0
M  V30 9657 H 910.011 0.540742 0.385349 0
M  V30 9658 H 912.541 1.949 0.622498 0
M  V30 9659 H 912.551 2.88859 2.8814 0
M  V30 9660 H 911.226 3.64155 2.00907 0
M  V30 9661 H 909.803 2.13819 3.05509 0
M  V30 9662 N 911.988 -0.768124 1.37614 0
M  V30 9663 C 912.92 -1.89076 1.29548 0
M  V30 9664 C 913.933 -1.61433 0.21056 0
M  V30 9665 O 915.122 -1.72283 0.466992 0
M  V30 9666 C 912.222 -3.24388 0.981102 0
M  V30 9667 C 911.395 -3.79649 2.17222 0
M  V30 9668 C 910.454 -4.93444 1.82754 0
M  V30 9669 O 909.48 -5.0884 2.5509 0
M  V30 9670 N 910.682 -5.75319 0.773819 0
M  V30 9671 H 913.447 -1.9651 2.26283 0
M  V30 9672 H 911.008 -0.947399 1.31286 0
M  V30 9673 H 913 -3.98038 0.731301 0
M  V30 9674 H 911.57 -3.12433 0.102203 0
M  V30 9675 H 910.79 -2.97735 2.58355 0
M  V30 9676 H 912.078 -4.13302 2.96748 0
M  V30 9677 H 911.476 -5.65433 0.173644 0
M  V30 9678 H 910.033 -6.4918 0.583882 0
M  V30 9679 N 913.466 -1.22244 -0.994698 0
M  V30 9680 C 914.712 -1.05752 -1.73747 0
M  V30 9681 C 915.067 0.403416 -1.88123 0
M  V30 9682 O 914.36 1.29511 -1.412 0
M  V30 9683 C 914.554 -1.70014 -3.14372 0
M  V30 9684 C 914.383 -3.22205 -3.1371 0
M  V30 9685 C 913.153 -3.91301 -3.19705 0
M  V30 9686 C 915.351 -4.19163 -2.98005 0
M  V30 9687 N 913.333 -5.30594 -3.08778 0
M  V30 9688 C 914.704 -5.45274 -2.95087 0
M  V30 9689 C 916.759 -4.10078 -2.82383 0
M  V30 9690 C 915.462 -6.63345 -2.78146 0
M  V30 9691 C 917.488 -5.27797 -2.66803 0
M  V30 9692 C 916.85 -6.52826 -2.6457 0
M  V30 9693 H 912.949 -0.441393 -0.64552 0
M  V30 9694 H 915.533 -1.54757 -1.18146 0
M  V30 9695 H 913.704 -1.23562 -3.68221 0
M  V30 9696 H 915.436 -1.46631 -3.77202 0
M  V30 9697 H 912.191 -3.42289 -3.27315 0
M  V30 9698 H 912.615 -6.0358 -3.06628 0
M  V30 9699 H 917.257 -3.14201 -2.82909 0
M  V30 9700 H 914.975 -7.59373 -2.76367 0
M  V30 9701 H 918.561 -5.22598 -2.557 0
M  V30 9702 H 917.441 -7.42383 -2.5266 0
M  V30 9703 N 914.944 1.19125 -1.03184 0
M  V30 9704 C 916.36 1.40909 -0.749447 0
M  V30 9705 C 916.56 1.9022 0.664729 0
M  V30 9706 O 915.616 2.08085 1.43028 0
M  V30 9707 C 916.929 2.41761 -1.78807 0
M  V30 9708 C 918.477 2.55503 -1.80796 0
M  V30 9709 C 918.952 3.59612 -2.83626 0
M  V30 9710 N 920.443 3.6711 -2.82461 0
M  V30 9711 C 921.178 4.47366 -3.5868 0
M  V30 9712 N 920.674 5.31302 -4.44623 0
M  V30 9713 N 922.467 4.42044 -3.47208 0
M  V30 9714 H 914.618 0.854399 -1.94458 0
M  V30 9715 H 916.881 0.437753 -0.840878 0
M  V30 9716 H 916.587 2.12559 -2.80199 0
M  V30 9717 H 916.461 3.40981 -1.61283 0
M  V30 9718 H 918.848 2.84027 -0.800803 0
M  V30 9719 H 918.929 1.56427 -2.02396 0
M  V30 9720 H 918.573 3.3183 -3.84515 0
M  V30 9721 H 918.503 4.58345 -2.59283 0
M  V30 9722 H 920.994 3.07166 -2.2013 0
M  V30 9723 H 921.307 5.89667 -4.99512 0
M  V30 9724 H 919.652 5.30753 -4.48694 0
M  V30 9725 H 922.843 3.75513 -2.79477 0
M  V30 9726 H 923.016 5.0435 -4.06859 0
M  V30 9727 N 916.422 0.810101 1.35185 0
M  V30 9728 C 917.652 0.404109 2.02609 0
M  V30 9729 C 918.06 -0.990748 1.61186 0
M  V30 9730 O 917.403 -1.65038 0.80674 0
M  V30 9731 C 917.465 0.412047 3.57131 0
M  V30 9732 C 917.129 1.75802 4.21832 0
M  V30 9733 C 918.126 2.71687 4.43263 0
M  V30 9734 C 915.811 2.04299 4.58876 0
M  V30 9735 C 917.805 3.9425 5.00845 0
M  V30 9736 C 915.492 3.27125 5.16171 0
M  V30 9737 C 916.49 4.21918 5.37098 0
M  V30 9738 O 916.178 5.42576 5.93184 0
M  V30 9739 H 915.91 0.161914 0.656323 0
M  V30 9740 H 918.464 1.09605 1.73712 0
M  V30 9741 H 916.694 -0.336509 3.85233 0
M  V30 9742 H 918.383 0.0278817 4.0589 0
M  V30 9743 H 919.149 2.50964 4.15021 0
M  V30 9744 H 915.028 1.31324 4.41899 0
M  V30 9745 H 918.572 4.68251 5.17094 0
M  V30 9746 H 914.469 3.47718 5.43841 0
M  V30 9747 H 915.237 5.43921 6.11631 0
M  V30 9748 N 917.9 -1.47166 0.563914 0
M  V30 9749 C 918.81 -2.33885 -0.182977 0
M  V30 9750 C 919.826 -1.48605 -0.905132 0
M  V30 9751 O 921.002 -1.81518 -0.872527 0
M  V30 9752 C 918.067 -3.25433 -1.19558 0
M  V30 9753 C 917.128 -4.26607 -0.480129 0
M  V30 9754 C 916.361 -5.1378 -1.44449 0
M  V30 9755 O 916.584 -5.03531 -2.67979 0
M  V30 9756 O 915.518 -5.94109 -0.965321 0
M  V30 9757 H 919.344 -2.99065 0.528544 0
M  V30 9758 H 916.929 -1.45834 0.324468 0
M  V30 9759 H 918.811 -3.81964 -1.77993 0
M  V30 9760 H 917.486 -2.62873 -1.8889 0
M  V30 9761 H 916.393 -3.73817 0.145583 0
M  V30 9762 H 917.726 -4.919 0.171868 0
M  V30 9763 N 919.378 -0.300708 -1.54705 0
M  V30 9764 C 920.606 0.31127 -2.04545 0
M  V30 9765 C 921.021 1.47542 -1.178 0
M  V30 9766 O 920.378 1.81361 -0.203571 0
M  V30 9767 C 920.429 0.767783 -3.53253 0
M  V30 9768 O 920.15 -0.350027 -4.36699 0
M  V30 9769 C 921.651 1.44494 -4.1909 0
M  V30 9770 H 918.871 0.067668 -0.667579 0
M  V30 9771 H 921.415 -0.440254 -1.99705 0
M  V30 9772 H 919.57 1.46933 -3.58454 0
M  V30 9773 H 919.984 0.00534038 -5.245 0
M  V30 9774 H 921.458 1.71553 -5.24665 0
M  V30 9775 H 921.935 2.3849 -3.68808 0
M  V30 9776 H 922.541 0.786581 -4.17963 0
M  V30 9777 N 920.856 1.57574 -0.0284266 0
M  V30 9778 C 922.102 1.92056 0.651327 0
M  V30 9779 C 922.435 0.905092 1.71819 0
M  V30 9780 O 921.71 -0.0722703 1.94366 0
M  V30 9781 C 921.993 3.37021 1.26841 0
M  V30 9782 C 921.846 4.49304 0.211157 0
M  V30 9783 C 923.165 3.81936 2.18662 0
M  V30 9784 H 920.284 0.698428 0.235304 0
M  V30 9785 H 922.926 1.89807 -0.0855435 0
M  V30 9786 H 921.076 3.39068 1.89644 0
M  V30 9787 H 922.748 4.5939 -0.419379 0
M  V30 9788 H 920.991 4.31317 -0.463445 0
M  V30 9789 H 921.662 5.47764 0.682518 0
M  V30 9790 H 924.138 3.8162 1.65847 0
M  V30 9791 H 923.014 4.84064 2.58792 0
M  V30 9792 H 923.275 3.174 3.07749 0
M  V30 9793 N 922.334 -0.244713 1.55689 0
M  V30 9794 C 923.562 -0.989944 1.8168 0
M  V30 9795 C 923.977 -1.78863 0.604449 0
M  V30 9796 O 923.334 -1.77437 -0.426907 0
M  V30 9797 C 923.385 -1.92607 3.05916 0
M  V30 9798 O 923.106 -1.1597 4.22472 0
M  V30 9799 C 924.607 -2.78711 3.44724 0
M  V30 9800 H 921.827 -0.2912 0.604519 0
M  V30 9801 H 924.371 -0.266938 2.0275 0
M  V30 9802 H 922.526 -2.60333 2.8689 0
M  V30 9803 H 922.94 -1.79311 4.92898 0
M  V30 9804 H 924.414 -3.40141 4.34751 0
M  V30 9805 H 924.891 -3.49935 2.6541 0
M  V30 9806 H 925.497 -2.16435 3.66109 0
M  V30 9807 N 923.813 -1.49104 -0.510467 0
M  V30 9808 C 924.776 -1.64569 -1.59529 0
M  V30 9809 C 925.776 -0.517937 -1.5223 0
M  V30 9810 O 926.966 -0.784183 -1.55551 0
M  V30 9811 C 924.098 -1.6342 -2.99177 0
M  V30 9812 H 925.291 -2.61318 -1.4715 0
M  V30 9813 H 922.844 -1.37993 -0.734001 0
M  V30 9814 H 923.579 -0.68221 -3.17043 0
M  V30 9815 H 923.364 -2.45312 -3.05883 0
M  V30 9816 H 924.854 -1.77474 -3.78011 0
M  V30 9817 N 925.291 0.760815 -1.38019 0
M  V30 9818 C 926.201 1.90526 -1.36884 0
M  V30 9819 C 927.217 1.71941 -0.266908 0
M  V30 9820 O 928.393 1.94988 -0.50413 0
M  V30 9821 C 925.458 3.25799 -1.18558 0
M  V30 9822 C 924.519 3.56961 -2.3849 0
M  V30 9823 C 923.752 4.8578 -2.21029 0
M  V30 9824 O 923.975 5.57629 -1.20023 0
M  V30 9825 O 922.909 5.16254 -3.0946 0
M  V30 9826 H 926.735 1.94437 -2.33298 0
M  V30 9827 H 924.32 0.905091 -1.18863 0
M  V30 9828 H 926.202 4.0669 -1.1037 0
M  V30 9829 H 924.877 3.22716 -0.252241 0
M  V30 9830 H 923.784 2.7626 -2.52252 0
M  V30 9831 H 925.117 3.64798 -3.30429 0
M  V30 9832 N 926.769 1.22769 0.988202 0
M  V30 9833 C 927.679 1.01844 2.11341 0
M  V30 9834 C 928.695 -0.0346937 1.73965 0
M  V30 9835 O 929.871 0.159061 2.00771 0
M  V30 9836 C 926.936 0.603837 3.41401 0
M  V30 9837 C 925.997 1.73113 3.92849 0
M  V30 9838 C 925.23 1.33621 5.16702 0
M  V30 9839 O 925.453 0.217041 5.69987 0
M  V30 9840 O 924.387 2.15444 5.62021 0
M  V30 9841 H 928.213 1.96127 2.31879 0
M  V30 9842 H 925.798 1.01405 1.09715 0
M  V30 9843 H 927.68 0.383196 4.19654 0
M  V30 9844 H 926.355 -0.310082 3.22211 0
M  V30 9845 H 925.262 2.00634 3.15748 0
M  V30 9846 H 926.595 2.62308 4.1648 0
M  V30 9847 N 928.247 -1.18576 1.03814 0
M  V30 9848 C 929.177 -2.24334 0.647795 0
M  V30 9849 C 930.158 -1.66508 -0.34774 0
M  V30 9850 O 931.343 -1.92852 -0.228401 0
M  V30 9851 C 928.473 -3.47299 0.00734922 0
M  V30 9852 C 927.427 -4.17859 0.926152 0
M  V30 9853 C 926.753 -5.34489 0.150317 0
M  V30 9854 C 928.053 -4.71632 2.24411 0
M  V30 9855 H 929.747 -2.57241 1.53191 0
M  V30 9856 H 927.293 -1.23649 0.738028 0
M  V30 9857 H 929.246 -4.20486 -0.277434 0
M  V30 9858 H 927.97 -3.13619 -0.911626 0
M  V30 9859 H 926.629 -3.46567 1.19528 0
M  V30 9860 H 926.277 -4.97056 -0.770985 0
M  V30 9861 H 925.977 -5.82633 0.762407 0
M  V30 9862 H 927.501 -6.10467 -0.127508 0
M  V30 9863 H 928.915 -5.36526 2.02021 0
M  V30 9864 H 927.312 -5.303 2.80894 0
M  V30 9865 H 928.382 -3.89192 2.89236 0
M  V30 9866 N 929.725 -0.817259 -1.34754 0
M  V30 9867 C 930.655 -0.249769 -2.3216 0
M  V30 9868 C 931.636 0.630663 -1.57977 0
M  V30 9869 O 932.821 0.558719 -1.85989 0
M  V30 9870 C 929.951 0.593825 -3.42186 0
M  V30 9871 C 928.905 -0.188997 -4.27583 0
M  V30 9872 C 928.231 0.776979 -5.29025 0
M  V30 9873 C 929.531 -1.39401 -5.03354 0
M  V30 9874 H 931.225 -1.06359 -2.79872 0
M  V30 9875 H 928.771 -0.512894 -1.34556 0
M  V30 9876 H 930.724 1.00097 -4.09339 0
M  V30 9877 H 929.448 1.44064 -2.93109 0
M  V30 9878 H 928.107 -0.577445 -3.62024 0
M  V30 9879 H 927.755 1.61959 -4.76212 0
M  V30 9880 H 927.455 0.257448 -5.87036 0
M  V30 9881 H 928.979 1.18211 -5.99048 0
M  V30 9882 H 930.393 -1.06117 -5.63393 0
M  V30 9883 H 928.79 -1.84878 -5.70912 0
M  V30 9884 H 929.86 -2.17515 -4.33377 0
M  V30 9885 N 931.203 1.46865 -0.571711 0
M  V30 9886 C 932.428 2.07323 -0.0564655 0
M  V30 9887 C 932.853 1.41938 1.23431 0
M  V30 9888 O 932.211 0.499334 1.74288 0
M  V30 9889 C 932.259 3.6044 0.107339 0
M  V30 9890 O 931.363 3.95558 1.1665 0
M  V30 9891 H 930.704 0.661475 -0.0578465 0
M  V30 9892 H 933.234 1.88669 -0.791524 0
M  V30 9893 H 933.244 4.06767 0.316987 0
M  V30 9894 H 931.919 4.07425 -0.835348 0
M  V30 9895 H 930.496 3.60957 0.936189 0
M  V30 9896 N 932.681 0.308908 1.54543 0
M  V30 9897 C 934.092 -0.182144 1.85809 0
M  V30 9898 C 934.443 -1.52796 1.23076 0
M  V30 9899 O 933.568 -2.09775 0.531358 0
M  V30 9900 C 934.163 -0.337275 3.37117 0
M  V30 9901 C 932.722 -0.772545 3.68387 0
M  V30 9902 C 931.869 0.114451 2.77064 0
M  V30 9903 H 934.82 0.529671 1.496 0
M  V30 9904 H 934.841 -1.17058 3.62046 0
M  V30 9905 H 934.353 0.642382 3.82747 0
M  V30 9906 H 932.454 -1.76247 3.2828 0
M  V30 9907 H 932.567 -0.586453 4.75497 0
M  V30 9908 H 930.931 -0.407581 2.51418 0
M  V30 9909 H 931.714 1.09061 3.25516 0
M  V30 9910 N 934.159 -1.57557 0.0367827 0
M  V30 9911 C 935.092 -2.06205 -0.977479 0
M  V30 9912 C 936.07 -0.959444 -1.31276 0
M  V30 9913 O 937.254 -1.23033 -1.42811 0
M  V30 9914 C 934.381 -2.49053 -2.29544 0
M  V30 9915 C 933.427 -3.70409 -2.11423 0
M  V30 9916 S 934.26 -5.16715 -1.40593 0
M  V30 9917 C 935.416 -5.62864 -2.73742 0
M  V30 9918 H 935.649 -2.91913 -0.5634 0
M  V30 9919 H 933.182 -1.53404 -0.175111 0
M  V30 9920 H 935.14 -2.74403 -3.05308 0
M  V30 9921 H 933.801 -1.63677 -2.68083 0
M  V30 9922 H 932.994 -3.98262 -3.08875 0
M  V30 9923 H 932.596 -3.4525 -1.438 0
M  V30 9924 H 934.888 -5.67571 -3.69958 0
M  V30 9925 H 935.831 -6.62294 -2.50544 0
M  V30 9926 H 936.239 -4.90539 -2.79341 0
M  V30 9927 N 935.637 0.236453 -1.55816 0
M  V30 9928 C 936.6 1.27633 -1.90375 0
M  V30 9929 C 937.6 1.40557 -0.781048 0
M  V30 9930 O 938.79 1.39078 -1.04895 0
M  V30 9931 C 935.922 2.65247 -2.14142 0
M  V30 9932 H 937.115 0.982019 -2.83366 0
M  V30 9933 H 934.668 0.476215 -1.48869 0
M  V30 9934 H 935.403 2.99801 -1.23653 0
M  V30 9935 H 935.188 2.57246 -2.95917 0
M  V30 9936 H 936.678 3.40313 -2.42026 0
M  V30 9937 N 937.115 1.49373 0.502552 0
M  V30 9938 C 938.392 1.49282 1.26389 0
M  V30 9939 C 938.772 0.219674 2.09954 0
M  V30 9940 O 938.12 -0.797991 2.14113 0
M  V30 9941 C 938.33 2.77083 2.12194 0
M  V30 9942 C 939.678 3.26511 2.71433 0
M  V30 9943 O 940.702 2.78189 2.22462 0
M  V30 9944 O 939.561 4.10665 3.60578 0
M  V30 9945 H 936.655 0.597415 0.57186 0
M  V30 9946 H 939.201 1.61634 0.516951 0
M  V30 9947 H 937.973 3.61237 1.50411 0
M  V30 9948 H 937.596 2.67583 2.94084 0
M  V30 9949 N 938.594 -0.753485 1.38421 0
M  V30 9950 C 939.541 -1.86723 1.35659 0
M  V30 9951 C 940.511 -1.64648 0.219121 0
M  V30 9952 O 941.696 -1.86313 0.411366 0
M  V30 9953 C 938.836 -3.24023 1.18758 0
M  V30 9954 C 937.949 -3.57928 2.41892 0
M  V30 9955 C 937.084 -4.84532 2.17721 0
M  V30 9956 C 936.123 -5.11224 3.36626 0
M  V30 9957 N 935.26 -6.29023 3.11889 0
M  V30 9958 H 940.1 -1.88419 2.30873 0
M  V30 9959 H 937.637 -0.920934 1.14705 0
M  V30 9960 H 939.595 -4.03252 1.06974 0
M  V30 9961 H 938.225 -3.21654 0.27182 0
M  V30 9962 H 937.277 -2.73541 2.64347 0
M  V30 9963 H 938.589 -3.73581 3.30513 0
M  V30 9964 H 937.743 -5.71704 2.03074 0
M  V30 9965 H 936.482 -4.71018 1.26465 0
M  V30 9966 H 935.487 -4.2252 3.51791 0
M  V30 9967 H 936.712 -5.26635 4.28757 0
M  V30 9968 H 934.658 -6.16832 2.2328 0
M  V30 9969 H 934.575 -6.45177 3.9406 0
M  V30 9970 H 935.843 -7.19083 3.00898 0
M  V30 9971 N 940.072 -1.23292 -0.981677 0
M  V30 9972 C 941.297 -1.09176 -1.76339 0
M  V30 9973 C 941.722 0.352726 -1.84763 0
M  V30 9974 O 941.08 1.25509 -1.30832 0
M  V30 9975 C 941.128 -1.72046 -3.16911 0
M  V30 9976 O 940.232 -0.98174 -4.00544 0
M  V30 9977 H 939.573 -0.382755 -0.542581 0
M  V30 9978 H 942.103 -1.63319 -1.23239 0
M  V30 9979 H 942.113 -1.77232 -3.67495 0
M  V30 9980 H 940.788 -2.77154 -3.10095 0
M  V30 9981 H 939.365 -1.00672 -3.59054 0
M  V30 9982 N 941.55 1.18024 -1.04442 0
M  V30 9983 C 942.966 1.40107 -0.76435 0
M  V30 9984 C 943.166 1.90914 0.644516 0
M  V30 9985 O 942.222 2.0959 1.40813 0
M  V30 9986 C 943.535 2.39851 -1.81361 0
M  V30 9987 C 945.083 2.53571 -1.83496 0
M  V30 9988 C 945.558 3.56583 -2.87424 0
M  V30 9989 N 947.049 3.64094 -2.86339 0
M  V30 9990 C 947.784 4.43537 -3.63405 0
M  V30 9991 N 947.28 5.26557 -4.50233 0
M  V30 9992 N 949.073 4.38336 -3.51877 0
M  V30 9993 H 941.224 0.833726 -1.95353 0
M  V30 9994 H 943.487 0.42881 -0.845474 0
M  V30 9995 H 943.193 2.09576 -2.82438 0
M  V30 9996 H 943.067 3.39251 -1.6489 0
M  V30 9997 H 945.454 2.83161 -0.830883 0
M  V30 9998 H 945.535 1.54272 -2.04044 0
M  V30 9999 H 945.179 3.27733 -3.88012 0
M  V30 10000 H 945.109 4.55569 -2.6413 0
M  V30 10001 H 947.6 3.04814 -2.23376 0
M  V30 10002 H 947.913 5.84336 -5.05738 0
M  V30 10003 H 946.258 5.25964 -4.54298 0
M  V30 10004 H 949.449 3.72528 -2.83444 0
M  V30 10005 H 949.622 5.00007 -4.12186 0
M  V30 10006 N 943.028 0.824394 1.34319 0
M  V30 10007 C 944.258 0.425576 2.02169 0
M  V30 10008 C 944.666 -0.973596 1.62227 0
M  V30 10009 O 944.009 -1.64173 0.824199 0
M  V30 10010 C 944.071 0.449902 3.56674 0
M  V30 10011 C 943.735 1.80266 4.19944 0
M  V30 10012 C 944.732 2.76373 4.40357 0
M  V30 10013 C 942.417 2.09155 4.56683 0
M  V30 10014 C 944.411 3.9954 4.96635 0
M  V30 10015 C 942.098 3.32581 5.12672 0
M  V30 10016 C 943.096 4.27591 5.32592 0
M  V30 10017 O 942.784 5.48837 5.87395 0
M  V30 10018 H 942.516 0.168866 0.654569 0
M  V30 10019 H 945.07 1.11441 1.7254 0
M  V30 10020 H 943.3 -0.295631 3.85568 0
M  V30 10021 H 944.989 0.0709302 4.05838 0
M  V30 10022 H 945.755 2.55351 4.12336 0
M  V30 10023 H 941.634 1.36004 4.40481 0
M  V30 10024 H 945.178 4.73709 5.12099 0
M  V30 10025 H 941.075 3.53466 5.40122 0
M  V30 10026 H 941.843 5.50377 6.05828 0
M  V30 10027 N 944.506 -1.46559 0.579492 0
M  V30 10028 C 945.734 -2.06784 0.0693648 0
M  V30 10029 C 946.149 -1.42875 -1.23419 0
M  V30 10030 O 945.506 -0.532919 -1.74546 0
M  V30 10031 C 945.557 -3.61343 -0.106511 0
M  V30 10032 O 945.278 -4.22861 1.14545 0
M  V30 10033 C 946.779 -4.38489 -0.651359 0
M  V30 10034 H 943.999 -0.66866 0.0559848 0
M  V30 10035 H 946.543 -1.88235 0.799245 0
M  V30 10036 H 944.698 -3.7933 -0.786601 0
M  V30 10037 H 945.112 -5.15691 0.95723 0
M  V30 10038 H 946.586 -5.47237 -0.723615 0
M  V30 10039 H 947.063 -4.06309 -1.66763 0
M  V30 10040 H 947.669 -4.253 -0.0062433 0
M  V30 10041 N 945.984 -0.3171 -1.54377 0
M  V30 10042 C 947.232 0.286842 -2.00054 0
M  V30 10043 C 947.553 1.53161 -1.20692 0
M  V30 10044 O 946.823 1.93479 -0.307045 0
M  V30 10045 H 945.403 0.108979 -0.739008 0
M  V30 10046 H 948.065 -0.432152 -1.90049 0
M  V30 10047 H 947.161 0.547729 -3.07256 0
M  V30 10048 N 947.462 1.57535 -0.0451378 0
M  V30 10049 C 948.412 2.07683 0.940829 0
M  V30 10050 C 949.396 0.9807 1.27558 0
M  V30 10051 O 950.588 1.2441 1.25901 0
M  V30 10052 C 947.717 2.62049 2.21778 0
M  V30 10053 C 946.803 3.78621 1.91068 0
M  V30 10054 N 947.194 4.88623 1.30694 0
M  V30 10055 C 945.492 3.87411 2.20972 0
M  V30 10056 C 946.193 5.69714 1.17478 0
M  V30 10057 N 945.169 5.17129 1.67566 0
M  V30 10058 H 948.971 2.90129 0.469267 0
M  V30 10059 H 946.485 1.61615 0.159472 0
M  V30 10060 H 948.482 2.96276 2.93302 0
M  V30 10061 H 947.142 1.81039 2.69546 0
M  V30 10062 H 948.153 5.08545 0.979907 0
M  V30 10063 H 944.83 3.17335 2.71302 0
M  V30 10064 H 946.22 6.68174 0.706574 0
M  V30 10065 N 948.94 -0.228186 1.55939 0
M  V30 10066 C 949.87 -1.28607 1.94891 0
M  V30 10067 C 950.851 -1.49236 0.816245 0
M  V30 10068 O 952.036 -1.61531 1.07803 0
M  V30 10069 C 949.166 -2.63719 2.25986 0
M  V30 10070 C 948.12 -2.57757 3.4168 0
M  V30 10071 C 947.446 -3.96837 3.58364 0
M  V30 10072 C 948.746 -2.13116 4.76843 0
M  V30 10073 H 950.44 -0.962531 2.83506 0
M  V30 10074 H 947.986 -0.461577 1.36402 0
M  V30 10075 H 949.939 -3.37878 2.51826 0
M  V30 10076 H 948.663 -2.97747 1.34217 0
M  V30 10077 H 947.322 -1.86055 3.15878 0
M  V30 10078 H 946.97 -4.28162 2.63982 0
M  V30 10079 H 946.67 -3.93731 4.36176 0
M  V30 10080 H 948.194 -4.72668 3.86545 0
M  V30 10081 H 949.608 -2.77015 5.01932 0
M  V30 10082 H 948.005 -2.21083 5.57891 0
M  V30 10083 H 949.075 -1.08326 4.72645 0
M  V30 10084 N 950.418 -1.49637 -0.494624 0
M  V30 10085 C 951.667 -1.58691 -1.24499 0
M  V30 10086 C 951.98 -0.281763 -1.9356 0
M  V30 10087 O 953.186 -0.250925 -2.70338 0
M  V30 10088 C 951.642 -2.8002 -2.26091 0
M  V30 10089 C 951.25 -4.17318 -1.6294 0
M  V30 10090 C 952.994 -2.98407 -3.01916 0
M  V30 10091 C 950.901 -5.29862 -2.62679 0
M  V30 10092 H 949.831 -0.590888 -0.468367 0
M  V30 10093 H 952.482 -1.76034 -0.518112 0
M  V30 10094 H 950.864 -2.56185 -3.01969 0
M  V30 10095 H 952.038 -4.51315 -0.930108 0
M  V30 10096 H 950.353 -4.04342 -0.994819 0
M  V30 10097 H 952.95 -3.79658 -3.76516 0
M  V30 10098 H 953.293 -2.09214 -3.5991 0
M  V30 10099 H 953.826 -3.22312 -2.33152 0
M  V30 10100 H 950.565 -6.21134 -2.09458 0
M  V30 10101 H 950.085 -5.00311 -3.3083 0
M  V30 10102 H 951.764 -5.59461 -3.2498 0
M  V30 10103 N 951.896 0.746133 -1.38819 0
M  V30 10104 C 953.173 1.49652 -1.25951 0
M  V30 10105 C 953.553 2.10663 0.135833 0
M  V30 10106 O 952.901 1.97682 1.14604 0
M  V30 10107 C 953.111 2.5569 -2.37537 0
M  V30 10108 C 954.459 3.22385 -2.76321 0
M  V30 10109 O 955.483 2.65998 -2.36904 0
M  V30 10110 O 954.342 4.2439 -3.44319 0
M  V30 10111 H 951.436 0.664019 -0.492958 0
M  V30 10112 H 953.982 0.780908 -1.50665 0
M  V30 10113 H 952.754 2.08908 -3.30867 0
M  V30 10114 H 952.377 3.34823 -2.14427 0
M  V30 10115 N 953.375 1.23811 0.975125 0
M  V30 10116 C 954.622 1.07336 1.71712 0
M  V30 10117 C 954.95 -0.388954 1.90571 0
M  V30 10118 O 954.205 -1.30409 1.45918 0
M  V30 10119 C 954.504 1.74994 3.11628 0
M  V30 10120 C 954.17 3.24918 3.12632 0
M  V30 10121 C 952.832 3.65822 3.12614 0
M  V30 10122 C 955.184 4.20797 3.07538 0
M  V30 10123 C 952.512 5.01054 3.05224 0
M  V30 10124 C 954.864 5.56027 3.0169 0
M  V30 10125 C 953.528 5.96287 2.99996 0
M  V30 10126 H 952.798 0.392771 0.62834 0
M  V30 10127 H 955.445 1.53815 1.14075 0
M  V30 10128 H 953.75 1.20889 3.72684 0
M  V30 10129 H 955.447 1.5972 3.67819 0
M  V30 10130 H 952.037 2.92359 3.13407 0
M  V30 10131 H 956.221 3.902 3.06688 0
M  V30 10132 H 951.477 5.31454 3.02268 0
M  V30 10133 H 955.651 6.3003 2.96706 0
M  V30 10134 H 953.278 7.01037 2.94025 0
M  V30 10135 N 954.853 -1.17469 1.05066 0
M  V30 10136 C 955.801 -2.23495 0.644418 0
M  V30 10137 C 956.795 -1.66081 -0.333685 0
M  V30 10138 O 958.001 -1.78887 -0.199886 0
M  V30 10139 H 954.376 -0.727546 0.190214 0
M  V30 10140 H 956.347 -2.55058 1.5488 0
M  V30 10141 C 955.096 -3.47684 0.0338051 0
M  V30 10142 H 954.419 -3.92167 0.777513 0
M  V30 10143 H 955.859 -4.23464 -0.213086 0
M  V30 10144 C 954.318 -3.14067 -1.21915 0
M  V30 10145 O 954.848 -3.28728 -2.3087 0
M  V30 10146 N 953.054 -2.68304 -1.11631 0
M  V30 10147 H 952.601 -2.56574 -0.229673 0
M  V30 10148 H 952.559 -2.46184 -1.95553 0
M  V30 10149 N 956.331 -0.831506 -1.3388 0
M  V30 10150 C 957.577 -0.424302 -1.98312 0
M  V30 10151 C 957.91 1.01211 -1.65741 0
M  V30 10152 O 957.185 1.70636 -0.933464 0
M  V30 10153 C 957.468 -0.636815 -3.54424 0
M  V30 10154 C 957.321 -2.11997 -3.96708 0
M  V30 10155 C 958.64 -0.0782411 -4.4003 0
M  V30 10156 H 955.759 -0.155637 -0.720379 0
M  V30 10157 H 958.401 -1.04566 -1.58638 0
M  V30 10158 H 956.551 -0.107907 -3.8835 0
M  V30 10159 H 958.223 -2.71317 -3.73075 0
M  V30 10160 H 956.466 -2.60723 -3.46707 0
M  V30 10161 H 957.137 -2.21944 -5.05416 0
M  V30 10162 H 959.613 -0.530243 -4.12708 0
M  V30 10163 H 958.489 -0.256676 -5.483 0
M  V30 10164 H 958.75 1.01745 -4.30233 0
M  V30 10165 N 957.809 1.4625 -0.587256 0
M  V30 10166 C 959.225 1.57641 -0.249284 0
M  V30 10167 C 959.425 1.58169 1.24839 0
M  V30 10168 O 958.481 1.50109 2.03036 0
M  V30 10169 C 959.794 2.86837 -0.902509 0
M  V30 10170 C 961.342 3.00476 -0.876524 0
M  V30 10171 C 961.817 4.32414 -1.50938 0
M  V30 10172 N 963.308 4.39124 -1.47392 0
M  V30 10173 C 964.043 5.39838 -1.93293 0
M  V30 10174 N 963.539 6.47202 -2.47188 0
M  V30 10175 N 965.332 5.31068 -1.84183 0
M  V30 10176 H 957.483 1.44151 -1.55994 0
M  V30 10177 H 959.746 0.687905 -0.652297 0
M  V30 10178 H 959.452 2.92274 -1.95624 0
M  V30 10179 H 959.326 3.74927 -0.413466 0
M  V30 10180 H 961.713 2.94618 0.168601 0
M  V30 10181 H 961.794 2.1385 -1.40363 0
M  V30 10182 H 961.438 4.3903 -2.55372 0
M  V30 10183 H 961.368 5.17823 -0.957455 0
M  V30 10184 H 963.859 3.62138 -1.08002 0
M  V30 10185 H 964.172 7.20269 -2.80058 0
M  V30 10186 H 962.517 6.48009 -2.51216 0
M  V30 10187 H 965.708 4.46095 -1.41833 0
M  V30 10188 H 965.881 6.09414 -2.2027 0
M  V30 10189 N 959.287 0.325282 1.54207 0
M  V30 10190 C 960.25 -0.527228 2.23054 0
M  V30 10191 C 961.25 -1.04217 1.22456 0
M  V30 10192 O 962.44 -0.934325 1.47024 0
M  V30 10193 C 959.572 -1.7325 2.93594 0
M  V30 10194 H 960.765 0.0746423 2.99807 0
M  V30 10195 H 958.318 0.0763872 1.56113 0
M  V30 10196 H 959.053 -2.37356 2.20981 0
M  V30 10197 H 958.838 -1.37065 3.67363 0
M  V30 10198 H 960.328 -2.3376 3.46043 0
M  V30 10199 N 960.765 -1.57509 0.0534917 0
M  V30 10200 C 961.675 -2.15152 -0.935249 0
M  V30 10201 C 962.691 -1.10991 -1.34003 0
M  V30 10202 O 963.867 -1.43171 -1.41648 0
M  V30 10203 C 960.932 -2.68699 -2.19093 0
M  V30 10204 C 959.993 -3.87666 -1.84428 0
M  V30 10205 C 959.226 -4.3865 -3.0401 0
M  V30 10206 O 959.449 -3.887 -4.17455 0
M  V30 10207 O 958.383 -5.30209 -2.84889 0
M  V30 10208 H 962.209 -2.99962 -0.475009 0
M  V30 10209 H 959.794 -1.48446 -0.16854 0
M  V30 10210 H 961.676 -3.03098 -2.92762 0
M  V30 10211 H 960.351 -1.86958 -2.6425 0
M  V30 10212 H 959.258 -3.58151 -1.08068 0
M  V30 10213 H 960.591 -4.70643 -1.44068 0
M  V30 10214 N 962.243 0.219913 -1.56058 0
M  V30 10215 C 963.659 0.569685 -1.49086 0
M  V30 10216 C 963.859 1.87066 -0.748903 0
M  V30 10217 O 962.915 2.50838 -0.289235 0
M  V30 10218 C 964.228 0.647397 -2.93648 0
M  V30 10219 C 965.776 0.737914 -3.04177 0
M  V30 10220 C 966.251 0.846957 -4.50101 0
M  V30 10221 N 967.742 0.911136 -4.5415 0
M  V30 10222 C 968.477 1.01525 -5.64341 0
M  V30 10223 N 967.973 1.0832 -6.8428 0
M  V30 10224 N 969.766 1.05051 -5.52196 0
M  V30 10225 H 961.917 -0.633778 -2.02724 0
M  V30 10226 H 964.18 -0.222583 -0.921499 0
M  V30 10227 H 963.886 -0.238987 -3.50887 0
M  V30 10228 H 963.76 1.51046 -3.45637 0
M  V30 10229 H 966.147 1.61474 -2.47002 0
M  V30 10230 H 966.228 -0.150845 -2.55355 0
M  V30 10231 H 965.872 -0.0254166 -5.07894 0
M  V30 10232 H 965.802 1.75116 -4.96631 0
M  V30 10233 H 968.293 0.868869 -3.67776 0
M  V30 10234 H 968.606 1.16247 -7.64007 0
M  V30 10235 H 966.951 1.05231 -6.86987 0
M  V30 10236 H 970.142 0.994086 -4.57423 0
M  V30 10237 H 970.315 1.12819 -6.38103 0
M  V30 10238 N 963.721 1.49897 0.486681 0
M  V30 10239 C 964.654 1.6224 1.60479 0
M  V30 10240 C 965.632 0.470964 1.5563 0
M  V30 10241 O 966.816 0.688418 1.75479 0
M  V30 10242 C 963.943 1.59059 2.99028 0
M  V30 10243 C 962.989 2.79575 3.22087 0
M  V30 10244 S 963.822 4.41077 3.03664 0
M  V30 10245 C 964.978 4.40564 4.44583 0
M  V30 10246 H 965.211 2.56822 1.49766 0
M  V30 10247 H 962.744 1.38966 0.672893 0
M  V30 10248 H 964.702 1.5791 3.78913 0
M  V30 10249 H 963.363 0.657405 3.07143 0
M  V30 10250 H 962.556 2.73609 4.23266 0
M  V30 10251 H 962.158 2.78211 2.49949 0
M  V30 10252 H 964.45 4.13166 5.36936 0
M  V30 10253 H 965.393 5.42068 4.55596 0
M  V30 10254 H 965.801 3.70461 4.25933 0
M  V30 10255 N 965.199 -0.738761 1.39212 0
M  V30 10256 C 966.447 -1.49529 1.35962 0
M  V30 10257 C 966.768 -1.94948 -0.0450152 0
M  V30 10258 O 966.038 -1.68717 -0.995552 0
M  V30 10259 H 964.618 -0.554692 0.500326 0
M  V30 10260 H 967.28 -0.877255 1.74041 0
M  V30 10261 H 966.376 -2.37919 2.01993 0
M  V30 10262 N 966.677 -1.24326 -0.968545 0
M  V30 10263 C 967.923 -1.09413 -1.71465 0
M  V30 10264 C 968.278 0.363422 -1.88937 0
M  V30 10265 O 967.571 1.26486 -1.43916 0
M  V30 10266 C 967.765 -1.76644 -3.10695 0
M  V30 10267 C 967.594 -3.28787 -3.06805 0
M  V30 10268 C 966.364 -3.97995 -3.11333 0
M  V30 10269 C 968.562 -4.25389 -2.89047 0
M  V30 10270 N 966.544 -5.37024 -2.97453 0
M  V30 10271 C 967.915 -5.51411 -2.83454 0
M  V30 10272 C 969.97 -4.15976 -2.73621 0
M  V30 10273 C 968.673 -6.69096 -2.64013 0
M  V30 10274 C 970.699 -5.33338 -2.55547 0
M  V30 10275 C 970.061 -6.58291 -2.50663 0
M  V30 10276 H 966.16 -0.454986 -0.636012 0
M  V30 10277 H 968.744 -1.57228 -1.14837 0
M  V30 10278 H 966.915 -1.31344 -3.65518 0
M  V30 10279 H 968.647 -1.54599 -3.74007 0
M  V30 10280 H 965.402 -3.49155 -3.19981 0
M  V30 10281 H 965.826 -6.09948 -2.93756 0
M  V30 10282 H 970.468 -3.20131 -2.76181 0
M  V30 10283 H 968.186 -7.65064 -2.60197 0
M  V30 10284 H 971.772 -5.27904 -2.44557 0
M  V30 10285 H 970.652 -7.47575 -2.36856 0
M  V30 10286 N 968.156 1.1691 -1.05688 0
M  V30 10287 C 969.086 2.23275 -0.683402 0
M  V30 10288 C 970.067 1.6704 0.321206 0
M  V30 10289 O 971.252 1.93191 0.197691 0
M  V30 10290 C 968.382 3.47244 -0.0626006 0
M  V30 10291 C 967.336 4.16333 -0.992513 0
M  V30 10292 C 966.662 5.34182 -0.23533 0
M  V30 10293 C 967.962 4.68002 -2.31886 0
M  V30 10294 H 969.656 2.54771 -1.57264 0
M  V30 10295 H 967.202 1.2246 -0.757606 0
M  V30 10296 H 969.155 4.20874 0.210503 0
M  V30 10297 H 967.879 3.1503 0.861616 0
M  V30 10298 H 966.538 3.44622 -1.25026 0
M  V30 10299 H 966.186 4.9822 0.69181 0
M  V30 10300 H 965.886 5.81346 -0.855002 0
M  V30 10301 H 967.41 6.10592 0.0303717 0
M  V30 10302 H 968.824 5.33244 -2.10531 0
M  V30 10303 H 967.221 5.25764 -2.89296 0
M  V30 10304 H 968.291 3.84541 -2.95391 0
M  V30 10305 N 969.634 0.838594 1.33437 0
M  V30 10306 C 971.045 0.490934 1.8013 0
M  V30 10307 C 971.396 -0.990024 1.6939 0
M  V30 10308 O 970.521 -1.77139 1.24302 0
M  V30 10309 C 971.116 0.884347 3.27055 0
M  V30 10310 C 969.675 0.588829 3.71766 0
M  V30 10311 C 968.822 1.09282 2.54858 0
M  V30 10312 H 971.773 1.02732 1.20962 0
M  V30 10313 H 971.794 0.194283 3.80004 0
M  V30 10314 H 971.306 1.96225 3.34839 0
M  V30 10315 H 969.407 -0.479018 3.69508 0
M  V30 10316 H 969.52 1.14387 4.65245 0
M  V30 10317 H 967.884 0.513702 2.49466 0
M  V30 10318 H 968.667 2.1775 2.65405 0
M  V30 10319 N 971.112 -1.45937 0.595003 0
M  V30 10320 C 972.337 -2.07207 0.0894416 0
M  V30 10321 C 972.762 -1.43884 -1.21157 0
M  V30 10322 O 972.12 -0.526998 -1.73472 0
M  V30 10323 C 972.168 -3.60565 -0.0499828 0
M  V30 10324 O 971.272 -3.97364 -1.10342 0
M  V30 10325 H 970.613 -0.660471 0.0683627 0
M  V30 10326 H 973.143 -1.87386 0.82144 0
M  V30 10327 H 973.153 -4.0722 -0.252234 0
M  V30 10328 H 971.828 -4.06044 0.90006 0
M  V30 10329 H 970.405 -3.62401 -0.878645 0
M  V30 10330 N 972.59 -0.333456 -1.54032 0
M  V30 10331 C 973.553 0.515392 -2.2333 0
M  V30 10332 C 974.553 1.03566 -1.23007 0
M  V30 10333 O 975.743 0.926514 -1.47517 0
M  V30 10334 C 972.875 1.7169 -2.94508 0
M  V30 10335 H 974.068 -0.0905407 -2.99763 0
M  V30 10336 H 971.621 -0.0846651 -1.56071 0
M  V30 10337 H 972.356 2.3618 -2.22237 0
M  V30 10338 H 972.141 1.35115 -3.68085 0
M  V30 10339 H 973.631 2.31922 -3.47278 0
M  V30 10340 N 974.068 1.57479 -0.061844 0
M  V30 10341 C 975.479 1.80627 0.472295 0
M  V30 10342 C 975.83 0.97496 1.70261 0
M  V30 10343 O 974.955 0.1946 2.15523 0
M  V30 10344 C 975.55 3.27608 0.863616 0
M  V30 10345 C 974.109 3.51638 1.34267 0
M  V30 10346 C 973.256 2.75412 0.323009 0
M  V30 10347 H 976.207 1.56072 -0.287634 0
M  V30 10348 H 976.228 3.39113 1.72577 0
M  V30 10349 H 975.74 3.88087 -0.0320226 0
M  V30 10350 H 973.841 2.96452 2.25714 0
M  V30 10351 H 973.954 4.60342 1.32747 0
M  V30 10352 H 972.318 2.4187 0.798175 0
M  V30 10353 H 973.101 3.38623 -0.564729 0
M  V30 10354 N 975.546 -0.211634 1.56173 0
M  V30 10355 C 976.478 -1.286 1.89723 0
M  V30 10356 C 977.491 -1.42549 0.786361 0
M  V30 10357 O 978.68 -1.4327 1.06471 0
M  V30 10358 C 975.78 -2.66036 2.09948 0
M  V30 10359 C 974.953 -2.73908 3.41018 0
M  V30 10360 C 974.012 -3.92425 3.50555 0
M  V30 10361 O 973.038 -3.803 4.2351 0
M  V30 10362 N 974.24 -5.07165 2.82426 0
M  V30 10363 H 977.005 -1.00142 2.82474 0
M  V30 10364 H 974.566 -0.401633 1.56839 0
M  V30 10365 H 976.558 -3.43719 2.13634 0
M  V30 10366 H 975.128 -2.87052 1.23774 0
M  V30 10367 H 974.348 -1.82625 3.49345 0
M  V30 10368 H 975.636 -2.76145 4.27342 0
M  V30 10369 H 975.034 -5.19913 2.2295 0
M  V30 10370 H 973.591 -5.82855 2.9176 0
M  V30 10371 N 977.024 -1.50153 -0.478725 0
M  V30 10372 C 977.954 -1.71384 -1.58587 0
M  V30 10373 C 978.935 -0.562705 -1.60523 0
M  V30 10374 O 980.12 -0.80101 -1.76911 0
M  V30 10375 C 977.25 -1.80094 -2.96957 0
M  V30 10376 C 976.204 -2.95218 -3.09888 0
M  V30 10377 C 975.53 -2.89063 -4.49829 0
M  V30 10378 C 976.83 -4.35841 -2.8782 0
M  V30 10379 H 978.524 -2.64081 -1.41073 0
M  V30 10380 H 976.07 -1.27081 -0.677239 0
M  V30 10381 H 978.023 -1.93531 -3.74331 0
M  V30 10382 H 976.747 -0.840131 -3.1561 0
M  V30 10383 H 975.406 -2.81419 -2.34944 0
M  V30 10384 H 975.054 -1.90844 -4.6539 0
M  V30 10385 H 974.754 -3.66345 -4.59418 0
M  V30 10386 H 976.278 -3.04539 -5.29234 0
M  V30 10387 H 977.692 -4.50205 -3.54948 0
M  V30 10388 H 976.089 -5.14515 -3.0886 0
M  V30 10389 H 977.159 -4.48739 -1.83742 0
M  V30 10390 N 978.502 0.731368 -1.39602 0
M  V30 10391 C 979.75 1.48805 -1.36753 0
M  V30 10392 C 980.071 1.94969 0.034676 0
M  V30 10393 O 979.341 1.69243 0.986591 0
M  V30 10394 H 977.921 0.55203 -0.503261 0
M  V30 10395 H 980.583 0.868013 -1.74504 0
M  V30 10396 H 979.679 2.36844 -2.03252 0
M  V30 10397 N 979.98 1.24838 0.961938 0
M  V30 10398 C 981.208 1.11871 1.74047 0
M  V30 10399 C 981.623 -0.328209 1.85925 0
M  V30 10400 O 980.98 -1.22616 1.35173 0
M  V30 10401 C 981.031 1.75931 3.15801 0
M  V30 10402 O 980.752 3.14967 3.04512 0
M  V30 10403 C 982.253 1.68649 4.09966 0
M  V30 10404 H 979.473 0.390569 0.545616 0
M  V30 10405 H 982.017 1.65058 1.20732 0
M  V30 10406 H 980.172 1.26733 3.66084 0
M  V30 10407 H 980.586 3.46349 3.93882 0
M  V30 10408 H 982.06 2.18144 5.07067 0
M  V30 10409 H 982.537 0.648831 4.34381 0
M  V30 10410 H 983.143 2.17301 3.65596 0
M  V30 10411 N 981.458 -1.16348 1.06306 0
M  V30 10412 C 982.406 -2.22799 0.668087 0
M  V30 10413 C 983.4 -1.66426 -0.316051 0
M  V30 10414 O 984.606 -1.79089 -0.180902 0
M  V30 10415 H 980.981 -0.725487 0.19792 0
M  V30 10416 H 982.952 -2.53401 1.57577 0
M  V30 10417 C 981.701 -3.47628 0.0706797 0
M  V30 10418 H 981.024 -3.9132 0.819064 0
M  V30 10419 H 982.464 -4.23666 -0.16816 0
M  V30 10420 C 980.923 -3.15343 -1.18577 0
M  V30 10421 O 981.453 -3.31158 -2.27371 0
M  V30 10422 N 979.659 -2.69472 -1.08779 0
M  V30 10423 H 979.206 -2.56803 -0.202447 0
M  V30 10424 H 979.164 -2.48244 -1.92931 0
M  V30 10425 N 982.937 -0.845659 -1.3299 0
M  V30 10426 C 984.348 -0.50048 -1.79867 0
M  V30 10427 C 984.699 0.981027 -1.69913 0
M  V30 10428 O 983.824 1.76477 -1.25239 0
M  V30 10429 C 984.419 -0.901679 -3.26581 0
M  V30 10430 C 982.978 -0.608536 -3.71448 0
M  V30 10431 C 982.125 -1.10632 -2.54275 0
M  V30 10432 H 985.076 -1.03372 -1.20416 0
M  V30 10433 H 985.097 -0.214433 -3.79895 0
M  V30 10434 H 984.609 -1.97998 -3.33794 0
M  V30 10435 H 982.71 0.459416 -3.69757 0
M  V30 10436 H 982.823 -1.16853 -4.64631 0
M  V30 10437 H 981.187 -0.526925 -2.4919 0
M  V30 10438 H 981.97 -2.19154 -2.64247 0
M  V30 10439 N 984.415 1.45619 -0.602734 0
M  V30 10440 C 985.345 2.33258 0.106342 0
M  V30 10441 C 986.326 1.46543 0.863664 0
M  V30 10442 O 987.511 1.75324 0.835175 0
M  V30 10443 C 984.641 3.29168 1.10751 0
M  V30 10444 C 983.595 4.25481 0.463717 0
M  V30 10445 C 982.921 5.11046 1.57278 0
M  V30 10446 C 984.221 5.18702 -0.61199 0
M  V30 10447 H 985.915 2.92795 -0.625423 0
M  V30 10448 H 983.461 1.40793 -0.302213 0
M  V30 10449 H 985.414 3.89346 1.61208 0
M  V30 10450 H 984.138 2.6778 1.8698 0
M  V30 10451 H 982.797 3.66595 -0.0199496 0
M  V30 10452 H 982.445 4.46029 2.32524 0
M  V30 10453 H 982.145 5.76286 1.14755 0
M  V30 10454 H 983.669 5.74091 2.07972 0
M  V30 10455 H 985.083 5.72979 -0.191686 0
M  V30 10456 H 983.48 5.92393 -0.958686 0
M  V30 10457 H 984.55 4.61424 -1.4905 0
M  V30 10458 N 985.893 0.34162 1.53853 0
M  V30 10459 C 987.121 -0.256929 2.05299 0
M  V30 10460 C 987.536 -1.44366 1.21671 0
M  V30 10461 O 986.893 -1.80758 0.251584 0
M  V30 10462 C 986.944 -0.673854 3.55164 0
M  V30 10463 O 986.665 0.465687 4.35618 0
M  V30 10464 C 988.166 -1.33332 4.22773 0
M  V30 10465 H 985.386 -0.0499445 0.669139 0
M  V30 10466 H 987.93 0.493048 1.98467 0
M  V30 10467 H 986.085 -1.37378 3.62224 0
M  V30 10468 H 986.499 0.133723 5.2433 0
M  V30 10469 H 987.973 -1.57582 5.29029 0
M  V30 10470 H 988.45 -2.28628 3.75001 0
M  V30 10471 H 989.056 -0.675489 4.19901 0
M  V30 10472 N 987.371 -1.57444 0.0701946 0
M  V30 10473 C 988.62 -1.92605 -0.598849 0
M  V30 10474 C 988.933 -0.952058 -1.70866 0
M  V30 10475 O 990.139 -1.19643 -2.43716 0
M  V30 10476 C 988.595 -3.42142 -1.11655 0
M  V30 10477 C 988.203 -4.47984 -0.0378355 0
M  V30 10478 C 989.947 -3.86307 -1.75975 0
M  V30 10479 C 987.854 -5.88652 -0.569495 0
M  V30 10480 H 986.784 -0.718873 -0.22746 0
M  V30 10481 H 989.435 -1.82948 0.14217 0
M  V30 10482 H 987.817 -3.46866 -1.91049 0
M  V30 10483 H 988.991 -4.54874 0.736661 0
M  V30 10484 H 987.306 -4.13277 0.50904 0
M  V30 10485 H 989.903 -4.88784 -2.16782 0
M  V30 10486 H 990.246 -3.23587 -2.61911 0
M  V30 10487 H 990.779 -3.84179 -1.03206 0
M  V30 10488 H 987.518 -6.55013 0.252662 0
M  V30 10489 H 987.038 -5.85285 -1.31155 0
M  V30 10490 H 988.717 -6.38482 -1.04641 0
M  V30 10491 N 988.849 0.203349 -1.56283 0
M  V30 10492 C 989.812 1.23566 -1.93039 0
M  V30 10493 C 990.812 1.38869 -0.810687 0
M  V30 10494 O 992.002 1.36822 -1.07821 0
M  V30 10495 C 989.134 2.60645 -2.1972 0
M  V30 10496 H 990.327 0.921692 -2.85385 0
M  V30 10497 H 987.88 0.44453 -1.49845 0
M  V30 10498 H 988.615 2.9711 -1.29985 0
M  V30 10499 H 988.4 2.50911 -3.01307 0
M  V30 10500 H 989.89 3.35103 -2.4919 0
M  V30 10501 N 990.327 1.50405 0.470755 0
M  V30 10502 C 991.575 1.61092 1.2204 0
M  V30 10503 C 991.896 0.313487 1.92464 0
M  V30 10504 O 991.166 -0.669043 1.84121 0
M  V30 10505 H 989.746 0.593618 0.45346 0
M  V30 10506 H 992.408 1.87184 0.542985 0
M  V30 10507 H 991.504 2.42222 1.96812 0
M  V30 10508 N 991.805 -0.723954 1.39988 0
M  V30 10509 C 992.715 -1.86829 1.41887 0
M  V30 10510 C 993.731 -1.71173 0.312401 0
M  V30 10511 O 994.907 -1.93583 0.555651 0
M  V30 10512 C 991.972 -3.22541 1.27154 0
M  V30 10513 C 991.033 -3.50512 2.47871 0
M  V30 10514 C 990.266 -4.79749 2.33831 0
M  V30 10515 O 990.489 -5.54251 1.34765 0
M  V30 10516 O 989.423 -5.07868 3.23039 0
M  V30 10517 H 993.249 -1.88183 2.38371 0
M  V30 10518 H 990.834 -0.873259 1.21221 0
M  V30 10519 H 992.716 -4.0362 1.21114 0
M  V30 10520 H 991.391 -3.21933 0.337715 0
M  V30 10521 H 990.298 -2.69475 2.59488 0
M  V30 10522 H 991.631 -3.55909 3.39985 0
M  V30 10523 N 993.283 -1.25346 -0.955304 0
M  V30 10524 C 994.246 -1.05754 -2.03344 0
M  V30 10525 C 995.246 -0.0105743 -1.60797 0
M  V30 10526 O 996.436 -0.252699 -1.72357 0
M  V30 10527 C 993.568 -0.605536 -3.35479 0
M  V30 10528 H 994.761 -2.01459 -2.22158 0
M  V30 10529 H 992.314 -1.07744 -1.1323 0
M  V30 10530 H 993.049 0.354154 -3.2236 0
M  V30 10531 H 992.834 -1.36134 -3.67709 0
M  V30 10532 H 994.324 -0.489867 -4.14717 0
M  V30 10533 N 994.761 1.15782 -1.06922 0
M  V30 10534 C 995.671 2.24008 -0.696948 0
M  V30 10535 C 996.687 1.71569 0.289862 0
M  V30 10536 O 997.863 2.00929 0.137585 0
M  V30 10537 C 994.928 3.46568 -0.0957895 0
M  V30 10538 C 993.989 4.14017 -1.13528 0
M  V30 10539 C 993.222 5.30725 -0.562713 0
M  V30 10540 O 993.445 5.66992 0.62259 0
M  V30 10541 O 992.379 5.87572 -1.30549 0
M  V30 10542 H 996.205 2.58174 -1.59938 0
M  V30 10543 H 993.79 1.2342 -0.841889 0
M  V30 10544 H 995.672 4.20731 0.237407 0
M  V30 10545 H 994.347 3.14161 0.780027 0
M  V30 10546 H 993.254 3.41795 -1.52076 0
M  V30 10547 H 994.587 4.50493 -1.98285 0
M  V30 10548 N 996.239 0.8527 1.3254 0
M  V30 10549 C 997.186 0.293905 2.28921 0
M  V30 10550 C 998.156 -0.598027 1.54961 0
M  V30 10551 O 999.341 -0.533355 1.83194 0
M  V30 10552 C 996.481 -0.513361 3.4126 0
M  V30 10553 C 995.594 0.404144 4.30105 0
M  V30 10554 C 994.729 -0.415564 5.29572 0
M  V30 10555 C 993.768 0.499461 6.10059 0
M  V30 10556 N 992.905 -0.282949 7.0153 0
M  V30 10557 H 997.745 1.12107 2.76109 0
M  V30 10558 H 995.282 0.564272 1.35847 0
M  V30 10559 H 997.24 -0.997008 4.05112 0
M  V30 10560 H 995.87 -1.30537 2.95229 0
M  V30 10561 H 994.922 1.00617 3.66852 0
M  V30 10562 H 996.234 1.10648 4.86373 0
M  V30 10563 H 995.388 -0.962458 5.99017 0
M  V30 10564 H 994.127 -1.15127 4.73917 0
M  V30 10565 H 993.132 1.05825 5.39519 0
M  V30 10566 H 994.357 1.23375 6.67799 0
M  V30 10567 H 992.303 -1.00179 6.48306 0
M  V30 10568 H 992.22 0.36039 7.55141 0
M  V30 10569 H 993.488 -0.811632 7.75263 0
M  V30 10570 N 997.718 -1.45297 0.610449 0
M  V30 10571 C 998.681 -2.28995 -0.0968194 0
M  V30 10572 C 999.681 -1.39923 -0.792353 0
M  V30 10573 O 1000.87 -1.62014 -0.64008 0
M  V30 10574 C 998.003 -3.21013 -1.14731 0
M  V30 10575 H 999.196 -2.93012 0.639082 0
M  V30 10576 H 996.749 -1.51867 0.369624 0
M  V30 10577 H 997.484 -2.61803 -1.91388 0
M  V30 10578 H 997.269 -3.86628 -0.652753 0
M  V30 10579 H 998.759 -3.8394 -1.64256 0
M  V30 10580 N 999.196 -0.349774 -1.5367 0
M  V30 10581 C 1000.44 0.244343 -2.00617 0
M  V30 10582 C 1000.76 1.50567 -1.23914 0
M  V30 10583 O 1000.03 1.92784 -0.348016 0
M  V30 10584 H 998.615 0.0932792 -0.741153 0
M  V30 10585 H 1001.28 -0.472367 -1.89089 0
M  V30 10586 H 1000.37 0.482433 -3.08349 0
M  V30 10587 N 1000.67 1.57404 -0.0785433 0
M  V30 10588 C 1001.61 2.08724 0.922464 0
M  V30 10589 C 1002.58 0.993912 1.28686 0
M  V30 10590 O 1003.77 1.26776 1.39499 0
M  V30 10591 C 1000.9 2.55051 2.2286 0
M  V30 10592 C 999.942 3.75884 2.01528 0
M  V30 10593 S 1000.77 5.2026 1.26844 0
M  V30 10594 C 1001.93 5.69924 2.58723 0
M  V30 10595 H 1002.16 2.93304 0.485807 0
M  V30 10596 H 999.697 1.53814 0.134377 0
M  V30 10597 H 1001.65 2.82402 2.97926 0
M  V30 10598 H 1000.32 1.70727 2.63649 0
M  V30 10599 H 999.509 4.06311 2.98207 0
M  V30 10600 H 999.111 3.48941 1.34596 0
M  V30 10601 H 1001.4 5.7718 3.5478 0
M  V30 10602 H 1002.35 6.68704 2.32897 0
M  V30 10603 H 1002.75 4.97773 2.66237 0
M  V30 10604 N 1002.15 -0.195058 1.56388 0
M  V30 10605 C 1003.1 -1.26122 1.95438 0
M  V30 10606 C 1004.09 -1.47117 0.839818 0
M  V30 10607 O 1005.3 -1.47978 1.02482 0
M  V30 10608 H 1001.67 -0.423422 0.621464 0
M  V30 10609 H 1003.65 -0.904854 2.8435 0
M  V30 10610 C 1002.39 -2.59858 2.31017 0
M  V30 10611 H 1001.72 -2.44519 3.16308 0
M  V30 10612 H 1003.16 -3.33205 2.62203 0
M  V30 10613 C 1001.62 -3.16853 1.14481 0
M  V30 10614 O 1002.15 -3.995 0.419853 0
M  V30 10615 N 1000.35 -2.75599 0.921604 0
M  V30 10616 H 999.9 -2.08495 1.51287 0
M  V30 10617 H 999.858 -3.14072 0.143663 0
M  V30 10618 N 1003.63 -1.50653 -0.462772 0
M  V30 10619 C 1005.04 -1.54821 -1.04342 0
M  V30 10620 C 1005.39 -0.356595 -1.92932 0
M  V30 10621 O 1004.52 0.529579 -2.0982 0
M  V30 10622 C 1005.11 -2.80571 -1.89909 0
M  V30 10623 C 1003.67 -2.87394 -2.43067 0
M  V30 10624 C 1002.82 -2.49206 -1.21621 0
M  V30 10625 H 1005.77 -1.56797 -0.245048 0
M  V30 10626 H 1005.79 -2.62897 -2.75074 0
M  V30 10627 H 1005.3 -3.67281 -1.25405 0
M  V30 10628 H 1003.4 -2.05055 -3.111 0
M  V30 10629 H 1003.52 -3.90477 -2.77605 0
M  V30 10630 H 1001.88 -2.01829 -1.55361 0
M  V30 10631 H 1002.66 -3.38233 -0.587669 0
M  V30 10632 N 1005.11 0.71652 -1.4037 0
M  V30 10633 C 1006.35 1.47857 -1.38803 0
M  V30 10634 C 1006.69 1.94197 0.0100536 0
M  V30 10635 O 1005.96 1.68093 0.978521 0
M  V30 10636 C 1006.25 2.7053 -2.37667 0
M  V30 10637 C 1006.1 2.3009 -3.86496 0
M  V30 10638 C 1007.42 3.72684 -2.34082 0
M  V30 10639 H 1004.54 0.53632 -0.505499 0
M  V30 10640 H 1007.18 0.817824 -1.71498 0
M  V30 10641 H 1005.33 3.26906 -2.09916 0
M  V30 10642 H 1007 1.79202 -4.2507 0
M  V30 10643 H 1005.24 1.62102 -4.02375 0
M  V30 10644 H 1005.91 3.18018 -4.51186 0
M  V30 10645 H 1008.39 3.25935 -2.58661 0
M  V30 10646 H 1007.27 4.56157 -3.05306 0
M  V30 10647 H 1007.53 4.20916 -1.35213 0
M  V30 10648 N 1006.59 1.25851 0.948643 0
M  V30 10649 C 1007.86 1.01717 1.67072 0
M  V30 10650 C 1008.24 -0.454749 2.06144 0
M  V30 10651 O 1007.59 -1.43345 1.77945 0
M  V30 10652 C 1007.8 1.95872 2.88852 0
M  V30 10653 C 1009.15 2.24057 3.60671 0
M  V30 10654 O 1010.17 1.93678 2.98944 0
M  V30 10655 O 1009.03 2.75745 4.71833 0
M  V30 10656 H 1006.13 0.386198 0.731287 0
M  V30 10657 H 1008.67 1.37031 1.00104 0
M  V30 10658 H 1007.44 2.95233 2.56814 0
M  V30 10659 H 1007.07 1.60992 3.63548 0
M  V30 10660 N 1008.06 -1.15214 1.07534 0
M  V30 10661 C 1009.29 -1.89647 0.819614 0
M  V30 10662 C 1009.7 -1.78365 -0.631072 0
M  V30 10663 O 1009.05 -1.1346 -1.44474 0
M  V30 10664 C 1009.11 -3.40573 1.1511 0
M  V30 10665 C 1008.77 -3.7564 2.60276 0
M  V30 10666 C 1009.77 -3.76507 3.58523 0
M  V30 10667 C 1007.45 -4.05891 2.95901 0
M  V30 10668 C 1009.45 -4.07133 4.9043 0
M  V30 10669 C 1007.13 -4.36182 4.28005 0
M  V30 10670 C 1008.13 -4.36785 5.25079 0
M  V30 10671 O 1007.82 -4.66348 6.54809 0
M  V30 10672 H 1007.55 -0.607836 0.295822 0
M  V30 10673 H 1010.11 -1.46895 1.43565 0
M  V30 10674 H 1008.34 -3.83734 0.478033 0
M  V30 10675 H 1010.03 -3.96299 0.877615 0
M  V30 10676 H 1010.79 -3.53233 3.32342 0
M  V30 10677 H 1006.67 -4.0458 2.20989 0
M  V30 10678 H 1010.21 -4.07519 5.66193 0
M  V30 10679 H 1006.11 -4.58924 4.53937 0
M  V30 10680 H 1006.88 -4.84105 6.59988 0
M  V30 10681 N 1009.54 -0.859717 -1.32086 0
M  V30 10682 C 1010.77 -0.479724 -2.01262 0
M  V30 10683 C 1011.19 0.924985 -1.64589 0
M  V30 10684 O 1010.54 1.60439 -0.869803 0
M  V30 10685 C 1010.59 -0.615128 -3.56228 0
M  V30 10686 O 1010.31 -1.96451 -3.91585 0
M  V30 10687 C 1011.82 -0.234804 -4.42678 0
M  V30 10688 H 1009.04 -0.188007 -0.644123 0
M  V30 10689 H 1011.58 -1.15805 -1.68551 0
M  V30 10690 H 1009.73 0.0155268 -3.87397 0
M  V30 10691 H 1010.15 -1.96491 -4.86304 0
M  V30 10692 H 1011.62 -0.380534 -5.50687 0
M  V30 10693 H 1012.1 0.825189 -4.31378 0
M  V30 10694 H 1012.71 -0.840739 -4.16907 0
M  V30 10695 N 1011.02 1.44971 -0.618145 0
M  V30 10696 C 1012.27 2.02458 -0.117656 0
M  V30 10697 C 1012.6 1.48413 1.25248 0
M  V30 10698 O 1011.87 0.662997 1.82851 0
M  V30 10699 C 1012.16 3.59987 -0.0901897 0
M  V30 10700 C 1012.01 4.24343 -1.49175 0
M  V30 10701 C 1013.33 4.36099 0.592121 0
M  V30 10702 H 1010.45 0.735672 -0.0442291 0
M  V30 10703 H 1013.09 1.727 -0.792138 0
M  V30 10704 H 1011.24 3.85471 0.484175 0
M  V30 10705 H 1012.91 4.10009 -2.114 0
M  V30 10706 H 1011.16 3.82337 -2.04941 0
M  V30 10707 H 1011.83 5.33298 -1.42468 0
M  V30 10708 H 1014.3 4.1597 0.103813 0
M  V30 10709 H 1013.18 5.45822 0.580481 0
M  V30 10710 H 1013.44 4.09746 1.66015 0
M  V30 10711 N 1012.5 0.357919 1.53482 0
M  V30 10712 C 1013.45 -0.49217 2.25491 0
M  V30 10713 C 1014.42 -1.08382 1.25867 0
M  V30 10714 O 1015.6 -1.11775 1.54632 0
M  V30 10715 C 1012.74 -1.6299 3.04185 0
M  V30 10716 C 1011.85 -1.06416 4.18688 0
M  V30 10717 C 1010.99 -2.17037 4.84839 0
M  V30 10718 C 1010.03 -1.57889 5.91386 0
M  V30 10719 N 1009.16 -2.6231 6.51259 0
M  V30 10720 H 1014 0.128412 2.97723 0
M  V30 10721 H 1011.54 0.0751423 1.46908 0
M  V30 10722 H 1013.5 -2.29993 3.48079 0
M  V30 10723 H 1012.13 -2.22125 2.34223 0
M  V30 10724 H 1011.18 -0.284635 3.79334 0
M  V30 10725 H 1012.49 -0.591654 4.95279 0
M  V30 10726 H 1011.65 -2.91876 5.31877 0
M  V30 10727 H 1010.39 -2.67636 4.07703 0
M  V30 10728 H 1009.39 -0.815605 5.43717 0
M  V30 10729 H 1010.62 -1.08123 6.70437 0
M  V30 10730 H 1008.56 -3.12137 5.7698 0
M  V30 10731 H 1008.48 -2.19724 7.23365 0
M  V30 10732 H 1009.75 -3.36875 7.02948 0
M  V30 10733 N 1013.98 -1.5736 0.0868897 0
M  V30 10734 C 1015.2 -1.98809 -0.590757 0
M  V30 10735 C 1015.63 -0.965407 -1.61436 0
M  V30 10736 O 1014.98 0.067143 -1.81176 0
M  V30 10737 C 1015.03 -3.39249 -1.22238 0
M  V30 10738 O 1014.14 -3.39706 -2.33824 0
M  V30 10739 H 1013.48 -0.64669 -0.150626 0
M  V30 10740 H 1016.01 -2.03927 0.165873 0
M  V30 10741 H 1016.02 -3.76765 -1.56564 0
M  V30 10742 H 1014.69 -4.13208 -0.472434 0
M  V30 10743 H 1013.27 -3.13977 -2.01178 0
M  V30 10744 N 1015.45 0.186762 -1.56489 0
M  V30 10745 C 1016.38 1.23395 -1.98232 0
M  V30 10746 C 1017.37 1.4702 -0.855526 0
M  V30 10747 O 1018.55 1.58616 -1.12048 0
M  V30 10748 C 1015.68 2.57635 -2.32898 0
M  V30 10749 C 1014.63 2.48607 -3.48394 0
M  V30 10750 C 1013.96 3.87196 -3.68759 0
M  V30 10751 C 1015.26 2.00398 -4.82325 0
M  V30 10752 H 1016.95 0.887026 -2.85958 0
M  V30 10753 H 1014.5 0.42525 -1.37578 0
M  V30 10754 H 1016.45 3.31082 -2.60696 0
M  V30 10755 H 1015.18 2.94084 -1.42064 0
M  V30 10756 H 1013.84 1.77615 -3.207 0
M  V30 10757 H 1013.48 4.21012 -2.75241 0
M  V30 10758 H 1013.18 3.82029 -4.46462 0
M  V30 10759 H 1014.71 4.62253 -3.98941 0
M  V30 10760 H 1016.12 2.6361 -5.091 0
M  V30 10761 H 1014.52 2.06214 -5.63556 0
M  V30 10762 H 1015.59 0.957562 -4.75351 0
M  V30 10763 N 1016.93 1.50896 0.454776 0
M  V30 10764 C 1017.88 1.70947 1.55067 0
M  V30 10765 C 1018.85 0.550899 1.56698 0
M  V30 10766 O 1020.03 0.783352 1.73978 0
M  V30 10767 C 1017.17 1.82455 2.92924 0
M  V30 10768 C 1016.29 3.09919 3.00956 0
M  V30 10769 C 1015.42 3.12125 4.29827 0
M  V30 10770 C 1014.46 4.33975 4.31662 0
M  V30 10771 N 1013.6 4.33828 5.5203 0
M  V30 10772 H 1018.44 2.645 1.37273 0
M  V30 10773 H 1015.98 1.31101 0.667148 0
M  V30 10774 H 1017.93 1.87108 3.72889 0
M  V30 10775 H 1016.56 0.92327 3.09315 0
M  V30 10776 H 1015.62 3.14659 2.13761 0
M  V30 10777 H 1016.93 3.99869 2.98172 0
M  V30 10778 H 1016.08 3.15598 5.18154 0
M  V30 10779 H 1014.82 2.20033 4.35243 0
M  V30 10780 H 1013.83 4.30697 3.41731 0
M  V30 10781 H 1015.05 5.27312 4.27924 0
M  V30 10782 H 1013 3.44598 5.58201 0
M  V30 10783 H 1012.91 5.17566 5.51055 0
M  V30 10784 H 1014.18 4.4147 6.42437 0
M  V30 10785 N 1018.41 -0.709066 1.40748 0
M  V30 10786 C 1019.32 -1.85314 1.43861 0
M  V30 10787 C 1020.34 -1.70832 0.330539 0
M  V30 10788 O 1021.51 -1.92983 0.576152 0
M  V30 10789 C 1018.58 -3.21174 1.30568 0
M  V30 10790 C 1017.64 -3.47863 2.51574 0
M  V30 10791 C 1016.87 -4.77241 2.38906 0
M  V30 10792 O 1017.09 -5.52791 1.40636 0
M  V30 10793 O 1016.03 -5.04413 3.28407 0
M  V30 10794 H 1019.85 -1.85644 2.40354 0
M  V30 10795 H 1017.44 -0.860352 1.2214 0
M  V30 10796 H 1019.32 -4.02313 1.25388 0
M  V30 10797 H 1018 -3.21557 0.371841 0
M  V30 10798 H 1016.9 -2.66708 2.62331 0
M  V30 10799 H 1018.24 -3.52283 3.43741 0
M  V30 10800 N 1019.89 -1.26353 -0.941956 0
M  V30 10801 C 1021.14 -1.1163 -1.68473 0
M  V30 10802 C 1021.46 0.34108 -1.91994 0
M  V30 10803 O 1020.73 1.24065 -1.51607 0
M  V30 10804 H 1019.31 -0.410113 -0.624353 0
M  V30 10805 H 1021.97 -1.58669 -1.13182 0
M  V30 10806 H 1021.07 -1.63445 -2.6588 0
M  V30 10807 N 1021.37 1.14642 -1.08144 0
M  V30 10808 C 1022.59 1.90025 -0.830972 0
M  V30 10809 C 1023.02 1.77904 0.610879 0
M  V30 10810 O 1022.38 1.11735 1.42776 0
M  V30 10811 C 1022.42 3.38085 -1.25422 0
M  V30 10812 O 1021.53 4.10412 -0.404486 0
M  V30 10813 H 1020.87 0.591327 -0.302041 0
M  V30 10814 H 1023.4 1.4513 -1.44216 0
M  V30 10815 H 1023.41 3.88894 -1.23391 0
M  V30 10816 H 1022.08 3.46226 -2.30435 0
M  V30 10817 H 1020.66 3.69693 -0.487987 0
M  V30 10818 N 1022.85 0.866709 1.31628 0
M  V30 10819 C 1024.09 0.472185 1.96095 0
M  V30 10820 C 1024.41 -0.979873 1.69286 0
M  V30 10821 O 1025.61 -1.48039 2.27589 0
M  V30 10822 C 1024.07 0.793468 3.51044 0
M  V30 10823 C 1023.68 2.26206 3.86697 0
M  V30 10824 C 1025.42 0.467255 4.21921 0
M  V30 10825 C 1023.33 2.52593 5.34743 0
M  V30 10826 H 1022.26 0.172846 0.733921 0
M  V30 10827 H 1024.91 1.05916 1.49847 0
M  V30 10828 H 1023.29 0.135783 3.95767 0
M  V30 10829 H 1024.47 2.96254 3.52945 0
M  V30 10830 H 1022.78 2.55399 3.28877 0
M  V30 10831 H 1025.38 0.641669 5.30836 0
M  V30 10832 H 1025.72 -0.592065 4.12068 0
M  V30 10833 H 1026.25 1.08134 3.82821 0
M  V30 10834 H 1022.99 3.57196 5.49628 0
M  V30 10835 H 1022.51 1.87136 5.6986 0
M  V30 10836 H 1024.19 2.37156 6.01968 0
M  V30 10837 N 1024.32 -1.44642 0.625825 0
M  V30 10838 C 1025.74 -1.56925 0.290992 0
M  V30 10839 C 1025.94 -1.61424 -1.20601 0
M  V30 10840 O 1025 -1.55439 -1.98985 0
M  V30 10841 C 1026.31 -2.84343 0.978242 0
M  V30 10842 C 1027.86 -2.98047 0.955882 0
M  V30 10843 C 1028.33 -4.2826 1.62349 0
M  V30 10844 N 1029.82 -4.35062 1.58983 0
M  V30 10845 C 1030.56 -5.34524 2.07538 0
M  V30 10846 N 1030.05 -6.4042 2.6426 0
M  V30 10847 N 1031.85 -5.25998 1.98198 0
M  V30 10848 H 1024 -1.39965 1.59761 0
M  V30 10849 H 1026.26 -0.670368 0.670306 0
M  V30 10850 H 1025.97 -2.86985 2.03304 0
M  V30 10851 H 1025.84 -3.73699 0.512726 0
M  V30 10852 H 1028.23 -2.94961 -0.0904292 0
M  V30 10853 H 1028.31 -2.10053 1.45984 0
M  V30 10854 H 1027.95 -4.32105 2.66923 0
M  V30 10855 H 1027.88 -5.15102 1.09441 0
M  V30 10856 H 1030.37 -3.59147 1.17565 0
M  V30 10857 H 1030.69 -7.1259 2.99056 0
M  V30 10858 H 1029.03 -6.41121 2.68308 0
M  V30 10859 H 1032.22 -4.42178 1.5361 0
M  V30 10860 H 1032.4 -6.03359 2.3635 0
M  V30 10861 N 1025.8 -0.366053 -1.5329 0
M  V30 10862 C 1027.05 0.223493 -2.01263 0
M  V30 10863 C 1027.38 1.48736 -1.25331 0
M  V30 10864 O 1026.63 1.92805 -0.335341 0
M  V30 10865 C 1026.93 0.560906 -3.52971 0
M  V30 10866 C 1026.6 -0.60869 -4.46773 0
M  V30 10867 C 1025.26 -0.929609 -4.72135 0
M  V30 10868 C 1027.61 -1.39225 -5.02261 0
M  V30 10869 C 1024.94 -2.03606 -5.50238 0
M  V30 10870 C 1027.29 -2.48912 -5.81572 0
M  V30 10871 C 1025.95 -2.81538 -6.05221 0
M  V30 10872 H 1025.22 0.0817818 -0.736473 0
M  V30 10873 H 1027.87 -0.498613 -1.84895 0
M  V30 10874 H 1026.18 1.36403 -3.67289 0
M  V30 10875 H 1027.87 1.02931 -3.87564 0
M  V30 10876 H 1024.46 -0.348529 -4.27181 0
M  V30 10877 H 1028.65 -1.15757 -4.82612 0
M  V30 10878 H 1023.9 -2.29281 -5.6678 0
M  V30 10879 H 1028.08 -3.10044 -6.23575 0
M  V30 10880 H 1025.7 -3.67396 -6.65525 0
M  V30 10881 N 1027.28 1.57312 -0.0952337 0
M  V30 10882 C 1028.24 2.12889 0.849161 0
M  V30 10883 C 1029.24 1.05819 1.21075 0
M  V30 10884 O 1030.43 1.31704 1.14016 0
M  V30 10885 C 1027.56 2.6496 2.14498 0
M  V30 10886 H 1028.76 2.97651 0.366566 0
M  V30 10887 H 1026.31 1.55542 0.153762 0
M  V30 10888 H 1027.05 1.83718 2.67242 0
M  V30 10889 H 1026.83 3.43244 1.89542 0
M  V30 10890 H 1028.32 3.07952 2.82056 0
M  V30 10891 N 1028.76 -0.17846 1.56586 0
M  V30 10892 C 1029.72 -1.20479 1.94981 0
M  V30 10893 C 1030.72 -1.37561 0.832677 0
M  V30 10894 O 1031.91 -1.35089 1.09984 0
M  V30 10895 C 1029.04 -2.57117 2.23839 0
M  V30 10896 H 1030.24 -0.876173 2.86816 0
M  V30 10897 H 1027.79 -0.420635 1.50534 0
M  V30 10898 H 1028.52 -2.95005 1.34695 0
M  V30 10899 H 1028.31 -2.46086 3.05261 0
M  V30 10900 H 1029.8 -3.31096 2.5449 0
M  V30 10901 N 1030.24 -1.51135 -0.446768 0
M  V30 10902 C 1031.15 -1.74595 -1.56696 0
M  V30 10903 C 1032.16 -0.629816 -1.62201 0
M  V30 10904 O 1033.34 -0.910987 -1.79619 0
M  V30 10905 C 1030.4 -1.85738 -2.9275 0
M  V30 10906 C 1029.46 -3.09564 -2.97437 0
M  V30 10907 C 1028.7 -3.20165 -4.27001 0
M  V30 10908 O 1028.92 -2.36939 -5.1886 0
M  V30 10909 O 1027.85 -4.13077 -4.3778 0
M  V30 10910 H 1031.68 -2.69601 -1.39817 0
M  V30 10911 H 1029.26 -1.35523 -0.628805 0
M  V30 10912 H 1031.15 -1.95107 -3.73512 0
M  V30 10913 H 1029.82 -0.939184 -3.09776 0
M  V30 10914 H 1028.73 -3.05679 -2.15664 0
M  V30 10915 H 1030.06 -4.01041 -2.85353 0
M  V30 10916 N 1031.71 0.701592 -1.41122 0
M  V30 10917 C 1032.65 1.8268 -1.38422 0
M  V30 10918 C 1033.66 1.60244 -0.287342 0
M  V30 10919 O 1034.85 1.69859 -0.548658 0
M  V30 10920 C 1031.95 3.19338 -1.13475 0
M  V30 10921 C 1031.12 3.68853 -2.35088 0
M  V30 10922 C 1030.18 4.84163 -2.06089 0
M  V30 10923 O 1029.21 4.9609 -2.79077 0
M  V30 10924 N 1030.41 5.70972 -1.04743 0
M  V30 10925 H 1033.17 1.8549 -2.35401 0
M  V30 10926 H 1030.73 0.883682 -1.35656 0
M  V30 10927 H 1032.73 3.94095 -0.920377 0
M  V30 10928 H 1031.3 3.11589 -0.251152 0
M  V30 10929 H 1030.52 2.8507 -2.72266 0
M  V30 10930 H 1031.8 3.98673 -3.16129 0
M  V30 10931 H 1031.2 5.63961 -0.443221 0
M  V30 10932 H 1029.76 6.45654 -0.892949 0
M  V30 10933 N 1033.19 1.2685 0.935242 0
M  V30 10934 C 1034.6 1.11569 1.49697 0
M  V30 10935 C 1034.95 -0.301952 1.93863 0
M  V30 10936 O 1034.08 -1.19408 1.80473 0
M  V30 10937 C 1034.67 2.01918 2.72056 0
M  V30 10938 C 1033.23 1.90765 3.24477 0
M  V30 10939 C 1032.38 1.94918 1.97237 0
M  V30 10940 H 1035.33 1.39853 0.750116 0
M  V30 10941 H 1035.35 1.57056 3.46574 0
M  V30 10942 H 1034.86 3.05088 2.39881 0
M  V30 10943 H 1032.96 0.905521 3.61429 0
M  V30 10944 H 1033.08 2.76611 3.91182 0
M  V30 10945 H 1031.44 1.39046 2.13397 0
M  V30 10946 H 1032.22 2.99729 1.67385 0
M  V30 10947 N 1034.67 -1.14067 1.0875 0
M  V30 10948 C 1035.58 -2.22871 0.732498 0
M  V30 10949 C 1036.6 -1.72008 -0.26253 0
M  V30 10950 O 1037.77 -2.01123 -0.105601 0
M  V30 10951 C 1034.84 -3.46371 0.150913 0
M  V30 10952 C 1033.9 -4.12158 1.201 0
M  V30 10953 C 1033.13 -5.29763 0.647075 0
M  V30 10954 O 1033.35 -5.67911 -0.532307 0
M  V30 10955 O 1032.29 -5.8542 1.3988 0
M  V30 10956 H 1036.11 -2.55596 1.64025 0
M  V30 10957 H 1033.7 -1.22065 0.861417 0
M  V30 10958 H 1035.58 -4.21055 -0.170442 0
M  V30 10959 H 1034.26 -3.15362 -0.729948 0
M  V30 10960 H 1033.16 -3.39332 1.57494 0
M  V30 10961 H 1034.5 -4.47282 2.05426 0
M  V30 10962 N 1036.15 -0.873678 -1.31166 0
M  V30 10963 C 1037.1 -0.321349 -2.3037 0
M  V30 10964 C 1038.09 0.565568 -1.5968 0
M  V30 10965 O 1039.3 0.451257 -1.74252 0
M  V30 10966 H 1035.67 -0.0852425 -0.747153 0
M  V30 10967 H 1037.64 -1.17191 -2.74425 0
M  V30 10968 C 1036.39 0.459016 -3.44657 0
M  V30 10969 H 1035.71 -0.214185 -3.99226 0
M  V30 10970 H 1037.15 0.810758 -4.16176 0
M  V30 10971 C 1035.61 1.65173 -2.93632 0
M  V30 10972 O 1036.14 2.75105 -2.92711 0
M  V30 10973 N 1034.35 1.4851 -2.49786 0
M  V30 10974 H 1033.9 0.590785 -2.50734 0
M  V30 10975 H 1033.85 2.28452 -2.16002 0
M  V30 10976 N 1037.63 1.44308 -0.633487 0
M  V30 10977 C 1038.87 2.01624 -0.138643 0
M  V30 10978 C 1039.2 1.50101 1.24477 0
M  V30 10979 O 1038.47 0.705575 1.82752 0
M  V30 10980 H 1037.05 0.745439 -0.0482636 0
M  V30 10981 H 1039.71 1.76777 -0.820719 0
M  V30 10982 H 1038.8 3.11913 -0.108136 0
M  V30 10983 N 1039.1 0.374177 1.53094 0
M  V30 10984 C 1040.05 -0.468226 2.26001 0
M  V30 10985 C 1041.02 -1.07041 1.27009 0
M  V30 10986 O 1042.21 -1.10129 1.55809 0
M  V30 10987 C 1039.35 -1.59754 3.05896 0
M  V30 10988 C 1038.46 -1.01969 4.19793 0
M  V30 10989 C 1037.59 -2.11882 4.87113 0
M  V30 10990 C 1036.63 -1.51607 5.93028 0
M  V30 10991 N 1035.77 -2.55388 6.54004 0
M  V30 10992 H 1040.61 0.159983 2.9757 0
M  V30 10993 H 1038.15 0.0907196 1.4682 0
M  V30 10994 H 1040.11 -2.26288 3.50499 0
M  V30 10995 H 1038.74 -2.19628 2.36565 0
M  V30 10996 H 1037.79 -0.244386 3.79614 0
M  V30 10997 H 1039.1 -0.539089 4.95878 0
M  V30 10998 H 1038.25 -2.86218 5.34943 0
M  V30 10999 H 1036.99 -2.63297 4.10519 0
M  V30 11000 H 1036 -0.757891 5.44551 0
M  V30 11001 H 1037.22 -1.01006 6.71546 0
M  V30 11002 H 1035.17 -3.06 5.80258 0
M  V30 11003 H 1035.09 -2.12039 7.25655 0
M  V30 11004 H 1036.35 -3.294 7.06481 0
M  V30 11005 N 1040.58 -1.57259 0.103575 0
M  V30 11006 C 1041.53 -2.15727 -0.869739 0
M  V30 11007 C 1042.52 -1.10236 -1.28625 0
M  V30 11008 O 1043.73 -1.28567 -1.25979 0
M  V30 11009 H 1040.11 -0.690204 -0.298535 0
M  V30 11010 H 1042.08 -2.96317 -0.351984 0
M  V30 11011 C 1040.83 -2.75905 -2.11593 0
M  V30 11012 H 1040.15 -3.56768 -1.80434 0
M  V30 11013 H 1041.59 -3.20373 -2.77736 0
M  V30 11014 C 1040.05 -1.72218 -2.89556 0
M  V30 11015 O 1040.58 -1.16623 -3.84398 0
M  V30 11016 N 1038.78 -1.42514 -2.53255 0
M  V30 11017 H 1038.33 -1.87914 -1.76198 0
M  V30 11018 H 1038.29 -0.733782 -3.05717 0
M  V30 11019 N 1042.06 0.170153 -1.56679 0
M  V30 11020 C 1043.01 1.21531 -1.9291 0
M  V30 11021 C 1043.99 1.39742 -0.797553 0
M  V30 11022 O 1045.19 1.41693 -1.06075 0
M  V30 11023 C 1042.32 2.55447 -2.29351 0
M  V30 11024 C 1041.4 2.40925 -3.49022 0
M  V30 11025 N 1041.79 1.96118 -4.66231 0
M  V30 11026 C 1040.09 2.71747 -3.53652 0
M  V30 11027 C 1040.79 1.94086 -5.48366 0
M  V30 11028 N 1039.77 2.36533 -4.89441 0
M  V30 11029 H 1043.57 0.860602 -2.81018 0
M  V30 11030 H 1041.08 0.378415 -1.5793 0
M  V30 11031 H 1043.08 3.30972 -2.53502 0
M  V30 11032 H 1041.74 2.9172 -1.42583 0
M  V30 11033 H 1042.75 1.66438 -4.90427 0
M  V30 11034 H 1039.43 3.1205 -2.77365 0
M  V30 11035 H 1040.82 1.61132 -6.52293 0
M  V30 11036 N 1043.54 1.5137 0.438746 0
M  V30 11037 C 1044.95 1.56462 1.01866 0
M  V30 11038 C 1045.3 0.387244 1.9234 0
M  V30 11039 O 1044.43 -0.496131 2.10636 0
M  V30 11040 C 1045.02 2.83557 1.85421 0
M  V30 11041 C 1043.58 2.91224 2.38464 0
M  V30 11042 C 1042.73 2.51109 1.17641 0
M  V30 11043 H 1045.68 1.57167 0.220072 0
M  V30 11044 H 1045.7 2.6724 2.70857 0
M  V30 11045 H 1045.21 3.69229 1.19546 0
M  V30 11046 H 1043.31 2.09979 3.07798 0
M  V30 11047 H 1043.42 3.94844 2.71358 0
M  V30 11048 H 1041.79 2.04276 1.5213 0
M  V30 11049 H 1042.57 3.39125 0.533785 0
M  V30 11050 N 1045.02 -0.694098 1.41492 0
M  V30 11051 C 1046.43 -1.00487 1.23994 0
M  V30 11052 C 1046.63 -2.01078 0.130346 0
M  V30 11053 O 1045.69 -2.47403 -0.504775 0
M  V30 11054 C 1047 -1.52808 2.58979 0
M  V30 11055 C 1048.55 -1.64684 2.66173 0
M  V30 11056 C 1049.02 -2.20406 4.01479 0
M  V30 11057 N 1050.52 -2.27765 4.03333 0
M  V30 11058 C 1051.25 -2.7191 5.04829 0
M  V30 11059 N 1050.75 -3.1565 6.16714 0
M  V30 11060 N 1052.54 -2.71487 4.9219 0
M  V30 11061 H 1044.69 -0.027746 2.12382 0
M  V30 11062 H 1046.95 -0.0748741 0.945039 0
M  V30 11063 H 1046.66 -0.863519 3.40934 0
M  V30 11064 H 1046.53 -2.50998 2.81566 0
M  V30 11065 H 1048.92 -2.30251 1.84576 0
M  V30 11066 H 1049 -0.65035 2.47395 0
M  V30 11067 H 1048.65 -1.55454 4.83525 0
M  V30 11068 H 1048.58 -3.2081 4.17599 0
M  V30 11069 H 1051.07 -1.96899 3.22551 0
M  V30 11070 H 1051.38 -3.47966 6.90029 0
M  V30 11071 H 1049.72 -3.13555 6.20248 0
M  V30 11072 H 1052.92 -2.36666 4.03865 0
M  V30 11073 H 1053.09 -3.05573 5.71427 0
M  V30 11074 N 1046.49 -1.27344 -0.928501 0
M  V30 11075 C 1047.44 -1.09835 -2.05034 0
M  V30 11076 C 1048.44 -0.0216643 -1.69386 0
M  V30 11077 O 1049.64 -0.179323 -1.79105 0
M  V30 11078 H 1046.02 -0.338416 -0.671549 0
M  V30 11079 H 1047.99 -2.04879 -2.1695 0
M  V30 11080 C 1046.74 -0.761462 -3.3926 0
M  V30 11081 H 1046.06 -1.58186 -3.67175 0
M  V30 11082 H 1047.5 -0.678812 -4.18531 0
M  V30 11083 C 1045.96 0.534118 -3.32639 0
M  V30 11084 O 1046.49 1.56877 -3.69801 0
M  V30 11085 N 1044.7 0.529437 -2.85736 0
M  V30 11086 H 1044.24 -0.312954 -2.55692 0
M  V30 11087 H 1044.2 1.39637 -2.81689 0
M  V30 11088 N 1047.97 1.13488 -1.09353 0
M  V30 11089 C 1048.9 2.20988 -0.75409 0
M  V30 11090 C 1049.88 1.67977 0.267901 0
M  V30 11091 O 1051.07 1.93722 0.136128 0
M  V30 11092 C 1048.2 3.46869 -0.173042 0
M  V30 11093 C 1047.15 4.12965 -1.12446 0
M  V30 11094 C 1046.48 5.33163 -0.405157 0
M  V30 11095 C 1047.78 4.60388 -2.46658 0
M  V30 11096 H 1049.47 2.49639 -1.6529 0
M  V30 11097 H 1047.02 1.19987 -0.796182 0
M  V30 11098 H 1048.97 4.21331 0.0764988 0
M  V30 11099 H 1047.7 3.17611 0.760956 0
M  V30 11100 H 1046.35 3.40469 -1.35927 0
M  V30 11101 H 1046 5.00169 0.532955 0
M  V30 11102 H 1045.7 5.78332 -1.03952 0
M  V30 11103 H 1047.23 6.1038 -0.163899 0
M  V30 11104 H 1048.64 5.26276 -2.27389 0
M  V30 11105 H 1047.04 5.16294 -3.05876 0
M  V30 11106 H 1048.11 3.74949 -3.07476 0
M  V30 11107 N 1049.45 0.880621 1.30701 0
M  V30 11108 C 1050.7 0.496875 1.96309 0
M  V30 11109 C 1051.03 -0.953064 1.69549 0
M  V30 11110 O 1050.28 -1.68782 0.990507 0
M  V30 11111 C 1050.58 0.713203 3.50212 0
M  V30 11112 C 1050.25 2.13756 3.97013 0
M  V30 11113 C 1048.91 2.52706 4.09503 0
M  V30 11114 C 1051.26 3.066 4.21481 0
M  V30 11115 C 1048.59 3.8372 4.43819 0
M  V30 11116 C 1050.94 4.3714 4.57265 0
M  V30 11117 C 1049.6 4.7599 4.67963 0
M  V30 11118 H 1048.87 0.18182 0.718347 0
M  V30 11119 H 1051.52 1.11564 1.55646 0
M  V30 11120 H 1049.83 0.0113694 3.91798 0
M  V30 11121 H 1051.52 0.39595 3.9904 0
M  V30 11122 H 1048.11 1.8252 3.87794 0
M  V30 11123 H 1052.3 2.77729 4.11315 0
M  V30 11124 H 1047.55 4.13568 4.50301 0
M  V30 11125 H 1051.73 5.09123 4.75149 0
M  V30 11126 H 1049.35 5.77549 4.94309 0
M  V30 11127 N 1050.93 -1.4397 0.641131 0
M  V30 11128 C 1052.18 -2.01163 0.147026 0
M  V30 11129 C 1052.49 -1.51099 -1.24211 0
M  V30 11130 O 1053.7 -2.00487 -1.83078 0
M  V30 11131 C 1052.15 -3.59275 0.212068 0
M  V30 11132 C 1051.76 -4.18334 1.60314 0
M  V30 11133 C 1053.51 -4.23903 -0.225057 0
M  V30 11134 C 1051.41 -5.68701 1.62276 0
M  V30 11135 H 1050.34 -0.75226 0.051201 0
M  V30 11136 H 1052.99 -1.65075 0.801396 0
M  V30 11137 H 1051.38 -3.92708 -0.509589 0
M  V30 11138 H 1052.55 -3.96422 2.34918 0
M  V30 11139 H 1050.86 -3.66031 1.9852 0
M  V30 11140 H 1053.46 -5.34205 -0.230074 0
M  V30 11141 H 1053.8 -3.96956 -1.25426 0
M  V30 11142 H 1054.34 -3.95309 0.44444 0
M  V30 11143 H 1051.08 -6.00397 2.63066 0
M  V30 11144 H 1050.6 -5.92705 0.919797 0
M  V30 11145 H 1052.28 -6.32521 1.36112 0
M  V30 11146 N 1052.41 -0.382291 -1.52893 0
M  V30 11147 C 1053.65 0.194935 -2.02464 0
M  V30 11148 C 1054.01 1.45051 -1.26404 0
M  V30 11149 O 1053.3 1.88302 -0.353968 0
M  V30 11150 C 1053.5 0.523437 -3.53546 0
M  V30 11151 C 1053.32 -0.698754 -4.44238 0
M  V30 11152 C 1052.09 -1.2159 -4.90453 0
M  V30 11153 C 1054.29 -1.56899 -4.89783 0
M  V30 11154 N 1052.27 -2.39637 -5.65197 0
M  V30 11155 C 1053.65 -2.59595 -5.63037 0
M  V30 11156 C 1055.7 -1.58991 -4.71833 0
M  V30 11157 C 1054.4 -3.6426 -6.20248 0
M  V30 11158 C 1056.43 -2.62559 -5.29922 0
M  V30 11159 C 1055.79 -3.63977 -6.03076 0
M  V30 11160 H 1051.89 0.0336043 -0.781278 0
M  V30 11161 H 1054.47 -0.530603 -1.8733 0
M  V30 11162 H 1052.65 1.21804 -3.68807 0
M  V30 11163 H 1054.38 1.0872 -3.89823 0
M  V30 11164 H 1051.13 -0.777967 -4.67167 0
M  V30 11165 H 1051.56 -2.99348 -6.07223 0
M  V30 11166 H 1056.2 -0.819305 -4.14786 0
M  V30 11167 H 1053.92 -4.42192 -6.76382 0
M  V30 11168 H 1057.5 -2.65052 -5.17918 0
M  V30 11169 H 1056.38 -4.42802 -6.47222 0
M  V30 11170 N 1053.89 1.57202 -0.111913 0
M  V30 11171 C 1055.3 1.57713 0.244702 0
M  V30 11172 C 1055.5 1.12419 1.67225 0
M  V30 11173 O 1054.56 0.808329 2.39212 0
M  V30 11174 C 1055.87 3.00695 0.0178289 0
M  V30 11175 C 1057.42 3.12887 0.0842781 0
M  V30 11176 C 1057.89 4.57856 -0.114812 0
M  V30 11177 N 1059.38 4.6316 -0.0605423 0
M  V30 11178 C 1060.12 5.73086 -0.189594 0
M  V30 11179 N 1059.62 6.91787 -0.37442 0
M  V30 11180 N 1061.41 5.6195 -0.12967 0
M  V30 11181 H 1053.56 1.84947 -1.04443 0
M  V30 11182 H 1055.82 0.854418 -0.4107 0
M  V30 11183 H 1055.53 3.38093 -0.968802 0
M  V30 11184 H 1055.4 3.69611 0.752815 0
M  V30 11185 H 1057.79 2.7535 1.06143 0
M  V30 11186 H 1057.87 2.46528 -0.682474 0
M  V30 11187 H 1057.51 4.9609 -1.0889 0
M  V30 11188 H 1057.44 5.22297 0.671839 0
M  V30 11189 H 1059.94 3.77817 0.0790856 0
M  V30 11190 H 1060.25 7.71406 -0.463948 0
M  V30 11191 H 1058.59 6.93788 -0.410303 0
M  V30 11192 H 1061.78 4.68098 0.0137115 0
M  V30 11193 H 1061.96 6.47578 -0.233688 0
M  V30 11194 N 1055.36 -0.161842 1.56767 0
M  V30 11195 C 1056.59 -0.896274 1.87034 0
M  V30 11196 C 1057.01 -1.74617 0.699314 0
M  V30 11197 O 1056.37 -1.77861 -0.351435 0
M  V30 11198 C 1056.42 -1.74105 3.15784 0
M  V30 11199 O 1055.52 -2.84372 2.98674 0
M  V30 11200 H 1054.86 -0.250523 0.614926 0
M  V30 11201 H 1057.39 -0.157127 2.03996 0
M  V30 11202 H 1057.4 -2.13907 3.4743 0
M  V30 11203 H 1056.08 -1.11684 4.00624 0
M  V30 11204 H 1054.66 -2.48084 2.78404 0
M  V30 11205 N 1056.84 -1.516 -0.430713 0
M  V30 11206 C 1057.79 -1.73975 -1.54387 0
M  V30 11207 C 1058.78 -0.606222 -1.58181 0
M  V30 11208 O 1059.99 -0.787764 -1.61846 0
M  V30 11209 H 1056.36 -0.549811 -0.513041 0
M  V30 11210 H 1058.34 -2.67274 -1.32692 0
M  V30 11211 C 1057.08 -1.88794 -2.9198 0
M  V30 11212 H 1056.41 -2.75425 -2.89795 0
M  V30 11213 H 1057.85 -2.08458 -3.69217 0
M  V30 11214 C 1056.31 -0.649427 -3.30581 0
M  V30 11215 O 1056.84 0.192823 -4.01237 0
M  V30 11216 N 1055.04 -0.491586 -2.86412 0
M  V30 11217 H 1054.59 -1.17806 -2.29084 0
M  V30 11218 H 1054.55 0.33583 -3.12601 0
M  V30 11219 N 1058.32 0.686584 -1.41858 0
M  V30 11220 C 1059.25 1.81264 -1.47193 0
M  V30 11221 C 1060.23 1.66875 -0.329657 0
M  V30 11222 O 1061.42 1.86473 -0.542347 0
M  V30 11223 C 1058.55 3.19472 -1.36216 0
M  V30 11224 C 1057.5 3.4858 -2.48347 0
M  V30 11225 C 1056.83 4.86239 -2.22432 0
M  V30 11226 C 1058.13 3.46653 -3.90678 0
M  V30 11227 H 1059.82 1.77057 -2.41436 0
M  V30 11228 H 1057.37 0.850415 -1.16206 0
M  V30 11229 H 1059.32 3.97969 -1.38558 0
M  V30 11230 H 1058.04 3.24327 -0.384611 0
M  V30 11231 H 1056.7 2.72437 -2.45303 0
M  V30 11232 H 1056.35 4.8773 -1.22999 0
M  V30 11233 H 1056.05 5.06677 -2.97577 0
M  V30 11234 H 1057.57 5.67034 -2.26505 0
M  V30 11235 H 1058.99 4.15139 -3.95389 0
M  V30 11236 H 1057.38 3.78625 -4.65578 0
M  V30 11237 H 1058.45 2.45451 -4.18189 0
M  V30 11238 N 1059.8 1.27835 0.921735 0
M  V30 11239 C 1060.73 1.136 2.04003 0
M  V30 11240 C 1061.71 0.0358756 1.70062 0
M  V30 11241 O 1062.89 0.211438 1.93046 0
M  V30 11242 C 1060.02 0.788697 3.38226 0
M  V30 11243 C 1058.98 1.84272 3.863 0
M  V30 11244 C 1058.3 1.34923 5.17397 0
M  V30 11245 C 1059.6 3.24788 4.09035 0
M  V30 11246 H 1061.3 2.07149 2.1617 0
M  V30 11247 H 1058.84 0.997349 1.0387 0
M  V30 11248 H 1060.8 0.675911 4.15944 0
M  V30 11249 H 1059.52 -0.182499 3.2609 0
M  V30 11250 H 1058.18 1.94451 3.1078 0
M  V30 11251 H 1057.83 0.367328 5.01657 0
M  V30 11252 H 1057.53 2.05397 5.50532 0
M  V30 11253 H 1059.05 1.24951 5.97678 0
M  V30 11254 H 1060.47 3.17575 4.77304 0
M  V30 11255 H 1058.86 3.93025 4.53488 0
M  V30 11256 H 1059.93 3.69398 3.14122 0
M  V30 11257 N 1061.28 -1.12907 1.09954 0
M  V30 11258 C 1062.52 -1.83941 0.837255 0
M  V30 11259 C 1062.84 -1.84234 -0.638984 0
M  V30 11260 O 1062.11 -1.30193 -1.46378 0
M  V30 11261 H 1060.69 -0.681115 0.306743 0
M  V30 11262 H 1063.36 -1.36743 1.38879 0
M  V30 11263 H 1062.45 -2.88289 1.19565 0
M  V30 11264 N 1062.75 -0.88754 -1.30232 0
M  V30 11265 C 1063.98 -0.521562 -2.00735 0
M  V30 11266 C 1064.4 0.883247 -1.66073 0
M  V30 11267 O 1063.76 1.58581 -0.878731 0
M  V30 11268 C 1063.81 -0.706521 -3.53611 0
M  V30 11269 O 1062.91 0.246447 -4.11663 0
M  V30 11270 H 1062.25 -0.205216 -0.631492 0
M  V30 11271 H 1064.78 -1.19579 -1.66018 0
M  V30 11272 H 1064.79 -0.606501 -4.03467 0
M  V30 11273 H 1063.47 -1.73076 -3.78177 0
M  V30 11274 H 1062.05 0.0999062 -3.72766 0
M  V30 11275 N 1064.23 1.43628 -0.648757 0
M  V30 11276 C 1065.46 2.06732 -0.166284 0
M  V30 11277 C 1065.88 1.48281 1.15734 0
M  V30 11278 O 1065.24 0.591018 1.71396 0
M  V30 11279 C 1065.29 3.60502 -0.0838732 0
M  V30 11280 O 1064.39 4.01186 0.955185 0
M  V30 11281 H 1063.73 0.657479 -0.0928285 0
M  V30 11282 H 1066.26 1.84208 -0.890421 0
M  V30 11283 H 1066.27 4.07875 0.100923 0
M  V30 11284 H 1064.95 4.02424 -1.05014 0
M  V30 11285 H 1063.53 3.65412 0.743537 0
M  V30 11286 N 1065.71 0.390394 1.52688 0
M  V30 11287 C 1066.96 -0.191067 2.01195 0
M  V30 11288 C 1067.28 -1.47229 1.27862 0
M  V30 11289 O 1066.55 -1.91793 0.399007 0
M  V30 11290 H 1065.13 -0.073596 0.743366 0
M  V30 11291 H 1067.79 0.522334 1.8777 0
M  V30 11292 H 1066.89 -0.40051 3.0952 0
M  V30 11293 N 1067.19 -1.57141 0.120249 0
M  V30 11294 C 1068.14 -2.15379 -0.829497 0
M  V30 11295 C 1069.11 -1.07913 -1.2627 0
M  V30 11296 O 1070.29 -1.35827 -1.33999 0
M  V30 11297 C 1067.43 -2.75847 -2.0737 0
M  V30 11298 C 1066.54 -3.97624 -1.68875 0
M  V30 11299 C 1065.68 -4.46175 -2.88272 0
M  V30 11300 C 1064.72 -5.60481 -2.46023 0
M  V30 11301 N 1063.85 -6.0377 -3.58337 0
M  V30 11302 H 1068.69 -2.96211 -0.326031 0
M  V30 11303 H 1066.23 -1.46341 -0.149235 0
M  V30 11304 H 1068.19 -3.09037 -2.80272 0
M  V30 11305 H 1066.82 -1.97703 -2.55174 0
M  V30 11306 H 1065.87 -3.70588 -0.858431 0
M  V30 11307 H 1067.18 -4.80512 -1.33827 0
M  V30 11308 H 1066.34 -4.8128 -3.69397 0
M  V30 11309 H 1065.08 -3.6224 -3.26548 0
M  V30 11310 H 1064.08 -5.24979 -1.63331 0
M  V30 11311 H 1065.31 -6.46184 -2.08863 0
M  V30 11312 H 1063.25 -5.22776 -3.96284 0
M  V30 11313 H 1063.17 -6.81517 -3.27217 0
M  V30 11314 H 1064.44 -6.43514 -4.39898 0
M  V30 11315 N 1068.67 0.153526 -1.5685 0
M  V30 11316 C 1069.91 0.865519 -1.82629 0
M  V30 11317 C 1070.24 1.81999 -0.700105 0
M  V30 11318 O 1069.51 1.93907 0.278744 0
M  V30 11319 H 1068.09 0.32261 -0.673745 0
M  V30 11320 H 1070.75 0.149088 -1.94329 0
M  V30 11321 H 1069.84 1.43171 -2.77324 0
M  V30 11322 N 1070.14 1.51827 0.422667 0
M  V30 11323 C 1071.09 1.7058 1.51282 0
M  V30 11324 C 1072.08 0.5597 1.50851 0
M  V30 11325 O 1073.27 0.816223 1.57057 0
M  V30 11326 C 1070.4 1.84759 2.89342 0
M  V30 11327 C 1069.49 3.05199 2.94473 0
M  V30 11328 N 1069.88 4.28135 2.69322 0
M  V30 11329 C 1068.17 3.04755 3.25638 0
M  V30 11330 C 1068.88 5.09507 2.80674 0
M  V30 11331 N 1067.85 4.44464 3.12974 0
M  V30 11332 H 1071.65 2.63283 1.30611 0
M  V30 11333 H 1069.17 1.49674 0.630191 0
M  V30 11334 H 1071.16 1.96308 3.67789 0
M  V30 11335 H 1069.82 0.932478 3.11022 0
M  V30 11336 H 1070.84 4.56835 2.43972 0
M  V30 11337 H 1067.51 2.2293 3.52999 0
M  V30 11338 H 1068.9 6.17409 2.65058 0
M  V30 11339 N 1071.62 -0.679052 1.4222 0
M  V30 11340 C 1072.53 -1.82221 1.47759 0
M  V30 11341 C 1073.55 -1.70092 0.3667 0
M  V30 11342 O 1074.72 -1.91718 0.616957 0
M  V30 11343 C 1071.79 -3.18332 1.37351 0
M  V30 11344 C 1070.85 -3.42449 2.58896 0
M  V30 11345 C 1070.08 -4.72067 2.48976 0
M  V30 11346 O 1070.31 -5.49683 1.5233 0
M  V30 11347 O 1069.24 -4.97333 3.39033 0
M  V30 11348 H 1073.07 -1.80504 2.44238 0
M  V30 11349 H 1070.65 -0.834251 1.23938 0
M  V30 11350 H 1072.53 -3.99563 1.33893 0
M  V30 11351 H 1071.21 -3.20696 0.439965 0
M  V30 11352 H 1070.12 -2.61083 2.6793 0
M  V30 11353 H 1071.45 -3.44912 3.51136 0
M  V30 11354 N 1073.1 -1.28322 -0.914942 0
M  V30 11355 C 1074.35 -1.15407 -1.66396 0
M  V30 11356 C 1074.68 0.297587 -1.9221 0
M  V30 11357 O 1073.93 1.23299 -1.51973 0
M  V30 11358 C 1074.23 -1.89663 -3.02924 0
M  V30 11359 C 1073.9 -3.39464 -2.96774 0
M  V30 11360 C 1072.56 -3.80321 -2.94804 0
M  V30 11361 C 1074.91 -4.3499 -2.87111 0
M  V30 11362 C 1072.24 -5.15046 -2.8097 0
M  V30 11363 C 1074.59 -5.69788 -2.74818 0
M  V30 11364 C 1073.25 -6.09921 -2.71205 0
M  V30 11365 H 1072.52 -0.422303 -0.608885 0
M  V30 11366 H 1075.17 -1.59082 -1.06607 0
M  V30 11367 H 1073.48 -1.38533 -3.66491 0
M  V30 11368 H 1075.17 -1.77087 -3.59779 0
M  V30 11369 H 1071.76 -3.06979 -2.99101 0
M  V30 11370 H 1075.95 -4.04389 -2.87721 0
M  V30 11371 H 1071.2 -5.45271 -2.76568 0
M  V30 11372 H 1075.38 -6.43469 -2.66309 0
M  V30 11373 H 1073 -7.14267 -2.60243 0
M  V30 11374 N 1074.58 1.12322 -1.10551 0
M  V30 11375 C 1075.51 2.17221 -0.699299 0
M  V30 11376 C 1076.49 1.59809 0.299973 0
M  V30 11377 O 1077.67 1.87451 0.198589 0
M  V30 11378 C 1074.8 3.38685 -0.0320136 0
M  V30 11379 C 1073.85 4.14732 -0.99495 0
M  V30 11380 S 1074.68 4.72879 -2.51288 0
M  V30 11381 C 1075.84 5.97676 -1.85834 0
M  V30 11382 H 1076.07 2.51342 -1.5879 0
M  V30 11383 H 1073.6 1.23802 -0.92263 0
M  V30 11384 H 1075.56 4.09034 0.346656 0
M  V30 11385 H 1074.22 3.02842 0.833407 0
M  V30 11386 H 1073.41 5.01754 -0.475331 0
M  V30 11387 H 1073.02 3.50098 -1.31559 0
M  V30 11388 H 1075.31 6.6698 -1.18927 0
M  V30 11389 H 1076.25 6.54266 -2.70817 0
M  V30 11390 H 1076.66 5.48793 -1.32237 0
M  V30 11391 N 1076.06 0.894434 1.2976 0
M  V30 11392 C 1076.99 0.3847 2.30309 0
M  V30 11393 C 1077.97 -0.537486 1.61385 0
M  V30 11394 O 1079.15 -0.449332 1.8893 0
M  V30 11395 C 1076.28 -0.393311 3.45066 0
M  V30 11396 C 1075.24 0.437968 4.25753 0
M  V30 11397 C 1074.56 -0.467221 5.32655 0
M  V30 11398 C 1075.86 1.6851 4.9437 0
M  V30 11399 H 1077.56 1.22496 2.73194 0
M  V30 11400 H 1075.1 0.590471 1.31337 0
M  V30 11401 H 1077.06 -0.760614 4.14479 0
M  V30 11402 H 1075.78 -1.2673 3.0101 0
M  V30 11403 H 1074.44 0.787533 3.58041 0
M  V30 11404 H 1074.09 -1.33919 4.84845 0
M  V30 11405 H 1073.79 0.0852482 5.87538 0
M  V30 11406 H 1075.31 -0.830833 6.04921 0
M  V30 11407 H 1076.72 1.38784 5.56248 0
M  V30 11408 H 1075.12 2.17849 5.59162 0
M  V30 11409 H 1076.19 2.42412 4.19958 0
M  V30 11410 N 1077.53 -1.43282 0.656365 0
M  V30 11411 C 1078.48 -2.30776 -0.0333155 0
M  V30 11412 C 1079.45 -1.44928 -0.811493 0
M  V30 11413 O 1080.64 -1.73792 -0.787465 0
M  V30 11414 C 1077.78 -3.30548 -0.991566 0
M  V30 11415 C 1076.89 -4.31493 -0.209159 0
M  V30 11416 C 1076.02 -5.18346 -1.16149 0
M  V30 11417 C 1075.06 -6.10983 -0.369699 0
M  V30 11418 N 1074.2 -6.90449 -1.27378 0
M  V30 11419 H 1079.04 -2.89204 0.718668 0
M  V30 11420 H 1076.58 -1.4247 0.366161 0
M  V30 11421 H 1078.54 -3.86905 -1.56078 0
M  V30 11422 H 1077.17 -2.73762 -1.71039 0
M  V30 11423 H 1076.22 -3.77405 0.476394 0
M  V30 11424 H 1077.53 -4.97142 0.406394 0
M  V30 11425 H 1076.68 -5.79345 -1.80124 0
M  V30 11426 H 1075.42 -4.52831 -1.81095 0
M  V30 11427 H 1074.43 -5.49069 0.283377 0
M  V30 11428 H 1075.65 -6.78541 0.275399 0
M  V30 11429 H 1073.6 -6.27579 -1.90999 0
M  V30 11430 H 1073.52 -7.52631 -0.71287 0
M  V30 11431 H 1074.78 -7.5595 -1.90158 0
M  V30 11432 N 1079.01 -0.398486 -1.52479 0
M  V30 11433 C 1080.24 0.180295 -2.05812 0
M  V30 11434 C 1080.65 1.40301 -1.26934 0
M  V30 11435 O 1079.99 1.81039 -0.311544 0
M  V30 11436 C 1080.06 0.60601 -3.54355 0
M  V30 11437 C 1079.72 -0.504508 -4.54207 0
M  V30 11438 C 1080.72 -1.36478 -5.01667 0
M  V30 11439 C 1078.4 -0.674161 -4.97755 0
M  V30 11440 C 1080.4 -2.37975 -5.91309 0
M  V30 11441 C 1078.08 -1.69246 -5.87196 0
M  V30 11442 C 1079.08 -2.54367 -6.33866 0
M  V30 11443 O 1078.77 -3.54454 -7.21538 0
M  V30 11444 H 1078.5 0.0286396 -0.675393 0
M  V30 11445 H 1081.06 -0.564912 -1.97479 0
M  V30 11446 H 1079.29 1.40334 -3.60338 0
M  V30 11447 H 1080.97 1.1115 -3.90385 0
M  V30 11448 H 1081.74 -1.24506 -4.68746 0
M  V30 11449 H 1077.62 -0.0213029 -4.60995 0
M  V30 11450 H 1081.16 -3.0445 -6.27659 0
M  V30 11451 H 1077.06 -1.81252 -6.1953 0
M  V30 11452 H 1077.83 -3.50571 -7.39623 0
M  V30 11453 N 1080.49 1.57075 -0.12858 0
M  V30 11454 C 1081.42 2.18833 0.814519 0
M  V30 11455 C 1082.4 1.13114 1.2704 0
M  V30 11456 O 1083.59 1.41387 1.33129 0
M  V30 11457 C 1080.72 2.79535 2.06101 0
M  V30 11458 C 1079.67 3.9092 1.74257 0
M  V30 11459 C 1079 4.38473 3.06015 0
M  V30 11460 C 1080.3 5.1257 1.00345 0
M  V30 11461 H 1081.99 2.97895 0.299862 0
M  V30 11462 H 1079.54 1.4329 0.14279 0
M  V30 11463 H 1081.49 3.21401 2.72543 0
M  V30 11464 H 1080.21 1.97777 2.59907 0
M  V30 11465 H 1078.87 3.49645 1.102 0
M  V30 11466 H 1078.52 3.53561 3.57776 0
M  V30 11467 H 1078.22 5.13591 2.85479 0
M  V30 11468 H 1079.75 4.82997 3.7356 0
M  V30 11469 H 1081.16 5.51395 1.56959 0
M  V30 11470 H 1079.56 5.93333 0.898693 0
M  V30 11471 H 1080.63 4.84899 -0.0081335 0
M  V30 11472 N 1081.97 -0.145205 1.5693 0
M  V30 11473 C 1082.9 -1.18096 2.01434 0
M  V30 11474 C 1083.88 -1.447 0.894204 0
M  V30 11475 O 1085.07 -1.55589 1.16214 0
M  V30 11476 C 1082.2 -2.51369 2.39647 0
M  V30 11477 C 1081.15 -2.39283 3.54863 0
M  V30 11478 C 1080.48 -3.77283 3.78895 0
M  V30 11479 C 1081.78 -1.8754 4.87469 0
M  V30 11480 H 1083.47 -0.810897 2.8821 0
M  V30 11481 H 1081.02 -0.388624 1.38657 0
M  V30 11482 H 1082.97 -3.24054 2.69382 0
M  V30 11483 H 1081.69 -2.90214 1.49811 0
M  V30 11484 H 1080.35 -1.6905 3.25296 0
M  V30 11485 H 1080 -4.13567 2.86307 0
M  V30 11486 H 1079.7 -3.70057 4.56433 0
M  V30 11487 H 1081.22 -4.51514 4.11057 0
M  V30 11488 H 1082.64 -2.50019 5.1591 0
M  V30 11489 H 1081.03 -1.912 5.68826 0
M  V30 11490 H 1082.1 -0.831194 4.77723 0
M  V30 11491 N 1083.45 -1.52049 -0.414609 0
M  V30 11492 C 1084.7 -1.65511 -1.15977 0
M  V30 11493 C 1085.02 -0.384703 -1.91168 0
M  V30 11494 O 1084.29 0.600247 -1.86477 0
M  V30 11495 H 1082.87 -0.610039 -0.431116 0
M  V30 11496 H 1085.53 -1.8907 -0.473139 0
M  V30 11497 H 1084.62 -2.4936 -1.87686 0
M  V30 11498 N 1084.93 0.6715 -1.42579 0
M  V30 11499 C 1086.15 1.45972 -1.46628 0
M  V30 11500 C 1086.57 1.88636 -0.0785986 0
M  V30 11501 O 1085.93 1.58345 0.907372 0
M  V30 11502 C 1085.98 2.70668 -2.39627 0
M  V30 11503 O 1085.7 2.29793 -3.72997 0
M  V30 11504 C 1087.2 3.64201 -2.52731 0
M  V30 11505 H 1084.42 0.449044 -0.498598 0
M  V30 11506 H 1086.96 0.824811 -1.87129 0
M  V30 11507 H 1085.12 3.3034 -2.02371 0
M  V30 11508 H 1085.53 3.10341 -4.22834 0
M  V30 11509 H 1087.01 4.48412 -3.21918 0
M  V30 11510 H 1087.48 4.10323 -1.56626 0
M  V30 11511 H 1088.09 3.1042 -2.90722 0
M  V30 11512 N 1086.4 1.28806 0.908124 0
M  V30 11513 C 1087.31 1.15079 2.04436 0
M  V30 11514 C 1088.33 0.076012 1.73834 0
M  V30 11515 O 1089.51 0.286421 1.99353 0
M  V30 11516 C 1086.57 0.819733 3.3687 0
M  V30 11517 C 1085.63 1.97746 3.81045 0
M  V30 11518 C 1084.86 1.66211 5.07158 0
M  V30 11519 O 1085.09 0.579092 5.67453 0
M  V30 11520 O 1084.02 2.5075 5.47182 0
M  V30 11521 H 1087.85 2.10477 2.18937 0
M  V30 11522 H 1085.43 1.08177 1.03044 0
M  V30 11523 H 1087.31 0.649304 4.16368 0
M  V30 11524 H 1085.99 -0.10454 3.23531 0
M  V30 11525 H 1084.9 2.20308 3.02349 0
M  V30 11526 H 1086.23 2.88264 3.98955 0
M  V30 11527 N 1087.88 -1.11734 1.11145 0
M  V30 11528 C 1088.83 -2.15789 0.736133 0
M  V30 11529 C 1089.82 -1.58813 -0.25832 0
M  V30 11530 O 1091.01 -1.76877 -0.0659078 0
M  V30 11531 C 1088.14 -3.4284 0.177597 0
M  V30 11532 C 1087.22 -4.06783 1.19953 0
M  V30 11533 N 1087.61 -4.45626 2.39271 0
M  V30 11534 C 1085.91 -4.33663 1.04176 0
M  V30 11535 C 1086.61 -4.95684 3.04422 0
M  V30 11536 N 1085.59 -4.91648 2.31912 0
M  V30 11537 H 1089.39 -2.43598 1.6443 0
M  V30 11538 H 1086.9 -1.28716 0.990247 0
M  V30 11539 H 1088.9 -4.16756 -0.109402 0
M  V30 11540 H 1087.56 -3.16498 -0.725201 0
M  V30 11541 H 1088.57 -4.37757 2.76747 0
M  V30 11542 H 1085.25 -4.17044 0.195132 0
M  V30 11543 H 1086.64 -5.35394 4.05959 0
M  V30 11544 N 1089.36 -0.901303 -1.29284 0
M  V30 11545 C 1090.61 -0.527 -1.95108 0
M  V30 11546 C 1090.93 0.930065 -1.71391 0
M  V30 11547 O 1090.2 1.65601 -1.04658 0
M  V30 11548 H 1088.78 -0.191903 -0.721929 0
M  V30 11549 H 1091.44 -1.14795 -1.57506 0
M  V30 11550 H 1090.54 -0.710945 -3.03895 0
M  V30 11551 N 1090.84 1.42931 -0.663954 0
M  V30 11552 C 1092.09 2.00904 -0.179011 0
M  V30 11553 C 1092.4 1.53056 1.21791 0
M  V30 11554 O 1093.61 2.03374 1.79865 0
M  V30 11555 C 1092.06 3.58892 -0.269198 0
M  V30 11556 C 1091.67 4.15731 -1.66949 0
M  V30 11557 C 1093.41 4.24207 0.157589 0
M  V30 11558 C 1091.32 5.66047 -1.71303 0
M  V30 11559 H 1090.25 0.75135 -0.0631623 0
M  V30 11560 H 1092.9 1.6378 -0.827556 0
M  V30 11561 H 1091.28 3.93469 0.447048 0
M  V30 11562 H 1092.46 3.92634 -2.41195 0
M  V30 11563 H 1090.77 3.62826 -2.04318 0
M  V30 11564 H 1093.37 5.34503 0.145057 0
M  V30 11565 H 1093.71 3.98901 1.19095 0
M  V30 11566 H 1094.25 3.94552 -0.507274 0
M  V30 11567 H 1090.98 5.96136 -2.72584 0
M  V30 11568 H 1090.5 5.91167 -1.01398 0
M  V30 11569 H 1092.18 6.30275 -1.46158 0
M  V30 11570 N 1092.32 0.406567 1.52266 0
M  V30 11571 C 1093.25 -0.45552 2.24628 0
M  V30 11572 C 1094.26 -1.01234 1.27497 0
M  V30 11573 O 1095.45 -0.911718 1.5346 0
M  V30 11574 C 1092.55 -1.64578 2.96256 0
M  V30 11575 C 1091.72 -1.2133 4.20235 0
M  V30 11576 C 1090.78 -2.27018 4.7471 0
M  V30 11577 O 1089.81 -1.87714 5.37357 0
M  V30 11578 N 1091.01 -3.5915 4.56061 0
M  V30 11579 H 1093.77 0.164525 2.99248 0
M  V30 11580 H 1091.34 0.233812 1.60203 0
M  V30 11581 H 1093.33 -2.3484 3.29594 0
M  V30 11582 H 1091.9 -2.1718 2.24837 0
M  V30 11583 H 1091.12 -0.338892 3.92741 0
M  V30 11584 H 1092.41 -0.901268 5.00754 0
M  V30 11585 H 1091.8 -3.93834 4.06092 0
M  V30 11586 H 1090.36 -4.25397 4.93843 0
M  V30 11587 N 1093.79 -1.57004 0.136909 0
M  V30 11588 C 1095.04 -1.9541 -0.51569 0
M  V30 11589 C 1095.36 -1.02219 -1.66061 0
M  V30 11590 O 1094.63 -0.0818172 -1.95729 0
M  V30 11591 H 1093.21 -0.721504 -0.193497 0
M  V30 11592 H 1095.88 -1.93765 0.210046 0
M  V30 11593 H 1094.97 -2.98887 -0.898494 0
M  V30 11594 N 1095.27 0.136881 -1.57004 0
M  V30 11595 C 1096.22 1.16869 -1.99023 0
M  V30 11596 C 1097.19 1.42137 -0.859435 0
M  V30 11597 O 1098.37 1.54303 -1.12229 0
M  V30 11598 C 1095.51 2.49466 -2.38455 0
M  V30 11599 C 1094.63 2.31286 -3.64871 0
M  V30 11600 C 1093.76 3.56989 -3.9336 0
M  V30 11601 C 1092.8 3.33889 -5.13015 0
M  V30 11602 N 1091.94 4.51748 -5.37464 0
M  V30 11603 H 1096.78 0.803366 -2.86967 0
M  V30 11604 H 1094.32 0.385216 -1.41967 0
M  V30 11605 H 1096.27 3.26794 -2.59348 0
M  V30 11606 H 1094.9 2.83926 -1.53577 0
M  V30 11607 H 1093.96 1.44962 -3.51696 0
M  V30 11608 H 1095.27 2.10183 -4.52355 0
M  V30 11609 H 1094.42 4.42742 -4.14806 0
M  V30 11610 H 1093.16 3.81106 -3.04318 0
M  V30 11611 H 1092.17 2.46525 -4.91432 0
M  V30 11612 H 1093.39 3.1116 -6.03619 0
M  V30 11613 H 1091.34 4.76019 -4.51377 0
M  V30 11614 H 1091.25 4.33684 -6.19237 0
M  V30 11615 H 1092.52 5.38686 -5.63416 0
M  V30 11616 N 1096.75 1.52266 0.40654 0
M  V30 11617 C 1098.03 1.57018 1.1664 0
M  V30 11618 C 1098.41 0.352752 2.08132 0
M  V30 11619 O 1097.76 -0.660208 2.18754 0
M  V30 11620 C 1097.97 2.90016 1.94143 0
M  V30 11621 C 1099.31 3.43112 2.50119 0
M  V30 11622 O 1100.34 2.91773 2.0432 0
M  V30 11623 O 1099.2 4.32765 3.33731 0
M  V30 11624 H 1096.29 0.632574 0.532709 0
M  V30 11625 H 1098.84 1.64595 0.413111 0
M  V30 11626 H 1097.61 3.70071 1.27134 0
M  V30 11627 H 1097.23 2.85744 2.76471 0
M  V30 11628 N 1098.23 -0.663929 1.42933 0
M  V30 11629 C 1099.16 -1.78899 1.50058 0
M  V30 11630 C 1100.14 -1.66329 0.356164 0
M  V30 11631 O 1101.32 -1.85587 0.571944 0
M  V30 11632 C 1098.45 -3.17265 1.41281 0
M  V30 11633 C 1097.41 -3.44584 2.53861 0
M  V30 11634 C 1096.73 -4.82638 2.3014 0
M  V30 11635 C 1098.03 -3.40394 3.96143 0
M  V30 11636 H 1099.73 -1.73194 2.44222 0
M  V30 11637 H 1097.27 -0.83182 1.17545 0
M  V30 11638 H 1099.23 -3.95715 1.44872 0
M  V30 11639 H 1097.95 -3.23675 0.43616 0
M  V30 11640 H 1096.61 -2.685 2.49606 0
M  V30 11641 H 1096.26 -4.85711 1.30743 0
M  V30 11642 H 1095.96 -5.01879 3.056 0
M  V30 11643 H 1097.48 -5.63359 2.35497 0
M  V30 11644 H 1098.9 -4.08796 4.01943 0
M  V30 11645 H 1097.29 -3.7117 4.71543 0
M  V30 11646 H 1098.36 -2.38767 4.22041 0
M  V30 11647 N 1099.71 -1.29285 -0.901281 0
M  V30 11648 C 1100.95 -1.16934 -1.64836 0
M  V30 11649 C 1101.28 0.279826 -1.92982 0
M  V30 11650 O 1100.55 1.19179 -1.55478 0
M  V30 11651 H 1099.13 -0.429768 -0.61099 0
M  V30 11652 H 1101.79 -1.62189 -1.08077 0
M  V30 11653 H 1100.88 -1.71821 -2.60545 0
M  V30 11654 N 1101.18 1.11143 -1.11736 0
M  V30 11655 C 1102.12 2.1705 -0.736325 0
M  V30 11656 C 1103.13 1.61116 0.233528 0
M  V30 11657 O 1104.32 1.78493 0.0159602 0
M  V30 11658 C 1101.42 3.38832 -0.067974 0
M  V30 11659 C 1100.59 4.24226 -1.06543 0
M  V30 11660 C 1099.65 5.24472 -0.426063 0
M  V30 11661 O 1098.68 5.58843 -1.0809 0
M  V30 11662 N 1099.88 5.74825 0.809711 0
M  V30 11663 H 1102.64 2.50349 -1.64758 0
M  V30 11664 H 1100.2 1.26693 -1.00799 0
M  V30 11665 H 1102.2 4.02991 0.371563 0
M  V30 11666 H 1100.77 3.0357 0.745917 0
M  V30 11667 H 1099.99 3.56475 -1.68283 0
M  V30 11668 H 1101.27 4.78117 -1.74016 0
M  V30 11669 H 1100.67 5.49088 1.36084 0
M  V30 11670 H 1099.23 6.40804 1.19218 0
M  V30 11671 N 1102.66 0.908147 1.28804 0
M  V30 11672 C 1103.59 0.34957 2.26519 0
M  V30 11673 C 1104.61 -0.508845 1.54643 0
M  V30 11674 O 1105.8 -0.324633 1.75523 0
M  V30 11675 C 1102.9 -0.519461 3.34895 0
M  V30 11676 C 1102.07 0.315157 4.36263 0
M  V30 11677 C 1101.13 -0.488059 5.23932 0
M  V30 11678 O 1100.15 0.0974133 5.69117 0
M  V30 11679 N 1101.36 -1.79233 5.52137 0
M  V30 11680 H 1104.12 1.18945 2.75086 0
M  V30 11681 H 1101.68 0.77351 1.42227 0
M  V30 11682 H 1103.67 -1.0634 3.90479 0
M  V30 11683 H 1102.24 -1.26004 2.8608 0
M  V30 11684 H 1101.46 1.04049 3.8022 0
M  V30 11685 H 1102.75 0.886438 5.01019 0
M  V30 11686 H 1102.15 -2.2906 5.1725 0
M  V30 11687 H 1100.71 -2.28322 6.10502 0
M  V30 11688 N 1104.14 -1.42577 0.671525 0
M  V30 11689 C 1105.39 -2.01185 0.192051 0
M  V30 11690 C 1105.71 -1.53349 -1.20454 0
M  V30 11691 O 1104.98 -0.753781 -1.80817 0
M  V30 11692 H 1103.56 -0.743898 0.0680106 0
M  V30 11693 H 1106.22 -1.74539 0.8673 0
M  V30 11694 H 1105.32 -3.11516 0.190796 0
M  V30 11695 N 1105.62 -0.414636 -1.52048 0
M  V30 11696 C 1106.87 0.159034 -2.01473 0
M  V30 11697 C 1107.19 1.45176 -1.30188 0
M  V30 11698 O 1106.46 1.91134 -0.429469 0
M  V30 11699 H 1105.04 0.0617604 -0.744443 0
M  V30 11700 H 1107.7 -0.552141 -1.86916 0
M  V30 11701 H 1106.8 0.351217 -3.10118 0
M  V30 11702 N 1107.1 1.56929 -0.145233 0
M  V30 11703 C 1108.34 1.96358 0.50707 0
M  V30 11704 C 1108.68 1.03005 1.64632 0
M  V30 11705 O 1107.95 0.0721045 1.94366 0
M  V30 11706 C 1108.23 3.45502 1.01492 0
M  V30 11707 C 1108.09 4.49633 -0.122708 0
M  V30 11708 C 1109.41 3.97103 1.89729 0
M  V30 11709 H 1106.52 0.713958 0.182848 0
M  V30 11710 H 1109.17 1.8865 -0.226102 0
M  V30 11711 H 1107.32 3.52202 1.6397 0
M  V30 11712 H 1108.99 4.55013 -0.758988 0
M  V30 11713 H 1107.23 4.26691 -0.782109 0
M  V30 11714 H 1107.9 5.51318 0.27432 0
M  V30 11715 H 1110.38 3.92871 1.37082 0
M  V30 11716 H 1109.25 5.01927 2.22173 0
M  V30 11717 H 1109.52 3.39354 2.83357 0
M  V30 11718 N 1108.58 -0.128553 1.57075 0
M  V30 11719 C 1109.52 -1.15812 1.9964 0
M  V30 11720 C 1110.49 -1.41679 0.86696 0
M  V30 11721 O 1111.68 -1.53705 1.13046 0
M  V30 11722 C 1108.82 -2.48198 2.39774 0
M  V30 11723 C 1107.93 -2.29348 3.66092 0
M  V30 11724 C 1107.07 -3.54898 3.95248 0
M  V30 11725 C 1106.1 -3.31164 5.14779 0
M  V30 11726 N 1105.24 -4.48891 5.39853 0
M  V30 11727 H 1110.08 -0.788136 2.87389 0
M  V30 11728 H 1107.62 -0.377682 1.42169 0
M  V30 11729 H 1109.58 -3.25414 2.61077 0
M  V30 11730 H 1108.21 -2.83108 1.5508 0
M  V30 11731 H 1107.26 -1.43095 3.5246 0
M  V30 11732 H 1108.57 -2.07781 4.53463 0
M  V30 11733 H 1107.72 -4.40536 4.17148 0
M  V30 11734 H 1106.46 -3.79487 3.06335 0
M  V30 11735 H 1105.47 -2.43915 4.92733 0
M  V30 11736 H 1106.69 -3.07954 6.05261 0
M  V30 11737 H 1104.64 -4.73619 4.53895 0
M  V30 11738 H 1104.56 -4.30394 6.21528 0
M  V30 11739 H 1105.82 -5.35691 5.66265 0
M  V30 11740 N 1110.05 -1.5248 -0.398459 0
M  V30 11741 C 1111.46 -1.59107 -0.976817 0
M  V30 11742 C 1111.82 -0.438104 -1.91246 0
M  V30 11743 O 1110.94 0.440111 -2.11877 0
M  V30 11744 C 1111.54 -2.88373 -1.77838 0
M  V30 11745 C 1110.09 -2.97445 -2.30659 0
M  V30 11746 C 1109.24 -2.5414 -1.10942 0
M  V30 11747 H 1112.19 -1.57695 -0.178324 0
M  V30 11748 H 1112.21 -2.74327 -2.63676 0
M  V30 11749 H 1111.73 -3.72269 -1.09714 0
M  V30 11750 H 1109.83 -2.18066 -3.02123 0
M  V30 11751 H 1109.94 -4.019 -2.60794 0
M  V30 11752 H 1108.3 -2.08237 -1.46661 0
M  V30 11753 H 1109.09 -3.40421 -0.443684 0
M  V30 11754 N 1111.53 0.65634 -1.43283 0
M  V30 11755 C 1112.44 1.79847 -1.50639 0
M  V30 11756 C 1113.46 1.69487 -0.393714 0
M  V30 11757 O 1114.63 1.90712 -0.647379 0
M  V30 11758 C 1111.7 3.16107 -1.42398 0
M  V30 11759 C 1110.76 3.38287 -2.64312 0
M  V30 11760 C 1109.99 4.68046 -2.56454 0
M  V30 11761 O 1110.22 5.4719 -1.61056 0
M  V30 11762 O 1109.15 4.91877 -3.46902 0
M  V30 11763 H 1112.98 1.76596 -2.47078 0
M  V30 11764 H 1110.56 0.814428 -1.25249 0
M  V30 11765 H 1112.44 3.97382 -1.40233 0
M  V30 11766 H 1111.12 3.19956 -0.490929 0
M  V30 11767 H 1110.02 2.56788 -2.72049 0
M  V30 11768 H 1111.36 3.39282 -3.56579 0
M  V30 11769 N 1113.01 1.29761 0.894412 0
M  V30 11770 C 1113.92 1.1724 2.03204 0
M  V30 11771 C 1114.94 0.0944452 1.73743 0
M  V30 11772 O 1116.11 0.307549 1.99038 0
M  V30 11773 C 1113.18 0.855416 3.35981 0
M  V30 11774 C 1112.24 2.01777 3.78926 0
M  V30 11775 C 1111.47 1.71581 5.05367 0
M  V30 11776 O 1111.69 0.639245 5.66807 0
M  V30 11777 O 1110.63 2.56539 5.44492 0
M  V30 11778 H 1114.45 2.12787 2.16692 0
M  V30 11779 H 1112.04 1.09264 1.0189 0
M  V30 11780 H 1113.92 0.693429 4.15656 0
M  V30 11781 H 1112.6 -0.0702195 3.23624 0
M  V30 11782 H 1111.5 2.23502 2.99996 0
M  V30 11783 H 1112.84 2.92479 3.95875 0
M  V30 11784 N 1114.49 -1.10549 1.12324 0
M  V30 11785 C 1115.73 -1.82755 0.879117 0
M  V30 11786 C 1116.07 -1.84905 -0.593604 0
M  V30 11787 O 1115.34 -1.30884 -1.43873 0
M  V30 11788 C 1115.62 -3.29481 1.45308 0
M  V30 11789 C 1115.48 -3.3567 2.99408 0
M  V30 11790 C 1116.8 -4.25828 1.11167 0
M  V30 11791 H 1113.92 -0.663513 0.32081 0
M  V30 11792 H 1116.56 -1.29572 1.38965 0
M  V30 11793 H 1114.71 -3.74902 1.01887 0
M  V30 11794 H 1116.38 -2.98739 3.515 0
M  V30 11795 H 1114.62 -2.75606 3.34998 0
M  V30 11796 H 1115.29 -4.38983 3.34661 0
M  V30 11797 H 1117.77 -3.88635 1.48667 0
M  V30 11798 H 1116.65 -5.26857 1.53991 0
M  V30 11799 H 1116.91 -4.42094 0.0237046 0
M  V30 11800 N 1115.97 -0.914965 -1.28321 0
M  V30 11801 C 1117.24 -0.46764 -1.89928 0
M  V30 11802 C 1117.62 1.05364 -1.82925 0
M  V30 11803 O 1116.97 1.90223 -1.26599 0
M  V30 11804 C 1117.18 -0.999372 -3.34385 0
M  V30 11805 C 1118.53 -1.0522 -4.11356 0
M  V30 11806 O 1119.55 -0.9481 -3.4335 0
M  V30 11807 O 1118.41 -1.21085 -5.32917 0
M  V30 11808 H 1115.51 -0.148398 -0.813577 0
M  V30 11809 H 1118.05 -1.00583 -1.36679 0
M  V30 11810 H 1116.82 -2.04333 -3.33712 0
M  V30 11811 H 1116.45 -0.442083 -3.95135 0
M  V30 11812 N 1117.44 1.42219 -0.679077 0
M  V30 11813 C 1118.69 2.02291 -0.212115 0
M  V30 11814 C 1119.04 1.52755 1.16977 0
M  V30 11815 O 1118.34 0.721827 1.77483 0
M  V30 11816 C 1118.53 3.56889 -0.191027 0
M  V30 11817 C 1118.36 4.21429 -1.56933 0
M  V30 11818 C 1117.13 4.5642 -2.16814 0
M  V30 11819 C 1119.33 4.48733 -2.51283 0
M  V30 11820 N 1117.31 5.06162 -3.47381 0
M  V30 11821 C 1118.68 5.00072 -3.66508 0
M  V30 11822 C 1120.74 4.30726 -2.49758 0
M  V30 11823 C 1119.44 5.35296 -4.80469 0
M  V30 11824 C 1121.47 4.67029 -3.62819 0
M  V30 11825 C 1120.83 5.18524 -4.76773 0
M  V30 11826 H 1116.93 0.772324 -0.122637 0
M  V30 11827 H 1119.51 1.73014 -0.89299 0
M  V30 11828 H 1117.68 3.85675 0.459276 0
M  V30 11829 H 1119.41 4.03665 0.289217 0
M  V30 11830 H 1116.17 4.42321 -1.69261 0
M  V30 11831 H 1116.59 5.35457 -4.14264 0
M  V30 11832 H 1121.23 3.90166 -1.62882 0
M  V30 11833 H 1118.95 5.74788 -5.68018 0
M  V30 11834 H 1122.54 4.54769 -3.62872 0
M  V30 11835 H 1121.42 5.4609 -5.6281 0
M  V30 11836 N 1118.92 0.422693 1.51826 0
M  V30 11837 C 1119.85 -0.43167 2.25098 0
M  V30 11838 C 1120.87 -0.998758 1.28564 0
M  V30 11839 O 1122.06 -0.89539 1.54418 0
M  V30 11840 C 1119.16 -1.61426 2.97985 0
M  V30 11841 C 1118.33 -1.16866 4.21499 0
M  V30 11842 C 1117.39 -2.2197 4.77091 0
M  V30 11843 O 1116.41 -1.82004 5.39317 0
M  V30 11844 N 1117.62 -3.54293 4.59844 0
M  V30 11845 H 1120.38 0.196255 2.99057 0
M  V30 11846 H 1117.94 0.25079 1.59946 0
M  V30 11847 H 1119.93 -2.31331 3.32066 0
M  V30 11848 H 1118.5 -2.14783 2.27128 0
M  V30 11849 H 1117.72 -0.297217 3.93078 0
M  V30 11850 H 1119.01 -0.848106 5.01682 0
M  V30 11851 H 1118.41 -3.89505 4.10247 0
M  V30 11852 H 1116.97 -4.20135 4.98327 0
M  V30 11853 N 1120.4 -1.5685 0.153553 0
M  V30 11854 C 1121.68 -1.8796 -0.541328 0
M  V30 11855 C 1122.06 -1.06059 -1.82523 0
M  V30 11856 O 1121.4 -0.149295 -2.28012 0
M  V30 11857 C 1121.61 -3.39697 -0.800442 0
M  V30 11858 C 1122.96 -4.09057 -1.13832 0
M  V30 11859 O 1123.99 -3.44913 -0.889578 0
M  V30 11860 O 1122.85 -5.22347 -1.60673 0
M  V30 11861 H 1119.94 -0.779268 -0.276895 0
M  V30 11862 H 1122.49 -1.68626 0.190657 0
M  V30 11863 H 1121.26 -3.91151 0.107935 0
M  V30 11864 H 1120.88 -3.64582 -1.58638 0
M  V30 11865 N 1121.88 0.120221 -1.57141 0
M  V30 11866 C 1122.83 1.16654 -2.01233 0
M  V30 11867 C 1123.82 1.42943 -0.909053 0
M  V30 11868 O 1125.03 1.4292 -1.09426 0
M  V30 11869 H 1121.4 0.393289 -0.640958 0
M  V30 11870 H 1123.37 0.768156 -2.88343 0
M  V30 11871 C 1122.12 2.4854 -2.43152 0
M  V30 11872 H 1121.44 2.29149 -3.27614 0
M  V30 11873 H 1122.88 3.20315 -2.77802 0
M  V30 11874 C 1121.34 3.1103 -1.29468 0
M  V30 11875 O 1121.87 3.97042 -0.609982 0
M  V30 11876 N 1120.08 2.70888 -1.05205 0
M  V30 11877 H 1119.63 2.01039 -1.61062 0
M  V30 11878 H 1119.58 3.13028 -0.293347 0
M  V30 11879 N 1123.36 1.52689 0.390367 0
M  V30 11880 C 1124.6 1.67335 1.13329 0
M  V30 11881 C 1124.93 0.415068 1.90531 0
M  V30 11882 O 1124.2 -0.570504 1.87409 0
M  V30 11883 H 1122.78 0.616821 0.421356 0
M  V30 11884 H 1125.44 1.89799 0.443 0
M  V30 11885 H 1124.53 2.52314 1.83696 0
M  V30 11886 N 1124.83 -0.648732 1.43629 0
M  V30 11887 C 1125.76 -1.77298 1.51947 0
M  V30 11888 C 1126.75 -1.65942 0.373785 0
M  V30 11889 O 1127.93 -1.8497 0.591596 0
M  V30 11890 C 1125.06 -3.15749 1.44638 0
M  V30 11891 C 1124.01 -3.41872 2.57502 0
M  V30 11892 C 1123.34 -4.8017 2.35246 0
M  V30 11893 C 1124.64 -3.36173 3.99731 0
M  V30 11894 H 1126.33 -1.70594 2.46045 0
M  V30 11895 H 1123.88 -0.819306 1.1842 0
M  V30 11896 H 1125.83 -3.94156 1.4906 0
M  V30 11897 H 1124.56 -3.23194 0.470466 0
M  V30 11898 H 1123.22 -2.65838 2.5244 0
M  V30 11899 H 1122.86 -4.84297 1.35887 0
M  V30 11900 H 1122.56 -4.9861 3.10906 0
M  V30 11901 H 1124.09 -5.6083 2.41459 0
M  V30 11902 H 1125.5 -4.0451 4.06257 0
M  V30 11903 H 1123.9 -3.66148 4.75453 0
M  V30 11904 H 1124.97 -2.34277 4.24549 0
M  V30 11905 N 1126.31 -1.30234 -0.887518 0
M  V30 11906 C 1127.22 -1.18316 -2.02579 0
M  V30 11907 C 1128.24 -0.103658 -1.73691 0
M  V30 11908 O 1129.41 -0.3181 -1.98872 0
M  V30 11909 C 1126.48 -0.873222 -3.35523 0
M  V30 11910 C 1125.54 -2.03783 -3.7785 0
M  V30 11911 C 1124.77 -1.74258 -5.0445 0
M  V30 11912 O 1125 -0.669295 -5.6646 0
M  V30 11913 O 1123.93 -2.59423 -5.43124 0
M  V30 11914 H 1127.76 -2.13933 -2.15561 0
M  V30 11915 H 1125.34 -1.09803 -1.0131 0
M  V30 11916 H 1127.22 -0.715463 -4.15282 0
M  V30 11917 H 1125.9 0.053056 -3.23657 0
M  V30 11918 H 1124.81 -2.2509 -2.98806 0
M  V30 11919 H 1126.14 -2.94574 -3.94318 0
M  V30 11920 N 1127.79 1.09952 -1.12909 0
M  V30 11921 C 1129.04 1.81657 -0.885729 0
M  V30 11922 C 1129.36 1.85863 0.589913 0
M  V30 11923 O 1128.63 1.34028 1.42875 0
M  V30 11924 H 1127.21 0.672743 -0.324694 0
M  V30 11925 H 1129.87 1.33013 -1.42456 0
M  V30 11926 H 1128.97 2.85018 -1.27167 0
M  V30 11927 N 1129.27 0.921757 1.27833 0
M  V30 11928 C 1130.22 0.414838 2.27041 0
M  V30 11929 C 1131.19 -0.515045 1.57913 0
M  V30 11930 O 1132.37 -0.435499 1.85763 0
M  V30 11931 C 1129.51 -0.331744 3.43502 0
M  V30 11932 C 1128.62 0.631565 4.27358 0
M  V30 11933 C 1127.76 -0.134265 5.3103 0
M  V30 11934 C 1126.8 0.822138 6.06554 0
M  V30 11935 N 1125.93 0.0893149 7.02043 0
M  V30 11936 H 1130.77 1.26585 2.69778 0
M  V30 11937 H 1128.31 0.635488 1.32665 0
M  V30 11938 H 1130.27 -0.780866 4.09827 0
M  V30 11939 H 1128.9 -1.14704 3.01733 0
M  V30 11940 H 1127.95 1.19922 3.61003 0
M  V30 11941 H 1129.26 1.36274 4.79824 0
M  V30 11942 H 1128.42 -0.643579 6.03277 0
M  V30 11943 H 1127.16 -0.898443 4.79353 0
M  V30 11944 H 1126.16 1.34275 5.33151 0
M  V30 11945 H 1127.39 1.586 6.6032 0
M  V30 11946 H 1125.33 -0.656725 6.52704 0
M  V30 11947 H 1125.25 0.760167 7.52169 0
M  V30 11948 H 1126.52 -0.399541 7.78475 0
M  V30 11949 N 1130.75 -1.41857 0.686609 0
M  V30 11950 C 1131.68 -2.33481 0.0298353 0
M  V30 11951 C 1132.66 -1.51329 -0.776756 0
M  V30 11952 O 1133.84 -1.79895 -0.731535 0
M  V30 11953 C 1130.97 -3.35065 -0.913707 0
M  V30 11954 C 1129.93 -4.2746 -0.214861 0
M  V30 11955 C 1129.25 -5.19346 -1.27215 0
M  V30 11956 C 1130.55 -5.14252 0.913367 0
M  V30 11957 H 1132.25 -2.8865 0.795067 0
M  V30 11958 H 1129.79 -1.38792 0.383785 0
M  V30 11959 H 1131.75 -3.98082 -1.38234 0
M  V30 11960 H 1130.47 -2.78226 -1.7105 0
M  V30 11961 H 1129.13 -3.65855 0.233651 0
M  V30 11962 H 1128.78 -4.58827 -2.06124 0
M  V30 11963 H 1128.48 -5.81996 -0.80961 0
M  V30 11964 H 1130 -5.85239 -1.74147 0
M  V30 11965 H 1131.41 -5.70887 0.525424 0
M  V30 11966 H 1129.81 -5.85796 1.30244 0
M  V30 11967 H 1130.88 -4.51949 1.75699 0
M  V30 11968 N 1132.22 -0.430739 -1.51599 0
M  V30 11969 C 1133.5 0.197543 -1.946 0
M  V30 11970 C 1133.88 1.6069 -1.36901 0
M  V30 11971 O 1133.23 2.21697 -0.553422 0
M  V30 11972 C 1133.44 0.181976 -3.48525 0
M  V30 11973 C 1134.79 0.390783 -4.22798 0
M  V30 11974 O 1135.81 0.260384 -3.55247 0
M  V30 11975 O 1134.67 0.649701 -5.42624 0
M  V30 11976 H 1131.76 0.133524 -0.81615 0
M  V30 11977 H 1134.31 -0.488243 -1.62525 0
M  V30 11978 H 1133.08 -0.803584 -3.8296 0
M  V30 11979 H 1132.71 0.910952 -3.87024 0
M  V30 11980 N 1133.7 1.56767 -0.161869 0
M  V30 11981 C 1134.63 2.20511 0.767918 0
M  V30 11982 C 1135.61 1.15783 1.24612 0
M  V30 11983 O 1136.8 1.44179 1.301 0
M  V30 11984 C 1133.93 2.83844 2.00125 0
M  V30 11985 C 1132.88 3.94528 1.65926 0
M  V30 11986 C 1132.21 4.44866 2.96646 0
M  V30 11987 C 1133.51 5.14583 0.894497 0
M  V30 11988 H 1135.2 2.98464 0.236607 0
M  V30 11989 H 1132.75 1.43561 0.112363 0
M  V30 11990 H 1134.7 3.27109 2.65664 0
M  V30 11991 H 1133.43 2.03246 2.55654 0
M  V30 11992 H 1132.08 3.51904 1.02759 0
M  V30 11993 H 1131.73 3.61071 3.50196 0
M  V30 11994 H 1131.43 5.19531 2.74521 0
M  V30 11995 H 1132.96 4.90812 3.6323 0
M  V30 11996 H 1134.37 5.54601 1.45228 0
M  V30 11997 H 1132.77 5.95105 0.772636 0
M  V30 11998 H 1133.84 4.84773 -0.110986 0
M  V30 11999 N 1135.18 -0.111886 1.57202 0
M  V30 12000 C 1136.43 -0.819623 1.85499 0
M  V30 12001 C 1136.76 -1.7919 0.748629 0
M  V30 12002 O 1136.03 -1.92952 -0.244918 0
M  V30 12003 C 1136.32 -1.56324 3.24399 0
M  V30 12004 C 1136.17 -0.610081 4.45643 0
M  V30 12005 C 1137.49 -2.51777 3.60966 0
M  V30 12006 H 1134.61 -0.296512 0.674722 0
M  V30 12007 H 1137.25 -0.0836741 1.89816 0
M  V30 12008 H 1135.4 -2.1906 3.2085 0
M  V30 12009 H 1137.07 0.00898038 4.61299 0
M  V30 12010 H 1135.32 0.0778488 4.3373 0
M  V30 12011 H 1135.99 -1.16718 5.39519 0
M  V30 12012 H 1138.46 -1.99143 3.65351 0
M  V30 12013 H 1137.34 -3.00835 4.59118 0
M  V30 12014 H 1137.6 -3.34769 2.8876 0
M  V30 12015 N 1136.66 -1.52894 -0.382264 0
M  V30 12016 C 1137.9 -1.68515 -1.12829 0
M  V30 12017 C 1138.24 -0.427211 -1.89443 0
M  V30 12018 O 1137.51 0.57516 -1.85801 0
M  V30 12019 C 1137.8 -2.92449 -2.10108 0
M  V30 12020 C 1137.65 -4.2836 -1.37214 0
M  V30 12021 C 1138.97 -3.11944 -3.1045 0
M  V30 12022 H 1136.09 -0.613223 -0.408811 0
M  V30 12023 H 1138.73 -1.85503 -0.410921 0
M  V30 12024 H 1136.88 -2.78097 -2.71283 0
M  V30 12025 H 1138.55 -4.54493 -0.789516 0
M  V30 12026 H 1136.79 -4.28532 -0.673973 0
M  V30 12027 H 1137.46 -5.11178 -2.0833 0
M  V30 12028 H 1139.94 -3.25372 -2.59369 0
M  V30 12029 H 1138.82 -4.00125 -3.75754 0
M  V30 12030 H 1139.08 -2.26465 -3.79692 0
M  V30 12031 N 1138.14 0.641106 -1.43971 0
M  V30 12032 C 1139.37 1.42829 -1.49692 0
M  V30 12033 C 1139.78 1.88427 -0.118594 0
M  V30 12034 O 1139.14 1.60234 0.873581 0
M  V30 12035 C 1139.19 2.65524 -2.45314 0
M  V30 12036 O 1138.91 2.2183 -3.77787 0
M  V30 12037 C 1140.41 3.58758 -2.60399 0
M  V30 12038 H 1137.63 0.438367 -0.508011 0
M  V30 12039 H 1140.17 0.784933 -1.88836 0
M  V30 12040 H 1138.33 3.25973 -2.09332 0
M  V30 12041 H 1138.74 3.01303 -4.29321 0
M  V30 12042 H 1140.22 4.41483 -3.31357 0
M  V30 12043 H 1140.69 4.06909 -1.65294 0
M  V30 12044 H 1141.3 3.04184 -2.97241 0
M  V30 12045 N 1139.62 1.30703 0.880598 0
M  V30 12046 C 1140.55 1.20033 2.00286 0
M  V30 12047 C 1141.53 0.0899614 1.69862 0
M  V30 12048 O 1142.71 0.272747 1.92275 0
M  V30 12049 C 1139.84 0.895902 3.35546 0
M  V30 12050 C 1138.8 1.96468 3.80242 0
M  V30 12051 C 1138.12 1.51316 5.12843 0
M  V30 12052 C 1139.42 3.37637 3.98496 0
M  V30 12053 H 1141.12 2.13922 2.0947 0
M  V30 12054 H 1138.66 1.02989 1.00644 0
M  V30 12055 H 1140.61 0.807899 4.13583 0
M  V30 12056 H 1139.34 -0.0786636 3.26505 0
M  V30 12057 H 1138 2.0424 3.04437 0
M  V30 12058 H 1137.65 0.52674 5.00234 0
M  V30 12059 H 1137.35 2.22807 5.43719 0
M  V30 12060 H 1138.87 1.43903 5.93401 0
M  V30 12061 H 1140.28 3.326 4.66959 0
M  V30 12062 H 1138.68 4.07253 4.40755 0
M  V30 12063 H 1139.75 3.79205 3.02211 0
M  V30 12064 N 1141.09 -1.09351 1.1349 0
M  V30 12065 C 1142.37 -1.78121 0.808225 0
M  V30 12066 C 1142.75 -1.99154 -0.700072 0
M  V30 12067 O 1142.1 -1.59356 -1.63762 0
M  V30 12068 C 1142.31 -3.10368 1.59601 0
M  V30 12069 C 1143.66 -3.85063 1.78919 0
M  V30 12070 O 1144.68 -3.20122 1.56206 0
M  V30 12071 O 1143.54 -5.01648 2.16821 0
M  V30 12072 H 1140.63 -0.77253 0.295173 0
M  V30 12073 H 1143.18 -1.15901 1.23956 0
M  V30 12074 H 1141.95 -2.90549 2.62101 0
M  V30 12075 H 1141.57 -3.80312 1.15967 0
M  V30 12076 N 1142.57 -0.928524 -1.27343 0
M  V30 12077 C 1143.82 -0.569392 -1.9433 0
M  V30 12078 C 1144.15 0.889481 -1.7297 0
M  V30 12079 O 1143.4 1.6499 -1.05247 0
M  V30 12080 C 1143.7 -0.84269 -3.47323 0
M  V30 12081 C 1143.37 -2.28344 -3.88806 0
M  V30 12082 C 1142.03 -2.67731 -3.99842 0
M  V30 12083 C 1144.38 -3.22031 -4.09811 0
M  V30 12084 C 1141.71 -3.99928 -4.29272 0
M  V30 12085 C 1144.06 -4.5381 -4.40725 0
M  V30 12086 C 1142.72 -4.93031 -4.49975 0
M  V30 12087 H 1141.99 -0.208355 -0.711104 0
M  V30 12088 H 1144.64 -1.17264 -1.51398 0
M  V30 12089 H 1142.95 -0.156775 -3.91486 0
M  V30 12090 H 1144.64 -0.543779 -3.97296 0
M  V30 12091 H 1141.23 -1.96787 -3.80753 0
M  V30 12092 H 1145.42 -2.92803 -4.00724 0
M  V30 12093 H 1140.67 -4.29996 -4.34642 0
M  V30 12094 H 1144.85 -5.26407 -4.55926 0
M  V30 12095 H 1142.47 -5.95497 -4.72533 0
M  V30 12096 N 1144.05 1.41491 -0.694123 0
M  V30 12097 C 1145.47 1.55358 -0.365532 0
M  V30 12098 C 1145.67 1.66994 1.12762 0
M  V30 12099 O 1144.72 1.64756 1.91342 0
M  V30 12100 C 1146.03 2.79352 -1.11279 0
M  V30 12101 C 1147.58 2.93147 -1.097 0
M  V30 12102 C 1148.06 4.20027 -1.82597 0
M  V30 12103 N 1149.55 4.26981 -1.7956 0
M  V30 12104 C 1150.28 5.24013 -2.32805 0
M  V30 12105 N 1149.78 6.27083 -2.94515 0
M  V30 12106 N 1151.57 5.15943 -2.23069 0
M  V30 12107 H 1143.72 1.32183 -1.66257 0
M  V30 12108 H 1145.99 0.637624 -0.701527 0
M  V30 12109 H 1145.69 2.76958 -2.16765 0
M  V30 12110 H 1145.57 3.70827 -0.690439 0
M  V30 12111 H 1147.95 2.95057 -0.0504037 0
M  V30 12112 H 1148.03 2.02849 -1.55839 0
M  V30 12113 H 1147.68 4.18878 -2.87235 0
M  V30 12114 H 1147.61 5.09294 -1.33893 0
M  V30 12115 H 1150.1 3.53129 -1.34567 0
M  V30 12116 H 1150.41 6.97511 -3.32714 0
M  V30 12117 H 1148.76 6.27589 -2.98592 0
M  V30 12118 H 1151.95 4.34346 -1.74532 0
M  V30 12119 H 1152.12 5.91396 -2.64868 0
M  V30 12120 N 1145.53 0.438773 1.51369 0
M  V30 12121 C 1146.46 -0.362467 2.3067 0
M  V30 12122 C 1147.44 -1.01973 1.36145 0
M  V30 12123 O 1148.62 -1.0231 1.65065 0
M  V30 12124 C 1145.75 -1.46313 3.14976 0
M  V30 12125 C 1144.71 -0.929272 4.1779 0
M  V30 12126 C 1144.03 -2.12579 4.90627 0
M  V30 12127 C 1145.33 0.0372782 5.22287 0
M  V30 12128 H 1147.03 0.29931 2.979 0
M  V30 12129 H 1144.57 0.14539 1.43264 0
M  V30 12130 H 1146.53 -2.03088 3.69233 0
M  V30 12131 H 1145.25 -2.15321 2.45569 0
M  V30 12132 H 1143.91 -0.383722 3.64586 0
M  V30 12133 H 1143.56 -2.8021 4.17722 0
M  V30 12134 H 1143.26 -1.77496 5.60151 0
M  V30 12135 H 1144.78 -2.69905 5.47708 0
M  V30 12136 H 1146.2 -0.44022 5.71607 0
M  V30 12137 H 1144.59 0.300748 5.99346 0
M  V30 12138 H 1145.66 0.973503 4.75027 0
M  V30 12139 N 1147.01 -1.56678 0.170181 0
M  V30 12140 C 1148.23 -2.0166 -0.484543 0
M  V30 12141 C 1148.66 -1.04962 -1.56091 0
M  V30 12142 O 1148.01 -0.0289887 -1.81277 0
M  V30 12143 C 1148.06 -3.45252 -1.04084 0
M  V30 12144 O 1147.17 -3.51623 -2.15488 0
M  V30 12145 H 1146.51 -0.653765 -0.116135 0
M  V30 12146 H 1149.04 -2.02761 0.273737 0
M  V30 12147 H 1149.05 -3.84534 -1.36373 0
M  V30 12148 H 1147.72 -4.15131 -0.252738 0
M  V30 12149 H 1146.3 -3.242 -1.84252 0
M  V30 12150 N 1148.48 0.103547 -1.57259 0
M  V30 12151 C 1149.71 0.82624 -1.90232 0
M  V30 12152 C 1150.13 1.71902 -0.763641 0
M  V30 12153 O 1149.49 1.79043 0.285181 0
M  V30 12154 C 1149.54 1.62265 -3.22029 0
M  V30 12155 O 1148.64 2.73091 -3.09023 0
M  V30 12156 H 1147.98 0.227528 -0.6238 0
M  V30 12157 H 1150.51 0.081307 -2.04438 0
M  V30 12158 H 1150.52 2.00865 -3.5513 0
M  V30 12159 H 1149.2 0.967383 -4.04493 0
M  V30 12160 H 1147.78 2.3758 -2.8742 0
M  V30 12161 N 1149.96 1.53094 0.37415 0
M  V30 12162 C 1151.19 1.72758 1.13852 0
M  V30 12163 C 1151.6 0.452638 1.83294 0
M  V30 12164 O 1150.96 -0.573906 1.73241 0
M  V30 12165 C 1151.01 2.88724 2.17534 0
M  V30 12166 O 1150.73 4.11284 1.5092 0
M  V30 12167 C 1152.23 3.2019 3.06584 0
M  V30 12168 H 1149.45 0.578028 0.340771 0
M  V30 12169 H 1152 1.99805 0.435683 0
M  V30 12170 H 1150.15 2.64096 2.83429 0
M  V30 12171 H 1150.57 4.76162 2.19932 0
M  V30 12172 H 1152.04 4.04759 3.75332 0
M  V30 12173 H 1152.52 2.35193 3.70919 0
M  V30 12174 H 1153.12 3.46712 2.46315 0
M  V30 12175 N 1151.44 -0.633461 1.44309 0
M  V30 12176 C 1152.68 -1.40465 1.48489 0
M  V30 12177 C 1153.04 -1.91664 0.113519 0
M  V30 12178 O 1154.24 -2.68783 0.0299948 0
M  V30 12179 C 1152.52 -2.54041 2.51392 0
M  V30 12180 S 1154.07 -3.42256 2.74602 0
M  V30 12181 H 1150.89 -0.479228 0.525225 0
M  V30 12182 H 1153.49 -0.733561 1.81216 0
M  V30 12183 H 1152.2 -2.14734 3.49739 0
M  V30 12184 H 1151.73 -3.25979 2.2023 0
M  V30 12185 H 1153.74 -4.51409 2.06021 0
M  V30 12186 N 1152.92 -1.31168 -0.873655 0
M  V30 12187 C 1153.85 -1.21094 -1.99646 0
M  V30 12188 C 1154.83 -0.0989684 -1.69812 0
M  V30 12189 O 1156.01 -0.282939 -1.92128 0
M  V30 12190 C 1153.14 -0.913684 -3.35066 0
M  V30 12191 C 1152.1 -1.98482 -3.79195 0
M  V30 12192 C 1151.42 -1.54033 -5.12033 0
M  V30 12193 C 1152.72 -3.39745 -3.96699 0
M  V30 12194 H 1154.42 -2.1503 -2.08333 0
M  V30 12195 H 1151.96 -1.03521 -1.00097 0
M  V30 12196 H 1153.92 -0.829821 -4.13149 0
M  V30 12197 H 1152.64 0.0613471 -3.26542 0
M  V30 12198 H 1151.3 -2.05851 -3.03349 0
M  V30 12199 H 1150.95 -0.553261 -4.99948 0
M  V30 12200 H 1150.65 -2.25688 -5.4253 0
M  V30 12201 H 1152.17 -1.47047 -5.92629 0
M  V30 12202 H 1153.59 -3.35071 -4.65188 0
M  V30 12203 H 1151.98 -4.09585 -4.38589 0
M  V30 12204 H 1153.05 -3.80802 -3.00196 0
M  V30 12205 N 1154.4 1.08748 -1.14068 0
M  V30 12206 C 1155.63 1.84546 -0.928789 0
M  V30 12207 C 1156.03 1.81741 0.526007 0
M  V30 12208 O 1155.38 1.2169 1.37613 0
M  V30 12209 C 1155.44 3.33282 -1.34771 0
M  V30 12210 C 1155.1 3.59826 -2.81734 0
M  V30 12211 C 1156.1 3.54964 -3.79864 0
M  V30 12212 C 1153.79 3.87949 -3.19063 0
M  V30 12213 C 1155.78 3.77847 -5.13332 0
M  V30 12214 C 1153.47 4.10487 -4.52707 0
M  V30 12215 C 1154.46 4.05429 -5.49651 0
M  V30 12216 O 1154.15 4.27378 -6.80884 0
M  V30 12217 H 1153.88 0.589555 -0.330758 0
M  V30 12218 H 1156.44 1.38275 -1.51886 0
M  V30 12219 H 1154.67 3.80294 -0.700948 0
M  V30 12220 H 1156.36 3.90508 -1.10718 0
M  V30 12221 H 1157.12 3.33256 -3.52371 0
M  V30 12222 H 1153 3.91007 -2.44201 0
M  V30 12223 H 1156.55 3.73815 -5.88989 0
M  V30 12224 H 1152.44 4.31677 -4.79922 0
M  V30 12225 H 1153.21 4.44802 -6.8709 0
M  V30 12226 N 1155.87 0.935264 1.26849 0
M  V30 12227 C 1157.1 0.595704 1.98661 0
M  V30 12228 C 1157.52 -0.821001 1.69237 0
M  V30 12229 O 1156.88 -1.55211 0.936982 0
M  V30 12230 C 1156.93 0.837275 3.50745 0
M  V30 12231 O 1156.03 -0.0934914 4.12294 0
M  V30 12232 H 1155.38 0.228512 0.623441 0
M  V30 12233 H 1157.91 1.25658 1.61466 0
M  V30 12234 H 1157.92 0.755827 4.00938 0
M  V30 12235 H 1156.59 1.86993 3.71492 0
M  V30 12236 H 1155.17 0.0385124 3.7288 0
M  V30 12237 N 1157.35 -1.41121 0.701616 0
M  V30 12238 C 1158.63 -1.9492 0.162911 0
M  V30 12239 C 1159.01 -1.64064 -1.32839 0
M  V30 12240 O 1158.36 -0.950848 -2.07777 0
M  V30 12241 C 1158.57 -3.45946 0.460673 0
M  V30 12242 C 1159.92 -4.22789 0.391706 0
M  V30 12243 O 1160.94 -3.53993 0.395931 0
M  V30 12244 O 1159.8 -5.45332 0.357071 0
M  V30 12245 H 1156.89 -0.826793 0.0185103 0
M  V30 12246 H 1159.44 -1.50805 0.778192 0
M  V30 12247 H 1158.21 -3.61711 1.49269 0
M  V30 12248 H 1157.83 -3.97168 -0.185277 0
M  V30 12249 N 1158.83 -0.446794 -1.51134 0
M  V30 12250 C 1160.08 0.118047 -2.01354 0
M  V30 12251 C 1160.39 1.42953 -1.33505 0
M  V30 12252 O 1161.6 2.07788 -1.74747 0
M  V30 12253 C 1160.05 0.260912 -3.58953 0
M  V30 12254 C 1159.66 -1.0407 -4.35745 0
M  V30 12255 C 1161.41 0.779014 -4.17291 0
M  V30 12256 C 1159.31 -0.862958 -5.8507 0
M  V30 12257 H 1158.24 0.0478915 -0.752478 0
M  V30 12258 H 1160.89 -0.577997 -1.74159 0
M  V30 12259 H 1159.28 1.02018 -3.82633 0
M  V30 12260 H 1160.45 -1.80903 -4.23805 0
M  V30 12261 H 1158.77 -1.48805 -3.88904 0
M  V30 12262 H 1161.36 0.928636 -5.26574 0
M  V30 12263 H 1161.71 1.76399 -3.7708 0
M  V30 12264 H 1162.24 0.0778022 -3.97724 0
M  V30 12265 H 1158.98 -1.82059 -6.2971 0
M  V30 12266 H 1158.5 -0.134588 -5.99649 0
M  V30 12267 H 1160.18 -0.51989 -6.44908 0
M  V30 12268 N 1160.31 1.56586 -0.178487 0
M  V30 12269 C 1161.56 1.96273 0.464745 0
M  V30 12270 C 1161.87 1.0675 1.63902 0
M  V30 12271 O 1163.08 1.36148 2.34896 0
M  V30 12272 C 1161.53 3.49021 0.878207 0
M  V30 12273 C 1161.14 4.4718 -0.270861 0
M  V30 12274 C 1162.88 3.97512 1.48946 0
M  V30 12275 C 1160.79 5.91176 0.162632 0
M  V30 12276 H 1159.72 0.732834 0.177398 0
M  V30 12277 H 1162.37 1.81534 -0.267861 0
M  V30 12278 H 1160.75 3.59203 1.667 0
M  V30 12279 H 1161.93 4.48718 -1.04826 0
M  V30 12280 H 1160.24 4.08788 -0.792529 0
M  V30 12281 H 1162.84 5.02556 1.82595 0
M  V30 12282 H 1163.18 3.40861 2.38997 0
M  V30 12283 H 1163.72 3.90376 0.76496 0
M  V30 12284 H 1160.46 6.51716 -0.703286 0
M  V30 12285 H 1159.98 5.9293 0.905243 0
M  V30 12286 H 1161.65 6.44174 0.604084 0
M  V30 12287 N 1161.79 -0.095206 1.57312 0
M  V30 12288 C 1162.72 -1.11627 2.05089 0
M  V30 12289 C 1163.7 -1.41782 0.939787 0
M  V30 12290 O 1164.88 -1.51813 1.21105 0
M  V30 12291 C 1162.01 -2.43618 2.47523 0
M  V30 12292 C 1160.97 -2.27872 3.62296 0
M  V30 12293 C 1160.29 -3.65038 3.90706 0
M  V30 12294 C 1161.59 -1.71936 4.93189 0
M  V30 12295 H 1163.29 -0.718795 2.90644 0
M  V30 12296 H 1160.83 -0.344315 1.39823 0
M  V30 12297 H 1162.79 -3.1532 2.79556 0
M  V30 12298 H 1161.51 -2.85301 1.58968 0
M  V30 12299 H 1160.17 -1.58615 3.3051 0
M  V30 12300 H 1159.82 -4.04249 2.99319 0
M  V30 12301 H 1159.52 -3.55349 4.67976 0
M  V30 12302 H 1161.04 -4.38208 4.25213 0
M  V30 12303 H 1162.45 -2.33479 5.23603 0
M  V30 12304 H 1160.85 -1.73006 5.74621 0
M  V30 12305 H 1161.92 -0.678789 4.80125 0
M  V30 12306 N 1163.26 -1.53291 -0.366026 0
M  V30 12307 C 1164.68 -1.61144 -0.942849 0
M  V30 12308 C 1165.03 -0.478571 -1.90274 0
M  V30 12309 O 1164.15 0.395069 -2.12763 0
M  V30 12310 C 1164.75 -2.92081 -1.71681 0
M  V30 12311 C 1163.31 -3.0227 -2.24298 0
M  V30 12312 C 1162.45 -2.56436 -1.05526 0
M  V30 12313 H 1165.4 -1.58038 -0.144835 0
M  V30 12314 H 1165.42 -2.79858 -2.57798 0
M  V30 12315 H 1164.94 -3.74513 -1.01793 0
M  V30 12316 H 1163.04 -2.24425 -2.97429 0
M  V30 12317 H 1163.15 -4.07341 -2.5221 0
M  V30 12318 H 1161.51 -2.11301 -1.42211 0
M  V30 12319 H 1162.3 -3.41285 -0.371376 0
M  V30 12320 N 1164.74 0.6258 -1.44643 0
M  V30 12321 C 1165.97 1.41233 -1.51198 0
M  V30 12322 C 1166.39 1.88291 -0.138572 0
M  V30 12323 O 1165.74 1.61151 0.856537 0
M  V30 12324 C 1165.79 2.62908 -2.48117 0
M  V30 12325 O 1165.51 2.1781 -3.80119 0
M  V30 12326 C 1167.02 3.55976 -2.6419 0
M  V30 12327 H 1164.24 0.432954 -0.512632 0
M  V30 12328 H 1166.78 0.76486 -1.89658 0
M  V30 12329 H 1164.93 3.23735 -2.12778 0
M  V30 12330 H 1165.35 2.96732 -4.32493 0
M  V30 12331 H 1166.82 4.37943 -3.3602 0
M  V30 12332 H 1167.3 4.05133 -1.696 0
M  V30 12333 H 1167.91 3.01014 -3.00451 0
M  V30 12334 N 1166.22 1.31629 0.866686 0
M  V30 12335 C 1167.18 1.1951 1.95576 0
M  V30 12336 C 1168.18 0.121319 1.60342 0
M  V30 12337 O 1169.37 0.370832 1.70207 0
M  V30 12338 C 1166.51 0.835201 3.30511 0
M  V30 12339 H 1167.7 2.16285 2.07752 0
M  V30 12340 H 1165.25 1.15288 1.05539 0
M  V30 12341 H 1165.99 -0.131245 3.24034 0
M  V30 12342 H 1165.77 1.61142 3.57457 0
M  V30 12343 H 1167.26 0.774393 4.10357 0
M  V30 12344 N 1167.7 -1.08142 1.14644 0
M  V30 12345 C 1168.93 -1.84318 0.939926 0
M  V30 12346 C 1169.34 -1.81735 -0.511636 0
M  V30 12347 O 1168.7 -1.22297 -1.35461 0
M  V30 12348 C 1168.75 -3.31744 1.43625 0
M  V30 12349 O 1168.47 -3.3435 2.83094 0
M  V30 12350 C 1169.97 -4.24717 1.27007 0
M  V30 12351 H 1167.19 -0.581781 0.334323 0
M  V30 12352 H 1169.74 -1.36561 1.52221 0
M  V30 12353 H 1167.89 -3.7688 0.896664 0
M  V30 12354 H 1168.31 -4.26399 3.05425 0
M  V30 12355 H 1169.78 -5.26262 1.66591 0
M  V30 12356 H 1170.26 -4.38682 0.213257 0
M  V30 12357 H 1170.86 -3.85409 1.79833 0
M  V30 12358 N 1169.18 -0.941978 -1.26351 0
M  V30 12359 C 1170.42 -0.600372 -1.94338 0
M  V30 12360 C 1170.78 0.851343 -1.7254 0
M  V30 12361 O 1170.07 1.60116 -1.0523 0
M  V30 12362 C 1170.27 -0.879481 -3.4641 0
M  V30 12363 C 1170.09 -2.35678 -3.82996 0
M  V30 12364 C 1168.86 -3.01208 -4.05712 0
M  V30 12365 C 1171.06 -3.33531 -3.91486 0
M  V30 12366 N 1169.04 -4.38942 -4.29189 0
M  V30 12367 C 1170.42 -4.56525 -4.19506 0
M  V30 12368 C 1172.47 -3.28544 -3.74117 0
M  V30 12369 C 1171.17 -5.75153 -4.31962 0
M  V30 12370 C 1173.2 -4.46498 -3.87806 0
M  V30 12371 C 1172.56 -5.68275 -4.16225 0
M  V30 12372 H 1168.66 -0.270078 -0.733881 0
M  V30 12373 H 1171.24 -1.21155 -1.52413 0
M  V30 12374 H 1169.42 -0.297345 -3.8726 0
M  V30 12375 H 1171.15 -0.499062 -4.01611 0
M  V30 12376 H 1167.9 -2.51823 -4.01101 0
M  V30 12377 H 1168.33 -5.10236 -4.44959 0
M  V30 12378 H 1172.97 -2.35451 -3.51173 0
M  V30 12379 H 1170.69 -6.68699 -4.53727 0
M  V30 12380 H 1174.27 -4.44173 -3.75768 0
M  V30 12381 H 1173.15 -6.58024 -4.26584 0
M  V30 12382 N 1170.66 1.40747 -0.709091 0
M  V30 12383 C 1171.89 2.05022 -0.254887 0
M  V30 12384 C 1172.29 1.5351 1.10595 0
M  V30 12385 O 1171.64 0.683912 1.70494 0
M  V30 12386 C 1171.7 3.59188 -0.149823 0
M  V30 12387 C 1171.36 4.33557 -1.44489 0
M  V30 12388 C 1172.36 4.61941 -2.3855 0
M  V30 12389 C 1170.04 4.72585 -1.70201 0
M  V30 12390 C 1172.04 5.2833 -3.56575 0
M  V30 12391 C 1169.73 5.38707 -2.88509 0
M  V30 12392 C 1170.72 5.66509 -3.81518 0
M  V30 12393 O 1170.41 6.31267 -4.97752 0
M  V30 12394 H 1170.14 0.666405 -0.113493 0
M  V30 12395 H 1172.7 1.81261 -0.966099 0
M  V30 12396 H 1170.93 3.81742 0.617276 0
M  V30 12397 H 1172.62 4.05008 0.268965 0
M  V30 12398 H 1173.38 4.32259 -2.19947 0
M  V30 12399 H 1169.26 4.50318 -0.986628 0
M  V30 12400 H 1172.81 5.49947 -4.2919 0
M  V30 12401 H 1168.7 5.67809 -3.07023 0
M  V30 12402 H 1169.47 6.49764 -4.97745 0
M  V30 12403 N 1172.13 0.454803 1.50895 0
M  V30 12404 C 1173.04 -0.353495 2.31921 0
M  V30 12405 C 1174.06 -1.01136 1.41589 0
M  V30 12406 O 1175.24 -1.00291 1.74653 0
M  V30 12407 C 1172.3 -1.43032 3.15821 0
M  V30 12408 C 1171.36 -0.790763 4.21954 0
M  V30 12409 C 1170.59 -1.81628 5.01843 0
M  V30 12410 O 1170.82 -3.04078 4.8259 0
M  V30 12411 O 1169.75 -1.39713 5.8546 0
M  V30 12412 H 1173.58 0.308463 3.02129 0
M  V30 12413 H 1171.16 0.216971 1.47816 0
M  V30 12414 H 1173.04 -2.05444 3.67927 0
M  V30 12415 H 1171.72 -2.07605 2.48358 0
M  V30 12416 H 1170.63 -0.128127 3.73881 0
M  V30 12417 H 1171.96 -0.188251 4.9184 0
M  V30 12418 N 1173.61 -1.56489 0.186789 0
M  V30 12419 C 1174.56 -2.18703 -0.737402 0
M  V30 12420 C 1175.53 -1.13171 -1.21579 0
M  V30 12421 O 1176.71 -1.41388 -1.28118 0
M  V30 12422 C 1173.85 -2.84394 -1.95484 0
M  V30 12423 C 1172.97 -4.04429 -1.51859 0
M  V30 12424 C 1172.1 -4.58001 -2.69089 0
M  V30 12425 C 1171.14 -5.70412 -2.22029 0
M  V30 12426 N 1170.28 -6.18425 -3.32407 0
M  V30 12427 H 1175.12 -2.97327 -0.200105 0
M  V30 12428 H 1172.65 -1.46842 -0.087032 0
M  V30 12429 H 1174.61 -3.20646 -2.66912 0
M  V30 12430 H 1173.24 -2.08347 -2.46559 0
M  V30 12431 H 1172.29 -3.73895 -0.70048 0
M  V30 12432 H 1173.61 -4.85756 -1.13327 0
M  V30 12433 H 1172.76 -4.96515 -3.48652 0
M  V30 12434 H 1171.5 -3.75764 -3.1089 0
M  V30 12435 H 1170.5 -5.31434 -1.40918 0
M  V30 12436 H 1171.73 -6.54461 -1.81268 0
M  V30 12437 H 1169.68 -5.39113 -3.73755 0
M  V30 12438 H 1169.59 -6.94782 -2.98017 0
M  V30 12439 H 1170.86 -6.61592 -4.12209 0
M  V30 12440 N 1175.09 0.086862 -1.5736 0
M  V30 12441 C 1176.37 0.820984 -1.77537 0
M  V30 12442 C 1176.75 1.96534 -0.770554 0
M  V30 12443 O 1176.09 2.27629 0.199334 0
M  V30 12444 C 1176.3 1.30793 -3.23565 0
M  V30 12445 C 1177.65 1.7474 -3.86977 0
M  V30 12446 O 1178.68 1.40396 -3.27364 0
M  V30 12447 O 1177.54 2.38271 -4.91822 0
M  V30 12448 H 1174.63 0.392228 -0.72807 0
M  V30 12449 H 1177.18 0.0681051 -1.69563 0
M  V30 12450 H 1175.95 0.488409 -3.8824 0
M  V30 12451 H 1175.57 2.12258 -3.36203 0
M  V30 12452 N 1176.57 1.53483 0.357892 0
M  V30 12453 C 1177.84 1.60649 1.11585 0
M  V30 12454 C 1178.22 0.418789 2.06904 0
M  V30 12455 O 1177.57 -0.590279 2.20744 0
M  V30 12456 C 1177.78 2.96046 1.84818 0
M  V30 12457 C 1179.13 3.50895 2.39076 0
M  V30 12458 O 1180.15 2.98126 1.94934 0
M  V30 12459 O 1179.01 4.43163 3.19794 0
M  V30 12460 H 1176.11 0.649202 0.512315 0
M  V30 12461 H 1178.65 1.65826 0.360537 0
M  V30 12462 H 1177.43 3.73929 1.15296 0
M  V30 12463 H 1177.05 2.94395 2.6724 0
M  V30 12464 N 1178.05 -0.61812 1.44973 0
M  V30 12465 C 1178.98 -1.74277 1.47318 0
M  V30 12466 C 1179.96 -1.59203 0.330627 0
M  V30 12467 O 1181.14 -1.80909 0.529558 0
M  V30 12468 C 1178.27 -3.11994 1.31823 0
M  V30 12469 C 1177.31 -3.45685 2.49809 0
M  V30 12470 S 1178.15 -3.41704 4.12309 0
M  V30 12471 C 1179.3 -4.82019 3.9926 0
M  V30 12472 H 1179.54 -1.72023 2.42478 0
M  V30 12473 H 1177.07 -0.793867 1.32428 0
M  V30 12474 H 1179.03 -3.9146 1.2357 0
M  V30 12475 H 1177.69 -3.11774 0.381521 0
M  V30 12476 H 1176.88 -4.45931 2.34864 0
M  V30 12477 H 1176.48 -2.73711 2.54869 0
M  V30 12478 H 1178.77 -5.71567 3.63754 0
M  V30 12479 H 1179.72 -5.02019 4.99382 0
M  V30 12480 H 1180.13 -4.57205 3.31095 0
M  V30 12481 N 1179.52 -1.32087 -0.859693 0
M  V30 12482 C 1180.47 -1.20549 -1.98924 0
M  V30 12483 C 1181.47 -0.111422 -1.69033 0
M  V30 12484 O 1182.67 -0.27401 -1.77902 0
M  V30 12485 H 1179.05 -0.373538 -0.652667 0
M  V30 12486 H 1181.02 -2.16091 -2.05785 0
M  V30 12487 C 1179.77 -0.940226 -3.34746 0
M  V30 12488 H 1179.09 -1.77427 -3.58273 0
M  V30 12489 H 1180.53 -0.899712 -4.14344 0
M  V30 12490 C 1178.99 0.357042 -3.35003 0
M  V30 12491 O 1179.52 1.37054 -3.77596 0
M  V30 12492 N 1177.72 0.37723 -2.88141 0
M  V30 12493 H 1177.27 -0.448051 -2.53674 0
M  V30 12494 H 1177.23 1.24509 -2.88695 0
M  V30 12495 N 1181 1.07532 -1.15215 0
M  V30 12496 C 1182.23 1.83817 -0.949687 0
M  V30 12497 C 1182.64 1.82004 0.501991 0
M  V30 12498 O 1182 1.23014 1.34811 0
M  V30 12499 C 1182.05 3.30978 -1.45382 0
M  V30 12500 O 1181.77 3.32844 -2.84863 0
M  V30 12501 C 1183.27 4.24037 -1.29257 0
M  V30 12502 H 1180.49 0.58 -0.337404 0
M  V30 12503 H 1183.04 1.35752 -1.52944 0
M  V30 12504 H 1181.19 3.76399 -0.916638 0
M  V30 12505 H 1181.61 4.24773 -3.07682 0
M  V30 12506 H 1183.08 5.25371 -1.69379 0
M  V30 12507 H 1183.56 4.38563 -0.236519 0
M  V30 12508 H 1184.16 3.8445 -1.81874 0
M  V30 12509 N 1182.48 0.948665 1.2585 0
M  V30 12510 C 1183.71 0.616741 1.98018 0
M  V30 12511 C 1184.13 -0.803005 1.70098 0
M  V30 12512 O 1183.49 -1.54208 0.953392 0
M  V30 12513 C 1183.54 0.874429 3.49837 0
M  V30 12514 O 1182.64 -0.0497568 4.1237 0
M  V30 12515 H 1181.98 0.235112 0.620982 0
M  V30 12516 H 1184.51 1.27364 1.60124 0
M  V30 12517 H 1184.52 0.798309 4.00114 0
M  V30 12518 H 1183.2 1.90922 3.69488 0
M  V30 12519 H 1181.77 0.0780591 3.72818 0
M  V30 12520 N 1183.96 -1.40369 0.716545 0
M  V30 12521 C 1185.24 -1.94737 0.183576 0
M  V30 12522 C 1185.62 -1.65464 -1.31092 0
M  V30 12523 O 1184.96 -0.972832 -2.06756 0
M  V30 12524 C 1185.17 -3.45438 0.497339 0
M  V30 12525 C 1186.52 -4.2235 0.436526 0
M  V30 12526 O 1187.55 -3.53553 0.433454 0
M  V30 12527 O 1186.4 -5.44923 0.41489 0
M  V30 12528 H 1183.5 -0.82655 0.0272785 0
M  V30 12529 H 1186.04 -1.49972 0.794143 0
M  V30 12530 H 1184.82 -3.60107 1.53097 0
M  V30 12531 H 1184.44 -3.97342 -0.143141 0
M  V30 12532 N 1185.44 -0.462799 -1.50652 0
M  V30 12533 C 1186.37 0.381469 -2.24989 0
M  V30 12534 C 1187.35 1.00328 -1.27957 0
M  V30 12535 O 1188.53 1.04082 -1.5716 0
M  V30 12536 C 1185.66 1.53378 -3.01981 0
M  V30 12537 C 1184.7 1.03017 -4.13872 0
M  V30 12538 S 1185.54 -0.048447 -5.35478 0
M  V30 12539 C 1186.69 1.10794 -6.16016 0
M  V30 12540 H 1186.93 -0.249578 -2.96251 0
M  V30 12541 H 1184.46 -0.247583 -1.52402 0
M  V30 12542 H 1186.42 2.19425 -3.46934 0
M  V30 12543 H 1185.08 2.13632 -2.30261 0
M  V30 12544 H 1184.27 1.8926 -4.67115 0
M  V30 12545 H 1183.87 0.447548 -3.71313 0
M  V30 12546 H 1186.17 2.02125 -6.46646 0
M  V30 12547 H 1187.11 0.614937 -7.05425 0
M  V30 12548 H 1187.52 1.35802 -5.47922 0
M  V30 12549 N 1186.91 1.56388 -0.195085 0
M  V30 12550 C 1187.86 2.15705 0.738595 0
M  V30 12551 C 1188.85 1.09782 1.1763 0
M  V30 12552 O 1190.04 1.35844 1.1347 0
M  V30 12553 C 1187.17 2.81994 1.95791 0
M  V30 12554 C 1186.26 3.95108 1.54111 0
M  V30 12555 N 1186.65 4.98856 0.835261 0
M  V30 12556 C 1184.94 4.06709 1.8304 0
M  V30 12557 C 1185.65 5.78317 0.626417 0
M  V30 12558 N 1184.62 5.30746 1.17513 0
M  V30 12559 H 1188.42 2.93281 0.190597 0
M  V30 12560 H 1185.94 1.62399 0.00470391 0
M  V30 12561 H 1187.93 3.22883 2.63728 0
M  V30 12562 H 1186.59 2.05906 2.51063 0
M  V30 12563 H 1187.61 5.1557 0.490732 0
M  V30 12564 H 1184.28 3.41749 2.39821 0
M  V30 12565 H 1185.67 6.71867 0.0664935 0
M  V30 12566 N 1188.39 -0.0785156 1.57404 0
M  V30 12567 C 1189.8 -0.631132 1.75709 0
M  V30 12568 C 1190.15 -1.78261 0.819605 0
M  V30 12569 O 1189.28 -2.164 0.00206912 0
M  V30 12570 C 1189.87 -1.15168 3.18625 0
M  V30 12571 C 1188.43 -1.65021 3.38297 0
M  V30 12572 C 1187.58 -0.566773 2.71446 0
M  V30 12573 H 1190.53 0.147631 1.58012 0
M  V30 12574 H 1190.55 -2.02065 3.22413 0
M  V30 12575 H 1190.06 -0.313399 3.86833 0
M  V30 12576 H 1188.17 -2.51196 2.75194 0
M  V30 12577 H 1188.28 -1.73179 4.46706 0
M  V30 12578 H 1186.64 -1.01021 2.33809 0
M  V30 12579 H 1187.43 0.261204 3.42305 0
M  V30 12580 N 1189.87 -1.5367 -0.349747 0
M  V30 12581 C 1191.12 -1.70618 -1.09068 0
M  V30 12582 C 1191.45 -0.466133 -1.88832 0
M  V30 12583 O 1190.7 0.552079 -1.87751 0
M  V30 12584 C 1191 -2.91753 -2.06434 0
M  V30 12585 C 1190.67 -4.27614 -1.43029 0
M  V30 12586 C 1189.33 -4.64555 -1.25466 0
M  V30 12587 C 1191.68 -5.12037 -0.972987 0
M  V30 12588 C 1189.01 -5.83543 -0.607807 0
M  V30 12589 C 1191.36 -6.31685 -0.340073 0
M  V30 12590 C 1190.02 -6.67327 -0.152069 0
M  V30 12591 H 1189.29 -0.624334 -0.399108 0
M  V30 12592 H 1191.94 -1.87879 -0.370657 0
M  V30 12593 H 1190.25 -2.6907 -2.84796 0
M  V30 12594 H 1191.94 -3.02059 -2.63744 0
M  V30 12595 H 1188.53 -3.98535 -1.57696 0
M  V30 12596 H 1192.72 -4.84035 -1.09655 0
M  V30 12597 H 1187.97 -6.09737 -0.450705 0
M  V30 12598 H 1192.15 -6.96396 0.0223973 0
M  V30 12599 H 1189.77 -7.59388 0.35121 0
M  V30 12600 N 1191.35 0.610423 -1.45298 0
M  V30 12601 C 1192.6 1.36558 -1.48441 0
M  V30 12602 C 1192.91 1.95173 -0.129137 0
M  V30 12603 O 1194.12 2.71473 -0.0381956 0
M  V30 12604 C 1192.57 2.47349 -2.61431 0
M  V30 12605 C 1192.18 1.95158 -4.03258 0
M  V30 12606 C 1193.92 3.24383 -2.73817 0
M  V30 12607 C 1191.83 3.03414 -5.07635 0
M  V30 12608 H 1190.76 0.513253 -0.552347 0
M  V30 12609 H 1193.41 0.654535 -1.7143 0
M  V30 12610 H 1191.79 3.21125 -2.31721 0
M  V30 12611 H 1192.97 1.2811 -4.42634 0
M  V30 12612 H 1191.28 1.30878 -3.95297 0
M  V30 12613 H 1193.88 4.05123 -3.48969 0
M  V30 12614 H 1194.22 3.75205 -1.80352 0
M  V30 12615 H 1194.76 2.57705 -3.03039 0
M  V30 12616 H 1191.5 2.57512 -6.028 0
M  V30 12617 H 1191.02 3.69039 -4.72833 0
M  V30 12618 H 1192.69 3.67844 -5.32259 0
M  V30 12619 N 1192.83 1.32541 0.852676 0
M  V30 12620 C 1193.78 1.18224 1.94954 0
M  V30 12621 C 1194.76 0.0886514 1.60656 0
M  V30 12622 O 1195.95 0.315359 1.74168 0
M  V30 12623 C 1193.08 0.909484 3.31034 0
M  V30 12624 C 1192.17 2.04486 3.71546 0
M  V30 12625 N 1192.56 3.29362 3.83868 0
M  V30 12626 C 1190.86 1.94848 4.01186 0
M  V30 12627 C 1191.56 4.0374 4.18771 0
M  V30 12628 N 1190.53 3.32054 4.30396 0
M  V30 12629 H 1194.34 2.12893 2.02617 0
M  V30 12630 H 1191.85 1.24349 1.04456 0
M  V30 12631 H 1193.85 0.787865 4.09388 0
M  V30 12632 H 1192.51 -0.0288163 3.24687 0
M  V30 12633 H 1193.52 3.64274 3.68137 0
M  V30 12634 H 1190.19 1.08591 4.0313 0
M  V30 12635 H 1191.58 5.11434 4.35757 0
M  V30 12636 N 1194.3 -1.0692 1.15784 0
M  V30 12637 C 1195.72 -1.61069 0.944123 0
M  V30 12638 C 1196.07 -1.8936 -0.513522 0
M  V30 12639 O 1195.19 -1.66232 -1.38549 0
M  V30 12640 C 1195.79 -2.9263 1.70743 0
M  V30 12641 C 1194.35 -3.43505 1.53887 0
M  V30 12642 C 1193.49 -2.17495 1.72021 0
M  V30 12643 H 1196.44 -0.89951 1.30746 0
M  V30 12644 H 1196.46 -3.61757 1.17951 0
M  V30 12645 H 1195.98 -2.72007 2.76828 0
M  V30 12646 H 1194.08 -3.69201 0.502153 0
M  V30 12647 H 1194.19 -4.19254 2.31868 0
M  V30 12648 H 1192.55 -2.27407 1.1471 0
M  V30 12649 H 1193.34 -1.99362 2.79481 0
M  V30 12650 N 1195.78 -0.955326 -1.25345 0
M  V30 12651 C 1196.71 -0.494145 -2.28211 0
M  V30 12652 C 1197.69 0.459875 -1.63766 0
M  V30 12653 O 1198.88 0.358679 -1.90859 0
M  V30 12654 C 1196.01 0.228228 -3.46549 0
M  V30 12655 C 1194.96 -0.640601 -4.23179 0
M  V30 12656 C 1194.29 0.212553 -5.34277 0
M  V30 12657 C 1195.59 -1.91906 -4.85767 0
M  V30 12658 H 1197.28 -1.35391 -2.67039 0
M  V30 12659 H 1194.83 -0.652462 -1.2837 0
M  V30 12660 H 1196.78 0.561995 -4.17636 0
M  V30 12661 H 1195.51 1.12224 -3.06714 0
M  V30 12662 H 1194.16 -0.957462 -3.53876 0
M  V30 12663 H 1193.81 1.10634 -4.90682 0
M  V30 12664 H 1193.51 -0.365473 -5.86462 0
M  V30 12665 H 1195.04 0.541271 -6.08196 0
M  V30 12666 H 1196.45 -1.65165 -5.48993 0
M  V30 12667 H 1194.85 -2.44279 -5.48131 0
M  V30 12668 H 1195.92 -2.62173 -4.07914 0
M  V30 12669 N 1197.26 1.39987 -0.723979 0
M  V30 12670 C 1198.49 2.0556 -0.275634 0
M  V30 12671 C 1198.91 1.54207 1.07711 0
M  V30 12672 O 1198.27 0.681041 1.68022 0
M  V30 12673 C 1198.32 3.59551 -0.27485 0
M  V30 12674 O 1197.42 4.05685 0.741182 0
M  V30 12675 H 1196.76 0.651634 -0.12755 0
M  V30 12676 H 1199.29 1.79229 -0.986814 0
M  V30 12677 H 1199.3 4.07837 -0.115425 0
M  V30 12678 H 1197.98 3.96291 -1.26198 0
M  V30 12679 H 1196.55 3.6884 0.548795 0
M  V30 12680 N 1198.74 0.470782 1.50404 0
M  V30 12681 C 1199.7 -0.312227 2.27063 0
M  V30 12682 C 1200.7 -0.920709 1.31832 0
M  V30 12683 O 1201.89 -0.789937 1.5526 0
M  V30 12684 C 1199.02 -1.44477 3.0877 0
M  V30 12685 H 1200.22 0.36006 2.97731 0
M  V30 12686 H 1197.77 0.224837 1.54674 0
M  V30 12687 H 1198.51 -2.15212 2.42599 0
M  V30 12688 H 1198.29 -1.01426 3.78755 0
M  V30 12689 H 1199.78 -1.99713 3.66749 0
M  V30 12690 N 1200.22 -1.56282 0.203376 0
M  V30 12691 C 1201.18 -2.18233 -0.700489 0
M  V30 12692 C 1202.18 -1.13908 -1.13497 0
M  V30 12693 O 1203.37 -1.39246 -1.04672 0
M  V30 12694 C 1200.5 -2.79107 -1.95735 0
M  V30 12695 H 1201.7 -2.99469 -0.160649 0
M  V30 12696 H 1199.25 -1.56232 -0.0462475 0
M  V30 12697 H 1199.98 -2.01691 -2.53951 0
M  V30 12698 H 1199.77 -3.55486 -1.65446 0
M  V30 12699 H 1201.26 -3.2665 -2.60172 0
M  V30 12700 N 1201.7 0.070167 -1.57444 0
M  V30 12701 C 1202.94 0.770153 -1.87607 0
M  V30 12702 C 1203.27 1.77143 -0.795875 0
M  V30 12703 O 1202.55 1.93533 0.193674 0
M  V30 12704 C 1202.83 1.47668 -3.2843 0
M  V30 12705 C 1202.69 0.491712 -4.47104 0
M  V30 12706 C 1204 2.42118 -3.67514 0
M  V30 12707 H 1201.12 0.278519 -0.682346 0
M  V30 12708 H 1203.77 0.0333184 -1.89971 0
M  V30 12709 H 1201.92 2.10476 -3.26546 0
M  V30 12710 H 1203.59 -0.131283 -4.61113 0
M  V30 12711 H 1201.83 -0.192817 -4.33371 0
M  V30 12712 H 1202.5 1.02372 -5.42424 0
M  V30 12713 H 1204.98 1.89387 -3.70502 0
M  V30 12714 H 1203.85 2.88556 -4.66933 0
M  V30 12715 H 1204.11 3.26995 -2.97534 0
M  V30 12716 N 1203.17 1.53854 0.341593 0
M  V30 12717 C 1204.45 1.61823 1.09875 0
M  V30 12718 C 1204.83 0.440711 2.06448 0
M  V30 12719 O 1204.18 -0.566833 2.21358 0
M  V30 12720 C 1204.39 2.9799 1.81668 0
M  V30 12721 C 1205.74 3.53411 2.35341 0
M  V30 12722 O 1206.76 3.00177 1.91761 0
M  V30 12723 O 1205.62 4.4653 3.15076 0
M  V30 12724 H 1202.71 0.654599 0.5054 0
M  V30 12725 H 1205.26 1.66199 0.342929 0
M  V30 12726 H 1204.03 3.7513 1.11323 0
M  V30 12727 H 1203.65 2.97213 2.64103 0
M  V30 12728 N 1204.65 -0.602709 1.4562 0
M  V30 12729 C 1206.06 -1.1847 1.44297 0
M  V30 12730 C 1206.41 -1.95434 0.17316 0
M  V30 12731 O 1205.54 -2.03894 -0.724986 0
M  V30 12732 C 1206.13 -2.15508 2.61422 0
M  V30 12733 C 1204.69 -2.69073 2.63204 0
M  V30 12734 C 1203.84 -1.44568 2.36633 0
M  V30 12735 H 1206.79 -0.391745 1.53789 0
M  V30 12736 H 1206.81 -2.98628 2.35799 0
M  V30 12737 H 1206.32 -1.59464 3.53826 0
M  V30 12738 H 1204.42 -3.29042 1.7482 0
M  V30 12739 H 1204.54 -3.13173 3.62573 0
M  V30 12740 H 1202.9 -1.73692 1.86287 0
M  V30 12741 H 1203.68 -0.903852 3.31188 0
M  V30 12742 N 1206.13 -1.32992 -0.845635 0
M  V30 12743 C 1207.09 -1.22607 -1.9365 0
M  V30 12744 C 1208.09 -0.146812 -1.60128 0
M  V30 12745 O 1209.28 -0.397863 -1.69596 0
M  V30 12746 C 1206.41 -0.887677 -3.2914 0
M  V30 12747 H 1207.61 -2.19563 -2.04285 0
M  V30 12748 H 1205.16 -1.16952 -1.03691 0
M  V30 12749 H 1205.9 0.0796777 -3.24202 0
M  V30 12750 H 1205.68 -1.66808 -3.54849 0
M  V30 12751 H 1207.17 -0.83958 -4.09073 0
M  V30 12752 N 1207.61 1.06304 -1.1635 0
M  V30 12753 C 1208.85 1.79516 -0.956328 0
M  V30 12754 C 1209.21 1.85506 0.510438 0
M  V30 12755 O 1208.5 1.33556 1.37381 0
M  V30 12756 C 1208.7 3.23589 -1.51741 0
M  V30 12757 C 1208.52 3.31639 -3.0372 0
M  V30 12758 C 1207.29 3.41579 -3.7236 0
M  V30 12759 C 1209.49 3.2151 -4.01417 0
M  V30 12760 N 1207.47 3.38643 -5.12049 0
M  V30 12761 C 1208.85 3.25815 -5.27489 0
M  V30 12762 C 1210.9 3.05393 -3.93242 0
M  V30 12763 C 1209.6 3.1566 -6.46337 0
M  V30 12764 C 1211.63 2.96577 -5.1166 0
M  V30 12765 C 1210.99 3.01504 -6.36612 0
M  V30 12766 H 1207.09 0.669727 -0.40372 0
M  V30 12767 H 1209.67 1.2681 -1.4774 0
M  V30 12768 H 1207.85 3.7469 -1.02282 0
M  V30 12769 H 1209.58 3.84977 -1.248 0
M  V30 12770 H 1206.33 3.46371 -3.22992 0
M  V30 12771 H 1206.76 3.40674 -5.85038 0
M  V30 12772 H 1211.4 3.0043 -2.97492 0
M  V30 12773 H 1209.12 3.1938 -7.42308 0
M  V30 12774 H 1212.7 2.85195 -5.07105 0
M  V30 12775 H 1211.58 2.9474 -7.26704 0
M  V30 12776 N 1209.09 0.96196 1.24836 0
M  V30 12777 C 1210 0.494876 2.29321 0
M  V30 12778 C 1211.01 -0.441363 1.68309 0
M  V30 12779 O 1212.19 -0.315814 1.98908 0
M  V30 12780 C 1209.25 -0.212944 3.46045 0
M  V30 12781 C 1208.31 0.762411 4.22476 0
M  V30 12782 C 1207.55 0.0882756 5.33627 0
M  V30 12783 O 1207.77 -1.12459 5.59204 0
M  V30 12784 O 1206.7 0.777529 5.96857 0
M  V30 12785 H 1210.53 1.36333 2.7138 0
M  V30 12786 H 1208.11 0.728738 1.30421 0
M  V30 12787 H 1210 -0.610805 4.1695 0
M  V30 12788 H 1208.67 -1.05645 3.05975 0
M  V30 12789 H 1207.58 1.21062 3.5397 0
M  V30 12790 H 1208.91 1.57416 4.66349 0
M  V30 12791 N 1210.56 -1.39601 0.731392 0
M  V30 12792 C 1211.53 -2.28992 0.0976037 0
M  V30 12793 C 1212.53 -1.46135 -0.670917 0
M  V30 12794 O 1213.72 -1.66856 -0.50047 0
M  V30 12795 C 1210.85 -3.29582 -0.871124 0
M  V30 12796 H 1212.04 -2.86541 0.885112 0
M  V30 12797 H 1209.59 -1.48188 0.497002 0
M  V30 12798 H 1210.33 -2.77082 -1.68512 0
M  V30 12799 H 1210.11 -3.9077 -0.322735 0
M  V30 12800 H 1211.6 -3.96479 -1.31126 0
M  V30 12801 N 1212.04 -0.478751 -1.50152 0
M  V30 12802 C 1212.99 0.311426 -2.28689 0
M  V30 12803 C 1213.96 0.980375 -1.34082 0
M  V30 12804 O 1215.14 0.991337 -1.63025 0
M  V30 12805 C 1212.28 1.38302 -3.16175 0
M  V30 12806 C 1211.4 0.728084 -4.2582 0
M  V30 12807 C 1210.53 1.77822 -5.00552 0
M  V30 12808 C 1209.57 1.10395 -6.02063 0
M  V30 12809 N 1208.71 2.09728 -6.70044 0
M  V30 12810 H 1213.55 -0.364592 -2.95761 0
M  V30 12811 H 1211.09 -0.191645 -1.45846 0
M  V30 12812 H 1213.04 2.01606 -3.65255 0
M  V30 12813 H 1211.67 2.0281 -2.51133 0
M  V30 12814 H 1210.73 -0.0177026 -3.80396 0
M  V30 12815 H 1212.04 0.196209 -4.98414 0
M  V30 12816 H 1211.19 2.48687 -5.53389 0
M  V30 12817 H 1209.93 2.34392 -4.27682 0
M  V30 12818 H 1208.94 0.38096 -5.48479 0
M  V30 12819 H 1210.16 0.545045 -6.76909 0
M  V30 12820 H 1208.11 2.65301 -5.9996 0
M  V30 12821 H 1208.02 1.61546 -7.38538 0
M  V30 12822 H 1209.29 2.7995 -7.27495 0
M  V30 12823 N 1213.52 1.56172 -0.211661 0
M  V30 12824 C 1214.75 2.02874 0.430905 0
M  V30 12825 C 1215.17 1.09064 1.53254 0
M  V30 12826 O 1214.53 0.0770408 1.81136 0
M  V30 12827 C 1214.58 3.4789 0.948933 0
M  V30 12828 O 1213.68 3.57213 2.0609 0
M  V30 12829 H 1213.02 0.656614 0.0987607 0
M  V30 12830 H 1215.55 2.01964 -0.327399 0
M  V30 12831 H 1215.56 3.88015 1.2613 0
M  V30 12832 H 1214.24 4.15656 0.142584 0
M  V30 12833 H 1212.81 3.28971 1.75592 0
M  V30 12834 N 1215 -0.0618163 1.57479 0
M  V30 12835 C 1216.28 -0.792636 1.7882 0
M  V30 12836 C 1216.66 -1.95283 0.801724 0
M  V30 12837 O 1216 -2.27917 -0.163095 0
M  V30 12838 C 1216.21 -1.25629 3.25605 0
M  V30 12839 C 1217.56 -1.68561 3.89708 0
M  V30 12840 O 1218.59 -1.35171 3.29556 0
M  V30 12841 O 1217.44 -2.30417 4.95551 0
M  V30 12842 H 1214.54 -0.380595 0.734218 0
M  V30 12843 H 1217.08 -0.0411205 1.6965 0
M  V30 12844 H 1215.86 -0.426582 3.88968 0
M  V30 12845 H 1215.48 -2.06882 3.39537 0
M  V30 12846 N 1216.48 -1.54033 -0.333429 0
M  V30 12847 C 1217.72 -1.72958 -1.07038 0
M  V30 12848 C 1218.08 -0.492055 -1.86002 0
M  V30 12849 O 1217.37 0.515453 -1.84536 0
M  V30 12850 C 1217.56 -2.93926 -2.03328 0
M  V30 12851 C 1217.39 -4.29324 -1.33831 0
M  V30 12852 C 1216.16 -4.93647 -1.07892 0
M  V30 12853 C 1218.36 -5.08664 -0.75929 0
M  V30 12854 N 1216.34 -6.12897 -0.35082 0
M  V30 12855 C 1217.71 -6.19788 -0.162281 0
M  V30 12856 C 1219.77 -4.93491 -0.661131 0
M  V30 12857 C 1218.47 -7.17394 0.523351 0
M  V30 12858 C 1220.5 -5.91399 0.0107794 0
M  V30 12859 C 1219.86 -7.01867 0.596775 0
M  V30 12860 H 1215.96 -0.685828 -0.375718 0
M  V30 12861 H 1218.54 -1.91478 -0.35274 0
M  V30 12862 H 1216.71 -2.76889 -2.72373 0
M  V30 12863 H 1218.45 -3.01524 -2.69936 0
M  V30 12864 H 1215.2 -4.53392 -1.36868 0
M  V30 12865 H 1215.63 -6.77 -0.00120039 0
M  V30 12866 H 1220.27 -4.08242 -1.09991 0
M  V30 12867 H 1217.99 -8.02209 0.973994 0
M  V30 12868 H 1221.57 -5.81736 0.0862353 0
M  V30 12869 H 1220.45 -7.76327 1.10845 0
M  V30 12870 N 1217.95 0.594978 -1.45938 0
M  V30 12871 C 1218.86 1.73296 -1.58132 0
M  V30 12872 C 1219.88 1.67665 -0.465245 0
M  V30 12873 O 1221.06 1.87794 -0.727684 0
M  V30 12874 C 1218.12 3.09783 -1.55677 0
M  V30 12875 C 1217.18 3.26772 -2.78422 0
M  V30 12876 C 1216.42 4.56748 -2.76075 0
M  V30 12877 O 1216.64 5.39867 -1.84119 0
M  V30 12878 O 1215.57 4.76721 -3.67452 0
M  V30 12879 H 1219.4 1.65957 -2.54346 0
M  V30 12880 H 1216.98 0.760572 -1.28591 0
M  V30 12881 H 1218.87 3.91077 -1.56961 0
M  V30 12882 H 1217.54 3.17585 -0.626191 0
M  V30 12883 H 1216.45 2.45018 -2.82696 0
M  V30 12884 H 1217.78 3.23853 -3.70648 0
M  V30 12885 N 1219.43 1.33438 0.838571 0
M  V30 12886 C 1220.68 1.24259 1.58879 0
M  V30 12887 C 1220.99 -0.189957 1.94675 0
M  V30 12888 O 1222.2 -0.40376 2.68481 0
M  V30 12889 C 1220.66 2.1773 2.86569 0
M  V30 12890 C 1220.26 3.66156 2.58135 0
M  V30 12891 C 1222.01 2.17424 3.64591 0
M  V30 12892 C 1219.92 4.5154 3.81923 0
M  V30 12893 H 1218.85 0.461534 0.59624 0
M  V30 12894 H 1221.5 1.58504 0.924588 0
M  V30 12895 H 1219.88 1.76418 3.54532 0
M  V30 12896 H 1221.05 4.1591 1.98382 0
M  V30 12897 H 1219.37 3.68754 1.93416 0
M  V30 12898 H 1221.96 2.78446 4.56478 0
M  V30 12899 H 1222.31 1.16939 3.99539 0
M  V30 12900 H 1222.84 2.571 3.03553 0
M  V30 12901 H 1219.58 5.52902 3.52107 0
M  V30 12902 H 1219.1 4.06529 4.41015 0
M  V30 12903 H 1220.78 4.65359 4.495 0
M  V30 12904 N 1220.91 -1.05686 1.16912 0
M  V30 12905 C 1222.14 -1.82018 0.977392 0
M  V30 12906 C 1222.55 -1.83072 -0.477636 0
M  V30 12907 O 1221.89 -1.25296 -1.34338 0
M  V30 12908 C 1221.95 -3.29592 1.4356 0
M  V30 12909 C 1221.62 -3.5223 2.91175 0
M  V30 12910 C 1222.61 -3.44767 3.89142 0
M  V30 12911 C 1220.3 -3.79353 3.29236 0
M  V30 12912 C 1222.29 -3.64104 5.2317 0
M  V30 12913 C 1219.98 -3.98339 4.63432 0
M  V30 12914 C 1220.98 -3.90713 5.60207 0
M  V30 12915 O 1220.67 -4.09175 6.91976 0
M  V30 12916 H 1220.4 -0.580578 0.346273 0
M  V30 12917 H 1222.95 -1.34199 1.55498 0
M  V30 12918 H 1221.18 -3.78302 0.80153 0
M  V30 12919 H 1222.87 -3.87435 1.21032 0
M  V30 12920 H 1223.64 -3.23796 3.61083 0
M  V30 12921 H 1219.52 -3.84395 2.54482 0
M  V30 12922 H 1223.06 -3.58068 5.98693 0
M  V30 12923 H 1218.96 -4.18801 4.91198 0
M  V30 12924 H 1219.73 -4.26429 6.98642 0
M  V30 12925 N 1222.39 -0.968567 -1.24324 0
M  V30 12926 C 1223.34 -0.498817 -2.25345 0
M  V30 12927 C 1224.31 0.456082 -1.59716 0
M  V30 12928 O 1225.49 0.366254 -1.87252 0
M  V30 12929 C 1222.63 0.204027 -3.44496 0
M  V30 12930 C 1221.74 -0.789741 -4.2472 0
M  V30 12931 C 1220.88 -0.0629156 -5.31163 0
M  V30 12932 C 1219.92 -1.04669 -6.03084 0
M  V30 12933 N 1219.05 -0.349812 -7.01228 0
M  V30 12934 H 1223.89 -1.36511 -2.64894 0
M  V30 12935 H 1221.43 -0.684288 -1.30215 0
M  V30 12936 H 1223.39 0.628223 -4.12443 0
M  V30 12937 H 1222.02 1.03426 -3.05782 0
M  V30 12938 H 1221.07 -1.33237 -3.56303 0
M  V30 12939 H 1222.38 -1.53988 -4.74436 0
M  V30 12940 H 1221.54 0.419233 -6.0525 0
M  V30 12941 H 1220.28 0.719915 -4.82357 0
M  V30 12942 H 1219.28 -1.53971 -5.278 0
M  V30 12943 H 1220.51 -1.82998 -6.53979 0
M  V30 12944 H 1218.45 0.414026 -6.54692 0
M  V30 12945 H 1218.37 -1.03881 -7.48829 0
M  V30 12946 H 1219.64 0.11034 -7.79422 0
M  V30 12947 N 1223.87 1.39211 -0.738786 0
M  V30 12948 C 1224.83 2.28937 -0.109746 0
M  V30 12949 C 1225.83 1.46488 0.663157 0
M  V30 12950 O 1227.02 1.67119 0.491614 0
M  V30 12951 C 1224.15 3.30039 0.853633 0
M  V30 12952 H 1225.34 2.86068 -0.900295 0
M  V30 12953 H 1222.9 1.47922 -0.504853 0
M  V30 12954 H 1223.63 2.77971 1.6704 0
M  V30 12955 H 1223.42 3.90935 0.302007 0
M  V30 12956 H 1224.91 3.97169 1.29022 0
M  V30 12957 N 1225.34 0.486708 1.49896 0
M  V30 12958 C 1226.59 -0.0646197 2.01596 0
M  V30 12959 C 1226.91 -1.39363 1.37249 0
M  V30 12960 O 1228.11 -2.03082 1.80194 0
M  V30 12961 C 1226.57 -0.16565 3.59519 0
M  V30 12962 C 1226.18 1.15586 4.32832 0
M  V30 12963 C 1227.92 -0.668103 4.1921 0
M  V30 12964 C 1225.83 1.01778 5.82576 0
M  V30 12965 H 1224.76 -0.0279241 0.753483 0
M  V30 12966 H 1227.41 0.623969 1.72566 0
M  V30 12967 H 1225.79 -0.918372 3.85204 0
M  V30 12968 H 1226.96 1.92076 4.1886 0
M  V30 12969 H 1225.28 1.59064 3.84822 0
M  V30 12970 H 1227.88 -0.788698 5.28851 0
M  V30 12971 H 1228.22 -1.66339 3.81624 0
M  V30 12972 H 1228.75 0.0276746 3.9779 0
M  V30 12973 H 1225.49 1.9869 6.24662 0
M  V30 12974 H 1225.01 0.293527 5.99081 0
M  V30 12975 H 1226.69 0.690693 6.43303 0
M  V30 12976 N 1226.82 -1.56058 0.219941 0
M  V30 12977 C 1227.79 -2.18964 -0.677303 0
M  V30 12978 C 1228.79 -1.15105 -1.12283 0
M  V30 12979 O 1229.98 -1.40348 -1.03189 0
M  V30 12980 C 1227.11 -2.81167 -1.92764 0
M  V30 12981 H 1228.3 -2.99623 -0.128877 0
M  V30 12982 H 1225.85 -1.56272 -0.0296744 0
M  V30 12983 H 1226.59 -2.04374 -2.51797 0
M  V30 12984 H 1226.37 -3.5722 -1.61666 0
M  V30 12985 H 1227.86 -3.29391 -2.56693 0
M  V30 12986 N 1228.3 0.053464 -1.57509 0
M  V30 12987 C 1229.25 1.06155 -2.04939 0
M  V30 12988 C 1230.22 1.37382 -0.93357 0
M  V30 12989 O 1231.4 1.48137 -1.2025 0
M  V30 12990 C 1228.54 2.36476 -2.51343 0
M  V30 12991 C 1227.66 2.1162 -3.76618 0
M  V30 12992 C 1226.79 3.35636 -4.11731 0
M  V30 12993 C 1225.83 3.06226 -5.29993 0
M  V30 12994 N 1224.97 4.22623 -5.60655 0
M  V30 12995 H 1229.81 0.650122 -2.90822 0
M  V30 12996 H 1227.34 0.309421 -1.43809 0
M  V30 12997 H 1229.3 3.12588 -2.76306 0
M  V30 12998 H 1227.93 2.75386 -1.68411 0
M  V30 12999 H 1226.98 1.26116 -3.58886 0
M  V30 13000 H 1228.3 1.85909 -4.6286 0
M  V30 13001 H 1227.45 4.20132 -4.37692 0
M  V30 13002 H 1226.19 3.64439 -3.24092 0
M  V30 13003 H 1225.19 2.20128 -5.03809 0
M  V30 13004 H 1226.42 2.78726 -6.19265 0
M  V30 13005 H 1224.37 4.51424 -4.75976 0
M  V30 13006 H 1224.28 4.0025 -6.41355 0
M  V30 13007 H 1225.55 5.08063 -5.91178 0
M  V30 13008 N 1229.78 1.54207 0.325255 0
M  V30 13009 C 1230.73 1.83474 1.40021 0
M  V30 13010 C 1231.7 0.681719 1.51466 0
M  V30 13011 O 1232.88 0.92798 1.66713 0
M  V30 13012 C 1230.02 2.06624 2.76407 0
M  V30 13013 C 1229.13 3.3431 2.73607 0
M  V30 13014 C 1228.27 3.4743 4.01828 0
M  V30 13015 C 1227.31 4.68997 3.93329 0
M  V30 13016 N 1226.45 4.79052 5.13277 0
M  V30 13017 H 1231.29 2.75182 1.14363 0
M  V30 13018 H 1228.82 1.36284 0.553639 0
M  V30 13019 H 1230.78 2.18037 3.5569 0
M  V30 13020 H 1229.41 1.18209 3.00377 0
M  V30 13021 H 1228.46 3.31643 1.86324 0
M  V30 13022 H 1229.77 4.237 2.6321 0
M  V30 13023 H 1228.93 3.58376 4.89542 0
M  V30 13024 H 1227.67 2.56128 4.1503 0
M  V30 13025 H 1226.67 4.58109 3.04 0
M  V30 13026 H 1227.9 5.61681 3.81695 0
M  V30 13027 H 1225.84 3.90666 5.26988 0
M  V30 13028 H 1225.76 5.62406 5.05208 0
M  V30 13029 H 1227.03 4.94328 6.02711 0
M  V30 13030 N 1231.26 -0.58723 1.46251 0
M  V30 13031 C 1232.5 -1.3456 1.51327 0
M  V30 13032 C 1232.83 -1.93815 0.163146 0
M  V30 13033 O 1232.09 -1.76723 -0.840677 0
M  V30 13034 C 1232.39 -2.49776 2.5563 0
M  V30 13035 C 1232.05 -2.08543 3.99776 0
M  V30 13036 C 1230.71 -1.97013 4.39021 0
M  V30 13037 C 1233.07 -1.76669 4.90344 0
M  V30 13038 C 1230.39 -1.5186 5.66706 0
M  V30 13039 C 1232.75 -1.32996 6.18462 0
M  V30 13040 C 1231.41 -1.20039 6.56618 0
M  V30 13041 H 1230.68 -0.492391 0.553744 0
M  V30 13042 H 1233.33 -0.661715 1.79704 0
M  V30 13043 H 1231.63 -3.23592 2.20897 0
M  V30 13044 H 1233.33 -3.07995 2.56788 0
M  V30 13045 H 1229.92 -2.18451 3.68751 0
M  V30 13046 H 1234.1 -1.84465 4.60746 0
M  V30 13047 H 1229.36 -1.40467 5.95045 0
M  V30 13048 H 1233.53 -1.07385 6.88071 0
M  V30 13049 H 1231.16 -0.848268 7.55452 0
M  V30 13050 N 1232.74 -1.33881 -0.831482 0
M  V30 13051 C 1233.96 -1.28961 -1.62431 0
M  V30 13052 C 1234.39 0.135249 -1.87613 0
M  V30 13053 O 1233.74 1.09426 -1.44553 0
M  V30 13054 C 1233.79 -2.07767 -2.94729 0
M  V30 13055 O 1232.9 -1.44133 -3.86393 0
M  V30 13056 H 1232.24 -0.443313 -0.494337 0
M  V30 13057 H 1234.77 -1.76555 -1.0339 0
M  V30 13058 H 1234.78 -2.18806 -3.44366 0
M  V30 13059 H 1233.45 -3.11367 -2.75724 0
M  V30 13060 H 1232.03 -1.41784 -3.44894 0
M  V30 13061 N 1234.21 1.05064 -1.1747 0
M  V30 13062 C 1235.12 2.16346 -0.907286 0
M  V30 13063 C 1236.14 1.7355 0.125013 0
M  V30 13064 O 1237.32 2.01326 -0.0545551 0
M  V30 13065 C 1234.38 3.44077 -0.425681 0
M  V30 13066 C 1233.44 4.01311 -1.52473 0
M  V30 13067 C 1232.67 5.22946 -1.06601 0
M  V30 13068 O 1232.9 5.70345 0.0793329 0
M  V30 13069 O 1231.83 5.72454 -1.85958 0
M  V30 13070 H 1235.66 2.41754 -1.83817 0
M  V30 13071 H 1233.24 1.14834 -0.955693 0
M  V30 13072 H 1235.12 4.21078 -0.164689 0
M  V30 13073 H 1233.8 3.20166 0.477037 0
M  V30 13074 H 1232.71 3.25744 -1.83961 0
M  V30 13075 H 1234.04 4.29543 -2.4032 0
M  V30 13076 N 1235.69 0.975146 1.23809 0
M  V30 13077 C 1236.94 0.642074 1.92367 0
M  V30 13078 C 1237.27 -0.82164 1.75962 0
M  V30 13079 O 1236.55 -1.59205 1.11732 0
M  V30 13080 C 1236.83 1.02677 3.45151 0
M  V30 13081 C 1236.68 2.54773 3.7069 0
M  V30 13082 C 1238 0.5668 4.36435 0
M  V30 13083 H 1235.12 0.234735 0.698619 0
M  V30 13084 H 1237.76 1.21549 1.46034 0
M  V30 13085 H 1235.91 0.538846 3.84745 0
M  V30 13086 H 1237.58 3.11099 3.4061 0
M  V30 13087 H 1235.83 2.97641 3.15583 0
M  V30 13088 H 1236.5 2.7674 4.77618 0
M  V30 13089 H 1238.97 0.985635 4.04258 0
M  V30 13090 H 1237.85 0.864458 5.4205 0
M  V30 13091 H 1238.11 -0.532989 4.38875 0
M  V30 13092 N 1237.17 -1.38817 0.746158 0
M  V30 13093 C 1238.41 -2.02129 0.303843 0
M  V30 13094 C 1238.77 -1.57943 -1.0917 0
M  V30 13095 O 1239.97 -2.13532 -1.63272 0
M  V30 13096 C 1238.25 -3.5499 0.414379 0
M  V30 13097 S 1239.8 -4.38767 0.0535495 0
M  V30 13098 H 1236.62 -0.701084 0.118329 0
M  V30 13099 H 1239.22 -1.69444 0.975137 0
M  V30 13100 H 1237.93 -3.84638 1.43114 0
M  V30 13101 H 1237.46 -3.92442 -0.274355 0
M  V30 13102 H 1239.47 -4.82469 -1.15921 0
M  V30 13103 N 1238.65 -0.49465 -1.49636 0
M  V30 13104 C 1239.89 0.0521945 -2.02733 0
M  V30 13105 C 1240.23 1.3723 -1.37411 0
M  V30 13106 O 1239.5 1.87758 -0.507642 0
M  V30 13107 C 1239.78 0.2114 -3.59479 0
M  V30 13108 C 1239.64 -1.13138 -4.35339 0
M  V30 13109 C 1240.96 0.955015 -4.29613 0
M  V30 13110 H 1238.08 0.0174946 -0.736792 0
M  V30 13111 H 1240.72 -0.644827 -1.78723 0
M  V30 13112 H 1238.87 0.805078 -3.80067 0
M  V30 13113 H 1240.54 -1.76345 -4.26263 0
M  V30 13114 H 1238.78 -1.72224 -3.98147 0
M  V30 13115 H 1239.45 -0.97336 -5.4335 0
M  V30 13116 H 1241.93 0.451575 -4.13642 0
M  V30 13117 H 1240.81 1.03524 -5.39049 0
M  V30 13118 H 1241.07 1.99724 -3.94414 0
M  V30 13119 N 1240.13 1.55939 -0.228214 0
M  V30 13120 C 1241.37 1.98084 0.400884 0
M  V30 13121 C 1241.69 1.11727 1.59819 0
M  V30 13122 O 1240.96 0.195794 1.94919 0
M  V30 13123 H 1239.54 0.731558 0.151102 0
M  V30 13124 H 1242.21 1.92211 -0.322659 0
M  V30 13125 H 1241.3 3.03617 0.722706 0
M  V30 13126 N 1241.6 -0.0451101 1.57535 0
M  V30 13127 C 1242.55 -1.05817 2.01958 0
M  V30 13128 C 1243.54 -1.32963 0.906077 0
M  V30 13129 O 1244.73 -1.32816 1.16999 0
M  V30 13130 C 1241.86 -2.36414 2.48924 0
M  V30 13131 C 1240.95 -2.12428 3.67063 0
M  V30 13132 N 1241.34 -1.58448 4.80341 0
M  V30 13133 C 1239.63 -2.42785 3.74128 0
M  V30 13134 C 1240.34 -1.49896 5.62055 0
M  V30 13135 N 1239.31 -1.96892 5.0669 0
M  V30 13136 H 1243.11 -0.634569 2.86968 0
M  V30 13137 H 1240.63 -0.251719 1.60437 0
M  V30 13138 H 1242.62 -3.09781 2.79001 0
M  V30 13139 H 1241.28 -2.79467 1.65313 0
M  V30 13140 H 1242.3 -1.26939 5.02102 0
M  V30 13141 H 1238.97 -2.89022 3.01285 0
M  V30 13142 H 1240.36 -1.08788 6.63035 0
M  V30 13143 N 1243.08 -1.54377 -0.317073 0
M  V30 13144 C 1244.01 -1.8721 -1.39552 0
M  V30 13145 C 1244.99 -0.729483 -1.53664 0
M  V30 13146 O 1246.18 -0.983799 -1.67437 0
M  V30 13147 C 1243.31 -2.1052 -2.76222 0
M  V30 13148 C 1242.26 -3.26366 -2.76892 0
M  V30 13149 C 1241.59 -3.35061 -4.16699 0
M  V30 13150 C 1242.89 -4.63862 -2.40061 0
M  V30 13151 H 1244.58 -2.77532 -1.12323 0
M  V30 13152 H 1242.13 -1.33536 -0.538897 0
M  V30 13153 H 1244.08 -2.32073 -3.51739 0
M  V30 13154 H 1242.81 -1.16953 -3.04942 0
M  V30 13155 H 1241.46 -3.0471 -2.03831 0
M  V30 13156 H 1241.11 -2.39041 -4.4257 0
M  V30 13157 H 1240.81 -4.12923 -4.18053 0
M  V30 13158 H 1242.34 -3.58856 -4.94019 0
M  V30 13159 H 1243.75 -4.85252 -3.05292 0
M  V30 13160 H 1242.15 -5.44321 -2.52655 0
M  V30 13161 H 1243.22 -4.6567 -1.35202 0
M  V30 13162 N 1244.56 0.579466 -1.4656 0
M  V30 13163 C 1245.81 1.33492 -1.51738 0
M  V30 13164 C 1246.13 1.94241 -0.171926 0
M  V30 13165 O 1245.4 1.78737 0.801875 0
M  V30 13166 H 1243.98 0.49565 -0.558874 0
M  V30 13167 H 1246.64 0.678394 -1.82712 0
M  V30 13168 H 1245.74 2.13995 -2.27183 0
M  V30 13169 N 1246.04 1.3432 0.824371 0
M  V30 13170 C 1246.99 1.25776 1.93517 0
M  V30 13171 C 1247.96 0.133298 1.65564 0
M  V30 13172 O 1249.14 0.31403 1.88198 0
M  V30 13173 C 1246.28 1.01766 3.29754 0
M  V30 13174 C 1245.39 2.22973 3.7001 0
M  V30 13175 C 1244.53 1.92258 4.95187 0
M  V30 13176 C 1243.57 3.09616 5.2802 0
M  V30 13177 N 1242.7 2.78793 6.44375 0
M  V30 13178 H 1247.54 2.20774 2.00157 0
M  V30 13179 H 1245.08 1.09766 0.979274 0
M  V30 13180 H 1247.04 0.858831 4.08265 0
M  V30 13181 H 1245.67 0.10437 3.22631 0
M  V30 13182 H 1244.72 2.49781 2.86903 0
M  V30 13183 H 1246.03 3.10661 3.90245 0
M  V30 13184 H 1245.19 1.73102 5.81481 0
M  V30 13185 H 1243.93 1.01827 4.76951 0
M  V30 13186 H 1242.93 3.29368 4.40223 0
M  V30 13187 H 1244.16 4.00822 5.48196 0
M  V30 13188 H 1242.1 1.90938 6.27598 0
M  V30 13189 H 1242.02 3.60014 6.64775 0
M  V30 13190 H 1243.29 2.63139 7.33743 0
M  V30 13191 N 1247.52 -1.0444 1.18026 0
M  V30 13192 C 1248.43 -2.15862 0.918747 0
M  V30 13193 C 1249.44 -1.73614 -0.115808 0
M  V30 13194 O 1250.62 -2.01294 0.0652312 0
M  V30 13195 C 1247.68 -3.43846 0.443922 0
M  V30 13196 C 1246.74 -4.00497 1.54599 0
M  V30 13197 C 1245.98 -5.22373 1.09372 0
M  V30 13198 O 1246.2 -5.70379 -0.049085 0
M  V30 13199 O 1245.13 -5.71459 1.88992 0
M  V30 13200 H 1248.96 -2.40776 1.85097 0
M  V30 13201 H 1246.55 -1.14326 0.961769 0
M  V30 13202 H 1248.43 -4.20985 0.187017 0
M  V30 13203 H 1247.1 -3.20414 -0.460051 0
M  V30 13204 H 1246.01 -3.24764 1.85686 0
M  V30 13205 H 1247.34 -4.28262 2.42595 0
M  V30 13206 N 1248.99 -0.981699 -1.2329 0
M  V30 13207 C 1250.22 -0.66937 -1.95773 0
M  V30 13208 C 1250.64 0.763898 -1.72656 0
M  V30 13209 O 1249.99 1.51418 -1.01876 0
M  V30 13210 C 1250.05 -0.951863 -3.48743 0
M  V30 13211 O 1249.77 -2.3288 -3.71078 0
M  V30 13212 C 1251.27 -0.655668 -4.38424 0
M  V30 13213 H 1248.49 -0.248545 -0.623271 0
M  V30 13214 H 1251.03 -1.31343 -1.56746 0
M  V30 13215 H 1249.19 -0.353787 -3.85781 0
M  V30 13216 H 1249.6 -2.41948 -4.65362 0
M  V30 13217 H 1251.07 -0.903683 -5.44553 0
M  V30 13218 H 1251.55 0.410269 -4.3728 0
M  V30 13219 H 1252.16 -1.23428 -4.06996 0
M  V30 13220 N 1250.47 1.3842 -0.753509 0
M  V30 13221 C 1251.75 1.94181 -0.235142 0
M  V30 13222 C 1252.13 1.68881 1.26659 0
M  V30 13223 O 1251.48 1.02731 2.04104 0
M  V30 13224 C 1251.69 3.43998 -0.588751 0
M  V30 13225 C 1253.04 4.21044 -0.548352 0
M  V30 13226 O 1254.06 3.52279 -0.52704 0
M  V30 13227 O 1252.92 5.43631 -0.559221 0
M  V30 13228 H 1250.01 0.825536 -0.0491834 0
M  V30 13229 H 1252.56 1.47813 -0.833626 0
M  V30 13230 H 1251.33 3.55921 -1.6259 0
M  V30 13231 H 1250.95 3.97582 0.0377429 0
M  V30 13232 N 1251.95 0.502579 1.49372 0
M  V30 13233 C 1253.2 -0.0432341 2.01654 0
M  V30 13234 C 1253.51 -1.379 1.38719 0
M  V30 13235 O 1254.72 -2.01159 1.82338 0
M  V30 13236 C 1253.17 -0.127509 3.59674 0
M  V30 13237 C 1252.78 1.20171 4.31582 0
M  V30 13238 C 1254.53 -0.623603 4.19895 0
M  V30 13239 C 1252.43 1.07951 5.81464 0
M  V30 13240 H 1251.36 -0.0199308 0.753737 0
M  V30 13241 H 1254.01 0.642237 1.71894 0
M  V30 13242 H 1252.4 -0.877465 3.86156 0
M  V30 13243 H 1253.57 1.96508 4.16799 0
M  V30 13244 H 1251.89 1.63136 3.83113 0
M  V30 13245 H 1254.48 -0.732562 5.29658 0
M  V30 13246 H 1254.83 -1.62282 3.83367 0
M  V30 13247 H 1255.36 0.0698641 3.97739 0
M  V30 13248 H 1252.1 2.05304 6.22519 0
M  V30 13249 H 1251.62 0.357051 5.98736 0
M  V30 13250 H 1253.3 0.758885 6.42534 0
M  V30 13251 N 1253.43 -1.55816 0.23648 0
M  V30 13252 C 1254.67 -1.98981 -0.391725 0
M  V30 13253 C 1255.01 -1.12428 -1.58346 0
M  V30 13254 O 1254.28 -0.185303 -1.93615 0
M  V30 13255 C 1254.57 -3.50831 -0.811759 0
M  V30 13256 C 1254.42 -4.48152 0.384648 0
M  V30 13257 C 1255.74 -4.07489 -1.66254 0
M  V30 13258 H 1252.86 -0.723404 -0.140911 0
M  V30 13259 H 1255.5 -1.87011 0.335706 0
M  V30 13260 H 1253.65 -3.61162 -1.43157 0
M  V30 13261 H 1255.32 -4.49814 1.02298 0
M  V30 13262 H 1253.56 -4.21406 1.02955 0
M  V30 13263 H 1254.23 -5.51979 0.0475809 0
M  V30 13264 H 1256.71 -4.00195 -1.13944 0
M  V30 13265 H 1255.59 -5.14026 -1.92531 0
M  V30 13266 H 1255.85 -3.55297 -2.6309 0
M  V30 13267 N 1254.91 0.036755 -1.57557 0
M  V30 13268 C 1256.13 0.741086 -1.93172 0
M  V30 13269 C 1256.55 1.69303 -0.835589 0
M  V30 13270 O 1255.91 1.81523 0.1886 0
M  V30 13271 C 1255.96 1.50477 -3.28693 0
M  V30 13272 O 1255.68 0.591046 -4.34095 0
M  V30 13273 C 1257.18 2.30695 -3.78543 0
M  V30 13274 H 1254.4 0.208731 -0.637709 0
M  V30 13275 H 1256.94 -0.00342776 -2.045 0
M  V30 13276 H 1255.1 2.20123 -3.18786 0
M  V30 13277 H 1255.51 1.12579 -5.12276 0
M  V30 13278 H 1256.99 2.79685 -4.759 0
M  V30 13279 H 1257.46 3.11778 -3.0934 0
M  V30 13280 H 1258.07 1.66138 -3.91508 0
M  V30 13281 N 1256.39 1.54543 0.308881 0
M  V30 13282 C 1257.32 1.87947 1.38557 0
M  V30 13283 C 1258.3 0.737622 1.53275 0
M  V30 13284 O 1259.48 0.992664 1.66913 0
M  V30 13285 C 1256.61 2.11982 2.75102 0
M  V30 13286 C 1255.57 3.2783 2.75158 0
M  V30 13287 C 1254.89 3.37266 4.14917 0
M  V30 13288 C 1256.19 4.65129 2.37598 0
M  V30 13289 H 1257.89 2.78123 1.1085 0
M  V30 13290 H 1255.43 1.3382 0.531808 0
M  V30 13291 H 1257.38 2.33935 3.50503 0
M  V30 13292 H 1256.11 1.18569 3.04317 0
M  V30 13293 H 1254.77 3.05787 2.02212 0
M  V30 13294 H 1254.42 2.41384 4.41296 0
M  V30 13295 H 1254.12 4.15135 4.15857 0
M  V30 13296 H 1255.64 3.61471 4.92109 0
M  V30 13297 H 1257.05 4.86865 3.02714 0
M  V30 13298 H 1255.45 5.45653 2.49765 0
M  V30 13299 H 1256.52 4.6638 1.32731 0
M  V30 13300 N 1257.86 -0.571685 1.46866 0
M  V30 13301 C 1259.27 -1.15383 1.46778 0
M  V30 13302 C 1259.63 -1.95023 0.214576 0
M  V30 13303 O 1258.75 -2.05386 -0.681574 0
M  V30 13304 C 1259.35 -2.09915 2.65935 0
M  V30 13305 C 1257.9 -2.6343 2.68852 0
M  V30 13306 C 1257.05 -1.39517 2.39646 0
M  V30 13307 H 1260 -0.359036 1.54585 0
M  V30 13308 H 1260.02 -2.9356 2.42081 0
M  V30 13309 H 1259.54 -1.51923 3.57129 0
M  V30 13310 H 1257.64 -3.2526 1.8176 0
M  V30 13311 H 1257.75 -3.05412 3.69134 0
M  V30 13312 H 1256.11 -1.69702 1.8993 0
M  V30 13313 H 1256.9 -0.833399 3.33031 0
M  V30 13314 N 1259.34 -1.34755 -0.817236 0
M  V30 13315 C 1260.59 -1.26771 -1.56882 0
M  V30 13316 C 1260.9 0.158962 -1.94953 0
M  V30 13317 O 1262.11 0.360996 -2.69089 0
M  V30 13318 C 1260.57 -2.22261 -2.83069 0
M  V30 13319 C 1260.17 -3.70216 -2.52277 0
M  V30 13320 C 1261.92 -2.23197 -3.61086 0
M  V30 13321 C 1259.82 -4.57559 -3.74691 0
M  V30 13322 H 1258.75 -0.470961 -0.588822 0
M  V30 13323 H 1261.41 -1.59955 -0.899254 0
M  V30 13324 H 1259.79 -1.82036 -3.5168 0
M  V30 13325 H 1260.96 -4.19014 -1.9174 0
M  V30 13326 H 1259.28 -3.71784 -1.87525 0
M  V30 13327 H 1261.87 -2.85673 -4.5199 0
M  V30 13328 H 1262.22 -1.2328 -3.97628 0
M  V30 13329 H 1262.75 -2.61897 -2.99424 0
M  V30 13330 H 1259.49 -5.58434 -3.43267 0
M  V30 13331 H 1259.01 -4.13494 -4.34491 0
M  V30 13332 H 1260.69 -4.72451 -4.42039 0
M  V30 13333 N 1260.82 1.03812 -1.18578 0
M  V30 13334 C 1261.75 2.11928 -0.872871 0
M  V30 13335 C 1262.76 1.62275 0.130592 0
M  V30 13336 O 1263.95 1.78233 -0.0975869 0
M  V30 13337 C 1261.05 3.37714 -0.283321 0
M  V30 13338 C 1260.23 4.16591 -1.33307 0
M  V30 13339 C 1259.29 5.20701 -0.758746 0
M  V30 13340 O 1258.31 5.50837 -1.43412 0
M  V30 13341 N 1259.51 5.78811 0.442505 0
M  V30 13342 H 1262.28 2.39364 -1.80346 0
M  V30 13343 H 1259.84 1.20027 -1.08652 0
M  V30 13344 H 1261.83 4.04538 0.114524 0
M  V30 13345 H 1260.4 3.07699 0.551347 0
M  V30 13346 H 1259.62 3.45051 -1.90613 0
M  V30 13347 H 1260.91 4.66082 -2.04071 0
M  V30 13348 H 1260.31 5.56631 1.00889 0
M  V30 13349 H 1258.86 6.47089 0.78224 0
M  V30 13350 N 1262.3 0.988223 1.22768 0
M  V30 13351 C 1263.25 0.505913 2.22316 0
M  V30 13352 C 1264.23 -0.423346 1.55231 0
M  V30 13353 O 1265.42 -0.250927 1.75212 0
M  V30 13354 C 1262.55 -0.182707 3.42813 0
M  V30 13355 C 1261.64 0.766582 4.17114 0
M  V30 13356 N 1262.03 1.91248 4.6825 0
M  V30 13357 C 1260.33 0.581503 4.42193 0
M  V30 13358 C 1261.03 2.50793 5.2486 0
M  V30 13359 N 1260 1.79106 5.13247 0
M  V30 13360 H 1263.81 1.37994 2.5949 0
M  V30 13361 H 1261.32 0.849888 1.38386 0
M  V30 13362 H 1263.32 -0.545595 4.13315 0
M  V30 13363 H 1261.98 -1.05292 3.07154 0
M  V30 13364 H 1262.99 2.29342 4.64352 0
M  V30 13365 H 1259.67 -0.243039 4.16792 0
M  V30 13366 H 1261.06 3.47609 5.74994 0
M  V30 13367 N 1263.78 -1.38018 0.760839 0
M  V30 13368 C 1265.05 -1.94054 0.245437 0
M  V30 13369 C 1265.43 -1.6955 -1.25761 0
M  V30 13370 O 1264.78 -1.03812 -2.03557 0
M  V30 13371 C 1264.99 -3.43681 0.606986 0
M  V30 13372 C 1266.34 -4.20748 0.570673 0
M  V30 13373 O 1267.36 -3.51995 0.545715 0
M  V30 13374 O 1266.22 -5.43327 0.588043 0
M  V30 13375 H 1263.32 -0.825264 0.0535607 0
M  V30 13376 H 1265.86 -1.47369 0.841453 0
M  V30 13377 H 1264.63 -3.55054 1.64476 0
M  V30 13378 H 1264.26 -3.97597 -0.0166576 0
M  V30 13379 N 1265.25 -0.510493 -1.49103 0
M  V30 13380 C 1266.48 0.0293113 -2.07379 0
M  V30 13381 C 1266.9 1.29195 -1.36713 0
M  V30 13382 O 1266.26 1.76204 -0.426838 0
M  V30 13383 C 1266.31 0.25629 -3.59688 0
M  V30 13384 O 1265.41 1.32907 -3.90397 0
M  V30 13385 H 1264.75 -0.0304449 -0.663302 0
M  V30 13386 H 1267.28 -0.712832 -1.91781 0
M  V30 13387 H 1267.29 0.484915 -4.05108 0
M  V30 13388 H 1265.97 -0.666163 -4.1053 0
M  V30 13389 H 1264.55 1.08464 -3.56777 0
M  V30 13390 N 1266.73 1.55688 -0.24474 0
M  V30 13391 C 1267.69 2.20014 0.642382 0
M  V30 13392 C 1268.69 1.16877 1.10437 0
M  V30 13393 O 1269.88 1.41972 1.00943 0
M  V30 13394 C 1267.02 2.84198 1.88267 0
M  V30 13395 H 1268.21 2.9979 0.0811937 0
M  V30 13396 H 1265.76 1.56299 0.00480917 0
M  V30 13397 H 1266.5 2.08354 2.48514 0
M  V30 13398 H 1266.28 3.59747 1.55963 0
M  V30 13399 H 1267.77 3.33434 2.5142 0
M  V30 13400 N 1268.21 -0.0283989 1.57574 0
M  V30 13401 C 1269.17 -1.01346 2.05576 0
M  V30 13402 C 1270.17 -1.28999 0.960001 0
M  V30 13403 O 1271.36 -1.23991 1.2236 0
M  V30 13404 C 1268.49 -2.34611 2.47327 0
M  V30 13405 H 1269.69 -0.598809 2.93861 0
M  V30 13406 H 1267.24 -0.27524 1.53857 0
M  V30 13407 H 1267.98 -2.80823 1.622 0
M  V30 13408 H 1267.76 -2.1587 3.27326 0
M  V30 13409 H 1269.25 -3.05332 2.84889 0
M  V30 13410 N 1269.69 -1.54705 -0.300681 0
M  V30 13411 C 1270.6 -1.88736 -1.39341 0
M  V30 13412 C 1271.61 -0.78155 -1.5546 0
M  V30 13413 O 1272.79 -1.07804 -1.70118 0
M  V30 13414 C 1269.85 -2.12795 -2.73713 0
M  V30 13415 C 1268.92 -3.36504 -2.66577 0
M  V30 13416 C 1268.15 -3.59407 -3.94541 0
M  V30 13417 O 1268.37 -2.85315 -4.93914 0
M  V30 13418 O 1267.31 -4.52923 -3.96415 0
M  V30 13419 H 1271.13 -2.817 -1.13484 0
M  V30 13420 H 1268.72 -1.40899 -0.496771 0
M  V30 13421 H 1270.6 -2.29819 -3.53215 0
M  V30 13422 H 1269.27 -1.23017 -2.99414 0
M  V30 13423 H 1268.18 -3.24844 -1.85546 0
M  V30 13424 H 1269.51 -4.26414 -2.45829 0
M  V30 13425 N 1271.17 0.563888 -1.47167 0
M  V30 13426 C 1272.1 1.68137 -1.62025 0
M  V30 13427 C 1273.08 1.63481 -0.469899 0
M  V30 13428 O 1274.26 1.81206 -0.698432 0
M  V30 13429 C 1271.39 3.06779 -1.62801 0
M  V30 13430 C 1270.35 3.26278 -2.76996 0
M  V30 13431 C 1269.67 4.65638 -2.62841 0
M  V30 13432 C 1270.97 3.12295 -4.18651 0
M  V30 13433 H 1272.67 1.55958 -2.55573 0
M  V30 13434 H 1270.21 0.74887 -1.22996 0
M  V30 13435 H 1272.17 3.84795 -1.71787 0
M  V30 13436 H 1270.89 3.19901 -0.658097 0
M  V30 13437 H 1269.55 2.50668 -2.67509 0
M  V30 13438 H 1269.2 4.75551 -1.63892 0
M  V30 13439 H 1268.9 4.79635 -3.39447 0
M  V30 13440 H 1270.42 5.45798 -2.73746 0
M  V30 13441 H 1271.83 3.80136 -4.2915 0
M  V30 13442 H 1270.23 3.37805 -4.95992 0
M  V30 13443 H 1271.3 2.09126 -4.37486 0
M  V30 13444 N 1272.64 1.35187 0.810078 0
M  V30 13445 C 1273.61 1.27698 1.90331 0
M  V30 13446 C 1274.61 0.189216 1.59683 0
M  V30 13447 O 1275.8 0.442689 1.68481 0
M  V30 13448 C 1272.93 0.974631 3.26671 0
M  V30 13449 H 1274.12 2.24902 1.98392 0
M  V30 13450 H 1271.68 1.1966 1.00554 0
M  V30 13451 H 1272.41 0.0063068 3.24299 0
M  V30 13452 H 1272.2 1.76158 3.50301 0
M  V30 13453 H 1273.69 0.947743 4.06703 0
M  V30 13454 N 1274.12 -1.03182 1.19127 0
M  V30 13455 C 1275.05 -2.11462 0.884098 0
M  V30 13456 C 1276.07 -1.62342 -0.121984 0
M  V30 13457 O 1277.26 -1.78179 0.107038 0
M  V30 13458 C 1274.36 -3.37559 0.301227 0
M  V30 13459 C 1273.53 -4.15878 1.35514 0
M  V30 13460 C 1272.59 -5.20291 0.786349 0
M  V30 13461 O 1271.61 -5.50069 1.46331 0
M  V30 13462 N 1272.82 -5.79038 -0.411803 0
M  V30 13463 H 1275.58 -2.38405 1.81613 0
M  V30 13464 H 1273.14 -1.19449 1.09287 0
M  V30 13465 H 1275.13 -4.04593 -0.0930685 0
M  V30 13466 H 1273.7 -3.07987 -0.535022 0
M  V30 13467 H 1272.92 -3.44036 1.9244 0
M  V30 13468 H 1274.21 -4.64993 2.06539 0
M  V30 13469 H 1273.61 -5.57158 -0.979353 0
M  V30 13470 H 1272.17 -6.47495 -0.747912 0
M  V30 13471 N 1275.6 -0.99472 -1.22242 0
M  V30 13472 C 1277.01 -0.706456 -1.72818 0
M  V30 13473 C 1277.36 0.776566 -1.80177 0
M  V30 13474 O 1276.49 1.60698 -1.44931 0
M  V30 13475 C 1277.08 -1.27571 -3.13865 0
M  V30 13476 C 1275.64 -1.03679 -3.61839 0
M  V30 13477 C 1274.79 -1.3948 -2.39668 0
M  V30 13478 H 1277.74 -1.16687 -1.07564 0
M  V30 13479 H 1277.76 -0.655202 -3.74816 0
M  V30 13480 H 1277.27 -2.35508 -3.08476 0
M  V30 13481 H 1275.37 0.0258679 -3.72591 0
M  V30 13482 H 1275.49 -1.70145 -4.4787 0
M  V30 13483 H 1273.85 -0.813418 -2.41362 0
M  V30 13484 H 1274.63 -2.48425 -2.36939 0
M  V30 13485 N 1277.08 1.37613 -0.768148 0
M  V30 13486 C 1278.01 2.3291 -0.165911 0
M  V30 13487 C 1278.99 1.556 0.687205 0
M  V30 13488 O 1280.17 1.83854 0.625407 0
M  V30 13489 C 1277.3 3.39822 0.7168 0
M  V30 13490 C 1276.26 4.27986 -0.0347264 0
M  V30 13491 C 1275.58 5.2588 0.967192 0
M  V30 13492 C 1276.88 5.08052 -1.21164 0
M  V30 13493 H 1278.58 2.83524 -0.962006 0
M  V30 13494 H 1276.12 1.36318 -0.464051 0
M  V30 13495 H 1278.08 4.05464 1.14789 0
M  V30 13496 H 1276.8 2.87725 1.54538 0
M  V30 13497 H 1275.46 3.6387 -0.446557 0
M  V30 13498 H 1275.11 4.70064 1.79022 0
M  V30 13499 H 1274.81 5.85726 0.468913 0
M  V30 13500 H 1276.33 5.94397 1.3973 0
M  V30 13501 H 1277.75 5.66853 -0.857373 0
M  V30 13502 H 1276.14 5.77206 -1.64176 0
M  V30 13503 H 1277.21 4.40936 -2.0175 0
M  V30 13504 N 1278.56 0.518393 1.4883 0
M  V30 13505 C 1279.83 -0.0837498 1.95421 0
M  V30 13506 C 1280.21 -1.52435 1.46037 0
M  V30 13507 O 1279.56 -2.18093 0.681736 0
M  V30 13508 C 1279.77 0.0215333 3.48993 0
M  V30 13509 C 1281.12 -0.143615 4.24357 0
M  V30 13510 O 1282.14 -0.0528223 3.56161 0
M  V30 13511 O 1281 -0.332231 5.45489 0
M  V30 13512 H 1278.1 -0.0857132 0.822546 0
M  V30 13513 H 1280.64 0.582169 1.59402 0
M  V30 13514 H 1279.41 1.02549 3.77623 0
M  V30 13515 H 1279.04 -0.683756 3.91677 0
M  V30 13516 N 1280.03 -1.55556 0.252993 0
M  V30 13517 C 1281.28 -1.99385 -0.370599 0
M  V30 13518 C 1281.61 -1.14101 -1.57145 0
M  V30 13519 O 1280.89 -0.205828 -1.93408 0
M  V30 13520 C 1281.17 -3.51672 -0.774503 0
M  V30 13521 C 1281.02 -4.47719 0.432159 0
M  V30 13522 C 1282.34 -4.0923 -1.61923 0
M  V30 13523 H 1279.46 -0.724858 -0.133231 0
M  V30 13524 H 1282.1 -1.86644 0.355522 0
M  V30 13525 H 1280.25 -3.62661 -1.39318 0
M  V30 13526 H 1281.93 -4.48704 1.07063 0
M  V30 13527 H 1280.17 -4.2029 1.07419 0
M  V30 13528 H 1280.84 -5.51898 0.106123 0
M  V30 13529 H 1283.32 -4.01381 -1.09693 0
M  V30 13530 H 1282.19 -5.16039 -1.87068 0
M  V30 13531 H 1282.45 -3.58067 -2.59307 0
M  V30 13532 N 1281.51 0.0200419 -1.57587 0
M  V30 13533 C 1282.46 1.01784 -2.07144 0
M  V30 13534 C 1283.43 1.3537 -0.962501 0
M  V30 13535 O 1284.61 1.45553 -1.23365 0
M  V30 13536 C 1281.75 2.31091 -2.56302 0
M  V30 13537 C 1280.87 2.03584 -3.81022 0
M  V30 13538 C 1280 3.26827 -4.18757 0
M  V30 13539 C 1279.04 2.94915 -5.36369 0
M  V30 13540 N 1278.18 4.10636 -5.69493 0
M  V30 13541 H 1283.02 0.588288 -2.92136 0
M  V30 13542 H 1280.56 0.278848 -1.44433 0
M  V30 13543 H 1282.51 3.06656 -2.82874 0
M  V30 13544 H 1281.14 2.71752 -1.74215 0
M  V30 13545 H 1280.2 1.18475 -3.6148 0
M  V30 13546 H 1281.51 1.76049 -4.66699 0
M  V30 13547 H 1280.66 4.10753 -4.46505 0
M  V30 13548 H 1279.4 3.57483 -3.31749 0
M  V30 13549 H 1278.41 2.09392 -5.08365 0
M  V30 13550 H 1279.63 2.65528 -6.25037 0
M  V30 13551 H 1277.58 4.41226 -4.85444 0
M  V30 13552 H 1277.49 3.86556 -6.497 0
M  V30 13553 H 1278.76 4.95409 -6.01822 0
M  V30 13554 N 1282.99 1.54862 0.292472 0
M  V30 13555 C 1284.27 1.65237 1.04671 0
M  V30 13556 C 1284.65 0.506168 2.04942 0
M  V30 13557 O 1284 -0.496123 2.23049 0
M  V30 13558 C 1284.21 3.03618 1.72095 0
M  V30 13559 C 1285.55 3.6072 2.23979 0
M  V30 13560 O 1286.58 3.06126 1.82114 0
M  V30 13561 O 1285.44 4.56328 3.0071 0
M  V30 13562 H 1282.53 0.670347 0.484319 0
M  V30 13563 H 1285.08 1.67206 0.28988 0
M  V30 13564 H 1283.85 3.78482 0.993324 0
M  V30 13565 H 1283.47 3.05464 2.54514 0
M  V30 13566 N 1284.47 -0.556076 1.47464 0
M  V30 13567 C 1285.71 -1.31283 1.55358 0
M  V30 13568 C 1286.07 -1.91212 0.213492 0
M  V30 13569 O 1285.36 -1.74963 -0.780934 0
M  V30 13570 C 1285.56 -2.44298 2.6087 0
M  V30 13571 C 1285.39 -1.95444 4.05008 0
M  V30 13572 C 1284.16 -1.79235 4.72443 0
M  V30 13573 C 1286.35 -1.49825 4.91993 0
M  V30 13574 N 1284.34 -1.24732 6.01095 0
M  V30 13575 C 1285.71 -1.07095 6.1068 0
M  V30 13576 C 1287.76 -1.37887 4.78426 0
M  V30 13577 C 1286.46 -0.536134 7.17299 0
M  V30 13578 C 1288.49 -0.858066 5.85142 0
M  V30 13579 C 1287.85 -0.440699 7.0302 0
M  V30 13580 H 1283.95 -0.472387 0.623197 0
M  V30 13581 H 1286.54 -0.630184 1.84219 0
M  V30 13582 H 1284.71 -3.10092 2.33875 0
M  V30 13583 H 1286.44 -3.11299 2.58601 0
M  V30 13584 H 1283.19 -2.01984 4.28368 0
M  V30 13585 H 1283.62 -0.995659 6.69638 0
M  V30 13586 H 1288.26 -1.68766 3.87657 0
M  V30 13587 H 1285.98 -0.214967 8.07814 0
M  V30 13588 H 1289.56 -0.769235 5.76692 0
M  V30 13589 H 1288.44 -0.0439514 7.84188 0
M  V30 13590 N 1285.95 -1.35615 -0.802897 0
M  V30 13591 C 1286.89 -1.28839 -1.91492 0
M  V30 13592 C 1287.86 -0.159621 -1.65331 0
M  V30 13593 O 1289.05 -0.343931 -1.87675 0
M  V30 13594 C 1286.19 -1.06999 -3.28093 0
M  V30 13595 C 1285.3 -2.28831 -3.66416 0
M  V30 13596 C 1284.44 -2.00111 -4.92066 0
M  V30 13597 C 1283.48 -3.17977 -5.23027 0
M  V30 13598 N 1282.61 -2.89009 -6.39858 0
M  V30 13599 H 1287.45 -2.2393 -1.96619 0
M  V30 13600 H 1284.99 -1.1131 -0.961687 0
M  V30 13601 H 1286.95 -0.923673 -4.06847 0
M  V30 13602 H 1285.58 -0.155684 -3.22424 0
M  V30 13603 H 1284.63 -2.54314 -2.82893 0
M  V30 13604 H 1285.94 -3.1683 -3.85253 0
M  V30 13605 H 1285.1 -1.82331 -5.78654 0
M  V30 13606 H 1283.84 -1.09402 -4.75271 0
M  V30 13607 H 1282.84 -3.3633 -4.34928 0
M  V30 13608 H 1284.07 -4.09493 -5.41749 0
M  V30 13609 H 1282.01 -2.00898 -6.24481 0
M  V30 13610 H 1281.93 -3.70544 -6.58964 0
M  V30 13611 H 1283.2 -2.74779 -7.29463 0
M  V30 13612 N 1287.43 1.02549 -1.19673 0
M  V30 13613 C 1288.37 2.109 -0.937536 0
M  V30 13614 C 1289.34 1.65599 0.128923 0
M  V30 13615 O 1290.53 1.90795 -0.0139366 0
M  V30 13616 C 1287.67 3.4166 -0.48602 0
M  V30 13617 C 1286.78 4.0049 -1.61963 0
M  V30 13618 C 1285.92 5.19273 -1.11931 0
M  V30 13619 C 1284.95 5.70166 -2.22659 0
M  V30 13620 N 1284.09 6.80221 -1.73909 0
M  V30 13621 H 1288.93 2.32408 -1.86523 0
M  V30 13622 H 1286.47 1.13982 -0.929869 0
M  V30 13623 H 1288.43 4.16693 -0.205614 0
M  V30 13624 H 1287.06 3.20253 0.404678 0
M  V30 13625 H 1286.11 3.22638 -2.01516 0
M  V30 13626 H 1287.42 4.34273 -2.45374 0
M  V30 13627 H 1286.57 6.01478 -0.794336 0
M  V30 13628 H 1285.31 4.87033 -0.254972 0
M  V30 13629 H 1284.32 4.86572 -2.55983 0
M  V30 13630 H 1285.54 6.04444 -3.09554 0
M  V30 13631 H 1283.49 6.49826 -0.897889 0
M  V30 13632 H 1283.41 7.13149 -2.50907 0
M  V30 13633 H 1284.67 7.66011 -1.44386 0
M  V30 13634 N 1288.9 1.00119 1.21713 0
M  V30 13635 C 1290.15 0.680377 1.90303 0
M  V30 13636 C 1290.47 -0.790927 1.7824 0
M  V30 13637 O 1289.74 -1.5676 1.17486 0
M  V30 13638 H 1288.32 0.248665 0.704397 0
M  V30 13639 H 1290.98 1.26948 1.47886 0
M  V30 13640 H 1290.08 0.950188 2.97284 0
M  V30 13641 N 1290.38 -1.37203 0.775435 0
M  V30 13642 C 1291.29 -2.34019 0.165062 0
M  V30 13643 C 1292.31 -1.6036 -0.675316 0
M  V30 13644 O 1293.48 -1.9243 -0.594375 0
M  V30 13645 C 1290.55 -3.3954 -0.700957 0
M  V30 13646 C 1289.61 -4.29015 0.156304 0
M  V30 13647 C 1288.84 -5.29497 -0.668476 0
M  V30 13648 O 1289.07 -5.37636 -1.90535 0
M  V30 13649 O 1288 -6.01852 -0.0757351 0
M  V30 13650 H 1291.83 -2.87955 0.965184 0
M  V30 13651 H 1289.41 -1.39429 0.536654 0
M  V30 13652 H 1291.29 -4.04094 -1.19524 0
M  V30 13653 H 1289.97 -2.87926 -1.4792 0
M  V30 13654 H 1288.87 -3.67549 0.69703 0
M  V30 13655 H 1290.21 -4.83944 0.897725 0
M  V30 13656 N 1291.86 -0.526279 -1.48553 0
M  V30 13657 C 1293.1 0.00720852 -2.04399 0
M  V30 13658 C 1293.46 1.31928 -1.39495 0
M  V30 13659 O 1294.66 1.93857 -1.86206 0
M  V30 13660 C 1292.94 0.130517 -3.57162 0
M  V30 13661 S 1294.49 0.614604 -4.34474 0
M  V30 13662 H 1291.31 -0.0102902 -0.710926 0
M  V30 13663 H 1293.91 -0.705998 -1.82307 0
M  V30 13664 H 1292.62 -0.829304 -4.01934 0
M  V30 13665 H 1292.15 0.868213 -3.837 0
M  V30 13666 H 1294.16 1.87973 -4.59217 0
M  V30 13667 N 1293.34 1.5542 -0.261239 0
M  V30 13668 C 1294.61 1.91243 0.41056 0
M  V30 13669 C 1294.99 1.1838 1.74784 0
M  V30 13670 O 1294.34 0.306013 2.26442 0
M  V30 13671 C 1294.55 3.44404 0.56453 0
M  V30 13672 C 1295.9 4.15927 0.853827 0
M  V30 13673 O 1296.92 3.50222 0.649861 0
M  V30 13674 O 1295.78 5.32175 1.24308 0
M  V30 13675 H 1292.88 0.796491 0.222555 0
M  V30 13676 H 1295.42 1.66912 -0.306367 0
M  V30 13677 H 1294.2 3.89478 -0.377134 0
M  V30 13678 H 1293.82 3.74644 1.33145 0
M  V30 13679 N 1294.82 -0.0116844 1.57596 0
M  V30 13680 C 1295.75 -1.00599 2.10718 0
M  V30 13681 C 1296.73 -1.36601 1.01362 0
M  V30 13682 O 1297.91 -1.4518 1.28982 0
M  V30 13683 C 1295.04 -2.30155 2.60089 0
M  V30 13684 C 1294 -2.08347 3.73866 0
M  V30 13685 C 1293.32 -3.43814 4.09507 0
M  V30 13686 C 1294.62 -1.45552 5.01609 0
M  V30 13687 H 1296.32 -0.563721 2.94045 0
M  V30 13688 H 1293.86 -0.269714 1.41452 0
M  V30 13689 H 1295.81 -3.00058 2.95877 0
M  V30 13690 H 1294.54 -2.76473 1.73868 0
M  V30 13691 H 1293.2 -1.40872 3.38453 0
M  V30 13692 H 1292.85 -3.87814 3.20326 0
M  V30 13693 H 1292.55 -3.30043 4.86154 0
M  V30 13694 H 1294.07 -4.15052 4.47844 0
M  V30 13695 H 1295.48 -2.05396 5.35243 0
M  V30 13696 H 1293.88 -1.42304 5.82983 0
M  V30 13697 H 1294.95 -0.423331 4.83049 0
M  V30 13698 N 1296.29 -1.55015 -0.284256 0
M  V30 13699 C 1297.54 -1.74297 -1.01506 0
M  V30 13700 C 1297.86 -0.545134 -1.8785 0
M  V30 13701 O 1299.06 -0.620118 -2.64323 0
M  V30 13702 C 1297.52 -3.08438 -1.85456 0
M  V30 13703 C 1297.13 -4.35753 -1.04034 0
M  V30 13704 C 1298.87 -3.37073 -2.58035 0
M  V30 13705 C 1296.78 -5.60938 -1.87358 0
M  V30 13706 H 1295.71 -0.649656 -0.382705 0
M  V30 13707 H 1298.36 -1.81484 -0.271239 0
M  V30 13708 H 1296.74 -2.95259 -2.63891 0
M  V30 13709 H 1297.91 -4.59816 -0.300954 0
M  V30 13710 H 1296.23 -4.14178 -0.429616 0
M  V30 13711 H 1298.83 -4.27806 -3.20759 0
M  V30 13712 H 1299.17 -2.56698 -3.27738 0
M  V30 13713 H 1299.7 -3.51299 -1.86638 0
M  V30 13714 H 1296.44 -6.44029 -1.22096 0
M  V30 13715 H 1295.96 -5.41035 -2.58923 0
M  V30 13716 H 1297.64 -5.98819 -2.44999 0
M  V30 13717 N 1297.77 0.548248 -1.47757 0
M  V30 13718 C 1299.18 1.13033 -1.48595 0
M  V30 13719 C 1299.53 1.94657 -0.245575 0
M  V30 13720 O 1298.66 2.06445 0.648813 0
M  V30 13721 C 1299.25 2.05657 -2.69241 0
M  V30 13722 C 1297.81 2.59119 -2.73009 0
M  V30 13723 C 1296.96 1.35686 -2.41836 0
M  V30 13724 H 1299.91 0.334397 -1.55137 0
M  V30 13725 H 1299.93 2.89671 -2.4672 0
M  V30 13726 H 1299.44 1.46222 -3.595 0
M  V30 13727 H 1297.54 3.22327 -1.86912 0
M  V30 13728 H 1297.66 2.99501 -3.73946 0
M  V30 13729 H 1296.02 1.66659 -1.92606 0
M  V30 13730 H 1296.8 0.780311 -3.34314 0
M  V30 13731 N 1299.25 1.36039 0.795694 0
M  V30 13732 C 1300.5 1.29663 1.55023 0
M  V30 13733 C 1300.82 -0.125588 1.94595 0
M  V30 13734 O 1300.09 -1.06447 1.64456 0
M  V30 13735 H 1298.67 0.476962 0.574906 0
M  V30 13736 H 1301.33 1.70265 0.948471 0
M  V30 13737 H 1300.43 1.91982 2.46068 0
M  V30 13738 N 1300.73 -1.01913 1.20215 0
M  V30 13739 C 1301.68 -2.104 0.948708 0
M  V30 13740 C 1302.65 -1.65665 -0.120139 0
M  V30 13741 O 1303.83 -1.90785 0.0240547 0
M  V30 13742 C 1300.97 -3.41398 0.504132 0
M  V30 13743 C 1300.08 -3.99625 1.64085 0
M  V30 13744 C 1299.22 -5.18673 1.14683 0
M  V30 13745 C 1298.26 -5.68977 2.2568 0
M  V30 13746 N 1297.39 -6.79289 1.77514 0
M  V30 13747 H 1302.23 -2.31415 1.87753 0
M  V30 13748 H 1299.77 -1.13487 0.935901 0
M  V30 13749 H 1301.73 -4.16578 0.22771 0
M  V30 13750 H 1300.36 -3.20463 -0.387689 0
M  V30 13751 H 1299.41 -3.21565 2.03225 0
M  V30 13752 H 1300.72 -4.32965 2.47674 0
M  V30 13753 H 1299.88 -6.01048 0.826223 0
M  V30 13754 H 1298.62 -4.86891 0.280797 0
M  V30 13755 H 1297.62 -4.85208 2.5856 0
M  V30 13756 H 1298.85 -6.02794 3.12755 0
M  V30 13757 H 1296.79 -6.49341 0.932338 0
M  V30 13758 H 1296.71 -7.11808 2.54686 0
M  V30 13759 H 1297.98 -7.65235 1.48446 0
M  V30 13760 N 1302.21 -1.00763 -1.2118 0
M  V30 13761 C 1303.43 -0.710746 -1.94309 0
M  V30 13762 C 1303.85 0.727103 -1.74237 0
M  V30 13763 O 1303.21 1.49223 -1.05065 0
M  V30 13764 C 1303.26 -1.02562 -3.46646 0
M  V30 13765 O 1302.98 -2.40699 -3.66054 0
M  V30 13766 C 1304.48 -0.748517 -4.36935 0
M  V30 13767 H 1301.7 -0.26171 -0.617858 0
M  V30 13768 H 1304.24 -1.34639 -1.53924 0
M  V30 13769 H 1302.4 -0.435537 -3.84944 0
M  V30 13770 H 1302.81 -2.51764 -4.60125 0
M  V30 13771 H 1304.29 -1.01899 -5.42513 0
M  V30 13772 H 1304.76 0.317423 -4.38051 0
M  V30 13773 H 1305.37 -1.32033 -4.04286 0
M  V30 13774 N 1303.68 1.3679 -0.7827 0
M  V30 13775 C 1304.65 2.28472 -0.182525 0
M  V30 13776 C 1305.65 1.48524 0.616217 0
M  V30 13777 O 1306.84 1.68599 0.438197 0
M  V30 13778 C 1303.97 3.32588 0.748202 0
M  V30 13779 H 1305.16 2.83059 -0.99085 0
M  V30 13780 H 1302.72 1.46241 -0.551658 0
M  V30 13781 H 1303.45 2.83145 1.58112 0
M  V30 13782 H 1303.24 3.91698 0.177481 0
M  V30 13783 H 1304.73 4.01073 1.16321 0
M  V30 13784 N 1305.16 0.53415 1.48272 0
M  V30 13785 C 1306.57 0.0947592 1.86459 0
M  V30 13786 C 1306.92 -1.32906 1.44328 0
M  V30 13787 O 1306.05 -1.99605 0.835866 0
M  V30 13788 C 1306.64 0.16519 3.38397 0
M  V30 13789 C 1305.2 -0.219029 3.75762 0
M  V30 13790 C 1304.35 0.523097 2.72321 0
M  V30 13791 H 1307.3 0.74517 1.40117 0
M  V30 13792 H 1307.32 -0.622065 3.75381 0
M  V30 13793 H 1306.83 1.20157 3.69031 0
M  V30 13794 H 1304.94 -1.2574 3.50742 0
M  V30 13795 H 1305.05 0.123482 4.78941 0
M  V30 13796 H 1303.41 -0.0311323 2.54681 0
M  V30 13797 H 1304.2 1.56019 3.05799 0
M  V30 13798 N 1306.64 -1.55279 0.269478 0
M  V30 13799 C 1307.59 -2.18984 -0.634838 0
M  V30 13800 C 1308.57 -1.15269 -1.12258 0
M  V30 13801 O 1309.77 -1.41103 -1.0686 0
M  V30 13802 C 1306.9 -2.91014 -1.82114 0
M  V30 13803 C 1305.98 -4.02011 -1.35084 0
M  V30 13804 N 1306.37 -5.02273 -0.596299 0
M  V30 13805 C 1304.67 -4.14979 -1.63427 0
M  V30 13806 C 1305.37 -5.80647 -0.349781 0
M  V30 13807 N 1304.35 -5.35749 -0.92057 0
M  V30 13808 H 1308.15 -2.93857 -0.0504516 0
M  V30 13809 H 1305.66 -1.62237 0.0727843 0
M  V30 13810 H 1307.66 -3.35098 -2.48022 0
M  V30 13811 H 1306.32 -2.1765 -2.40953 0
M  V30 13812 H 1307.33 -5.17324 -0.244188 0
M  V30 13813 H 1304.01 -3.52802 -2.23242 0
M  V30 13814 H 1305.4 -6.71419 0.254139 0
M  V30 13815 N 1308.12 0.00332656 -1.576 0
M  V30 13816 C 1309.37 0.688044 -1.89602 0
M  V30 13817 C 1309.68 1.75121 -0.871316 0
M  V30 13818 O 1310.89 2.49032 -1.08144 0
M  V30 13819 C 1309.34 1.27494 -3.36561 0
M  V30 13820 C 1308.95 0.246771 -4.4732 0
M  V30 13821 C 1310.69 1.93804 -3.77677 0
M  V30 13822 C 1308.6 0.843471 -5.85354 0
M  V30 13823 H 1307.53 0.260747 -0.707479 0
M  V30 13824 H 1310.18 -0.0566727 -1.83412 0
M  V30 13825 H 1308.56 2.07022 -3.37577 0
M  V30 13826 H 1309.74 -0.523668 -4.57815 0
M  V30 13827 H 1308.05 -0.3157 -4.15202 0
M  V30 13828 H 1310.65 2.39347 -4.78139 0
M  V30 13829 H 1310.99 2.7672 -3.11017 0
M  V30 13830 H 1311.53 1.21015 -3.78946 0
M  V30 13831 H 1308.27 0.0531655 -6.55478 0
M  V30 13832 H 1307.79 1.58315 -5.7853 0
M  V30 13833 H 1309.46 1.34311 -6.32906 0
M  V30 13834 N 1309.6 1.55164 0.276031 0
M  V30 13835 C 1310.53 1.82758 1.36656 0
M  V30 13836 C 1311.51 0.680405 1.4768 0
M  V30 13837 O 1312.69 0.923078 1.64352 0
M  V30 13838 C 1309.82 1.98651 2.74328 0
M  V30 13839 C 1308.86 3.21192 2.80603 0
M  V30 13840 S 1309.7 4.78628 2.40156 0
M  V30 13841 C 1310.85 4.9749 3.79809 0
M  V30 13842 H 1311.09 2.74969 1.13045 0
M  V30 13843 H 1308.62 1.46896 0.4755 0
M  V30 13844 H 1310.58 2.08492 3.53612 0
M  V30 13845 H 1309.24 1.07333 2.95192 0
M  V30 13846 H 1308.43 3.29189 3.81642 0
M  V30 13847 H 1308.03 3.09926 2.09337 0
M  V30 13848 H 1310.33 4.83045 4.75051 0
M  V30 13849 H 1311.27 5.99544 3.76765 0
M  V30 13850 H 1311.68 4.25489 3.70971 0
M  V30 13851 N 1311.07 -0.540404 1.48045 0
M  V30 13852 C 1312.32 -1.2987 1.55762 0
M  V30 13853 C 1312.65 -1.92877 0.226307 0
M  V30 13854 O 1311.93 -1.7875 -0.766727 0
M  V30 13855 C 1312.21 -2.39602 2.68817 0
M  V30 13856 C 1312.06 -1.81354 4.1162 0
M  V30 13857 C 1313.38 -3.41434 2.77688 0
M  V30 13858 H 1310.5 -0.47083 0.566999 0
M  V30 13859 H 1313.14 -0.603081 1.80175 0
M  V30 13860 H 1311.29 -2.98936 2.48132 0
M  V30 13861 H 1312.97 -1.26151 4.43716 0
M  V30 13862 H 1311.21 -1.1194 4.19108 0
M  V30 13863 H 1311.88 -2.60758 4.86528 0
M  V30 13864 H 1314.36 -2.92042 2.96396 0
M  V30 13865 H 1313.23 -4.15621 3.5854 0
M  V30 13866 H 1313.49 -4.01336 1.85422 0
M  V30 13867 N 1312.55 -1.36459 -0.788468 0
M  V30 13868 C 1313.8 -1.30935 -1.54867 0
M  V30 13869 C 1314.13 0.110916 -1.93883 0
M  V30 13870 O 1313.41 1.06452 -1.62783 0
M  V30 13871 C 1313.69 -2.23294 -2.8251 0
M  V30 13872 C 1313.54 -3.74022 -2.49856 0
M  V30 13873 C 1314.86 -2.14407 -3.84341 0
M  V30 13874 H 1311.98 -0.476958 -0.561854 0
M  V30 13875 H 1314.62 -1.67018 -0.905805 0
M  V30 13876 H 1312.77 -1.92652 -3.37369 0
M  V30 13877 H 1314.44 -4.15187 -2.01041 0
M  V30 13878 H 1312.69 -3.93411 -1.82785 0
M  V30 13879 H 1313.36 -4.34057 -3.41026 0
M  V30 13880 H 1315.83 -2.41381 -3.38932 0
M  V30 13881 H 1314.71 -2.81199 -4.71401 0
M  V30 13882 H 1314.97 -1.13166 -4.27371 0
M  V30 13883 N 1314.03 1.01274 -1.20754 0
M  V30 13884 C 1314.94 2.1335 -0.975656 0
M  V30 13885 C 1315.96 1.7386 0.0697364 0
M  V30 13886 O 1317.13 2.01051 -0.118578 0
M  V30 13887 C 1314.2 3.42548 -0.534931 0
M  V30 13888 C 1313.26 3.96257 -1.65163 0
M  V30 13889 C 1312.49 5.19289 -1.23184 0
M  V30 13890 O 1312.71 5.70309 -0.102158 0
M  V30 13891 O 1311.65 5.66248 -2.04076 0
M  V30 13892 H 1315.47 2.35783 -1.91415 0
M  V30 13893 H 1313.06 1.11736 -0.991743 0
M  V30 13894 H 1314.94 4.20341 -0.298568 0
M  V30 13895 H 1313.62 3.21521 0.374937 0
M  V30 13896 H 1312.52 3.19726 -1.94232 0
M  V30 13897 H 1313.86 4.2168 -2.53864 0
M  V30 13898 N 1315.51 1.01404 1.20644 0
M  V30 13899 C 1316.93 0.728446 1.42006 0
M  V30 13900 C 1317.13 -0.692894 1.89212 0
M  V30 13901 O 1316.18 -1.46101 2.05939 0
M  V30 13902 C 1317.49 1.75198 2.44389 0
M  V30 13903 C 1319.04 1.76983 2.58159 0
M  V30 13904 C 1319.52 2.78256 3.63782 0
M  V30 13905 N 1321.01 2.7698 3.71263 0
M  V30 13906 C 1321.74 3.51999 4.52641 0
M  V30 13907 N 1321.24 4.36687 5.37844 0
M  V30 13908 N 1323.03 3.40608 4.47149 0
M  V30 13909 H 1315.18 1.93168 0.883172 0
M  V30 13910 H 1317.45 0.834287 0.450187 0
M  V30 13911 H 1317.15 2.77013 2.16695 0
M  V30 13912 H 1317.03 1.56203 3.43337 0
M  V30 13913 H 1319.41 0.758551 2.85184 0
M  V30 13914 H 1319.49 2.00051 1.59415 0
M  V30 13915 H 1319.14 3.79546 3.37501 0
M  V30 13916 H 1319.07 2.5245 4.62143 0
M  V30 13917 H 1321.56 2.15546 3.104 0
M  V30 13918 H 1321.87 4.90703 5.97018 0
M  V30 13919 H 1320.22 4.40766 5.37355 0
M  V30 13920 H 1323.41 2.73872 3.79621 0
M  V30 13921 H 1323.58 3.99327 5.10335 0
M  V30 13922 N 1316.99 -1.36373 0.789944 0
M  V30 13923 C 1318.26 -1.9349 0.286543 0
M  V30 13924 C 1318.64 -1.7218 -1.22136 0
M  V30 13925 O 1317.99 -1.08106 -2.01309 0
M  V30 13926 C 1318.2 -3.42316 0.679749 0
M  V30 13927 C 1319.55 -4.19442 0.659791 0
M  V30 13928 O 1320.57 -3.50758 0.620256 0
M  V30 13929 O 1319.43 -5.41957 0.703159 0
M  V30 13930 H 1316.53 -0.823942 0.0710537 0
M  V30 13931 H 1319.07 -1.45551 0.872523 0
M  V30 13932 H 1317.85 -3.51485 1.7197 0
M  V30 13933 H 1317.47 -3.97542 0.0676823 0
M  V30 13934 N 1318.47 -0.542005 -1.47987 0
M  V30 13935 C 1319.7 -0.0166928 -2.06593 0
M  V30 13936 C 1320.1 1.27564 -1.39728 0
M  V30 13937 O 1319.45 1.77245 -0.48268 0
M  V30 13938 C 1319.51 0.265501 -3.58518 0
M  V30 13939 C 1319.17 -0.935133 -4.4733 0
M  V30 13940 C 1320.17 -1.83673 -4.86375 0
M  V30 13941 C 1317.85 -1.14552 -4.89063 0
M  V30 13942 C 1319.85 -2.93252 -5.65935 0
M  V30 13943 C 1317.54 -2.24443 -5.68391 0
M  V30 13944 C 1318.53 -3.13625 -6.06736 0
M  V30 13945 O 1318.22 -4.21613 -6.84469 0
M  V30 13946 H 1317.95 -0.0358651 -0.675048 0
M  V30 13947 H 1320.51 -0.750565 -1.91195 0
M  V30 13948 H 1318.74 1.0535 -3.72073 0
M  V30 13949 H 1320.43 0.734348 -3.99202 0
M  V30 13950 H 1321.19 -1.68618 -4.54745 0
M  V30 13951 H 1317.07 -0.460598 -4.58693 0
M  V30 13952 H 1320.62 -3.62888 -5.95783 0
M  V30 13953 H 1316.51 -2.39477 -5.99434 0
M  V30 13954 H 1317.28 -4.19472 -7.02841 0
M  V30 13955 N 1319.94 1.55134 -0.277709 0
M  V30 13956 C 1321.35 1.85405 0.219543 0
M  V30 13957 C 1321.71 1.19973 1.55245 0
M  V30 13958 O 1320.83 0.488986 2.10803 0
M  V30 13959 C 1321.43 3.36369 0.405127 0
M  V30 13960 C 1319.98 3.66755 0.846609 0
M  V30 13961 C 1319.13 2.77238 -0.0586063 0
M  V30 13962 H 1322.08 1.50637 -0.499422 0
M  V30 13963 H 1322.1 3.59615 1.24329 0
M  V30 13964 H 1321.62 3.83963 -0.565138 0
M  V30 13965 H 1319.72 3.24662 1.82825 0
M  V30 13966 H 1319.83 4.74219 0.682135 0
M  V30 13967 H 1318.19 2.50546 0.458153 0
M  V30 13968 H 1318.98 3.27647 -1.0248 0
M  V30 13969 N 1321.42 0.00503138 1.57599 0
M  V30 13970 C 1322.38 -0.969628 2.0768 0
M  V30 13971 C 1323.38 -1.26933 0.987148 0
M  V30 13972 O 1324.57 -1.21368 1.24962 0
M  V30 13973 C 1321.71 -2.29312 2.52247 0
M  V30 13974 H 1322.9 -0.536342 2.95065 0
M  V30 13975 H 1320.45 -0.242543 1.54407 0
M  V30 13976 H 1321.19 -2.7732 1.6812 0
M  V30 13977 H 1320.97 -2.08878 3.31832 0
M  V30 13978 H 1322.46 -2.99221 2.91302 0
M  V30 13979 N 1322.9 -1.55308 -0.267798 0
M  V30 13980 C 1324.13 -1.80191 -1.01681 0
M  V30 13981 C 1324.54 -0.57783 -1.7974 0
M  V30 13982 O 1323.9 0.4532 -1.76783 0
M  V30 13983 C 1323.95 -3.03023 -1.97127 0
M  V30 13984 O 1323.67 -4.20704 -1.22229 0
M  V30 13985 C 1325.17 -3.40549 -2.83798 0
M  V30 13986 H 1322.39 -0.60013 -0.300142 0
M  V30 13987 H 1324.94 -2.02332 -0.297007 0
M  V30 13988 H 1323.09 -2.82993 -2.64563 0
M  V30 13989 H 1323.51 -4.90181 -1.86608 0
M  V30 13990 H 1324.98 -4.29653 -3.46557 0
M  V30 13991 H 1325.46 -2.60186 -3.53836 0
M  V30 13992 H 1326.06 -3.62856 -2.21846 0
M  V30 13993 N 1324.38 0.532545 -1.4833 0
M  V30 13994 C 1325.61 1.31141 -1.59642 0
M  V30 13995 C 1326.02 1.87476 -0.254835 0
M  V30 13996 O 1325.36 1.66985 0.765622 0
M  V30 13997 C 1325.42 2.50182 -2.58165 0
M  V30 13998 C 1325.08 2.14953 -4.03292 0
M  V30 13999 C 1326.08 1.70777 -4.91051 0
M  V30 14000 C 1323.77 2.25555 -4.4881 0
M  V30 14001 C 1325.76 1.37665 -6.22356 0
M  V30 14002 C 1323.45 1.92055 -5.80136 0
M  V30 14003 C 1324.45 1.48181 -6.66732 0
M  V30 14004 O 1324.13 1.15119 -7.95615 0
M  V30 14005 H 1323.87 0.405164 -0.541127 0
M  V30 14006 H 1326.42 0.649423 -1.94863 0
M  V30 14007 H 1324.65 3.19353 -2.1806 0
M  V30 14008 H 1326.34 3.12246 -2.5934 0
M  V30 14009 H 1327.1 1.62059 -4.57124 0
M  V30 14010 H 1322.98 2.5866 -3.81597 0
M  V30 14011 H 1326.53 1.03348 -6.89902 0
M  V30 14012 H 1322.42 2.00413 -6.136 0
M  V30 14013 H 1323.19 1.28539 -8.08344 0
M  V30 14014 N 1325.86 1.36875 0.78122 0
M  V30 14015 C 1326.77 1.3404 1.92537 0
M  V30 14016 C 1327.78 0.241354 1.72318 0
M  V30 14017 O 1328.96 0.475128 1.95715 0
M  V30 14018 C 1326.02 1.13708 3.27523 0
M  V30 14019 C 1325.08 2.33165 3.60462 0
M  V30 14020 C 1324.32 2.13793 4.89007 0
M  V30 14021 O 1324.54 1.11732 5.5935 0
M  V30 14022 O 1323.47 3.01762 5.20791 0
M  V30 14023 H 1327.3 2.30386 1.97879 0
M  V30 14024 H 1324.88 1.17506 0.922637 0
M  V30 14025 H 1326.77 1.0432 4.08283 0
M  V30 14026 H 1325.44 0.204306 3.23055 0
M  V30 14027 H 1324.35 2.48123 2.79974 0
M  V30 14028 H 1325.68 3.24977 3.69663 0
M  V30 14029 N 1327.33 -1.00632 1.21289 0
M  V30 14030 C 1328.75 -1.26744 0.969956 0
M  V30 14031 C 1328.95 -1.98534 -0.344449 0
M  V30 14032 O 1328.01 -2.28687 -1.07044 0
M  V30 14033 C 1329.32 -2.09238 2.15963 0
M  V30 14034 C 1330.87 -2.22469 2.20174 0
M  V30 14035 C 1331.34 -3.08344 3.38656 0
M  V30 14036 N 1332.83 -3.15932 3.38734 0
M  V30 14037 C 1333.57 -3.82632 4.2706 0
M  V30 14038 N 1333.06 -4.51371 5.25582 0
M  V30 14039 N 1334.86 -3.79259 4.14872 0
M  V30 14040 H 1327.01 -0.524626 2.05819 0
M  V30 14041 H 1329.27 -0.294231 0.901184 0
M  V30 14042 H 1328.98 -1.63835 3.11209 0
M  V30 14043 H 1328.85 -3.09987 2.14914 0
M  V30 14044 H 1331.24 -2.67091 1.25485 0
M  V30 14045 H 1331.32 -1.21194 2.25268 0
M  V30 14046 H 1330.96 -2.64425 4.33638 0
M  V30 14047 H 1330.89 -4.0973 3.30801 0
M  V30 14048 H 1333.38 -2.66998 2.67434 0
M  V30 14049 H 1333.7 -4.99966 5.89283 0
M  V30 14050 H 1332.04 -4.50162 5.29508 0
M  V30 14051 H 1335.23 -3.2471 3.37166 0
M  V30 14052 H 1335.41 -4.30963 4.83916 0
M  V30 14053 N 1328.81 -1.02043 -1.20104 0
M  V30 14054 C 1330.06 -0.711973 -1.89571 0
M  V30 14055 C 1330.39 0.758725 -1.79091 0
M  V30 14056 O 1329.64 1.56728 -1.17195 0
M  V30 14057 C 1329.94 -1.098 -3.40116 0
M  V30 14058 C 1329.61 -2.56555 -3.70797 0
M  V30 14059 C 1328.27 -2.96653 -3.78881 0
M  V30 14060 C 1330.62 -3.51543 -3.84795 0
M  V30 14061 C 1327.95 -4.30669 -3.98424 0
M  V30 14062 C 1330.3 -4.85252 -4.05849 0
M  V30 14063 C 1328.96 -5.2505 -4.12163 0
M  V30 14064 H 1328.23 -0.260529 -0.69369 0
M  V30 14065 H 1330.88 -1.28172 -1.42282 0
M  V30 14066 H 1329.19 -0.446738 -3.89245 0
M  V30 14067 H 1330.88 -0.836985 -3.92168 0
M  V30 14068 H 1327.47 -2.24488 -3.65107 0
M  V30 14069 H 1331.66 -3.21721 -3.77901 0
M  V30 14070 H 1326.91 -4.61052 -4.01548 0
M  V30 14071 H 1331.09 -5.58777 -4.15622 0
M  V30 14072 H 1328.71 -6.28908 -4.27059 0
M  V30 14073 N 1330.29 1.35952 -0.797165 0
M  V30 14074 C 1331.52 2.0328 -0.385316 0
M  V30 14075 C 1331.93 1.60095 1.00076 0
M  V30 14076 O 1331.29 0.794014 1.64322 0
M  V30 14077 C 1331.34 3.5871 -0.448284 0
M  V30 14078 O 1331.06 4.00323 -1.7797 0
M  V30 14079 C 1332.56 4.43291 -0.0280465 0
M  V30 14080 H 1329.78 0.652192 -0.157756 0
M  V30 14081 H 1332.33 1.73769 -1.07817 0
M  V30 14082 H 1330.48 3.86903 0.196224 0
M  V30 14083 H 1330.9 4.94941 -1.73592 0
M  V30 14084 H 1332.37 5.51862 -0.123234 0
M  V30 14085 H 1332.85 4.27059 1.02552 0
M  V30 14086 H 1333.45 4.20375 -0.645343 0
M  V30 14087 N 1331.77 0.549846 1.47697 0
M  V30 14088 C 1332.99 0.0256819 2.07384 0
M  V30 14089 C 1333.42 -1.25525 1.4009 0
M  V30 14090 O 1332.78 -1.7501 0.473406 0
M  V30 14091 C 1332.82 -0.160835 3.60241 0
M  V30 14092 O 1331.93 -1.22509 3.93783 0
M  V30 14093 H 1331.27 0.0480204 0.662261 0
M  V30 14094 H 1333.8 0.763429 1.89823 0
M  V30 14095 H 1333.81 -0.377337 4.06251 0
M  V30 14096 H 1332.48 0.774774 4.0862 0
M  V30 14097 H 1331.06 -0.98967 3.59527 0
M  V30 14098 N 1333.25 -1.54984 0.285932 0
M  V30 14099 C 1334.5 -1.99008 -0.328433 0
M  V30 14100 C 1334.81 -1.17787 -1.56158 0
M  V30 14101 O 1336.01 -1.52006 -2.24959 0
M  V30 14102 C 1334.47 -3.54241 -0.635688 0
M  V30 14103 C 1334.08 -4.44252 0.578271 0
M  V30 14104 C 1335.82 -4.06828 -1.21208 0
M  V30 14105 C 1333.73 -5.90892 0.245003 0
M  V30 14106 H 1332.66 -0.743314 -0.126494 0
M  V30 14107 H 1335.31 -1.79258 0.39228 0
M  V30 14108 H 1333.69 -3.69834 -1.41559 0
M  V30 14109 H 1334.87 -4.40431 1.35489 0
M  V30 14110 H 1333.18 -4.02358 1.07225 0
M  V30 14111 H 1335.78 -5.13941 -1.47542 0
M  V30 14112 H 1336.12 -3.56515 -2.14948 0
M  V30 14113 H 1336.65 -3.94718 -0.494222 0
M  V30 14114 H 1333.39 -6.45323 1.15057 0
M  V30 14115 H 1332.91 -5.97757 -0.494636 0
M  V30 14116 H 1334.59 -6.46805 -0.158891 0
M  V30 14117 N 1334.72 -0.0133892 -1.57594 0
M  V30 14118 C 1335.97 0.667313 -1.90765 0
M  V30 14119 C 1336.29 1.73564 -0.888847 0
M  V30 14120 O 1335.56 1.95768 0.0718946 0
M  V30 14121 H 1334.14 0.24947 -0.704112 0
M  V30 14122 H 1336.81 -0.0574789 -1.94815 0
M  V30 14123 H 1335.9 1.13007 -2.90922 0
M  V30 14124 N 1336.2 1.55448 0.259558 0
M  V30 14125 C 1337.61 1.67256 0.8296 0
M  V30 14126 C 1337.96 0.60851 1.86525 0
M  V30 14127 O 1337.09 -0.247563 2.14979 0
M  V30 14128 C 1337.68 3.03213 1.51152 0
M  V30 14129 C 1336.24 3.17004 2.02943 0
M  V30 14130 C 1335.39 2.63096 0.876103 0
M  V30 14131 H 1338.34 1.5866 0.0356218 0
M  V30 14132 H 1338.36 2.96952 2.37906 0
M  V30 14133 H 1337.87 3.80635 0.75752 0
M  V30 14134 H 1335.98 2.44381 2.81263 0
M  V30 14135 H 1336.09 4.23748 2.2355 0
M  V30 14136 H 1334.45 2.20596 1.27317 0
M  V30 14137 H 1335.24 3.43033 0.13539 0
M  V30 14138 N 1337.68 -0.524672 1.4861 0
M  V30 14139 C 1338.61 -1.63782 1.66426 0
M  V30 14140 C 1339.59 -1.62177 0.513077 0
M  V30 14141 O 1340.78 -1.7929 0.74623 0
M  V30 14142 C 1337.91 -3.02354 1.70877 0
M  V30 14143 C 1336.86 -3.18819 2.85549 0
M  V30 14144 C 1336.19 -4.58506 2.75094 0
M  V30 14145 C 1337.49 -3.01086 4.26784 0
M  V30 14146 H 1339.18 -1.49127 2.59618 0
M  V30 14147 H 1336.73 -0.715997 1.24938 0
M  V30 14148 H 1338.68 -3.80105 1.81929 0
M  V30 14149 H 1337.4 -3.18044 0.742682 0
M  V30 14150 H 1336.06 -2.43487 2.74061 0
M  V30 14151 H 1335.71 -4.71038 1.76443 0
M  V30 14152 H 1335.41 -4.70466 3.52044 0
M  V30 14153 H 1336.93 -5.38348 2.88121 0
M  V30 14154 H 1338.35 -3.68624 4.39077 0
M  V30 14155 H 1336.75 -3.24536 5.04774 0
M  V30 14156 H 1337.82 -1.97454 4.42877 0
M  V30 14157 N 1339.16 -1.37287 -0.77395 0
M  V30 14158 C 1340.09 -1.27239 -1.89435 0
M  V30 14159 C 1341.07 -0.153365 -1.61875 0
M  V30 14160 O 1342.25 -0.327193 -1.85639 0
M  V30 14161 C 1339.38 -0.966771 -3.24609 0
M  V30 14162 C 1338.43 -2.10237 -3.71083 0
M  V30 14163 S 1339.26 -3.72188 -3.85014 0
M  V30 14164 C 1340.42 -3.43773 -5.2304 0
M  V30 14165 H 1340.65 -2.22068 -1.97669 0
M  V30 14166 H 1338.18 -1.22884 -0.93482 0
M  V30 14167 H 1340.14 -0.797268 -4.02683 0
M  V30 14168 H 1338.8 -0.0359985 -3.14079 0
M  V30 14169 H 1337.99 -1.84349 -4.69075 0
M  V30 14170 H 1337.6 -2.23189 -3.00104 0
M  V30 14171 H 1339.89 -2.98625 -6.08136 0
M  V30 14172 H 1340.83 -4.41085 -5.5394 0
M  V30 14173 H 1341.24 -2.78753 -4.90873 0
M  V30 14174 N 1340.64 0.999871 -1.21821 0
M  V30 14175 C 1341.55 2.12303 -0.99823 0
M  V30 14176 C 1342.56 1.73924 0.0512923 0
M  V30 14177 O 1343.74 2.00914 -0.139895 0
M  V30 14178 C 1340.8 3.41962 -0.571232 0
M  V30 14179 C 1339.86 3.94483 -1.69356 0
M  V30 14180 C 1339.1 5.17954 -1.28685 0
M  V30 14181 O 1339.32 5.70168 -0.162641 0
M  V30 14182 O 1338.25 5.64051 -2.10071 0
M  V30 14183 H 1342.08 2.3374 -1.93905 0
M  V30 14184 H 1339.67 1.10677 -1.00354 0
M  V30 14185 H 1341.55 4.20001 -0.343134 0
M  V30 14186 H 1340.22 3.21901 0.340814 0
M  V30 14187 H 1339.13 3.17648 -1.97612 0
M  V30 14188 H 1340.46 4.18964 -2.58322 0
M  V30 14189 N 1342.11 1.02678 1.19562 0
M  V30 14190 C 1343.06 0.605764 2.22709 0
M  V30 14191 C 1344.03 -0.37936 1.6171 0
M  V30 14192 O 1345.22 -0.276496 1.88786 0
M  V30 14193 C 1342.36 -0.0394312 3.45077 0
M  V30 14194 C 1341.47 0.991481 4.20468 0
M  V30 14195 C 1340.6 0.316269 5.30258 0
M  V30 14196 C 1339.64 1.33324 5.97404 0
M  V30 14197 N 1338.78 0.683979 6.9876 0
M  V30 14198 H 1343.62 1.48994 2.58079 0
M  V30 14199 H 1341.16 0.745636 1.26802 0
M  V30 14200 H 1343.12 -0.430726 4.14971 0
M  V30 14201 H 1341.75 -0.887193 3.10369 0
M  V30 14202 H 1340.8 1.50085 3.49541 0
M  V30 14203 H 1342.11 1.76449 4.66548 0
M  V30 14204 H 1341.26 -0.129983 6.06561 0
M  V30 14205 H 1340 -0.488956 4.85243 0
M  V30 14206 H 1339.01 1.78977 5.19853 0
M  V30 14207 H 1340.23 2.13992 6.44503 0
M  V30 14208 H 1338.18 -0.101192 6.55922 0
M  V30 14209 H 1338.1 1.3949 7.4302 0
M  V30 14210 H 1339.36 0.261658 7.79061 0
M  V30 14211 N 1343.59 -1.35528 0.804364 0
M  V30 14212 C 1344.84 -1.98084 0.380196 0
M  V30 14213 C 1345.15 -1.64531 -1.05778 0
M  V30 14214 O 1346.36 -2.20435 -1.58495 0
M  V30 14215 C 1344.82 -3.54364 0.628848 0
M  V30 14216 C 1344.42 -3.96828 2.07921 0
M  V30 14217 C 1346.17 -4.23641 0.269927 0
M  V30 14218 C 1344.08 -5.45944 2.27374 0
M  V30 14219 H 1343.01 -0.741185 0.138422 0
M  V30 14220 H 1345.66 -1.54624 0.988107 0
M  V30 14221 H 1344.04 -3.9597 -0.0489837 0
M  V30 14222 H 1345.21 -3.6638 2.79467 0
M  V30 14223 H 1343.53 -3.40433 2.39779 0
M  V30 14224 H 1346.12 -5.33251 0.393344 0
M  V30 14225 H 1346.47 -4.08858 -0.783644 0
M  V30 14226 H 1347 -3.87448 0.901588 0
M  V30 14227 H 1343.74 -5.65693 3.31168 0
M  V30 14228 H 1343.26 -5.77969 1.6035 0
M  V30 14229 H 1344.94 -6.12376 2.08817 0
M  V30 14230 N 1345.07 -0.557671 -1.47404 0
M  V30 14231 C 1346.32 -0.0337216 -2.02072 0
M  V30 14232 C 1346.64 1.32106 -1.43433 0
M  V30 14233 O 1345.91 1.86171 -0.609692 0
M  V30 14234 H 1344.49 -0.00947648 -0.74694 0
M  V30 14235 H 1347.15 -0.727784 -1.80802 0
M  V30 14236 H 1346.25 0.0540331 -3.12053 0
M  V30 14237 N 1346.55 1.54831 -0.294147 0
M  V30 14238 C 1347.5 2.24707 0.600795 0
M  V30 14239 C 1348.49 1.25067 1.14257 0
M  V30 14240 O 1349.7 1.42939 1.094 0
M  V30 14241 H 1346.07 0.721399 0.212338 0
M  V30 14242 H 1348.04 2.98398 -0.0111682 0
M  V30 14243 C 1346.79 2.996 1.76451 0
M  V30 14244 H 1346.12 3.76072 1.35684 0
M  V30 14245 H 1347.56 3.51785 2.36692 0
M  V30 14246 C 1346.01 2.0617 2.6645 0
M  V30 14247 O 1346.54 1.62527 3.67353 0
M  V30 14248 N 1344.75 1.7227 2.34033 0
M  V30 14249 H 1344.3 2.07957 1.52025 0
M  V30 14250 H 1344.26 1.10031 2.94518 0
M  V30 14251 N 1348.03 0.0217466 1.57585 0
M  V30 14252 C 1349.28 -0.657187 1.91116 0
M  V30 14253 C 1349.6 -1.7309 0.898039 0
M  V30 14254 O 1348.87 -1.95803 -0.0615116 0
M  V30 14255 H 1347.45 -0.245732 0.705425 0
M  V30 14256 H 1350.11 0.0678096 1.94782 0
M  V30 14257 H 1349.2 -1.11462 2.91518 0
M  V30 14258 N 1349.51 -1.55583 -0.251311 0
M  V30 14259 C 1350.75 -1.76859 -0.978031 0
M  V30 14260 C 1351.07 -0.584924 -1.86021 0
M  V30 14261 O 1350.34 0.399456 -1.91784 0
M  V30 14262 H 1348.92 -0.652252 -0.364111 0
M  V30 14263 H 1351.59 -1.93016 -0.270319 0
M  V30 14264 H 1350.68 -2.67828 -1.60233 0
M  V30 14265 N 1350.98 0.516783 -1.48886 0
M  V30 14266 C 1351.93 1.62003 -1.64389 0
M  V30 14267 C 1352.9 1.58842 -0.485633 0
M  V30 14268 O 1354.09 1.77068 -0.710742 0
M  V30 14269 C 1351.23 3.00218 -1.70186 0
M  V30 14270 C 1350.34 3.13513 -2.97209 0
M  V30 14271 C 1349.47 4.42366 -2.94084 0
M  V30 14272 C 1348.51 4.49238 -4.15754 0
M  V30 14273 N 1347.65 5.69497 -4.10631 0
M  V30 14274 H 1352.49 1.48093 -2.58597 0
M  V30 14275 H 1350.03 0.720788 -1.2823 0
M  V30 14276 H 1351.98 3.80307 -1.71529 0
M  V30 14277 H 1350.61 3.12868 -0.794578 0
M  V30 14278 H 1349.67 2.26589 -3.05551 0
M  V30 14279 H 1350.98 3.14451 -3.87197 0
M  V30 14280 H 1350.13 5.3076 -2.93902 0
M  V30 14281 H 1348.87 4.43969 -2.01847 0
M  V30 14282 H 1347.88 3.59248 -4.16198 0
M  V30 14283 H 1349.1 4.49363 -5.09166 0
M  V30 14284 H 1347.05 5.71973 -3.21222 0
M  V30 14285 H 1346.96 5.71985 -4.94337 0
M  V30 14286 H 1348.23 6.60142 -4.14527 0
M  V30 14287 N 1352.46 1.37696 0.766659 0
M  V30 14288 C 1353.71 1.32922 1.52237 0
M  V30 14289 C 1354.03 -0.0842833 1.94818 0
M  V30 14290 O 1353.3 -1.02934 1.66677 0
M  V30 14291 H 1351.88 0.489049 0.564659 0
M  V30 14292 H 1354.54 1.72238 0.912142 0
M  V30 14293 H 1353.64 1.97158 2.4194 0
M  V30 14294 N 1353.94 -0.993397 1.22349 0
M  V30 14295 C 1355.19 -1.72707 1.04189 0
M  V30 14296 C 1355.5 -1.90963 -0.423381 0
M  V30 14297 O 1356.71 -2.61651 -0.724645 0
M  V30 14298 C 1355.16 -3.10739 1.81575 0
M  V30 14299 C 1354.77 -3.00415 3.32347 0
M  V30 14300 C 1356.52 -3.88155 1.71861 0
M  V30 14301 C 1354.42 -4.33598 4.02177 0
M  V30 14302 H 1353.35 -0.647556 0.386248 0
M  V30 14303 H 1356 -1.10902 1.46195 0
M  V30 14304 H 1354.39 -3.73222 1.32367 0
M  V30 14305 H 1355.56 -2.47099 3.88946 0
M  V30 14306 H 1353.87 -2.36482 3.42732 0
M  V30 14307 H 1356.47 -4.8673 2.21354 0
M  V30 14308 H 1356.81 -4.10726 0.678939 0
M  V30 14309 H 1357.35 -3.32347 2.18609 0
M  V30 14310 H 1354.09 -4.16226 5.06395 0
M  V30 14311 H 1353.61 -4.86829 3.50367 0
M  V30 14312 H 1355.29 -5.02348 4.07744 0
M  V30 14313 N 1355.42 -1.03311 -1.19015 0
M  V30 14314 C 1356.38 -0.622114 -2.20596 0
M  V30 14315 C 1357.38 0.316502 -1.57654 0
M  V30 14316 O 1358.57 0.102932 -1.73896 0
M  V30 14317 C 1355.7 0.0890432 -3.40784 0
M  V30 14318 H 1356.9 -1.52095 -2.58471 0
M  V30 14319 H 1354.45 -0.824777 -1.32767 0
M  V30 14320 H 1355.18 1.00203 -3.08431 0
M  V30 14321 H 1354.97 -0.58547 -3.87704 0
M  V30 14322 H 1356.46 0.363366 -4.16016 0
M  V30 14323 N 1356.9 1.35099 -0.81154 0
M  V30 14324 C 1358.14 1.99348 -0.403961 0
M  V30 14325 C 1358.5 1.63209 1.01885 0
M  V30 14326 O 1357.79 0.887707 1.69795 0
M  V30 14327 C 1357.98 3.53444 -0.530322 0
M  V30 14328 C 1357.81 4.04552 -1.96387 0
M  V30 14329 C 1356.58 4.33677 -2.5933 0
M  V30 14330 C 1358.78 4.2274 -2.92909 0
M  V30 14331 N 1356.76 4.70747 -3.94043 0
M  V30 14332 C 1358.13 4.62862 -4.12503 0
M  V30 14333 C 1360.19 4.0496 -2.89675 0
M  V30 14334 C 1358.89 4.87064 -5.29303 0
M  V30 14335 C 1360.92 4.30321 -4.05682 0
M  V30 14336 C 1360.28 4.7072 -5.24025 0
M  V30 14337 H 1356.38 0.757119 -0.195692 0
M  V30 14338 H 1358.96 1.63715 -1.05383 0
M  V30 14339 H 1357.13 3.88297 0.089583 0
M  V30 14340 H 1358.87 4.04584 -0.0968489 0
M  V30 14341 H 1355.62 4.24174 -2.1065 0
M  V30 14342 H 1356.04 4.93534 -4.63414 0
M  V30 14343 H 1360.69 3.72864 -1.99329 0
M  V30 14344 H 1358.4 5.18031 -6.20217 0
M  V30 14345 H 1361.99 4.18112 -4.04566 0
M  V30 14346 H 1360.87 4.89961 -6.12298 0
M  V30 14347 N 1358.37 0.56548 1.47106 0
M  V30 14348 C 1359.32 -0.190542 2.31818 0
M  V30 14349 C 1360.32 -0.901279 1.43434 0
M  V30 14350 O 1361.52 -0.821625 1.60154 0
M  V30 14351 H 1357.9 -0.0803183 0.747698 0
M  V30 14352 H 1359.87 0.542999 2.93418 0
M  V30 14353 C 1358.62 -1.20208 3.2626 0
M  V30 14354 H 1357.94 -0.664608 3.94237 0
M  V30 14355 H 1359.38 -1.7018 3.88349 0
M  V30 14356 C 1357.84 -2.25423 2.50372 0
M  V30 14357 O 1358.37 -3.3249 2.25418 0
M  V30 14358 N 1356.57 -1.9957 2.11235 0
M  V30 14359 H 1356.12 -1.12513 2.31729 0
M  V30 14360 H 1356.08 -2.70182 1.60777 0
M  V30 14361 N 1359.85 -1.54672 0.302354 0
M  V30 14362 C 1361.08 -2.04578 -0.309093 0
M  V30 14363 C 1361.5 -1.17957 -1.47416 0
M  V30 14364 O 1360.85 -0.2055 -1.81339 0
M  V30 14365 C 1360.9 -3.53334 -0.764023 0
M  V30 14366 O 1360.62 -4.36662 0.354674 0
M  V30 14367 C 1362.13 -4.19243 -1.44048 0
M  V30 14368 H 1359.35 -0.667651 -0.0669575 0
M  V30 14369 H 1361.89 -1.99658 0.442379 0
M  V30 14370 H 1360.04 -3.5861 -1.46552 0
M  V30 14371 H 1360.46 -5.245 0.000241188 0
M  V30 14372 H 1361.93 -5.24847 -1.70995 0
M  V30 14373 H 1362.41 -3.69061 -2.38098 0
M  V30 14374 H 1363.02 -4.18046 -0.782132 0
M  V30 14375 N 1361.33 -0.0301034 -1.57571 0
M  V30 14376 C 1362.26 0.980187 -2.07183 0
M  V30 14377 C 1363.28 1.2882 -0.995449 0
M  V30 14378 O 1364.46 1.25268 -1.27162 0
M  V30 14379 C 1361.56 2.30734 -2.48224 0
M  V30 14380 C 1360.74 2.18434 -3.78953 0
M  V30 14381 C 1359.8 3.34092 -4.06533 0
M  V30 14382 O 1358.82 3.10934 -4.76769 0
M  V30 14383 N 1360.02 4.57914 -3.56784 0
M  V30 14384 H 1362.79 0.556877 -2.94481 0
M  V30 14385 H 1360.35 0.156632 -1.61141 0
M  V30 14386 H 1362.34 3.06936 -2.63766 0
M  V30 14387 H 1360.91 2.64703 -1.66287 0
M  V30 14388 H 1360.13 1.26953 -3.73198 0
M  V30 14389 H 1361.42 2.07421 -4.64601 0
M  V30 14390 H 1360.82 4.79623 -2.99964 0
M  V30 14391 H 1359.38 5.31281 -3.77603 0
M  V30 14392 N 1362.81 1.55714 0.243056 0
M  V30 14393 C 1364.03 1.82126 0.992219 0
M  V30 14394 C 1364.46 0.607665 1.78014 0
M  V30 14395 O 1363.82 -0.443351 1.75796 0
M  V30 14396 C 1363.86 3.06314 1.90274 0
M  V30 14397 O 1362.97 2.83499 2.99503 0
M  V30 14398 H 1362.31 0.601082 0.282128 0
M  V30 14399 H 1364.84 2.02904 0.262881 0
M  V30 14400 H 1364.85 3.35849 2.31666 0
M  V30 14401 H 1363.52 3.94282 1.32344 0
M  V30 14402 H 1362.1 2.65141 2.62211 0
M  V30 14403 N 1364.29 -0.50888 1.49158 0
M  V30 14404 C 1365.2 -1.63782 1.67966 0
M  V30 14405 C 1366.21 -1.64667 0.562207 0
M  V30 14406 O 1367.39 -1.83232 0.835935 0
M  V30 14407 C 1364.45 -3.00179 1.73474 0
M  V30 14408 C 1363.51 -3.09983 2.97 0
M  V30 14409 C 1362.75 -4.39875 3.02235 0
M  V30 14410 O 1362.97 -5.28214 2.15282 0
M  V30 14411 O 1361.9 -4.54486 3.94621 0
M  V30 14412 H 1365.73 -1.50846 2.63589 0
M  V30 14413 H 1363.32 -0.684306 1.32807 0
M  V30 14414 H 1365.2 -3.8126 1.79495 0
M  V30 14415 H 1363.87 -3.13394 0.810287 0
M  V30 14416 H 1362.78 -2.28119 2.965 0
M  V30 14417 H 1364.11 -3.01693 3.88899 0
M  V30 14418 N 1365.76 -1.381 -0.759346 0
M  V30 14419 C 1366.7 -1.29241 -1.88075 0
M  V30 14420 C 1367.68 -0.170526 -1.61703 0
M  V30 14421 O 1368.86 -0.346865 -1.85281 0
M  V30 14422 C 1365.99 -1.00115 -3.23566 0
M  V30 14423 C 1365.03 -2.14161 -3.68832 0
M  V30 14424 S 1365.87 -3.76251 -3.81045 0
M  V30 14425 C 1367.02 -3.49301 -5.19365 0
M  V30 14426 H 1367.25 -2.24152 -1.95303 0
M  V30 14427 H 1364.79 -1.23869 -0.921734 0
M  V30 14428 H 1366.75 -0.839934 -4.01815 0
M  V30 14429 H 1365.41 -0.0693088 -3.14024 0
M  V30 14430 H 1364.6 -1.89313 -4.67094 0
M  V30 14431 H 1364.2 -2.2636 -2.9772 0
M  V30 14432 H 1366.49 -3.05058 -6.04935 0
M  V30 14433 H 1367.44 -4.46935 -5.49231 0
M  V30 14434 H 1367.84 -2.83944 -4.87889 0
M  V30 14435 N 1367.24 0.986894 -1.22875 0
M  V30 14436 C 1368.52 1.70121 -0.965311 0
M  V30 14437 C 1368.9 2.04648 0.517924 0
M  V30 14438 O 1368.25 1.73453 1.48749 0
M  V30 14439 C 1368.46 2.94738 -1.86897 0
M  V30 14440 C 1369.81 3.6739 -2.12861 0
M  V30 14441 O 1370.83 3.04758 -1.84394 0
M  V30 14442 O 1369.69 4.8009 -2.61106 0
M  V30 14443 H 1366.78 0.742817 -0.363527 0
M  V30 14444 H 1369.33 1.0427 -1.33887 0
M  V30 14445 H 1368.1 2.65771 -2.87196 0
M  V30 14446 H 1367.72 3.68327 -1.49736 0
M  V30 14447 N 1368.72 1.0394 1.18466 0
M  V30 14448 C 1369.65 0.650182 2.24265 0
M  V30 14449 C 1370.63 -0.345968 1.66545 0
M  V30 14450 O 1371.82 -0.226348 1.92876 0
M  V30 14451 C 1368.95 0.0110451 3.47298 0
M  V30 14452 C 1367.9 0.930599 4.17761 0
M  V30 14453 C 1367.23 0.156005 5.34472 0
M  V30 14454 C 1368.53 2.24913 4.71393 0
M  V30 14455 H 1370.22 1.53465 2.57078 0
M  V30 14456 H 1367.77 0.739343 1.23571 0
M  V30 14457 H 1369.72 -0.272959 4.20515 0
M  V30 14458 H 1368.44 -0.908288 3.13716 0
M  V30 14459 H 1367.1 1.19897 3.4644 0
M  V30 14460 H 1366.75 -0.765695 4.97138 0
M  V30 14461 H 1366.45 0.768606 5.82551 0
M  V30 14462 H 1367.97 -0.121011 6.1048 0
M  V30 14463 H 1369.39 2.02592 5.36311 0
M  V30 14464 H 1367.79 2.81459 5.30001 0
M  V30 14465 H 1368.86 2.8965 3.88884 0
M  V30 14466 N 1370.2 -1.34667 0.818693 0
M  V30 14467 C 1371.13 -2.32134 0.252239 0
M  V30 14468 C 1372.11 -1.58044 -0.628982 0
M  V30 14469 O 1373.29 -1.86049 -0.55674 0
M  V30 14470 C 1370.42 -3.42249 -0.590183 0
M  V30 14471 C 1369.38 -4.27562 0.193547 0
M  V30 14472 C 1368.7 -5.29107 -0.771349 0
M  V30 14473 C 1370 -5.03205 1.39936 0
M  V30 14474 H 1371.7 -2.79758 1.06657 0
M  V30 14475 H 1369.24 -1.34502 0.514325 0
M  V30 14476 H 1371.2 -4.09445 -0.996616 0
M  V30 14477 H 1369.92 -2.93262 -1.43752 0
M  V30 14478 H 1368.58 -3.61962 0.581297 0
M  V30 14479 H 1368.23 -4.76384 -1.61453 0
M  V30 14480 H 1367.93 -5.87063 -0.251201 0
M  V30 14481 H 1369.45 -5.99174 -1.17573 0
M  V30 14482 H 1370.87 -5.6328 1.06717 0
M  V30 14483 H 1369.26 -5.70715 1.85485 0
M  V30 14484 H 1370.33 -4.33145 2.17976 0
M  V30 14485 N 1371.68 -0.573274 -1.46804 0
M  V30 14486 C 1373.09 -0.23423 -1.57872 0
M  V30 14487 C 1373.29 1.26342 -1.56971 0
M  V30 14488 O 1372.35 2.04459 -1.48165 0
M  V30 14489 C 1373.66 -0.875097 -2.87685 0
M  V30 14490 C 1375.21 -0.847812 -3.01299 0
M  V30 14491 C 1375.68 -1.46804 -4.33835 0
M  V30 14492 N 1377.18 -1.43196 -4.4051 0
M  V30 14493 C 1377.91 -1.88133 -5.41658 0
M  V30 14494 N 1377.41 -2.41001 -6.49531 0
M  V30 14495 N 1379.2 -1.79107 -5.32801 0
M  V30 14496 H 1371.35 -1.54612 -1.45633 0
M  V30 14497 H 1373.61 -0.645703 -0.694098 0
M  V30 14498 H 1373.32 -1.92826 -2.94127 0
M  V30 14499 H 1373.19 -0.377671 -3.75305 0
M  V30 14500 H 1375.58 0.196707 -2.94444 0
M  V30 14501 H 1375.66 -1.38316 -2.1518 0
M  V30 14502 H 1375.31 -2.51171 -4.41447 0
M  V30 14503 H 1375.24 -0.908 -5.18713 0
M  V30 14504 H 1377.73 -1.04541 -3.63152 0
M  V30 14505 H 1378.04 -2.73172 -7.22908 0
M  V30 14506 H 1376.38 -2.45021 -6.50377 0
M  V30 14507 H 1379.58 -1.37569 -4.47429 0
M  V30 14508 H 1379.75 -2.14445 -6.11488 0
M  V30 14509 N 1373.15 1.5451 -0.310553 0
M  V30 14510 C 1374.1 2.23871 0.561277 0
M  V30 14511 C 1375.07 1.22475 1.12202 0
M  V30 14512 O 1376.26 1.51121 1.16477 0
M  V30 14513 C 1373.4 2.99029 1.72267 0
M  V30 14514 C 1372.51 4.15218 1.19241 0
M  V30 14515 C 1371.64 4.77935 2.31843 0
M  V30 14516 C 1370.68 5.86251 1.75999 0
M  V30 14517 N 1369.82 6.42885 2.82212 0
M  V30 14518 H 1374.66 2.97977 -0.0367998 0
M  V30 14519 H 1372.2 1.4707 -0.0299317 0
M  V30 14520 H 1374.16 3.40842 2.40588 0
M  V30 14521 H 1372.79 2.27281 2.29223 0
M  V30 14522 H 1371.84 3.78279 0.401148 0
M  V30 14523 H 1373.15 4.93225 0.743675 0
M  V30 14524 H 1372.3 5.2265 3.08094 0
M  V30 14525 H 1371.04 3.99281 2.80047 0
M  V30 14526 H 1370.05 5.40952 0.982415 0
M  V30 14527 H 1371.27 6.66795 1.28688 0
M  V30 14528 H 1369.22 5.67109 3.29732 0
M  V30 14529 H 1369.14 7.16267 2.41864 0
M  V30 14530 H 1370.4 6.92256 3.58332 0
M  V30 14531 N 1374.63 0.0384594 1.57553 0
M  V30 14532 C 1375.56 -0.938444 2.13812 0
M  V30 14533 C 1376.54 -1.33307 1.05657 0
M  V30 14534 O 1377.73 -1.41003 1.33535 0
M  V30 14535 C 1374.86 -2.21764 2.67279 0
M  V30 14536 C 1373.81 -1.96347 3.80305 0
M  V30 14537 C 1373.14 -3.30612 4.20238 0
M  V30 14538 C 1374.44 -1.2952 5.05986 0
M  V30 14539 H 1376.13 -0.469887 2.9569 0
M  V30 14540 H 1373.68 -0.224576 1.42238 0
M  V30 14541 H 1375.63 -2.90493 3.05273 0
M  V30 14542 H 1374.36 -2.70802 1.82576 0
M  V30 14543 H 1373.02 -1.30033 3.42764 0
M  V30 14544 H 1372.66 -3.77427 3.32502 0
M  V30 14545 H 1372.36 -3.14409 4.96408 0
M  V30 14546 H 1373.89 -4.00594 4.60822 0
M  V30 14547 H 1375.3 -1.88264 5.41507 0
M  V30 14548 H 1373.7 -1.23685 5.87216 0
M  V30 14549 H 1374.77 -0.269439 4.84151 0
M  V30 14550 N 1376.11 -1.55841 -0.234795 0
M  V30 14551 C 1377.06 -1.92165 -1.31055 0
M  V30 14552 C 1378.05 -0.802106 -1.49207 0
M  V30 14553 O 1379.26 -0.986832 -1.50538 0
M  V30 14554 H 1375.63 -0.610487 -0.439101 0
M  V30 14555 H 1377.61 -2.81955 -0.976926 0
M  V30 14556 C 1376.35 -2.24329 -2.65654 0
M  V30 14557 H 1375.68 -3.09982 -2.5249 0
M  V30 14558 H 1377.12 -2.53639 -3.3977 0
M  V30 14559 C 1375.58 -1.0638 -3.19664 0
M  V30 14560 O 1376.11 -0.318047 -4.00439 0
M  V30 14561 N 1374.31 -0.851167 -2.77855 0
M  V30 14562 H 1373.86 -1.45932 -2.12277 0
M  V30 14563 H 1373.82 -0.0636875 -3.14335 0
M  V30 14564 N 1377.59 0.500963 -1.49426 0
M  V30 14565 C 1378.82 1.27725 -1.62388 0
M  V30 14566 C 1379.23 1.86893 -0.294544 0
M  V30 14567 O 1378.57 1.68571 0.73003 0
M  V30 14568 C 1378.63 2.44649 -2.63414 0
M  V30 14569 C 1378.3 2.0635 -4.0776 0
M  V30 14570 C 1379.29 1.60323 -4.94563 0
M  V30 14571 C 1376.98 2.15984 -4.53493 0
M  V30 14572 C 1378.97 1.24433 -6.25136 0
M  V30 14573 C 1376.66 1.79706 -5.8408 0
M  V30 14574 C 1377.66 1.34005 -6.69725 0
M  V30 14575 O 1377.35 0.982171 -7.97878 0
M  V30 14576 H 1377.08 0.393595 -0.549599 0
M  V30 14577 H 1379.63 0.607944 -1.96197 0
M  V30 14578 H 1377.86 3.14656 -2.24785 0
M  V30 14579 H 1379.55 3.06675 -2.65905 0
M  V30 14580 H 1380.32 1.52326 -4.60458 0
M  V30 14581 H 1376.2 2.50507 -3.86998 0
M  V30 14582 H 1379.74 0.886906 -6.91939 0
M  V30 14583 H 1375.64 1.87352 -6.17713 0
M  V30 14584 H 1376.4 1.11364 -8.10889 0
M  V30 14585 N 1379.07 1.38501 0.752011 0
M  V30 14586 C 1380.3 1.38032 1.54125 0
M  V30 14587 C 1380.71 -0.0295066 1.88777 0
M  V30 14588 O 1380.07 -0.996522 1.52891 0
M  V30 14589 C 1380.12 2.23741 2.83941 0
M  V30 14590 O 1379.84 3.59232 2.50767 0
M  V30 14591 C 1381.34 2.31469 3.7807 0
M  V30 14592 H 1378.56 0.472077 0.476848 0
M  V30 14593 H 1381.1 1.82101 0.930572 0
M  V30 14594 H 1379.26 1.8313 3.41383 0
M  V30 14595 H 1379.67 4.04376 3.34036 0
M  V30 14596 H 1381.15 2.95722 4.66103 0
M  V30 14597 H 1381.62 1.32882 4.18616 0
M  V30 14598 H 1382.23 2.72477 3.26552 0
M  V30 14599 N 1380.55 -0.980364 1.23396 0
M  V30 14600 C 1381.49 -2.07275 1.01516 0
M  V30 14601 C 1382.46 -1.65963 -0.0673729 0
M  V30 14602 O 1383.65 -1.90612 0.0847392 0
M  V30 14603 C 1380.79 -3.39621 0.61249 0
M  V30 14604 C 1379.9 -3.94203 1.76715 0
M  V30 14605 C 1379.04 -5.14761 1.31126 0
M  V30 14606 C 1378.07 -5.61509 2.43667 0
M  V30 14607 N 1377.21 -6.73297 1.99035 0
M  V30 14608 H 1382.05 -2.25325 1.9502 0
M  V30 14609 H 1379.59 -1.10452 0.971532 0
M  V30 14610 H 1381.55 -4.15643 0.360126 0
M  V30 14611 H 1380.18 -3.21535 -0.285539 0
M  V30 14612 H 1379.23 -3.14937 2.13352 0
M  V30 14613 H 1380.54 -4.24867 2.61323 0
M  V30 14614 H 1379.69 -5.98115 1.01702 0
M  V30 14615 H 1378.43 -4.85751 0.435555 0
M  V30 14616 H 1377.44 -4.76737 2.73865 0
M  V30 14617 H 1378.66 -5.92539 3.31774 0
M  V30 14618 H 1376.61 -6.46046 1.13845 0
M  V30 14619 H 1376.53 -7.03345 2.77203 0
M  V30 14620 H 1377.79 -7.60125 1.72716 0
M  V30 14621 N 1382.02 -1.04567 -1.17913 0
M  V30 14622 C 1382.99 -0.645476 -2.19923 0
M  V30 14623 C 1383.99 0.299763 -1.57981 0
M  V30 14624 O 1385.18 0.0844825 -1.73995 0
M  V30 14625 C 1382.31 0.0528935 -3.40859 0
M  V30 14626 H 1383.5 -1.54828 -2.56843 0
M  V30 14627 H 1381.05 -0.838812 -1.31885 0
M  V30 14628 H 1381.79 0.969261 -3.09477 0
M  V30 14629 H 1381.57 -0.626558 -3.87062 0
M  V30 14630 H 1383.06 0.319221 -4.16378 0
M  V30 14631 N 1383.5 1.34231 -0.825823 0
M  V30 14632 C 1384.41 2.33245 -0.251803 0
M  V30 14633 C 1385.43 1.62756 0.615334 0
M  V30 14634 O 1386.6 1.94503 0.522547 0
M  V30 14635 C 1383.67 3.41908 0.574456 0
M  V30 14636 C 1382.73 4.2814 -0.315422 0
M  V30 14637 C 1381.96 5.31613 0.471496 0
M  V30 14638 O 1382.19 5.44337 1.70449 0
M  V30 14639 O 1381.12 6.01719 -0.147691 0
M  V30 14640 H 1384.95 2.84174 -1.07139 0
M  V30 14641 H 1382.53 1.37341 -0.588032 0
M  V30 14642 H 1384.41 4.08252 1.04444 0
M  V30 14643 H 1383.09 2.93217 1.37132 0
M  V30 14644 H 1381.99 3.64709 -0.832963 0
M  V30 14645 H 1383.33 4.80279 -1.07672 0
M  V30 14646 N 1384.98 0.581051 1.46498 0
M  V30 14647 C 1386.23 0.0658652 2.01993 0
M  V30 14648 C 1386.55 -1.29807 1.45516 0
M  V30 14649 O 1385.82 -1.85177 0.639233 0
M  V30 14650 H 1384.4 0.0213584 0.746695 0
M  V30 14651 H 1387.06 0.756456 1.79621 0
M  V30 14652 H 1386.16 -0.00438128 3.121 0
M  V30 14653 N 1386.46 -1.54343 0.318742 0
M  V30 14654 C 1387.87 -1.85922 -0.170309 0
M  V30 14655 C 1388.22 -1.24047 -1.52009 0
M  V30 14656 O 1387.34 -0.544705 -2.09432 0
M  V30 14657 C 1387.94 -3.37325 -0.315802 0
M  V30 14658 C 1386.5 -3.68871 -0.749073 0
M  V30 14659 C 1385.65 -2.76985 0.13209 0
M  V30 14660 H 1388.6 -1.4926 0.539185 0
M  V30 14661 H 1388.62 -3.62784 -1.14751 0
M  V30 14662 H 1388.13 -3.8233 0.66674 0
M  V30 14663 H 1386.23 -3.29396 -1.74153 0
M  V30 14664 H 1386.34 -4.75861 -0.556164 0
M  V30 14665 H 1384.71 -2.51672 -0.391564 0
M  V30 14666 H 1385.49 -3.24815 1.11131 0
M  V30 14667 N 1387.94 -0.0468143 -1.5753 0
M  V30 14668 C 1388.9 0.914225 -2.10177 0
M  V30 14669 C 1389.9 1.24271 -1.02045 0
M  V30 14670 O 1391.09 1.18012 -1.28136 0
M  V30 14671 C 1388.22 2.22544 -2.58238 0
M  V30 14672 H 1389.41 0.457922 -2.96383 0
M  V30 14673 H 1386.97 0.20152 -1.54995 0
M  V30 14674 H 1387.7 2.72765 -1.75413 0
M  V30 14675 H 1387.49 2.00007 -3.37253 0
M  V30 14676 H 1388.98 2.91392 -2.99133 0
M  V30 14677 N 1389.41 1.55964 0.226527 0
M  V30 14678 C 1390.36 1.92007 1.28069 0
M  V30 14679 C 1391.33 0.776666 1.46823 0
M  V30 14680 O 1392.52 1.03213 1.60474 0
M  V30 14681 C 1389.66 2.23784 2.62707 0
M  V30 14682 C 1388.77 3.51034 2.51792 0
M  V30 14683 C 1387.9 3.72281 3.7892 0
M  V30 14684 C 1386.94 4.93062 3.62707 0
M  V30 14685 N 1386.08 5.10725 4.81772 0
M  V30 14686 H 1390.92 2.81898 0.96631 0
M  V30 14687 H 1388.46 1.39529 0.465847 0
M  V30 14688 H 1390.42 2.40217 3.41104 0
M  V30 14689 H 1389.05 1.37073 2.92251 0
M  V30 14690 H 1388.1 3.42822 1.64856 0
M  V30 14691 H 1389.41 4.39582 2.35731 0
M  V30 14692 H 1388.56 3.88783 4.6576 0
M  V30 14693 H 1387.3 2.82004 3.97901 0
M  V30 14694 H 1386.31 4.76515 2.7425 0
M  V30 14695 H 1387.53 5.84819 3.45201 0
M  V30 14696 H 1385.48 4.2339 5.01076 0
M  V30 14697 H 1385.4 5.93397 4.68419 0
M  V30 14698 H 1386.66 5.31658 5.70053 0
M  V30 14699 N 1390.89 -0.493031 1.4969 0
M  V30 14700 C 1392.14 -1.24418 1.59263 0
M  V30 14701 C 1392.46 -1.92908 0.284882 0
M  V30 14702 O 1391.73 -1.83108 -0.696302 0
M  V30 14703 H 1390.31 -0.462223 0.586821 0
M  V30 14704 H 1392.97 -0.570713 1.86357 0
M  V30 14705 H 1392.07 -2.00386 2.39274 0
M  V30 14706 N 1392.37 -1.38898 -0.744656 0
M  V30 14707 C 1393.3 -1.32739 -1.8685 0
M  V30 14708 C 1394.32 -0.23793 -1.61052 0
M  V30 14709 O 1395.5 -0.496166 -1.71466 0
M  V30 14710 C 1392.6 -1.03602 -3.22676 0
M  V30 14711 C 1391.78 -2.23634 -3.75908 0
M  V30 14712 C 1390.84 -1.91103 -4.90271 0
M  V30 14713 O 1389.86 -2.6369 -5.04437 0
M  V30 14714 N 1391.06 -0.871358 -5.73923 0
M  V30 14715 H 1393.83 -2.29585 -1.92641 0
M  V30 14716 H 1391.39 -1.32875 -0.924979 0
M  V30 14717 H 1393.38 -0.798755 -3.96739 0
M  V30 14718 H 1391.95 -0.155218 -3.12214 0
M  V30 14719 H 1391.17 -2.63371 -2.93307 0
M  V30 14720 H 1392.46 -3.0372 -4.08205 0
M  V30 14721 H 1391.86 -0.269591 -5.65057 0
M  V30 14722 H 1390.42 -0.693984 -6.48095 0
M  V30 14723 N 1393.85 0.973806 -1.23914 0
M  V30 14724 C 1395.26 1.53057 -1.06913 0
M  V30 14725 C 1395.61 1.92842 0.361423 0
M  V30 14726 O 1394.74 1.76716 1.24901 0
M  V30 14727 C 1395.33 2.78137 -1.93457 0
M  V30 14728 C 1393.89 3.3019 -1.80697 0
M  V30 14729 C 1393.04 2.03137 -1.88761 0
M  V30 14730 H 1395.99 0.792767 -1.37481 0
M  V30 14731 H 1396.01 3.5124 -1.46325 0
M  V30 14732 H 1395.52 2.49149 -2.97568 0
M  V30 14733 H 1393.62 3.64043 -0.793951 0
M  V30 14734 H 1393.73 3.99503 -2.64451 0
M  V30 14735 H 1392.1 2.17572 -1.32418 0
M  V30 14736 H 1392.88 1.76522 -2.9444 0
M  V30 14737 N 1395.33 1.05191 1.17357 0
M  V30 14738 C 1396.26 0.597207 2.20247 0
M  V30 14739 C 1397.24 -0.374194 1.58236 0
M  V30 14740 O 1398.42 -0.285815 1.86321 0
M  V30 14741 C 1395.55 -0.126012 3.38466 0
M  V30 14742 C 1394.59 0.800401 4.18922 0
M  V30 14743 S 1395.43 2.28956 4.84086 0
M  V30 14744 C 1396.58 1.57751 6.05694 0
M  V30 14745 H 1396.82 1.46893 2.58476 0
M  V30 14746 H 1394.35 0.863874 1.27971 0
M  V30 14747 H 1396.31 -0.537086 4.06971 0
M  V30 14748 H 1394.97 -0.97377 2.98624 0
M  V30 14749 H 1394.16 0.240754 5.03425 0
M  V30 14750 H 1393.76 1.15084 3.55853 0
M  V30 14751 H 1396.06 0.876839 6.71802 0
M  V30 14752 H 1397 2.40001 6.66187 0
M  V30 14753 H 1397.41 1.06493 5.54364 0
M  V30 14754 N 1396.8 -1.33791 0.83293 0
M  V30 14755 C 1397.73 -2.31853 0.276846 0
M  V30 14756 C 1398.72 -1.58702 -0.612184 0
M  V30 14757 O 1399.9 -1.86629 -0.536975 0
M  V30 14758 C 1397.03 -3.42855 -0.55385 0
M  V30 14759 C 1395.98 -4.27333 0.238884 0
M  V30 14760 C 1395.31 -5.29895 -0.715187 0
M  V30 14761 C 1396.61 -5.01692 1.45265 0
M  V30 14762 H 1398.3 -2.78611 1.09618 0
M  V30 14763 H 1395.85 -1.33949 0.528562 0
M  V30 14764 H 1397.8 -4.10479 -0.953133 0
M  V30 14765 H 1396.53 -2.94771 -1.40634 0
M  V30 14766 H 1395.19 -3.61325 0.619656 0
M  V30 14767 H 1394.83 -4.7807 -1.56391 0
M  V30 14768 H 1394.53 -5.87296 -0.188921 0
M  V30 14769 H 1396.06 -6.00387 -1.11211 0
M  V30 14770 H 1397.47 -5.62117 1.12685 0
M  V30 14771 H 1395.87 -5.68715 1.91528 0
M  V30 14772 H 1396.94 -4.30809 2.22558 0
M  V30 14773 N 1398.28 -0.588812 -1.46187 0
M  V30 14774 C 1399.23 0.153638 -2.32092 0
M  V30 14775 C 1400.22 0.878346 -1.4485 0
M  V30 14776 O 1401.43 0.796042 -1.61441 0
M  V30 14777 H 1397.81 0.0684129 -0.748882 0
M  V30 14778 H 1399.78 -0.58961 -2.92517 0
M  V30 14779 C 1398.53 1.15003 -3.28131 0
M  V30 14780 H 1397.85 0.601804 -3.95245 0
M  V30 14781 H 1399.29 1.6398 -3.91007 0
M  V30 14782 C 1397.75 2.21411 -2.53926 0
M  V30 14783 O 1398.28 3.28862 -2.30679 0
M  V30 14784 N 1396.48 1.96184 -2.14383 0
M  V30 14785 H 1396.03 1.08812 -2.3349 0
M  V30 14786 H 1395.99 2.6759 -1.65055 0
M  V30 14787 N 1399.76 1.54172 -0.326923 0
M  V30 14788 C 1400.99 2.05044 0.276508 0
M  V30 14789 C 1401.4 1.20288 1.45521 0
M  V30 14790 O 1400.76 0.234324 1.80989 0
M  V30 14791 C 1400.81 3.54505 0.707714 0
M  V30 14792 O 1400.53 4.36042 -0.424098 0
M  V30 14793 C 1402.03 4.21482 1.3736 0
M  V30 14794 H 1399.25 0.668632 0.0563273 0
M  V30 14795 H 1401.8 1.98929 -0.474087 0
M  V30 14796 H 1399.95 3.60896 1.40828 0
M  V30 14797 H 1400.37 5.24433 -0.0836846 0
M  V30 14798 H 1401.84 5.27501 1.62623 0
M  V30 14799 H 1402.32 3.72802 2.32196 0
M  V30 14800 H 1402.92 4.19238 0.715526 0
M  V30 14801 N 1401.24 0.0551678 1.57503 0
M  V30 14802 C 1402.2 -0.903065 2.10659 0
M  V30 14803 C 1403.2 -1.23728 1.02703 0
M  V30 14804 O 1404.39 -1.17331 1.2876 0
M  V30 14805 C 1401.52 -2.21171 2.59415 0
M  V30 14806 H 1402.72 -0.442197 2.96622 0
M  V30 14807 H 1400.27 -0.193297 1.551 0
M  V30 14808 H 1401 -2.71831 1.76858 0
M  V30 14809 H 1400.79 -1.98216 3.38309 0
M  V30 14810 H 1402.28 -2.89802 3.00674 0
M  V30 14811 N 1402.72 -1.56081 -0.218252 0
M  V30 14812 C 1403.97 -1.78445 -0.94022 0
M  V30 14813 C 1404.28 -0.624317 -1.85369 0
M  V30 14814 O 1405.48 -0.731669 -2.61455 0
M  V30 14815 C 1403.94 -3.16026 -1.72208 0
M  V30 14816 C 1403.55 -4.39774 -0.854584 0
M  V30 14817 C 1405.29 -3.47714 -2.43506 0
M  V30 14818 C 1403.2 -5.68379 -1.63398 0
M  V30 14819 H 1402.13 -0.665303 -0.354806 0
M  V30 14820 H 1404.78 -1.82471 -0.194021 0
M  V30 14821 H 1403.16 -3.06185 -2.5113 0
M  V30 14822 H 1404.34 -4.60679 -0.105659 0
M  V30 14823 H 1402.65 -4.15627 -0.253562 0
M  V30 14824 H 1405.25 -4.41026 -3.02325 0
M  V30 14825 H 1405.59 -2.70367 -3.16555 0
M  V30 14826 H 1406.12 -3.58899 -1.71571 0
M  V30 14827 H 1402.86 -6.48628 -0.946704 0
M  V30 14828 H 1402.38 -5.5153 -2.35743 0
M  V30 14829 H 1404.06 -6.08672 -2.1938 0
M  V30 14830 N 1404.2 0.485086 -1.49949 0
M  V30 14831 C 1405.47 1.24639 -1.50747 0
M  V30 14832 C 1405.85 2.09683 -0.244162 0
M  V30 14833 O 1405.2 2.1503 0.772949 0
M  V30 14834 C 1405.41 2.08946 -2.7954 0
M  V30 14835 C 1406.76 2.67604 -3.29656 0
M  V30 14836 O 1407.78 2.192 -2.80766 0
M  V30 14837 O 1406.64 3.55761 -4.14845 0
M  V30 14838 H 1403.74 0.564849 -0.604049 0
M  V30 14839 H 1406.28 0.498052 -1.62227 0
M  V30 14840 H 1405.05 1.46185 -3.62968 0
M  V30 14841 H 1404.68 2.90941 -2.70997 0
M  V30 14842 N 1405.67 1.39291 0.737279 0
M  V30 14843 C 1406.64 1.37607 1.83294 0
M  V30 14844 C 1407.64 0.273594 1.58455 0
M  V30 14845 O 1408.83 0.531375 1.65898 0
M  V30 14846 C 1405.96 1.14642 3.21045 0
M  V30 14847 H 1407.15 2.35102 1.86191 0
M  V30 14848 H 1404.7 1.24822 0.940696 0
M  V30 14849 H 1405.44 0.178202 3.2381 0
M  V30 14850 H 1405.22 1.94479 3.40471 0
M  V30 14851 H 1406.71 1.162 4.01108 0
M  V30 14852 N 1407.15 -0.967221 1.24429 0
M  V30 14853 C 1408.11 -2.04344 1.03808 0
M  V30 14854 C 1409.11 -1.60799 -0.00476972 0
M  V30 14855 O 1410.3 -1.72591 0.236241 0
M  V30 14856 C 1407.44 -3.36041 0.573496 0
M  V30 14857 H 1408.63 -2.2407 1.9933 0
M  V30 14858 H 1406.18 -1.14253 1.06658 0
M  V30 14859 H 1406.92 -3.22008 -0.384898 0
M  V30 14860 H 1406.7 -3.68991 1.32619 0
M  V30 14861 H 1408.19 -4.15165 0.450272 0
M  V30 14862 N 1408.63 -1.05812 -1.16797 0
M  V30 14863 C 1409.54 -0.675541 -2.24663 0
M  V30 14864 C 1410.56 0.30622 -1.71284 0
M  V30 14865 O 1411.73 0.156752 -2.00789 0
M  V30 14866 C 1408.8 -0.0627149 -3.46643 0
M  V30 14867 C 1407.86 -1.09572 -4.15081 0
M  V30 14868 C 1407.09 -0.512044 -5.31238 0
M  V30 14869 O 1407.31 0.676665 -5.66372 0
M  V30 14870 O 1406.25 -1.24936 -5.88791 0
M  V30 14871 H 1410.07 -1.57467 -2.59688 0
M  V30 14872 H 1407.66 -0.830073 -1.24218 0
M  V30 14873 H 1409.54 0.277543 -4.20485 0
M  V30 14874 H 1408.22 0.80997 -3.13403 0
M  V30 14875 H 1407.12 -1.48807 -3.4323 0
M  V30 14876 H 1408.46 -1.93977 -4.52365 0
M  V30 14877 N 1410.11 1.33347 -0.840014 0
M  V30 14878 C 1411.04 2.27146 -0.219068 0
M  V30 14879 C 1412.02 1.4971 0.634472 0
M  V30 14880 O 1413.2 1.7888 0.594485 0
M  V30 14881 C 1410.33 3.31549 0.692312 0
M  V30 14882 C 1409.38 4.26413 -0.0859186 0
M  V30 14883 S 1410.21 5.15647 -1.44458 0
M  V30 14884 C 1411.36 6.23579 -0.538524 0
M  V30 14885 H 1411.6 2.79464 -1.01426 0
M  V30 14886 H 1409.13 1.40655 -0.636829 0
M  V30 14887 H 1411.09 3.92183 1.21254 0
M  V30 14888 H 1409.75 2.78044 1.46117 0
M  V30 14889 H 1408.94 5.00324 0.60762 0
M  V30 14890 H 1408.54 3.70121 -0.537243 0
M  V30 14891 H 1410.84 6.76989 0.263167 0
M  V30 14892 H 1411.78 6.97019 -1.24782 0
M  V30 14893 H 1412.19 5.64374 -0.119363 0
M  V30 14894 N 1411.59 0.596556 1.45873 0
M  V30 14895 C 1412.83 0.0850976 2.0152 0
M  V30 14896 C 1413.15 -1.28799 1.47208 0
M  V30 14897 O 1414.35 -1.89156 1.94762 0
M  V30 14898 C 1412.81 0.101488 3.59757 0
M  V30 14899 C 1412.42 1.47374 4.23066 0
M  V30 14900 C 1414.16 -0.355303 4.2301 0
M  V30 14901 C 1412.07 1.44711 5.73422 0
M  V30 14902 H 1411 0.0280444 0.753478 0
M  V30 14903 H 1413.65 0.750255 1.67462 0
M  V30 14904 H 1412.03 -0.630108 3.90955 0
M  V30 14905 H 1413.21 2.22617 4.03458 0
M  V30 14906 H 1411.52 1.87171 3.71962 0
M  V30 14907 H 1414.12 -0.394236 5.33245 0
M  V30 14908 H 1414.46 -1.37573 3.92911 0
M  V30 14909 H 1414.99 0.32267 3.96489 0
M  V30 14910 H 1411.73 2.44479 6.08203 0
M  V30 14911 H 1411.25 0.737102 5.95254 0
M  V30 14912 H 1412.93 1.16598 6.36407 0
M  V30 14913 N 1413.06 -1.53996 0.335095 0
M  V30 14914 C 1413.99 -2.2768 -0.518087 0
M  V30 14915 C 1414.97 -1.28915 -1.10972 0
M  V30 14916 O 1416.16 -1.57745 -1.1327 0
M  V30 14917 C 1413.29 -3.04327 -1.67339 0
M  V30 14918 C 1412.24 -4.10525 -1.2105 0
M  V30 14919 C 1411.57 -4.75078 -2.45366 0
M  V30 14920 C 1412.87 -5.21337 -0.317055 0
M  V30 14921 H 1414.56 -2.99244 0.0965669 0
M  V30 14922 H 1412.11 -1.4392 0.0478842 0
M  V30 14923 H 1414.06 -3.54608 -2.27664 0
M  V30 14924 H 1412.79 -2.30399 -2.31481 0
M  V30 14925 H 1411.45 -3.61144 -0.630124 0
M  V30 14926 H 1411.09 -3.97754 -3.07897 0
M  V30 14927 H 1410.79 -5.46822 -2.1508 0
M  V30 14928 H 1412.32 -5.2814 -3.06432 0
M  V30 14929 H 1413.73 -5.67305 -0.826905 0
M  V30 14930 H 1412.13 -6.00006 -0.106458 0
M  V30 14931 H 1413.2 -4.80536 0.649068 0
M  V30 14932 N 1414.54 -0.0635198 -1.57472 0
M  V30 14933 C 1415.77 0.616735 -1.97494 0
M  V30 14934 C 1416.18 1.63646 -0.941568 0
M  V30 14935 O 1415.54 1.82355 0.0727768 0
M  V30 14936 C 1415.59 1.29268 -3.37597 0
M  V30 14937 O 1415.31 0.313781 -4.36975 0
M  V30 14938 C 1416.81 2.06154 -3.92448 0
M  V30 14939 H 1414.03 0.167753 -0.649692 0
M  V30 14940 H 1416.58 -0.133475 -2.04064 0
M  V30 14941 H 1414.73 1.99404 -3.3214 0
M  V30 14942 H 1415.15 0.797723 -5.18398 0
M  V30 14943 H 1416.62 2.48853 -4.92723 0
M  V30 14944 H 1417.1 2.91474 -3.28541 0
M  V30 14945 H 1417.7 1.40903 -4.01281 0
M  V30 14946 N 1416.02 1.56195 0.209972 0
M  V30 14947 C 1416.95 1.96378 1.26324 0
M  V30 14948 C 1417.93 0.833606 1.48273 0
M  V30 14949 O 1419.12 1.0968 1.60262 0
M  V30 14950 C 1416.25 2.29048 2.61064 0
M  V30 14951 C 1415.2 3.44665 2.53752 0
M  V30 14952 C 1414.53 3.6297 3.92628 0
M  V30 14953 C 1415.83 4.79297 2.07536 0
M  V30 14954 H 1417.52 2.8461 0.929379 0
M  V30 14955 H 1415.07 1.36931 0.445627 0
M  V30 14956 H 1417.02 2.55752 3.34916 0
M  V30 14957 H 1415.74 1.37682 2.96161 0
M  V30 14958 H 1414.4 3.18028 1.82356 0
M  V30 14959 H 1414.05 2.68961 4.25052 0
M  V30 14960 H 1413.75 4.40741 3.88614 0
M  V30 14961 H 1415.27 3.92035 4.68125 0
M  V30 14962 H 1416.69 5.05131 2.71138 0
M  V30 14963 H 1415.08 5.60433 2.14557 0
M  V30 14964 H 1416.15 4.73877 1.02802 0
M  V30 14965 N 1417.5 -0.477127 1.50204 0
M  V30 14966 C 1418.46 -1.55824 1.68082 0
M  V30 14967 C 1419.46 -1.51039 0.551719 0
M  V30 14968 O 1420.65 -1.53766 0.818638 0
M  V30 14969 C 1417.78 -2.95462 1.70044 0
M  V30 14970 H 1418.98 -1.41292 2.64531 0
M  V30 14971 H 1416.53 -0.70308 1.39594 0
M  V30 14972 H 1417.26 -3.15445 0.752663 0
M  V30 14973 H 1417.05 -3.00343 2.52065 0
M  V30 14974 H 1418.54 -3.73964 1.85851 0
M  V30 14975 N 1418.98 -1.3968 -0.729882 0
M  V30 14976 C 1420.39 -1.33184 -1.30839 0
M  V30 14977 C 1420.74 0.00141129 -1.962 0
M  V30 14978 O 1419.86 0.903523 -1.96635 0
M  V30 14979 C 1420.46 -2.41211 -2.37913 0
M  V30 14980 C 1419.02 -2.3822 -2.91424 0
M  V30 14981 C 1418.16 -2.22832 -1.65049 0
M  V30 14982 H 1421.12 -1.49694 -0.527023 0
M  V30 14983 H 1421.14 -2.08294 -3.18424 0
M  V30 14984 H 1420.65 -3.38234 -1.90313 0
M  V30 14985 H 1418.75 -1.4485 -3.43292 0
M  V30 14986 H 1418.86 -3.33271 -3.44191 0
M  V30 14987 H 1417.23 -1.70095 -1.89578 0
M  V30 14988 H 1418.01 -3.21832 -1.19494 0
M  V30 14989 N 1420.45 0.960609 -1.2494 0
M  V30 14990 C 1421.36 2.0902 -1.06527 0
M  V30 14991 C 1422.38 1.74 -0.00406641 0
M  V30 14992 O 1423.56 2.00367 -0.203744 0
M  V30 14993 C 1420.62 3.39971 -0.679736 0
M  V30 14994 C 1419.68 3.88895 -1.81821 0
M  V30 14995 C 1418.92 5.13597 -1.45098 0
M  V30 14996 O 1419.14 5.69362 -0.343954 0
M  V30 14997 O 1418.07 5.57083 -2.27909 0
M  V30 14998 H 1421.9 2.27453 -2.01243 0
M  V30 14999 H 1419.48 1.07429 -1.03824 0
M  V30 15000 H 1421.37 4.18696 -0.47658 0
M  V30 15001 H 1420.04 3.22822 0.238231 0
M  V30 15002 H 1418.95 3.11201 -2.07617 0
M  V30 15003 H 1420.28 4.10533 -2.7152 0
M  V30 15004 N 1421.93 1.0643 1.16234 0
M  V30 15005 C 1423.16 0.802644 1.90697 0
M  V30 15006 C 1423.58 -0.643145 1.77508 0
M  V30 15007 O 1422.93 -1.4404 1.12065 0
M  V30 15008 C 1422.98 1.18984 3.41358 0
M  V30 15009 O 1422.7 2.5789 3.54153 0
M  V30 15010 C 1424.21 0.956132 4.32866 0
M  V30 15011 H 1421.43 0.290891 0.604668 0
M  V30 15012 H 1423.97 1.41829 1.47325 0
M  V30 15013 H 1422.12 0.618703 3.82428 0
M  V30 15014 H 1422.54 2.73431 4.47589 0
M  V30 15015 H 1424.01 1.27667 5.37034 0
M  V30 15016 H 1424.49 -0.108062 4.39067 0
M  V30 15017 H 1425.1 1.51172 3.97526 0
M  V30 15018 N 1423.41 -1.329 0.847073 0
M  V30 15019 C 1424.36 -2.3097 0.27487 0
M  V30 15020 C 1425.35 -1.58508 -0.597625 0
M  V30 15021 O 1426.56 -1.73307 -0.486273 0
M  V30 15022 H 1422.93 -0.748719 0.0701719 0
M  V30 15023 H 1424.9 -2.7673 1.11638 0
M  V30 15024 C 1423.65 -3.43662 -0.528363 0
M  V30 15025 H 1422.98 -3.99576 0.133707 0
M  V30 15026 H 1424.42 -4.14458 -0.894443 0
M  V30 15027 C 1422.88 -2.90244 -1.71055 0
M  V30 15028 O 1423.41 -2.87109 -2.80947 0
M  V30 15029 N 1421.61 -2.46743 -1.53512 0
M  V30 15030 H 1421.16 -2.49493 -0.641181 0
M  V30 15031 H 1421.12 -2.11356 -2.32757 0
M  V30 15032 N 1424.89 -0.604284 -1.45555 0
M  V30 15033 C 1426.14 -0.0979922 -2.01862 0
M  V30 15034 C 1426.46 1.27476 -1.47563 0
M  V30 15035 O 1425.73 1.84137 -0.668612 0
M  V30 15036 H 1424.31 -0.033235 -0.74626 0
M  V30 15037 H 1426.97 -0.784936 -1.78395 0
M  V30 15038 H 1426.07 -0.0452716 -3.12067 0
M  V30 15039 N 1426.37 1.53816 -0.343257 0
M  V30 15040 C 1427.3 2.22552 0.548015 0
M  V30 15041 C 1428.31 1.23202 1.06419 0
M  V30 15042 O 1429.5 1.49559 0.974394 0
M  V30 15043 C 1426.6 2.89197 1.76687 0
M  V30 15044 C 1425.77 4.14859 1.38603 0
M  V30 15045 C 1424.83 4.64917 2.46453 0
M  V30 15046 O 1423.86 5.29135 2.09773 0
M  V30 15047 N 1425.06 4.4082 3.77701 0
M  V30 15048 H 1427.83 2.99672 -0.040645 0
M  V30 15049 H 1425.39 1.61033 -0.167368 0
M  V30 15050 H 1427.38 3.19601 2.48268 0
M  V30 15051 H 1425.95 2.15664 2.26291 0
M  V30 15052 H 1425.17 3.91003 0.501001 0
M  V30 15053 H 1426.46 4.96599 1.10756 0
M  V30 15054 H 1425.85 3.8946 4.1029 0
M  V30 15055 H 1424.41 4.7583 4.45453 0
M  V30 15056 N 1427.84 0.0718701 1.57436 0
M  V30 15057 C 1429.09 -0.598116 1.93779 0
M  V30 15058 C 1429.42 -1.69258 0.952131 0
M  V30 15059 O 1428.7 -1.94491 -0.0186426 0
M  V30 15060 C 1428.98 -1.17499 3.40391 0
M  V30 15061 C 1428.83 -0.0871719 4.49716 0
M  V30 15062 C 1430.15 -2.08047 3.8782 0
M  V30 15063 H 1427.27 -0.215954 0.704651 0
M  V30 15064 H 1429.91 0.137854 1.89499 0
M  V30 15065 H 1428.06 -1.80221 3.44169 0
M  V30 15066 H 1429.74 0.545906 4.58058 0
M  V30 15067 H 1427.98 0.582213 4.29875 0
M  V30 15068 H 1428.65 -0.531202 5.49438 0
M  V30 15069 H 1431.13 -1.5526 3.86049 0
M  V30 15070 H 1430 -2.45345 4.91016 0
M  V30 15071 H 1430.26 -2.98879 3.25766 0
M  V30 15072 N 1429.32 -1.56304 -0.201686 0
M  V30 15073 C 1430.29 -1.93171 -1.2336 0
M  V30 15074 C 1431.29 -0.812164 -1.38782 0
M  V30 15075 O 1432.48 -1.07967 -1.36707 0
M  V30 15076 C 1429.61 -2.19997 -2.60411 0
M  V30 15077 H 1430.8 -2.85483 -0.918654 0
M  V30 15078 H 1428.35 -1.49893 -0.442935 0
M  V30 15079 H 1429.09 -1.30301 -2.96972 0
M  V30 15080 H 1428.87 -3.01574 -2.5059 0
M  V30 15081 H 1430.36 -2.49547 -3.34838 0
M  V30 15082 N 1430.8 0.469154 -1.50455 0
M  V30 15083 C 1432.05 1.2229 -1.6178 0
M  V30 15084 C 1432.38 1.91577 -0.318073 0
M  V30 15085 O 1431.65 1.82205 0.68057 0
M  V30 15086 C 1431.94 2.26504 -2.79943 0
M  V30 15087 C 1431.79 1.61509 -4.19804 0
M  V30 15088 C 1433.11 3.27796 -2.93662 0
M  V30 15089 H 1430.23 0.443241 -0.588817 0
M  V30 15090 H 1432.87 0.516431 -1.82847 0
M  V30 15091 H 1431.02 2.86757 -2.62112 0
M  V30 15092 H 1432.69 1.04838 -4.49229 0
M  V30 15093 H 1430.94 0.918162 -4.23972 0
M  V30 15094 H 1431.61 2.37248 -4.98415 0
M  V30 15095 H 1434.08 2.77568 -3.09992 0
M  V30 15096 H 1432.96 3.98041 -3.77961 0
M  V30 15097 H 1433.22 3.92033 -2.04359 0
M  V30 15098 N 1432.28 1.40065 0.722464 0
M  V30 15099 C 1433.23 1.39784 1.83655 0
M  V30 15100 C 1434.2 0.255743 1.64119 0
M  V30 15101 O 1435.38 0.452766 1.8535 0
M  V30 15102 C 1432.52 1.25946 3.21297 0
M  V30 15103 C 1431.63 2.49805 3.52451 0
M  V30 15104 C 1430.77 2.2846 4.79562 0
M  V30 15105 C 1429.81 3.4793 5.03598 0
M  V30 15106 N 1428.94 3.25823 6.21919 0
M  V30 15107 H 1433.78 2.35013 1.83229 0
M  V30 15108 H 1431.32 1.16728 0.895154 0
M  V30 15109 H 1433.28 1.15931 4.00769 0
M  V30 15110 H 1431.91 0.343402 3.20968 0
M  V30 15111 H 1430.96 2.70375 2.67585 0
M  V30 15112 H 1432.27 3.38753 3.66126 0
M  V30 15113 H 1431.43 2.15758 5.67039 0
M  V30 15114 H 1430.17 1.36926 4.68084 0
M  V30 15115 H 1429.17 3.61116 4.14579 0
M  V30 15116 H 1430.4 4.40382 5.16953 0
M  V30 15117 H 1428.34 2.36965 6.11705 0
M  V30 15118 H 1428.26 4.08333 6.36239 0
M  V30 15119 H 1429.53 3.16841 7.12202 0
M  V30 15120 N 1433.76 -0.95397 1.25448 0
M  V30 15121 C 1434.72 -2.03231 1.0597 0
M  V30 15122 C 1435.72 -1.60795 0.0122855 0
M  V30 15123 O 1436.91 -1.7233 0.254533 0
M  V30 15124 C 1434.04 -3.35414 0.609105 0
M  V30 15125 H 1435.24 -2.21943 2.01696 0
M  V30 15126 H 1432.79 -1.13115 1.07864 0
M  V30 15127 H 1433.52 -3.22398 -0.350723 0
M  V30 15128 H 1433.31 -3.67564 1.36526 0
M  V30 15129 H 1434.8 -4.14664 0.49428 0
M  V30 15130 N 1435.24 -1.07045 -1.15668 0
M  V30 15131 C 1436.48 -0.802736 -1.8689 0
M  V30 15132 C 1436.84 0.663897 -1.80583 0
M  V30 15133 O 1436.13 1.48076 -1.2159 0
M  V30 15134 C 1436.32 -1.24127 -3.35153 0
M  V30 15135 C 1436.15 -2.749 -3.55894 0
M  V30 15136 C 1434.92 -3.42466 -3.71544 0
M  V30 15137 C 1437.12 -3.73102 -3.53977 0
M  V30 15138 N 1435.1 -4.81912 -3.80308 0
M  V30 15139 C 1436.47 -4.98371 -3.68817 0
M  V30 15140 C 1438.53 -3.66304 -3.37233 0
M  V30 15141 C 1437.23 -6.17651 -3.68645 0
M  V30 15142 C 1439.26 -4.85045 -3.38357 0
M  V30 15143 C 1438.62 -6.09146 -3.53725 0
M  V30 15144 H 1434.72 -0.346254 -0.701165 0
M  V30 15145 H 1437.3 -1.36609 -1.3873 0
M  V30 15146 H 1435.47 -0.705653 -3.81936 0
M  V30 15147 H 1437.21 -0.92143 -3.94071 0
M  V30 15148 H 1433.96 -2.92871 -3.72187 0
M  V30 15149 H 1434.38 -5.54475 -3.88441 0
M  V30 15150 H 1439.03 -2.71306 -3.24273 0
M  V30 15151 H 1436.74 -7.12975 -3.80384 0
M  V30 15152 H 1440.33 -4.81458 -3.26634 0
M  V30 15153 H 1439.21 -6.99487 -3.54524 0
M  V30 15154 N 1436.71 1.32449 -0.85411 0
M  V30 15155 C 1437.68 2.27183 -0.303377 0
M  V30 15156 C 1438.68 1.51582 0.536622 0
M  V30 15157 O 1439.87 1.70684 0.348211 0
M  V30 15158 C 1437 3.36086 0.570852 0
M  V30 15159 H 1438.19 2.77408 -1.1395 0
M  V30 15160 H 1435.74 1.43111 -0.628402 0
M  V30 15161 H 1436.48 2.91128 1.42881 0
M  V30 15162 H 1436.26 3.92088 -0.030399 0
M  V30 15163 H 1437.75 4.06675 0.948972 0
M  V30 15164 N 1438.19 0.611994 1.45232 0
M  V30 15165 C 1439.15 -0.0943825 2.29006 0
M  V30 15166 C 1440.15 -0.790863 1.40007 0
M  V30 15167 O 1441.34 -0.638356 1.62082 0
M  V30 15168 C 1438.48 -1.1439 3.21135 0
M  V30 15169 H 1439.67 0.6422 2.92943 0
M  V30 15170 H 1437.22 0.37124 1.51827 0
M  V30 15171 H 1437.96 -1.9111 2.62007 0
M  V30 15172 H 1437.74 -0.648638 3.86698 0
M  V30 15173 H 1439.23 -1.63848 3.84114 0
M  V30 15174 N 1439.67 -1.53632 0.351409 0
M  V30 15175 C 1440.6 -2.28217 -0.49391 0
M  V30 15176 C 1441.58 -1.30085 -1.09599 0
M  V30 15177 O 1442.77 -1.58938 -1.1159 0
M  V30 15178 C 1439.9 -3.06085 -1.64102 0
M  V30 15179 C 1438.85 -4.11786 -1.16689 0
M  V30 15180 C 1438.18 -4.77654 -2.40314 0
M  V30 15181 C 1439.48 -5.21644 -0.261742 0
M  V30 15182 H 1441.17 -2.99125 0.1283 0
M  V30 15183 H 1438.72 -1.43861 0.0631462 0
M  V30 15184 H 1440.67 -3.57003 -2.2389 0
M  V30 15185 H 1439.39 -2.32842 -2.29025 0
M  V30 15186 H 1438.05 -3.61792 -0.591784 0
M  V30 15187 H 1437.7 -4.00997 -3.03661 0
M  V30 15188 H 1437.4 -5.49072 -2.09268 0
M  V30 15189 H 1438.92 -5.3136 -3.00813 0
M  V30 15190 H 1440.34 -5.6815 -0.766689 0
M  V30 15191 H 1438.73 -6.00085 -0.0428132 0
M  V30 15192 H 1439.8 -4.79821 0.699999 0
M  V30 15193 N 1441.15 -0.0802183 -1.57396 0
M  V30 15194 C 1442.37 0.599179 -1.98556 0
M  V30 15195 C 1442.8 1.61844 -0.958555 0
M  V30 15196 O 1442.16 1.81146 0.0748226 0
M  V30 15197 C 1442.2 1.23675 -3.38728 0
M  V30 15198 O 1441.31 2.35262 -3.38712 0
M  V30 15199 H 1440.65 0.153366 -0.646045 0
M  V30 15200 H 1443.18 -0.157227 -2.03995 0
M  V30 15201 H 1443.19 1.5816 -3.76098 0
M  V30 15202 H 1441.86 0.489946 -4.13004 0
M  V30 15203 H 1440.44 2.02507 -3.13122 0
M  V30 15204 N 1442.63 1.56409 0.193394 0
M  V30 15205 C 1443.54 1.97886 1.26009 0
M  V30 15206 C 1444.55 0.886786 1.49707 0
M  V30 15207 O 1445.73 1.19267 1.62288 0
M  V30 15208 C 1442.79 2.31145 2.58404 0
M  V30 15209 C 1441.85 3.54069 2.42763 0
M  V30 15210 C 1441.09 3.85732 3.68845 0
M  V30 15211 O 1441.31 3.18662 4.73086 0
M  V30 15212 O 1440.24 4.79155 3.64272 0
M  V30 15213 H 1444.07 2.88849 0.938087 0
M  V30 15214 H 1441.65 1.43987 0.398528 0
M  V30 15215 H 1443.54 2.53606 3.36544 0
M  V30 15216 H 1442.21 1.4335 2.90228 0
M  V30 15217 H 1441.12 3.36854 1.62728 0
M  V30 15218 H 1442.45 4.42335 2.15871 0
M  V30 15219 N 1444.1 -0.461169 1.50702 0
M  V30 15220 C 1445.35 -1.21251 1.62186 0
M  V30 15221 C 1445.68 -1.91735 0.326818 0
M  V30 15222 O 1444.93 -1.83212 -0.687879 0
M  V30 15223 C 1445.23 -2.27213 2.75879 0
M  V30 15224 C 1444.9 -1.73912 4.16011 0
M  V30 15225 C 1443.56 -1.59097 4.54138 0
M  V30 15226 C 1445.91 -1.34477 5.03553 0
M  V30 15227 C 1443.24 -1.03285 5.77537 0
M  V30 15228 C 1445.59 -0.801027 6.27508 0
M  V30 15229 C 1444.26 -0.639586 6.64429 0
M  V30 15230 H 1443.53 -0.443689 0.593482 0
M  V30 15231 H 1446.17 -0.507035 1.84666 0
M  V30 15232 H 1444.48 -3.03707 2.47526 0
M  V30 15233 H 1446.18 -2.85124 2.81967 0
M  V30 15234 H 1442.77 -1.86413 3.85938 0
M  V30 15235 H 1446.95 -1.44753 4.74721 0
M  V30 15236 H 1442.21 -0.895316 6.04809 0
M  V30 15237 H 1446.38 -0.486842 6.94696 0
M  V30 15238 H 1444.01 -0.204966 7.59924 0
M  V30 15239 N 1445.58 -1.40446 -0.715026 0
M  V30 15240 C 1446.81 -1.4207 -1.50412 0
M  V30 15241 C 1447.22 -0.0205547 -1.88789 0
M  V30 15242 O 1446.58 0.955635 -1.55479 0
M  V30 15243 C 1446.63 -2.3119 -2.77909 0
M  V30 15244 O 1446.35 -3.65754 -2.41154 0
M  V30 15245 C 1447.85 -2.41412 -3.718 0
M  V30 15246 H 1445.07 -0.484554 -0.464164 0
M  V30 15247 H 1447.62 -1.84504 -0.881964 0
M  V30 15248 H 1445.77 -1.92117 -3.36407 0
M  V30 15249 H 1446.19 -4.13091 -3.23197 0
M  V30 15250 H 1447.66 -3.07976 -4.58099 0
M  V30 15251 H 1448.14 -1.43934 -4.14945 0
M  V30 15252 H 1448.74 -2.81039 -3.19213 0
M  V30 15253 N 1447.06 0.947303 -1.25952 0
M  V30 15254 C 1448.31 1.68945 -1.10915 0
M  V30 15255 C 1448.63 1.91848 0.349216 0
M  V30 15256 O 1447.9 1.5108 1.24706 0
M  V30 15257 H 1446.48 0.626086 -0.407462 0
M  V30 15258 H 1449.14 1.13854 -1.58187 0
M  V30 15259 H 1448.24 2.6657 -1.62317 0
M  V30 15260 N 1448.54 1.07657 1.15099 0
M  V30 15261 C 1449.95 0.802696 1.37945 0
M  V30 15262 C 1450.15 -0.591622 1.92619 0
M  V30 15263 O 1449.21 -1.34979 2.13394 0
M  V30 15264 C 1450.52 1.87907 2.34759 0
M  V30 15265 C 1452.07 1.90418 2.48415 0
M  V30 15266 C 1452.55 2.97148 3.48521 0
M  V30 15267 N 1454.04 2.96271 3.56059 0
M  V30 15268 C 1454.77 3.75498 4.33346 0
M  V30 15269 N 1454.27 4.64583 5.1394 0
M  V30 15270 N 1456.06 3.63831 4.28466 0
M  V30 15271 H 1448.21 1.97578 0.779537 0
M  V30 15272 H 1450.48 0.856978 0.405331 0
M  V30 15273 H 1450.18 2.8811 2.01707 0
M  V30 15274 H 1450.06 1.74183 3.34575 0
M  V30 15275 H 1452.44 0.908655 2.80762 0
M  V30 15276 H 1452.52 2.0822 1.48586 0
M  V30 15277 H 1452.17 3.96903 3.16908 0
M  V30 15278 H 1452.1 2.76593 4.48112 0
M  V30 15279 H 1454.59 2.31697 2.98538 0
M  V30 15280 H 1454.9 5.2166 5.70167 0
M  V30 15281 H 1453.25 4.6863 5.13236 0
M  V30 15282 H 1456.44 2.93609 3.6457 0
M  V30 15283 H 1456.61 4.25818 4.8845 0
M  V30 15284 N 1450.02 -1.31994 0.861122 0
M  V30 15285 C 1451.29 -1.91699 0.388705 0
M  V30 15286 C 1451.67 -1.78412 -1.12838 0
M  V30 15287 O 1451.02 -1.18625 -1.95296 0
M  V30 15288 C 1451.23 -3.38232 0.860248 0
M  V30 15289 C 1452.58 -4.15355 0.881201 0
M  V30 15290 O 1453.6 -3.46977 0.805313 0
M  V30 15291 O 1452.46 -5.37468 0.98945 0
M  V30 15292 H 1449.56 -0.819017 0.114629 0
M  V30 15293 H 1452.1 -1.40721 0.94845 0
M  V30 15294 H 1450.87 -3.41876 1.9036 0
M  V30 15295 H 1450.5 -3.96625 0.278316 0
M  V30 15296 N 1451.49 -0.619688 -1.44906 0
M  V30 15297 C 1452.44 0.113696 -2.27716 0
M  V30 15298 C 1453.43 0.82709 -1.38015 0
M  V30 15299 O 1454.62 0.715083 -1.61912 0
M  V30 15300 C 1451.75 1.10233 -3.25121 0
M  V30 15301 C 1450.84 0.389147 -4.22311 0
M  V30 15302 N 1451.23 -0.575929 -5.0251 0
M  V30 15303 C 1449.52 0.635112 -4.41455 0
M  V30 15304 C 1450.23 -0.996243 -5.73105 0
M  V30 15305 N 1449.2 -0.337427 -5.42552 0
M  V30 15306 H 1453 -0.627351 -2.87126 0
M  V30 15307 H 1450.52 -0.444293 -1.56204 0
M  V30 15308 H 1452.51 1.64223 -3.83192 0
M  V30 15309 H 1451.17 1.8438 -2.67272 0
M  V30 15310 H 1452.19 -0.953232 -5.09052 0
M  V30 15311 H 1448.86 1.36033 -3.94717 0
M  V30 15312 H 1450.25 -1.7929 -6.47537 0
M  V30 15313 N 1452.97 1.53444 -0.359552 0
M  V30 15314 C 1454.2 2.05584 0.232953 0
M  V30 15315 C 1454.62 1.23347 1.42937 0
M  V30 15316 O 1453.97 0.272662 1.80452 0
M  V30 15317 C 1454.02 3.55926 0.632359 0
M  V30 15318 O 1453.74 4.35045 -0.516494 0
M  V30 15319 C 1455.25 4.24301 1.28389 0
M  V30 15320 H 1452.47 0.669676 0.042132 0
M  V30 15321 H 1455.01 1.97878 -0.516176 0
M  V30 15322 H 1453.16 3.63802 1.33141 0
M  V30 15323 H 1453.58 5.24138 -0.194906 0
M  V30 15324 H 1455.05 5.30832 1.51397 0
M  V30 15325 H 1455.53 3.77644 2.24236 0
M  V30 15326 H 1456.14 4.20661 0.626438 0
M  V30 15327 N 1454.45 0.0885642 1.57351 0
M  V30 15328 C 1455.4 -0.883199 2.10199 0
M  V30 15329 C 1456.38 -1.24805 1.0155 0
M  V30 15330 O 1457.58 -1.22423 1.27835 0
M  V30 15331 C 1454.71 -2.14467 2.68065 0
M  V30 15332 C 1453.79 -1.80555 3.83746 0
M  V30 15333 N 1454.18 -1.17169 4.92042 0
M  V30 15334 C 1452.48 -2.10204 3.93358 0
M  V30 15335 C 1453.18 -1.01722 5.72737 0
M  V30 15336 N 1452.16 -1.53241 5.21553 0
M  V30 15337 H 1455.96 -0.38908 2.91313 0
M  V30 15338 H 1453.47 -0.114842 1.61993 0
M  V30 15339 H 1455.47 -2.85021 3.04251 0
M  V30 15340 H 1454.13 -2.64451 1.88403 0
M  V30 15341 H 1455.14 -0.839293 5.11054 0
M  V30 15342 H 1451.82 -2.62448 3.24696 0
M  V30 15343 H 1453.21 -0.522042 6.69869 0
M  V30 15344 N 1455.93 -1.56509 -0.185096 0
M  V30 15345 C 1456.86 -1.98363 -1.23184 0
M  V30 15346 C 1457.84 -0.85709 -1.46929 0
M  V30 15347 O 1459.02 -1.12216 -1.58497 0
M  V30 15348 C 1456.15 -2.33172 -2.57387 0
M  V30 15349 C 1455.11 -3.48658 -2.48236 0
M  V30 15350 C 1454.43 -3.69171 -3.86804 0
M  V30 15351 C 1455.73 -4.82538 -1.99885 0
M  V30 15352 H 1457.43 -2.86053 -0.883982 0
M  V30 15353 H 1454.97 -1.37623 -0.423786 0
M  V30 15354 H 1456.93 -2.61048 -3.30805 0
M  V30 15355 H 1455.65 -1.42377 -2.93933 0
M  V30 15356 H 1454.31 -3.20889 -1.77273 0
M  V30 15357 H 1453.96 -2.75689 -4.20719 0
M  V30 15358 H 1453.66 -4.46868 -3.81553 0
M  V30 15359 H 1455.18 -3.99433 -4.61829 0
M  V30 15360 H 1456.6 -5.0938 -2.63068 0
M  V30 15361 H 1454.99 -5.63775 -2.05614 0
M  V30 15362 H 1456.06 -4.75453 -0.952503 0
M  V30 15363 N 1457.41 0.45317 -1.50944 0
M  V30 15364 C 1458.37 1.5313 -1.7054 0
M  V30 15365 C 1459.37 1.50142 -0.575678 0
M  V30 15366 O 1460.56 1.52444 -0.842997 0
M  V30 15367 C 1457.69 2.92719 -1.74723 0
M  V30 15368 H 1458.88 1.37066 -2.66745 0
M  V30 15369 H 1456.44 0.680783 -1.40695 0
M  V30 15370 H 1457.17 3.14208 -0.802753 0
M  V30 15371 H 1456.96 2.96295 -2.56811 0
M  V30 15372 H 1458.45 3.7096 -1.91777 0
M  V30 15373 N 1458.88 1.40823 0.707568 0
M  V30 15374 C 1459.81 1.44485 1.83429 0
M  V30 15375 C 1460.8 0.304848 1.67346 0
M  V30 15376 O 1461.98 0.514605 1.87258 0
M  V30 15377 C 1459.11 1.31458 3.21459 0
M  V30 15378 C 1458.06 2.43145 3.52228 0
M  V30 15379 C 1457.39 2.15189 4.89487 0
M  V30 15380 C 1458.69 3.85489 3.52414 0
M  V30 15381 H 1460.38 2.38781 1.80622 0
M  V30 15382 H 1457.93 1.14931 0.867572 0
M  V30 15383 H 1459.88 1.32635 3.99983 0
M  V30 15384 H 1458.61 0.336422 3.24863 0
M  V30 15385 H 1457.27 2.41231 2.76049 0
M  V30 15386 H 1456.91 1.15745 4.89502 0
M  V30 15387 H 1456.61 2.90022 5.11039 0
M  V30 15388 H 1458.14 2.18062 5.70334 0
M  V30 15389 H 1459.55 3.89183 4.20963 0
M  V30 15390 H 1457.95 4.59906 3.85495 0
M  V30 15391 H 1459.02 4.14499 2.51632 0
M  V30 15392 N 1460.36 -0.94061 1.26453 0
M  V30 15393 C 1461.31 -2.06073 1.07873 0
M  V30 15394 C 1462.3 -1.69399 0.0055001 0
M  V30 15395 O 1463.51 -1.79267 0.162224 0
M  V30 15396 H 1459.89 -0.674748 0.331993 0
M  V30 15397 H 1461.86 -2.18895 2.02799 0
M  V30 15398 C 1460.61 -3.39971 0.729054 0
M  V30 15399 H 1459.93 -3.68667 1.54675 0
M  V30 15400 H 1461.37 -4.1916 0.638844 0
M  V30 15401 C 1459.83 -3.32114 -0.565835 0
M  V30 15402 O 1460.36 -3.68287 -1.60399 0
M  V30 15403 N 1458.56 -2.85218 -0.556679 0
M  V30 15404 H 1458.11 -2.55979 0.288541 0
M  V30 15405 H 1458.07 -2.80344 -1.42318 0
M  V30 15406 N 1461.84 -1.08266 -1.14527 0
M  V30 15407 C 1462.79 -0.711332 -2.19565 0
M  V30 15408 C 1463.76 0.301774 -1.63336 0
M  V30 15409 O 1464.94 0.186109 -1.8989 0
M  V30 15410 C 1462.08 -0.125255 -3.44873 0
M  V30 15411 C 1461.2 -1.19096 -4.15259 0
M  V30 15412 C 1460.33 -0.568901 -5.28145 0
M  V30 15413 C 1459.37 -1.61675 -5.90362 0
M  V30 15414 N 1458.51 -1.01659 -6.94701 0
M  V30 15415 H 1463.35 -1.61137 -2.50677 0
M  V30 15416 H 1460.88 -0.805286 -1.231 0
M  V30 15417 H 1462.84 0.232247 -4.16553 0
M  V30 15418 H 1461.47 0.738101 -3.14248 0
M  V30 15419 H 1460.52 -1.66591 -3.41982 0
M  V30 15420 H 1461.84 -1.98508 -4.57598 0
M  V30 15421 H 1460.99 -0.159563 -6.0649 0
M  V30 15422 H 1459.73 0.256884 -4.87023 0
M  V30 15423 H 1458.73 -2.03576 -5.10722 0
M  V30 15424 H 1459.96 -2.44498 -6.33559 0
M  V30 15425 H 1457.9 -0.211872 -6.55658 0
M  V30 15426 H 1457.82 -1.74781 -7.35518 0
M  V30 15427 H 1459.09 -0.63306 -7.76925 0
M  V30 15428 N 1463.32 1.31536 -0.86811 0
M  V30 15429 C 1464.23 2.32326 -0.32588 0
M  V30 15430 C 1465.25 1.64632 0.563243 0
M  V30 15431 O 1466.42 1.96067 0.460403 0
M  V30 15432 C 1463.49 3.43562 0.46539 0
M  V30 15433 C 1462.55 4.26919 -0.451472 0
M  V30 15434 C 1461.78 5.32844 0.302129 0
M  V30 15435 O 1462 5.49485 1.53045 0
M  V30 15436 O 1460.94 6.00944 -0.339048 0
M  V30 15437 H 1464.76 2.80622 -1.16126 0
M  V30 15438 H 1462.35 1.35401 -0.631428 0
M  V30 15439 H 1464.23 4.11368 0.914028 0
M  V30 15440 H 1462.91 2.97432 1.27734 0
M  V30 15441 H 1461.81 3.61874 -0.948571 0
M  V30 15442 H 1463.15 4.7661 -1.22897 0
M  V30 15443 N 1464.8 0.627364 1.44575 0
M  V30 15444 C 1466.07 0.0614392 1.95503 0
M  V30 15445 C 1466.45 -1.41182 1.56942 0
M  V30 15446 O 1465.8 -2.12435 0.841634 0
M  V30 15447 C 1466.01 0.280349 3.47872 0
M  V30 15448 C 1467.36 0.171559 4.24253 0
M  V30 15449 O 1468.38 0.211515 3.55571 0
M  V30 15450 O 1467.24 0.0733152 5.46451 0
M  V30 15451 H 1464.34 -0.0244626 0.826638 0
M  V30 15452 H 1466.88 0.698805 1.54644 0
M  V30 15453 H 1465.66 1.30278 3.68976 0
M  V30 15454 H 1465.28 -0.391336 3.95669 0
M  V30 15455 N 1466.28 -1.53251 0.367684 0
M  V30 15456 C 1467.19 -2.29518 -0.485669 0
M  V30 15457 C 1468.2 -1.35568 -1.09075 0
M  V30 15458 O 1469.38 -1.68626 -1.10124 0
M  V30 15459 C 1466.44 -3.07115 -1.60876 0
M  V30 15460 C 1465.5 -4.16736 -1.031 0
M  V30 15461 C 1464.74 -4.90624 -2.10056 0
M  V30 15462 O 1464.96 -4.64393 -3.31203 0
M  V30 15463 O 1463.89 -5.76503 -1.72996 0
M  V30 15464 H 1467.72 -3.034 0.135017 0
M  V30 15465 H 1465.3 -1.48816 0.132005 0
M  V30 15466 H 1467.19 -3.55564 -2.26168 0
M  V30 15467 H 1465.86 -2.36068 -2.21481 0
M  V30 15468 H 1464.77 -3.72534 -0.341928 0
M  V30 15469 H 1466.1 -4.89956 -0.469473 0
M  V30 15470 N 1467.75 -0.0969077 -1.57302 0
M  V30 15471 C 1468.7 0.861379 -2.14124 0
M  V30 15472 C 1469.67 1.27858 -1.06026 0
M  V30 15473 O 1470.86 1.36001 -1.33822 0
M  V30 15474 C 1468 2.11443 -2.72738 0
M  V30 15475 C 1467.11 1.7476 -3.95074 0
M  V30 15476 C 1466.24 2.94864 -4.41847 0
M  V30 15477 C 1465.28 2.54316 -5.56767 0
M  V30 15478 N 1464.42 3.67261 -5.98384 0
M  V30 15479 H 1469.26 0.369968 -2.95694 0
M  V30 15480 H 1466.8 0.170943 -1.46103 0
M  V30 15481 H 1468.75 2.84829 -3.04842 0
M  V30 15482 H 1467.38 2.5808 -1.93893 0
M  V30 15483 H 1466.44 0.91335 -3.69272 0
M  V30 15484 H 1467.75 1.40946 -4.78472 0
M  V30 15485 H 1466.9 3.76501 -4.75744 0
M  V30 15486 H 1465.64 3.31889 -3.57352 0
M  V30 15487 H 1464.65 1.71106 -5.22497 0
M  V30 15488 H 1465.87 2.18432 -6.43012 0
M  V30 15489 H 1463.82 4.04001 -5.16836 0
M  V30 15490 H 1463.73 3.37298 -6.76584 0
M  V30 15491 H 1465 4.49403 -6.36912 0
M  V30 15492 N 1469.23 1.56605 0.176793 0
M  V30 15493 C 1470.48 1.80875 0.892578 0
M  V30 15494 C 1470.79 0.673245 1.83648 0
M  V30 15495 O 1472 0.800732 2.59423 0
M  V30 15496 C 1470.46 3.20481 1.63768 0
M  V30 15497 C 1470.06 4.41885 0.737685 0
M  V30 15498 C 1471.81 3.54048 2.34202 0
M  V30 15499 C 1469.71 5.72512 1.48271 0
M  V30 15500 H 1468.64 0.674476 0.337042 0
M  V30 15501 H 1471.3 1.82922 0.145574 0
M  V30 15502 H 1469.68 3.12736 2.42924 0
M  V30 15503 H 1470.85 4.60797 -0.0165186 0
M  V30 15504 H 1469.17 4.16153 0.143277 0
M  V30 15505 H 1471.76 4.48886 2.90526 0
M  V30 15506 H 1472.11 2.78665 3.09276 0
M  V30 15507 H 1472.64 3.63322 1.61995 0
M  V30 15508 H 1469.38 6.5091 0.774399 0
M  V30 15509 H 1468.9 5.57586 2.21038 0
M  V30 15510 H 1470.58 6.14274 2.03165 0
M  V30 15511 N 1470.71 -0.445159 1.51182 0
M  V30 15512 C 1472.13 -0.781023 1.39184 0
M  V30 15513 C 1472.33 -1.95988 0.468076 0
M  V30 15514 O 1471.38 -2.52374 -0.0796822 0
M  V30 15515 C 1472.69 -1.06874 2.81067 0
M  V30 15516 C 1474.24 -1.17364 2.90163 0
M  V30 15517 C 1474.72 -1.49433 4.32936 0
M  V30 15518 N 1476.21 -1.56373 4.36006 0
M  V30 15519 C 1476.94 -1.82743 5.435 0
M  V30 15520 N 1476.44 -2.06958 6.61166 0
M  V30 15521 N 1478.23 -1.84461 5.30971 0
M  V30 15522 H 1470.38 0.331347 2.098 0
M  V30 15523 H 1472.65 0.0858102 0.944108 0
M  V30 15524 H 1472.35 -0.275306 3.50621 0
M  V30 15525 H 1472.23 -1.99839 3.19913 0
M  V30 15526 H 1474.61 -1.95771 2.20812 0
M  V30 15527 H 1474.69 -0.22318 2.54825 0
M  V30 15528 H 1474.34 -0.715573 5.02834 0
M  V30 15529 H 1474.27 -2.45673 4.65782 0
M  V30 15530 H 1476.76 -1.39595 3.51172 0
M  V30 15531 H 1477.07 -2.26427 7.38885 0
M  V30 15532 H 1475.42 -2.04297 6.64295 0
M  V30 15533 H 1478.61 -1.65057 4.38034 0
M  V30 15534 H 1478.78 -2.04675 6.14827 0
M  V30 15535 N 1472.19 -1.41197 -0.700089 0
M  V30 15536 C 1473.43 -1.40311 -1.46011 0
M  V30 15537 C 1473.76 -0.0106853 -1.94497 0
M  V30 15538 O 1473.02 0.976648 -1.69588 0
M  V30 15539 C 1473.32 -2.35259 -2.6905 0
M  V30 15540 C 1472.98 -3.82194 -2.39245 0
M  V30 15541 C 1471.64 -4.22223 -2.30827 0
M  V30 15542 C 1474 -4.74983 -2.1457 0
M  V30 15543 C 1471.32 -5.53055 -1.95824 0
M  V30 15544 C 1473.68 -6.0613 -1.81077 0
M  V30 15545 C 1472.34 -6.45185 -1.71151 0
M  V30 15546 H 1471.61 -0.513434 -0.534291 0
M  V30 15547 H 1474.26 -1.73963 -0.800574 0
M  V30 15548 H 1472.56 -1.94845 -3.39915 0
M  V30 15549 H 1474.26 -2.31849 -3.2718 0
M  V30 15550 H 1470.85 -3.50488 -2.4669 0
M  V30 15551 H 1475.03 -4.44864 -2.20021 0
M  V30 15552 H 1470.29 -5.822 -1.86689 0
M  V30 15553 H 1474.46 -6.77533 -1.61002 0
M  V30 15554 H 1472.09 -7.46476 -1.43796 0
M  V30 15555 N 1473.67 0.933891 -1.2695 0
M  V30 15556 C 1475.08 1.20873 -1.0422 0
M  V30 15557 C 1475.28 2.00205 0.228112 0
M  V30 15558 O 1474.34 2.34539 0.935284 0
M  V30 15559 C 1475.65 1.9629 -2.27795 0
M  V30 15560 C 1477.2 2.09254 -2.3277 0
M  V30 15561 C 1477.67 2.88075 -3.56057 0
M  V30 15562 N 1479.16 2.95646 -3.56578 0
M  V30 15563 C 1479.9 3.57082 -4.48642 0
M  V30 15564 N 1479.4 4.1996 -5.51004 0
M  V30 15565 N 1481.19 3.54425 -4.36279 0
M  V30 15566 H 1473.34 0.403735 -2.08528 0
M  V30 15567 H 1475.6 0.241189 -0.916805 0
M  V30 15568 H 1475.31 1.45412 -3.20231 0
M  V30 15569 H 1475.18 2.9693 -2.32621 0
M  V30 15570 H 1477.57 2.5932 -1.40844 0
M  V30 15571 H 1477.65 1.07854 -2.31951 0
M  V30 15572 H 1477.29 2.38693 -4.48317 0
M  V30 15573 H 1477.22 3.89746 -3.54126 0
M  V30 15574 H 1479.72 2.50951 -2.82545 0
M  V30 15575 H 1480.03 4.64758 -6.1743 0
M  V30 15576 H 1478.37 4.18525 -5.54853 0
M  V30 15577 H 1481.56 3.045 -3.55524 0
M  V30 15578 H 1481.74 4.02016 -5.0822 0
M  V30 15579 N 1475.14 1.08871 1.13951 0
M  V30 15580 C 1476.42 0.73388 1.81311 0
M  V30 15581 C 1476.8 -0.781824 1.96089 0
M  V30 15582 O 1476.15 -1.70211 1.52448 0
M  V30 15583 C 1476.36 1.46631 3.16702 0
M  V30 15584 C 1477.71 1.62843 3.92132 0
M  V30 15585 O 1478.73 1.42836 3.26307 0
M  V30 15586 O 1477.59 1.95893 5.10185 0
M  V30 15587 H 1474.68 0.262976 0.784074 0
M  V30 15588 H 1477.23 1.19057 1.20927 0
M  V30 15589 H 1476 2.49863 3.01138 0
M  V30 15590 H 1475.62 1.00141 3.84782 0
M  V30 15591 N 1476.62 -1.31073 0.875073 0
M  V30 15592 C 1477.87 -1.95791 0.484661 0
M  V30 15593 C 1478.18 -1.69907 -0.969074 0
M  V30 15594 O 1479.39 -2.28527 -1.46587 0
M  V30 15595 C 1477.85 -3.50532 0.815804 0
M  V30 15596 C 1477.45 -3.85249 2.28664 0
M  V30 15597 C 1479.2 -4.21615 0.494111 0
M  V30 15598 C 1477.1 -5.33124 2.55993 0
M  V30 15599 H 1476.03 -0.732806 0.177516 0
M  V30 15600 H 1478.69 -1.49169 1.06868 0
M  V30 15601 H 1477.07 -3.95673 0.16098 0
M  V30 15602 H 1478.24 -3.51051 2.98496 0
M  V30 15603 H 1476.56 -3.27244 2.57488 0
M  V30 15604 H 1479.15 -5.30417 0.675456 0
M  V30 15605 H 1479.5 -4.12437 -0.565815 0
M  V30 15606 H 1480.03 -3.82125 1.1057 0
M  V30 15607 H 1476.77 -5.47343 3.60688 0
M  V30 15608 H 1476.29 -5.68657 1.90761 0
M  V30 15609 H 1477.97 -6.00446 2.40984 0
M  V30 15610 N 1478.1 -0.635022 -1.4424 0
M  V30 15611 C 1479.03 0.106038 -2.28955 0
M  V30 15612 C 1480.05 0.805076 -1.415 0
M  V30 15613 O 1481.23 0.665872 -1.65615 0
M  V30 15614 C 1478.33 1.17252 -3.1797 0
M  V30 15615 C 1477.51 0.555225 -4.33862 0
M  V30 15616 C 1476.57 1.51618 -5.03883 0
M  V30 15617 O 1475.59 1.03181 -5.5977 0
M  V30 15618 N 1476.79 2.85048 -5.05696 0
M  V30 15619 H 1479.56 -0.620999 -2.93196 0
M  V30 15620 H 1477.12 -0.476466 -1.5473 0
M  V30 15621 H 1479.11 1.81578 -3.61679 0
M  V30 15622 H 1477.68 1.80174 -2.55453 0
M  V30 15623 H 1476.9 -0.266745 -3.93296 0
M  V30 15624 H 1478.19 0.123529 -5.0865 0
M  V30 15625 H 1477.59 3.26977 -4.6163 0
M  V30 15626 H 1476.15 3.44724 -5.5318 0
M  V30 15627 N 1479.58 1.53054 -0.375806 0
M  V30 15628 C 1480.54 2.24666 0.453608 0
M  V30 15629 C 1481.54 1.25816 1.00135 0
M  V30 15630 O 1482.73 1.50016 0.885481 0
M  V30 15631 C 1479.86 2.99131 1.63503 0
M  V30 15632 H 1481.06 2.994 -0.173172 0
M  V30 15633 H 1478.61 1.55778 -0.127673 0
M  V30 15634 H 1479.34 2.28666 2.29962 0
M  V30 15635 H 1479.13 3.71671 1.24913 0
M  V30 15636 H 1480.62 3.53542 2.22256 0
M  V30 15637 N 1481.06 0.105248 1.57248 0
M  V30 15638 C 1481.99 -0.880221 2.11624 0
M  V30 15639 C 1483 -1.23924 1.05578 0
M  V30 15640 O 1484.19 -1.19059 1.32994 0
M  V30 15641 C 1481.29 -2.18628 2.5895 0
M  V30 15642 C 1480.46 -2.00105 3.88943 0
M  V30 15643 C 1479.52 -3.14315 4.2201 0
M  V30 15644 O 1478.55 -2.87832 4.91061 0
M  V30 15645 N 1479.75 -4.4037 3.78226 0
M  V30 15646 H 1482.52 -0.415742 2.96802 0
M  V30 15647 H 1480.08 -0.0795714 1.61704 0
M  V30 15648 H 1482.07 -2.94002 2.7811 0
M  V30 15649 H 1480.64 -2.56467 1.78727 0
M  V30 15650 H 1479.86 -1.09003 3.7883 0
M  V30 15651 H 1481.15 -1.85018 4.73968 0
M  V30 15652 H 1480.54 -4.64765 3.22506 0
M  V30 15653 H 1479.1 -5.1266 4.02521 0
M  V30 15654 N 1482.53 -1.56697 -0.168486 0
M  V30 15655 C 1483.95 -1.71808 -0.730674 0
M  V30 15656 C 1484.3 -0.716224 -1.8266 0
M  V30 15657 O 1483.42 0.121803 -2.16057 0
M  V30 15658 C 1484.02 -3.1151 -1.33217 0
M  V30 15659 C 1482.58 -3.28297 -1.84115 0
M  V30 15660 C 1481.72 -2.67757 -0.72122 0
M  V30 15661 H 1484.67 -1.58598 0.0569421 0
M  V30 15662 H 1484.69 -3.10318 -2.20189 0
M  V30 15663 H 1484.21 -3.84404 -0.53431 0
M  V30 15664 H 1482.31 -2.60364 -2.66536 0
M  V30 15665 H 1482.42 -4.3606 -1.98464 0
M  V30 15666 H 1480.78 -2.27644 -1.14239 0
M  V30 15667 H 1481.57 -3.43239 0.0648388 0
M  V30 15668 N 1484.01 0.437135 -1.51416 0
M  V30 15669 C 1485.43 0.773631 -1.39596 0
M  V30 15670 C 1485.63 1.95737 -0.478463 0
M  V30 15671 O 1484.68 2.52413 0.0662971 0
M  V30 15672 C 1486 1.05381 -2.8163 0
M  V30 15673 C 1487.55 1.15824 -2.90782 0
M  V30 15674 C 1488.02 1.47135 -4.33722 0
M  V30 15675 N 1489.51 1.54059 -4.3683 0
M  V30 15676 C 1490.25 1.79858 -5.44462 0
M  V30 15677 N 1489.74 2.03449 -6.62254 0
M  V30 15678 N 1491.54 1.81642 -5.31942 0
M  V30 15679 H 1483.69 -0.342468 -2.09621 0
M  V30 15680 H 1485.95 -0.0908158 -0.94364 0
M  V30 15681 H 1485.66 0.256708 -3.50762 0
M  V30 15682 H 1485.53 1.98139 -3.20968 0
M  V30 15683 H 1487.92 1.94597 -2.21847 0
M  V30 15684 H 1488 0.209663 -2.54939 0
M  V30 15685 H 1487.64 0.688897 -5.03206 0
M  V30 15686 H 1487.57 2.43199 -4.67078 0
M  V30 15687 H 1490.06 1.3773 -3.51907 0
M  V30 15688 H 1490.38 2.22506 -7.40075 0
M  V30 15689 H 1488.72 2.00771 -6.65369 0
M  V30 15690 H 1491.91 1.62731 -4.38903 0
M  V30 15691 H 1492.08 2.01411 -6.15904 0
M  V30 15692 N 1485.49 1.41566 0.692592 0
M  V30 15693 C 1486.44 1.43648 1.80648 0
M  V30 15694 C 1487.41 0.290497 1.6354 0
M  V30 15695 O 1488.59 0.491979 1.84348 0
M  V30 15696 C 1485.73 1.32733 3.18553 0
M  V30 15697 C 1484.85 2.57224 3.47073 0
M  V30 15698 C 1483.98 2.38581 4.74608 0
M  V30 15699 C 1483.02 3.58534 4.96105 0
M  V30 15700 N 1482.16 3.38942 6.14868 0
M  V30 15701 H 1487 2.38847 1.78203 0
M  V30 15702 H 1484.53 1.186 0.870193 0
M  V30 15703 H 1486.49 1.24405 3.9822 0
M  V30 15704 H 1485.12 0.411407 3.20168 0
M  V30 15705 H 1484.17 2.7599 2.6179 0
M  V30 15706 H 1485.49 3.46443 3.58858 0
M  V30 15707 H 1484.64 2.27738 5.62335 0
M  V30 15708 H 1483.38 1.46824 4.65074 0
M  V30 15709 H 1482.38 3.69828 4.06826 0
M  V30 15710 H 1483.61 4.51248 5.07496 0
M  V30 15711 H 1481.55 2.49887 6.06541 0
M  V30 15712 H 1481.47 4.21737 6.27434 0
M  V30 15713 H 1482.74 3.31877 7.05321 0
M  V30 15714 N 1486.97 -0.927146 1.27443 0
M  V30 15715 C 1488.22 -1.66941 1.13197 0
M  V30 15716 C 1488.53 -1.92939 -0.32156 0
M  V30 15717 O 1489.74 -2.65124 -0.584931 0
M  V30 15718 C 1488.19 -3.00677 1.97791 0
M  V30 15719 C 1487.8 -2.82376 3.47805 0
M  V30 15720 C 1489.54 -3.78499 1.92195 0
M  V30 15721 C 1487.45 -4.1167 4.24596 0
M  V30 15722 H 1486.38 -0.626171 0.420031 0
M  V30 15723 H 1489.03 -1.02997 1.51868 0
M  V30 15724 H 1487.41 -3.65681 1.51965 0
M  V30 15725 H 1488.59 -2.26135 4.01497 0
M  V30 15726 H 1486.9 -2.17982 3.54786 0
M  V30 15727 H 1489.5 -4.74312 2.46844 0
M  V30 15728 H 1489.84 -4.0655 0.895702 0
M  V30 15729 H 1490.38 -3.20292 2.35919 0
M  V30 15730 H 1487.12 -3.88798 5.27747 0
M  V30 15731 H 1486.64 -4.67573 3.75681 0
M  V30 15732 H 1488.31 -4.80028 4.338 0
M  V30 15733 N 1488.45 -1.09474 -1.13372 0
M  V30 15734 C 1489.7 -0.825968 -1.84013 0
M  V30 15735 C 1490.01 0.650623 -1.84462 0
M  V30 15736 O 1491.21 1.03495 -2.51 0
M  V30 15737 C 1489.67 -1.42769 -3.30371 0
M  V30 15738 C 1489.28 -2.93686 -3.38308 0
M  V30 15739 C 1491.02 -1.23788 -4.0605 0
M  V30 15740 C 1488.93 -3.46942 -4.78942 0
M  V30 15741 H 1487.86 -0.305322 -0.689416 0
M  V30 15742 H 1490.51 -1.31751 -1.27726 0
M  V30 15743 H 1488.89 -0.86384 -3.86463 0
M  V30 15744 H 1490.07 -3.56302 -2.92208 0
M  V30 15745 H 1488.38 -3.11706 -2.76094 0
M  V30 15746 H 1490.98 -1.61031 -5.09876 0
M  V30 15747 H 1491.32 -0.178578 -4.15917 0
M  V30 15748 H 1491.85 -1.76927 -3.56289 0
M  V30 15749 H 1488.59 -4.52495 -4.74267 0
M  V30 15750 H 1488.11 -2.8909 -5.25535 0
M  V30 15751 H 1489.79 -3.44176 -5.47861 0
M  V30 15752 N 1489.92 1.30607 -0.882012 0
M  V30 15753 C 1491.15 2.00954 -0.513048 0
M  V30 15754 C 1491.57 1.65697 0.890279 0
M  V30 15755 O 1490.93 0.872001 1.58952 0
M  V30 15756 C 1490.98 3.53907 -0.691525 0
M  V30 15757 O 1490.08 4.11555 0.263896 0
M  V30 15758 H 1489.43 0.632356 -0.202537 0
M  V30 15759 H 1491.96 1.66524 -1.18874 0
M  V30 15760 H 1491.97 4.0372 -0.589392 0
M  V30 15761 H 1490.64 3.78907 -1.71471 0
M  V30 15762 H 1489.22 3.7272 0.115707 0
M  V30 15763 N 1491.4 0.642663 1.43901 0
M  V30 15764 C 1492.63 0.157518 2.06801 0
M  V30 15765 C 1493.05 -1.16361 1.47789 0
M  V30 15766 O 1492.41 -1.71645 0.583747 0
M  V30 15767 C 1492.46 0.0685904 3.60535 0
M  V30 15768 O 1491.56 -0.972183 4.00777 0
M  V30 15769 H 1490.9 0.0900406 0.657867 0
M  V30 15770 H 1493.43 0.882604 1.84584 0
M  V30 15771 H 1493.44 -0.118212 4.07829 0
M  V30 15772 H 1492.12 1.03307 4.02865 0
M  V30 15773 H 1490.7 -0.75902 3.65094 0
M  V30 15774 N 1492.88 -1.52852 0.383918 0
M  V30 15775 C 1494.29 -1.86477 -0.0912997 0
M  V30 15776 C 1494.64 -1.30382 -1.46611 0
M  V30 15777 O 1493.77 -0.633042 -2.06934 0
M  V30 15778 C 1494.36 -3.38361 -0.172447 0
M  V30 15779 C 1492.92 -3.71716 -0.591948 0
M  V30 15780 C 1492.07 -2.76176 0.24945 0
M  V30 15781 H 1495.02 -1.46839 0.602006 0
M  V30 15782 H 1495.04 -3.67325 -0.992603 0
M  V30 15783 H 1494.55 -3.79158 0.8283 0
M  V30 15784 H 1492.65 -3.36486 -1.60026 0
M  V30 15785 H 1492.77 -4.77792 -0.353835 0
M  V30 15786 H 1491.13 -2.53106 -0.284469 0
M  V30 15787 H 1491.91 -3.19809 1.24808 0
M  V30 15788 N 1494.36 -0.113586 -1.5719 0
M  V30 15789 C 1495.59 0.553592 -1.99356 0
M  V30 15790 C 1496 1.60567 -0.993154 0
M  V30 15791 O 1495.36 1.82494 0.0147252 0
M  V30 15792 C 1495.41 1.18462 -3.41539 0
M  V30 15793 O 1495.13 0.174602 -4.37752 0
M  V30 15794 C 1496.63 1.93564 -3.98808 0
M  V30 15795 H 1493.85 0.146998 -0.6547 0
M  V30 15796 H 1496.4 -0.198329 -2.03536 0
M  V30 15797 H 1494.55 1.88736 -3.38316 0
M  V30 15798 H 1494.97 0.632395 -5.20674 0
M  V30 15799 H 1496.44 2.33051 -5.00391 0
M  V30 15800 H 1496.92 2.80874 -3.37648 0
M  V30 15801 H 1497.52 1.28066 -4.0556 0
M  V30 15802 N 1495.84 1.56784 0.160173 0
M  V30 15803 C 1497.08 1.83782 0.871526 0
M  V30 15804 C 1497.44 0.695726 1.79381 0
M  V30 15805 O 1496.73 -0.307168 1.89122 0
M  V30 15806 C 1496.93 3.14703 1.69402 0
M  V30 15807 C 1496.75 4.41538 0.852869 0
M  V30 15808 C 1495.52 5.0258 0.523604 0
M  V30 15809 C 1497.72 5.13952 0.189264 0
M  V30 15810 N 1495.7 6.12999 -0.332518 0
M  V30 15811 C 1497.08 6.17752 -0.527548 0
M  V30 15812 C 1499.13 4.97782 0.108577 0
M  V30 15813 C 1497.83 7.07133 -1.31741 0
M  V30 15814 C 1499.86 5.87615 -0.667985 0
M  V30 15815 C 1499.22 6.90887 -1.37312 0
M  V30 15816 H 1495.32 0.723336 0.297169 0
M  V30 15817 H 1497.9 1.94212 0.137749 0
M  V30 15818 H 1496.08 3.05445 2.39913 0
M  V30 15819 H 1497.81 3.29657 2.34752 0
M  V30 15820 H 1494.56 4.65794 0.85631 0
M  V30 15821 H 1494.99 6.72819 -0.751215 0
M  V30 15822 H 1499.63 4.17937 0.639385 0
M  V30 15823 H 1497.35 7.86414 -1.85952 0
M  V30 15824 H 1500.93 5.77174 -0.732234 0
M  V30 15825 H 1499.81 7.59198 -1.96438 0
M  V30 15826 N 1497.32 -0.429099 1.51646 0
M  V30 15827 C 1498.54 -1.20465 1.68828 0
M  V30 15828 C 1498.97 -1.84044 0.388514 0
M  V30 15829 O 1498.32 -1.69165 -0.652152 0
M  V30 15830 C 1498.37 -2.25831 2.81128 0
M  V30 15831 O 1497.48 -3.31511 2.45305 0
M  V30 15832 H 1496.82 -0.352568 0.562665 0
M  V30 15833 H 1499.35 -0.505698 1.98252 0
M  V30 15834 H 1499.36 -2.70484 3.05455 0
M  V30 15835 H 1498.03 -1.78934 3.7544 0
M  V30 15836 H 1496.61 -2.92277 2.31579 0
M  V30 15837 N 1498.79 -1.41931 -0.685074 0
M  V30 15838 C 1500.04 -1.41571 -1.44229 0
M  V30 15839 C 1500.36 -0.0294445 -1.94978 0
M  V30 15840 O 1499.63 0.930414 -1.72395 0
M  V30 15841 H 1498.21 -0.521138 -0.535186 0
M  V30 15842 H 1500.87 -1.77263 -0.81017 0
M  V30 15843 H 1499.97 -2.10929 -2.30034 0
M  V30 15844 N 1500.27 0.920374 -1.27933 0
M  V30 15845 C 1501.2 2.03882 -1.13817 0
M  V30 15846 C 1502.18 1.70058 -0.0376853 0
M  V30 15847 O 1503.37 1.93023 -0.213492 0
M  V30 15848 C 1500.5 3.38142 -0.792296 0
M  V30 15849 C 1499.45 3.86104 -1.84683 0
M  V30 15850 C 1498.78 5.17253 -1.35474 0
M  V30 15851 C 1500.08 4.0869 -3.25223 0
M  V30 15852 H 1501.77 2.15949 -2.07379 0
M  V30 15853 H 1499.32 1.03764 -0.998454 0
M  V30 15854 H 1501.27 4.15872 -0.680337 0
M  V30 15855 H 1499.99 3.26109 0.179029 0
M  V30 15856 H 1498.65 3.10573 -1.94782 0
M  V30 15857 H 1498.3 5.01618 -0.372666 0
M  V30 15858 H 1498 5.50314 -2.05982 0
M  V30 15859 H 1499.53 5.97545 -1.25587 0
M  V30 15860 H 1500.94 4.76965 -3.18083 0
M  V30 15861 H 1499.34 4.5307 -3.93507 0
M  V30 15862 H 1500.41 3.13729 -3.69733 0
M  V30 15863 N 1501.75 1.10074 1.1279 0
M  V30 15864 C 1502.66 0.758458 2.22001 0
M  V30 15865 C 1503.68 -0.242438 1.72303 0
M  V30 15866 O 1504.85 -0.0821223 2.01233 0
M  V30 15867 C 1501.92 0.191326 3.46172 0
M  V30 15868 C 1500.98 1.24902 4.10729 0
M  V30 15869 C 1500.21 0.708857 5.28972 0
M  V30 15870 O 1500.43 -0.465993 5.68493 0
M  V30 15871 O 1499.37 1.46703 5.83748 0
M  V30 15872 H 1503.19 1.66997 2.53665 0
M  V30 15873 H 1500.78 0.875604 1.21052 0
M  V30 15874 H 1502.66 -0.121292 4.21225 0
M  V30 15875 H 1501.34 -0.693094 3.16193 0
M  V30 15876 H 1500.24 1.61444 3.37471 0
M  V30 15877 H 1501.58 2.10632 4.44854 0
M  V30 15878 N 1503.23 -1.30138 0.888926 0
M  V30 15879 C 1504.5 -1.90831 0.42928 0
M  V30 15880 C 1504.88 -1.80765 -1.09028 0
M  V30 15881 O 1504.23 -1.22741 -1.92735 0
M  V30 15882 C 1504.44 -3.36331 0.931798 0
M  V30 15883 C 1505.79 -4.13393 0.969106 0
M  V30 15884 O 1506.81 -3.45191 0.878731 0
M  V30 15885 O 1505.67 -5.35249 1.10323 0
M  V30 15886 H 1502.77 -0.816401 0.131976 0
M  V30 15887 H 1505.31 -1.38678 0.978086 0
M  V30 15888 H 1504.09 -3.37761 1.97568 0
M  V30 15889 H 1503.71 -3.95945 0.362383 0
M  V30 15890 N 1504.71 -0.650285 -1.43559 0
M  V30 15891 C 1505.62 0.0438076 -2.34559 0
M  V30 15892 C 1506.63 0.815316 -1.53716 0
M  V30 15893 O 1507.81 0.76323 -1.86378 0
M  V30 15894 C 1504.87 1.00028 -3.31957 0
M  V30 15895 C 1503.93 0.226027 -4.28705 0
M  V30 15896 C 1503.17 1.13694 -5.21449 0
M  V30 15897 O 1503.39 2.37614 -5.18551 0
M  V30 15898 O 1502.32 0.610924 -5.98792 0
M  V30 15899 H 1506.15 -0.705152 -2.954 0
M  V30 15900 H 1503.73 -0.410471 -1.43651 0
M  V30 15901 H 1505.62 1.55004 -3.91857 0
M  V30 15902 H 1504.29 1.72952 -2.73623 0
M  V30 15903 H 1503.2 -0.367244 -3.72293 0
M  V30 15904 H 1504.53 -0.463582 -4.90012 0
M  V30 15905 N 1506.18 1.52647 -0.392018 0
M  V30 15906 C 1507.13 2.23336 0.458815 0
M  V30 15907 C 1508.12 1.23825 1.02743 0
M  V30 15908 O 1509.31 1.49148 0.953089 0
M  V30 15909 C 1506.44 3.04566 1.58412 0
M  V30 15910 C 1505.52 4.11474 1.02711 0
M  V30 15911 N 1505.92 5.05423 0.195282 0
M  V30 15912 C 1504.21 4.26654 1.29934 0
M  V30 15913 C 1504.91 5.81591 -0.112738 0
M  V30 15914 N 1503.89 5.4137 0.491926 0
M  V30 15915 H 1507.69 2.93328 -0.183222 0
M  V30 15916 H 1505.21 1.61145 -0.201476 0
M  V30 15917 H 1507.2 3.53747 2.2061 0
M  V30 15918 H 1505.86 2.36109 2.22896 0
M  V30 15919 H 1506.87 5.17628 -0.167677 0
M  V30 15920 H 1503.55 3.69426 1.94501 0
M  V30 15921 H 1504.94 6.67276 -0.786879 0
M  V30 15922 N 1507.66 0.121921 1.57128 0
M  V30 15923 C 1508.91 -0.536164 1.95584 0
M  V30 15924 C 1509.24 -1.66143 1.0055 0
M  V30 15925 O 1508.52 -1.94452 0.0432427 0
M  V30 15926 C 1508.8 -1.0661 3.43957 0
M  V30 15927 C 1508.65 0.0559458 4.49765 0
M  V30 15928 C 1509.97 -1.95603 3.94243 0
M  V30 15929 H 1507.09 -0.193427 0.711165 0
M  V30 15930 H 1509.73 0.198072 1.88965 0
M  V30 15931 H 1507.88 -1.69181 3.49729 0
M  V30 15932 H 1509.55 0.691357 4.5609 0
M  V30 15933 H 1507.8 0.71868 4.27805 0
M  V30 15934 H 1508.47 -0.356133 5.5085 0
M  V30 15935 H 1510.94 -1.42899 3.90793 0
M  V30 15936 H 1509.82 -2.29599 4.98573 0
M  V30 15937 H 1510.08 -2.88364 3.3511 0
M  V30 15938 N 1509.14 -1.56867 -0.151857 0
M  V30 15939 C 1510.37 -1.87601 -0.884347 0
M  V30 15940 C 1510.79 -0.710419 -1.74168 0
M  V30 15941 O 1510.15 0.340103 -1.78081 0
M  V30 15942 C 1510.2 -3.16887 -1.72091 0
M  V30 15943 O 1509.3 -3.00479 -2.82464 0
M  V30 15944 H 1508.64 -0.616509 -0.246603 0
M  V30 15945 H 1511.17 -2.04092 -0.144135 0
M  V30 15946 H 1511.18 -3.48785 -2.11691 0
M  V30 15947 H 1509.86 -4.01327 -1.09131 0
M  V30 15948 H 1508.43 -2.79978 -2.46306 0
M  V30 15949 N 1510.62 0.421051 -1.51871 0
M  V30 15950 C 1511.85 1.18938 -1.6893 0
M  V30 15951 C 1512.26 1.85069 -0.393198 0
M  V30 15952 O 1511.6 1.72204 0.639648 0
M  V30 15953 C 1511.66 2.30343 -2.76012 0
M  V30 15954 C 1511.33 1.84446 -4.18125 0
M  V30 15955 C 1512.32 1.33882 -5.02366 0
M  V30 15956 C 1510.01 1.91642 -4.64305 0
M  V30 15957 C 1512 0.911212 -6.30853 0
M  V30 15958 C 1509.69 1.48492 -5.92784 0
M  V30 15959 C 1510.69 0.98316 -6.75887 0
M  V30 15960 O 1510.37 0.557853 -8.01962 0
M  V30 15961 H 1510.11 0.363908 -0.56969 0
M  V30 15962 H 1512.66 0.503089 -1.99144 0
M  V30 15963 H 1510.89 3.02298 -2.41148 0
M  V30 15964 H 1512.58 2.92148 -2.81787 0
M  V30 15965 H 1513.35 1.27704 -4.67885 0
M  V30 15966 H 1509.22 2.29641 -3.99732 0
M  V30 15967 H 1512.77 0.518877 -6.95668 0
M  V30 15968 H 1508.67 1.54345 -6.26776 0
M  V30 15969 H 1509.43 0.682238 -8.15652 0
M  V30 15970 N 1512.1 1.42293 0.677538 0
M  V30 15971 C 1513.04 1.45787 1.81243 0
M  V30 15972 C 1514.04 0.333895 1.66077 0
M  V30 15973 O 1515.24 0.50678 1.72719 0
M  V30 15974 H 1511.62 0.456538 0.597559 0
M  V30 15975 H 1513.59 2.41398 1.75413 0
M  V30 15976 C 1512.34 1.37449 3.19379 0
M  V30 15977 H 1511.66 2.23231 3.31674 0
M  V30 15978 H 1513.1 1.43955 3.98814 0
M  V30 15979 C 1511.56 0.0889433 3.36783 0
M  V30 15980 O 1512.09 -0.859357 3.924 0
M  V30 15981 N 1510.3 0.00698476 2.90599 0
M  V30 15982 H 1509.84 0.779459 2.45524 0
M  V30 15983 H 1509.8 -0.852522 3.02621 0
M  V30 15984 N 1513.57 -0.913576 1.28419 0
M  V30 15985 C 1514.54 -1.99757 1.12382 0
M  V30 15986 C 1515.54 -1.60675 0.063435 0
M  V30 15987 O 1516.73 -1.71433 0.30923 0
M  V30 15988 C 1513.86 -3.33307 0.715506 0
M  V30 15989 H 1515.05 -2.15414 2.08655 0
M  V30 15990 H 1512.61 -1.09626 1.11408 0
M  V30 15991 H 1513.34 -3.23351 -0.247977 0
M  V30 15992 H 1513.13 -3.63034 1.4815 0
M  V30 15993 H 1514.62 -4.12882 0.625953 0
M  V30 15994 N 1515.05 -1.1067 -1.12204 0
M  V30 15995 C 1516.3 -0.84895 -1.83405 0
M  V30 15996 C 1516.62 0.62724 -1.84637 0
M  V30 15997 O 1515.89 1.45546 -1.31123 0
M  V30 15998 H 1514.47 -0.311074 -0.679148 0
M  V30 15999 H 1517.13 -1.39747 -1.35856 0
M  V30 16000 H 1516.23 -1.21398 -2.87522 0
M  V30 16001 N 1516.53 1.29665 -0.895815 0
M  V30 16002 C 1517.76 1.99572 -0.534267 0
M  V30 16003 C 1518.17 1.67254 0.884455 0
M  V30 16004 O 1517.51 0.911762 1.59476 0
M  V30 16005 C 1517.57 3.53719 -0.642099 0
M  V30 16006 C 1517.24 4.09583 -2.02709 0
M  V30 16007 C 1518.23 4.24769 -2.99779 0
M  V30 16008 C 1515.92 4.44706 -2.33542 0
M  V30 16009 C 1517.91 4.74305 -4.25809 0
M  V30 16010 C 1515.6 4.93939 -3.59815 0
M  V30 16011 C 1516.6 5.08693 -4.55763 0
M  V30 16012 O 1516.29 5.5686 -5.79795 0
M  V30 16013 H 1516.02 0.644481 -0.204012 0
M  V30 16014 H 1518.57 1.66262 -1.20607 0
M  V30 16015 H 1516.8 3.86603 0.0867197 0
M  V30 16016 H 1518.49 4.04861 -0.290265 0
M  V30 16017 H 1519.26 3.97925 -2.77273 0
M  V30 16018 H 1515.14 4.32483 -1.59622 0
M  V30 16019 H 1518.68 4.85736 -5.00706 0
M  V30 16020 H 1514.58 5.2022 -3.82154 0
M  V30 16021 H 1515.35 5.75182 -5.82329 0
M  V30 16022 N 1518.01 0.657889 1.43212 0
M  V30 16023 C 1519.24 0.181072 2.06106 0
M  V30 16024 C 1519.65 -1.15513 1.49339 0
M  V30 16025 O 1519.01 -1.71409 0.626517 0
M  V30 16026 C 1519.06 0.0890244 3.6139 0
M  V30 16027 O 1518.78 1.37241 4.16049 0
M  V30 16028 C 1520.28 -0.413313 4.41369 0
M  V30 16029 H 1517.5 0.0920577 0.664655 0
M  V30 16030 H 1520.05 0.899855 1.83638 0
M  V30 16031 H 1518.2 -0.580345 3.83028 0
M  V30 16032 H 1518.61 1.23467 5.09761 0
M  V30 16033 H 1520.09 -0.426663 5.50349 0
M  V30 16034 H 1520.57 -1.44549 4.14731 0
M  V30 16035 H 1521.17 0.223727 4.24711 0
M  V30 16036 N 1519.49 -1.52437 0.400108 0
M  V30 16037 C 1520.43 -2.28312 -0.444572 0
M  V30 16038 C 1521.43 -1.32641 -1.0537 0
M  V30 16039 O 1522.63 -1.50136 -0.99293 0
M  V30 16040 H 1519.01 -0.734313 -0.162137 0
M  V30 16041 H 1520.98 -2.97612 0.216702 0
M  V30 16042 C 1519.73 -3.11044 -1.55393 0
M  V30 16043 H 1519.05 -3.84525 -1.09455 0
M  V30 16044 H 1520.49 -3.67255 -2.11896 0
M  V30 16045 C 1518.95 -2.24035 -2.51614 0
M  V30 16046 O 1519.48 -1.87447 -3.55284 0
M  V30 16047 N 1517.69 -1.87982 -2.2161 0
M  V30 16048 H 1517.23 -2.17936 -1.37338 0
M  V30 16049 H 1517.19 -1.30058 -2.86238 0
M  V30 16050 N 1520.96 -0.130252 -1.57061 0
M  V30 16051 C 1522.21 0.525784 -1.95866 0
M  V30 16052 C 1522.54 1.65607 -1.01429 0
M  V30 16053 O 1521.82 1.94426 -0.0535544 0
M  V30 16054 C 1522.1 1.04784 -3.44517 0
M  V30 16055 C 1521.95 -0.0797972 -4.49729 0
M  V30 16056 C 1523.27 1.9351 -3.95275 0
M  V30 16057 H 1520.39 0.189652 -0.71218 0
M  V30 16058 H 1523.03 -0.208091 -1.88857 0
M  V30 16059 H 1521.18 1.67324 -3.50621 0
M  V30 16060 H 1522.86 -0.715535 -4.55717 0
M  V30 16061 H 1521.1 -0.741358 -4.27418 0
M  V30 16062 H 1521.77 0.326915 -5.51031 0
M  V30 16063 H 1524.25 1.40825 -3.91545 0
M  V30 16064 H 1523.12 2.26952 -4.99784 0
M  V30 16065 H 1523.38 2.86583 -3.36634 0
M  V30 16066 N 1522.44 1.56945 0.143535 0
M  V30 16067 C 1523.39 1.94945 1.18239 0
M  V30 16068 C 1524.38 0.821157 1.38368 0
M  V30 16069 O 1525.57 1.08465 1.39873 0
M  V30 16070 C 1522.7 2.33653 2.51518 0
M  V30 16071 C 1521.78 3.53061 2.34966 0
M  V30 16072 N 1522.18 4.69493 1.88176 0
M  V30 16073 C 1520.47 3.58213 2.65706 0
M  V30 16074 C 1521.17 5.51581 1.84751 0
M  V30 16075 N 1520.15 4.93386 2.28192 0
M  V30 16076 H 1523.95 2.82438 0.81278 0
M  V30 16077 H 1521.47 1.58549 0.351555 0
M  V30 16078 H 1523.46 2.59083 3.26621 0
M  V30 16079 H 1522.12 1.47513 2.89257 0
M  V30 16080 H 1523.13 4.93182 1.5809 0
M  V30 16081 H 1519.81 2.82622 3.07297 0
M  V30 16082 H 1521.2 6.54934 1.50038 0
M  V30 16083 N 1523.92 -0.412991 1.52093 0
M  V30 16084 C 1524.83 -1.52768 1.78042 0
M  V30 16085 C 1525.85 -1.60758 0.665791 0
M  V30 16086 O 1527.02 -1.77545 0.950772 0
M  V30 16087 C 1524.09 -2.8854 1.92213 0
M  V30 16088 C 1523.15 -2.90468 3.16112 0
M  V30 16089 C 1522.38 -4.19763 3.29598 0
M  V30 16090 O 1522.61 -5.13454 2.48438 0
M  V30 16091 O 1521.54 -4.2847 4.22726 0
M  V30 16092 H 1525.37 -1.33777 2.72649 0
M  V30 16093 H 1522.95 -0.598461 1.3689 0
M  V30 16094 H 1524.83 -3.69073 2.03379 0
M  V30 16095 H 1523.51 -3.07607 1.00795 0
M  V30 16096 H 1522.41 -2.08801 3.10408 0
M  V30 16097 H 1523.75 -2.76349 4.07298 0
M  V30 16098 N 1525.4 -1.4265 -0.669982 0
M  V30 16099 C 1526.33 -1.49298 -1.79534 0
M  V30 16100 C 1527.31 -0.34911 -1.66479 0
M  V30 16101 O 1528.5 -0.564072 -1.85828 0
M  V30 16102 C 1525.63 -1.39935 -3.17861 0
M  V30 16103 C 1524.58 -2.52398 -3.45657 0
M  V30 16104 C 1523.91 -2.28092 -4.8361 0
M  V30 16105 C 1525.21 -3.94697 -3.4207 0
M  V30 16106 H 1526.9 -2.43486 -1.74227 0
M  V30 16107 H 1524.45 -1.17191 -0.836796 0
M  V30 16108 H 1526.4 -1.43193 -3.96325 0
M  V30 16109 H 1525.12 -0.422436 -3.23857 0
M  V30 16110 H 1523.78 -2.48465 -2.69556 0
M  V30 16111 H 1523.43 -1.28683 -4.86261 0
M  V30 16112 H 1523.13 -3.03469 -5.0317 0
M  V30 16113 H 1524.65 -2.33107 -5.64352 0
M  V30 16114 H 1526.07 -4.00207 -4.10496 0
M  V30 16115 H 1524.46 -4.69965 -3.73166 0
M  V30 16116 H 1525.53 -4.21025 -2.40554 0
M  V30 16117 N 1526.88 0.906753 -1.28902 0
M  V30 16118 C 1528.13 1.65119 -1.15839 0
M  V30 16119 C 1528.44 1.93426 0.290825 0
M  V30 16120 O 1529.65 2.66021 0.542678 0
M  V30 16121 C 1528.1 2.97492 -2.0255 0
M  V30 16122 C 1527.71 2.76807 -3.52253 0
M  V30 16123 C 1529.45 3.75393 -1.98192 0
M  V30 16124 C 1527.36 4.04863 -4.31091 0
M  V30 16125 H 1526.29 0.619409 -0.429939 0
M  V30 16126 H 1528.94 1.00567 -1.53488 0
M  V30 16127 H 1527.32 3.63217 -1.57763 0
M  V30 16128 H 1528.5 2.19719 -4.05044 0
M  V30 16129 H 1526.81 2.1231 -3.58209 0
M  V30 16130 H 1529.41 4.70325 -2.54358 0
M  V30 16131 H 1529.75 4.05074 -0.960267 0
M  V30 16132 H 1530.29 3.16498 -2.40985 0
M  V30 16133 H 1527.02 3.80353 -5.33865 0
M  V30 16134 H 1526.54 4.61537 -3.83072 0
M  V30 16135 H 1528.22 4.73066 -4.41381 0
M  V30 16136 N 1528.36 1.11264 1.11616 0
M  V30 16137 C 1529.77 0.876713 1.64835 0
M  V30 16138 C 1530.12 -0.591384 1.87075 0
M  V30 16139 O 1529.24 -1.45304 1.60361 0
M  V30 16140 C 1529.84 1.58496 2.9944 0
M  V30 16141 C 1528.4 1.39551 3.49575 0
M  V30 16142 C 1527.54 1.62881 2.24422 0
M  V30 16143 H 1530.49 1.26915 0.952804 0
M  V30 16144 H 1530.52 1.02891 3.66325 0
M  V30 16145 H 1530.03 2.65344 2.83221 0
M  V30 16146 H 1528.13 0.349059 3.70961 0
M  V30 16147 H 1528.24 2.14334 4.28483 0
M  V30 16148 H 1526.61 1.05208 2.31955 0
M  V30 16149 H 1527.39 2.70999 2.10748 0
M  V30 16150 N 1529.83 -1.29188 0.902679 0
M  V30 16151 C 1531.08 -1.96092 0.540328 0
M  V30 16152 C 1531.43 -1.6984 -0.903997 0
M  V30 16153 O 1530.73 -1.00257 -1.63276 0
M  V30 16154 C 1530.92 -3.48951 0.772542 0
M  V30 16155 C 1530.75 -3.90062 2.23789 0
M  V30 16156 C 1529.52 -4.14782 2.8859 0
M  V30 16157 C 1531.72 -4.01557 3.21335 0
M  V30 16158 N 1529.7 -4.42484 4.25536 0
M  V30 16159 C 1531.07 -4.33346 4.43409 0
M  V30 16160 C 1533.13 -3.84043 3.16884 0
M  V30 16161 C 1531.83 -4.49444 5.61598 0
M  V30 16162 C 1533.86 -4.01353 4.34362 0
M  V30 16163 C 1533.22 -4.33503 5.55207 0
M  V30 16164 H 1529.32 -0.741839 0.247383 0
M  V30 16165 H 1531.9 -1.56066 1.16411 0
M  V30 16166 H 1530.07 -3.87991 0.178119 0
M  V30 16167 H 1531.8 -4.02956 0.375328 0
M  V30 16168 H 1528.56 -4.08655 2.3937 0
M  V30 16169 H 1528.98 -4.60438 4.96312 0
M  V30 16170 H 1533.62 -3.58247 2.24541 0
M  V30 16171 H 1531.34 -4.74075 6.5443 0
M  V30 16172 H 1534.93 -3.89249 4.32408 0
M  V30 16173 H 1533.81 -4.46617 6.44595 0
M  V30 16174 N 1531.31 -0.665475 -1.42861 0
M  V30 16175 C 1532.73 -0.334157 -1.56063 0
M  V30 16176 C 1532.93 1.16104 -1.64688 0
M  V30 16177 O 1531.98 1.94622 -1.60867 0
M  V30 16178 C 1533.3 -1.05628 -2.81537 0
M  V30 16179 C 1534.84 -1.03771 -2.95297 0
M  V30 16180 C 1535.32 -1.74098 -4.2362 0
M  V30 16181 N 1536.81 -1.7092 -4.30512 0
M  V30 16182 C 1537.55 -2.222 -5.28597 0
M  V30 16183 N 1537.04 -2.81821 -6.32889 0
M  V30 16184 N 1538.83 -2.12628 -5.20332 0
M  V30 16185 H 1530.99 -1.6356 -1.35506 0
M  V30 16186 H 1533.25 -0.688538 -0.651628 0
M  V30 16187 H 1532.95 -2.11141 -2.81269 0
M  V30 16188 H 1532.83 -0.615586 -3.72143 0
M  V30 16189 H 1535.22 0.00905324 -2.95099 0
M  V30 16190 H 1535.3 -1.51721 -2.05948 0
M  V30 16191 H 1534.94 -2.78737 -4.2458 0
M  V30 16192 H 1534.87 -1.23604 -5.11888 0
M  V30 16193 H 1537.36 -1.27425 -3.55769 0
M  V30 16194 H 1537.67 -3.18594 -7.04072 0
M  V30 16195 H 1536.02 -2.85887 -6.33478 0
M  V30 16196 H 1539.21 -1.65746 -4.37774 0
M  V30 16197 H 1539.38 -2.52899 -5.96612 0
M  V30 16198 N 1532.79 1.52222 -0.408187 0
M  V30 16199 C 1534.02 2.06221 0.16743 0
M  V30 16200 C 1534.43 1.27832 1.3894 0
M  V30 16201 O 1533.79 0.329933 1.79493 0
M  V30 16202 C 1533.84 3.57758 0.518804 0
M  V30 16203 O 1533.56 4.33181 -0.654639 0
M  V30 16204 C 1535.06 4.28171 1.14825 0
M  V30 16205 H 1532.28 0.670677 0.0208054 0
M  V30 16206 H 1534.83 1.96136 -0.578868 0
M  V30 16207 H 1532.98 3.67854 1.215 0
M  V30 16208 H 1533.4 5.23252 -0.361558 0
M  V30 16209 H 1534.87 5.3538 1.34433 0
M  V30 16210 H 1535.35 3.84586 2.12108 0
M  V30 16211 H 1535.95 4.22441 0.492291 0
M  V30 16212 N 1534.27 0.138579 1.5699 0
M  V30 16213 C 1535.2 -0.800568 2.19347 0
M  V30 16214 C 1536.18 -1.26318 1.13921 0
M  V30 16215 O 1537.36 -1.32226 1.42232 0
M  V30 16216 C 1534.49 -2.04317 2.80842 0
M  V30 16217 C 1533.45 -1.71764 3.92022 0
M  V30 16218 C 1532.77 -3.03217 4.40413 0
M  V30 16219 C 1534.07 -0.970789 5.13199 0
M  V30 16220 H 1535.77 -0.280888 2.98079 0
M  V30 16221 H 1533.31 -0.133663 1.43378 0
M  V30 16222 H 1535.27 -2.70491 3.2313 0
M  V30 16223 H 1533.99 -2.58643 1.99428 0
M  V30 16224 H 1532.65 -1.07972 3.50339 0
M  V30 16225 H 1532.3 -3.55517 3.55832 0
M  V30 16226 H 1532 -2.82203 5.15398 0
M  V30 16227 H 1533.52 -3.70477 4.85365 0
M  V30 16228 H 1534.94 -1.53445 5.52384 0
M  V30 16229 H 1533.33 -0.860895 5.93893 0
M  V30 16230 H 1534.4 0.0390088 4.84884 0
M  V30 16231 N 1535.75 -1.57019 -0.13521 0
M  V30 16232 C 1536.97 -1.88528 -0.864399 0
M  V30 16233 C 1537.4 -0.728852 -1.73405 0
M  V30 16234 O 1536.75 0.321196 -1.78432 0
M  V30 16235 C 1536.8 -3.18694 -1.6872 0
M  V30 16236 O 1535.91 -3.03458 -2.79262 0
M  V30 16237 H 1535.25 -0.61909 -0.24005 0
M  V30 16238 H 1537.78 -2.04233 -0.12248 0
M  V30 16239 H 1537.79 -3.51011 -2.0798 0
M  V30 16240 H 1536.46 -4.02462 -1.04868 0
M  V30 16241 H 1535.04 -2.82575 -2.43323 0
M  V30 16242 N 1537.22 0.404919 -1.52309 0
M  V30 16243 C 1538.47 1.14921 -1.66246 0
M  V30 16244 C 1538.79 1.90919 -0.396868 0
M  V30 16245 O 1538.06 1.86856 0.588361 0
M  V30 16246 H 1536.64 0.427223 -0.612772 0
M  V30 16247 H 1539.31 0.461091 -1.89367 0
M  V30 16248 H 1538.4 1.86095 -2.5055 0
M  V30 16249 N 1538.7 1.43003 0.662408 0
M  V30 16250 C 1540.12 1.26201 0.977003 0
M  V30 16251 C 1540.32 0.175104 2.00738 0
M  V30 16252 O 1539.37 -0.44954 2.48466 0
M  V30 16253 C 1540.69 2.62319 1.47001 0
M  V30 16254 C 1542.24 2.69776 1.58714 0
M  V30 16255 C 1542.71 4.06289 2.11408 0
M  V30 16256 N 1544.2 4.08307 2.18724 0
M  V30 16257 C 1544.94 5.10761 2.60598 0
M  V30 16258 N 1544.43 6.23593 3.01834 0
M  V30 16259 N 1546.23 4.98115 2.60456 0
M  V30 16260 H 1538.38 2.12391 -0.0195698 0
M  V30 16261 H 1540.64 0.946472 0.0538044 0
M  V30 16262 H 1540.35 3.42773 0.78736 0
M  V30 16263 H 1540.22 2.87088 2.44664 0
M  V30 16264 H 1542.61 1.89659 2.26083 0
M  V30 16265 H 1542.69 2.48782 0.595081 0
M  V30 16266 H 1542.33 4.86868 1.44644 0
M  V30 16267 H 1542.26 4.24641 3.11428 0
M  V30 16268 H 1544.75 3.26857 1.89665 0
M  V30 16269 H 1545.07 6.97609 3.32509 0
M  V30 16270 H 1543.41 6.27079 2.99661 0
M  V30 16271 H 1546.6 4.09037 2.27611 0
M  V30 16272 H 1546.77 5.78092 2.92769 0
M  V30 16273 N 1540.18 -0.899904 1.29381 0
M  V30 16274 C 1541.11 -2.00914 1.103 0
M  V30 16275 C 1542.13 -1.62721 0.050568 0
M  V30 16276 O 1543.31 -1.76044 0.295068 0
M  V30 16277 C 1540.41 -3.32473 0.656896 0
M  V30 16278 C 1539.59 -3.99195 1.7878 0
M  V30 16279 C 1538.65 -5.09043 1.33274 0
M  V30 16280 O 1537.67 -5.31486 2.03742 0
M  V30 16281 N 1538.87 -5.80143 0.203519 0
M  V30 16282 H 1541.64 -2.17838 2.05832 0
M  V30 16283 H 1539.2 -1.07208 1.21318 0
M  V30 16284 H 1541.19 -4.03305 0.335783 0
M  V30 16285 H 1539.76 -3.11921 -0.205959 0
M  V30 16286 H 1538.98 -3.21729 2.2778 0
M  V30 16287 H 1540.27 -4.40515 2.54606 0
M  V30 16288 H 1539.67 -5.64395 -0.384005 0
M  V30 16289 H 1538.23 -6.51774 -0.0582282 0
M  V30 16290 N 1541.66 -1.11854 -1.11024 0
M  V30 16291 C 1542.59 -0.738635 -2.16972 0
M  V30 16292 C 1543.6 0.231814 -1.61141 0
M  V30 16293 O 1544.79 0.0140607 -1.78494 0
M  V30 16294 C 1541.89 -0.0715797 -3.38824 0
M  V30 16295 C 1541.07 -1.06995 -4.24112 0
M  V30 16296 C 1540.12 -0.431644 -5.24427 0
M  V30 16297 O 1539.15 -1.08685 -5.58727 0
M  V30 16298 N 1540.35 0.803593 -5.74911 0
M  V30 16299 H 1543.12 -1.65025 -2.50174 0
M  V30 16300 H 1540.68 -1.00933 -1.26586 0
M  V30 16301 H 1542.67 0.367274 -4.0303 0
M  V30 16302 H 1541.24 0.742686 -3.03649 0
M  V30 16303 H 1540.46 -1.68662 -3.56296 0
M  V30 16304 H 1541.75 -1.74525 -4.77931 0
M  V30 16305 H 1541.15 1.355 -5.49232 0
M  V30 16306 H 1539.7 1.18536 -6.40931 0
M  V30 16307 N 1543.14 1.28707 -0.909517 0
M  V30 16308 C 1544.07 2.29845 -0.411552 0
M  V30 16309 C 1545.05 1.62001 0.518615 0
M  V30 16310 O 1546.23 1.89442 0.427252 0
M  V30 16311 C 1543.36 3.45501 0.353013 0
M  V30 16312 C 1542.32 4.25213 -0.487625 0
M  V30 16313 C 1541.64 5.33164 0.405026 0
M  V30 16314 C 1542.94 4.9237 -1.74268 0
M  V30 16315 H 1544.64 2.71746 -1.25676 0
M  V30 16316 H 1542.18 1.30639 -0.605759 0
M  V30 16317 H 1544.14 4.15338 0.712191 0
M  V30 16318 H 1542.86 3.02469 1.23209 0
M  V30 16319 H 1541.52 3.57098 -0.829265 0
M  V30 16320 H 1541.17 4.86375 1.28252 0
M  V30 16321 H 1540.87 5.87399 -0.153811 0
M  V30 16322 H 1542.39 6.0585 0.760179 0
M  V30 16323 H 1543.8 5.5459 -1.45266 0
M  V30 16324 H 1542.2 5.56581 -2.2436 0
M  V30 16325 H 1543.27 4.171 -2.47297 0
M  V30 16326 N 1544.61 0.673042 1.42506 0
M  V30 16327 C 1545.84 0.202628 2.05604 0
M  V30 16328 C 1546.25 -1.14466 1.50646 0
M  V30 16329 O 1545.6 -1.7218 0.6403 0
M  V30 16330 C 1545.66 0.0583637 3.59453 0
M  V30 16331 C 1545.32 1.33408 4.37094 0
M  V30 16332 C 1546.32 2.26717 4.67863 0
M  V30 16333 C 1544 1.58119 4.76764 0
M  V30 16334 C 1546 3.43014 5.37234 0
M  V30 16335 C 1543.68 2.74706 5.45875 0
M  V30 16336 C 1544.68 3.66978 5.76035 0
M  V30 16337 O 1544.37 4.81526 6.4373 0
M  V30 16338 H 1544.1 0.0964964 0.669077 0
M  V30 16339 H 1546.66 0.919656 1.83661 0
M  V30 16340 H 1544.89 -0.714227 3.80047 0
M  V30 16341 H 1546.58 -0.37195 4.04192 0
M  V30 16342 H 1547.34 2.08875 4.37717 0
M  V30 16343 H 1543.22 0.871705 4.52683 0
M  V30 16344 H 1546.76 4.15055 5.60692 0
M  V30 16345 H 1542.66 2.92474 5.75438 0
M  V30 16346 H 1543.43 4.81047 6.6222 0
M  V30 16347 N 1546.09 -1.52004 0.416254 0
M  V30 16348 C 1547.02 -2.24913 -0.441208 0
M  V30 16349 C 1548.04 -1.28139 -1.0042 0
M  V30 16350 O 1549.23 -1.54037 -0.901928 0
M  V30 16351 C 1546.33 -2.97298 -1.62688 0
M  V30 16352 C 1545.5 -4.20999 -1.18652 0
M  V30 16353 C 1544.56 -4.76146 -2.2399 0
M  V30 16354 O 1543.58 -5.38541 -1.84288 0
M  V30 16355 N 1544.79 -4.58338 -3.56239 0
M  V30 16356 H 1547.55 -2.99137 0.183576 0
M  V30 16357 H 1545.11 -1.60051 0.244008 0
M  V30 16358 H 1547.1 -3.31082 -2.32737 0
M  V30 16359 H 1545.67 -2.26216 -2.15744 0
M  V30 16360 H 1544.89 -3.92948 -0.313877 0
M  V30 16361 H 1546.18 -5.01318 -0.869365 0
M  V30 16362 H 1545.58 -4.08592 -3.91241 0
M  V30 16363 H 1544.14 -4.96542 -4.22244 0
M  V30 16364 N 1547.57 -0.146903 -1.56914 0
M  V30 16365 C 1548.85 0.549291 -1.87729 0
M  V30 16366 C 1549.23 1.82971 -1.05284 0
M  V30 16367 O 1548.58 2.28073 -0.139628 0
M  V30 16368 C 1548.79 0.814835 -3.39354 0
M  V30 16369 C 1550.13 1.15565 -4.0857 0
M  V30 16370 O 1551.16 0.904191 -3.44533 0
M  V30 16371 O 1550.02 1.62886 -5.21661 0
M  V30 16372 H 1547.11 0.280196 -0.778087 0
M  V30 16373 H 1549.66 -0.183507 -1.68705 0
M  V30 16374 H 1548.43 -0.0913527 -3.91193 0
M  V30 16375 H 1548.05 1.60182 -3.63906 0
M  V30 16376 N 1549.05 1.57088 0.126881 0
M  V30 16377 C 1550 1.96188 1.16164 0
M  V30 16378 C 1550.98 0.835786 1.3749 0
M  V30 16379 O 1552.17 1.09942 1.38714 0
M  V30 16380 C 1549.3 2.36308 2.49025 0
M  V30 16381 C 1548.39 3.55533 2.31208 0
M  V30 16382 N 1548.78 4.71462 1.83186 0
M  V30 16383 C 1547.08 3.61011 2.61891 0
M  V30 16384 C 1547.78 5.5351 1.7889 0
M  V30 16385 N 1546.76 4.95778 2.22946 0
M  V30 16386 H 1550.56 2.83284 0.782778 0
M  V30 16387 H 1548.07 1.58913 0.334719 0
M  V30 16388 H 1550.07 2.62533 3.23855 0
M  V30 16389 H 1548.73 1.50573 2.87677 0
M  V30 16390 H 1549.74 4.94831 1.5285 0
M  V30 16391 H 1546.42 2.85865 3.04282 0
M  V30 16392 H 1547.81 6.56488 1.43083 0
M  V30 16393 N 1550.53 -0.396836 1.52522 0
M  V30 16394 C 1551.46 -1.50361 1.72986 0
M  V30 16395 C 1552.47 -1.50928 0.610289 0
M  V30 16396 O 1553.66 -1.54972 0.88578 0
M  V30 16397 C 1550.76 -2.89229 1.76635 0
M  V30 16398 C 1549.93 -3.12715 3.05824 0
M  V30 16399 C 1548.99 -4.31523 3.01122 0
M  V30 16400 O 1548.02 -4.28207 3.75004 0
M  V30 16401 N 1549.22 -5.37294 2.19763 0
M  V30 16402 H 1551.99 -1.33196 2.68475 0
M  V30 16403 H 1549.55 -0.586269 1.50912 0
M  V30 16404 H 1551.54 -3.66796 1.71006 0
M  V30 16405 H 1550.11 -2.99791 0.885667 0
M  V30 16406 H 1549.33 -2.23083 3.25004 0
M  V30 16407 H 1550.62 -3.25257 3.91261 0
M  V30 16408 H 1550.01 -5.4284 1.5919 0
M  V30 16409 H 1548.57 -6.13557 2.19981 0
M  V30 16410 N 1552.01 -1.43353 -0.654814 0
M  V30 16411 C 1553.25 -1.46096 -1.41518 0
M  V30 16412 C 1553.61 -0.0833089 -1.9222 0
M  V30 16413 O 1552.9 0.897806 -1.69263 0
M  V30 16414 C 1553.09 -2.437 -2.61429 0
M  V30 16415 C 1552.92 -3.90819 -2.22464 0
M  V30 16416 C 1551.69 -4.59199 -2.10867 0
M  V30 16417 C 1553.89 -4.80698 -1.8285 0
M  V30 16418 N 1551.87 -5.91251 -1.65215 0
M  V30 16419 C 1553.24 -6.0201 -1.48269 0
M  V30 16420 C 1555.3 -4.67972 -1.70019 0
M  V30 16421 C 1554 -7.12011 -1.02142 0
M  V30 16422 C 1556.03 -5.77975 -1.25297 0
M  V30 16423 C 1555.39 -6.98412 -0.916516 0
M  V30 16424 H 1551.49 -0.589722 -0.513568 0
M  V30 16425 H 1554.07 -1.79521 -0.753681 0
M  V30 16426 H 1552.24 -2.12304 -3.25241 0
M  V30 16427 H 1553.98 -2.36892 -3.28123 0
M  V30 16428 H 1550.73 -4.13682 -2.30573 0
M  V30 16429 H 1551.15 -6.61343 -1.44756 0
M  V30 16430 H 1555.8 -3.75317 -1.94671 0
M  V30 16431 H 1553.51 -8.04496 -0.762381 0
M  V30 16432 H 1557.1 -5.70147 -1.15861 0
M  V30 16433 H 1555.98 -7.82084 -0.575735 0
M  V30 16434 N 1553.48 0.89303 -1.29857 0
M  V30 16435 C 1554.42 2.00005 -1.09879 0
M  V30 16436 C 1555.39 1.62598 -0.00873108 0
M  V30 16437 O 1556.58 1.87814 -0.160726 0
M  V30 16438 C 1553.71 3.31924 -0.67412 0
M  V30 16439 C 1552.75 3.88317 -1.76387 0
M  V30 16440 S 1553.58 4.16602 -3.36456 0
M  V30 16441 C 1554.74 5.51553 -2.95873 0
M  V30 16442 H 1554.97 2.16644 -2.036 0
M  V30 16443 H 1552.51 1.04045 -1.14079 0
M  V30 16444 H 1554.46 4.0818 -0.435825 0
M  V30 16445 H 1553.13 3.13154 0.243592 0
M  V30 16446 H 1552.32 4.83617 -1.41882 0
M  V30 16447 H 1551.92 3.18772 -1.95603 0
M  V30 16448 H 1554.21 6.32294 -2.43332 0
M  V30 16449 H 1555.16 5.90988 -3.90049 0
M  V30 16450 H 1555.56 5.13728 -2.33973 0
M  V30 16451 N 1554.96 1.12442 1.10429 0
M  V30 16452 C 1556.38 0.860481 1.34417 0
M  V30 16453 C 1556.58 -0.509394 1.94955 0
M  V30 16454 O 1555.63 -1.25807 2.18927 0
M  V30 16455 C 1556.95 1.97694 2.26578 0
M  V30 16456 C 1558.49 2.00783 2.40115 0
M  V30 16457 C 1558.97 3.11663 3.35604 0
M  V30 16458 N 1560.46 3.11106 3.43173 0
M  V30 16459 C 1561.2 3.9354 4.1703 0
M  V30 16460 N 1560.69 4.85963 4.93773 0
M  V30 16461 N 1562.48 3.81677 4.12649 0
M  V30 16462 H 1554.64 2.00706 0.695036 0
M  V30 16463 H 1556.9 0.873398 0.368619 0
M  V30 16464 H 1556.6 2.96405 1.89306 0
M  V30 16465 H 1556.48 1.88217 3.26886 0
M  V30 16466 H 1558.87 1.02692 2.76656 0
M  V30 16467 H 1558.95 2.14335 1.39621 0
M  V30 16468 H 1558.59 4.09987 2.99789 0
M  V30 16469 H 1558.52 2.9535 4.35977 0
M  V30 16470 H 1561.01 2.4415 2.88442 0
M  V30 16471 H 1561.32 5.45373 5.47529 0
M  V30 16472 H 1559.67 4.89976 4.92898 0
M  V30 16473 H 1562.86 3.08808 3.51789 0
M  V30 16474 H 1563.03 4.46151 4.6995 0
M  V30 16475 N 1556.44 -1.28223 0.91633 0
M  V30 16476 C 1557.72 -1.89878 0.469661 0
M  V30 16477 C 1558.1 -1.83037 -1.05169 0
M  V30 16478 O 1557.44 -1.26801 -1.90088 0
M  V30 16479 C 1557.65 -3.34279 1.00293 0
M  V30 16480 C 1559 -4.11244 1.05657 0
M  V30 16481 O 1560.03 -3.43249 0.951753 0
M  V30 16482 O 1558.89 -5.32788 1.21652 0
M  V30 16483 H 1555.98 -0.813418 0.149263 0
M  V30 16484 H 1558.53 -1.36572 1.00728 0
M  V30 16485 H 1557.3 -3.33494 2.04688 0
M  V30 16486 H 1556.92 -3.95087 0.446287 0
M  V30 16487 N 1557.92 -0.68059 -1.42147 0
M  V30 16488 C 1559.16 -0.205263 -2.01457 0
M  V30 16489 C 1559.49 1.19015 -1.53837 0
M  V30 16490 O 1558.75 1.81423 -0.733763 0
M  V30 16491 C 1559.05 -0.194825 -3.56869 0
M  V30 16492 C 1558.71 -1.5357 -4.23942 0
M  V30 16493 C 1557.37 -1.90282 -4.4198 0
M  V30 16494 C 1559.73 -2.41852 -4.61689 0
M  V30 16495 C 1557.05 -3.14891 -4.95036 0
M  V30 16496 C 1559.41 -3.65779 -5.16129 0
M  V30 16497 C 1558.07 -4.02653 -5.32379 0
M  V30 16498 H 1557.34 -0.0751109 -0.737183 0
M  V30 16499 H 1559.99 -0.87672 -1.70252 0
M  V30 16500 H 1558.29 0.560155 -3.87775 0
M  V30 16501 H 1559.99 0.190248 -4.00548 0
M  V30 16502 H 1556.58 -1.24012 -4.10267 0
M  V30 16503 H 1560.76 -2.14773 -4.47422 0
M  V30 16504 H 1556.02 -3.43474 -5.05802 0
M  V30 16505 H 1560.19 -4.34384 -5.4432 0
M  V30 16506 H 1557.82 -4.99283 -5.73254 0
M  V30 16507 N 1559.4 1.51781 -0.424309 0
M  V30 16508 C 1560.64 2.0157 0.146203 0
M  V30 16509 C 1560.96 1.3111 1.44344 0
M  V30 16510 O 1560.23 0.441631 1.90857 0
M  V30 16511 H 1558.81 0.744821 0.057019 0
M  V30 16512 H 1561.48 1.8656 -0.564031 0
M  V30 16513 H 1560.57 3.10335 0.331464 0
M  V30 16514 N 1560.87 0.155222 1.56834 0
M  V30 16515 C 1561.78 -0.794179 2.20749 0
M  V30 16516 C 1562.8 -1.26546 1.19424 0
M  V30 16517 O 1563.98 -1.32094 1.5203 0
M  V30 16518 C 1561.04 -2.01261 2.82303 0
M  V30 16519 C 1560.1 -1.58976 3.98779 0
M  V30 16520 C 1559.33 -2.75011 4.57389 0
M  V30 16521 O 1559.56 -3.91449 4.14879 0
M  V30 16522 O 1558.49 -2.50011 5.4752 0
M  V30 16523 H 1562.32 -0.280064 3.02406 0
M  V30 16524 H 1559.9 -0.0722048 1.49225 0
M  V30 16525 H 1561.78 -2.72551 3.21394 0
M  V30 16526 H 1560.46 -2.51609 2.03653 0
M  V30 16527 H 1559.37 -0.846848 3.64389 0
M  V30 16528 H 1560.7 -1.13336 4.78974 0
M  V30 16529 N 1562.35 -1.57153 -0.118549 0
M  V30 16530 C 1563.58 -1.89434 -0.844355 0
M  V30 16531 C 1564 -0.747203 -1.72622 0
M  V30 16532 O 1563.36 0.302252 -1.78763 0
M  V30 16533 C 1563.41 -3.20466 -1.65331 0
M  V30 16534 O 1562.51 -3.06403 -2.76027 0
M  V30 16535 H 1561.85 -0.621601 -0.23347 0
M  V30 16536 H 1564.38 -2.04351 -0.100811 0
M  V30 16537 H 1564.39 -3.53197 -2.04245 0
M  V30 16538 H 1563.07 -4.03551 -1.00594 0
M  V30 16539 H 1561.64 -2.85139 -2.40312 0
M  V30 16540 N 1563.83 0.388742 -1.5273 0
M  V30 16541 C 1564.76 1.48133 -1.80496 0
M  V30 16542 C 1565.74 1.56899 -0.657008 0
M  V30 16543 O 1566.93 1.71844 -0.904621 0
M  V30 16544 C 1564.06 2.85742 -1.97405 0
M  V30 16545 C 1563.01 2.91815 -3.13094 0
M  V30 16546 C 1562.34 4.31876 -3.15258 0
M  V30 16547 C 1563.64 2.61438 -4.52159 0
M  V30 16548 H 1565.33 1.25147 -2.7199 0
M  V30 16549 H 1562.88 0.600603 -1.30877 0
M  V30 16550 H 1564.83 3.62182 -2.15412 0
M  V30 16551 H 1563.55 3.10065 -1.02601 0
M  V30 16552 H 1562.21 2.17824 -2.9487 0
M  V30 16553 H 1561.86 4.53239 -2.18135 0
M  V30 16554 H 1561.56 4.3686 -3.92972 0
M  V30 16555 H 1563.08 5.10221 -3.3542 0
M  V30 16556 H 1564.5 3.27596 -4.70483 0
M  V30 16557 H 1562.89 2.77771 -5.31943 0
M  V30 16558 H 1563.96 1.56778 -4.58856 0
M  V30 16559 N 1565.31 1.43698 0.647203 0
M  V30 16560 C 1566.24 1.52135 1.77136 0
M  V30 16561 C 1567.22 0.375551 1.65902 0
M  V30 16562 O 1568.4 0.593564 1.84907 0
M  V30 16563 C 1565.53 1.44974 3.15594 0
M  V30 16564 C 1564.49 2.57866 3.41598 0
M  V30 16565 C 1563.81 2.35757 4.7992 0
M  V30 16566 C 1565.11 4.00089 3.35747 0
M  V30 16567 H 1566.81 2.46227 1.70332 0
M  V30 16568 H 1564.35 1.18507 0.818046 0
M  V30 16569 H 1566.31 1.4948 3.93997 0
M  V30 16570 H 1565.03 0.473905 3.23143 0
M  V30 16571 H 1563.69 2.52722 2.65569 0
M  V30 16572 H 1563.34 1.36403 4.84152 0
M  V30 16573 H 1563.04 3.11436 4.98278 0
M  V30 16574 H 1564.56 2.42055 5.60572 0
M  V30 16575 H 1565.98 4.06687 4.04078 0
M  V30 16576 H 1564.37 4.75842 3.65642 0
M  V30 16577 H 1565.44 4.24798 2.33825 0
M  V30 16578 N 1566.79 -0.886131 1.30328 0
M  V30 16579 C 1568.03 -1.64026 1.19261 0
M  V30 16580 C 1568.37 -1.92553 -0.252379 0
M  V30 16581 O 1567.64 -1.54564 -1.18069 0
M  V30 16582 C 1567.92 -2.9808 2.0204 0
M  V30 16583 C 1567.78 -2.76534 3.54752 0
M  V30 16584 C 1569.1 -3.98989 1.85731 0
M  V30 16585 H 1566.21 -0.595224 0.4346 0
M  V30 16586 H 1568.86 -1.0255 1.59949 0
M  V30 16587 H 1567.01 -3.50552 1.67469 0
M  V30 16588 H 1568.68 -2.3086 3.99376 0
M  V30 16589 H 1566.92 -2.1106 3.78993 0
M  V30 16590 H 1567.59 -3.71849 4.07961 0
M  V30 16591 H 1570.07 -3.55673 2.15953 0
M  V30 16592 H 1568.94 -4.90699 2.45979 0
M  V30 16593 H 1569.21 -4.34501 0.816152 0
M  V30 16594 N 1568.26 -1.13026 -1.09832 0
M  V30 16595 C 1569.49 -0.911137 -1.85423 0
M  V30 16596 C 1569.9 0.543325 -1.81231 0
M  V30 16597 O 1569.25 1.38768 -1.20371 0
M  V30 16598 C 1569.31 -1.31584 -3.34553 0
M  V30 16599 C 1568.97 -2.78288 -3.62498 0
M  V30 16600 C 1569.97 -3.7646 -3.58572 0
M  V30 16601 C 1567.65 -3.15346 -3.90976 0
M  V30 16602 C 1569.65 -5.09703 -3.82729 0
M  V30 16603 C 1567.33 -4.4877 -4.14788 0
M  V30 16604 C 1568.33 -5.45758 -4.10655 0
M  V30 16605 O 1568.02 -6.76775 -4.33856 0
M  V30 16606 H 1567.75 -0.325117 -0.592684 0
M  V30 16607 H 1570.31 -1.50559 -1.39718 0
M  V30 16608 H 1568.54 -0.664628 -3.80946 0
M  V30 16609 H 1570.23 -1.06986 -3.91547 0
M  V30 16610 H 1570.99 -3.49175 -3.36603 0
M  V30 16611 H 1566.87 -2.40459 -3.9332 0
M  V30 16612 H 1570.41 -5.85395 -3.79418 0
M  V30 16613 H 1566.31 -4.75781 -4.36237 0
M  V30 16614 H 1567.08 -6.82815 -4.51338 0
M  V30 16615 N 1569.74 1.27735 -0.923117 0
M  V30 16616 C 1571.16 1.46952 -0.622666 0
M  V30 16617 C 1571.36 1.8364 0.829384 0
M  V30 16618 O 1570.41 1.94705 1.60767 0
M  V30 16619 C 1571.73 2.56545 -1.56861 0
M  V30 16620 C 1573.28 2.70408 -1.57634 0
M  V30 16621 C 1573.75 3.83154 -2.50913 0
M  V30 16622 N 1575.24 3.90521 -2.49093 0
M  V30 16623 C 1575.98 4.77167 -3.17962 0
M  V30 16624 N 1575.47 5.68334 -3.96193 0
M  V30 16625 N 1577.27 4.70857 -3.07002 0
M  V30 16626 H 1569.42 1.02205 -1.86193 0
M  V30 16627 H 1571.68 0.509982 -0.799138 0
M  V30 16628 H 1571.39 2.3637 -2.60427 0
M  V30 16629 H 1571.26 3.53839 -1.30681 0
M  V30 16630 H 1573.65 2.89967 -0.548005 0
M  V30 16631 H 1573.73 1.73615 -1.8786 0
M  V30 16632 H 1573.37 3.64349 -3.53853 0
M  V30 16633 H 1573.3 4.79365 -2.17984 0
M  V30 16634 H 1575.79 3.25329 -1.92274 0
M  V30 16635 H 1576.11 6.31298 -4.45738 0
M  V30 16636 H 1574.45 5.68144 -4.00297 0
M  V30 16637 H 1577.64 3.98629 -2.45382 0
M  V30 16638 H 1577.81 5.38166 -3.60945 0
M  V30 16639 N 1571.22 0.688118 1.41784 0
M  V30 16640 C 1572.63 0.291625 1.84408 0
M  V30 16641 C 1572.98 -1.1688 1.57587 0
M  V30 16642 O 1572.11 -1.89634 1.04248 0
M  V30 16643 C 1572.7 0.522511 3.34747 0
M  V30 16644 C 1571.26 0.180008 3.75969 0
M  V30 16645 C 1570.41 0.808455 2.65253 0
M  V30 16646 H 1573.36 0.88932 1.31441 0
M  V30 16647 H 1573.38 -0.221167 3.79857 0
M  V30 16648 H 1572.89 1.5855 3.54236 0
M  V30 16649 H 1570.99 -0.879012 3.62083 0
M  V30 16650 H 1571.11 0.629826 4.74942 0
M  V30 16651 H 1569.47 0.238665 2.53579 0
M  V30 16652 H 1570.25 1.87516 2.87563 0
M  V30 16653 N 1572.7 -1.51554 0.432352 0
M  V30 16654 C 1574.11 -1.86673 -0.0319274 0
M  V30 16655 C 1574.46 -1.34981 -1.42389 0
M  V30 16656 O 1573.59 -0.698556 -2.04815 0
M  V30 16657 C 1574.18 -3.38738 -0.0647127 0
M  V30 16658 C 1572.74 -3.73411 -0.47339 0
M  V30 16659 C 1571.89 -2.75242 0.337187 0
M  V30 16660 H 1574.84 -1.44849 0.648417 0
M  V30 16661 H 1574.86 -3.70297 -0.875239 0
M  V30 16662 H 1574.37 -3.76331 0.948507 0
M  V30 16663 H 1572.47 -3.41406 -1.4924 0
M  V30 16664 H 1572.58 -4.78675 -0.20165 0
M  V30 16665 H 1570.95 -2.53883 -0.203801 0
M  V30 16666 H 1571.73 -3.15677 1.34919 0
M  V30 16667 N 1574.18 -0.163538 -1.56749 0
M  V30 16668 C 1575.43 0.483453 -1.9582 0
M  V30 16669 C 1575.74 1.64913 -1.05181 0
M  V30 16670 O 1576.94 2.36184 -1.33901 0
M  V30 16671 C 1575.4 0.911471 -3.48167 0
M  V30 16672 C 1575.01 -0.228178 -4.47419 0
M  V30 16673 C 1576.75 1.52732 -3.96072 0
M  V30 16674 C 1574.66 0.219036 -5.90994 0
M  V30 16675 H 1573.59 0.184383 -0.731108 0
M  V30 16676 H 1576.24 -0.250527 -1.81782 0
M  V30 16677 H 1574.62 1.7012 -3.57596 0
M  V30 16678 H 1575.8 -1.0054 -4.49698 0
M  V30 16679 H 1574.11 -0.753485 -4.09526 0
M  V30 16680 H 1576.71 1.87383 -5.00791 0
M  V30 16681 H 1577.05 2.42239 -3.38565 0
M  V30 16682 H 1577.58 0.802176 -3.89628 0
M  V30 16683 H 1574.32 -0.641066 -6.52358 0
M  V30 16684 H 1573.84 0.96178 -5.92039 0
M  V30 16685 H 1575.52 0.665524 -6.43568 0
M  V30 16686 N 1575.65 1.57214 0.110213 0
M  V30 16687 C 1576.93 1.76298 0.847249 0
M  V30 16688 C 1577.31 0.741294 1.97656 0
M  V30 16689 O 1576.66 -0.233104 2.27308 0
M  V30 16690 C 1576.87 3.21588 1.35582 0
M  V30 16691 C 1578.22 3.8434 1.80465 0
M  V30 16692 O 1579.24 3.25244 1.45241 0
M  V30 16693 O 1578.1 4.88231 2.45546 0
M  V30 16694 H 1575.19 0.722167 0.402993 0
M  V30 16695 H 1577.74 1.69443 0.0932694 0
M  V30 16696 H 1576.51 3.87472 0.54599 0
M  V30 16697 H 1576.14 3.33015 2.17225 0
M  V30 16698 N 1577.13 -0.380637 1.52934 0
M  V30 16699 C 1578.36 -1.14583 1.72274 0
M  V30 16700 C 1578.78 -1.83484 0.444864 0
M  V30 16701 O 1578.13 -1.72997 -0.581245 0
M  V30 16702 C 1578.18 -2.18756 2.87799 0
M  V30 16703 O 1577.9 -1.52662 4.10641 0
M  V30 16704 C 1579.41 -3.07938 3.18887 0
M  V30 16705 H 1576.63 -0.343218 0.576578 0
M  V30 16706 H 1579.17 -0.444149 1.99619 0
M  V30 16707 H 1577.32 -2.84546 2.62892 0
M  V30 16708 H 1577.74 -2.21949 4.75225 0
M  V30 16709 H 1579.21 -3.77045 4.03164 0
M  V30 16710 H 1579.69 -3.71913 2.33618 0
M  V30 16711 H 1580.3 -2.47783 3.45664 0
M  V30 16712 N 1578.61 -1.44039 -0.639573 0
M  V30 16713 C 1580.03 -1.2774 -0.956802 0
M  V30 16714 C 1580.23 -0.207018 -2.00434 0
M  V30 16715 O 1579.28 0.409954 -2.4915 0
M  V30 16716 C 1580.6 -2.64624 -1.42809 0
M  V30 16717 C 1582.14 -2.72266 -1.54402 0
M  V30 16718 C 1582.62 -4.09601 -2.04918 0
M  V30 16719 N 1584.11 -4.11735 -2.122 0
M  V30 16720 C 1584.84 -5.14842 -2.52439 0
M  V30 16721 N 1584.34 -6.28316 -2.91875 0
M  V30 16722 N 1586.13 -5.02196 -2.52499 0
M  V30 16723 H 1578.28 -2.12333 0.0533569 0
M  V30 16724 H 1580.55 -0.947208 -0.0387401 0
M  V30 16725 H 1580.25 -3.43983 -0.732728 0
M  V30 16726 H 1580.13 -2.90944 -2.40066 0
M  V30 16727 H 1582.51 -1.93232 -2.23037 0
M  V30 16728 H 1582.6 -2.49697 -0.555426 0
M  V30 16729 H 1582.24 -4.89108 -1.3688 0
M  V30 16730 H 1582.17 -4.29542 -3.04633 0
M  V30 16731 H 1584.66 -3.29833 -1.84441 0
M  V30 16732 H 1584.97 -7.0281 -3.21368 0
M  V30 16733 H 1583.32 -6.31767 -2.89647 0
M  V30 16734 H 1586.51 -4.12606 -2.21075 0
M  V30 16735 H 1586.68 -5.82677 -2.83535 0
M  V30 16736 N 1580.09 0.879207 -1.30796 0
M  V30 16737 C 1581.31 1.66975 -1.23021 0
M  V30 16738 C 1581.74 1.87004 0.202798 0
M  V30 16739 O 1581.1 1.40514 1.14566 0
M  V30 16740 C 1581.14 3.02028 -1.97007 0
M  V30 16741 O 1580.25 3.91338 -1.30109 0
M  V30 16742 H 1579.59 0.509998 -0.425204 0
M  V30 16743 H 1582.12 1.09688 -1.72713 0
M  V30 16744 H 1582.13 3.5203 -2.06249 0
M  V30 16745 H 1580.8 2.8677 -3.01224 0
M  V30 16746 H 1579.38 3.49781 -1.29258 0
M  V30 16747 N 1581.57 1.13606 1.09231 0
M  V30 16748 C 1582.81 0.900386 1.81717 0
M  V30 16749 C 1583.15 -0.571984 1.85586 0
M  V30 16750 O 1582.42 -1.42336 1.32554 0
M  V30 16751 C 1582.7 1.49143 3.27763 0
M  V30 16752 C 1582.56 3.03306 3.32153 0
M  V30 16753 C 1583.88 1.16129 4.24502 0
M  V30 16754 H 1581 0.328531 0.659724 0
M  V30 16755 H 1583.64 1.40467 1.27941 0
M  V30 16756 H 1581.79 1.06256 3.73687 0
M  V30 16757 H 1583.46 3.54963 2.94617 0
M  V30 16758 H 1581.7 3.38192 2.71677 0
M  V30 16759 H 1582.37 3.39761 4.35047 0
M  V30 16760 H 1584.85 1.53193 3.86874 0
M  V30 16761 H 1583.73 1.60129 5.25024 0
M  V30 16762 H 1583.99 0.0752973 4.42036 0
M  V30 16763 N 1583.05 -1.27244 0.929878 0
M  V30 16764 C 1583.99 -2.26773 0.429287 0
M  V30 16765 C 1584.96 -1.58238 -0.50498 0
M  V30 16766 O 1586.15 -1.86037 -0.423661 0
M  V30 16767 C 1583.29 -3.43706 -0.309865 0
M  V30 16768 C 1582.4 -4.26948 0.658764 0
M  V30 16769 C 1581.54 -5.31105 -0.10045 0
M  V30 16770 C 1580.57 -6.06018 0.860743 0
M  V30 16771 N 1579.71 -7.01972 0.134015 0
M  V30 16772 H 1584.55 -2.68967 1.283 0
M  V30 16773 H 1582.09 -1.32257 0.643923 0
M  V30 16774 H 1584.05 -4.10316 -0.754754 0
M  V30 16775 H 1582.68 -3.02457 -1.1278 0
M  V30 16776 H 1581.73 -3.60232 1.22218 0
M  V30 16777 H 1583.04 -4.78946 1.39326 0
M  V30 16778 H 1582.19 -6.03674 -0.605153 0
M  V30 16779 H 1580.93 -4.79915 -0.867902 0
M  V30 16780 H 1579.94 -5.32285 1.37668 0
M  V30 16781 H 1581.16 -6.59297 1.62801 0
M  V30 16782 H 1579.11 -6.53109 -0.615152 0
M  V30 16783 H 1579.03 -7.51669 0.808045 0
M  V30 16784 H 1580.29 -7.78714 -0.349964 0
M  V30 16785 N 1584.52 -0.695628 -1.41417 0
M  V30 16786 C 1585.43 -0.0308378 -2.3458 0
M  V30 16787 C 1586.45 0.766 -1.56232 0
M  V30 16788 O 1587.63 0.703548 -1.88712 0
M  V30 16789 C 1584.69 0.894162 -3.34971 0
M  V30 16790 C 1583.75 0.0895231 -4.29207 0
M  V30 16791 C 1582.98 0.970467 -5.24802 0
M  V30 16792 O 1583.21 2.20997 -5.25848 0
M  V30 16793 O 1582.14 0.420114 -6.00432 0
M  V30 16794 H 1585.97 -0.798775 -2.93007 0
M  V30 16795 H 1583.55 -0.455964 -1.42272 0
M  V30 16796 H 1585.43 1.42458 -3.9659 0
M  V30 16797 H 1584.11 1.64159 -2.78987 0
M  V30 16798 H 1583.02 -0.4855 -3.70936 0
M  V30 16799 H 1584.35 -0.619241 -4.88289 0
M  V30 16800 N 1586 1.51322 -0.440383 0
M  V30 16801 C 1587.25 2.02413 0.125248 0
M  V30 16802 C 1587.58 1.32374 1.42094 0
M  V30 16803 O 1586.86 0.439624 1.89467 0
M  V30 16804 C 1587.14 3.58483 0.340858 0
M  V30 16805 C 1586.99 4.39134 -0.973701 0
M  V30 16806 C 1588.31 4.25891 1.10927 0
M  V30 16807 H 1585.43 0.735683 0.0440452 0
M  V30 16808 H 1588.07 1.80932 -0.579976 0
M  V30 16809 H 1586.22 3.76917 0.941572 0
M  V30 16810 H 1587.89 4.32343 -1.60863 0
M  V30 16811 H 1586.14 4.04097 -1.57759 0
M  V30 16812 H 1586.81 5.46506 -0.776845 0
M  V30 16813 H 1589.28 4.11746 0.600403 0
M  V30 16814 H 1588.16 5.34967 1.2289 0
M  V30 16815 H 1588.42 3.86958 2.13813 0
M  V30 16816 N 1587.48 0.171848 1.5666 0
M  V30 16817 C 1588.73 -0.473061 1.96074 0
M  V30 16818 C 1589.04 -1.64353 1.06054 0
M  V30 16819 O 1590.25 -2.35471 1.35151 0
M  V30 16820 C 1588.7 -0.892995 3.48645 0
M  V30 16821 C 1588.31 0.251902 4.47291 0
M  V30 16822 C 1590.06 -1.50629 3.96877 0
M  V30 16823 C 1587.96 -0.187691 5.91102 0
M  V30 16824 H 1586.89 -0.180503 0.732075 0
M  V30 16825 H 1589.54 0.260164 1.81646 0
M  V30 16826 H 1587.93 -1.68221 3.58494 0
M  V30 16827 H 1589.1 1.02923 4.49159 0
M  V30 16828 H 1587.41 0.775193 4.09121 0
M  V30 16829 H 1590.01 -1.84724 5.01778 0
M  V30 16830 H 1590.35 -2.4044 3.39844 0
M  V30 16831 H 1590.89 -0.781502 3.90048 0
M  V30 16832 H 1587.63 0.675653 6.52009 0
M  V30 16833 H 1587.15 -0.93037 5.9254 0
M  V30 16834 H 1588.83 -0.631385 6.43912 0
M  V30 16835 N 1588.96 -1.5727 -0.101874 0
M  V30 16836 C 1590.21 -1.85375 -0.805007 0
M  V30 16837 C 1590.53 -0.759564 -1.79599 0
M  V30 16838 O 1589.8 0.21484 -1.94718 0
M  V30 16839 H 1588.38 -0.683987 -0.300284 0
M  V30 16840 H 1591.04 -1.94714 -0.0851166 0
M  V30 16841 H 1590.13 -2.81881 -1.33976 0
M  V30 16842 N 1590.44 0.372521 -1.53134 0
M  V30 16843 C 1591.37 1.4759 -1.75357 0
M  V30 16844 C 1592.38 1.49938 -0.634223 0
M  V30 16845 O 1593.57 1.53543 -0.910322 0
M  V30 16846 C 1590.67 2.86382 -1.81214 0
M  V30 16847 C 1589.84 3.0781 -3.1076 0
M  V30 16848 C 1588.9 4.26677 -3.07949 0
M  V30 16849 O 1587.93 4.22186 -3.81769 0
M  V30 16850 N 1589.13 5.33729 -2.28283 0
M  V30 16851 H 1591.89 1.28908 -2.7056 0
M  V30 16852 H 1589.46 0.562186 -1.51826 0
M  V30 16853 H 1591.45 3.64029 -1.7682 0
M  V30 16854 H 1590.02 2.98344 -0.933249 0
M  V30 16855 H 1589.24 2.17884 -3.28512 0
M  V30 16856 H 1590.53 3.18991 -3.96386 0
M  V30 16857 H 1589.92 5.40238 -1.67806 0
M  V30 16858 H 1588.48 6.09979 -2.29714 0
M  V30 16859 N 1591.91 1.44376 0.631925 0
M  V30 16860 C 1592.86 1.51181 1.74393 0
M  V30 16861 C 1593.83 0.359599 1.62161 0
M  V30 16862 O 1595.02 0.569725 1.82096 0
M  V30 16863 C 1592.16 1.46124 3.12637 0
M  V30 16864 C 1591.27 2.71714 3.35851 0
M  V30 16865 C 1590.4 2.58496 4.64062 0
M  V30 16866 C 1589.44 3.79252 4.80452 0
M  V30 16867 N 1588.58 3.64715 5.99939 0
M  V30 16868 H 1593.42 2.4619 1.67912 0
M  V30 16869 H 1590.96 1.22184 0.819108 0
M  V30 16870 H 1592.91 1.41183 3.92585 0
M  V30 16871 H 1591.54 0.546831 3.18135 0
M  V30 16872 H 1590.6 2.86845 2.49848 0
M  V30 16873 H 1591.91 3.61351 3.43841 0
M  V30 16874 H 1591.06 2.51383 5.5217 0
M  V30 16875 H 1589.8 1.66417 4.58428 0
M  V30 16876 H 1588.81 3.8675 3.90774 0
M  V30 16877 H 1590.03 4.72367 4.879 0
M  V30 16878 H 1587.98 2.75388 5.95397 0
M  V30 16879 H 1587.89 4.47969 6.08982 0
M  V30 16880 H 1589.16 3.61493 6.90611 0
M  V30 16881 N 1593.39 -0.872258 1.31261 0
M  V30 16882 C 1594.62 -1.6632 1.23905 0
M  V30 16883 C 1595.04 -1.87109 -0.192878 0
M  V30 16884 O 1594.4 -1.4112 -1.1382 0
M  V30 16885 C 1594.45 -3.00979 1.98606 0
M  V30 16886 O 1593.55 -3.90642 1.32183 0
M  V30 16887 H 1592.89 -0.507736 0.427902 0
M  V30 16888 H 1595.42 -1.0877 1.73292 0
M  V30 16889 H 1595.43 -3.50931 2.08113 0
M  V30 16890 H 1594.11 -2.85168 3.02741 0
M  V30 16891 H 1592.68 -3.4909 1.31112 0
M  V30 16892 N 1594.87 -1.14184 -1.08627 0
M  V30 16893 C 1595.82 -0.822297 -2.1758 0
M  V30 16894 C 1596.81 0.198863 -1.68229 0
M  V30 16895 O 1598.02 0.0551869 -1.79915 0
M  V30 16896 H 1594.39 -0.248183 -0.709866 0
M  V30 16897 H 1596.36 -1.74916 -2.41758 0
M  V30 16898 C 1595.11 -0.313671 -3.46282 0
M  V30 16899 H 1594.44 -1.09078 -3.84632 0
M  V30 16900 H 1595.88 -0.128604 -4.23805 0
M  V30 16901 C 1594.33 0.962289 -3.22865 0
M  V30 16902 O 1594.86 2.03649 -3.46251 0
M  V30 16903 N 1593.07 0.896635 -2.76421 0
M  V30 16904 H 1592.62 0.0223186 -2.5759 0
M  V30 16905 H 1592.58 1.75093 -2.61132 0
M  V30 16906 N 1596.35 1.26749 -0.936613 0
M  V30 16907 C 1597.6 1.9358 -0.580605 0
M  V30 16908 C 1597.92 1.7389 0.882446 0
M  V30 16909 O 1597.19 1.09185 1.62652 0
M  V30 16910 H 1595.77 0.716363 -0.211739 0
M  V30 16911 H 1598.43 1.54281 -1.19095 0
M  V30 16912 H 1597.53 3.01819 -0.79448 0
M  V30 16913 N 1597.83 0.703118 1.41046 0
M  V30 16914 C 1598.77 0.0312802 2.32579 0
M  V30 16915 C 1599.77 -0.760463 1.51371 0
M  V30 16916 O 1600.97 -0.665235 1.67256 0
M  V30 16917 H 1597.35 -0.00868655 0.75195 0
M  V30 16918 H 1599.32 0.820195 2.86907 0
M  V30 16919 C 1598.07 -0.885639 3.36232 0
M  V30 16920 H 1597.39 -0.285819 3.98777 0
M  V30 16921 H 1598.83 -1.3239 4.02801 0
M  V30 16922 C 1597.29 -2.00533 2.70718 0
M  V30 16923 O 1597.82 -3.09491 2.56082 0
M  V30 16924 N 1596.03 -1.78528 2.29295 0
M  V30 16925 H 1595.57 -0.899139 2.41399 0
M  V30 16926 H 1595.53 -2.53627 1.85797 0
M  V30 16927 N 1599.3 -1.51086 0.448402 0
M  V30 16928 C 1600.24 -2.25799 -0.393401 0
M  V30 16929 C 1601.25 -1.30241 -0.976792 0
M  V30 16930 O 1602.44 -1.55916 -0.869051 0
M  V30 16931 C 1599.54 -3.00682 -1.56345 0
M  V30 16932 C 1598.71 -4.23421 -1.09695 0
M  V30 16933 C 1597.77 -4.8079 -2.1384 0
M  V30 16934 O 1596.8 -5.42329 -1.72823 0
M  V30 16935 N 1598 -4.65792 -3.46437 0
M  V30 16936 H 1600.76 -2.98681 0.246986 0
M  V30 16937 H 1598.32 -1.59497 0.277902 0
M  V30 16938 H 1600.32 -3.35945 -2.25662 0
M  V30 16939 H 1598.89 -2.30741 -2.10897 0
M  V30 16940 H 1598.11 -3.93526 -0.230457 0
M  V30 16941 H 1599.39 -5.03049 -0.762832 0
M  V30 16942 H 1598.79 -4.16799 -3.82486 0
M  V30 16943 H 1597.35 -5.05386 -4.11616 0
M  V30 16944 N 1600.78 -0.180154 -1.56567 0
M  V30 16945 C 1601.69 0.758959 -2.21984 0
M  V30 16946 C 1602.71 1.24631 -1.21422 0
M  V30 16947 O 1603.88 1.29659 -1.54112 0
M  V30 16948 C 1600.95 1.96744 -2.85469 0
M  V30 16949 C 1600.01 1.52612 -4.01258 0
M  V30 16950 C 1599.24 2.677 -4.61706 0
M  V30 16951 O 1599.47 3.84799 -4.21054 0
M  V30 16952 O 1598.4 2.41269 -5.51428 0
M  V30 16953 H 1602.23 0.231919 -3.02813 0
M  V30 16954 H 1599.81 0.0484552 -1.49321 0
M  V30 16955 H 1601.69 2.67404 -3.25689 0
M  V30 16956 H 1600.37 2.48337 -2.0763 0
M  V30 16957 H 1599.28 0.78877 -3.6569 0
M  V30 16958 H 1600.61 1.05701 -4.80716 0
M  V30 16959 N 1602.26 1.57322 0.0935319 0
M  V30 16960 C 1603.21 2.02171 1.11336 0
M  V30 16961 C 1604.18 0.898305 1.39713 0
M  V30 16962 O 1605.36 1.16441 1.51149 0
M  V30 16963 C 1602.5 2.45243 2.42796 0
M  V30 16964 C 1601.62 3.7111 2.21136 0
M  V30 16965 C 1600.75 4.03056 3.46005 0
M  V30 16966 C 1599.79 5.22028 3.19615 0
M  V30 16967 N 1598.93 5.49718 4.36755 0
M  V30 16968 H 1603.77 2.89073 0.723924 0
M  V30 16969 H 1601.3 1.42975 0.345919 0
M  V30 16970 H 1603.26 2.68261 3.19518 0
M  V30 16971 H 1601.89 1.61348 2.79583 0
M  V30 16972 H 1600.94 3.5556 1.35209 0
M  V30 16973 H 1602.26 4.57979 1.97628 0
M  V30 16974 H 1601.41 4.26858 4.31135 0
M  V30 16975 H 1600.15 3.14712 3.72569 0
M  V30 16976 H 1599.15 4.98044 2.32879 0
M  V30 16977 H 1600.38 6.11971 2.94396 0
M  V30 16978 H 1598.32 4.64333 4.63391 0
M  V30 16979 H 1598.24 6.30961 4.16443 0
M  V30 16980 H 1599.51 5.78057 5.22944 0
M  V30 16981 N 1603.74 -0.364395 1.53329 0
M  V30 16982 C 1604.7 -1.42927 1.79178 0
M  V30 16983 C 1605.7 -1.4653 0.662235 0
M  V30 16984 O 1606.89 -1.4727 0.930442 0
M  V30 16985 C 1604.02 -2.82035 1.91492 0
M  V30 16986 H 1605.22 -1.21281 2.74283 0
M  V30 16987 H 1602.77 -0.597596 1.44425 0
M  V30 16988 H 1603.5 -3.08993 0.984579 0
M  V30 16989 H 1603.29 -2.80818 2.73649 0
M  V30 16990 H 1604.78 -3.59148 2.13078 0
M  V30 16991 N 1605.22 -1.44709 -0.62426 0
M  V30 16992 C 1606.15 -1.54934 -1.74693 0
M  V30 16993 C 1607.13 -0.401897 -1.65284 0
M  V30 16994 O 1608.31 -0.622906 -1.83939 0
M  V30 16995 C 1605.44 -1.49976 -3.13248 0
M  V30 16996 C 1604.4 -2.63267 -3.37453 0
M  V30 16997 C 1603.72 -2.43362 -4.76108 0
M  V30 16998 C 1605.02 -4.0538 -3.2934 0
M  V30 16999 H 1606.72 -2.48905 -1.66393 0
M  V30 17000 H 1604.26 -1.19794 -0.799088 0
M  V30 17001 H 1606.22 -1.55729 -3.91569 0
M  V30 17002 H 1604.94 -0.525254 -3.22349 0
M  V30 17003 H 1603.6 -2.56915 -2.61515 0
M  V30 17004 H 1603.25 -1.44088 -4.81921 0
M  V30 17005 H 1602.95 -3.19324 -4.93261 0
M  V30 17006 H 1604.47 -2.50943 -5.56651 0
M  V30 17007 H 1605.88 -4.13064 -3.97556 0
M  V30 17008 H 1604.28 -4.81599 -3.58025 0
M  V30 17009 H 1605.35 -4.28465 -2.27038 0
M  V30 17010 N 1606.69 0.865285 -1.31722 0
M  V30 17011 C 1607.64 1.99433 -1.19704 0
M  V30 17012 C 1608.64 1.69079 -0.104255 0
M  V30 17013 O 1609.84 1.78017 -0.266466 0
M  V30 17014 H 1606.22 0.654244 -0.370768 0
M  V30 17015 H 1608.19 2.06699 -2.15216 0
M  V30 17016 C 1606.94 3.35142 -0.926027 0
M  V30 17017 H 1606.26 3.59022 -1.75906 0
M  V30 17018 H 1607.7 4.14722 -0.88214 0
M  V30 17019 C 1606.16 3.34848 0.37124 0
M  V30 17020 O 1606.69 3.77012 1.38654 0
M  V30 17021 N 1604.9 2.87979 0.389441 0
M  V30 17022 H 1604.44 2.53861 -0.437293 0
M  V30 17023 H 1604.4 2.88165 1.25731 0
M  V30 17024 N 1608.17 1.14759 1.0802 0
M  V30 17025 C 1609.42 0.918248 1.80484 0
M  V30 17026 C 1609.75 -0.554986 1.86414 0
M  V30 17027 O 1609 -1.42732 1.33888 0
M  V30 17028 C 1609.3 1.4692 3.25805 0
M  V30 17029 C 1608.97 2.96176 3.39987 0
M  V30 17030 C 1607.63 3.36923 3.43564 0
M  V30 17031 C 1609.98 3.92131 3.43341 0
M  V30 17032 C 1607.31 4.72281 3.48092 0
M  V30 17033 C 1609.66 5.27351 3.49404 0
M  V30 17034 C 1608.33 5.67605 3.51256 0
M  V30 17035 H 1607.6 0.336011 0.660437 0
M  V30 17036 H 1610.24 1.43191 1.27156 0
M  V30 17037 H 1608.55 0.876571 3.81868 0
M  V30 17038 H 1610.24 1.26765 3.80436 0
M  V30 17039 H 1606.83 2.63675 3.37896 0
M  V30 17040 H 1611.02 3.61728 3.39804 0
M  V30 17041 H 1606.27 5.02823 3.4782 0
M  V30 17042 H 1610.45 6.01507 3.50946 0
M  V30 17043 H 1608.08 6.72474 3.54517 0
M  V30 17044 N 1609.65 -1.26251 0.943322 0
M  V30 17045 C 1610.58 -2.28673 0.472347 0
M  V30 17046 C 1611.56 -1.63319 -0.475481 0
M  V30 17047 O 1612.75 -1.90508 -0.376875 0
M  V30 17048 C 1609.88 -3.46316 -0.261286 0
M  V30 17049 C 1608.83 -4.23771 0.600192 0
M  V30 17050 C 1608.16 -5.3405 -0.263525 0
M  V30 17051 C 1609.46 -4.87576 1.87262 0
M  V30 17052 H 1611.15 -2.68319 1.32836 0
M  V30 17053 H 1608.7 -1.28987 0.640182 0
M  V30 17054 H 1610.65 -4.1708 -0.601821 0
M  V30 17055 H 1609.37 -3.05629 -1.15146 0
M  V30 17056 H 1608.03 -3.54774 0.923651 0
M  V30 17057 H 1607.68 -4.89604 -1.15312 0
M  V30 17058 H 1607.38 -5.86784 0.309495 0
M  V30 17059 H 1608.9 -6.07652 -0.599281 0
M  V30 17060 H 1610.32 -5.50544 1.59919 0
M  V30 17061 H 1608.72 -5.50437 2.39038 0
M  V30 17062 H 1609.79 -4.10397 2.58268 0
M  V30 17063 N 1611.13 -0.710588 -1.40671 0
M  V30 17064 C 1612.36 -0.257442 -2.05292 0
M  V30 17065 C 1612.77 1.09891 -1.53523 0
M  V30 17066 O 1612.13 1.68966 -0.689703 0
M  V30 17067 C 1612.18 -0.223091 -3.60811 0
M  V30 17068 O 1611.9 -1.52588 -4.10668 0
M  V30 17069 C 1613.4 0.249217 -4.42599 0
M  V30 17070 H 1610.62 -0.116663 -0.66078 0
M  V30 17071 H 1613.17 -0.967391 -1.80172 0
M  V30 17072 H 1611.32 0.437787 -3.84918 0
M  V30 17073 H 1611.74 -1.42301 -5.04827 0
M  V30 17074 H 1613.21 0.22211 -5.51553 0
M  V30 17075 H 1613.69 1.29057 -4.19811 0
M  V30 17076 H 1614.29 -0.381202 -4.23588 0
M  V30 17077 N 1612.61 1.50847 -0.456408 0
M  V30 17078 C 1614.02 1.867 0.00222532 0
M  V30 17079 C 1614.37 1.37229 1.40224 0
M  V30 17080 O 1613.49 0.731052 2.03678 0
M  V30 17081 C 1614.09 3.38798 0.0108142 0
M  V30 17082 C 1612.65 3.74117 0.413924 0
M  V30 17083 C 1611.8 2.74671 -0.380933 0
M  V30 17084 H 1614.75 1.43799 -0.671379 0
M  V30 17085 H 1614.77 3.71642 0.816217 0
M  V30 17086 H 1614.28 3.74774 -1.00826 0
M  V30 17087 H 1612.38 3.43737 1.43789 0
M  V30 17088 H 1612.49 4.78936 0.125471 0
M  V30 17089 H 1610.86 2.54175 0.163385 0
M  V30 17090 H 1611.64 3.1349 -1.39924 0
M  V30 17091 N 1614.09 0.188454 1.56469 0
M  V30 17092 C 1615.04 -0.747732 2.1539 0
M  V30 17093 C 1616.02 -1.18094 1.09282 0
M  V30 17094 O 1617.21 -1.14045 1.35362 0
M  V30 17095 C 1614.34 -1.96985 2.81162 0
M  V30 17096 C 1613.43 -1.55784 3.94452 0
M  V30 17097 N 1613.82 -0.8564 4.98497 0
M  V30 17098 C 1612.12 -1.84762 4.0593 0
M  V30 17099 C 1612.82 -0.650927 5.78047 0
M  V30 17100 N 1611.79 -1.19762 5.30243 0
M  V30 17101 H 1615.59 -0.203028 2.93198 0
M  V30 17102 H 1613.11 -0.0115881 1.62396 0
M  V30 17103 H 1615.11 -2.65094 3.21762 0
M  V30 17104 H 1613.77 -2.51934 2.0484 0
M  V30 17105 H 1614.78 -0.512583 5.15357 0
M  V30 17106 H 1611.45 -2.41267 3.40729 0
M  V30 17107 H 1612.84 -0.0949739 6.71833 0
M  V30 17108 N 1615.56 -1.5737 -0.0851874 0
M  V30 17109 C 1616.5 -1.99462 -1.12905 0
M  V30 17110 C 1617.51 -0.898597 -1.35754 0
M  V30 17111 O 1618.7 -1.17662 -1.34231 0
M  V30 17112 C 1615.8 -2.30689 -2.48266 0
M  V30 17113 C 1614.97 -3.61967 -2.45557 0
M  V30 17114 C 1614.03 -3.81017 -3.62922 0
M  V30 17115 O 1613.06 -4.52759 -3.44961 0
M  V30 17116 N 1614.26 -3.22348 -4.82775 0
M  V30 17117 H 1617.02 -2.89621 -0.7707 0
M  V30 17118 H 1614.58 -1.59564 -0.274033 0
M  V30 17119 H 1616.58 -2.40618 -3.254 0
M  V30 17120 H 1615.15 -1.46488 -2.76152 0
M  V30 17121 H 1614.37 -3.62916 -1.539 0
M  V30 17122 H 1615.65 -4.48191 -2.40836 0
M  V30 17123 H 1615.05 -2.64093 -5.00271 0
M  V30 17124 H 1613.61 -3.37747 -5.57468 0
M  V30 17125 N 1617.04 0.356258 -1.53521 0
M  V30 17126 C 1617.99 1.43689 -1.80616 0
M  V30 17127 C 1618.96 1.52808 -0.651064 0
M  V30 17128 O 1620.14 1.68549 -0.894203 0
M  V30 17129 C 1617.28 2.80513 -2.01013 0
M  V30 17130 C 1616.4 2.80287 -3.2873 0
M  V30 17131 C 1615.53 4.08747 -3.39263 0
M  V30 17132 C 1614.57 4.02699 -4.60977 0
M  V30 17133 N 1613.71 5.22825 -4.68614 0
M  V30 17134 H 1618.55 1.19884 -2.72822 0
M  V30 17135 H 1616.08 0.580984 -1.35141 0
M  V30 17136 H 1618.04 3.60011 -2.10827 0
M  V30 17137 H 1616.67 3.02698 -1.12134 0
M  V30 17138 H 1615.72 1.92968 -3.27822 0
M  V30 17139 H 1617.04 2.71693 -4.18311 0
M  V30 17140 H 1616.19 4.96663 -3.4844 0
M  V30 17141 H 1614.93 4.20106 -2.47715 0
M  V30 17142 H 1613.93 3.13168 -4.51892 0
M  V30 17143 H 1615.16 3.92934 -5.53877 0
M  V30 17144 H 1613.11 5.34752 -3.79969 0
M  V30 17145 H 1613.02 5.16437 -5.52113 0
M  V30 17146 H 1614.29 6.12548 -4.82085 0
M  V30 17147 N 1618.52 1.45038 0.616577 0
M  V30 17148 C 1619.77 1.49797 1.37595 0
M  V30 17149 C 1620.12 0.134243 1.91931 0
M  V30 17150 O 1619.41 -0.852613 1.71584 0
M  V30 17151 C 1619.61 2.50545 2.54876 0
M  V30 17152 C 1619.44 3.9658 2.12024 0
M  V30 17153 C 1618.21 4.64628 1.98618 0
M  V30 17154 C 1620.4 4.85377 1.70041 0
M  V30 17155 N 1618.39 5.95423 1.49481 0
M  V30 17156 C 1619.76 6.0573 1.32255 0
M  V30 17157 C 1621.81 4.72315 1.57552 0
M  V30 17158 C 1620.52 7.14469 0.832279 0
M  V30 17159 C 1622.54 5.81093 1.09929 0
M  V30 17160 C 1621.9 7.00596 0.731022 0
M  V30 17161 H 1618 0.603131 0.497752 0
M  V30 17162 H 1620.59 1.81456 0.70582 0
M  V30 17163 H 1618.76 2.20853 3.19497 0
M  V30 17164 H 1620.49 2.45508 3.21726 0
M  V30 17165 H 1617.24 4.1965 2.19524 0
M  V30 17166 H 1617.67 6.64949 1.2717 0
M  V30 17167 H 1622.31 3.80347 1.84652 0
M  V30 17168 H 1620.03 8.06234 0.548815 0
M  V30 17169 H 1623.61 5.73018 1.00704 0
M  V30 17170 H 1622.49 7.83335 0.368177 0
M  V30 17171 N 1620 -0.858287 1.32179 0
M  V30 17172 C 1621.25 -1.60902 1.2229 0
M  V30 17173 C 1621.57 -1.93797 -0.216227 0
M  V30 17174 O 1620.84 -1.59312 -1.14002 0
M  V30 17175 H 1619.42 -0.596529 0.449624 0
M  V30 17176 H 1622.08 -1.02686 1.65655 0
M  V30 17177 H 1621.17 -2.54755 1.80295 0
M  V30 17178 N 1621.48 -1.1533 -1.07409 0
M  V30 17179 C 1622.72 -0.922348 -1.79376 0
M  V30 17180 C 1623.04 0.551929 -1.87652 0
M  V30 17181 O 1624.24 0.900444 -2.56133 0
M  V30 17182 C 1622.7 -1.60081 -3.22339 0
M  V30 17183 C 1622.31 -3.11206 -3.22265 0
M  V30 17184 C 1624.05 -1.45138 -3.98917 0
M  V30 17185 C 1621.96 -3.71842 -4.59878 0
M  V30 17186 H 1620.89 -0.341438 -0.672262 0
M  V30 17187 H 1623.54 -1.38336 -1.20562 0
M  V30 17188 H 1621.92 -1.06748 -3.81341 0
M  V30 17189 H 1623.1 -3.7129 -2.72911 0
M  V30 17190 H 1621.41 -3.25903 -2.59183 0
M  V30 17191 H 1624.01 -1.87832 -5.00623 0
M  V30 17192 H 1624.35 -0.398796 -4.14385 0
M  V30 17193 H 1624.88 -1.95564 -3.46409 0
M  V30 17194 H 1621.62 -4.76998 -4.49614 0
M  V30 17195 H 1621.14 -3.16541 -5.09472 0
M  V30 17196 H 1622.82 -3.72733 -5.28847 0
M  V30 17197 N 1622.95 1.25748 -0.950004 0
M  V30 17198 C 1623.9 2.23767 -0.43731 0
M  V30 17199 C 1624.89 1.53856 0.47088 0
M  V30 17200 O 1626.08 1.74358 0.304687 0
M  V30 17201 C 1623.21 3.4209 0.288037 0
M  V30 17202 C 1622.29 4.19274 -0.637955 0
M  V30 17203 N 1622.69 4.73909 -1.76759 0
M  V30 17204 C 1620.98 4.43772 -0.445251 0
M  V30 17205 C 1621.68 5.32323 -2.34535 0
M  V30 17206 N 1620.66 5.18511 -1.63239 0
M  V30 17207 H 1624.46 2.6361 -1.29949 0
M  V30 17208 H 1621.98 1.40934 -0.806931 0
M  V30 17209 H 1623.97 4.11441 0.672433 0
M  V30 17210 H 1622.63 3.03771 1.14688 0
M  V30 17211 H 1623.64 4.71184 -2.14955 0
M  V30 17212 H 1620.32 4.15848 0.37109 0
M  V30 17213 H 1621.71 5.85411 -3.29763 0
M  V30 17214 N 1624.43 0.718038 1.40292 0
M  V30 17215 C 1625.66 0.266918 2.05675 0
M  V30 17216 C 1626.08 -1.08364 1.53749 0
M  V30 17217 O 1625.44 -1.6831 0.673912 0
M  V30 17218 C 1625.49 0.259606 3.59664 0
M  V30 17219 O 1624.59 -0.758372 4.05367 0
M  V30 17220 H 1623.93 0.124786 0.652169 0
M  V30 17221 H 1626.46 0.979207 1.79646 0
M  V30 17222 H 1626.47 0.098135 4.07882 0
M  V30 17223 H 1625.15 1.24517 3.96823 0
M  V30 17224 H 1623.72 -0.564425 3.68604 0
M  V30 17225 N 1625.91 -1.50602 0.464402 0
M  V30 17226 C 1627.14 -2.06701 -0.0907765 0
M  V30 17227 C 1627.55 -1.32901 -1.341 0
M  V30 17228 O 1626.91 -0.396323 -1.78145 0
M  V30 17229 C 1626.96 -3.59437 -0.385667 0
M  V30 17230 O 1626.68 -4.30453 0.81496 0
M  V30 17231 C 1628.18 -4.32137 -0.988549 0
M  V30 17232 H 1625.4 -0.670987 0.00410069 0
M  V30 17233 H 1627.95 -1.93853 0.651264 0
M  V30 17234 H 1626.1 -3.7211 -1.07763 0
M  V30 17235 H 1626.52 -5.2155 0.55551 0
M  V30 17236 H 1627.99 -5.40001 -1.1447 0
M  V30 17237 H 1628.47 -3.92194 -1.97688 0
M  V30 17238 H 1629.07 -4.23977 -0.335166 0
M  V30 17239 N 1627.39 -0.19675 -1.56367 0
M  V30 17240 C 1628.62 0.446491 -2.01718 0
M  V30 17241 C 1629.03 1.55621 -1.07604 0
M  V30 17242 O 1628.37 1.83553 -0.0733943 0
M  V30 17243 C 1628.43 1.06182 -3.43461 0
M  V30 17244 C 1628.1 0.0906278 -4.5691 0
M  V30 17245 C 1629.09 -0.700599 -5.15158 0
M  V30 17246 C 1626.78 -0.0209341 -5.02296 0
M  V30 17247 C 1628.77 -1.59034 -6.17241 0
M  V30 17248 C 1626.46 -0.91423 -6.04223 0
M  V30 17249 C 1627.46 -1.6975 -6.61569 0
M  V30 17250 O 1627.14 -2.57582 -7.61516 0
M  V30 17251 H 1626.88 0.116254 -0.665929 0
M  V30 17252 H 1629.43 -0.303224 -2.03149 0
M  V30 17253 H 1627.66 1.86015 -3.39021 0
M  V30 17254 H 1629.35 1.60988 -3.72609 0
M  V30 17255 H 1630.12 -0.624723 -4.8096 0
M  V30 17256 H 1625.99 0.578557 -4.57355 0
M  V30 17257 H 1629.54 -2.20215 -6.6193 0
M  V30 17258 H 1625.44 -0.991215 -6.37844 0
M  V30 17259 H 1626.2 -2.5138 -7.78942 0
M  V30 17260 N 1628.87 1.57413 0.0768405 0
M  V30 17261 C 1630.09 1.91607 0.793833 0
M  V30 17262 C 1630.52 0.792708 1.70581 0
M  V30 17263 O 1629.87 -0.25475 1.79501 0
M  V30 17264 C 1629.92 3.24736 1.56776 0
M  V30 17265 O 1629.03 3.13613 2.67807 0
M  V30 17266 H 1628.37 0.627572 0.216908 0
M  V30 17267 H 1630.9 2.04547 0.0465957 0
M  V30 17268 H 1630.91 3.58488 1.94809 0
M  V30 17269 H 1629.58 4.06077 0.898588 0
M  V30 17270 H 1628.16 2.91411 2.32668 0
M  V30 17271 N 1630.34 -0.348112 1.53707 0
M  V30 17272 C 1631.62 -1.1056 1.61356 0
M  V30 17273 C 1632 -2.06633 0.431955 0
M  V30 17274 O 1631.35 -2.21115 -0.576211 0
M  V30 17275 C 1631.56 -1.82929 2.97217 0
M  V30 17276 C 1632.91 -2.36837 3.52411 0
M  V30 17277 O 1633.93 -1.93032 2.99361 0
M  V30 17278 O 1632.79 -3.16966 4.45191 0
M  V30 17279 H 1629.88 -0.50817 0.652451 0
M  V30 17280 H 1632.43 -0.349971 1.66052 0
M  V30 17281 H 1631.2 -1.12912 3.74655 0
M  V30 17282 H 1630.83 -2.65361 2.9609 0
M  V30 17283 N 1631.82 -1.45363 -0.608876 0
M  V30 17284 C 1632.77 -1.54268 -1.7408 0
M  V30 17285 C 1633.76 -0.412752 -1.64295 0
M  V30 17286 O 1634.97 -0.58861 -1.70104 0
M  V30 17287 H 1631.35 -0.484528 -0.575097 0
M  V30 17288 H 1633.32 -2.49492 -1.63696 0
M  V30 17289 C 1632.07 -1.5253 -3.12458 0
M  V30 17290 H 1631.39 -2.38801 -3.20646 0
M  V30 17291 H 1632.83 -1.62819 -3.91492 0
M  V30 17292 C 1631.29 -0.249525 -3.35975 0
M  V30 17293 O 1631.82 0.671159 -3.96053 0
M  V30 17294 N 1630.02 -0.145625 -2.90235 0
M  V30 17295 H 1629.57 -0.895714 -2.41526 0
M  V30 17296 H 1629.53 0.707167 -3.06344 0
M  V30 17297 N 1633.3 0.851265 -1.32632 0
M  V30 17298 C 1634.23 1.97562 -1.24465 0
M  V30 17299 C 1635.21 1.69619 -0.127777 0
M  V30 17300 O 1636.4 1.9162 -0.315509 0
M  V30 17301 C 1633.53 3.33467 -0.970423 0
M  V30 17302 C 1632.48 3.75772 -2.0489 0
M  V30 17303 C 1631.81 5.09345 -1.62702 0
M  V30 17304 C 1633.11 3.90876 -3.4643 0
M  V30 17305 H 1634.8 2.04653 -2.18535 0
M  V30 17306 H 1632.35 0.983252 -1.05205 0
M  V30 17307 H 1634.3 4.11681 -0.899825 0
M  V30 17308 H 1633.02 3.26599 0.00591373 0
M  V30 17309 H 1631.68 2.99812 -2.1097 0
M  V30 17310 H 1631.33 4.98937 -0.638039 0
M  V30 17311 H 1631.03 5.38621 -2.34864 0
M  V30 17312 H 1632.55 5.90048 -1.57085 0
M  V30 17313 H 1633.97 4.59434 -3.42919 0
M  V30 17314 H 1632.37 4.31574 -4.1697 0
M  V30 17315 H 1633.44 2.93689 -3.85843 0
M  V30 17316 N 1634.78 1.15898 1.06796 0
M  V30 17317 C 1635.71 0.88395 2.16122 0
M  V30 17318 C 1636.69 -0.167708 1.69271 0
M  V30 17319 O 1637.87 -0.0208846 1.94189 0
M  V30 17320 C 1635 0.378656 3.4523 0
M  V30 17321 C 1633.96 1.36764 4.05561 0
M  V30 17322 C 1633.28 0.720956 5.29817 0
M  V30 17323 C 1634.58 2.73554 4.44933 0
M  V30 17324 H 1636.28 1.79818 2.39386 0
M  V30 17325 H 1633.82 0.866008 1.15049 0
M  V30 17326 H 1635.78 0.17376 4.21042 0
M  V30 17327 H 1634.5 -0.571063 3.21569 0
M  V30 17328 H 1633.16 1.55899 3.318 0
M  V30 17329 H 1632.81 -0.235089 5.0245 0
M  V30 17330 H 1632.51 1.38101 5.71141 0
M  V30 17331 H 1634.03 0.525963 6.0833 0
M  V30 17332 H 1635.45 2.58231 5.11849 0
M  V30 17333 H 1633.84 3.35986 4.97226 0
M  V30 17334 H 1634.91 3.29192 3.56034 0
M  V30 17335 N 1636.26 -1.25243 0.956659 0
M  V30 17336 C 1637.19 -2.24251 0.422686 0
M  V30 17337 C 1638.17 -1.54815 -0.497106 0
M  V30 17338 O 1639.35 -1.83506 -0.431019 0
M  V30 17339 C 1636.48 -3.36436 -0.390996 0
M  V30 17340 C 1635.52 -4.23908 0.469484 0
M  V30 17341 S 1636.36 -5.00547 1.90297 0
M  V30 17342 C 1637.51 -6.16198 1.09777 0
M  V30 17343 H 1637.75 -2.69197 1.26175 0
M  V30 17344 H 1635.28 -1.3435 0.76088 0
M  V30 17345 H 1637.24 -4.01508 -0.854516 0
M  V30 17346 H 1635.9 -2.9007 -1.20491 0
M  V30 17347 H 1635.09 -5.03763 -0.154694 0
M  V30 17348 H 1634.69 -3.63781 0.868294 0
M  V30 17349 H 1636.99 -6.76609 0.347418 0
M  V30 17350 H 1637.93 -6.82953 1.87031 0
M  V30 17351 H 1638.34 -5.61007 0.627003 0
M  V30 17352 N 1637.73 -0.725468 -1.3991 0
M  V30 17353 C 1638.66 -0.094211 -2.3331 0
M  V30 17354 C 1639.65 0.734728 -1.53414 0
M  V30 17355 O 1640.83 0.681647 -1.81844 0
M  V30 17356 C 1637.96 0.820958 -3.37457 0
M  V30 17357 C 1636.91 0.0968983 -4.2789 0
M  V30 17358 C 1636.24 1.12845 -5.22657 0
M  V30 17359 C 1637.54 -1.05483 -5.11537 0
M  V30 17360 H 1639.23 -0.874365 -2.86348 0
M  V30 17361 H 1636.78 -0.421913 -1.3768 0
M  V30 17362 H 1638.73 1.27203 -4.01743 0
M  V30 17363 H 1637.46 1.63312 -2.82837 0
M  V30 17364 H 1636.12 -0.334454 -3.65071 0
M  V30 17365 H 1635.76 1.93392 -4.64337 0
M  V30 17366 H 1635.46 0.648805 -5.84007 0
M  V30 17367 H 1636.99 1.57942 -5.89819 0
M  V30 17368 H 1638.4 -0.682657 -5.69221 0
M  V30 17369 H 1636.8 -1.46349 -5.81981 0
M  V30 17370 H 1637.87 -1.88095 -4.46932 0
M  V30 17371 N 1639.21 1.50354 -0.472382 0
M  V30 17372 C 1640.44 2.06746 0.0798134 0
M  V30 17373 C 1640.86 1.3361 1.33393 0
M  V30 17374 O 1640.21 0.405765 1.77932 0
M  V30 17375 C 1640.26 3.59636 0.3666 0
M  V30 17376 O 1639.98 4.30015 -0.837776 0
M  V30 17377 C 1641.49 4.32655 0.965618 0
M  V30 17378 H 1638.71 0.670956 -0.00765904 0
M  V30 17379 H 1641.25 1.93504 -0.661535 0
M  V30 17380 H 1639.4 3.72676 1.05788 0
M  V30 17381 H 1639.82 5.21248 -0.583161 0
M  V30 17382 H 1641.29 5.406 1.11604 0
M  V30 17383 H 1641.77 3.93237 1.95606 0
M  V30 17384 H 1642.38 4.24149 0.312676 0
M  V30 17385 N 1640.69 0.205039 1.56261 0
M  V30 17386 C 1641.62 -0.706815 2.22545 0
M  V30 17387 C 1642.6 -1.21372 1.19176 0
M  V30 17388 O 1643.79 -1.26074 1.47712 0
M  V30 17389 C 1640.92 -1.92221 2.89255 0
M  V30 17390 C 1639.87 -1.54982 3.98954 0
M  V30 17391 C 1639.2 -2.84265 4.52877 0
M  V30 17392 C 1640.5 -0.75225 5.16854 0
M  V30 17393 H 1642.19 -0.15421 2.99003 0
M  V30 17394 H 1639.74 -0.0727309 1.43816 0
M  V30 17395 H 1641.69 -2.56542 3.34311 0
M  V30 17396 H 1640.41 -2.49952 2.10218 0
M  V30 17397 H 1639.07 -0.930155 3.54604 0
M  V30 17398 H 1638.72 -3.40105 3.70591 0
M  V30 17399 H 1638.42 -2.60089 5.26904 0
M  V30 17400 H 1639.95 -3.49557 5.00642 0
M  V30 17401 H 1641.36 -1.29878 5.58395 0
M  V30 17402 H 1639.76 -0.60823 5.9701 0
M  V30 17403 H 1640.83 0.24463 4.84283 0
M  V30 17404 N 1642.17 -1.57451 -0.0684915 0
M  V30 17405 C 1643.42 -1.87041 -0.765505 0
M  V30 17406 C 1643.74 -0.797489 -1.77947 0
M  V30 17407 O 1643.01 0.17349 -1.9513 0
M  V30 17408 H 1641.59 -0.690203 -0.285708 0
M  V30 17409 H 1644.25 -1.94851 -0.0437957 0
M  V30 17410 H 1643.35 -2.8466 -1.27966 0
M  V30 17411 N 1643.65 0.339955 -1.5389 0
M  V30 17412 C 1645.06 0.683287 -1.44234 0
M  V30 17413 C 1645.26 1.92298 -0.601976 0
M  V30 17414 O 1644.32 2.52324 -0.0943623 0
M  V30 17415 C 1645.63 0.872576 -2.87761 0
M  V30 17416 C 1647.18 0.970965 -2.97559 0
M  V30 17417 C 1647.66 1.19254 -4.42202 0
M  V30 17418 N 1649.15 1.25966 -4.45743 0
M  V30 17419 C 1649.88 1.44869 -5.54798 0
M  V30 17420 N 1649.38 1.6092 -6.73852 0
M  V30 17421 N 1651.17 1.47445 -5.42417 0
M  V30 17422 H 1643.32 -0.475086 -2.07019 0
M  V30 17423 H 1645.58 -0.150644 -0.935954 0
M  V30 17424 H 1645.29 0.033117 -3.51684 0
M  V30 17425 H 1645.16 1.77326 -3.32919 0
M  V30 17426 H 1647.55 1.80094 -2.33774 0
M  V30 17427 H 1647.63 0.0471065 -2.55757 0
M  V30 17428 H 1647.28 0.367482 -5.06569 0
M  V30 17429 H 1647.21 2.13002 -4.81599 0
M  V30 17430 H 1649.7 1.15072 -3.59954 0
M  V30 17431 H 1650.01 1.74989 -7.52727 0
M  V30 17432 H 1648.36 1.58049 -6.7679 0
M  V30 17433 H 1651.55 1.34489 -4.48364 0
M  V30 17434 H 1651.72 1.61834 -6.27466 0
M  V30 17435 N 1645.13 1.45684 0.601159 0
M  V30 17436 C 1646.37 1.4974 1.35729 0
M  V30 17437 C 1646.69 0.143072 1.94474 0
M  V30 17438 O 1645.96 -0.82832 1.77527 0
M  V30 17439 H 1644.54 0.551455 0.503892 0
M  V30 17440 H 1647.21 1.81685 0.705443 0
M  V30 17441 H 1646.3 2.23982 2.17344 0
M  V30 17442 N 1646.6 -0.84422 1.33082 0
M  V30 17443 C 1647.85 -1.59596 1.2399 0
M  V30 17444 C 1648.17 -1.94016 -0.19566 0
M  V30 17445 O 1647.44 -1.60512 -1.12306 0
M  V30 17446 H 1646.02 -0.591727 0.455926 0
M  V30 17447 H 1648.68 -1.00924 1.66735 0
M  V30 17448 H 1647.78 -2.52829 1.82986 0
M  V30 17449 N 1648.08 -1.16463 -1.0618 0
M  V30 17450 C 1649.49 -0.95436 -1.60465 0
M  V30 17451 C 1649.84 0.501455 -1.89684 0
M  V30 17452 O 1648.97 1.37488 -1.67111 0
M  V30 17453 C 1649.56 -1.72603 -2.91537 0
M  V30 17454 C 1648.12 -1.56071 -3.42518 0
M  V30 17455 C 1647.27 -1.73403 -2.16395 0
M  V30 17456 H 1650.22 -1.31316 -0.891166 0
M  V30 17457 H 1650.24 -1.20252 -3.60998 0
M  V30 17458 H 1649.75 -2.78554 -2.70239 0
M  V30 17459 H 1647.85 -0.525652 -3.68874 0
M  V30 17460 H 1647.97 -2.34533 -4.17769 0
M  V30 17461 H 1646.33 -1.16155 -2.26672 0
M  V30 17462 H 1647.11 -2.80745 -1.97578 0
M  V30 17463 N 1649.56 1.24734 -0.963288 0
M  V30 17464 C 1650.81 1.92971 -0.623688 0
M  V30 17465 C 1651.14 1.7517 0.838393 0
M  V30 17466 O 1650.41 1.10208 1.60264 0
M  V30 17467 C 1650.7 3.46115 -0.99379 0
M  V30 17468 C 1650.55 3.73104 -2.51224 0
M  V30 17469 C 1651.87 4.36956 -0.525128 0
M  V30 17470 H 1648.99 0.700827 -0.228058 0
M  V30 17471 H 1651.63 1.47187 -1.2015 0
M  V30 17472 H 1649.78 3.85242 -0.502108 0
M  V30 17473 H 1651.45 3.43563 -3.07835 0
M  V30 17474 H 1649.69 3.18409 -2.94616 0
M  V30 17475 H 1650.37 4.80237 -2.7217 0
M  V30 17476 H 1652.84 4.0518 -0.947015 0
M  V30 17477 H 1651.72 5.4285 -0.812695 0
M  V30 17478 H 1651.98 4.38347 0.574843 0
M  V30 17479 N 1651.04 0.732878 1.39523 0
M  V30 17480 C 1652.28 0.280305 2.00854 0
M  V30 17481 C 1652.62 -1.12891 1.58017 0
M  V30 17482 O 1651.89 -1.76919 0.808086 0
M  V30 17483 C 1652.17 0.37978 3.58092 0
M  V30 17484 C 1652.03 1.82861 4.10953 0
M  V30 17485 C 1653.35 -0.239026 4.3945 0
M  V30 17486 H 1650.47 0.103326 0.729721 0
M  V30 17487 H 1653.11 0.928634 1.6576 0
M  V30 17488 H 1651.26 -0.172198 3.88118 0
M  V30 17489 H 1652.93 2.4373 3.91655 0
M  V30 17490 H 1651.17 2.35064 3.64592 0
M  V30 17491 H 1651.84 1.84949 5.20094 0
M  V30 17492 H 1654.32 0.231488 4.15456 0
M  V30 17493 H 1653.2 -0.139068 5.48724 0
M  V30 17494 H 1653.46 -1.32481 4.21783 0
M  V30 17495 N 1652.52 -1.50101 0.480349 0
M  V30 17496 C 1653.76 -2.033 -0.0636175 0
M  V30 17497 C 1654.12 -1.35518 -1.36575 0
M  V30 17498 O 1653.41 -0.474981 -1.85619 0
M  V30 17499 C 1653.6 -3.56191 -0.293745 0
M  V30 17500 C 1653.43 -4.38791 0.984529 0
M  V30 17501 C 1652.2 -4.81565 1.53048 0
M  V30 17502 C 1654.4 -4.78613 1.88239 0
M  V30 17503 N 1652.38 -5.48519 2.75681 0
M  V30 17504 C 1653.75 -5.45074 2.95456 0
M  V30 17505 C 1655.81 -4.60566 1.89166 0
M  V30 17506 C 1654.51 -5.95398 4.03601 0
M  V30 17507 C 1656.54 -5.11836 2.96273 0
M  V30 17508 C 1655.9 -5.78279 4.02209 0
M  V30 17509 H 1652 -0.781816 0.016982 0
M  V30 17510 H 1654.58 -1.83508 0.650617 0
M  V30 17511 H 1652.75 -3.75911 -0.977023 0
M  V30 17512 H 1654.49 -3.96037 -0.832876 0
M  V30 17513 H 1651.24 -4.61159 1.0784 0
M  V30 17514 H 1651.66 -5.86597 3.37983 0
M  V30 17515 H 1656.31 -4.0862 1.08578 0
M  V30 17516 H 1654.02 -6.46375 4.85 0
M  V30 17517 H 1657.61 -4.99696 2.97985 0
M  V30 17518 H 1656.49 -6.17237 4.83724 0
M  V30 17519 N 1653.99 -0.213323 -1.5615 0
M  V30 17520 C 1654.92 0.695003 -2.22917 0
M  V30 17521 C 1655.9 1.20738 -1.19818 0
M  V30 17522 O 1657.09 1.25289 -1.48379 0
M  V30 17523 C 1654.22 1.90685 -2.9027 0
M  V30 17524 C 1653.17 1.52865 -3.9977 0
M  V30 17525 C 1652.5 2.81859 -4.54378 0
M  V30 17526 C 1653.8 0.724829 -5.17246 0
M  V30 17527 H 1655.49 0.138351 -2.9908 0
M  V30 17528 H 1653.04 0.0651029 -1.43853 0
M  V30 17529 H 1654.99 2.54766 -3.35667 0
M  V30 17530 H 1653.72 2.48833 -2.11541 0
M  V30 17531 H 1652.38 0.911336 -3.55092 0
M  V30 17532 H 1652.02 3.38135 -3.72389 0
M  V30 17533 H 1651.72 2.57291 -5.28275 0
M  V30 17534 H 1653.25 3.46897 -5.02489 0
M  V30 17535 H 1654.66 1.26915 -5.59076 0
M  V30 17536 H 1653.06 0.57656 -5.97324 0
M  V30 17537 H 1654.13 -0.270309 -4.84146 0
M  V30 17538 N 1655.47 1.57485 0.0601405 0
M  V30 17539 C 1656.7 1.92438 0.773466 0
M  V30 17540 C 1657.12 0.810755 1.6973 0
M  V30 17541 O 1656.48 -0.235697 1.79761 0
M  V30 17542 C 1656.53 3.26381 1.53323 0
M  V30 17543 O 1655.63 3.16436 2.64465 0
M  V30 17544 H 1654.97 0.629838 0.210239 0
M  V30 17545 H 1657.5 2.04585 0.0248981 0
M  V30 17546 H 1657.51 3.60534 1.90996 0
M  V30 17547 H 1656.19 4.07007 0.855468 0
M  V30 17548 H 1654.77 2.93862 2.29564 0
M  V30 17549 N 1656.95 -0.331789 1.54068 0
M  V30 17550 C 1657.86 -1.43116 1.8589 0
M  V30 17551 C 1658.88 -1.57003 0.75007 0
M  V30 17552 O 1660.05 -1.72256 1.04355 0
M  V30 17553 C 1657.12 -2.77945 2.07238 0
M  V30 17554 C 1656.18 -2.73303 3.31065 0
M  V30 17555 C 1655.41 -4.01702 3.51385 0
M  V30 17556 O 1655.63 -4.99562 2.75306 0
M  V30 17557 O 1654.57 -4.0546 4.44844 0
M  V30 17558 H 1658.39 -1.19137 2.79357 0
M  V30 17559 H 1655.98 -0.525057 1.3987 0
M  V30 17560 H 1657.86 -3.57774 2.22656 0
M  V30 17561 H 1656.54 -3.01831 1.16959 0
M  V30 17562 H 1655.44 -1.92054 3.21039 0
M  V30 17563 H 1656.78 -2.54371 4.21374 0
M  V30 17564 N 1658.43 -1.46001 -0.593424 0
M  V30 17565 C 1659.39 -1.55347 -1.68523 0
M  V30 17566 C 1660.39 -0.431599 -1.549 0
M  V30 17567 O 1661.58 -0.695559 -1.59711 0
M  V30 17568 C 1658.71 -1.46355 -3.07885 0
M  V30 17569 H 1659.91 -2.52639 -1.61597 0
M  V30 17570 H 1657.46 -1.33652 -0.810363 0
M  V30 17571 H 1658.19 -0.503024 -3.20375 0
M  V30 17572 H 1657.98 -2.27741 -3.19181 0
M  V30 17573 H 1659.47 -1.55958 -3.87385 0
M  V30 17574 N 1659.91 0.83715 -1.33527 0
M  V30 17575 C 1661.18 1.57727 -1.15678 0
M  V30 17576 C 1661.56 2.09286 0.276178 0
M  V30 17577 O 1660.91 1.89589 1.27547 0
M  V30 17578 C 1661.12 2.70978 -2.19936 0
M  V30 17579 C 1662.47 3.40114 -2.5418 0
M  V30 17580 O 1663.49 2.81221 -2.18616 0
M  V30 17581 O 1662.35 4.46431 -3.15217 0
M  V30 17582 H 1659.45 0.69545 -0.447525 0
M  V30 17583 H 1661.99 0.879756 -1.45115 0
M  V30 17584 H 1660.76 2.30532 -3.16181 0
M  V30 17585 H 1660.39 3.48393 -1.91594 0
M  V30 17586 N 1661.38 1.17024 1.05561 0
M  V30 17587 C 1662.35 0.885897 2.11387 0
M  V30 17588 C 1663.35 -0.122327 1.60334 0
M  V30 17589 O 1664.54 0.109416 1.73856 0
M  V30 17590 C 1661.67 0.32626 3.39335 0
M  V30 17591 H 1662.86 1.82414 2.38045 0
M  V30 17592 H 1660.42 0.980191 1.21745 0
M  V30 17593 H 1661.15 -0.619308 3.18332 0
M  V30 17594 H 1660.94 1.05285 3.777 0
M  V30 17595 H 1662.43 0.145513 4.17346 0
M  V30 17596 N 1662.86 -1.24221 0.969889 0
M  V30 17597 C 1663.81 -2.25292 0.501215 0
M  V30 17598 C 1664.78 -1.59764 -0.454382 0
M  V30 17599 O 1665.96 -1.87291 -0.364261 0
M  V30 17600 C 1663.1 -3.44518 -0.200361 0
M  V30 17601 C 1662.22 -4.24636 0.79426 0
M  V30 17602 C 1661.35 -5.31156 0.068568 0
M  V30 17603 C 1660.39 -6.02973 1.05311 0
M  V30 17604 N 1659.53 -7.0119 0.357274 0
M  V30 17605 H 1664.37 -2.64749 1.36792 0
M  V30 17606 H 1661.91 -1.30142 0.685673 0
M  V30 17607 H 1663.86 -4.1251 -0.623833 0
M  V30 17608 H 1662.49 -3.05892 -1.03101 0
M  V30 17609 H 1661.55 -3.56161 1.33616 0
M  V30 17610 H 1662.86 -4.74271 1.54493 0
M  V30 17611 H 1662.01 -6.05294 -0.412792 0
M  V30 17612 H 1660.75 -4.82434 -0.714781 0
M  V30 17613 H 1659.76 -5.27636 1.54532 0
M  V30 17614 H 1660.98 -6.53784 1.83694 0
M  V30 17615 H 1658.93 -6.54736 -0.407059 0
M  V30 17616 H 1658.84 -7.48718 1.04677 0
M  V30 17617 H 1660.11 -7.79433 -0.102045 0
M  V30 17618 N 1664.34 -0.740267 -1.39132 0
M  V30 17619 C 1665.62 -0.216602 -1.94397 0
M  V30 17620 C 1666 1.28264 -1.67665 0
M  V30 17621 O 1665.35 2.05075 -1.00778 0
M  V30 17622 C 1665.56 -0.555899 -3.44544 0
M  V30 17623 C 1666.9 -0.50815 -4.21548 0
M  V30 17624 O 1667.93 -0.493401 -3.52766 0
M  V30 17625 O 1666.79 -0.507321 -5.4414 0
M  V30 17626 H 1663.88 -0.0413037 -0.825968 0
M  V30 17627 H 1666.43 -0.819483 -1.48602 0
M  V30 17628 H 1665.2 -1.59187 -3.57457 0
M  V30 17629 H 1664.82 0.0756793 -3.97528 0
M  V30 17630 N 1665.82 1.49844 -0.488302 0
M  V30 17631 C 1666.75 2.31737 0.286432 0
M  V30 17632 C 1667.73 1.39424 0.974418 0
M  V30 17633 O 1668.91 1.68339 0.968274 0
M  V30 17634 C 1666.04 3.19616 1.35878 0
M  V30 17635 C 1665 4.20619 0.791409 0
M  V30 17636 C 1664.32 4.9735 1.96333 0
M  V30 17637 C 1665.62 5.21882 -0.208975 0
M  V30 17638 H 1667.32 2.96755 -0.397092 0
M  V30 17639 H 1664.86 1.42709 -0.192413 0
M  V30 17640 H 1666.82 3.75711 1.90838 0
M  V30 17641 H 1665.54 2.52516 2.07131 0
M  V30 17642 H 1664.2 3.65651 0.263647 0
M  V30 17643 H 1663.85 4.26708 2.66325 0
M  V30 17644 H 1663.55 5.65684 1.58983 0
M  V30 17645 H 1665.07 5.56286 2.51751 0
M  V30 17646 H 1666.49 5.72746 0.252049 0
M  V30 17647 H 1664.88 5.98033 -0.497638 0
M  V30 17648 H 1665.95 4.7157 -1.12916 0
M  V30 17649 N 1667.3 0.221601 1.56034 0
M  V30 17650 C 1668.54 -0.409277 1.97912 0
M  V30 17651 C 1668.87 -1.60291 1.11049 0
M  V30 17652 O 1668.14 -1.95 0.187529 0
M  V30 17653 H 1666.72 -0.154201 0.730911 0
M  V30 17654 H 1669.38 0.314508 1.92346 0
M  V30 17655 H 1668.47 -0.73557 3.03308 0
M  V30 17656 N 1668.77 -1.57515 -0.0517878 0
M  V30 17657 C 1670.02 -1.87396 -0.746022 0
M  V30 17658 C 1670.34 -0.817053 -1.77718 0
M  V30 17659 O 1671.54 -1.00435 -2.5224 0
M  V30 17660 C 1670 -3.32481 -1.37783 0
M  V30 17661 C 1669.61 -4.46349 -0.384208 0
M  V30 17662 C 1671.35 -3.71539 -2.05327 0
M  V30 17663 C 1669.26 -5.82484 -1.02307 0
M  V30 17664 H 1668.19 -0.699127 -0.282379 0
M  V30 17665 H 1670.84 -1.835 0.000245524 0
M  V30 17666 H 1669.22 -3.31051 -2.17304 0
M  V30 17667 H 1670.39 -4.59209 0.382639 0
M  V30 17668 H 1668.71 -4.15976 0.187873 0
M  V30 17669 H 1671.31 -4.70553 -2.53936 0
M  V30 17670 H 1671.65 -3.02361 -2.86153 0
M  V30 17671 H 1672.18 -3.75046 -1.32611 0
M  V30 17672 H 1668.92 -6.55005 -0.254704 0
M  V30 17673 H 1668.44 -5.73388 -1.7603 0
M  V30 17674 H 1670.12 -6.28476 -1.5371 0
M  V30 17675 N 1670.25 0.323614 -1.54242 0
M  V30 17676 C 1671.22 1.38126 -1.82904 0
M  V30 17677 C 1672.22 1.44723 -0.700853 0
M  V30 17678 O 1673.41 1.44751 -0.969161 0
M  V30 17679 C 1670.54 2.76858 -1.98903 0
M  V30 17680 H 1671.73 1.13966 -2.77402 0
M  V30 17681 H 1669.28 0.559094 -1.45958 0
M  V30 17682 H 1670.02 3.06274 -1.06616 0
M  V30 17683 H 1669.8 2.73464 -2.80998 0
M  V30 17684 H 1671.29 3.53372 -2.22526 0
M  V30 17685 N 1671.73 1.46313 0.585673 0
M  V30 17686 C 1673.01 1.41946 1.34576 0
M  V30 17687 C 1673.39 0.101379 2.10856 0
M  V30 17688 O 1672.74 -0.917016 2.09292 0
M  V30 17689 C 1672.95 2.64724 2.27425 0
M  V30 17690 C 1674.29 3.10746 2.89347 0
M  V30 17691 O 1675.32 2.65252 2.37739 0
M  V30 17692 O 1674.18 3.8976 3.83079 0
M  V30 17693 H 1671.27 0.564346 0.604519 0
M  V30 17694 H 1673.82 1.58475 0.606937 0
M  V30 17695 H 1672.59 3.52217 1.70467 0
M  V30 17696 H 1672.21 2.50639 3.08652 0
M  V30 17697 N 1673.21 -0.830057 1.33969 0
M  V30 17698 C 1674.16 -1.96189 1.2495 0
M  V30 17699 C 1675.15 -1.68743 0.149047 0
M  V30 17700 O 1676.36 -1.77248 0.31357 0
M  V30 17701 H 1672.73 -0.644184 0.387983 0
M  V30 17702 H 1674.7 -2.0092 2.20621 0
M  V30 17703 C 1673.45 -3.32569 1.01456 0
M  V30 17704 H 1672.78 -3.54232 1.85363 0
M  V30 17705 H 1674.22 -4.12237 0.991786 0
M  V30 17706 C 1672.67 -3.35715 -0.282331 0
M  V30 17707 O 1673.2 -3.80556 -1.28609 0
M  V30 17708 N 1671.41 -2.8891 -0.312952 0
M  V30 17709 H 1670.96 -2.52613 0.504446 0
M  V30 17710 H 1670.92 -2.91397 -1.18047 0
M  V30 17711 N 1674.69 -1.17582 -1.04939 0
M  V30 17712 C 1675.96 -0.875638 -1.74906 0
M  V30 17713 C 1676.34 0.62353 -2.01681 0
M  V30 17714 O 1675.69 1.57558 -1.65492 0
M  V30 17715 C 1675.9 -1.71334 -3.04049 0
M  V30 17716 C 1677.25 -1.93489 -3.77951 0
M  V30 17717 O 1678.27 -1.68314 -3.13925 0
M  V30 17718 O 1677.13 -2.35815 -4.93005 0
M  V30 17719 H 1674.23 -0.324451 -0.760697 0
M  V30 17720 H 1676.77 -1.2829 -1.11084 0
M  V30 17721 H 1675.55 -2.73003 -2.80331 0
M  V30 17722 H 1675.17 -1.30401 -3.75608 0
M  V30 17723 N 1676.17 1.23705 -0.976463 0
M  V30 17724 C 1677.41 1.92608 -0.653736 0
M  V30 17725 C 1677.77 1.74822 0.803438 0
M  V30 17726 O 1677.06 1.09606 1.57153 0
M  V30 17727 C 1677.25 3.43853 -0.974676 0
M  V30 17728 C 1677.08 3.76351 -2.4615 0
M  V30 17729 C 1675.85 3.97251 -3.12282 0
M  V30 17730 C 1678.05 3.8214 -3.442 0
M  V30 17731 N 1676.03 4.16921 -4.5061 0
M  V30 17732 C 1677.4 4.06756 -4.6792 0
M  V30 17733 C 1679.46 3.64914 -3.38736 0
M  V30 17734 C 1678.16 4.15937 -5.86847 0
M  V30 17735 C 1680.19 3.75345 -4.57023 0
M  V30 17736 C 1679.55 4.00395 -5.79537 0
M  V30 17737 H 1675.65 0.726154 -0.290214 0
M  V30 17738 H 1678.23 1.49014 -1.25312 0
M  V30 17739 H 1676.4 3.86293 -0.404026 0
M  V30 17740 H 1678.14 4.00082 -0.609625 0
M  V30 17741 H 1674.89 3.94004 -2.62788 0
M  V30 17742 H 1675.31 4.30719 -5.22313 0
M  V30 17743 H 1679.96 3.44547 -2.45046 0
M  V30 17744 H 1677.67 4.35113 -6.80957 0
M  V30 17745 H 1681.26 3.63377 -4.54366 0
M  V30 17746 H 1680.14 4.08275 -6.69538 0
M  V30 17747 N 1677.64 0.747635 1.38738 0
M  V30 17748 C 1678.89 0.297962 1.99487 0
M  V30 17749 C 1679.21 -1.1249 1.60016 0
M  V30 17750 O 1680.41 -1.67474 2.13693 0
M  V30 17751 C 1678.87 0.48178 3.56661 0
M  V30 17752 C 1678.48 1.91335 4.05086 0
M  V30 17753 C 1680.22 0.0945202 4.24395 0
M  V30 17754 C 1678.13 2.04604 5.54879 0
M  V30 17755 H 1677.06 0.107655 0.746275 0
M  V30 17756 H 1679.71 0.923325 1.58578 0
M  V30 17757 H 1678.09 -0.212676 3.95428 0
M  V30 17758 H 1679.26 2.64079 3.77623 0
M  V30 17759 H 1677.58 2.25497 3.50057 0
M  V30 17760 H 1680.18 0.172508 5.34422 0
M  V30 17761 H 1680.52 -0.952037 4.05268 0
M  V30 17762 H 1681.05 0.740606 3.90845 0
M  V30 17763 H 1677.79 3.07493 5.78903 0
M  V30 17764 H 1677.31 1.36313 5.84105 0
M  V30 17765 H 1678.99 1.83317 6.20487 0
M  V30 17766 N 1679.12 -1.49583 0.496242 0
M  V30 17767 C 1680.03 -2.32808 -0.289404 0
M  V30 17768 C 1681.05 -1.44324 -0.971933 0
M  V30 17769 O 1682.22 -1.77352 -0.954366 0
M  V30 17770 C 1679.29 -3.19645 -1.34269 0
M  V30 17771 C 1678.35 -4.23975 -0.6741 0
M  V30 17772 C 1677.58 -5.06661 -1.6772 0
M  V30 17773 O 1677.81 -4.90792 -2.90654 0
M  V30 17774 O 1676.74 -5.89091 -1.23514 0
M  V30 17775 H 1680.57 -3.01164 0.391664 0
M  V30 17776 H 1678.15 -1.47162 0.257652 0
M  V30 17777 H 1680.03 -3.73453 -1.9522 0
M  V30 17778 H 1678.71 -2.53989 -2.00677 0
M  V30 17779 H 1677.61 -3.74092 -0.0249732 0
M  V30 17780 H 1678.95 -4.92172 -0.0525442 0
M  V30 17781 N 1680.6 -0.229873 -1.55915 0
M  V30 17782 C 1681.85 0.400157 -1.98813 0
M  V30 17783 C 1682.18 1.58821 -1.11756 0
M  V30 17784 O 1681.45 1.93692 -0.177094 0
M  V30 17785 C 1681.74 0.826623 -3.50484 0
M  V30 17786 C 1681.59 -0.365647 -4.48311 0
M  V30 17787 C 1682.91 1.6798 -4.06781 0
M  V30 17788 H 1680.03 0.143977 -0.7228 0
M  V30 17789 H 1682.67 -0.327775 -1.87151 0
M  V30 17790 H 1680.82 1.44687 -3.60552 0
M  V30 17791 H 1682.49 -1.00391 -4.50244 0
M  V30 17792 H 1680.73 -1.01168 -4.21838 0
M  V30 17793 H 1681.41 -0.0241816 -5.51995 0
M  V30 17794 H 1683.88 1.15639 -3.99708 0
M  V30 17795 H 1682.76 1.94708 -5.13206 0
M  V30 17796 H 1683.02 2.64594 -3.54179 0
M  V30 17797 N 1682.08 1.5754 0.0434337 0
M  V30 17798 C 1683.32 1.88608 0.737108 0
M  V30 17799 C 1683.65 0.825342 1.7612 0
M  V30 17800 O 1682.91 -0.175437 1.94912 0
M  V30 17801 C 1683.21 3.26402 1.45591 0
M  V30 17802 C 1682.87 4.47294 0.56915 0
M  V30 17803 C 1681.53 4.80102 0.324866 0
M  V30 17804 C 1683.89 5.21181 -0.0439735 0
M  V30 17805 C 1681.21 5.84195 -0.541556 0
M  V30 17806 C 1683.57 6.26194 -0.898013 0
M  V30 17807 C 1682.23 6.57486 -1.1519 0
M  V30 17808 H 1681.5 0.690166 0.269727 0
M  V30 17809 H 1684.15 1.915 -0.00275199 0
M  V30 17810 H 1682.45 3.19431 2.26872 0
M  V30 17811 H 1684.15 3.47684 1.99793 0
M  V30 17812 H 1680.74 4.21632 0.769694 0
M  V30 17813 H 1684.92 4.96125 0.131816 0
M  V30 17814 H 1680.18 6.06823 -0.746711 0
M  V30 17815 H 1684.35 6.82596 -1.37969 0
M  V30 17816 H 1681.98 7.37969 -1.82501 0
M  V30 17817 N 1683.56 -0.31543 1.54411 0
M  V30 17818 C 1684.5 -1.4086 1.85098 0
M  V30 17819 C 1685.5 -1.53172 0.723518 0
M  V30 17820 O 1686.7 -1.55461 0.907303 0
M  V30 17821 H 1683.08 -0.47022 0.586853 0
M  V30 17822 H 1685.05 -1.12207 2.765 0
M  V30 17823 C 1683.8 -2.76948 2.10227 0
M  V30 17824 H 1683.12 -2.68251 2.96448 0
M  V30 17825 H 1684.56 -3.52486 2.35647 0
M  V30 17826 C 1683.02 -3.24758 0.896312 0
M  V30 17827 O 1683.55 -4.0155 0.109609 0
M  V30 17828 N 1681.76 -2.81901 0.705685 0
M  V30 17829 H 1681.3 -2.19571 1.34708 0
M  V30 17830 H 1681.26 -3.14242 -0.0996804 0
M  V30 17831 N 1685.03 -1.46622 -0.577906 0
M  V30 17832 C 1686.26 -1.56 -1.36671 0
M  V30 17833 C 1686.68 -0.2034 -1.86997 0
M  V30 17834 O 1686.04 0.817288 -1.61834 0
M  V30 17835 C 1686.09 -2.57254 -2.52691 0
M  V30 17836 O 1685.19 -2.1109 -3.54281 0
M  V30 17837 H 1684.54 -0.524779 -0.406821 0
M  V30 17838 H 1687.07 -1.92234 -0.700512 0
M  V30 17839 H 1687.08 -2.77016 -2.99543 0
M  V30 17840 H 1685.75 -3.55766 -2.15415 0
M  V30 17841 H 1684.33 -2.01337 -3.13875 0
M  V30 17842 N 1686.51 0.822941 -1.34408 0
M  V30 17843 C 1687.46 1.95524 -1.25988 0
M  V30 17844 C 1688.45 1.68662 -0.157994 0
M  V30 17845 O 1689.66 1.77079 -0.322966 0
M  V30 17846 H 1686.04 0.642117 -0.391394 0
M  V30 17847 H 1688.01 1.99747 -2.21683 0
M  V30 17848 C 1686.76 3.32026 -1.03218 0
M  V30 17849 H 1686.08 3.53244 -1.87239 0
M  V30 17850 H 1687.52 4.11706 -1.01363 0
M  V30 17851 C 1685.98 3.3586 0.264523 0
M  V30 17852 O 1686.51 3.81232 1.26589 0
M  V30 17853 N 1684.71 2.89072 0.297626 0
M  V30 17854 H 1684.26 2.52341 -0.517836 0
M  V30 17855 H 1684.22 2.92019 1.165 0
M  V30 17856 N 1687.99 1.18137 1.04314 0
M  V30 17857 C 1689.24 0.973277 1.77121 0
M  V30 17858 C 1689.56 -0.498558 1.88519 0
M  V30 17859 O 1688.83 -1.36168 1.40837 0
M  V30 17860 H 1687.41 0.35712 0.656105 0
M  V30 17861 H 1690.07 1.48774 1.25906 0
M  V30 17862 H 1689.17 1.40917 2.78476 0
M  V30 17863 N 1689.47 -1.23186 0.98301 0
M  V30 17864 C 1690.43 -2.22979 0.530366 0
M  V30 17865 C 1691.43 -1.56211 -0.381421 0
M  V30 17866 O 1692.62 -1.73321 -0.17475 0
M  V30 17867 C 1689.75 -3.40124 -0.229882 0
M  V30 17868 H 1690.95 -2.64539 1.41277 0
M  V30 17869 H 1688.5 -1.36064 0.769172 0
M  V30 17870 H 1689.23 -3.04024 -1.12871 0
M  V30 17871 H 1689.02 -3.89794 0.424653 0
M  V30 17872 H 1690.51 -4.14158 -0.535078 0
M  V30 17873 N 1690.95 -0.754982 -1.38339 0
M  V30 17874 C 1691.88 -0.143678 -2.33058 0
M  V30 17875 C 1692.86 0.702022 -1.54938 0
M  V30 17876 O 1694.04 0.642922 -1.83249 0
M  V30 17877 C 1691.17 0.749194 -3.39123 0
M  V30 17878 C 1690.13 0.00611459 -4.28 0
M  V30 17879 C 1689.45 1.01733 -5.24933 0
M  V30 17880 C 1690.75 -1.1631 -5.09185 0
M  V30 17881 H 1692.45 -0.934907 -2.84429 0
M  V30 17882 H 1689.99 -0.451023 -1.36754 0
M  V30 17883 H 1691.95 1.18653 -4.04351 0
M  V30 17884 H 1690.67 1.57276 -2.86237 0
M  V30 17885 H 1689.33 -0.411816 -3.6428 0
M  V30 17886 H 1688.98 1.83499 -4.68334 0
M  V30 17887 H 1688.68 0.524783 -5.85252 0
M  V30 17888 H 1690.2 1.45395 -5.93037 0
M  V30 17889 H 1691.61 -0.803244 -5.67645 0
M  V30 17890 H 1690.01 -1.5866 -5.78746 0
M  V30 17891 H 1691.08 -1.97533 -4.42842 0
M  V30 17892 N 1692.42 1.49318 -0.504168 0
M  V30 17893 C 1693.65 2.06869 0.0359415 0
M  V30 17894 C 1694.07 1.3641 1.30529 0
M  V30 17895 O 1693.42 0.443416 1.77031 0
M  V30 17896 C 1693.48 3.60333 0.290233 0
M  V30 17897 O 1693.2 4.28141 -0.928801 0
M  V30 17898 C 1694.7 4.34606 0.873628 0
M  V30 17899 H 1691.92 0.670643 -0.0218893 0
M  V30 17900 H 1694.46 1.92058 -0.702432 0
M  V30 17901 H 1692.62 3.74836 0.978594 0
M  V30 17902 H 1693.03 5.19894 -0.693595 0
M  V30 17903 H 1694.5 5.42846 1.00112 0
M  V30 17904 H 1694.98 3.97297 1.87221 0
M  V30 17905 H 1695.59 4.24717 0.222638 0
M  V30 17906 N 1693.9 0.238138 1.5579 0
M  V30 17907 C 1694.87 -0.651703 2.1974 0
M  V30 17908 C 1695.87 -1.10932 1.16408 0
M  V30 17909 O 1697.06 -1.01544 1.41543 0
M  V30 17910 C 1694.19 -1.8947 2.83397 0
M  V30 17911 H 1695.38 -0.0939013 2.99753 0
M  V30 17912 H 1692.93 -0.0114348 1.56296 0
M  V30 17913 H 1693.67 -2.49395 2.07298 0
M  V30 17914 H 1693.45 -1.57486 3.59083 0
M  V30 17915 H 1694.94 -2.52831 3.32365 0
M  V30 17916 N 1695.38 -1.57561 -0.0350783 0
M  V30 17917 C 1696.8 -1.54746 -0.390618 0
M  V30 17918 C 1697 -0.963454 -1.76974 0
M  V30 17919 O 1696.05 -0.581878 -2.45704 0
M  V30 17920 C 1697.37 -2.9922 -0.297984 0
M  V30 17921 C 1698.91 -3.10739 -0.375506 0
M  V30 17922 C 1699.39 -4.56933 -0.312387 0
M  V30 17923 N 1700.88 -4.61709 -0.371364 0
M  V30 17924 C 1701.61 -5.72359 -0.34532 0
M  V30 17925 N 1701.11 -6.92266 -0.271921 0
M  V30 17926 N 1702.9 -5.60713 -0.394605 0
M  V30 17927 H 1695.05 -1.93876 0.867519 0
M  V30 17928 H 1697.32 -0.888974 0.329285 0
M  V30 17929 H 1697.02 -3.45651 0.649499 0
M  V30 17930 H 1696.9 -3.60987 -1.094 0
M  V30 17931 H 1699.28 -2.6426 -1.31342 0
M  V30 17932 H 1699.37 -2.51815 0.449752 0
M  V30 17933 H 1699.01 -5.04079 0.621834 0
M  V30 17934 H 1698.94 -5.13762 -1.15567 0
M  V30 17935 H 1701.43 -3.75436 -0.430848 0
M  V30 17936 H 1701.74 -7.72373 -0.256983 0
M  V30 17937 H 1700.09 -6.94592 -0.238058 0
M  V30 17938 H 1703.28 -4.65933 -0.449896 0
M  V30 17939 H 1703.45 -6.46938 -0.37084 0
M  V30 17940 N 1696.86 0.307236 -1.54576 0
M  V30 17941 C 1697.82 1.36178 -1.84359 0
M  V30 17942 C 1698.82 1.43971 -0.716163 0
M  V30 17943 O 1700.01 1.43715 -0.98446 0
M  V30 17944 C 1697.14 2.74733 -2.01828 0
M  V30 17945 H 1698.34 1.11017 -2.78595 0
M  V30 17946 H 1695.89 0.543582 -1.46543 0
M  V30 17947 H 1696.62 3.05126 -1.09858 0
M  V30 17948 H 1696.41 2.70468 -2.83883 0
M  V30 17949 H 1697.9 3.50992 -2.26261 0
M  V30 17950 N 1698.34 1.46926 0.570122 0
M  V30 17951 C 1699.58 1.53113 1.32982 0
M  V30 17952 C 1699.92 0.187401 1.93294 0
M  V30 17953 O 1699.19 -0.802585 1.77169 0
M  V30 17954 C 1699.47 2.63936 2.44969 0
M  V30 17955 C 1699.33 4.07882 1.8961 0
M  V30 17956 C 1700.65 2.70753 3.46959 0
M  V30 17957 H 1697.76 0.557398 0.482158 0
M  V30 17958 H 1700.41 1.78923 0.639259 0
M  V30 17959 H 1698.56 2.42059 3.03874 0
M  V30 17960 H 1700.23 4.41084 1.35066 0
M  V30 17961 H 1698.47 4.16768 1.20361 0
M  V30 17962 H 1699.14 4.81175 2.70508 0
M  V30 17963 H 1701.62 2.90452 2.97954 0
M  V30 17964 H 1700.49 3.50093 4.2276 0
M  V30 17965 H 1700.76 1.77299 4.04991 0
M  V30 17966 N 1699.82 -0.815801 1.34842 0
M  V30 17967 C 1701.06 -1.57474 1.27788 0
M  V30 17968 C 1701.39 -1.9362 -0.149956 0
M  V30 17969 O 1700.67 -1.60605 -1.0971 0
M  V30 17970 C 1700.95 -2.86952 2.17556 0
M  V30 17971 C 1700.81 -2.5734 3.68912 0
M  V30 17972 C 1702.12 -3.88582 2.0662 0
M  V30 17973 H 1699.24 -0.57135 0.465541 0
M  V30 17974 H 1701.89 -0.939271 1.6516 0
M  V30 17975 H 1700.04 -3.41182 1.85815 0
M  V30 17976 H 1701.71 -2.09365 4.11052 0
M  V30 17977 H 1699.95 -1.90674 3.89648 0
M  V30 17978 H 1700.62 -3.49702 4.27098 0
M  V30 17979 H 1703.1 -3.43726 2.34503 0
M  V30 17980 H 1701.97 -4.7697 2.71644 0
M  V30 17981 H 1702.23 -4.29564 1.04532 0
M  V30 17982 N 1701.29 -1.18689 -1.03686 0
M  V30 17983 C 1702.52 -1.01024 -1.81132 0
M  V30 17984 C 1702.94 0.436584 -1.82963 0
M  V30 17985 O 1702.3 1.31343 -1.24975 0
M  V30 17986 C 1702.35 -1.5742 -3.24424 0
M  V30 17987 O 1701.45 -0.79813 -4.04603 0
M  V30 17988 H 1700.79 -0.357623 -0.559465 0
M  V30 17989 H 1703.32 -1.57532 -1.30556 0
M  V30 17990 H 1703.33 -1.60295 -3.75193 0
M  V30 17991 H 1702.01 -2.6273 -3.22406 0
M  V30 17992 H 1700.59 -0.842 -3.6327 0
M  V30 17993 N 1702.77 1.22662 -0.989529 0
M  V30 17994 C 1703.7 2.23784 -0.495301 0
M  V30 17995 C 1704.72 1.5761 0.40779 0
M  V30 17996 O 1705.91 1.77255 0.210464 0
M  V30 17997 C 1703.01 3.37553 0.301836 0
M  V30 17998 C 1702.18 4.33312 -0.596578 0
M  V30 17999 C 1701.24 5.25991 0.148272 0
M  V30 18000 O 1700.26 5.67296 -0.46519 0
M  V30 18001 N 1701.47 5.62571 1.43158 0
M  V30 18002 H 1704.23 2.66819 -1.36483 0
M  V30 18003 H 1701.79 1.36928 -0.863853 0
M  V30 18004 H 1703.78 3.96538 0.808701 0
M  V30 18005 H 1702.35 2.93628 1.07243 0
M  V30 18006 H 1701.57 3.72697 -1.28416 0
M  V30 18007 H 1702.86 4.94239 -1.20853 0
M  V30 18008 H 1702.26 5.30979 1.95136 0
M  V30 18009 H 1700.82 6.23987 1.8837 0
M  V30 18010 N 1704.25 0.762308 1.37937 0
M  V30 18011 C 1705.67 0.440871 1.5339 0
M  V30 18012 C 1705.87 -1.04483 1.72295 0
M  V30 18013 O 1704.92 -1.83078 1.73892 0
M  V30 18014 C 1706.23 1.24772 2.73592 0
M  V30 18015 C 1707.78 1.23867 2.87447 0
M  V30 18016 C 1708.26 2.02866 4.10621 0
M  V30 18017 N 1709.75 2.00171 4.17715 0
M  V30 18018 C 1710.48 2.58086 5.12034 0
M  V30 18019 N 1709.98 3.2475 6.11972 0
M  V30 18020 N 1711.77 2.47968 5.04449 0
M  V30 18021 H 1703.92 1.72506 1.23916 0
M  V30 18022 H 1706.19 0.731791 0.602649 0
M  V30 18023 H 1705.89 2.30016 2.66056 0
M  V30 18024 H 1705.77 0.870485 3.67018 0
M  V30 18025 H 1708.15 0.194255 2.9446 0
M  V30 18026 H 1708.23 1.65548 1.95007 0
M  V30 18027 H 1707.88 3.07323 4.04369 0
M  V30 18028 H 1707.81 1.58574 5.02157 0
M  V30 18029 H 1710.3 1.5163 3.46146 0
M  V30 18030 H 1710.61 3.66339 6.80453 0
M  V30 18031 H 1708.96 3.28846 6.12279 0
M  V30 18032 H 1712.15 1.95509 4.25316 0
M  V30 18033 H 1712.32 2.93398 5.77773 0
M  V30 18034 N 1705.73 -1.49049 0.51208 0
M  V30 18035 C 1706.97 -2.0278 -0.0285311 0
M  V30 18036 C 1707.31 -1.39003 -1.35617 0
M  V30 18037 O 1706.58 -0.52952 -1.87153 0
M  V30 18038 C 1706.86 -3.59701 -0.169433 0
M  V30 18039 C 1706.72 -4.33989 1.18211 0
M  V30 18040 C 1708.04 -4.30698 -0.904812 0
M  V30 18041 H 1705.16 -0.736946 -0.00889467 0
M  V30 18042 H 1707.8 -1.77959 0.66564 0
M  V30 18043 H 1705.95 -3.8098 -0.760667 0
M  V30 18044 H 1707.62 -4.24176 1.81307 0
M  V30 18045 H 1705.86 -3.9611 1.76859 0
M  V30 18046 H 1706.53 -5.42177 1.03671 0
M  V30 18047 H 1709.01 -4.14141 -0.40327 0
M  V30 18048 H 1707.89 -5.40221 -0.972264 0
M  V30 18049 H 1708.15 -3.96718 -1.95108 0
M  V30 18050 N 1707.21 -0.246397 -1.55662 0
M  V30 18051 C 1708.62 0.256853 -1.84925 0
M  V30 18052 C 1708.97 1.5763 -1.16821 0
M  V30 18053 O 1708.09 2.11745 -0.446415 0
M  V30 18054 C 1708.69 0.472815 -3.35485 0
M  V30 18055 C 1707.25 0.92033 -3.64975 0
M  V30 18056 C 1706.39 -0.00273772 -2.773 0
M  V30 18057 H 1709.34 -0.468971 -1.51612 0
M  V30 18058 H 1709.37 1.31549 -3.57037 0
M  V30 18059 H 1708.88 -0.487664 -3.85024 0
M  V30 18060 H 1706.98 1.89329 -3.20913 0
M  V30 18061 H 1707.09 0.77754 -4.72748 0
M  V30 18062 H 1705.46 0.508539 -2.49572 0
M  V30 18063 H 1706.24 -0.958581 -3.29645 0
M  V30 18064 N 1708.68 1.57577 0.026722 0
M  V30 18065 C 1709.65 2.05684 1.01127 0
M  V30 18066 C 1710.65 0.961373 1.28896 0
M  V30 18067 O 1711.84 1.22491 1.23861 0
M  V30 18068 C 1708.97 2.47576 2.34348 0
M  V30 18069 H 1710.16 2.93925 0.595681 0
M  V30 18070 H 1707.71 1.53887 0.273603 0
M  V30 18071 H 1708.45 1.62498 2.80651 0
M  V30 18072 H 1708.23 3.27556 2.15521 0
M  V30 18073 H 1709.72 2.85214 3.05029 0
M  V30 18074 N 1710.16 -0.299034 1.54737 0
M  V30 18075 C 1711.41 -1.03195 1.73767 0
M  V30 18076 C 1711.73 -1.87731 0.527445 0
M  V30 18077 O 1711 -1.90465 -0.458242 0
M  V30 18078 H 1709.58 -0.383996 0.640747 0
M  V30 18079 H 1712.24 -0.329544 1.92094 0
M  V30 18080 H 1711.34 -1.68393 2.62774 0
M  V30 18081 N 1711.64 -1.47227 -0.562322 0
M  V30 18082 C 1712.57 -1.53865 -1.68526 0
M  V30 18083 C 1713.55 -0.391166 -1.57825 0
M  V30 18084 O 1714.73 -0.598238 -1.78755 0
M  V30 18085 C 1711.86 -1.43638 -3.06734 0
M  V30 18086 C 1710.91 -2.62824 -3.35895 0
M  V30 18087 S 1711.74 -4.25054 -3.25714 0
M  V30 18088 C 1712.9 -4.17372 -4.66424 0
M  V30 18089 H 1713.13 -2.48869 -1.6264 0
M  V30 18090 H 1710.66 -1.35362 -0.74273 0
M  V30 18091 H 1712.62 -1.38425 -3.86457 0
M  V30 18092 H 1711.28 -0.500271 -3.1009 0
M  V30 18093 H 1710.47 -2.51718 -4.3664 0
M  V30 18094 H 1710.08 -2.65133 -2.63782 0
M  V30 18095 H 1712.37 -3.8531 -5.57263 0
M  V30 18096 H 1713.31 -5.18184 -4.82587 0
M  V30 18097 H 1713.72 -3.48309 -4.44231 0
M  V30 18098 N 1713.12 0.808639 -1.35273 0
M  V30 18099 C 1714.35 1.59701 -1.31541 0
M  V30 18100 C 1714.76 1.88493 0.107541 0
M  V30 18101 O 1714.12 1.4864 1.05889 0
M  V30 18102 C 1714.17 2.9295 -2.11808 0
M  V30 18103 O 1713.89 2.65407 -3.48555 0
M  V30 18104 C 1715.39 3.87318 -2.15638 0
M  V30 18105 H 1712.61 0.495961 -0.451956 0
M  V30 18106 H 1715.15 1.00507 -1.78097 0
M  V30 18107 H 1713.31 3.48663 -1.68858 0
M  V30 18108 H 1713.72 3.50471 -3.90218 0
M  V30 18109 H 1715.2 4.77933 -2.76196 0
M  V30 18110 H 1715.67 4.23752 -1.15458 0
M  V30 18111 H 1716.28 3.3754 -2.58741 0
M  V30 18112 N 1714.6 1.19237 1.03055 0
M  V30 18113 C 1715.53 0.871947 2.10885 0
M  V30 18114 C 1716.51 -0.170311 1.61706 0
M  V30 18115 O 1717.69 -0.0469972 1.88441 0
M  V30 18116 C 1714.82 0.304639 3.37327 0
M  V30 18117 C 1713.86 1.32569 4.05374 0
M  V30 18118 S 1714.7 2.88551 4.51108 0
M  V30 18119 C 1715.85 2.33359 5.8077 0
M  V30 18120 H 1716.09 1.78514 2.37739 0
M  V30 18121 H 1713.62 1.01933 1.1597 0
M  V30 18122 H 1715.58 -0.0161522 4.10497 0
M  V30 18123 H 1714.24 -0.586834 3.08569 0
M  V30 18124 H 1713.43 0.877829 4.96296 0
M  V30 18125 H 1713.03 1.59323 3.38367 0
M  V30 18126 H 1715.33 1.7225 6.55238 0
M  V30 18127 H 1716.27 3.22622 6.30334 0
M  V30 18128 H 1716.68 1.75999 5.36362 0
M  V30 18129 N 1716.07 -1.22136 0.99602 0
M  V30 18130 C 1717.01 -2.22793 0.493816 0
M  V30 18131 C 1717.99 -1.56318 -0.447601 0
M  V30 18132 O 1719.17 -1.84784 -0.372419 0
M  V30 18133 C 1716.3 -3.37509 -0.283763 0
M  V30 18134 C 1715.34 -4.222 0.60411 0
M  V30 18135 S 1716.18 -4.9424 2.06125 0
M  V30 18136 C 1717.33 -6.12394 1.29325 0
M  V30 18137 H 1717.56 -2.65047 1.34675 0
M  V30 18138 H 1715.1 -1.31862 0.803237 0
M  V30 18139 H 1717.06 -4.04023 -0.726346 0
M  V30 18140 H 1715.72 -2.93757 -1.11201 0
M  V30 18141 H 1714.91 -5.04 0.00565269 0
M  V30 18142 H 1714.51 -3.60835 0.983588 0
M  V30 18143 H 1716.8 -6.75161 0.5625 0
M  V30 18144 H 1717.75 -6.76657 2.08664 0
M  V30 18145 H 1718.15 -5.58728 0.805166 0
M  V30 18146 N 1717.55 -0.769612 -1.37531 0
M  V30 18147 C 1718.78 -0.343783 -2.0372 0
M  V30 18148 C 1719.19 1.03816 -1.58173 0
M  V30 18149 O 1718.53 1.6736 -0.75739 0
M  V30 18150 C 1718.6 -0.305844 -3.58197 0
M  V30 18151 C 1718.26 -1.63202 -4.26866 0
M  V30 18152 C 1719.26 -2.58408 -4.51133 0
M  V30 18153 C 1716.94 -1.90587 -4.64739 0
M  V30 18154 C 1718.94 -3.79208 -5.12328 0
M  V30 18155 C 1716.62 -3.11657 -5.25655 0
M  V30 18156 C 1717.62 -4.05788 -5.49386 0
M  V30 18157 O 1717.31 -5.24727 -6.09029 0
M  V30 18158 H 1717.04 -0.142358 -0.66084 0
M  V30 18159 H 1719.59 -1.04399 -1.7689 0
M  V30 18160 H 1717.82 0.450724 -3.84064 0
M  V30 18161 H 1719.51 0.0926269 -4.05794 0
M  V30 18162 H 1720.28 -2.38532 -4.22288 0
M  V30 18163 H 1716.16 -1.18148 -4.45603 0
M  V30 18164 H 1719.7 -4.52694 -5.30767 0
M  V30 18165 H 1715.6 -3.3142 -5.53924 0
M  V30 18166 H 1716.37 -5.25523 -6.27509 0
M  V30 18167 N 1719.03 1.48775 -0.519977 0
M  V30 18168 C 1719.98 2.26421 0.267886 0
M  V30 18169 C 1720.96 1.32087 0.918795 0
M  V30 18170 O 1722.16 1.56689 0.823256 0
M  V30 18171 C 1719.29 3.16896 1.3203 0
M  V30 18172 C 1718.37 4.18699 0.674688 0
M  V30 18173 N 1718.76 5.05259 -0.233769 0
M  V30 18174 C 1717.06 4.3613 0.933071 0
M  V30 18175 C 1717.76 5.78543 -0.605233 0
M  V30 18176 N 1716.74 5.43591 0.0313426 0
M  V30 18177 H 1720.54 2.9072 -0.43116 0
M  V30 18178 H 1718.05 1.58858 -0.337322 0
M  V30 18179 H 1720.05 3.71171 1.89836 0
M  V30 18180 H 1718.71 2.5415 2.02083 0
M  V30 18181 H 1719.72 5.14345 -0.605766 0
M  V30 18182 H 1716.4 3.84581 1.62492 0
M  V30 18183 H 1717.79 6.58207 -1.34957 0
M  V30 18184 N 1720.51 0.254649 1.55529 0
M  V30 18185 C 1721.47 -0.62836 2.20418 0
M  V30 18186 C 1722.47 -1.09691 1.17578 0
M  V30 18187 O 1723.66 -1.00037 1.42612 0
M  V30 18188 C 1720.79 -1.86453 2.85391 0
M  V30 18189 H 1721.99 -0.0621032 2.99836 0
M  V30 18190 H 1719.54 0.00514311 1.56299 0
M  V30 18191 H 1720.27 -2.47182 2.09932 0
M  V30 18192 H 1720.06 -1.53669 3.60733 0
M  V30 18193 H 1721.55 -2.49291 3.35028 0
M  V30 18194 N 1721.99 -1.57589 -0.0183649 0
M  V30 18195 C 1722.92 -2.04071 -1.04343 0
M  V30 18196 C 1723.93 -0.955366 -1.3182 0
M  V30 18197 O 1725.12 -1.23249 -1.29119 0
M  V30 18198 C 1722.22 -2.41011 -2.38258 0
M  V30 18199 C 1721.39 -3.72057 -2.29984 0
M  V30 18200 C 1720.45 -3.96067 -3.46435 0
M  V30 18201 O 1719.48 -4.66982 -3.25447 0
M  V30 18202 N 1720.68 -3.42535 -4.68669 0
M  V30 18203 H 1723.45 -2.92629 -0.647168 0
M  V30 18204 H 1721.01 -1.60583 -0.20611 0
M  V30 18205 H 1723 -2.54203 -3.14902 0
M  V30 18206 H 1721.57 -1.58068 -2.69691 0
M  V30 18207 H 1720.79 -3.69117 -1.38369 0
M  V30 18208 H 1722.08 -4.58003 -2.2161 0
M  V30 18209 H 1721.47 -2.85073 -4.8862 0
M  V30 18210 H 1720.03 -3.61087 -5.42641 0
M  V30 18211 N 1723.46 0.290824 -1.54893 0
M  V30 18212 C 1724.37 1.38137 -1.89619 0
M  V30 18213 C 1725.39 1.54959 -0.791432 0
M  V30 18214 O 1726.57 1.69428 -1.08885 0
M  V30 18215 C 1723.63 2.72353 -2.14534 0
M  V30 18216 C 1722.69 2.64429 -3.38195 0
M  V30 18217 C 1721.93 3.92244 -3.61912 0
M  V30 18218 O 1722.15 4.92088 -2.88454 0
M  V30 18219 O 1721.08 3.93523 -4.55438 0
M  V30 18220 H 1724.91 1.11688 -2.82417 0
M  V30 18221 H 1722.49 0.487789 -1.41213 0
M  V30 18222 H 1724.38 3.51745 -2.32064 0
M  V30 18223 H 1723.05 2.98624 -1.24921 0
M  V30 18224 H 1721.96 1.83474 -3.26018 0
M  V30 18225 H 1723.29 2.43109 -4.2797 0
M  V30 18226 N 1724.94 1.47523 0.554506 0
M  V30 18227 C 1726.36 1.33101 0.880699 0
M  V30 18228 C 1726.56 0.323524 1.98886 0
M  V30 18229 O 1725.61 -0.263996 2.51116 0
M  V30 18230 C 1726.93 2.725 1.27138 0
M  V30 18231 C 1728.48 2.80805 1.38266 0
M  V30 18232 C 1728.95 4.20851 1.80688 0
M  V30 18233 N 1730.44 4.23406 1.87834 0
M  V30 18234 C 1731.18 5.28684 2.21993 0
M  V30 18235 N 1730.67 6.44264 2.54746 0
M  V30 18236 N 1732.47 5.16063 2.2279 0
M  V30 18237 H 1724.62 2.11661 -0.177062 0
M  V30 18238 H 1726.88 0.947856 -0.0165508 0
M  V30 18239 H 1726.59 3.47669 0.53093 0
M  V30 18240 H 1726.46 3.04445 2.22695 0
M  V30 18241 H 1728.85 2.05907 2.11391 0
M  V30 18242 H 1728.93 2.52511 0.408901 0
M  V30 18243 H 1728.57 4.96256 1.08131 0
M  V30 18244 H 1728.5 4.46572 2.79071 0
M  V30 18245 H 1730.99 3.40025 1.64897 0
M  V30 18246 H 1731.31 7.20351 2.79846 0
M  V30 18247 H 1729.65 6.4758 2.52321 0
M  V30 18248 H 1732.84 4.24793 1.96642 0
M  V30 18249 H 1733.01 5.98216 2.49081 0
M  V30 18250 N 1726.42 -0.801453 1.357 0
M  V30 18251 C 1727.67 -1.55392 1.28594 0
M  V30 18252 C 1727.98 -1.95125 -0.136199 0
M  V30 18253 O 1729.19 -2.69492 -0.329568 0
M  V30 18254 C 1727.64 -2.80456 2.2555 0
M  V30 18255 C 1727.25 -2.47939 3.73135 0
M  V30 18256 C 1729 -3.58457 2.27396 0
M  V30 18257 C 1726.9 -3.69326 4.61901 0
M  V30 18258 H 1725.83 -0.583286 0.477801 0
M  V30 18259 H 1728.48 -0.880525 1.60994 0
M  V30 18260 H 1726.87 -3.49532 1.86127 0
M  V30 18261 H 1728.04 -1.86837 4.21223 0
M  V30 18262 H 1726.36 -1.83173 3.73947 0
M  V30 18263 H 1728.95 -4.48625 2.90929 0
M  V30 18264 H 1729.3 -3.96162 1.27912 0
M  V30 18265 H 1729.83 -2.96348 2.65373 0
M  V30 18266 H 1726.57 -3.36726 5.62402 0
M  V30 18267 H 1726.09 -4.29636 4.18536 0
M  V30 18268 H 1727.77 -4.36496 4.77578 0
M  V30 18269 N 1727.9 -1.19782 -1.02421 0
M  V30 18270 C 1729.14 -1.0048 -1.76158 0
M  V30 18271 C 1729.48 0.46281 -1.88605 0
M  V30 18272 O 1728.75 1.34366 -1.40628 0
M  V30 18273 C 1729.04 -1.67999 -3.1851 0
M  V30 18274 C 1728.89 -3.22155 -3.13905 0
M  V30 18275 C 1730.21 -1.40681 -4.17009 0
M  V30 18276 H 1727.33 -0.366436 -0.639448 0
M  V30 18277 H 1729.97 -1.47688 -1.19534 0
M  V30 18278 H 1728.12 -1.27862 -3.66856 0
M  V30 18279 H 1729.79 -3.71536 -2.7342 0
M  V30 18280 H 1728.03 -3.53456 -2.51498 0
M  V30 18281 H 1728.7 -3.64548 -4.14498 0
M  V30 18282 H 1731.18 -1.75488 -3.77284 0
M  V30 18283 H 1730.06 -1.90467 -5.14795 0
M  V30 18284 H 1730.32 -0.332889 -4.40845 0
M  V30 18285 N 1729.38 1.21606 -1.00248 0
M  V30 18286 C 1730.33 2.2591 -0.553856 0
M  V30 18287 C 1731.32 1.64602 0.400323 0
M  V30 18288 O 1732.53 1.77936 0.271792 0
M  V30 18289 H 1728.9 0.734618 -0.160749 0
M  V30 18290 H 1730.87 2.61091 -1.44479 0
M  V30 18291 C 1729.62 3.47537 0.106293 0
M  V30 18292 H 1728.94 3.94981 -0.61889 0
M  V30 18293 H 1730.38 4.22262 0.383514 0
M  V30 18294 C 1728.84 3.08901 1.34469 0
M  V30 18295 O 1729.37 3.1916 2.43926 0
M  V30 18296 N 1727.58 2.63588 1.2235 0
M  V30 18297 H 1727.13 2.55441 0.332852 0
M  V30 18298 H 1727.08 2.38106 2.05312 0
M  V30 18299 N 1730.86 0.776895 1.37121 0
M  V30 18300 C 1731.79 0.180738 2.32799 0
M  V30 18301 C 1732.77 -0.677284 1.56035 0
M  V30 18302 O 1733.95 -0.613687 1.84249 0
M  V30 18303 C 1731.08 -0.695148 3.40272 0
M  V30 18304 C 1730.04 0.0619772 4.27955 0
M  V30 18305 C 1729.36 -0.933688 5.26485 0
M  V30 18306 C 1730.66 1.24396 5.0727 0
M  V30 18307 H 1732.36 0.980039 2.82906 0
M  V30 18308 H 1729.9 0.472722 1.3602 0
M  V30 18309 H 1731.85 -1.12205 4.06187 0
M  V30 18310 H 1730.58 -1.52702 2.88703 0
M  V30 18311 H 1729.24 0.469717 3.63578 0
M  V30 18312 H 1728.89 -1.76025 4.71194 0
M  V30 18313 H 1728.59 -0.431608 5.86013 0
M  V30 18314 H 1730.11 -1.35942 5.95275 0
M  V30 18315 H 1731.52 0.89345 5.66295 0
M  V30 18316 H 1729.92 1.67848 5.76149 0
M  V30 18317 H 1730.99 2.04553 4.39643 0
M  V30 18318 N 1732.33 -1.48497 0.527859 0
M  V30 18319 C 1733.74 -1.86498 0.0868541 0
M  V30 18320 C 1734.1 -1.43763 -1.33517 0
M  V30 18321 O 1733.22 -0.827397 -1.99958 0
M  V30 18322 C 1733.82 -3.38464 0.150843 0
M  V30 18323 C 1732.37 -3.75666 -0.234956 0
M  V30 18324 C 1731.52 -2.72541 0.511549 0
M  V30 18325 H 1734.47 -1.40432 0.739223 0
M  V30 18326 H 1734.49 -3.75114 -0.637972 0
M  V30 18327 H 1734.01 -3.69537 1.18592 0
M  V30 18328 H 1732.11 -3.50206 -1.27225 0
M  V30 18329 H 1732.22 -4.78989 0.103178 0
M  V30 18330 H 1730.58 -2.54665 -0.0419281 0
M  V30 18331 H 1731.37 -3.06457 1.54722 0
M  V30 18332 N 1733.81 -0.262893 -1.55392 0
M  V30 18333 C 1735.06 0.35666 -1.98928 0
M  V30 18334 C 1735.38 1.5729 -1.1526 0
M  V30 18335 O 1734.65 1.94435 -0.239164 0
M  V30 18336 H 1733.23 0.134768 -0.734742 0
M  V30 18337 H 1735.89 -0.365394 -1.91444 0
M  V30 18338 H 1734.99 0.654895 -3.05152 0
M  V30 18339 N 1735.29 1.57597 0.0100073 0
M  V30 18340 C 1736.51 1.94801 0.711852 0
M  V30 18341 C 1736.94 0.864343 1.67065 0
M  V30 18342 O 1736.3 -0.178388 1.8042 0
M  V30 18343 C 1736.35 3.31094 1.42862 0
M  V30 18344 O 1735.45 3.2469 2.54264 0
M  V30 18345 H 1734.79 0.636207 0.190095 0
M  V30 18346 H 1737.32 2.04561 -0.0402016 0
M  V30 18347 H 1737.33 3.66428 1.79429 0
M  V30 18348 H 1736.01 4.09522 0.725549 0
M  V30 18349 H 1734.58 3.01017 2.20099 0
M  V30 18350 N 1736.77 -0.282606 1.55045 0
M  V30 18351 C 1737.68 -1.37129 1.90349 0
M  V30 18352 C 1738.69 -1.54537 0.799639 0
M  V30 18353 O 1739.87 -1.68849 1.09782 0
M  V30 18354 C 1736.93 -2.71211 2.15975 0
M  V30 18355 C 1736 -2.62632 3.39592 0
M  V30 18356 C 1735.23 -3.90319 3.63987 0
M  V30 18357 O 1735.45 -4.90551 2.9106 0
M  V30 18358 O 1734.39 -3.91102 4.57518 0
M  V30 18359 H 1738.21 -1.10189 2.83006 0
M  V30 18360 H 1735.8 -0.480293 1.41469 0
M  V30 18361 H 1737.68 -3.50509 2.33926 0
M  V30 18362 H 1736.35 -2.97958 1.26503 0
M  V30 18363 H 1735.26 -1.81743 3.26987 0
M  V30 18364 H 1736.59 -2.40836 4.29254 0
M  V30 18365 N 1738.25 -1.47815 -0.546675 0
M  V30 18366 C 1739.49 -1.54238 -1.29975 0
M  V30 18367 C 1739.81 -0.213869 -1.94427 0
M  V30 18368 O 1741.01 -0.156187 -2.7105 0
M  V30 18369 C 1739.47 -2.71938 -2.35749 0
M  V30 18370 C 1739.08 -4.11362 -1.77441 0
M  V30 18371 C 1740.82 -2.87661 -3.12172 0
M  V30 18372 C 1738.73 -5.20347 -2.81057 0
M  V30 18373 H 1737.66 -0.574139 -0.488754 0
M  V30 18374 H 1740.31 -1.74113 -0.579384 0
M  V30 18375 H 1738.69 -2.45463 -3.10747 0
M  V30 18376 H 1739.87 -4.47785 -1.08744 0
M  V30 18377 H 1738.18 -4.00614 -1.13568 0
M  V30 18378 H 1740.78 -3.66252 -3.89568 0
M  V30 18379 H 1741.12 -1.96494 -3.67009 0
M  V30 18380 H 1741.65 -3.13957 -2.44286 0
M  V30 18381 H 1738.39 -6.13426 -2.31061 0
M  V30 18382 H 1737.91 -4.8843 -3.48132 0
M  V30 18383 H 1739.59 -5.47748 -3.44355 0
M  V30 18384 N 1739.72 0.794246 -1.36123 0
M  V30 18385 C 1740.95 1.58297 -1.33228 0
M  V30 18386 C 1741.37 1.88597 0.0875426 0
M  V30 18387 O 1740.72 1.49754 1.04307 0
M  V30 18388 C 1740.77 2.90687 -2.14904 0
M  V30 18389 O 1740.5 2.61695 -3.51351 0
M  V30 18390 C 1742 3.85009 -2.19734 0
M  V30 18391 H 1739.22 0.491139 -0.457191 0
M  V30 18392 H 1741.76 0.986129 -1.79153 0
M  V30 18393 H 1739.92 3.46852 -1.72546 0
M  V30 18394 H 1740.33 3.46313 -3.93913 0
M  V30 18395 H 1741.8 4.74976 -2.8125 0
M  V30 18396 H 1742.28 4.22504 -1.19946 0
M  V30 18397 H 1742.89 3.34777 -2.62307 0
M  V30 18398 N 1741.2 1.20323 1.01785 0
M  V30 18399 C 1742.13 0.908716 2.10416 0
M  V30 18400 C 1743.15 -0.103029 1.62474 0
M  V30 18401 O 1744.34 0.127825 1.78042 0
M  V30 18402 C 1741.44 0.340601 3.37184 0
M  V30 18403 C 1740.61 1.40358 4.14268 0
M  V30 18404 C 1739.67 0.847016 5.19338 0
M  V30 18405 O 1738.69 1.5274 5.48324 0
M  V30 18406 N 1739.9 -0.344198 5.79479 0
M  V30 18407 H 1742.66 1.84383 2.36269 0
M  V30 18408 H 1740.22 1.10673 1.18165 0
M  V30 18409 H 1742.21 -0.0458443 4.04674 0
M  V30 18410 H 1740.78 -0.499042 3.08591 0
M  V30 18411 H 1740 1.96442 3.41766 0
M  V30 18412 H 1741.29 2.11952 4.62551 0
M  V30 18413 H 1740.69 -0.914263 5.58263 0
M  V30 18414 H 1739.25 -0.672296 6.48324 0
M  V30 18415 N 1742.68 -1.21073 1.00892 0
M  V30 18416 C 1743.61 -2.22968 0.530841 0
M  V30 18417 C 1744.62 -1.58239 -0.382664 0
M  V30 18418 O 1745.81 -1.77567 -0.182237 0
M  V30 18419 C 1742.91 -3.37991 -0.248096 0
M  V30 18420 C 1742.09 -4.32309 0.665439 0
M  V30 18421 C 1741.15 -5.2616 -0.0645731 0
M  V30 18422 O 1740.17 -5.66484 0.555383 0
M  V30 18423 N 1741.37 -5.64777 -1.3419 0
M  V30 18424 H 1744.14 -2.64614 1.4071 0
M  V30 18425 H 1741.7 -1.35536 0.885528 0
M  V30 18426 H 1743.69 -3.97774 -0.745513 0
M  V30 18427 H 1742.26 -2.95297 -1.02558 0
M  V30 18428 H 1741.48 -3.70607 1.34329 0
M  V30 18429 H 1742.77 -4.92254 1.28701 0
M  V30 18430 H 1742.17 -5.34016 -1.86664 0
M  V30 18431 H 1740.72 -6.26905 -1.78419 0
M  V30 18432 N 1744.16 -0.784156 -1.36707 0
M  V30 18433 C 1745.57 -0.465219 -1.52669 0
M  V30 18434 C 1745.77 1.01729 -1.73935 0
M  V30 18435 O 1744.83 1.80289 -1.76783 0
M  V30 18436 C 1746.14 -1.29109 -2.71572 0
M  V30 18437 C 1747.69 -1.28424 -2.8544 0
M  V30 18438 C 1748.17 -2.09373 -4.07341 0
M  V30 18439 N 1749.66 -2.06792 -4.14477 0
M  V30 18440 C 1750.39 -2.66199 -5.07864 0
M  V30 18441 N 1749.89 -3.34445 -6.06728 0
M  V30 18442 N 1751.68 -2.55962 -5.0044 0
M  V30 18443 H 1743.83 -1.74456 -1.21156 0
M  V30 18444 H 1746.1 -0.741286 -0.59093 0
M  V30 18445 H 1745.8 -2.34219 -2.62363 0
M  V30 18446 H 1745.68 -0.928764 -3.65587 0
M  V30 18447 H 1748.06 -0.241077 -2.94114 0
M  V30 18448 H 1748.14 -1.68629 -1.92348 0
M  V30 18449 H 1747.79 -3.13718 -3.99429 0
M  V30 18450 H 1747.72 -1.66542 -4.99571 0
M  V30 18451 H 1750.21 -1.57118 -3.43689 0
M  V30 18452 H 1750.52 -3.77118 -6.74538 0
M  V30 18453 H 1748.87 -3.38546 -6.06969 0
M  V30 18454 H 1752.06 -2.02251 -4.22152 0
M  V30 18455 H 1752.23 -3.02553 -5.73032 0
M  V30 18456 N 1745.64 1.48215 -0.535727 0
M  V30 18457 C 1746.88 2.021 -0.00372016 0
M  V30 18458 C 1747.21 1.41456 1.34221 0
M  V30 18459 O 1746.48 0.581987 1.87055 0
M  V30 18460 H 1745.06 0.746998 0.00161295 0
M  V30 18461 H 1747.72 1.81862 -0.700863 0
M  V30 18462 H 1746.81 3.11939 0.100352 0
M  V30 18463 N 1747.11 0.27113 1.5525 0
M  V30 18464 C 1748.36 -0.346106 1.99114 0
M  V30 18465 C 1748.68 -1.56677 1.16092 0
M  V30 18466 O 1747.95 -1.94305 0.249472 0
M  V30 18467 H 1746.53 -0.13087 0.735447 0
M  V30 18468 H 1749.2 0.375542 1.91248 0
M  V30 18469 H 1748.29 -0.638703 3.05495 0
M  V30 18470 N 1748.59 -1.576 -0.00164943 0
M  V30 18471 C 1749.84 -1.89675 -0.686026 0
M  V30 18472 C 1750.15 -0.873179 -1.75028 0
M  V30 18473 O 1751.36 -1.08409 -2.48917 0
M  V30 18474 C 1749.82 -3.36696 -1.27136 0
M  V30 18475 C 1749.42 -4.47346 -0.242011 0
M  V30 18476 C 1751.17 -3.77883 -1.93402 0
M  V30 18477 C 1749.08 -5.85444 -0.837241 0
M  V30 18478 H 1748.01 -0.707756 -0.259994 0
M  V30 18479 H 1750.66 -1.83406 0.0586245 0
M  V30 18480 H 1749.04 -3.37797 -2.06662 0
M  V30 18481 H 1750.21 -4.57759 0.528539 0
M  V30 18482 H 1748.53 -4.15168 0.320118 0
M  V30 18483 H 1751.12 -4.78394 -2.38838 0
M  V30 18484 H 1751.47 -3.11311 -2.76389 0
M  V30 18485 H 1752 -3.79075 -1.20612 0
M  V30 18486 H 1748.74 -6.55484 -0.04619 0
M  V30 18487 H 1748.26 -5.78698 -1.57699 0
M  V30 18488 H 1749.94 -6.33048 -1.33637 0
M  V30 18489 N 1750.07 0.274379 -1.55193 0
M  V30 18490 C 1751.02 1.34139 -1.84366 0
M  V30 18491 C 1752 1.44755 -0.702475 0
M  V30 18492 O 1753.2 1.48459 -0.963785 0
M  V30 18493 C 1750.33 2.7019 -2.11784 0
M  V30 18494 C 1749.41 2.63689 -3.32158 0
M  V30 18495 N 1749.8 2.26808 -4.52097 0
M  V30 18496 C 1748.1 2.94752 -3.34719 0
M  V30 18497 C 1748.8 2.30264 -5.34185 0
M  V30 18498 N 1747.78 2.68683 -4.72557 0
M  V30 18499 H 1751.58 1.0463 -2.74645 0
M  V30 18500 H 1749.09 0.483012 -1.55051 0
M  V30 18501 H 1751.09 3.47158 -2.30839 0
M  V30 18502 H 1749.75 3.00588 -1.22788 0
M  V30 18503 H 1750.76 1.98809 -4.78221 0
M  V30 18504 H 1747.44 3.29871 -2.55912 0
M  V30 18505 H 1748.83 2.04323 -6.4008 0
M  V30 18506 N 1751.55 1.48103 0.538828 0
M  V30 18507 C 1752.5 1.62398 1.66522 0
M  V30 18508 C 1753.49 0.490669 1.62138 0
M  V30 18509 O 1754.7 0.669098 1.67102 0
M  V30 18510 H 1751.07 0.511415 0.551324 0
M  V30 18511 H 1753.04 2.57018 1.51606 0
M  V30 18512 C 1751.79 1.67264 3.04824 0
M  V30 18513 H 1751.11 2.53828 3.08887 0
M  V30 18514 H 1752.55 1.81312 3.83278 0
M  V30 18515 C 1751.01 0.409539 3.34402 0
M  V30 18516 O 1751.54 -0.481433 3.98805 0
M  V30 18517 N 1749.75 0.283934 2.8921 0
M  V30 18518 H 1749.3 1.00993 2.36977 0
M  V30 18519 H 1749.25 -0.560201 3.09369 0
M  V30 18520 N 1753.03 -0.787016 1.36542 0
M  V30 18521 C 1754.25 -1.58103 1.34231 0
M  V30 18522 C 1754.68 -1.87956 -0.0734932 0
M  V30 18523 O 1754.03 -1.48073 -1.04615 0
M  V30 18524 C 1754.08 -2.87739 2.17345 0
M  V30 18525 O 1753.19 -3.81445 1.56759 0
M  V30 18526 H 1752.53 -0.479495 0.459326 0
M  V30 18527 H 1755.06 -0.975294 1.79859 0
M  V30 18528 H 1755.07 -3.36986 2.3001 0
M  V30 18529 H 1753.74 -2.65338 3.20264 0
M  V30 18530 H 1752.32 -3.40046 1.53047 0
M  V30 18531 N 1754.5 -1.20861 -1.01145 0
M  V30 18532 C 1755.75 -1.02343 -1.75082 0
M  V30 18533 C 1756.08 0.44278 -1.89085 0
M  V30 18534 O 1755.36 1.32867 -1.42045 0
M  V30 18535 C 1755.64 -1.71368 -3.1671 0
M  V30 18536 C 1755.49 -3.25466 -3.1047 0
M  V30 18537 C 1756.81 -1.45097 -4.15494 0
M  V30 18538 H 1753.93 -0.373198 -0.635525 0
M  V30 18539 H 1756.57 -1.48947 -1.17961 0
M  V30 18540 H 1754.72 -1.31746 -3.6548 0
M  V30 18541 H 1756.4 -3.74415 -2.69464 0
M  V30 18542 H 1754.64 -3.56104 -2.47735 0
M  V30 18543 H 1755.31 -3.68924 -4.10608 0
M  V30 18544 H 1757.79 -1.7948 -3.75401 0
M  V30 18545 H 1756.66 -1.95917 -5.12745 0
M  V30 18546 H 1756.92 -0.379628 -4.40467 0
M  V30 18547 N 1755.98 1.20536 -1.01532 0
M  V30 18548 C 1757.21 1.93853 -0.723104 0
M  V30 18549 C 1757.63 1.74697 0.715994 0
M  V30 18550 O 1756.98 1.06013 1.48551 0
M  V30 18551 C 1757.03 3.45986 -1.04767 0
M  V30 18552 O 1756.75 3.64514 -2.43025 0
M  V30 18553 C 1758.26 4.36449 -0.776323 0
M  V30 18554 H 1755.48 0.616179 -0.265639 0
M  V30 18555 H 1758.02 1.53064 -1.35616 0
M  V30 18556 H 1756.17 3.84659 -0.460039 0
M  V30 18557 H 1756.59 4.58513 -2.54689 0
M  V30 18558 H 1758.06 5.41853 -1.05351 0
M  V30 18559 H 1758.54 4.38245 0.289524 0
M  V30 18560 H 1759.15 4.03437 -1.34605 0
M  V30 18561 N 1757.46 0.791395 1.36289 0
M  V30 18562 C 1758.88 0.473308 1.5242 0
M  V30 18563 C 1759.08 -1.00805 1.74473 0
M  V30 18564 O 1758.13 -1.79349 1.77737 0
M  V30 18565 C 1759.45 1.30547 2.70884 0
M  V30 18566 C 1760.99 1.29936 2.84755 0
M  V30 18567 C 1761.47 2.1153 4.06225 0
M  V30 18568 N 1762.96 2.08987 4.13375 0
M  V30 18569 C 1763.69 2.68889 5.06445 0
M  V30 18570 N 1763.19 3.37657 6.04946 0
M  V30 18571 N 1764.98 2.58612 4.99075 0
M  V30 18572 H 1757.13 1.75096 1.20229 0
M  V30 18573 H 1759.4 0.74441 0.586991 0
M  V30 18574 H 1759.1 2.35607 2.61117 0
M  V30 18575 H 1758.98 0.948139 3.65089 0
M  V30 18576 H 1761.36 0.256671 2.93982 0
M  V30 18577 H 1761.45 1.69647 1.91451 0
M  V30 18578 H 1761.09 3.15832 3.9776 0
M  V30 18579 H 1761.02 1.69189 4.98681 0
M  V30 18580 H 1763.51 1.58938 3.42851 0
M  V30 18581 H 1763.82 3.8069 6.72529 0
M  V30 18582 H 1762.17 3.4176 6.05165 0
M  V30 18583 H 1765.36 2.04487 4.21073 0
M  V30 18584 H 1765.53 3.05587 5.7142 0
M  V30 18585 N 1758.94 -1.47929 0.54358 0
M  V30 18586 C 1760.19 -2.01696 0.0123924 0
M  V30 18587 C 1760.5 -1.42469 -1.34022 0
M  V30 18588 O 1761.71 -1.87816 -1.96054 0
M  V30 18589 C 1760.16 -3.59889 -0.0282734 0
M  V30 18590 C 1759.77 -4.28104 1.32027 0
M  V30 18591 C 1761.52 -4.21455 -0.507571 0
M  V30 18592 C 1759.42 -5.78266 1.23945 0
M  V30 18593 H 1758.35 -0.754 0.000862593 0
M  V30 18594 H 1761 -1.70058 0.689396 0
M  V30 18595 H 1759.39 -3.88429 -0.770641 0
M  V30 18596 H 1760.56 -4.11221 2.07927 0
M  V30 18597 H 1758.87 -3.78468 1.7364 0
M  V30 18598 H 1761.47 -5.31477 -0.586219 0
M  V30 18599 H 1761.81 -3.87696 -1.51648 0
M  V30 18600 H 1762.35 -3.97395 0.179522 0
M  V30 18601 H 1759.09 -6.16621 2.22393 0
M  V30 18602 H 1758.61 -5.97524 0.522029 0
M  V30 18603 H 1760.29 -6.40197 0.935788 0
M  V30 18604 N 1760.42 -0.27936 -1.55104 0
M  V30 18605 C 1761.65 0.339429 -2.04097 0
M  V30 18606 C 1762.06 1.49151 -1.15756 0
M  V30 18607 O 1761.42 1.81624 -0.178558 0
M  V30 18608 C 1761.47 0.816392 -3.52161 0
M  V30 18609 O 1761.19 -0.289812 -4.3714 0
M  V30 18610 C 1762.69 1.50256 -4.17059 0
M  V30 18611 H 1759.91 0.0768615 -0.666583 0
M  V30 18612 H 1762.45 -0.412691 -2.00293 0
M  V30 18613 H 1760.61 1.51859 -3.56395 0
M  V30 18614 H 1761.02 0.0776213 -5.24443 0
M  V30 18615 H 1762.5 1.78767 -5.22251 0
M  V30 18616 H 1762.97 2.4355 -3.65486 0
M  V30 18617 H 1763.58 0.844106 -4.16839 0
M  V30 18618 N 1761.9 1.57599 -0.0067085 0
M  V30 18619 C 1763.31 1.78864 0.535202 0
M  V30 18620 C 1763.66 0.914793 1.73568 0
M  V30 18621 O 1762.78 0.119075 2.16072 0
M  V30 18622 C 1763.38 3.24386 0.977709 0
M  V30 18623 C 1761.94 3.46725 1.46488 0
M  V30 18624 C 1761.08 2.74114 0.419171 0
M  V30 18625 H 1764.03 1.56982 -0.232853 0
M  V30 18626 H 1764.06 3.32867 1.84336 0
M  V30 18627 H 1763.57 3.87961 0.103778 0
M  V30 18628 H 1761.67 2.88373 2.35948 0
M  V30 18629 H 1761.78 4.55416 1.48772 0
M  V30 18630 H 1760.15 2.3893 0.882311 0
M  V30 18631 H 1760.93 3.40392 -0.445908 0
M  V30 18632 N 1763.37 -0.266145 1.55336 0
M  V30 18633 C 1764.32 -1.32914 1.88686 0
M  V30 18634 C 1765.29 -1.48752 0.739048 0
M  V30 18635 O 1766.48 -1.63048 0.990951 0
M  V30 18636 C 1763.62 -2.68317 2.17026 0
M  V30 18637 C 1762.73 -2.60644 3.44512 0
M  V30 18638 C 1761.86 -3.88271 3.62517 0
M  V30 18639 C 1760.9 -3.75137 4.83672 0
M  V30 18640 N 1760.04 -4.94614 4.98299 0
M  V30 18641 H 1764.88 -1.03774 2.79347 0
M  V30 18642 H 1762.42 -0.501205 1.38298 0
M  V30 18643 H 1764.37 -3.47107 2.31458 0
M  V30 18644 H 1763 -2.95645 1.29591 0
M  V30 18645 H 1762.06 -1.73527 3.38515 0
M  V30 18646 H 1763.37 -2.46842 4.3344 0
M  V30 18647 H 1762.52 -4.75503 3.76804 0
M  V30 18648 H 1761.26 -4.04949 2.71787 0
M  V30 18649 H 1760.27 -2.86289 4.69381 0
M  V30 18650 H 1761.49 -3.59973 5.75844 0
M  V30 18651 H 1759.44 -5.11689 4.10501 0
M  V30 18652 H 1759.35 -4.83369 5.81284 0
M  V30 18653 H 1760.62 -5.83399 5.16978 0
M  V30 18654 N 1764.85 -1.48386 -0.530967 0
M  V30 18655 C 1766.26 -1.49904 -1.11291 0
M  V30 18656 C 1766.61 -0.268276 -1.94357 0
M  V30 18657 O 1765.74 0.624676 -2.07188 0
M  V30 18658 C 1766.33 -2.71622 -2.02501 0
M  V30 18659 C 1764.89 -2.76015 -2.55916 0
M  V30 18660 C 1764.04 -2.43403 -1.32855 0
M  V30 18661 H 1766.99 -1.55517 -0.316269 0
M  V30 18662 H 1767.01 -2.50084 -2.86772 0
M  V30 18663 H 1766.52 -3.61182 -1.42017 0
M  V30 18664 H 1764.62 -1.9066 -3.20124 0
M  V30 18665 H 1764.74 -3.77416 -2.95116 0
M  V30 18666 H 1763.1 -1.94537 -1.644 0
M  V30 18667 H 1763.88 -3.35202 -0.741242 0
M  V30 18668 N 1766.33 0.779763 -1.36958 0
M  V30 18669 C 1767.56 1.56875 -1.34899 0
M  V30 18670 C 1767.97 1.88679 0.0675345 0
M  V30 18671 O 1767.33 1.50852 1.02712 0
M  V30 18672 C 1767.38 2.88391 -2.17975 0
M  V30 18673 O 1767.1 2.57954 -3.54107 0
M  V30 18674 C 1768.6 3.82657 -2.23805 0
M  V30 18675 H 1765.82 0.486262 -0.462374 0
M  V30 18676 H 1768.37 0.967072 -1.80189 0
M  V30 18677 H 1766.52 3.45003 -1.76215 0
M  V30 18678 H 1766.94 3.42115 -3.97564 0
M  V30 18679 H 1768.41 4.71967 -2.86272 0
M  V30 18680 H 1768.89 4.21208 -1.24421 0
M  V30 18681 H 1769.49 3.31976 -2.65843 0
M  V30 18682 N 1767.81 1.21396 1.00503 0
M  V30 18683 C 1768.76 0.940669 2.07691 0
M  V30 18684 C 1769.74 -0.104065 1.60563 0
M  V30 18685 O 1770.93 0.104861 1.76689 0
M  V30 18686 C 1768.06 0.507176 3.39533 0
M  V30 18687 C 1767.15 1.58598 3.93329 0
M  V30 18688 N 1767.54 2.81104 4.20493 0
M  V30 18689 C 1765.84 1.45484 4.21605 0
M  V30 18690 C 1766.54 3.50775 4.64038 0
M  V30 18691 N 1765.51 2.78214 4.67009 0
M  V30 18692 H 1769.32 1.87141 2.26617 0
M  V30 18693 H 1766.83 1.10969 1.18574 0
M  V30 18694 H 1768.83 0.292749 4.15871 0
M  V30 18695 H 1767.49 -0.416806 3.22014 0
M  V30 18696 H 1768.5 3.17647 4.09049 0
M  V30 18697 H 1765.18 0.596142 4.13222 0
M  V30 18698 H 1766.57 4.55667 4.93779 0
M  V30 18699 N 1769.29 -1.19996 1.0217 0
M  V30 18700 C 1770.22 -2.21695 0.540962 0
M  V30 18701 C 1771.2 -1.57232 -0.414343 0
M  V30 18702 O 1772.38 -1.85533 -0.33314 0
M  V30 18703 C 1769.51 -3.38035 -0.212109 0
M  V30 18704 C 1768.55 -4.20824 0.693529 0
M  V30 18705 S 1769.39 -4.89756 2.16562 0
M  V30 18706 C 1770.54 -6.09513 1.42286 0
M  V30 18707 H 1770.78 -2.62131 1.40267 0
M  V30 18708 H 1768.31 -1.30128 0.831026 0
M  V30 18709 H 1770.27 -4.05473 -0.640484 0
M  V30 18710 H 1768.93 -2.96049 -1.04945 0
M  V30 18711 H 1768.12 -5.03874 0.112557 0
M  V30 18712 H 1767.72 -3.58667 1.05991 0
M  V30 18713 H 1770.01 -6.73816 0.705585 0
M  V30 18714 H 1770.96 -6.72079 2.22969 0
M  V30 18715 H 1771.37 -5.56895 0.923499 0
M  V30 18716 N 1770.76 -0.798611 -1.35867 0
M  V30 18717 C 1772.01 -0.371795 -1.98244 0
M  V30 18718 C 1772.33 1.06474 -1.64081 0
M  V30 18719 O 1773.53 1.59428 -2.19761 0
M  V30 18720 C 1771.99 -0.613821 -3.54627 0
M  V30 18721 C 1771.6 -2.06237 -3.97706 0
M  V30 18722 C 1773.34 -0.251966 -4.23752 0
M  V30 18723 C 1771.25 -2.25057 -5.46903 0
M  V30 18724 H 1770.18 -0.135278 -0.741765 0
M  V30 18725 H 1772.83 -0.981544 -1.55042 0
M  V30 18726 H 1771.21 0.0657688 -3.95945 0
M  V30 18727 H 1772.38 -2.77912 -3.67562 0
M  V30 18728 H 1770.7 -2.38334 -3.41447 0
M  V30 18729 H 1773.3 -0.370736 -5.33413 0
M  V30 18730 H 1773.64 0.800968 -4.08522 0
M  V30 18731 H 1774.17 -0.885155 -3.87827 0
M  V30 18732 H 1770.91 -3.28767 -5.67091 0
M  V30 18733 H 1770.43 -1.57898 -5.78643 0
M  V30 18734 H 1772.11 -2.06219 -6.13256 0
M  V30 18735 N 1772.24 1.47639 -0.551417 0
M  V30 18736 C 1773.49 2.02084 -0.0251553 0
M  V30 18737 C 1773.81 1.42872 1.32713 0
M  V30 18738 O 1773.08 0.601794 1.86428 0
M  V30 18739 H 1771.66 0.746973 -0.00631005 0
M  V30 18740 H 1774.32 1.81109 -0.720113 0
M  V30 18741 H 1773.42 3.12028 0.0672608 0
M  V30 18742 N 1773.72 0.287581 1.54954 0
M  V30 18743 C 1774.97 -0.324967 1.9947 0
M  V30 18744 C 1775.29 -1.55437 1.17747 0
M  V30 18745 O 1774.56 -1.9403 0.270067 0
M  V30 18746 H 1773.14 -0.123062 0.736794 0
M  V30 18747 H 1775.8 0.395805 1.90839 0
M  V30 18748 H 1774.9 -0.606265 3.06155 0
M  V30 18749 N 1775.2 -1.57593 0.0150662 0
M  V30 18750 C 1776.43 -1.95221 -0.676193 0
M  V30 18751 C 1776.84 -0.889349 -1.66995 0
M  V30 18752 O 1776.18 0.138825 -1.83175 0
M  V30 18753 C 1776.24 -3.28921 -1.45092 0
M  V30 18754 C 1775.91 -4.52815 -0.61707 0
M  V30 18755 C 1776.9 -5.19801 0.101686 0
M  V30 18756 C 1774.59 -4.99184 -0.558606 0
M  V30 18757 C 1776.58 -6.31466 0.86773 0
M  V30 18758 C 1774.27 -6.10735 0.211154 0
M  V30 18759 C 1775.27 -6.76734 0.923041 0
M  V30 18760 O 1774.95 -7.86145 1.68021 0
M  V30 18761 H 1774.69 -0.648074 -0.192293 0
M  V30 18762 H 1777.24 -2.05291 0.0668663 0
M  V30 18763 H 1775.47 -3.15301 -2.2388 0
M  V30 18764 H 1777.16 -3.51552 -2.02894 0
M  V30 18765 H 1777.93 -4.84955 0.0657637 0
M  V30 18766 H 1773.8 -4.47629 -1.10226 0
M  V30 18767 H 1777.35 -6.82913 1.42391 0
M  V30 18768 H 1773.25 -6.4502 0.248843 0
M  V30 18769 H 1774.01 -8.02739 1.5985 0
M  V30 18770 N 1776.68 0.257904 -1.55475 0
M  V30 18771 C 1777.64 1.30244 -1.88598 0
M  V30 18772 C 1778.64 1.4162 -0.761604 0
M  V30 18773 O 1779.83 1.4051 -1.02968 0
M  V30 18774 C 1776.96 2.68173 -2.10466 0
M  V30 18775 H 1778.15 1.02098 -2.81986 0
M  V30 18776 H 1775.71 0.496685 -1.48198 0
M  V30 18777 H 1776.44 3.01476 -1.1951 0
M  V30 18778 H 1776.23 2.61299 -2.92344 0
M  V30 18779 H 1777.72 3.43616 -2.37313 0
M  V30 18780 N 1778.15 1.48666 0.52309 0
M  V30 18781 C 1779.1 1.60099 1.62334 0
M  V30 18782 C 1780.09 0.457736 1.54252 0
M  V30 18783 O 1781.28 0.709544 1.62156 0
M  V30 18784 C 1778.41 1.65029 3.01032 0
M  V30 18785 C 1777.5 2.84858 3.14192 0
M  V30 18786 N 1777.89 4.09198 2.97305 0
M  V30 18787 C 1776.18 2.82334 3.45259 0
M  V30 18788 C 1776.89 4.89631 3.14064 0
M  V30 18789 N 1775.86 4.22577 3.4195 0
M  V30 18790 H 1779.66 2.53975 1.47898 0
M  V30 18791 H 1777.18 1.45133 0.728714 0
M  V30 18792 H 1779.17 1.71315 3.80075 0
M  V30 18793 H 1777.83 0.722745 3.16554 0
M  V30 18794 H 1778.85 4.39527 2.73928 0
M  V30 18795 H 1775.52 1.98865 3.67095 0
M  V30 18796 H 1776.91 5.98335 3.05688 0
M  V30 18797 N 1779.63 -0.772489 1.37369 0
M  V30 18798 C 1780.56 -1.89969 1.35772 0
M  V30 18799 C 1781.54 -1.68586 0.226452 0
M  V30 18800 O 1782.73 -1.89454 0.426692 0
M  V30 18801 C 1779.86 -3.27242 1.16319 0
M  V30 18802 C 1778.81 -3.63187 2.2645 0
M  V30 18803 C 1778.14 -4.98992 1.92121 0
M  V30 18804 C 1779.44 -3.70013 3.6863 0
M  V30 18805 H 1781.13 -1.91564 2.30095 0
M  V30 18806 H 1778.68 -0.920241 1.10759 0
M  V30 18807 H 1780.63 -4.05734 1.13832 0
M  V30 18808 H 1779.36 -3.26078 0.184513 0
M  V30 18809 H 1778.01 -2.87001 2.28091 0
M  V30 18810 H 1777.66 -4.94368 0.927848 0
M  V30 18811 H 1777.36 -5.24012 2.65867 0
M  V30 18812 H 1778.89 -5.79886 1.91219 0
M  V30 18813 H 1780.3 -4.38659 3.69122 0
M  V30 18814 H 1778.7 -4.06529 4.41423 0
M  V30 18815 H 1779.77 -2.70694 4.02309 0
M  V30 18816 N 1781.11 -1.21927 -0.998575 0
M  V30 18817 C 1782.07 -0.985744 -2.0692 0
M  V30 18818 C 1783.07 0.0456907 -1.60735 0
M  V30 18819 O 1784.26 -0.192241 -1.73136 0
M  V30 18820 C 1781.4 -0.48779 -3.37392 0
M  V30 18821 H 1782.59 -1.93563 -2.2907 0
M  V30 18822 H 1780.14 -1.03716 -1.1693 0
M  V30 18823 H 1780.88 0.466723 -3.20924 0
M  V30 18824 H 1780.66 -1.23186 -3.72247 0
M  V30 18825 H 1782.15 -0.344469 -4.16177 0
M  V30 18826 N 1782.59 1.19452 -1.02805 0
M  V30 18827 C 1783.82 1.92795 -0.742546 0
M  V30 18828 C 1784.23 1.75678 0.702418 0
M  V30 18829 O 1783.57 1.07547 1.48927 0
M  V30 18830 C 1783.63 3.44934 -1.01296 0
M  V30 18831 C 1783.3 3.85821 -2.44931 0
M  V30 18832 C 1784.29 3.90645 -3.43063 0
M  V30 18833 C 1781.98 4.17483 -2.79309 0
M  V30 18834 C 1783.97 4.26561 -4.73629 0
M  V30 18835 C 1781.66 4.53071 -4.10085 0
M  V30 18836 C 1782.66 4.57584 -5.07056 0
M  V30 18837 O 1782.34 4.9235 -6.35489 0
M  V30 18838 H 1782.08 0.619261 -0.271094 0
M  V30 18839 H 1784.63 1.5256 -1.37531 0
M  V30 18840 H 1782.86 3.85348 -0.323051 0
M  V30 18841 H 1784.55 3.99513 -0.717246 0
M  V30 18842 H 1785.32 3.66335 -3.17842 0
M  V30 18843 H 1781.19 4.13154 -2.0451 0
M  V30 18844 H 1784.74 4.29998 -5.49315 0
M  V30 18845 H 1780.64 4.76839 -4.3508 0
M  V30 18846 H 1781.4 5.10301 -6.39949 0
M  V30 18847 N 1784.07 0.805805 1.35442 0
M  V30 18848 C 1785.31 0.385046 1.98398 0
M  V30 18849 C 1785.64 -1.05114 1.64244 0
M  V30 18850 O 1784.91 -1.72711 0.924532 0
M  V30 18851 H 1783.49 0.139386 0.733881 0
M  V30 18852 H 1786.15 1.03147 1.65368 0
M  V30 18853 H 1785.24 0.490126 3.08227 0
M  V30 18854 N 1785.54 -1.47344 0.559239 0
M  V30 18855 C 1786.79 -2.02468 0.035943 0
M  V30 18856 C 1787.12 -1.43337 -1.31472 0
M  V30 18857 O 1786.37 -0.579355 -1.86928 0
M  V30 18858 C 1786.67 -3.57247 -0.104523 0
M  V30 18859 C 1786.34 -4.35307 1.17551 0
M  V30 18860 C 1785 -4.56354 1.52625 0
M  V30 18861 C 1787.35 -4.8031 2.02365 0
M  V30 18862 C 1784.68 -5.19653 2.72356 0
M  V30 18863 C 1787.03 -5.4493 3.213 0
M  V30 18864 C 1785.7 -5.64209 3.56685 0
M  V30 18865 H 1784.97 -0.740883 0.0131525 0
M  V30 18866 H 1787.61 -1.76992 0.73116 0
M  V30 18867 H 1785.92 -3.81727 -0.88272 0
M  V30 18868 H 1787.62 -3.97551 -0.5248 0
M  V30 18869 H 1784.21 -4.19206 0.892413 0
M  V30 18870 H 1788.39 -4.63827 1.76575 0
M  V30 18871 H 1783.65 -5.32773 2.99938 0
M  V30 18872 H 1787.82 -5.78764 3.87305 0
M  V30 18873 H 1785.45 -6.13028 4.49556 0
M  V30 18874 N 1787.02 -0.295795 -1.54799 0
M  V30 18875 C 1787.97 0.598403 -2.24771 0
M  V30 18876 C 1788.96 1.14123 -1.25189 0
M  V30 18877 O 1790.17 1.09248 -1.43056 0
M  V30 18878 H 1786.55 0.21157 -0.721625 0
M  V30 18879 H 1788.52 -0.0143437 -2.98397 0
M  V30 18880 C 1787.27 1.76132 -2.99788 0
M  V30 18881 H 1786.59 1.35284 -3.76216 0
M  V30 18882 H 1788.03 2.36317 -3.52037 0
M  V30 18883 C 1786.49 2.6623 -2.06453 0
M  V30 18884 O 1787.02 3.67179 -1.62918 0
M  V30 18885 N 1785.22 2.3385 -1.72518 0
M  V30 18886 H 1784.77 1.51804 -2.08119 0
M  V30 18887 H 1784.73 2.944 -1.10344 0
M  V30 18888 N 1788.5 1.57583 -0.0234236 0
M  V30 18889 C 1789.73 1.95577 0.66583 0
M  V30 18890 C 1790.14 0.898193 1.66521 0
M  V30 18891 O 1789.48 -0.129109 1.83246 0
M  V30 18892 C 1789.54 3.29685 1.43345 0
M  V30 18893 C 1789.21 4.53136 0.593048 0
M  V30 18894 C 1790.21 5.19739 -0.129251 0
M  V30 18895 C 1787.89 4.99473 0.532125 0
M  V30 18896 C 1789.88 6.30997 -0.901206 0
M  V30 18897 C 1787.57 6.10615 -0.24354 0
M  V30 18898 C 1788.57 6.76235 -0.958917 0
M  V30 18899 O 1788.26 7.85243 -1.72188 0
M  V30 18900 H 1787.99 0.649084 0.188853 0
M  V30 18901 H 1790.54 2.05253 -0.0777525 0
M  V30 18902 H 1788.77 3.16484 2.22205 0
M  V30 18903 H 1790.46 3.52623 2.01027 0
M  V30 18904 H 1791.23 4.84914 -0.0914812 0
M  V30 18905 H 1787.11 4.48207 1.0785 0
M  V30 18906 H 1790.65 6.82149 -1.46011 0
M  V30 18907 H 1786.55 6.44879 -0.283046 0
M  V30 18908 H 1787.32 8.0188 -1.64105 0
M  V30 18909 N 1789.98 -0.249655 1.5561 0
M  V30 18910 C 1791.21 -0.994263 1.81102 0
M  V30 18911 C 1791.62 -1.79553 0.596445 0
M  V30 18912 O 1790.96 -1.78246 -0.4443 0
M  V30 18913 C 1791.02 -1.9824 2.99902 0
M  V30 18914 C 1790.69 -1.36833 4.36034 0
M  V30 18915 C 1791.68 -0.772202 5.14133 0
M  V30 18916 C 1789.37 -1.38852 4.82727 0
M  V30 18917 C 1791.36 -0.204446 6.37072 0
M  V30 18918 C 1789.05 -0.816913 6.05615 0
M  V30 18919 C 1790.05 -0.225898 6.82626 0
M  V30 18920 O 1789.74 0.336892 8.03194 0
M  V30 18921 H 1789.47 -0.298339 0.606605 0
M  V30 18922 H 1792.02 -0.278647 2.03501 0
M  V30 18923 H 1790.25 -2.73625 2.73252 0
M  V30 18924 H 1791.94 -2.59021 3.12511 0
M  V30 18925 H 1792.71 -0.749129 4.7918 0
M  V30 18926 H 1788.59 -1.83793 4.22778 0
M  V30 18927 H 1792.13 0.257492 6.97125 0
M  V30 18928 H 1788.03 -0.837303 6.40046 0
M  V30 18929 H 1788.79 0.228492 8.18181 0
M  V30 18930 N 1791.46 -1.48941 -0.515198 0
M  V30 18931 C 1792.71 -1.57398 -1.26768 0
M  V30 18932 C 1793.03 -0.256213 -1.93309 0
M  V30 18933 O 1792.3 0.723408 -1.82054 0
M  V30 18934 H 1790.88 -0.579895 -0.470883 0
M  V30 18935 H 1793.54 -1.85489 -0.598315 0
M  V30 18936 H 1792.63 -2.36272 -2.03916 0
M  V30 18937 N 1792.94 0.765193 -1.37777 0
M  V30 18938 C 1794.16 1.55436 -1.36556 0
M  V30 18939 C 1794.58 1.8874 0.0475187 0
M  V30 18940 O 1793.94 1.51933 1.01107 0
M  V30 18941 C 1793.99 2.86063 -2.21021 0
M  V30 18942 O 1793.71 2.54183 -3.56823 0
M  V30 18943 C 1795.21 3.80261 -2.27851 0
M  V30 18944 H 1792.43 0.481331 -0.467506 0
M  V30 18945 H 1794.97 0.947906 -1.81204 0
M  V30 18946 H 1793.13 3.43114 -1.79864 0
M  V30 18947 H 1793.54 3.37879 -4.01171 0
M  V30 18948 H 1795.02 4.68904 -2.91261 0
M  V30 18949 H 1795.49 4.19865 -1.28881 0
M  V30 18950 H 1796.1 3.29137 -2.69349 0
M  V30 18951 N 1794.41 1.22455 0.992094 0
M  V30 18952 C 1795.66 1.05115 1.73432 0
M  V30 18953 C 1795.99 -0.412642 1.89765 0
M  V30 18954 O 1795.27 -1.3059 1.44141 0
M  V30 18955 C 1795.55 1.76385 3.13943 0
M  V30 18956 C 1795.4 3.30364 3.05253 0
M  V30 18957 C 1796.72 1.51688 4.13133 0
M  V30 18958 H 1793.84 0.383261 0.629508 0
M  V30 18959 H 1796.48 1.50805 1.15576 0
M  V30 18960 H 1794.63 1.37544 3.63337 0
M  V30 18961 H 1796.31 3.78655 2.63474 0
M  V30 18962 H 1794.55 3.6 2.42038 0
M  V30 18963 H 1795.22 3.75409 4.04687 0
M  V30 18964 H 1797.7 1.85429 3.72499 0
M  V30 18965 H 1796.57 2.04049 5.09564 0
M  V30 18966 H 1796.83 0.449654 4.39807 0
M  V30 18967 N 1795.89 -1.18905 1.03437 0
M  V30 18968 C 1797.14 -1.88354 0.732598 0
M  V30 18969 C 1797.46 -1.80353 -0.741474 0
M  V30 18970 O 1796.73 -1.21764 -1.53461 0
M  V30 18971 H 1795.31 -0.697272 0.267995 0
M  V30 18972 H 1797.97 -1.44329 1.30978 0
M  V30 18973 H 1797.07 -2.94551 1.03181 0
M  V30 18974 N 1797.37 -0.812977 -1.35013 0
M  V30 18975 C 1798.59 -0.407969 -2.03348 0
M  V30 18976 C 1799.02 0.975148 -1.60849 0
M  V30 18977 O 1798.38 1.63267 -0.788256 0
M  V30 18978 C 1798.43 -0.506754 -3.57022 0
M  V30 18979 O 1797.53 0.477322 -4.09628 0
M  V30 18980 H 1796.87 -0.169416 -0.642023 0
M  V30 18981 H 1799.4 -1.10064 -1.72474 0
M  V30 18982 H 1799.41 -0.378883 -4.06237 0
M  V30 18983 H 1798.09 -1.51557 -3.87302 0
M  V30 18984 H 1796.66 0.309161 -3.71616 0
M  V30 18985 N 1798.85 1.47045 -0.567045 0
M  V30 18986 C 1799.8 2.31838 0.188075 0
M  V30 18987 C 1800.79 1.4353 0.899752 0
M  V30 18988 O 1802 1.60241 0.81992 0
M  V30 18989 H 1798.37 0.747783 0.0795226 0
M  V30 18990 H 1800.34 2.9336 -0.546121 0
M  V30 18991 C 1799.09 3.26387 1.19861 0
M  V30 18992 H 1798.41 3.94308 0.660412 0
M  V30 18993 H 1799.85 3.8853 1.69767 0
M  V30 18994 C 1798.31 2.50612 2.25157 0
M  V30 18995 O 1798.84 2.25771 3.3225 0
M  V30 18996 N 1797.05 2.11447 1.99345 0
M  V30 18997 H 1796.6 2.31849 1.12267 0
M  V30 18998 H 1796.55 1.61064 2.7001 0
M  V30 18999 N 1800.33 0.304 1.5464 0
M  V30 19000 C 1801.74 -0.0492924 1.59524 0
M  V30 19001 C 1801.94 -1.52164 1.32093 0
M  V30 19002 O 1801 -2.27483 1.0958 0
M  V30 19003 C 1802.31 0.351346 2.9864 0
M  V30 19004 C 1803.86 0.300362 3.11555 0
M  V30 19005 C 1804.33 0.675867 4.52986 0
M  V30 19006 N 1805.82 0.628517 4.58916 0
M  V30 19007 C 1806.56 0.891504 5.66427 0
M  V30 19008 N 1806.06 1.22061 6.81962 0
M  V30 19009 N 1807.85 0.818366 5.56111 0
M  V30 19010 H 1800 1.26351 1.70731 0
M  V30 19011 H 1802.26 0.512457 0.797554 0
M  V30 19012 H 1801.97 1.37642 3.23647 0
M  V30 19013 H 1801.84 -0.293504 3.76056 0
M  V30 19014 H 1804.23 -0.715468 2.86295 0
M  V30 19015 H 1804.31 0.979876 2.36288 0
M  V30 19016 H 1803.95 1.68952 4.78976 0
M  V30 19017 H 1803.88 -0.0257498 5.26594 0
M  V30 19018 H 1806.38 0.385204 3.75932 0
M  V30 19019 H 1806.69 1.40718 7.5988 0
M  V30 19020 H 1805.03 1.25868 6.83507 0
M  V30 19021 H 1808.22 0.560885 4.64728 0
M  V30 19022 H 1808.4 1.02669 6.39815 0
M  V30 19023 N 1801.8 -1.57568 0.0317802 0
M  V30 19024 C 1803.08 -1.8321 -0.685081 0
M  V30 19025 C 1803.46 -0.91624 -1.9018 0
M  V30 19026 O 1802.81 0.0275043 -2.28483 0
M  V30 19027 C 1803.02 -3.32488 -1.06078 0
M  V30 19028 C 1804.37 -3.99027 -1.45129 0
M  V30 19029 O 1805.39 -3.36999 -1.15368 0
M  V30 19030 O 1804.25 -5.08355 -2.00592 0
M  V30 19031 H 1801.34 -0.755517 -0.336337 0
M  V30 19032 H 1803.89 -1.69595 0.0596652 0
M  V30 19033 H 1802.66 -3.90814 -0.194918 0
M  V30 19034 H 1802.28 -3.5122 -1.8636 0
M  V30 19035 N 1803.28 0.241399 -1.5574 0
M  V30 19036 C 1804.19 1.32034 -1.93918 0
M  V30 19037 C 1805.21 1.52363 -0.840331 0
M  V30 19038 O 1806.38 1.65879 -1.1422 0
M  V30 19039 C 1803.45 2.6539 -2.2309 0
M  V30 19040 C 1802.51 2.53536 -3.46436 0
M  V30 19041 C 1801.74 3.80532 -3.74208 0
M  V30 19042 O 1801.97 4.82662 -3.03964 0
M  V30 19043 O 1800.9 3.78834 -4.67727 0
M  V30 19044 H 1804.73 1.02647 -2.85827 0
M  V30 19045 H 1802.31 0.442616 -1.42693 0
M  V30 19046 H 1804.19 3.44184 -2.43137 0
M  V30 19047 H 1802.87 2.94499 -1.34358 0
M  V30 19048 H 1801.78 1.73009 -3.3169 0
M  V30 19049 H 1803.11 2.29371 -4.35488 0
M  V30 19050 N 1804.76 1.49212 0.507292 0
M  V30 19051 C 1806.01 1.58381 1.26181 0
M  V30 19052 C 1806.34 0.267704 1.92649 0
M  V30 19053 O 1805.59 -0.743892 1.8101 0
M  V30 19054 C 1805.89 2.68761 2.35589 0
M  V30 19055 C 1805.56 4.10467 1.86622 0
M  V30 19056 C 1804.22 4.49031 1.72986 0
M  V30 19057 C 1806.57 4.99179 1.49898 0
M  V30 19058 C 1803.9 5.74088 1.20995 0
M  V30 19059 C 1806.25 6.24748 0.993611 0
M  V30 19060 C 1804.91 6.62148 0.8436 0
M  V30 19061 H 1804.18 0.579558 0.461729 0
M  V30 19062 H 1806.83 1.83019 0.563581 0
M  V30 19063 H 1805.14 2.3807 3.11175 0
M  V30 19064 H 1806.83 2.73066 2.9366 0
M  V30 19065 H 1803.42 3.80023 1.98193 0
M  V30 19066 H 1807.61 4.70046 1.59282 0
M  V30 19067 H 1802.86 6.0177 1.08087 0
M  V30 19068 H 1807.04 6.92871 0.700235 0
M  V30 19069 H 1804.66 7.58934 0.43855 0
M  V30 19070 N 1806.24 -0.757876 1.38181 0
M  V30 19071 C 1807.48 -1.51912 1.34352 0
M  V30 19072 C 1807.82 -1.94082 -0.0677003 0
M  V30 19073 O 1807.09 -1.65114 -1.02799 0
M  V30 19074 C 1807.38 -2.77466 2.29531 0
M  V30 19075 C 1807.23 -2.41462 3.79495 0
M  V30 19076 C 1808.55 -3.79469 2.22915 0
M  V30 19077 H 1805.67 -0.551091 0.489355 0
M  V30 19078 H 1808.31 -0.868376 1.68995 0
M  V30 19079 H 1806.46 -3.32994 2.00119 0
M  V30 19080 H 1808.13 -1.91742 4.19562 0
M  V30 19081 H 1806.37 -1.73976 3.97385 0
M  V30 19082 H 1807.04 -3.31272 4.41546 0
M  V30 19083 H 1809.52 -3.33471 2.48871 0
M  V30 19084 H 1808.4 -4.6502 2.91629 0
M  V30 19085 H 1808.66 -4.24744 1.22658 0
M  V30 19086 N 1807.72 -1.22979 -0.985586 0
M  V30 19087 C 1808.96 -1.06033 -1.72872 0
M  V30 19088 C 1809.3 0.402572 -1.89982 0
M  V30 19089 O 1808.57 1.29824 -1.44831 0
M  V30 19090 C 1808.85 -1.78047 -3.13004 0
M  V30 19091 C 1808.71 -3.31979 -3.03497 0
M  V30 19092 C 1810.03 -1.53877 -4.12323 0
M  V30 19093 H 1807.14 -0.386594 -0.627466 0
M  V30 19094 H 1809.79 -1.51416 -1.14775 0
M  V30 19095 H 1807.94 -1.39469 -3.62603 0
M  V30 19096 H 1809.61 -3.80047 -2.61462 0
M  V30 19097 H 1807.85 -3.61279 -2.40125 0
M  V30 19098 H 1808.52 -3.7755 -4.02691 0
M  V30 19099 H 1811 -1.87402 -3.7151 0
M  V30 19100 H 1809.87 -2.06749 -5.08474 0
M  V30 19101 H 1810.14 -0.472972 -4.39563 0
M  V30 19102 N 1809.19 1.18355 -1.04066 0
M  V30 19103 C 1810.44 1.88614 -0.745148 0
M  V30 19104 C 1810.77 1.80147 0.725294 0
M  V30 19105 O 1810.05 1.20177 1.5293 0
M  V30 19106 C 1810.33 3.39095 -1.2119 0
M  V30 19107 C 1810.18 3.56372 -2.74444 0
M  V30 19108 C 1811.5 4.32732 -0.801953 0
M  V30 19109 H 1808.62 0.684905 -0.272166 0
M  V30 19110 H 1811.26 1.39248 -1.29267 0
M  V30 19111 H 1809.41 3.81269 -0.746091 0
M  V30 19112 H 1811.09 3.2329 -3.29061 0
M  V30 19113 H 1809.33 2.99028 -3.14269 0
M  V30 19114 H 1810 4.61956 -3.0216 0
M  V30 19115 H 1812.48 3.98337 -1.20278 0
M  V30 19116 H 1811.35 5.36583 -1.15628 0
M  V30 19117 H 1811.61 4.41115 0.294907 0
M  V30 19118 N 1810.67 0.820125 1.3458 0
M  V30 19119 C 1812.09 0.505533 1.51382 0
M  V30 19120 C 1812.29 -0.970812 1.76571 0
M  V30 19121 O 1811.34 -1.75538 1.81501 0
M  V30 19122 C 1812.66 1.36264 2.68054 0
M  V30 19123 C 1814.21 1.35947 2.81935 0
M  V30 19124 C 1814.68 2.201 4.01647 0
M  V30 19125 N 1816.17 2.17708 4.08849 0
M  V30 19126 C 1816.91 2.79571 5.00627 0
M  V30 19127 N 1816.4 3.50413 5.97647 0
M  V30 19128 N 1818.2 2.6914 4.93477 0
M  V30 19129 H 1810.35 1.77607 1.16488 0
M  V30 19130 H 1812.61 0.756693 0.571068 0
M  V30 19131 H 1812.32 2.41093 2.56061 0
M  V30 19132 H 1812.19 1.02537 3.62996 0
M  V30 19133 H 1814.58 0.318971 2.93371 0
M  V30 19134 H 1814.66 1.7367 1.8781 0
M  V30 19135 H 1814.3 3.24198 3.90971 0
M  V30 19136 H 1814.23 1.79729 4.9498 0
M  V30 19137 H 1816.72 1.66175 3.39403 0
M  V30 19138 H 1817.04 3.9487 6.64303 0
M  V30 19139 H 1815.38 3.54519 5.9778 0
M  V30 19140 H 1818.57 2.13372 4.16641 0
M  V30 19141 H 1818.74 3.17639 5.64809 0
M  V30 19142 N 1812.15 -1.46743 0.574835 0
M  V30 19143 C 1813.1 -2.30224 -0.162908 0
M  V30 19144 C 1814.07 -1.4014 -0.891629 0
M  V30 19145 O 1815.25 -1.69094 -0.883854 0
M  V30 19146 C 1812.39 -3.24456 -1.1757 0
M  V30 19147 C 1811.51 -4.29637 -0.451233 0
M  V30 19148 C 1810.64 -5.11003 -1.45085 0
M  V30 19149 C 1809.68 -6.07941 -0.712353 0
M  V30 19150 N 1808.82 -6.82202 -1.65965 0
M  V30 19151 H 1813.66 -2.92785 0.555063 0
M  V30 19152 H 1811.19 -1.44302 0.285546 0
M  V30 19153 H 1813.15 -3.77526 -1.77567 0
M  V30 19154 H 1811.78 -2.63721 -1.86148 0
M  V30 19155 H 1810.83 -3.79485 0.263623 0
M  V30 19156 H 1812.15 -4.9864 0.126468 0
M  V30 19157 H 1811.3 -5.68311 -2.12386 0
M  V30 19158 H 1810.04 -4.41942 -2.06248 0
M  V30 19159 H 1809.04 -5.49794 -0.0255266 0
M  V30 19160 H 1810.27 -6.79017 -0.106227 0
M  V30 19161 H 1808.21 -6.15858 -2.25953 0
M  V30 19162 H 1808.13 -7.47438 -1.13456 0
M  V30 19163 H 1809.4 -7.44073 -2.32325 0
M  V30 19164 N 1813.63 -0.312197 -1.54477 0
M  V30 19165 C 1814.56 0.60117 -2.20139 0
M  V30 19166 C 1815.54 1.12441 -1.17456 0
M  V30 19167 O 1816.72 1.19052 -1.46146 0
M  V30 19168 C 1813.85 1.8237 -2.8541 0
M  V30 19169 C 1812.9 1.43272 -4.01716 0
M  V30 19170 S 1813.73 0.479095 -5.33353 0
M  V30 19171 C 1814.89 1.70917 -6.02112 0
M  V30 19172 H 1815.12 0.0433644 -2.97268 0
M  V30 19173 H 1812.65 -0.0963038 -1.54099 0
M  V30 19174 H 1814.61 2.52522 -3.2364 0
M  V30 19175 H 1813.27 2.35268 -2.08105 0
M  V30 19176 H 1812.46 2.34339 -4.46208 0
M  V30 19177 H 1812.07 0.811019 -3.65101 0
M  V30 19178 H 1814.36 2.64821 -6.23599 0
M  V30 19179 H 1815.3 1.30661 -6.95941 0
M  V30 19180 H 1815.71 1.89098 -5.31886 0
M  V30 19181 N 1815.11 1.57549 -0.040136 0
M  V30 19182 C 1816.05 2.10879 0.938013 0
M  V30 19183 C 1817.02 1.01348 1.31597 0
M  V30 19184 O 1818.21 1.28832 1.40737 0
M  V30 19185 C 1815.35 2.64938 2.21138 0
M  V30 19186 C 1814.46 3.88516 1.88889 0
M  V30 19187 C 1813.6 4.3093 3.10601 0
M  V30 19188 C 1812.64 5.47237 2.74223 0
M  V30 19189 N 1811.77 5.84755 3.88594 0
M  V30 19190 H 1816.61 2.94169 0.476328 0
M  V30 19191 H 1814.15 1.45392 0.223503 0
M  V30 19192 H 1816.11 2.94375 2.95633 0
M  V30 19193 H 1814.74 1.84463 2.64903 0
M  V30 19194 H 1813.79 3.6574 1.04588 0
M  V30 19195 H 1815.1 4.7308 1.58103 0
M  V30 19196 H 1814.26 4.61861 3.93407 0
M  V30 19197 H 1812.99 3.45155 3.44557 0
M  V30 19198 H 1812 5.15988 1.89831 0
M  V30 19199 H 1813.22 6.34719 2.41472 0
M  V30 19200 H 1811.17 5.01935 4.22371 0
M  V30 19201 H 1811.09 6.63984 3.6147 0
M  V30 19202 H 1812.36 6.20297 4.72072 0
M  V30 19203 N 1816.58 -0.233136 1.55866 0
M  V30 19204 C 1817.53 -1.3085 1.92304 0
M  V30 19205 C 1818.53 -1.49121 0.803693 0
M  V30 19206 O 1819.73 -1.50433 0.988433 0
M  V30 19207 H 1816.11 -0.438451 0.610954 0
M  V30 19208 H 1818.08 -0.973925 2.82059 0
M  V30 19209 C 1816.83 -2.65415 2.24611 0
M  V30 19210 H 1816.15 -2.5216 3.10251 0
M  V30 19211 H 1817.59 -3.395 2.54 0
M  V30 19212 C 1816.05 -3.1955 1.0672 0
M  V30 19213 O 1816.58 -4.00405 0.322308 0
M  V30 19214 N 1814.79 -2.77764 0.854123 0
M  V30 19215 H 1814.33 -2.12122 1.46157 0
M  V30 19216 H 1814.29 -3.14329 0.0670326 0
M  V30 19217 N 1818.06 -1.49479 -0.499372 0
M  V30 19218 C 1819.31 -1.58295 -1.25003 0
M  V30 19219 C 1819.63 -0.275616 -1.93648 0
M  V30 19220 O 1820.83 -0.24234 -2.70416 0
M  V30 19221 C 1819.29 -2.793 -2.26979 0
M  V30 19222 C 1818.9 -4.16799 -1.64264 0
M  V30 19223 C 1820.64 -2.97447 -3.02862 0
M  V30 19224 C 1818.55 -5.29025 -2.6436 0
M  V30 19225 H 1817.48 -0.589398 -0.470241 0
M  V30 19226 H 1820.13 -1.75868 -0.523698 0
M  V30 19227 H 1818.51 -2.55225 -3.02781 0
M  V30 19228 H 1819.68 -4.51018 -0.944432 0
M  V30 19229 H 1818 -4.04024 -1.00765 0
M  V30 19230 H 1820.6 -3.78461 -3.77719 0
M  V30 19231 H 1820.94 -2.08071 -3.60572 0
M  V30 19232 H 1821.47 -3.2157 -2.34175 0
M  V30 19233 H 1818.21 -6.20466 -2.11429 0
M  V30 19234 H 1817.73 -4.99258 -3.32417 0
M  V30 19235 H 1819.41 -5.58427 -3.26755 0
M  V30 19236 N 1819.54 0.750537 -1.38581 0
M  V30 19237 C 1820.82 1.50051 -1.25475 0
M  V30 19238 C 1821.2 2.10618 0.142521 0
M  V30 19239 O 1820.55 1.97317 1.15231 0
M  V30 19240 C 1820.76 2.56443 -2.36724 0
M  V30 19241 C 1822.1 3.23261 -2.75296 0
M  V30 19242 O 1823.13 2.66749 -2.36058 0
M  V30 19243 O 1821.99 4.25481 -3.4297 0
M  V30 19244 H 1819.08 0.665581 -0.490847 0
M  V30 19245 H 1821.63 0.785688 -1.50416 0
M  V30 19246 H 1820.4 2.09958 -3.30202 0
M  V30 19247 H 1820.02 3.35503 -2.13363 0
M  V30 19248 N 1821.02 1.235 0.979051 0
M  V30 19249 C 1822.27 1.07956 1.72387 0
M  V30 19250 C 1822.62 -0.379427 1.88622 0
M  V30 19251 O 1821.91 -1.27702 1.42838 0
M  V30 19252 C 1822.11 1.74004 3.12182 0
M  V30 19253 C 1821.94 3.26174 3.09581 0
M  V30 19254 C 1820.71 3.95341 3.14696 0
M  V30 19255 C 1822.9 4.22924 2.92643 0
M  V30 19256 N 1820.89 5.34483 3.01996 0
M  V30 19257 C 1822.26 5.48988 2.88119 0
M  V30 19258 C 1824.31 4.13641 2.77138 0
M  V30 19259 C 1823.02 6.66834 2.69676 0
M  V30 19260 C 1825.04 5.31152 2.6006 0
M  V30 19261 C 1824.4 6.56143 2.56235 0
M  V30 19262 H 1820.5 0.449578 0.639847 0
M  V30 19263 H 1823.09 1.56249 1.16165 0
M  V30 19264 H 1821.26 1.28241 3.66618 0
M  V30 19265 H 1822.99 1.51423 3.75304 0
M  V30 19266 H 1819.74 3.46429 3.2293 0
M  V30 19267 H 1820.17 6.07435 2.98917 0
M  V30 19268 H 1824.81 3.17778 2.78885 0
M  V30 19269 H 1822.53 7.62831 2.66674 0
M  V30 19270 H 1826.11 5.25812 2.49024 0
M  V30 19271 H 1824.99 7.4554 2.43185 0
M  V30 19272 N 1822.5 -1.17802 1.04693 0
M  V30 19273 C 1823.43 -2.23847 0.664448 0
M  V30 19274 C 1824.41 -1.66761 -0.335356 0
M  V30 19275 O 1825.59 -1.93017 -0.214062 0
M  V30 19276 C 1822.72 -3.47284 0.0331587 0
M  V30 19277 C 1821.68 -4.1716 0.95718 0
M  V30 19278 C 1821 -5.34362 0.190034 0
M  V30 19279 C 1822.3 -4.69951 2.2791 0
M  V30 19280 H 1824 -2.56095 1.55099 0
M  V30 19281 H 1821.54 -1.23097 0.747196 0
M  V30 19282 H 1823.5 -4.2068 -0.246178 0
M  V30 19283 H 1822.22 -3.14288 -0.888294 0
M  V30 19284 H 1820.88 -3.45669 1.221 0
M  V30 19285 H 1820.53 -4.97615 -0.734025 0
M  V30 19286 H 1820.23 -5.8205 0.805684 0
M  V30 19287 H 1821.75 -6.10545 -0.0821372 0
M  V30 19288 H 1823.17 -5.3501 2.06003 0
M  V30 19289 H 1821.56 -5.28198 2.84828 0
M  V30 19290 H 1822.63 -3.87032 2.9212 0
M  V30 19291 N 1823.98 -0.827251 -1.34143 0
M  V30 19292 C 1825.25 -0.339793 -1.92626 0
M  V30 19293 C 1825.63 1.17342 -1.75482 0
M  V30 19294 O 1824.98 1.98251 -1.13616 0
M  V30 19295 C 1825.19 -0.773891 -3.40312 0
M  V30 19296 C 1826.54 -0.77521 -4.17463 0
M  V30 19297 O 1827.56 -0.716748 -3.48914 0
M  V30 19298 O 1826.42 -0.852347 -5.39812 0
M  V30 19299 H 1823.52 -0.0937486 -0.821669 0
M  V30 19300 H 1826.06 -0.91233 -1.4309 0
M  V30 19301 H 1824.83 -1.81597 -3.46609 0
M  V30 19302 H 1824.46 -0.177287 -3.97205 0
M  V30 19303 N 1825.45 1.46436 -0.582609 0
M  V30 19304 C 1826.7 2.01986 -0.0680147 0
M  V30 19305 C 1827.02 1.45654 1.29653 0
M  V30 19306 O 1826.29 0.641203 1.85109 0
M  V30 19307 H 1824.87 0.746671 -0.022153 0
M  V30 19308 H 1827.53 1.79541 -0.758367 0
M  V30 19309 H 1826.63 3.121 0.00106001 0
M  V30 19310 N 1826.93 0.320385 1.54309 0
M  V30 19311 C 1827.84 -0.556017 2.27916 0
M  V30 19312 C 1828.86 -1.13192 1.32149 0
M  V30 19313 O 1830.03 -1.15257 1.6516 0
M  V30 19314 C 1827.1 -1.70244 3.02023 0
M  V30 19315 C 1826.16 -1.15866 4.13369 0
M  V30 19316 C 1825.39 -2.25044 4.83933 0
M  V30 19317 O 1825.62 -3.45327 4.53988 0
M  V30 19318 O 1824.55 -1.90642 5.70911 0
M  V30 19319 H 1828.38 0.0416563 3.03671 0
M  V30 19320 H 1825.96 0.0861809 1.49151 0
M  V30 19321 H 1827.84 -2.36995 3.48442 0
M  V30 19322 H 1826.52 -2.28635 2.29146 0
M  V30 19323 H 1825.42 -0.456323 3.71306 0
M  V30 19324 H 1826.76 -0.619916 4.88281 0
M  V30 19325 N 1828.41 -1.57525 0.0484906 0
M  V30 19326 C 1829.66 -1.92204 -0.624654 0
M  V30 19327 C 1829.98 -0.927289 -1.71541 0
M  V30 19328 O 1829.25 0.0282687 -1.9588 0
M  V30 19329 H 1827.83 -0.709494 -0.233724 0
M  V30 19330 H 1830.49 -1.94639 0.100861 0
M  V30 19331 H 1829.59 -2.93368 -1.06498 0
M  V30 19332 N 1829.89 0.224867 -1.55988 0
M  V30 19333 C 1830.84 1.29829 -1.92995 0
M  V30 19334 C 1831.83 1.48693 -0.81159 0
M  V30 19335 O 1833.04 1.49906 -0.996397 0
M  V30 19336 H 1829.41 0.435205 -0.61327 0
M  V30 19337 H 1831.38 0.958953 -2.82571 0
M  V30 19338 C 1830.13 2.6422 -2.26016 0
M  V30 19339 H 1829.45 2.50511 -3.11584 0
M  V30 19340 H 1830.89 3.38148 -2.55797 0
M  V30 19341 C 1829.35 3.1898 -1.08413 0
M  V30 19342 O 1829.88 4.00228 -0.343538 0
M  V30 19343 N 1828.09 2.77308 -0.868842 0
M  V30 19344 H 1827.64 2.11344 -1.4728 0
M  V30 19345 H 1827.59 3.14289 -0.0837012 0
M  V30 19346 N 1831.37 1.49742 0.491438 0
M  V30 19347 C 1832.64 1.50217 1.25277 0
M  V30 19348 C 1833.02 0.235271 2.09785 0
M  V30 19349 O 1832.37 -0.782057 2.147 0
M  V30 19350 C 1832.58 2.78652 2.10129 0
M  V30 19351 C 1833.93 3.28519 2.68999 0
M  V30 19352 O 1834.95 2.79834 2.20389 0
M  V30 19353 O 1833.81 4.13333 3.57516 0
M  V30 19354 H 1830.91 0.601649 0.567405 0
M  V30 19355 H 1833.45 1.62014 0.504924 0
M  V30 19356 H 1832.22 3.62345 1.47723 0
M  V30 19357 H 1831.85 2.69761 2.92087 0
M  V30 19358 N 1832.84 -0.743177 1.38977 0
M  V30 19359 C 1833.78 -1.86709 1.32938 0
M  V30 19360 C 1834.79 -1.61027 0.239644 0
M  V30 19361 O 1835.98 -1.71413 0.497991 0
M  V30 19362 C 1833.08 -3.22566 1.03945 0
M  V30 19363 C 1832.25 -3.75669 2.24034 0
M  V30 19364 C 1831.31 -4.90068 1.91625 0
M  V30 19365 O 1830.34 -5.04156 2.64226 0
M  V30 19366 N 1831.54 -5.7383 0.877465 0
M  V30 19367 H 1834.3 -1.92397 2.2979 0
M  V30 19368 H 1831.86 -0.923564 1.32973 0
M  V30 19369 H 1833.86 -3.96654 0.802977 0
M  V30 19370 H 1832.43 -3.12198 0.15854 0
M  V30 19371 H 1831.65 -2.93027 2.63683 0
M  V30 19372 H 1832.93 -4.07882 3.04154 0
M  V30 19373 H 1832.33 -5.65028 0.275604 0
M  V30 19374 H 1830.89 -6.48021 0.700881 0
M  V30 19375 N 1834.32 -1.24018 -0.972487 0
M  V30 19376 C 1835.57 -1.07861 -1.71738 0
M  V30 19377 C 1835.9 0.382399 -1.90398 0
M  V30 19378 O 1835.18 1.2828 -1.462 0
M  V30 19379 C 1835.46 -1.81357 -3.11098 0
M  V30 19380 C 1835.31 -3.35179 -2.99959 0
M  V30 19381 C 1836.63 -1.58242 -4.10667 0
M  V30 19382 H 1833.75 -0.393228 -0.623331 0
M  V30 19383 H 1836.39 -1.52625 -1.13162 0
M  V30 19384 H 1834.54 -1.43307 -3.61103 0
M  V30 19385 H 1836.21 -3.82798 -2.57416 0
M  V30 19386 H 1834.46 -3.63805 -2.3628 0
M  V30 19387 H 1835.13 -3.818 -3.98664 0
M  V30 19388 H 1837.6 -1.91332 -3.69501 0
M  V30 19389 H 1836.48 -2.1213 -5.06253 0
M  V30 19390 H 1836.74 -0.519567 -4.39036 0
M  V30 19391 N 1835.8 1.17245 -1.05316 0
M  V30 19392 C 1836.73 2.20844 -0.613228 0
M  V30 19393 C 1837.75 1.5955 0.323671 0
M  V30 19394 O 1838.93 1.78121 0.116209 0
M  V30 19395 C 1836.03 3.38679 0.122482 0
M  V30 19396 C 1835.21 4.29541 -0.825429 0
M  V30 19397 C 1834.27 5.26038 -0.130752 0
M  V30 19398 O 1833.29 5.64032 -0.765248 0
M  V30 19399 N 1834.49 5.69369 1.13136 0
M  V30 19400 H 1837.26 2.5921 -1.50434 0
M  V30 19401 H 1834.82 1.32156 -0.935221 0
M  V30 19402 H 1836.81 4.00267 0.597368 0
M  V30 19403 H 1835.38 2.989 0.915278 0
M  V30 19404 H 1834.6 3.65366 -1.47991 0
M  V30 19405 H 1835.89 4.87138 -1.46882 0
M  V30 19406 H 1835.29 5.40576 1.66716 0
M  V30 19407 H 1833.85 6.33095 1.55029 0
M  V30 19408 N 1837.28 0.834353 1.33702 0
M  V30 19409 C 1838.19 0.266649 2.3308 0
M  V30 19410 C 1839.2 -0.604958 1.63145 0
M  V30 19411 O 1840.38 -0.510151 1.94832 0
M  V30 19412 C 1837.45 -0.552673 3.42267 0
M  V30 19413 C 1836.51 0.342677 4.2793 0
M  V30 19414 C 1835.74 -0.437637 5.31903 0
M  V30 19415 O 1835.96 -1.6698 5.45412 0
M  V30 19416 O 1834.9 0.186001 6.01613 0
M  V30 19417 H 1838.72 1.08946 2.83486 0
M  V30 19418 H 1836.31 0.596765 1.36964 0
M  V30 19419 H 1838.19 -1.01842 4.08908 0
M  V30 19420 H 1836.86 -1.35263 2.94085 0
M  V30 19421 H 1835.77 0.856168 3.64171 0
M  V30 19422 H 1837.1 1.10728 4.79583 0
M  V30 19423 N 1838.76 -1.46125 0.590367 0
M  V30 19424 C 1839.98 -2.07234 0.0828625 0
M  V30 19425 C 1840.41 -1.43498 -1.21614 0
M  V30 19426 O 1839.76 -0.521488 -1.73638 0
M  V30 19427 C 1839.81 -3.60548 -0.0614302 0
M  V30 19428 O 1838.92 -3.97012 -1.11603 0
M  V30 19429 H 1838.26 -0.660685 0.0662654 0
M  V30 19430 H 1840.79 -1.87646 0.815486 0
M  V30 19431 H 1840.8 -4.07137 -0.265161 0
M  V30 19432 H 1839.47 -4.06328 0.887164 0
M  V30 19433 H 1838.05 -3.6212 -0.890146 0
M  V30 19434 N 1840.23 -0.328564 -1.54137 0
M  V30 19435 C 1841.48 0.272909 -2.00955 0
M  V30 19436 C 1841.81 1.51393 -1.2163 0
M  V30 19437 O 1841.09 1.92174 -0.299916 0
M  V30 19438 C 1841.37 0.602055 -3.55031 0
M  V30 19439 C 1841.22 -0.650016 -4.45078 0
M  V30 19440 C 1842.54 1.4177 -4.1664 0
M  V30 19441 H 1839.66 0.0977177 -0.730493 0
M  V30 19442 H 1842.3 -0.446133 -1.84688 0
M  V30 19443 H 1840.45 1.21464 -3.69024 0
M  V30 19444 H 1842.13 -1.28821 -4.42948 0
M  V30 19445 H 1840.37 -1.2779 -4.1455 0
M  V30 19446 H 1841.04 -0.375181 -5.50724 0
M  V30 19447 H 1843.52 0.899849 -4.06254 0
M  V30 19448 H 1842.39 1.61676 -5.24549 0
M  V30 19449 H 1842.65 2.41534 -3.70289 0
M  V30 19450 N 1841.71 1.57497 -0.0568439 0
M  V30 19451 C 1842.66 2.11862 0.915593 0
M  V30 19452 C 1843.63 1.02738 1.30515 0
M  V30 19453 O 1844.81 1.30318 1.39362 0
M  V30 19454 C 1841.95 2.67269 2.18315 0
M  V30 19455 C 1841.07 3.90498 1.84757 0
M  V30 19456 C 1840.2 4.342 3.06013 0
M  V30 19457 C 1839.24 5.50115 2.68403 0
M  V30 19458 N 1838.38 5.88844 3.8237 0
M  V30 19459 H 1843.22 2.94657 0.445101 0
M  V30 19460 H 1840.76 1.45621 0.20807 0
M  V30 19461 H 1842.71 2.97494 2.92494 0
M  V30 19462 H 1841.34 1.87262 2.62931 0
M  V30 19463 H 1840.4 3.66828 1.00703 0
M  V30 19464 H 1841.71 4.7473 1.53077 0
M  V30 19465 H 1840.86 4.66008 3.88486 0
M  V30 19466 H 1839.6 3.4879 3.40876 0
M  V30 19467 H 1838.61 5.17973 1.84348 0
M  V30 19468 H 1839.83 6.37244 2.34726 0
M  V30 19469 H 1837.78 5.06387 4.17024 0
M  V30 19470 H 1837.69 6.67781 3.54407 0
M  V30 19471 H 1838.96 6.25269 4.65466 0
M  V30 19472 O 1843.23 -0.0841476 1.61281 0
M  V30 19473 H 1843.92 -0.711501 1.80159 0
M  V30 END ATOM
M  V30 BEGIN BOND
M  V30 END BOND
M  V30 END CTAB
M  END
$$$$
