drugbank_target|P17297 Biphenyl-2,3-diol 1,2-dioxygenase (DB02923)
 OpenBabel12092119583D

  0  0  0     0  0            999 V3000
M  V30 BEGIN CTAB
M  V30 COUNTS 4485 4546 0 0 0
M  V30 BEGIN ATOM
M  V30 1 H -0.908 1.98254 -0.117106 0
M  V30 2 N 0 1.576 0 0
M  V30 3 C 0.933 2.03868 1.02534 0
M  V30 4 C 1.911 0.928543 1.3348 0
M  V30 5 O 3.095 1.19667 1.45644 0
M  V30 6 C 0.222 2.43627 2.35294 0
M  V30 7 C -0.732 3.65373 2.2001 0
M  V30 8 S 0.101 5.13292 1.52614 0
M  V30 9 C 1.257 5.56322 2.86805 0
M  V30 10 H 1.49 2.90518 0.631377 0
M  V30 11 H -0.977 1.52953 0.210867 0
M  V30 12 H 0.981 2.67203 3.11629 0
M  V30 13 H -0.358 1.57376 2.7183 0
M  V30 14 H -1.165 3.90944 3.18086 0
M  V30 15 H -1.563 3.418 1.51819 0
M  V30 16 H 0.729 5.58782 3.83104 0
M  V30 17 H 1.672 6.56266 2.65933 0
M  V30 18 H 2.08 4.83886 2.90714 0
M  V30 19 N 1.4781 -0.272755 1.55222 0
M  V30 20 C 2.7031 -1.02683 1.80197 0
M  V30 21 C 3.1281 -1.79142 0.573551 0
M  V30 22 O 2.4861 -1.74917 -0.476849 0
M  V30 23 C 2.5341 -1.9609 3.02624 0
M  V30 24 O 1.6381 -3.04863 2.77727 0
M  V30 25 H 0.9791 -0.293557 0.595584 0
M  V30 26 H 3.5091 -0.30159 2.02365 0
M  V30 27 H 3.5191 -2.38039 3.31363 0
M  V30 28 H 2.1941 -1.39851 3.91682 0
M  V30 29 H 0.7711 -2.67228 2.60084 0
M  V30 30 N 2.9562 -1.48159 -0.537278 0
M  V30 31 C 4.2052 -1.5506 -1.28993 0
M  V30 32 C 4.5182 -0.226211 -1.94288 0
M  V30 33 O 5.7242 -0.173395 -2.70946 0
M  V30 34 C 4.1802 -2.73429 -2.34018 0
M  V30 35 C 3.7882 -4.1248 -1.74825 0
M  V30 36 C 5.5322 -2.89638 -3.10339 0
M  V30 37 C 3.4392 -5.22121 -2.77747 0
M  V30 38 H 2.3692 -0.577231 -0.485098 0
M  V30 39 H 5.0202 -1.74478 -0.568317 0
M  V30 40 H 3.4022 -2.47431 -3.09182 0
M  V30 41 H 4.5762 -4.48466 -1.05899 0
M  V30 42 H 2.8912 -4.01327 -1.11022 0
M  V30 43 H 5.4882 -3.68718 -3.87235 0
M  V30 44 H 5.8312 -1.9882 -3.65754 0
M  V30 45 H 6.3642 -3.15502 -2.42288 0
M  V30 46 H 3.1032 -6.1488 -2.27161 0
M  V30 47 H 2.6232 -4.90631 -3.45024 0
M  V30 48 H 4.3022 -5.49924 -3.4087 0
M  V30 49 N 4.4343 0.785586 -1.36625 0
M  V30 50 C 5.3443 1.92964 -1.33425 0
M  V30 51 C 6.3603 1.72394 -0.235851 0
M  V30 52 O 7.5363 1.95866 -0.468878 0
M  V30 53 C 4.6013 3.27884 -1.12662 0
M  V30 54 C 3.6623 3.61204 -2.32013 0
M  V30 55 C 2.8953 4.89687 -2.12231 0
M  V30 56 O 3.1183 5.59704 -1.09945 0
M  V30 57 O 2.0523 5.21752 -3.00098 0
M  V30 58 H 5.8783 1.98613 -2.29753 0
M  V30 59 H 3.4633 0.926384 -1.17211 0
M  V30 60 H 5.3453 4.08614 -1.03016 0
M  V30 61 H 4.0203 3.23118 -0.193991 0
M  V30 62 H 2.9273 2.80765 -2.47228 0
M  V30 63 H 4.2603 3.70698 -3.23796 0
M  V30 64 N 5.9124 1.20967 1.01018 0
M  V30 65 C 7.3284 0.965905 1.27053 0
M  V30 66 C 7.5284 -0.350785 1.98423 0
M  V30 67 O 6.5844 -1.07773 2.28344 0
M  V30 68 C 7.8974 2.15294 2.09926 0
M  V30 69 C 9.4454 2.19463 2.23171 0
M  V30 70 C 9.9204 3.3767 3.09424 0
M  V30 71 N 11.4114 3.37724 3.17012 0
M  V30 72 C 12.1464 4.25837 3.83993 0
M  V30 73 N 11.6424 5.24138 4.53047 0
M  V30 74 N 13.4354 4.1366 3.80581 0
M  V30 75 H 5.5864 2.0565 0.531194 0
M  V30 76 H 7.8494 0.90024 0.297106 0
M  V30 77 H 7.5554 3.10684 1.64828 0
M  V30 78 H 7.4294 2.13923 3.10672 0
M  V30 79 H 9.8164 1.24632 2.6749 0
M  V30 80 H 9.8974 2.2488 1.21912 0
M  V30 81 H 9.5414 4.32791 2.65808 0
M  V30 82 H 9.4714 3.29491 4.10784 0
M  V30 83 H 11.9624 2.6658 2.6785 0
M  V30 84 H 12.2754 5.87684 5.01844 0
M  V30 85 H 10.6204 5.28068 4.5185 0
M  V30 86 H 13.8114 3.36127 3.25785 0
M  V30 87 H 13.9844 4.82538 4.32505 0
M  V30 88 N 7.3905 -1.2043 1.01659 0
M  V30 89 C 8.3205 -2.25466 0.607226 0
M  V30 90 C 9.3015 -1.65853 -0.377716 0
M  V30 91 O 10.4865 -1.92409 -0.263149 0
M  V30 92 C 7.6165 -3.47256 -0.0552949 0
M  V30 93 C 6.5705 -4.19462 0.850632 0
M  V30 94 C 5.8965 -5.34673 0.0538859 0
M  V30 95 C 7.1965 -4.75603 2.15868 0
M  V30 96 H 8.8905 -2.59962 1.48526 0
M  V30 97 H 6.4365 -1.2496 0.715605 0
M  V30 98 H 8.3895 -4.19917 -0.353233 0
M  V30 99 H 7.1135 -3.11924 -0.968045 0
M  V30 100 H 5.7725 -3.48667 1.13257 0
M  V30 101 H 5.4205 -4.95585 -0.860514 0
M  V30 102 H 5.1205 -5.83913 0.657192 0
M  V30 103 H 6.6445 -6.10138 -0.237598 0
M  V30 104 H 8.0585 -5.40083 1.92311 0
M  V30 105 H 6.4555 -5.3528 2.71284 0
M  V30 106 H 7.5255 -3.94346 2.82169 0
M  V30 107 N 8.8686 -0.792821 -1.36206 0
M  V30 108 C 10.1166 -0.366062 -1.98757 0
M  V30 109 C 10.4376 1.0668 -1.63231 0
M  V30 110 O 9.7076 1.73587 -0.907978 0
M  V30 111 H 8.2876 -0.132364 -0.735179 0
M  V30 112 H 10.9496 -1.01562 -1.66347 0
M  V30 113 H 10.0456 -0.460638 -3.08682 0
M  V30 114 N 10.3467 1.47872 -0.545128 0
M  V30 115 C 11.5767 2.06589 -0.0210534 0
M  V30 116 C 11.9847 1.39997 1.27269 0
M  V30 117 O 11.3277 0.486421 1.77143 0
M  V30 118 C 11.3897 3.58574 0.257933 0
M  V30 119 C 11.0537 4.47132 -0.944573 0
M  V30 120 C 12.0507 4.85986 -1.84699 0
M  V30 121 C 9.7357 4.88821 -1.15584 0
M  V30 122 C 11.7297 5.65314 -2.94446 0
M  V30 123 C 9.4167 5.67916 -2.25642 0
M  V30 124 C 10.4147 6.06073 -3.14905 0
M  V30 125 O 10.1027 6.83578 -4.23057 0
M  V30 126 H 9.8347 0.674971 -0.0372899 0
M  V30 127 H 12.3887 1.91037 -0.754599 0
M  V30 128 H 10.6187 3.72295 1.04564 0
M  V30 129 H 12.3077 3.99356 0.72592 0
M  V30 130 H 13.0737 4.54388 -1.69577 0
M  V30 131 H 8.9527 4.58595 -0.470279 0
M  V30 132 H 12.4967 5.95016 -3.64145 0
M  V30 133 H 8.3937 5.98927 -2.40742 0
M  V30 134 H 9.1617 7.01954 -4.20954 0
M  V30 135 N 11.8248 0.280983 1.55075 0
M  V30 136 C 12.7548 -0.597469 2.25727 0
M  V30 137 C 13.7358 -1.15417 1.24952 0
M  V30 138 O 14.9208 -1.18722 1.53684 0
M  V30 139 C 12.0508 -1.7789 2.98283 0
M  V30 140 C 11.0048 -1.35347 4.06036 0
M  V30 141 C 10.3308 -2.61846 4.66198 0
M  V30 142 C 11.6308 -0.499354 5.19907 0
M  V30 143 H 13.3248 -0.00824265 2.99399 0
M  V30 144 H 10.8708 -0.0025244 1.44 0
M  V30 145 H 12.8238 -2.39937 3.46422 0
M  V30 146 H 11.5478 -2.39405 2.22155 0
M  V30 147 H 10.2068 -0.756156 3.58717 0
M  V30 148 H 9.8548 -3.21632 3.86732 0
M  V30 149 H 9.5548 -2.3409 5.38958 0
M  V30 150 H 11.0788 -3.24732 5.1709 0
M  V30 151 H 12.4928 -1.02498 5.64063 0
M  V30 152 H 10.8898 -0.316424 5.99265 0
M  V30 153 H 11.9598 0.480459 4.82514 0
M  V30 154 N 13.3029 -1.57598 0.00835791 0
M  V30 155 C 14.5509 -1.90551 -0.6734 0
M  V30 156 C 14.8719 -0.883301 -1.73847 0
M  V30 157 O 14.1419 0.0781442 -1.95744 0
M  V30 158 H 12.7219 -0.703312 -0.251717 0
M  V30 159 H 15.3839 -1.94833 0.0512592 0
M  V30 160 H 14.4799 -2.9056 -1.13935 0
M  V30 161 N 14.781 0.264519 -1.55364 0
M  V30 162 C 16.028 0.994986 -1.7637 0
M  V30 163 C 16.356 1.85976 -0.5695 0
M  V30 164 O 15.611 1.90509 0.44776 0
M  V30 165 C 15.91 1.9004 -3.02687 0
M  V30 166 C 15.576 1.19243 -4.34847 0
M  V30 167 C 14.238 0.996709 -4.70764 0
M  V30 168 C 16.59 0.689296 -5.16622 0
M  V30 169 C 13.918 0.285261 -5.86006 0
M  V30 170 C 16.27 -0.00860079 -6.32599 0
M  V30 171 C 14.934 -0.215963 -6.67151 0
M  V30 172 H 14.204 0.364091 -0.645383 0
M  V30 173 H 16.851 0.266543 -1.89636 0
M  V30 174 H 15.156 2.69533 -2.84357 0
M  V30 175 H 16.853 2.46695 -3.16137 0
M  V30 176 H 13.443 1.3549 -4.06621 0
M  V30 177 H 17.627 0.828108 -4.89342 0
M  V30 178 H 12.883 0.113961 -6.11294 0
M  V30 179 H 17.057 -0.406186 -6.95214 0
M  V30 180 H 14.684 -0.769217 -7.56298 0
M  V30 181 N 16.2591 1.48442 0.529413 0
M  V30 182 C 17.2221 1.62524 1.61612 0
M  V30 183 C 18.2221 0.498509 1.52877 0
M  V30 184 O 19.4121 0.76431 1.56537 0
M  V30 185 C 16.5441 1.59597 3.01233 0
M  V30 186 H 17.7371 2.59423 1.50465 0
M  V30 187 H 15.2901 1.37047 0.751514 0
M  V30 188 H 16.0251 0.641781 3.17886 0
M  V30 189 H 15.8101 2.41397 3.08982 0
M  V30 190 H 17.3001 1.72646 3.80241 0
M  V30 191 N 17.7372 -0.778329 1.37039 0
M  V30 192 C 18.9832 -1.53892 1.32079 0
M  V30 193 C 19.3162 -1.9396 -0.0965386 0
M  V30 194 O 18.5912 -1.63568 -1.05242 0
M  V30 195 C 18.8742 -2.80847 2.25382 0
M  V30 196 C 18.7272 -2.47076 3.75864 0
M  V30 197 C 20.0462 -3.82741 2.1725 0
M  V30 198 H 17.1652 -0.558303 0.48111 0
M  V30 199 H 19.8072 -0.893397 1.67685 0
M  V30 200 H 17.9572 -3.35931 1.95148 0
M  V30 201 H 19.6292 -1.97957 4.16666 0
M  V30 202 H 17.8722 -1.79863 3.94755 0
M  V30 203 H 18.5432 -3.37798 4.36574 0
M  V30 204 H 21.0192 -3.37133 2.43887 0
M  V30 205 H 19.8952 -4.69303 2.84686 0
M  V30 206 H 20.1562 -4.2652 1.16331 0
M  V30 207 N 19.2153 -1.21501 -1.00376 0
M  V30 208 C 20.1623 -0.975387 -2.09177 0
M  V30 209 C 21.1323 0.0990615 -1.65804 0
M  V30 210 O 22.3173 -0.0483147 -1.90739 0
M  V30 211 C 19.4573 -0.547507 -3.40729 0
M  V30 212 C 18.5703 -1.69153 -3.97506 0
M  V30 213 C 17.7053 -1.2127 -5.17172 0
M  V30 214 C 16.7443 -2.32897 -5.66061 0
M  V30 215 N 15.8813 -1.86138 -6.76976 0
M  V30 216 H 20.7213 -1.9068 -2.29009 0
M  V30 217 H 18.2583 -0.950257 -1.12288 0
M  V30 218 H 20.2163 -0.280667 -4.16255 0
M  V30 219 H 18.8463 0.346904 -3.20931 0
M  V30 220 H 17.8983 -2.07298 -3.18954 0
M  V30 221 H 19.2103 -2.5316 -4.29781 0
M  V30 222 H 18.3643 -0.902591 -5.99948 0
M  V30 223 H 17.1033 -0.342692 -4.86495 0
M  V30 224 H 16.1083 -2.64709 -4.81881 0
M  V30 225 H 17.3333 -3.20396 -5.98768 0
M  V30 226 H 15.2793 -1.01484 -6.48103 0
M  V30 227 H 15.1963 -2.63717 -7.08512 0
M  V30 228 H 16.4643 -1.58165 -7.63285 0
M  V30 229 N 20.6934 1.19889 -1.02296 0
M  V30 230 C 21.9704 1.85148 -0.630832 0
M  V30 231 C 22.3504 1.91385 0.890782 0
M  V30 232 O 21.6984 1.42642 1.78509 0
M  V30 233 C 21.9084 3.24442 -1.28602 0
M  V30 234 C 23.2564 4.00663 -1.4055 0
M  V30 235 O 24.2804 3.33818 -1.24273 0
M  V30 236 O 23.1394 5.20387 -1.66913 0
M  V30 237 H 20.2334 0.797613 -0.218499 0
M  V30 238 H 22.7794 1.27427 -1.12074 0
M  V30 239 H 21.5514 3.14704 -2.32545 0
M  V30 240 H 21.1744 3.89802 -0.7836 0
M  V30 241 N 22.1715 0.800033 1.35784 0
M  V30 242 C 23.4175 0.377901 1.99248 0
M  V30 243 C 23.7505 -1.05052 1.63333 0
M  V30 244 O 23.0255 -1.72768 0.893385 0
M  V30 245 C 23.3085 0.553922 3.55814 0
M  V30 246 C 23.1615 2.0268 4.01548 0
M  V30 247 C 24.4805 -0.0244802 4.40093 0
M  V30 248 H 21.5995 0.138782 0.723815 0
M  V30 249 H 24.2415 1.00835 1.61035 0
M  V30 250 H 22.3915 0.0172398 3.88496 0
M  V30 251 H 24.0635 2.62536 3.79305 0
M  V30 252 H 22.3065 2.5256 3.52698 0
M  V30 253 H 22.9775 2.10087 5.10458 0
M  V30 254 H 25.4535 0.433775 4.13833 0
M  V30 255 H 24.3295 0.128637 5.48749 0
M  V30 256 H 24.5905 -1.11758 4.27741 0
M  V30 257 N 23.6496 -1.47581 0.552962 0
M  V30 258 C 25.0606 -1.86324 0.118463 0
M  V30 259 C 25.4116 -1.46006 -1.3106 0
M  V30 260 O 24.5366 -0.861182 -1.98526 0
M  V30 261 C 25.1316 -3.3816 0.20821 0
M  V30 262 C 23.6906 -3.7601 -0.171226 0
M  V30 263 C 22.8376 -2.71634 0.557686 0
M  V30 264 H 25.7886 -1.39159 0.762928 0
M  V30 265 H 25.8096 -3.76141 -0.574278 0
M  V30 266 H 25.3216 -3.67473 1.24841 0
M  V30 267 H 23.4226 -3.52313 -1.21269 0
M  V30 268 H 23.5356 -4.78745 0.184379 0
M  V30 269 H 21.8996 -2.547 0.00125792 0
M  V30 270 H 22.6826 -3.0379 1.59896 0
M  V30 271 N 25.1277 -0.289203 -1.54924 0
M  V30 272 C 26.0907 0.579144 -2.21762 0
M  V30 273 C 27.0907 1.07047 -1.1999 0
M  V30 274 O 28.2807 0.968384 -1.44803 0
M  V30 275 C 25.4127 1.80055 -2.8947 0
M  V30 276 H 26.6057 -0.00464908 -2.999 0
M  V30 277 H 24.1587 -0.0399306 -1.56249 0
M  V30 278 H 24.8937 2.42449 -2.15381 0
M  V30 279 H 24.6787 1.45602 -3.64064 0
M  V30 280 H 26.1687 2.41773 -3.40493 0
M  V30 281 N 26.6058 1.57591 -0.0167156 0
M  V30 282 C 27.8518 1.92399 0.659861 0
M  V30 283 C 28.2068 0.892561 1.70444 0
M  V30 284 O 27.4998 -0.0930755 1.91374 0
M  V30 285 C 27.6938 3.3172 1.33029 0
M  V30 286 C 27.5228 4.48319 0.352174 0
M  V30 287 C 26.2928 5.05281 -0.0434883 0
M  V30 288 C 28.4908 5.12831 -0.388474 0
M  V30 289 N 26.4728 6.05399 -1.01807 0
M  V30 290 C 27.8438 6.07934 -1.2172 0
M  V30 291 C 29.8988 4.95858 -0.450513 0
M  V30 292 C 28.6018 6.87891 -2.10235 0
M  V30 293 C 30.6278 5.76413 -1.32295 0
M  V30 294 C 29.9898 6.71123 -2.13948 0
M  V30 295 H 26.0888 0.752106 0.21415 0
M  V30 296 H 28.6728 1.94532 -0.0809846 0
M  V30 297 H 26.8438 3.3043 2.04134 0
M  V30 298 H 28.5758 3.5391 1.9629 0
M  V30 299 H 25.3308 4.7246 0.328384 0
M  V30 300 H 25.7548 6.60145 -1.50123 0
M  V30 301 H 30.3968 4.22472 0.166512 0
M  V30 302 H 28.1148 7.60591 -2.72997 0
M  V30 303 H 31.7008 5.65317 -1.37508 0
M  V30 304 H 30.5808 7.3237 -2.80364 0
M  V30 305 N 28.0839 -0.256276 1.55502 0
M  V30 306 C 29.3609 -1.00789 1.67633 0
M  V30 307 C 29.7409 -2.03706 0.553826 0
M  V30 308 O 29.0889 -2.24145 -0.443969 0
M  V30 309 C 29.2989 -1.64968 3.07549 0
M  V30 310 C 30.6469 -2.15505 3.65845 0
M  V30 311 O 31.6709 -1.74925 3.1029 0
M  V30 312 O 30.5299 -2.89986 4.63217 0
M  V30 313 H 27.6239 -0.468553 0.681459 0
M  V30 314 H 30.1699 -0.250806 1.67836 0
M  V30 315 H 28.9419 -0.904785 3.80696 0
M  V30 316 H 28.5649 -2.47321 3.11317 0
M  V30 317 N 29.562 -1.4872 -0.521534 0
M  V30 318 C 30.512 -1.60269 -1.62166 0
M  V30 319 C 31.496 -0.45935 -1.54204 0
M  V30 320 O 32.688 -0.711241 -1.62081 0
M  V30 321 C 29.817 -1.65344 -3.00859 0
M  V30 322 C 28.903 -2.85187 -3.13894 0
M  V30 323 N 29.294 -4.09509 -2.96877 0
M  V30 324 C 27.592 -2.82695 -3.44963 0
M  V30 325 C 28.293 -4.89959 -3.13552 0
M  V30 326 N 27.269 -4.22934 -3.41508 0
M  V30 327 H 31.071 -2.5413 -1.47632 0
M  V30 328 H 28.585 -1.45209 -0.727194 0
M  V30 329 H 30.582 -1.71713 -3.79895 0
M  V30 330 H 29.242 -0.726058 -3.16478 0
M  V30 331 H 30.253 -4.39814 -2.73467 0
M  V30 332 H 26.93 -1.99249 -3.66887 0
M  V30 333 H 28.32 -5.98654 -3.05061 0
M  V30 334 N 31.0401 0.771051 -1.3745 0
M  V30 335 C 32.2871 1.52963 -1.32697 0
M  V30 336 C 32.6151 1.94299 0.0883274 0
M  V30 337 O 31.8701 1.64397 1.0617 0
M  V30 338 C 32.1691 2.80676 -2.2126 0
M  V30 339 C 31.8351 2.58389 -3.69521 0
M  V30 340 C 30.4971 2.52019 -4.09927 0
M  V30 341 C 32.8491 2.38469 -4.63446 0
M  V30 342 C 30.1771 2.23721 -5.42371 0
M  V30 343 C 32.5291 2.11694 -5.96128 0
M  V30 344 C 31.1931 2.03769 -6.35637 0
M  V30 345 H 30.4631 0.559732 -0.485573 0
M  V30 346 H 33.1101 0.888083 -1.69662 0
M  V30 347 H 31.4151 3.49392 -1.77291 0
M  V30 348 H 33.1121 3.38557 -2.14895 0
M  V30 349 H 29.7021 2.6421 -3.37478 0
M  V30 350 H 33.8861 2.4238 -4.33089 0
M  V30 351 H 29.1421 2.16081 -5.71943 0
M  V30 352 H 33.3161 1.9528 -6.6846 0
M  V30 353 H 30.9431 1.81606 -7.38189 0
M  V30 354 N 32.5182 1.22032 0.997298 0
M  V30 355 C 33.4482 1.01065 2.10495 0
M  V30 356 C 34.4292 -0.0669542 1.69968 0
M  V30 357 O 35.6142 0.0943987 1.9397 0
M  V30 358 C 32.7442 0.582874 3.42374 0
M  V30 359 C 31.6982 1.60592 3.96729 0
M  V30 360 C 31.0242 1.03412 5.24605 0
M  V30 361 C 32.3242 2.99478 4.27914 0
M  V30 362 H 34.0182 1.93708 2.28292 0
M  V30 363 H 31.5642 0.932761 1.09707 0
M  V30 364 H 33.5172 0.423332 4.19268 0
M  V30 365 H 32.2412 -0.379213 3.24391 0
M  V30 366 H 30.9002 1.75316 3.21963 0
M  V30 367 H 30.5482 0.063518 5.0296 0
M  V30 368 H 30.2482 1.71754 5.61938 0
M  V30 369 H 31.7722 0.886066 6.04137 0
M  V30 370 H 33.1862 2.88153 4.95622 0
M  V30 371 H 31.5832 3.64903 4.76409 0
M  V30 372 H 32.6532 3.49742 3.3587 0
M  V30 373 N 33.9963 -1.19345 1.0293 0
M  V30 374 C 35.2243 -1.92997 0.745644 0
M  V30 375 C 35.6393 -1.75519 -0.695589 0
M  V30 376 O 34.9963 -1.07737 -1.47306 0
M  V30 377 C 35.0473 -3.44741 1.08792 0
M  V30 378 O 34.7683 -3.61658 2.47256 0
M  V30 379 C 36.2693 -4.35515 0.827129 0
M  V30 380 H 33.4893 -0.613042 0.272801 0
M  V30 381 H 36.0333 -1.51473 1.3739 0
M  V30 382 H 34.1883 -3.84097 0.504832 0
M  V30 383 H 34.6023 -4.55514 2.60015 0
M  V30 384 H 36.0763 -5.40589 1.11658 0
M  V30 385 H 36.5533 -4.38552 -0.238436 0
M  V30 386 H 37.1593 -4.01841 1.39297 0
M  V30 387 N 35.4744 -0.807222 -1.35358 0
M  V30 388 C 36.4214 -0.216037 -2.29787 0
M  V30 389 C 37.3914 0.650278 -1.52842 0
M  V30 390 O 38.5764 0.595227 -1.81278 0
M  V30 391 C 35.7164 0.628893 -3.39321 0
M  V30 392 C 34.8294 -0.257927 -4.31229 0
M  V30 393 C 33.9644 0.595069 -5.27856 0
M  V30 394 C 33.0034 -0.292111 -6.11403 0
M  V30 395 N 32.1404 0.520895 -7.00165 0
M  V30 396 H 36.9804 -1.02671 -2.79755 0
M  V30 397 H 34.5174 -0.517839 -1.37684 0
M  V30 398 H 36.4754 1.13393 -4.01494 0
M  V30 399 H 35.1054 1.40482 -2.90628 0
M  V30 400 H 34.1574 -0.881076 -3.70056 0
M  V30 401 H 35.4694 -0.940759 -4.89848 0
M  V30 402 H 34.6234 1.16522 -5.95405 0
M  V30 403 H 33.3624 1.31146 -4.69736 0
M  V30 404 H 32.3674 -0.874525 -5.428 0
M  V30 405 H 33.5924 -1.00638 -6.71602 0
M  V30 406 H 31.5384 1.22125 -6.44532 0
M  V30 407 H 31.4554 -0.103877 -7.55929 0
M  V30 408 H 32.7234 1.0743 -7.72062 0
M  V30 409 N 36.9525 1.47285 -0.560781 0
M  V30 410 C 38.1775 2.07359 -0.0410566 0
M  V30 411 C 38.6025 1.41017 1.24483 0
M  V30 412 O 37.9605 0.486368 1.74654 0
M  V30 413 C 38.0085 3.6035 0.134123 0
M  V30 414 O 37.1125 3.94681 1.19587 0
M  V30 415 H 36.4535 0.661887 -0.0529291 0
M  V30 416 H 38.9835 1.89252 -0.777482 0
M  V30 417 H 38.9935 4.0652 0.347207 0
M  V30 418 H 37.6685 4.08034 -0.805047 0
M  V30 419 H 36.2455 3.60251 0.962987 0
M  V30 420 N 38.4306 0.297415 1.54768 0
M  V30 421 C 39.6766 -0.313376 2.00364 0
M  V30 422 C 40.0096 -1.53815 1.18553 0
M  V30 423 O 39.2846 -1.92739 0.261103 0
M  V30 424 C 39.5676 -0.673525 3.53745 0
M  V30 425 C 39.4206 0.560133 4.46299 0
M  V30 426 C 40.7396 -1.50143 4.13697 0
M  V30 427 H 37.8586 -0.112428 0.728374 0
M  V30 428 H 40.5006 0.4088 1.8555 0
M  V30 429 H 38.6506 -1.28881 3.665 0
M  V30 430 H 40.3226 1.19863 4.45455 0
M  V30 431 H 38.5656 1.19405 4.17043 0
M  V30 432 H 39.2366 0.26405 5.51368 0
M  V30 433 H 41.7126 -0.981588 4.04356 0
M  V30 434 H 40.5886 -1.72221 5.21182 0
M  V30 435 H 40.8496 -2.48952 3.65343 0
M  V30 436 N 39.9087 -1.5758 0.0250728 0
M  V30 437 C 41.1567 -1.91255 -0.653151 0
M  V30 438 C 41.4777 -0.901691 -1.729 0
M  V30 439 O 40.7477 0.0573785 -1.95816 0
M  V30 440 H 39.3277 -0.705942 -0.244243 0
M  V30 441 H 41.9897 -1.94767 0.0719209 0
M  V30 442 H 41.0857 -2.91752 -1.10847 0
M  V30 443 N 41.3868 0.248026 -1.55636 0
M  V30 444 C 42.3168 1.31079 -1.93237 0
M  V30 445 C 43.2978 1.50264 -0.797174 0
M  V30 446 O 44.4828 1.62891 -1.05737 0
M  V30 447 C 41.6128 2.66575 -2.22609 0
M  V30 448 C 40.5668 2.62087 -3.3837 0
M  V30 449 C 39.8928 4.01369 -3.53281 0
M  V30 450 C 41.1928 2.19171 -4.7409 0
M  V30 451 H 42.8868 0.998556 -2.82257 0
M  V30 452 H 40.4328 0.47891 -1.35803 0
M  V30 453 H 42.3858 3.41057 -2.47503 0
M  V30 454 H 41.1098 2.99432 -1.30414 0
M  V30 455 H 39.7688 1.90063 -3.13483 0
M  V30 456 H 39.4168 4.31489 -2.58508 0
M  V30 457 H 39.1168 3.99254 -4.31127 0
M  V30 458 H 40.6408 4.77552 -3.80495 0
M  V30 459 H 42.0548 2.83384 -4.98363 0
M  V30 460 H 40.4518 2.2817 -5.5503 0
M  V30 461 H 41.5218 1.14336 -4.71227 0
M  V30 462 N 42.8649 1.48995 0.513639 0
M  V30 463 C 43.7979 1.59319 1.63379 0
M  V30 464 C 44.7759 0.442816 1.56454 0
M  V30 465 O 45.9599 0.656655 1.76693 0
M  V30 466 C 43.0869 1.5364 3.01848 0
M  V30 467 C 42.1329 2.7372 3.27078 0
M  V30 468 S 42.9659 4.35528 3.1157 0
M  V30 469 C 44.1219 4.32473 4.52458 0
M  V30 470 H 44.3549 2.54079 1.54374 0
M  V30 471 H 41.8879 1.3773 0.697849 0
M  V30 472 H 43.8459 1.51049 3.81699 0
M  V30 473 H 42.5069 0.601898 3.08279 0
M  V30 474 H 41.6999 2.6593 4.28132 0
M  V30 475 H 41.3019 2.73657 2.54927 0
M  V30 476 H 43.5939 4.03414 5.44301 0
M  V30 477 H 44.5369 5.33762 4.65299 0
M  V30 478 H 44.9449 3.62718 4.32546 0
M  V30 479 N 44.343 -0.763751 1.37857 0
M  V30 480 C 45.306 -1.85889 1.34081 0
M  V30 481 C 46.306 -1.58949 0.243277 0
M  V30 482 O 47.496 -1.66882 0.499589 0
M  V30 483 C 44.628 -3.23176 1.08489 0
M  V30 484 H 45.821 -1.90648 2.31502 0
M  V30 485 H 43.374 -0.964367 1.23003 0
M  V30 486 H 44.109 -3.24091 0.116318 0
M  V30 487 H 43.894 -3.44124 1.8794 0
M  V30 488 H 45.384 -4.03254 1.08517 0
M  V30 489 N 45.8211 -1.22559 -0.990812 0
M  V30 490 C 46.7841 -0.998863 -2.0629 0
M  V30 491 C 47.7841 0.0354834 -1.60761 0
M  V30 492 O 48.9741 -0.203231 -1.7301 0
M  V30 493 C 46.1061 -0.509203 -3.37076 0
M  V30 494 H 47.2991 -1.95014 -2.27837 0
M  V30 495 H 44.8521 -1.04456 -1.16269 0
M  V30 496 H 45.5871 0.446335 -3.21214 0
M  V30 497 H 45.3721 -1.25547 -3.71457 0
M  V30 498 H 46.8621 -0.370888 -4.1595 0
M  V30 499 N 47.2992 1.18797 -1.03562 0
M  V30 500 C 48.5472 1.88278 -0.734569 0
M  V30 501 C 48.8682 1.8043 0.739586 0
M  V30 502 O 48.1382 1.21925 1.53333 0
M  V30 503 H 46.7182 0.696991 -0.268725 0
M  V30 504 H 49.3802 1.44192 -1.31129 0
M  V30 505 H 48.4762 2.94443 -1.03489 0
M  V30 506 N 48.7773 0.814389 1.34928 0
M  V30 507 C 50.0023 0.410097 2.03305 0
M  V30 508 C 50.4273 -0.973464 1.60951 0
M  V30 509 O 49.7853 -1.63185 0.789964 0
M  V30 510 C 49.8333 0.51049 3.56968 0
M  V30 511 O 48.9373 -0.473035 4.09678 0
M  V30 512 H 48.2783 0.170088 0.641846 0
M  V30 513 H 50.8083 1.10244 1.72358 0
M  V30 514 H 50.8183 0.383135 4.06197 0
M  V30 515 H 49.4933 1.51963 3.87144 0
M  V30 516 H 48.0703 -0.305272 3.71648 0
M  V30 517 N 50.2554 -1.46986 0.568584 0
M  V30 518 C 51.2184 -2.28624 -0.162366 0
M  V30 519 C 52.2184 -1.37596 -0.832103 0
M  V30 520 O 53.4084 -1.60115 -0.68622 0
M  V30 521 C 50.5404 -3.17596 -1.23878 0
M  V30 522 H 51.7334 -2.94722 0.554899 0
M  V30 523 H 49.2864 -1.52863 0.325976 0
M  V30 524 H 50.0214 -2.56214 -1.98808 0
M  V30 525 H 49.8064 -3.846 -0.763219 0
M  V30 526 H 51.2964 -3.79078 -1.75185 0
M  V30 527 N 51.7335 -0.305618 -1.54608 0
M  V30 528 C 52.9815 0.301701 -1.99835 0
M  V30 529 C 53.3025 1.54054 -1.19551 0
M  V30 530 O 52.5725 1.93702 -0.292658 0
M  V30 531 H 51.1525 0.114468 -0.738178 0
M  V30 532 H 53.8145 -0.418016 -1.90364 0
M  V30 533 H 52.9105 0.570548 -3.06841 0
M  V30 534 N 53.2116 1.57565 -0.0334293 0
M  V30 535 C 54.4886 1.83282 0.683163 0
M  V30 536 C 54.8686 0.91823 1.90084 0
M  V30 537 O 54.2166 -0.025113 2.28486 0
M  V30 538 C 54.4266 3.32599 1.0573 0
M  V30 539 C 55.7746 3.99179 1.44711 0
M  V30 540 O 56.7986 3.3712 1.15015 0
M  V30 541 O 55.6576 5.08565 2.0006 0
M  V30 542 H 52.7516 0.755869 0.335546 0
M  V30 543 H 55.2976 1.69589 -0.0614402 0
M  V30 544 H 54.0696 3.90834 0.190828 0
M  V30 545 H 53.6926 3.51415 1.85993 0
M  V30 546 N 54.6897 -0.239769 1.55765 0
M  V30 547 C 55.6527 -1.28038 1.90103 0
M  V30 548 C 56.6527 -1.40723 0.778055 0
M  V30 549 O 57.8427 -1.39301 1.04599 0
M  V30 550 C 54.9747 -2.65702 2.13577 0
M  V30 551 H 56.1677 -0.988048 2.83157 0
M  V30 552 H 53.7207 -0.479382 1.48767 0
M  V30 553 H 54.4557 -3.00063 1.23015 0
M  V30 554 H 54.2407 -2.57875 2.95369 0
M  V30 555 H 55.7307 -3.40828 2.41301 0
M  V30 556 N 56.1678 -1.49265 -0.50573 0
M  V30 557 C 57.1308 -1.65075 -1.59006 0
M  V30 558 C 58.1308 -0.522768 -1.52065 0
M  V30 559 O 59.3208 -0.789117 -1.55302 0
M  V30 560 C 56.4528 -1.64369 -2.98656 0
M  V30 561 H 57.6458 -2.61784 -1.46319 0
M  V30 562 H 55.1988 -1.38226 -0.729616 0
M  V30 563 H 55.9338 -0.692272 -3.16825 0
M  V30 564 H 55.7188 -2.46282 -3.05103 0
M  V30 565 H 57.2088 -1.78674 -3.77446 0
M  V30 566 N 57.6459 0.756429 -1.3826 0
M  V30 567 C 58.5759 1.88374 -1.37976 0
M  V30 568 C 59.5569 1.68311 -0.246082 0
M  V30 569 O 60.7419 1.88944 -0.44874 0
M  V30 570 C 57.8719 3.25864 -1.20125 0
M  V30 571 C 56.8259 3.60523 -2.30666 0
M  V30 572 C 56.1519 4.9672 -1.97923 0
M  V30 573 C 57.4519 3.65692 -3.72916 0
M  V30 574 H 59.1459 1.88869 -2.32312 0
M  V30 575 H 56.6919 0.907272 -1.11824 0
M  V30 576 H 58.6449 4.0438 -1.18552 0
M  V30 577 H 57.3689 3.25841 -0.222498 0
M  V30 578 H 56.0279 2.84324 -2.3142 0
M  V30 579 H 55.6759 4.93253 -0.985393 0
M  V30 580 H 55.3759 5.20878 -2.71955 0
M  V30 581 H 56.8999 5.77618 -1.97964 0
M  V30 582 H 58.3139 4.34328 -3.74208 0
M  V30 583 H 56.7109 4.01358 -4.4613 0
M  V30 584 H 57.7809 2.65987 -4.05436 0
M  V30 585 N 59.124 1.23083 0.984299 0
M  V30 586 C 60.354 1.08556 1.75781 0
M  V30 587 C 60.762 -0.366171 1.85623 0
M  V30 588 O 60.105 -1.26524 1.33182 0
M  V30 589 C 60.167 1.63208 3.20318 0
M  V30 590 C 59.831 3.11922 3.33997 0
M  V30 591 C 60.828 4.09259 3.2063 0
M  V30 592 C 58.513 3.51552 3.58771 0
M  V30 593 C 60.507 5.4421 3.31835 0
M  V30 594 C 58.194 4.86649 3.69616 0
M  V30 595 C 59.192 5.82787 3.56157 0
M  V30 596 O 58.88 7.15431 3.66626 0
M  V30 597 H 58.612 0.380713 0.5586 0
M  V30 598 H 61.166 1.63321 1.2456 0
M  V30 599 H 59.396 1.0286 3.72769 0
M  V30 600 H 61.085 1.44216 3.79416 0
M  V30 601 H 61.851 3.79984 3.01392 0
M  V30 602 H 57.73 2.77239 3.6832 0
M  V30 603 H 61.274 6.1923 3.21247 0
M  V30 604 H 57.171 5.15601 3.88363 0
M  V30 605 H 57.939 7.23127 3.83445 0
M  V30 606 N 60.6021 -1.18246 1.0419 0
M  V30 607 C 62.0181 -1.40269 0.761366 0
M  V30 608 C 62.2181 -1.90777 -0.648578 0
M  V30 609 O 61.2741 -2.0929 -1.41258 0
M  V30 610 C 62.5871 -2.40237 1.8085 0
M  V30 611 C 64.1351 -2.53961 1.82955 0
M  V30 612 C 64.6101 -3.57194 2.86664 0
M  V30 613 N 66.1011 -3.64702 2.85563 0
M  V30 614 C 66.8361 -4.44309 3.6246 0
M  V30 615 N 66.3321 -5.27514 4.49111 0
M  V30 616 N 68.1251 -4.39084 3.50944 0
M  V30 617 H 60.2761 -0.837882 1.95175 0
M  V30 618 H 62.5391 -0.430608 0.84456 0
M  V30 619 H 62.2451 -2.10176 2.81991 0
M  V30 620 H 62.1191 -3.39601 1.64168 0
M  V30 621 H 64.5061 -2.83338 0.824855 0
M  V30 622 H 64.5871 -1.54706 2.03715 0
M  V30 623 H 64.2311 -3.28558 3.87314 0
M  V30 624 H 64.1611 -4.5613 2.6316 0
M  V30 625 H 66.6521 -3.05289 2.22727 0
M  V30 626 H 66.9651 -5.85411 5.04493 0
M  V30 627 H 65.3101 -5.2693 4.53178 0
M  V30 628 H 68.5011 -3.7313 2.82651 0
M  V30 629 H 68.6741 -5.00883 4.11121 0
M  V30 630 N 62.0802 -0.821533 -1.34494 0
M  V30 631 C 63.0432 -0.247847 -2.27856 0
M  V30 632 C 64.0432 0.573453 -1.50227 0
M  V30 633 O 65.2332 0.389759 -1.69784 0
M  V30 634 C 62.3652 0.652698 -3.34593 0
M  V30 635 H 63.5582 -1.07146 -2.80107 0
M  V30 636 H 61.1112 -0.593291 -1.44602 0
M  V30 637 H 61.8462 1.49943 -2.87555 0
M  V30 638 H 61.6312 0.065292 -3.92046 0
M  V30 639 H 63.1212 1.04793 -4.04238 0
M  V30 640 N 63.5583 1.46682 -0.576371 0
M  V30 641 C 64.8353 1.95599 0.00703437 0
M  V30 642 C 65.2153 1.51904 1.46589 0
M  V30 643 O 64.5633 0.766755 2.15251 0
M  V30 644 C 64.7733 3.4864 -0.158404 0
M  V30 645 C 66.1213 4.24594 -0.0229439 0
M  V30 646 O 67.1453 3.56094 -0.0869173 0
M  V30 647 O 66.0043 5.46373 0.118015 0
M  V30 648 H 63.0983 0.825275 0.053384 0
M  V30 649 H 65.6443 1.56996 -0.644244 0
M  V30 650 H 64.4163 3.7331 -1.17282 0
M  V30 651 H 64.0393 3.94057 0.5296 0
M  V30 652 N 65.0364 0.313813 1.54444 0
M  V30 653 C 65.9684 -0.590425 2.21465 0
M  V30 654 C 66.9814 -1.08753 1.21147 0
M  V30 655 O 68.1704 -1.00278 1.4767 0
M  V30 656 C 65.2704 -1.82179 2.85769 0
M  V30 657 C 64.4434 -1.46502 4.12136 0
M  V30 658 C 63.5024 -2.55288 4.60124 0
M  V30 659 O 62.5284 -2.19842 5.25032 0
M  V30 660 N 63.7304 -3.86053 4.33525 0
M  V30 661 H 66.4954 -0.0166033 2.99695 0
M  V30 662 H 64.0564 0.136578 1.61323 0
M  V30 663 H 66.0484 -2.54328 3.14801 0
M  V30 664 H 64.6184 -2.30369 2.11303 0
M  V30 665 H 63.8384 -0.575595 3.89975 0
M  V30 666 H 65.1264 -1.20221 4.94393 0
M  V30 667 H 64.5244 -4.17654 3.81552 0
M  V30 668 H 63.0814 -4.54461 4.67235 0
M  V30 669 N 66.5145 -1.57545 0.0417849 0
M  V30 670 C 67.9305 -1.56467 -0.314704 0
M  V30 671 C 68.1305 -1.04859 -1.72066 0
M  V30 672 O 67.1865 -0.700983 -2.42575 0
M  V30 673 C 68.4995 -3.00317 -0.15174 0
M  V30 674 C 70.0475 -3.12201 -0.223553 0
M  V30 675 C 70.5225 -4.57913 -0.0892295 0
M  V30 676 N 72.0135 -4.6297 -0.145808 0
M  V30 677 C 72.7485 -5.73362 -0.0658459 0
M  V30 678 N 72.2445 -6.92769 0.0659282 0
M  V30 679 N 74.0375 -5.6197 -0.12075 0
M  V30 680 H 66.1885 -1.89416 0.961014 0
M  V30 681 H 68.4515 -0.871862 0.372237 0
M  V30 682 H 68.1575 -3.42073 0.817254 0
M  V30 683 H 68.0315 -3.65892 -0.916692 0
M  V30 684 H 70.4185 -2.70349 -1.18301 0
M  V30 685 H 70.4995 -2.49323 0.571994 0
M  V30 686 H 70.1435 -5.00448 0.866867 0
M  V30 687 H 70.0735 -5.18786 -0.903802 0
M  V30 688 H 72.5645 -3.7709 -0.247286 0
M  V30 689 H 72.8775 -7.72707 0.119905 0
M  V30 690 H 71.2225 -6.94927 0.100885 0
M  V30 691 H 74.4135 -4.67572 -0.222187 0
M  V30 692 H 74.5865 -6.47977 -0.0549735 0
M  V30 693 N 67.9926 0.231505 -1.5589 0
M  V30 694 C 68.9556 1.27028 -1.90779 0
M  V30 695 C 69.9556 1.40308 -0.785507 0
M  V30 696 O 71.1456 1.38744 -1.05336 0
M  V30 697 C 68.2776 2.64566 -2.14983 0
M  V30 698 H 69.4706 0.973017 -2.83677 0
M  V30 699 H 67.0236 0.471486 -1.49019 0
M  V30 700 H 67.7586 2.99406 -1.24604 0
M  V30 701 H 67.5436 2.56305 -2.96732 0
M  V30 702 H 69.0336 3.39543 -2.43105 0
M  V30 703 N 69.4707 1.49531 0.497807 0
M  V30 704 C 70.7167 1.60388 1.25089 0
M  V30 705 C 71.0717 0.288328 1.90227 0
M  V30 706 O 70.3647 -0.711706 1.77891 0
M  V30 707 C 70.5587 2.70252 2.33878 0
M  V30 708 C 70.3877 4.12363 1.79408 0
M  V30 709 C 69.1577 4.7911 1.60566 0
M  V30 710 C 71.3557 4.97491 1.30412 0
M  V30 711 N 69.3377 6.05525 1.01059 0
M  V30 712 C 70.7087 6.14411 0.830595 0
M  V30 713 C 72.7637 4.83466 1.19015 0
M  V30 714 C 71.4667 7.1885 0.254371 0
M  V30 715 C 73.4927 5.88057 0.627892 0
M  V30 716 C 72.8547 7.04208 0.16461 0
M  V30 717 H 68.9537 0.641246 0.447579 0
M  V30 718 H 71.5377 1.86549 0.557441 0
M  V30 719 H 69.7087 2.45858 3.0068 0
M  V30 720 H 71.4407 2.70613 3.00917 0
M  V30 721 H 68.1957 4.35961 1.85026 0
M  V30 722 H 68.6197 6.73028 0.732236 0
M  V30 723 H 73.2617 3.93978 1.53431 0
M  V30 724 H 70.9797 8.08036 -0.102052 0
M  V30 725 H 74.5657 5.79266 0.542444 0
M  V30 726 H 73.4457 7.83757 -0.263669 0
M  V30 727 N 70.9488 -0.749086 1.3866 0
M  V30 728 C 72.3648 -1.05276 1.19955 0
M  V30 729 C 72.5648 -2.01435 0.05134 0
M  V30 730 O 71.6208 -2.45232 -0.60147 0
M  V30 731 C 72.9338 -1.62853 2.52783 0
M  V30 732 C 74.4818 -1.75002 2.59506 0
M  V30 733 C 74.9568 -2.35991 3.92521 0
M  V30 734 N 76.4478 -2.43416 3.94085 0
M  V30 735 C 77.1828 -2.91511 4.9377 0
M  V30 736 N 76.6788 -3.39608 6.03853 0
M  V30 737 N 78.4718 -2.90592 4.81157 0
M  V30 738 H 70.6228 -0.111066 2.12109 0
M  V30 739 H 72.8858 -0.111901 0.941373 0
M  V30 740 H 72.5918 -0.99664 3.37283 0
M  V30 741 H 72.4658 -2.61854 2.715 0
M  V30 742 H 74.8528 -2.37317 1.75398 0
M  V30 743 H 74.9338 -0.74693 2.44652 0
M  V30 744 H 74.5778 -1.74308 4.77053 0
M  V30 745 H 74.5078 -3.3695 4.04688 0
M  V30 746 H 76.9988 -2.09405 3.14576 0
M  V30 747 H 77.3118 -3.74775 6.75843 0
M  V30 748 H 75.6568 -3.37653 6.07466 0
M  V30 749 H 78.8478 -2.52332 3.94267 0
M  V30 750 H 79.0208 -3.27762 5.58996 0
M  V30 751 N 72.4269 -1.23603 -0.977757 0
M  V30 752 C 73.6759 -1.06377 -1.71368 0
M  V30 753 C 73.9889 0.399062 -1.91486 0
M  V30 754 O 75.1949 0.691312 -2.62551 0
M  V30 755 C 73.6509 -1.85512 -3.08404 0
M  V30 756 C 73.2589 -3.36141 -2.96164 0
M  V30 757 C 75.0029 -1.76783 -3.85938 0
M  V30 758 C 72.9099 -4.07659 -4.28449 0
M  V30 759 H 71.8399 -0.394452 -0.642591 0
M  V30 760 H 74.4909 -1.47594 -1.09034 0
M  V30 761 H 72.8729 -1.37103 -3.71509 0
M  V30 762 H 74.0469 -3.92056 -2.42133 0
M  V30 763 H 72.3619 -3.45712 -2.32104 0
M  V30 764 H 74.9589 -2.27526 -4.83876 0
M  V30 765 H 75.3019 -0.731116 -4.0983 0
M  V30 766 H 75.8349 -2.22818 -3.2954 0
M  V30 767 H 72.5739 -5.11648 -4.09752 0
M  V30 768 H 72.0939 -3.5653 -4.82334 0
M  V30 769 H 73.7729 -4.141 -4.97122 0
M  V30 770 N 73.905 1.17692 -1.04816 0
M  V30 771 C 74.868 2.19787 -0.650117 0
M  V30 772 C 75.868 1.58044 0.296427 0
M  V30 773 O 77.058 1.74012 0.0808097 0
M  V30 774 C 74.19 3.40869 0.0456987 0
M  V30 775 H 75.383 2.56516 -1.5537 0
M  V30 776 H 72.936 1.31708 -0.841594 0
M  V30 777 H 73.671 3.09681 0.962726 0
M  V30 778 H 73.456 3.86928 -0.634727 0
M  V30 779 H 74.946 4.16445 0.310432 0
M  V30 780 N 75.3831 0.828654 1.34056 0
M  V30 781 C 76.6291 0.42008 1.98402 0
M  V30 782 C 76.9621 -1.01564 1.65525 0
M  V30 783 O 76.2371 -1.70834 0.929831 0
M  V30 784 C 76.5201 0.62927 3.54559 0
M  V30 785 C 76.3731 2.11152 3.97159 0
M  V30 786 C 77.6921 0.0688756 4.40046 0
M  V30 787 H 74.8111 0.154104 0.720709 0
M  V30 788 H 77.4531 1.04228 1.5886 0
M  V30 789 H 75.6031 0.0996418 3.88372 0
M  V30 790 H 77.2751 2.70522 3.73651 0
M  V30 791 H 75.5181 2.59985 3.47261 0
M  V30 792 H 76.1891 2.20868 5.05887 0
M  V30 793 H 78.6651 0.521458 4.1282 0
M  V30 794 H 77.5411 0.245006 5.48353 0
M  V30 795 H 77.8021 -1.0266 4.30015 0
M  V30 796 N 76.8612 -1.46375 0.584142 0
M  V30 797 C 77.7932 -2.28443 -0.186119 0
M  V30 798 C 78.8062 -1.38596 -0.854115 0
M  V30 799 O 79.9952 -1.63183 -0.723438 0
M  V30 800 C 77.0952 -3.13671 -1.28311 0
M  V30 801 C 76.2682 -4.31652 -0.706758 0
M  V30 802 C 75.3272 -4.98267 -1.69163 0
M  V30 803 O 74.3532 -5.55815 -1.22712 0
M  V30 804 N 75.5552 -4.95408 -3.02575 0
M  V30 805 H 78.3202 -2.9519 0.517986 0
M  V30 806 H 75.8812 -1.56303 0.42201 0
M  V30 807 H 77.8732 -3.55101 -1.94128 0
M  V30 808 H 76.4432 -2.48989 -1.89005 0
M  V30 809 H 75.6632 -3.93989 0.128908 0
M  V30 810 H 76.9512 -5.07906 -0.301506 0
M  V30 811 H 76.3492 -4.49902 -3.42936 0
M  V30 812 H 74.9062 -5.40774 -3.63877 0
M  V30 813 N 78.3393 -0.321999 -1.54275 0
M  V30 814 C 79.7503 0.166384 -1.85957 0
M  V30 815 C 80.1013 1.51747 -1.24367 0
M  V30 816 O 79.2263 2.09317 -0.549124 0
M  V30 817 C 79.8213 0.308681 -3.37391 0
M  V30 818 C 78.3803 0.741286 -3.69028 0
M  V30 819 C 77.5273 -0.137937 -2.76957 0
M  V30 820 H 80.4783 -0.542335 -1.49146 0
M  V30 821 H 80.4993 1.13984 -3.63026 0
M  V30 822 H 80.0113 -0.674809 -3.82188 0
M  V30 823 H 78.1123 1.73458 -3.29762 0
M  V30 824 H 78.2253 0.546118 -4.75977 0
M  V30 825 H 76.5893 0.386251 -2.51754 0
M  V30 826 H 77.3723 -1.11816 -3.2458 0
M  V30 827 N 79.8174 1.5752 -0.0501392 0
M  V30 828 C 81.0654 1.9227 0.622642 0
M  V30 829 C 81.3864 0.929083 1.71444 0
M  V30 830 O 80.6564 -0.0262186 1.95882 0
M  V30 831 H 79.2364 0.709739 0.232981 0
M  V30 832 H 81.8984 1.94628 -0.102898 0
M  V30 833 H 80.9944 2.93479 1.06191 0
M  V30 834 N 81.2955 -0.223234 1.56011 0
M  V30 835 C 82.2055 -1.29766 1.95443 0
M  V30 836 C 83.2215 -1.51373 0.858028 0
M  V30 837 O 84.3975 -1.64536 1.16146 0
M  V30 838 C 81.4625 -2.62772 2.26167 0
M  V30 839 C 80.5235 -2.49482 3.49367 0
M  V30 840 C 79.7565 -3.76145 3.78616 0
M  V30 841 O 79.9795 -4.79087 3.09568 0
M  V30 842 O 78.9135 -3.73358 4.72109 0
M  V30 843 H 82.7395 -0.99309 2.87004 0
M  V30 844 H 80.3245 -0.425958 1.43199 0
M  V30 845 H 82.2065 -3.41327 2.47131 0
M  V30 846 H 80.8815 -2.92913 1.37781 0
M  V30 847 H 79.7885 -1.69133 3.33684 0
M  V30 848 H 81.1215 -2.2428 4.38131 0
M  V30 849 N 82.7736 -1.49793 -0.48987 0
M  V30 850 C 83.7036 -1.70201 -1.59856 0
M  V30 851 C 84.6846 -0.55076 -1.60937 0
M  V30 852 O 85.8696 -0.787841 -1.77501 0
M  V30 853 C 82.9996 -1.77882 -2.98287 0
M  V30 854 C 81.9536 -2.92907 -3.12073 0
M  V30 855 C 81.2796 -2.85712 -4.51965 0
M  V30 856 C 82.5796 -4.3369 -2.91051 0
M  V30 857 H 84.2736 -2.63025 -1.43032 0
M  V30 858 H 81.8196 -1.26574 -0.686664 0
M  V30 859 H 83.7726 -1.90744 -3.75759 0
M  V30 860 H 82.4966 -0.816653 -3.16225 0
M  V30 861 H 81.1556 -2.79665 -2.37029 0
M  V30 862 H 80.8036 -1.8738 -4.66795 0
M  V30 863 H 80.5036 -3.62921 -4.62128 0
M  V30 864 H 82.0276 -3.00598 -5.31482 0
M  V30 865 H 83.4416 -4.47555 -3.58284 0
M  V30 866 H 81.8386 -5.12205 -3.12675 0
M  V30 867 H 82.9086 -4.47362 -1.87071 0
M  V30 868 N 84.2517 0.741722 -1.39055 0
M  V30 869 C 85.5287 1.49252 -1.26425 0
M  V30 870 C 85.9087 2.10705 0.129144 0
M  V30 871 O 85.2567 1.98045 1.13976 0
M  V30 872 C 85.4667 2.54934 -2.38347 0
M  V30 873 C 86.8147 3.21506 -2.77343 0
M  V30 874 O 87.8387 2.65245 -2.37747 0
M  V30 875 O 86.6977 4.23294 -3.45665 0
M  V30 876 H 83.7917 0.662451 -0.495064 0
M  V30 877 H 86.3377 0.776121 -1.50912 0
M  V30 878 H 85.1097 2.07857 -3.31529 0
M  V30 879 H 84.7327 3.34141 -2.15489 0
M  V30 880 N 85.7298 1.2412 0.971189 0
M  V30 881 C 87.0068 0.986867 1.6888 0
M  V30 882 C 87.3868 -0.491857 2.0529 0
M  V30 883 O 86.7348 -1.46531 1.75331 0
M  V30 884 C 86.9448 1.9063 2.92338 0
M  V30 885 C 88.2928 2.17515 3.64654 0
M  V30 886 O 89.3168 1.88254 3.02388 0
M  V30 887 O 88.1758 2.6719 4.7673 0
M  V30 888 H 85.2698 0.372944 0.738134 0
M  V30 889 H 87.8158 1.35203 1.02559 0
M  V30 890 H 86.5878 2.90552 2.62097 0
M  V30 891 H 86.2108 1.54408 3.66393 0
M  V30 892 N 87.2079 -1.17134 1.05439 0
M  V30 893 C 88.1379 -2.2342 0.678649 0
M  V30 894 C 89.1189 -1.66971 -0.32476 0
M  V30 895 O 90.3039 -1.93149 -0.201802 0
M  V30 896 C 87.4339 -3.47256 0.0552099 0
M  V30 897 C 86.3879 -4.16543 0.98365 0
M  V30 898 C 85.7139 -5.34231 0.223961 0
M  V30 899 C 87.0139 -4.68495 2.3089 0
M  V30 900 H 88.7079 -2.55105 1.56722 0
M  V30 901 H 86.2539 -1.2262 0.754998 0
M  V30 902 H 88.2069 -4.20828 -0.21946 0
M  V30 903 H 86.9309 -3.14846 -0.868319 0
M  V30 904 H 85.5899 -3.44887 1.24293 0
M  V30 905 H 85.2379 -4.98071 -0.702412 0
M  V30 906 H 84.9379 -5.81527 0.842627 0
M  V30 907 H 86.4619 -6.10585 -0.0433671 0
M  V30 908 H 87.8759 -5.33691 2.09396 0
M  V30 909 H 86.2729 -5.26379 2.88176 0
M  V30 910 H 87.3429 -3.85169 2.94572 0
M  V30 911 N 88.686 -0.835752 -1.33615 0
M  V30 912 C 89.649 -0.272 -2.2758 0
M  V30 913 C 90.649 0.557487 -1.50827 0
M  V30 914 O 91.839 0.37173 -1.70188 0
M  V30 915 C 88.971 0.617173 -3.35267 0
M  V30 916 H 90.164 -1.10111 -2.78954 0
M  V30 917 H 87.717 -0.608594 -1.43965 0
M  V30 918 H 88.452 1.46884 -2.89129 0
M  V30 919 H 88.237 0.0237066 -3.92093 0
M  V30 920 H 89.727 1.005 -4.05326 0
M  V30 921 N 90.1641 1.46063 -0.591896 0
M  V30 922 C 91.3941 2.06418 -0.0867676 0
M  V30 923 C 91.8021 1.43975 1.22751 0
M  V30 924 O 91.1451 0.542531 1.75506 0
M  V30 925 C 91.2071 3.59213 0.143725 0
M  V30 926 C 90.8711 4.439 -1.08635 0
M  V30 927 C 91.8681 4.79864 -2.00067 0
M  V30 928 C 89.5531 4.84896 -1.31077 0
M  V30 929 C 91.5471 5.55661 -3.12282 0
M  V30 930 C 89.2341 5.6045 -2.43596 0
M  V30 931 C 90.2321 5.95747 -3.34027 0
M  V30 932 O 89.9201 6.69772 -4.4459 0
M  V30 933 H 89.6521 0.673443 -0.0587447 0
M  V30 934 H 92.2061 1.88539 -0.814994 0
M  V30 935 H 90.4361 3.75433 0.926668 0
M  V30 936 H 92.1251 4.01463 0.5985 0
M  V30 937 H 92.8911 4.48763 -1.83947 0
M  V30 938 H 88.7701 4.56867 -0.61594 0
M  V30 939 H 92.3141 5.8313 -3.82891 0
M  V30 940 H 88.2111 5.90965 -2.59674 0
M  V30 941 H 88.9791 6.88207 -4.43073 0
M  V30 942 N 91.6422 0.330177 1.54103 0
M  V30 943 C 92.6052 -0.520144 2.2322 0
M  V30 944 C 93.6052 -1.03828 1.22786 0
M  V30 945 O 94.7952 -0.929652 1.4732 0
M  V30 946 C 91.9272 -1.72317 2.94142 0
M  V30 947 H 93.1202 0.0841605 2.99782 0
M  V30 948 H 90.6732 0.0813433 1.56088 0
M  V30 949 H 91.4082 -2.36653 2.21734 0
M  V30 950 H 91.1932 -1.35898 3.67796 0
M  V30 951 H 92.6832 -2.3266 3.46784 0
M  V30 952 N 93.1203 -1.57491 0.0584922 0
M  V30 953 C 94.3683 -1.92597 -0.612436 0
M  V30 954 C 94.6893 -0.938162 -1.70949 0
M  V30 955 O 93.9593 0.0158301 -1.95894 0
M  V30 956 H 92.5393 -0.710964 -0.229214 0
M  V30 957 H 95.2013 -1.94571 0.113218 0
M  V30 958 H 94.2973 -2.94038 -1.04633 0
M  V30 959 N 94.5984 0.214957 -1.56127 0
M  V30 960 C 95.5284 1.2695 -1.95974 0
M  V30 961 C 96.5094 1.48539 -0.828868 0
M  V30 962 O 97.6944 1.60611 -1.09168 0
M  V30 963 C 94.8244 2.61794 -2.28214 0
M  V30 964 C 93.7784 2.54851 -3.43853 0
M  V30 965 C 93.1044 3.93785 -3.61715 0
M  V30 966 C 94.4044 2.09065 -4.78632 0
M  V30 967 H 96.0984 0.93846 -2.84312 0
M  V30 968 H 93.6444 0.449996 -1.36788 0
M  V30 969 H 95.5974 3.35731 -2.54682 0
M  V30 970 H 94.3214 2.96599 -1.36736 0
M  V30 971 H 92.9804 1.8337 -3.17444 0
M  V30 972 H 92.6284 4.25908 -2.67602 0
M  V30 973 H 92.3284 3.90019 -4.39498 0
M  V30 974 H 93.8524 4.69374 -3.90539 0
M  V30 975 H 95.2664 2.7275 -5.04262 0
M  V30 976 H 93.6634 2.16346 -5.59745 0
M  V30 977 H 94.7334 1.04315 -4.73547 0
M  V30 978 N 96.0765 1.50051 0.48192 0
M  V30 979 C 96.9865 1.7089 1.60728 0
M  V30 980 C 98.0025 0.591788 1.63627 0
M  V30 981 O 99.1785 0.868817 1.81696 0
M  V30 982 C 96.2435 1.78855 2.97005 0
M  V30 983 C 95.3045 3.02537 3.04581 0
M  V30 984 C 94.5375 3.10112 4.34357 0
M  V30 985 O 94.7605 2.24765 5.24249 0
M  V30 986 O 93.6945 4.02747 4.47301 0
M  V30 987 H 97.5205 2.66264 1.46072 0
M  V30 988 H 95.1055 1.34018 0.660264 0
M  V30 989 H 96.9875 1.86336 3.77964 0
M  V30 990 H 95.6625 0.866628 3.11883 0
M  V30 991 H 94.5695 3.00563 2.22739 0
M  V30 992 H 95.9025 3.94272 2.94636 0
M  V30 993 N 97.5546 -0.734337 1.39446 0
M  V30 994 C 98.8006 -1.49613 1.36908 0
M  V30 995 C 99.1336 -1.94169 -0.0347829 0
M  V30 996 O 98.4086 -1.66833 -0.999847 0
M  V30 997 C 98.6916 -2.73534 2.34203 0
M  V30 998 C 98.5446 -2.34993 3.83534 0
M  V30 999 C 99.8636 -3.75635 2.29317 0
M  V30 1000 H 96.9826 -0.542714 0.498629 0
M  V30 1001 H 99.6246 -0.839597 1.70443 0
M  V30 1002 H 97.7746 -3.29553 2.05736 0
M  V30 1003 H 99.4466 -1.84601 4.22753 0
M  V30 1004 H 97.6896 -1.67213 4.00278 0
M  V30 1005 H 98.3606 -3.23738 4.47099 0
M  V30 1006 H 100.837 -3.29203 2.54489 0
M  V30 1007 H 99.7126 -4.60008 2.99472 0
M  V30 1008 H 99.9736 -4.22603 1.29842 0
M  V30 1009 N 99.0327 -1.24633 -0.964593 0
M  V30 1010 C 100.31 -0.995809 -1.68354 0
M  V30 1011 C 100.69 0.480964 -2.05548 0
M  V30 1012 O 100.038 1.45599 -1.76105 0
M  V30 1013 C 100.248 -1.92177 -2.91323 0
M  V30 1014 C 101.596 -2.19446 -3.63495 0
M  V30 1015 O 102.62 -1.89855 -3.01386 0
M  V30 1016 O 101.479 -2.69714 -4.75307 0
M  V30 1017 H 98.5727 -0.376854 -0.736146 0
M  V30 1018 H 101.119 -1.35745 -1.0184 0
M  V30 1019 H 99.8907 -2.91938 -2.60553 0
M  V30 1020 H 99.5137 -1.56349 -3.65569 0
M  V30 1021 N 100.511 1.16574 -1.06058 0
M  V30 1022 C 101.788 1.83048 -0.689416 0
M  V30 1023 C 102.168 1.94122 0.829443 0
M  V30 1024 O 101.516 1.48249 1.7388 0
M  V30 1025 C 101.726 3.20186 -1.38859 0
M  V30 1026 C 103.074 3.95989 -1.53226 0
M  V30 1027 O 104.098 3.29696 -1.3483 0
M  V30 1028 O 102.957 5.14813 -1.83384 0
M  V30 1029 H 100.051 0.790258 -0.243764 0
M  V30 1030 H 102.597 1.23797 -1.16071 0
M  V30 1031 H 101.369 3.07146 -2.4244 0
M  V30 1032 H 100.992 3.87112 -0.907216 0
M  V30 1033 N 101.989 0.842826 1.3317 0
M  V30 1034 C 102.952 0.284065 2.27433 0
M  V30 1035 C 103.952 -0.54948 1.5112 0
M  V30 1036 O 105.142 -0.362699 1.70382 0
M  V30 1037 C 102.274 -0.599384 3.35589 0
M  V30 1038 H 103.467 1.11589 2.78366 0
M  V30 1039 H 101.02 0.616221 1.4364 0
M  V30 1040 H 101.755 -1.45349 2.89904 0
M  V30 1041 H 101.54 -0.00291266 3.921 0
M  V30 1042 H 103.03 -0.983488 4.05854 0
M  V30 1043 N 103.467 -1.45747 0.599634 0
M  V30 1044 C 104.43 -2.28917 -0.113835 0
M  V30 1045 C 105.43 -1.3933 -0.802729 0
M  V30 1046 O 106.62 -1.61534 -0.652103 0
M  V30 1047 C 103.752 -3.20152 -1.17114 0
M  V30 1048 H 104.945 -2.93478 0.617289 0
M  V30 1049 H 102.498 -1.52137 0.358327 0
M  V30 1050 H 103.233 -2.60374 -1.93329 0
M  V30 1051 H 103.018 -3.86133 -0.681468 0
M  V30 1052 H 104.508 -3.82708 -1.67105 0
M  V30 1053 N 104.945 -0.338344 -1.53925 0
M  V30 1054 C 105.908 0.508299 -2.23493 0
M  V30 1055 C 106.908 1.03175 -1.23335 0
M  V30 1056 O 108.098 0.921826 -1.47811 0
M  V30 1057 C 105.23 1.70754 -2.95052 0
M  V30 1058 H 106.423 -0.100058 -2.99733 0
M  V30 1059 H 103.976 -0.0896198 -1.56043 0
M  V30 1060 H 104.711 2.35474 -2.22986 0
M  V30 1061 H 104.496 1.33946 -3.68512 0
M  V30 1062 H 105.986 2.30818 -3.48013 0
M  V30 1063 N 106.423 1.57458 -0.0668435 0
M  V30 1064 C 107.353 2.15468 0.899764 0
M  V30 1065 C 108.334 1.08042 1.31381 0
M  V30 1066 O 109.519 1.36054 1.38574 0
M  V30 1067 C 106.649 2.71232 2.16911 0
M  V30 1068 C 105.603 3.83781 1.89463 0
M  V30 1069 C 104.929 4.26127 3.22986 0
M  V30 1070 C 106.229 5.08238 1.20381 0
M  V30 1071 H 107.923 2.96488 0.416529 0
M  V30 1072 H 105.469 1.4262 0.198908 0
M  V30 1073 H 107.422 3.10458 2.84945 0
M  V30 1074 H 106.146 1.87426 2.67468 0
M  V30 1075 H 104.805 3.45051 1.23836 0
M  V30 1076 H 104.453 3.39249 3.71374 0
M  V30 1077 H 104.153 5.01993 3.05413 0
M  V30 1078 H 105.677 4.67966 3.92225 0
M  V30 1079 H 107.091 5.44811 1.78475 0
M  V30 1080 H 105.488 5.89349 1.13083 0
M  V30 1081 H 106.558 4.84558 0.182153 0
M  V30 1082 N 107.901 -0.206675 1.56239 0
M  V30 1083 C 108.811 -1.27686 1.96808 0
M  V30 1084 C 109.827 -1.50455 0.874035 0
M  V30 1085 O 111.003 -1.63295 1.17884 0
M  V30 1086 C 108.068 -2.60358 2.28942 0
M  V30 1087 C 107.129 -2.45762 3.51994 0
M  V30 1088 C 106.362 -3.72108 3.82585 0
M  V30 1089 O 106.585 -4.75776 3.14631 0
M  V30 1090 O 105.519 -3.6833 4.76043 0
M  V30 1091 H 109.345 -0.962593 2.88041 0
M  V30 1092 H 106.93 -0.410746 1.43643 0
M  V30 1093 H 108.812 -3.38687 2.50737 0
M  V30 1094 H 107.487 -2.91435 1.4088 0
M  V30 1095 H 106.394 -1.65584 3.35459 0
M  V30 1096 H 107.727 -2.19621 4.40486 0
M  V30 1097 N 109.379 -1.50304 -0.473955 0
M  V30 1098 C 110.795 -1.37667 -0.807466 0
M  V30 1099 C 110.995 -0.430555 -1.96846 0
M  V30 1100 O 110.051 0.127874 -2.52176 0
M  V30 1101 C 111.364 -2.78974 -1.12223 0
M  V30 1102 C 112.912 -2.87868 -1.22885 0
M  V30 1103 C 113.387 -4.30003 -1.57676 0
M  V30 1104 N 114.878 -4.3294 -1.64673 0
M  V30 1105 C 115.613 -5.3991 -1.93091 0
M  V30 1106 N 115.109 -6.57092 -2.1955 0
M  V30 1107 N 116.902 -5.27351 -1.94569 0
M  V30 1108 H 109.053 -2.10394 0.291212 0
M  V30 1109 H 111.316 -0.945575 0.0677609 0
M  V30 1110 H 111.022 -3.50031 -0.342229 0
M  V30 1111 H 110.896 -3.16038 -2.05913 0
M  V30 1112 H 113.283 -2.17032 -1.99953 0
M  V30 1113 H 113.364 -2.54352 -0.271814 0
M  V30 1114 H 113.008 -5.01375 -0.81149 0
M  V30 1115 H 112.938 -4.61004 -2.54525 0
M  V30 1116 H 115.429 -3.48441 -1.46277 0
M  V30 1117 H 115.742 -7.34425 -2.405 0
M  V30 1118 H 114.087 -6.60272 -2.16948 0
M  V30 1119 H 117.278 -4.34801 -1.73394 0
M  V30 1120 H 117.451 -6.10805 -2.16381 0
M  V30 1121 N 110.857 0.726932 -1.39834 0
M  V30 1122 C 111.79 1.8501 -1.33592 0
M  V30 1123 C 112.768 1.61262 -0.208191 0
M  V30 1124 O 113.952 1.84422 -0.389981 0
M  V30 1125 C 111.079 3.21143 -1.07633 0
M  V30 1126 C 110.125 3.63737 -2.22705 0
M  V30 1127 S 110.958 3.72167 -3.85035 0
M  V30 1128 C 112.114 5.11077 -3.61318 0
M  V30 1129 H 112.347 1.90022 -2.28646 0
M  V30 1130 H 109.88 0.892595 -1.25985 0
M  V30 1131 H 111.838 3.99747 -0.933415 0
M  V30 1132 H 110.499 3.13776 -0.142526 0
M  V30 1133 H 109.692 4.62551 -2.00155 0
M  V30 1134 H 109.294 2.9236 -2.33242 0
M  V30 1135 H 111.586 5.97656 -3.19083 0
M  V30 1136 H 112.529 5.38658 -4.59623 0
M  V30 1137 H 112.937 4.81135 -2.95245 0
M  V30 1138 N 112.336 1.25143 0.95797 0
M  V30 1139 C 113.299 1.05321 2.03569 0
M  V30 1140 C 114.299 0.007152 1.60798 0
M  V30 1141 O 115.489 0.24903 1.72411 0
M  V30 1142 C 112.621 0.598394 3.35607 0
M  V30 1143 H 113.814 2.00986 2.22586 0
M  V30 1144 H 111.367 1.07502 1.13459 0
M  V30 1145 H 112.102 -0.361014 3.22284 0
M  V30 1146 H 111.887 1.35351 3.67998 0
M  V30 1147 H 113.377 0.48104 4.1482 0
M  V30 1148 N 113.814 -1.1601 1.06675 0
M  V30 1149 C 115.091 -1.82679 0.699114 0
M  V30 1150 C 115.471 -1.94559 -0.819137 0
M  V30 1151 O 114.819 -1.49169 -1.73092 0
M  V30 1152 C 115.029 -3.19445 1.40555 0
M  V30 1153 C 116.377 -3.95171 1.55323 0
M  V30 1154 O 117.401 -3.28976 1.36577 0
M  V30 1155 O 116.26 -5.13833 1.86112 0
M  V30 1156 H 113.354 -0.788954 0.247951 0
M  V30 1157 H 115.9 -1.23179 1.16726 0
M  V30 1158 H 114.672 -3.05856 2.44065 0
M  V30 1159 H 114.295 -3.86625 0.927733 0
M  V30 1160 N 115.292 -0.849877 -1.32721 0
M  V30 1161 C 116.239 -0.289033 -2.28983 0
M  V30 1162 C 117.209 0.601324 -1.54833 0
M  V30 1163 O 118.394 0.537253 -1.8308 0
M  V30 1164 C 115.534 0.520623 -3.4115 0
M  V30 1165 C 114.647 -0.394989 -4.3019 0
M  V30 1166 C 113.782 0.426834 -5.29482 0
M  V30 1167 C 112.821 -0.486476 -6.10164 0
M  V30 1168 N 111.958 0.297879 -7.01468 0
M  V30 1169 H 116.798 -1.11519 -2.76347 0
M  V30 1170 H 114.335 -0.56138 -1.35967 0
M  V30 1171 H 116.293 1.00563 -4.04899 0
M  V30 1172 H 114.923 1.31165 -2.9495 0
M  V30 1173 H 113.975 -0.99836 -3.67065 0
M  V30 1174 H 115.287 -1.09612 -4.86607 0
M  V30 1175 H 114.441 0.975205 -5.98811 0
M  V30 1176 H 113.18 1.16136 -4.73671 0
M  V30 1177 H 112.185 -1.04677 -5.39743 0
M  V30 1178 H 113.41 -1.21953 -6.6806 0
M  V30 1179 H 111.356 1.01558 -6.48091 0
M  V30 1180 H 111.273 -0.344318 -7.55216 0
M  V30 1181 H 112.541 0.828131 -7.75089 0
M  V30 1182 N 116.77 1.45427 -0.607355 0
M  V30 1183 C 117.7 2.3329 0.0989352 0
M  V30 1184 C 118.681 1.46816 0.859007 0
M  V30 1185 O 119.866 1.75588 0.829604 0
M  V30 1186 C 116.996 3.29518 1.09705 0
M  V30 1187 C 115.95 4.25626 0.450206 0
M  V30 1188 C 115.276 5.11542 1.55655 0
M  V30 1189 C 116.576 5.18505 -0.628455 0
M  V30 1190 H 118.27 2.92595 -0.634716 0
M  V30 1191 H 115.816 1.40696 -0.306681 0
M  V30 1192 H 117.769 3.89855 1.59971 0
M  V30 1193 H 116.493 2.68372 1.86129 0
M  V30 1194 H 115.152 3.66586 -0.0315886 0
M  V30 1195 H 114.8 4.46765 2.31107 0
M  V30 1196 H 114.5 5.76647 1.12925 0
M  V30 1197 H 116.024 5.74748 2.06148 0
M  V30 1198 H 117.438 5.72916 -0.209877 0
M  V30 1199 H 115.835 5.92085 -0.977489 0
M  V30 1200 H 116.905 4.60948 -1.50514 0
M  V30 1201 N 118.248 0.346503 1.53744 0
M  V30 1202 C 119.664 -0.00530975 1.59599 0
M  V30 1203 C 119.864 -1.48465 1.36236 0
M  V30 1204 O 118.92 -2.24376 1.15808 0
M  V30 1205 C 120.233 0.433516 2.97559 0
M  V30 1206 C 121.781 0.386111 3.10609 0
M  V30 1207 C 122.256 0.800451 4.50951 0
M  V30 1208 N 123.747 0.754753 4.5701 0
M  V30 1209 C 124.482 1.04727 5.63755 0
M  V30 1210 N 123.978 1.4081 6.7834 0
M  V30 1211 N 125.771 0.971316 5.53644 0
M  V30 1212 H 117.922 1.31009 1.67184 0
M  V30 1213 H 120.185 0.534242 0.783128 0
M  V30 1214 H 119.891 1.46509 3.19731 0
M  V30 1215 H 119.765 -0.189753 3.76722 0
M  V30 1216 H 122.152 -0.636295 2.88158 0
M  V30 1217 H 122.233 1.04462 2.33498 0
M  V30 1218 H 121.877 1.82088 4.74137 0
M  V30 1219 H 121.807 0.119386 5.26465 0
M  V30 1220 H 124.298 0.488662 3.74727 0
M  V30 1221 H 124.611 1.61607 7.55714 0
M  V30 1222 H 122.956 1.44657 6.79779 0
M  V30 1223 H 126.147 0.688748 4.63005 0
M  V30 1224 H 126.32 1.20263 6.36742 0
M  V30 1225 N 119.726 -1.57421 0.075193 0
M  V30 1226 C 120.658 -2.09904 -0.920483 0
M  V30 1227 C 121.671 -1.03191 -1.25918 0
M  V30 1228 O 122.86 -1.30695 -1.21577 0
M  V30 1229 C 119.96 -2.54726 -2.23534 0
M  V30 1230 C 119.133 -3.8505 -2.07498 0
M  V30 1231 C 118.192 -4.15929 -3.22319 0
M  V30 1232 O 117.218 -4.85474 -2.9716 0
M  V30 1233 N 118.42 -3.69745 -4.47514 0
M  V30 1234 H 121.185 -2.95954 -0.472359 0
M  V30 1235 H 118.746 -1.61523 -0.110444 0
M  V30 1236 H 120.738 -2.72443 -2.9926 0
M  V30 1237 H 119.308 -1.73795 -2.59835 0
M  V30 1238 H 118.528 -3.76679 -1.16219 0
M  V30 1239 H 119.816 -4.70348 -1.94038 0
M  V30 1240 H 119.214 -3.13569 -4.7084 0
M  V30 1241 H 117.771 -3.92655 -5.20255 0
M  V30 1242 N 121.204 0.198386 -1.56346 0
M  V30 1243 C 122.167 1.22952 -1.93431 0
M  V30 1244 C 123.167 1.38611 -0.815092 0
M  V30 1245 O 124.357 1.36479 -1.08255 0
M  V30 1246 C 121.489 2.59946 -2.20546 0
M  V30 1247 H 122.682 0.912626 -2.85677 0
M  V30 1248 H 120.235 0.43977 -1.49986 0
M  V30 1249 H 120.97 2.96696 -1.30927 0
M  V30 1250 H 120.755 2.49953 -3.02102 0
M  V30 1251 H 122.245 3.3431 -2.50253 0
M  V30 1252 N 122.682 1.50554 0.465978 0
M  V30 1253 C 123.93 1.61479 1.21528 0
M  V30 1254 C 124.251 0.319596 1.92363 0
M  V30 1255 O 123.521 -0.663194 1.84333 0
M  V30 1256 H 122.101 0.595055 0.451573 0
M  V30 1257 H 124.763 1.87355 0.53704 0
M  V30 1258 H 123.859 2.42846 1.96042 0
M  V30 1259 N 124.16 -0.719506 1.40217 0
M  V30 1260 C 125.406 -1.48152 1.38488 0
M  V30 1261 C 125.739 -1.94195 -0.0141867 0
M  V30 1262 O 125.014 -1.67884 -0.982096 0
M  V30 1263 C 125.297 -2.71035 2.37091 0
M  V30 1264 C 125.15 -2.30912 3.86005 0
M  V30 1265 C 126.469 -3.73182 2.33288 0
M  V30 1266 H 123.588 -0.537395 0.504357 0
M  V30 1267 H 126.23 -0.821472 1.71324 0
M  V30 1268 H 124.38 -3.27352 2.0922 0
M  V30 1269 H 126.052 -1.80107 4.24687 0
M  V30 1270 H 124.295 -1.62958 4.02029 0
M  V30 1271 H 124.966 -3.18978 4.50508 0
M  V30 1272 H 127.442 -3.26485 2.57966 0
M  V30 1273 H 126.318 -4.56806 3.04334 0
M  V30 1274 H 126.579 -4.21202 1.34317 0
M  V30 1275 N 125.638 -1.25649 -0.95132 0
M  V30 1276 C 126.601 -1.06399 -2.03007 0
M  V30 1277 C 127.601 -0.0156794 -1.60792 0
M  V30 1278 O 128.791 -0.25817 -1.72276 0
M  V30 1279 C 125.923 -0.616184 -3.35285 0
M  V30 1280 H 127.116 -2.02164 -2.21517 0
M  V30 1281 H 124.669 -1.08103 -1.12887 0
M  V30 1282 H 125.404 0.343917 -3.22471 0
M  V30 1283 H 125.189 -1.37301 -3.67275 0
M  V30 1284 H 126.679 -0.503032 -4.14559 0
M  V30 1285 N 127.117 1.15442 -1.07289 0
M  V30 1286 C 128.364 1.86213 -0.795668 0
M  V30 1287 C 128.692 1.82291 0.678238 0
M  V30 1288 O 127.947 1.24057 1.51355 0
M  V30 1289 C 128.246 3.3489 -1.24834 0
M  V30 1290 C 127.912 3.59007 -2.72809 0
M  V30 1291 C 126.574 3.65298 -3.13227 0
M  V30 1292 C 128.926 3.68762 -3.68326 0
M  V30 1293 C 126.254 3.78854 -4.4798 0
M  V30 1294 C 128.606 3.83842 -5.0284 0
M  V30 1295 C 127.27 3.88378 -5.4288 0
M  V30 1296 H 126.54 0.681403 -0.291155 0
M  V30 1297 H 129.187 1.36435 -1.34379 0
M  V30 1298 H 127.492 3.8687 -0.619595 0
M  V30 1299 H 129.189 3.88052 -1.01076 0
M  V30 1300 H 125.779 3.5475 -2.40521 0
M  V30 1301 H 129.963 3.63202 -3.38227 0
M  V30 1302 H 125.219 3.80623 -4.78472 0
M  V30 1303 H 129.393 3.90332 -5.76727 0
M  V30 1304 H 127.02 3.98635 -6.47298 0
M  V30 1305 N 128.595 0.856903 1.32268 0
M  V30 1306 C 129.823 0.475439 2.01363 0
M  V30 1307 C 130.238 -0.928486 1.64392 0
M  V30 1308 O 129.595 -1.60624 0.866387 0
M  V30 1309 C 129.646 0.607545 3.56358 0
M  V30 1310 O 129.367 1.95617 3.92002 0
M  V30 1311 C 130.868 0.225382 4.42727 0
M  V30 1312 H 128.088 0.186636 0.644521 0
M  V30 1313 H 130.632 1.15446 1.68797 0
M  V30 1314 H 128.787 -0.0237719 3.87393 0
M  V30 1315 H 129.201 1.95455 4.86721 0
M  V30 1316 H 130.675 0.368813 5.50767 0
M  V30 1317 H 131.152 -0.834369 4.31202 0
M  V30 1318 H 131.758 0.831864 4.17085 0
M  V30 1319 N 130.073 -1.45103 0.615059 0
M  V30 1320 C 131.489 -1.57137 0.279322 0
M  V30 1321 C 131.689 -1.60523 -1.21797 0
M  V30 1322 O 130.745 -1.53956 -2.00134 0
M  V30 1323 C 132.058 -2.85062 0.957083 0
M  V30 1324 C 133.606 -2.98749 0.933706 0
M  V30 1325 C 134.081 -4.29455 1.59162 0
M  V30 1326 N 135.572 -4.36231 1.55746 0
M  V30 1327 C 136.307 -5.36051 2.0356 0
M  V30 1328 N 135.803 -6.42367 2.59494 0
M  V30 1329 N 137.596 -5.27456 1.94284 0
M  V30 1330 H 129.747 -1.41148 1.58717 0
M  V30 1331 H 132.01 -0.675331 0.665306 0
M  V30 1332 H 131.716 -2.88488 2.01166 0
M  V30 1333 H 131.59 -3.7407 0.48494 0
M  V30 1334 H 133.977 -2.94886 -0.112347 0
M  V30 1335 H 134.058 -2.11132 1.44419 0
M  V30 1336 H 133.702 -4.34077 2.63704 0
M  V30 1337 H 133.632 -5.15901 1.0561 0
M  V30 1338 H 136.123 -3.60011 1.14893 0
M  V30 1339 H 136.436 -7.14793 2.93752 0
M  V30 1340 H 134.781 -6.43097 2.63537 0
M  V30 1341 H 137.972 -4.43308 1.5032 0
M  V30 1342 H 138.145 -6.05099 2.3186 0
M  V30 1343 N 131.551 -0.354651 -1.53558 0
M  V30 1344 C 132.799 0.237972 -2.00694 0
M  V30 1345 C 133.12 1.50173 -1.24391 0
M  V30 1346 O 132.39 1.92673 -0.354135 0
M  V30 1347 H 130.97 0.0909256 -0.741446 0
M  V30 1348 H 133.632 -0.478368 -1.88938 0
M  V30 1349 H 132.728 0.47264 -3.085 0
M  V30 1350 N 133.029 1.57378 -0.0835403 0
M  V30 1351 C 134.306 1.85363 0.624507 0
M  V30 1352 C 134.686 0.978239 1.87066 0
M  V30 1353 O 134.034 0.0475908 2.2845 0
M  V30 1354 C 134.244 3.35795 0.950947 0
M  V30 1355 C 135.592 4.03581 1.31939 0
M  V30 1356 O 136.616 3.40609 1.04232 0
M  V30 1357 O 135.475 5.14672 1.83779 0
M  V30 1358 H 132.569 0.766162 0.311329 0
M  V30 1359 H 135.115 1.69307 -0.115362 0
M  V30 1360 H 133.887 3.91244 0.0663899 0
M  V30 1361 H 133.51 3.57154 1.74719 0
M  V30 1362 N 134.507 -0.190092 1.56449 0
M  V30 1363 C 135.417 -1.25591 1.98152 0
M  V30 1364 C 136.433 -1.49519 0.889944 0
M  V30 1365 O 137.609 -1.62036 1.19609 0
M  V30 1366 C 134.674 -2.57916 2.3169 0
M  V30 1367 C 133.735 -2.42015 3.5458 0
M  V30 1368 C 132.968 -3.6803 3.8651 0
M  V30 1369 O 133.191 -4.72413 3.1966 0
M  V30 1370 O 132.125 -3.6326 4.79923 0
M  V30 1371 H 135.951 -0.931988 2.89046 0
M  V30 1372 H 133.536 -0.395488 1.4407 0
M  V30 1373 H 135.418 -3.36008 2.54316 0
M  V30 1374 H 134.093 -2.89925 1.43963 0
M  V30 1375 H 133 -1.62017 3.37196 0
M  V30 1376 H 134.333 -2.14937 4.4279 0
M  V30 1377 N 135.985 -1.50799 -0.457987 0
M  V30 1378 C 136.948 -1.7005 -1.53674 0
M  V30 1379 C 137.948 -0.570881 -1.50325 0
M  V30 1380 O 139.138 -0.838126 -1.52712 0
M  V30 1381 C 136.27 -1.73788 -2.93276 0
M  V30 1382 H 137.463 -2.66306 -1.37917 0
M  V30 1383 H 135.016 -1.40477 -0.685271 0
M  V30 1384 H 135.751 -0.792717 -3.14462 0
M  V30 1385 H 135.536 -2.55864 -2.97113 0
M  V30 1386 H 137.026 -1.90591 -3.71571 0
M  V30 1387 N 137.463 0.71206 -1.40597 0
M  V30 1388 C 138.393 1.83889 -1.43899 0
M  V30 1389 C 139.374 1.67442 -0.299504 0
M  V30 1390 O 140.559 1.87421 -0.508624 0
M  V30 1391 C 137.689 3.21877 -1.30431 0
M  V30 1392 C 136.643 3.53002 -2.42019 0
M  V30 1393 C 135.969 4.90172 -2.13626 0
M  V30 1394 C 137.269 3.53643 -3.84362 0
M  V30 1395 H 138.963 1.81383 -2.38203 0
M  V30 1396 H 136.509 0.871237 -1.14654 0
M  V30 1397 H 138.462 4.00404 -1.31357 0
M  V30 1398 H 137.186 3.24968 -0.326049 0
M  V30 1399 H 135.845 2.76818 -2.40349 0
M  V30 1400 H 135.493 4.89869 -1.14182 0
M  V30 1401 H 135.193 5.11962 -2.88389 0
M  V30 1402 H 136.717 5.71028 -2.1624 0
M  V30 1403 H 138.131 4.22203 -3.87837 0
M  V30 1404 H 136.528 3.86961 -4.58673 0
M  V30 1405 H 137.598 2.52954 -4.13693 0
M  V30 1406 N 138.941 1.26152 0.944643 0
M  V30 1407 C 139.874 1.01729 2.04271 0
M  V30 1408 C 140.852 -0.0568101 1.62501 0
M  V30 1409 O 142.036 0.0848987 1.88309 0
M  V30 1410 C 139.163 0.539792 3.34371 0
M  V30 1411 C 138.209 1.60593 3.9511 0
M  V30 1412 S 139.042 3.19392 4.29825 0
M  V30 1413 C 140.198 2.73402 5.63029 0
M  V30 1414 H 140.431 1.94703 2.24673 0
M  V30 1415 H 137.964 1.09793 1.08558 0
M  V30 1416 H 139.922 0.270956 4.09605 0
M  V30 1417 H 138.583 -0.369609 3.11918 0
M  V30 1418 H 137.776 1.22275 4.88943 0
M  V30 1419 H 137.378 1.82596 3.26397 0
M  V30 1420 H 139.67 2.1765 6.41588 0
M  V30 1421 H 140.613 3.65913 6.06229 0
M  V30 1422 H 141.021 2.13077 5.22741 0
M  V30 1423 N 140.419 -1.14872 1.07899 0
M  V30 1424 C 141.351 -2.19425 0.662231 0
M  V30 1425 C 142.364 -1.60231 -0.288079 0
M  V30 1426 O 143.553 -1.78336 -0.076534 0
M  V30 1427 C 140.653 -3.38867 -0.0470695 0
M  V30 1428 C 139.826 -4.27597 0.920831 0
M  V30 1429 C 138.885 -5.25616 0.247805 0
M  V30 1430 O 137.911 -5.62189 0.890599 0
M  V30 1431 N 139.113 -5.71746 -1.00435 0
M  V30 1432 H 141.878 -2.55797 1.56166 0
M  V30 1433 H 139.439 -1.30042 0.964404 0
M  V30 1434 H 141.431 -4.01497 -0.50813 0
M  V30 1435 H 140.001 -3.00864 -0.848523 0
M  V30 1436 H 139.221 -3.61982 1.56087 0
M  V30 1437 H 140.509 -4.83748 1.57688 0
M  V30 1438 H 139.907 -5.44153 -1.54642 0
M  V30 1439 H 138.464 -6.36389 -1.40899 0
M  V30 1440 N 141.898 -0.863906 -1.31812 0
M  V30 1441 C 142.83 -0.272485 -2.27575 0
M  V30 1442 C 143.843 0.56104 -1.52827 0
M  V30 1443 O 145.032 0.384021 -1.7432 0
M  V30 1444 C 142.132 0.63283 -3.32939 0
M  V30 1445 C 141.305 -0.166902 -4.37081 0
M  V30 1446 C 140.364 0.665608 -5.21973 0
M  V30 1447 O 139.39 0.0958091 -5.69119 0
M  V30 1448 N 140.592 1.9787 -5.45736 0
M  V30 1449 H 143.357 -1.0954 -2.78964 0
M  V30 1450 H 140.918 -0.724791 -1.4477 0
M  V30 1451 H 142.91 1.19532 -3.86645 0
M  V30 1452 H 141.48 1.35642 -2.81638 0
M  V30 1453 H 140.7 -0.910838 -3.83533 0
M  V30 1454 H 141.988 -0.715874 -5.03739 0
M  V30 1455 H 141.386 2.46484 -5.09178 0
M  V30 1456 H 139.943 2.48911 -6.024 0
M  V30 1457 N 143.376 1.44774 -0.622745 0
M  V30 1458 C 144.792 1.56986 -0.287652 0
M  V30 1459 C 144.992 1.61167 1.20944 0
M  V30 1460 O 144.048 1.55015 1.99315 0
M  V30 1461 C 145.361 2.84551 -0.972188 0
M  V30 1462 C 146.909 2.9825 -0.949536 0
M  V30 1463 C 147.384 4.28605 -1.61437 0
M  V30 1464 N 148.875 4.35399 -1.58057 0
M  V30 1465 C 149.61 5.34964 -2.064 0
M  V30 1466 N 149.106 6.40981 -2.62897 0
M  V30 1467 N 150.899 5.26419 -1.97078 0
M  V30 1468 H 143.05 1.40304 -1.59463 0
M  V30 1469 H 145.313 0.671794 -0.668878 0
M  V30 1470 H 145.019 2.87417 -2.02693 0
M  V30 1471 H 144.893 3.73807 -0.504771 0
M  V30 1472 H 147.28 2.94941 0.0967067 0
M  V30 1473 H 147.361 2.10364 -1.45536 0
M  V30 1474 H 147.005 4.32672 -2.66002 0
M  V30 1475 H 146.935 5.15334 -1.08344 0
M  V30 1476 H 149.426 3.59397 -1.16801 0
M  V30 1477 H 149.739 7.13225 -2.97539 0
M  V30 1478 H 148.084 6.4169 -2.66943 0
M  V30 1479 H 151.275 4.42504 -1.52669 0
M  V30 1480 H 151.448 6.03861 -2.35066 0
M  V30 1481 N 144.854 0.36279 1.53368 0
M  V30 1482 C 145.801 -0.485008 2.25646 0
M  V30 1483 C 146.771 -1.07982 1.2621 0
M  V30 1484 O 147.956 -1.11284 1.54986 0
M  V30 1485 C 145.096 -1.62023 3.04701 0
M  V30 1486 C 144.209 -1.05086 4.19024 0
M  V30 1487 C 143.344 -2.15496 4.85525 0
M  V30 1488 C 142.383 -1.5601 5.91884 0
M  V30 1489 N 141.52 -2.60241 6.52088 0
M  V30 1490 H 146.36 0.137864 2.97681 0
M  V30 1491 H 143.897 0.0798061 1.46883 0
M  V30 1492 H 145.855 -2.28887 3.48807 0
M  V30 1493 H 144.485 -2.2138 2.34927 0
M  V30 1494 H 143.537 -0.27259 3.79422 0
M  V30 1495 H 144.849 -0.575926 4.95464 0
M  V30 1496 H 144.003 -2.90186 5.32801 0
M  V30 1497 H 142.742 -2.66341 4.08551 0
M  V30 1498 H 141.747 -0.798338 5.43973 0
M  V30 1499 H 142.972 -1.05994 6.70777 0
M  V30 1500 H 140.918 -3.10304 5.77968 0
M  V30 1501 H 140.835 -2.17426 7.24059 0
M  V30 1502 H 142.103 -3.34641 7.04014 0
M  V30 1503 N 146.332 -1.57332 0.0918853 0
M  V30 1504 C 147.578 -1.94524 -0.573425 0
M  V30 1505 C 147.911 -0.973578 -1.68033 0
M  V30 1506 O 147.186 -0.00609226 -1.94499 0
M  V30 1507 C 147.469 -3.41858 -1.13161 0
M  V30 1508 C 147.322 -4.4979 -0.0299747 0
M  V30 1509 C 148.641 -3.90435 -2.03098 0
M  V30 1510 H 145.76 -0.70734 -0.206975 0
M  V30 1511 H 148.402 -1.89309 0.161942 0
M  V30 1512 H 146.552 -3.46433 -1.7583 0
M  V30 1513 H 148.224 -4.57327 0.604112 0
M  V30 1514 H 146.467 -4.291 0.636833 0
M  V30 1515 H 147.138 -5.50069 -0.461287 0
M  V30 1516 H 149.614 -3.87992 -1.50338 0
M  V30 1517 H 148.49 -4.94097 -2.39081 0
M  V30 1518 H 148.751 -3.29541 -2.94712 0
M  V30 1519 N 147.81 0.181792 -1.56548 0
M  V30 1520 C 148.743 1.25366 -1.90679 0
M  V30 1521 C 149.721 1.43299 -0.768376 0
M  V30 1522 O 150.905 1.58475 -1.02068 0
M  V30 1523 C 148.032 2.61826 -2.1486 0
M  V30 1524 C 147.078 2.60688 -3.37556 0
M  V30 1525 S 147.911 2.10804 -4.92262 0
M  V30 1526 C 149.067 3.49062 -5.19525 0
M  V30 1527 H 149.3 0.962277 -2.81296 0
M  V30 1528 H 146.833 0.385892 -1.495 0
M  V30 1529 H 148.791 3.40371 -2.29473 0
M  V30 1530 H 147.452 2.88169 -1.24969 0
M  V30 1531 H 146.645 3.61058 -3.51643 0
M  V30 1532 H 146.247 1.90232 -3.22006 0
M  V30 1533 H 148.539 4.45003 -5.10861 0
M  V30 1534 H 149.482 3.39859 -6.2121 0
M  V30 1535 H 149.89 3.4459 -4.47122 0
M  V30 1536 N 149.288 1.51039 0.449983 0
M  V30 1537 C 150.536 1.62759 1.19808 0
M  V30 1538 C 150.857 0.339981 1.92013 0
M  V30 1539 O 150.127 -0.643606 1.85026 0
M  V30 1540 H 148.707 0.599811 0.445237 0
M  V30 1541 H 151.369 1.87914 0.517138 0
M  V30 1542 H 150.465 2.44911 1.93455 0
M  V30 1543 N 150.766 -0.704594 1.40972 0
M  V30 1544 C 151.696 -1.83124 1.44872 0
M  V30 1545 C 152.677 -1.67281 0.30838 0
M  V30 1546 O 153.862 -1.87149 0.518556 0
M  V30 1547 C 150.992 -3.21181 1.32136 0
M  V30 1548 C 149.946 -3.51714 2.43888 0
M  V30 1549 C 149.272 -4.89032 2.16222 0
M  V30 1550 C 150.572 -3.516 3.86232 0
M  V30 1551 H 152.266 -1.80117 2.39161 0
M  V30 1552 H 149.812 -0.865145 1.15114 0
M  V30 1553 H 151.765 -3.99702 1.33479 0
M  V30 1554 H 150.489 -3.24791 0.343279 0
M  V30 1555 H 149.148 -2.75539 2.41813 0
M  V30 1556 H 148.796 -4.89256 1.16778 0
M  V30 1557 H 148.496 -5.10426 2.911 0
M  V30 1558 H 150.02 -5.69873 2.19265 0
M  V30 1559 H 151.434 -4.2014 3.9007 0
M  V30 1560 H 149.831 -3.84523 4.60719 0
M  V30 1561 H 150.901 -2.50757 4.15029 0
M  V30 1562 N 152.244 -1.26651 -0.937939 0
M  V30 1563 C 153.174 -1.10993 -2.05433 0
M  V30 1564 C 154.155 -0.0142161 -1.70094 0
M  V30 1565 O 155.34 -0.186837 -1.93299 0
M  V30 1566 C 152.47 -0.745561 -3.39203 0
M  V30 1567 C 151.424 -1.79337 -3.88616 0
M  V30 1568 C 150.75 -1.28324 -5.19073 0
M  V30 1569 C 152.05 -3.19553 -4.13138 0
M  V30 1570 H 153.744 -2.0438 -2.1879 0
M  V30 1571 H 151.29 -0.984041 -1.05131 0
M  V30 1572 H 153.243 -0.622888 -4.16771 0
M  V30 1573 H 151.967 0.22401 -3.25831 0
M  V30 1574 H 150.626 -1.90477 -3.13231 0
M  V30 1575 H 150.274 -0.303414 -5.02084 0
M  V30 1576 H 149.974 -1.98369 -5.53103 0
M  V30 1577 H 151.498 -1.1733 -5.99221 0
M  V30 1578 H 152.912 -3.11471 -4.81309 0
M  V30 1579 H 151.309 -3.87218 -4.58457 0
M  V30 1580 H 152.379 -3.65368 -3.18801 0
M  V30 1581 N 153.722 1.14298 -1.08507 0
M  V30 1582 C 154.962 1.87016 -0.824894 0
M  V30 1583 C 155.326 1.81099 0.637735 0
M  V30 1584 O 156.527 2.48963 1.01345 0
M  V30 1585 C 154.798 3.31584 -1.33368 0
M  V30 1586 S 156.357 4.21903 -1.20596 0
M  V30 1587 H 153.175 0.645259 -0.2986 0
M  V30 1588 H 155.777 1.37822 -1.38656 0
M  V30 1589 H 154.481 3.33439 -2.39262 0
M  V30 1590 H 154.012 3.85836 -0.767734 0
M  V30 1591 H 156.027 4.95971 -0.150891 0
M  V30 1592 N 155.201 0.870884 1.31352 0
M  V30 1593 C 156.131 0.343096 2.30966 0
M  V30 1594 C 157.112 -0.566507 1.60389 0
M  V30 1595 O 158.297 -0.483336 1.88089 0
M  V30 1596 C 155.427 -0.455487 3.443 0
M  V30 1597 C 154.381 0.361103 4.26474 0
M  V30 1598 C 153.707 -0.563221 5.31725 0
M  V30 1599 C 155.007 1.59566 4.97329 0
M  V30 1600 H 156.701 1.17548 2.75359 0
M  V30 1601 H 154.247 0.566686 1.32381 0
M  V30 1602 H 156.2 -0.83525 4.13039 0
M  V30 1603 H 154.924 -1.32139 2.98675 0
M  V30 1604 H 153.583 0.722825 3.59403 0
M  V30 1605 H 153.231 -1.42643 4.82351 0
M  V30 1606 H 152.931 -0.0207409 5.87596 0
M  V30 1607 H 154.455 -0.939808 6.03324 0
M  V30 1608 H 155.869 1.28728 5.58661 0
M  V30 1609 H 154.266 2.07728 5.63 0
M  V30 1610 H 155.336 2.34798 4.24262 0
M  V30 1611 N 156.679 -1.44442 0.630414 0
M  V30 1612 C 157.611 -2.2892 -0.113347 0
M  V30 1613 C 158.624 -1.41243 -0.80959 0
M  V30 1614 O 159.813 -1.65402 -0.671156 0
M  V30 1615 C 156.913 -3.17594 -1.18266 0
M  V30 1616 C 156.086 -4.33682 -0.569073 0
M  V30 1617 C 155.145 -5.03397 -1.53226 0
M  V30 1618 O 154.171 -5.59438 -1.04967 0
M  V30 1619 N 155.373 -5.04783 -2.86661 0
M  V30 1620 H 158.138 -2.93392 0.611636 0
M  V30 1621 H 155.699 -1.54881 0.471523 0
M  V30 1622 H 157.691 -3.61097 -1.82732 0
M  V30 1623 H 156.261 -2.54876 -1.80988 0
M  V30 1624 H 155.481 -3.9338 0.254187 0
M  V30 1625 H 156.769 -5.08608 -0.139767 0
M  V30 1626 H 156.167 -4.60584 -3.28449 0
M  V30 1627 H 154.724 -5.52077 -3.46489 0
M  V30 1628 N 158.157 -0.370918 -1.53173 0
M  V30 1629 C 159.434 0.273754 -1.93675 0
M  V30 1630 C 159.814 1.65938 -1.3049 0
M  V30 1631 O 159.162 2.23698 -0.465999 0
M  V30 1632 C 159.372 0.318602 -3.47543 0
M  V30 1633 C 160.72 0.556392 -4.20939 0
M  V30 1634 O 161.744 0.399587 -3.53952 0
M  V30 1635 O 160.603 0.862133 -5.39657 0
M  V30 1636 H 157.697 0.165448 -0.810281 0
M  V30 1637 H 160.243 -0.42409 -1.64315 0
M  V30 1638 H 159.015 -0.652687 -3.85818 0
M  V30 1639 H 158.638 1.06212 -3.83151 0
M  V30 1640 N 159.635 1.57281 -0.100228 0
M  V30 1641 C 161.046 1.81725 0.428107 0
M  V30 1642 C 161.397 1.01619 1.67833 0
M  V30 1643 O 160.522 0.247098 2.14985 0
M  V30 1644 C 161.117 3.29617 0.78347 0
M  V30 1645 C 159.676 3.54808 1.25653 0
M  V30 1646 C 158.823 2.76118 0.255752 0
M  V30 1647 H 161.774 1.55324 -0.325608 0
M  V30 1648 H 161.795 3.4322 1.64256 0
M  V30 1649 H 161.307 3.87893 -0.12665 0
M  V30 1650 H 159.408 3.01868 2.18418 0
M  V30 1651 H 159.521 4.63443 1.21482 0
M  V30 1652 H 157.885 2.43745 0.738956 0
M  V30 1653 H 158.668 3.37145 -0.647136 0
M  V30 1654 N 161.113 -0.173488 1.56642 0
M  V30 1655 C 162.36 -0.890465 1.81871 0
M  V30 1656 C 162.688 -1.82339 0.67696 0
M  V30 1657 O 161.943 -1.92795 -0.335926 0
M  V30 1658 C 162.242 -1.72069 3.13252 0
M  V30 1659 C 161.908 -0.936878 4.41059 0
M  V30 1660 C 160.57 -0.720545 4.75775 0
M  V30 1661 C 162.922 -0.386919 5.19762 0
M  V30 1662 C 160.25 0.0568829 5.86672 0
M  V30 1663 C 162.602 0.37741 6.31473 0
M  V30 1664 C 161.266 0.604563 6.64757 0
M  V30 1665 H 160.536 -0.325844 0.665512 0
M  V30 1666 H 163.183 -0.155527 1.90867 0
M  V30 1667 H 161.488 -2.52496 2.99588 0
M  V30 1668 H 163.185 -2.27844 3.29982 0
M  V30 1669 H 159.775 -1.11553 4.13828 0
M  V30 1670 H 163.959 -0.541398 4.93338 0
M  V30 1671 H 159.215 0.242635 6.10918 0
M  V30 1672 H 163.389 0.810825 6.91664 0
M  V30 1673 H 161.016 1.20885 7.50527 0
M  V30 1674 N 162.591 -1.51276 -0.441967 0
M  V30 1675 C 163.839 -1.63392 -1.18943 0
M  V30 1676 C 164.16 -0.350159 -1.9183 0
M  V30 1677 O 163.43 0.633784 -1.85364 0
M  V30 1678 H 162.01 -0.602164 -0.442049 0
M  V30 1679 H 164.672 -1.88186 -0.507165 0
M  V30 1680 H 163.768 -2.45934 -1.92154 0
M  V30 1681 N 164.069 0.697108 -1.41344 0
M  V30 1682 C 164.999 1.82353 -1.45841 0
M  V30 1683 C 165.98 1.67115 -0.317247 0
M  V30 1684 O 167.165 1.86871 -0.528474 0
M  V30 1685 C 164.295 3.20476 -1.33838 0
M  V30 1686 C 163.249 3.50415 -2.4575 0
M  V30 1687 C 162.575 4.87878 -2.18813 0
M  V30 1688 C 163.875 3.49546 -3.88091 0
M  V30 1689 H 165.569 1.78846 -2.40113 0
M  V30 1690 H 163.115 0.859028 -1.15571 0
M  V30 1691 H 165.068 3.98988 -1.35596 0
M  V30 1692 H 163.792 3.24604 -0.360498 0
M  V30 1693 H 162.451 2.74253 -2.43271 0
M  V30 1694 H 162.099 4.8863 -1.19371 0
M  V30 1695 H 161.799 5.08875 -2.93803 0
M  V30 1696 H 163.323 5.68702 -2.22284 0
M  V30 1697 H 164.737 4.18066 -3.92293 0
M  V30 1698 H 163.134 3.82075 -4.62751 0
M  V30 1699 H 164.204 2.48552 -4.16353 0
M  V30 1700 N 165.547 1.27147 0.931209 0
M  V30 1701 C 166.958 1.12044 1.49342 0
M  V30 1702 C 167.309 -0.295795 1.93957 0
M  V30 1703 O 166.434 -1.18835 1.80852 0
M  V30 1704 C 167.029 2.02781 2.71414 0
M  V30 1705 C 165.588 1.91794 3.2387 0
M  V30 1706 C 164.735 1.95543 1.96617 0
M  V30 1707 H 167.686 1.40091 0.745672 0
M  V30 1708 H 167.707 1.58156 3.46074 0
M  V30 1709 H 167.219 3.05848 2.38911 0
M  V30 1710 H 165.32 0.916992 3.6114 0
M  V30 1711 H 165.433 2.77852 3.90302 0
M  V30 1712 H 163.797 1.39722 2.12955 0
M  V30 1713 H 164.58 3.00259 1.66432 0
M  V30 1714 N 167.025 -1.13721 1.09112 0
M  V30 1715 C 167.955 -2.21148 0.749385 0
M  V30 1716 C 168.936 -1.6792 -0.271475 0
M  V30 1717 O 170.121 -1.93693 -0.140251 0
M  V30 1718 C 167.251 -3.46905 0.165659 0
M  V30 1719 C 166.205 -4.13203 1.11567 0
M  V30 1720 C 165.531 -5.33248 0.393809 0
M  V30 1721 C 166.831 -4.60912 2.45678 0
M  V30 1722 H 168.525 -2.4999 1.64758 0
M  V30 1723 H 166.071 -1.20156 0.793626 0
M  V30 1724 H 168.024 -4.21313 -0.085466 0
M  V30 1725 H 166.748 -3.17449 -0.767714 0
M  V30 1726 H 165.407 -3.40758 1.35202 0
M  V30 1727 H 165.055 -5.00054 -0.543599 0
M  V30 1728 H 164.755 -5.78552 1.02721 0
M  V30 1729 H 166.279 -6.10413 0.150908 0
M  V30 1730 H 167.693 -5.26759 2.26269 0
M  V30 1731 H 166.09 -5.16944 3.04776 0
M  V30 1732 H 167.16 -3.75603 3.06677 0
M  V30 1733 N 168.503 -0.877838 -1.30888 0
M  V30 1734 C 169.413 -0.343096 -2.32078 0
M  V30 1735 C 170.429 0.551022 -1.65045 0
M  V30 1736 O 171.605 0.445854 -1.96403 0
M  V30 1737 C 168.67 0.439905 -3.43898 0
M  V30 1738 C 167.731 -0.483111 -4.26573 0
M  V30 1739 C 166.964 0.262616 -5.33053 0
M  V30 1740 O 167.187 1.48967 -5.50604 0
M  V30 1741 O 166.121 -0.383593 -6.00676 0
M  V30 1742 H 169.947 -1.18203 -2.79753 0
M  V30 1743 H 167.532 -0.64145 -1.34929 0
M  V30 1744 H 169.414 0.883504 -4.12034 0
M  V30 1745 H 168.089 1.25526 -2.98371 0
M  V30 1746 H 166.996 -0.975374 -3.61161 0
M  V30 1747 H 168.329 -1.26427 -4.75686 0
M  V30 1748 N 169.982 1.44106 -0.638065 0
M  V30 1749 C 171.231 2.01194 -0.142744 0
M  V30 1750 C 171.544 1.50835 1.24532 0
M  V30 1751 O 172.75 2.00096 1.83504 0
M  V30 1752 C 171.206 3.59319 -0.20442 0
M  V30 1753 C 170.814 4.18674 -1.59423 0
M  V30 1754 C 172.558 4.23854 0.234079 0
M  V30 1755 C 170.465 5.69045 -1.61065 0
M  V30 1756 H 169.395 0.752367 -0.0495998 0
M  V30 1757 H 172.046 1.65246 -0.797881 0
M  V30 1758 H 170.428 3.92598 0.517946 0
M  V30 1759 H 171.602 3.96921 -2.34074 0
M  V30 1760 H 169.917 3.66453 -1.97741 0
M  V30 1761 H 172.514 5.34155 0.241443 0
M  V30 1762 H 172.857 3.96688 1.2627 0
M  V30 1763 H 173.39 3.95403 -0.436025 0
M  V30 1764 H 170.129 6.00956 -2.61787 0
M  V30 1765 H 169.649 5.929 -0.90718 0
M  V30 1766 H 171.328 6.32809 -1.34766 0
M  V30 1767 N 171.46 0.379036 1.52974 0
M  V30 1768 C 172.69 -0.20649 2.05566 0
M  V30 1769 C 173.098 -1.41906 1.25137 0
M  V30 1770 O 172.441 -1.81421 0.288464 0
M  V30 1771 C 172.503 -0.651086 3.53555 0
M  V30 1772 C 172.167 0.446626 4.54812 0
M  V30 1773 C 173.164 1.30079 5.03364 0
M  V30 1774 C 170.849 0.610719 4.98573 0
M  V30 1775 C 172.843 2.30426 5.94292 0
M  V30 1776 C 170.53 1.61754 5.89304 0
M  V30 1777 C 171.528 2.46274 6.37054 0
M  V30 1778 O 171.216 3.45237 7.25994 0
M  V30 1779 H 170.948 -0.0372381 0.674974 0
M  V30 1780 H 173.502 0.539718 1.98182 0
M  V30 1781 H 171.732 -1.44911 3.58522 0
M  V30 1782 H 173.421 -1.16112 3.88938 0
M  V30 1783 H 174.187 1.18527 4.70294 0
M  V30 1784 H 170.066 -0.0374044 4.60985 0
M  V30 1785 H 173.61 2.96432 6.31485 0
M  V30 1786 H 169.507 1.73348 6.21788 0
M  V30 1787 H 170.275 3.41124 7.44027 0
M  V30 1788 N 172.938 -1.57226 0.108567 0
M  V30 1789 C 174.168 -1.9889 -0.559142 0
M  V30 1790 C 174.576 -0.986889 -1.61422 0
M  V30 1791 O 173.919 0.0298705 -1.83676 0
M  V30 1792 C 173.981 -3.36952 -1.25315 0
M  V30 1793 C 173.645 -4.55679 -0.347248 0
M  V30 1794 C 174.642 -5.18281 0.409996 0
M  V30 1795 C 172.327 -5.0162 -0.261367 0
M  V30 1796 C 174.321 -6.25203 1.24096 0
M  V30 1797 C 172.008 -6.08405 0.573238 0
M  V30 1798 C 173.006 -6.70063 1.32304 0
M  V30 1799 O 172.694 -7.74788 2.14381 0
M  V30 1800 H 172.426 -0.658343 -0.153492 0
M  V30 1801 H 174.98 -2.04532 0.188584 0
M  V30 1802 H 173.21 -3.28032 -2.04773 0
M  V30 1803 H 174.899 -3.62974 -1.81673 0
M  V30 1804 H 175.665 -4.8371 0.353457 0
M  V30 1805 H 171.544 -4.53381 -0.834656 0
M  V30 1806 H 175.088 -6.73259 1.82669 0
M  V30 1807 H 170.985 -6.42406 0.631208 0
M  V30 1808 H 171.753 -7.91837 2.07209 0
M  V30 1809 N 174.416 0.165178 -1.56732 0
M  V30 1810 C 175.664 0.879068 -1.8198 0
M  V30 1811 C 175.985 1.82514 -0.686561 0
M  V30 1812 O 175.255 1.93694 0.293146 0
M  V30 1813 H 173.835 0.327608 -0.671329 0
M  V30 1814 H 176.497 0.163526 -1.94213 0
M  V30 1815 H 175.593 1.45228 -2.76252 0
M  V30 1816 N 175.894 1.51508 0.433938 0
M  V30 1817 C 177.305 1.56784 1.01369 0
M  V30 1818 C 177.656 0.393349 1.92217 0
M  V30 1819 O 176.781 -0.489441 2.10792 0
M  V30 1820 C 177.376 2.84144 1.8452 0
M  V30 1821 C 175.935 2.9198 2.37539 0
M  V30 1822 C 175.082 2.51482 1.16843 0
M  V30 1823 H 178.033 1.57236 0.215081 0
M  V30 1824 H 178.054 2.68098 2.70007 0
M  V30 1825 H 177.566 3.69607 1.18373 0
M  V30 1826 H 175.667 2.10955 3.0713 0
M  V30 1827 H 175.78 3.95704 2.70103 0
M  V30 1828 H 174.144 2.04758 1.51481 0
M  V30 1829 H 174.927 3.39293 0.523015 0
M  V30 1830 N 177.372 -0.689602 1.41712 0
M  V30 1831 C 178.335 -1.78521 1.43746 0
M  V30 1832 C 179.335 -1.57436 0.327191 0
M  V30 1833 O 180.525 -1.64 0.587348 0
M  V30 1834 C 177.657 -3.16971 1.25467 0
M  V30 1835 H 178.85 -1.78108 2.41283 0
M  V30 1836 H 176.403 -0.89781 1.27942 0
M  V30 1837 H 177.138 -3.23019 0.287948 0
M  V30 1838 H 176.923 -3.33678 2.05917 0
M  V30 1839 H 178.413 -3.96935 1.2974 0
M  V30 1840 N 178.85 -1.27639 -0.924453 0
M  V30 1841 C 179.76 -1.12466 -2.05885 0
M  V30 1842 C 180.776 -0.053869 -1.73917 0
M  V30 1843 O 181.952 -0.261012 -1.99702 0
M  V30 1844 C 179.017 -0.776768 -3.37886 0
M  V30 1845 C 178.078 -1.92878 -3.83532 0
M  V30 1846 C 177.311 -1.59739 -5.09234 0
M  V30 1847 O 177.534 -0.506782 -5.68144 0
M  V30 1848 O 176.468 -2.43761 -5.50331 0
M  V30 1849 H 180.294 -2.07671 -2.21599 0
M  V30 1850 H 177.879 -1.06857 -1.04413 0
M  V30 1851 H 179.761 -0.596229 -4.17161 0
M  V30 1852 H 178.436 0.145732 -3.23372 0
M  V30 1853 H 177.343 -2.1644 -3.0513 0
M  V30 1854 H 178.676 -2.8316 -4.02593 0
M  V30 1855 N 180.328 1.1314 -1.09713 0
M  V30 1856 C 181.577 1.83838 -0.829851 0
M  V30 1857 C 181.89 1.84599 0.646728 0
M  V30 1858 O 183.096 2.51218 1.02965 0
M  V30 1859 C 181.552 3.30069 -1.43466 0
M  V30 1860 C 181.16 3.37688 -2.94399 0
M  V30 1861 C 182.904 4.05788 -1.24645 0
M  V30 1862 C 180.811 4.78209 -3.47952 0
M  V30 1863 H 179.741 0.68877 -0.306777 0
M  V30 1864 H 182.392 1.27448 -1.3202 0
M  V30 1865 H 180.774 3.8628 -0.871996 0
M  V30 1866 H 181.948 2.91456 -3.56918 0
M  V30 1867 H 180.263 2.75436 -3.12289 0
M  V30 1868 H 182.86 5.09535 -1.62107 0
M  V30 1869 H 183.203 4.15878 -0.187357 0
M  V30 1870 H 183.736 3.55915 -1.77678 0
M  V30 1871 H 180.475 4.73311 -4.53495 0
M  V30 1872 H 179.995 5.24924 -2.90198 0
M  V30 1873 H 181.674 5.47133 -3.45332 0
M  V30 1874 N 181.806 0.884767 1.30421 0
M  V30 1875 C 183.053 0.503105 1.96151 0
M  V30 1876 C 183.381 -0.947676 1.69851 0
M  V30 1877 O 182.636 -1.68467 0.995861 0
M  V30 1878 C 182.935 0.724318 3.49983 0
M  V30 1879 C 182.601 2.15015 3.96332 0
M  V30 1880 C 181.263 2.54005 4.08699 0
M  V30 1881 C 183.615 3.07936 4.20505 0
M  V30 1882 C 180.943 3.85128 4.42599 0
M  V30 1883 C 183.295 4.3859 4.55874 0
M  V30 1884 C 181.959 4.77474 4.66449 0
M  V30 1885 H 181.229 0.184099 0.717766 0
M  V30 1886 H 183.876 1.12058 1.55291 0
M  V30 1887 H 182.181 0.0238086 3.91793 0
M  V30 1888 H 183.878 0.408617 3.98913 0
M  V30 1889 H 180.468 1.8375 3.87213 0
M  V30 1890 H 184.652 2.79033 4.10431 0
M  V30 1891 H 179.908 4.14996 4.48986 0
M  V30 1892 H 184.082 5.10629 4.7353 0
M  V30 1893 H 181.709 5.79115 4.92473 0
M  V30 1894 N 183.284 -1.43765 0.645699 0
M  V30 1895 C 184.234 -2.27884 -0.0726442 0
M  V30 1896 C 185.218 -1.39483 -0.802086 0
M  V30 1897 O 186.41 -1.63174 -0.685791 0
M  V30 1898 C 183.539 -3.27055 -1.04356 0
M  V30 1899 C 182.625 -4.22944 -0.312985 0
M  V30 1900 N 183.016 -5.01391 0.666386 0
M  V30 1901 C 181.314 -4.42528 -0.55546 0
M  V30 1902 C 182.015 -5.71217 1.09935 0
M  V30 1903 N 180.991 -5.41856 0.435137 0
M  V30 1904 H 184.793 -2.85949 0.678988 0
M  V30 1905 H 182.307 -1.55378 0.472368 0
M  V30 1906 H 184.304 -3.86089 -1.57292 0
M  V30 1907 H 182.964 -2.70551 -1.79534 0
M  V30 1908 H 183.975 -5.07252 1.04481 0
M  V30 1909 H 180.652 -3.97104 -1.28899 0
M  V30 1910 H 182.042 -6.44202 1.90929 0
M  V30 1911 N 184.763 -0.387143 -1.52771 0
M  V30 1912 C 185.673 0.456442 -2.30117 0
M  V30 1913 C 186.689 1.07342 -1.36944 0
M  V30 1914 O 187.865 1.07971 -1.70013 0
M  V30 1915 C 184.93 1.56957 -3.09136 0
M  V30 1916 C 183.991 0.977916 -4.18014 0
M  V30 1917 C 183.224 2.038 -4.93256 0
M  V30 1918 O 183.447 3.25271 -4.68567 0
M  V30 1919 O 182.381 1.6565 -5.78657 0
M  V30 1920 H 186.207 -0.17359 -3.03203 0
M  V30 1921 H 183.792 -0.150919 -1.48636 0
M  V30 1922 H 185.674 2.21628 -3.58412 0
M  V30 1923 H 184.349 2.18461 -2.38865 0
M  V30 1924 H 183.256 0.294525 -3.72939 0
M  V30 1925 H 184.589 0.407128 -4.90513 0
M  V30 1926 N 186.241 1.57166 -0.116904 0
M  V30 1927 C 187.652 1.82169 0.408809 0
M  V30 1928 C 188.003 1.03393 1.66746 0
M  V30 1929 O 187.128 0.269886 2.1471 0
M  V30 1930 C 187.723 3.30429 0.748466 0
M  V30 1931 C 186.282 3.5612 1.21882 0
M  V30 1932 C 185.429 2.76374 0.226452 0
M  V30 1933 H 188.38 1.5497 -0.342063 0
M  V30 1934 H 188.401 3.44943 1.60607 0
M  V30 1935 H 187.913 3.87737 -0.167784 0
M  V30 1936 H 186.014 3.04168 2.15204 0
M  V30 1937 H 186.127 4.64705 1.16559 0
M  V30 1938 H 184.491 2.44515 0.713063 0
M  V30 1939 H 185.274 3.3644 -0.682859 0
M  V30 1940 N 187.719 -0.156864 1.56817 0
M  V30 1941 C 188.966 -0.871125 1.82805 0
M  V30 1942 C 189.294 -1.81611 0.696262 0
M  V30 1943 O 188.549 -1.93141 -0.315459 0
M  V30 1944 C 188.848 -1.68737 3.1506 0
M  V30 1945 C 188.514 -0.890045 4.42028 0
M  V30 1946 C 187.176 -0.670042 4.76512 0
M  V30 1947 C 189.528 -0.331769 5.20143 0
M  V30 1948 C 186.856 0.119104 5.86579 0
M  V30 1949 C 189.208 0.444365 6.31037 0
M  V30 1950 C 187.872 0.675035 6.64078 0
M  V30 1951 H 187.142 -0.318767 0.668931 0
M  V30 1952 H 189.789 -0.135274 1.91022 0
M  V30 1953 H 188.094 -2.49304 3.0225 0
M  V30 1954 H 189.791 -2.24331 3.3238 0
M  V30 1955 H 186.381 -1.07157 4.14988 0
M  V30 1956 H 190.565 -0.489043 4.93885 0
M  V30 1957 H 185.821 0.307417 6.10627 0
M  V30 1958 H 189.995 0.884139 6.90765 0
M  V30 1959 H 187.622 1.28839 7.49203 0
M  V30 1960 N 189.197 -1.51736 -0.425897 0
M  V30 1961 C 190.127 -1.76827 -1.52494 0
M  V30 1962 C 191.108 -0.618524 -1.58456 0
M  V30 1963 O 192.293 -0.862416 -1.74 0
M  V30 1964 C 189.423 -1.90374 -2.90474 0
M  V30 1965 C 188.377 -3.0588 -2.99369 0
M  V30 1966 C 187.703 -3.04625 -4.3944 0
M  V30 1967 C 189.003 -4.45644 -2.72394 0
M  V30 1968 H 190.697 -2.68855 -1.31748 0
M  V30 1969 H 188.243 -1.29372 -0.632362 0
M  V30 1970 H 190.196 -2.0651 -3.6733 0
M  V30 1971 H 188.92 -0.95004 -3.12477 0
M  V30 1972 H 187.579 -2.89467 -2.24954 0
M  V30 1973 H 187.227 -2.0701 -4.58428 0
M  V30 1974 H 186.927 -3.82195 -4.46319 0
M  V30 1975 H 188.451 -3.22869 -5.18255 0
M  V30 1976 H 189.865 -4.62348 -3.38979 0
M  V30 1977 H 188.262 -5.25006 -2.9067 0
M  V30 1978 H 189.332 -4.54893 -1.67929 0
M  V30 1979 N 190.675 0.682077 -1.42076 0
M  V30 1980 C 192.086 1.26246 -1.37546 0
M  V30 1981 C 192.437 1.96092 -0.0651481 0
M  V30 1982 O 191.562 1.99587 0.836297 0
M  V30 1983 C 192.157 2.29594 -2.49143 0
M  V30 1984 C 190.716 2.83175 -2.47969 0
M  V30 1985 C 189.863 1.57395 -2.28303 0
M  V30 1986 H 192.814 0.475937 -1.51395 0
M  V30 1987 H 192.835 3.11175 -2.18976 0
M  V30 1988 H 192.347 1.78729 -3.44496 0
M  V30 1989 H 190.448 3.3818 -1.56413 0
M  V30 1990 H 190.561 3.32687 -3.44755 0
M  V30 1991 H 188.925 1.83699 -1.76428 0
M  V30 1992 H 189.708 1.08507 -3.25701 0
M  V30 1993 N 192.153 1.28127 0.917671 0
M  V30 1994 C 193.378 1.18007 1.70555 0
M  V30 1995 C 193.803 -0.258257 1.86319 0
M  V30 1996 O 193.161 -1.1869 1.37049 0
M  V30 1997 C 193.209 1.87948 3.07746 0
M  V30 1998 O 192.313 1.18427 3.9503 0
M  V30 1999 H 191.654 0.409867 0.522403 0
M  V30 2000 H 194.184 1.69379 1.1477 0
M  V30 2001 H 194.194 1.95701 3.58001 0
M  V30 2002 H 192.869 2.92573 2.95591 0
M  V30 2003 H 191.446 1.18811 3.53466 0
M  V30 2004 N 193.631 -1.12557 1.10312 0
M  V30 2005 C 194.594 -2.16434 0.75424 0
M  V30 2006 C 195.594 -1.59278 -0.220685 0
M  V30 2007 O 196.784 -1.742 0.00230591 0
M  V30 2008 C 193.916 -3.40699 0.116987 0
M  V30 2009 H 195.109 -2.48811 1.67431 0
M  V30 2010 H 192.662 -1.27542 0.903475 0
M  V30 2011 H 193.397 -3.13921 -0.813877 0
M  V30 2012 H 193.182 -3.83459 0.818613 0
M  V30 2013 H 194.672 -4.17451 -0.111387 0
M  V30 2014 N 195.109 -0.891671 -1.2995 0
M  V30 2015 C 196.52 -0.563104 -1.78006 0
M  V30 2016 C 196.871 0.920978 -1.73241 0
M  V30 2017 O 195.996 1.71987 -1.31337 0
M  V30 2018 C 196.591 -1.01539 -3.23226 0
M  V30 2019 C 195.15 -0.738124 -3.69092 0
M  V30 2020 C 194.297 -1.19461 -2.50249 0
M  V30 2021 H 197.248 -1.07522 -1.16725 0
M  V30 2022 H 197.269 -0.347217 -3.78912 0
M  V30 2023 H 196.781 -2.09555 -3.26662 0
M  V30 2024 H 194.882 0.329766 -3.71138 0
M  V30 2025 H 194.995 -1.33037 -4.60259 0
M  V30 2026 H 193.359 -0.613787 -2.47194 0
M  V30 2027 H 194.142 -2.28265 -2.56417 0
M  V30 2028 N 196.587 1.43421 -0.653314 0
M  V30 2029 C 197.833 2.02111 -0.166992 0
M  V30 2030 C 198.166 1.51423 1.21592 0
M  V30 2031 O 197.441 0.707389 1.8118 0
M  V30 2032 C 197.724 3.5966 -0.177948 0
M  V30 2033 C 197.577 4.20579 -1.59478 0
M  V30 2034 C 198.896 4.37413 0.4856 0
M  V30 2035 H 196.015 0.734374 -0.0621557 0
M  V30 2036 H 198.657 1.70717 -0.834016 0
M  V30 2037 H 196.807 3.86537 0.390032 0
M  V30 2038 H 198.479 4.04732 -2.21336 0
M  V30 2039 H 196.722 3.77226 -2.14204 0
M  V30 2040 H 197.393 5.29665 -1.5543 0
M  V30 2041 H 199.869 4.161 0.00234528 0
M  V30 2042 H 198.745 5.47075 0.447207 0
M  V30 2043 H 199.006 4.13672 1.55974 0
M  V30 2044 N 198.065 0.39524 1.52563 0
M  V30 2045 C 199.29 -0.187456 2.06551 0
M  V30 2046 C 199.715 -1.39249 1.26457 0
M  V30 2047 O 199.073 -1.78947 0.291151 0
M  V30 2048 C 199.121 -0.529985 3.56684 0
M  V30 2049 O 198.225 -1.62307 3.79118 0
M  V30 2050 H 197.566 -0.0202537 0.663691 0
M  V30 2051 H 200.096 0.564426 1.96661 0
M  V30 2052 H 200.106 -0.792598 4.00227 0
M  V30 2053 H 198.781 0.350987 4.14416 0
M  V30 2054 H 197.358 -1.3537 3.47461 0
M  V30 2055 N 199.544 -1.57102 0.125237 0
M  V30 2056 C 200.792 -1.95021 -0.530198 0
M  V30 2057 C 201.113 -1.00982 -1.66816 0
M  V30 2058 O 200.383 -0.0672693 -1.95784 0
M  V30 2059 H 198.963 -0.720046 -0.198853 0
M  V30 2060 H 201.625 -1.93916 0.19564 0
M  V30 2061 H 200.721 -2.98211 -0.920681 0
M  V30 2062 N 201.022 0.148545 -1.56898 0
M  V30 2063 C 202.269 0.861418 -1.83264 0
M  V30 2064 C 202.597 1.81239 -0.705883 0
M  V30 2065 O 201.852 1.93305 0.305212 0
M  V30 2066 C 202.151 1.67064 -3.1595 0
M  V30 2067 C 201.817 0.866591 -4.42494 0
M  V30 2068 C 200.479 0.644762 -4.76861 0
M  V30 2069 C 202.831 0.30418 -5.20312 0
M  V30 2070 C 200.159 -0.15021 -5.86508 0
M  V30 2071 C 202.511 -0.477824 -6.30793 0
M  V30 2072 C 201.175 -0.710244 -6.63711 0
M  V30 2073 H 200.445 0.315215 -0.670612 0
M  V30 2074 H 203.092 0.125142 -1.91091 0
M  V30 2075 H 201.397 2.47698 -3.03567 0
M  V30 2076 H 203.094 2.22566 -3.33565 0
M  V30 2077 H 199.684 1.04955 -4.15551 0
M  V30 2078 H 203.868 0.462844 -4.94137 0
M  V30 2079 H 199.124 -0.339796 -6.10455 0
M  V30 2080 H 203.298 -0.92076 -6.90286 0
M  V30 2081 H 200.925 -1.3281 -7.48509 0
M  V30 2082 N 202.5 1.5196 0.417844 0
M  V30 2083 C 203.746 1.65836 1.16732 0
M  V30 2084 C 204.079 0.382881 1.90388 0
M  V30 2085 O 203.354 -0.618368 1.84408 0
M  V30 2086 C 203.637 2.87466 2.16876 0
M  V30 2087 C 203.49 4.25041 1.47174 0
M  V30 2088 C 204.809 3.04613 3.17646 0
M  V30 2089 H 201.928 0.603515 0.423011 0
M  V30 2090 H 204.57 1.84494 0.454105 0
M  V30 2091 H 202.72 2.71689 2.777 0
M  V30 2092 H 204.392 4.52527 0.895376 0
M  V30 2093 H 202.635 4.26843 0.773806 0
M  V30 2094 H 203.306 5.06176 2.20204 0
M  V30 2095 H 205.782 3.1923 2.66892 0
M  V30 2096 H 204.658 3.91247 3.8499 0
M  V30 2097 H 204.919 2.17541 3.84874 0
M  V30 2098 N 203.978 -0.674533 1.42435 0
M  V30 2099 C 205.206 -1.46283 1.46317 0
M  V30 2100 C 205.621 -1.88653 0.0745836 0
M  V30 2101 O 204.978 -1.58151 -0.91074 0
M  V30 2102 C 205.029 -2.71178 2.3905 0
M  V30 2103 O 204.75 -2.30586 3.72507 0
M  V30 2104 C 206.251 -3.64738 2.51955 0
M  V30 2105 H 203.471 -0.450104 0.497642 0
M  V30 2106 H 206.015 -0.828792 1.86953 0
M  V30 2107 H 204.17 -3.3077 2.01667 0
M  V30 2108 H 204.584 -3.11241 4.22172 0
M  V30 2109 H 206.058 -4.49096 3.20962 0
M  V30 2110 H 206.535 -4.10656 1.55752 0
M  V30 2111 H 207.141 -3.11038 2.90061 0
M  V30 2112 N 205.456 -1.28612 -0.910864 0
M  V30 2113 C 206.704 -1.15705 -1.65701 0
M  V30 2114 C 207.025 0.29416 -1.92769 0
M  V30 2115 O 206.295 1.20331 -1.54588 0
M  V30 2116 H 204.875 -0.425216 -0.614167 0
M  V30 2117 H 207.537 -1.61381 -1.0928 0
M  V30 2118 H 206.633 -1.6988 -2.61815 0
M  V30 2119 N 206.934 1.1197 -1.10907 0
M  V30 2120 C 208.211 1.79959 -0.766432 0
M  V30 2121 C 208.591 1.97466 0.746363 0
M  V30 2122 O 207.939 1.55491 1.67436 0
M  V30 2123 C 208.149 3.14009 -1.52314 0
M  V30 2124 C 209.497 3.89134 -1.69883 0
M  V30 2125 O 210.521 3.2368 -1.48692 0
M  V30 2126 O 209.38 5.06572 -2.05054 0
M  V30 2127 H 206.474 0.779208 -0.277062 0
M  V30 2128 H 209.02 1.18762 -1.21217 0
M  V30 2129 H 207.792 2.96587 -2.55249 0
M  V30 2130 H 207.415 3.82915 -1.07059 0
M  V30 2131 N 208.412 0.89855 1.29475 0
M  V30 2132 C 209.344 0.332726 2.26772 0
M  V30 2133 C 210.357 -0.520323 1.54261 0
M  V30 2134 O 211.546 -0.337668 1.75277 0
M  V30 2135 C 208.646 -0.544334 3.345 0
M  V30 2136 C 207.819 0.282728 4.36485 0
M  V30 2137 C 206.878 -0.526982 5.23555 0
M  V30 2138 O 205.904 0.0551165 5.69173 0
M  V30 2139 N 207.106 -1.83331 5.5079 0
M  V30 2140 H 209.871 1.16897 2.75962 0
M  V30 2141 H 207.432 0.762919 1.42798 0
M  V30 2142 H 209.424 -1.09239 3.89678 0
M  V30 2143 H 207.994 -1.28127 2.85136 0
M  V30 2144 H 207.214 1.01221 3.80983 0
M  V30 2145 H 208.502 0.84918 5.01664 0
M  V30 2146 H 207.9 -2.32898 5.15534 0
M  V30 2147 H 206.457 -2.32852 6.08788 0
M  V30 2148 N 209.89 -1.43072 0.660911 0
M  V30 2149 C 211.138 -2.01323 0.177094 0
M  V30 2150 C 211.459 -1.5245 -1.2159 0
M  V30 2151 O 210.729 -0.740322 -1.81373 0
M  V30 2152 H 209.309 -0.744382 0.0624804 0
M  V30 2153 H 211.971 -1.75179 0.854305 0
M  V30 2154 H 211.067 -3.11649 0.167641 0
M  V30 2155 N 211.368 -0.403325 -1.52352 0
M  V30 2156 C 212.617 0.175668 -2.00934 0
M  V30 2157 C 212.93 1.46718 -1.29356 0
M  V30 2158 O 214.136 2.12708 -1.68724 0
M  V30 2159 C 212.592 0.363612 -3.58058 0
M  V30 2160 C 212.2 -0.915472 -4.38547 0
M  V30 2161 C 213.944 0.89821 -4.14888 0
M  V30 2162 C 211.851 -0.695035 -5.87302 0
M  V30 2163 H 210.781 0.0694234 -0.750797 0
M  V30 2164 H 213.432 -0.527879 -1.75743 0
M  V30 2165 H 211.814 1.12935 -3.79555 0
M  V30 2166 H 212.988 -1.68691 -4.28812 0
M  V30 2167 H 211.303 -1.37606 -3.93006 0
M  V30 2168 H 213.9 1.07907 -5.23699 0
M  V30 2169 H 214.243 1.87126 -3.71873 0
M  V30 2170 H 214.776 0.191681 -3.97338 0
M  V30 2171 H 211.515 -1.63948 -6.34666 0
M  V30 2172 H 211.035 0.0372116 -5.99788 0
M  V30 2173 H 212.714 -0.33497 -6.46132 0
M  V30 2174 N 212.846 1.57033 -0.133567 0
M  V30 2175 C 214.094 1.953 0.519848 0
M  V30 2176 C 214.415 1.01866 1.66278 0
M  V30 2177 O 213.685 0.0776513 1.95746 0
M  V30 2178 H 212.265 0.721091 0.195032 0
M  V30 2179 H 214.927 1.93809 -0.205921 0
M  V30 2180 H 214.023 2.98695 0.904854 0
M  V30 2181 N 214.325 -0.140222 1.56975 0
M  V30 2182 C 215.275 -1.17827 1.95194 0
M  V30 2183 C 216.259 -1.38195 0.824075 0
M  V30 2184 O 217.451 -1.39643 1.0876 0
M  V30 2185 C 214.58 -2.51024 2.34184 0
M  V30 2186 C 213.666 -2.3422 3.53556 0
M  V30 2187 N 214.057 -1.87185 4.69889 0
M  V30 2188 C 212.355 -2.64949 3.58773 0
M  V30 2189 C 213.056 -1.83586 5.5197 0
M  V30 2190 N 212.032 -2.2715 4.93866 0
M  V30 2191 H 215.834 -0.806817 2.82609 0
M  V30 2192 H 213.348 -0.348208 1.58623 0
M  V30 2193 H 215.345 -3.26074 2.59772 0
M  V30 2194 H 214.005 -2.88945 1.48124 0
M  V30 2195 H 215.016 -1.57048 4.93514 0
M  V30 2196 H 211.693 -3.067 2.8327 0
M  V30 2197 H 213.083 -1.48655 6.55249 0
M  V30 2198 N 215.803 -1.52179 -0.40978 0
M  V30 2199 C 217.05 -1.66206 -1.15679 0
M  V30 2200 C 217.378 -0.391674 -1.90516 0
M  V30 2201 O 216.633 0.62533 -1.8544 0
M  V30 2202 C 216.932 -2.83428 -2.17723 0
M  V30 2203 C 216.598 -4.21672 -1.59699 0
M  V30 2204 C 215.26 -4.59274 -1.43599 0
M  V30 2205 C 217.612 -5.07825 -1.17317 0
M  V30 2206 C 214.94 -5.80709 -0.836328 0
M  V30 2207 C 217.292 -6.29864 -0.587691 0
M  V30 2208 C 215.956 -6.66216 -0.413818 0
M  V30 2209 H 215.226 -0.608192 -0.423301 0
M  V30 2210 H 217.873 -1.86279 -0.444097 0
M  V30 2211 H 216.178 -2.57687 -2.95135 0
M  V30 2212 H 217.875 -2.91477 -2.75394 0
M  V30 2213 H 214.465 -3.9204 -1.73213 0
M  V30 2214 H 218.649 -4.79359 -1.28565 0
M  V30 2215 H 213.905 -6.07498 -0.689626 0
M  V30 2216 H 218.079 -6.95948 -0.250894 0
M  V30 2217 H 215.706 -7.60182 0.0529471 0
M  V30 2218 N 217.281 0.66697 -1.42791 0
M  V30 2219 C 218.527 1.4291 -1.43891 0
M  V30 2220 C 218.86 1.94114 -0.0578972 0
M  V30 2221 O 218.135 1.71414 0.91911 0
M  V30 2222 C 218.418 2.62049 -2.46987 0
M  V30 2223 C 218.271 2.16426 -3.94309 0
M  V30 2224 C 219.59 3.64266 -2.46978 0
M  V30 2225 H 216.709 0.518306 -0.523954 0
M  V30 2226 H 219.351 0.757321 -1.74255 0
M  V30 2227 H 217.501 3.19361 -2.21225 0
M  V30 2228 H 219.173 1.64221 -4.31079 0
M  V30 2229 H 217.416 1.47925 -4.078 0
M  V30 2230 H 218.087 3.02038 -4.62036 0
M  V30 2231 H 220.563 3.16686 -2.69906 0
M  V30 2232 H 219.439 4.45196 -3.21079 0
M  V30 2233 H 219.7 4.15927 -1.49857 0
M  V30 2234 N 218.759 1.29093 0.90403 0
M  V30 2235 C 220.175 1.07011 1.1841 0
M  V30 2236 C 220.375 -0.181358 2.00682 0
M  V30 2237 O 219.431 -0.880331 2.36657 0
M  V30 2238 C 220.744 2.32311 1.90924 0
M  V30 2239 C 222.292 2.37587 2.03768 0
M  V30 2240 C 222.767 3.62679 2.79693 0
M  V30 2241 N 224.258 3.63376 2.87249 0
M  V30 2242 C 224.993 4.56848 3.46522 0
M  V30 2243 N 224.489 5.60648 4.06996 0
M  V30 2244 N 226.282 4.44426 3.44154 0
M  V30 2245 H 218.433 2.09412 0.354993 0
M  V30 2246 H 220.696 0.922181 0.219742 0
M  V30 2247 H 220.402 3.23536 1.37905 0
M  V30 2248 H 220.276 2.39483 2.91424 0
M  V30 2249 H 222.663 1.46853 2.55965 0
M  V30 2250 H 222.744 2.34403 1.02415 0
M  V30 2251 H 222.388 4.53762 2.28173 0
M  V30 2252 H 222.318 3.63119 3.81381 0
M  V30 2253 H 224.809 2.88321 2.44293 0
M  V30 2254 H 225.122 6.28101 4.50232 0
M  V30 2255 H 223.467 5.64463 4.05471 0
M  V30 2256 H 226.658 3.62529 2.96126 0
M  V30 2257 H 226.831 5.17457 3.90054 0
M  V30 2258 N 220.237 -1.11381 1.11499 0
M  V30 2259 C 221.477 -1.84763 0.874188 0
M  V30 2260 C 221.841 -1.82726 -0.589496 0
M  V30 2261 O 223.042 -2.51562 -0.947089 0
M  V30 2262 C 221.313 -3.27931 1.42112 0
M  V30 2263 S 222.872 -4.18557 1.31739 0
M  V30 2264 H 219.69 -0.637115 0.315603 0
M  V30 2265 H 222.292 -1.34097 1.42261 0
M  V30 2266 H 220.996 -3.26978 2.48019 0
M  V30 2267 H 220.527 -3.83665 0.869761 0
M  V30 2268 H 222.542 -4.95396 0.282335 0
M  V30 2269 N 221.715 -0.905404 -1.28997 0
M  V30 2270 C 222.961 -0.535039 -1.95615 0
M  V30 2271 C 223.294 0.917404 -1.71165 0
M  V30 2272 O 222.569 1.65123 -1.02785 0
M  V30 2273 C 222.852 -0.834918 -3.50287 0
M  V30 2274 C 222.705 -2.33948 -3.84172 0
M  V30 2275 C 224.024 -0.325318 -4.38896 0
M  V30 2276 H 221.143 -0.195861 -0.710498 0
M  V30 2277 H 223.785 -1.13313 -1.52513 0
M  V30 2278 H 221.935 -0.325904 -3.87131 0
M  V30 2279 H 223.607 -2.91847 -3.57243 0
M  V30 2280 H 221.85 -2.79789 -3.31513 0
M  V30 2281 H 222.521 -2.49987 -4.92149 0
M  V30 2282 H 224.997 -0.761256 -4.09077 0
M  V30 2283 H 223.873 -0.564295 -5.45992 0
M  V30 2284 H 224.134 0.774144 -4.35269 0
M  V30 2285 N 223.193 1.4272 -0.668489 0
M  V30 2286 C 224.604 1.84793 -0.266151 0
M  V30 2287 C 224.955 1.55959 1.19043 0
M  V30 2288 O 224.08 1.01622 1.91055 0
M  V30 2289 C 224.675 3.35436 -0.476271 0
M  V30 2290 C 223.234 3.76182 -0.128113 0
M  V30 2291 C 222.381 2.66344 -0.771777 0
M  V30 2292 H 225.332 1.32656 -0.871098 0
M  V30 2293 H 225.353 3.79515 0.273561 0
M  V30 2294 H 224.865 3.5639 -1.53647 0
M  V30 2295 H 222.966 3.60836 0.928891 0
M  V30 2296 H 223.079 4.75766 -0.564231 0
M  V30 2297 H 221.443 2.53885 -0.203652 0
M  V30 2298 H 222.226 2.90123 -1.83531 0
M  V30 2299 N 224.671 0.411399 1.52136 0
M  V30 2300 C 225.948 -0.222308 1.94333 0
M  V30 2301 C 226.328 -1.6242 1.34844 0
M  V30 2302 O 225.676 -2.22384 0.525145 0
M  V30 2303 C 225.886 -0.226345 3.48265 0
M  V30 2304 C 227.234 -0.444592 4.22266 0
M  V30 2305 O 228.258 -0.305602 3.54887 0
M  V30 2306 O 227.117 -0.718749 5.41753 0
M  V30 2307 H 224.211 -0.143907 0.814383 0
M  V30 2308 H 226.757 0.467506 1.63133 0
M  V30 2309 H 225.529 0.75475 3.83952 0
M  V30 2310 H 225.152 -0.960163 3.85832 0
M  V30 2311 N 226.149 -1.5696 0.141893 0
M  V30 2312 C 227.377 -2.00322 -0.517579 0
M  V30 2313 C 227.792 -1.02193 -1.58752 0
M  V30 2314 O 227.149 -0.0181619 -1.82491 0
M  V30 2315 C 227.2 -3.43618 -1.12289 0
M  V30 2316 O 226.921 -4.37995 -0.0956929 0
M  V30 2317 C 228.422 -4.02231 -1.86347 0
M  V30 2318 H 225.642 -0.657243 -0.135177 0
M  V30 2319 H 228.186 -2.03146 0.234973 0
M  V30 2320 H 226.341 -3.41662 -1.82609 0
M  V30 2321 H 226.755 -5.21729 -0.538469 0
M  V30 2322 H 228.229 -5.04509 -2.23997 0
M  V30 2323 H 228.706 -3.42655 -2.74744 0
M  V30 2324 H 229.312 -4.07802 -1.20737 0
M  V30 2325 N 227.627 0.131896 -1.57047 0
M  V30 2326 C 228.59 1.14638 -1.98471 0
M  V30 2327 C 229.59 1.35029 -0.873148 0
M  V30 2328 O 230.78 1.31764 -1.13946 0
M  V30 2329 C 227.912 2.50358 -2.31373 0
M  V30 2330 H 229.105 0.79064 -2.8929 0
M  V30 2331 H 226.658 0.375761 -1.51716 0
M  V30 2332 H 227.393 2.90876 -1.43393 0
M  V30 2333 H 227.178 2.36915 -3.12432 0
M  V30 2334 H 228.668 3.23395 -2.64207 0
M  V30 2335 N 229.106 1.52395 0.401703 0
M  V30 2336 C 230.053 1.76268 1.48991 0
M  V30 2337 C 231.023 0.605386 1.54675 0
M  V30 2338 O 232.208 0.843742 1.7113 0
M  V30 2339 C 229.348 1.92592 2.86361 0
M  V30 2340 C 228.461 3.20259 2.89928 0
M  V30 2341 C 227.596 3.26972 4.18644 0
M  V30 2342 C 226.635 4.48812 4.16214 0
M  V30 2343 N 225.772 4.52877 5.36514 0
M  V30 2344 H 230.612 2.6914 1.27935 0
M  V30 2345 H 228.149 1.33355 0.620871 0
M  V30 2346 H 230.107 2.0004 3.66115 0
M  V30 2347 H 228.737 1.03093 3.05895 0
M  V30 2348 H 227.789 3.21945 2.02621 0
M  V30 2349 H 229.101 4.10056 2.83999 0
M  V30 2350 H 228.255 3.33533 5.06794 0
M  V30 2351 H 226.994 2.35126 4.27278 0
M  V30 2352 H 225.999 4.4239 3.26453 0
M  V30 2353 H 227.224 5.41961 4.09213 0
M  V30 2354 H 225.17 3.63917 5.45802 0
M  V30 2355 H 225.087 5.36529 5.32609 0
M  V30 2356 H 226.355 4.63676 6.26597 0
M  V30 2357 N 230.584 -0.659388 1.43143 0
M  V30 2358 C 231.547 -1.75432 1.47501 0
M  V30 2359 C 232.547 -1.56707 0.360512 0
M  V30 2360 O 233.737 -1.62717 0.622002 0
M  V30 2361 C 230.869 -3.14239 1.32162 0
M  V30 2362 H 232.062 -1.7295 2.45006 0
M  V30 2363 H 229.615 -0.870469 1.29817 0
M  V30 2364 H 230.35 -3.22336 0.356401 0
M  V30 2365 H 230.135 -3.29235 2.12948 0
M  V30 2366 H 231.625 -3.94094 1.3813 0
M  V30 2367 N 232.062 -1.29571 -0.897171 0
M  V30 2368 C 232.995 -1.0924 -2.00354 0
M  V30 2369 C 233.973 -0.00354011 -1.626 0
M  V30 2370 O 235.157 -0.15473 -1.87864 0
M  V30 2371 C 232.284 -0.66352 -3.32137 0
M  V30 2372 C 231.33 -1.75146 -3.88878 0
M  V30 2373 S 232.163 -3.35124 -4.17674 0
M  V30 2374 C 233.319 -2.9411 -5.52494 0
M  V30 2375 H 233.552 -2.02907 -2.17292 0
M  V30 2376 H 231.085 -1.13746 -1.04408 0
M  V30 2377 H 233.043 -0.422791 -4.08317 0
M  V30 2378 H 231.704 0.253588 -3.13075 0
M  V30 2379 H 230.897 -1.40337 -4.84068 0
M  V30 2380 H 230.499 -1.94584 -3.19395 0
M  V30 2381 H 232.791 -2.41312 -6.33068 0
M  V30 2382 H 233.734 -3.88161 -5.9223 0
M  V30 2383 H 234.142 -2.32332 -5.14473 0
M  V30 2384 N 233.54 1.10788 -1.12088 0
M  V30 2385 C 234.503 2.15207 -0.788577 0
M  V30 2386 C 235.503 1.59609 0.195317 0
M  V30 2387 O 236.693 1.74174 -0.0300193 0
M  V30 2388 C 233.825 3.4047 -0.171174 0
M  V30 2389 H 235.018 2.46116 -1.71368 0
M  V30 2390 H 232.571 1.26089 -0.923652 0
M  V30 2391 H 233.306 3.15176 0.763832 0
M  V30 2392 H 233.091 3.82109 -0.879514 0
M  V30 2393 H 234.581 4.17576 0.04496 0
M  V30 2394 N 235.018 0.912232 1.28515 0
M  V30 2395 C 236.265 0.544599 1.95039 0
M  V30 2396 C 236.593 -0.911435 1.71823 0
M  V30 2397 O 235.848 -1.66317 1.03137 0
M  V30 2398 C 236.147 0.798392 3.48368 0
M  V30 2399 C 235.813 2.23374 3.91682 0
M  V30 2400 C 234.475 2.62617 4.03219 0
M  V30 2401 C 236.827 3.16786 4.13879 0
M  V30 2402 C 234.155 3.94429 4.3433 0
M  V30 2403 C 236.507 4.48161 4.46469 0
M  V30 2404 C 235.171 4.8726 4.56217 0
M  V30 2405 H 234.441 0.199283 0.7137 0
M  V30 2406 H 237.088 1.15327 1.52879 0
M  V30 2407 H 235.393 0.106908 3.91654 0
M  V30 2408 H 237.09 0.493141 3.97956 0
M  V30 2409 H 233.68 1.91922 3.83228 0
M  V30 2410 H 237.864 2.87677 4.0442 0
M  V30 2411 H 233.12 4.24426 4.40082 0
M  V30 2412 H 237.294 5.20559 4.62592 0
M  V30 2413 H 234.921 5.89431 4.80078 0
M  V30 2414 N 236.496 -1.42363 0.676048 0
M  V30 2415 C 237.726 -2.05561 0.206967 0
M  V30 2416 C 238.134 -1.50887 -1.14148 0
M  V30 2417 O 237.477 -0.643933 -1.72044 0
M  V30 2418 C 237.539 -3.5944 0.0659508 0
M  V30 2419 C 237.203 -4.36812 1.34331 0
M  V30 2420 C 238.2 -4.67383 2.27704 0
M  V30 2421 C 235.885 -4.76429 1.59125 0
M  V30 2422 C 237.879 -5.36509 3.44147 0
M  V30 2423 C 235.566 -5.45294 2.75857 0
M  V30 2424 C 236.564 -5.75259 3.68193 0
M  V30 2425 O 236.252 -6.42712 4.82883 0
M  V30 2426 H 235.984 -0.668872 0.0979084 0
M  V30 2427 H 238.538 -1.83467 0.923531 0
M  V30 2428 H 236.768 -3.80197 -0.706204 0
M  V30 2429 H 238.457 -4.0427 -0.363418 0
M  V30 2430 H 239.223 -4.37275 2.09799 0
M  V30 2431 H 235.102 -4.52498 0.881258 0
M  V30 2432 H 238.646 -5.59814 4.16238 0
M  V30 2433 H 234.543 -5.7482 2.93688 0
M  V30 2434 H 235.311 -6.61204 4.82444 0
M  V30 2435 N 237.974 -0.419461 -1.51915 0
M  V30 2436 C 239.202 0.152136 -2.0634 0
M  V30 2437 C 239.617 1.37988 -1.28859 0
M  V30 2438 O 238.974 1.79243 -0.343232 0
M  V30 2439 C 239.025 0.492266 -3.58133 0
M  V30 2440 O 238.746 -0.686736 -4.32684 0
M  V30 2441 C 240.247 1.11648 -4.2901 0
M  V30 2442 H 237.467 0.0158325 -0.670813 0
M  V30 2443 H 240.011 -0.593394 -1.95702 0
M  V30 2444 H 238.166 1.18769 -3.68745 0
M  V30 2445 H 238.58 -0.400341 -5.2297 0
M  V30 2446 H 240.054 1.3046 -5.36362 0
M  V30 2447 H 240.531 2.09251 -3.86148 0
M  V30 2448 H 241.137 0.460958 -4.22795 0
M  V30 2449 N 239.452 1.56882 -0.150215 0
M  V30 2450 C 240.362 2.20494 0.801222 0
M  V30 2451 C 241.378 1.19019 1.26927 0
M  V30 2452 O 242.554 1.51607 1.32579 0
M  V30 2453 C 239.619 2.81659 2.02161 0
M  V30 2454 C 238.68 3.9827 1.60249 0
M  V30 2455 C 237.913 4.56508 2.7647 0
M  V30 2456 O 238.136 4.13627 3.92771 0
M  V30 2457 O 237.07 5.46719 2.51757 0
M  V30 2458 H 240.896 3.02315 0.289717 0
M  V30 2459 H 238.481 1.49202 0.0769684 0
M  V30 2460 H 240.363 3.20522 2.73576 0
M  V30 2461 H 239.038 2.02849 2.52258 0
M  V30 2462 H 237.945 3.64117 0.858477 0
M  V30 2463 H 239.278 4.78609 1.14864 0
M  V30 2464 N 240.93 -0.123565 1.57115 0
M  V30 2465 C 242.176 -0.833386 1.84885 0
M  V30 2466 C 242.509 -1.79742 0.735292 0
M  V30 2467 O 241.784 -1.92764 -0.25925 0
M  V30 2468 C 242.067 -1.5873 3.23228 0
M  V30 2469 C 241.92 -0.643183 4.45178 0
M  V30 2470 C 243.239 -2.54453 3.59085 0
M  V30 2471 H 240.358 -0.301518 0.6725 0
M  V30 2472 H 243 -0.097778 1.89748 0
M  V30 2473 H 241.15 -2.21438 3.19214 0
M  V30 2474 H 242.822 -0.0253015 4.61293 0
M  V30 2475 H 241.065 0.0456139 4.33776 0
M  V30 2476 H 241.736 -1.20724 5.38637 0
M  V30 2477 H 244.212 -2.01853 3.63861 0
M  V30 2478 H 243.088 -3.04238 4.5687 0
M  V30 2479 H 243.349 -3.36906 2.86264 0
M  V30 2480 N 242.408 -1.52605 -0.393616 0
M  V30 2481 C 243.338 -1.80022 -1.48709 0
M  V30 2482 C 244.319 -0.651995 -1.57108 0
M  V30 2483 O 245.504 -0.89913 -1.72132 0
M  V30 2484 C 242.634 -1.96492 -2.86371 0
M  V30 2485 C 241.588 -3.12161 -2.92813 0
M  V30 2486 C 240.914 -3.13877 -4.3288 0
M  V30 2487 C 242.214 -4.51322 -2.6288 0
M  V30 2488 H 243.908 -2.71589 -1.26015 0
M  V30 2489 H 241.454 -1.30684 -0.604778 0
M  V30 2490 H 243.407 -2.14255 -3.62867 0
M  V30 2491 H 242.131 -1.01611 -3.10391 0
M  V30 2492 H 240.79 -2.94173 -2.18764 0
M  V30 2493 H 240.438 -2.16687 -4.53933 0
M  V30 2494 H 240.138 -3.91576 -4.38112 0
M  V30 2495 H 241.662 -3.33789 -5.1129 0
M  V30 2496 H 243.076 -4.69435 -3.29096 0
M  V30 2497 H 241.473 -5.31053 -2.79468 0
M  V30 2498 H 242.543 -4.58353 -1.58242 0
M  V30 2499 N 243.887 0.651787 -1.4349 0
M  V30 2500 C 245.135 1.40888 -1.44897 0
M  V30 2501 C 245.456 1.94856 -0.0749086 0
M  V30 2502 O 244.726 1.74518 0.889956 0
M  V30 2503 H 243.306 0.522887 -0.533478 0
M  V30 2504 H 245.968 0.768609 -1.79104 0
M  V30 2505 H 245.064 2.25052 -2.16236 0
M  V30 2506 N 245.365 1.30045 0.890287 0
M  V30 2507 C 246.612 1.18561 1.64163 0
M  V30 2508 C 246.94 -0.260852 1.92743 0
M  V30 2509 O 246.195 -1.20376 1.54299 0
M  V30 2510 C 246.494 1.95409 2.99249 0
M  V30 2511 C 246.16 3.45066 2.90242 0
M  V30 2512 C 244.822 3.85878 2.87492 0
M  V30 2513 C 247.174 4.4039 2.78758 0
M  V30 2514 C 244.502 5.20314 2.7109 0
M  V30 2515 C 246.854 5.74928 2.63894 0
M  V30 2516 C 245.518 6.14986 2.59516 0
M  V30 2517 H 244.788 0.433846 0.600715 0
M  V30 2518 H 247.435 1.61088 1.03552 0
M  V30 2519 H 245.74 1.45501 3.63781 0
M  V30 2520 H 247.437 1.8392 3.56334 0
M  V30 2521 H 244.027 3.12631 2.93189 0
M  V30 2522 H 248.211 4.09806 2.79952 0
M  V30 2523 H 243.467 5.50449 2.66112 0
M  V30 2524 H 247.641 6.48434 2.53981 0
M  V30 2525 H 245.268 7.19104 2.46565 0
M  V30 2526 N 246.843 -1.10192 1.12674 0
M  V30 2527 C 248.089 -1.82475 0.884915 0
M  V30 2528 C 248.422 -1.85093 -0.58773 0
M  V30 2529 O 247.697 -1.3134 -1.43457 0
M  V30 2530 C 247.98 -3.29018 1.46353 0
M  V30 2531 C 247.833 -3.34718 3.00473 0
M  V30 2532 C 249.152 -4.25473 1.12519 0
M  V30 2533 H 246.271 -0.662492 0.322915 0
M  V30 2534 H 248.913 -1.2913 1.39375 0
M  V30 2535 H 247.063 -3.74576 1.03077 0
M  V30 2536 H 248.735 -2.97622 3.52447 0
M  V30 2537 H 246.978 -2.74541 3.35872 0
M  V30 2538 H 247.649 -4.37918 3.36053 0
M  V30 2539 H 250.125 -3.88161 1.499 0
M  V30 2540 H 249.001 -5.26365 1.55663 0
M  V30 2541 H 249.262 -4.42084 0.0377407 0
M  V30 2542 N 248.321 -0.919034 -1.28029 0
M  V30 2543 C 249.251 -0.428581 -2.29533 0
M  V30 2544 C 250.232 0.50659 -1.62381 0
M  V30 2545 O 251.417 0.413195 -1.89753 0
M  V30 2546 C 248.547 0.327388 -3.45753 0
M  V30 2547 C 247.501 -0.519137 -4.2484 0
M  V30 2548 C 246.827 0.365486 -5.33449 0
M  V30 2549 C 248.127 -1.77914 -4.91064 0
M  V30 2550 H 249.821 -1.27687 -2.70807 0
M  V30 2551 H 247.367 -0.615428 -1.30186 0
M  V30 2552 H 249.32 0.681378 -4.15855 0
M  V30 2553 H 248.044 1.20963 -3.03374 0
M  V30 2554 H 246.703 -0.855717 -3.56473 0
M  V30 2555 H 246.351 1.24642 -4.87312 0
M  V30 2556 H 246.051 -0.197356 -5.87268 0
M  V30 2557 H 247.575 0.715241 -6.06396 0
M  V30 2558 H 248.989 -1.49374 -5.53498 0
M  V30 2559 H 247.386 -2.2848 -5.54903 0
M  V30 2560 H 248.456 -2.50382 -4.15255 0
M  V30 2561 N 249.799 1.42003 -0.683588 0
M  V30 2562 C 251.024 2.06265 -0.216647 0
M  V30 2563 C 251.449 1.51059 1.12083 0
M  V30 2564 O 250.807 0.632638 1.69904 0
M  V30 2565 C 250.855 3.60191 -0.171759 0
M  V30 2566 O 249.959 4.03396 0.857069 0
M  V30 2567 H 249.3 0.65502 -0.108834 0
M  V30 2568 H 251.83 1.81982 -0.935077 0
M  V30 2569 H 251.84 4.08 0.0014303 0
M  V30 2570 H 250.515 3.99743 -1.14796 0
M  V30 2571 H 249.092 3.67117 0.654208 0
M  V30 2572 N 251.277 0.427512 1.51691 0
M  V30 2573 C 252.554 -0.201684 1.94557 0
M  V30 2574 C 252.934 -1.60981 1.36559 0
M  V30 2575 O 252.282 -2.21814 0.548702 0
M  V30 2576 C 252.492 -0.189394 3.48486 0
M  V30 2577 C 253.84 -0.39978 4.22714 0
M  V30 2578 O 254.864 -0.267945 3.55191 0
M  V30 2579 O 253.723 -0.661249 5.42485 0
M  V30 2580 H 250.817 -0.135261 0.815864 0
M  V30 2581 H 253.363 0.484782 1.62628 0
M  V30 2582 H 252.135 0.795431 3.8313 0
M  V30 2583 H 251.758 -0.919187 3.86829 0
M  V30 2584 N 252.755 -1.56801 0.158532 0
M  V30 2585 C 254.004 -1.95665 -0.489702 0
M  V30 2586 C 254.317 -1.04654 -1.65248 0
M  V30 2587 O 255.523 -1.33146 -2.3661 0
M  V30 2588 C 253.979 -3.47874 -0.922582 0
M  V30 2589 C 253.587 -4.47489 0.213893 0
M  V30 2590 C 255.331 -3.95583 -1.53996 0
M  V30 2591 C 253.238 -5.90921 -0.237903 0
M  V30 2592 H 252.168 -0.730516 -0.186716 0
M  V30 2593 H 254.819 -1.81861 0.244722 0
M  V30 2594 H 253.201 -3.57051 -1.71261 0
M  V30 2595 H 254.375 -4.50017 0.991036 0
M  V30 2596 H 252.69 -4.09764 0.740407 0
M  V30 2597 H 255.287 -5.0019 -1.8898 0
M  V30 2598 H 255.63 -3.37789 -2.43319 0
M  V30 2599 H 256.163 -3.8937 -0.814611 0
M  V30 2600 H 252.902 -6.52559 0.620236 0
M  V30 2601 H 252.422 -5.91729 -0.980676 0
M  V30 2602 H 254.101 -6.43352 -0.686067 0
M  V30 2603 N 254.233 0.115231 -1.57178 0
M  V30 2604 C 255.482 0.820945 -1.84237 0
M  V30 2605 C 255.795 1.80866 -0.744761 0
M  V30 2606 O 257.001 2.56083 -0.901871 0
M  V30 2607 C 255.457 1.51072 -3.26658 0
M  V30 2608 C 255.065 0.563795 -4.44438 0
M  V30 2609 C 256.809 2.20134 -3.62962 0
M  V30 2610 C 254.716 1.25701 -5.77887 0
M  V30 2611 H 253.646 0.310328 -0.687177 0
M  V30 2612 H 256.297 0.0737134 -1.83352 0
M  V30 2613 H 254.679 2.30471 -3.22024 0
M  V30 2614 H 255.853 -0.197247 -4.60378 0
M  V30 2615 H 254.168 -0.0200638 -4.16395 0
M  V30 2616 H 256.765 2.72696 -4.59936 0
M  V30 2617 H 257.108 2.98107 -2.90582 0
M  V30 2618 H 257.641 1.47619 -3.69396 0
M  V30 2619 H 254.38 0.518493 -6.53446 0
M  V30 2620 H 253.9 1.98997 -5.65827 0
M  V30 2621 H 255.579 1.78915 -6.2177 0
M  V30 2622 N 255.711 1.52812 0.385517 0
M  V30 2623 C 256.988 1.5861 1.14465 0
M  V30 2624 C 257.368 0.381402 2.07626 0
M  V30 2625 O 256.716 -0.629999 2.19643 0
M  V30 2626 C 256.926 2.92664 1.90128 0
M  V30 2627 C 258.274 3.46526 2.45367 0
M  V30 2628 O 259.298 2.94562 2.0028 0
M  V30 2629 O 258.157 4.37323 3.27736 0
M  V30 2630 H 255.251 0.639855 0.523941 0
M  V30 2631 H 257.797 1.65149 0.390389 0
M  V30 2632 H 256.569 3.71788 1.22022 0
M  V30 2633 H 256.192 2.89527 2.72507 0
M  V30 2634 N 257.189 -0.644168 1.43834 0
M  V30 2635 C 258.438 -1.39985 1.45214 0
M  V30 2636 C 258.751 -1.95421 0.0835494 0
M  V30 2637 O 259.957 -2.71488 -0.0251748 0
M  V30 2638 C 258.413 -2.53384 2.55587 0
M  V30 2639 C 258.021 -2.04517 3.98594 0
M  V30 2640 C 259.765 -3.30685 2.66172 0
M  V30 2641 C 257.672 -3.1518 5.00416 0
M  V30 2642 H 256.602 -0.526005 0.540218 0
M  V30 2643 H 259.253 -0.694367 1.69855 0
M  V30 2644 H 257.635 -3.26446 2.24163 0
M  V30 2645 H 258.809 -1.38405 4.39523 0
M  V30 2646 H 257.124 -1.40068 3.92135 0
M  V30 2647 H 259.721 -4.13158 3.39418 0
M  V30 2648 H 260.064 -3.79312 1.71546 0
M  V30 2649 H 260.597 -2.64708 2.96942 0
M  V30 2650 H 257.336 -2.71511 5.96625 0
M  V30 2651 H 256.856 -3.79974 4.64091 0
M  V30 2652 H 258.535 -3.80166 5.23529 0
M  V30 2653 N 258.668 -1.30515 -0.883378 0
M  V30 2654 C 259.6 -1.12846 -1.99496 0
M  V30 2655 C 260.613 -0.0712571 -1.62644 0
M  V30 2656 O 261.802 -0.317432 -1.75655 0
M  V30 2657 C 258.902 -0.699123 -3.3161 0
M  V30 2658 C 258.075 -1.83842 -3.96889 0
M  V30 2659 C 257.134 -1.39737 -5.07307 0
M  V30 2660 O 256.16 -2.10485 -5.28852 0
M  V30 2661 N 257.362 -0.277279 -5.79837 0
M  V30 2662 H 260.127 -2.08585 -2.15203 0
M  V30 2663 H 257.688 -1.22672 -1.05656 0
M  V30 2664 H 259.68 -0.387044 -4.02845 0
M  V30 2665 H 258.25 0.166276 -3.12157 0
M  V30 2666 H 257.47 -2.31853 -3.18807 0
M  V30 2667 H 258.758 -2.60187 -4.37241 0
M  V30 2668 H 258.156 0.3122 -5.64838 0
M  V30 2669 H 256.713 -0.0246623 -6.51795 0
M  V30 2670 N 260.146 1.09593 -1.13257 0
M  V30 2671 C 261.079 2.15451 -0.752061 0
M  V30 2672 C 262.057 1.60493 0.260913 0
M  V30 2673 O 263.241 1.8788 0.152819 0
M  V30 2674 C 260.368 3.38506 -0.114594 0
M  V30 2675 C 259.414 4.12183 -1.09579 0
M  V30 2676 S 260.247 4.6661 -2.62745 0
M  V30 2677 C 261.403 5.92966 -2.00354 0
M  V30 2678 H 261.636 2.47395 -1.64872 0
M  V30 2679 H 259.169 1.21515 -0.952545 0
M  V30 2680 H 261.127 4.09757 0.246808 0
M  V30 2681 H 259.788 3.04784 0.759309 0
M  V30 2682 H 258.981 5.00445 -0.597545 0
M  V30 2683 H 258.583 3.46785 -1.40057 0
M  V30 2684 H 260.875 6.63882 -1.35156 0
M  V30 2685 H 261.818 6.47467 -2.86691 0
M  V30 2686 H 262.226 5.45405 -1.4558 0
M  V30 2687 N 261.624 0.925811 1.2754 0
M  V30 2688 C 262.872 0.564138 1.94067 0
M  V30 2689 C 263.193 -0.897188 1.73134 0
M  V30 2690 O 262.463 -1.63573 1.07799 0
M  V30 2691 H 261.043 0.205645 0.718136 0
M  V30 2692 H 263.705 1.1778 1.55287 0
M  V30 2693 H 262.801 0.76881 3.02483 0
M  V30 2694 N 263.102 -1.41638 0.69111 0
M  V30 2695 C 264.513 -1.84346 0.295517 0
M  V30 2696 C 264.864 -1.57833 -1.16547 0
M  V30 2697 O 263.989 -1.04648 -1.89414 0
M  V30 2698 C 264.584 -3.34636 0.529575 0
M  V30 2699 C 263.143 -3.7593 0.187944 0
M  V30 2700 C 262.29 -2.65082 0.814052 0
M  V30 2701 H 265.241 -1.31253 0.892092 0
M  V30 2702 H 265.262 -3.79903 -0.213148 0
M  V30 2703 H 264.774 -3.53901 1.59297 0
M  V30 2704 H 262.875 -3.62268 -0.871367 0
M  V30 2705 H 262.988 -4.74808 0.63985 0
M  V30 2706 H 261.352 -2.53528 0.244017 0
M  V30 2707 H 262.135 -2.87167 1.88123 0
M  V30 2708 N 264.58 -0.43555 -1.51462 0
M  V30 2709 C 265.49 0.383001 -2.31453 0
M  V30 2710 C 266.506 1.02931 -1.4029 0
M  V30 2711 O 267.682 1.02507 -1.73362 0
M  V30 2712 C 264.747 1.47043 -3.13973 0
M  V30 2713 C 263.808 0.844433 -4.20913 0
M  V30 2714 C 263.041 1.88004 -4.9949 0
M  V30 2715 O 263.264 3.10199 -4.78678 0
M  V30 2716 O 262.198 1.47157 -5.83634 0
M  V30 2717 H 266.024 -0.269964 -3.02498 0
M  V30 2718 H 263.609 -0.19813 -1.4808 0
M  V30 2719 H 265.491 2.10113 -3.65281 0
M  V30 2720 H 264.166 2.10751 -2.45695 0
M  V30 2721 H 263.073 0.175729 -3.73687 0
M  V30 2722 H 264.406 0.250869 -4.9156 0
M  V30 2723 N 266.058 1.56714 -0.166846 0
M  V30 2724 C 267.286 2.0112 0.485644 0
M  V30 2725 C 267.701 1.04705 1.57106 0
M  V30 2726 O 267.058 0.0471923 1.82439 0
M  V30 2727 C 267.109 3.45361 1.06808 0
M  V30 2728 O 266.83 4.38092 0.0259995 0
M  V30 2729 C 268.331 4.05145 1.79924 0
M  V30 2730 H 265.551 0.65931 0.124704 0
M  V30 2731 H 268.095 2.02746 -0.267262 0
M  V30 2732 H 266.25 3.44524 1.7715 0
M  V30 2733 H 266.664 5.22519 0.455398 0
M  V30 2734 H 268.138 5.08009 2.15942 0
M  V30 2735 H 268.615 3.46982 2.69258 0
M  V30 2736 H 269.221 4.09672 1.14234 0
M  V30 2737 N 267.536 -0.106894 1.57237 0
M  V30 2738 C 268.761 -0.830287 1.90055 0
M  V30 2739 C 269.186 -1.72064 0.75998 0
M  V30 2740 O 268.544 -1.78982 -0.288991 0
M  V30 2741 C 268.592 -1.6295 3.21683 0
M  V30 2742 O 267.696 -2.73748 3.08441 0
M  V30 2743 H 267.037 -0.228855 0.623315 0
M  V30 2744 H 269.567 -0.085658 2.04421 0
M  V30 2745 H 269.577 -2.01621 3.54701 0
M  V30 2746 H 268.252 -0.975989 4.04286 0
M  V30 2747 H 266.829 -2.38192 2.86913 0
M  V30 2748 N 269.014 -1.53014 -0.377408 0
M  V30 2749 C 270.26 -1.68872 -1.12294 0
M  V30 2750 C 270.593 -0.433224 -1.89306 0
M  V30 2751 O 269.868 0.569258 -1.85983 0
M  V30 2752 C 270.151 -2.93115 -2.09179 0
M  V30 2753 C 270.004 -4.28794 -1.35853 0
M  V30 2754 C 271.323 -3.12928 -3.09458 0
M  V30 2755 H 268.442 -0.614518 -0.406862 0
M  V30 2756 H 271.084 -1.85633 -0.40503 0
M  V30 2757 H 269.234 -2.78956 -2.70399 0
M  V30 2758 H 270.906 -4.54742 -0.775082 0
M  V30 2759 H 269.149 -4.28744 -0.660364 0
M  V30 2760 H 269.82 -5.11837 -2.06706 0
M  V30 2761 H 272.296 -3.26194 -2.58334 0
M  V30 2762 H 271.172 -4.01316 -3.74482 0
M  V30 2763 H 271.433 -2.27669 -3.78971 0
M  V30 2764 N 270.492 0.636531 -1.44174 0
M  V30 2765 C 271.903 1.21806 -1.41493 0
M  V30 2766 C 272.254 1.95785 -0.1275 0
M  V30 2767 O 271.379 2.02147 0.772376 0
M  V30 2768 C 271.974 2.21551 -2.56321 0
M  V30 2769 C 270.533 2.75143 -2.56853 0
M  V30 2770 C 269.68 1.50052 -2.33195 0
M  V30 2771 H 272.631 0.427531 -1.52833 0
M  V30 2772 H 272.652 3.0405 -2.28765 0
M  V30 2773 H 272.164 1.67679 -3.50008 0
M  V30 2774 H 270.265 3.33033 -1.67093 0
M  V30 2775 H 270.378 3.2155 -3.55165 0
M  V30 2776 H 268.742 1.77993 -1.82183 0
M  V30 2777 H 269.525 0.980903 -3.28988 0
M  V30 2778 N 271.97 1.30982 0.876444 0
M  V30 2779 C 272.933 1.18054 1.96459 0
M  V30 2780 C 273.933 0.109399 1.60427 0
M  V30 2781 O 275.123 0.358173 1.70478 0
M  V30 2782 C 272.255 0.810616 3.31122 0
M  V30 2783 H 273.448 2.14735 2.09354 0
M  V30 2784 H 271.001 1.145 1.06392 0
M  V30 2785 H 271.736 -0.155322 3.23928 0
M  V30 2786 H 271.521 1.58481 3.58645 0
M  V30 2787 H 273.011 0.743876 4.10921 0
M  V30 2788 N 273.449 -1.08991 1.13837 0
M  V30 2789 C 274.399 -2.1393 0.788535 0
M  V30 2790 C 275.383 -1.59396 -0.219516 0
M  V30 2791 O 276.575 -1.76985 -0.0227557 0
M  V30 2792 C 273.704 -3.42305 0.261147 0
M  V30 2793 C 272.79 -4.03736 1.29837 0
M  V30 2794 N 273.181 -4.39659 2.50067 0
M  V30 2795 C 271.479 -4.30993 1.1472 0
M  V30 2796 C 272.18 -4.88113 3.16419 0
M  V30 2797 N 271.156 -4.85846 2.43832 0
M  V30 2798 H 274.958 -2.39516 1.70322 0
M  V30 2799 H 272.472 -1.26263 1.02134 0
M  V30 2800 H 274.469 -4.16899 -0.0077405 0
M  V30 2801 H 273.129 -3.18172 -0.647805 0
M  V30 2802 H 274.14 -4.30878 2.8734 0
M  V30 2803 H 270.817 -4.16444 0.296773 0
M  V30 2804 H 272.207 -5.25336 4.18894 0
M  V30 2805 N 274.927 -0.932562 -1.27047 0
M  V30 2806 C 276.174 -0.575559 -1.94148 0
M  V30 2807 C 276.502 0.883984 -1.73251 0
M  V30 2808 O 275.757 1.64655 -1.0577 0
M  V30 2809 C 276.056 -0.853713 -3.47054 0
M  V30 2810 C 275.722 -2.29577 -3.88079 0
M  V30 2811 C 274.384 -2.68999 -3.9899 0
M  V30 2812 C 276.736 -3.23331 -4.08787 0
M  V30 2813 C 274.064 -4.01289 -4.28 0
M  V30 2814 C 276.416 -4.55207 -4.39282 0
M  V30 2815 C 275.08 -4.94457 -4.48407 0
M  V30 2816 H 274.35 -0.210612 -0.710439 0
M  V30 2817 H 276.997 -1.17744 -1.51025 0
M  V30 2818 H 275.302 -0.169204 -3.91434 0
M  V30 2819 H 276.999 -0.55639 -3.97121 0
M  V30 2820 H 273.589 -1.97994 -3.80127 0
M  V30 2821 H 277.773 -2.94074 -3.99793 0
M  V30 2822 H 273.029 -4.31374 -4.33275 0
M  V30 2823 H 277.203 -5.27852 -4.54252 0
M  V30 2824 H 274.83 -5.96994 -4.7064 0
M  V30 2825 N 276.405 1.4127 -0.698611 0
M  V30 2826 C 277.335 2.33447 -0.049629 0
M  V30 2827 C 278.316 1.51982 0.763898 0
M  V30 2828 O 279.501 1.80509 0.716257 0
M  V30 2829 C 276.631 3.35828 0.885267 0
M  V30 2830 C 275.585 4.27627 0.178613 0
M  V30 2831 C 274.911 5.20406 1.22807 0
M  V30 2832 C 276.211 5.13459 -0.956933 0
M  V30 2833 H 277.905 2.87966 -0.81951 0
M  V30 2834 H 275.451 1.38461 -0.395538 0
M  V30 2835 H 277.404 3.9924 1.34854 0
M  V30 2836 H 276.128 2.79666 1.68685 0
M  V30 2837 H 274.787 3.65643 -0.26466 0
M  V30 2838 H 274.435 4.60558 2.02226 0
M  V30 2839 H 274.135 5.82661 0.760239 0
M  V30 2840 H 275.659 5.86695 1.69179 0
M  V30 2841 H 277.073 5.70421 -0.573805 0
M  V30 2842 H 275.47 5.8467 -1.35205 0
M  V30 2843 H 276.54 4.50443 -1.79524 0
M  V30 2844 N 277.883 0.443576 1.51229 0
M  V30 2845 C 278.833 -0.382787 2.24764 0
M  V30 2846 C 279.817 -0.984836 1.27239 0
M  V30 2847 O 281.009 -0.901943 1.52296 0
M  V30 2848 C 278.138 -1.47989 3.09765 0
M  V30 2849 C 277.224 -0.886931 4.14722 0
M  V30 2850 N 277.615 -0.0237103 5.05794 0
M  V30 2851 C 275.913 -1.15385 4.30816 0
M  V30 2852 C 276.614 0.309971 5.80874 0
M  V30 2853 N 275.59 -0.307989 5.42727 0
M  V30 2854 H 279.392 0.282624 2.92538 0
M  V30 2855 H 276.906 0.256027 1.60369 0
M  V30 2856 H 278.903 -2.08482 3.61027 0
M  V30 2857 H 277.563 -2.14758 2.43535 0
M  V30 2858 H 278.574 0.34318 5.16762 0
M  V30 2859 H 275.251 -1.81857 3.75812 0
M  V30 2860 H 276.641 1.01279 6.64223 0
M  V30 2861 N 279.361 -1.56624 0.175154 0
M  V30 2862 C 280.601 -1.98894 -0.471221 0
M  V30 2863 C 280.965 -1.05889 -1.60161 0
M  V30 2864 O 282.166 -1.37315 -2.3108 0
M  V30 2865 C 280.437 -3.44865 -0.938241 0
M  V30 2866 S 281.996 -4.09164 -1.58526 0
M  V30 2867 H 278.814 -0.694686 -0.151434 0
M  V30 2868 H 281.416 -1.93577 0.27352 0
M  V30 2869 H 280.12 -4.10265 -0.10518 0
M  V30 2870 H 279.651 -3.53956 -1.71693 0
M  V30 2871 H 281.666 -4.04528 -2.87352 0
M  V30 2872 N 280.839 0.0985539 -1.57292 0
M  V30 2873 C 281.787 1.1387 -2.02821 0
M  V30 2874 C 282.781 1.41676 -0.928666 0
M  V30 2875 O 283.987 1.41398 -1.11385 0
M  V30 2876 H 280.362 0.384419 -0.646317 0
M  V30 2877 H 282.333 0.728347 -2.89375 0
M  V30 2878 C 281.082 2.45166 -2.46554 0
M  V30 2879 H 280.405 2.24613 -3.3074 0
M  V30 2880 H 281.845 3.16456 -2.8219 0
M  V30 2881 C 280.304 3.09216 -1.33742 0
M  V30 2882 O 280.834 3.96163 -0.66464 0
M  V30 2883 N 279.04 2.69413 -1.08928 0
M  V30 2884 H 278.587 1.98801 -1.63817 0
M  V30 2885 H 278.545 3.12594 -0.336458 0
M  V30 2886 N 282.317 1.53212 0.369288 0
M  V30 2887 C 283.565 1.68881 1.11012 0
M  V30 2888 C 283.886 0.441285 1.89941 0
M  V30 2889 O 283.156 -0.544623 1.88177 0
M  V30 2890 H 281.736 0.622569 0.412816 0
M  V30 2891 H 284.398 1.90391 0.416802 0
M  V30 2892 H 283.494 2.54822 1.80201 0
M  V30 2893 N 283.795 -0.628877 1.44509 0
M  V30 2894 C 285.211 -0.947305 1.28446 0
M  V30 2895 C 285.411 -2.00275 0.221872 0
M  V30 2896 O 284.467 -2.49447 -0.391471 0
M  V30 2897 C 285.78 -1.40843 2.65676 0
M  V30 2898 C 287.328 -1.52379 2.73404 0
M  V30 2899 C 287.803 -2.01875 4.11109 0
M  V30 2900 N 289.294 -2.09142 4.13296 0
M  V30 2901 C 290.029 -2.48615 5.16699 0
M  V30 2902 N 289.525 -2.87209 6.30462 0
M  V30 2903 N 291.318 -2.48768 5.04054 0
M  V30 2904 H 283.469 0.0690977 2.12288 0
M  V30 2905 H 285.732 -0.0317164 0.947469 0
M  V30 2906 H 285.438 -0.707206 3.44516 0
M  V30 2907 H 285.312 -2.37902 2.92716 0
M  V30 2908 H 287.699 -2.21598 1.9488 0
M  V30 2909 H 287.78 -0.536898 2.50102 0
M  V30 2910 H 287.424 -1.3325 4.90109 0
M  V30 2911 H 287.354 -3.0144 4.31789 0
M  V30 2912 H 289.845 -1.81991 3.31191 0
M  V30 2913 H 290.158 -3.16149 7.05174 0
M  V30 2914 H 288.503 -2.84955 6.33897 0
M  V30 2915 H 291.694 -2.18009 4.14234 0
M  V30 2916 H 291.867 -2.79207 5.84763 0
M  V30 2917 N 285.273 -1.31445 -0.869486 0
M  V30 2918 C 286.223 -1.15731 -1.96444 0
M  V30 2919 C 287.207 -0.0681855 -1.60755 0
M  V30 2920 O 288.399 -0.293154 -1.74555 0
M  V30 2921 C 285.528 -0.867255 -3.32165 0
M  V30 2922 C 284.614 -1.99738 -3.74119 0
M  V30 2923 N 285.005 -3.24447 -3.88031 0
M  V30 2924 C 283.303 -1.89723 -4.03635 0
M  V30 2925 C 284.004 -3.98374 -4.23879 0
M  V30 2926 N 282.98 -3.26547 -4.3459 0
M  V30 2927 H 286.782 -2.10296 -2.05312 0
M  V30 2928 H 284.296 -1.23009 -1.06031 0
M  V30 2929 H 286.293 -0.735668 -4.10358 0
M  V30 2930 H 284.953 0.0701614 -3.24624 0
M  V30 2931 H 285.964 -3.59557 -3.72746 0
M  V30 2932 H 282.641 -1.03449 -4.04481 0
M  V30 2933 H 284.031 -5.05844 -4.42235 0
M  V30 2934 N 286.751 1.08385 -1.14413 0
M  V30 2935 C 287.701 2.13509 -0.79987 0
M  V30 2936 C 288.685 1.5951 0.211059 0
M  V30 2937 O 289.877 1.76995 0.0133694 0
M  V30 2938 C 287.006 3.42162 -0.279297 0
M  V30 2939 C 286.092 4.03042 -1.31976 0
M  V30 2940 N 286.483 4.38327 -2.52395 0
M  V30 2941 C 284.781 4.30379 -1.17004 0
M  V30 2942 C 285.482 4.86428 -3.19003 0
M  V30 2943 N 284.458 4.84547 -2.46405 0
M  V30 2944 H 288.26 2.38609 -1.7159 0
M  V30 2945 H 285.774 1.2572 -1.02802 0
M  V30 2946 H 287.771 4.16898 -0.0143688 0
M  V30 2947 H 286.431 3.18511 0.630923 0
M  V30 2948 H 287.442 4.29349 -2.89621 0
M  V30 2949 H 284.119 4.16281 -0.318854 0
M  V30 2950 H 285.509 5.23107 -4.21674 0
M  V30 2951 N 288.23 0.939286 1.26551 0
M  V30 2952 C 289.458 0.602536 1.97932 0
M  V30 2953 C 289.873 -0.82206 1.69964 0
M  V30 2954 O 289.23 -1.54789 0.966784 0
M  V30 2955 C 289.281 0.832946 3.51773 0
M  V30 2956 O 289.002 2.20151 3.78768 0
M  V30 2957 C 290.503 0.506483 4.40397 0
M  V30 2958 H 287.723 0.227248 0.631347 0
M  V30 2959 H 290.267 1.25948 1.61113 0
M  V30 2960 H 288.422 0.222644 3.8676 0
M  V30 2961 H 288.836 2.26013 4.73306 0
M  V30 2962 H 290.31 0.718333 5.47306 0
M  V30 2963 H 290.787 -0.558451 4.35635 0
M  V30 2964 H 291.393 1.09543 4.10951 0
M  V30 2965 N 289.708 -1.40897 0.706093 0
M  V30 2966 C 290.957 -2.00284 0.238574 0
M  V30 2967 C 291.27 -1.56604 -1.17194 0
M  V30 2968 O 292.476 -2.08624 -1.73748 0
M  V30 2969 C 290.932 -3.57934 0.375623 0
M  V30 2970 C 290.54 -4.10591 1.79217 0
M  V30 2971 C 292.284 -4.24488 -0.0315857 0
M  V30 2972 C 290.191 -5.60712 1.88032 0
M  V30 2973 H 289.121 -0.749144 0.0854398 0
M  V30 2974 H 291.772 -1.61251 0.875813 0
M  V30 2975 H 290.154 -3.94622 -0.330042 0
M  V30 2976 H 291.328 -3.85301 2.52745 0
M  V30 2977 H 289.643 -3.56601 2.15 0
M  V30 2978 H 292.24 -5.34698 0.0136842 0
M  V30 2979 H 292.583 -4.02261 -1.072 0
M  V30 2980 H 293.116 -3.92873 0.624181 0
M  V30 2981 H 289.855 -5.87781 2.90161 0
M  V30 2982 H 289.375 -5.87896 1.18903 0
M  V30 2983 H 291.054 -6.25658 1.64805 0
M  V30 2984 N 291.186 -0.45159 -1.50991 0
M  V30 2985 C 292.149 0.341117 -2.26647 0
M  V30 2986 C 293.149 0.937422 -1.30649 0
M  V30 2987 O 294.339 0.809644 -1.54241 0
M  V30 2988 C 291.471 1.48398 -3.06905 0
M  V30 2989 H 292.664 -0.322117 -2.98165 0
M  V30 2990 H 290.217 -0.205122 -1.54948 0
M  V30 2991 H 290.952 2.18284 -2.39838 0
M  V30 2992 H 290.737 1.06241 -3.77432 0
M  V30 2993 H 292.227 2.04367 -3.64176 0
M  V30 2994 N 292.664 1.56529 -0.183458 0
M  V30 2995 C 293.594 2.21549 0.737456 0
M  V30 2996 C 294.575 1.17489 1.23005 0
M  V30 2997 O 295.76 1.45959 1.281 0
M  V30 2998 C 292.89 2.86575 1.96194 0
M  V30 2999 C 291.844 3.96778 1.60473 0
M  V30 3000 C 291.17 4.48911 2.90487 0
M  V30 3001 C 292.47 5.15767 0.823497 0
M  V30 3002 H 294.164 2.98761 0.195453 0
M  V30 3003 H 291.71 1.43702 0.0925686 0
M  V30 3004 H 293.663 3.30739 2.61131 0
M  V30 3005 H 292.387 2.06749 2.52828 0
M  V30 3006 H 291.046 3.53286 0.978997 0
M  V30 3007 H 290.694 3.65862 3.45186 0
M  V30 3008 H 290.394 5.23265 2.67335 0
M  V30 3009 H 291.918 4.95771 3.56432 0
M  V30 3010 H 293.332 5.56549 1.37571 0
M  V30 3011 H 291.729 5.96114 0.690551 0
M  V30 3012 H 292.799 4.84574 -0.177782 0
M  V30 3013 N 294.142 -0.090211 1.57342 0
M  V30 3014 C 295.105 -1.09335 2.01441 0
M  V30 3015 C 296.105 -1.32666 0.908641 0
M  V30 3016 O 297.295 -1.28697 1.174 0
M  V30 3017 C 294.427 -2.44136 2.3793 0
M  V30 3018 H 295.62 -0.713662 2.91285 0
M  V30 3019 H 293.173 -0.335404 1.52659 0
M  V30 3020 H 293.908 -2.86972 1.51055 0
M  V30 3021 H 293.693 -2.28548 3.18603 0
M  V30 3022 H 295.183 -3.16277 2.72688 0
M  V30 3023 N 295.62 -1.53406 -0.361157 0
M  V30 3024 C 296.583 -1.79479 -1.42548 0
M  V30 3025 C 297.583 -0.665327 -1.4639 0
M  V30 3026 O 298.773 -0.933549 -1.47073 0
M  V30 3027 C 295.905 -1.92087 -2.8163 0
M  V30 3028 H 297.098 -2.74538 -1.20701 0
M  V30 3029 H 294.651 -1.4455 -0.594546 0
M  V30 3030 H 295.386 -0.991099 -3.08784 0
M  V30 3031 H 295.171 -2.74241 -2.80239 0
M  V30 3032 H 296.661 -2.13836 -3.58697 0
M  V30 3033 N 297.098 0.621204 -1.44841 0
M  V30 3034 C 298.345 1.38055 -1.48145 0
M  V30 3035 C 298.673 1.94143 -0.117867 0
M  V30 3036 O 297.928 1.74713 0.881694 0
M  V30 3037 C 298.227 2.55675 -2.4973 0
M  V30 3038 C 297.893 2.17817 -3.94799 0
M  V30 3039 C 296.555 2.07205 -4.34303 0
M  V30 3040 C 298.907 1.88065 -4.86087 0
M  V30 3041 C 296.235 1.65045 -5.63007 0
M  V30 3042 C 298.587 1.47394 -6.15189 0
M  V30 3043 C 297.251 1.35331 -6.53637 0
M  V30 3044 H 296.521 0.505181 -0.542101 0
M  V30 3045 H 299.168 0.703477 -1.78111 0
M  V30 3046 H 297.473 3.2866 -2.13284 0
M  V30 3047 H 299.17 3.13904 -2.4953 0
M  V30 3048 H 295.76 2.26998 -3.63552 0
M  V30 3049 H 299.944 1.95168 -4.56315 0
M  V30 3050 H 295.2 1.54317 -5.91605 0
M  V30 3051 H 299.374 1.23415 -6.85377 0
M  V30 3052 H 297.001 1.02435 -7.53267 0
M  V30 3053 N 298.576 1.31904 0.862503 0
M  V30 3054 C 299.987 1.19803 1.43193 0
M  V30 3055 C 300.338 -0.192567 1.95253 0
M  V30 3056 O 299.463 -1.09081 1.86896 0
M  V30 3057 C 300.058 2.16883 2.60283 0
M  V30 3058 C 298.617 2.08692 3.13248 0
M  V30 3059 C 297.764 2.05691 1.85975 0
M  V30 3060 H 300.715 1.43846 0.670365 0
M  V30 3061 H 300.736 1.76278 3.37204 0
M  V30 3062 H 300.248 3.18083 2.22363 0
M  V30 3063 H 298.349 1.10713 3.55771 0
M  V30 3064 H 298.462 2.9815 3.75025 0
M  V30 3065 H 296.826 1.50814 2.05249 0
M  V30 3066 H 297.609 3.08659 1.50282 0
M  V30 3067 N 300.054 -1.07777 1.14986 0
M  V30 3068 C 301.303 -1.79669 0.916617 0
M  V30 3069 C 301.616 -1.87474 -0.557917 0
M  V30 3070 O 302.822 -2.55845 -0.908617 0
M  V30 3071 C 301.278 -3.22848 1.59051 0
M  V30 3072 C 300.886 -3.23257 3.10176 0
M  V30 3073 C 302.63 -3.99379 1.43864 0
M  V30 3074 C 300.537 -4.61063 3.70372 0
M  V30 3075 H 299.467 -0.673349 0.33929 0
M  V30 3076 H 302.118 -1.21003 1.37951 0
M  V30 3077 H 300.5 -3.8168 1.0553 0
M  V30 3078 H 301.674 -2.74095 3.70417 0
M  V30 3079 H 299.989 -2.60222 3.25074 0
M  V30 3080 H 302.586 -5.0122 1.86232 0
M  V30 3081 H 302.929 -4.14511 0.385564 0
M  V30 3082 H 303.462 -3.47032 1.94457 0
M  V30 3083 H 300.201 -4.51135 4.7556 0
M  V30 3084 H 299.721 -5.1048 3.14913 0
M  V30 3085 H 301.4 -5.30034 3.71043 0
M  V30 3086 N 301.532 -0.945985 -1.26051 0
M  V30 3087 C 302.943 -0.638096 -1.75457 0
M  V30 3088 C 303.294 0.846672 -1.76991 0
M  V30 3089 O 302.419 1.66262 -1.38513 0
M  V30 3090 C 303.014 -1.15157 -3.18629 0
M  V30 3091 C 301.573 -0.894004 -3.65629 0
M  V30 3092 C 300.72 -1.29967 -2.44957 0
M  V30 3093 H 303.671 -1.12376 -1.1206 0
M  V30 3094 H 303.692 -0.507615 -3.77099 0
M  V30 3095 H 303.204 -2.23222 -3.1748 0
M  V30 3096 H 301.305 0.172057 -3.72203 0
M  V30 3097 H 301.418 -1.52439 -4.54202 0
M  V30 3098 H 299.782 -0.718078 -2.44368 0
M  V30 3099 H 300.565 -2.38935 -2.46505 0
M  V30 3100 N 303.011 1.40521 -0.713556 0
M  V30 3101 C 303.958 2.30723 -0.059684 0
M  V30 3102 C 304.928 1.48079 0.752448 0
M  V30 3103 O 306.113 1.76823 0.71681 0
M  V30 3104 C 303.253 3.34274 0.857594 0
M  V30 3105 C 302.366 4.31986 0.0351536 0
M  V30 3106 C 301.501 5.22605 0.951724 0
M  V30 3107 C 300.54 6.11976 0.123253 0
M  V30 3108 N 299.677 6.9502 0.99459 0
M  V30 3109 H 304.517 2.86074 -0.834596 0
M  V30 3110 H 302.054 1.40879 -0.42326 0
M  V30 3111 H 304.012 3.92879 1.40364 0
M  V30 3112 H 302.642 2.8043 1.59871 0
M  V30 3113 H 301.694 3.7518 -0.628052 0
M  V30 3114 H 303.006 4.95101 -0.606347 0
M  V30 3115 H 302.16 5.86131 1.56638 0
M  V30 3116 H 300.899 4.59759 1.62705 0
M  V30 3117 H 299.904 5.47482 -0.50435 0
M  V30 3118 H 301.129 6.76881 -0.548539 0
M  V30 3119 H 299.075 6.34764 1.6556 0
M  V30 3120 H 298.992 7.54892 0.40908 0
M  V30 3121 H 300.26 7.62997 1.59549 0
M  V30 3122 N 304.489 0.459591 1.5075 0
M  V30 3123 C 305.905 0.113092 1.59199 0
M  V30 3124 C 306.105 -1.37951 1.46874 0
M  V30 3125 O 305.161 -2.15168 1.32132 0
M  V30 3126 C 306.474 0.653043 2.93523 0
M  V30 3127 C 308.022 0.615449 3.0689 0
M  V30 3128 C 308.497 1.13275 4.43771 0
M  V30 3129 N 309.988 1.09167 4.50152 0
M  V30 3130 C 310.723 1.46256 5.54434 0
M  V30 3131 N 310.219 1.90739 6.66026 0
M  V30 3132 N 312.012 1.37932 5.44914 0
M  V30 3133 H 304.163 1.43049 1.57005 0
M  V30 3134 H 306.426 0.590861 0.741341 0
M  V30 3135 H 306.132 1.69822 3.07983 0
M  V30 3136 H 306.006 0.0902132 3.77092 0
M  V30 3137 H 308.393 -0.420793 2.92084 0
M  V30 3138 H 308.474 1.21495 2.25106 0
M  V30 3139 H 308.118 2.16757 4.59324 0
M  V30 3140 H 308.048 0.509576 5.24129 0
M  V30 3141 H 310.539 0.76528 3.7007 0
M  V30 3142 H 310.852 2.17218 7.41644 0
M  V30 3143 H 309.197 1.94683 6.67176 0
M  V30 3144 H 312.388 1.0303 4.56621 0
M  V30 3145 H 312.561 1.67164 6.26067 0
M  V30 3146 N 305.967 -1.56429 0.191757 0
M  V30 3147 C 307.216 -1.9666 -0.448088 0
M  V30 3148 C 307.529 -1.08136 -1.62991 0
M  V30 3149 O 308.735 -1.38135 -2.33733 0
M  V30 3150 C 307.191 -3.49753 -0.848585 0
M  V30 3151 C 306.799 -4.46935 0.308764 0
M  V30 3152 C 308.543 -3.9876 -1.4557 0
M  V30 3153 C 306.45 -5.91293 -0.112506 0
M  V30 3154 H 305.38 -0.734312 -0.171179 0
M  V30 3155 H 308.031 -1.81301 0.283242 0
M  V30 3156 H 306.413 -3.60604 -1.63649 0
M  V30 3157 H 307.587 -4.47813 1.08627 0
M  V30 3158 H 305.902 -4.08102 0.827158 0
M  V30 3159 H 308.499 -5.04086 -1.78328 0
M  V30 3160 H 308.842 -3.42875 -2.36099 0
M  V30 3161 H 309.375 -3.9101 -0.731836 0
M  V30 3162 H 306.114 -6.51097 0.758514 0
M  V30 3163 H 305.634 -5.93676 -0.854941 0
M  V30 3164 H 307.313 -6.44663 -0.549448 0
M  V30 3165 N 307.445 0.0818655 -1.57387 0
M  V30 3166 C 308.395 1.10501 -1.99433 0
M  V30 3167 C 309.379 1.35041 -0.874798 0
M  V30 3168 O 310.571 1.35511 -1.13868 0
M  V30 3169 C 307.7 2.42159 -2.43339 0
M  V30 3170 C 306.786 2.20937 -3.62005 0
M  V30 3171 N 307.177 1.69616 -4.76512 0
M  V30 3172 C 305.475 2.51451 -3.68359 0
M  V30 3173 C 306.176 1.62973 -5.58404 0
M  V30 3174 N 305.152 2.08664 -5.01956 0
M  V30 3175 H 308.954 0.701373 -2.85408 0
M  V30 3176 H 306.468 0.289096 -1.59806 0
M  V30 3177 H 308.465 3.16208 -2.71695 0
M  V30 3178 H 307.125 2.83249 -1.58746 0
M  V30 3179 H 308.136 1.38624 -4.99003 0
M  V30 3180 H 304.813 2.95975 -2.94457 0
M  V30 3181 H 306.203 1.24233 -6.60315 0
M  V30 3182 N 308.923 1.53595 0.353017 0
M  V30 3183 C 309.873 1.77299 1.43349 0
M  V30 3184 C 310.857 0.627884 1.48143 0
M  V30 3185 O 312.049 0.88697 1.53173 0
M  V30 3186 C 309.178 1.97757 2.80619 0
M  V30 3187 C 308.264 3.18305 2.80254 0
M  V30 3188 N 308.655 4.39967 2.49526 0
M  V30 3189 C 306.953 3.19283 3.11407 0
M  V30 3190 C 307.654 5.21772 2.57156 0
M  V30 3191 N 306.63 4.58269 2.92388 0
M  V30 3192 H 310.432 2.68963 1.18474 0
M  V30 3193 H 307.946 1.52391 0.561306 0
M  V30 3194 H 309.943 2.1287 3.58458 0
M  V30 3195 H 308.603 1.07329 3.06448 0
M  V30 3196 H 309.614 4.67482 2.22893 0
M  V30 3197 H 306.291 2.3879 3.4247 0
M  V30 3198 H 307.681 6.2885 2.36638 0
M  V30 3199 N 310.401 -0.613514 1.45168 0
M  V30 3200 C 311.648 -1.37268 1.48875 0
M  V30 3201 C 311.976 -1.94077 0.128161 0
M  V30 3202 O 311.231 -1.75178 -0.872416 0
M  V30 3203 C 311.53 -2.54347 2.51083 0
M  V30 3204 C 311.196 -2.1572 3.95949 0
M  V30 3205 C 309.858 -2.04899 4.35396 0
M  V30 3206 C 312.21 -1.85485 4.87078 0
M  V30 3207 C 309.538 -1.62057 5.63875 0
M  V30 3208 C 311.89 -1.4413 6.15962 0
M  V30 3209 C 310.554 -1.31863 6.54346 0
M  V30 3210 H 309.824 -0.502299 0.544773 0
M  V30 3211 H 312.471 -0.694021 1.78481 0
M  V30 3212 H 310.776 -3.27524 2.15024 0
M  V30 3213 H 312.473 -3.12577 2.51191 0
M  V30 3214 H 309.063 -2.25066 3.64751 0
M  V30 3215 H 313.247 -1.92745 4.57343 0
M  V30 3216 H 308.503 -1.51177 5.92415 0
M  V30 3217 H 312.677 -1.19778 6.86022 0
M  V30 3218 H 310.304 -0.984392 7.538 0
M  V30 3219 N 311.879 -1.3236 -0.855495 0
M  V30 3220 C 312.812 -1.15559 -1.96777 0
M  V30 3221 C 313.79 -0.0552681 -1.62506 0
M  V30 3222 O 314.974 -0.214419 -1.87277 0
M  V30 3223 C 312.101 -0.768851 -3.29858 0
M  V30 3224 C 311.147 -1.87429 -3.83109 0
M  V30 3225 S 311.98 -3.48243 -4.06801 0
M  V30 3226 C 313.136 -3.11539 -5.42858 0
M  V30 3227 H 313.369 -2.09717 -2.10727 0
M  V30 3228 H 310.902 -1.17011 -1.00737 0
M  V30 3229 H 312.86 -0.55248 -4.06765 0
M  V30 3230 H 311.521 0.153857 -3.13723 0
M  V30 3231 H 310.714 -1.55667 -4.79358 0
M  V30 3232 H 310.316 -2.04647 -3.13042 0
M  V30 3233 H 312.608 -2.61331 -6.2507 0
M  V30 3234 H 313.551 -4.06806 -5.79582 0
M  V30 3235 H 313.959 -2.48582 -5.06821 0
M  V30 3236 N 313.357 1.07166 -1.15556 0
M  V30 3237 C 314.287 2.16403 -0.877046 0
M  V30 3238 C 315.268 1.69217 0.173111 0
M  V30 3239 O 316.453 1.94181 0.027084 0
M  V30 3240 C 313.583 3.45349 -0.367632 0
M  V30 3241 C 312.537 4.05995 -1.35468 0
M  V30 3242 C 311.863 5.30045 -0.704038 0
M  V30 3243 C 313.163 4.45804 -2.72132 0
M  V30 3244 H 314.857 2.39959 -1.79053 0
M  V30 3245 H 312.403 1.15325 -0.862331 0
M  V30 3246 H 314.356 4.21095 -0.160317 0
M  V30 3247 H 313.08 3.21385 0.581326 0
M  V30 3248 H 311.739 3.32296 -1.54839 0
M  V30 3249 H 311.387 5.02373 0.251128 0
M  V30 3250 H 311.087 5.71579 -1.36277 0
M  V30 3251 H 312.611 6.08495 -0.50654 0
M  V30 3252 H 314.025 5.12671 -2.56595 0
M  V30 3253 H 312.422 4.98296 -3.34397 0
M  V30 3254 H 313.492 3.57083 -3.28054 0
M  V30 3255 N 314.835 0.952656 1.25548 0
M  V30 3256 C 315.767 0.428609 2.25157 0
M  V30 3257 C 316.78 -0.454428 1.56329 0
M  V30 3258 O 317.969 -0.263023 1.76552 0
M  V30 3259 C 315.069 -0.401972 3.36508 0
M  V30 3260 C 314.242 0.467601 4.34893 0
M  V30 3261 C 313.301 -0.30445 5.25319 0
M  V30 3262 O 312.327 0.296473 5.68427 0
M  V30 3263 N 313.529 -1.59805 5.5807 0
M  V30 3264 H 316.294 1.28497 2.70756 0
M  V30 3265 H 313.855 0.822798 1.39433 0
M  V30 3266 H 315.847 -0.926134 3.9396 0
M  V30 3267 H 314.417 -1.15918 2.90313 0
M  V30 3268 H 313.637 1.17288 3.76347 0
M  V30 3269 H 314.925 1.06119 4.97611 0
M  V30 3270 H 314.323 -2.10823 5.24948 0
M  V30 3271 H 312.88 -2.06822 6.18116 0
M  V30 3272 N 316.313 -1.40141 0.720998 0
M  V30 3273 C 317.276 -2.29058 0.0805834 0
M  V30 3274 C 318.276 -1.45632 -0.681758 0
M  V30 3275 O 319.466 -1.6648 -0.512856 0
M  V30 3276 C 316.598 -3.28925 -0.895593 0
M  V30 3277 H 317.791 -2.87191 0.863793 0
M  V30 3278 H 315.344 -1.48553 0.485975 0
M  V30 3279 H 316.079 -2.75822 -1.70566 0
M  V30 3280 H 315.864 -3.90519 -0.351766 0
M  V30 3281 H 317.354 -3.95494 -1.34069 0
M  V30 3282 N 317.792 -0.46758 -1.50504 0
M  V30 3283 C 318.74 0.342482 -2.30065 0
M  V30 3284 C 319.734 0.993596 -1.37201 0
M  V30 3285 O 320.94 0.925102 -1.54408 0
M  V30 3286 H 317.315 0.129283 -0.740803 0
M  V30 3287 H 319.286 -0.34899 -2.96352 0
M  V30 3288 C 318.035 1.4139 -3.17654 0
M  V30 3289 H 317.358 0.922264 -3.89017 0
M  V30 3290 H 318.798 1.95335 -3.76325 0
M  V30 3291 C 317.257 2.4139 -2.35016 0
M  V30 3292 O 317.787 3.46586 -2.03079 0
M  V30 3293 N 315.993 2.13021 -1.97662 0
M  V30 3294 H 315.54 1.27499 -2.23834 0
M  V30 3295 H 315.498 2.80164 -1.42673 0
M  V30 3296 N 319.27 1.56325 -0.20005 0
M  V30 3297 C 320.498 2.02105 0.442874 0
M  V30 3298 C 320.913 1.08014 1.5485 0
M  V30 3299 O 320.27 0.0858797 1.82298 0
M  V30 3300 C 320.321 3.47549 0.994583 0
M  V30 3301 O 320.042 4.38049 -0.0669322 0
M  V30 3302 C 321.543 4.0887 1.7129 0
M  V30 3303 H 318.763 0.661807 0.110691 0
M  V30 3304 H 321.307 2.02134 -0.310207 0
M  V30 3305 H 319.462 3.48204 1.69803 0
M  V30 3306 H 319.876 5.23368 0.344462 0
M  V30 3307 H 321.35 5.12475 2.05118 0
M  V30 3308 H 321.827 3.52615 2.61838 0
M  V30 3309 H 322.433 4.12002 1.05518 0
M  V30 3310 N 320.748 -0.0735177 1.57428 0
M  V30 3311 C 321.997 -0.771809 1.86349 0
M  V30 3312 C 322.31 -1.78828 0.792452 0
M  V30 3313 O 323.516 -2.53602 0.96945 0
M  V30 3314 C 321.972 -1.42358 3.30548 0
M  V30 3315 C 321.58 -0.445761 4.45777 0
M  V30 3316 C 323.324 -2.10434 3.6867 0
M  V30 3317 C 321.231 -1.10335 5.81016 0
M  V30 3318 H 320.161 -0.291999 0.695164 0
M  V30 3319 H 322.812 -0.0250749 1.83483 0
M  V30 3320 H 321.194 -2.21852 3.28021 0
M  V30 3321 H 322.368 0.319239 4.59693 0
M  V30 3322 H 320.683 0.130457 4.16196 0
M  V30 3323 H 323.28 -2.60405 4.67004 0
M  V30 3324 H 323.623 -2.90298 2.98383 0
M  V30 3325 H 324.156 -1.37773 3.7318 0
M  V30 3326 H 320.895 -0.345061 6.54591 0
M  V30 3327 H 320.415 -1.83925 5.70904 0
M  V30 3328 H 322.094 -1.62367 6.26295 0
M  V30 3329 N 322.226 -1.5378 -0.344866 0
M  V30 3330 C 323.503 -1.61589 -1.10219 0
M  V30 3331 C 323.883 -0.436316 -2.06542 0
M  V30 3332 O 323.231 0.571543 -2.21237 0
M  V30 3333 C 323.441 -2.97602 -1.82301 0
M  V30 3334 C 324.789 -3.5291 -2.36093 0
M  V30 3335 O 325.813 -2.99768 -1.924 0
M  V30 3336 O 324.672 -4.45859 -3.16026 0
M  V30 3337 H 321.766 -0.653522 -0.506792 0
M  V30 3338 H 324.312 -1.66126 -0.346465 0
M  V30 3339 H 323.084 -3.74893 -1.12121 0
M  V30 3340 H 322.707 -2.9665 -2.64735 0
M  V30 3341 N 323.704 0.605807 -1.45491 0
M  V30 3342 C 324.981 1.36522 -1.40075 0
M  V30 3343 C 325.361 2.10976 -0.0722744 0
M  V30 3344 O 324.709 2.08007 0.945808 0
M  V30 3345 C 324.919 2.31056 -2.61561 0
M  V30 3346 C 326.267 2.93608 -3.06724 0
M  V30 3347 O 327.291 2.41376 -2.61946 0
M  V30 3348 O 326.15 3.88421 -3.84437 0
M  V30 3349 H 323.244 0.612248 -0.555951 0
M  V30 3350 H 325.79 0.628747 -1.57623 0
M  V30 3351 H 324.562 1.75311 -3.49831 0
M  V30 3352 H 324.185 3.12081 -2.46356 0
M  V30 3353 N 325.182 1.32811 0.848464 0
M  V30 3354 C 326.428 1.23907 1.60546 0
M  V30 3355 C 326.761 -0.197161 1.93197 0
M  V30 3356 O 326.036 -1.13596 1.5788 0
M  V30 3357 C 326.319 2.10489 2.92175 0
M  V30 3358 C 326.172 3.62522 2.66266 0
M  V30 3359 C 327.491 1.97075 3.93509 0
M  V30 3360 H 324.61 0.451459 0.58254 0
M  V30 3361 H 327.252 1.62818 0.979296 0
M  V30 3362 H 325.402 1.77434 3.45614 0
M  V30 3363 H 327.074 4.05821 2.19334 0
M  V30 3364 H 325.317 3.84879 2.00126 0
M  V30 3365 H 325.988 4.18437 3.6002 0
M  V30 3366 H 328.464 2.26045 3.49346 0
M  V30 3367 H 327.34 2.59923 4.83457 0
M  V30 3368 H 327.601 0.940186 4.31987 0
M  V30 3369 N 326.66 -1.06551 1.16123 0
M  V30 3370 C 327.908 -1.78947 0.939267 0
M  V30 3371 C 328.229 -1.87532 -0.534476 0
M  V30 3372 O 327.499 -1.38211 -1.38833 0
M  V30 3373 H 326.079 -0.662807 0.344523 0
M  V30 3374 H 328.741 -1.28725 1.46342 0
M  V30 3375 H 327.837 -2.81117 1.35572 0
M  V30 3376 N 328.138 -0.959301 -1.25041 0
M  V30 3377 C 329.368 -0.63303 -1.96663 0
M  V30 3378 C 329.776 0.800031 -1.71453 0
M  V30 3379 O 329.119 1.54736 -0.99008 0
M  V30 3380 C 329.181 -0.817523 -3.50081 0
M  V30 3381 C 328.845 -2.22863 -3.98975 0
M  V30 3382 C 329.842 -3.20569 -4.09306 0
M  V30 3383 C 327.527 -2.55407 -4.32519 0
M  V30 3384 C 329.521 -4.4891 -4.52503 0
M  V30 3385 C 327.208 -3.83976 -4.754 0
M  V30 3386 C 328.206 -4.8054 -4.85356 0
M  V30 3387 O 327.894 -6.06817 -5.27284 0
M  V30 3388 H 327.626 -0.235866 -0.633516 0
M  V30 3389 H 330.18 -1.2874 -1.60047 0
M  V30 3390 H 328.41 -0.105992 -3.86555 0
M  V30 3391 H 330.099 -0.491604 -4.02912 0
M  V30 3392 H 330.865 -2.96753 -3.83618 0
M  V30 3393 H 326.744 -1.8097 -4.23994 0
M  V30 3394 H 330.288 -5.24283 -4.60188 0
M  V30 3395 H 326.185 -4.07596 -5.00535 0
M  V30 3396 H 326.953 -6.10262 -5.45457 0
M  V30 3397 N 329.616 1.39756 -0.72842 0
M  V30 3398 C 330.579 2.29012 -0.0927297 0
M  V30 3399 C 331.579 1.45992 0.674025 0
M  V30 3400 O 332.769 1.66749 0.50402 0
M  V30 3401 C 329.901 3.29396 0.878137 0
M  V30 3402 H 331.094 2.86729 -0.879011 0
M  V30 3403 H 328.647 1.48293 -0.493847 0
M  V30 3404 H 329.382 2.76722 1.69101 0
M  V30 3405 H 329.167 3.907 0.331051 0
M  V30 3406 H 330.657 3.96199 1.3197 0
M  V30 3407 N 331.094 0.475555 1.50254 0
M  V30 3408 C 332.341 -0.0778919 2.0235 0
M  V30 3409 C 332.669 -1.39319 1.35722 0
M  V30 3410 O 331.924 -1.89888 0.473395 0
M  V30 3411 C 332.223 -0.305114 3.56095 0
M  V30 3412 C 331.889 0.92903 4.41225 0
M  V30 3413 C 330.551 1.26739 4.6421 0
M  V30 3414 C 332.903 1.75054 4.90923 0
M  V30 3415 C 330.231 2.42724 5.34137 0
M  V30 3416 C 332.583 2.9017 5.62125 0
M  V30 3417 C 331.247 3.24416 5.83362 0
M  V30 3418 H 330.517 -0.0285027 0.740452 0
M  V30 3419 H 333.164 0.630543 1.80821 0
M  V30 3420 H 331.469 -1.09584 3.76163 0
M  V30 3421 H 333.166 -0.747377 3.93974 0
M  V30 3422 H 329.756 0.655428 4.23559 0
M  V30 3423 H 333.94 1.50231 4.73016 0
M  V30 3424 H 329.196 2.69525 5.48786 0
M  V30 3425 H 333.37 3.54169 5.99614 0
M  V30 3426 H 330.997 4.14396 6.37323 0
M  V30 3427 N 332.573 -1.56217 0.208337 0
M  V30 3428 C 333.85 -1.89739 -0.475234 0
M  V30 3429 C 334.23 -1.1238 -1.78701 0
M  V30 3430 O 333.578 -0.228979 -2.2735 0
M  V30 3431 C 333.788 -3.42289 -0.681101 0
M  V30 3432 C 335.136 -4.12789 -0.994507 0
M  V30 3433 O 336.16 -3.47814 -0.768357 0
M  V30 3434 O 335.019 -5.27649 -1.42299 0
M  V30 3435 H 332.113 -0.788478 -0.249461 0
M  V30 3436 H 334.659 -1.67855 0.249538 0
M  V30 3437 H 333.431 -3.90534 0.244722 0
M  V30 3438 H 333.054 -3.69909 -1.45785 0
M  V30 3439 N 334.051 0.0651679 -1.57465 0
M  V30 3440 C 335.467 0.420105 -1.53972 0
M  V30 3441 C 335.667 1.78782 -0.929474 0
M  V30 3442 O 334.723 2.46771 -0.534839 0
M  V30 3443 C 336.036 0.355084 -2.98596 0
M  V30 3444 C 337.584 0.434792 -3.09965 0
M  V30 3445 C 338.059 0.399609 -4.56253 0
M  V30 3446 N 339.55 0.459488 -4.60915 0
M  V30 3447 C 340.285 0.454584 -5.71595 0
M  V30 3448 N 339.781 0.404102 -6.9162 0
M  V30 3449 N 341.574 0.501635 -5.59857 0
M  V30 3450 H 333.725 -0.830328 -1.95498 0
M  V30 3451 H 335.988 -0.312244 -0.895102 0
M  V30 3452 H 335.694 -0.583357 -3.46828 0
M  V30 3453 H 335.568 1.16275 -3.58831 0
M  V30 3454 H 337.955 1.36366 -2.61703 0
M  V30 3455 H 338.036 -0.40157 -2.52628 0
M  V30 3456 H 337.68 -0.525436 -5.05175 0
M  V30 3457 H 337.61 1.25359 -5.11461 0
M  V30 3458 H 340.101 0.502482 -3.74544 0
M  V30 3459 H 340.414 0.404468 -7.71741 0
M  V30 3460 H 338.759 0.37069 -6.94011 0
M  V30 3461 H 341.95 0.538812 -4.64989 0
M  V30 3462 H 342.123 0.494345 -6.46112 0
M  V30 3463 N 335.529 1.53961 0.336706 0
M  V30 3464 C 336.459 1.85417 1.41925 0
M  V30 3465 C 337.44 0.709856 1.5458 0
M  V30 3466 O 338.625 0.962396 1.68676 0
M  V30 3467 C 335.755 2.06985 2.78881 0
M  V30 3468 C 334.709 3.22813 2.81026 0
M  V30 3469 C 334.035 3.29727 4.20932 0
M  V30 3470 C 335.335 4.60767 2.45949 0
M  V30 3471 H 337.029 2.76079 1.15848 0
M  V30 3472 H 334.575 1.32839 0.555859 0
M  V30 3473 H 336.528 2.27575 3.54665 0
M  V30 3474 H 335.252 1.13061 3.06406 0
M  V30 3475 H 333.911 3.0209 2.07695 0
M  V30 3476 H 333.559 2.33385 4.45579 0
M  V30 3477 H 333.259 4.07566 4.23277 0
M  V30 3478 H 334.783 3.52536 4.98549 0
M  V30 3479 H 336.197 4.81325 3.11446 0
M  V30 3480 H 334.594 5.4106 2.59566 0
M  V30 3481 H 335.664 4.6391 1.41122 0
M  V30 3482 N 337.007 -0.598083 1.45811 0
M  V30 3483 C 338.284 -1.35777 1.40797 0
M  V30 3484 C 338.664 -2.10935 0.083462 0
M  V30 3485 O 338.012 -2.08505 -0.934763 0
M  V30 3486 C 338.222 -2.29666 2.62783 0
M  V30 3487 C 339.57 -2.91977 3.08277 0
M  V30 3488 O 340.594 -2.39984 2.63223 0
M  V30 3489 O 339.453 -3.86376 3.86491 0
M  V30 3490 H 336.547 -0.609291 0.55919 0
M  V30 3491 H 339.093 -0.620379 1.57954 0
M  V30 3492 H 337.865 -1.73454 3.50756 0
M  V30 3493 H 337.488 -3.1077 2.48008 0
M  V30 3494 N 338.485 -1.33259 -0.841409 0
M  V30 3495 C 339.448 -1.23221 -1.9326 0
M  V30 3496 C 340.448 -0.151895 -1.60081 0
M  V30 3497 O 341.638 -0.403246 -1.69468 0
M  V30 3498 C 338.77 -0.898123 -3.28856 0
M  V30 3499 H 339.963 -2.2021 -2.03587 0
M  V30 3500 H 337.516 -1.17281 -1.03319 0
M  V30 3501 H 338.251 0.0693841 -3.24226 0
M  V30 3502 H 338.036 -1.67934 -3.54317 0
M  V30 3503 H 339.526 -0.852563 -4.08805 0
M  V30 3504 N 339.963 1.05934 -1.16686 0
M  V30 3505 C 340.926 2.11669 -0.879144 0
M  V30 3506 C 341.926 1.60294 0.127445 0
M  V30 3507 O 343.116 1.7389 -0.103865 0
M  V30 3508 C 340.248 3.39438 -0.315425 0
M  V30 3509 H 341.441 2.38626 -1.81653 0
M  V30 3510 H 338.994 1.22058 -0.976299 0
M  V30 3511 H 339.729 3.18132 0.629468 0
M  V30 3512 H 339.514 3.78034 -1.04079 0
M  V30 3513 H 341.004 4.17391 -0.132189 0
M  V30 3514 N 341.441 0.965919 1.2453 0
M  V30 3515 C 342.689 0.625593 1.92174 0
M  V30 3516 C 343.01 -0.841652 1.75901 0
M  V30 3517 O 342.28 -1.60061 1.12948 0
M  V30 3518 H 340.86 0.228388 0.71123 0
M  V30 3519 H 343.522 1.2266 1.51461 0
M  V30 3520 H 342.618 0.864653 2.99884 0
M  V30 3521 N 342.919 -1.39368 0.735821 0
M  V30 3522 C 344.335 -1.54204 0.411492 0
M  V30 3523 C 344.535 -1.70268 -1.07755 0
M  V30 3524 O 343.591 -1.70364 -1.86366 0
M  V30 3525 C 344.904 -2.75925 1.19523 0
M  V30 3526 C 346.452 -2.89761 1.18354 0
M  V30 3527 C 346.927 -4.14421 1.94986 0
M  V30 3528 N 348.418 -4.21462 1.92156 0
M  V30 3529 C 349.153 -5.16871 2.48258 0
M  V30 3530 N 348.649 -6.18063 3.13001 0
M  V30 3531 N 350.442 -5.09093 2.38287 0
M  V30 3532 H 342.593 -1.27189 1.70108 0
M  V30 3533 H 344.856 -0.616517 0.720147 0
M  V30 3534 H 344.562 -2.70401 2.24892 0
M  V30 3535 H 344.436 -3.68614 0.800222 0
M  V30 3536 H 346.823 -2.94777 0.137975 0
M  V30 3537 H 346.904 -1.98133 1.61793 0
M  V30 3538 H 346.548 -4.10166 2.99543 0
M  V30 3539 H 346.478 -5.05095 1.48953 0
M  V30 3540 H 348.969 -3.48979 1.44991 0
M  V30 3541 H 349.282 -6.87326 3.53275 0
M  V30 3542 H 347.627 -6.18448 3.17091 0
M  V30 3543 H 350.818 -4.28973 1.8735 0
M  V30 3544 H 350.991 -5.83272 2.82308 0
M  V30 3545 N 344.397 -0.483516 -1.5 0
M  V30 3546 C 345.646 0.0689102 -2.01582 0
M  V30 3547 C 345.959 1.39655 -1.36952 0
M  V30 3548 O 347.165 2.03465 -1.79762 0
M  V30 3549 C 345.621 0.173302 -3.59483 0
M  V30 3550 C 345.229 -1.14665 -4.33077 0
M  V30 3551 C 346.973 0.677024 -4.19066 0
M  V30 3552 C 344.88 -1.00537 -5.82792 0
M  V30 3553 H 343.81 0.0295277 -0.753422 0
M  V30 3554 H 346.461 -0.620295 -1.72698 0
M  V30 3555 H 344.843 0.926569 -3.85007 0
M  V30 3556 H 346.017 -1.91184 -4.19268 0
M  V30 3557 H 344.332 -1.58244 -3.85159 0
M  V30 3558 H 346.929 0.799952 -5.28682 0
M  V30 3559 H 347.272 1.67151 -3.81269 0
M  V30 3560 H 347.805 -0.0192083 -3.97795 0
M  V30 3561 H 344.544 -1.9736 -6.25083 0
M  V30 3562 H 344.064 -0.280776 -5.99142 0
M  V30 3563 H 345.743 -0.677 -6.43448 0
M  V30 3564 N 345.875 1.56104 -0.216619 0
M  V30 3565 C 347.103 2.02563 0.421413 0
M  V30 3566 C 347.518 1.0965 1.53695 0
M  V30 3567 O 346.875 0.10521 1.82196 0
M  V30 3568 C 346.926 3.48584 0.957665 0
M  V30 3569 O 346.647 4.37953 -0.113389 0
M  V30 3570 C 348.148 4.10664 1.66943 0
M  V30 3571 H 345.368 0.662944 0.103665 0
M  V30 3572 H 347.912 2.01793 -0.331629 0
M  V30 3573 H 346.067 3.49985 1.661 0
M  V30 3574 H 346.481 5.23704 0.288932 0
M  V30 3575 H 347.955 5.14622 1.99671 0
M  V30 3576 H 348.432 3.55373 2.58083 0
M  V30 3577 H 349.038 4.13098 1.01142 0
M  V30 3578 N 347.353 -0.0568162 1.57498 0
M  V30 3579 C 348.578 -0.769402 1.92601 0
M  V30 3580 C 349.003 -1.69559 0.814336 0
M  V30 3581 O 348.361 -1.79811 -0.231903 0
M  V30 3582 C 348.409 -1.52634 3.26704 0
M  V30 3583 O 347.513 -2.63797 3.16994 0
M  V30 3584 H 346.854 -0.208909 0.63028 0
M  V30 3585 H 349.384 -0.0205798 2.0459 0
M  V30 3586 H 349.394 -1.90234 3.60936 0
M  V30 3587 H 348.069 -0.846875 4.07186 0
M  V30 3588 H 346.646 -2.28943 2.94346 0
M  V30 3589 N 348.832 -1.54138 -0.328536 0
M  V30 3590 C 349.762 -1.86167 -1.40939 0
M  V30 3591 C 350.743 -0.718044 -1.54202 0
M  V30 3592 O 351.928 -0.971328 -1.68163 0
M  V30 3593 C 349.058 -2.08461 -2.77779 0
M  V30 3594 C 348.012 -3.24299 -2.7931 0
M  V30 3595 C 347.338 -3.31955 -4.19178 0
M  V30 3596 C 348.638 -4.62065 -2.43502 0
M  V30 3597 H 350.332 -2.76689 -1.14383 0
M  V30 3598 H 347.878 -1.33132 -0.548806 0
M  V30 3599 H 349.831 -2.29453 -3.53454 0
M  V30 3600 H 348.555 -1.14684 -3.05802 0
M  V30 3601 H 347.214 -3.03187 -2.0609 0
M  V30 3602 H 346.862 -2.35745 -4.44335 0
M  V30 3603 H 346.562 -4.09805 -4.2111 0
M  V30 3604 H 348.086 -3.55175 -4.96672 0
M  V30 3605 H 349.5 -4.8297 -3.08889 0
M  V30 3606 H 347.897 -5.42429 -2.56693 0
M  V30 3607 H 348.967 -4.64652 -1.38659 0
M  V30 3608 N 350.31 0.590341 -1.46126 0
M  V30 3609 C 351.24 1.71032 -1.58966 0
M  V30 3610 C 352.221 1.64302 -0.440335 0
M  V30 3611 O 353.406 1.82436 -0.665634 0
M  V30 3612 C 350.536 3.09665 -1.57241 0
M  V30 3613 C 349.49 3.31221 -2.71066 0
M  V30 3614 C 348.816 4.70303 -2.54399 0
M  V30 3615 C 350.116 3.19796 -4.1295 0
M  V30 3616 H 351.81 1.60543 -2.52718 0
M  V30 3617 H 349.356 0.770933 -1.21625 0
M  V30 3618 H 351.309 3.87831 -1.64819 0
M  V30 3619 H 350.033 3.21036 -0.600289 0
M  V30 3620 H 348.692 2.55452 -2.62944 0
M  V30 3621 H 348.34 4.78429 -1.55288 0
M  V30 3622 H 348.04 4.85679 -3.30741 0
M  V30 3623 H 349.564 5.50647 -2.63857 0
M  V30 3624 H 350.978 3.87815 -4.22223 0
M  V30 3625 H 349.375 3.46696 -4.89818 0
M  V30 3626 H 350.445 2.16983 -4.33643 0
M  V30 3627 N 351.788 1.33704 0.83433 0
M  V30 3628 C 353.036 1.25169 1.58673 0
M  V30 3629 C 353.357 -0.18127 1.94156 0
M  V30 3630 O 352.627 -1.11113 1.6134 0
M  V30 3631 H 351.207 0.4603 0.58833 0
M  V30 3632 H 353.869 1.67478 0.996847 0
M  V30 3633 H 352.965 1.84856 2.51465 0
M  V30 3634 N 353.266 -1.05314 1.17247 0
M  V30 3635 C 354.682 -1.30452 0.919473 0
M  V30 3636 C 354.882 -1.9703 -0.42209 0
M  V30 3637 O 353.938 -2.24311 -1.15935 0
M  V30 3638 C 355.251 -2.17551 2.07586 0
M  V30 3639 C 356.799 -2.30937 2.11275 0
M  V30 3640 C 357.274 -3.21396 3.26296 0
M  V30 3641 N 358.765 -3.28981 3.26076 0
M  V30 3642 C 359.5 -3.99095 4.11716 0
M  V30 3643 N 358.996 -4.71648 5.07465 0
M  V30 3644 N 360.789 -3.95247 3.9967 0
M  V30 3645 H 352.94 -0.604988 2.03602 0
M  V30 3646 H 355.203 -0.329368 0.888944 0
M  V30 3647 H 354.909 -1.75921 3.0454 0
M  V30 3648 H 354.783 -3.18182 2.02584 0
M  V30 3649 H 357.17 -2.71809 1.14907 0
M  V30 3650 H 357.251 -1.2994 2.20339 0
M  V30 3651 H 356.895 -2.81238 4.22927 0
M  V30 3652 H 356.825 -4.22395 3.14467 0
M  V30 3653 H 359.316 -2.77286 2.5675 0
M  V30 3654 H 359.629 -5.22705 5.6921 0
M  V30 3655 H 357.974 -4.70594 5.11435 0
M  V30 3656 H 361.165 -3.37691 3.24164 0
M  V30 3657 H 361.338 -4.4962 4.66632 0
M  V30 3658 N 354.744 -0.972509 -1.24016 0
M  V30 3659 C 355.694 -0.477561 -2.22942 0
M  V30 3660 C 356.678 0.44308 -1.54679 0
M  V30 3661 O 357.87 0.273219 -1.74879 0
M  V30 3662 C 354.999 0.226348 -3.42553 0
M  V30 3663 C 354.085 -0.713403 -4.18057 0
M  V30 3664 N 354.476 -1.8527 -4.70647 0
M  V30 3665 C 352.774 -0.525145 -4.42898 0
M  V30 3666 C 353.475 -2.44089 -5.28011 0
M  V30 3667 N 352.451 -1.72556 -5.15486 0
M  V30 3668 H 356.253 -1.34678 -2.61226 0
M  V30 3669 H 353.767 -0.832196 -1.39457 0
M  V30 3670 H 355.764 0.598184 -4.12586 0
M  V30 3671 H 354.424 1.09195 -3.05788 0
M  V30 3672 H 355.435 -2.2341 -4.67235 0
M  V30 3673 H 352.112 0.296096 -4.16449 0
M  V30 3674 H 353.502 -3.40259 -5.79374 0
M  V30 3675 N 356.222 1.38976 -0.743202 0
M  V30 3676 C 357.45 2.04636 -0.30525 0
M  V30 3677 C 357.865 1.56044 1.06281 0
M  V30 3678 O 357.222 0.728921 1.67311 0
M  V30 3679 C 357.273 3.60193 -0.307177 0
M  V30 3680 O 356.994 4.06998 -1.62124 0
M  V30 3681 C 358.495 4.4306 0.145928 0
M  V30 3682 H 355.715 0.65788 -0.132041 0
M  V30 3683 H 358.259 1.77866 -1.00915 0
M  V30 3684 H 356.414 3.85835 0.347898 0
M  V30 3685 H 356.828 5.01371 -1.54036 0
M  V30 3686 H 358.302 5.51921 0.0934183 0
M  V30 3687 H 358.779 4.22706 1.19231 0
M  V30 3688 H 359.385 4.22584 -0.479886 0
M  V30 3689 N 357.7 0.491464 1.49741 0
M  V30 3690 C 358.648 -0.305837 2.30581 0
M  V30 3691 C 359.642 -0.971642 1.38764 0
M  V30 3692 O 360.848 -0.90042 1.5586 0
M  V30 3693 H 357.223 -0.117482 0.742767 0
M  V30 3694 H 359.194 0.396093 2.95759 0
M  V30 3695 C 357.943 -1.36319 3.19863 0
M  V30 3696 H 357.266 -0.860258 3.90435 0
M  V30 3697 H 358.706 -1.89323 3.79385 0
M  V30 3698 C 357.165 -2.37621 2.38826 0
M  V30 3699 O 357.695 -3.43311 2.08567 0
M  V30 3700 N 355.901 -2.09849 2.01026 0
M  V30 3701 H 355.448 -1.23922 2.25834 0
M  V30 3702 H 355.406 -2.77859 1.47112 0
M  V30 3703 N 359.178 -1.55987 0.224894 0
M  V30 3704 C 360.455 -1.90232 -0.455083 0
M  V30 3705 C 360.835 -1.14269 -1.77499 0
M  V30 3706 O 360.183 -0.253079 -2.27094 0
M  V30 3707 C 360.393 -3.42993 -0.644758 0
M  V30 3708 C 361.741 -4.13821 -0.950669 0
M  V30 3709 O 362.765 -3.4861 -0.731423 0
M  V30 3710 O 361.624 -5.29128 -1.36695 0
M  V30 3711 H 358.718 -0.79108 -0.241084 0
M  V30 3712 H 361.264 -1.67581 0.267327 0
M  V30 3713 H 360.036 -3.90252 0.28613 0
M  V30 3714 H 359.659 -3.71434 -1.41853 0
M  V30 3715 N 360.656 0.0484629 -1.57525 0
M  V30 3716 C 361.588 1.08222 -2.02041 0
M  V30 3717 C 362.601 1.33621 -0.930012 0
M  V30 3718 O 363.79 1.3145 -1.20761 0
M  V30 3719 C 360.89 2.42818 -2.36416 0
M  V30 3720 C 360.063 2.37049 -3.67596 0
M  V30 3721 C 359.122 3.53937 -3.89378 0
M  V30 3722 O 358.148 3.34308 -4.60681 0
M  V30 3723 N 359.35 4.75126 -3.3352 0
M  V30 3724 H 362.115 0.702946 -2.9134 0
M  V30 3725 H 359.676 0.236745 -1.6016 0
M  V30 3726 H 361.668 3.197 -2.48141 0
M  V30 3727 H 360.238 2.72661 -1.52888 0
M  V30 3728 H 359.458 1.45395 -3.66407 0
M  V30 3729 H 360.746 2.30318 -4.53686 0
M  V30 3730 H 360.144 4.93976 -2.75688 0
M  V30 3731 H 358.701 5.49439 -3.50656 0
M  V30 3732 N 362.134 1.5431 0.320358 0
M  V30 3733 C 363.362 1.76636 1.07738 0
M  V30 3734 C 363.777 0.51649 1.81598 0
M  V30 3735 O 363.134 -0.512942 1.75143 0
M  V30 3736 C 363.185 2.96158 2.07299 0
M  V30 3737 O 362.906 4.16313 1.36438 0
M  V30 3738 C 364.407 3.3072 2.95193 0
M  V30 3739 H 361.627 0.589597 0.320339 0
M  V30 3740 H 364.171 2.01207 0.36551 0
M  V30 3741 H 362.326 2.73851 2.74016 0
M  V30 3742 H 362.74 4.83565 2.03138 0
M  V30 3743 H 364.214 4.17643 3.60941 0
M  V30 3744 H 364.691 2.48026 3.62463 0
M  V30 3745 H 365.297 3.55117 2.34034 0
M  V30 3746 N 363.613 -0.582584 1.46437 0
M  V30 3747 C 364.543 -1.70187 1.59871 0
M  V30 3748 C 365.524 -1.64066 0.449042 0
M  V30 3749 O 366.709 -1.82081 0.6753 0
M  V30 3750 C 363.839 -3.08827 1.58881 0
M  V30 3751 C 362.793 -3.29779 2.72819 0
M  V30 3752 C 362.119 -4.68947 2.5689 0
M  V30 3753 C 363.419 -3.17601 4.1464 0
M  V30 3754 H 365.113 -1.592 2.53566 0
M  V30 3755 H 362.659 -0.764472 1.22032 0
M  V30 3756 H 364.612 -3.86951 1.66873 0
M  V30 3757 H 363.336 -3.20713 0.617306 0
M  V30 3758 H 361.995 -2.54054 2.64296 0
M  V30 3759 H 361.643 -4.77599 1.57823 0
M  V30 3760 H 361.343 -4.83919 3.33312 0
M  V30 3761 H 362.867 -5.4924 2.66773 0
M  V30 3762 H 364.281 -3.8557 4.24274 0
M  V30 3763 H 362.678 -3.44094 4.9165 0
M  V30 3764 H 363.748 -2.14681 4.34788 0
M  V30 3765 N 365.091 -1.34144 -0.827227 0
M  V30 3766 C 366.316 -1.29476 -1.62021 0
M  V30 3767 C 366.741 0.129292 -1.87655 0
M  V30 3768 O 366.099 1.08967 -1.449 0
M  V30 3769 C 366.147 -2.08702 -2.94068 0
M  V30 3770 O 365.251 -1.45359 -3.85933 0
M  V30 3771 H 364.592 -0.444881 -0.492927 0
M  V30 3772 H 367.122 -1.76882 -1.02829 0
M  V30 3773 H 367.132 -2.19898 -3.43669 0
M  V30 3774 H 365.807 -3.12241 -2.74734 0
M  V30 3775 H 364.384 -1.42879 -3.44442 0
M  V30 3776 N 366.569 1.04691 -1.17803 0
M  V30 3777 C 367.816 1.77782 -0.969532 0
M  V30 3778 C 368.144 1.87926 0.501401 0
M  V30 3779 O 367.399 1.37918 1.38842 0
M  V30 3780 C 367.698 3.21467 -1.56186 0
M  V30 3781 C 367.364 3.3137 -3.05786 0
M  V30 3782 C 366.026 3.3378 -3.46619 0
M  V30 3783 C 368.378 3.31976 -4.01797 0
M  V30 3784 C 365.706 3.34431 -4.82051 0
M  V30 3785 C 368.058 3.34167 -5.37136 0
M  V30 3786 C 366.722 3.34866 -5.77426 0
M  V30 3787 H 365.992 0.650549 -0.354777 0
M  V30 3788 H 368.639 1.23006 -1.46772 0
M  V30 3789 H 366.944 3.79203 -0.985515 0
M  V30 3790 H 368.641 3.76652 -1.37602 0
M  V30 3791 H 365.231 3.3021 -2.73238 0
M  V30 3792 H 369.415 3.29311 -3.71306 0
M  V30 3793 H 364.671 3.33285 -5.12573 0
M  V30 3794 H 368.845 3.33585 -6.11305 0
M  V30 3795 H 366.472 3.35124 -6.82346 0
M  V30 3796 N 368.047 0.979072 1.23499 0
M  V30 3797 C 369.277 0.664237 1.95631 0
M  V30 3798 C 369.685 -0.772653 1.72704 0
M  V30 3799 O 369.028 -1.53141 1.01457 0
M  V30 3800 C 369.09 0.873115 3.48736 0
M  V30 3801 C 368.754 2.29182 3.95379 0
M  V30 3802 C 369.751 3.2704 4.04155 0
M  V30 3803 C 367.436 2.62256 4.28401 0
M  V30 3804 C 369.43 4.56052 4.45304 0
M  V30 3805 C 367.117 3.91491 4.69231 0
M  V30 3806 C 368.115 4.88201 4.77649 0
M  V30 3807 O 367.803 6.15129 5.17563 0
M  V30 3808 H 367.535 0.245915 0.629684 0
M  V30 3809 H 370.089 1.3127 1.57979 0
M  V30 3810 H 368.319 0.167476 3.86337 0
M  V30 3811 H 370.008 0.555642 4.02079 0
M  V30 3812 H 370.774 3.02819 3.78848 0
M  V30 3813 H 366.653 1.87692 4.21061 0
M  V30 3814 H 370.197 5.31538 4.51789 0
M  V30 3815 H 366.094 4.15508 4.93987 0
M  V30 3816 H 366.862 6.18862 5.35679 0
M  V30 3817 N 369.525 -1.3858 0.750561 0
M  V30 3818 C 370.488 -2.28836 0.129152 0
M  V30 3819 C 371.488 -1.47045 -0.650714 0
M  V30 3820 O 372.678 -1.6753 -0.477428 0
M  V30 3821 C 369.81 -3.30751 -0.825622 0
M  V30 3822 H 371.003 -2.85294 0.924516 0
M  V30 3823 H 368.556 -1.47489 0.517376 0
M  V30 3824 H 369.291 -2.79378 -1.64677 0
M  V30 3825 H 369.076 -3.91177 -0.268852 0
M  V30 3826 H 370.566 -3.98249 -1.2565 0
M  V30 3827 N 371.003 -0.499398 -1.49478 0
M  V30 3828 C 372.28 0.108629 -1.95298 0
M  V30 3829 C 372.66 1.54282 -1.44084 0
M  V30 3830 O 372.008 2.18944 -0.653908 0
M  V30 3831 C 372.218 0.0229111 -3.48992 0
M  V30 3832 C 373.566 0.197643 -4.2414 0
M  V30 3833 O 374.59 0.0981735 -3.56065 0
M  V30 3834 O 373.449 0.401669 -5.45022 0
M  V30 3835 H 370.543 0.096181 -0.821388 0
M  V30 3836 H 373.089 -0.561822 -1.6013 0
M  V30 3837 H 371.861 -0.977321 -3.78899 0
M  V30 3838 H 371.484 0.733579 -3.90774 0
M  V30 3839 N 372.481 1.55866 -0.233164 0
M  V30 3840 C 373.709 2.02998 0.399905 0
M  V30 3841 C 374.124 1.11274 1.52524 0
M  V30 3842 O 373.481 0.124528 1.82075 0
M  V30 3843 C 373.532 3.4958 0.920639 0
M  V30 3844 O 373.253 4.37808 -0.159834 0
M  V30 3845 C 374.754 4.12411 1.62578 0
M  V30 3846 H 371.974 0.664006 0.0966281 0
M  V30 3847 H 374.518 2.0143 -0.353013 0
M  V30 3848 H 372.673 3.51727 1.62379 0
M  V30 3849 H 373.087 5.23981 0.23337 0
M  V30 3850 H 374.561 5.16711 1.94201 0
M  V30 3851 H 375.038 3.5809 2.54299 0
M  V30 3852 H 375.644 4.14148 0.967553 0
M  V30 3853 N 373.959 -0.0401083 1.57549 0
M  V30 3854 C 375.37 -0.588097 1.77196 0
M  V30 3855 C 375.721 -1.76209 0.862832 0
M  V30 3856 O 374.846 -2.16331 0.0548389 0
M  V30 3857 C 375.441 -1.07363 3.21339 0
M  V30 3858 C 374 -1.56723 3.42221 0
M  V30 3859 C 373.147 -0.50041 2.72747 0
M  V30 3860 H 376.098 0.186119 1.57605 0
M  V30 3861 H 376.119 -1.94143 3.27244 0
M  V30 3862 H 375.631 -0.218975 3.87482 0
M  V30 3863 H 373.732 -2.4441 2.81237 0
M  V30 3864 H 373.845 -1.62234 4.50796 0
M  V30 3865 H 372.209 -0.952894 2.36203 0
M  V30 3866 H 372.992 0.344599 3.41566 0
M  V30 3867 N 375.437 -1.54477 -0.31217 0
M  V30 3868 C 376.662 -1.77526 -1.07235 0
M  V30 3869 C 377.087 -0.527775 -1.80544 0
M  V30 3870 O 376.445 0.52121 -1.73646 0
M  V30 3871 C 376.493 -2.97535 -2.03728 0
M  V30 3872 O 375.597 -2.69878 -3.11833 0
M  V30 3873 H 374.938 -0.58792 -0.30862 0
M  V30 3874 H 377.468 -2.01532 -0.352993 0
M  V30 3875 H 377.478 -3.25198 -2.46395 0
M  V30 3876 H 376.153 -3.87996 -1.49774 0
M  V30 3877 H 374.73 -2.53199 -2.7376 0
M  V30 3878 N 376.915 0.57481 -1.46744 0
M  V30 3879 C 378.326 1.15695 -1.46532 0
M  V30 3880 C 378.677 1.95068 -0.210425 0
M  V30 3881 O 377.802 2.05241 0.685944 0
M  V30 3882 C 378.397 2.1048 -2.65487 0
M  V30 3883 C 376.956 2.64002 -2.68291 0
M  V30 3884 C 376.103 1.40026 -2.39349 0
M  V30 3885 H 379.054 0.362325 -1.54509 0
M  V30 3886 H 379.075 2.94074 -2.41455 0
M  V30 3887 H 378.587 1.52683 -3.56805 0
M  V30 3888 H 376.688 3.25646 -1.81067 0
M  V30 3889 H 376.801 3.06197 -3.68483 0
M  V30 3890 H 375.165 1.70106 -1.89568 0
M  V30 3891 H 375.948 0.840485 -3.32852 0
M  V30 3892 N 378.394 1.34581 0.820102 0
M  V30 3893 C 379.327 1.20735 1.93644 0
M  V30 3894 C 380.305 0.0983343 1.62302 0
M  V30 3895 O 381.489 0.263997 1.86642 0
M  V30 3896 C 378.616 0.856037 3.27704 0
M  V30 3897 C 377.662 1.97521 3.78005 0
M  V30 3898 S 378.495 3.58906 3.97425 0
M  V30 3899 C 379.651 3.25822 5.34407 0
M  V30 3900 H 379.884 2.15231 2.05093 0
M  V30 3901 H 377.417 1.1964 0.97599 0
M  V30 3902 H 379.375 0.660133 4.05157 0
M  V30 3903 H 378.036 -0.0706253 3.14021 0
M  V30 3904 H 377.229 1.68321 4.75062 0
M  V30 3905 H 376.831 2.12875 3.07507 0
M  V30 3906 H 379.123 2.77812 6.17922 0
M  V30 3907 H 380.066 4.22029 5.68592 0
M  V30 3908 H 380.474 2.61932 5.00052 0
M  V30 3909 N 379.872 -1.04064 1.18357 0
M  V30 3910 C 381.121 -1.76662 0.973313 0
M  V30 3911 C 381.434 -1.89154 -0.497991 0
M  V30 3912 O 382.64 -2.58606 -0.826762 0
M  V30 3913 C 381.096 -3.17624 1.69242 0
M  V30 3914 C 380.704 -3.13225 3.20303 0
M  V30 3915 C 382.448 -3.946 1.56497 0
M  V30 3916 C 380.355 -4.49046 3.84853 0
M  V30 3917 H 379.285 -0.662214 0.36054 0
M  V30 3918 H 381.936 -1.16553 1.41731 0
M  V30 3919 H 380.318 -3.78129 1.1762 0
M  V30 3920 H 381.492 -2.62172 3.78949 0
M  V30 3921 H 379.807 -2.49749 3.33189 0
M  V30 3922 H 382.404 -4.95042 2.02084 0
M  V30 3923 H 382.747 -4.13074 0.517243 0
M  V30 3924 H 383.28 -3.4067 2.05399 0
M  V30 3925 H 380.019 -4.35777 4.89672 0
M  V30 3926 H 379.539 -5.00203 3.30994 0
M  V30 3927 H 381.218 -5.17961 3.87718 0
M  V30 3928 N 381.35 -0.985608 -1.22978 0
M  V30 3929 C 382.26 -0.538548 -2.28335 0
M  V30 3930 C 383.276 0.409163 -1.69121 0
M  V30 3931 O 384.452 0.277797 -1.99475 0
M  V30 3932 C 381.517 0.146867 -3.46389 0
M  V30 3933 C 380.578 -0.842896 -4.20944 0
M  V30 3934 C 379.811 -0.190095 -5.33361 0
M  V30 3935 O 380.034 1.01767 -5.61248 0
M  V30 3936 O 378.968 -0.891289 -5.95264 0
M  V30 3937 H 382.794 -1.41487 -2.68729 0
M  V30 3938 H 380.379 -0.753495 -1.29007 0
M  V30 3939 H 382.261 0.531125 -4.1804 0
M  V30 3940 H 380.936 0.997871 -3.07935 0
M  V30 3941 H 379.843 -1.27795 -3.51595 0
M  V30 3942 H 381.176 -1.66287 -4.6326 0
M  V30 3943 N 382.828 1.3818 -0.7579 0
M  V30 3944 C 384.074 2.00316 -0.316453 0
M  V30 3945 C 384.407 1.60026 1.10025 0
M  V30 3946 O 383.682 0.839835 1.75434 0
M  V30 3947 C 383.965 3.57349 -0.444245 0
M  V30 3948 C 383.818 4.07591 -1.90236 0
M  V30 3949 C 385.137 4.3981 0.1598 0
M  V30 3950 H 382.256 0.727741 -0.116459 0
M  V30 3951 H 384.898 1.6406 -0.958352 0
M  V30 3952 H 383.048 3.88365 0.102233 0
M  V30 3953 H 384.72 3.87199 -2.50748 0
M  V30 3954 H 382.963 3.60297 -2.41595 0
M  V30 3955 H 383.634 5.16677 -1.94291 0
M  V30 3956 H 386.11 4.14971 -0.306314 0
M  V30 3957 H 384.986 5.48885 0.0401675 0
M  V30 3958 H 385.247 4.24102 1.24859 0
M  V30 3959 N 384.306 0.507319 1.49211 0
M  V30 3960 C 385.216 -0.272136 2.33016 0
M  V30 3961 C 386.232 -0.961206 1.45041 0
M  V30 3962 O 387.408 -0.941191 1.78055 0
M  V30 3963 C 384.473 -1.31895 3.20631 0
M  V30 3964 C 383.534 -0.642648 4.24463 0
M  V30 3965 C 382.767 -1.63959 5.07891 0
M  V30 3966 O 382.99 -2.87007 4.92933 0
M  V30 3967 O 381.924 -1.19143 5.8999 0
M  V30 3968 H 385.75 0.413982 3.00865 0
M  V30 3969 H 383.335 0.268556 1.46966 0
M  V30 3970 H 385.217 -1.92446 3.7489 0
M  V30 3971 H 383.892 -1.98788 2.5547 0
M  V30 3972 H 382.799 0.00276252 3.741 0
M  V30 3973 H 384.132 -0.0160534 4.92197 0
M  V30 3974 N 385.784 -1.5574 0.241426 0
M  V30 3975 C 387.031 -1.9881 -0.384836 0
M  V30 3976 C 387.359 -1.12947 -1.58346 0
M  V30 3977 O 386.614 -0.178993 -1.9488 0
M  V30 3978 C 386.913 -3.47308 -0.843317 0
M  V30 3979 C 386.579 -4.50223 0.246946 0
M  V30 3980 C 385.241 -4.78088 0.546399 0
M  V30 3981 C 387.593 -5.11841 0.983282 0
M  V30 3982 C 384.921 -5.64846 1.58636 0
M  V30 3983 C 387.273 -5.99727 2.01272 0
M  V30 3984 C 385.937 -6.25927 2.31888 0
M  V30 3985 H 385.207 -0.727496 -0.140821 0
M  V30 3986 H 387.854 -1.8831 0.348106 0
M  V30 3987 H 386.159 -3.55112 -1.65537 0
M  V30 3988 H 387.856 -3.78017 -1.33806 0
M  V30 3989 H 384.446 -4.286 0.00340639 0
M  V30 3990 H 388.63 -4.90366 0.765182 0
M  V30 3991 H 383.886 -5.83403 1.82896 0
M  V30 3992 H 388.06 -6.46517 2.58823 0
M  V30 3993 H 385.687 -6.92949 3.12611 0
M  V30 3994 N 387.262 0.0317525 -1.57568 0
M  V30 3995 C 388.51 0.721676 -1.88776 0
M  V30 3996 C 388.831 1.76039 -0.838772 0
M  V30 3997 O 388.101 1.95482 0.127935 0
M  V30 3998 H 386.681 0.269534 -0.696678 0
M  V30 3999 H 389.343 -0.00165879 -1.949 0
M  V30 4000 H 388.439 1.21293 -2.87566 0
M  V30 4001 N 388.74 1.54641 0.303973 0
M  V30 4002 C 389.986 1.74969 1.03718 0
M  V30 4003 C 390.341 0.527461 1.85029 0
M  V30 4004 O 389.634 -0.480143 1.85486 0
M  V30 4005 C 389.828 2.97753 1.97681 0
M  V30 4006 C 389.657 4.318 1.25613 0
M  V30 4007 C 388.427 4.95616 0.984518 0
M  V30 4008 C 390.625 5.10021 0.662081 0
M  V30 4009 N 388.607 6.13455 0.233794 0
M  V30 4010 C 389.978 6.19984 0.0439736 0
M  V30 4011 C 392.033 4.94663 0.566835 0
M  V30 4012 C 390.736 7.16264 -0.66016 0
M  V30 4013 C 392.762 5.91271 -0.123637 0
M  V30 4014 C 392.124 7.00601 -0.730608 0
M  V30 4015 H 388.223 0.692873 0.362562 0
M  V30 4016 H 390.807 1.92116 0.316135 0
M  V30 4017 H 388.978 2.82036 2.6704 0
M  V30 4018 H 390.71 3.06621 2.64132 0
M  V30 4019 H 387.465 4.55921 1.28191 0
M  V30 4020 H 387.889 6.76879 -0.127996 0
M  V30 4021 H 392.531 4.10267 1.02181 0
M  V30 4022 H 390.249 8.00204 -1.12691 0
M  V30 4023 H 393.835 5.81466 -0.197236 0
M  V30 4024 H 392.715 7.7407 -1.2564 0
M  V30 4025 N 390.218 -0.567019 1.47046 0
M  V30 4026 C 391.466 -1.322 1.52864 0
M  V30 4027 C 391.787 -1.94088 0.188388 0
M  V30 4028 O 391.057 -1.7941 -0.786693 0
M  V30 4029 H 389.637 -0.490894 0.563056 0
M  V30 4030 H 392.299 -0.662879 1.83281 0
M  V30 4031 H 391.395 -2.12062 2.2899 0
M  V30 4032 N 391.696 -1.35014 -0.812953 0
M  V30 4033 C 393.107 -1.25035 -1.38648 0
M  V30 4034 C 393.458 0.119967 -1.95833 0
M  V30 4035 O 392.583 1.02069 -1.90816 0
M  V30 4036 C 393.178 -2.26394 -2.52054 0
M  V30 4037 C 391.737 -2.20175 -3.05287 0
M  V30 4038 C 390.884 -2.12451 -1.78213 0
M  V30 4039 H 393.835 -1.46235 -0.616516 0
M  V30 4040 H 393.856 -1.88672 -3.30429 0
M  V30 4041 H 393.368 -3.26116 -2.10404 0
M  V30 4042 H 391.469 -1.23841 -3.51417 0
M  V30 4043 H 391.582 -3.11863 -3.63701 0
M  V30 4044 H 389.946 -1.58328 -1.9951 0
M  V30 4045 H 390.729 -3.14024 -1.38723 0
M  V30 4046 N 393.175 1.03435 -1.18907 0
M  V30 4047 C 394.591 1.28973 -0.940111 0
M  V30 4048 C 394.791 1.97676 0.390691 0
M  V30 4049 O 393.847 2.26127 1.12352 0
M  V30 4050 C 395.16 2.14221 -2.11021 0
M  V30 4051 C 396.708 2.27547 -2.14922 0
M  V30 4052 C 397.183 3.16164 -3.31367 0
M  V30 4053 N 398.674 3.23752 -3.31269 0
M  V30 4054 C 399.409 3.92495 -4.18014 0
M  V30 4055 N 398.905 4.63515 -5.14904 0
M  V30 4056 N 400.698 3.88838 -4.05908 0
M  V30 4057 H 392.849 0.57252 -2.04538 0
M  V30 4058 H 395.112 0.315184 -0.894071 0
M  V30 4059 H 394.818 1.71054 -3.073 0
M  V30 4060 H 394.692 3.14919 -2.0762 0
M  V30 4061 H 397.079 2.69947 -1.19217 0
M  V30 4062 H 397.16 1.26418 -2.22378 0
M  V30 4063 H 396.804 2.74474 -4.27348 0
M  V30 4064 H 396.734 4.17339 -3.21148 0
M  V30 4065 H 399.225 2.73167 -2.61129 0
M  V30 4066 H 399.538 5.13583 -5.77453 0
M  V30 4067 H 397.883 4.62398 -5.18857 0
M  V30 4068 H 401.074 3.32491 -3.29495 0
M  V30 4069 H 401.247 4.4214 -4.73726 0
M  V30 4070 N 394.653 0.992116 1.22453 0
M  V30 4071 C 395.881 0.685944 1.95198 0
M  V30 4072 C 396.296 -0.749233 1.73297 0
M  V30 4073 O 395.653 -1.50549 1.03156 0
M  V30 4074 C 395.704 0.981395 3.47924 0
M  V30 4075 O 395.425 2.36018 3.6909 0
M  V30 4076 C 396.926 0.692815 4.37853 0
M  V30 4077 H 394.146 0.253821 0.621141 0
M  V30 4078 H 396.69 1.32668 1.55626 0
M  V30 4079 H 394.845 0.386481 3.85467 0
M  V30 4080 H 395.259 2.45884 4.63294 0
M  V30 4081 H 396.733 0.949818 5.43767 0
M  V30 4082 H 397.21 -0.373181 4.37612 0
M  V30 4083 H 397.816 1.26874 4.05935 0
M  V30 4084 N 396.131 -1.37776 0.765217 0
M  V30 4085 C 397.377 -2.00145 0.327072 0
M  V30 4086 C 397.71 -1.60607 -1.09175 0
M  V30 4087 O 396.985 -0.849127 -1.74986 0
M  V30 4088 C 397.268 -3.57109 0.46319 0
M  V30 4089 C 397.121 -4.06576 1.92395 0
M  V30 4090 C 398.44 -4.39888 -0.136473 0
M  V30 4091 H 395.559 -0.727113 0.120316 0
M  V30 4092 H 398.201 -1.63549 0.967039 0
M  V30 4093 H 396.351 -3.88414 -0.0816358 0
M  V30 4094 H 398.023 -3.85864 2.52798 0
M  V30 4095 H 396.266 -3.59011 2.43503 0
M  V30 4096 H 396.937 -5.15639 1.97028 0
M  V30 4097 H 399.413 -4.14803 0.328317 0
M  V30 4098 H 398.289 -5.48899 -0.0110582 0
M  V30 4099 H 398.55 -4.24758 -1.22608 0
M  V30 4100 N 397.609 -0.515225 -1.4894 0
M  V30 4101 C 398.886 0.0879088 -1.95402 0
M  V30 4102 C 399.266 1.52745 -1.45712 0
M  V30 4103 O 398.614 2.18238 -0.677093 0
M  V30 4104 C 398.824 -0.0141055 -3.48997 0
M  V30 4105 C 400.172 0.152646 -4.24326 0
M  V30 4106 O 401.196 0.0604025 -3.56149 0
M  V30 4107 O 400.055 0.34384 -5.45417 0
M  V30 4108 H 397.149 0.0874636 -0.822362 0
M  V30 4109 H 399.695 -0.578775 -1.59525 0
M  V30 4110 H 398.467 -1.01745 -3.77841 0
M  V30 4111 H 398.09 0.692091 -3.9153 0
M  V30 4112 N 399.087 1.5561 -0.249682 0
M  V30 4113 C 400.312 2.03865 0.381305 0
M  V30 4114 C 400.737 1.12769 1.50548 0
M  V30 4115 O 400.095 0.121189 1.80895 0
M  V30 4116 C 400.143 3.50101 0.863816 0
M  V30 4117 O 399.247 3.62132 1.97318 0
M  V30 4118 H 398.588 0.658827 0.0827194 0
M  V30 4119 H 401.118 2.01105 -0.376552 0
M  V30 4120 H 401.128 3.90975 1.1663 0
M  V30 4121 H 399.803 4.1588 0.0411816 0
M  V30 4122 H 398.38 3.33155 1.67517 0
M  V30 4123 N 400.565 -0.0233959 1.57583 0
M  V30 4124 C 401.79 -0.728376 1.94189 0
M  V30 4125 C 402.215 -1.67793 0.850119 0
M  V30 4126 O 401.573 -1.80262 -0.19371 0
M  V30 4127 C 401.621 -1.45669 3.29868 0
M  V30 4128 O 400.725 -2.57013 3.22518 0
M  V30 4129 H 400.066 -0.195493 0.63457 0
M  V30 4130 H 402.596 0.0228214 2.04587 0
M  V30 4131 H 402.606 -1.82535 3.6489 0
M  V30 4132 H 401.281 -0.760314 4.08891 0
M  V30 4133 H 399.858 -2.22648 2.99136 0
M  V30 4134 N 402.043 -1.548 -0.295768 0
M  V30 4135 C 403.289 -1.75517 -1.02789 0
M  V30 4136 C 403.644 -0.537266 -1.84746 0
M  V30 4137 O 402.937 0.470299 -1.85738 0
M  V30 4138 C 403.131 -2.98797 -1.961 0
M  V30 4139 C 402.96 -4.3246 -1.23321 0
M  V30 4140 C 401.73 -4.96131 -0.95822 0
M  V30 4141 C 403.928 -5.10365 -0.635024 0
M  V30 4142 N 401.91 -6.1357 -0.201257 0
M  V30 4143 C 403.281 -6.19999 -0.0110937 0
M  V30 4144 C 405.336 -4.94957 -0.540594 0
M  V30 4145 C 404.039 -7.15904 0.698136 0
M  V30 4146 C 406.065 -5.91197 0.154992 0
M  V30 4147 C 405.427 -7.00203 0.767752 0
M  V30 4148 H 401.526 -0.694786 -0.358882 0
M  V30 4149 H 404.11 -1.92281 -0.305943 0
M  V30 4150 H 402.281 -2.83448 -2.6554 0
M  V30 4151 H 404.013 -3.08017 -2.62502 0
M  V30 4152 H 400.768 -4.56595 -1.25771 0
M  V30 4153 H 401.192 -6.76802 0.16389 0
M  V30 4154 H 405.834 -4.10803 -1.00003 0
M  V30 4155 H 403.552 -7.99595 1.16933 0
M  V30 4156 H 407.138 -5.81353 0.228069 0
M  V30 4157 H 406.018 -7.73393 1.29743 0
M  V30 4158 N 403.521 0.559213 -1.47345 0
M  V30 4159 C 404.749 1.34194 -1.57479 0
M  V30 4160 C 405.164 1.87463 -0.224261 0
M  V30 4161 O 404.521 1.64888 0.782185 0
M  V30 4162 C 404.572 2.51324 -2.59843 0
M  V30 4163 O 404.293 2.00256 -3.89653 0
M  V30 4164 C 405.794 3.43563 -2.80142 0
M  V30 4165 H 403.014 0.409136 -0.531835 0
M  V30 4166 H 405.558 0.677609 -1.92947 0
M  V30 4167 H 403.713 3.13699 -2.27314 0
M  V30 4168 H 404.127 2.76708 -4.4557 0
M  V30 4169 H 405.601 4.2217 -3.55635 0
M  V30 4170 H 406.078 3.9698 -1.87892 0
M  V30 4171 H 406.684 2.87005 -3.1386 0
M  V30 4172 N 404.999 1.35443 0.805782 0
M  V30 4173 C 406.245 1.28952 1.56522 0
M  V30 4174 C 406.578 -0.135597 1.93726 0
M  V30 4175 O 405.853 -1.08516 1.61414 0
M  V30 4176 C 406.136 2.19678 2.85331 0
M  V30 4177 C 405.989 3.7081 2.54598 0
M  V30 4178 C 407.308 2.09495 3.8704 0
M  V30 4179 H 404.427 0.469764 0.567883 0
M  V30 4180 H 407.069 1.65851 0.927001 0
M  V30 4181 H 405.219 1.8834 3.39795 0
M  V30 4182 H 406.891 4.12593 2.06312 0
M  V30 4183 H 405.134 3.91051 1.8778 0
M  V30 4184 H 405.805 4.29679 3.46525 0
M  V30 4185 H 408.281 2.37045 3.41978 0
M  V30 4186 H 407.157 2.75173 4.74943 0
M  V30 4187 H 407.418 1.07714 4.28777 0
M  V30 4188 N 406.477 -1.02803 1.19454 0
M  V30 4189 C 407.44 -2.09264 0.934955 0
M  V30 4190 C 408.44 -1.60576 -0.0849015 0
M  V30 4191 O 409.63 -1.73554 0.149933 0
M  V30 4192 C 406.762 -3.38482 0.40531 0
M  V30 4193 H 407.955 -2.33726 1.87916 0
M  V30 4194 H 405.508 -1.19426 1.00832 0
M  V30 4195 H 406.243 -3.19689 -0.544899 0
M  V30 4196 H 406.028 -3.75142 1.14065 0
M  V30 4197 H 407.518 -4.16894 0.242806 0
M  V30 4198 N 407.956 -0.998596 -1.21925 0
M  V30 4199 C 409.372 -0.710303 -1.42923 0
M  V30 4200 C 409.572 0.716933 -1.88314 0
M  V30 4201 O 408.628 1.48712 -2.04062 0
M  V30 4202 C 409.941 -1.72072 -2.466 0
M  V30 4203 C 411.489 -1.73681 -2.60392 0
M  V30 4204 C 411.964 -2.73601 -3.67296 0
M  V30 4205 N 413.455 -2.7223 -3.7476 0
M  V30 4206 C 414.19 -3.46206 -4.57087 0
M  V30 4207 N 413.686 -4.29802 -5.43362 0
M  V30 4208 N 415.479 -3.34886 -4.51451 0
M  V30 4209 H 407.63 -1.92028 -0.9077 0
M  V30 4210 H 409.893 -0.828487 -0.460775 0
M  V30 4211 H 409.599 -2.74231 -2.20206 0
M  V30 4212 H 409.473 -1.51818 -3.45299 0
M  V30 4213 H 411.86 -0.722173 -2.86127 0
M  V30 4214 H 411.941 -1.98005 -1.61949 0
M  V30 4215 H 411.585 -3.75217 -3.42307 0
M  V30 4216 H 411.515 -2.46545 -4.65321 0
M  V30 4217 H 414.006 -2.11576 -3.1312 0
M  V30 4218 H 414.319 -4.83061 -6.03218 0
M  V30 4219 H 412.664 -4.33887 -5.42925 0
M  V30 4220 H 415.855 -2.69015 -3.83078 0
M  V30 4221 H 416.028 -3.92796 -5.15379 0
M  V30 4222 N 409.434 1.37368 -0.772513 0
M  V30 4223 C 410.384 2.27613 -0.132823 0
M  V30 4224 C 411.368 1.46138 0.673247 0
M  V30 4225 O 412.56 1.68686 0.536095 0
M  V30 4226 C 409.689 3.35122 0.744864 0
M  V30 4227 C 408.775 4.24044 -0.0690771 0
M  V30 4228 N 409.166 4.93355 -1.1151 0
M  V30 4229 C 407.464 4.45731 0.154782 0
M  V30 4230 C 408.165 5.59 -1.60917 0
M  V30 4231 N 407.141 5.35737 -0.921222 0
M  V30 4232 H 410.943 2.78675 -0.933681 0
M  V30 4233 H 408.457 1.50494 -0.610342 0
M  V30 4234 H 410.454 3.98683 1.21892 0
M  V30 4235 H 409.114 2.85616 1.54446 0
M  V30 4236 H 410.125 4.95785 -1.49726 0
M  V30 4237 H 406.802 4.07096 0.926224 0
M  V30 4238 H 408.192 6.24395 -2.48153 0
M  V30 4239 N 410.912 0.523116 1.48665 0
M  V30 4240 C 412.137 -0.0117284 2.07397 0
M  V30 4241 C 412.562 -1.28031 1.37803 0
M  V30 4242 O 411.92 -1.75836 0.441762 0
M  V30 4243 C 411.968 -0.225786 3.59892 0
M  V30 4244 O 411.072 -1.29592 3.91509 0
M  V30 4245 H 410.413 0.0360673 0.66302 0
M  V30 4246 H 412.943 0.729066 1.9117 0
M  V30 4247 H 412.953 -0.450552 4.05505 0
M  V30 4248 H 411.628 0.700944 4.09951 0
M  V30 4249 H 410.205 -1.05436 3.57684 0
M  V30 4250 N 412.39 -1.55475 0.257931 0
M  V30 4251 C 413.806 -1.59307 -0.0966563 0
M  V30 4252 C 414.006 -1.27514 -1.5602 0
M  V30 4253 O 413.062 -1.02774 -2.30637 0
M  V30 4254 C 414.375 -2.99552 0.262481 0
M  V30 4255 C 415.923 -3.1231 0.207683 0
M  V30 4256 C 416.398 -4.54793 0.541012 0
M  V30 4257 N 417.889 -4.6058 0.491921 0
M  V30 4258 C 418.624 -5.68825 0.722857 0
M  V30 4259 N 418.12 -6.85287 1.0175 0
M  V30 4260 N 419.913 -5.58296 0.652815 0
M  V30 4261 H 412.064 -1.74409 1.21224 0
M  V30 4262 H 414.327 -0.812424 0.48854 0
M  V30 4263 H 414.033 -3.27593 1.27967 0
M  V30 4264 H 413.907 -3.75019 -0.40508 0
M  V30 4265 H 416.294 -2.84044 -0.800195 0
M  V30 4266 H 416.375 -2.39095 0.909255 0
M  V30 4267 H 416.019 -4.83783 1.5465 0
M  V30 4268 H 415.949 -5.26285 -0.18216 0
M  V30 4269 H 418.44 -3.7691 0.273366 0
M  V30 4270 H 418.753 -7.63725 1.18084 0
M  V30 4271 H 417.098 -6.86945 1.05509 0
M  V30 4272 H 420.289 -4.66189 0.422592 0
M  V30 4273 H 420.462 -6.42582 0.836182 0
M  V30 4274 N 413.868 0.0150385 -1.57593 0
M  V30 4275 C 415.096 0.714395 -1.94175 0
M  V30 4276 C 415.511 1.68135 -0.858841 0
M  V30 4277 O 414.868 1.81766 0.163567 0
M  V30 4278 C 414.919 1.45933 -3.30735 0
M  V30 4279 O 414.64 0.531167 -4.34868 0
M  V30 4280 C 416.141 2.25456 -3.81686 0
M  V30 4281 H 413.361 0.199923 -0.640525 0
M  V30 4282 H 415.905 -0.0316096 -2.04476 0
M  V30 4283 H 414.06 2.15709 -3.21789 0
M  V30 4284 H 414.474 1.05509 -5.13778 0
M  V30 4285 H 415.948 2.731 -4.79709 0
M  V30 4286 H 416.425 3.07485 -3.13607 0
M  V30 4287 H 417.031 1.60727 -3.9376 0
M  V30 4288 N 415.346 1.54954 0.287554 0
M  V30 4289 C 416.309 1.86076 1.33823 0
M  V30 4290 C 417.309 0.734414 1.43049 0
M  V30 4291 O 418.499 1.00266 1.42452 0
M  V30 4292 C 415.631 2.05305 2.72144 0
M  V30 4293 H 416.824 2.79984 1.07465 0
M  V30 4294 H 414.377 1.47223 0.524902 0
M  V30 4295 H 415.112 1.1373 3.03704 0
M  V30 4296 H 414.897 2.873 2.66836 0
M  V30 4297 H 416.387 2.30706 3.48087 0
M  V30 4298 N 416.824 -0.551391 1.4764 0
M  V30 4299 C 417.757 -1.6738 1.5511 0
M  V30 4300 C 418.735 -1.5753 0.402856 0
M  V30 4301 O 419.919 -1.78307 0.611475 0
M  V30 4302 C 417.046 -3.05661 1.45908 0
M  V30 4303 C 416.092 -3.33938 2.65307 0
M  V30 4304 S 416.925 -3.22553 4.27457 0
M  V30 4305 C 418.081 -4.63317 4.20818 0
M  V30 4306 H 418.314 -1.6079 2.50068 0
M  V30 4307 H 415.847 -0.732674 1.35909 0
M  V30 4308 H 417.805 -3.8542 1.41286 0
M  V30 4309 H 416.466 -3.09711 0.523248 0
M  V30 4310 H 415.659 -4.34761 2.54948 0
M  V30 4311 H 415.261 -2.61809 2.67081 0
M  V30 4312 H 417.553 -5.54391 3.89431 0
M  V30 4313 H 418.496 -4.78732 5.21748 0
M  V30 4314 H 418.904 -4.41636 3.51593 0
M  V30 4315 N 418.302 -1.35869 -0.798587 0
M  V30 4316 C 419.548 -1.30788 -1.55775 0
M  V30 4317 C 419.903 0.114558 -1.92059 0
M  V30 4318 O 419.196 1.06691 -1.59147 0
M  V30 4319 C 419.39 -2.1556 -2.85077 0
M  V30 4320 C 419.219 -3.65904 -2.61428 0
M  V30 4321 C 417.989 -4.35112 -2.56915 0
M  V30 4322 C 420.187 -4.59375 -2.31255 0
M  V30 4323 N 418.169 -5.71155 -2.25068 0
M  V30 4324 C 419.54 -5.83598 -2.09316 0
M  V30 4325 C 421.595 -4.48035 -2.17185 0
M  V30 4326 C 420.298 -6.97755 -1.74731 0
M  V30 4327 C 422.324 -5.62049 -1.83998 0
M  V30 4328 C 421.686 -6.85305 -1.629 0
M  V30 4329 H 417.785 -0.533855 -0.571422 0
M  V30 4330 H 420.369 -1.7083 -0.934079 0
M  V30 4331 H 418.54 -1.77776 -3.45326 0
M  V30 4332 H 420.272 -2.01938 -3.50718 0
M  V30 4333 H 417.027 -3.87812 -2.71843 0
M  V30 4334 H 417.451 -6.42978 -2.11916 0
M  V30 4335 H 422.093 -3.53338 -2.3219 0
M  V30 4336 H 419.811 -7.92411 -1.58464 0
M  V30 4337 H 423.397 -5.55232 -1.73808 0
M  V30 4338 H 422.277 -7.72034 -1.37596 0
M  V30 4339 N 419.78 1.02168 -1.19998 0
M  V30 4340 C 421.028 1.75338 -1.00504 0
M  V30 4341 C 421.349 1.89387 0.464506 0
M  V30 4342 O 420.619 1.43268 1.33608 0
M  V30 4343 H 419.199 0.649564 -0.368885 0
M  V30 4344 H 421.861 1.23205 -1.51018 0
M  V30 4345 H 420.957 2.75892 -1.45912 0
M  V30 4346 N 421.258 1.00505 1.21394 0
M  V30 4347 C 422.208 0.536503 2.21598 0
M  V30 4348 C 423.192 -0.401914 1.55799 0
M  V30 4349 O 424.384 -0.226757 1.75541 0
M  V30 4350 C 421.513 -0.135446 3.43033 0
M  V30 4351 C 420.599 0.823992 4.16018 0
M  V30 4352 N 420.99 1.97683 4.6557 0
M  V30 4353 C 419.288 0.642387 4.4135 0
M  V30 4354 C 419.989 2.58003 5.21354 0
M  V30 4355 N 418.965 1.86162 5.1073 0
M  V30 4356 H 422.767 1.41557 2.57563 0
M  V30 4357 H 420.281 0.868878 1.37202 0
M  V30 4358 H 422.278 -0.488584 4.14027 0
M  V30 4359 H 420.938 -1.01049 3.08576 0
M  V30 4360 H 421.949 2.3572 4.61147 0
M  V30 4361 H 418.626 -0.185578 4.17087 0
M  V30 4362 H 420.016 3.555 5.70149 0
M  V30 4363 N 422.737 -1.36956 0.779787 0
M  V30 4364 C 423.684 -2.30175 0.169697 0
M  V30 4365 C 424.654 -1.51501 -0.68094 0
M  V30 4366 O 425.839 -1.80042 -0.631629 0
M  V30 4367 C 422.979 -3.37985 -0.697131 0
M  V30 4368 C 422.092 -4.31661 0.170992 0
M  V30 4369 C 421.227 -5.2655 -0.701298 0
M  V30 4370 C 420.266 -6.11867 0.168869 0
M  V30 4371 N 419.403 -6.98973 -0.661855 0
M  V30 4372 H 424.243 -2.81767 0.970135 0
M  V30 4373 H 421.78 -1.38699 0.489994 0
M  V30 4374 H 423.738 -3.99128 -1.2146 0
M  V30 4375 H 422.368 -2.87739 -1.46309 0
M  V30 4376 H 421.42 -3.71756 0.80634 0
M  V30 4377 H 422.732 -4.91644 0.841875 0
M  V30 4378 H 421.886 -5.92937 -1.28494 0
M  V30 4379 H 420.625 -4.66998 -1.40584 0
M  V30 4380 H 419.63 -5.44452 0.764986 0
M  V30 4381 H 420.855 -6.73493 0.870863 0
M  V30 4382 H 418.801 -6.41941 -1.35086 0
M  V30 4383 H 418.718 -7.55984 -0.0484447 0
M  V30 4384 H 419.986 -7.6974 -1.22963 0
M  V30 4385 N 424.215 -0.530993 -1.48385 0
M  V30 4386 C 425.44 0.000729535 -2.074 0
M  V30 4387 C 425.865 1.27298 -1.3848 0
M  V30 4388 O 425.223 1.75599 -0.451081 0
M  V30 4389 C 425.271 0.206697 -3.60007 0
M  V30 4390 O 424.375 1.27514 -3.92191 0
M  V30 4391 H 423.716 -0.039583 -0.662819 0
M  V30 4392 H 426.246 -0.739194 -1.9078 0
M  V30 4393 H 426.256 0.42904 -4.05738 0
M  V30 4394 H 424.931 -0.722675 -4.09573 0
M  V30 4395 H 423.508 1.03537 -3.58238 0
M  V30 4396 N 425.693 1.55336 -0.266172 0
M  V30 4397 C 426.939 1.99692 0.353681 0
M  V30 4398 C 427.272 1.1543 1.56172 0
M  V30 4399 O 426.547 0.222218 1.93226 0
M  V30 4400 C 426.83 3.52316 0.74466 0
M  V30 4401 C 426.683 4.47337 -0.470101 0
M  V30 4402 C 428.002 4.10588 1.58447 0
M  V30 4403 H 425.121 0.725961 0.12708 0
M  V30 4404 H 427.763 1.86336 -0.371333 0
M  V30 4405 H 425.913 3.63829 1.36239 0
M  V30 4406 H 427.585 4.4778 -1.10864 0
M  V30 4407 H 425.828 4.19364 -1.10978 0
M  V30 4408 H 426.499 5.51788 -0.15291 0
M  V30 4409 H 428.975 4.02297 1.06286 0
M  V30 4410 H 427.851 5.17607 1.82686 0
M  V30 4411 H 428.112 3.60253 2.56262 0
M  V30 4412 N 427.171 -0.0066808 1.57599 0
M  V30 4413 C 428.587 -0.36267 1.55425 0
M  V30 4414 C 428.787 -1.75209 0.995187 0
M  V30 4415 O 427.843 -2.44616 0.626058 0
M  V30 4416 C 429.156 -0.244017 2.99708 0
M  V30 4417 C 430.704 -0.319451 3.11366 0
M  V30 4418 C 431.179 -0.229998 4.57422 0
M  V30 4419 N 432.67 -0.288105 4.62303 0
M  V30 4420 C 433.405 -0.242127 5.72889 0
M  V30 4421 N 432.901 -0.147133 6.92644 0
M  V30 4422 N 434.694 -0.293502 5.61333 0
M  V30 4423 H 426.845 0.902314 1.92281 0
M  V30 4424 H 429.108 0.34525 0.882896 0
M  V30 4425 H 428.814 0.711678 3.44424 0
M  V30 4426 H 428.688 -1.02877 3.629 0
M  V30 4427 H 431.075 -1.26559 2.66584 0
M  V30 4428 H 431.156 0.495055 2.50964 0
M  V30 4429 H 430.8 0.712566 5.02877 0
M  V30 4430 H 430.73 -1.0629 5.15761 0
M  V30 4431 H 433.221 -0.363126 3.76151 0
M  V30 4432 H 433.534 -0.117763 7.7271 0
M  V30 4433 H 431.879 -0.112857 6.94908 0
M  V30 4434 H 435.07 -0.365864 4.66668 0
M  V30 4435 H 435.243 -0.254204 6.47501 0
M  V30 4436 N 428.649 -1.55105 -0.279332 0
M  V30 4437 C 429.897 -1.75066 -1.00977 0
M  V30 4438 C 430.218 -0.551276 -1.87045 0
M  V30 4439 O 429.488 0.433984 -1.91032 0
M  V30 4440 H 428.068 -0.645578 -0.375816 0
M  V30 4441 H 430.73 -1.92497 -0.305089 0
M  V30 4442 H 429.826 -2.64894 -1.65038 0
M  V30 4443 N 430.127 0.543554 -1.4793 0
M  V30 4444 C 431.059 1.665 -1.57513 0
M  V30 4445 C 432.072 1.56156 -0.460333 0
M  V30 4446 O 433.261 1.62865 -0.730573 0
M  V30 4447 C 430.361 3.05063 -1.47614 0
M  V30 4448 C 429.534 3.41024 -2.739 0
M  V30 4449 C 428.593 4.58809 -2.57645 0
M  V30 4450 O 427.619 4.62707 -3.31498 0
M  V30 4451 N 428.821 5.56149 -1.66368 0
M  V30 4452 H 431.586 1.5872 -2.5422 0
M  V30 4453 H 429.147 0.730517 -1.44482 0
M  V30 4454 H 431.139 3.81712 -1.34455 0
M  V30 4455 H 429.709 3.06994 -0.589359 0
M  V30 4456 H 428.929 2.53687 -3.01723 0
M  V30 4457 H 430.217 3.61831 -3.57709 0
M  V30 4458 H 429.615 5.55767 -1.05543 0
M  V30 4459 H 428.172 6.32071 -1.59154 0
M  V30 4460 N 431.605 1.3629 0.791371 0
M  V30 4461 C 433.021 1.16661 1.08914 0
M  V30 4462 C 433.221 -0.0106266 2.01497 0
M  V30 4463 O 432.277 -0.676596 2.43266 0
M  V30 4464 C 433.59 2.47656 1.70549 0
M  V30 4465 C 435.138 2.54002 1.82899 0
M  V30 4466 C 435.613 3.85078 2.47949 0
M  V30 4467 N 437.104 3.86413 2.5542 0
M  V30 4468 C 437.839 4.84572 3.06557 0
M  V30 4469 N 437.335 5.93124 3.58016 0
M  V30 4470 N 439.128 4.71994 3.05251 0
M  V30 4471 H 431.279 2.11668 0.176238 0
M  V30 4472 H 433.542 0.937486 0.140796 0
M  V30 4473 H 433.248 3.34059 1.09989 0
M  V30 4474 H 433.122 2.63319 2.70079 0
M  V30 4475 H 435.509 1.68018 2.42598 0
M  V30 4476 H 435.59 2.42239 0.821808 0
M  V30 4477 H 435.234 4.71467 1.88895 0
M  V30 4478 H 435.164 3.94135 3.49235 0
M  V30 4479 H 437.655 3.07988 2.18979 0
M  V30 4480 H 437.968 6.63999 3.95381 0
M  V30 4481 H 436.313 5.96796 3.56173 0
M  V30 4482 H 439.504 3.86321 2.64336 0
M  V30 4483 H 439.677 5.48653 3.44796 0
M  V30 4484 O 433.122 -0.93083 1.31977 0
M  V30 4485 H 433.813 -1.56227 1.14512 0
M  V30 END ATOM
M  V30 BEGIN BOND
M  V30 END BOND
M  V30 END CTAB
M  END
$$$$
