drugbank_target|Q5SHN7 30S ribosomal protein S10 (DB01421; DB08185)
 OpenBabel12092120363D

  0  0  0     0  0            999 V3000
M  V30 BEGIN CTAB
M  V30 COUNTS 1730 1744 0 0 0
M  V30 BEGIN ATOM
M  V30 1 H -0.908 1.98254 -0.117106 0
M  V30 2 N 0 1.576 0 0
M  V30 3 C 0.933 2.03868 1.02534 0
M  V30 4 C 1.911 0.928543 1.3348 0
M  V30 5 O 3.095 1.19667 1.45644 0
M  V30 6 C 0.222 2.43627 2.35294 0
M  V30 7 C -0.732 3.65373 2.2001 0
M  V30 8 S 0.101 5.13292 1.52614 0
M  V30 9 C 1.257 5.56322 2.86805 0
M  V30 10 H 1.49 2.90518 0.631377 0
M  V30 11 H -0.977 1.52953 0.210867 0
M  V30 12 H 0.981 2.67203 3.11629 0
M  V30 13 H -0.358 1.57376 2.7183 0
M  V30 14 H -1.165 3.90944 3.18086 0
M  V30 15 H -1.563 3.418 1.51819 0
M  V30 16 H 0.729 5.58782 3.83104 0
M  V30 17 H 1.672 6.56266 2.65933 0
M  V30 18 H 2.08 4.83886 2.90714 0
M  V30 19 N 1.4781 -0.272755 1.55222 0
M  V30 20 C 2.8891 -0.84378 1.66545 0
M  V30 21 C 3.2401 -1.87035 0.592641 0
M  V30 22 O 2.3651 -2.14761 -0.265818 0
M  V30 23 C 2.9601 -1.53723 3.01918 0
M  V30 24 C 1.5191 -2.05628 3.15268 0
M  V30 25 C 0.6661 -0.898424 2.62343 0
M  V30 26 H 3.6171 -0.0490998 1.58624 0
M  V30 27 H 3.6381 -2.40421 2.94921 0
M  V30 28 H 3.1501 -0.78983 3.79978 0
M  V30 29 H 1.2511 -2.83329 2.41983 0
M  V30 30 H 1.3641 -2.27142 4.21833 0
M  V30 31 H -0.2719 -1.29186 2.19506 0
M  V30 32 H 0.5111 -0.164528 3.42906 0
M  V30 33 N 2.9562 -1.48159 -0.537278 0
M  V30 34 C 3.9032 -1.62138 -1.64256 0
M  V30 35 C 4.8732 -0.463668 -1.59497 0
M  V30 36 O 6.0582 -0.686241 -1.78032 0
M  V30 37 C 3.1982 -1.66028 -3.02537 0
M  V30 38 C 2.3112 -2.92855 -3.17585 0
M  V30 39 C 1.4462 -2.87952 -4.46382 0
M  V30 40 C 0.4852 -4.09516 -4.54932 0
M  V30 41 N -0.3778 -4.02733 -5.75109 0
M  V30 42 H 4.4622 -2.56529 -1.51647 0
M  V30 43 H 1.9992 -1.27224 -0.738414 0
M  V30 44 H 3.9572 -1.66265 -3.82638 0
M  V30 45 H 2.5872 -0.751331 -3.13934 0
M  V30 46 H 1.6392 -3.02395 -2.30784 0
M  V30 47 H 2.9512 -3.82822 -3.19764 0
M  V30 48 H 2.1052 -2.8655 -5.34765 0
M  V30 49 H 0.8442 -1.95702 -4.46712 0
M  V30 50 H -0.1508 -4.11201 -3.64957 0
M  V30 51 H 1.0742 -5.02917 -4.56346 0
M  V30 52 H -0.9798 -3.13299 -5.76351 0
M  V30 53 H -1.0628 -4.86397 -5.78752 0
M  V30 54 H 0.2052 -4.05379 -6.65799 0
M  V30 55 N 4.4343 0.785586 -1.36625 0
M  V30 56 C 5.6833 1.53883 -1.30396 0
M  V30 57 C 5.9963 1.95271 0.113452 0
M  V30 58 O 7.2023 2.69858 0.298142 0
M  V30 59 C 5.6583 2.77808 -2.28802 0
M  V30 60 C 5.2663 2.43574 -3.75999 0
M  V30 61 C 7.0103 3.55783 -2.31558 0
M  V30 62 C 4.9173 3.63919 -4.66173 0
M  V30 63 H 3.8473 0.577678 -0.484566 0
M  V30 64 H 6.4983 0.861705 -1.62009 0
M  V30 65 H 4.8803 3.47339 -1.90188 0
M  V30 66 H 6.0543 1.81916 -4.23371 0
M  V30 67 H 4.3693 1.78803 -3.76056 0
M  V30 68 H 6.9663 4.45205 -2.96137 0
M  V30 69 H 7.3093 3.94644 -1.3252 0
M  V30 70 H 7.8423 2.93235 -2.68809 0
M  V30 71 H 4.5813 3.3015 -5.66287 0
M  V30 72 H 4.1013 4.2473 -4.23515 0
M  V30 73 H 5.7803 4.30901 -4.82632 0
M  V30 74 N 5.9124 1.20967 1.01018 0
M  V30 75 C 7.3284 0.965905 1.27053 0
M  V30 76 C 7.5284 -0.350785 1.98423 0
M  V30 77 O 6.5844 -1.07773 2.28344 0
M  V30 78 C 7.8974 2.15294 2.09926 0
M  V30 79 C 9.4454 2.19463 2.23171 0
M  V30 80 C 9.9204 3.3767 3.09424 0
M  V30 81 N 11.4114 3.37724 3.17012 0
M  V30 82 C 12.1464 4.25837 3.83993 0
M  V30 83 N 11.6424 5.24138 4.53047 0
M  V30 84 N 13.4354 4.1366 3.80581 0
M  V30 85 H 5.5864 2.0565 0.531194 0
M  V30 86 H 7.8494 0.90024 0.297106 0
M  V30 87 H 7.5554 3.10684 1.64828 0
M  V30 88 H 7.4294 2.13923 3.10672 0
M  V30 89 H 9.8164 1.24632 2.6749 0
M  V30 90 H 9.8974 2.2488 1.21912 0
M  V30 91 H 9.5414 4.32791 2.65808 0
M  V30 92 H 9.4714 3.29491 4.10784 0
M  V30 93 H 11.9624 2.6658 2.6785 0
M  V30 94 H 12.2754 5.87684 5.01844 0
M  V30 95 H 10.6204 5.28068 4.5185 0
M  V30 96 H 13.8114 3.36127 3.25785 0
M  V30 97 H 13.9844 4.82538 4.32505 0
M  V30 98 N 7.3905 -1.2043 1.01659 0
M  V30 99 C 8.6395 -1.89118 0.701237 0
M  V30 100 C 8.9525 -1.79705 -0.772358 0
M  V30 101 O 10.1585 -2.43528 -1.20026 0
M  V30 102 C 8.6145 -3.39168 1.20388 0
M  V30 103 C 8.2225 -3.57166 2.70438 0
M  V30 104 C 9.9665 -4.1341 0.963953 0
M  V30 105 C 7.8735 -5.01042 3.14183 0
M  V30 106 H 6.8035 -0.708267 0.2586 0
M  V30 107 H 9.4545 -1.36239 1.22927 0
M  V30 108 H 7.8365 -3.91369 0.603824 0
M  V30 109 H 9.0105 -3.15351 3.35992 0
M  V30 110 H 7.3255 -2.96294 2.92572 0
M  V30 111 H 9.9225 -5.19491 1.26621 0
M  V30 112 H 10.2655 -4.16181 -0.099578 0
M  V30 113 H 10.7985 -3.67309 1.52738 0
M  V30 114 H 7.5375 -5.03426 4.19812 0
M  V30 115 H 7.0575 -5.43668 2.53348 0
M  V30 116 H 8.7365 -5.69623 3.0682 0
M  V30 117 N 8.8686 -0.792821 -1.36206 0
M  V30 118 C 9.8156 -0.191653 -2.30003 0
M  V30 119 C 10.7856 0.666453 -1.52143 0
M  V30 120 O 11.9706 0.61442 -1.80636 0
M  V30 121 C 9.1106 0.664848 -3.38635 0
M  V30 122 C 8.2236 -0.212175 -4.31479 0
M  V30 123 C 7.3586 0.651022 -5.27196 0
M  V30 124 C 6.3976 -0.227247 -6.11678 0
M  V30 125 N 5.5346 0.595127 -6.99573 0
M  V30 126 H 10.3746 -0.996978 -2.80828 0
M  V30 127 H 7.9116 -0.503206 -1.38225 0
M  V30 128 H 9.8696 1.17645 -4.00269 0
M  V30 129 H 8.4996 1.43557 -2.89122 0
M  V30 130 H 7.5516 -0.841777 -3.70969 0
M  V30 131 H 8.8636 -0.888751 -4.90818 0
M  V30 132 H 8.0176 1.2283 -5.94136 0
M  V30 133 H 6.7566 1.36121 -4.68319 0
M  V30 134 H 5.7616 -0.816904 -5.43697 0
M  V30 135 H 6.9866 -0.93509 -6.72631 0
M  V30 136 H 4.9326 1.28955 -6.432 0
M  V30 137 H 4.8496 -0.0236952 -7.55996 0
M  V30 138 H 6.1176 1.15613 -7.70879 0
M  V30 139 N 10.3467 1.47872 -0.545128 0
M  V30 140 C 11.2767 2.32661 0.197793 0
M  V30 141 C 12.2577 1.43041 0.920504 0
M  V30 142 O 13.4427 1.71912 0.90333 0
M  V30 143 C 10.5727 3.24569 1.23582 0
M  V30 144 C 9.5267 4.23333 0.630323 0
M  V30 145 C 8.8527 5.0448 1.77211 0
M  V30 146 C 10.1527 5.20704 -0.407974 0
M  V30 147 H 11.8467 2.95024 -0.510045 0
M  V30 148 H 9.3927 1.4187 -0.246731 0
M  V30 149 H 11.3457 3.8272 1.76362 0
M  V30 150 H 10.0697 2.60236 1.97344 0
M  V30 151 H 8.7287 3.6639 0.123922 0
M  V30 152 H 8.3767 4.36561 2.49847 0
M  V30 153 H 8.0767 5.71339 1.37281 0
M  V30 154 H 9.6007 5.65487 2.3034 0
M  V30 155 H 11.0147 5.7329 0.033305 0
M  V30 156 H 9.4117 5.95699 -0.725486 0
M  V30 157 H 10.4817 4.66917 -1.30828 0
M  V30 158 N 11.8248 0.280983 1.55075 0
M  V30 159 C 13.2408 -0.0729964 1.59433 0
M  V30 160 C 13.4408 -1.5411 1.29817 0
M  V30 161 O 12.4968 -2.29086 1.06187 0
M  V30 162 C 13.8098 0.306921 2.9913 0
M  V30 163 C 15.3578 0.254023 3.11968 0
M  V30 164 C 15.8328 0.608467 4.5394 0
M  V30 165 N 17.3238 0.560241 4.59799 0
M  V30 166 C 18.0588 0.80722 5.6769 0
M  V30 167 N 17.5548 1.11912 6.83701 0
M  V30 168 N 19.3478 0.735623 5.57266 0
M  V30 169 H 11.4988 1.238 1.7259 0
M  V30 170 H 13.7618 0.500547 0.805082 0
M  V30 171 H 13.4678 1.32816 3.25657 0
M  V30 172 H 13.3418 -0.349363 3.75579 0
M  V30 173 H 15.7288 -0.75794 2.852 0
M  V30 174 H 15.8098 0.944649 2.37718 0
M  V30 175 H 15.4538 1.61814 4.81434 0
M  V30 176 H 15.3838 -0.104013 5.26497 0
M  V30 177 H 17.8748 0.329288 3.76463 0
M  V30 178 H 18.1878 1.29409 7.61888 0
M  V30 179 H 16.5328 1.15695 6.85303 0
M  V30 180 H 19.7238 0.491752 4.6551 0
M  V30 181 H 19.8968 0.931482 6.4127 0
M  V30 182 N 13.3029 -1.57598 0.00835791 0
M  V30 183 C 14.5509 -1.90551 -0.6734 0
M  V30 184 C 14.8719 -0.883301 -1.73847 0
M  V30 185 O 14.1419 0.0781442 -1.95744 0
M  V30 186 H 12.7219 -0.703312 -0.251717 0
M  V30 187 H 15.3839 -1.94833 0.0512592 0
M  V30 188 H 14.4799 -2.9056 -1.13935 0
M  V30 189 N 14.781 0.264519 -1.55364 0
M  V30 190 C 16.028 0.994986 -1.7637 0
M  V30 191 C 16.356 1.85976 -0.5695 0
M  V30 192 O 15.611 1.90509 0.44776 0
M  V30 193 C 15.91 1.9004 -3.02687 0
M  V30 194 C 15.576 1.19243 -4.34847 0
M  V30 195 C 14.238 0.996709 -4.70764 0
M  V30 196 C 16.59 0.689296 -5.16622 0
M  V30 197 C 13.918 0.285261 -5.86006 0
M  V30 198 C 16.27 -0.00860079 -6.32599 0
M  V30 199 C 14.934 -0.215963 -6.67151 0
M  V30 200 H 14.204 0.364091 -0.645383 0
M  V30 201 H 16.851 0.266543 -1.89636 0
M  V30 202 H 15.156 2.69533 -2.84357 0
M  V30 203 H 16.853 2.46695 -3.16137 0
M  V30 204 H 13.443 1.3549 -4.06621 0
M  V30 205 H 17.627 0.828108 -4.89342 0
M  V30 206 H 12.883 0.113961 -6.11294 0
M  V30 207 H 17.057 -0.406186 -6.95214 0
M  V30 208 H 14.684 -0.769217 -7.56298 0
M  V30 209 N 16.2591 1.48442 0.529413 0
M  V30 210 C 17.5361 1.46978 1.29062 0
M  V30 211 C 17.9161 0.181769 2.10316 0
M  V30 212 O 17.2641 -0.836481 2.12639 0
M  V30 213 C 17.4741 2.7321 2.17157 0
M  V30 214 C 18.8221 3.21562 2.77278 0
M  V30 215 O 19.8461 2.74131 2.27444 0
M  V30 216 O 18.7051 4.04094 3.67927 0
M  V30 217 H 15.7991 0.587003 0.582543 0
M  V30 218 H 18.3451 1.60676 0.546021 0
M  V30 219 H 17.1171 3.58465 1.56903 0
M  V30 220 H 16.7401 2.62235 2.98862 0
M  V30 221 N 17.7372 -0.778329 1.37039 0
M  V30 222 C 18.6872 -1.88142 1.28789 0
M  V30 223 C 19.6712 -1.59923 0.177063 0
M  V30 224 O 20.8632 -1.72165 0.410873 0
M  V30 225 C 17.9922 -3.25518 1.09055 0
M  V30 226 C 17.0782 -3.5971 2.24654 0
M  V30 227 N 17.4692 -3.65131 3.50018 0
M  V30 228 C 15.7672 -3.89837 2.16663 0
M  V30 229 C 16.4682 -3.95882 4.26207 0
M  V30 230 N 15.4442 -4.11441 3.55271 0
M  V30 231 H 19.2462 -1.90575 2.23737 0
M  V30 232 H 16.7602 -0.974435 1.29917 0
M  V30 233 H 18.7572 -4.04423 1.0123 0
M  V30 234 H 17.4172 -3.24353 0.15018 0
M  V30 235 H 18.4282 -3.475 3.84011 0
M  V30 236 H 15.1052 -3.96533 1.30645 0
M  V30 237 H 16.4952 -4.06907 5.34674 0
M  V30 238 N 19.2153 -1.21501 -1.00376 0
M  V30 239 C 20.1623 -0.975387 -2.09177 0
M  V30 240 C 21.1323 0.0990615 -1.65804 0
M  V30 241 O 22.3173 -0.0483147 -1.90739 0
M  V30 242 C 19.4573 -0.547507 -3.40729 0
M  V30 243 C 18.5703 -1.69153 -3.97506 0
M  V30 244 C 17.7053 -1.2127 -5.17172 0
M  V30 245 C 16.7443 -2.32897 -5.66061 0
M  V30 246 N 15.8813 -1.86138 -6.76976 0
M  V30 247 H 20.7213 -1.9068 -2.29009 0
M  V30 248 H 18.2583 -0.950257 -1.12288 0
M  V30 249 H 20.2163 -0.280667 -4.16255 0
M  V30 250 H 18.8463 0.346904 -3.20931 0
M  V30 251 H 17.8983 -2.07298 -3.18954 0
M  V30 252 H 19.2103 -2.5316 -4.29781 0
M  V30 253 H 18.3643 -0.902591 -5.99948 0
M  V30 254 H 17.1033 -0.342692 -4.86495 0
M  V30 255 H 16.1083 -2.64709 -4.81881 0
M  V30 256 H 17.3333 -3.20396 -5.98768 0
M  V30 257 H 15.2793 -1.01484 -6.48103 0
M  V30 258 H 15.1963 -2.63717 -7.08512 0
M  V30 259 H 16.4643 -1.58165 -7.63285 0
M  V30 260 N 20.6934 1.19889 -1.02296 0
M  V30 261 C 21.9214 1.9339 -0.735399 0
M  V30 262 C 22.3364 1.75148 0.704887 0
M  V30 263 O 21.6934 1.06954 1.47875 0
M  V30 264 C 21.7444 3.45313 -1.06962 0
M  V30 265 O 21.4654 3.62964 -2.45334 0
M  V30 266 C 22.9664 4.35948 -0.804021 0
M  V30 267 H 20.1864 0.61448 -0.269546 0
M  V30 268 H 22.7304 1.522 -1.36585 0
M  V30 269 H 20.8854 3.84359 -0.484455 0
M  V30 270 H 21.2994 4.56886 -2.57595 0
M  V30 271 H 22.7734 5.41174 -1.0879 0
M  V30 272 H 23.2504 4.3842 0.261691 0
M  V30 273 H 23.8564 4.02574 -1.37164 0
M  V30 274 N 22.1715 0.800033 1.35784 0
M  V30 275 C 23.1015 0.220184 2.3246 0
M  V30 276 C 24.0825 -0.65073 1.57161 0
M  V30 277 O 25.2675 -0.582359 1.85263 0
M  V30 278 C 22.3975 -0.637353 3.41402 0
M  V30 279 C 21.3515 0.134531 4.27789 0
M  V30 280 C 20.6775 -0.844285 5.27992 0
M  V30 281 C 21.9775 1.32979 5.05088 0
M  V30 282 H 23.6715 1.02787 2.81203 0
M  V30 283 H 21.2175 0.495717 1.35199 0
M  V30 284 H 23.1705 -1.05302 4.08031 0
M  V30 285 H 21.8945 -1.47785 2.91251 0
M  V30 286 H 20.5535 0.531296 3.6273 0
M  V30 287 H 20.2015 -1.68011 4.74111 0
M  V30 288 H 19.9015 -0.332184 5.8666 0
M  V30 289 H 21.4255 -1.2583 5.97494 0
M  V30 290 H 22.8395 0.98934 5.64699 0
M  V30 291 H 21.2365 1.77593 5.7322 0
M  V30 292 H 22.3065 2.11978 4.36111 0
M  V30 293 N 23.6496 -1.47581 0.552962 0
M  V30 294 C 24.9266 -1.95563 -0.0381515 0
M  V30 295 C 25.3066 -1.49552 -1.48988 0
M  V30 296 O 24.6546 -0.732414 -2.16444 0
M  V30 297 C 24.8646 -3.48848 0.102919 0
M  V30 298 C 26.2126 -4.24577 -0.0446082 0
M  V30 299 O 27.2366 -3.56187 0.0302548 0
M  V30 300 O 26.0956 -5.46116 -0.204923 0
M  V30 301 H 23.1896 -0.824321 -0.0665067 0
M  V30 302 H 25.7356 -1.58001 0.619186 0
M  V30 303 H 24.5076 -3.75129 1.11328 0
M  V30 304 H 24.1306 -3.93165 -0.592224 0
M  V30 305 N 25.1277 -0.289203 -1.54924 0
M  V30 306 C 26.0907 0.579144 -2.21762 0
M  V30 307 C 27.0907 1.07047 -1.1999 0
M  V30 308 O 28.2807 0.968384 -1.44803 0
M  V30 309 C 25.4127 1.80055 -2.8947 0
M  V30 310 H 26.6057 -0.00464908 -2.999 0
M  V30 311 H 24.1587 -0.0399306 -1.56249 0
M  V30 312 H 24.8937 2.42449 -2.15381 0
M  V30 313 H 24.6787 1.45602 -3.64064 0
M  V30 314 H 26.1687 2.41773 -3.40493 0
M  V30 315 N 26.6058 1.57591 -0.0167156 0
M  V30 316 C 27.8308 1.9598 0.67872 0
M  V30 317 C 28.2558 0.892546 1.65575 0
M  V30 318 O 27.6138 -0.147772 1.80697 0
M  V30 319 C 27.6618 3.33468 1.37227 0
M  V30 320 O 26.7658 3.28954 2.48722 0
M  V30 321 H 26.1068 0.639339 0.17928 0
M  V30 322 H 28.6368 2.04463 -0.0748802 0
M  V30 323 H 28.6468 3.69417 1.7319 0
M  V30 324 H 27.3218 4.10694 0.656007 0
M  V30 325 H 25.8988 3.04705 2.14963 0
M  V30 326 N 28.0839 -0.256276 1.55502 0
M  V30 327 C 29.0469 -1.30047 1.88734 0
M  V30 328 C 30.0469 -1.4154 0.763086 0
M  V30 329 O 31.2369 -1.40403 1.03115 0
M  V30 330 C 28.3689 -2.67953 2.10747 0
M  V30 331 H 29.5619 -1.01802 2.82093 0
M  V30 332 H 27.1149 -0.495134 1.4825 0
M  V30 333 H 27.8499 -3.01351 1.19825 0
M  V30 334 H 27.6349 -2.60993 2.92617 0
M  V30 335 H 29.1249 -3.43368 2.37673 0
M  V30 336 N 29.562 -1.4872 -0.521534 0
M  V30 337 C 30.494 -1.59968 -1.64143 0
M  V30 338 C 31.507 -0.483463 -1.55456 0
M  V30 339 O 32.696 -0.75467 -1.61762 0
M  V30 340 C 29.796 -1.52127 -3.02838 0
M  V30 341 C 28.969 -2.78932 -3.36921 0
M  V30 342 C 28.028 -2.64428 -4.54933 0
M  V30 343 O 27.054 -3.38331 -4.57735 0
M  V30 344 N 28.256 -1.74606 -5.53618 0
M  V30 345 H 31.021 -2.56548 -1.54929 0
M  V30 346 H 28.582 -1.45551 -0.708988 0
M  V30 347 H 30.574 -1.40106 -3.79674 0
M  V30 348 H 29.144 -0.634868 -3.06085 0
M  V30 349 H 28.364 -3.05455 -2.4918 0
M  V30 350 H 29.652 -3.63041 -3.56481 0
M  V30 351 H 29.05 -1.13782 -5.54139 0
M  V30 352 H 27.607 -1.6852 -6.29638 0
M  V30 353 N 31.0401 0.771051 -1.3745 0
M  V30 354 C 31.9871 1.88435 -1.3327 0
M  V30 355 C 32.9571 1.64914 -0.198136 0
M  V30 356 O 34.1421 1.86821 -0.387606 0
M  V30 357 C 31.2821 3.25509 -1.14622 0
M  V30 358 C 30.3951 3.60979 -2.37314 0
M  V30 359 C 29.5301 4.87265 -2.11533 0
M  V30 360 C 28.5691 5.15469 -3.30088 0
M  V30 361 N 27.7061 6.32944 -3.03853 0
M  V30 362 H 32.5461 1.91344 -2.28455 0
M  V30 363 H 30.0831 0.935466 -1.13523 0
M  V30 364 H 32.0411 4.04582 -1.01831 0
M  V30 365 H 30.6711 3.21974 -0.230837 0
M  V30 366 H 29.7231 2.76885 -2.60842 0
M  V30 367 H 31.0351 3.77759 -3.25729 0
M  V30 368 H 30.1891 5.74244 -1.95777 0
M  V30 369 H 28.9281 4.7259 -1.20457 0
M  V30 370 H 27.9331 4.26966 -3.46382 0
M  V30 371 H 29.1581 5.32052 -4.22016 0
M  V30 372 H 27.1041 6.19625 -2.15407 0
M  V30 373 H 27.0211 6.50143 -3.85812 0
M  V30 374 H 28.2891 7.22857 -2.91716 0
M  V30 375 N 32.5182 1.22032 0.997298 0
M  V30 376 C 33.7672 1.03637 1.73038 0
M  V30 377 C 34.0802 -0.429475 1.90827 0
M  V30 378 O 35.2862 -0.732995 2.61418 0
M  V30 379 C 33.7422 1.80582 3.11317 0
M  V30 380 C 33.3502 3.31387 3.01474 0
M  V30 381 C 35.0942 1.70621 3.88701 0
M  V30 382 C 33.0012 4.00791 4.3488 0
M  V30 383 H 31.9312 0.384179 0.648785 0
M  V30 384 H 34.5822 1.4584 1.11368 0
M  V30 385 H 32.9642 1.31175 3.73643 0
M  V30 386 H 34.1382 3.88155 2.4834 0
M  V30 387 H 32.4532 3.41976 2.37575 0
M  V30 388 H 35.0502 2.19799 4.87434 0
M  V30 389 H 35.3932 0.665823 4.10941 0
M  V30 390 H 35.9262 2.17547 3.33044 0
M  V30 391 H 32.6652 5.05064 4.1784 0
M  V30 392 H 32.1852 3.48811 4.87945 0
M  V30 393 H 33.8642 4.06139 5.03647 0
M  V30 394 N 33.9963 -1.19345 1.0293 0
M  V30 395 C 35.2423 -1.89318 0.727083 0
M  V30 396 C 35.5753 -1.79446 -0.742483 0
M  V30 397 O 34.8503 -1.1871 -1.54072 0
M  V30 398 C 35.1333 -3.40238 1.17942 0
M  V30 399 C 34.9863 -3.58979 2.71024 0
M  V30 400 C 36.3053 -4.33479 0.760548 0
M  V30 401 H 33.4243 -0.687475 0.265606 0
M  V30 402 H 36.0663 -1.40477 1.2793 0
M  V30 403 H 34.2163 -3.81964 0.709608 0
M  V30 404 H 35.8883 -3.26421 3.25955 0
M  V30 405 H 34.1313 -3.02018 3.11396 0
M  V30 406 H 34.8023 -4.64823 2.9773 0
M  V30 407 H 37.2783 -3.99469 1.16464 0
M  V30 408 H 36.1543 -5.37664 1.10493 0
M  V30 409 H 36.4153 -4.40813 -0.337063 0
M  V30 410 N 35.4744 -0.807222 -1.35358 0
M  V30 411 C 36.3844 -0.219594 -2.3357 0
M  V30 412 C 37.4004 0.637734 -1.61892 0
M  V30 413 O 38.5764 0.549336 -1.93763 0
M  V30 414 C 35.6414 0.62158 -3.41083 0
M  V30 415 C 34.7024 -0.256315 -4.28534 0
M  V30 416 C 33.9354 0.544807 -5.30912 0
M  V30 417 O 34.1584 1.77944 -5.41934 0
M  V30 418 O 33.0924 -0.0646478 -6.01865 0
M  V30 419 H 36.9184 -1.03208 -2.85625 0
M  V30 420 H 34.5034 -0.569025 -1.38139 0
M  V30 421 H 36.3854 1.10067 -4.06772 0
M  V30 422 H 35.0604 1.41165 -2.91297 0
M  V30 423 H 33.9674 -0.782559 -3.65823 0
M  V30 424 H 35.3004 -1.01034 -4.81719 0
M  V30 425 N 36.9525 1.47285 -0.560781 0
M  V30 426 C 37.9155 2.28535 0.174488 0
M  V30 427 C 38.9155 1.37153 0.839388 0
M  V30 428 O 40.1055 1.59748 0.694702 0
M  V30 429 C 37.2375 3.16934 1.25561 0
M  V30 430 H 38.4305 2.95012 -0.539262 0
M  V30 431 H 35.9835 1.53034 -0.317865 0
M  V30 432 H 36.7185 2.55157 2.00164 0
M  V30 433 H 36.5035 3.8419 0.783604 0
M  V30 434 H 37.9935 3.78143 1.77193 0
M  V30 435 N 38.4306 0.297415 1.54768 0
M  V30 436 C 39.3936 -0.567375 2.22066 0
M  V30 437 C 40.3936 -1.06409 1.20556 0
M  V30 438 O 41.5836 -0.960691 1.45315 0
M  V30 439 C 38.7156 -1.78517 2.90421 0
M  V30 440 H 39.9086 0.0205534 2.99893 0
M  V30 441 H 37.4616 0.0482163 1.56226 0
M  V30 442 H 38.1966 -2.41303 2.16664 0
M  V30 443 H 37.9816 -1.43669 3.64831 0
M  V30 444 H 39.4716 -2.39964 3.41771 0
M  V30 445 N 39.9087 -1.5758 0.0250728 0
M  V30 446 C 41.3247 -1.56124 -0.331282 0
M  V30 447 C 41.5247 -1.03029 -1.73169 0
M  V30 448 O 40.5807 -0.675215 -2.43305 0
M  V30 449 C 41.8937 -3.00139 -0.183584 0
M  V30 450 C 43.4417 -3.11946 -0.256654 0
M  V30 451 C 43.9167 -4.57793 -0.137792 0
M  V30 452 N 45.4077 -4.6279 -0.194904 0
M  V30 453 C 46.1427 -5.7326 -0.126655 0
M  V30 454 N 45.6387 -6.928 -0.00755288 0
M  V30 455 N 47.4317 -5.61811 -0.180348 0
M  V30 456 H 39.5827 -1.90424 0.94087 0
M  V30 457 H 41.8457 -0.875761 0.362968 0
M  V30 458 H 41.5517 -3.4292 0.780927 0
M  V30 459 H 41.4257 -3.64899 -0.955448 0
M  V30 460 H 43.8127 -2.69079 -1.21162 0
M  V30 461 H 43.8937 -2.49915 0.545517 0
M  V30 462 H 43.5377 -5.01339 0.813739 0
M  V30 463 H 43.4677 -5.17798 -0.958775 0
M  V30 464 H 45.9587 -3.76807 -0.287267 0
M  V30 465 H 46.2717 -7.72791 0.0379428 0
M  V30 466 H 44.6167 -6.94995 0.0271731 0
M  V30 467 H 47.8077 -4.6731 -0.271767 0
M  V30 468 H 47.9807 -6.47882 -0.123697 0
M  V30 469 N 41.3868 0.248026 -1.55636 0
M  V30 470 C 42.8028 0.596483 -1.48035 0
M  V30 471 C 43.0028 1.88386 -0.715039 0
M  V30 472 O 42.0588 2.51319 -0.243944 0
M  V30 473 C 43.3718 0.700258 -2.92433 0
M  V30 474 C 44.9198 0.792659 -3.02797 0
M  V30 475 C 45.3948 0.928005 -4.485 0
M  V30 476 N 46.8858 0.992903 -4.52433 0
M  V30 477 C 47.6208 1.11687 -5.62418 0
M  V30 478 N 47.1168 1.20645 -6.82214 0
M  V30 479 N 48.9098 1.14994 -5.50212 0
M  V30 480 H 41.0608 -0.597109 -2.03834 0
M  V30 481 H 43.3238 -0.205925 -0.925364 0
M  V30 482 H 43.0298 -0.175658 -3.51261 0
M  V30 483 H 42.9038 1.57255 -3.42857 0
M  V30 484 H 45.2908 1.65903 -2.4405 0
M  V30 485 H 45.3718 -0.104762 -2.55585 0
M  V30 486 H 45.0158 0.0661971 -5.07857 0
M  V30 487 H 44.9458 1.84045 -4.93391 0
M  V30 488 H 47.4368 0.935064 -3.66149 0
M  V30 489 H 47.7498 1.30008 -7.61786 0
M  V30 490 H 46.0948 1.17605 -6.84977 0
M  V30 491 H 49.2858 1.07643 -4.55555 0
M  V30 492 H 49.4588 1.24311 -6.35965 0
M  V30 493 N 42.8649 1.48995 0.513639 0
M  V30 494 C 44.0899 1.61792 1.29762 0
M  V30 495 C 44.5149 0.284475 1.85936 0
M  V30 496 O 43.8729 -0.746185 1.65232 0
M  V30 497 C 43.9209 2.67993 2.41272 0
M  V30 498 O 43.0249 2.26287 3.44772 0
M  V30 499 H 42.3659 0.541963 0.38363 0
M  V30 500 H 44.8959 1.95097 0.616307 0
M  V30 501 H 44.9059 2.89772 2.87221 0
M  V30 502 H 43.5809 3.64791 1.9975 0
M  V30 503 H 42.1579 2.14788 3.04829 0
M  V30 504 N 44.343 -0.763751 1.37857 0
M  V30 505 C 45.591 -1.51957 1.33243 0
M  V30 506 C 45.912 -1.94835 -0.0801709 0
M  V30 507 O 45.182 -1.66894 -1.02582 0
M  V30 508 H 43.762 -0.563626 0.49024 0
M  V30 509 H 46.424 -0.908504 1.7243 0
M  V30 510 H 45.52 -2.41523 1.97669 0
M  V30 511 N 45.8211 -1.22559 -0.990812 0
M  V30 512 C 46.7841 -0.998863 -2.0629 0
M  V30 513 C 47.7841 0.0354834 -1.60761 0
M  V30 514 O 48.9741 -0.203231 -1.7301 0
M  V30 515 C 46.1061 -0.509203 -3.37076 0
M  V30 516 H 47.2991 -1.95014 -2.27837 0
M  V30 517 H 44.8521 -1.04456 -1.16269 0
M  V30 518 H 45.5871 0.446335 -3.21214 0
M  V30 519 H 45.3721 -1.25547 -3.71457 0
M  V30 520 H 46.8621 -0.370888 -4.1595 0
M  V30 521 N 47.2992 1.18797 -1.03562 0
M  V30 522 C 48.2312 2.21731 -0.580337 0
M  V30 523 C 49.2442 1.59051 0.347349 0
M  V30 524 O 50.4332 1.77929 0.142669 0
M  V30 525 C 47.5332 3.38459 0.172805 0
M  V30 526 C 46.7062 4.3072 -0.761496 0
M  V30 527 C 45.7652 5.26174 -0.0525547 0
M  V30 528 O 44.7912 5.65108 -0.681333 0
M  V30 529 N 45.9932 5.67624 1.21586 0
M  V30 530 H 48.7582 2.61417 -1.46565 0
M  V30 531 H 46.3192 1.33531 -0.915476 0
M  V30 532 H 48.3112 3.99335 0.656793 0
M  V30 533 H 46.8812 2.97507 0.959602 0
M  V30 534 H 46.1012 3.67525 -1.42544 0
M  V30 535 H 47.3892 4.89267 -1.39626 0
M  V30 536 H 46.7872 5.38038 1.74732 0
M  V30 537 H 45.3442 6.30721 1.64421 0
M  V30 538 N 48.7773 0.814389 1.34928 0
M  V30 539 C 50.0233 0.399013 1.98836 0
M  V30 540 C 50.3563 -1.03314 1.64438 0
M  V30 541 O 49.6313 -1.71811 0.911659 0
M  V30 542 C 49.9143 0.591629 3.55207 0
M  V30 543 C 49.7673 2.06928 3.99376 0
M  V30 544 C 51.0863 0.022199 4.40094 0
M  V30 545 H 48.2053 0.146451 0.722303 0
M  V30 546 H 50.8473 1.02537 1.59957 0
M  V30 547 H 48.9973 0.0584441 3.88456 0
M  V30 548 H 50.6693 2.66544 3.76499 0
M  V30 549 H 48.9123 2.56287 3.49999 0
M  V30 550 H 49.5833 2.1549 5.08201 0
M  V30 551 H 52.0593 0.477643 4.13349 0
M  V30 552 H 50.9353 0.186832 5.48582 0
M  V30 553 H 51.1963 -1.07215 4.28902 0
M  V30 554 N 50.2554 -1.46986 0.568584 0
M  V30 555 C 51.4804 -2.07335 0.0520528 0
M  V30 556 C 51.9054 -1.41675 -1.23733 0
M  V30 557 O 51.2634 -0.495623 -1.74394 0
M  V30 558 C 51.3114 -3.60417 -0.11501 0
M  V30 559 O 50.4154 -3.95309 -1.17492 0
M  V30 560 H 49.7564 -0.661597 0.0564385 0
M  V30 561 H 52.2864 -1.88837 0.787507 0
M  V30 562 H 52.2964 -4.06698 -0.325644 0
M  V30 563 H 50.9714 -4.07601 0.826675 0
M  V30 564 H 49.5484 -3.60757 -0.943869 0
M  V30 565 N 51.7335 -0.305618 -1.54608 0
M  V30 566 C 52.9815 0.301701 -1.99835 0
M  V30 567 C 53.3025 1.54054 -1.19551 0
M  V30 568 O 52.5725 1.93702 -0.292658 0
M  V30 569 H 51.1525 0.114468 -0.738178 0
M  V30 570 H 53.8145 -0.418016 -1.90364 0
M  V30 571 H 52.9105 0.570548 -3.06841 0
M  V30 572 N 53.2116 1.57565 -0.0334293 0
M  V30 573 C 54.6226 1.79746 0.504798 0
M  V30 574 C 54.9736 0.944091 1.71992 0
M  V30 575 O 54.0986 0.155694 2.15839 0
M  V30 576 C 54.6936 3.25997 0.922567 0
M  V30 577 C 53.2526 3.49159 1.40588 0
M  V30 578 C 52.3996 2.74785 0.372633 0
M  V30 579 H 55.3506 1.56565 -0.259436 0
M  V30 580 H 55.3716 3.35945 1.78666 0
M  V30 581 H 54.8836 3.88081 0.0379825 0
M  V30 582 H 52.9846 2.92332 2.31025 0
M  V30 583 H 53.0976 4.57873 1.41028 0
M  V30 584 H 51.4616 2.40391 0.841672 0
M  V30 585 H 52.2446 3.39587 -0.503559 0
M  V30 586 N 54.6897 -0.239769 1.55765 0
M  V30 587 C 55.9387 -0.964754 1.77131 0
M  V30 588 C 56.2517 -1.86213 0.59868 0
M  V30 589 O 57.4577 -2.6244 0.695522 0
M  V30 590 C 55.9137 -1.76552 3.1362 0
M  V30 591 C 55.5217 -0.915185 4.38553 0
M  V30 592 C 57.2657 -2.48281 3.44321 0
M  V30 593 C 55.1727 -1.71225 5.66071 0
M  V30 594 H 54.1027 -0.363953 0.660344 0
M  V30 595 H 56.7537 -0.219181 1.82186 0
M  V30 596 H 55.1357 -2.55331 3.02691 0
M  V30 597 H 56.3097 -0.169217 4.60489 0
M  V30 598 H 54.6247 -0.310889 4.15238 0
M  V30 599 H 57.2217 -3.08382 4.36812 0
M  V30 600 H 57.5647 -3.20256 2.65973 0
M  V30 601 H 58.0977 -1.76507 3.56497 0
M  V30 602 H 54.8367 -1.03612 6.4726 0
M  V30 603 H 54.3567 -2.43331 5.48224 0
M  V30 604 H 56.0357 -2.27758 6.05587 0
M  V30 605 N 56.1678 -1.49265 -0.50573 0
M  V30 606 C 57.5788 -1.51769 -1.08734 0
M  V30 607 C 57.9298 -0.301192 -1.93874 0
M  V30 608 O 57.0548 0.589456 -2.08217 0
M  V30 609 C 57.6498 -2.75017 -1.97867 0
M  V30 610 C 56.2088 -2.80314 -2.51199 0
M  V30 611 C 55.3558 -2.4562 -1.28709 0
M  V30 612 H 58.3068 -1.56031 -0.289855 0
M  V30 613 H 58.3278 -2.5491 -2.82491 0
M  V30 614 H 57.8398 -3.63539 -1.35873 0
M  V30 615 H 55.9408 -1.96061 -3.16845 0
M  V30 616 H 56.0538 -3.82366 -2.88675 0
M  V30 617 H 54.4178 -1.97297 -1.61078 0
M  V30 618 H 55.2008 -3.36411 -0.6843 0
M  V30 619 N 57.6459 0.756429 -1.3826 0
M  V30 620 C 58.5759 1.88374 -1.37976 0
M  V30 621 C 59.5569 1.68311 -0.246082 0
M  V30 622 O 60.7419 1.88944 -0.44874 0
M  V30 623 C 57.8719 3.25864 -1.20125 0
M  V30 624 C 56.8259 3.60523 -2.30666 0
M  V30 625 C 56.1519 4.9672 -1.97923 0
M  V30 626 C 57.4519 3.65692 -3.72916 0
M  V30 627 H 59.1459 1.88869 -2.32312 0
M  V30 628 H 56.6919 0.907272 -1.11824 0
M  V30 629 H 58.6449 4.0438 -1.18552 0
M  V30 630 H 57.3689 3.25841 -0.222498 0
M  V30 631 H 56.0279 2.84324 -2.3142 0
M  V30 632 H 55.6759 4.93253 -0.985393 0
M  V30 633 H 55.3759 5.20878 -2.71955 0
M  V30 634 H 56.8999 5.77618 -1.97964 0
M  V30 635 H 58.3139 4.34328 -3.74208 0
M  V30 636 H 56.7109 4.01358 -4.4613 0
M  V30 637 H 57.7809 2.65987 -4.05436 0
M  V30 638 N 59.124 1.23083 0.984299 0
M  V30 639 C 60.535 1.05609 1.5396 0
M  V30 640 C 60.886 -0.377793 1.92528 0
M  V30 641 O 60.011 -1.26398 1.75649 0
M  V30 642 C 60.606 1.91087 2.7977 0
M  V30 643 C 59.165 1.77885 3.31713 0
M  V30 644 C 58.312 1.87028 2.04733 0
M  V30 645 H 61.263 1.36802 0.804419 0
M  V30 646 H 61.284 1.43336 3.5247 0
M  V30 647 H 60.796 2.9544 2.51668 0
M  V30 648 H 58.897 0.762995 3.64704 0
M  V30 649 H 59.01 2.61047 4.01735 0
M  V30 650 H 57.374 1.30565 2.18689 0
M  V30 651 H 58.157 2.92929 1.79017 0
M  V30 652 N 60.6021 -1.18246 1.0419 0
M  V30 653 C 61.8301 -1.92195 0.766072 0
M  V30 654 C 62.2451 -1.76247 -0.676933 0
M  V30 655 O 61.6021 -1.09293 -1.46155 0
M  V30 656 C 61.6531 -3.43568 1.12442 0
M  V30 657 O 61.3741 -3.59015 2.51078 0
M  V30 658 C 62.8751 -4.34613 0.873275 0
M  V30 659 H 60.0951 -0.610114 0.279288 0
M  V30 660 H 62.6391 -1.50007 1.38989 0
M  V30 661 H 60.7941 -3.8354 0.545542 0
M  V30 662 H 61.2081 -4.5273 2.64831 0
M  V30 663 H 62.6821 -5.39374 1.17385 0
M  V30 664 H 63.1591 -4.38781 -0.191909 0
M  V30 665 H 63.7651 -4.00341 1.43551 0
M  V30 666 N 62.0802 -0.821533 -1.34494 0
M  V30 667 C 63.4962 -0.507117 -1.51329 0
M  V30 668 C 63.6962 0.968964 -1.76673 0
M  V30 669 O 62.7522 1.75348 -1.81685 0
M  V30 670 C 64.0652 -1.36544 -2.67911 0
M  V30 671 C 65.6132 -1.36242 -2.81793 0
M  V30 672 C 66.0882 -2.2052 -4.01416 0
M  V30 673 N 67.5792 -2.18136 -4.08621 0
M  V30 674 C 68.3142 -2.80095 -5.00334 0
M  V30 675 N 67.8102 -3.51039 -5.9728 0
M  V30 676 N 69.6032 -2.69656 -4.93196 0
M  V30 677 H 61.7542 -1.77729 -1.16302 0
M  V30 678 H 64.0172 -0.757291 -0.570276 0
M  V30 679 H 63.7232 -2.41361 -2.55808 0
M  V30 680 H 63.5972 -1.02917 -3.62888 0
M  V30 681 H 65.9842 -0.322041 -2.93338 0
M  V30 682 H 66.0652 -1.73866 -1.87628 0
M  V30 683 H 65.7092 -3.24607 -3.90631 0
M  V30 684 H 65.6392 -1.80247 -4.94791 0
M  V30 685 H 68.1302 -1.6653 -3.39229 0
M  V30 686 H 68.4432 -3.95565 -6.63889 0
M  V30 687 H 66.7882 -3.55145 -5.97409 0
M  V30 688 H 69.9792 -2.13808 -4.16418 0
M  V30 689 H 70.1522 -3.1823 -5.64476 0
M  V30 690 N 63.5583 1.46682 -0.576371 0
M  V30 691 C 64.8043 2.02712 -0.0596221 0
M  V30 692 C 65.1373 1.44765 1.29448 0
M  V30 693 O 64.4123 0.610355 1.84675 0
M  V30 694 C 64.6953 3.60098 0.0129503 0
M  V30 695 C 64.5483 4.28441 -1.3696 0
M  V30 696 C 65.8673 4.34224 0.71678 0
M  V30 697 H 62.9863 0.736637 -0.0231407 0
M  V30 698 H 65.6283 1.74898 -0.742351 0
M  V30 699 H 63.7783 3.83926 0.594378 0
M  V30 700 H 65.4503 4.15896 -1.9957 0
M  V30 701 H 63.6933 3.8805 -1.93907 0
M  V30 702 H 64.3643 5.3716 -1.27135 0
M  V30 703 H 66.8403 4.15503 0.222908 0
M  V30 704 H 65.7163 5.43936 0.73657 0
M  V30 705 H 65.9773 4.04823 1.77682 0
M  V30 706 N 65.0364 0.313813 1.54444 0
M  V30 707 C 66.4524 -0.0391619 1.59552 0
M  V30 708 C 66.6524 -1.51322 1.33056 0
M  V30 709 O 65.7084 -2.26782 1.11022 0
M  V30 710 C 67.0214 0.370302 2.98411 0
M  V30 711 C 68.5694 0.320139 3.11358 0
M  V30 712 C 69.0444 0.704617 4.52547 0
M  V30 713 N 70.5354 0.657645 4.58508 0
M  V30 714 C 71.2704 0.927453 5.6585 0
M  V30 715 N 70.7664 1.26389 6.81174 0
M  V30 716 N 72.5594 0.853662 5.5558 0
M  V30 717 H 64.7104 1.27433 1.69925 0
M  V30 718 H 66.9734 0.517511 0.794284 0
M  V30 719 H 66.6794 1.39694 3.22767 0
M  V30 720 H 66.5534 -0.269619 3.76235 0
M  V30 721 H 68.9404 -0.697275 2.86744 0
M  V30 722 H 69.0214 0.99486 2.35661 0
M  V30 723 H 68.6654 1.7199 4.77893 0
M  V30 724 H 68.5954 0.00768843 5.26599 0
M  V30 725 H 71.0864 0.409067 3.75679 0
M  V30 726 H 71.3994 1.4554 7.58972 0
M  V30 727 H 69.7444 1.30206 6.82694 0
M  V30 728 H 72.9354 0.590383 4.64362 0
M  V30 729 H 73.1084 1.0673 6.3915 0
M  V30 730 N 66.5145 -1.57545 0.0417849 0
M  V30 731 C 67.9305 -1.56467 -0.314704 0
M  V30 732 C 68.1305 -1.04859 -1.72066 0
M  V30 733 O 67.1865 -0.700983 -2.42575 0
M  V30 734 C 68.4995 -3.00317 -0.15174 0
M  V30 735 C 70.0475 -3.12201 -0.223553 0
M  V30 736 C 70.5225 -4.57913 -0.0892295 0
M  V30 737 N 72.0135 -4.6297 -0.145808 0
M  V30 738 C 72.7485 -5.73362 -0.0658459 0
M  V30 739 N 72.2445 -6.92769 0.0659282 0
M  V30 740 N 74.0375 -5.6197 -0.12075 0
M  V30 741 H 66.1885 -1.89416 0.961014 0
M  V30 742 H 68.4515 -0.871862 0.372237 0
M  V30 743 H 68.1575 -3.42073 0.817254 0
M  V30 744 H 68.0315 -3.65892 -0.916692 0
M  V30 745 H 70.4185 -2.70349 -1.18301 0
M  V30 746 H 70.4995 -2.49323 0.571994 0
M  V30 747 H 70.1435 -5.00448 0.866867 0
M  V30 748 H 70.0735 -5.18786 -0.903802 0
M  V30 749 H 72.5645 -3.7709 -0.247286 0
M  V30 750 H 72.8775 -7.72707 0.119905 0
M  V30 751 H 71.2225 -6.94927 0.100885 0
M  V30 752 H 74.4135 -4.67572 -0.222187 0
M  V30 753 H 74.5865 -6.47977 -0.0549735 0
M  V30 754 N 67.9926 0.231505 -1.5589 0
M  V30 755 C 69.2396 0.957352 -1.78441 0
M  V30 756 C 69.5676 1.84726 -0.60882 0
M  V30 757 O 68.8226 1.91416 0.40725 0
M  V30 758 C 69.1216 1.83577 -3.0665 0
M  V30 759 C 68.7876 1.09993 -4.37278 0
M  V30 760 C 67.4496 0.896629 -4.72773 0
M  V30 761 C 69.8016 0.579558 -5.17968 0
M  V30 762 C 67.1296 0.160896 -5.86479 0
M  V30 763 C 69.4816 -0.142783 -6.32439 0
M  V30 764 C 68.1456 -0.357427 -6.66542 0
M  V30 765 H 67.4156 0.35032 -0.65296 0
M  V30 766 H 70.0626 0.226259 -1.90159 0
M  V30 767 H 68.3676 2.63441 -2.90011 0
M  V30 768 H 70.0646 2.39934 -3.21298 0
M  V30 769 H 66.6546 1.26835 -4.09403 0
M  V30 770 H 70.8386 0.724125 -4.90989 0
M  V30 771 H 66.0946 -0.0157293 -6.11398 0
M  V30 772 H 70.2686 -0.553559 -6.94196 0
M  V30 773 H 67.8956 -0.929466 -7.54497 0
M  V30 774 N 69.4707 1.49531 0.497807 0
M  V30 775 C 70.6987 1.62893 1.27567 0
M  V30 776 C 71.1137 0.301585 1.86376 0
M  V30 777 O 70.4707 -0.713335 1.67982 0
M  V30 778 C 70.5217 2.70013 2.40364 0
M  V30 779 O 70.2427 3.976 1.83972 0
M  V30 780 C 71.7437 2.94109 3.31685 0
M  V30 781 H 68.9637 0.548298 0.386794 0
M  V30 782 H 71.5077 1.95584 0.597245 0
M  V30 783 H 69.6627 2.40092 3.04031 0
M  V30 784 H 70.0767 4.56631 2.58047 0
M  V30 785 H 71.5507 3.72788 4.07104 0
M  V30 786 H 72.0277 2.04147 3.88871 0
M  V30 787 H 72.6337 3.2546 2.73781 0
M  V30 788 N 70.9488 -0.749086 1.3866 0
M  V30 789 C 72.1948 -1.51056 1.35314 0
M  V30 790 C 72.5278 -1.94121 -0.0553751 0
M  V30 791 O 71.8028 -1.65763 -1.01749 0
M  V30 792 C 72.0858 -2.76003 2.31288 0
M  V30 793 C 71.9388 -2.39047 3.8102 0
M  V30 794 C 73.2578 -3.78046 2.2532 0
M  V30 795 H 70.3768 -0.547972 0.492844 0
M  V30 796 H 73.0188 -0.857628 1.69543 0
M  V30 797 H 71.1688 -3.31716 2.02229 0
M  V30 798 H 72.8408 -1.89074 4.20771 0
M  V30 799 H 71.0838 -1.71449 3.98482 0
M  V30 800 H 71.7548 -3.28462 4.4364 0
M  V30 801 H 74.2308 -3.31884 2.50983 0
M  V30 802 H 73.1068 -4.63159 2.94576 0
M  V30 803 H 73.3678 -4.23957 1.25352 0
M  V30 804 N 72.4269 -1.23603 -0.977757 0
M  V30 805 C 73.6759 -1.06377 -1.71368 0
M  V30 806 C 73.9889 0.399062 -1.91486 0
M  V30 807 O 75.1949 0.691312 -2.62551 0
M  V30 808 C 73.6509 -1.85512 -3.08404 0
M  V30 809 C 73.2589 -3.36141 -2.96164 0
M  V30 810 C 75.0029 -1.76783 -3.85938 0
M  V30 811 C 72.9099 -4.07659 -4.28449 0
M  V30 812 H 71.8399 -0.394452 -0.642591 0
M  V30 813 H 74.4909 -1.47594 -1.09034 0
M  V30 814 H 72.8729 -1.37103 -3.71509 0
M  V30 815 H 74.0469 -3.92056 -2.42133 0
M  V30 816 H 72.3619 -3.45712 -2.32104 0
M  V30 817 H 74.9589 -2.27526 -4.83876 0
M  V30 818 H 75.3019 -0.731116 -4.0983 0
M  V30 819 H 75.8349 -2.22818 -3.2954 0
M  V30 820 H 72.5739 -5.11648 -4.09752 0
M  V30 821 H 72.0939 -3.5653 -4.82334 0
M  V30 822 H 73.7729 -4.141 -4.97122 0
M  V30 823 N 73.905 1.17692 -1.04816 0
M  V30 824 C 75.321 1.39863 -0.768794 0
M  V30 825 C 75.521 1.91118 0.638451 0
M  V30 826 O 74.577 2.10036 1.40146 0
M  V30 827 C 75.89 2.39274 -1.82122 0
M  V30 828 C 77.438 2.52987 -1.843 0
M  V30 829 C 77.913 3.55669 -2.88555 0
M  V30 830 N 79.404 3.63183 -2.87493 0
M  V30 831 C 80.139 4.42381 -3.64811 0
M  V30 832 N 79.635 5.25125 -4.51903 0
M  V30 833 N 81.428 4.37217 -3.53267 0
M  V30 834 H 73.579 0.82752 -1.95617 0
M  V30 835 H 75.842 0.426123 -0.846831 0
M  V30 836 H 75.548 2.08678 -2.83102 0
M  V30 837 H 75.422 3.38725 -1.65967 0
M  V30 838 H 77.809 2.82896 -0.839869 0
M  V30 839 H 77.89 1.53623 -2.04532 0
M  V30 840 H 77.534 3.26499 -3.89051 0
M  V30 841 H 77.464 4.54728 -2.65575 0
M  V30 842 H 79.955 3.04103 -2.24343 0
M  V30 843 H 80.268 5.82728 -5.07591 0
M  V30 844 H 78.613 5.24519 -4.55966 0
M  V30 845 H 81.804 3.71626 -2.84625 0
M  V30 846 H 81.977 4.98696 -4.13771 0
M  V30 847 N 75.3831 0.828654 1.34056 0
M  V30 848 C 76.6311 0.41863 1.97717 0
M  V30 849 C 76.9521 -1.02314 1.66002 0
M  V30 850 O 76.2221 -1.71119 0.953683 0
M  V30 851 H 74.8021 0.151809 0.731412 0
M  V30 852 H 77.4641 1.05936 1.63596 0
M  V30 853 H 76.5601 0.542318 3.07352 0
M  V30 854 N 76.8612 -1.46375 0.584142 0
M  V30 855 C 78.2722 -1.86031 0.157959 0
M  V30 856 C 78.6232 -1.48753 -1.27933 0
M  V30 857 O 77.7482 -0.903098 -1.96655 0
M  V30 858 C 78.3432 -3.37642 0.279892 0
M  V30 859 C 76.9022 -3.76289 -0.09143 0
M  V30 860 C 76.0492 -2.7039 0.615178 0
M  V30 861 H 79.0002 -1.37509 0.792274 0
M  V30 862 H 79.0212 -3.77275 -0.494364 0
M  V30 863 H 78.5332 -3.64742 1.32607 0
M  V30 864 H 76.6342 -3.54806 -1.13769 0
M  V30 865 H 76.7472 -4.78246 0.285886 0
M  V30 866 H 75.1112 -2.5464 0.0552833 0
M  V30 867 H 75.8942 -3.0033 1.66303 0
M  V30 868 N 78.3393 -0.321999 -1.54275 0
M  V30 869 C 79.5863 0.281044 -2.0054 0
M  V30 870 C 79.9143 1.52265 -1.21019 0
M  V30 871 O 79.1693 1.93687 -0.279982 0
M  V30 872 C 79.4683 0.661769 -3.5122 0
M  V30 873 C 79.1343 -0.480482 -4.48333 0
M  V30 874 C 77.7963 -0.794005 -4.74604 0
M  V30 875 C 80.1483 -1.24783 -5.06042 0
M  V30 876 C 77.4763 -1.87763 -5.55844 0
M  V30 877 C 79.8283 -2.32153 -5.88462 0
M  V30 878 C 78.4923 -2.64089 -6.13036 0
M  V30 879 H 77.7623 0.102841 -0.733829 0
M  V30 880 H 80.4093 -0.445453 -1.86247 0
M  V30 881 H 78.7143 1.46867 -3.63232 0
M  V30 882 H 80.4113 1.13989 -3.84457 0
M  V30 883 H 77.0013 -0.226039 -4.28004 0
M  V30 884 H 81.1853 -1.01887 -4.85729 0
M  V30 885 H 76.4413 -2.12954 -5.73115 0
M  V30 886 H 80.6153 -2.92057 -6.32199 0
M  V30 887 H 78.2423 -3.48185 -6.75775 0
M  V30 888 N 79.8174 1.5752 -0.0501392 0
M  V30 889 C 80.7644 2.1147 0.924603 0
M  V30 890 C 81.7344 1.02182 1.30951 0
M  V30 891 O 82.9194 1.29723 1.39916 0
M  V30 892 C 80.0594 2.66337 2.19451 0
M  V30 893 C 79.1724 3.89708 1.86418 0
M  V30 894 C 78.3074 4.32893 3.07859 0
M  V30 895 C 77.3464 5.48967 2.70742 0
M  V30 896 N 76.4834 5.87211 3.84874 0
M  V30 897 H 81.3234 2.94465 0.457639 0
M  V30 898 H 78.8604 1.45531 0.214266 0
M  V30 899 H 80.8184 2.96247 2.93758 0
M  V30 900 H 79.4484 1.86141 2.63726 0
M  V30 901 H 78.5004 3.66396 1.02264 0
M  V30 902 H 79.8124 4.74074 1.55096 0
M  V30 903 H 78.9664 4.6435 3.90466 0
M  V30 904 H 77.7054 3.47336 3.42358 0
M  V30 905 H 76.7104 5.17183 1.86551 0
M  V30 906 H 77.9354 6.3624 2.37436 0
M  V30 907 H 75.8814 5.04607 4.19175 0
M  V30 908 H 75.7984 6.66266 3.57247 0
M  V30 909 H 77.0664 6.23282 4.68123 0
M  V30 910 N 81.2955 -0.223234 1.56011 0
M  V30 911 C 82.2455 -1.28008 1.88674 0
M  V30 912 C 83.2295 -1.42369 0.749663 0
M  V30 913 O 84.4215 -1.45212 1.01205 0
M  V30 914 C 81.5505 -2.63084 2.20548 0
M  V30 915 C 80.6365 -2.52632 3.40643 0
M  V30 916 N 81.0275 -2.11829 4.59306 0
M  V30 917 C 79.3255 -2.83594 3.44224 0
M  V30 918 C 80.0265 -2.12587 5.41463 0
M  V30 919 N 79.0025 -2.5301 4.81131 0
M  V30 920 H 82.8045 -0.955487 2.77935 0
M  V30 921 H 80.3185 -0.431801 1.56554 0
M  V30 922 H 82.3155 -3.39385 2.42122 0
M  V30 923 H 80.9755 -2.96391 1.32599 0
M  V30 924 H 81.9865 -1.82988 4.84496 0
M  V30 925 H 78.6635 -3.21284 2.66614 0
M  V30 926 H 80.0535 -1.83179 6.46448 0
M  V30 927 N 82.7736 -1.49793 -0.48987 0
M  V30 928 C 83.7206 -1.67281 -1.59014 0
M  V30 929 C 84.6906 -0.514177 -1.57941 0
M  V30 930 O 85.8756 -0.742533 -1.75759 0
M  V30 931 C 83.0156 -1.75569 -2.97102 0
M  V30 932 C 82.1286 -3.0281 -3.08107 0
M  V30 933 C 81.2636 -3.02008 -4.36995 0
M  V30 934 C 80.3026 -4.23782 -4.41673 0
M  V30 935 N 79.4396 -4.20826 -5.62005 0
M  V30 936 H 84.2796 -2.61224 -1.43409 0
M  V30 937 H 81.8166 -1.29508 -0.697565 0
M  V30 938 H 83.7746 -1.78354 -3.77155 0
M  V30 939 H 82.4046 -0.850827 -3.11385 0
M  V30 940 H 81.4566 -3.09584 -2.21047 0
M  V30 941 H 82.7686 -3.92801 -3.07423 0
M  V30 942 H 81.9226 -3.03418 -5.25378 0
M  V30 943 H 80.6616 -2.09815 -4.4026 0
M  V30 944 H 79.6666 -4.22604 -3.5169 0
M  V30 945 H 80.8916 -5.17181 -4.40115 0
M  V30 946 H 78.8376 -3.31476 -5.66091 0
M  V30 947 H 78.7546 -5.04564 -5.62984 0
M  V30 948 H 80.0226 -4.26355 -6.52565 0
M  V30 949 N 84.2517 0.741722 -1.39055 0
M  V30 950 C 85.5287 1.49252 -1.26425 0
M  V30 951 C 85.9087 2.10705 0.129144 0
M  V30 952 O 85.2567 1.98045 1.13976 0
M  V30 953 C 85.4667 2.54934 -2.38347 0
M  V30 954 C 86.8147 3.21506 -2.77343 0
M  V30 955 O 87.8387 2.65245 -2.37747 0
M  V30 956 O 86.6977 4.23294 -3.45665 0
M  V30 957 H 83.7917 0.662451 -0.495064 0
M  V30 958 H 86.3377 0.776121 -1.50912 0
M  V30 959 H 85.1097 2.07857 -3.31529 0
M  V30 960 H 84.7327 3.34141 -2.15489 0
M  V30 961 N 85.7298 1.2412 0.971189 0
M  V30 962 C 86.9548 1.10667 1.75407 0
M  V30 963 C 87.3798 -0.337048 1.85056 0
M  V30 964 O 86.7378 -1.24396 1.31892 0
M  V30 965 C 86.7858 1.74726 3.15441 0
M  V30 966 O 85.8898 1.01566 3.99697 0
M  V30 967 H 85.2308 0.387341 0.539317 0
M  V30 968 H 87.7608 1.64358 1.2185 0
M  V30 969 H 87.7708 1.80341 3.6598 0
M  V30 970 H 86.4458 2.79773 3.07734 0
M  V30 971 H 85.0228 1.03713 3.58187 0
M  V30 972 N 87.2079 -1.17134 1.05439 0
M  V30 973 C 88.6239 -1.39454 0.776201 0
M  V30 974 C 88.8239 -1.91454 -0.628307 0
M  V30 975 O 87.8799 -2.10777 -1.39031 0
M  V30 976 C 89.1929 -2.38305 1.83388 0
M  V30 977 C 90.7409 -2.52006 1.85639 0
M  V30 978 C 91.2159 -3.54133 2.90437 0
M  V30 979 N 92.7069 -3.61653 2.89415 0
M  V30 980 C 93.4419 -4.4044 3.67152 0
M  V30 981 N 92.9379 -5.22721 4.54681 0
M  V30 982 N 94.7309 -4.35337 3.55581 0
M  V30 983 H 86.8819 -0.817134 1.96053 0
M  V30 984 H 89.1449 -0.421626 0.849079 0
M  V30 985 H 88.8509 -2.07173 2.84204 0
M  V30 986 H 88.7249 -3.37841 1.67761 0
M  V30 987 H 91.1119 -2.82447 0.85486 0
M  V30 988 H 91.1929 -1.52537 2.05344 0
M  V30 989 H 90.8369 -3.24431 3.90777 0
M  V30 990 H 90.7669 -4.53313 2.67983 0
M  V30 991 H 93.2579 -3.02909 2.25952 0
M  V30 992 H 93.5709 -5.80027 5.10674 0
M  V30 993 H 91.9159 -5.22093 4.58741 0
M  V30 994 H 95.1069 -3.70112 2.86592 0
M  V30 995 H 95.2799 -4.96494 4.1641 0
M  V30 996 N 88.686 -0.835752 -1.33615 0
M  V30 997 C 89.596 -0.269088 -2.33052 0
M  V30 998 C 90.612 0.603251 -1.63208 0
M  V30 999 O 91.788 0.508112 -1.94885 0
M  V30 1000 C 88.853 0.549091 -3.42324 0
M  V30 1001 C 87.914 -0.347156 -4.27894 0
M  V30 1002 C 87.147 0.43207 -5.31948 0
M  V30 1003 O 87.37 1.66409 -5.45586 0
M  V30 1004 O 86.304 -0.192298 -6.01593 0
M  V30 1005 H 90.13 -1.09243 -2.83372 0
M  V30 1006 H 87.715 -0.598198 -1.36901 0
M  V30 1007 H 89.597 1.01414 -4.09015 0
M  V30 1008 H 88.272 1.34955 -2.94226 0
M  V30 1009 H 87.179 -0.859979 -3.64081 0
M  V30 1010 H 88.512 -1.1123 -4.79467 0
M  V30 1011 N 90.1641 1.46063 -0.591896 0
M  V30 1012 C 91.1141 2.27458 0.157172 0
M  V30 1013 C 92.0981 1.3641 0.853301 0
M  V30 1014 O 93.2901 1.60517 0.74588 0
M  V30 1015 C 90.4191 3.22956 1.16423 0
M  V30 1016 C 89.5051 4.2149 0.469742 0
M  V30 1017 N 89.8961 5.03519 -0.479839 0
M  V30 1018 C 88.1941 4.40161 0.719319 0
M  V30 1019 C 88.8951 5.74904 -0.886591 0
M  V30 1020 N 87.8711 5.43097 -0.233731 0
M  V30 1021 H 91.6731 2.88272 -0.572392 0
M  V30 1022 H 89.1871 1.57024 -0.414375 0
M  V30 1023 H 91.1841 3.79986 1.71513 0
M  V30 1024 H 89.8441 2.63701 1.89451 0
M  V30 1025 H 90.8551 5.1078 -0.855823 0
M  V30 1026 H 87.5321 3.92046 1.43548 0
M  V30 1027 H 88.9221 6.50844 -1.66888 0
M  V30 1028 N 91.6422 0.330177 1.54103 0
M  V30 1029 C 92.8892 -0.270405 2.00686 0
M  V30 1030 C 93.2172 -1.51621 1.21825 0
M  V30 1031 O 92.4722 -1.93536 0.29025 0
M  V30 1032 C 92.7712 -0.643134 3.51566 0
M  V30 1033 C 92.4372 0.504251 4.48072 0
M  V30 1034 C 91.0992 0.819163 4.74176 0
M  V30 1035 C 93.4512 1.27465 5.05373 0
M  V30 1036 C 90.7792 1.90708 5.5484 0
M  V30 1037 C 93.1312 2.35271 5.87223 0
M  V30 1038 C 91.7952 2.67336 6.11627 0
M  V30 1039 H 91.0652 -0.0989482 0.734364 0
M  V30 1040 H 93.7122 0.455324 1.86008 0
M  V30 1041 H 92.0172 -1.44938 3.64006 0
M  V30 1042 H 93.7142 -1.11949 3.85056 0
M  V30 1043 H 90.3042 0.248733 4.27878 0
M  V30 1044 H 94.4882 1.04462 4.85182 0
M  V30 1045 H 89.7442 2.15991 5.71977 0
M  V30 1046 H 93.9182 2.95405 6.30641 0
M  V30 1047 H 91.5452 3.51763 6.73919 0
M  V30 1048 N 93.1203 -1.57491 0.0584922 0
M  V30 1049 C 94.0303 -2.15448 -0.928414 0
M  V30 1050 C 95.0463 -1.11416 -1.3365 0
M  V30 1051 O 96.2223 -1.4362 -1.41193 0
M  V30 1052 C 93.2873 -2.69393 -2.18239 0
M  V30 1053 C 92.3483 -3.88249 -1.83196 0
M  V30 1054 C 91.5813 -4.39613 -3.02616 0
M  V30 1055 O 91.8043 -3.90023 -4.16219 0
M  V30 1056 O 90.7383 -5.31111 -2.83204 0
M  V30 1057 H 94.5643 -3.00112 -0.465483 0
M  V30 1058 H 92.1493 -1.48499 -0.163826 0
M  V30 1059 H 94.0313 -3.04026 -2.91798 0
M  V30 1060 H 92.7063 -1.87796 -2.63656 0
M  V30 1061 H 91.6133 -3.58492 -1.06931 0
M  V30 1062 H 92.9463 -4.71098 -1.42573 0
M  V30 1063 N 94.5984 0.214957 -1.56127 0
M  V30 1064 C 95.5284 1.2695 -1.95974 0
M  V30 1065 C 96.5094 1.48539 -0.828868 0
M  V30 1066 O 97.6944 1.60611 -1.09168 0
M  V30 1067 C 94.8244 2.61794 -2.28214 0
M  V30 1068 C 93.7784 2.54851 -3.43853 0
M  V30 1069 C 93.1044 3.93785 -3.61715 0
M  V30 1070 C 94.4044 2.09065 -4.78632 0
M  V30 1071 H 96.0984 0.93846 -2.84312 0
M  V30 1072 H 93.6444 0.449996 -1.36788 0
M  V30 1073 H 95.5974 3.35731 -2.54682 0
M  V30 1074 H 94.3214 2.96599 -1.36736 0
M  V30 1075 H 92.9804 1.8337 -3.17444 0
M  V30 1076 H 92.6284 4.25908 -2.67602 0
M  V30 1077 H 92.3284 3.90019 -4.39498 0
M  V30 1078 H 93.8524 4.69374 -3.90539 0
M  V30 1079 H 95.2664 2.7275 -5.04262 0
M  V30 1080 H 93.6634 2.16346 -5.59745 0
M  V30 1081 H 94.7334 1.04315 -4.73547 0
M  V30 1082 N 96.0765 1.50051 0.48192 0
M  V30 1083 C 97.4925 1.37237 0.814756 0
M  V30 1084 C 97.6925 0.420109 1.97072 0
M  V30 1085 O 96.7485 -0.141246 2.52105 0
M  V30 1086 C 98.0615 2.78375 1.13701 0
M  V30 1087 C 99.6095 2.87213 1.2441 0
M  V30 1088 C 100.084 4.29161 1.59954 0
M  V30 1089 N 101.575 4.32061 1.66967 0
M  V30 1090 C 102.31 5.38879 1.95952 0
M  V30 1091 N 101.806 6.55918 2.23031 0
M  V30 1092 N 103.599 5.26312 1.97363 0
M  V30 1093 H 95.7505 2.10546 -0.28005 0
M  V30 1094 H 98.0135 0.945921 -0.0627454 0
M  V30 1095 H 97.7195 3.49845 0.360787 0
M  V30 1096 H 97.5935 3.14941 2.07586 0
M  V30 1097 H 99.9805 2.15969 2.01101 0
M  V30 1098 H 100.061 2.54204 0.285299 0
M  V30 1099 H 99.7055 5.00938 0.838067 0
M  V30 1100 H 99.6355 4.59648 2.56966 0
M  V30 1101 H 102.126 3.47661 1.48123 0
M  V30 1102 H 102.439 7.33139 2.44391 0
M  V30 1103 H 100.784 6.59112 2.20447 0
M  V30 1104 H 103.975 4.33876 1.75697 0
M  V30 1105 H 104.148 6.09649 2.19618 0
M  V30 1106 N 97.5546 -0.734337 1.39446 0
M  V30 1107 C 98.7826 -1.52358 1.39981 0
M  V30 1108 C 99.1976 -1.88799 -0.0054975 0
M  V30 1109 O 98.5546 -1.54146 -0.976998 0
M  V30 1110 C 98.6056 -2.81072 2.27333 0
M  V30 1111 O 98.3266 -2.46178 3.62392 0
M  V30 1112 C 99.8276 -3.75096 2.36259 0
M  V30 1113 H 97.0476 -0.470806 0.478103 0
M  V30 1114 H 99.5916 -0.907339 1.83269 0
M  V30 1115 H 97.7466 -3.39026 1.87457 0
M  V30 1116 H 98.1606 -3.28866 4.08592 0
M  V30 1117 H 99.6346 -4.62305 3.01626 0
M  V30 1118 H 100.112 -4.16892 1.38194 0
M  V30 1119 H 100.718 -3.23061 2.76608 0
M  V30 1120 N 99.0327 -1.24633 -0.964593 0
M  V30 1121 C 99.9827 -1.00841 -2.04487 0
M  V30 1122 C 100.967 0.0512468 -1.60818 0
M  V30 1123 O 102.159 -0.162865 -1.76249 0
M  V30 1124 C 99.2877 -0.618474 -3.37683 0
M  V30 1125 C 98.3737 -1.71437 -3.87905 0
M  V30 1126 N 98.7647 -2.9477 -4.11029 0
M  V30 1127 C 97.0627 -1.5926 -4.16596 0
M  V30 1128 C 97.7637 -3.65834 -4.52261 0
M  V30 1129 N 96.7397 -2.9341 -4.57615 0
M  V30 1130 H 100.542 -1.94487 -2.20345 0
M  V30 1131 H 98.0557 -1.14805 -1.14863 0
M  V30 1132 H 100.053 -0.429247 -4.14684 0
M  V30 1133 H 98.7127 0.310766 -3.23209 0
M  V30 1134 H 99.7237 -3.30917 -3.9839 0
M  V30 1135 H 96.4007 -0.731606 -4.1104 0
M  V30 1136 H 97.7907 -4.71646 -4.78539 0
M  V30 1137 N 100.511 1.16574 -1.06058 0
M  V30 1138 C 101.459 2.22941 -0.663343 0
M  V30 1139 C 102.453 1.66358 0.319593 0
M  V30 1140 O 103.659 1.7905 0.184713 0
M  V30 1141 H 100.034 0.725907 -0.196376 0
M  V30 1142 H 102.005 2.53736 -1.57037 0
M  V30 1143 C 100.754 3.47642 -0.0632808 0
M  V30 1144 H 100.077 3.91493 -0.810733 0
M  V30 1145 H 101.517 4.2363 0.177177 0
M  V30 1146 C 99.9758 3.1509 1.19248 0
M  V30 1147 O 100.506 3.30673 2.28075 0
M  V30 1148 N 98.7118 2.6924 1.09353 0
M  V30 1149 H 98.2588 2.5676 0.207912 0
M  V30 1150 H 98.2168 2.47833 1.93458 0
M  V30 1151 N 101.989 0.842826 1.3317 0
M  V30 1152 C 103.405 0.531128 1.50503 0
M  V30 1153 C 103.605 -0.940734 1.78192 0
M  V30 1154 O 102.661 -1.72436 1.84451 0
M  V30 1155 C 103.974 1.40789 2.65705 0
M  V30 1156 C 105.522 1.40708 2.79589 0
M  V30 1157 C 105.997 2.26878 3.97857 0
M  V30 1158 N 107.488 2.24609 4.05099 0
M  V30 1159 C 108.223 2.88019 4.95815 0
M  V30 1160 N 107.719 3.60496 5.9162 0
M  V30 1161 N 109.512 2.77469 4.88843 0
M  V30 1162 H 101.663 1.79557 1.1346 0
M  V30 1163 H 103.926 0.766267 0.558156 0
M  V30 1164 H 103.632 2.454 2.51936 0
M  V30 1165 H 103.506 1.08677 3.61205 0
M  V30 1166 H 105.893 0.368668 2.92788 0
M  V30 1167 H 105.974 1.76829 1.84838 0
M  V30 1168 H 105.618 3.3078 3.85418 0
M  V30 1169 H 105.548 1.88096 4.91861 0
M  V30 1170 H 108.039 1.71906 3.36536 0
M  V30 1171 H 108.352 4.06076 6.57512 0
M  V30 1172 H 106.697 3.64604 5.91683 0
M  V30 1173 H 109.888 2.20406 4.12963 0
M  V30 1174 H 110.061 3.2717 5.59342 0
M  V30 1175 N 103.467 -1.45747 0.599634 0
M  V30 1176 C 104.397 -2.33235 -0.111306 0
M  V30 1177 C 105.378 -1.46359 -0.866781 0
M  V30 1178 O 106.563 -1.75146 -0.838904 0
M  V30 1179 C 103.693 -3.28932 -1.11451 0
M  V30 1180 C 102.647 -4.25381 -0.472772 0
M  V30 1181 C 101.973 -5.1071 -1.58365 0
M  V30 1182 C 103.273 -5.18831 0.600948 0
M  V30 1183 H 104.967 -2.92927 0.61919 0
M  V30 1184 H 102.513 -1.40857 0.299215 0
M  V30 1185 H 104.466 -3.89002 -1.62036 0
M  V30 1186 H 103.19 -2.67381 -1.8755 0
M  V30 1187 H 101.849 -3.66598 0.0121472 0
M  V30 1188 H 101.497 -4.45533 -2.33473 0
M  V30 1189 H 101.197 -5.7604 -1.15982 0
M  V30 1190 H 102.721 -5.73647 -2.09194 0
M  V30 1191 H 104.135 -5.73019 0.179491 0
M  V30 1192 H 102.532 -5.92595 0.946076 0
M  V30 1193 H 103.602 -4.6174 1.48068 0
M  V30 1194 N 104.945 -0.338344 -1.53925 0
M  V30 1195 C 106.191 0.260143 -2.01125 0
M  V30 1196 C 106.524 1.50617 -1.22589 0
M  V30 1197 O 105.799 1.91979 -0.312113 0
M  V30 1198 C 106.082 0.579499 -3.55407 0
M  V30 1199 C 105.935 -0.678264 -4.44657 0
M  V30 1200 C 107.254 1.39122 -4.17532 0
M  V30 1201 H 104.373 0.0930772 -0.731099 0
M  V30 1202 H 107.015 -0.457852 -1.84401 0
M  V30 1203 H 105.165 1.19118 -3.69788 0
M  V30 1204 H 106.837 -1.31631 -4.42121 0
M  V30 1205 H 105.08 -1.3042 -4.13731 0
M  V30 1206 H 105.751 -0.410143 -5.50474 0
M  V30 1207 H 108.227 0.874035 -4.06817 0
M  V30 1208 H 107.103 1.58342 -5.25565 0
M  V30 1209 H 107.364 2.39178 -3.71815 0
M  V30 1210 N 106.423 1.57458 -0.0668435 0
M  V30 1211 C 107.7 1.8469 0.644132 0
M  V30 1212 C 108.08 0.958343 1.88093 0
M  V30 1213 O 107.428 0.0233579 2.28488 0
M  V30 1214 C 107.638 3.34767 0.986509 0
M  V30 1215 C 108.986 4.02159 1.36212 0
M  V30 1216 O 110.01 3.39484 1.07839 0
M  V30 1217 O 108.869 5.12694 1.89227 0
M  V30 1218 H 105.963 0.762816 0.319437 0
M  V30 1219 H 108.509 1.6942 -0.0973986 0
M  V30 1220 H 107.281 3.91151 0.107883 0
M  V30 1221 H 106.904 3.55281 1.78497 0
M  V30 1222 N 107.901 -0.206675 1.56239 0
M  V30 1223 C 109.15 -0.926964 1.79138 0
M  V30 1224 C 109.463 -1.84901 0.638043 0
M  V30 1225 O 110.669 -2.60906 0.751033 0
M  V30 1226 C 109.125 -1.6986 3.17294 0
M  V30 1227 C 108.733 -0.821956 4.40395 0
M  V30 1228 C 110.477 -2.40922 3.4951 0
M  V30 1229 C 108.384 -1.59179 5.69575 0
M  V30 1230 H 107.314 -0.349864 0.667915 0
M  V30 1231 H 109.965 -0.180487 1.8261 0
M  V30 1232 H 108.347 -2.48853 3.08039 0
M  V30 1233 H 109.521 -0.0715019 4.60745 0
M  V30 1234 H 107.836 -0.222741 4.15804 0
M  V30 1235 H 110.433 -2.99047 4.43255 0
M  V30 1236 H 110.776 -3.14542 2.72707 0
M  V30 1237 H 111.309 -1.68905 3.60161 0
M  V30 1238 H 108.048 -0.898589 6.49312 0
M  V30 1239 H 107.568 -2.31648 5.53262 0
M  V30 1240 H 109.247 -2.14862 6.10281 0
M  V30 1241 N 109.379 -1.50304 -0.473955 0
M  V30 1242 C 110.628 -1.60392 -1.22301 0
M  V30 1243 C 110.941 -0.308411 -1.93153 0
M  V30 1244 O 112.147 -0.288156 -2.69966 0
M  V30 1245 C 110.603 -2.83109 -2.2221 0
M  V30 1246 C 110.211 -4.19524 -1.57173 0
M  V30 1247 C 111.955 -3.0254 -2.97775 0
M  V30 1248 C 109.862 -5.33431 -2.55353 0
M  V30 1249 H 108.792 -0.597286 -0.460179 0
M  V30 1250 H 111.443 -1.76731 -0.493803 0
M  V30 1251 H 109.825 -2.60322 -2.9841 0
M  V30 1252 H 110.999 -4.52554 -0.867824 0
M  V30 1253 H 109.314 -4.05674 -0.939002 0
M  V30 1254 H 111.911 -3.84811 -3.71248 0
M  V30 1255 H 112.254 -2.14154 -3.56992 0
M  V30 1256 H 112.787 -3.25494 -2.28688 0
M  V30 1257 H 109.526 -6.23962 -2.00878 0
M  V30 1258 H 109.046 -5.04823 -3.23904 0
M  V30 1259 H 110.725 -5.63887 -3.17239 0
M  V30 1260 N 110.857 0.726932 -1.39834 0
M  V30 1261 C 111.805 1.86235 -1.39353 0
M  V30 1262 C 112.799 1.67144 -0.275555 0
M  V30 1263 O 114.005 1.74387 -0.44601 0
M  V30 1264 H 110.38 0.613174 -0.43534 0
M  V30 1265 H 112.351 1.83756 -2.35109 0
M  V30 1266 C 111.1 3.23995 -1.26185 0
M  V30 1267 H 110.423 3.39285 -2.11484 0
M  V30 1268 H 111.863 4.03609 -1.29907 0
M  V30 1269 C 110.322 3.36888 0.0290018 0
M  V30 1270 O 110.852 3.89152 0.99619 0
M  V30 1271 N 109.058 2.90446 0.0947437 0
M  V30 1272 H 108.605 2.48102 -0.693035 0
M  V30 1273 H 108.563 2.99451 0.957932 0
M  V30 1274 N 112.336 1.25143 0.95797 0
M  V30 1275 C 113.747 1.08851 1.51685 0
M  V30 1276 C 114.098 -0.33687 1.93286 0
M  V30 1277 O 113.223 -1.22644 1.7829 0
M  V30 1278 C 113.818 1.96978 2.75654 0
M  V30 1279 C 112.377 1.84881 3.27866 0
M  V30 1280 C 111.524 1.91329 2.0072 0
M  V30 1281 H 114.475 1.38478 0.77522 0
M  V30 1282 H 114.496 1.5078 3.4935 0
M  V30 1283 H 114.008 3.00712 2.45345 0
M  V30 1284 H 112.109 0.840182 3.63004 0
M  V30 1285 H 112.222 2.6951 3.96107 0
M  V30 1286 H 110.586 1.35174 2.15871 0
M  V30 1287 H 111.369 2.96661 1.72764 0
M  V30 1288 N 113.814 -1.1601 1.06675 0
M  V30 1289 C 114.762 -2.22586 0.675157 0
M  V30 1290 C 115.756 -1.66525 -0.310766 0
M  V30 1291 O 116.962 -1.79145 -0.175215 0
M  V30 1292 H 113.337 -0.724855 0.200223 0
M  V30 1293 H 115.308 -2.52899 1.58381 0
M  V30 1294 C 114.057 -3.47604 0.0817162 0
M  V30 1295 H 113.38 -3.91058 0.831484 0
M  V30 1296 H 114.82 -4.23718 -0.154708 0
M  V30 1297 C 113.279 -3.15718 -1.17576 0
M  V30 1298 O 113.809 -3.31878 -2.26318 0
M  V30 1299 N 112.015 -2.69816 -1.07923 0
M  V30 1300 H 111.562 -2.56866 -0.194293 0
M  V30 1301 H 111.52 -2.48855 -1.92141 0
M  V30 1302 N 115.292 -0.849877 -1.32721 0
M  V30 1303 C 116.708 -0.539102 -1.50219 0
M  V30 1304 C 116.908 0.931271 -1.78689 0
M  V30 1305 O 115.964 1.71455 -1.85363 0
M  V30 1306 C 117.277 -1.42196 -2.64954 0
M  V30 1307 C 118.825 -1.42189 -2.78839 0
M  V30 1308 C 119.3 -2.28985 -3.96648 0
M  V30 1309 N 120.791 -2.26754 -4.03902 0
M  V30 1310 C 121.526 -2.90644 -4.94281 0
M  V30 1311 N 121.022 -3.63629 -5.897 0
M  V30 1312 N 122.815 -2.80057 -4.87365 0
M  V30 1313 H 114.966 -1.80156 -1.12506 0
M  V30 1314 H 117.229 -0.769217 -0.554085 0
M  V30 1315 H 116.935 -2.46733 -2.50631 0
M  V30 1316 H 116.809 -1.10591 -3.60624 0
M  V30 1317 H 119.196 -0.38419 -2.92588 0
M  V30 1318 H 119.277 -1.77807 -1.83898 0
M  V30 1319 H 118.921 -3.32819 -3.83658 0
M  V30 1320 H 118.851 -1.90702 -4.90857 0
M  V30 1321 H 121.342 -1.73688 -3.3562 0
M  V30 1322 H 121.655 -4.09558 -6.55349 0
M  V30 1323 H 120 -3.67737 -5.89741 0
M  V30 1324 H 123.191 -2.22593 -4.11789 0
M  V30 1325 H 123.364 -3.30132 -5.57599 0
M  V30 1326 N 116.77 1.45427 -0.607355 0
M  V30 1327 C 117.717 2.3053 0.111625 0
M  V30 1328 C 118.687 1.4209 0.860216 0
M  V30 1329 O 119.872 1.71019 0.845998 0
M  V30 1330 C 117.012 3.26992 1.10319 0
M  V30 1331 C 116.125 4.30535 0.355493 0
M  V30 1332 C 115.26 5.14105 1.33676 0
M  V30 1333 C 114.299 6.09376 0.576862 0
M  V30 1334 N 113.436 6.85727 1.5074 0
M  V30 1335 H 118.276 2.91477 -0.620093 0
M  V30 1336 H 115.813 1.43631 -0.317594 0
M  V30 1337 H 117.771 3.81385 1.6912 0
M  V30 1338 H 116.401 2.67799 1.80232 0
M  V30 1339 H 115.453 3.78805 -0.348023 0
M  V30 1340 H 116.765 4.98235 -0.237423 0
M  V30 1341 H 115.919 5.72897 1.99684 0
M  V30 1342 H 114.658 4.46423 1.9636 0
M  V30 1343 H 113.663 5.49715 -0.0968519 0
M  V30 1344 H 114.888 6.79085 -0.0449341 0
M  V30 1345 H 112.834 6.20735 2.12189 0
M  V30 1346 H 112.751 7.49778 0.967913 0
M  V30 1347 H 114.019 7.4906 2.15706 0
M  V30 1348 N 118.248 0.346503 1.53744 0
M  V30 1349 C 119.476 -0.25041 2.05379 0
M  V30 1350 C 119.891 -1.43979 1.22129 0
M  V30 1351 O 119.248 -1.80677 0.257321 0
M  V30 1352 C 119.299 -0.662575 3.55376 0
M  V30 1353 O 119.02 0.479515 4.35468 0
M  V30 1354 C 120.521 -1.31989 4.23195 0
M  V30 1355 H 117.741 -0.0478198 0.669294 0
M  V30 1356 H 120.285 0.499346 1.9831 0
M  V30 1357 H 118.44 -1.36227 3.62658 0
M  V30 1358 H 118.854 0.15037 5.24284 0
M  V30 1359 H 120.328 -1.55902 5.29527 0
M  V30 1360 H 120.805 -2.27436 3.75725 0
M  V30 1361 H 121.411 -0.662154 4.20114 0
M  V30 1362 N 119.726 -1.57421 0.075193 0
M  V30 1363 C 120.975 -1.92794 -0.592731 0
M  V30 1364 C 121.288 -0.957478 -1.70563 0
M  V30 1365 O 122.494 -1.20417 -2.43335 0
M  V30 1366 C 120.95 -3.42495 -1.10569 0
M  V30 1367 C 120.558 -4.47994 -0.0236121 0
M  V30 1368 C 122.302 -3.86864 -1.74748 0
M  V30 1369 C 120.209 -5.88829 -0.550803 0
M  V30 1370 H 119.139 -0.719591 -0.225177 0
M  V30 1371 H 121.79 -1.82902 0.147978 0
M  V30 1372 H 120.172 -3.47471 -1.89947 0
M  V30 1373 H 121.346 -4.54637 0.751099 0
M  V30 1374 H 119.661 -4.13113 0.522159 0
M  V30 1375 H 122.258 -4.8947 -2.15229 0
M  V30 1376 H 122.601 -3.24417 -2.60882 0
M  V30 1377 H 123.134 -3.84504 -1.01986 0
M  V30 1378 H 119.873 -6.54929 0.273457 0
M  V30 1379 H 119.393 -5.85698 -1.29296 0
M  V30 1380 H 121.072 -6.38811 -1.02613 0
M  V30 1381 N 121.204 0.198386 -1.56346 0
M  V30 1382 C 122.114 1.2664 -1.97483 0
M  V30 1383 C 123.13 1.49989 -0.882002 0
M  V30 1384 O 124.306 1.62668 -1.18748 0
M  V30 1385 C 121.371 2.59141 -2.30319 0
M  V30 1386 C 120.432 2.43892 -3.53292 0
M  V30 1387 C 119.665 3.70074 -3.84553 0
M  V30 1388 O 119.888 4.74101 -3.1715 0
M  V30 1389 O 118.822 3.658 -4.7799 0
M  V30 1390 H 122.648 0.947304 -2.88548 0
M  V30 1391 H 120.233 0.403123 -1.43859 0
M  V30 1392 H 122.115 3.37352 -2.5253 0
M  V30 1393 H 120.79 2.90684 -1.42423 0
M  V30 1394 H 119.697 1.63803 -3.36332 0
M  V30 1395 H 121.03 2.17282 -4.41644 0
M  V30 1396 N 122.682 1.50554 0.465978 0
M  V30 1397 C 123.614 1.65949 1.58093 0
M  V30 1398 C 124.627 0.540827 1.53554 0
M  V30 1399 O 125.816 0.814187 1.5885 0
M  V30 1400 C 122.916 1.63261 2.96983 0
M  V30 1401 C 122.089 2.91245 3.26336 0
M  V30 1402 C 121.148 2.8113 4.44806 0
M  V30 1403 O 120.174 3.55086 4.44862 0
M  V30 1404 N 121.376 1.95032 5.46756 0
M  V30 1405 H 124.141 2.62122 1.45301 0
M  V30 1406 H 121.702 1.48082 0.65448 0
M  V30 1407 H 123.694 1.54101 3.74212 0
M  V30 1408 H 122.264 0.748032 3.03518 0
M  V30 1409 H 121.484 3.14493 2.37672 0
M  V30 1410 H 122.772 3.76022 3.42761 0
M  V30 1411 H 122.17 1.3427 5.49534 0
M  V30 1412 H 120.727 1.91772 6.2295 0
M  V30 1413 N 124.16 -0.719506 1.40217 0
M  V30 1414 C 125.09 -1.8465 1.42922 0
M  V30 1415 C 126.071 -1.67599 0.29062 0
M  V30 1416 O 127.256 -1.87688 0.498677 0
M  V30 1417 C 124.386 -3.22565 1.28722 0
M  V30 1418 C 123.34 -3.54281 2.40144 0
M  V30 1419 C 122.666 -4.91298 2.11023 0
M  V30 1420 C 123.966 -3.55676 3.82481 0
M  V30 1421 H 125.66 -1.82644 2.37237 0
M  V30 1422 H 123.206 -0.877305 1.1419 0
M  V30 1423 H 125.159 -4.01095 1.29232 0
M  V30 1424 H 123.883 -3.25137 0.308811 0
M  V30 1425 H 122.542 -2.78088 2.38877 0
M  V30 1426 H 122.19 -4.90468 1.11582 0
M  V30 1427 H 121.89 -5.13485 2.8567 0
M  V30 1428 H 123.414 -5.72166 2.13209 0
M  V30 1429 H 124.828 -4.24254 3.85592 0
M  V30 1430 H 123.225 -3.89388 4.56614 0
M  V30 1431 H 124.295 -2.55144 4.12346 0
M  V30 1432 N 125.638 -1.25649 -0.95132 0
M  V30 1433 C 126.571 -1.00644 -2.04807 0
M  V30 1434 C 127.549 0.0654271 -1.62468 0
M  V30 1435 O 128.733 -0.074911 -1.88351 0
M  V30 1436 C 125.86 -0.522052 -3.34653 0
M  V30 1437 C 124.906 -1.58495 -3.95957 0
M  V30 1438 S 125.739 -3.17108 -4.31512 0
M  V30 1439 C 126.895 -2.70412 -5.64471 0
M  V30 1440 H 127.128 -1.93508 -2.25703 0
M  V30 1441 H 124.661 -1.09216 -1.09139 0
M  V30 1442 H 126.619 -0.24923 -4.09743 0
M  V30 1443 H 125.28 0.386146 -3.11717 0
M  V30 1444 H 124.473 -1.1968 -4.89584 0
M  V30 1445 H 124.075 -1.80862 -3.2736 0
M  V30 1446 H 126.367 -2.14245 -6.42733 0
M  V30 1447 H 127.31 -3.62693 -6.08161 0
M  V30 1448 H 127.718 -2.10302 -5.23864 0
M  V30 1449 N 127.117 1.15442 -1.07289 0
M  V30 1450 C 128.345 1.90096 -0.81676 0
M  V30 1451 C 128.76 1.7798 0.629966 0
M  V30 1452 O 128.117 1.1313 1.43206 0
M  V30 1453 C 128.168 3.40466 -1.21512 0
M  V30 1454 O 127.889 3.52232 -2.60508 0
M  V30 1455 C 129.39 4.32145 -0.988198 0
M  V30 1456 H 126.61 0.602495 -0.295366 0
M  V30 1457 H 129.154 1.4627 -1.42918 0
M  V30 1458 H 127.309 3.81958 -0.647039 0
M  V30 1459 H 127.723 4.45549 -2.76742 0
M  V30 1460 H 129.197 5.36072 -1.31645 0
M  V30 1461 H 129.674 4.39135 0.0755063 0
M  V30 1462 H 130.28 3.96395 -1.54115 0
M  V30 1463 N 128.595 0.856903 1.32268 0
M  V30 1464 C 129.525 0.31858 2.31316 0
M  V30 1465 C 130.506 -0.583487 1.59779 0
M  V30 1466 O 131.691 -0.503259 1.87566 0
M  V30 1467 C 128.821 -0.491979 3.43798 0
M  V30 1468 C 127.775 0.315849 4.26833 0
M  V30 1469 C 127.101 -0.619586 5.31098 0
M  V30 1470 C 128.401 1.54282 4.98993 0
M  V30 1471 H 130.095 1.14621 2.76591 0
M  V30 1472 H 127.641 0.552613 1.32974 0
M  V30 1473 H 129.594 -0.879012 4.1213 0
M  V30 1474 H 128.318 -1.35299 2.97257 0
M  V30 1475 H 126.977 0.684664 3.6015 0
M  V30 1476 H 126.625 -1.47751 4.8081 0
M  V30 1477 H 126.325 -0.0830621 5.87541 0
M  V30 1478 H 127.849 -1.00375 6.02293 0
M  V30 1479 H 129.263 1.22796 5.59995 0
M  V30 1480 H 127.66 2.01745 5.65172 0
M  V30 1481 H 128.73 2.30285 4.26728 0
M  V30 1482 N 130.073 -1.45103 0.615059 0
M  V30 1483 C 131.35 -1.95549 0.0448276 0
M  V30 1484 C 131.73 -1.55737 -1.4251 0
M  V30 1485 O 131.078 -0.823556 -2.13143 0
M  V30 1486 C 131.288 -3.48098 0.250785 0
M  V30 1487 C 132.636 -4.24384 0.135509 0
M  V30 1488 O 133.66 -3.55738 0.181299 0
M  V30 1489 O 132.519 -5.46493 0.0268878 0
M  V30 1490 H 129.613 -0.8264 -0.0314845 0
M  V30 1491 H 132.159 -1.55232 0.685642 0
M  V30 1492 H 130.931 -3.7007 1.27139 0
M  V30 1493 H 130.554 -3.95323 -0.424937 0
M  V30 1494 N 131.551 -0.354651 -1.53558 0
M  V30 1495 C 132.481 0.489091 -2.2832 0
M  V30 1496 C 133.462 1.09324 -1.30316 0
M  V30 1497 O 134.647 1.11255 -1.59173 0
M  V30 1498 C 131.777 1.63456 -3.0643 0
M  V30 1499 C 130.731 1.1582 -4.12031 0
M  V30 1500 C 130.057 2.39305 -4.7816 0
M  V30 1501 C 131.357 0.250731 -5.21698 0
M  V30 1502 H 133.051 -0.134614 -2.99097 0
M  V30 1503 H 130.597 -0.0661826 -1.43848 0
M  V30 1504 H 132.55 2.23136 -3.57475 0
M  V30 1505 H 131.274 2.28533 -2.33325 0
M  V30 1506 H 129.933 0.584146 -3.61916 0
M  V30 1507 H 129.581 3.02814 -4.01637 0
M  V30 1508 H 129.281 2.08109 -5.49513 0
M  V30 1509 H 130.805 2.99691 -5.31994 0
M  V30 1510 H 132.219 0.754695 -5.68311 0
M  V30 1511 H 130.616 0.0301468 -6.00092 0
M  V30 1512 H 131.686 -0.710125 -4.79672 0
M  V30 1513 N 133.029 1.57378 -0.0835403 0
M  V30 1514 C 134.44 1.81261 0.447358 0
M  V30 1515 C 134.791 0.998331 1.68902 0
M  V30 1516 O 133.916 0.224282 2.15235 0
M  V30 1517 C 134.511 3.28767 0.818386 0
M  V30 1518 C 133.07 3.53455 1.29409 0
M  V30 1519 C 132.217 2.75831 0.285024 0
M  V30 1520 H 135.168 1.5566 -0.309115 0
M  V30 1521 H 135.189 3.41459 1.67887 0
M  V30 1522 H 134.701 3.88006 -0.0855019 0
M  V30 1523 H 132.802 2.99534 2.21608 0
M  V30 1524 H 132.915 4.62128 1.2639 0
M  V30 1525 H 131.279 2.42947 0.764767 0
M  V30 1526 H 132.062 3.37813 -0.611341 0
M  V30 1527 N 134.507 -0.190092 1.56449 0
M  V30 1528 C 135.735 -0.925772 1.85033 0
M  V30 1529 C 136.15 -1.76638 0.666658 0
M  V30 1530 O 135.507 -1.78822 -0.364565 0
M  V30 1531 C 135.558 -1.81786 3.12468 0
M  V30 1532 O 135.279 -1.01118 4.26271 0
M  V30 1533 C 136.78 -2.6648 3.54265 0
M  V30 1534 H 134 -0.269872 0.614337 0
M  V30 1535 H 136.544 -0.195837 2.0356 0
M  V30 1536 H 134.699 -2.50136 2.95822 0
M  V30 1537 H 135.113 -1.61956 4.98869 0
M  V30 1538 H 136.587 -3.24722 4.46385 0
M  V30 1539 H 137.064 -3.40434 2.77491 0
M  V30 1540 H 137.67 -2.03493 3.73458 0
M  V30 1541 N 135.985 -1.50799 -0.457987 0
M  V30 1542 C 137.233 -1.62121 -1.2067 0
M  V30 1543 C 137.554 -0.329793 -1.92191 0
M  V30 1544 O 136.824 0.653409 -1.84682 0
M  V30 1545 H 135.404 -0.597441 -0.448411 0
M  V30 1546 H 138.066 -1.87637 -0.527096 0
M  V30 1547 H 137.162 -2.43882 -1.94751 0
M  V30 1548 N 137.463 0.71206 -1.40597 0
M  V30 1549 C 138.709 1.47416 -1.39271 0
M  V30 1550 C 139.042 1.942 0.00388791 0
M  V30 1551 O 138.317 1.68403 0.973179 0
M  V30 1552 C 138.6 2.69774 -2.38525 0
M  V30 1553 C 138.453 2.28861 -3.87224 0
M  V30 1554 C 139.772 3.71939 -2.35264 0
M  V30 1555 H 136.891 0.534713 -0.5072 0
M  V30 1556 H 139.533 0.812375 -1.71757 0
M  V30 1557 H 137.683 3.26238 -2.10953 0
M  V30 1558 H 139.355 1.77852 -4.25636 0
M  V30 1559 H 137.598 1.60824 -4.02887 0
M  V30 1560 H 138.269 3.16584 -4.52193 0
M  V30 1561 H 140.745 3.25113 -2.59694 0
M  V30 1562 H 139.621 4.55186 -3.06753 0
M  V30 1563 H 139.882 4.20484 -1.36549 0
M  V30 1564 N 138.941 1.26152 0.944643 0
M  V30 1565 C 139.851 1.09176 2.07648 0
M  V30 1566 C 140.867 0.0261935 1.7398 0
M  V30 1567 O 142.043 0.229208 2.00091 0
M  V30 1568 C 139.108 0.722915 3.39079 0
M  V30 1569 C 138.169 1.86752 3.86552 0
M  V30 1570 C 137.402 1.51617 5.11711 0
M  V30 1571 O 137.625 0.416331 5.68879 0
M  V30 1572 O 136.559 2.34975 5.54139 0
M  V30 1573 H 140.385 2.0412 2.24875 0
M  V30 1574 H 137.97 1.05182 1.061 0
M  V30 1575 H 139.852 0.529787 4.18056 0
M  V30 1576 H 138.527 -0.197159 3.23099 0
M  V30 1577 H 137.434 2.11558 3.08535 0
M  V30 1578 H 138.767 2.76719 4.07047 0
M  V30 1579 N 140.419 -1.14872 1.07899 0
M  V30 1580 C 141.668 -1.85135 0.800499 0
M  V30 1581 C 141.981 -1.83547 -0.676014 0
M  V30 1582 O 143.187 -2.49548 -1.06948 0
M  V30 1583 C 141.643 -3.3231 1.38197 0
M  V30 1584 C 141.251 -3.42329 2.8899 0
M  V30 1585 C 142.995 -4.0772 1.18174 0
M  V30 1586 C 140.902 -4.83684 3.403 0
M  V30 1587 H 139.832 -0.693563 0.29578 0
M  V30 1588 H 142.483 -1.29532 1.29976 0
M  V30 1589 H 140.865 -3.87618 0.810431 0
M  V30 1590 H 142.039 -2.97097 3.52236 0
M  V30 1591 H 140.354 -2.80369 3.07867 0
M  V30 1592 H 142.951 -5.12049 1.5398 0
M  V30 1593 H 143.294 -4.16124 0.12117 0
M  V30 1594 H 143.827 -3.58696 1.71994 0
M  V30 1595 H 140.566 -4.80465 4.45907 0
M  V30 1596 H 140.086 -5.29474 2.81811 0
M  V30 1597 H 141.765 -5.52558 3.36584 0
M  V30 1598 N 141.898 -0.863906 -1.31812 0
M  V30 1599 C 142.808 -0.318461 -2.32428 0
M  V30 1600 C 143.824 0.568496 -1.64451 0
M  V30 1601 O 145 0.46666 -1.95919 0
M  V30 1602 C 142.065 0.476355 -3.43412 0
M  V30 1603 C 141.126 -0.43784 -4.27061 0
M  V30 1604 C 140.359 0.319138 -5.32745 0
M  V30 1605 O 140.582 1.54799 -5.48993 0
M  V30 1606 O 139.516 -0.319861 -6.01049 0
M  V30 1607 H 143.342 -1.15229 -2.80991 0
M  V30 1608 H 140.927 -0.627103 -1.35602 0
M  V30 1609 H 142.809 0.927156 -4.11074 0
M  V30 1610 H 141.484 1.28683 -2.97022 0
M  V30 1611 H 140.391 -0.937013 -3.62175 0
M  V30 1612 H 141.724 -1.21375 -4.77 0
M  V30 1613 N 143.376 1.44774 -0.622745 0
M  V30 1614 C 144.625 2.01334 -0.121397 0
M  V30 1615 C 144.938 1.49505 1.26125 0
M  V30 1616 O 146.144 1.98139 1.85616 0
M  V30 1617 C 144.6 3.59516 -0.166298 0
M  V30 1618 C 144.208 4.20342 -1.54974 0
M  V30 1619 C 145.952 4.23582 0.279021 0
M  V30 1620 C 143.859 5.70721 -1.55021 0
M  V30 1621 H 142.789 0.752851 -0.0416172 0
M  V30 1622 H 145.44 1.66083 -0.780309 0
M  V30 1623 H 143.822 3.92027 0.559557 0
M  V30 1624 H 144.996 3.99381 -2.29851 0
M  V30 1625 H 143.311 3.68529 -1.93843 0
M  V30 1626 H 145.908 5.33868 0.298083 0
M  V30 1627 H 146.251 3.95327 1.30471 0
M  V30 1628 H 146.784 3.95843 -0.394063 0
M  V30 1629 H 143.523 6.03698 -2.55399 0
M  V30 1630 H 143.043 5.93829 -0.844245 0
M  V30 1631 H 144.722 6.34203 -1.28047 0
M  V30 1632 N 144.854 0.36279 1.53368 0
M  V30 1633 C 145.801 -0.485008 2.25646 0
M  V30 1634 C 146.771 -1.07982 1.2621 0
M  V30 1635 O 147.956 -1.11284 1.54986 0
M  V30 1636 C 145.096 -1.62023 3.04701 0
M  V30 1637 C 144.209 -1.05086 4.19024 0
M  V30 1638 C 143.344 -2.15496 4.85525 0
M  V30 1639 C 142.383 -1.5601 5.91884 0
M  V30 1640 N 141.52 -2.60241 6.52088 0
M  V30 1641 H 146.36 0.137864 2.97681 0
M  V30 1642 H 143.897 0.0798061 1.46883 0
M  V30 1643 H 145.855 -2.28887 3.48807 0
M  V30 1644 H 144.485 -2.2138 2.34927 0
M  V30 1645 H 143.537 -0.27259 3.79422 0
M  V30 1646 H 144.849 -0.575926 4.95464 0
M  V30 1647 H 144.003 -2.90186 5.32801 0
M  V30 1648 H 142.742 -2.66341 4.08551 0
M  V30 1649 H 141.747 -0.798338 5.43973 0
M  V30 1650 H 142.972 -1.05994 6.70777 0
M  V30 1651 H 140.918 -3.10304 5.77968 0
M  V30 1652 H 140.835 -2.17426 7.24059 0
M  V30 1653 H 142.103 -3.34641 7.04014 0
M  V30 1654 N 146.332 -1.57332 0.0918853 0
M  V30 1655 C 147.56 -1.98574 -0.581048 0
M  V30 1656 C 147.975 -0.970903 -1.61923 0
M  V30 1657 O 147.332 0.0399054 -1.82456 0
M  V30 1658 C 147.383 -3.39872 -1.23164 0
M  V30 1659 O 147.104 -4.37469 -0.234989 0
M  V30 1660 C 148.605 -3.96099 -1.99049 0
M  V30 1661 H 145.825 -0.65261 -0.156018 0
M  V30 1662 H 148.369 -2.0379 0.170225 0
M  V30 1663 H 146.524 -3.35679 -1.93386 0
M  V30 1664 H 146.938 -5.19751 -0.70418 0
M  V30 1665 H 148.412 -4.97127 -2.39934 0
M  V30 1666 H 148.889 -3.3374 -2.85507 0
M  V30 1667 H 149.495 -4.03755 -1.3365 0
M  V30 1668 N 147.81 0.181792 -1.56548 0
M  V30 1669 C 149.056 0.901431 -1.81665 0
M  V30 1670 C 149.389 1.82347 -0.668075 0
M  V30 1671 O 148.664 1.91669 0.330615 0
M  V30 1672 C 148.947 1.70618 -3.17115 0
M  V30 1673 C 148.8 0.807964 -4.42484 0
M  V30 1674 C 150.119 2.67605 -3.49393 0
M  V30 1675 H 147.238 0.32627 -0.660846 0
M  V30 1676 H 149.88 0.168134 -1.89255 0
M  V30 1677 H 148.03 2.33133 -3.10775 0
M  V30 1678 H 149.702 0.19649 -4.60881 0
M  V30 1679 H 147.945 0.115411 -4.33646 0
M  V30 1680 H 148.616 1.40632 -5.33785 0
M  V30 1681 H 151.092 2.15218 -3.56118 0
M  V30 1682 H 149.968 3.20985 -4.45264 0
M  V30 1683 H 150.229 3.47298 -2.73563 0
M  V30 1684 N 149.288 1.51039 0.449983 0
M  V30 1685 C 150.536 1.62759 1.19808 0
M  V30 1686 C 150.857 0.339981 1.92013 0
M  V30 1687 O 150.127 -0.643606 1.85026 0
M  V30 1688 H 148.707 0.599811 0.445237 0
M  V30 1689 H 151.369 1.87914 0.517138 0
M  V30 1690 H 150.465 2.44911 1.93455 0
M  V30 1691 N 150.766 -0.704594 1.40972 0
M  V30 1692 C 152.014 -1.46169 1.39568 0
M  V30 1693 C 152.335 -1.95 0.00253745 0
M  V30 1694 O 151.605 -1.71095 -0.954114 0
M  V30 1695 H 150.185 -0.542326 0.513704 0
M  V30 1696 H 152.847 -0.834553 1.76128 0
M  V30 1697 H 151.943 -2.32922 2.07735 0
M  V30 1698 N 152.244 -1.26651 -0.937939 0
M  V30 1699 C 153.492 -1.12165 -1.68118 0
M  V30 1700 C 153.813 0.334983 -1.92101 0
M  V30 1701 O 153.083 1.23583 -1.52 0
M  V30 1702 H 151.663 -0.412093 -0.623048 0
M  V30 1703 H 154.325 -1.59027 -1.12678 0
M  V30 1704 H 153.421 -1.64289 -2.6536 0
M  V30 1705 N 153.722 1.14298 -1.08507 0
M  V30 1706 C 155.138 1.37347 -0.812901 0
M  V30 1707 C 155.338 1.93052 0.577325 0
M  V30 1708 O 154.394 2.14389 1.33393 0
M  V30 1709 C 155.707 2.33359 -1.89642 0
M  V30 1710 C 157.255 2.46996 -1.92255 0
M  V30 1711 C 157.73 3.46309 -2.99724 0
M  V30 1712 N 159.221 3.53853 -2.98902 0
M  V30 1713 C 159.956 4.3055 -3.787 0
M  V30 1714 N 159.452 5.10482 -4.6838 0
M  V30 1715 N 161.245 4.25757 -3.66998 0
M  V30 1716 H 153.396 0.764867 -1.9815 0
M  V30 1717 H 155.659 0.398966 -0.859959 0
M  V30 1718 H 155.365 1.99565 -2.89597 0
M  V30 1719 H 155.239 3.33274 -1.76659 0
M  V30 1720 H 157.626 2.80081 -0.929445 0
M  V30 1721 H 157.707 1.47039 -2.09316 0
M  V30 1722 H 157.351 3.13957 -3.99241 0
M  V30 1723 H 157.281 4.46049 -2.79907 0
M  V30 1724 H 159.772 2.96812 -2.33904 0
M  V30 1725 H 160.085 5.66284 -5.25873 0
M  V30 1726 H 158.43 5.09747 -4.72422 0
M  V30 1727 H 161.621 3.62383 -2.96304 0
M  V30 1728 H 161.794 4.85279 -4.29427 0
M  V30 1729 O 155.239 1.00442 1.26466 0
M  V30 1730 H 155.93 0.659114 1.82141 0
M  V30 END ATOM
M  V30 BEGIN BOND
M  V30 END BOND
M  V30 END CTAB
M  END
$$$$
