drugbank_target|O14727 Apoptotic protease-activating factor 1 (DB00171)
 OpenBabel12092119293D

  0  0  0     0  0            999 V3000
M  V30 BEGIN CTAB
M  V30 COUNTS 19798 20008 0 0 0
M  V30 BEGIN ATOM
M  V30 1 H -0.908 1.98254 -0.117106 0
M  V30 2 N 0 1.576 0 0
M  V30 3 C 0.933 2.03868 1.02534 0
M  V30 4 C 1.911 0.928543 1.3348 0
M  V30 5 O 3.095 1.19667 1.45644 0
M  V30 6 C 0.222 2.43627 2.35294 0
M  V30 7 C -0.732 3.65373 2.2001 0
M  V30 8 S 0.101 5.13292 1.52614 0
M  V30 9 C 1.257 5.56322 2.86805 0
M  V30 10 H 1.49 2.90518 0.631377 0
M  V30 11 H -0.977 1.52953 0.210867 0
M  V30 12 H 0.981 2.67203 3.11629 0
M  V30 13 H -0.358 1.57376 2.7183 0
M  V30 14 H -1.165 3.90944 3.18086 0
M  V30 15 H -1.563 3.418 1.51819 0
M  V30 16 H 0.729 5.58782 3.83104 0
M  V30 17 H 1.672 6.56266 2.65933 0
M  V30 18 H 2.08 4.83886 2.90714 0
M  V30 19 N 1.4781 -0.272755 1.55222 0
M  V30 20 C 2.7551 -1.02562 1.66555 0
M  V30 21 C 3.1351 -2.04282 0.532189 0
M  V30 22 O 2.4831 -2.23662 -0.467717 0
M  V30 23 C 2.6931 -1.6822 3.05782 0
M  V30 24 C 4.0411 -2.19373 3.63539 0
M  V30 25 O 5.0651 -1.78206 3.08417 0
M  V30 26 O 3.9241 -2.94883 4.60115 0
M  V30 27 H 1.0181 -0.475755 0.676451 0
M  V30 28 H 3.5641 -0.268593 1.67561 0
M  V30 29 H 2.3361 -0.945112 3.79715 0
M  V30 30 H 1.9591 -2.50609 3.08676 0
M  V30 31 N 2.9562 -1.48159 -0.537278 0
M  V30 32 C 3.9192 -1.61665 -1.62472 0
M  V30 33 C 4.9192 -0.490395 -1.5314 0
M  V30 34 O 6.1092 -0.755998 -1.5694 0
M  V30 35 C 3.2412 -1.57997 -3.02076 0
M  V30 36 H 4.4342 -2.58621 -1.51839 0
M  V30 37 H 1.9872 -1.36647 -0.758771 0
M  V30 38 H 2.7222 -0.624913 -3.18222 0
M  V30 39 H 2.5072 -2.39755 -3.10258 0
M  V30 40 H 3.9972 -1.70627 -3.81151 0
M  V30 41 N 4.4343 0.785586 -1.36625 0
M  V30 42 C 5.3813 1.89838 -1.31264 0
M  V30 43 C 6.3513 1.65115 -0.180633 0
M  V30 44 O 7.5363 1.87222 -0.36777 0
M  V30 45 C 4.6763 3.26706 -1.11163 0
M  V30 46 C 3.7893 3.63476 -2.33472 0
M  V30 47 C 2.9243 4.89481 -2.06353 0
M  V30 48 C 1.9633 5.18941 -3.24602 0
M  V30 49 N 1.1003 6.36131 -2.97123 0
M  V30 50 H 5.9403 1.93756 -2.26413 0
M  V30 51 H 3.4773 0.947454 -1.12524 0
M  V30 52 H 5.4353 4.05639 -0.975337 0
M  V30 53 H 4.0653 3.222 -0.196674 0
M  V30 54 H 3.1173 2.79636 -2.57891 0
M  V30 55 H 4.4293 3.81193 -3.21704 0
M  V30 56 H 3.5833 5.76288 -1.89675 0
M  V30 57 H 2.3223 4.73841 -1.15437 0
M  V30 58 H 1.3273 4.30615 -3.41834 0
M  V30 59 H 2.5523 5.36498 -4.16349 0
M  V30 60 H 0.4983 6.21875 -2.08823 0
M  V30 61 H 0.4153 6.54198 -3.78894 0
M  V30 62 H 1.6833 7.2591 -2.84033 0
M  V30 63 N 5.9124 1.20967 1.01018 0
M  V30 64 C 6.8754 0.965918 2.07853 0
M  V30 65 C 7.8754 -0.0610545 1.60684 0
M  V30 66 O 9.0654 0.175681 1.73312 0
M  V30 67 C 6.1974 0.455513 3.37843 0
M  V30 68 H 7.3904 1.91365 2.3091 0
M  V30 69 H 4.9434 1.02594 1.17916 0
M  V30 70 H 5.6784 -0.497381 3.20463 0
M  V30 71 H 5.4634 1.19622 3.73407 0
M  V30 72 H 6.9534 0.304667 4.16487 0
M  V30 73 N 7.3905 -1.2043 1.01659 0
M  V30 74 C 8.8065 -1.41852 0.731442 0
M  V30 75 C 9.0065 -1.89358 -0.688898 0
M  V30 76 O 8.0625 -2.06247 -1.45666 0
M  V30 77 C 9.3755 -2.44019 1.75714 0
M  V30 78 C 10.9235 -2.57785 1.77527 0
M  V30 79 C 11.3985 -3.63194 2.79023 0
M  V30 80 N 12.8895 -3.70678 2.77763 0
M  V30 81 C 13.6245 -4.51897 3.52954 0
M  V30 82 N 13.1205 -5.36921 4.37821 0
M  V30 83 N 14.9135 -4.4643 3.41551 0
M  V30 84 H 7.0645 -0.879093 1.93354 0
M  V30 85 H 9.3275 -0.448425 0.835236 0
M  V30 86 H 9.0335 -2.1611 2.77469 0
M  V30 87 H 8.9075 -3.43007 1.56927 0
M  V30 88 H 11.2945 -2.85023 0.764569 0
M  V30 89 H 11.3755 -1.58992 2.00387 0
M  V30 90 H 11.0195 -3.36699 3.80258 0
M  V30 91 H 10.9495 -4.61609 2.53425 0
M  V30 92 H 13.4405 -3.09944 2.16201 0
M  V30 93 H 13.7535 -5.95981 4.91962 0
M  V30 94 H 12.0985 -5.36424 4.41899 0
M  V30 95 H 15.2895 -3.79042 2.74672 0
M  V30 96 H 15.4625 -5.09491 4.00404 0
M  V30 97 N 8.8686 -0.792821 -1.36206 0
M  V30 98 C 9.8166 -0.181555 -2.3189 0
M  V30 99 C 10.8106 0.661025 -1.55971 0
M  V30 100 O 12.0166 0.555728 -1.71206 0
M  V30 101 H 8.3916 -0.0399382 -0.750939 0
M  V30 102 H 10.3626 -1.00394 -2.81005 0
M  V30 103 C 9.1116 0.666444 -3.41253 0
M  V30 104 H 8.4346 0.0274489 -3.99791 0
M  V30 105 H 9.8746 1.06076 -4.10517 0
M  V30 106 C 8.3336 1.82614 -2.83114 0
M  V30 107 O 8.8636 2.9229 -2.75553 0
M  V30 108 N 7.0696 1.63333 -2.40356 0
M  V30 109 H 6.6166 0.741217 -2.46706 0
M  V30 110 H 6.5746 2.41087 -2.01803 0
M  V30 111 N 10.3467 1.47872 -0.545128 0
M  V30 112 C 11.5867 2.04391 -0.0187854 0
M  V30 113 C 11.9507 1.41162 1.30144 0
M  V30 114 O 13.1517 1.88656 1.91474 0
M  V30 115 C 11.4227 3.57299 0.0850867 0
M  V30 116 S 12.9817 4.35221 0.559302 0
M  V30 117 H 9.7997 0.710737 -0.0193301 0
M  V30 118 H 12.4017 1.81395 -0.729125 0
M  V30 119 H 11.1057 4.00847 -0.880351 0
M  V30 120 H 10.6367 3.84773 0.819348 0
M  V30 121 H 12.6517 4.61571 1.82118 0
M  V30 122 N 11.8248 0.280983 1.55075 0
M  V30 123 C 12.7548 -0.597469 2.25727 0
M  V30 124 C 13.7358 -1.15417 1.24952 0
M  V30 125 O 14.9208 -1.18722 1.53684 0
M  V30 126 C 12.0508 -1.7789 2.98283 0
M  V30 127 C 11.0048 -1.35347 4.06036 0
M  V30 128 C 10.3308 -2.61846 4.66198 0
M  V30 129 C 11.6308 -0.499354 5.19907 0
M  V30 130 H 13.3248 -0.00824265 2.99399 0
M  V30 131 H 10.8708 -0.0025244 1.44 0
M  V30 132 H 12.8238 -2.39937 3.46422 0
M  V30 133 H 11.5478 -2.39405 2.22155 0
M  V30 134 H 10.2068 -0.756156 3.58717 0
M  V30 135 H 9.8548 -3.21632 3.86732 0
M  V30 136 H 9.5548 -2.3409 5.38958 0
M  V30 137 H 11.0788 -3.24732 5.1709 0
M  V30 138 H 12.4928 -1.02498 5.64063 0
M  V30 139 H 10.8898 -0.316424 5.99265 0
M  V30 140 H 11.9598 0.480459 4.82514 0
M  V30 141 N 13.3029 -1.57598 0.00835791 0
M  V30 142 C 14.2329 -2.1198 -0.979113 0
M  V30 143 C 15.2139 -1.03091 -1.35301 0
M  V30 144 O 16.3989 -1.30818 -1.43528 0
M  V30 145 C 13.5289 -2.62995 -2.26828 0
M  V30 146 C 12.4829 -3.76485 -2.03576 0
M  V30 147 C 11.8089 -4.13846 -3.38579 0
M  V30 148 C 13.1089 -5.0342 -1.39161 0
M  V30 149 H 14.8029 -2.94738 -0.526281 0
M  V30 150 H 12.3489 -1.41783 -0.251704 0
M  V30 151 H 14.3019 -2.99669 -2.96271 0
M  V30 152 H 13.0259 -1.7737 -2.7424 0
M  V30 153 H 11.6849 -3.40217 -1.36557 0
M  V30 154 H 11.3329 -3.25232 -3.83709 0
M  V30 155 H 11.0329 -4.90312 -3.23834 0
M  V30 156 H 12.5569 -4.53086 -4.09323 0
M  V30 157 H 13.9709 -5.37812 -1.98573 0
M  V30 158 H 12.3679 -5.84746 -1.34878 0
M  V30 159 H 13.4379 -4.83548 -0.361868 0
M  V30 160 N 14.781 0.264519 -1.55364 0
M  V30 161 C 15.713 1.34965 -1.85248 0
M  V30 162 C 16.726 1.45136 -0.737525 0
M  V30 163 O 17.915 1.46801 -1.01547 0
M  V30 164 C 15.015 2.73008 -2.00797 0
M  V30 165 C 14.188 2.85324 -3.31525 0
M  V30 166 C 13.247 4.04097 -3.37034 0
M  V30 167 O 12.273 3.94455 -4.10358 0
M  V30 168 N 13.475 5.16458 -2.65049 0
M  V30 169 H 16.24 1.09672 -2.78913 0
M  V30 170 H 13.801 0.454635 -1.55386 0
M  V30 171 H 15.793 3.50772 -2.01844 0
M  V30 172 H 14.363 2.91087 -1.1396 0
M  V30 173 H 13.583 1.94377 -3.42945 0
M  V30 174 H 14.871 2.9049 -4.17724 0
M  V30 175 H 14.269 5.27181 -2.05175 0
M  V30 176 H 12.826 5.92422 -2.71809 0
M  V30 177 N 16.2591 1.48442 0.529413 0
M  V30 178 C 17.2091 1.59407 1.63014 0
M  V30 179 C 18.1931 0.451166 1.54445 0
M  V30 180 O 19.3851 0.702635 1.62456 0
M  V30 181 C 16.5141 1.63746 3.01732 0
M  V30 182 C 15.6001 2.83518 3.15402 0
M  V30 183 N 15.9911 4.07929 2.99045 0
M  V30 184 C 14.2891 2.80862 3.46457 0
M  V30 185 C 14.9901 4.8829 3.16146 0
M  V30 186 N 13.9661 4.21117 3.43746 0
M  V30 187 H 17.7681 2.53343 1.48978 0
M  V30 188 H 15.2821 1.44821 0.734885 0
M  V30 189 H 17.2791 1.69695 3.80801 0
M  V30 190 H 15.9391 0.709264 3.16859 0
M  V30 191 H 16.9501 4.38357 2.75796 0
M  V30 192 H 13.6271 1.97301 3.67938 0
M  V30 193 H 15.0171 5.97028 3.08232 0
M  V30 194 N 17.7372 -0.778329 1.37039 0
M  V30 195 C 19.1532 -1.07796 1.17695 0
M  V30 196 C 19.3532 -2.01498 0.00860115 0
M  V30 197 O 18.4092 -2.43901 -0.653352 0
M  V30 198 C 19.7222 -1.68178 2.49272 0
M  V30 199 C 21.2702 -1.80467 2.55735 0
M  V30 200 C 21.7452 -2.44263 3.87427 0
M  V30 201 N 23.2362 -2.51721 3.88833 0
M  V30 202 C 23.9712 -3.01919 4.87476 0
M  V30 203 N 23.4672 -3.5234 5.96513 0
M  V30 204 N 25.2602 -3.00733 4.74885 0
M  V30 205 H 17.4112 -0.156032 2.11826 0
M  V30 206 H 19.6742 -0.131844 0.938787 0
M  V30 207 H 19.3802 -1.06796 3.35093 0
M  V30 208 H 19.2542 -2.67554 2.65885 0
M  V30 209 H 21.6412 -2.40984 1.70325 0
M  V30 210 H 21.7222 -0.798656 2.43013 0
M  V30 211 H 21.3662 -1.84388 4.73248 0
M  V30 212 H 21.2962 -3.45458 3.9745 0
M  V30 213 H 23.7872 -2.1603 3.10063 0
M  V30 214 H 24.1002 -3.89027 6.67741 0
M  V30 215 H 22.4452 -3.50462 6.00168 0
M  V30 216 H 25.6362 -2.60638 3.88826 0
M  V30 217 H 25.8092 -3.39545 5.51918 0
M  V30 218 N 19.2153 -1.21501 -1.00376 0
M  V30 219 C 20.1253 -0.991447 -2.12621 0
M  V30 220 C 21.1413 0.0568446 -1.73907 0
M  V30 221 O 22.3173 -0.13348 -2.00957 0
M  V30 222 C 19.3823 -0.560312 -3.42142 0
M  V30 223 C 18.4433 -1.68096 -3.95022 0
M  V30 224 C 17.6763 -1.2703 -5.18362 0
M  V30 225 O 17.8993 -0.144438 -5.70217 0
M  V30 226 O 16.8333 -2.08269 -5.64719 0
M  V30 227 H 20.6593 -1.93158 -2.34358 0
M  V30 228 H 18.2443 -0.999999 -1.10997 0
M  V30 229 H 20.1263 -0.329724 -4.20108 0
M  V30 230 H 18.8013 0.351089 -3.2179 0
M  V30 231 H 17.7083 -1.96597 -3.18278 0
M  V30 232 H 19.0413 -2.56983 -4.19786 0
M  V30 233 N 20.6934 1.19889 -1.02296 0
M  V30 234 C 21.6564 2.21116 -0.603351 0
M  V30 235 C 22.6564 1.5738 0.329884 0
M  V30 236 O 23.8464 1.73802 0.117702 0
M  V30 237 C 20.9784 3.40696 0.117992 0
M  V30 238 H 22.1714 2.59754 -1.49893 0
M  V30 239 H 19.7244 1.33463 -0.813468 0
M  V30 240 H 20.4594 3.07569 1.0282 0
M  V30 241 H 20.2444 3.88188 -0.552511 0
M  V30 242 H 21.7344 4.15692 0.398696 0
M  V30 243 N 22.1715 0.800033 1.35784 0
M  V30 244 C 23.1015 0.220184 2.3246 0
M  V30 245 C 24.0825 -0.65073 1.57161 0
M  V30 246 O 25.2675 -0.582359 1.85263 0
M  V30 247 C 22.3975 -0.637353 3.41402 0
M  V30 248 C 21.3515 0.134531 4.27789 0
M  V30 249 C 20.6775 -0.844285 5.27992 0
M  V30 250 C 21.9775 1.32979 5.05088 0
M  V30 251 H 23.6715 1.02787 2.81203 0
M  V30 252 H 21.2175 0.495717 1.35199 0
M  V30 253 H 23.1705 -1.05302 4.08031 0
M  V30 254 H 21.8945 -1.47785 2.91251 0
M  V30 255 H 20.5535 0.531296 3.6273 0
M  V30 256 H 20.2015 -1.68011 4.74111 0
M  V30 257 H 19.9015 -0.332184 5.8666 0
M  V30 258 H 21.4255 -1.2583 5.97494 0
M  V30 259 H 22.8395 0.98934 5.64699 0
M  V30 260 H 21.2365 1.77593 5.7322 0
M  V30 261 H 22.3065 2.11978 4.36111 0
M  V30 262 N 23.6496 -1.47581 0.552962 0
M  V30 263 C 24.5596 -2.33743 -0.200353 0
M  V30 264 C 25.5756 -1.47928 -0.916151 0
M  V30 265 O 26.7516 -1.80865 -0.885993 0
M  V30 266 C 23.8166 -3.24536 -1.21973 0
M  V30 267 C 22.8776 -4.26238 -0.511819 0
M  V30 268 C 22.1106 -5.12693 -1.48263 0
M  V30 269 O 22.3336 -5.01525 -2.71714 0
M  V30 270 O 21.2676 -5.93375 -1.00945 0
M  V30 271 H 25.0936 -2.9945 0.506304 0
M  V30 272 H 22.6786 -1.46071 0.313622 0
M  V30 273 H 24.5606 -3.80631 -1.80827 0
M  V30 274 H 23.2356 -2.61462 -1.90839 0
M  V30 275 H 22.1426 -3.73914 0.117799 0
M  V30 276 H 23.4756 -4.92014 0.135308 0
M  V30 277 N 25.1277 -0.289203 -1.54924 0
M  V30 278 C 26.0747 0.592115 -2.23075 0
M  V30 279 C 27.0447 1.13881 -1.20915 0
M  V30 280 O 28.2297 1.18551 -1.495 0
M  V30 281 C 25.3697 1.76376 -2.96623 0
M  V30 282 C 24.4827 1.24959 -4.13533 0
M  V30 283 C 23.6177 2.38416 -4.74691 0
M  V30 284 C 22.6567 1.84072 -5.83767 0
M  V30 285 N 21.7937 2.91057 -6.38929 0
M  V30 286 H 26.6337 0.00432038 -2.98 0
M  V30 287 H 24.1707 -0.00963529 -1.47097 0
M  V30 288 H 26.1287 2.45268 -3.3749 0
M  V30 289 H 24.7587 2.32337 -2.24097 0
M  V30 290 H 23.8107 0.453307 -3.77689 0
M  V30 291 H 25.1227 0.811662 -4.92152 0
M  V30 292 H 24.2767 3.15276 -5.18349 0
M  V30 293 H 23.0157 2.8553 -3.95378 0
M  V30 294 H 22.0207 1.05697 -5.39545 0
M  V30 295 H 23.2457 1.37877 -6.64956 0
M  V30 296 H 21.1917 3.37526 -5.62505 0
M  V30 297 H 21.1087 2.51724 -7.12861 0
M  V30 298 H 22.3767 3.6785 -6.87246 0
M  V30 299 N 26.6058 1.57591 -0.0167156 0
M  V30 300 C 27.8828 1.82547 0.702564 0
M  V30 301 C 28.2628 0.898018 1.91047 0
M  V30 302 O 27.6108 -0.0493456 2.28447 0
M  V30 303 C 27.8208 3.31459 1.09251 0
M  V30 304 C 29.1688 3.97622 1.48937 0
M  V30 305 O 30.1928 3.35881 1.18584 0
M  V30 306 O 29.0518 5.06415 2.05442 0
M  V30 307 H 26.1458 0.752268 0.343544 0
M  V30 308 H 28.6918 1.69644 -0.0434495 0
M  V30 309 H 27.4638 3.9061 0.23227 0
M  V30 310 H 27.0868 3.49422 1.89709 0
M  V30 311 N 28.0839 -0.256276 1.55502 0
M  V30 312 C 29.3329 -0.983486 1.76098 0
M  V30 313 C 29.6459 -1.86837 0.578896 0
M  V30 314 O 30.8519 -2.63163 0.667648 0
M  V30 315 C 29.3079 -1.79868 3.1173 0
M  V30 316 C 28.9159 -0.961648 4.37557 0
M  V30 317 C 30.6599 -2.51919 3.41668 0
M  V30 318 C 28.5669 -1.77219 5.64223 0
M  V30 319 H 27.4969 -0.370936 0.656447 0
M  V30 320 H 30.1479 -0.238492 1.81944 0
M  V30 321 H 28.5299 -2.58527 2.99966 0
M  V30 322 H 29.7039 -0.218048 4.60284 0
M  V30 323 H 28.0189 -0.354913 4.14885 0
M  V30 324 H 30.6159 -3.12998 4.33516 0
M  V30 325 H 30.9589 -3.23059 2.62562 0
M  V30 326 H 31.4919 -1.80278 3.54605 0
M  V30 327 H 28.2309 -1.10471 6.46124 0
M  V30 328 H 27.7509 -2.49132 5.45613 0
M  V30 329 H 29.4299 -2.34169 6.03137 0
M  V30 330 N 29.562 -1.4872 -0.521534 0
M  V30 331 C 30.509 -1.63871 -1.62527 0
M  V30 332 C 31.479 -0.480559 -1.58996 0
M  V30 333 O 32.664 -0.705085 -1.77294 0
M  V30 334 C 29.804 -1.69227 -3.00759 0
M  V30 335 C 28.917 -2.96207 -3.14461 0
M  V30 336 C 28.052 -2.92671 -4.43303 0
M  V30 337 C 27.091 -4.14318 -4.50563 0
M  V30 338 N 26.228 -4.0881 -5.70805 0
M  V30 339 H 31.068 -2.58123 -1.48918 0
M  V30 340 H 28.605 -1.28 -0.724878 0
M  V30 341 H 30.563 -1.70314 -3.80853 0
M  V30 342 H 29.193 -0.784586 -3.1312 0
M  V30 343 H 28.245 -3.04826 -2.27564 0
M  V30 344 H 29.557 -3.86192 -3.15686 0
M  V30 345 H 28.711 -2.92206 -5.31696 0
M  V30 346 H 27.45 -2.00429 -4.44612 0
M  V30 347 H 26.455 -4.15049 -3.60575 0
M  V30 348 H 27.68 -5.07729 -4.50986 0
M  V30 349 H 25.626 -3.19394 -5.72995 0
M  V30 350 H 25.543 -4.92509 -5.7356 0
M  V30 351 H 26.811 -4.12418 -6.61462 0
M  V30 352 N 31.0401 0.771051 -1.3745 0
M  V30 353 C 32.2681 1.56015 -1.35893 0
M  V30 354 C 32.6831 1.88718 0.0555523 0
M  V30 355 O 32.0401 1.51502 1.01752 0
M  V30 356 C 32.0911 2.87001 -2.19801 0
M  V30 357 O 31.8121 2.557 -3.55738 0
M  V30 358 C 33.3131 3.81228 -2.26231 0
M  V30 359 H 30.5331 0.483317 -0.465453 0
M  V30 360 H 33.0771 0.955611 -1.80799 0
M  V30 361 H 31.2321 3.43877 -1.78402 0
M  V30 362 H 31.6461 3.39584 -3.99729 0
M  V30 363 H 33.1201 4.70139 -2.89263 0
M  V30 364 H 33.5971 4.20409 -1.27093 0
M  V30 365 H 34.2031 3.30281 -2.67945 0
M  V30 366 N 32.5182 1.22032 0.997298 0
M  V30 367 C 33.7432 1.06921 1.77715 0
M  V30 368 C 34.1682 -0.376226 1.84299 0
M  V30 369 O 33.5262 -1.27165 1.29223 0
M  V30 370 C 33.5742 1.67996 3.19076 0
M  V30 371 O 32.6782 0.930653 4.01762 0
M  V30 372 H 32.0192 0.375814 0.547412 0
M  V30 373 H 34.5492 1.61737 1.25309 0
M  V30 374 H 34.5592 1.72538 3.69723 0
M  V30 375 H 33.2342 2.73182 3.13599 0
M  V30 376 H 31.8112 0.960917 3.60307 0
M  V30 377 N 33.9963 -1.19345 1.0293 0
M  V30 378 C 35.2263 -1.92717 0.744563 0
M  V30 379 C 35.6343 -1.75751 -0.700579 0
M  V30 380 O 34.9773 -1.07703 -1.48815 0
M  V30 381 C 35.0393 -3.44828 1.01657 0
M  V30 382 C 34.7033 -3.85564 2.45335 0
M  V30 383 C 35.7003 -3.90286 3.43472 0
M  V30 384 C 33.3853 -4.1719 2.79746 0
M  V30 385 C 35.3793 -4.26065 4.74075 0
M  V30 386 C 33.0663 -4.52642 4.10559 0
M  V30 387 C 34.0643 -4.57054 5.07534 0
M  V30 388 O 33.7523 -4.91685 6.36004 0
M  V30 389 H 33.4843 -0.618977 0.271742 0
M  V30 390 H 36.0383 -1.52415 1.37691 0
M  V30 391 H 34.2683 -3.85314 0.327084 0
M  V30 392 H 35.9573 -3.99437 0.721427 0
M  V30 393 H 36.7233 -3.66002 3.18225 0
M  V30 394 H 32.6023 -4.1294 2.04943 0
M  V30 395 H 36.1463 -4.29423 5.49765 0
M  V30 396 H 32.0433 -4.76383 4.35579 0
M  V30 397 H 32.8113 -5.09631 6.40483 0
M  V30 398 N 35.4744 -0.807222 -1.35358 0
M  V30 399 C 36.7234 -0.384376 -1.98004 0
M  V30 400 C 37.0364 1.0543 -1.64754 0
M  V30 401 O 38.2424 1.58029 -2.20769 0
M  V30 402 C 36.6984 -0.636326 -3.5423 0
M  V30 403 C 36.3064 -2.08759 -3.96388 0
M  V30 404 C 38.0504 -0.278869 -4.23583 0
M  V30 405 C 35.9574 -2.28525 -5.45463 0
M  V30 406 H 34.8874 -0.139986 -0.740891 0
M  V30 407 H 37.5384 -0.991369 -1.54415 0
M  V30 408 H 35.9204 0.0406256 -3.95979 0
M  V30 409 H 37.0944 -2.8024 -3.6579 0
M  V30 410 H 35.4094 -2.40497 -3.39926 0
M  V30 411 H 38.0064 -0.404599 -5.33167 0
M  V30 412 H 38.3494 0.775012 -4.09022 0
M  V30 413 H 38.8824 -0.909764 -3.87257 0
M  V30 414 H 35.6214 -3.32361 -5.64992 0
M  V30 415 H 35.1414 -1.61569 -5.77629 0
M  V30 416 H 36.8204 -2.10109 -6.11934 0
M  V30 417 N 36.9525 1.47285 -0.560781 0
M  V30 418 C 37.8855 2.27009 0.232821 0
M  V30 419 C 38.8635 1.34273 0.917039 0
M  V30 420 O 40.0475 1.63659 0.935315 0
M  V30 421 C 37.1745 3.11406 1.33206 0
M  V30 422 C 36.2205 4.19746 0.756019 0
M  V30 423 S 37.0535 5.34003 -0.400165 0
M  V30 424 C 38.2095 6.21964 0.700805 0
M  V30 425 H 38.4425 2.93971 -0.443683 0
M  V30 426 H 35.9755 1.50446 -0.347181 0
M  V30 427 H 37.9335 3.60601 1.96156 0
M  V30 428 H 36.5945 2.438 1.98041 0
M  V30 429 H 35.7875 4.78541 1.5816 0
M  V30 430 H 35.3895 3.73451 0.202619 0
M  V30 431 H 37.6815 6.58529 1.59202 0
M  V30 432 H 38.6245 7.07941 0.150126 0
M  V30 433 H 39.0325 5.5566 0.995083 0
M  V30 434 N 38.4306 0.297415 1.54768 0
M  V30 435 C 39.7076 -0.365847 1.92148 0
M  V30 436 C 40.0876 -1.71975 1.22424 0
M  V30 437 O 39.4356 -2.25666 0.358739 0
M  V30 438 C 39.6456 -0.484056 3.45627 0
M  V30 439 C 40.9936 -0.756594 4.17805 0
M  V30 440 O 42.0176 -0.568007 3.51642 0
M  V30 441 O 40.8766 -1.11863 5.34929 0
M  V30 442 H 37.9706 -0.203919 0.801465 0
M  V30 443 H 40.5166 0.34521 1.66152 0
M  V30 444 H 39.2886 0.467865 3.88493 0
M  V30 445 H 38.9116 -1.24372 3.77647 0
M  V30 446 N 39.9087 -1.5758 0.0250728 0
M  V30 447 C 40.8587 -2.06468 -0.967201 0
M  V30 448 C 41.8427 -0.964376 -1.28797 0
M  V30 449 O 43.0347 -1.22797 -1.27475 0
M  V30 450 C 40.1637 -2.59203 -2.25097 0
M  V30 451 C 39.2497 -3.76157 -1.95874 0
M  V30 452 N 39.6407 -4.86919 -1.36905 0
M  V30 453 C 37.9387 -3.84566 -2.25887 0
M  V30 454 C 38.6397 -5.68172 -1.24724 0
M  V30 455 N 37.6157 -5.14953 -1.74138 0
M  V30 456 H 41.4177 -2.89508 -0.506176 0
M  V30 457 H 38.9317 -1.61399 -0.18004 0
M  V30 458 H 40.9287 -2.92517 -2.97052 0
M  V30 459 H 39.5887 -1.77592 -2.71829 0
M  V30 460 H 40.5997 -5.07256 -1.04459 0
M  V30 461 H 37.2767 -3.13854 -2.75321 0
M  V30 462 H 38.6667 -6.67221 -0.791605 0
M  V30 463 N 41.3868 0.248026 -1.55636 0
M  V30 464 C 42.3198 1.3334 -1.85191 0
M  V30 465 C 43.2978 1.46429 -0.706906 0
M  V30 466 O 44.4818 1.62662 -0.952544 0
M  V30 467 C 41.6088 2.70703 -2.03562 0
M  V30 468 C 40.6548 2.7477 -3.26196 0
M  V30 469 S 41.4878 2.31493 -4.82878 0
M  V30 470 C 42.6438 3.70783 -5.04253 0
M  V30 471 H 42.8768 1.08072 -2.76962 0
M  V30 472 H 40.4098 0.448952 -1.47729 0
M  V30 473 H 42.3678 3.49798 -2.1483 0
M  V30 474 H 41.0288 2.9321 -1.12635 0
M  V30 475 H 40.2218 3.75648 -3.36013 0
M  V30 476 H 39.8238 2.03719 -3.13647 0
M  V30 477 H 42.1158 4.6627 -4.91527 0
M  V30 478 H 43.0588 3.65901 -6.06236 0
M  V30 479 H 43.4668 3.63244 -4.32105 0
M  V30 480 N 42.8649 1.48995 0.513639 0
M  V30 481 C 44.1139 1.57093 1.2651 0
M  V30 482 C 44.4269 0.257091 1.93903 0
M  V30 483 O 45.6329 0.216478 2.70636 0
M  V30 484 C 44.0889 2.77118 2.29638 0
M  V30 485 C 43.6969 4.15209 1.68241 0
M  V30 486 C 45.4409 2.94538 3.05692 0
M  V30 487 C 43.3479 5.26474 2.69406 0
M  V30 488 H 42.2779 0.584876 0.475854 0
M  V30 489 H 44.9289 1.7536 0.540487 0
M  V30 490 H 43.3109 2.52319 3.05207 0
M  V30 491 H 44.4849 4.50094 0.987505 0
M  V30 492 H 42.7999 4.03042 1.04623 0
M  V30 493 H 45.3969 3.74832 3.8132 0
M  V30 494 H 45.7399 2.04614 3.62545 0
M  V30 495 H 46.2729 3.19316 2.37238 0
M  V30 496 H 43.0119 6.18417 2.17351 0
M  V30 497 H 42.5319 4.96058 3.37175 0
M  V30 498 H 44.2109 5.55277 3.32078 0
M  V30 499 N 44.343 -0.763751 1.37857 0
M  V30 500 C 45.568 -1.55805 1.36893 0
M  V30 501 C 45.993 -1.88054 -0.0416135 0
M  V30 502 O 45.351 -1.49825 -1.02089 0
M  V30 503 C 45.399 -2.84012 2.22192 0
M  V30 504 O 44.503 -3.78732 1.63204 0
M  V30 505 H 43.844 -0.471638 0.46739 0
M  V30 506 H 46.374 -0.944657 1.81487 0
M  V30 507 H 46.384 -3.33037 2.35691 0
M  V30 508 H 45.059 -2.59869 3.24716 0
M  V30 509 H 43.636 -3.37402 1.58791 0
M  V30 510 N 45.8211 -1.22559 -0.990812 0
M  V30 511 C 47.0981 -0.959875 -1.70428 0
M  V30 512 C 47.4781 0.524455 -2.04481 0
M  V30 513 O 46.8261 1.49302 -1.72977 0
M  V30 514 C 47.0361 -1.85955 -2.95333 0
M  V30 515 C 48.3841 -2.11687 -3.68068 0
M  V30 516 O 49.4081 -1.8342 -3.05345 0
M  V30 517 O 48.2671 -2.59572 -4.80921 0
M  V30 518 H 45.3611 -0.361154 -0.743974 0
M  V30 519 H 47.9071 -1.33554 -1.04697 0
M  V30 520 H 46.6791 -2.86346 -2.66687 0
M  V30 521 H 46.3021 -1.4856 -3.68803 0
M  V30 522 N 47.2992 1.18797 -1.03562 0
M  V30 523 C 48.5472 1.88278 -0.734569 0
M  V30 524 C 48.8682 1.8043 0.739586 0
M  V30 525 O 48.1382 1.21925 1.53333 0
M  V30 526 H 46.7182 0.696991 -0.268725 0
M  V30 527 H 49.3802 1.44192 -1.31129 0
M  V30 528 H 48.4762 2.94443 -1.03489 0
M  V30 529 N 48.7773 0.814389 1.34928 0
M  V30 530 C 50.0243 0.398423 1.98542 0
M  V30 531 C 50.3523 -1.03638 1.64589 0
M  V30 532 O 49.6073 -1.73509 0.90516 0
M  V30 533 C 49.9063 0.537781 3.53331 0
M  V30 534 C 49.5723 1.93704 4.07172 0
M  V30 535 C 48.2343 2.31984 4.21589 0
M  V30 536 C 50.5863 2.85213 4.36237 0
M  V30 537 C 47.9143 3.61125 4.62391 0
M  V30 538 C 50.2663 4.13809 4.78482 0
M  V30 539 C 48.9303 4.52077 4.91104 0
M  V30 540 H 48.2003 0.145793 0.726516 0
M  V30 541 H 50.8473 1.03669 1.61012 0
M  V30 542 H 49.1523 -0.183906 3.91368 0
M  V30 543 H 50.8493 0.196588 4.00518 0
M  V30 544 H 47.4393 1.62966 3.96409 0
M  V30 545 H 51.6233 2.56885 4.24645 0
M  V30 546 H 46.8793 3.90612 4.70353 0
M  V30 547 H 51.0533 4.84811 4.99932 0
M  V30 548 H 48.6803 5.52196 5.22478 0
M  V30 549 N 50.2554 -1.46986 0.568584 0
M  V30 550 C 51.1854 -2.32946 -0.160753 0
M  V30 551 C 52.1664 -1.44487 -0.897631 0
M  V30 552 O 53.3514 -1.73327 -0.875867 0
M  V30 553 C 50.4814 -3.26494 -1.18403 0
M  V30 554 C 49.4354 -4.24282 -0.562895 0
M  V30 555 C 48.7614 -5.07236 -1.69163 0
M  V30 556 C 50.0614 -5.19989 0.490761 0
M  V30 557 H 51.7554 -2.94175 0.556916 0
M  V30 558 H 49.3014 -1.4146 0.26927 0
M  V30 559 H 51.2544 -3.85477 -1.70251 0
M  V30 560 H 49.9784 -2.63343 -1.93179 0
M  V30 561 H 48.6374 -3.66541 -0.0656164 0
M  V30 562 H 48.2854 -4.4048 -2.42871 0
M  V30 563 H 47.9854 -5.7345 -1.28174 0
M  V30 564 H 49.5094 -5.6908 -2.21314 0
M  V30 565 H 50.9234 -5.73271 0.0579047 0
M  V30 566 H 49.3204 -5.94469 0.820165 0
M  V30 567 H 50.3904 -4.64777 1.3824 0
M  V30 568 N 51.7335 -0.305618 -1.54608 0
M  V30 569 C 52.9615 0.304775 -2.04643 0
M  V30 570 C 53.3765 1.47167 -1.18268 0
M  V30 571 O 52.7335 1.81296 -0.209328 0
M  V30 572 C 52.7845 0.756564 -3.53495 0
M  V30 573 O 52.5055 -0.36389 -4.36586 0
M  V30 574 C 54.0065 1.43163 -4.19546 0
M  V30 575 H 51.2265 0.0655481 -0.667791 0
M  V30 576 H 53.7705 -0.446592 -1.99564 0
M  V30 577 H 51.9255 1.45794 -3.58919 0
M  V30 578 H 52.3395 -0.0113121 -5.24499 0
M  V30 579 H 53.8135 1.69886 -5.25207 0
M  V30 580 H 54.2905 2.37318 -3.69563 0
M  V30 581 H 54.8965 0.773307 -4.18211 0
M  V30 582 N 53.2116 1.57565 -0.0334293 0
M  V30 583 C 54.4606 1.91155 0.643639 0
M  V30 584 C 54.7736 0.91192 1.73042 0
M  V30 585 O 55.9796 1.13923 2.46442 0
M  V30 586 C 54.4356 3.39443 1.1961 0
M  V30 587 C 54.0436 4.47774 0.142381 0
M  V30 588 C 55.7876 3.82094 1.84944 0
M  V30 589 C 53.6946 5.87162 0.706727 0
M  V30 590 H 52.6246 0.713368 0.244176 0
M  V30 591 H 55.2756 1.8323 -0.0994323 0
M  V30 592 H 53.6576 3.42313 1.99092 0
M  V30 593 H 54.8316 4.56469 -0.630296 0
M  V30 594 H 53.1466 4.14352 -0.412446 0
M  V30 595 H 55.7436 4.83591 2.2813 0
M  V30 596 H 56.0866 3.17386 2.69392 0
M  V30 597 H 56.6196 3.81665 1.12145 0
M  V30 598 H 53.3586 6.55424 -0.0997178 0
M  V30 599 H 52.8786 5.82064 1.44779 0
M  V30 600 H 54.5576 6.35866 1.19514 0
M  V30 601 N 54.6897 -0.239769 1.55765 0
M  V30 602 C 55.9147 -0.988373 1.82335 0
M  V30 603 C 56.3397 -1.77886 0.611421 0
M  V30 604 O 55.6977 -1.75889 -0.439639 0
M  V30 605 C 55.7457 -1.89627 3.06715 0
M  V30 606 O 54.8497 -2.98904 2.84131 0
M  V30 607 H 54.1907 -0.280858 0.601677 0
M  V30 608 H 56.7207 -0.258597 2.02959 0
M  V30 609 H 56.7307 -2.30957 3.36338 0
M  V30 610 H 55.4057 -1.31511 3.9456 0
M  V30 611 H 53.9827 -2.61651 2.65694 0
M  V30 612 N 56.1678 -1.49265 -0.50573 0
M  V30 613 C 57.0778 -1.68312 -1.63427 0
M  V30 614 C 58.0938 -0.565682 -1.64548 0
M  V30 615 O 59.2698 -0.839801 -1.83055 0
M  V30 616 C 56.3348 -1.74107 -2.99813 0
M  V30 617 C 55.3958 -2.97653 -3.09356 0
M  V30 618 C 54.6288 -3.03163 -4.39236 0
M  V30 619 O 54.8518 -2.16396 -5.27758 0
M  V30 620 O 53.7858 -3.9558 -4.53652 0
M  V30 621 H 57.6118 -2.63907 -1.50289 0
M  V30 622 H 55.1968 -1.32951 -0.681502 0
M  V30 623 H 57.0788 -1.803 -3.80881 0
M  V30 624 H 55.7538 -0.816901 -3.13223 0
M  V30 625 H 54.6608 -2.96981 -2.27493 0
M  V30 626 H 55.9938 -3.89535 -3.00871 0
M  V30 627 N 57.6459 0.756429 -1.3826 0
M  V30 628 C 58.5559 1.9009 -1.37488 0
M  V30 629 C 59.5719 1.71855 -0.272366 0
M  V30 630 O 60.7479 1.94827 -0.510318 0
M  V30 631 C 57.8129 3.25421 -1.19592 0
M  V30 632 C 56.8739 3.56202 -2.39622 0
M  V30 633 C 56.1069 4.85075 -2.2257 0
M  V30 634 O 56.3299 5.57246 -1.21793 0
M  V30 635 O 55.2639 5.15269 -3.11098 0
M  V30 636 H 59.0899 1.93695 -2.33914 0
M  V30 637 H 56.6749 0.901313 -1.1915 0
M  V30 638 H 58.5569 4.06337 -1.11661 0
M  V30 639 H 57.2319 3.22634 -0.262486 0
M  V30 640 H 56.1389 2.75458 -2.53128 0
M  V30 641 H 57.4719 3.63747 -3.31586 0
M  V30 642 N 59.124 1.23083 0.984299 0
M  V30 643 C 60.034 1.02515 2.11016 0
M  V30 644 C 61.05 -0.0291702 1.73976 0
M  V30 645 O 62.226 0.165434 2.00719 0
M  V30 646 C 59.291 0.614673 3.41208 0
M  V30 647 C 58.352 1.74359 3.92297 0
M  V30 648 C 57.585 1.35261 5.16275 0
M  V30 649 O 57.808 0.235136 5.69915 0
M  V30 650 O 56.742 2.17227 5.61334 0
M  V30 651 H 60.568 1.96862 2.31255 0
M  V30 652 H 58.153 1.01753 1.09392 0
M  V30 653 H 60.035 0.396518 4.1953 0
M  V30 654 H 58.71 -0.299851 3.22308 0
M  V30 655 H 57.617 2.01635 3.1511 0
M  V30 656 H 58.95 2.63629 4.15645 0
M  V30 657 N 60.6021 -1.18246 1.0419 0
M  V30 658 C 61.5491 -2.2192 0.634037 0
M  V30 659 C 62.5191 -1.62179 -0.358765 0
M  V30 660 O 63.7041 -1.89122 -0.252466 0
M  V30 661 C 60.8441 -3.451 0.00445535 0
M  V30 662 C 59.9571 -4.19174 1.04487 0
M  V30 663 C 59.0921 -5.29813 0.383676 0
M  V30 664 C 58.1311 -5.9566 1.4091 0
M  V30 665 N 57.2681 -6.97834 0.772784 0
M  V30 666 H 62.1081 -2.56164 1.52263 0
M  V30 667 H 59.6451 -1.25843 0.761701 0
M  V30 668 H 61.6031 -4.15485 -0.377919 0
M  V30 669 H 60.2331 -3.11472 -0.847652 0
M  V30 670 H 59.2851 -3.47604 1.54518 0
M  V30 671 H 60.5971 -4.64267 1.82368 0
M  V30 672 H 59.7511 -6.06677 -0.0528366 0
M  V30 673 H 58.4901 -4.85825 -0.427208 0
M  V30 674 H 57.4951 -5.17535 1.85574 0
M  V30 675 H 58.7201 -6.4173 2.22171 0
M  V30 676 H 56.6661 -6.55998 -0.0177708 0
M  V30 677 H 56.5831 -7.41186 1.48928 0
M  V30 678 H 57.8511 -7.78665 0.36071 0
M  V30 679 N 62.0802 -0.821533 -1.34494 0
M  V30 680 C 63.3262 -0.409552 -1.98622 0
M  V30 681 C 63.6592 1.0244 -1.64984 0
M  V30 682 O 62.9342 1.71325 -0.920758 0
M  V30 683 C 63.2172 -0.610458 -3.54888 0
M  V30 684 C 63.0702 -2.09043 -3.98273 0
M  V30 685 C 64.3892 -0.0455379 -4.40076 0
M  V30 686 H 61.5082 -0.15028 -0.721516 0
M  V30 687 H 64.1502 -1.03384 -1.59411 0
M  V30 688 H 62.3002 -0.079044 -3.8842 0
M  V30 689 H 63.9722 -2.68537 -3.75081 0
M  V30 690 H 62.2152 -2.58139 -3.48635 0
M  V30 691 H 62.8862 -2.18182 -5.07051 0
M  V30 692 H 65.3622 -0.499557 -4.1309 0
M  V30 693 H 64.2382 -0.215922 -5.48475 0
M  V30 694 H 64.4992 1.04939 -4.29465 0
M  V30 695 N 63.5583 1.46682 -0.576371 0
M  V30 696 C 64.9743 1.57822 -0.237562 0
M  V30 697 C 65.1743 1.57237 1.26011 0
M  V30 698 O 64.2303 1.48596 2.04146 0
M  V30 699 C 65.5433 2.87499 -0.881168 0
M  V30 700 C 67.0913 3.01119 -0.85417 0
M  V30 701 C 67.5663 4.33524 -1.4772 0
M  V30 702 N 69.0573 4.40207 -1.44125 0
M  V30 703 C 69.7923 5.4126 -1.89276 0
M  V30 704 N 69.2883 6.49021 -2.42371 0
M  V30 705 N 71.0813 5.32422 -1.80231 0
M  V30 706 H 63.2323 1.45306 -1.54919 0
M  V30 707 H 65.4953 0.692733 -0.647167 0
M  V30 708 H 65.2013 2.9372 -1.93447 0
M  V30 709 H 65.0753 3.75224 -0.385592 0
M  V30 710 H 67.4623 2.94485 0.190491 0
M  V30 711 H 67.5433 2.14887 -1.3877 0
M  V30 712 H 67.1873 4.40916 -2.52103 0
M  V30 713 H 67.1173 5.1852 -0.918947 0
M  V30 714 H 69.6083 3.62931 -1.05307 0
M  V30 715 H 69.9213 7.2233 -2.74698 0
M  V30 716 H 68.2663 6.49858 -2.46393 0
M  V30 717 H 71.4573 4.47137 -1.38514 0
M  V30 718 H 71.6303 6.11034 -2.15735 0
M  V30 719 N 65.0364 0.313813 1.54444 0
M  V30 720 C 65.9844 -0.572171 2.25453 0
M  V30 721 C 66.9784 -1.12657 1.2651 0
M  V30 722 O 68.1844 -1.07573 1.44319 0
M  V30 723 H 64.5594 -0.203146 0.724041 0
M  V30 724 H 66.5304 0.0491145 2.9836 0
M  V30 725 C 65.2794 -1.72626 3.0182 0
M  V30 726 H 64.6024 -1.30891 3.77767 0
M  V30 727 H 66.0424 -2.32199 3.54767 0
M  V30 728 C 64.5014 -2.63806 2.09542 0
M  V30 729 O 65.0314 -3.65256 1.67185 0
M  V30 730 N 63.2374 -2.31824 1.75232 0
M  V30 731 H 62.7844 -1.49368 2.09873 0
M  V30 732 H 62.7424 -2.93095 1.13767 0
M  V30 733 N 66.5145 -1.57545 0.0417849 0
M  V30 734 C 67.4245 -2.14451 -0.951213 0
M  V30 735 C 68.4405 -1.09992 -1.34825 0
M  V30 736 O 69.6165 -1.42114 -1.42708 0
M  V30 737 C 66.6815 -2.67063 -2.21084 0
M  V30 738 C 65.7425 -3.86284 -1.87304 0
M  V30 739 C 64.9755 -4.36378 -3.07261 0
M  V30 740 O 65.1985 -3.85587 -4.20332 0
M  V30 741 O 64.1325 -5.28077 -2.88822 0
M  V30 742 H 67.9585 -2.99601 -0.497287 0
M  V30 743 H 65.5435 -1.48317 -0.179567 0
M  V30 744 H 67.4255 -3.00914 -2.95006 0
M  V30 745 H 66.1005 -1.84989 -2.65633 0
M  V30 746 H 65.0075 -3.57338 -1.10727 0
M  V30 747 H 66.3405 -4.6956 -1.47562 0
M  V30 748 N 67.9926 0.231505 -1.5589 0
M  V30 749 C 69.4036 0.799327 -1.68724 0
M  V30 750 C 69.7546 1.85398 -0.642022 0
M  V30 751 O 68.8796 2.1539 0.208784 0
M  V30 752 C 69.4746 1.45664 -3.05888 0
M  V30 753 C 68.0336 1.97197 -3.20609 0
M  V30 754 C 67.1806 0.828552 -2.64632 0
M  V30 755 H 70.1316 0.00702616 -1.58698 0
M  V30 756 H 70.1526 2.32517 -3.01191 0
M  V30 757 H 69.6646 0.688808 -3.81939 0
M  V30 758 H 67.7656 2.76813 -2.4941 0
M  V30 759 H 67.8786 2.15878 -4.27707 0
M  V30 760 H 66.2426 1.23321 -2.22854 0
M  V30 761 H 67.0256 0.0735544 -3.43221 0
M  V30 762 N 69.4707 1.49531 0.497807 0
M  V30 763 C 70.6987 1.62893 1.27567 0
M  V30 764 C 71.1137 0.301585 1.86376 0
M  V30 765 O 70.4707 -0.713335 1.67982 0
M  V30 766 C 70.5217 2.70013 2.40364 0
M  V30 767 O 70.2427 3.976 1.83972 0
M  V30 768 C 71.7437 2.94109 3.31685 0
M  V30 769 H 68.9637 0.548298 0.386794 0
M  V30 770 H 71.5077 1.95584 0.597245 0
M  V30 771 H 69.6627 2.40092 3.04031 0
M  V30 772 H 70.0767 4.56631 2.58047 0
M  V30 773 H 71.5507 3.72788 4.07104 0
M  V30 774 H 72.0277 2.04147 3.88871 0
M  V30 775 H 72.6337 3.2546 2.73781 0
M  V30 776 N 70.9488 -0.749086 1.3866 0
M  V30 777 C 71.8808 -1.87273 1.32142 0
M  V30 778 C 72.8938 -1.61127 0.232787 0
M  V30 779 O 74.0828 -1.71623 0.49069 0
M  V30 780 C 71.1828 -3.23005 1.02571 0
M  V30 781 C 70.3558 -3.7662 2.22433 0
M  V30 782 C 69.4148 -4.90879 1.89537 0
M  V30 783 O 68.4408 -5.05276 2.62078 0
M  V30 784 N 69.6428 -5.74198 0.853031 0
M  V30 785 H 72.4078 -1.93373 2.28969 0
M  V30 786 H 69.9688 -0.929216 1.32579 0
M  V30 787 H 71.9608 -3.96992 0.786085 0
M  V30 788 H 70.5308 -3.12262 0.145249 0
M  V30 789 H 69.7508 -2.94147 2.62434 0
M  V30 790 H 71.0388 -4.09173 3.02415 0
M  V30 791 H 70.4368 -5.6514 0.25155 0
M  V30 792 H 68.9938 -6.48313 0.67329 0
M  V30 793 N 72.4269 -1.23603 -0.977757 0
M  V30 794 C 73.3589 -0.977369 -2.07317 0
M  V30 795 C 74.3719 0.0495845 -1.62724 0
M  V30 796 O 75.5609 -0.186261 -1.77526 0
M  V30 797 C 72.6609 -0.451216 -3.35883 0
M  V30 798 C 71.8339 -1.53896 -4.09432 0
M  V30 799 C 70.8929 -1.01721 -5.16274 0
M  V30 800 O 69.9189 -1.70676 -5.43009 0
M  V30 801 N 71.1209 0.153594 -5.80297 0
M  V30 802 H 73.8859 -1.92047 -2.30082 0
M  V30 803 H 71.4469 -1.14497 -1.14465 0
M  V30 804 H 73.4389 -0.0871574 -4.04606 0
M  V30 805 H 72.0089 0.397368 -3.10064 0
M  V30 806 H 71.2289 -2.07566 -3.35127 0
M  V30 807 H 72.5169 -2.27037 -4.55337 0
M  V30 808 H 71.9149 0.730323 -5.60966 0
M  V30 809 H 70.4719 0.458892 -6.50183 0
M  V30 810 N 73.905 1.17692 -1.04816 0
M  V30 811 C 74.837 2.21103 -0.603822 0
M  V30 812 C 75.85 1.59411 0.33046 0
M  V30 813 O 77.039 1.7807 0.12379 0
M  V30 814 C 74.139 3.38623 0.136898 0
M  V30 815 C 73.312 4.29888 -0.807137 0
M  V30 816 C 72.371 5.26088 -0.10836 0
M  V30 817 O 71.397 5.64353 -0.741232 0
M  V30 818 N 72.599 5.68882 1.15558 0
M  V30 819 H 75.364 2.59848 -1.49329 0
M  V30 820 H 72.925 1.32553 -0.929587 0
M  V30 821 H 74.917 4.00009 0.614401 0
M  V30 822 H 73.487 2.98508 0.927993 0
M  V30 823 H 72.707 3.65993 -1.46434 0
M  V30 824 H 73.995 4.87759 -1.44807 0
M  V30 825 H 73.393 5.39861 1.69015 0
M  V30 826 H 71.95 6.32429 1.57722 0
M  V30 827 N 75.3831 0.828654 1.34056 0
M  V30 828 C 76.7991 0.515135 1.51058 0
M  V30 829 C 76.9991 -0.959581 1.77184 0
M  V30 830 O 76.0551 -1.74382 1.82612 0
M  V30 831 C 77.3681 1.37963 2.67183 0
M  V30 832 C 78.9161 1.37735 2.81066 0
M  V30 833 C 79.3911 2.22645 4.00241 0
M  V30 834 N 80.8821 2.203 4.07458 0
M  V30 835 C 81.6171 2.82744 4.98842 0
M  V30 836 N 81.1131 3.54201 5.9541 0
M  V30 837 N 82.9061 2.72268 4.91759 0
M  V30 838 H 75.0571 1.78343 1.15358 0
M  V30 839 H 77.3201 0.760304 0.566252 0
M  V30 840 H 77.0261 2.42714 2.54525 0
M  V30 841 H 76.9001 1.0484 3.62338 0
M  V30 842 H 79.2871 0.337593 2.93163 0
M  V30 843 H 79.3681 1.74859 1.86703 0
M  V30 844 H 79.0121 3.26674 3.88905 0
M  V30 845 H 78.9421 1.82869 4.93829 0
M  V30 846 H 81.4331 1.68327 3.38341 0
M  V30 847 H 81.7461 3.9908 6.61782 0
M  V30 848 H 80.0911 3.58308 5.95517 0
M  V30 849 H 83.2821 2.16014 4.15278 0
M  V30 850 H 83.4551 3.21219 5.62781 0
M  V30 851 N 76.8612 -1.46375 0.584142 0
M  V30 852 C 77.8242 -2.28784 -0.138108 0
M  V30 853 C 78.8242 -1.38471 -0.817462 0
M  V30 854 O 80.0142 -1.60833 -0.669199 0
M  V30 855 C 77.1462 -3.18892 -1.20503 0
M  V30 856 H 78.3392 -2.94117 0.586127 0
M  V30 857 H 75.8922 -1.52509 0.342171 0
M  V30 858 H 76.6272 -2.58309 -1.96079 0
M  V30 859 H 76.4122 -3.85388 -0.722384 0
M  V30 860 H 77.9022 -3.80914 -1.71155 0
M  V30 861 N 78.3393 -0.321999 -1.54275 0
M  V30 862 C 79.3023 0.531975 -2.22941 0
M  V30 863 C 80.3023 1.04478 -1.22234 0
M  V30 864 O 81.4923 0.937452 -1.46825 0
M  V30 865 C 78.6243 1.73874 -2.93224 0
M  V30 866 H 79.8173 -0.0682612 -2.99822 0
M  V30 867 H 77.3703 -0.0730644 -1.56129 0
M  V30 868 H 78.1053 2.37825 -2.20476 0
M  V30 869 H 77.8903 1.37847 -3.6707 0
M  V30 870 H 79.3803 2.34496 -3.45545 0
M  V30 871 N 79.8174 1.5752 -0.0501392 0
M  V30 872 C 80.7504 2.07026 0.959962 0
M  V30 873 C 81.7284 0.970539 1.30458 0
M  V30 874 O 82.9124 1.2424 1.41763 0
M  V30 875 C 80.0394 2.5099 2.27424 0
M  V30 876 C 79.0854 3.72188 2.08275 0
M  V30 877 S 79.9184 5.17888 1.36207 0
M  V30 878 C 81.0744 5.65165 2.6896 0
M  V30 879 H 81.3074 2.9238 0.538631 0
M  V30 880 H 78.8404 1.53547 0.162099 0
M  V30 881 H 80.7984 2.76982 3.02971 0
M  V30 882 H 79.4594 1.65944 2.66686 0
M  V30 883 H 78.6524 4.00866 3.05487 0
M  V30 884 H 78.2544 3.46457 1.40868 0
M  V30 885 H 80.5464 5.70687 3.65133 0
M  V30 886 H 81.4894 6.64394 2.4492 0
M  V30 887 H 81.8974 4.9289 2.75172 0
M  V30 888 N 81.2955 -0.223234 1.56011 0
M  V30 889 C 82.2255 -1.27988 1.95298 0
M  V30 890 C 83.2065 -1.48976 0.820979 0
M  V30 891 O 84.3915 -1.61188 1.08315 0
M  V30 892 C 81.5215 -2.63 2.26822 0
M  V30 893 C 80.4755 -2.56671 3.42497 0
M  V30 894 C 79.8015 -3.95697 3.59622 0
M  V30 895 C 81.1015 -2.11601 4.77517 0
M  V30 896 H 82.7955 -0.953525 2.8381 0
M  V30 897 H 80.3415 -0.457244 1.36548 0
M  V30 898 H 82.2945 -3.37077 2.52898 0
M  V30 899 H 81.0185 -2.9732 1.35161 0
M  V30 900 H 79.6775 -1.85051 3.16467 0
M  V30 901 H 79.3255 -4.27322 2.6534 0
M  V30 902 H 79.0255 -3.92345 4.37424 0
M  V30 903 H 80.5495 -4.71438 3.88044 0
M  V30 904 H 81.9635 -2.7542 5.02809 0
M  V30 905 H 80.3605 -2.19311 5.5859 0
M  V30 906 H 81.4305 -1.06824 4.72987 0
M  V30 907 N 82.7736 -1.49793 -0.48987 0
M  V30 908 C 84.0226 -1.59085 -1.23995 0
M  V30 909 C 84.3356 -0.287907 -1.9347 0
M  V30 910 O 85.5416 -0.259506 -2.70257 0
M  V30 911 C 83.9976 -2.80736 -2.252 0
M  V30 912 C 83.6056 -4.17833 -1.61614 0
M  V30 913 C 85.3496 -2.99364 -3.00967 0
M  V30 914 C 83.2566 -5.30693 -2.60996 0
M  V30 915 H 82.1866 -0.592372 -0.466488 0
M  V30 916 H 84.8376 -1.76197 -0.51252 0
M  V30 917 H 83.2196 -2.57142 -3.01154 0
M  V30 918 H 84.3936 -4.51608 -0.915774 0
M  V30 919 H 82.7086 -4.04656 -0.981977 0
M  V30 920 H 85.3056 -3.80851 -3.75308 0
M  V30 921 H 85.6486 -2.10356 -3.59244 0
M  V30 922 H 86.1816 -3.2305 -2.32128 0
M  V30 923 H 82.9206 -6.21796 -2.07485 0
M  V30 924 H 82.4406 -5.01359 -3.2924 0
M  V30 925 H 84.1196 -5.6049 -3.23202 0
M  V30 926 N 84.2517 0.741722 -1.39055 0
M  V30 927 C 85.1987 1.85566 -1.37237 0
M  V30 928 C 86.1687 1.64457 -0.233072 0
M  V30 929 O 87.3537 1.85957 -0.427147 0
M  V30 930 C 84.4937 3.23004 -1.215 0
M  V30 931 C 83.6067 3.55864 -2.44918 0
M  V30 932 C 82.7417 4.82669 -2.21821 0
M  V30 933 C 81.7807 5.08351 -3.40948 0
M  V30 934 N 80.9177 6.26356 -3.17211 0
M  V30 935 H 85.7577 1.86455 -2.32462 0
M  V30 936 H 83.2947 0.911176 -1.15482 0
M  V30 937 H 85.2527 4.02331 -1.10389 0
M  V30 938 H 83.8827 3.21411 -0.29908 0
M  V30 939 H 82.9347 2.7129 -2.66657 0
M  V30 940 H 84.2467 3.70765 -3.33668 0
M  V30 941 H 83.4007 5.69962 -2.07914 0
M  V30 942 H 82.1397 4.69929 -1.30454 0
M  V30 943 H 81.1447 4.19522 -3.55361 0
M  V30 944 H 82.3697 5.22981 -4.33207 0
M  V30 945 H 80.3157 6.14917 -2.28502 0
M  V30 946 H 80.2327 6.41813 -3.99515 0
M  V30 947 H 81.5007 7.16506 -3.06984 0
M  V30 948 N 85.7298 1.2412 0.971189 0
M  V30 949 C 86.6628 0.97373 2.06382 0
M  V30 950 C 87.6408 -0.0912662 1.62344 0
M  V30 951 O 88.8248 0.0449365 1.88446 0
M  V30 952 C 85.9518 0.468746 3.35441 0
M  V30 953 C 84.9978 1.52176 3.98428 0
M  V30 954 S 85.8308 3.10203 4.36503 0
M  V30 955 C 86.9868 2.61398 5.68702 0
M  V30 956 H 87.2198 1.89893 2.28753 0
M  V30 957 H 84.7528 1.07466 1.10862 0
M  V30 958 H 86.7108 0.184012 4.10087 0
M  V30 959 H 85.3718 -0.435688 3.11064 0
M  V30 960 H 84.5648 1.11876 4.91426 0
M  V30 961 H 84.1668 1.75632 3.30196 0
M  V30 962 H 86.4588 2.03992 6.4606 0
M  V30 963 H 87.4018 3.52972 6.13854 0
M  V30 964 H 87.8098 2.01941 5.27143 0
M  V30 965 N 87.2079 -1.17134 1.05439 0
M  V30 966 C 88.4569 -1.86791 0.761049 0
M  V30 967 C 88.7699 -1.82072 -0.714795 0
M  V30 968 O 89.9759 -2.47223 -1.12218 0
M  V30 969 C 88.4319 -3.35166 1.31117 0
M  V30 970 C 88.0399 -3.48381 2.81664 0
M  V30 971 C 89.7839 -4.10134 1.09499 0
M  V30 972 C 87.6909 -4.90793 3.29964 0
M  V30 973 H 86.6209 -0.699681 0.281002 0
M  V30 974 H 89.2719 -1.3226 1.27199 0
M  V30 975 H 87.6539 -3.8925 0.72803 0
M  V30 976 H 88.8279 -3.04502 3.45855 0
M  V30 977 H 87.1429 -2.86836 3.01851 0
M  V30 978 H 89.7399 -5.152 1.43084 0
M  V30 979 H 90.0829 -4.16287 0.0328772 0
M  V30 980 H 90.6159 -3.62264 1.64346 0
M  V30 981 H 87.3549 -4.89816 4.35616 0
M  V30 982 H 86.8749 -5.35333 2.70516 0
M  V30 983 H 88.5539 -5.59573 3.24787 0
M  V30 984 N 88.686 -0.835752 -1.33615 0
M  V30 985 C 89.616 -0.281739 -2.31794 0
M  V30 986 C 90.597 0.608833 -1.58831 0
M  V30 987 O 91.782 0.533035 -1.86741 0
M  V30 988 C 88.912 0.546612 -3.42971 0
M  V30 989 C 87.866 -0.247904 -4.27281 0
M  V30 990 C 87.192 0.704001 -5.30045 0
M  V30 991 C 88.492 -1.46324 -5.01385 0
M  V30 992 H 90.186 -1.10206 -2.78379 0
M  V30 993 H 87.732 -0.531388 -1.33837 0
M  V30 994 H 89.685 0.944467 -4.1068 0
M  V30 995 H 88.409 1.40011 -2.95067 0
M  V30 996 H 87.068 -0.627281 -3.61194 0
M  V30 997 H 86.716 1.55381 -4.78399 0
M  V30 998 H 86.416 0.176524 -5.87335 0
M  V30 999 H 87.94 1.09944 -6.0062 0
M  V30 1000 H 89.354 -1.13871 -5.61877 0
M  V30 1001 H 87.751 -1.92728 -5.6831 0
M  V30 1002 H 88.821 -2.23467 -4.30338 0
M  V30 1003 N 90.1641 1.46063 -0.591896 0
M  V30 1004 C 91.1111 2.30399 0.136069 0
M  V30 1005 C 92.0811 1.41169 0.875238 0
M  V30 1006 O 93.2661 1.70112 0.86409 0
M  V30 1007 C 90.4061 3.25804 1.13781 0
M  V30 1008 C 89.5191 4.30134 0.401137 0
M  V30 1009 C 88.6541 5.12659 1.39121 0
M  V30 1010 C 87.6931 6.0873 0.641462 0
M  V30 1011 N 86.8301 6.8409 1.58004 0
M  V30 1012 H 91.6701 2.92118 -0.589144 0
M  V30 1013 H 89.2071 1.43959 -0.302342 0
M  V30 1014 H 91.1651 3.79569 1.73156 0
M  V30 1015 H 89.7951 2.65872 1.83062 0
M  V30 1016 H 88.8471 3.79152 -0.307826 0
M  V30 1017 H 90.1591 4.98458 -0.184565 0
M  V30 1018 H 89.3131 5.70747 2.05749 0
M  V30 1019 H 88.0521 4.44316 2.01084 0
M  V30 1020 H 87.0571 5.49786 -0.0385419 0
M  V30 1021 H 88.2821 6.79095 0.0270945 0
M  V30 1022 H 86.2281 6.18449 2.18761 0
M  V30 1023 H 86.1451 7.48709 1.04738 0
M  V30 1024 H 87.4131 7.4673 2.23639 0
M  V30 1025 N 91.6422 0.330177 1.54103 0
M  V30 1026 C 92.5892 -0.532762 2.24567 0
M  V30 1027 C 93.5592 -1.10635 1.23892 0
M  V30 1028 O 94.7442 -1.14546 1.5259 0
M  V30 1029 C 91.8842 -1.6845 3.01195 0
M  V30 1030 C 90.9972 -1.13951 4.167 0
M  V30 1031 C 90.1322 -2.25746 4.80845 0
M  V30 1032 C 89.1712 -1.6853 5.88442 0
M  V30 1033 N 88.3082 -2.74014 6.46421 0
M  V30 1034 H 93.1482 0.0746905 2.97906 0
M  V30 1035 H 90.6852 0.048632 1.4702 0
M  V30 1036 H 92.6432 -2.36234 3.43874 0
M  V30 1037 H 91.2732 -2.26314 2.30178 0
M  V30 1038 H 90.3252 -0.35301 3.78758 0
M  V30 1039 H 91.6372 -0.680892 4.94131 0
M  V30 1040 H 90.7912 -3.01422 5.26526 0
M  V30 1041 H 89.5302 -2.74947 4.0281 0
M  V30 1042 H 88.5352 -0.913543 5.42157 0
M  V30 1043 H 89.7602 -1.20198 6.68378 0
M  V30 1044 H 87.7062 -3.22494 5.71256 0
M  V30 1045 H 87.6232 -2.32735 7.19285 0
M  V30 1046 H 88.8912 -3.49499 6.96757 0
M  V30 1047 N 93.1203 -1.57491 0.0584922 0
M  V30 1048 C 94.3973 -1.84346 -0.653918 0
M  V30 1049 C 94.7773 -0.948355 -1.88599 0
M  V30 1050 O 94.1253 -0.0112403 -2.28497 0
M  V30 1051 C 94.3353 -3.34239 -1.00425 0
M  V30 1052 C 95.6833 -4.01431 -1.38342 0
M  V30 1053 O 96.7073 -3.38907 -1.09637 0
M  V30 1054 O 95.5663 -5.11683 -1.91943 0
M  V30 1055 H 92.6603 -0.761112 -0.323478 0
M  V30 1056 H 95.2063 -1.6947 0.0884125 0
M  V30 1057 H 93.9783 -3.91089 -0.128625 0
M  V30 1058 H 93.6013 -3.54329 -1.80378 0
M  V30 1059 N 94.5984 0.214957 -1.56127 0
M  V30 1060 C 95.5464 1.28601 -1.93816 0
M  V30 1061 C 96.5404 1.48175 -0.821016 0
M  V30 1062 O 97.7464 1.49271 -1.0059 0
M  V30 1063 H 94.1214 0.431302 -0.616022 0
M  V30 1064 H 96.0924 0.940991 -2.83175 0
M  V30 1065 C 94.8414 2.62779 -2.27689 0
M  V30 1066 H 94.1644 2.48527 -3.13168 0
M  V30 1067 H 95.6044 3.36517 -2.57939 0
M  V30 1068 C 94.0634 3.18285 -1.10436 0
M  V30 1069 O 94.5934 4.00002 -0.368945 0
M  V30 1070 N 92.7994 2.7675 -0.886433 0
M  V30 1071 H 92.3464 2.10404 -1.48619 0
M  V30 1072 H 92.3044 3.14229 -0.103656 0
M  V30 1073 N 96.0765 1.50051 0.48192 0
M  V30 1074 C 97.3535 1.51009 1.2432 0
M  V30 1075 C 97.7335 0.248587 2.09631 0
M  V30 1076 O 97.0815 -0.768409 2.15192 0
M  V30 1077 C 97.2915 2.79981 2.08355 0
M  V30 1078 C 98.6395 3.3022 2.66908 0
M  V30 1079 O 99.6635 2.81228 2.18607 0
M  V30 1080 O 98.5225 4.15595 3.54884 0
M  V30 1081 H 95.6165 0.605239 0.563573 0
M  V30 1082 H 98.1625 1.62332 0.494627 0
M  V30 1083 H 96.9345 3.63275 1.45419 0
M  V30 1084 H 96.5575 2.7161 2.90368 0
M  V30 1085 N 97.5546 -0.734337 1.39446 0
M  V30 1086 C 98.7796 -1.52866 1.40167 0
M  V30 1087 C 99.2046 -1.881 -0.00171513 0
M  V30 1088 O 98.5626 -1.51957 -0.988879 0
M  V30 1089 C 98.6106 -2.79235 2.28167 0
M  V30 1090 O 97.7146 -3.75185 1.71201 0
M  V30 1091 H 97.0556 -0.461618 0.477289 0
M  V30 1092 H 99.5856 -0.905949 1.8345 0
M  V30 1093 H 99.5956 -3.27963 2.42702 0
M  V30 1094 H 98.2706 -2.52923 3.30156 0
M  V30 1095 H 96.8476 -3.33958 1.65912 0
M  V30 1096 N 99.0327 -1.24633 -0.964593 0
M  V30 1097 C 100.263 -1.11339 -1.74032 0
M  V30 1098 C 100.671 0.336593 -1.86182 0
M  V30 1099 O 100.014 1.24389 -1.35178 0
M  V30 1100 C 100.076 -1.68284 -3.1768 0
M  V30 1101 C 99.7397 -3.17196 -3.28992 0
M  V30 1102 C 100.737 -4.14308 -3.14078 0
M  V30 1103 C 98.4217 -3.57215 -3.53133 0
M  V30 1104 C 100.416 -5.4942 -3.23135 0
M  V30 1105 C 98.1027 -4.92468 -3.61827 0
M  V30 1106 C 99.1007 -5.8838 -3.46841 0
M  V30 1107 O 98.7887 -7.21173 -3.55197 0
M  V30 1108 H 98.5207 -0.389551 -0.552472 0
M  V30 1109 H 101.075 -1.65282 -1.21946 0
M  V30 1110 H 99.3047 -1.08777 -3.71085 0
M  V30 1111 H 100.994 -1.50234 -3.77074 0
M  V30 1112 H 101.76 -3.84731 -2.95308 0
M  V30 1113 H 97.6387 -2.83063 -3.63863 0
M  V30 1114 H 101.183 -6.24263 -3.11355 0
M  V30 1115 H 97.0797 -5.21714 -3.80111 0
M  V30 1116 H 97.8477 -7.29135 -3.71892 0
M  V30 1117 N 100.511 1.16574 -1.06058 0
M  V30 1118 C 101.757 1.87324 -0.777022 0
M  V30 1119 C 102.09 1.81351 0.694645 0
M  V30 1120 O 101.365 1.22753 1.50871 0
M  V30 1121 C 101.648 3.36991 -1.26922 0
M  V30 1122 C 101.501 3.51667 -2.80447 0
M  V30 1123 C 102.82 4.3131 -0.87521 0
M  V30 1124 H 99.9388 0.680191 -0.28374 0
M  V30 1125 H 102.581 1.37036 -1.3161 0
M  V30 1126 H 100.731 3.79949 -0.81063 0
M  V30 1127 H 102.403 3.17664 -3.34495 0
M  V30 1128 H 100.646 2.93656 -3.19294 0
M  V30 1129 H 101.317 4.56766 -3.0995 0
M  V30 1130 H 103.793 3.9624 -1.27014 0
M  V30 1131 H 102.669 5.34545 -1.2471 0
M  V30 1132 H 102.93 4.41552 0.220071 0
M  V30 1133 N 101.989 0.842826 1.3317 0
M  V30 1134 C 103.214 0.453129 2.02389 0
M  V30 1135 C 103.639 -0.939105 1.6298 0
M  V30 1136 O 102.997 -1.61472 0.8244 0
M  V30 1137 C 103.045 0.586094 3.55805 0
M  V30 1138 O 102.149 -0.386029 4.10589 0
M  V30 1139 H 101.49 0.183664 0.638094 0
M  V30 1140 H 104.02 1.13875 1.69981 0
M  V30 1141 H 104.03 0.469209 4.05293 0
M  V30 1142 H 102.705 1.6014 3.83833 0
M  V30 1143 H 101.282 -0.226371 3.72212 0
M  V30 1144 N 103.467 -1.45747 0.599634 0
M  V30 1145 C 104.714 -2.02292 0.0917284 0
M  V30 1146 C 105.042 -1.46906 -1.27472 0
M  V30 1147 O 104.297 -0.630652 -1.8526 0
M  V30 1148 C 104.596 -3.57399 -0.00602758 0
M  V30 1149 C 104.262 -4.31902 1.29503 0
M  V30 1150 C 102.924 -4.51974 1.65144 0
M  V30 1151 C 105.276 -4.74551 2.15525 0
M  V30 1152 C 102.604 -5.11949 2.86574 0
M  V30 1153 C 104.956 -5.35868 3.36196 0
M  V30 1154 C 103.62 -5.54165 3.72099 0
M  V30 1155 H 102.89 -0.740239 0.0335658 0
M  V30 1156 H 105.537 -1.7491 0.779661 0
M  V30 1157 H 103.842 -3.84014 -0.777183 0
M  V30 1158 H 105.539 -3.98846 -0.415038 0
M  V30 1159 H 102.129 -4.16588 1.00761 0
M  V30 1160 H 106.313 -4.58784 1.8929 0
M  V30 1161 H 101.569 -5.24305 3.14507 0
M  V30 1162 H 105.743 -5.6787 4.03109 0
M  V30 1163 H 103.37 -6.00406 4.6628 0
M  V30 1164 N 104.945 -0.338344 -1.53925 0
M  V30 1165 C 106.175 0.260919 -2.04946 0
M  V30 1166 C 106.583 1.45174 -1.2133 0
M  V30 1167 O 105.926 1.82122 -0.240262 0
M  V30 1168 C 105.988 0.744596 -3.51704 0
M  V30 1169 C 105.652 -0.325883 -4.55837 0
M  V30 1170 C 106.649 -1.16687 -5.06636 0
M  V30 1171 C 104.334 -0.478317 -5.00017 0
M  V30 1172 C 106.328 -2.14588 -6.00192 0
M  V30 1173 C 104.015 -1.46073 -5.93385 0
M  V30 1174 C 105.013 -2.29297 -6.4336 0
M  V30 1175 O 104.701 -3.25867 -7.34892 0
M  V30 1176 H 104.433 0.0551207 -0.673749 0
M  V30 1177 H 106.987 -0.486984 -1.99544 0
M  V30 1178 H 105.217 1.54366 -3.54553 0
M  V30 1179 H 106.906 1.26383 -3.85723 0
M  V30 1180 H 107.672 -1.06016 -4.73271 0
M  V30 1181 H 103.551 0.159613 -4.60724 0
M  V30 1182 H 107.095 -2.79585 -6.39123 0
M  V30 1183 H 102.992 -1.56802 -6.26166 0
M  V30 1184 H 103.76 -3.21278 -7.5281 0
M  V30 1185 N 106.423 1.57458 -0.0668435 0
M  V30 1186 C 107.371 2.13639 0.919851 0
M  V30 1187 C 108.365 1.07204 1.31163 0
M  V30 1188 O 109.571 1.25591 1.28945 0
M  V30 1189 H 105.946 0.683048 0.314562 0
M  V30 1190 H 107.917 2.95415 0.421047 0
M  V30 1191 C 106.666 2.70892 2.17975 0
M  V30 1192 H 105.989 3.5246 1.88711 0
M  V30 1193 H 107.429 3.13803 2.85138 0
M  V30 1194 C 105.888 1.65414 2.93496 0
M  V30 1195 O 106.418 1.07619 3.87015 0
M  V30 1196 N 104.624 1.36564 2.56512 0
M  V30 1197 H 104.171 1.83751 1.80536 0
M  V30 1198 H 104.129 0.66223 3.07347 0
M  V30 1199 N 107.901 -0.206675 1.56239 0
M  V30 1200 C 108.864 -1.23976 1.92776 0
M  V30 1201 C 109.864 -1.39041 0.807729 0
M  V30 1202 O 111.054 -1.37051 1.0753 0
M  V30 1203 C 108.186 -2.61112 2.19165 0
M  V30 1204 H 109.379 -0.927764 2.85189 0
M  V30 1205 H 106.932 -0.447718 1.4975 0
M  V30 1206 H 107.667 -2.97386 1.29352 0
M  V30 1207 H 107.452 -2.51552 3.00772 0
M  V30 1208 H 108.942 -3.35633 2.48476 0
M  V30 1209 N 109.379 -1.50304 -0.473955 0
M  V30 1210 C 110.309 -1.71886 -1.58042 0
M  V30 1211 C 111.29 -0.567799 -1.60344 0
M  V30 1212 O 112.475 -0.806623 -1.76656 0
M  V30 1213 C 109.605 -1.81036 -2.96384 0
M  V30 1214 C 108.559 -2.962 -3.08949 0
M  V30 1215 C 107.885 -2.9049 -4.48909 0
M  V30 1216 C 109.185 -4.36752 -2.86434 0
M  V30 1217 H 110.879 -2.64527 -1.40234 0
M  V30 1218 H 108.425 -1.27295 -0.673201 0
M  V30 1219 H 110.378 -1.94719 -3.73714 0
M  V30 1220 H 109.102 -0.850147 -3.15341 0
M  V30 1221 H 107.761 -2.82164 -2.3405 0
M  V30 1222 H 107.409 -1.92321 -4.64781 0
M  V30 1223 H 107.109 -3.67802 -4.58253 0
M  V30 1224 H 108.633 -3.06218 -5.28264 0
M  V30 1225 H 110.047 -4.5133 -3.53517 0
M  V30 1226 H 108.444 -5.15493 -3.07225 0
M  V30 1227 H 109.514 -4.49321 -1.82316 0
M  V30 1228 N 110.857 0.726932 -1.39834 0
M  V30 1229 C 111.787 1.85405 -1.41941 0
M  V30 1230 C 112.768 1.67751 -0.281728 0
M  V30 1231 O 113.953 1.8795 -0.488717 0
M  V30 1232 C 111.083 3.23243 -1.2701 0
M  V30 1233 C 110.037 3.55549 -2.38262 0
M  V30 1234 C 109.363 4.9241 -2.08415 0
M  V30 1235 C 110.663 3.577 -3.80589 0
M  V30 1236 H 112.357 1.83899 -2.36266 0
M  V30 1237 H 109.903 0.883349 -1.13723 0
M  V30 1238 H 111.856 4.01775 -1.27103 0
M  V30 1239 H 110.58 3.25296 -0.291564 0
M  V30 1240 H 109.239 2.79351 -2.37399 0
M  V30 1241 H 108.887 4.91052 -1.0898 0
M  V30 1242 H 108.587 5.14992 -2.82943 0
M  V30 1243 H 110.111 5.73289 -2.10171 0
M  V30 1244 H 111.525 4.26293 -3.83337 0
M  V30 1245 H 109.922 3.91804 -4.54543 0
M  V30 1246 H 110.992 2.57328 -4.10987 0
M  V30 1247 N 112.336 1.25143 0.95797 0
M  V30 1248 C 113.286 1.01924 2.0395 0
M  V30 1249 C 114.27 -0.0427175 1.60843 0
M  V30 1250 O 115.462 0.17221 1.7616 0
M  V30 1251 C 112.591 0.636373 3.3735 0
M  V30 1252 C 111.677 1.73492 3.8699 0
M  V30 1253 N 112.068 2.96945 4.0946 0
M  V30 1254 C 110.366 1.61467 4.15746 0
M  V30 1255 C 111.067 3.68228 4.50315 0
M  V30 1256 N 110.043 2.95833 4.56053 0
M  V30 1257 H 113.845 1.95653 2.19311 0
M  V30 1258 H 111.359 1.15413 1.14253 0
M  V30 1259 H 113.356 0.451233 4.14451 0
M  V30 1260 H 112.016 -0.293621 3.2337 0
M  V30 1261 H 113.027 3.33025 3.96629 0
M  V30 1262 H 109.704 0.753394 4.10646 0
M  V30 1263 H 111.094 4.74178 4.76031 0
M  V30 1264 N 113.814 -1.1601 1.06675 0
M  V30 1265 C 114.724 -2.24156 0.692179 0
M  V30 1266 C 115.74 -1.71507 -0.293513 0
M  V30 1267 O 116.916 -2.009 -0.141861 0
M  V30 1268 C 113.981 -3.46587 0.0884131 0
M  V30 1269 C 113.042 -4.14257 1.12646 0
M  V30 1270 C 112.275 -5.30844 0.551416 0
M  V30 1271 O 112.498 -5.66858 -0.634656 0
M  V30 1272 O 111.432 -5.87848 1.29298 0
M  V30 1273 H 115.258 -2.58513 1.59388 0
M  V30 1274 H 112.843 -1.23599 0.83926 0
M  V30 1275 H 114.725 -4.20679 -0.246361 0
M  V30 1276 H 113.4 -3.13994 -0.786712 0
M  V30 1277 H 112.307 -3.42118 1.51348 0
M  V30 1278 H 113.64 -4.50914 1.97325 0
M  V30 1279 N 115.292 -0.849877 -1.32721 0
M  V30 1280 C 116.54 -0.450032 -1.97026 0
M  V30 1281 C 116.861 0.996604 -1.67609 0
M  V30 1282 O 116.131 1.6958 -0.980786 0
M  V30 1283 H 114.711 -0.163426 -0.728904 0
M  V30 1284 H 117.373 -1.08526 -1.6189 0
M  V30 1285 H 116.469 -0.591146 -3.0645 0
M  V30 1286 N 116.77 1.45427 -0.607355 0
M  V30 1287 C 118 2.06314 -0.108656 0
M  V30 1288 C 118.408 1.45269 1.21217 0
M  V30 1289 O 117.751 0.561115 1.74921 0
M  V30 1290 C 117.813 3.59345 0.105618 0
M  V30 1291 C 117.477 4.42723 -1.13337 0
M  V30 1292 C 118.474 4.77715 -2.05145 0
M  V30 1293 C 116.159 4.83478 -1.36213 0
M  V30 1294 C 118.153 5.52317 -3.18158 0
M  V30 1295 C 115.84 5.57835 -2.49527 0
M  V30 1296 C 116.838 5.92171 -3.40327 0
M  V30 1297 O 116.526 6.65019 -4.51669 0
M  V30 1298 H 116.258 0.672782 -0.0658842 0
M  V30 1299 H 118.812 1.87664 -0.834945 0
M  V30 1300 H 117.042 3.76394 0.886796 0
M  V30 1301 H 118.731 4.02076 0.555886 0
M  V30 1302 H 119.497 4.46787 -1.88697 0
M  V30 1303 H 115.376 4.56188 -0.664362 0
M  V30 1304 H 118.92 5.79036 -3.89054 0
M  V30 1305 H 114.817 5.88177 -2.65928 0
M  V30 1306 H 115.585 6.83469 -4.50348 0
M  V30 1307 N 118.248 0.346503 1.53744 0
M  V30 1308 C 119.195 -0.508914 2.25119 0
M  V30 1309 C 120.165 -1.09315 1.25058 0
M  V30 1310 O 121.35 -1.12921 1.53797 0
M  V30 1311 C 118.49 -1.65246 3.02965 0
M  V30 1312 C 117.603 -1.09525 4.17886 0
M  V30 1313 C 116.738 -2.20634 4.83212 0
M  V30 1314 C 115.777 -1.62279 5.90196 0
M  V30 1315 N 114.914 -2.67143 6.49291 0
M  V30 1316 H 119.754 0.106283 2.9781 0
M  V30 1317 H 117.291 0.0642227 1.4696 0
M  V30 1318 H 119.249 -2.32574 3.4636 0
M  V30 1319 H 117.879 -2.2386 2.32565 0
M  V30 1320 H 116.931 -0.312818 3.79112 0
M  V30 1321 H 118.243 -0.628444 4.94825 0
M  V30 1322 H 117.397 -2.95821 5.29693 0
M  V30 1323 H 116.136 -2.70659 4.05703 0
M  V30 1324 H 115.141 -0.855989 5.43096 0
M  V30 1325 H 116.366 -1.13102 6.69615 0
M  V30 1326 H 114.312 -3.16417 5.74645 0
M  V30 1327 H 114.229 -2.25093 7.21713 0
M  V30 1328 H 115.497 -3.4209 7.00425 0
M  V30 1329 N 119.726 -1.57421 0.075193 0
M  V30 1330 C 121.003 -1.85029 -0.634329 0
M  V30 1331 C 121.383 -0.968305 -1.87582 0
M  V30 1332 O 120.731 -0.0354749 -2.28472 0
M  V30 1333 C 120.941 -3.35286 -0.968742 0
M  V30 1334 C 122.289 -4.02875 -1.34077 0
M  V30 1335 O 123.313 -3.40051 -1.06037 0
M  V30 1336 O 122.172 -5.13691 -1.86506 0
M  V30 1337 H 119.266 -0.7645 -0.315387 0
M  V30 1338 H 121.812 -1.69366 0.106382 0
M  V30 1339 H 120.584 -3.91203 -0.0871376 0
M  V30 1340 H 120.207 -3.56223 -1.7661 0
M  V30 1341 N 121.204 0.198386 -1.56346 0
M  V30 1342 C 122.134 1.24865 -1.9731 0
M  V30 1343 C 123.115 1.47651 -0.844576 0
M  V30 1344 O 124.3 1.59444 -1.10866 0
M  V30 1345 C 121.43 2.59358 -2.30977 0
M  V30 1346 C 120.384 2.5119 -3.46537 0
M  V30 1347 C 119.71 3.89926 -3.65871 0
M  V30 1348 C 121.01 2.03977 -4.80823 0
M  V30 1349 H 122.704 0.908252 -2.85291 0
M  V30 1350 H 120.25 0.435462 -1.37258 0
M  V30 1351 H 122.203 3.33011 -2.58228 0
M  V30 1352 H 120.927 2.95132 -1.39874 0
M  V30 1353 H 119.586 1.79993 -3.19371 0
M  V30 1354 H 119.234 4.23046 -2.72105 0
M  V30 1355 H 118.934 3.85336 -4.4361 0
M  V30 1356 H 120.458 4.65205 -3.95495 0
M  V30 1357 H 121.872 2.67386 -5.07127 0
M  V30 1358 H 120.269 2.10397 -5.62008 0
M  V30 1359 H 121.339 0.992861 -4.74626 0
M  V30 1360 N 122.682 1.50554 0.465978 0
M  V30 1361 C 123.645 1.69233 1.54574 0
M  V30 1362 C 124.645 0.562901 1.50626 0
M  V30 1363 O 125.835 0.830016 1.53155 0
M  V30 1364 C 122.967 1.7223 2.94193 0
M  V30 1365 H 124.16 2.65571 1.39327 0
M  V30 1366 H 121.713 1.40111 0.692711 0
M  V30 1367 H 122.448 0.77603 3.14878 0
M  V30 1368 H 122.233 2.54285 2.98466 0
M  V30 1369 H 123.723 1.88618 3.72576 0
M  V30 1370 N 124.16 -0.719506 1.40217 0
M  V30 1371 C 125.123 -1.8153 1.39927 0
M  V30 1372 C 126.123 -1.58095 0.293723 0
M  V30 1373 O 127.313 -1.65209 0.552429 0
M  V30 1374 C 124.445 -3.19561 1.18716 0
M  V30 1375 H 125.638 -1.83186 2.37451 0
M  V30 1376 H 123.191 -0.924746 1.26008 0
M  V30 1377 H 123.926 -3.23557 0.219366 0
M  V30 1378 H 123.711 -3.3797 1.98793 0
M  V30 1379 H 125.201 -3.99598 1.21291 0
M  V30 1380 N 125.638 -1.25649 -0.95132 0
M  V30 1381 C 126.568 -1.08808 -2.06599 0
M  V30 1382 C 127.549 0.00382547 -1.701 0
M  V30 1383 O 128.734 -0.166325 -1.93486 0
M  V30 1384 C 125.864 -0.709542 -3.39975 0
M  V30 1385 C 124.818 -1.75206 -3.90496 0
M  V30 1386 C 124.144 -1.22811 -5.20405 0
M  V30 1387 C 125.444 -3.15153 -4.16504 0
M  V30 1388 H 127.138 -2.02048 -2.20946 0
M  V30 1389 H 124.684 -0.972835 -1.06169 0
M  V30 1390 H 126.637 -0.578649 -4.17408 0
M  V30 1391 H 125.361 0.258556 -3.25575 0
M  V30 1392 H 124.02 -1.87145 -3.15234 0
M  V30 1393 H 123.668 -0.250145 -5.02378 0
M  V30 1394 H 123.368 -1.92492 -5.55176 0
M  V30 1395 H 124.892 -1.10968 -6.00432 0
M  V30 1396 H 126.306 -3.06349 -4.84586 0
M  V30 1397 H 124.703 -3.82333 -4.62538 0
M  V30 1398 H 125.773 -3.61966 -3.22658 0
M  V30 1399 N 127.117 1.15442 -1.07289 0
M  V30 1400 C 128.047 2.22312 -0.714107 0
M  V30 1401 C 129.028 1.67467 0.298155 0
M  V30 1402 O 130.213 1.93445 0.171048 0
M  V30 1403 C 127.343 3.47124 -0.110448 0
M  V30 1404 C 126.297 4.14926 -1.04979 0
M  V30 1405 C 125.623 5.33807 -0.308924 0
M  V30 1406 C 126.923 4.64762 -2.38314 0
M  V30 1407 H 128.617 2.5258 -1.6076 0
M  V30 1408 H 126.163 1.21404 -0.77441 0
M  V30 1409 H 128.116 4.21124 0.152482 0
M  V30 1410 H 126.84 3.16187 0.81812 0
M  V30 1411 H 125.499 3.42866 -1.29764 0
M  V30 1412 H 125.147 4.99126 0.623084 0
M  V30 1413 H 124.847 5.80113 -0.935036 0
M  V30 1414 H 126.371 6.10576 -0.0537771 0
M  V30 1415 H 127.785 5.30292 -2.1786 0
M  V30 1416 H 126.182 5.21728 -2.96514 0
M  V30 1417 H 127.252 3.80434 -3.00663 0
M  V30 1418 N 128.595 0.856903 1.32268 0
M  V30 1419 C 129.545 0.274899 2.26337 0
M  V30 1420 C 130.529 -0.580543 1.50062 0
M  V30 1421 O 131.721 -0.429559 1.71708 0
M  V30 1422 C 128.85 -0.533841 3.39124 0
M  V30 1423 C 127.936 0.334114 4.22782 0
M  V30 1424 N 128.327 1.42143 4.85416 0
M  V30 1425 C 126.625 0.124256 4.45827 0
M  V30 1426 C 127.326 1.95559 5.47843 0
M  V30 1427 N 126.302 1.25444 5.28928 0
M  V30 1428 H 130.104 1.10612 2.72291 0
M  V30 1429 H 127.618 0.703258 1.46383 0
M  V30 1430 H 129.615 -0.96722 4.05525 0
M  V30 1431 H 128.275 -1.36283 2.94715 0
M  V30 1432 H 129.286 1.80436 4.85451 0
M  V30 1433 H 125.963 -0.669837 4.12092 0
M  V30 1434 H 127.353 2.86714 6.07655 0
M  V30 1435 N 130.073 -1.45103 0.615059 0
M  V30 1436 C 131.35 -1.95549 0.0448276 0
M  V30 1437 C 131.73 -1.55737 -1.4251 0
M  V30 1438 O 131.078 -0.823556 -2.13143 0
M  V30 1439 C 131.288 -3.48098 0.250785 0
M  V30 1440 C 132.636 -4.24384 0.135509 0
M  V30 1441 O 133.66 -3.55738 0.181299 0
M  V30 1442 O 132.519 -5.46493 0.0268878 0
M  V30 1443 H 129.613 -0.8264 -0.0314845 0
M  V30 1444 H 132.159 -1.55232 0.685642 0
M  V30 1445 H 130.931 -3.7007 1.27139 0
M  V30 1446 H 130.554 -3.95323 -0.424937 0
M  V30 1447 N 131.551 -0.354651 -1.53558 0
M  V30 1448 C 132.799 0.237972 -2.00694 0
M  V30 1449 C 133.12 1.50173 -1.24391 0
M  V30 1450 O 132.39 1.92673 -0.354135 0
M  V30 1451 H 130.97 0.0909256 -0.741446 0
M  V30 1452 H 133.632 -0.478368 -1.88938 0
M  V30 1453 H 132.728 0.47264 -3.085 0
M  V30 1454 N 133.029 1.57378 -0.0835403 0
M  V30 1455 C 134.278 1.93106 0.582498 0
M  V30 1456 C 134.591 0.96651 1.70053 0
M  V30 1457 O 135.797 1.21705 2.42693 0
M  V30 1458 C 134.253 3.43076 1.08751 0
M  V30 1459 C 133.861 4.48 -0.000146404 0
M  V30 1460 C 135.605 3.87785 1.72694 0
M  V30 1461 C 133.512 5.89113 0.519568 0
M  V30 1462 H 132.442 0.720775 0.221358 0
M  V30 1463 H 135.093 1.82821 -0.157675 0
M  V30 1464 H 133.475 3.48474 1.88101 0
M  V30 1465 H 134.649 4.54233 -0.775199 0
M  V30 1466 H 132.964 4.1283 -0.54406 0
M  V30 1467 H 135.561 4.90604 2.1263 0
M  V30 1468 H 135.904 3.25796 2.59158 0
M  V30 1469 H 136.437 3.8504 0.999457 0
M  V30 1470 H 133.176 6.54775 -0.308186 0
M  V30 1471 H 132.696 5.86376 1.26188 0
M  V30 1472 H 134.375 6.39346 0.992237 0
M  V30 1473 N 134.507 -0.190092 1.56449 0
M  V30 1474 C 135.918 -0.754312 1.70784 0
M  V30 1475 C 136.269 -1.83631 0.690951 0
M  V30 1476 O 135.394 -2.15868 -0.151604 0
M  V30 1477 C 135.989 -1.37503 3.09642 0
M  V30 1478 C 134.548 -1.88628 3.25725 0
M  V30 1479 C 133.695 -0.758098 2.66736 0
M  V30 1480 H 136.646 0.0350524 1.58661 0
M  V30 1481 H 136.667 -2.2445 3.0725 0
M  V30 1482 H 136.179 -0.587302 3.83631 0
M  V30 1483 H 134.28 -2.70103 2.56661 0
M  V30 1484 H 134.393 -2.04462 4.3328 0
M  V30 1485 H 132.757 -1.17369 2.26046 0
M  V30 1486 H 133.54 0.0174705 3.43296 0
M  V30 1487 N 135.985 -1.50799 -0.457987 0
M  V30 1488 C 137.231 -1.62683 -1.21088 0
M  V30 1489 C 137.564 -0.332268 -1.91336 0
M  V30 1490 O 136.839 0.667043 -1.82704 0
M  V30 1491 C 137.122 -2.81615 -2.24422 0
M  V30 1492 C 136.975 -4.20989 -1.58392 0
M  V30 1493 C 138.294 -2.96085 -3.2561 0
M  V30 1494 H 135.413 -0.592087 -0.438864 0
M  V30 1495 H 138.055 -1.83225 -0.50286 0
M  V30 1496 H 136.205 -2.64231 -2.84806 0
M  V30 1497 H 137.877 -4.49994 -1.01504 0
M  V30 1498 H 136.12 -4.24641 -0.886704 0
M  V30 1499 H 136.791 -5.0016 -2.33547 0
M  V30 1500 H 139.267 -3.12042 -2.75262 0
M  V30 1501 H 138.143 -3.80902 -3.95228 0
M  V30 1502 H 138.404 -2.0726 -3.90507 0
M  V30 1503 N 137.463 0.71206 -1.40597 0
M  V30 1504 C 138.709 1.47416 -1.39271 0
M  V30 1505 C 139.042 1.942 0.00388791 0
M  V30 1506 O 138.317 1.68403 0.973179 0
M  V30 1507 C 138.6 2.69774 -2.38525 0
M  V30 1508 C 138.453 2.28861 -3.87224 0
M  V30 1509 C 139.772 3.71939 -2.35264 0
M  V30 1510 H 136.891 0.534713 -0.5072 0
M  V30 1511 H 139.533 0.812375 -1.71757 0
M  V30 1512 H 137.683 3.26238 -2.10953 0
M  V30 1513 H 139.355 1.77852 -4.25636 0
M  V30 1514 H 137.598 1.60824 -4.02887 0
M  V30 1515 H 138.269 3.16584 -4.52193 0
M  V30 1516 H 140.745 3.25113 -2.59694 0
M  V30 1517 H 139.621 4.55186 -3.06753 0
M  V30 1518 H 139.882 4.20484 -1.36549 0
M  V30 1519 N 138.941 1.26152 0.944643 0
M  V30 1520 C 140.166 1.14363 1.7302 0
M  V30 1521 C 140.591 -0.29772 1.85729 0
M  V30 1522 O 139.949 -1.2157 1.34501 0
M  V30 1523 C 139.997 1.81378 3.11664 0
M  V30 1524 O 139.101 1.10022 3.97453 0
M  V30 1525 H 138.442 0.398694 0.53098 0
M  V30 1526 H 140.972 1.66906 1.18337 0
M  V30 1527 H 140.982 1.88064 3.62072 0
M  V30 1528 H 139.657 2.86237 3.0173 0
M  V30 1529 H 138.234 1.11287 3.55907 0
M  V30 1530 N 140.419 -1.14872 1.07899 0
M  V30 1531 C 141.644 -1.90202 0.826926 0
M  V30 1532 C 142.069 -1.77774 -0.614664 0
M  V30 1533 O 141.427 -1.11431 -1.43013 0
M  V30 1534 C 141.475 -3.38352 1.24702 0
M  V30 1535 O 140.579 -4.10497 0.39575 0
M  V30 1536 H 139.92 -0.591968 0.300782 0
M  V30 1537 H 142.45 -1.45437 1.43907 0
M  V30 1538 H 142.46 -3.89156 1.22563 0
M  V30 1539 H 141.135 -3.46715 2.29698 0
M  V30 1540 H 139.712 -3.69796 0.480117 0
M  V30 1541 N 141.898 -0.863906 -1.31812 0
M  V30 1542 C 143.123 -0.48527 -2.01643 0
M  V30 1543 C 143.548 0.913058 -1.64453 0
M  V30 1544 O 142.906 1.6014 -0.849985 0
M  V30 1545 C 142.954 -0.642625 -3.54828 0
M  V30 1546 O 142.058 0.320659 -4.11151 0
M  V30 1547 H 141.399 -0.193793 -0.635091 0
M  V30 1548 H 143.929 -1.16565 -1.68148 0
M  V30 1549 H 143.939 -0.533628 -4.04495 0
M  V30 1550 H 142.614 -1.66227 -3.81237 0
M  V30 1551 H 141.191 0.167126 -3.72525 0
M  V30 1552 N 143.376 1.44774 -0.622745 0
M  V30 1553 C 144.601 2.06999 -0.128968 0
M  V30 1554 C 145.026 1.4617 1.1839 0
M  V30 1555 O 144.384 0.560007 1.72434 0
M  V30 1556 C 144.432 3.60595 -0.0188351 0
M  V30 1557 O 143.536 3.99398 1.02739 0
M  V30 1558 H 142.877 0.659047 -0.0809544 0
M  V30 1559 H 145.407 1.85784 -0.85705 0
M  V30 1560 H 145.417 4.07627 0.174476 0
M  V30 1561 H 144.092 4.04252 -0.977384 0
M  V30 1562 H 142.669 3.64011 0.809326 0
M  V30 1563 N 144.854 0.36279 1.53368 0
M  V30 1564 C 146.102 -0.227326 2.00817 0
M  V30 1565 C 146.423 -1.49511 1.25186 0
M  V30 1566 O 145.693 -1.92482 0.364348 0
M  V30 1567 H 144.273 -0.0869923 0.741917 0
M  V30 1568 H 146.935 0.488381 1.88682 0
M  V30 1569 H 146.031 -0.456273 3.08747 0
M  V30 1570 N 146.332 -1.57332 0.0918853 0
M  V30 1571 C 147.279 -2.13847 -0.868211 0
M  V30 1572 C 148.249 -1.05618 -1.28196 0
M  V30 1573 O 149.434 -1.33387 -1.36427 0
M  V30 1574 C 146.574 -2.72062 -2.12312 0
M  V30 1575 C 145.687 -3.94514 -1.7602 0
M  V30 1576 C 144.822 -4.40903 -2.96273 0
M  V30 1577 C 143.861 -5.55953 -2.56092 0
M  V30 1578 N 142.998 -5.97209 -3.69169 0
M  V30 1579 H 147.838 -2.95575 -0.379406 0
M  V30 1580 H 145.375 -1.46048 -0.175606 0
M  V30 1581 H 147.333 -3.03931 -2.858 0
M  V30 1582 H 145.963 -1.93068 -2.58698 0
M  V30 1583 H 145.015 -3.68979 -0.925135 0
M  V30 1584 H 146.327 -4.7802 -1.42472 0
M  V30 1585 H 145.481 -4.74539 -3.78018 0
M  V30 1586 H 144.22 -3.56291 -3.33029 0
M  V30 1587 H 143.225 -5.21948 -1.72773 0
M  V30 1588 H 144.45 -6.42311 -2.20484 0
M  V30 1589 H 142.396 -5.15543 -4.05649 0
M  V30 1590 H 142.313 -6.75504 -3.39456 0
M  V30 1591 H 143.581 -6.35475 -4.51434 0
M  V30 1592 N 147.81 0.181792 -1.56548 0
M  V30 1593 C 149.087 0.926765 -1.72251 0
M  V30 1594 C 149.467 2.00831 -0.650386 0
M  V30 1595 O 148.815 2.26008 0.336521 0
M  V30 1596 C 149.025 1.50106 -3.1507 0
M  V30 1597 C 150.373 1.97805 -3.75711 0
M  V30 1598 O 151.397 1.59922 -3.18282 0
M  V30 1599 O 150.256 2.67555 -4.76525 0
M  V30 1600 H 147.35 0.435506 -0.703039 0
M  V30 1601 H 149.896 0.170443 -1.68842 0
M  V30 1602 H 148.668 0.72212 -3.84579 0
M  V30 1603 H 148.291 2.32186 -3.22763 0
M  V30 1604 N 149.288 1.51039 0.449983 0
M  V30 1605 C 150.513 1.6715 1.22783 0
M  V30 1606 C 150.938 0.363081 1.84563 0
M  V30 1607 O 150.296 -0.675433 1.68249 0
M  V30 1608 C 150.344 2.77985 2.29689 0
M  V30 1609 O 149.448 2.40707 3.34864 0
M  V30 1610 H 148.789 0.557746 0.360299 0
M  V30 1611 H 151.319 1.97535 0.533005 0
M  V30 1612 H 151.329 3.01693 2.74673 0
M  V30 1613 H 150.004 3.72935 1.84098 0
M  V30 1614 H 148.581 2.27523 2.95445 0
M  V30 1615 N 150.766 -0.704594 1.40972 0
M  V30 1616 C 152.012 -1.46675 1.40051 0
M  V30 1617 C 152.345 -1.94199 0.00641102 0
M  V30 1618 O 151.62 -1.68916 -0.964235 0
M  V30 1619 C 151.903 -2.68505 2.39952 0
M  V30 1620 C 151.756 -2.26805 3.88432 0
M  V30 1621 C 153.075 -3.70686 2.37233 0
M  V30 1622 H 150.194 -0.532015 0.510028 0
M  V30 1623 H 152.836 -0.803255 1.72185 0
M  V30 1624 H 150.986 -3.25114 2.1268 0
M  V30 1625 H 152.658 -1.75592 4.26574 0
M  V30 1626 H 150.901 -1.58685 4.03734 0
M  V30 1627 H 151.572 -3.14181 4.53866 0
M  V30 1628 H 154.048 -3.23731 2.61415 0
M  V30 1629 H 152.924 -4.53553 3.09162 0
M  V30 1630 H 153.185 -4.19754 1.38777 0
M  V30 1631 N 152.244 -1.26651 -0.937939 0
M  V30 1632 C 153.469 -1.15279 -1.72411 0
M  V30 1633 C 153.894 0.287866 -1.85884 0
M  V30 1634 O 153.252 1.20855 -1.35143 0
M  V30 1635 C 153.3 -1.83028 -3.10698 0
M  V30 1636 O 152.404 -1.12128 -3.96864 0
M  V30 1637 H 151.745 -0.401504 -0.528858 0
M  V30 1638 H 154.275 -1.67531 -1.1745 0
M  V30 1639 H 154.285 -1.89981 -3.6107 0
M  V30 1640 H 152.96 -2.87833 -3.00208 0
M  V30 1641 H 151.537 -1.13173 -3.55312 0
M  V30 1642 N 153.722 1.14298 -1.08507 0
M  V30 1643 C 154.97 1.84993 -0.813763 0
M  V30 1644 C 155.291 1.83405 0.662393 0
M  V30 1645 O 154.561 1.28319 1.48024 0
M  V30 1646 H 153.141 0.684966 -0.298045 0
M  V30 1647 H 155.803 1.385 -1.37126 0
M  V30 1648 H 154.899 2.89788 -1.15884 0
M  V30 1649 N 155.201 0.870884 1.31352 0
M  V30 1650 C 156.45 0.478408 1.95944 0
M  V30 1651 C 156.763 -0.974493 1.69597 0
M  V30 1652 O 157.969 -1.47316 2.28058 0
M  V30 1653 C 156.425 0.804609 3.50791 0
M  V30 1654 C 156.033 2.27433 3.85977 0
M  V30 1655 C 157.777 0.480648 4.2177 0
M  V30 1656 C 155.684 2.5429 5.33939 0
M  V30 1657 H 154.614 0.175175 0.733369 0
M  V30 1658 H 157.265 1.06391 1.4951 0
M  V30 1659 H 155.647 0.148347 3.95722 0
M  V30 1660 H 156.821 2.97373 3.52002 0
M  V30 1661 H 155.136 2.56442 3.28065 0
M  V30 1662 H 157.733 0.658519 5.30629 0
M  V30 1663 H 158.076 -0.578979 4.12254 0
M  V30 1664 H 158.609 1.09349 3.82476 0
M  V30 1665 H 155.348 3.58939 5.48491 0
M  V30 1666 H 154.868 1.88945 5.69263 0
M  V30 1667 H 156.547 2.39066 6.01212 0
M  V30 1668 N 156.679 -1.44442 0.630414 0
M  V30 1669 C 157.907 -2.06414 0.141671 0
M  V30 1670 C 158.322 -1.47105 -1.18345 0
M  V30 1671 O 157.679 -0.593662 -1.72574 0
M  V30 1672 C 157.73 -3.61494 0.0199784 0
M  V30 1673 O 157.451 -4.18594 1.29269 0
M  V30 1674 C 158.952 -4.40499 -0.497544 0
M  V30 1675 H 156.172 -0.666292 0.0793452 0
M  V30 1676 H 158.716 -1.85323 0.864614 0
M  V30 1677 H 156.871 -3.8185 -0.653402 0
M  V30 1678 H 157.285 -5.12026 1.13707 0
M  V30 1679 H 158.759 -5.49433 -0.531708 0
M  V30 1680 H 159.236 -4.11895 -1.52445 0
M  V30 1681 H 159.842 -4.25061 0.142562 0
M  V30 1682 N 158.157 -0.370918 -1.53173 0
M  V30 1683 C 159.382 0.220293 -2.06227 0
M  V30 1684 C 159.807 1.41243 -1.24225 0
M  V30 1685 O 159.165 1.79387 -0.262645 0
M  V30 1686 C 159.213 0.586663 -3.55796 0
M  V30 1687 O 158.317 1.68317 -3.76488 0
M  V30 1688 H 157.658 0.0308099 -0.663285 0
M  V30 1689 H 160.188 -0.533068 -1.97534 0
M  V30 1690 H 160.198 0.85617 -3.98916 0
M  V30 1691 H 158.873 -0.285013 -4.14922 0
M  V30 1692 H 157.45 1.40881 -3.45264 0
M  V30 1693 N 159.635 1.57281 -0.100228 0
M  V30 1694 C 160.865 1.98591 0.569681 0
M  V30 1695 C 161.273 0.978315 1.61943 0
M  V30 1696 O 160.616 -0.0396108 1.83657 0
M  V30 1697 C 160.678 3.36282 1.271 0
M  V30 1698 C 160.342 4.55488 0.371409 0
M  V30 1699 C 161.339 5.18491 -0.382504 0
M  V30 1700 C 159.024 5.01474 0.287965 0
M  V30 1701 C 161.018 6.25852 -1.20779 0
M  V30 1702 C 158.705 6.08701 -0.540965 0
M  V30 1703 C 159.703 6.70755 -1.28749 0
M  V30 1704 O 159.391 7.75914 -2.10269 0
M  V30 1705 H 159.123 0.65752 0.156982 0
M  V30 1706 H 161.677 2.0463 -0.177734 0
M  V30 1707 H 159.907 3.26941 2.0651 0
M  V30 1708 H 161.596 3.62005 1.83595 0
M  V30 1709 H 162.362 4.83891 -0.3278 0
M  V30 1710 H 158.241 4.52932 0.858689 0
M  V30 1711 H 161.785 6.74218 -1.79096 0
M  V30 1712 H 157.682 6.42732 -0.597131 0
M  V30 1713 H 158.45 7.92925 -2.03007 0
M  V30 1714 N 161.113 -0.173488 1.56642 0
M  V30 1715 C 162.359 -0.891784 1.8214 0
M  V30 1716 C 162.692 -1.8199 0.677736 0
M  V30 1717 O 161.967 -1.91842 -0.320446 0
M  V30 1718 C 162.25 -1.68933 3.18015 0
M  V30 1719 C 162.103 -0.784487 4.42906 0
M  V30 1720 C 163.422 -2.65748 3.50808 0
M  V30 1721 H 160.541 -0.322761 0.662567 0
M  V30 1722 H 163.183 -0.158095 1.89341 0
M  V30 1723 H 161.333 -2.31482 3.12007 0
M  V30 1724 H 163.005 -0.172046 4.60979 0
M  V30 1725 H 161.248 -0.0924117 4.33702 0
M  V30 1726 H 161.919 -1.37799 5.34524 0
M  V30 1727 H 164.395 -2.13327 3.57255 0
M  V30 1728 H 163.271 -3.18619 4.4696 0
M  V30 1729 H 163.532 -3.45842 2.75401 0
M  V30 1730 N 162.591 -1.51276 -0.441967 0
M  V30 1731 C 164.007 -1.39349 -0.778083 0
M  V30 1732 C 164.207 -0.472212 -1.95889 0
M  V30 1733 O 163.263 0.0743551 -2.5239 0
M  V30 1734 C 164.576 -2.81292 -1.0628 0
M  V30 1735 C 166.124 -2.9041 -1.16751 0
M  V30 1736 C 166.599 -4.33251 -1.48519 0
M  V30 1737 N 168.09 -4.36336 -1.55453 0
M  V30 1738 C 168.825 -5.43885 -1.81596 0
M  V30 1739 N 168.321 -6.61601 -2.05562 0
M  V30 1740 N 170.114 -5.3136 -1.8334 0
M  V30 1741 H 162.265 -2.09729 0.335774 0
M  V30 1742 H 164.528 -0.943925 0.0878028 0
M  V30 1743 H 164.234 -3.50678 -0.267905 0
M  V30 1744 H 164.108 -3.20334 -1.99163 0
M  V30 1745 H 166.495 -2.21225 -1.95304 0
M  V30 1746 H 166.576 -2.54871 -0.217801 0
M  V30 1747 H 166.22 -5.02984 -0.704958 0
M  V30 1748 H 166.15 -4.66299 -2.44689 0
M  V30 1749 H 168.641 -3.51466 -1.38853 0
M  V30 1750 H 168.954 -7.39361 -2.24867 0
M  V30 1751 H 167.299 -6.64725 -2.02894 0
M  V30 1752 H 170.49 -4.38382 -1.64132 0
M  V30 1753 H 170.663 -6.15258 -2.03377 0
M  V30 1754 N 164.069 0.697108 -1.41344 0
M  V30 1755 C 165.297 1.48593 -1.43972 0
M  V30 1756 C 165.712 1.88747 -0.0445612 0
M  V30 1757 O 165.069 1.56682 0.935785 0
M  V30 1758 C 165.12 2.74946 -2.34706 0
M  V30 1759 O 164.841 2.36484 -3.68791 0
M  V30 1760 C 166.342 3.687 -2.46121 0
M  V30 1761 H 163.562 0.457964 -0.490418 0
M  V30 1762 H 166.106 0.858429 -1.8561 0
M  V30 1763 H 164.261 3.33937 -1.9638 0
M  V30 1764 H 164.675 3.17918 -4.17167 0
M  V30 1765 H 166.149 4.54145 -3.13777 0
M  V30 1766 H 166.626 4.13081 -1.49199 0
M  V30 1767 H 167.232 3.15613 -2.85076 0
M  V30 1768 N 165.547 1.27147 0.931209 0
M  V30 1769 C 166.793 1.13446 1.68101 0
M  V30 1770 C 167.126 -0.319628 1.91552 0
M  V30 1771 O 166.401 -1.23407 1.50336 0
M  V30 1772 C 166.684 1.91482 3.0497 0
M  V30 1773 C 166.537 3.44855 2.88782 0
M  V30 1774 C 167.856 1.71651 4.05246 0
M  V30 1775 H 164.975 0.413498 0.610072 0
M  V30 1776 H 167.617 1.56261 1.08086 0
M  V30 1777 H 165.767 1.55095 3.56199 0
M  V30 1778 H 167.439 3.9105 2.44698 0
M  V30 1779 H 165.682 3.71373 2.24198 0
M  V30 1780 H 166.353 3.94694 3.85902 0
M  V30 1781 H 168.829 2.0337 3.63015 0
M  V30 1782 H 167.705 2.28651 4.99009 0
M  V30 1783 H 167.966 0.663555 4.37092 0
M  V30 1784 N 167.025 -1.13721 1.09112 0
M  V30 1785 C 167.955 -2.21148 0.749385 0
M  V30 1786 C 168.936 -1.6792 -0.271475 0
M  V30 1787 O 170.121 -1.93693 -0.140251 0
M  V30 1788 C 167.251 -3.46905 0.165659 0
M  V30 1789 C 166.205 -4.13203 1.11567 0
M  V30 1790 C 165.531 -5.33248 0.393809 0
M  V30 1791 C 166.831 -4.60912 2.45678 0
M  V30 1792 H 168.525 -2.4999 1.64758 0
M  V30 1793 H 166.071 -1.20156 0.793626 0
M  V30 1794 H 168.024 -4.21313 -0.085466 0
M  V30 1795 H 166.748 -3.17449 -0.767714 0
M  V30 1796 H 165.407 -3.40758 1.35202 0
M  V30 1797 H 165.055 -5.00054 -0.543599 0
M  V30 1798 H 164.755 -5.78552 1.02721 0
M  V30 1799 H 166.279 -6.10413 0.150908 0
M  V30 1800 H 167.693 -5.26759 2.26269 0
M  V30 1801 H 166.09 -5.16944 3.04776 0
M  V30 1802 H 167.16 -3.75603 3.06677 0
M  V30 1803 N 168.503 -0.877838 -1.30888 0
M  V30 1804 C 169.743 -0.499301 -1.98208 0
M  V30 1805 C 170.107 0.932649 -1.67826 0
M  V30 1806 O 171.308 1.41694 -2.28421 0
M  V30 1807 C 169.579 -0.758221 -3.49265 0
M  V30 1808 S 171.138 -0.480719 -4.36159 0
M  V30 1809 H 167.956 -0.186062 -0.686223 0
M  V30 1810 H 170.558 -1.13556 -1.59139 0
M  V30 1811 H 169.262 -1.79903 -3.68867 0
M  V30 1812 H 168.793 -0.109247 -3.93248 0
M  V30 1813 H 170.808 0.683698 -4.91467 0
M  V30 1814 N 169.982 1.44106 -0.638065 0
M  V30 1815 C 170.892 2.34513 0.0637334 0
M  V30 1816 C 171.908 1.53018 0.828346 0
M  V30 1817 O 173.084 1.85723 0.779036 0
M  V30 1818 C 170.149 3.31095 1.02844 0
M  V30 1819 C 169.21 4.28497 0.26244 0
M  V30 1820 C 168.443 5.20465 1.1812 0
M  V30 1821 O 168.666 5.16514 2.42011 0
M  V30 1822 O 167.6 5.98251 0.661774 0
M  V30 1823 H 171.426 2.95989 -0.68003 0
M  V30 1824 H 169.011 1.43994 -0.398252 0
M  V30 1825 H 170.893 3.90526 1.58327 0
M  V30 1826 H 169.568 2.72144 1.7527 0
M  V30 1827 H 168.475 3.72592 -0.335602 0
M  V30 1828 H 169.808 4.90388 -0.421936 0
M  V30 1829 N 171.46 0.379036 1.52974 0
M  V30 1830 C 172.708 -0.206014 2.01047 0
M  V30 1831 C 173.029 -1.48175 1.26765 0
M  V30 1832 O 172.299 -1.92085 0.384743 0
M  V30 1833 H 170.879 -0.0791184 0.742798 0
M  V30 1834 H 173.541 0.508366 1.88153 0
M  V30 1835 H 172.637 -0.423501 3.09213 0
M  V30 1836 N 172.938 -1.57226 0.108567 0
M  V30 1837 C 174.186 -1.94448 -0.550853 0
M  V30 1838 C 174.507 -0.992074 -1.67878 0
M  V30 1839 O 173.777 -0.0465 -1.95845 0
M  V30 1840 H 172.357 -0.717897 -0.206479 0
M  V30 1841 H 175.019 -1.94112 0.175062 0
M  V30 1842 H 174.115 -2.97218 -0.952259 0
M  V30 1843 N 174.416 0.165178 -1.56732 0
M  V30 1844 C 175.662 0.882112 -1.82611 0
M  V30 1845 C 175.995 1.81628 -0.687378 0
M  V30 1846 O 175.27 1.92009 0.310267 0
M  V30 1847 C 175.553 1.67245 -3.18906 0
M  V30 1848 C 175.406 0.760987 -4.43316 0
M  V30 1849 C 176.725 2.63884 -3.52212 0
M  V30 1850 H 173.844 0.319242 -0.664269 0
M  V30 1851 H 176.486 0.148052 -1.89422 0
M  V30 1852 H 174.636 2.29824 -3.1323 0
M  V30 1853 H 176.308 0.147596 -4.61064 0
M  V30 1854 H 174.551 0.0694102 -4.33744 0
M  V30 1855 H 175.222 1.34962 -5.35247 0
M  V30 1856 H 177.698 2.11429 -3.58381 0
M  V30 1857 H 176.574 3.16245 -4.48643 0
M  V30 1858 H 176.835 3.44377 -2.77231 0
M  V30 1859 N 175.894 1.51508 0.433938 0
M  V30 1860 C 177.305 1.56784 1.01369 0
M  V30 1861 C 177.656 0.393349 1.92217 0
M  V30 1862 O 176.781 -0.489441 2.10792 0
M  V30 1863 C 177.376 2.84144 1.8452 0
M  V30 1864 C 175.935 2.9198 2.37539 0
M  V30 1865 C 175.082 2.51482 1.16843 0
M  V30 1866 H 178.033 1.57236 0.215081 0
M  V30 1867 H 178.054 2.68098 2.70007 0
M  V30 1868 H 177.566 3.69607 1.18373 0
M  V30 1869 H 175.667 2.10955 3.0713 0
M  V30 1870 H 175.78 3.95704 2.70103 0
M  V30 1871 H 174.144 2.04758 1.51481 0
M  V30 1872 H 174.927 3.39293 0.523015 0
M  V30 1873 N 177.372 -0.689602 1.41712 0
M  V30 1874 C 178.304 -1.815 1.39966 0
M  V30 1875 C 179.317 -1.59995 0.300917 0
M  V30 1876 O 180.506 -1.69387 0.563039 0
M  V30 1877 C 177.606 -3.18364 1.16179 0
M  V30 1878 C 176.779 -3.66847 2.38206 0
M  V30 1879 C 175.838 -4.82398 2.10186 0
M  V30 1880 O 174.864 -4.93706 2.83272 0
M  V30 1881 N 176.066 -5.70064 1.0958 0
M  V30 1882 H 178.831 -1.83488 2.36965 0
M  V30 1883 H 176.392 -0.872149 1.36401 0
M  V30 1884 H 178.384 -3.93301 0.953756 0
M  V30 1885 H 176.954 -3.11365 0.27756 0
M  V30 1886 H 176.174 -2.82751 2.74673 0
M  V30 1887 H 177.462 -3.95978 3.19498 0
M  V30 1888 H 176.86 -5.63565 0.491019 0
M  V30 1889 H 175.417 -6.44874 0.947656 0
M  V30 1890 N 178.85 -1.27639 -0.924453 0
M  V30 1891 C 180.266 -1.05113 -1.20097 0
M  V30 1892 C 180.466 0.213262 -2.00368 0
M  V30 1893 O 179.522 0.91787 -2.35226 0
M  V30 1894 C 180.835 -2.29244 -1.94596 0
M  V30 1895 C 182.383 -2.34315 -2.07522 0
M  V30 1896 C 182.858 -3.58183 -2.85427 0
M  V30 1897 N 184.349 -3.5876 -2.92994 0
M  V30 1898 C 185.084 -4.51277 -3.53746 0
M  V30 1899 N 184.58 -5.54102 -4.15863 0
M  V30 1900 N 186.373 -4.38894 -3.51181 0
M  V30 1901 H 178.524 -2.08821 -0.388264 0
M  V30 1902 H 180.787 -0.918568 -0.234385 0
M  V30 1903 H 180.493 -3.21301 -1.43034 0
M  V30 1904 H 180.367 -2.34816 -2.95197 0
M  V30 1905 H 182.754 -1.42762 -2.58269 0
M  V30 1906 H 182.835 -2.32744 -1.06131 0
M  V30 1907 H 182.479 -4.50074 -2.35363 0
M  V30 1908 H 182.409 -3.57006 -3.8711 0
M  V30 1909 H 184.9 -2.84398 -2.4885 0
M  V30 1910 H 185.213 -6.20859 -4.60168 0
M  V30 1911 H 183.558 -5.57941 -4.144 0
M  V30 1912 H 186.749 -3.57772 -3.01856 0
M  V30 1913 H 186.922 -5.11186 -3.98237 0
M  V30 1914 N 180.328 1.1314 -1.09713 0
M  V30 1915 C 181.739 1.66029 -0.853885 0
M  V30 1916 C 182.09 1.86241 0.617142 0
M  V30 1917 O 181.215 1.5834 1.47503 0
M  V30 1918 C 181.81 3.01599 -1.5435 0
M  V30 1919 C 180.369 3.51467 -1.34714 0
M  V30 1920 C 179.516 2.26648 -1.59769 0
M  V30 1921 H 182.467 0.970226 -1.25588 0
M  V30 1922 H 182.488 3.67709 -0.978267 0
M  V30 1923 H 182 2.86856 -2.6141 0
M  V30 1924 H 180.101 3.71408 -0.297838 0
M  V30 1925 H 180.214 4.314 -2.08401 0
M  V30 1926 H 178.578 2.33385 -1.01998 0
M  V30 1927 H 179.361 2.14467 -2.68065 0
M  V30 1928 N 181.806 0.884767 1.30421 0
M  V30 1929 C 183.052 0.503851 1.96441 0
M  V30 1930 C 183.385 -0.944518 1.69684 0
M  V30 1931 O 182.66 -1.66737 1.00145 0
M  V30 1932 C 182.943 0.779085 3.51571 0
M  V30 1933 C 182.796 2.27807 3.87846 0
M  V30 1934 C 184.115 0.255452 4.39358 0
M  V30 1935 H 181.234 0.184533 0.713524 0
M  V30 1936 H 183.876 1.10872 1.54297 0
M  V30 1937 H 182.026 0.264274 3.876 0
M  V30 1938 H 183.698 2.86127 3.61841 0
M  V30 1939 H 181.941 2.74479 3.35922 0
M  V30 1940 H 182.612 2.42125 4.96064 0
M  V30 1941 H 185.088 0.696079 4.10236 0
M  V30 1942 H 183.964 0.477361 5.4682 0
M  V30 1943 H 184.225 -0.843293 4.33983 0
M  V30 1944 N 183.284 -1.43765 0.645699 0
M  V30 1945 C 184.53 -2.02197 0.156271 0
M  V30 1946 C 184.863 -1.50776 -1.22393 0
M  V30 1947 O 184.138 -0.697771 -1.81553 0
M  V30 1948 C 184.421 -3.59749 0.158872 0
M  V30 1949 C 184.274 -4.21419 1.57245 0
M  V30 1950 C 185.593 -4.37149 -0.50879 0
M  V30 1951 H 182.712 -0.734694 0.0582602 0
M  V30 1952 H 185.354 -1.71157 0.824951 0
M  V30 1953 H 183.504 -3.86325 -0.410525 0
M  V30 1954 H 185.176 -4.059 2.19186 0
M  V30 1955 H 183.419 -3.78356 2.122 0
M  V30 1956 H 184.09 -5.30482 1.52619 0
M  V30 1957 H 186.566 -4.16093 -0.024412 0
M  V30 1958 H 185.442 -5.4683 -0.476213 0
M  V30 1959 H 185.703 -4.12839 -1.58165 0
M  V30 1960 N 184.763 -0.387143 -1.52771 0
M  V30 1961 C 186.01 0.195735 -2.01552 0
M  V30 1962 C 186.338 1.46995 -1.27369 0
M  V30 1963 O 185.593 1.92325 -0.361879 0
M  V30 1964 C 185.892 0.512209 -3.53711 0
M  V30 1965 C 185.558 -0.670202 -4.45891 0
M  V30 1966 C 184.22 -0.994586 -4.70809 0
M  V30 1967 C 186.572 -1.46134 -5.00294 0
M  V30 1968 C 183.9 -2.11169 -5.4738 0
M  V30 1969 C 186.252 -2.56903 -5.78086 0
M  V30 1970 C 184.916 -2.89852 -6.01284 0
M  V30 1971 H 184.186 0.0716246 -0.73753 0
M  V30 1972 H 186.833 -0.524046 -1.8419 0
M  V30 1973 H 185.138 1.31329 -3.69134 0
M  V30 1974 H 186.835 0.975804 -3.88946 0
M  V30 1975 H 183.425 -0.407366 -4.2666 0
M  V30 1976 H 187.609 -1.22397 -4.80971 0
M  V30 1977 H 182.865 -2.3707 -5.63567 0
M  V30 1978 H 187.039 -3.18608 -6.19243 0
M  V30 1979 H 184.666 -3.76533 -6.60399 0
M  V30 1980 N 186.241 1.57166 -0.116904 0
M  V30 1981 C 187.487 1.95412 0.542405 0
M  V30 1982 C 187.82 1.00019 1.66463 0
M  V30 1983 O 187.095 0.0370346 1.94465 0
M  V30 1984 C 187.378 3.43615 1.07708 0
M  V30 1985 C 187.231 4.49781 -0.0415868 0
M  V30 1986 C 188.55 3.93616 1.96861 0
M  V30 1987 H 185.669 0.710543 0.195696 0
M  V30 1988 H 188.311 1.89027 -0.192038 0
M  V30 1989 H 186.461 3.49187 1.70296 0
M  V30 1990 H 188.133 4.56308 -0.676793 0
M  V30 1991 H 186.376 4.28033 -0.705019 0
M  V30 1992 H 187.047 5.50733 0.373717 0
M  V30 1993 H 189.523 3.90335 1.44146 0
M  V30 1994 H 188.399 4.97838 2.3119 0
M  V30 1995 H 188.66 3.34188 2.89432 0
M  V30 1996 N 187.719 -0.156864 1.56817 0
M  V30 1997 C 188.947 -0.886316 1.86955 0
M  V30 1998 C 189.362 -1.75185 0.703975 0
M  V30 1999 O 188.719 -1.79555 -0.326552 0
M  V30 2000 C 188.77 -1.75117 3.16253 0
M  V30 2001 O 188.491 -0.920537 4.2832 0
M  V30 2002 C 189.992 -2.58905 3.59837 0
M  V30 2003 H 187.212 -0.25678 0.619923 0
M  V30 2004 H 189.756 -0.152615 2.0393 0
M  V30 2005 H 187.911 -2.43805 3.01062 0
M  V30 2006 H 188.325 -1.51337 5.02192 0
M  V30 2007 H 189.799 -3.1518 4.53172 0
M  V30 2008 H 190.276 -3.34472 2.84649 0
M  V30 2009 H 190.882 -1.95526 3.7769 0
M  V30 2010 N 189.197 -1.51736 -0.425897 0
M  V30 2011 C 190.613 -1.40166 -0.76326 0
M  V30 2012 C 190.813 -0.492962 -1.95377 0
M  V30 2013 O 189.869 0.0475815 -2.52455 0
M  V30 2014 C 191.182 -2.82403 -1.03291 0
M  V30 2015 C 192.73 -2.91632 -1.13665 0
M  V30 2016 C 193.205 -4.34801 -1.43916 0
M  V30 2017 N 194.696 -4.3796 -1.50816 0
M  V30 2018 C 195.431 -5.4578 -1.75817 0
M  V30 2019 N 194.927 -6.63744 -1.98534 0
M  V30 2020 N 196.72 -5.33274 -1.77694 0
M  V30 2021 H 188.871 -2.09361 0.358 0
M  V30 2022 H 191.134 -0.942941 0.0978094 0
M  V30 2023 H 190.84 -3.50943 -0.230696 0
M  V30 2024 H 190.714 -3.22428 -1.95754 0
M  V30 2025 H 193.101 -2.23284 -1.92947 0
M  V30 2026 H 193.182 -2.55088 -0.190756 0
M  V30 2027 H 192.826 -5.03703 -0.65157 0
M  V30 2028 H 192.756 -4.68868 -2.39729 0
M  V30 2029 H 195.247 -3.52919 -1.35118 0
M  V30 2030 H 195.56 -7.41704 -2.17013 0
M  V30 2031 H 193.905 -6.66839 -1.95832 0
M  V30 2032 H 197.096 -4.40098 -1.59473 0
M  V30 2033 H 197.269 -6.1738 -1.9684 0
M  V30 2034 N 190.675 0.682077 -1.42076 0
M  V30 2035 C 191.622 1.79578 -1.44984 0
M  V30 2036 C 192.592 1.6332 -0.302614 0
M  V30 2037 O 193.777 1.83978 -0.505633 0
M  V30 2038 C 190.917 3.1756 -1.35091 0
M  V30 2039 C 190.03 3.45156 -2.59791 0
M  V30 2040 C 189.165 4.72826 -2.42093 0
M  V30 2041 C 188.204 4.93433 -3.62202 0
M  V30 2042 N 187.341 6.12338 -3.43491 0
M  V30 2043 H 192.181 1.76427 -2.40161 0
M  V30 2044 H 189.718 0.861376 -1.19242 0
M  V30 2045 H 191.676 3.97287 -1.27354 0
M  V30 2046 H 190.306 3.19854 -0.435133 0
M  V30 2047 H 189.358 2.59736 -2.77923 0
M  V30 2048 H 190.67 3.5628 -3.49094 0
M  V30 2049 H 189.824 5.60631 -2.319 0
M  V30 2050 H 188.563 4.63973 -1.50268 0
M  V30 2051 H 187.568 4.04073 -3.72834 0
M  V30 2052 H 188.793 5.04136 -4.54998 0
M  V30 2053 H 186.739 6.04672 -2.54377 0
M  V30 2054 H 186.656 6.2429 -4.26377 0
M  V30 2055 H 187.924 7.02841 -3.37097 0
M  V30 2056 N 192.153 1.28127 0.917671 0
M  V30 2057 C 193.1 1.11717 2.0196 0
M  V30 2058 C 194.07 0.0153929 1.66093 0
M  V30 2059 O 195.255 0.179596 1.89953 0
M  V30 2060 C 192.395 0.780927 3.36148 0
M  V30 2061 C 191.508 1.96135 3.84909 0
M  V30 2062 C 190.643 1.56609 5.0759 0
M  V30 2063 C 189.682 2.71339 5.48673 0
M  V30 2064 N 188.819 2.32332 6.62545 0
M  V30 2065 H 193.659 2.06003 2.15329 0
M  V30 2066 H 191.196 1.02535 1.05475 0
M  V30 2067 H 193.154 0.56675 4.13333 0
M  V30 2068 H 191.784 -0.124998 3.22558 0
M  V30 2069 H 190.836 2.28777 3.03916 0
M  V30 2070 H 192.148 2.82165 4.1132 0
M  V30 2071 H 191.302 1.31374 5.92305 0
M  V30 2072 H 190.041 0.677014 4.82978 0
M  V30 2073 H 189.046 2.97276 4.62501 0
M  V30 2074 H 190.271 3.60882 5.75274 0
M  V30 2075 H 188.217 1.45889 6.39572 0
M  V30 2076 H 188.134 3.11899 6.88662 0
M  V30 2077 H 189.402 2.10371 7.50576 0
M  V30 2078 N 193.631 -1.12557 1.10312 0
M  V30 2079 C 194.561 -2.20341 0.772798 0
M  V30 2080 C 195.542 -1.68198 -0.25365 0
M  V30 2081 O 196.727 -1.93831 -0.119699 0
M  V30 2082 C 193.857 -3.46709 0.202443 0
M  V30 2083 C 192.811 -4.11996 1.15943 0
M  V30 2084 C 192.137 -5.328 0.450345 0
M  V30 2085 C 193.437 -4.5828 2.50552 0
M  V30 2086 H 195.131 -2.48229 1.674 0
M  V30 2087 H 192.677 -1.19308 0.806326 0
M  V30 2088 H 194.63 -4.2138 -0.0407752 0
M  V30 2089 H 193.354 -3.18245 -0.734001 0
M  V30 2090 H 192.013 -3.39305 1.38808 0
M  V30 2091 H 191.661 -5.00602 -0.490531 0
M  V30 2092 H 191.361 -5.7743 1.08851 0
M  V30 2093 H 192.885 -6.10219 0.215642 0
M  V30 2094 H 194.299 -5.2433 2.31843 0
M  V30 2095 H 192.696 -5.13683 3.10242 0
M  V30 2096 H 193.766 -3.72329 3.10643 0
M  V30 2097 N 195.109 -0.891671 -1.2995 0
M  V30 2098 C 196.355 -0.514261 -1.96171 0
M  V30 2099 C 196.688 0.935506 -1.70182 0
M  V30 2100 O 195.963 1.66204 -1.01028 0
M  V30 2101 C 196.246 -0.797719 -3.51153 0
M  V30 2102 C 196.099 -2.2986 -3.86632 0
M  V30 2103 C 197.418 -0.278749 -4.39216 0
M  V30 2104 H 194.537 -0.188314 -0.712535 0
M  V30 2105 H 197.179 -1.11689 -1.53706 0
M  V30 2106 H 195.329 -0.284826 -3.87455 0
M  V30 2107 H 197.001 -2.88042 -3.60319 0
M  V30 2108 H 195.244 -2.76257 -3.34462 0
M  V30 2109 H 195.915 -2.44753 -4.94773 0
M  V30 2110 H 198.391 -0.717825 -4.09862 0
M  V30 2111 H 197.267 -0.506353 -5.46559 0
M  V30 2112 H 197.528 0.820266 -4.34424 0
M  V30 2113 N 196.587 1.43421 -0.653314 0
M  V30 2114 C 197.535 2.32546 0.0501531 0
M  V30 2115 C 198.529 1.48617 0.812985 0
M  V30 2116 O 199.735 1.64825 0.723375 0
M  V30 2117 H 196.11 0.751185 0.0350032 0
M  V30 2118 H 198.081 2.89602 -0.719261 0
M  V30 2119 C 196.83 3.32925 1.00279 0
M  V30 2120 H 196.153 3.97532 0.425236 0
M  V30 2121 H 197.593 3.9792 1.46409 0
M  V30 2122 C 196.052 2.63532 2.09886 0
M  V30 2123 O 196.582 2.45092 3.18265 0
M  V30 2124 N 194.788 2.22905 1.86445 0
M  V30 2125 H 194.335 2.38103 0.98309 0
M  V30 2126 H 194.293 1.76805 2.59976 0
M  V30 2127 N 198.065 0.39524 1.52563 0
M  V30 2128 C 199.028 -0.425001 2.25225 0
M  V30 2129 C 200.028 -0.985266 1.27079 0
M  V30 2130 O 201.218 -0.866332 1.5113 0
M  V30 2131 C 198.35 -1.59686 3.01186 0
M  V30 2132 H 199.543 0.211233 2.99155 0
M  V30 2133 H 197.096 0.147472 1.55603 0
M  V30 2134 H 197.831 -2.27035 2.31572 0
M  V30 2135 H 197.616 -1.20176 3.73229 0
M  V30 2136 H 199.106 -2.17743 3.5634 0
M  V30 2137 N 199.544 -1.57102 0.125237 0
M  V30 2138 C 200.793 -1.94582 -0.531095 0
M  V30 2139 C 201.106 -1.01126 -1.6743 0
M  V30 2140 O 202.312 -1.28097 -2.39381 0
M  V30 2141 C 200.768 -3.45839 -0.996164 0
M  V30 2142 C 200.376 -4.47842 0.118926 0
M  V30 2143 C 202.12 -3.92227 -1.62352 0
M  V30 2144 C 200.027 -5.90284 -0.363192 0
M  V30 2145 H 198.957 -0.726391 -0.20217 0
M  V30 2146 H 201.608 -1.82339 0.206092 0
M  V30 2147 H 199.99 -3.53338 -1.78796 0
M  V30 2148 H 201.164 -4.52018 0.895358 0
M  V30 2149 H 199.479 -4.11243 0.653324 0
M  V30 2150 H 202.076 -4.96069 -1.99548 0
M  V30 2151 H 202.419 -3.32552 -2.50429 0
M  V30 2152 H 202.952 -3.87554 -0.897019 0
M  V30 2153 H 199.691 -6.53728 0.481679 0
M  V30 2154 H 199.211 -5.89515 -1.10597 0
M  V30 2155 H 200.89 -6.41752 -0.822377 0
M  V30 2156 N 201.022 0.148545 -1.56898 0
M  V30 2157 C 201.954 1.20852 -1.9475 0
M  V30 2158 C 202.967 1.39265 -0.843152 0
M  V30 2159 O 204.156 1.38864 -1.12156 0
M  V30 2160 C 201.256 2.57362 -2.20495 0
M  V30 2161 C 200.429 2.59947 -3.51776 0
M  V30 2162 C 199.488 3.77984 -3.6608 0
M  V30 2163 O 198.514 3.62929 -4.38487 0
M  V30 2164 N 199.716 4.95375 -3.02629 0
M  V30 2165 H 202.481 0.886804 -2.86279 0
M  V30 2166 H 200.042 0.338121 -1.5833 0
M  V30 2167 H 202.034 3.34833 -2.27307 0
M  V30 2168 H 200.604 2.81832 -1.35238 0
M  V30 2169 H 199.824 1.68403 -3.56419 0
M  V30 2170 H 201.112 2.58704 -4.38121 0
M  V30 2171 H 200.51 5.10509 -2.43715 0
M  V30 2172 H 199.067 5.70627 -3.15004 0
M  V30 2173 N 202.5 1.5196 0.417844 0
M  V30 2174 C 203.432 1.70895 1.52733 0
M  V30 2175 C 204.445 0.589405 1.51756 0
M  V30 2176 O 205.634 0.864312 1.56179 0
M  V30 2177 C 202.734 1.72627 2.91639 0
M  V30 2178 C 201.907 3.01479 3.16905 0
M  V30 2179 C 200.966 2.95139 4.35637 0
M  V30 2180 O 199.992 3.69059 4.3334 0
M  V30 2181 N 201.194 2.12328 5.40275 0
M  V30 2182 H 203.959 2.66612 1.36888 0
M  V30 2183 H 201.52 1.50089 0.607037 0
M  V30 2184 H 203.512 1.65928 3.6912 0
M  V30 2185 H 202.082 0.844216 3.00985 0
M  V30 2186 H 201.302 3.21895 2.27546 0
M  V30 2187 H 202.59 3.86736 3.30625 0
M  V30 2188 H 201.988 1.51685 5.44985 0
M  V30 2189 H 200.545 2.11494 6.16534 0
M  V30 2190 N 203.978 -0.674533 1.42435 0
M  V30 2191 C 204.925 -1.78807 1.45934 0
M  V30 2192 C 205.895 -1.63157 0.311271 0
M  V30 2193 O 207.08 -1.83707 0.515383 0
M  V30 2194 C 204.22 -3.16839 1.36773 0
M  V30 2195 C 203.333 -3.43774 2.61617 0
M  V30 2196 C 202.468 -4.71536 2.44597 0
M  V30 2197 C 201.507 -4.91505 3.64814 0
M  V30 2198 N 200.644 -6.10508 3.46734 0
M  V30 2199 H 205.484 -1.75151 2.41093 0
M  V30 2200 H 203.021 -0.85504 1.19697 0
M  V30 2201 H 204.979 -3.96606 1.29459 0
M  V30 2202 H 203.609 -3.19619 0.452089 0
M  V30 2203 H 202.661 -2.58259 2.79297 0
M  V30 2204 H 203.973 -3.54423 3.50978 0
M  V30 2205 H 203.127 -5.59393 2.3487 0
M  V30 2206 H 201.866 -4.6317 1.52726 0
M  V30 2207 H 200.871 -4.0209 3.74972 0
M  V30 2208 H 202.096 -5.01716 4.57665 0
M  V30 2209 H 200.042 -6.03315 2.5758 0
M  V30 2210 H 199.959 -6.2202 4.29682 0
M  V30 2211 H 201.227 -7.01044 3.40819 0
M  V30 2212 N 205.456 -1.28612 -0.910864 0
M  V30 2213 C 206.386 -1.15326 -2.03032 0
M  V30 2214 C 207.367 -0.0502924 -1.70026 0
M  V30 2215 O 208.552 -0.227797 -1.92859 0
M  V30 2216 C 205.682 -0.817343 -3.37545 0
M  V30 2217 C 204.636 -1.8754 -3.84724 0
M  V30 2218 C 203.962 -1.39305 -5.16235 0
M  V30 2219 C 205.262 -3.28244 -4.06267 0
M  V30 2220 H 206.956 -2.08975 -2.14406 0
M  V30 2221 H 204.502 -1.00612 -1.03021 0
M  V30 2222 H 206.455 -0.711151 -4.15356 0
M  V30 2223 H 205.179 0.154846 -3.26233 0
M  V30 2224 H 203.838 -1.97079 -3.09121 0
M  V30 2225 H 203.486 -0.409846 -5.01328 0
M  V30 2226 H 203.186 -2.10057 -5.48771 0
M  V30 2227 H 204.71 -1.30014 -5.96598 0
M  V30 2228 H 206.124 -3.21611 -4.74594 0
M  V30 2229 H 204.521 -3.96855 -4.5014 0
M  V30 2230 H 205.591 -3.72048 -3.10979 0
M  V30 2231 N 206.934 1.1197 -1.10907 0
M  V30 2232 C 208.159 1.87942 -0.877064 0
M  V30 2233 C 208.584 1.79341 0.567314 0
M  V30 2234 O 207.942 1.15184 1.40009 0
M  V30 2235 C 207.99 3.34926 -1.33629 0
M  V30 2236 O 207.094 4.09303 -0.504447 0
M  V30 2237 H 206.435 0.583785 -0.316371 0
M  V30 2238 H 208.965 1.4157 -1.47712 0
M  V30 2239 H 208.975 3.8577 -1.32837 0
M  V30 2240 H 207.65 3.40504 -2.3881 0
M  V30 2241 H 206.227 3.68393 -0.577993 0
M  V30 2242 N 208.412 0.89855 1.29475 0
M  V30 2243 C 209.359 0.373819 2.27753 0
M  V30 2244 C 210.329 -0.543444 1.56958 0
M  V30 2245 O 211.514 -0.468934 1.84948 0
M  V30 2246 C 208.654 -0.393648 3.42848 0
M  V30 2247 C 207.767 0.554379 4.28428 0
M  V30 2248 C 206.902 -0.230026 5.30702 0
M  V30 2249 C 205.941 0.712599 6.07938 0
M  V30 2250 N 205.078 -0.0373283 7.0209 0
M  V30 2251 H 209.918 1.21699 2.72017 0
M  V30 2252 H 207.455 0.611456 1.33789 0
M  V30 2253 H 209.413 -0.85466 4.08352 0
M  V30 2254 H 208.043 -1.20128 2.99615 0
M  V30 2255 H 207.095 1.13391 3.63107 0
M  V30 2256 H 208.407 1.27597 4.82204 0
M  V30 2257 H 207.561 -0.752288 6.02018 0
M  V30 2258 H 206.3 -0.984758 4.77654 0
M  V30 2259 H 205.305 1.24637 5.35486 0
M  V30 2260 H 206.53 1.46664 6.63074 0
M  V30 2261 H 204.476 -0.774348 6.51414 0
M  V30 2262 H 204.393 0.624374 7.53417 0
M  V30 2263 H 205.661 -0.539891 7.77628 0
M  V30 2264 N 209.89 -1.43072 0.660911 0
M  V30 2265 C 210.82 -2.33497 -0.0122829 0
M  V30 2266 C 211.801 -1.49903 -0.803925 0
M  V30 2267 O 212.986 -1.78546 -0.763864 0
M  V30 2268 C 210.116 -3.33363 -0.973994 0
M  V30 2269 C 209.07 -4.27003 -0.291928 0
M  V30 2270 C 208.396 -5.16967 -1.36562 0
M  V30 2271 C 209.696 -5.15816 0.820462 0
M  V30 2272 H 211.39 -2.90038 0.742873 0
M  V30 2273 H 208.936 -1.39461 0.358688 0
M  V30 2274 H 210.889 -3.95524 -1.45392 0
M  V30 2275 H 209.613 -2.75095 -1.7604 0
M  V30 2276 H 208.272 -3.66217 0.167623 0
M  V30 2277 H 207.92 -4.55034 -2.14366 0
M  V30 2278 H 207.62 -5.80441 -0.914454 0
M  V30 2279 H 209.144 -5.82003 -1.84675 0
M  V30 2280 H 210.558 -5.71742 0.422366 0
M  V30 2281 H 208.955 -5.8805 1.19656 0
M  V30 2282 H 210.025 -4.55045 1.67518 0
M  V30 2283 N 211.368 -0.403325 -1.52352 0
M  V30 2284 C 212.315 0.425011 -2.26853 0
M  V30 2285 C 213.285 1.04598 -1.29029 0
M  V30 2286 O 214.47 1.07135 -1.57882 0
M  V30 2287 C 211.61 1.53888 -3.08889 0
M  V30 2288 C 210.723 0.939396 -4.21663 0
M  V30 2289 C 209.858 2.02547 -4.91068 0
M  V30 2290 C 208.897 1.40263 -5.95813 0
M  V30 2291 N 208.034 2.4286 -6.58759 0
M  V30 2292 H 212.874 -0.21674 -2.97211 0
M  V30 2293 H 210.411 -0.118722 -1.4662 0
M  V30 2294 H 212.369 2.19558 -3.54753 0
M  V30 2295 H 210.999 2.15074 -2.40714 0
M  V30 2296 H 210.051 0.171898 -3.80011 0
M  V30 2297 H 211.363 0.44436 -4.96817 0
M  V30 2298 H 210.517 2.75958 -5.40308 0
M  V30 2299 H 209.256 2.55415 -4.15469 0
M  V30 2300 H 208.261 0.653833 -5.45898 0
M  V30 2301 H 209.486 0.881719 -6.73352 0
M  V30 2302 H 207.432 2.94871 -5.85992 0
M  V30 2303 H 207.349 1.98152 -7.2957 0
M  V30 2304 H 208.617 3.15858 -7.12639 0
M  V30 2305 N 212.846 1.57033 -0.133567 0
M  V30 2306 C 214.094 1.953 0.519848 0
M  V30 2307 C 214.415 1.01866 1.66278 0
M  V30 2308 O 213.685 0.0776513 1.95746 0
M  V30 2309 H 212.265 0.721091 0.195032 0
M  V30 2310 H 214.927 1.93809 -0.205921 0
M  V30 2311 H 214.023 2.98695 0.904854 0
M  V30 2312 N 214.325 -0.140222 1.56975 0
M  V30 2313 C 215.235 -1.19223 2.02047 0
M  V30 2314 C 216.251 -1.46612 0.937062 0
M  V30 2315 O 217.427 -1.58148 1.24704 0
M  V30 2316 C 214.492 -2.50414 2.39778 0
M  V30 2317 C 213.553 -2.30612 3.621 0
M  V30 2318 C 212.786 -3.55547 3.98023 0
M  V30 2319 O 213.009 -4.62004 3.34528 0
M  V30 2320 O 211.943 -3.47808 4.91237 0
M  V30 2321 H 215.769 -0.839559 2.91865 0
M  V30 2322 H 213.354 -0.349453 1.45256 0
M  V30 2323 H 215.236 -3.27747 2.64877 0
M  V30 2324 H 213.911 -2.85198 1.53114 0
M  V30 2325 H 212.818 -1.51207 3.4218 0
M  V30 2326 H 214.151 -2.00741 4.49404 0
M  V30 2327 N 215.803 -1.52179 -0.40978 0
M  V30 2328 C 217.214 -1.58377 -0.988615 0
M  V30 2329 C 217.565 -0.423879 -1.91566 0
M  V30 2330 O 216.69 0.455844 -2.11544 0
M  V30 2331 C 217.285 -2.87044 -1.79976 0
M  V30 2332 C 215.844 -2.95722 -2.32863 0
M  V30 2333 C 214.991 -2.53309 -1.12828 0
M  V30 2334 H 217.942 -1.57558 -0.190039 0
M  V30 2335 H 217.963 -2.7236 -2.65707 0
M  V30 2336 H 217.475 -3.71444 -1.12478 0
M  V30 2337 H 215.576 -2.15814 -3.03735 0
M  V30 2338 H 215.689 -3.99951 -2.63773 0
M  V30 2339 H 214.053 -2.07142 -1.48204 0
M  V30 2340 H 214.836 -3.40082 -0.46897 0
M  V30 2341 N 217.281 0.66697 -1.42791 0
M  V30 2342 C 218.529 1.42417 -1.43394 0
M  V30 2343 C 218.85 1.94925 -0.0542373 0
M  V30 2344 O 218.12 1.73564 0.908415 0
M  V30 2345 H 216.7 0.528515 -0.527902 0
M  V30 2346 H 219.362 0.787562 -1.78279 0
M  V30 2347 H 218.458 2.27333 -2.13837 0
M  V30 2348 N 218.759 1.29093 0.90403 0
M  V30 2349 C 220.005 1.17996 1.65676 0
M  V30 2350 C 220.36 -0.266816 1.90541 0
M  V30 2351 O 219.653 -1.19 1.50165 0
M  V30 2352 C 219.847 1.92224 3.01305 0
M  V30 2353 C 219.676 3.43972 2.89678 0
M  V30 2354 C 218.446 4.1332 2.90679 0
M  V30 2355 C 220.644 4.39546 2.67028 0
M  V30 2356 N 218.626 5.51463 2.69743 0
M  V30 2357 C 219.997 5.65119 2.5503 0
M  V30 2358 C 222.052 4.29359 2.52101 0
M  V30 2359 C 220.755 6.81663 2.29626 0
M  V30 2360 C 222.781 5.4565 2.28079 0
M  V30 2361 C 222.143 6.70193 2.16843 0
M  V30 2362 H 218.242 0.486759 0.612037 0
M  V30 2363 H 220.826 1.62868 1.06688 0
M  V30 2364 H 218.997 1.49773 3.58361 0
M  V30 2365 H 220.729 1.73429 3.65656 0
M  V30 2366 H 217.484 3.64984 3.01801 0
M  V30 2367 H 217.908 6.24105 2.6234 0
M  V30 2368 H 222.55 3.33769 2.59534 0
M  V30 2369 H 220.268 7.77313 2.20932 0
M  V30 2370 H 223.854 5.39664 2.1738 0
M  V30 2371 H 222.734 7.58659 1.98511 0
M  V30 2372 N 220.237 -1.11381 1.11499 0
M  V30 2373 C 221.483 -1.83403 0.865512 0
M  V30 2374 C 221.816 -1.84459 -0.607329 0
M  V30 2375 O 221.091 -1.29811 -1.44842 0
M  V30 2376 C 221.374 -3.30552 1.42855 0
M  V30 2377 C 221.227 -3.37886 2.96906 0
M  V30 2378 C 222.546 -4.26643 1.08 0
M  V30 2379 H 219.665 -0.665879 0.31587 0
M  V30 2380 H 222.307 -1.30601 1.37998 0
M  V30 2381 H 220.457 -3.75648 0.990985 0
M  V30 2382 H 222.129 -3.01343 3.49271 0
M  V30 2383 H 220.372 -2.78088 3.32941 0
M  V30 2384 H 221.043 -4.41458 3.31389 0
M  V30 2385 H 223.519 -3.89729 1.45775 0
M  V30 2386 H 222.395 -5.27986 1.50072 0
M  V30 2387 H 222.656 -4.42099 -0.00915037 0
M  V30 2388 N 221.715 -0.905404 -1.28997 0
M  V30 2389 C 222.943 -0.549846 -1.9946 0
M  V30 2390 C 223.358 0.866834 -1.67724 0
M  V30 2391 O 222.715 1.57298 -0.925404 0
M  V30 2392 C 222.766 -0.739387 -3.53858 0
M  V30 2393 O 222.487 -2.10031 -3.84472 0
M  V30 2394 C 223.988 -0.389541 -4.41585 0
M  V30 2395 H 221.208 -0.210429 -0.637151 0
M  V30 2396 H 223.752 -1.21632 -1.64396 0
M  V30 2397 H 221.907 -0.120023 -3.87214 0
M  V30 2398 H 222.321 -2.13385 -4.79132 0
M  V30 2399 H 223.795 -0.572972 -5.49018 0
M  V30 2400 H 224.272 0.673756 -4.34001 0
M  V30 2401 H 224.878 -0.986089 -4.1371 0
M  V30 2402 N 223.193 1.4272 -0.668489 0
M  V30 2403 C 224.442 2.00846 -0.185389 0
M  V30 2404 C 224.755 1.53442 1.21305 0
M  V30 2405 O 225.961 2.03944 1.79218 0
M  V30 2406 C 224.417 3.58805 -0.280591 0
M  V30 2407 C 224.025 4.15198 -1.68268 0
M  V30 2408 C 225.769 4.24255 0.14412 0
M  V30 2409 C 223.676 5.655 -1.73099 0
M  V30 2410 H 222.606 0.751145 -0.0655475 0
M  V30 2411 H 225.257 1.63516 -0.832752 0
M  V30 2412 H 223.639 3.93608 0.434553 0
M  V30 2413 H 224.813 3.91866 -2.42441 0
M  V30 2414 H 223.128 3.62176 -2.05469 0
M  V30 2415 H 225.725 5.34547 0.128086 0
M  V30 2416 H 226.068 3.99277 1.17827 0
M  V30 2417 H 226.601 3.94389 -0.519798 0
M  V30 2418 H 223.34 5.95268 -2.74475 0
M  V30 2419 H 222.86 5.90842 -1.03274 0
M  V30 2420 H 224.539 6.29808 -1.48158 0
M  V30 2421 N 224.671 0.411399 1.52136 0
M  V30 2422 C 225.621 -0.430376 2.23901 0
M  V30 2423 C 226.605 -1.0116 1.25121 0
M  V30 2424 O 227.797 -0.934044 1.50348 0
M  V30 2425 C 224.926 -1.54527 3.06556 0
M  V30 2426 C 224.012 -0.9747 4.12747 0
M  V30 2427 N 224.403 -0.130991 5.0563 0
M  V30 2428 C 222.701 -1.24497 4.28271 0
M  V30 2429 C 223.402 0.186689 5.814 0
M  V30 2430 N 222.378 -0.42304 5.41951 0
M  V30 2431 H 226.18 0.220509 2.93072 0
M  V30 2432 H 223.694 0.221952 1.60876 0
M  V30 2433 H 225.691 -2.16093 3.56524 0
M  V30 2434 H 224.351 -2.19875 2.38925 0
M  V30 2435 H 225.362 0.23349 5.17373 0
M  V30 2436 H 222.039 -1.89787 3.7187 0
M  V30 2437 H 223.429 0.871673 6.66222 0
M  V30 2438 N 226.149 -1.5696 0.141893 0
M  V30 2439 C 227.397 -1.95573 -0.509484 0
M  V30 2440 C 227.718 -1.02746 -1.65736 0
M  V30 2441 O 226.988 -0.0880311 -1.95702 0
M  V30 2442 H 225.568 -0.722115 -0.191205 0
M  V30 2443 H 228.23 -1.93697 0.216196 0
M  V30 2444 H 227.326 -2.99171 -0.889 0
M  V30 2445 N 227.627 0.131896 -1.57047 0
M  V30 2446 C 228.56 1.19236 -1.94571 0
M  V30 2447 C 229.538 1.40782 -0.813576 0
M  V30 2448 O 230.722 1.55148 -1.07058 0
M  V30 2449 C 227.849 2.54858 -2.23081 0
M  V30 2450 C 226.895 2.49817 -3.45679 0
M  V30 2451 S 227.728 1.95036 -4.98719 0
M  V30 2452 C 228.884 3.32357 -5.30367 0
M  V30 2453 H 229.117 0.872297 -2.84215 0
M  V30 2454 H 226.65 0.338134 -1.50652 0
M  V30 2455 H 228.608 3.32898 -2.40185 0
M  V30 2456 H 227.269 2.84047 -1.34074 0
M  V30 2457 H 226.462 3.49688 -3.62952 0
M  V30 2458 H 226.064 1.79892 -3.27895 0
M  V30 2459 H 228.356 4.28525 -5.2476 0
M  V30 2460 H 229.299 3.19923 -6.31708 0
M  V30 2461 H 229.707 3.3019 -4.57859 0
M  V30 2462 N 229.106 1.52395 0.401703 0
M  V30 2463 C 230.069 1.75636 1.47257 0
M  V30 2464 C 231.069 0.62628 1.48103 0
M  V30 2465 O 232.259 0.894227 1.49497 0
M  V30 2466 C 229.391 1.84553 2.86624 0
M  V30 2467 H 230.584 2.71241 1.27938 0
M  V30 2468 H 228.137 1.42923 0.632662 0
M  V30 2469 H 228.872 0.908882 3.11303 0
M  V30 2470 H 228.657 2.66715 2.87412 0
M  V30 2471 H 230.147 2.04251 3.64241 0
M  V30 2472 N 230.584 -0.659388 1.43143 0
M  V30 2473 C 231.832 -1.41654 1.44147 0
M  V30 2474 C 232.153 -1.94893 0.0645739 0
M  V30 2475 O 231.423 -1.74044 -0.899198 0
M  V30 2476 H 230.003 -0.525708 0.530697 0
M  V30 2477 H 232.665 -0.778097 1.78694 0
M  V30 2478 H 231.761 -2.26195 2.1504 0
M  V30 2479 N 232.062 -1.29571 -0.897171 0
M  V30 2480 C 233.302 -1.18959 -1.66217 0
M  V30 2481 C 233.666 0.254271 -1.90309 0
M  V30 2482 O 234.867 0.483407 -2.64417 0
M  V30 2483 C 233.138 -1.98302 -2.9734 0
M  V30 2484 S 234.697 -2.04253 -3.88364 0
M  V30 2485 H 231.515 -0.424137 -0.570639 0
M  V30 2486 H 234.117 -1.6389 -1.06585 0
M  V30 2487 H 232.821 -3.02342 -2.77521 0
M  V30 2488 H 232.352 -1.53986 -3.62011 0
M  V30 2489 H 234.367 -1.16105 -4.82425 0
M  V30 2490 N 233.54 1.10788 -1.12088 0
M  V30 2491 C 234.788 1.8231 -0.872205 0
M  V30 2492 C 235.109 1.85419 0.603709 0
M  V30 2493 O 234.379 1.32963 1.43867 0
M  V30 2494 H 232.959 0.675137 -0.319686 0
M  V30 2495 H 235.621 1.34068 -1.41463 0
M  V30 2496 H 234.717 2.85955 -1.25045 0
M  V30 2497 N 235.018 0.912232 1.28515 0
M  V30 2498 C 235.965 0.397954 2.27343 0
M  V30 2499 C 236.935 -0.526766 1.57526 0
M  V30 2500 O 238.12 -0.449292 1.85435 0
M  V30 2501 C 235.26 -0.357263 3.43246 0
M  V30 2502 C 234.373 0.599788 4.27816 0
M  V30 2503 C 233.508 -0.173725 5.30916 0
M  V30 2504 C 232.547 0.777039 6.07148 0
M  V30 2505 N 231.684 0.0371398 7.0209 0
M  V30 2506 H 236.524 1.24577 2.70711 0
M  V30 2507 H 234.061 0.625612 1.33133 0
M  V30 2508 H 236.019 -0.8113 4.09236 0
M  V30 2509 H 234.649 -1.16943 3.00872 0
M  V30 2510 H 233.701 1.17235 3.61884 0
M  V30 2511 H 235.013 1.32704 4.80823 0
M  V30 2512 H 234.167 -0.688394 6.02782 0
M  V30 2513 H 232.906 -0.934041 4.78672 0
M  V30 2514 H 231.911 1.3031 5.34134 0
M  V30 2515 H 233.136 1.53689 6.61481 0
M  V30 2516 H 231.082 -0.705213 6.52198 0
M  V30 2517 H 230.999 0.704249 7.52713 0
M  V30 2518 H 232.267 -0.457383 7.78157 0
M  V30 2519 N 236.496 -1.42363 0.676048 0
M  V30 2520 C 237.721 -2.06377 0.205705 0
M  V30 2521 C 238.146 -1.50463 -1.12883 0
M  V30 2522 O 237.504 -0.623619 -1.70237 0
M  V30 2523 C 237.552 -3.60277 0.152655 0
M  V30 2524 O 236.656 -4.02935 -0.87845 0
M  V30 2525 H 235.997 -0.655588 0.105359 0
M  V30 2526 H 238.527 -1.82475 0.925412 0
M  V30 2527 H 238.537 -4.07993 -0.0230675 0
M  V30 2528 H 237.212 -4.00346 1.12675 0
M  V30 2529 H 235.789 -3.66764 -0.673668 0
M  V30 2530 N 237.974 -0.419461 -1.51915 0
M  V30 2531 C 239.22 0.153166 -2.02221 0
M  V30 2532 C 239.553 1.43907 -1.30401 0
M  V30 2533 O 238.828 1.90055 -0.413438 0
M  V30 2534 C 239.111 0.390291 -3.57979 0
M  V30 2535 C 238.964 -0.913014 -4.40436 0
M  V30 2536 C 240.283 1.16794 -4.2432 0
M  V30 2537 H 237.402 0.0541924 -0.735005 0
M  V30 2538 H 240.044 -0.554955 -1.81715 0
M  V30 2539 H 238.194 0.993491 -3.75582 0
M  V30 2540 H 239.866 -1.54882 -4.34522 0
M  V30 2541 H 238.109 -1.52168 -4.06236 0
M  V30 2542 H 238.78 -0.701361 -5.47526 0
M  V30 2543 H 241.256 0.657161 -4.10878 0
M  V30 2544 H 240.132 1.3026 -5.3322 0
M  V30 2545 H 240.393 2.19132 -3.83971 0
M  V30 2546 N 239.452 1.56882 -0.150215 0
M  V30 2547 C 240.382 2.19935 0.784284 0
M  V30 2548 C 241.363 1.14854 1.25469 0
M  V30 2549 O 242.548 1.43209 1.31168 0
M  V30 2550 C 239.678 2.82349 2.02229 0
M  V30 2551 C 238.632 3.93285 1.68853 0
M  V30 2552 C 237.958 4.42649 2.99944 0
M  V30 2553 C 239.258 5.13904 0.932714 0
M  V30 2554 H 240.952 2.9828 0.258781 0
M  V30 2555 H 238.498 1.43473 0.123029 0
M  V30 2556 H 240.451 3.25126 2.68088 0
M  V30 2557 H 239.175 2.0134 2.57157 0
M  V30 2558 H 237.834 3.5113 1.05371 0
M  V30 2559 H 237.482 3.58458 3.52869 0
M  V30 2560 H 237.182 5.17476 2.78374 0
M  V30 2561 H 238.706 4.88099 3.66868 0
M  V30 2562 H 240.12 5.53506 1.49345 0
M  V30 2563 H 238.517 5.94515 0.81684 0
M  V30 2564 H 239.587 4.84842 -0.0749568 0
M  V30 2565 N 240.93 -0.123565 1.57115 0
M  V30 2566 C 241.893 -1.13583 1.99076 0
M  V30 2567 C 242.893 -1.34564 0.880296 0
M  V30 2568 O 244.083 -1.31158 1.14644 0
M  V30 2569 C 241.215 -2.49128 2.32698 0
M  V30 2570 H 242.408 -0.775287 2.89706 0
M  V30 2571 H 239.961 -0.36771 1.51913 0
M  V30 2572 H 240.696 -2.90111 1.44934 0
M  V30 2573 H 240.481 -2.35255 3.13684 0
M  V30 2574 H 241.971 -3.2199 2.65918 0
M  V30 2575 N 242.408 -1.52605 -0.393616 0
M  V30 2576 C 243.371 -1.76415 -1.46323 0
M  V30 2577 C 244.371 -0.634126 -1.47768 0
M  V30 2578 O 245.561 -0.902142 -1.4902 0
M  V30 2579 C 242.693 -1.8607 -2.85641 0
M  V30 2580 H 243.886 -2.71916 -1.26498 0
M  V30 2581 H 241.439 -1.43257 -0.625073 0
M  V30 2582 H 242.174 -0.925378 -3.10817 0
M  V30 2583 H 241.959 -2.68235 -2.85993 0
M  V30 2584 H 243.449 -2.06179 -3.63153 0
M  V30 2585 N 243.887 0.651787 -1.4349 0
M  V30 2586 C 244.797 1.79368 -1.5121 0
M  V30 2587 C 245.813 1.69361 -0.399093 0
M  V30 2588 O 246.989 1.90505 -0.653431 0
M  V30 2589 C 244.054 3.15653 -1.43401 0
M  V30 2590 C 243.115 3.37446 -2.65384 0
M  V30 2591 C 242.348 4.67229 -2.57939 0
M  V30 2592 O 242.571 5.46676 -1.62792 0
M  V30 2593 O 241.505 4.90773 -3.48462 0
M  V30 2594 H 245.331 1.7581 -2.47638 0
M  V30 2595 H 242.916 0.810447 -1.25507 0
M  V30 2596 H 244.798 3.96935 -1.41494 0
M  V30 2597 H 243.473 3.19798 -0.501085 0
M  V30 2598 H 242.38 2.55923 -2.72863 0
M  V30 2599 H 243.713 3.38148 -3.57654 0
M  V30 2600 N 245.365 1.30045 0.890287 0
M  V30 2601 C 246.328 1.15963 1.977 0
M  V30 2602 C 247.328 0.0923777 1.60534 0
M  V30 2603 O 248.518 0.340071 1.70848 0
M  V30 2604 C 245.65 0.775451 3.31963 0
M  V30 2605 H 246.843 2.12502 2.11619 0
M  V30 2606 H 244.396 1.13366 1.07601 0
M  V30 2607 H 245.131 -0.189671 3.23745 0
M  V30 2608 H 244.916 1.54668 3.60306 0
M  V30 2609 H 246.406 0.700251 4.11687 0
M  V30 2610 N 246.843 -1.10192 1.12674 0
M  V30 2611 C 248.089 -1.82475 0.884915 0
M  V30 2612 C 248.422 -1.85093 -0.58773 0
M  V30 2613 O 247.697 -1.3134 -1.43457 0
M  V30 2614 C 247.98 -3.29018 1.46353 0
M  V30 2615 C 247.833 -3.34718 3.00473 0
M  V30 2616 C 249.152 -4.25473 1.12519 0
M  V30 2617 H 246.271 -0.662492 0.322915 0
M  V30 2618 H 248.913 -1.2913 1.39375 0
M  V30 2619 H 247.063 -3.74576 1.03077 0
M  V30 2620 H 248.735 -2.97622 3.52447 0
M  V30 2621 H 246.978 -2.74541 3.35872 0
M  V30 2622 H 247.649 -4.37918 3.36053 0
M  V30 2623 H 250.125 -3.88161 1.499 0
M  V30 2624 H 249.001 -5.26365 1.55663 0
M  V30 2625 H 249.262 -4.42084 0.0377407 0
M  V30 2626 N 248.321 -0.919034 -1.28029 0
M  V30 2627 C 249.737 -0.617972 -1.4715 0
M  V30 2628 C 249.937 0.835242 -1.83374 0
M  V30 2629 O 248.993 1.61388 -1.94191 0
M  V30 2630 C 250.306 -1.56041 -2.57044 0
M  V30 2631 C 251.854 -1.56769 -2.7091 0
M  V30 2632 C 252.329 -2.49688 -3.83953 0
M  V30 2633 N 253.82 -2.47845 -3.91314 0
M  V30 2634 C 254.555 -3.16437 -4.78179 0
M  V30 2635 N 254.051 -3.94376 -5.69596 0
M  V30 2636 N 255.844 -3.05498 -4.71834 0
M  V30 2637 H 247.995 -1.85866 -1.02798 0
M  V30 2638 H 250.258 -0.797506 -0.512531 0
M  V30 2639 H 249.964 -2.59671 -2.372 0
M  V30 2640 H 249.838 -1.29551 -3.54255 0
M  V30 2641 H 252.225 -0.538745 -2.90141 0
M  V30 2642 H 252.306 -1.87305 -1.74214 0
M  V30 2643 H 251.95 -3.52688 -3.65477 0
M  V30 2644 H 251.88 -2.16453 -4.80058 0
M  V30 2645 H 254.371 -1.91234 -3.25941 0
M  V30 2646 H 254.684 -4.43721 -6.32718 0
M  V30 2647 H 253.029 -3.98481 -5.69419 0
M  V30 2648 H 256.22 -2.44108 -3.99411 0
M  V30 2649 H 256.393 -3.59225 -5.39316 0
M  V30 2650 N 249.799 1.42003 -0.683588 0
M  V30 2651 C 251.076 1.95112 -0.138075 0
M  V30 2652 C 251.456 1.62359 1.34918 0
M  V30 2653 O 250.804 0.924311 2.08971 0
M  V30 2654 C 251.014 3.46505 -0.416581 0
M  V30 2655 C 252.362 4.23254 -0.337834 0
M  V30 2656 O 253.386 3.54468 -0.35082 0
M  V30 2657 O 252.245 5.45743 -0.287596 0
M  V30 2658 H 249.339 0.826961 -0.00797996 0
M  V30 2659 H 251.885 1.51784 -0.758924 0
M  V30 2660 H 250.657 3.63582 -1.4465 0
M  V30 2661 H 250.28 3.969 0.235839 0
M  V30 2662 N 251.277 0.427512 1.51691 0
M  V30 2663 C 252.227 -0.406604 2.24345 0
M  V30 2664 C 253.211 -0.998276 1.26187 0
M  V30 2665 O 254.403 -0.918045 1.51331 0
M  V30 2666 C 251.532 -1.51266 3.08177 0
M  V30 2667 C 250.618 -0.930868 4.13758 0
M  V30 2668 N 251.009 -0.0773552 5.05741 0
M  V30 2669 C 249.307 -1.19948 4.29568 0
M  V30 2670 C 250.008 0.248344 5.8117 0
M  V30 2671 N 248.984 -0.365535 5.4237 0
M  V30 2672 H 252.786 0.251581 2.92821 0
M  V30 2673 H 250.3 0.239003 1.60632 0
M  V30 2674 H 252.297 -2.123 3.58796 0
M  V30 2675 H 250.957 -2.17328 2.41244 0
M  V30 2676 H 251.968 0.288351 5.17097 0
M  V30 2677 H 248.645 -1.85832 3.73862 0
M  V30 2678 H 250.035 0.942286 6.6526 0
M  V30 2679 N 252.755 -1.56801 0.158532 0
M  V30 2680 C 253.98 -2.01295 -0.499516 0
M  V30 2681 C 254.405 -1.03799 -1.56867 0
M  V30 2682 O 253.763 -0.0155162 -1.81293 0
M  V30 2683 C 253.811 -3.44469 -1.06647 0
M  V30 2684 O 252.915 -3.50012 -2.18095 0
M  V30 2685 H 252.256 -0.652884 -0.12099 0
M  V30 2686 H 254.786 -2.02958 0.258661 0
M  V30 2687 H 254.796 -3.8351 -1.39227 0
M  V30 2688 H 253.471 -4.14932 -0.283581 0
M  V30 2689 H 252.048 -3.22822 -1.86656 0
M  V30 2690 N 254.233 0.115231 -1.57178 0
M  V30 2691 C 255.163 1.1423 -2.03651 0
M  V30 2692 C 256.144 1.42967 -0.921655 0
M  V30 2693 O 257.329 1.53343 -1.19162 0
M  V30 2694 C 254.459 2.4675 -2.44401 0
M  V30 2695 C 253.413 2.32467 -3.59365 0
M  V30 2696 C 252.739 3.69984 -3.86026 0
M  V30 2697 C 254.039 1.78203 -4.90959 0
M  V30 2698 H 255.733 0.755749 -2.89705 0
M  V30 2699 H 253.279 0.362093 -1.39373 0
M  V30 2700 H 255.232 3.18854 -2.75517 0
M  V30 2701 H 253.956 2.87302 -1.55322 0
M  V30 2702 H 252.615 1.62811 -3.28463 0
M  V30 2703 H 252.263 4.08028 -2.94147 0
M  V30 2704 H 251.963 3.61279 -4.63412 0
M  V30 2705 H 253.487 4.43587 -4.19599 0
M  V30 2706 H 254.901 2.40128 -5.20587 0
M  V30 2707 H 253.298 1.8031 -5.72371 0
M  V30 2708 H 254.368 0.739876 -4.79222 0
M  V30 2709 N 255.711 1.52812 0.385517 0
M  V30 2710 C 256.641 1.80808 1.47752 0
M  V30 2711 C 257.622 0.660318 1.5676 0
M  V30 2712 O 258.807 0.908246 1.71652 0
M  V30 2713 C 255.937 1.98008 2.85324 0
M  V30 2714 C 254.891 3.13709 2.91154 0
M  V30 2715 C 254.217 3.16169 4.31209 0
M  V30 2716 C 255.517 4.52709 2.60483 0
M  V30 2717 H 257.211 2.72253 1.24573 0
M  V30 2718 H 254.757 1.31003 0.597839 0
M  V30 2719 H 256.71 2.16176 3.61726 0
M  V30 2720 H 255.434 1.03255 3.09848 0
M  V30 2721 H 254.093 2.95329 2.17201 0
M  V30 2722 H 253.741 2.19092 4.52778 0
M  V30 2723 H 253.441 3.93894 4.36029 0
M  V30 2724 H 254.965 3.36496 5.09512 0
M  V30 2725 H 256.379 4.71173 3.26602 0
M  V30 2726 H 254.776 5.32528 2.76648 0
M  V30 2727 H 255.846 4.59186 1.55809 0
M  V30 2728 N 257.189 -0.644168 1.43834 0
M  V30 2729 C 258.099 -1.78563 1.52159 0
M  V30 2730 C 259.115 -1.69147 0.408069 0
M  V30 2731 O 260.291 -1.90156 0.663524 0
M  V30 2732 C 257.356 -3.14888 1.45073 0
M  V30 2733 C 256.417 -3.36034 2.6717 0
M  V30 2734 C 255.65 -4.65855 2.60413 0
M  V30 2735 O 255.873 -5.45805 1.65689 0
M  V30 2736 O 254.807 -4.88918 3.5106 0
M  V30 2737 H 258.633 -1.74494 2.48567 0
M  V30 2738 H 256.218 -0.80378 1.25935 0
M  V30 2739 H 258.1 -3.96179 1.43597 0
M  V30 2740 H 256.775 -3.19528 0.518037 0
M  V30 2741 H 255.682 -2.54472 2.74217 0
M  V30 2742 H 257.015 -3.36247 3.59442 0
M  V30 2743 N 258.668 -1.30515 -0.883378 0
M  V30 2744 C 259.916 -1.19194 -1.63209 0
M  V30 2745 C 260.237 0.253205 -1.93349 0
M  V30 2746 O 259.507 1.17025 -1.57105 0
M  V30 2747 H 258.087 -0.438148 -0.605009 0
M  V30 2748 H 260.749 -1.63663 -1.05832 0
M  V30 2749 H 259.845 -1.75396 -2.58153 0
M  V30 2750 N 260.146 1.09593 -1.13257 0
M  V30 2751 C 261.386 1.83349 -0.903472 0
M  V30 2752 C 261.75 1.83641 0.560351 0
M  V30 2753 O 262.951 2.53037 0.906947 0
M  V30 2754 C 261.222 3.25629 -1.47311 0
M  V30 2755 S 262.781 4.16408 -1.38382 0
M  V30 2756 H 259.599 0.632014 -0.325699 0
M  V30 2757 H 262.201 1.31817 -1.44376 0
M  V30 2758 H 260.905 3.22991 -2.53189 0
M  V30 2759 H 260.436 3.82233 -0.930689 0
M  V30 2760 H 262.451 4.94884 -0.361113 0
M  V30 2761 N 261.624 0.925811 1.2754 0
M  V30 2762 C 262.871 0.565255 1.94451 0
M  V30 2763 C 263.199 -0.89316 1.7278 0
M  V30 2764 O 262.454 -1.65213 1.04895 0
M  V30 2765 C 262.753 0.835296 3.47502 0
M  V30 2766 C 262.419 2.27515 3.89291 0
M  V30 2767 C 261.081 2.66879 4.00411 0
M  V30 2768 C 263.433 3.21158 4.10496 0
M  V30 2769 C 260.761 3.99014 4.30122 0
M  V30 2770 C 263.113 4.52871 4.4169 0
M  V30 2771 C 261.777 4.92072 4.51023 0
M  V30 2772 H 261.047 0.206841 0.711546 0
M  V30 2773 H 263.694 1.16942 1.51647 0
M  V30 2774 H 261.999 0.148442 3.91519 0
M  V30 2775 H 263.696 0.535322 3.97411 0
M  V30 2776 H 260.286 1.95976 3.81171 0
M  V30 2777 H 264.47 2.9195 4.01346 0
M  V30 2778 H 259.726 4.2907 4.35556 0
M  V30 2779 H 263.9 5.25436 4.57045 0
M  V30 2780 H 261.527 5.9449 4.738 0
M  V30 2781 N 263.102 -1.41638 0.69111 0
M  V30 2782 C 264.513 -1.84346 0.295517 0
M  V30 2783 C 264.864 -1.57833 -1.16547 0
M  V30 2784 O 263.989 -1.04648 -1.89414 0
M  V30 2785 C 264.584 -3.34636 0.529575 0
M  V30 2786 C 263.143 -3.7593 0.187944 0
M  V30 2787 C 262.29 -2.65082 0.814052 0
M  V30 2788 H 265.241 -1.31253 0.892092 0
M  V30 2789 H 265.262 -3.79903 -0.213148 0
M  V30 2790 H 264.774 -3.53901 1.59297 0
M  V30 2791 H 262.875 -3.62268 -0.871367 0
M  V30 2792 H 262.988 -4.74808 0.63985 0
M  V30 2793 H 261.352 -2.53528 0.244017 0
M  V30 2794 H 262.135 -2.87167 1.88123 0
M  V30 2795 N 264.58 -0.43555 -1.51462 0
M  V30 2796 C 265.828 0.131254 -2.01673 0
M  V30 2797 C 266.149 1.43368 -1.32177 0
M  V30 2798 O 265.419 1.90524 -0.455769 0
M  V30 2799 H 263.999 0.0514954 -0.745223 0
M  V30 2800 H 266.661 -0.577847 -1.86137 0
M  V30 2801 H 265.757 0.308446 -3.10572 0
M  V30 2802 N 266.058 1.56714 -0.166846 0
M  V30 2803 C 267.306 1.96358 0.478305 0
M  V30 2804 C 267.627 1.0537 1.6408 0
M  V30 2805 O 266.897 0.119154 1.95537 0
M  V30 2806 H 265.477 0.725065 0.179692 0
M  V30 2807 H 268.139 1.93329 -0.246985 0
M  V30 2808 H 267.235 3.00547 0.841292 0
M  V30 2809 N 267.536 -0.106894 1.57237 0
M  V30 2810 C 268.782 -0.81373 1.85759 0
M  V30 2811 C 269.115 -1.78952 0.754315 0
M  V30 2812 O 268.39 -1.93029 -0.23879 0
M  V30 2813 C 268.673 -1.55293 3.24894 0
M  V30 2814 C 268.526 -0.595929 4.45835 0
M  V30 2815 C 269.845 -2.5063 3.61763 0
M  V30 2816 H 266.964 -0.294369 0.67566 0
M  V30 2817 H 269.606 -0.0776472 1.89841 0
M  V30 2818 H 267.756 -2.1804 3.21544 0
M  V30 2819 H 269.428 0.0236262 4.61294 0
M  V30 2820 H 267.671 0.0916191 4.33703 0
M  V30 2821 H 268.342 -1.15004 5.39887 0
M  V30 2822 H 270.818 -1.97982 3.65981 0
M  V30 2823 H 269.694 -2.99376 4.60071 0
M  V30 2824 H 269.955 -3.3385 2.89821 0
M  V30 2825 N 269.014 -1.53014 -0.377408 0
M  V30 2826 C 269.964 -1.74996 -1.46152 0
M  V30 2827 C 270.948 -0.604236 -1.49123 0
M  V30 2828 O 272.14 -0.862489 -1.54564 0
M  V30 2829 C 269.269 -1.93267 -2.8373 0
M  V30 2830 C 268.355 -3.13807 -2.85283 0
M  V30 2831 N 268.746 -4.35941 -2.56493 0
M  V30 2832 C 267.044 -3.14288 -3.16448 0
M  V30 2833 C 267.745 -5.17615 -2.65424 0
M  V30 2834 N 266.721 -4.53559 -2.99641 0
M  V30 2835 H 270.523 -2.67044 -1.22738 0
M  V30 2836 H 268.037 -1.51479 -0.585479 0
M  V30 2837 H 270.034 -2.0714 -3.61799 0
M  V30 2838 H 268.694 -1.0244 -3.08117 0
M  V30 2839 H 269.705 -4.63876 -2.30302 0
M  V30 2840 H 266.382 -2.33312 -3.46225 0
M  V30 2841 H 267.772 -6.25006 -2.46612 0
M  V30 2842 N 270.492 0.636531 -1.44174 0
M  V30 2843 C 271.738 1.39649 -1.47884 0
M  V30 2844 C 272.093 1.92098 -0.107747 0
M  V30 2845 O 271.386 1.70391 0.876208 0
M  V30 2846 C 271.58 2.58309 -2.47005 0
M  V30 2847 C 271.409 2.17476 -3.93617 0
M  V30 2848 C 270.179 2.0501 -4.61843 0
M  V30 2849 C 272.377 1.76722 -4.82984 0
M  V30 2850 N 270.359 1.57683 -5.93304 0
M  V30 2851 C 271.73 1.40601 -6.03847 0
M  V30 2852 C 273.785 1.64054 -4.70096 0
M  V30 2853 C 272.488 0.930787 -7.13252 0
M  V30 2854 C 274.514 1.17937 -5.79521 0
M  V30 2855 C 273.876 0.827625 -6.99521 0
M  V30 2856 H 269.975 0.506027 -0.596205 0
M  V30 2857 H 272.559 0.730791 -1.80465 0
M  V30 2858 H 270.73 3.22514 -2.16423 0
M  V30 2859 H 272.462 3.25083 -2.41045 0
M  V30 2860 H 269.217 2.25294 -4.16581 0
M  V30 2861 H 269.641 1.36334 -6.63131 0
M  V30 2862 H 274.283 1.89882 -3.77762 0
M  V30 2863 H 272.001 0.660012 -8.054 0
M  V30 2864 H 275.587 1.08601 -5.71574 0
M  V30 2865 H 274.467 0.476231 -7.82753 0
M  V30 2866 N 271.97 1.30982 0.876444 0
M  V30 2867 C 273.216 1.20474 1.63138 0
M  V30 2868 C 273.549 -0.238096 1.92735 0
M  V30 2869 O 272.824 -1.1692 1.55435 0
M  V30 2870 C 273.107 2.04244 2.96574 0
M  V30 2871 C 272.96 3.56793 2.73896 0
M  V30 2872 C 274.279 1.88684 3.97601 0
M  V30 2873 H 271.398 0.439001 0.591985 0
M  V30 2874 H 274.04 1.60704 1.01361 0
M  V30 2875 H 272.19 1.70063 3.493 0
M  V30 2876 H 273.862 4.01077 2.27892 0
M  V30 2877 H 272.105 3.80548 2.08245 0
M  V30 2878 H 272.776 4.10706 3.68815 0
M  V30 2879 H 275.252 2.18584 3.54062 0
M  V30 2880 H 274.128 2.4961 4.88862 0
M  V30 2881 H 274.389 0.848343 4.33884 0
M  V30 2882 N 273.449 -1.08991 1.13837 0
M  V30 2883 C 274.674 -1.85551 0.926585 0
M  V30 2884 C 275.099 -1.80782 -0.519566 0
M  V30 2885 O 274.457 -1.18855 -1.36906 0
M  V30 2886 C 274.505 -3.31266 1.42462 0
M  V30 2887 O 273.609 -4.07822 0.612789 0
M  V30 2888 H 272.95 -0.575192 0.331738 0
M  V30 2889 H 275.48 -1.37604 1.51414 0
M  V30 2890 H 275.49 -3.82112 1.43019 0
M  V30 2891 H 274.165 -3.34052 2.47754 0
M  V30 2892 H 272.742 -3.66731 0.675463 0
M  V30 2893 N 274.927 -0.932562 -1.27047 0
M  V30 2894 C 276.173 -0.576412 -1.94436 0
M  V30 2895 C 276.506 0.880891 -1.73072 0
M  V30 2896 O 275.781 1.62905 -1.06264 0
M  V30 2897 C 276.064 -0.909031 -3.48437 0
M  V30 2898 C 275.917 -2.42044 -3.79123 0
M  V30 2899 C 277.236 -0.418341 -4.38107 0
M  V30 2900 H 274.355 -0.210888 -0.706184 0
M  V30 2901 H 276.997 -1.16522 -1.50075 0
M  V30 2902 H 275.147 -0.407947 -3.86352 0
M  V30 2903 H 276.819 -2.99359 -3.50973 0
M  V30 2904 H 275.062 -2.86758 -3.25503 0
M  V30 2905 H 275.733 -2.6037 -4.86736 0
M  V30 2906 H 278.209 -0.847856 -4.0737 0
M  V30 2907 H 277.085 -0.679981 -5.44672 0
M  V30 2908 H 277.346 0.681642 -4.36814 0
M  V30 2909 N 276.405 1.4127 -0.698611 0
M  V30 2910 C 277.653 2.00782 -0.230409 0
M  V30 2911 C 277.974 1.5562 1.17505 0
M  V30 2912 O 277.244 0.78815 1.79346 0
M  V30 2913 H 275.824 0.742464 -0.0821944 0
M  V30 2914 H 278.486 1.72852 -0.90045 0
M  V30 2915 H 277.582 3.11095 -0.25021 0
M  V30 2916 N 277.883 0.443576 1.51229 0
M  V30 2917 C 278.83 -0.364716 2.279 0
M  V30 2918 C 279.8 -1.0114 1.31757 0
M  V30 2919 O 280.985 -1.02912 1.60667 0
M  V30 2920 C 278.125 -1.45644 3.12861 0
M  V30 2921 C 277.238 -0.827269 4.24005 0
M  V30 2922 C 276.373 -1.89456 4.96266 0
M  V30 2923 C 275.412 -1.24416 5.99322 0
M  V30 2924 N 274.549 -2.25309 6.64966 0
M  V30 2925 H 279.389 0.295464 2.96532 0
M  V30 2926 H 276.926 0.157554 1.46254 0
M  V30 2927 H 278.884 -2.10076 3.6045 0
M  V30 2928 H 277.514 -2.08616 2.46331 0
M  V30 2929 H 276.566 -0.0710839 3.80334 0
M  V30 2930 H 277.878 -0.312481 4.9782 0
M  V30 2931 H 277.032 -2.61535 5.47434 0
M  V30 2932 H 275.771 -2.4431 4.22095 0
M  V30 2933 H 274.776 -0.508868 5.4744 0
M  V30 2934 H 276.001 -0.702882 6.75453 0
M  V30 2935 H 273.947 -2.79231 5.93604 0
M  V30 2936 H 273.864 -1.78739 7.34567 0
M  V30 2937 H 275.132 -2.96853 7.20763 0
M  V30 2938 N 279.361 -1.56624 0.175154 0
M  V30 2939 C 280.293 -2.15333 -0.785128 0
M  V30 2940 C 281.306 -1.1099 -1.19101 0
M  V30 2941 O 282.495 -1.38162 -1.13019 0
M  V30 2942 C 279.595 -2.68427 -2.06882 0
M  V30 2943 C 278.768 -3.97466 -1.8259 0
M  V30 2944 C 277.827 -4.35585 -2.95215 0
M  V30 2945 O 276.853 -5.03389 -2.65684 0
M  V30 2946 N 278.055 -3.97457 -4.23094 0
M  V30 2947 H 280.82 -2.98359 -0.283187 0
M  V30 2948 H 278.381 -1.61898 -0.00749817 0
M  V30 2949 H 280.373 -2.90924 -2.81328 0
M  V30 2950 H 278.943 -1.89968 -2.48256 0
M  V30 2951 H 278.163 -3.83307 -0.920287 0
M  V30 2952 H 279.451 -4.81736 -1.63733 0
M  V30 2953 H 278.849 -3.42878 -4.49945 0
M  V30 2954 H 277.406 -4.24947 -4.9423 0
M  V30 2955 N 280.839 0.0985539 -1.57292 0
M  V30 2956 C 282.116 0.834155 -1.76921 0
M  V30 2957 C 282.496 1.97101 -0.755928 0
M  V30 2958 O 281.844 2.27474 0.216245 0
M  V30 2959 C 282.054 1.33194 -3.22584 0
M  V30 2960 C 283.402 1.77611 -3.85668 0
M  V30 2961 O 284.426 1.42825 -3.26312 0
M  V30 2962 O 283.285 2.4192 -4.90038 0
M  V30 2963 H 280.379 0.397628 -0.725135 0
M  V30 2964 H 282.925 0.0807044 -1.69508 0
M  V30 2965 H 281.697 0.517248 -3.87866 0
M  V30 2966 H 281.32 2.1475 -3.34616 0
M  V30 2967 N 282.317 1.53212 0.369288 0
M  V30 2968 C 283.264 1.79388 1.45219 0
M  V30 2969 C 284.234 0.638059 1.53356 0
M  V30 2970 O 285.419 0.879852 1.69302 0
M  V30 2971 C 282.559 1.98623 2.82211 0
M  V30 2972 C 281.672 3.26337 2.8307 0
M  V30 2973 C 280.807 3.35779 4.11614 0
M  V30 2974 C 279.846 4.5754 4.06601 0
M  V30 2975 N 278.983 4.64155 5.26787 0
M  V30 2976 H 283.823 2.71794 1.22198 0
M  V30 2977 H 281.36 1.34642 0.592444 0
M  V30 2978 H 283.318 2.07761 3.61789 0
M  V30 2979 H 281.948 1.09558 3.03639 0
M  V30 2980 H 281 3.26171 1.95747 0
M  V30 2981 H 282.312 4.15988 2.75237 0
M  V30 2982 H 281.466 3.44208 4.99606 0
M  V30 2983 H 280.205 2.44137 4.22195 0
M  V30 2984 H 279.21 4.49215 3.16996 0
M  V30 2985 H 280.435 5.50519 3.97625 0
M  V30 2986 H 278.381 3.75413 5.3796 0
M  V30 2987 H 278.298 5.47706 5.21109 0
M  V30 2988 H 279.566 4.76863 6.16621 0
M  V30 2989 N 283.795 -0.628877 1.44509 0
M  V30 2990 C 285.02 -1.42048 1.5112 0
M  V30 2991 C 285.445 -1.87594 0.137818 0
M  V30 2992 O 284.803 -1.58873 -0.873437 0
M  V30 2993 C 284.851 -2.61541 2.48251 0
M  V30 2994 O 283.955 -3.61453 1.98559 0
M  V30 2995 H 283.296 -0.424942 0.510216 0
M  V30 2996 H 285.826 -0.767374 1.89664 0
M  V30 2997 H 285.836 -3.09057 2.66361 0
M  V30 2998 H 284.511 -2.27736 3.48007 0
M  V30 2999 H 283.088 -3.20731 1.90227 0
M  V30 3000 N 285.273 -1.31445 -0.869486 0
M  V30 3001 C 286.521 -1.20918 -1.61936 0
M  V30 3002 C 286.842 0.232683 -1.93607 0
M  V30 3003 O 286.112 1.15352 -1.58338 0
M  V30 3004 H 284.692 -0.44454 -0.600328 0
M  V30 3005 H 287.354 -1.64776 -1.0409 0
M  V30 3006 H 286.45 -1.78124 -2.56278 0
M  V30 3007 N 286.751 1.08385 -1.14413 0
M  V30 3008 C 287.681 2.17321 -0.854044 0
M  V30 3009 C 288.662 1.69024 0.191049 0
M  V30 3010 O 289.847 1.94141 0.0476779 0
M  V30 3011 C 286.977 3.45719 -0.330983 0
M  V30 3012 C 285.931 4.07409 -1.31155 0
M  V30 3013 C 285.257 5.30762 -0.64778 0
M  V30 3014 C 286.557 4.48665 -2.67388 0
M  V30 3015 H 288.251 2.41845 -1.76498 0
M  V30 3016 H 285.797 1.16233 -0.850051 0
M  V30 3017 H 287.75 4.21241 -0.115645 0
M  V30 3018 H 286.474 3.2075 0.615381 0
M  V30 3019 H 285.133 3.33919 -1.51306 0
M  V30 3020 H 284.781 5.02078 0.304398 0
M  V30 3021 H 284.481 5.72992 -1.30207 0
M  V30 3022 H 286.005 6.08998 -0.441972 0
M  V30 3023 H 287.419 5.15364 -2.51143 0
M  V30 3024 H 285.816 5.01814 -3.29093 0
M  V30 3025 H 286.886 3.60543 -3.24248 0
M  V30 3026 N 288.23 0.939286 1.26551 0
M  V30 3027 C 289.16 0.465044 2.28822 0
M  V30 3028 C 290.141 -0.480692 1.63167 0
M  V30 3029 O 291.326 -0.382955 1.90387 0
M  V30 3030 C 288.456 -0.27234 3.46231 0
M  V30 3031 C 287.41 0.58666 4.2396 0
M  V30 3032 C 286.736 -0.280573 5.33963 0
M  V30 3033 C 288.036 1.85704 4.88171 0
M  V30 3034 H 289.73 1.31979 2.68741 0
M  V30 3035 H 287.276 0.636061 1.29191 0
M  V30 3036 H 289.229 -0.615133 4.16886 0
M  V30 3037 H 287.953 -1.16121 3.0526 0
M  V30 3038 H 286.612 0.91232 3.55067 0
M  V30 3039 H 286.26 -1.16874 4.89234 0
M  V30 3040 H 285.96 0.29076 5.8688 0
M  V30 3041 H 287.484 -0.618678 6.07458 0
M  V30 3042 H 288.898 1.58161 5.51052 0
M  V30 3043 H 287.295 2.37279 5.51197 0
M  V30 3044 H 288.365 2.56957 4.11219 0
M  V30 3045 N 289.708 -1.40897 0.706093 0
M  V30 3046 C 290.641 -2.282 -0.00328781 0
M  V30 3047 C 291.619 -1.42816 -0.77732 0
M  V30 3048 O 292.803 -1.72237 -0.765944 0
M  V30 3049 C 289.93 -3.23226 -1.01205 0
M  V30 3050 C 288.976 -4.25222 -0.329955 0
M  V30 3051 S 289.809 -5.27269 0.935298 0
M  V30 3052 C 290.965 -6.25859 -0.0716061 0
M  V30 3053 H 291.198 -2.88016 0.737143 0
M  V30 3054 H 288.731 -1.46191 0.496756 0
M  V30 3055 H 290.689 -3.78503 -1.58888 0
M  V30 3056 H 289.35 -2.62485 -1.72513 0
M  V30 3057 H 288.543 -4.92023 -1.09221 0
M  V30 3058 H 288.145 -3.73595 0.174069 0
M  V30 3059 H 290.437 -6.71204 -0.921521 0
M  V30 3060 H 291.38 -7.0586 0.562765 0
M  V30 3061 H 291.788 -5.62852 -0.431088 0
M  V30 3062 N 291.186 -0.45159 -1.50991 0
M  V30 3063 C 292.133 0.352625 -2.2809 0
M  V30 3064 C 293.103 1.0044 -1.32291 0
M  V30 3065 O 294.288 1.02058 -1.6121 0
M  V30 3066 C 291.428 1.43983 -3.13629 0
M  V30 3067 C 290.541 0.804772 -4.24438 0
M  V30 3068 C 289.676 1.86822 -4.97263 0
M  V30 3069 C 288.715 1.21236 -5.99973 0
M  V30 3070 N 287.852 2.2178 -6.66152 0
M  V30 3071 H 292.692 -0.311186 -2.96371 0
M  V30 3072 H 290.229 -0.165308 -1.46168 0
M  V30 3073 H 292.187 2.08161 -3.61559 0
M  V30 3074 H 290.817 2.07307 -2.47434 0
M  V30 3075 H 289.869 0.0509129 -3.80366 0
M  V30 3076 H 291.181 0.286076 -4.97979 0
M  V30 3077 H 290.335 2.58628 -5.48813 0
M  V30 3078 H 289.074 2.42068 -4.23385 0
M  V30 3079 H 288.079 0.479828 -5.47702 0
M  V30 3080 H 289.304 0.667051 -6.75816 0
M  V30 3081 H 287.25 2.76079 -5.95077 0
M  V30 3082 H 287.167 1.74841 -7.35504 0
M  V30 3083 H 288.435 2.93026 -7.22327 0
M  V30 3084 N 292.664 1.56529 -0.183458 0
M  V30 3085 C 293.594 2.21549 0.737456 0
M  V30 3086 C 294.575 1.17489 1.23005 0
M  V30 3087 O 295.76 1.45959 1.281 0
M  V30 3088 C 292.89 2.86575 1.96194 0
M  V30 3089 C 291.844 3.96778 1.60473 0
M  V30 3090 C 291.17 4.48911 2.90487 0
M  V30 3091 C 292.47 5.15767 0.823497 0
M  V30 3092 H 294.164 2.98761 0.195453 0
M  V30 3093 H 291.71 1.43702 0.0925686 0
M  V30 3094 H 293.663 3.30739 2.61131 0
M  V30 3095 H 292.387 2.06749 2.52828 0
M  V30 3096 H 291.046 3.53286 0.978997 0
M  V30 3097 H 290.694 3.65862 3.45186 0
M  V30 3098 H 290.394 5.23265 2.67335 0
M  V30 3099 H 291.918 4.95771 3.56432 0
M  V30 3100 H 293.332 5.56549 1.37571 0
M  V30 3101 H 291.729 5.96114 0.690551 0
M  V30 3102 H 292.799 4.84574 -0.177782 0
M  V30 3103 N 294.142 -0.090211 1.57342 0
M  V30 3104 C 295.074 -1.13541 1.99101 0
M  V30 3105 C 296.087 -1.3604 0.894258 0
M  V30 3106 O 297.276 -1.34606 1.17233 0
M  V30 3107 C 294.376 -2.49001 2.29895 0
M  V30 3108 C 293.549 -2.46712 3.61182 0
M  V30 3109 C 292.608 -3.64136 3.79857 0
M  V30 3110 O 291.634 -3.46405 4.51655 0
M  V30 3111 N 292.836 -4.83802 3.20806 0
M  V30 3112 H 295.601 -0.779942 2.89373 0
M  V30 3113 H 293.162 -0.279125 1.59476 0
M  V30 3114 H 295.154 -3.26166 2.39578 0
M  V30 3115 H 293.724 -2.76619 1.45605 0
M  V30 3116 H 292.944 -1.55058 3.62423 0
M  V30 3117 H 294.232 -2.42265 4.4742 0
M  V30 3118 H 293.63 -5.01112 2.62494 0
M  V30 3119 H 292.187 -5.58543 3.35966 0
M  V30 3120 N 295.62 -1.53406 -0.361157 0
M  V30 3121 C 296.568 -1.80832 -1.46296 0
M  V30 3122 C 297.562 -0.677699 -1.55253 0
M  V30 3123 O 298.768 -0.860723 -1.58087 0
M  V30 3124 H 295.143 -0.572627 -0.487445 0
M  V30 3125 H 297.114 -2.73045 -1.20371 0
M  V30 3126 C 295.863 -2.01907 -2.8307 0
M  V30 3127 H 295.186 -2.88349 -2.76938 0
M  V30 3128 H 296.626 -2.25072 -3.59331 0
M  V30 3129 C 295.085 -0.799449 -3.27277 0
M  V30 3130 O 295.615 0.00971761 -4.01699 0
M  V30 3131 N 293.821 -0.621637 -2.83873 0
M  V30 3132 H 293.368 -1.28126 -2.23476 0
M  V30 3133 H 293.326 0.19298 -3.13807 0
M  V30 3134 N 297.098 0.621204 -1.44841 0
M  V30 3135 C 298.028 1.74366 -1.55303 0
M  V30 3136 C 299.009 1.65199 -0.405385 0
M  V30 3137 O 300.194 1.83807 -0.626787 0
M  V30 3138 C 297.324 3.12931 -1.50637 0
M  V30 3139 C 296.278 3.36896 -2.63979 0
M  V30 3140 C 295.604 4.75594 -2.44366 0
M  V30 3141 C 296.904 3.28483 -4.06074 0
M  V30 3142 H 298.598 1.65867 -2.49256 0
M  V30 3143 H 296.144 0.796558 -1.19962 0
M  V30 3144 H 298.097 3.9124 -1.56555 0
M  V30 3145 H 296.821 3.22237 -0.532057 0
M  V30 3146 H 295.48 2.60972 -2.57467 0
M  V30 3147 H 295.128 4.81616 -1.45105 0
M  V30 3148 H 294.828 4.92586 -3.20364 0
M  V30 3149 H 296.352 5.5612 -2.52117 0
M  V30 3150 H 297.766 3.96684 -4.13902 0
M  V30 3151 H 296.163 3.57008 -4.82354 0
M  V30 3152 H 297.233 2.26133 -4.28943 0
M  V30 3153 N 298.576 1.31904 0.862503 0
M  V30 3154 C 299.816 1.23324 1.63004 0
M  V30 3155 C 300.18 -0.203724 1.90916 0
M  V30 3156 O 301.381 -0.413132 2.65606 0
M  V30 3157 C 299.652 2.06116 2.91978 0
M  V30 3158 S 301.211 2.14478 3.82812 0
M  V30 3159 H 298.029 0.439117 0.559193 0
M  V30 3160 H 300.631 1.66658 1.02202 0
M  V30 3161 H 299.335 3.09593 2.69407 0
M  V30 3162 H 298.866 1.6353 3.57801 0
M  V30 3163 H 300.881 1.28855 4.79177 0
M  V30 3164 N 300.054 -1.07777 1.14986 0
M  V30 3165 C 301.282 -1.84018 0.945773 0
M  V30 3166 C 301.697 -1.81897 -0.505863 0
M  V30 3167 O 301.054 -1.22726 -1.35072 0
M  V30 3168 C 301.105 -3.31287 1.44677 0
M  V30 3169 O 300.826 -3.33449 2.84154 0
M  V30 3170 C 302.327 -4.24311 1.28355 0
M  V30 3171 H 299.547 -0.580716 0.336169 0
M  V30 3172 H 302.091 -1.36077 1.52654 0
M  V30 3173 H 300.246 -3.76594 0.908625 0
M  V30 3174 H 300.66 -4.25427 3.06777 0
M  V30 3175 H 302.134 -5.2573 1.68261 0
M  V30 3176 H 302.611 -4.38612 0.227184 0
M  V30 3177 H 303.217 -3.84836 1.81056 0
M  V30 3178 N 301.532 -0.945985 -1.26051 0
M  V30 3179 C 302.948 -0.649045 -1.45807 0
M  V30 3180 C 303.148 0.796158 -1.85104 0
M  V30 3181 O 302.204 1.57233 -1.97571 0
M  V30 3182 C 303.517 -1.61458 -2.53677 0
M  V30 3183 C 305.065 -1.62481 -2.67524 0
M  V30 3184 C 305.54 -2.57776 -3.7857 0
M  V30 3185 N 307.031 -2.5609 -3.85969 0
M  V30 3186 C 307.766 -3.26508 -4.7136 0
M  V30 3187 N 307.262 -4.0637 -5.61102 0
M  V30 3188 N 309.055 -3.15437 -4.65248 0
M  V30 3189 H 301.206 -1.88005 -0.988328 0
M  V30 3190 H 303.469 -0.808198 -0.4955 0
M  V30 3191 H 303.175 -2.64644 -2.31638 0
M  V30 3192 H 303.049 -1.37036 -3.51427 0
M  V30 3193 H 305.436 -0.600167 -2.88933 0
M  V30 3194 H 305.517 -1.90958 -1.70202 0
M  V30 3195 H 305.161 -3.60361 -3.57913 0
M  V30 3196 H 305.091 -2.26587 -4.75359 0
M  V30 3197 H 307.582 -1.98105 -3.21812 0
M  V30 3198 H 307.895 -4.57042 -6.23164 0
M  V30 3199 H 306.24 -4.10469 -5.60839 0
M  V30 3200 H 309.431 -2.52525 -3.94143 0
M  V30 3201 H 309.604 -3.70584 -5.31575 0
M  V30 3202 N 303.011 1.40521 -0.713556 0
M  V30 3203 C 303.941 2.33381 -0.0743864 0
M  V30 3204 C 304.922 1.52784 0.747735 0
M  V30 3205 O 306.107 1.81258 0.697071 0
M  V30 3206 C 303.237 3.36748 0.849598 0
M  V30 3207 C 302.191 4.27793 0.133247 0
M  V30 3208 C 301.517 5.21679 1.17281 0
M  V30 3209 C 302.817 5.12415 -1.01134 0
M  V30 3210 H 304.511 2.87081 -0.850007 0
M  V30 3211 H 302.057 1.38034 -0.410201 0
M  V30 3212 H 304.01 4.00648 1.30612 0
M  V30 3213 H 302.734 2.81439 1.65709 0
M  V30 3214 H 301.393 3.65342 -0.303426 0
M  V30 3215 H 301.041 4.62677 1.9733 0
M  V30 3216 H 300.741 5.83435 0.698397 0
M  V30 3217 H 302.265 5.88456 1.62947 0
M  V30 3218 H 303.679 5.69781 -0.634274 0
M  V30 3219 H 302.076 5.83203 -1.41399 0
M  V30 3220 H 303.146 4.48514 -1.84292 0
M  V30 3221 N 304.489 0.459591 1.5075 0
M  V30 3222 C 305.766 -0.160371 1.94941 0
M  V30 3223 C 306.146 -1.58048 1.39943 0
M  V30 3224 O 305.494 -2.206 0.595629 0
M  V30 3225 C 305.704 -0.115432 3.48809 0
M  V30 3226 C 307.052 -0.310026 4.23467 0
M  V30 3227 O 308.076 -0.192543 3.55679 0
M  V30 3228 O 306.935 -0.546031 5.43765 0
M  V30 3229 H 304.029 -0.117925 0.818549 0
M  V30 3230 H 306.575 0.519169 1.61563 0
M  V30 3231 H 305.347 0.87652 3.81357 0
M  V30 3232 H 304.97 -0.836928 3.88692 0
M  V30 3233 N 305.967 -1.56429 0.191757 0
M  V30 3234 C 306.899 -2.16154 -0.762245 0
M  V30 3235 C 307.912 -1.12247 -1.17917 0
M  V30 3236 O 309.101 -1.39353 -1.11548 0
M  V30 3237 C 306.201 -2.70606 -2.04024 0
M  V30 3238 C 305.374 -3.99381 -1.78364 0
M  V30 3239 C 304.433 -4.38692 -2.90578 0
M  V30 3240 O 303.459 -5.06179 -2.6033 0
M  V30 3241 N 304.661 -4.01922 -4.18854 0
M  V30 3242 H 307.426 -2.98643 -0.251526 0
M  V30 3243 H 304.987 -1.61897 0.00967373 0
M  V30 3244 H 306.979 -2.93891 -2.78227 0
M  V30 3245 H 305.549 -1.9259 -2.46227 0
M  V30 3246 H 304.769 -3.84262 -0.879581 0
M  V30 3247 H 306.057 -4.83445 -1.58614 0
M  V30 3248 H 305.455 -3.47631 -4.46283 0
M  V30 3249 H 304.012 -4.30165 -4.89695 0
M  V30 3250 N 307.445 0.0818655 -1.57387 0
M  V30 3251 C 308.722 0.815343 -1.77796 0
M  V30 3252 C 309.102 1.96289 -0.77679 0
M  V30 3253 O 308.45 2.27691 0.192106 0
M  V30 3254 C 308.66 1.29765 -3.23978 0
M  V30 3255 C 310.008 1.7351 -3.8753 0
M  V30 3256 O 311.032 1.39356 -3.27808 0
M  V30 3257 O 309.891 2.36708 -4.92576 0
M  V30 3258 H 306.985 0.389914 -0.729312 0
M  V30 3259 H 309.531 0.0627213 -1.69584 0
M  V30 3260 H 308.303 0.47608 -3.88393 0
M  V30 3261 H 307.926 2.11189 -3.36875 0
M  V30 3262 N 308.923 1.53595 0.353017 0
M  V30 3263 C 309.833 1.83897 1.45667 0
M  V30 3264 C 310.849 0.728334 1.58023 0
M  V30 3265 O 312.025 1.01968 1.73679 0
M  V30 3266 C 309.09 2.03383 2.80778 0
M  V30 3267 C 308.151 3.27262 2.77845 0
M  V30 3268 C 307.384 3.45809 4.06512 0
M  V30 3269 O 307.607 2.68387 5.03314 0
M  V30 3270 O 306.541 4.39207 4.11559 0
M  V30 3271 H 310.367 2.77686 1.2298 0
M  V30 3272 H 307.952 1.39132 0.544308 0
M  V30 3273 H 309.834 2.17698 3.60812 0
M  V30 3274 H 308.509 1.12783 3.03417 0
M  V30 3275 H 307.416 3.18359 1.96465 0
M  V30 3276 H 308.749 4.17824 2.60161 0
M  V30 3277 N 310.401 -0.613514 1.45168 0
M  V30 3278 C 311.626 -1.40437 1.52618 0
M  V30 3279 C 312.051 -1.87438 0.157707 0
M  V30 3280 O 311.409 -1.59791 -0.856537 0
M  V30 3281 C 311.457 -2.58894 2.51011 0
M  V30 3282 O 310.561 -3.59326 2.02382 0
M  V30 3283 H 309.902 -0.419506 0.514695 0
M  V30 3284 H 312.432 -0.747215 1.90467 0
M  V30 3285 H 312.442 -3.06214 2.69624 0
M  V30 3286 H 311.117 -2.24032 3.50403 0
M  V30 3287 H 309.694 -3.18695 1.93618 0
M  V30 3288 N 311.879 -1.3236 -0.855495 0
M  V30 3289 C 313.126 -1.22872 -1.60962 0
M  V30 3290 C 313.454 0.209658 -1.93367 0
M  V30 3291 O 312.709 1.16243 -1.57436 0
M  V30 3292 C 313.008 -2.03275 -2.93963 0
M  V30 3293 C 312.674 -3.5264 -2.80991 0
M  V30 3294 C 311.336 -3.93364 -2.7716 0
M  V30 3295 C 313.688 -4.47626 -2.66983 0
M  V30 3296 C 311.016 -5.27319 -2.572 0
M  V30 3297 C 313.368 -5.81723 -2.48558 0
M  V30 3298 C 312.032 -6.2165 -2.4312 0
M  V30 3299 H 311.302 -0.44962 -0.589001 0
M  V30 3300 H 313.949 -1.63777 -0.992442 0
M  V30 3301 H 312.254 -1.55095 -3.59795 0
M  V30 3302 H 313.951 -1.93303 -3.51333 0
M  V30 3303 H 310.541 -3.20295 -2.84797 0
M  V30 3304 H 314.725 -4.17084 -2.68988 0
M  V30 3305 H 309.981 -5.57311 -2.51424 0
M  V30 3306 H 314.155 -6.5494 -2.36699 0
M  V30 3307 H 311.782 -7.25388 -2.27412 0
M  V30 3308 N 313.357 1.07166 -1.15556 0
M  V30 3309 C 314.582 1.84053 -0.955988 0
M  V30 3310 C 315.007 1.81586 0.490739 0
M  V30 3311 O 314.365 1.21018 1.34997 0
M  V30 3312 C 314.413 3.28957 -1.47714 0
M  V30 3313 O 313.517 4.06795 -0.677593 0
M  V30 3314 H 312.858 0.569842 -0.340847 0
M  V30 3315 H 315.388 1.35178 -1.53584 0
M  V30 3316 H 315.398 3.79788 -1.4908 0
M  V30 3317 H 314.073 3.30068 -2.53037 0
M  V30 3318 H 312.65 3.6561 -0.733721 0
M  V30 3319 N 314.835 0.952656 1.25548 0
M  V30 3320 C 315.767 0.428609 2.25157 0
M  V30 3321 C 316.78 -0.454428 1.56329 0
M  V30 3322 O 317.969 -0.263023 1.76552 0
M  V30 3323 C 315.069 -0.401972 3.36508 0
M  V30 3324 C 314.242 0.467601 4.34893 0
M  V30 3325 C 313.301 -0.30445 5.25319 0
M  V30 3326 O 312.327 0.296473 5.68427 0
M  V30 3327 N 313.529 -1.59805 5.5807 0
M  V30 3328 H 316.294 1.28497 2.70756 0
M  V30 3329 H 313.855 0.822798 1.39433 0
M  V30 3330 H 315.847 -0.926134 3.9396 0
M  V30 3331 H 314.417 -1.15918 2.90313 0
M  V30 3332 H 313.637 1.17288 3.76347 0
M  V30 3333 H 314.925 1.06119 4.97611 0
M  V30 3334 H 314.323 -2.10823 5.24948 0
M  V30 3335 H 312.88 -2.06822 6.18116 0
M  V30 3336 N 316.313 -1.40141 0.720998 0
M  V30 3337 C 317.729 -1.54632 0.395113 0
M  V30 3338 C 317.929 -1.69115 -1.09555 0
M  V30 3339 O 316.985 -1.68377 -1.88163 0
M  V30 3340 C 318.298 -2.77177 1.1659 0
M  V30 3341 C 319.846 -2.91 1.15274 0
M  V30 3342 C 320.321 -4.16465 1.90579 0
M  V30 3343 N 321.812 -4.23476 1.87675 0
M  V30 3344 C 322.547 -5.19475 2.42762 0
M  V30 3345 N 322.043 -6.21348 3.06428 0
M  V30 3346 N 323.836 -5.11592 2.32874 0
M  V30 3347 H 315.987 -1.28986 1.68749 0
M  V30 3348 H 318.25 -0.62412 0.713567 0
M  V30 3349 H 317.956 -2.72771 2.22011 0
M  V30 3350 H 317.83 -3.69442 0.76108 0
M  V30 3351 H 320.217 -2.94907 0.106702 0
M  V30 3352 H 320.298 -1.99838 1.59682 0
M  V30 3353 H 319.942 -4.1332 2.95176 0
M  V30 3354 H 319.872 -5.06646 1.43587 0
M  V30 3355 H 322.363 -3.50497 1.41281 0
M  V30 3356 H 322.676 -6.91034 3.45965 0
M  V30 3357 H 321.021 -6.21777 3.10514 0
M  V30 3358 H 324.212 -4.30936 1.82789 0
M  V30 3359 H 324.385 -5.86233 2.76106 0
M  V30 3360 N 317.792 -0.46758 -1.50504 0
M  V30 3361 C 318.722 0.318381 -2.31319 0
M  V30 3362 C 319.703 0.993564 -1.38066 0
M  V30 3363 O 320.888 0.991411 -1.66987 0
M  V30 3364 C 318.018 1.40275 -3.17711 0
M  V30 3365 C 316.972 0.849373 -4.19487 0
M  V30 3366 C 316.298 2.03177 -4.94594 0
M  V30 3367 C 317.598 -0.136942 -5.2212 0
M  V30 3368 H 319.292 -0.356106 -2.97275 0
M  V30 3369 H 316.838 -0.172703 -1.42961 0
M  V30 3370 H 318.791 1.96004 -3.73042 0
M  V30 3371 H 317.515 2.10596 -2.49634 0
M  V30 3372 H 316.174 0.314076 -3.65252 0
M  V30 3373 H 315.822 2.72187 -4.22993 0
M  V30 3374 H 315.522 1.66774 -5.63436 0
M  V30 3375 H 317.046 2.59403 -5.52759 0
M  V30 3376 H 318.46 0.331056 -5.72343 0
M  V30 3377 H 316.857 -0.41507 -5.98663 0
M  V30 3378 H 317.927 -1.06398 -4.73083 0
M  V30 3379 N 319.27 1.56325 -0.20005 0
M  V30 3380 C 320.681 1.8408 0.31167 0
M  V30 3381 C 321.032 1.12087 1.61031 0
M  V30 3382 O 320.157 0.38332 2.12978 0
M  V30 3383 C 320.752 3.33932 0.57226 0
M  V30 3384 C 319.311 3.6208 1.02834 0
M  V30 3385 C 318.458 2.77186 0.079634 0
M  V30 3386 H 321.409 1.52939 -0.423729 0
M  V30 3387 H 321.43 3.52971 1.42096 0
M  V30 3388 H 320.942 3.86303 -0.37308 0
M  V30 3389 H 319.043 3.15147 1.98778 0
M  V30 3390 H 319.156 4.7023 0.917624 0
M  V30 3391 H 317.52 2.47951 0.582448 0
M  V30 3392 H 318.303 3.32347 -0.860238 0
M  V30 3393 N 320.748 -0.0735177 1.57428 0
M  V30 3394 C 321.678 -1.0879 2.06608 0
M  V30 3395 C 322.659 -1.40473 0.959237 0
M  V30 3396 O 323.844 -1.5013 1.23185 0
M  V30 3397 C 320.974 -2.40183 2.50857 0
M  V30 3398 C 319.928 -2.22858 3.65402 0
M  V30 3399 C 319.254 -3.59619 3.957 0
M  V30 3400 C 320.554 -1.65123 4.95511 0
M  V30 3401 H 322.248 -0.678673 2.91607 0
M  V30 3402 H 319.794 -0.325013 1.40284 0
M  V30 3403 H 321.747 -3.11437 2.83874 0
M  V30 3404 H 320.471 -2.83083 1.62885 0
M  V30 3405 H 319.13 -1.54045 3.32664 0
M  V30 3406 H 318.778 -4.00086 3.04861 0
M  V30 3407 H 318.478 -3.48866 4.72828 0
M  V30 3408 H 320.002 -4.32306 4.31212 0
M  V30 3409 H 321.416 -2.26241 5.26771 0
M  V30 3410 H 319.813 -1.65071 5.7695 0
M  V30 3411 H 320.883 -0.612559 4.81015 0
M  V30 3412 N 322.226 -1.5378 -0.344866 0
M  V30 3413 C 323.174 -1.82373 -1.4437 0
M  V30 3414 C 324.168 -0.694128 -1.54526 0
M  V30 3415 O 325.374 -0.877442 -1.57165 0
M  V30 3416 H 321.749 -0.577765 -0.481344 0
M  V30 3417 H 323.72 -2.74306 -1.17468 0
M  V30 3418 C 322.469 -2.04898 -2.80913 0
M  V30 3419 H 321.792 -2.9127 -2.73865 0
M  V30 3420 H 323.232 -2.28871 -3.56923 0
M  V30 3421 C 321.691 -0.834116 -3.26411 0
M  V30 3422 O 322.221 -0.0328885 -4.01687 0
M  V30 3423 N 320.427 -0.65171 -2.83198 0
M  V30 3424 H 319.974 -1.30489 -2.22104 0
M  V30 3425 H 319.932 0.159686 -3.13994 0
M  V30 3426 N 323.704 0.605807 -1.45491 0
M  V30 3427 C 324.953 1.36086 -1.48874 0
M  V30 3428 C 325.266 1.95131 -0.135333 0
M  V30 3429 O 326.472 2.7146 -0.0468144 0
M  V30 3430 C 324.928 2.46518 -2.62215 0
M  V30 3431 C 324.536 1.93877 -4.03876 0
M  V30 3432 C 326.28 3.23512 -2.74846 0
M  V30 3433 C 324.187 3.01801 -5.08596 0
M  V30 3434 H 323.117 0.511497 -0.553974 0
M  V30 3435 H 325.768 0.649089 -1.71636 0
M  V30 3436 H 324.15 3.20388 -2.32739 0
M  V30 3437 H 325.324 1.26704 -4.43038 0
M  V30 3438 H 323.639 1.29622 -3.95711 0
M  V30 3439 H 326.236 4.04013 -3.50253 0
M  V30 3440 H 326.579 3.74631 -1.81542 0
M  V30 3441 H 327.112 2.56742 -3.03856 0
M  V30 3442 H 323.851 2.55597 -6.03614 0
M  V30 3443 H 323.371 3.67535 -4.74002 0
M  V30 3444 H 325.05 3.66152 -5.33424 0
M  V30 3445 N 325.182 1.32811 0.848464 0
M  V30 3446 C 326.092 1.24278 1.98978 0
M  V30 3447 C 327.108 0.155176 1.73307 0
M  V30 3448 O 328.284 0.376999 1.9784 0
M  V30 3449 C 325.349 0.972444 3.32783 0
M  V30 3450 C 324.41 2.14911 3.71634 0
M  V30 3451 C 323.643 1.89157 4.99054 0
M  V30 3452 O 323.866 0.837165 5.64223 0
M  V30 3453 O 322.8 2.75433 5.35183 0
M  V30 3454 H 326.626 2.20238 2.09115 0
M  V30 3455 H 324.211 1.12762 0.980052 0
M  V30 3456 H 326.093 0.838432 4.12975 0
M  V30 3457 H 324.768 0.043051 3.23671 0
M  V30 3458 H 323.675 2.33862 2.91992 0
M  V30 3459 H 325.008 3.06151 3.85399 0
M  V30 3460 N 326.66 -1.06551 1.16123 0
M  V30 3461 C 327.57 -2.17484 0.879662 0
M  V30 3462 C 328.586 -1.73377 -0.147104 0
M  V30 3463 O 329.762 -2.01379 0.0289128 0
M  V30 3464 C 326.827 -3.44591 0.381829 0
M  V30 3465 C 325.888 -4.0322 1.4735 0
M  V30 3466 C 325.121 -5.24261 0.999324 0
M  V30 3467 O 325.344 -5.70198 -0.151957 0
M  V30 3468 O 324.278 -5.74775 1.78653 0
M  V30 3469 H 328.104 -2.44075 1.80724 0
M  V30 3470 H 325.689 -1.16042 0.940992 0
M  V30 3471 H 327.571 -4.21254 0.111053 0
M  V30 3472 H 326.246 -3.19532 -0.51777 0
M  V30 3473 H 325.153 -3.2806 1.79798 0
M  V30 3474 H 326.486 -4.32568 2.34831 0
M  V30 3475 N 328.138 -0.959301 -1.25041 0
M  V30 3476 C 329.101 -0.487677 -2.23952 0
M  V30 3477 C 330.101 0.41119 -1.55454 0
M  V30 3478 O 331.291 0.207825 -1.72956 0
M  V30 3479 C 328.423 0.294807 -3.39623 0
M  V30 3480 H 329.616 -1.36198 -2.67189 0
M  V30 3481 H 327.169 -0.743042 -1.37508 0
M  V30 3482 H 327.904 1.18658 -3.01813 0
M  V30 3483 H 327.689 -0.35012 -3.90534 0
M  V30 3484 H 329.179 0.614089 -4.1306 0
M  V30 3485 N 329.616 1.39756 -0.72842 0
M  V30 3486 C 330.563 2.30647 -0.0841519 0
M  V30 3487 C 331.533 1.48869 0.7367 0
M  V30 3488 O 332.718 1.77574 0.698015 0
M  V30 3489 C 329.858 3.35165 0.822091 0
M  V30 3490 C 328.971 4.31999 -0.0106663 0
M  V30 3491 C 328.106 5.23585 0.896241 0
M  V30 3492 C 327.145 6.12072 0.0583381 0
M  V30 3493 N 326.282 6.96035 0.920818 0
M  V30 3494 H 331.122 2.85173 -0.864891 0
M  V30 3495 H 328.659 1.40422 -0.438179 0
M  V30 3496 H 330.617 3.94345 1.36189 0
M  V30 3497 H 329.247 2.8211 1.56888 0
M  V30 3498 H 328.299 3.74492 -0.66781 0
M  V30 3499 H 329.611 4.9443 -0.658825 0
M  V30 3500 H 328.765 5.87759 1.50412 0
M  V30 3501 H 327.504 4.61459 1.57819 0
M  V30 3502 H 326.509 5.46916 -0.562389 0
M  V30 3503 H 327.734 6.76261 -0.6203 0
M  V30 3504 H 325.68 6.36485 1.58818 0
M  V30 3505 H 325.597 7.55284 0.32899 0
M  V30 3506 H 326.865 7.64646 1.51447 0
M  V30 3507 N 331.094 0.475555 1.50254 0
M  V30 3508 C 332.371 -0.139685 1.95101 0
M  V30 3509 C 332.751 -1.56555 1.41611 0
M  V30 3510 O 332.099 -2.19956 0.618993 0
M  V30 3511 C 332.309 -0.0784298 3.48912 0
M  V30 3512 C 333.657 -0.265095 4.23772 0
M  V30 3513 O 334.681 -0.154808 3.55863 0
M  V30 3514 O 333.54 -0.488327 5.44314 0
M  V30 3515 H 330.634 -0.109236 0.819754 0
M  V30 3516 H 333.18 0.536276 1.61004 0
M  V30 3517 H 331.952 0.916918 3.80405 0
M  V30 3518 H 331.575 -0.795655 3.89558 0
M  V30 3519 N 332.573 -1.56217 0.208337 0
M  V30 3520 C 333.989 -1.58919 -0.14729 0
M  V30 3521 C 334.189 -1.22486 -1.59998 0
M  V30 3522 O 333.245 -0.953849 -2.3379 0
M  V30 3523 C 334.558 -3.00236 0.167048 0
M  V30 3524 C 336.106 -3.12813 0.108219 0
M  V30 3525 C 336.581 -4.56284 0.396049 0
M  V30 3526 N 338.072 -4.61912 0.345142 0
M  V30 3527 C 338.807 -5.70837 0.541523 0
M  V30 3528 N 338.303 -6.88178 0.798968 0
M  V30 3529 N 340.096 -5.60091 0.474867 0
M  V30 3530 H 332.247 -1.78177 1.15614 0
M  V30 3531 H 334.51 -0.827555 0.462446 0
M  V30 3532 H 334.216 -3.31499 1.1748 0
M  V30 3533 H 334.09 -3.7354 -0.524184 0
M  V30 3534 H 336.477 -2.81354 -0.890157 0
M  V30 3535 H 336.558 -2.41866 0.832729 0
M  V30 3536 H 336.202 -4.88458 1.3918 0
M  V30 3537 H 336.132 -5.25439 -0.349502 0
M  V30 3538 H 338.623 -3.77589 0.153316 0
M  V30 3539 H 338.936 -7.67095 0.93727 0
M  V30 3540 H 337.281 -6.89953 0.836013 0
M  V30 3541 H 340.472 -4.67297 0.274064 0
M  V30 3542 H 340.645 -6.44917 0.631326 0
M  V30 3543 N 334.051 0.0651679 -1.57465 0
M  V30 3544 C 334.981 1.07693 -2.07182 0
M  V30 3545 C 335.962 1.39962 -0.966673 0
M  V30 3546 O 337.147 1.49475 -1.2398 0
M  V30 3547 C 334.277 2.3885 -2.52127 0
M  V30 3548 C 333.231 2.20917 -3.66579 0
M  V30 3549 C 332.557 3.57515 -3.97601 0
M  V30 3550 C 333.857 1.62493 -4.9638 0
M  V30 3551 H 335.551 0.663199 -2.91962 0
M  V30 3552 H 333.097 0.317569 -1.40455 0
M  V30 3553 H 335.05 3.09928 -2.85522 0
M  V30 3554 H 333.774 2.82215 -1.64384 0
M  V30 3555 H 332.433 1.52279 -3.33477 0
M  V30 3556 H 332.081 3.98463 -3.06979 0
M  V30 3557 H 331.781 3.46353 -4.74672 0
M  V30 3558 H 333.305 4.30013 -4.33499 0
M  V30 3559 H 334.719 2.23445 -5.27963 0
M  V30 3560 H 333.116 1.62009 -5.77818 0
M  V30 3561 H 334.186 0.587041 -4.81333 0
M  V30 3562 N 335.529 1.53961 0.336706 0
M  V30 3563 C 336.945 1.44378 0.680241 0
M  V30 3564 C 337.145 0.606034 1.9217 0
M  V30 3565 O 336.201 0.099688 2.52303 0
M  V30 3566 C 337.514 2.87945 0.8665 0
M  V30 3567 C 339.062 2.97763 0.964682 0
M  V30 3568 C 339.537 4.42453 1.18321 0
M  V30 3569 N 341.028 4.46008 1.25025 0
M  V30 3570 C 341.763 5.55102 1.43697 0
M  V30 3571 N 341.259 6.7419 1.59498 0
M  V30 3572 N 343.052 5.42727 1.463 0
M  V30 3573 H 335.203 2.06918 -0.479455 0
M  V30 3574 H 337.466 0.935634 -0.152619 0
M  V30 3575 H 337.172 3.51691 0.0256937 0
M  V30 3576 H 337.046 3.33293 1.76623 0
M  V30 3577 H 339.433 2.34153 1.796 0
M  V30 3578 H 339.514 2.55766 0.041708 0
M  V30 3579 H 339.158 5.06645 0.356788 0
M  V30 3580 H 339.088 4.82048 2.11985 0
M  V30 3581 H 341.579 3.60196 1.14312 0
M  V30 3582 H 341.892 7.53095 1.734 0
M  V30 3583 H 340.237 6.77123 1.56621 0
M  V30 3584 H 343.428 4.48647 1.33543 0
M  V30 3585 H 343.601 6.27806 1.6051 0
M  V30 3586 N 337.007 -0.598083 1.45811 0
M  V30 3587 C 338.256 -1.35295 1.49594 0
M  V30 3588 C 338.569 -1.95057 0.145679 0
M  V30 3589 O 339.775 -2.71431 0.0612099 0
M  V30 3590 C 338.231 -2.45124 2.63519 0
M  V30 3591 C 337.839 -1.91732 4.04899 0
M  V30 3592 C 339.583 -3.2205 2.76558 0
M  V30 3593 C 337.49 -2.991 5.1019 0
M  V30 3594 H 336.42 -0.508552 0.556679 0
M  V30 3595 H 339.071 -0.639977 1.71978 0
M  V30 3596 H 337.453 -3.19149 2.34435 0
M  V30 3597 H 338.627 -1.24352 4.43704 0
M  V30 3598 H 336.942 -1.27522 3.96393 0
M  V30 3599 H 339.539 -4.0215 3.52391 0
M  V30 3600 H 339.882 -3.73663 1.83526 0
M  V30 3601 H 340.415 -2.55127 3.05213 0
M  V30 3602 H 337.154 -2.52393 6.04961 0
M  V30 3603 H 336.674 -3.65017 4.75944 0
M  V30 3604 H 338.353 -3.63318 5.35359 0
M  V30 3605 N 338.485 -1.33259 -0.841409 0
M  V30 3606 C 339.415 -1.25926 -1.96634 0
M  V30 3607 C 340.396 -0.140349 -1.6952 0
M  V30 3608 O 341.581 -0.329707 -1.91381 0
M  V30 3609 C 338.711 -0.99512 -3.32738 0
M  V30 3610 C 337.665 -2.0767 -3.74242 0
M  V30 3611 C 336.991 -1.66474 -5.08125 0
M  V30 3612 C 338.291 -3.49318 -3.88297 0
M  V30 3613 H 339.985 -2.20046 -2.03027 0
M  V30 3614 H 337.531 -1.05931 -0.975425 0
M  V30 3615 H 339.484 -0.930323 -4.11002 0
M  V30 3616 H 338.208 -0.0183004 -3.26595 0
M  V30 3617 H 336.867 -2.13187 -2.98239 0
M  V30 3618 H 336.515 -0.675012 -4.9845 0
M  V30 3619 H 336.215 -2.3885 -5.36865 0
M  V30 3620 H 337.739 -1.61455 -5.88867 0
M  V30 3621 H 339.153 -3.46316 -4.56879 0
M  V30 3622 H 337.55 -4.20158 -4.28471 0
M  V30 3623 H 338.62 -3.8801 -2.9082 0
M  V30 3624 N 339.963 1.05934 -1.16686 0
M  V30 3625 C 340.896 2.1295 -0.820225 0
M  V30 3626 C 341.874 1.61242 0.209722 0
M  V30 3627 O 343.058 1.88271 0.0929688 0
M  V30 3628 C 340.185 3.3797 -0.22223 0
M  V30 3629 C 339.231 4.08488 -1.22637 0
M  V30 3630 S 340.064 4.58015 -2.77457 0
M  V30 3631 C 341.22 5.86292 -2.19117 0
M  V30 3632 H 341.453 2.42025 -1.72659 0
M  V30 3633 H 338.986 1.18423 -0.990722 0
M  V30 3634 H 340.944 4.10335 0.116322 0
M  V30 3635 H 339.605 3.07045 0.66196 0
M  V30 3636 H 338.798 4.98291 -0.756455 0
M  V30 3637 H 338.4 3.42154 -1.51019 0
M  V30 3638 H 340.692 6.59246 -1.56209 0
M  V30 3639 H 341.635 6.38019 -3.07144 0
M  V30 3640 H 342.043 5.40497 -1.62858 0
M  V30 3641 N 341.441 0.965919 1.2453 0
M  V30 3642 C 342.371 0.513476 2.27784 0
M  V30 3643 C 343.352 -0.445974 1.6415 0
M  V30 3644 O 344.537 -0.342485 1.91156 0
M  V30 3645 C 341.667 -0.198839 3.4673 0
M  V30 3646 C 340.621 0.676456 4.2262 0
M  V30 3647 C 339.947 -0.167248 5.34438 0
M  V30 3648 C 341.247 1.96017 4.84123 0
M  V30 3649 H 342.941 1.3765 2.65881 0
M  V30 3650 H 340.487 0.663321 1.27813 0
M  V30 3651 H 342.44 -0.526567 4.18097 0
M  V30 3652 H 341.164 -1.0962 3.07654 0
M  V30 3653 H 339.823 0.98743 3.53052 0
M  V30 3654 H 339.471 -1.0647 4.91603 0
M  V30 3655 H 339.171 0.415181 5.86131 0
M  V30 3656 H 340.695 -0.489688 6.08633 0
M  V30 3657 H 342.109 1.69814 5.47573 0
M  V30 3658 H 340.506 2.48918 5.4604 0
M  V30 3659 H 341.576 2.65622 4.05676 0
M  V30 3660 N 342.919 -1.39368 0.735821 0
M  V30 3661 C 344.335 -1.54204 0.411492 0
M  V30 3662 C 344.535 -1.70268 -1.07755 0
M  V30 3663 O 343.591 -1.70364 -1.86366 0
M  V30 3664 C 344.904 -2.75925 1.19523 0
M  V30 3665 C 346.452 -2.89761 1.18354 0
M  V30 3666 C 346.927 -4.14421 1.94986 0
M  V30 3667 N 348.418 -4.21462 1.92156 0
M  V30 3668 C 349.153 -5.16871 2.48258 0
M  V30 3669 N 348.649 -6.18063 3.13001 0
M  V30 3670 N 350.442 -5.09093 2.38287 0
M  V30 3671 H 342.593 -1.27189 1.70108 0
M  V30 3672 H 344.856 -0.616517 0.720147 0
M  V30 3673 H 344.562 -2.70401 2.24892 0
M  V30 3674 H 344.436 -3.68614 0.800222 0
M  V30 3675 H 346.823 -2.94777 0.137975 0
M  V30 3676 H 346.904 -1.98133 1.61793 0
M  V30 3677 H 346.548 -4.10166 2.99543 0
M  V30 3678 H 346.478 -5.05095 1.48953 0
M  V30 3679 H 348.969 -3.48979 1.44991 0
M  V30 3680 H 349.282 -6.87326 3.53275 0
M  V30 3681 H 347.627 -6.18448 3.17091 0
M  V30 3682 H 350.818 -4.28973 1.8735 0
M  V30 3683 H 350.991 -5.83272 2.82308 0
M  V30 3684 N 344.397 -0.483516 -1.5 0
M  V30 3685 C 345.344 0.304164 -2.28787 0
M  V30 3686 C 346.314 0.976114 -1.34392 0
M  V30 3687 O 347.499 0.986156 -1.63339 0
M  V30 3688 C 344.639 1.37298 -3.16612 0
M  V30 3689 C 343.752 0.714561 -4.26049 0
M  V30 3690 C 342.887 1.76232 -5.01114 0
M  V30 3691 C 341.926 1.08483 -6.0241 0
M  V30 3692 N 341.063 2.076 -6.70706 0
M  V30 3693 H 345.903 -0.373981 -2.95644 0
M  V30 3694 H 343.44 -0.196275 -1.45785 0
M  V30 3695 H 345.398 2.00445 -3.65893 0
M  V30 3696 H 344.028 2.02012 -2.51776 0
M  V30 3697 H 343.08 -0.0297798 -3.80388 0
M  V30 3698 H 344.392 0.180383 -4.98474 0
M  V30 3699 H 343.546 2.46929 -5.54176 0
M  V30 3700 H 342.285 2.33033 -4.28424 0
M  V30 3701 H 341.29 0.363545 -5.48597 0
M  V30 3702 H 342.515 0.523551 -6.77079 0
M  V30 3703 H 340.461 2.63394 -6.00799 0
M  V30 3704 H 340.378 1.59201 -7.39047 0
M  V30 3705 H 341.646 2.77639 -7.2838 0
M  V30 3706 N 345.875 1.56104 -0.216619 0
M  V30 3707 C 346.825 2.16703 0.708798 0
M  V30 3708 C 347.809 1.11392 1.16106 0
M  V30 3709 O 349.001 1.37395 1.11587 0
M  V30 3710 C 346.13 2.84666 1.91886 0
M  V30 3711 C 345.216 3.97195 1.48651 0
M  V30 3712 N 345.607 4.99959 0.766434 0
M  V30 3713 C 343.905 4.09193 1.77418 0
M  V30 3714 C 344.606 5.79126 0.546659 0
M  V30 3715 N 343.582 5.32315 1.10188 0
M  V30 3716 H 347.384 2.93516 0.150162 0
M  V30 3717 H 344.898 1.6239 -0.0176768 0
M  V30 3718 H 346.895 3.26486 2.59253 0
M  V30 3719 H 345.555 2.09347 2.48202 0
M  V30 3720 H 346.566 5.16197 0.419634 0
M  V30 3721 H 343.243 3.45021 2.35088 0
M  V30 3722 H 344.633 6.71895 -0.026103 0
M  V30 3723 N 347.353 -0.0568162 1.57498 0
M  V30 3724 C 348.764 -0.606858 1.76562 0
M  V30 3725 C 349.115 -1.77114 0.844094 0
M  V30 3726 O 348.24 -2.16376 0.0318911 0
M  V30 3727 C 348.835 -1.10766 3.20182 0
M  V30 3728 C 347.394 -1.60344 3.40539 0
M  V30 3729 C 346.541 -0.529311 2.72201 0
M  V30 3730 H 349.492 0.169393 1.57793 0
M  V30 3731 H 349.513 -1.97602 3.25167 0
M  V30 3732 H 349.025 -0.26006 3.87228 0
M  V30 3733 H 347.126 -2.47379 2.78629 0
M  V30 3734 H 347.239 -1.67006 4.4905 0
M  V30 3735 H 345.603 -0.977893 2.35179 0
M  V30 3736 H 346.386 0.308352 3.41912 0
M  V30 3737 N 348.832 -1.54138 -0.328536 0
M  V30 3738 C 350.248 -1.44736 -0.672574 0
M  V30 3739 C 350.448 -0.616217 -1.91846 0
M  V30 3740 O 349.504 -0.113067 -2.52247 0
M  V30 3741 C 350.817 -2.884 -0.851217 0
M  V30 3742 C 352.365 -2.98271 -0.948877 0
M  V30 3743 C 352.84 -4.43074 -1.15973 0
M  V30 3744 N 354.331 -4.46665 -1.22658 0
M  V30 3745 C 355.066 -5.55857 -1.40751 0
M  V30 3746 N 354.562 -6.75026 -1.5592 0
M  V30 3747 N 356.355 -5.43495 -1.4342 0
M  V30 3748 H 348.506 -2.06661 0.490421 0
M  V30 3749 H 350.769 -0.934812 0.157579 0
M  V30 3750 H 350.475 -3.51699 -0.00704236 0
M  V30 3751 H 350.349 -3.34225 -1.74853 0
M  V30 3752 H 352.736 -2.35102 -1.78356 0
M  V30 3753 H 352.817 -2.55785 -0.0281435 0
M  V30 3754 H 352.461 -5.06827 -0.329915 0
M  V30 3755 H 352.391 -4.83165 -2.09426 0
M  V30 3756 H 354.882 -3.60797 -1.124 0
M  V30 3757 H 355.195 -7.54004 -1.69404 0
M  V30 3758 H 353.54 -6.77944 -1.53027 0
M  V30 3759 H 356.731 -4.49349 -1.31162 0
M  V30 3760 H 356.904 -6.28649 -1.57178 0
M  V30 3761 N 350.31 0.590341 -1.46126 0
M  V30 3762 C 351.535 1.37991 -1.54833 0
M  V30 3763 C 351.96 1.87163 -0.187506 0
M  V30 3764 O 351.318 1.61133 0.831008 0
M  V30 3765 C 351.366 2.54867 -2.55098 0
M  V30 3766 O 350.47 3.56061 -2.08073 0
M  V30 3767 H 349.811 0.411265 -0.521303 0
M  V30 3768 H 352.341 0.716819 -1.91632 0
M  V30 3769 H 352.351 3.01886 -2.74461 0
M  V30 3770 H 351.026 2.18429 -3.53923 0
M  V30 3771 H 349.603 3.15574 -1.98664 0
M  V30 3772 N 351.788 1.33704 0.83433 0
M  V30 3773 C 352.718 1.26967 1.95963 0
M  V30 3774 C 353.699 0.149337 1.69443 0
M  V30 3775 O 354.884 0.339852 1.91203 0
M  V30 3776 C 352.014 1.01275 3.32206 0
M  V30 3777 C 350.968 2.09652 3.73136 0
M  V30 3778 C 350.294 1.69166 5.07235 0
M  V30 3779 C 351.594 3.51372 3.86439 0
M  V30 3780 H 353.288 2.2112 2.01857 0
M  V30 3781 H 350.834 1.06447 0.969793 0
M  V30 3782 H 352.787 0.952106 4.10503 0
M  V30 3783 H 351.511 0.0356203 3.26581 0
M  V30 3784 H 350.17 2.14766 2.97104 0
M  V30 3785 H 349.818 0.701437 4.98085 0
M  V30 3786 H 349.518 2.41694 5.35591 0
M  V30 3787 H 351.042 1.64576 5.88003 0
M  V30 3788 H 352.456 3.48734 4.55036 0
M  V30 3789 H 350.853 4.22425 4.26236 0
M  V30 3790 H 351.923 3.89546 2.88759 0
M  V30 3791 N 353.266 -1.05314 1.17247 0
M  V30 3792 C 354.196 -2.1498 0.911362 0
M  V30 3793 C 355.177 -1.69471 -0.146169 0
M  V30 3794 O 356.362 -1.942 0.003812 0
M  V30 3795 C 353.492 -3.4472 0.422528 0
M  V30 3796 C 352.446 -4.03789 1.4191 0
M  V30 3797 C 351.772 -5.28858 0.788274 0
M  V30 3798 C 353.072 -4.41418 2.7919 0
M  V30 3799 H 354.766 -2.3708 1.82848 0
M  V30 3800 H 352.312 -1.13938 0.880569 0
M  V30 3801 H 354.265 -4.20787 0.227289 0
M  V30 3802 H 352.989 -3.22269 -0.530123 0
M  V30 3803 H 351.648 -3.2979 1.60106 0
M  V30 3804 H 351.296 -5.02709 -0.171173 0
M  V30 3805 H 350.996 -5.69338 1.45353 0
M  V30 3806 H 352.52 -6.07612 0.603282 0
M  V30 3807 H 353.934 -5.08524 2.64719 0
M  V30 3808 H 352.331 -4.92913 3.42282 0
M  V30 3809 H 353.401 -3.51819 3.33693 0
M  V30 3810 N 354.744 -0.972509 -1.24016 0
M  V30 3811 C 355.993 -0.632603 -1.91523 0
M  V30 3812 C 356.306 0.836641 -1.76804 0
M  V30 3813 O 357.512 1.28728 -2.39043 0
M  V30 3814 C 355.968 -1.08082 -3.43287 0
M  V30 3815 C 355.576 -2.57386 -3.66683 0
M  V30 3816 C 357.32 -0.814288 -4.16617 0
M  V30 3817 C 355.227 -2.95915 -5.12043 0
M  V30 3818 H 354.157 -0.232898 -0.717129 0
M  V30 3819 H 356.808 -1.17936 -1.40582 0
M  V30 3820 H 355.19 -0.462339 -3.93292 0
M  V30 3821 H 356.364 -3.24405 -3.27258 0
M  V30 3822 H 354.679 -2.81701 -3.06649 0
M  V30 3823 H 357.276 -1.0781 -5.23718 0
M  V30 3824 H 357.619 0.24955 -4.15551 0
M  V30 3825 H 358.152 -1.39397 -3.72577 0
M  V30 3826 H 354.891 -4.0139 -5.18234 0
M  V30 3827 H 354.411 -2.33584 -5.52448 0
M  V30 3828 H 356.09 -2.86086 -5.80314 0
M  V30 3829 N 356.222 1.38976 -0.743202 0
M  V30 3830 C 357.152 2.33171 -0.123873 0
M  V30 3831 C 358.133 1.54336 0.71516 0
M  V30 3832 O 359.318 1.82696 0.658467 0
M  V30 3833 C 356.448 3.38474 0.777978 0
M  V30 3834 C 355.402 4.27979 0.0424758 0
M  V30 3835 C 354.728 5.2405 1.06189 0
M  V30 3836 C 356.028 5.10155 -1.1198 0
M  V30 3837 H 357.722 2.85213 -0.910709 0
M  V30 3838 H 355.268 1.37133 -0.439388 0
M  V30 3839 H 357.221 4.03328 1.22084 0
M  V30 3840 H 355.945 2.84891 1.59702 0
M  V30 3841 H 354.604 3.64616 -0.380853 0
M  V30 3842 H 354.252 4.66758 1.87472 0
M  V30 3843 H 353.952 5.84785 0.574485 0
M  V30 3844 H 355.476 5.9178 1.50428 0
M  V30 3845 H 356.89 5.68307 -0.75499 0
M  V30 3846 H 355.287 5.80073 -1.53738 0
M  V30 3847 H 356.357 4.44504 -1.93764 0
M  V30 3848 N 357.7 0.491464 1.49741 0
M  V30 3849 C 358.977 -0.118984 1.95238 0
M  V30 3850 C 359.357 -1.55044 1.43264 0
M  V30 3851 O 358.705 -2.19287 0.642287 0
M  V30 3852 C 358.915 -0.0414187 3.48975 0
M  V30 3853 C 360.263 -0.220133 4.24029 0
M  V30 3854 O 361.287 -0.117055 3.56008 0
M  V30 3855 O 360.146 -0.430567 5.44801 0
M  V30 3856 H 357.24 -0.100536 0.820866 0
M  V30 3857 H 359.786 0.553322 1.60426 0
M  V30 3858 H 358.558 0.957214 3.79412 0
M  V30 3859 H 358.181 -0.754292 3.9038 0
M  V30 3860 N 359.178 -1.55987 0.224894 0
M  V30 3861 C 360.455 -1.90232 -0.455083 0
M  V30 3862 C 360.835 -1.14269 -1.77499 0
M  V30 3863 O 360.183 -0.253079 -2.27094 0
M  V30 3864 C 360.393 -3.42993 -0.644758 0
M  V30 3865 C 361.741 -4.13821 -0.950669 0
M  V30 3866 O 362.765 -3.4861 -0.731423 0
M  V30 3867 O 361.624 -5.29128 -1.36695 0
M  V30 3868 H 358.718 -0.79108 -0.241084 0
M  V30 3869 H 361.264 -1.67581 0.267327 0
M  V30 3870 H 360.036 -3.90252 0.28613 0
M  V30 3871 H 359.659 -3.71434 -1.41853 0
M  V30 3872 N 360.656 0.0484629 -1.57525 0
M  V30 3873 C 361.902 0.744226 -1.88651 0
M  V30 3874 C 362.235 1.76029 -0.820212 0
M  V30 3875 O 361.51 1.93782 0.166985 0
M  V30 3876 C 361.793 1.43128 -3.30434 0
M  V30 3877 C 361.646 0.43005 -4.47739 0
M  V30 3878 C 362.965 2.37031 -3.70816 0
M  V30 3879 H 360.084 0.269089 -0.68612 0
M  V30 3880 H 362.726 0.00713532 -1.89999 0
M  V30 3881 H 360.876 2.05956 -3.29415 0
M  V30 3882 H 362.548 -0.194816 -4.60888 0
M  V30 3883 H 360.791 -0.252522 -4.33064 0
M  V30 3884 H 361.462 0.948874 -5.43783 0
M  V30 3885 H 363.938 1.84263 -3.73077 0
M  V30 3886 H 362.814 2.82094 -4.70865 0
M  V30 3887 H 363.075 3.22864 -3.02012 0
M  V30 3888 N 362.134 1.5431 0.320358 0
M  V30 3889 C 363.38 1.73859 1.05568 0
M  V30 3890 C 363.735 0.507807 1.85578 0
M  V30 3891 O 363.028 -0.499789 1.84967 0
M  V30 3892 C 363.222 2.95639 2.00828 0
M  V30 3893 C 363.051 4.30444 1.30186 0
M  V30 3894 C 361.821 4.94544 1.03703 0
M  V30 3895 C 364.019 5.0929 0.716138 0
M  V30 3896 N 362.001 6.13172 0.298846 0
M  V30 3897 C 363.372 6.19903 0.109729 0
M  V30 3898 C 365.427 4.94034 0.619269 0
M  V30 3899 C 364.13 7.16924 -0.584153 0
M  V30 3900 C 366.156 5.91369 -0.0609184 0
M  V30 3901 C 365.518 7.01336 -0.656258 0
M  V30 3902 H 361.617 0.688988 0.36989 0
M  V30 3903 H 364.201 1.9177 0.336494 0
M  V30 3904 H 362.372 2.79188 2.70016 0
M  V30 3905 H 364.104 3.03802 2.6737 0
M  V30 3906 H 360.859 4.54536 1.33019 0
M  V30 3907 H 361.283 6.76977 -0.0561964 0
M  V30 3908 H 365.925 4.0916 1.06526 0
M  V30 3909 H 363.643 8.01354 -1.04197 0
M  V30 3910 H 367.229 5.81642 -0.135552 0
M  V30 3911 H 366.109 7.75359 -1.17423 0
M  V30 3912 N 363.613 -0.582584 1.46437 0
M  V30 3913 C 364.89 -1.34276 1.4223 0
M  V30 3914 C 365.27 -2.10835 0.10583 0
M  V30 3915 O 364.618 -2.09485 -0.912596 0
M  V30 3916 C 364.828 -2.26865 2.65204 0
M  V30 3917 C 366.176 -2.88691 3.11356 0
M  V30 3918 O 367.2 -2.37178 2.65753 0
M  V30 3919 O 366.059 -3.82255 3.90568 0
M  V30 3920 H 363.153 -0.603326 0.565621 0
M  V30 3921 H 365.699 -0.603591 1.58603 0
M  V30 3922 H 364.471 -1.69724 3.52576 0
M  V30 3923 H 364.094 -3.08122 2.5129 0
M  V30 3924 N 365.091 -1.34144 -0.827227 0
M  V30 3925 C 366.316 -1.29476 -1.62021 0
M  V30 3926 C 366.741 0.129292 -1.87655 0
M  V30 3927 O 366.099 1.08967 -1.449 0
M  V30 3928 C 366.147 -2.08702 -2.94068 0
M  V30 3929 O 365.251 -1.45359 -3.85933 0
M  V30 3930 H 364.592 -0.444881 -0.492927 0
M  V30 3931 H 367.122 -1.76882 -1.02829 0
M  V30 3932 H 367.132 -2.19898 -3.43669 0
M  V30 3933 H 365.807 -3.12241 -2.74734 0
M  V30 3934 H 364.384 -1.42879 -3.44442 0
M  V30 3935 N 366.569 1.04691 -1.17803 0
M  V30 3936 C 367.815 1.78181 -0.980977 0
M  V30 3937 C 368.17 1.86191 0.484825 0
M  V30 3938 O 367.463 1.35436 1.35527 0
M  V30 3939 C 367.657 3.21467 -1.56186 0
M  V30 3940 C 367.486 3.27422 -3.08261 0
M  V30 3941 C 366.256 3.36415 -3.77032 0
M  V30 3942 C 368.454 3.15947 -4.0581 0
M  V30 3943 N 366.436 3.31554 -5.16667 0
M  V30 3944 C 367.807 3.18514 -5.31929 0
M  V30 3945 C 369.862 2.99945 -3.97413 0
M  V30 3946 C 368.565 3.06723 -6.50625 0
M  V30 3947 C 370.591 2.89497 -5.15699 0
M  V30 3948 C 369.953 2.92702 -6.40706 0
M  V30 3949 H 366.052 0.6641 -0.412911 0
M  V30 3950 H 368.636 1.24762 -1.49474 0
M  V30 3951 H 366.807 3.73245 -1.07436 0
M  V30 3952 H 368.539 3.8322 -1.30093 0
M  V30 3953 H 365.294 3.41887 -3.27735 0
M  V30 3954 H 365.718 3.3258 -5.89678 0
M  V30 3955 H 370.36 2.96302 -3.01604 0
M  V30 3956 H 368.078 3.0912 -7.46639 0
M  V30 3957 H 371.664 2.78179 -5.10987 0
M  V30 3958 H 370.544 2.84697 -7.30696 0
M  V30 3959 N 368.047 0.979072 1.23499 0
M  V30 3960 C 369.293 0.648178 1.92163 0
M  V30 3961 C 369.626 -0.816049 1.76222 0
M  V30 3962 O 368.901 -1.58849 1.12237 0
M  V30 3963 C 369.184 1.03773 3.44824 0
M  V30 3964 C 369.037 2.55948 3.69879 0
M  V30 3965 C 370.356 0.580653 4.36253 0
M  V30 3966 H 367.475 0.236952 0.69787 0
M  V30 3967 H 370.117 1.22012 1.45647 0
M  V30 3968 H 368.267 0.551058 3.84572 0
M  V30 3969 H 369.939 3.12179 3.3962 0
M  V30 3970 H 368.182 2.98641 3.14636 0
M  V30 3971 H 368.853 2.78255 4.76737 0
M  V30 3972 H 371.329 0.998465 4.03943 0
M  V30 3973 H 370.205 0.881663 5.41773 0
M  V30 3974 H 370.466 -0.519052 4.39042 0
M  V30 3975 N 369.525 -1.3858 0.750561 0
M  V30 3976 C 370.455 -2.33102 0.136237 0
M  V30 3977 C 371.436 -1.54713 -0.706965 0
M  V30 3978 O 372.621 -1.83043 -0.648769 0
M  V30 3979 C 369.751 -3.38882 -0.760017 0
M  V30 3980 C 368.705 -4.27995 -0.0197785 0
M  V30 3981 C 368.031 -5.24605 -1.03408 0
M  V30 3982 C 369.331 -5.09554 1.14684 0
M  V30 3983 H 371.025 -2.84726 0.925822 0
M  V30 3984 H 368.571 -1.36898 0.446654 0
M  V30 3985 H 370.524 -4.0397 -1.19943 0
M  V30 3986 H 369.248 -2.85734 -1.58189 0
M  V30 3987 H 367.907 -3.64409 0.400184 0
M  V30 3988 H 367.555 -4.67746 -1.84994 0
M  V30 3989 H 367.255 -5.85081 -0.543464 0
M  V30 3990 H 368.779 -5.9257 -1.47288 0
M  V30 3991 H 370.193 -5.67899 0.785118 0
M  V30 3992 H 368.59 -5.7925 1.56812 0
M  V30 3993 H 369.66 -4.4347 1.96118 0
M  V30 3994 N 371.003 -0.499398 -1.49478 0
M  V30 3995 C 371.95 0.279881 -2.29097 0
M  V30 3996 C 372.92 0.961805 -1.3542 0
M  V30 3997 O 374.105 0.968777 -1.64376 0
M  V30 3998 C 371.245 1.33932 -3.18051 0
M  V30 3999 C 370.358 0.669333 -4.26783 0
M  V30 4000 C 369.493 1.70907 -5.02955 0
M  V30 4001 C 368.532 1.02087 -6.03527 0
M  V30 4002 N 367.669 2.00474 -6.7287 0
M  V30 4003 H 372.509 -0.405317 -2.95231 0
M  V30 4004 H 370.046 -0.211726 -1.45568 0
M  V30 4005 H 372.004 1.96553 -3.67998 0
M  V30 4006 H 370.634 1.9933 -2.53904 0
M  V30 4007 H 369.686 -0.0701234 -3.80335 0
M  V30 4008 H 370.998 0.127503 -4.98637 0
M  V30 4009 H 370.152 2.41037 -5.56764 0
M  V30 4010 H 368.891 2.28476 -4.30871 0
M  V30 4011 H 367.896 0.305338 -5.48951 0
M  V30 4012 H 369.121 0.451708 -6.77596 0
M  V30 4013 H 367.067 2.57007 -6.03559 0
M  V30 4014 H 366.984 1.51353 -7.40694 0
M  V30 4015 H 368.252 2.69897 -7.31284 0
M  V30 4016 N 372.481 1.55866 -0.233164 0
M  V30 4017 C 373.444 2.1953 0.658715 0
M  V30 4018 C 374.444 1.16053 1.11303 0
M  V30 4019 O 375.634 1.41218 1.01996 0
M  V30 4020 C 372.766 2.82791 1.90373 0
M  V30 4021 H 373.959 2.99721 0.10347 0
M  V30 4022 H 371.512 1.56291 0.0164245 0
M  V30 4023 H 372.247 2.06501 2.50056 0
M  V30 4024 H 372.032 3.58578 1.58632 0
M  V30 4025 H 373.522 3.31556 2.53891 0
M  V30 4026 N 373.959 -0.0401083 1.57549 0
M  V30 4027 C 375.206 -0.733125 1.88763 0
M  V30 4028 C 375.534 -1.75946 0.829058 0
M  V30 4029 O 374.789 -1.94949 -0.171323 0
M  V30 4030 C 375.088 -1.44902 3.26708 0
M  V30 4031 C 374.754 -0.559707 4.47413 0
M  V30 4032 C 373.416 -0.314731 4.8017 0
M  V30 4033 C 375.768 0.0549743 5.21171 0
M  V30 4034 C 373.096 0.553886 5.8408 0
M  V30 4035 C 375.448 0.911229 6.26003 0
M  V30 4036 C 374.112 1.16577 6.57241 0
M  V30 4037 H 373.382 -0.268269 0.690733 0
M  V30 4038 H 376.029 0.00679408 1.91499 0
M  V30 4039 H 374.334 -2.26197 3.1991 0
M  V30 4040 H 376.031 -1.99058 3.48105 0
M  V30 4041 H 372.621 -0.760793 4.21794 0
M  V30 4042 H 376.805 -0.121344 4.96152 0
M  V30 4043 H 372.061 0.759518 6.06664 0
M  V30 4044 H 376.235 1.3941 6.82303 0
M  V30 4045 H 373.862 1.84058 7.37582 0
M  V30 4046 N 375.437 -1.54477 -0.31217 0
M  V30 4047 C 376.714 -1.63891 -1.06767 0
M  V30 4048 C 377.094 -0.480028 -2.0557 0
M  V30 4049 O 376.442 0.524487 -2.22399 0
M  V30 4050 C 376.652 -3.01402 -1.75948 0
M  V30 4051 C 378 -3.57838 -2.28554 0
M  V30 4052 O 379.024 -3.03782 -1.85998 0
M  V30 4053 O 377.883 -4.52462 -3.06497 0
M  V30 4054 H 374.977 -0.664125 -0.492816 0
M  V30 4055 H 377.523 -1.66823 -0.311149 0
M  V30 4056 H 376.295 -3.77187 -1.04144 0
M  V30 4057 H 375.918 -3.02199 -2.58383 0
M  V30 4058 N 376.915 0.57481 -1.46744 0
M  V30 4059 C 378.14 1.36341 -1.56288 0
M  V30 4060 C 378.565 1.86954 -0.207347 0
M  V30 4061 O 377.923 1.62006 0.813871 0
M  V30 4062 C 377.971 2.52147 -2.57787 0
M  V30 4063 O 377.075 3.53834 -2.11838 0
M  V30 4064 H 376.416 0.405713 -0.525636 0
M  V30 4065 H 378.946 0.696453 -1.92382 0
M  V30 4066 H 378.956 2.98958 -2.77648 0
M  V30 4067 H 377.631 2.14663 -3.5622 0
M  V30 4068 H 376.208 3.1345 -2.01999 0
M  V30 4069 N 378.394 1.34581 0.820102 0
M  V30 4070 C 379.326 1.22236 1.93884 0
M  V30 4071 C 380.339 0.148776 1.62119 0
M  V30 4072 O 381.528 0.400877 1.7394 0
M  V30 4073 C 378.628 0.856542 3.27897 0
M  V30 4074 C 377.801 2.02569 3.87666 0
M  V30 4075 C 376.86 1.63782 5.00062 0
M  V30 4076 O 375.886 2.35477 5.18208 0
M  V30 4077 N 377.088 0.553611 5.77854 0
M  V30 4078 H 379.853 2.18615 2.05006 0
M  V30 4079 H 377.414 1.27573 0.99683 0
M  V30 4080 H 379.406 0.578806 4.0054 0
M  V30 4081 H 377.976 -0.0171518 3.12595 0
M  V30 4082 H 377.196 2.468 3.07382 0
M  V30 4083 H 378.484 2.80752 4.24329 0
M  V30 4084 H 377.882 -0.0423528 5.65684 0
M  V30 4085 H 376.439 0.335614 6.50935 0
M  V30 4086 N 379.872 -1.04064 1.18357 0
M  V30 4087 C 381.112 -1.78829 0.989921 0
M  V30 4088 C 381.476 -1.86106 -0.472095 0
M  V30 4089 O 382.677 -2.57076 -0.785187 0
M  V30 4090 C 380.948 -3.1823 1.6268 0
M  V30 4091 S 382.507 -4.09332 1.58091 0
M  V30 4092 H 379.325 -0.615754 0.355482 0
M  V30 4093 H 381.927 -1.24778 1.50501 0
M  V30 4094 H 380.631 -3.10543 2.68311 0
M  V30 4095 H 380.162 -3.77357 1.112 0
M  V30 4096 H 382.177 -4.92598 0.596817 0
M  V30 4097 N 381.35 -0.985608 -1.22978 0
M  V30 4098 C 382.282 -0.488154 -2.23941 0
M  V30 4099 C 383.295 0.41282 -1.57479 0
M  V30 4100 O 384.484 0.216121 -1.77187 0
M  V30 4101 C 381.584 0.312611 -3.37455 0
M  V30 4102 C 380.757 -0.582741 -4.33501 0
M  V30 4103 C 379.816 0.165064 -5.25941 0
M  V30 4104 O 378.842 -0.447077 -5.67442 0
M  V30 4105 N 380.044 1.44953 -5.62111 0
M  V30 4106 H 382.809 -1.3563 -2.67254 0
M  V30 4107 H 380.37 -0.859477 -1.37203 0
M  V30 4108 H 382.362 0.821357 -3.96277 0
M  V30 4109 H 380.932 1.0818 -2.93285 0
M  V30 4110 H 380.152 -1.27225 -3.73105 0
M  V30 4111 H 381.44 -1.19275 -4.94622 0
M  V30 4112 H 380.838 1.9683 -5.30353 0
M  V30 4113 H 379.395 1.90361 -6.23383 0
M  V30 4114 N 382.828 1.3818 -0.7579 0
M  V30 4115 C 384.077 1.99261 -0.312744 0
M  V30 4116 C 384.39 1.60846 1.11301 0
M  V30 4117 O 385.596 2.14929 1.65885 0
M  V30 4118 C 384.052 3.56294 -0.50821 0
M  V30 4119 C 383.66 4.03657 -1.94333 0
M  V30 4120 C 385.404 4.24313 -0.125982 0
M  V30 4121 C 383.311 5.53347 -2.08712 0
M  V30 4122 H 382.241 0.745456 -0.113185 0
M  V30 4123 H 384.892 1.57889 -0.935056 0
M  V30 4124 H 383.274 3.95575 0.183353 0
M  V30 4125 H 384.448 3.75655 -2.66871 0
M  V30 4126 H 382.763 3.48376 -2.28086 0
M  V30 4127 H 385.36 5.34279 -0.212125 0
M  V30 4128 H 385.703 4.05962 0.921964 0
M  V30 4129 H 386.236 3.90285 -0.769563 0
M  V30 4130 H 382.975 5.76607 -3.11777 0
M  V30 4131 H 382.495 5.83078 -1.4064 0
M  V30 4132 H 384.174 6.19111 -1.87912 0
M  V30 4133 N 384.306 0.507319 1.49211 0
M  V30 4134 C 385.236 -0.256939 2.32082 0
M  V30 4135 C 386.217 -0.956609 1.40652 0
M  V30 4136 O 387.402 -0.946788 1.69557 0
M  V30 4137 C 384.532 -1.31802 3.21318 0
M  V30 4138 C 383.486 -0.737855 4.21592 0
M  V30 4139 C 382.812 -1.89992 4.99807 0
M  V30 4140 C 384.112 0.275325 5.21574 0
M  V30 4141 H 385.806 0.434798 2.96226 0
M  V30 4142 H 383.352 0.210546 1.42452 0
M  V30 4143 H 385.305 -1.86045 3.78107 0
M  V30 4144 H 384.029 -2.03903 2.5513 0
M  V30 4145 H 382.688 -0.217126 3.65956 0
M  V30 4146 H 382.336 -2.60877 4.30061 0
M  V30 4147 H 382.036 -1.51777 5.6766 0
M  V30 4148 H 383.56 -2.44657 5.59442 0
M  V30 4149 H 384.974 -0.179193 5.7302 0
M  V30 4150 H 383.371 0.573649 5.97352 0
M  V30 4151 H 384.441 1.18903 4.70096 0
M  V30 4152 N 385.784 -1.5574 0.241426 0
M  V30 4153 C 386.714 -2.24133 -0.654722 0
M  V30 4154 C 387.695 -1.21974 -1.1856 0
M  V30 4155 O 388.88 -1.50612 -1.22595 0
M  V30 4156 C 386.01 -2.93659 -1.85423 0
M  V30 4157 C 384.964 -4.0246 -1.45636 0
M  V30 4158 C 384.29 -4.59383 -2.73626 0
M  V30 4159 C 385.59 -5.18468 -0.631506 0
M  V30 4160 H 387.284 -2.99281 -0.0844353 0
M  V30 4161 H 384.83 -1.43947 -0.0391707 0
M  V30 4162 H 386.783 -3.40203 -2.48676 0
M  V30 4163 H 385.507 -2.15991 -2.44981 0
M  V30 4164 H 384.166 -3.56676 -0.847202 0
M  V30 4165 H 383.814 -3.78422 -3.3137 0
M  V30 4166 H 383.514 -5.32826 -2.4773 0
M  V30 4167 H 385.038 -5.08658 -3.37786 0
M  V30 4168 H 386.452 -5.61272 -1.1682 0
M  V30 4169 H 384.849 -5.98266 -0.468831 0
M  V30 4170 H 385.919 -4.8358 0.357506 0
M  V30 4171 N 387.262 0.0317525 -1.57568 0
M  V30 4172 C 388.49 0.734949 -1.93407 0
M  V30 4173 C 388.905 1.69036 -0.84096 0
M  V30 4174 O 388.262 1.81582 0.182836 0
M  V30 4175 C 388.313 1.49432 -3.29169 0
M  V30 4176 O 388.034 0.577261 -4.3428 0
M  V30 4177 C 389.535 2.29492 -3.79273 0
M  V30 4178 H 386.755 0.206706 -0.638368 0
M  V30 4179 H 389.299 -0.00992046 -2.04498 0
M  V30 4180 H 387.454 2.1911 -3.19483 0
M  V30 4181 H 387.868 1.10952 -5.1263 0
M  V30 4182 H 389.342 2.78172 -4.76785 0
M  V30 4183 H 389.819 3.10794 -3.10328 0
M  V30 4184 H 390.425 1.64894 -3.92033 0
M  V30 4185 N 388.74 1.54641 0.303973 0
M  V30 4186 C 389.968 1.77768 1.05858 0
M  V30 4187 C 390.383 0.535722 1.8104 0
M  V30 4188 O 389.74 -0.494337 1.75677 0
M  V30 4189 C 389.791 2.9834 2.04146 0
M  V30 4190 O 389.512 4.17736 1.32015 0
M  V30 4191 C 391.013 3.33832 2.91669 0
M  V30 4192 H 388.233 0.592961 0.314067 0
M  V30 4193 H 390.777 2.01583 0.344149 0
M  V30 4194 H 388.932 2.76742 2.71096 0
M  V30 4195 H 389.346 4.85693 1.97998 0
M  V30 4196 H 390.82 4.21448 3.56491 0
M  V30 4197 H 391.297 2.51857 3.59812 0
M  V30 4198 H 391.903 3.57579 2.30254 0
M  V30 4199 N 390.218 -0.567019 1.47046 0
M  V30 4200 C 391.634 -0.891975 1.32348 0
M  V30 4201 C 391.834 -1.99154 0.306616 0
M  V30 4202 O 390.89 -2.50883 -0.28532 0
M  V30 4203 C 392.203 -1.29449 2.7141 0
M  V30 4204 C 393.751 -1.40646 2.79621 0
M  V30 4205 C 394.226 -1.84257 4.19301 0
M  V30 4206 N 395.717 -1.91424 4.21795 0
M  V30 4207 C 396.452 -2.26476 5.26779 0
M  V30 4208 N 395.948 -2.60211 6.42077 0
M  V30 4209 N 397.741 -2.27166 5.14152 0
M  V30 4210 H 389.892 0.159074 2.11803 0
M  V30 4211 H 392.155 0.00849752 0.947962 0
M  V30 4212 H 391.861 -0.560448 3.47206 0
M  V30 4213 H 391.735 -2.25273 3.02542 0
M  V30 4214 H 394.122 -2.13133 2.04104 0
M  V30 4215 H 394.203 -0.430339 2.52154 0
M  V30 4216 H 393.847 -1.12343 4.95319 0
M  V30 4217 H 393.777 -2.82855 4.44185 0
M  V30 4218 H 396.268 -1.6778 3.38612 0
M  V30 4219 H 396.581 -2.85956 7.17948 0
M  V30 4220 H 394.926 -2.57813 6.45413 0
M  V30 4221 H 398.117 -2.00244 4.23107 0
M  V30 4222 H 398.29 -2.54154 5.96079 0
M  V30 4223 N 391.696 -1.35014 -0.812953 0
M  V30 4224 C 392.973 -1.18502 -1.55617 0
M  V30 4225 C 393.353 0.238421 -2.09749 0
M  V30 4226 O 392.701 1.2411 -1.91857 0
M  V30 4227 C 392.911 -2.24783 -2.66971 0
M  V30 4228 C 394.259 -2.60268 -3.35478 0
M  V30 4229 O 395.283 -2.23648 -2.77236 0
M  V30 4230 O 394.142 -3.2321 -4.40678 0
M  V30 4231 H 391.236 -0.459984 -0.687272 0
M  V30 4232 H 393.782 -1.46677 -0.853464 0
M  V30 4233 H 392.554 -3.20284 -2.24798 0
M  V30 4234 H 392.177 -1.97841 -3.44884 0
M  V30 4235 N 393.175 1.03435 -1.18907 0
M  V30 4236 C 394.122 2.11591 -0.921837 0
M  V30 4237 C 395.092 1.65499 0.141226 0
M  V30 4238 O 396.277 1.908 0.000242829 0
M  V30 4239 C 393.417 3.42012 -0.460616 0
M  V30 4240 C 392.53 4.01682 -1.58982 0
M  V30 4241 C 391.665 5.20091 -1.08069 0
M  V30 4242 C 390.704 5.71805 -2.18416 0
M  V30 4243 N 389.841 6.81494 -1.68849 0
M  V30 4244 H 394.681 2.33787 -1.8479 0
M  V30 4245 H 392.218 1.1467 -0.921373 0
M  V30 4246 H 394.176 4.16834 -0.174642 0
M  V30 4247 H 392.806 3.19944 0.428467 0
M  V30 4248 H 391.858 3.24127 -1.99113 0
M  V30 4249 H 393.17 4.36084 -2.4214 0
M  V30 4250 H 392.324 6.02051 -0.749615 0
M  V30 4251 H 391.063 4.87209 -0.218771 0
M  V30 4252 H 390.068 4.88461 -2.5236 0
M  V30 4253 H 391.293 6.06728 -3.05054 0
M  V30 4254 H 389.239 6.50475 -0.849572 0
M  V30 4255 H 389.156 7.14994 -2.45601 0
M  V30 4256 H 390.424 7.67063 -1.38689 0
M  V30 4257 N 394.653 0.992116 1.22453 0
M  V30 4258 C 395.878 0.685644 1.95739 0
M  V30 4259 C 396.303 -0.743 1.72804 0
M  V30 4260 O 395.661 -1.50778 1.00676 0
M  V30 4261 C 395.709 0.996293 3.46564 0
M  V30 4262 O 394.813 0.0945512 4.12292 0
M  V30 4263 H 394.154 0.256694 0.612376 0
M  V30 4264 H 396.684 1.32888 1.5557 0
M  V30 4265 H 396.694 0.93781 3.97076 0
M  V30 4266 H 395.369 2.03733 3.62582 0
M  V30 4267 H 393.946 0.208451 3.72317 0
M  V30 4268 N 396.131 -1.37776 0.765217 0
M  V30 4269 C 397.377 -2.00145 0.327072 0
M  V30 4270 C 397.71 -1.60607 -1.09175 0
M  V30 4271 O 396.985 -0.849127 -1.74986 0
M  V30 4272 C 397.268 -3.57109 0.46319 0
M  V30 4273 C 397.121 -4.06576 1.92395 0
M  V30 4274 C 398.44 -4.39888 -0.136473 0
M  V30 4275 H 395.559 -0.727113 0.120316 0
M  V30 4276 H 398.201 -1.63549 0.967039 0
M  V30 4277 H 396.351 -3.88414 -0.0816358 0
M  V30 4278 H 398.023 -3.85864 2.52798 0
M  V30 4279 H 396.266 -3.59011 2.43503 0
M  V30 4280 H 396.937 -5.15639 1.97028 0
M  V30 4281 H 399.413 -4.14803 0.328317 0
M  V30 4282 H 398.289 -5.48899 -0.0110582 0
M  V30 4283 H 398.55 -4.24758 -1.22608 0
M  V30 4284 N 397.609 -0.515225 -1.4894 0
M  V30 4285 C 398.837 0.0206034 -2.0689 0
M  V30 4286 C 399.252 1.29514 -1.37374 0
M  V30 4287 O 398.609 1.76698 -0.456529 0
M  V30 4288 C 398.66 0.26351 -3.60538 0
M  V30 4289 O 398.381 -0.960517 -4.27441 0
M  V30 4290 C 399.882 0.841383 -4.35242 0
M  V30 4291 H 397.102 -0.0268608 -0.670462 0
M  V30 4292 H 399.646 -0.716651 -1.91532 0
M  V30 4293 H 397.801 0.950777 -3.75552 0
M  V30 4294 H 398.215 -0.73212 -5.19365 0
M  V30 4295 H 399.689 0.96085 -5.43573 0
M  V30 4296 H 400.166 1.8427 -3.98674 0
M  V30 4297 H 400.772 0.191143 -4.2487 0
M  V30 4298 N 399.087 1.5561 -0.249682 0
M  V30 4299 C 400.364 1.90932 0.424761 0
M  V30 4300 C 400.744 1.17078 1.75658 0
M  V30 4301 O 400.092 0.289176 2.26663 0
M  V30 4302 C 400.302 3.43975 0.590109 0
M  V30 4303 C 401.65 4.15281 0.884714 0
M  V30 4304 O 402.674 3.49729 0.67587 0
M  V30 4305 O 401.533 5.31236 1.28259 0
M  V30 4306 H 398.627 0.794815 0.228468 0
M  V30 4307 H 401.173 1.67135 -0.293954 0
M  V30 4308 H 399.945 3.89748 -0.34818 0
M  V30 4309 H 399.568 3.73644 1.35926 0
M  V30 4310 N 400.565 -0.0233959 1.57583 0
M  V30 4311 C 401.79 -0.728376 1.94189 0
M  V30 4312 C 402.215 -1.67793 0.850119 0
M  V30 4313 O 401.573 -1.80262 -0.19371 0
M  V30 4314 C 401.621 -1.45669 3.29868 0
M  V30 4315 O 400.725 -2.57013 3.22518 0
M  V30 4316 H 400.066 -0.195493 0.63457 0
M  V30 4317 H 402.596 0.0228214 2.04587 0
M  V30 4318 H 402.606 -1.82535 3.6489 0
M  V30 4319 H 401.281 -0.760314 4.08891 0
M  V30 4320 H 399.858 -2.22648 2.99136 0
M  V30 4321 N 402.043 -1.548 -0.295768 0
M  V30 4322 C 403.289 -1.74588 -1.03184 0
M  V30 4323 C 403.622 -0.532962 -1.86744 0
M  V30 4324 O 402.897 0.469872 -1.88739 0
M  V30 4325 C 403.18 -3.03791 -1.93347 0
M  V30 4326 C 403.033 -4.35392 -1.12933 0
M  V30 4327 C 404.352 -3.28892 -2.92435 0
M  V30 4328 H 401.471 -0.635221 -0.373715 0
M  V30 4329 H 404.113 -1.87519 -0.30606 0
M  V30 4330 H 402.263 -2.92898 -2.55232 0
M  V30 4331 H 403.935 -4.58211 -0.532943 0
M  V30 4332 H 402.178 -4.31642 -0.432168 0
M  V30 4333 H 402.849 -5.22074 -1.79284 0
M  V30 4334 H 405.325 -3.39429 -2.4068 0
M  V30 4335 H 404.201 -4.20603 -3.52682 0
M  V30 4336 H 404.462 -2.47437 -3.6637 0
M  V30 4337 N 403.521 0.559213 -1.47345 0
M  V30 4338 C 404.454 1.68201 -1.5422 0
M  V30 4339 C 405.432 1.57742 -0.394497 0
M  V30 4340 O 406.616 1.78628 -0.60201 0
M  V30 4341 C 403.743 3.0643 -1.44285 0
M  V30 4342 C 402.789 3.3534 -2.63532 0
M  V30 4343 S 403.622 3.24816 -4.25741 0
M  V30 4344 C 404.778 4.65542 -4.18355 0
M  V30 4345 H 405.011 1.62114 -2.49211 0
M  V30 4346 H 402.544 0.739871 -1.35519 0
M  V30 4347 H 404.502 3.86164 -1.3924 0
M  V30 4348 H 403.163 3.09984 -0.506816 0
M  V30 4349 H 402.356 4.36107 -2.52639 0
M  V30 4350 H 401.958 2.63221 -2.65689 0
M  V30 4351 H 404.25 5.56449 -3.86485 0
M  V30 4352 H 405.193 4.81493 -5.19202 0
M  V30 4353 H 405.601 4.43495 -3.49246 0
M  V30 4354 N 404.999 1.35443 0.805782 0
M  V30 4355 C 406.247 1.28507 1.55982 0
M  V30 4356 C 406.568 -0.140046 1.94496 0
M  V30 4357 O 405.838 -1.07666 1.63661 0
M  V30 4358 H 404.418 0.472676 0.578434 0
M  V30 4359 H 407.08 1.69555 0.961098 0
M  V30 4360 H 406.176 1.90148 2.47488 0
M  V30 4361 N 406.477 -1.02803 1.19454 0
M  V30 4362 C 407.888 -1.57667 0.999899 0
M  V30 4363 C 408.239 -1.91041 -0.446956 0
M  V30 4364 O 407.364 -1.70978 -1.32648 0
M  V30 4365 C 407.959 -2.86477 1.80877 0
M  V30 4366 C 406.518 -3.37911 1.65811 0
M  V30 4367 C 405.665 -2.11343 1.79526 0
M  V30 4368 H 408.616 -0.853214 1.33813 0
M  V30 4369 H 408.637 -3.57408 1.30536 0
M  V30 4370 H 408.149 -2.62155 2.86175 0
M  V30 4371 H 406.25 -3.67218 0.63102 0
M  V30 4372 H 406.363 -4.10885 2.46395 0
M  V30 4373 H 404.727 -2.23254 1.22596 0
M  V30 4374 H 405.51 -1.89461 2.86285 0
M  V30 4375 N 407.956 -0.998596 -1.21925 0
M  V30 4376 C 408.903 -0.553621 -2.24062 0
M  V30 4377 C 409.873 0.416999 -1.6078 0
M  V30 4378 O 411.058 0.320482 -1.88089 0
M  V30 4379 C 408.198 0.119959 -3.44891 0
M  V30 4380 C 407.311 -0.893077 -4.22668 0
M  V30 4381 C 406.446 -0.192424 -5.30851 0
M  V30 4382 C 405.485 -1.19344 -6.00353 0
M  V30 4383 N 404.622 -0.520707 -7.00166 0
M  V30 4384 H 409.462 -1.4293 -2.61486 0
M  V30 4385 H 406.999 -0.715838 -1.28507 0
M  V30 4386 H 408.957 0.527459 -4.13852 0
M  V30 4387 H 407.587 0.959389 -3.08214 0
M  V30 4388 H 406.639 -1.41886 -3.52948 0
M  V30 4389 H 407.951 -1.65512 -4.70539 0
M  V30 4390 H 407.105 0.271515 -6.06092 0
M  V30 4391 H 405.844 0.602075 -4.83969 0
M  V30 4392 H 404.849 -1.66795 -5.23889 0
M  V30 4393 H 406.074 -1.98891 -6.49322 0
M  V30 4394 H 404.02 0.254252 -6.55507 0
M  V30 4395 H 403.937 -1.2211 -7.46073 0
M  V30 4396 H 405.205 -0.0797596 -7.79459 0
M  V30 4397 N 409.434 1.37368 -0.772513 0
M  V30 4398 C 410.664 2.03647 -0.348082 0
M  V30 4399 C 411.072 1.58392 1.03482 0
M  V30 4400 O 410.415 0.760921 1.672 0
M  V30 4401 C 410.477 3.58131 -0.313404 0
M  V30 4402 C 410.141 4.2652 -1.64102 0
M  V30 4403 C 411.138 4.50587 -2.5936 0
M  V30 4404 C 408.823 4.64335 -1.91567 0
M  V30 4405 C 410.817 5.11526 -3.80289 0
M  V30 4406 C 408.504 5.24996 -3.12766 0
M  V30 4407 C 409.502 5.48529 -4.06946 0
M  V30 4408 O 409.19 6.07921 -5.26011 0
M  V30 4409 H 408.922 0.660538 -0.143753 0
M  V30 4410 H 411.476 1.76669 -1.04772 0
M  V30 4411 H 409.706 3.84159 0.442617 0
M  V30 4412 H 411.395 4.05813 0.0840613 0
M  V30 4413 H 412.161 4.21784 -2.39423 0
M  V30 4414 H 408.04 4.45353 -1.19088 0
M  V30 4415 H 411.584 5.29811 -4.53813 0
M  V30 4416 H 407.481 5.53223 -3.32588 0
M  V30 4417 H 408.249 6.26398 -5.26847 0
M  V30 4418 N 410.912 0.523116 1.48665 0
M  V30 4419 C 412.158 -0.0134963 2.02796 0
M  V30 4420 C 412.491 -1.34582 1.40004 0
M  V30 4421 O 411.766 -1.86756 0.543381 0
M  V30 4422 C 412.049 -0.14276 3.59817 0
M  V30 4423 C 411.902 1.21425 4.331 0
M  V30 4424 C 413.221 -0.872856 4.31357 0
M  V30 4425 H 410.34 -0.00343074 0.736992 0
M  V30 4426 H 412.982 0.678816 1.7746 0
M  V30 4427 H 411.132 -0.732401 3.81534 0
M  V30 4428 H 412.804 1.84447 4.2282 0
M  V30 4429 H 411.047 1.79791 3.94788 0
M  V30 4430 H 411.718 1.07687 5.41394 0
M  V30 4431 H 414.194 -0.372555 4.14429 0
M  V30 4432 H 413.07 -0.932185 5.40927 0
M  V30 4433 H 413.331 -1.92161 3.98154 0
M  V30 4434 N 412.39 -1.55475 0.257931 0
M  V30 4435 C 413.636 -1.99502 -0.364266 0
M  V30 4436 C 413.969 -1.146 -1.56782 0
M  V30 4437 O 413.244 -0.211968 -1.93342 0
M  V30 4438 C 413.527 -3.51917 -0.763333 0
M  V30 4439 C 413.38 -4.4758 0.446371 0
M  V30 4440 C 414.699 -4.09742 -1.60623 0
M  V30 4441 H 411.818 -0.725277 -0.130929 0
M  V30 4442 H 414.46 -1.8653 0.361446 0
M  V30 4443 H 412.61 -3.63101 -1.38166 0
M  V30 4444 H 414.282 -4.48362 1.08487 0
M  V30 4445 H 412.525 -4.19947 1.08753 0
M  V30 4446 H 413.196 -5.51862 0.123645 0
M  V30 4447 H 415.672 -4.01727 -1.08418 0
M  V30 4448 H 414.548 -5.16631 -1.85429 0
M  V30 4449 H 414.809 -3.58889 -2.58169 0
M  V30 4450 N 413.868 0.0150385 -1.57593 0
M  V30 4451 C 415.279 0.559832 -1.78109 0
M  V30 4452 C 415.63 1.74814 -0.890756 0
M  V30 4453 O 414.755 2.16216 -0.0892482 0
M  V30 4454 C 415.35 1.02238 -3.23006 0
M  V30 4455 C 413.909 1.51258 -3.44671 0
M  V30 4456 C 413.056 0.456955 -2.73509 0
M  V30 4457 H 416.007 -0.211169 -1.57289 0
M  V30 4458 H 416.028 1.88912 -3.30292 0
M  V30 4459 H 415.54 0.157302 -3.87781 0
M  V30 4460 H 413.641 2.39905 -2.8509 0
M  V30 4461 H 413.754 1.55042 -4.5332 0
M  V30 4462 H 412.118 0.915196 -2.37689 0
M  V30 4463 H 412.901 -0.398896 -3.40975 0
M  V30 4464 N 415.346 1.54954 0.287554 0
M  V30 4465 C 416.592 1.75132 1.02257 0
M  V30 4466 C 416.925 0.542858 1.86458 0
M  V30 4467 O 416.2 -0.459856 1.88986 0
M  V30 4468 C 416.483 3.04812 1.91733 0
M  V30 4469 C 416.336 4.35985 1.10622 0
M  V30 4470 C 417.655 3.30438 2.90687 0
M  V30 4471 H 414.774 0.637194 0.370341 0
M  V30 4472 H 417.416 1.87678 0.296111 0
M  V30 4473 H 415.566 2.94247 2.53675 0
M  V30 4474 H 417.238 4.58487 0.508636 0
M  V30 4475 H 415.481 4.31865 0.409271 0
M  V30 4476 H 416.152 5.23017 1.76513 0
M  V30 4477 H 418.628 3.40701 2.38877 0
M  V30 4478 H 417.504 4.22467 3.50447 0
M  V30 4479 H 417.765 2.49377 3.65053 0
M  V30 4480 N 416.824 -0.551391 1.4764 0
M  V30 4481 C 417.734 -1.68525 1.63207 0
M  V30 4482 C 418.75 -1.6621 0.514815 0
M  V30 4483 O 419.926 -1.85551 0.783113 0
M  V30 4484 C 416.991 -3.05025 1.64805 0
M  V30 4485 C 416.052 -3.18362 2.88 0
M  V30 4486 C 415.285 -4.4835 2.89513 0
M  V30 4487 O 415.508 -5.34163 2.00065 0
M  V30 4488 O 414.442 -4.65602 3.81443 0
M  V30 4489 H 418.268 -1.58333 2.59161 0
M  V30 4490 H 415.853 -0.722063 1.30792 0
M  V30 4491 H 417.735 -3.86245 1.68502 0
M  V30 4492 H 416.41 -3.15587 0.720197 0
M  V30 4493 H 415.317 -2.36518 2.89845 0
M  V30 4494 H 416.65 -3.12707 3.80099 0
M  V30 4495 N 418.302 -1.35869 -0.798587 0
M  V30 4496 C 419.527 -1.32883 -1.59238 0
M  V30 4497 C 419.952 0.0894587 -1.87887 0
M  V30 4498 O 419.31 1.05869 -1.47178 0
M  V30 4499 C 419.358 -2.14892 -2.89575 0
M  V30 4500 O 418.462 -1.53512 -3.82763 0
M  V30 4501 H 417.803 -0.455236 -0.48338 0
M  V30 4502 H 420.333 -1.79024 -0.990539 0
M  V30 4503 H 420.343 -2.27139 -3.38928 0
M  V30 4504 H 419.018 -3.17998 -2.68049 0
M  V30 4505 H 417.595 -1.50153 -3.41334 0
M  V30 4506 N 419.78 1.02168 -1.19998 0
M  V30 4507 C 421.005 1.79833 -1.03319 0
M  V30 4508 C 421.43 1.83504 0.413281 0
M  V30 4509 O 420.788 1.26635 1.29743 0
M  V30 4510 C 420.836 3.22396 -1.61533 0
M  V30 4511 O 419.94 4.03555 -0.849519 0
M  V30 4512 H 419.281 0.554872 -0.364709 0
M  V30 4513 H 421.811 1.28542 -1.59179 0
M  V30 4514 H 421.821 3.73124 -1.65054 0
M  V30 4515 H 420.496 3.19039 -2.66809 0
M  V30 4516 H 419.073 3.62169 -0.888129 0
M  V30 4517 N 421.258 1.00505 1.21394 0
M  V30 4518 C 422.188 0.585684 2.26035 0
M  V30 4519 C 423.169 -0.393525 1.65485 0
M  V30 4520 O 424.354 -0.281497 1.92149 0
M  V30 4521 C 421.484 -0.0884283 3.47187 0
M  V30 4522 C 420.438 0.810567 4.20254 0
M  V30 4523 C 419.764 0.00286382 5.347 0
M  V30 4524 C 421.064 2.1132 4.77641 0
M  V30 4525 H 422.758 1.46039 2.61368 0
M  V30 4526 H 420.304 0.703648 1.25638 0
M  V30 4527 H 422.257 -0.393286 4.19561 0
M  V30 4528 H 420.981 -0.997766 3.10986 0
M  V30 4529 H 419.64 1.09925 3.49731 0
M  V30 4530 H 419.288 -0.907765 4.94741 0
M  V30 4531 H 418.988 0.601444 5.84514 0
M  V30 4532 H 420.512 -0.295808 6.09883 0
M  V30 4533 H 421.926 1.87148 5.41893 0
M  V30 4534 H 420.323 2.66164 5.37845 0
M  V30 4535 H 421.393 2.78393 3.9702 0
M  V30 4536 N 422.737 -1.36956 0.779787 0
M  V30 4537 C 423.985 -1.99097 0.347079 0
M  V30 4538 C 424.306 -1.62206 -1.08232 0
M  V30 4539 O 423.576 -0.891373 -1.74446 0
M  V30 4540 H 422.156 -0.736409 0.125342 0
M  V30 4541 H 424.818 -1.67308 0.999696 0
M  V30 4542 H 423.914 -3.09107 0.431162 0
M  V30 4543 N 424.215 -0.530993 -1.48385 0
M  V30 4544 C 425.162 0.231223 -2.29639 0
M  V30 4545 C 426.132 0.932864 -1.37429 0
M  V30 4546 O 427.317 0.933692 -1.66394 0
M  V30 4547 C 424.457 1.27155 -3.2082 0
M  V30 4548 C 423.57 0.578655 -4.28107 0
M  V30 4549 C 422.705 1.602 -5.06467 0
M  V30 4550 C 421.744 0.892625 -6.05556 0
M  V30 4551 N 420.881 1.86157 -6.76971 0
M  V30 4552 H 425.721 -0.467848 -2.94305 0
M  V30 4553 H 423.258 -0.242556 -1.45086 0
M  V30 4554 H 425.216 1.88703 -3.72085 0
M  V30 4555 H 423.846 1.939 -2.58075 0
M  V30 4556 H 422.898 -0.150782 -3.80101 0
M  V30 4557 H 424.21 0.0217065 -4.98795 0
M  V30 4558 H 423.364 2.29173 -5.61751 0
M  V30 4559 H 422.103 2.19285 -4.35621 0
M  V30 4560 H 421.108 0.188829 -5.49476 0
M  V30 4561 H 422.333 0.307878 -6.78402 0
M  V30 4562 H 420.279 2.44147 -6.08875 0
M  V30 4563 H 420.196 1.35608 -7.43738 0
M  V30 4564 H 421.464 2.54325 -7.36844 0
M  V30 4565 N 425.693 1.55336 -0.266172 0
M  V30 4566 C 426.603 2.2583 0.635458 0
M  V30 4567 C 427.619 1.28106 1.17749 0
M  V30 4568 O 428.795 1.61024 1.20968 0
M  V30 4569 C 425.86 2.95879 1.80712 0
M  V30 4570 C 424.921 4.09059 1.30265 0
M  V30 4571 C 424.154 4.75759 2.41846 0
M  V30 4572 O 424.377 4.41622 3.61007 0
M  V30 4573 O 423.311 5.63888 2.1051 0
M  V30 4574 H 427.137 3.03631 0.0646693 0
M  V30 4575 H 424.722 1.49361 -0.0339177 0
M  V30 4576 H 426.604 3.39932 2.49047 0
M  V30 4577 H 425.279 2.21002 2.36516 0
M  V30 4578 H 424.186 3.69482 0.586019 0
M  V30 4579 H 425.519 4.85811 0.790458 0
M  V30 4580 N 427.171 -0.0066808 1.57599 0
M  V30 4581 C 428.118 -1.00024 2.08 0
M  V30 4582 C 429.088 -1.34549 0.973943 0
M  V30 4583 O 430.273 -1.44502 1.24595 0
M  V30 4584 C 427.413 -2.2891 2.58252 0
M  V30 4585 C 426.526 -2.00346 3.82734 0
M  V30 4586 C 425.661 -3.23265 4.21513 0
M  V30 4587 C 424.7 -2.90357 5.3885 0
M  V30 4588 N 423.837 -4.05793 5.72954 0
M  V30 4589 H 428.677 -0.563499 2.92624 0
M  V30 4590 H 426.214 -0.266592 1.44664 0
M  V30 4591 H 428.172 -3.04247 2.85464 0
M  V30 4592 H 426.802 -2.70265 1.76512 0
M  V30 4593 H 425.854 -1.15406 3.62471 0
M  V30 4594 H 427.166 -1.72086 4.68175 0
M  V30 4595 H 426.32 -4.06953 4.49971 0
M  V30 4596 H 425.059 -3.54657 3.34768 0
M  V30 4597 H 424.064 -2.05075 5.10122 0
M  V30 4598 H 425.289 -2.60219 6.27266 0
M  V30 4599 H 423.235 -4.37094 4.89167 0
M  V30 4600 H 423.152 -3.81034 6.52954 0
M  V30 4601 H 424.42 -4.90289 6.06001 0
M  V30 4602 N 428.649 -1.55105 -0.279332 0
M  V30 4603 C 429.897 -1.75066 -1.00977 0
M  V30 4604 C 430.218 -0.551276 -1.87045 0
M  V30 4605 O 429.488 0.433984 -1.91032 0
M  V30 4606 H 428.068 -0.645578 -0.375816 0
M  V30 4607 H 430.73 -1.92497 -0.305089 0
M  V30 4608 H 429.826 -2.64894 -1.65038 0
M  V30 4609 N 430.127 0.543554 -1.4793 0
M  V30 4610 C 431.057 1.65888 -1.64327 0
M  V30 4611 C 432.038 1.62818 -0.492383 0
M  V30 4612 O 433.223 1.80226 -0.723338 0
M  V30 4613 C 430.353 3.04506 -1.67013 0
M  V30 4614 C 429.307 3.2243 -2.81466 0
M  V30 4615 C 428.633 4.61972 -2.69233 0
M  V30 4616 C 429.933 3.06496 -4.22915 0
M  V30 4617 H 431.627 1.52421 -2.57698 0
M  V30 4618 H 429.173 0.731849 -1.24016 0
M  V30 4619 H 431.126 3.82391 -1.77074 0
M  V30 4620 H 429.85 3.18964 -0.70212 0
M  V30 4621 H 428.509 2.46957 -2.70938 0
M  V30 4622 H 428.157 4.73247 -1.7043 0
M  V30 4623 H 427.857 4.74911 -3.46025 0
M  V30 4624 H 429.381 5.41974 -2.81242 0
M  V30 4625 H 430.795 3.74186 -4.34348 0
M  V30 4626 H 429.192 3.30938 -5.006 0
M  V30 4627 H 430.262 2.03077 -4.40327 0
M  V30 4628 N 431.605 1.3629 0.791371 0
M  V30 4629 C 432.515 1.32606 1.93527 0
M  V30 4630 C 433.531 0.228541 1.72493 0
M  V30 4631 O 434.707 0.460571 1.96063 0
M  V30 4632 C 431.772 1.11271 3.28359 0
M  V30 4633 C 430.833 2.3048 3.62185 0
M  V30 4634 C 430.066 2.10154 4.90583 0
M  V30 4635 O 430.289 1.07572 5.60165 0
M  V30 4636 O 429.223 2.97884 5.23019 0
M  V30 4637 H 433.049 2.28909 1.99585 0
M  V30 4638 H 430.634 1.16818 0.931344 0
M  V30 4639 H 432.516 1.01283 4.09047 0
M  V30 4640 H 431.191 0.180292 3.23198 0
M  V30 4641 H 430.098 2.46036 2.81811 0
M  V30 4642 H 431.431 3.22221 3.72068 0
M  V30 4643 N 433.083 -1.0153 1.20538 0
M  V30 4644 C 434.332 -1.74558 1.01057 0
M  V30 4645 C 434.645 -1.90168 -0.457756 0
M  V30 4646 O 435.851 -2.60301 -0.771722 0
M  V30 4647 C 434.307 -3.13963 1.75941 0
M  V30 4648 C 433.915 -3.06361 3.26875 0
M  V30 4649 C 435.659 -3.91191 1.64832 0
M  V30 4650 C 433.566 -4.40782 3.94291 0
M  V30 4651 H 432.496 -0.654417 0.374505 0
M  V30 4652 H 435.147 -1.13521 1.44171 0
M  V30 4653 H 433.529 -3.75549 1.25614 0
M  V30 4654 H 434.703 -2.54074 3.84425 0
M  V30 4655 H 433.018 -2.42625 3.38411 0
M  V30 4656 H 435.615 -4.90644 2.12539 0
M  V30 4657 H 435.958 -4.11884 0.604745 0
M  V30 4658 H 436.491 -3.36236 2.12579 0
M  V30 4659 H 433.23 -4.25292 4.98805 0
M  V30 4660 H 432.75 -4.9307 3.41529 0
M  V30 4661 H 434.429 -5.09621 3.98617 0
M  V30 4662 N 434.561 -1.01147 -1.20859 0
M  V30 4663 C 435.491 -0.597663 -2.25722 0
M  V30 4664 C 436.472 0.384744 -1.65692 0
M  V30 4665 O 437.657 0.271303 -1.92296 0
M  V30 4666 C 434.787 0.0700149 -3.47229 0
M  V30 4667 C 433.741 -0.832843 -4.19819 0
M  V30 4668 C 433.067 -0.0312202 -5.34691 0
M  V30 4669 C 434.367 -2.1385 -4.76514 0
M  V30 4670 H 436.061 -1.47423 -2.60589 0
M  V30 4671 H 433.607 -0.710301 -1.25263 0
M  V30 4672 H 435.56 0.37103 -4.19763 0
M  V30 4673 H 434.284 0.981259 -3.11511 0
M  V30 4674 H 432.943 -1.11778 -3.49144 0
M  V30 4675 H 432.591 0.881515 -4.95215 0
M  V30 4676 H 432.291 -0.632434 -5.84187 0
M  V30 4677 H 433.815 0.26346 -6.10031 0
M  V30 4678 H 435.229 -1.9002 -5.40893 0
M  V30 4679 H 433.626 -2.69012 -5.36426 0
M  V30 4680 H 434.696 -2.80495 -3.95538 0
M  V30 4681 N 436.039 1.36541 -0.78704 0
M  V30 4682 C 437.264 2.0409 -0.369053 0
M  V30 4683 C 437.689 1.58957 1.00569 0
M  V30 4684 O 437.047 0.756926 1.64743 0
M  V30 4685 C 437.095 3.57924 -0.438466 0
M  V30 4686 O 436.199 4.08642 0.555479 0
M  V30 4687 H 435.54 0.645142 -0.157122 0
M  V30 4688 H 438.07 1.74545 -1.06749 0
M  V30 4689 H 438.08 4.06887 -0.301218 0
M  V30 4690 H 436.755 3.90127 -1.44132 0
M  V30 4691 H 435.332 3.70958 0.380088 0
M  V30 4692 N 437.518 0.538854 1.48102 0
M  V30 4693 C 438.448 -0.207654 2.32575 0
M  V30 4694 C 439.429 -0.926559 1.4265 0
M  V30 4695 O 440.614 -0.91061 1.71527 0
M  V30 4696 C 437.744 -1.24957 3.24042 0
M  V30 4697 C 436.698 -0.648263 4.23062 0
M  V30 4698 C 436.024 -1.79348 5.03725 0
M  V30 4699 C 437.324 0.385897 5.20872 0
M  V30 4700 H 439.018 0.497534 2.95237 0
M  V30 4701 H 436.564 0.240715 1.41974 0
M  V30 4702 H 438.517 -1.77983 3.81969 0
M  V30 4703 H 437.241 -1.98446 2.59397 0
M  V30 4704 H 435.9 -0.139452 3.66335 0
M  V30 4705 H 435.548 -2.51696 4.35498 0
M  V30 4706 H 435.248 -1.39702 5.70751 0
M  V30 4707 H 436.772 -2.32735 5.64506 0
M  V30 4708 H 438.186 -0.057607 5.73271 0
M  V30 4709 H 436.583 0.700227 5.96001 0
M  V30 4710 H 437.653 1.28848 4.67468 0
M  V30 4711 N 438.996 -1.55193 0.274407 0
M  V30 4712 C 440.243 -1.99581 -0.342579 0
M  V30 4713 C 440.571 -1.1628 -1.55914 0
M  V30 4714 O 439.826 -0.22029 -1.94456 0
M  V30 4715 C 440.125 -3.49019 -0.769458 0
M  V30 4716 C 439.791 -4.49598 0.342389 0
M  V30 4717 C 438.453 -4.76821 0.647686 0
M  V30 4718 C 440.805 -5.0964 1.09163 0
M  V30 4719 C 438.133 -5.61354 1.70581 0
M  V30 4720 C 440.485 -5.95323 2.13948 0
M  V30 4721 C 439.149 -6.20867 2.45113 0
M  V30 4722 H 438.419 -0.730319 -0.125358 0
M  V30 4723 H 441.066 -1.87529 0.387971 0
M  V30 4724 H 439.371 -3.58544 -1.57967 0
M  V30 4725 H 441.068 -3.8077 -1.25757 0
M  V30 4726 H 437.658 -4.28496 0.094318 0
M  V30 4727 H 441.842 -4.88632 0.869024 0
M  V30 4728 H 437.098 -5.79392 1.9523 0
M  V30 4729 H 441.272 -6.40881 2.72478 0
M  V30 4730 H 438.899 -6.86162 3.27239 0
M  V30 4731 N 440.474 -0.00167713 -1.576 0
M  V30 4732 C 441.72 0.683832 -1.90923 0
M  V30 4733 C 442.053 1.7333 -0.875799 0
M  V30 4734 O 441.328 1.94215 0.10525 0
M  V30 4735 C 441.611 1.32543 -3.3482 0
M  V30 4736 C 441.464 0.287387 -4.48881 0
M  V30 4737 C 442.783 2.25114 -3.78169 0
M  V30 4738 H 439.902 0.247125 -0.694333 0
M  V30 4739 H 442.544 -0.0533149 -1.89925 0
M  V30 4740 H 440.694 1.95372 -3.35801 0
M  V30 4741 H 442.366 -0.341346 -4.60035 0
M  V30 4742 H 440.609 -0.39017 -4.32042 0
M  V30 4743 H 441.28 0.775393 -5.46527 0
M  V30 4744 H 443.756 1.723 -3.7875 0
M  V30 4745 H 442.632 2.66971 -4.79602 0
M  V30 4746 H 442.893 3.13092 -3.12131 0
M  V30 4747 N 441.952 1.55251 0.271103 0
M  V30 4748 C 442.9 1.89054 1.35504 0
M  V30 4749 C 443.894 0.767064 1.51038 0
M  V30 4750 O 445.1 0.951429 1.528 0
M  V30 4751 H 441.475 0.600072 0.45323 0
M  V30 4752 H 443.446 2.79598 1.04247 0
M  V30 4753 C 442.195 2.18068 2.70817 0
M  V30 4754 H 441.518 3.04005 2.59656 0
M  V30 4755 H 442.958 2.4564 3.45597 0
M  V30 4756 C 441.417 0.988901 3.2206 0
M  V30 4757 O 441.947 0.224501 4.01072 0
M  V30 4758 N 440.153 0.786085 2.79766 0
M  V30 4759 H 439.7 1.40937 2.15626 0
M  V30 4760 H 439.658 -0.00969349 3.14399 0
M  V30 4761 N 443.43 -0.535701 1.48216 0
M  V30 4762 C 444.363 -1.65726 1.56876 0
M  V30 4763 C 445.341 -1.57094 0.419542 0
M  V30 4764 O 446.525 -1.77648 0.630352 0
M  V30 4765 C 443.652 -3.04096 1.49142 0
M  V30 4766 C 442.698 -3.31105 2.68834 0
M  V30 4767 S 443.531 -3.18001 4.30854 0
M  V30 4768 C 444.687 -4.58828 4.25709 0
M  V30 4769 H 444.92 -1.58129 2.51759 0
M  V30 4770 H 442.453 -0.718218 1.36678 0
M  V30 4771 H 444.411 -3.839 1.45366 0
M  V30 4772 H 443.072 -3.09139 0.556067 0
M  V30 4773 H 442.265 -4.32033 2.59545 0
M  V30 4774 H 441.867 -2.58961 2.69843 0
M  V30 4775 H 444.159 -5.5023 3.95289 0
M  V30 4776 H 445.102 -4.73172 5.26796 0
M  V30 4777 H 445.51 -4.37883 3.56257 0
M  V30 4778 N 444.908 -1.36708 -0.784132 0
M  V30 4779 C 445.855 -1.31466 -1.89698 0
M  V30 4780 C 446.825 -0.18239 -1.65096 0
M  V30 4781 O 448.01 -0.369762 -1.87183 0
M  V30 4782 C 445.15 -1.1151 -3.26588 0
M  V30 4783 C 444.263 -2.33859 -3.63227 0
M  V30 4784 C 443.398 -2.06873 -4.89262 0
M  V30 4785 C 442.437 -3.25154 -5.18595 0
M  V30 4786 N 441.574 -2.978 -6.35814 0
M  V30 4787 H 446.414 -2.26619 -1.93515 0
M  V30 4788 H 443.951 -1.12625 -0.946256 0
M  V30 4789 H 445.909 -0.979653 -4.05535 0
M  V30 4790 H 444.539 -0.200103 -3.22179 0
M  V30 4791 H 443.591 -2.58188 -2.79362 0
M  V30 4792 H 444.903 -3.22109 -3.8085 0
M  V30 4793 H 444.057 -1.90289 -5.76086 0
M  V30 4794 H 442.796 -1.15942 -4.73718 0
M  V30 4795 H 441.801 -3.42292 -4.30251 0
M  V30 4796 H 443.026 -4.1692 -5.36055 0
M  V30 4797 H 440.972 -2.09485 -6.21653 0
M  V30 4798 H 440.889 -3.7959 -6.53794 0
M  V30 4799 H 442.157 -2.84805 -7.25607 0
M  V30 4800 N 446.386 1.0089 -1.21074 0
M  V30 4801 C 447.333 2.09588 -0.966512 0
M  V30 4802 C 448.303 1.65761 0.106089 0
M  V30 4803 O 449.488 1.90758 -0.0402287 0
M  V30 4804 C 446.628 3.40958 -0.533058 0
M  V30 4805 C 445.741 3.9822 -1.67467 0
M  V30 4806 C 444.876 5.17682 -1.19076 0
M  V30 4807 C 443.915 5.67043 -2.30496 0
M  V30 4808 N 443.052 6.77759 -1.83267 0
M  V30 4809 H 447.892 2.29815 -1.89708 0
M  V30 4810 H 445.429 1.12689 -0.945489 0
M  V30 4811 H 447.387 4.1637 -0.263019 0
M  V30 4812 H 446.017 3.20781 0.360505 0
M  V30 4813 H 445.069 3.1983 -2.05944 0
M  V30 4814 H 446.381 4.3085 -2.51336 0
M  V30 4815 H 445.535 6.00326 -0.877151 0
M  V30 4816 H 444.274 4.86635 -0.322066 0
M  V30 4817 H 443.279 4.82999 -2.62664 0
M  V30 4818 H 444.504 6.00121 -3.17855 0
M  V30 4819 H 442.45 6.48527 -0.987356 0
M  V30 4820 H 442.367 7.09624 -2.60711 0
M  V30 4821 H 443.635 7.63949 -1.54928 0
M  V30 4822 N 447.864 1.01787 1.20321 0
M  V30 4823 C 448.827 0.593972 2.2137 0
M  V30 4824 C 449.827 -0.336553 1.57239 0
M  V30 4825 O 451.017 -0.125069 1.7375 0
M  V30 4826 C 448.149 -0.132433 3.40643 0
M  V30 4827 H 449.342 1.48791 2.60387 0
M  V30 4828 H 446.895 0.807803 1.33807 0
M  V30 4829 H 447.63 -1.04123 3.0713 0
M  V30 4830 H 447.415 0.53605 3.88418 0
M  V30 4831 H 448.905 -0.416314 4.1552 0
M  V30 4832 N 449.342 -1.36122 0.79427 0
M  V30 4833 C 450.619 -1.93398 0.292685 0
M  V30 4834 C 450.999 -1.72567 -1.21589 0
M  V30 4835 O 450.347 -1.08745 -2.00965 0
M  V30 4836 C 450.557 -3.42099 0.690614 0
M  V30 4837 C 451.905 -4.19231 0.673105 0
M  V30 4838 O 452.929 -3.50559 0.631389 0
M  V30 4839 O 451.788 -5.41732 0.720362 0
M  V30 4840 H 448.882 -0.823712 0.0736693 0
M  V30 4841 H 451.428 -1.45273 0.87714 0
M  V30 4842 H 450.2 -3.50938 1.73085 0
M  V30 4843 H 449.823 -3.97519 0.0803036 0
M  V30 4844 N 450.82 -0.546701 -1.47814 0
M  V30 4845 C 451.75 0.195317 -2.32682 0
M  V30 4846 C 452.731 0.918981 -1.43139 0
M  V30 4847 O 453.916 0.901501 -1.72008 0
M  V30 4848 C 451.046 1.23237 -3.247 0
M  V30 4849 C 450 0.625818 -4.234 0
M  V30 4850 C 449.326 1.76674 -5.04669 0
M  V30 4851 C 450.626 -0.413515 -5.2066 0
M  V30 4852 H 452.32 -0.513184 -2.94969 0
M  V30 4853 H 449.866 -0.248241 -1.41844 0
M  V30 4854 H 451.819 1.75955 -3.82907 0
M  V30 4855 H 450.543 1.97067 -2.60446 0
M  V30 4856 H 449.202 0.120023 -3.66403 0
M  V30 4857 H 448.85 2.49383 -4.36826 0
M  V30 4858 H 448.55 1.36673 -5.71484 0
M  V30 4859 H 450.074 2.29738 -5.65732 0
M  V30 4860 H 451.488 0.0272042 -5.73294 0
M  V30 4861 H 449.885 -0.731825 -5.95621 0
M  V30 4862 H 450.955 -1.31325 -4.66778 0
M  V30 4863 N 452.299 1.55045 -0.282633 0
M  V30 4864 C 453.71 1.85473 0.213655 0
M  V30 4865 C 454.061 1.20465 1.54863 0
M  V30 4866 O 453.186 0.495676 2.10647 0
M  V30 4867 C 453.781 3.36496 0.394445 0
M  V30 4868 C 452.34 3.67022 0.834961 0
M  V30 4869 C 451.487 2.77218 -0.0674081 0
M  V30 4870 H 454.438 1.50478 -0.504202 0
M  V30 4871 H 454.459 3.60007 1.23186 0
M  V30 4872 H 453.971 3.83782 -0.577326 0
M  V30 4873 H 452.072 3.25241 1.81794 0
M  V30 4874 H 452.185 4.74433 0.667075 0
M  V30 4875 H 450.549 2.5069 0.450196 0
M  V30 4876 H 451.332 3.2732 -1.0352 0
M  V30 4877 N 453.777 0.010035 1.57597 0
M  V30 4878 C 454.687 -0.994226 2.12491 0
M  V30 4879 C 455.703 -1.37013 1.07254 0
M  V30 4880 O 456.879 -1.45542 1.3921 0
M  V30 4881 C 453.944 -2.2642 2.62555 0
M  V30 4882 C 453.005 -1.95049 3.82432 0
M  V30 4883 C 452.238 -3.15991 4.30099 0
M  V30 4884 O 452.461 -4.28015 3.7704 0
M  V30 4885 O 451.395 -2.99403 5.22151 0
M  V30 4886 H 455.221 -0.557549 2.98538 0
M  V30 4887 H 452.806 -0.209413 1.47925 0
M  V30 4888 H 454.688 -3.01009 2.9491 0
M  V30 4889 H 453.363 -2.69306 1.796 0
M  V30 4890 H 452.27 -1.17904 3.55034 0
M  V30 4891 H 453.603 -1.56992 4.66491 0
M  V30 4892 N 455.255 -1.55392 -0.262866 0
M  V30 4893 C 456.187 -1.85392 -1.34768 0
M  V30 4894 C 457.2 -0.739069 -1.45057 0
M  V30 4895 O 458.389 -1.01703 -1.46693 0
M  V30 4896 C 455.489 -2.01088 -2.72795 0
M  V30 4897 C 454.662 -3.31828 -2.84972 0
M  V30 4898 C 453.721 -3.37464 -4.03738 0
M  V30 4899 O 452.747 -4.10778 -3.94018 0
M  V30 4900 N 453.949 -2.65599 -5.16176 0
M  V30 4901 H 456.714 -2.79029 -1.09375 0
M  V30 4902 H 454.275 -1.55434 -0.452981 0
M  V30 4903 H 456.267 -2.02217 -3.50557 0
M  V30 4904 H 454.837 -1.1427 -2.90966 0
M  V30 4905 H 454.057 -3.43152 -1.94012 0
M  V30 4906 H 455.345 -4.18032 -2.90045 0
M  V30 4907 H 454.743 -2.05736 -5.26962 0
M  V30 4908 H 453.3 -2.72439 -5.92132 0
M  V30 4909 N 456.733 0.527833 -1.48498 0
M  V30 4910 C 457.696 1.61439 -1.62696 0
M  V30 4911 C 458.696 1.52824 -0.500136 0
M  V30 4912 O 459.886 1.56456 -0.765976 0
M  V30 4913 C 457.018 3.01063 -1.59918 0
M  V30 4914 H 458.211 1.50189 -2.59583 0
M  V30 4915 H 455.764 0.750055 -1.37127 0
M  V30 4916 H 456.499 3.17818 -0.645163 0
M  V30 4917 H 456.284 3.08725 -2.41726 0
M  V30 4918 H 457.774 3.80057 -1.73051 0
M  V30 4919 N 458.211 1.37122 0.776871 0
M  V30 4920 C 459.161 1.28989 1.88005 0
M  V30 4921 C 460.145 0.178765 1.59904 0
M  V30 4922 O 461.337 0.412705 1.72121 0
M  V30 4923 C 458.466 1.09402 3.25402 0
M  V30 4924 C 457.552 2.25036 3.59471 0
M  V30 4925 N 457.943 3.50407 3.64759 0
M  V30 4926 C 456.241 2.17078 3.89607 0
M  V30 4927 C 456.942 4.26628 3.95428 0
M  V30 4928 N 455.918 3.55709 4.11062 0
M  V30 4929 H 459.72 2.2394 1.90337 0
M  V30 4930 H 457.234 1.30021 0.973052 0
M  V30 4931 H 459.231 1.01661 4.04315 0
M  V30 4932 H 457.891 0.153632 3.24336 0
M  V30 4933 H 458.902 3.8438 3.47091 0
M  V30 4934 H 455.579 1.31067 3.96393 0
M  V30 4935 H 456.969 5.35107 4.06338 0
M  V30 4936 N 459.689 -1.00246 1.21608 0
M  V30 4937 C 460.914 -1.78167 1.06167 0
M  V30 4938 C 461.339 -1.84138 -0.384035 0
M  V30 4939 O 460.697 -1.28683 -1.27712 0
M  V30 4940 C 460.745 -3.19786 1.66642 0
M  V30 4941 O 459.849 -4.02153 0.913613 0
M  V30 4942 H 459.19 -0.549 0.37349 0
M  V30 4943 H 461.72 -1.25994 1.61204 0
M  V30 4944 H 461.73 -3.70451 1.70969 0
M  V30 4945 H 460.405 -3.14754 2.7185 0
M  V30 4946 H 458.982 -3.60711 0.945635 0
M  V30 4947 N 461.167 -1.02423 -1.1978 0
M  V30 4948 C 462.416 -0.713265 -1.88667 0
M  V30 4949 C 462.729 0.7609 -1.80193 0
M  V30 4950 O 463.935 1.18473 -2.44288 0
M  V30 4951 C 462.391 -1.22545 -3.38394 0
M  V30 4952 C 461.999 -2.72706 -3.55437 0
M  V30 4953 C 463.743 -0.990257 -4.12788 0
M  V30 4954 C 461.65 -3.17367 -4.99031 0
M  V30 4955 H 460.58 -0.263105 -0.706606 0
M  V30 4956 H 463.231 -1.23792 -1.35454 0
M  V30 4957 H 461.613 -0.628732 -3.90977 0
M  V30 4958 H 462.787 -3.37993 -3.13205 0
M  V30 4959 H 461.102 -2.94453 -2.94425 0
M  V30 4960 H 463.699 -1.29926 -5.18675 0
M  V30 4961 H 464.042 0.0730761 -4.16236 0
M  V30 4962 H 464.575 -1.55074 -3.66329 0
M  V30 4963 H 461.314 -4.23009 -5.00743 0
M  V30 4964 H 460.834 -2.56805 -5.42044 0
M  V30 4965 H 462.513 -3.10441 -5.67658 0
M  V30 4966 N 462.645 1.35699 -0.801477 0
M  V30 4967 C 463.894 1.98165 -0.375979 0
M  V30 4968 C 464.207 1.64306 1.06127 0
M  V30 4969 O 465.413 2.20097 1.58964 0
M  V30 4970 C 463.869 3.54497 -0.621305 0
M  V30 4971 C 463.477 3.9727 -2.07076 0
M  V30 4972 C 465.221 4.23697 -0.26091 0
M  V30 4973 C 463.128 5.46427 -2.26211 0
M  V30 4974 H 462.058 0.741478 -0.136844 0
M  V30 4975 H 464.709 1.54834 -0.984814 0
M  V30 4976 H 463.091 3.95958 0.0574112 0
M  V30 4977 H 464.265 3.66974 -2.78687 0
M  V30 4978 H 462.58 3.40943 -2.39054 0
M  V30 4979 H 465.177 5.33334 -0.381994 0
M  V30 4980 H 465.52 4.0869 0.792344 0
M  V30 4981 H 466.053 3.87639 -0.893339 0
M  V30 4982 H 462.792 5.66396 -3.29963 0
M  V30 4983 H 462.312 5.78309 -1.59119 0
M  V30 4984 H 463.991 6.12819 -2.07513 0
M  V30 4985 N 464.123 0.554532 1.47522 0
M  V30 4986 C 465.07 -0.19466 2.29978 0
M  V30 4987 C 466.04 -0.910882 1.38896 0
M  V30 4988 O 467.225 -0.907102 1.67858 0
M  V30 4989 C 464.365 -1.22035 3.22802 0
M  V30 4990 C 463.478 -0.510474 4.28973 0
M  V30 4991 C 462.613 -1.52123 5.08952 0
M  V30 4992 C 461.652 -0.796173 6.069 0
M  V30 4993 N 460.789 -1.75363 6.79847 0
M  V30 4994 H 465.629 0.51461 2.93523 0
M  V30 4995 H 463.166 0.265607 1.44682 0
M  V30 4996 H 465.124 -1.8276 3.7504 0
M  V30 4997 H 463.754 -1.89769 2.61127 0
M  V30 4998 H 462.806 0.211234 3.79813 0
M  V30 4999 H 464.118 0.0576503 4.98767 0
M  V30 5000 H 463.272 -2.20207 5.65326 0
M  V30 5001 H 462.011 -2.12327 4.39054 0
M  V30 5002 H 461.016 -0.101388 5.49707 0
M  V30 5003 H 462.241 -0.199911 6.78806 0
M  V30 5004 H 460.187 -2.3443 6.12682 0
M  V30 5005 H 460.104 -1.23759 7.45801 0
M  V30 5006 H 461.372 -2.4257 7.40797 0
M  V30 5007 N 465.601 -1.54893 0.290851 0
M  V30 5008 C 466.511 -2.26812 -0.59945 0
M  V30 5009 C 467.527 -1.29963 -1.15696 0
M  V30 5010 O 468.703 -1.62928 -1.18391 0
M  V30 5011 C 465.768 -2.98716 -1.75982 0
M  V30 5012 C 464.829 -4.1108 -1.2374 0
M  V30 5013 C 464.062 -4.79546 -2.34246 0
M  V30 5014 O 464.285 -4.47309 -3.53936 0
M  V30 5015 O 463.219 -5.67165 -2.01512 0
M  V30 5016 H 467.045 -3.03696 -0.0163561 0
M  V30 5017 H 464.63 -1.49289 0.0576755 0
M  V30 5018 H 466.512 -3.43851 -2.43607 0
M  V30 5019 H 465.187 -2.24737 -2.3297 0
M  V30 5020 H 464.094 -3.70367 -0.527163 0
M  V30 5021 H 465.427 -4.87007 -0.71307 0
M  V30 5022 N 467.08 -0.0183926 -1.57589 0
M  V30 5023 C 468.32 0.666846 -1.93216 0
M  V30 5024 C 468.684 1.69905 -0.894215 0
M  V30 5025 O 469.885 2.436 -1.13633 0
M  V30 5026 C 468.156 1.27684 -3.33814 0
M  V30 5027 S 469.715 1.98464 -3.91353 0
M  V30 5028 H 466.533 0.219826 -0.676164 0
M  V30 5029 H 469.135 -0.0794893 -1.95338 0
M  V30 5030 H 467.839 0.513006 -4.07181 0
M  V30 5031 H 467.37 2.06071 -3.3511 0
M  V30 5032 H 469.385 3.26189 -3.73918 0
M  V30 5033 N 468.558 1.5553 0.254621 0
M  V30 5034 C 469.505 1.89666 1.31512 0
M  V30 5035 C 470.475 0.750057 1.482 0
M  V30 5036 O 471.66 1.00301 1.62309 0
M  V30 5037 C 468.8 2.19009 2.667 0
M  V30 5038 C 467.913 3.46435 2.58083 0
M  V30 5039 C 467.048 3.65386 3.85573 0
M  V30 5040 C 466.087 4.8644 3.71541 0
M  V30 5041 N 465.224 5.01952 4.90906 0
M  V30 5042 H 470.064 2.80109 1.017 0
M  V30 5043 H 467.601 1.38666 0.490938 0
M  V30 5044 H 469.559 2.34025 3.45381 0
M  V30 5045 H 468.189 1.31779 2.94676 0
M  V30 5046 H 467.241 3.39792 1.71013 0
M  V30 5047 H 468.553 4.35258 2.43622 0
M  V30 5048 H 467.707 3.80319 4.72697 0
M  V30 5049 H 466.446 2.74781 4.02922 0
M  V30 5050 H 465.451 4.71491 2.82801 0
M  V30 5051 H 466.676 5.78497 3.55694 0
M  V30 5052 H 464.622 4.14283 5.08631 0
M  V30 5053 H 464.539 5.84851 4.79046 0
M  V30 5054 H 465.807 5.21289 5.7955 0
M  V30 5055 N 470.036 -0.519951 1.48776 0
M  V30 5056 C 471.284 -1.2727 1.56993 0
M  V30 5057 C 471.605 -1.9339 0.25004 0
M  V30 5058 O 470.875 -1.81822 -0.729216 0
M  V30 5059 H 469.455 -0.472732 0.578389 0
M  V30 5060 H 472.117 -0.604234 1.85297 0
M  V30 5061 H 471.213 -2.04669 2.3562 0
M  V30 5062 N 471.514 -1.37532 -0.769588 0
M  V30 5063 C 472.739 -1.36231 -1.56384 0
M  V30 5064 C 473.164 0.0495849 -1.88035 0
M  V30 5065 O 472.522 1.02723 -1.49391 0
M  V30 5066 C 472.57 -2.20986 -2.84952 0
M  V30 5067 O 471.674 -1.61597 -3.79421 0
M  V30 5068 H 471.015 -0.465387 -0.473615 0
M  V30 5069 H 473.545 -1.81085 -0.952342 0
M  V30 5070 H 473.555 -2.34277 -3.34034 0
M  V30 5071 H 472.23 -3.23612 -2.61243 0
M  V30 5072 H 470.807 -1.57359 -3.38072 0
M  V30 5073 N 472.992 0.995999 -1.22138 0
M  V30 5074 C 474.403 1.54961 -1.04135 0
M  V30 5075 C 474.754 1.92159 0.396147 0
M  V30 5076 O 473.879 1.74435 1.28069 0
M  V30 5077 C 474.474 2.81581 -1.88408 0
M  V30 5078 C 473.033 3.33396 -1.74712 0
M  V30 5079 C 472.18 2.06509 -1.85066 0
M  V30 5080 H 475.131 0.817436 -1.36028 0
M  V30 5081 H 475.152 3.53822 -1.39966 0
M  V30 5082 H 474.664 2.54476 -2.93025 0
M  V30 5083 H 472.765 3.65416 -0.728159 0
M  V30 5084 H 472.878 4.04208 -2.57202 0
M  V30 5085 H 471.242 2.19925 -1.28472 0
M  V30 5086 H 472.025 1.81804 -2.91208 0
M  V30 5087 N 474.47 1.03057 1.19235 0
M  V30 5088 C 475.4 0.633497 2.24742 0
M  V30 5089 C 476.381 -0.358335 1.66283 0
M  V30 5090 O 477.566 -0.240676 1.92703 0
M  V30 5091 C 474.696 -0.0147648 3.47297 0
M  V30 5092 C 473.65 0.899527 4.18441 0
M  V30 5093 C 472.976 0.116281 5.34574 0
M  V30 5094 C 474.276 2.21404 4.73051 0
M  V30 5095 H 475.97 1.5155 2.58211 0
M  V30 5096 H 473.516 0.73014 1.24117 0
M  V30 5097 H 475.469 -0.304202 4.20301 0
M  V30 5098 H 474.193 -0.931577 3.13032 0
M  V30 5099 H 472.852 1.17319 3.47321 0
M  V30 5100 H 472.5 -0.802619 4.96555 0
M  V30 5101 H 472.2 0.725293 5.83107 0
M  V30 5102 H 473.724 -0.166376 6.10373 0
M  V30 5103 H 475.138 1.98601 5.37802 0
M  V30 5104 H 473.535 2.77512 5.32078 0
M  V30 5105 H 474.605 2.86752 3.91026 0
M  V30 5106 N 475.948 -1.35272 0.808662 0
M  V30 5107 C 477.194 -1.99003 0.390581 0
M  V30 5108 C 477.527 -1.63999 -1.0401 0
M  V30 5109 O 476.802 -0.904368 -1.72196 0
M  V30 5110 C 477.085 -3.55454 0.576566 0
M  V30 5111 C 476.938 -4.00249 2.05233 0
M  V30 5112 C 478.257 -4.401 0.00354277 0
M  V30 5113 H 475.376 -0.722917 0.143388 0
M  V30 5114 H 478.018 -1.6039 1.01858 0
M  V30 5115 H 476.168 -3.88477 0.0419766 0
M  V30 5116 H 477.84 -3.77626 2.64946 0
M  V30 5117 H 476.083 -3.51082 2.54801 0
M  V30 5118 H 476.754 -5.0911 2.13333 0
M  V30 5119 H 479.23 -4.13548 0.460117 0
M  V30 5120 H 478.106 -5.48656 0.163575 0
M  V30 5121 H 478.367 -4.28444 -1.09032 0
M  V30 5122 N 477.426 -0.562348 -1.47226 0
M  V30 5123 C 478.672 -0.0402761 -2.0276 0
M  V30 5124 C 479.005 1.30823 -1.43523 0
M  V30 5125 O 478.28 1.85249 -0.592705 0
M  V30 5126 C 478.563 0.047311 -3.60069 0
M  V30 5127 C 478.416 -1.32865 -4.29729 0
M  V30 5128 C 479.735 0.758182 -4.3352 0
M  V30 5129 H 476.854 -0.0161105 -0.736824 0
M  V30 5130 H 479.496 -0.725628 -1.75598 0
M  V30 5131 H 477.646 0.630986 -3.83342 0
M  V30 5132 H 479.318 -1.95593 -4.17781 0
M  V30 5133 H 477.561 -1.90195 -3.89882 0
M  V30 5134 H 478.232 -1.22004 -5.38349 0
M  V30 5135 H 480.708 0.262546 -4.15271 0
M  V30 5136 H 479.584 0.78844 -5.43208 0
M  V30 5137 H 479.845 1.81537 -4.03109 0
M  V30 5138 N 478.904 1.54736 -0.299062 0
M  V30 5139 C 480.129 2.04975 0.316254 0
M  V30 5140 C 480.554 1.17501 1.46885 0
M  V30 5141 O 479.912 0.178678 1.80417 0
M  V30 5142 C 479.96 3.52672 0.751997 0
M  V30 5143 O 479.064 3.68226 1.85697 0
M  V30 5144 H 478.405 0.661126 0.0617175 0
M  V30 5145 H 480.935 1.99805 -0.440341 0
M  V30 5146 H 480.945 3.94488 1.04133 0
M  V30 5147 H 479.62 4.158 -0.0911482 0
M  V30 5148 H 478.197 3.38316 1.56834 0
M  V30 5149 N 480.382 0.0267497 1.57577 0
M  V30 5150 C 481.312 -0.954308 2.13108 0
M  V30 5151 C 482.293 -1.34088 1.04663 0
M  V30 5152 O 483.478 -1.41992 1.32484 0
M  V30 5153 C 480.608 -2.23744 2.65624 0
M  V30 5154 C 479.562 -1.99168 3.78835 0
M  V30 5155 C 478.888 -3.33726 4.17769 0
M  V30 5156 C 480.188 -1.33277 5.0501 0
M  V30 5157 H 481.882 -0.491848 2.95332 0
M  V30 5158 H 479.428 -0.23514 1.42067 0
M  V30 5159 H 481.381 -2.92754 3.03106 0
M  V30 5160 H 480.105 -2.72151 1.80558 0
M  V30 5161 H 478.764 -1.32577 3.41788 0
M  V30 5162 H 478.412 -3.79888 3.29688 0
M  V30 5163 H 478.112 -3.18089 4.94058 0
M  V30 5164 H 479.636 -4.04008 4.57832 0
M  V30 5165 H 481.05 -1.92283 5.40093 0
M  V30 5166 H 479.447 -1.28045 5.8628 0
M  V30 5167 H 480.517 -0.305411 4.83937 0
M  V30 5168 N 481.861 -1.55662 -0.24637 0
M  V30 5169 C 483.11 -1.7672 -0.972254 0
M  V30 5170 C 483.423 -0.59078 -1.86465 0
M  V30 5171 O 484.629 -0.684391 -2.62732 0
M  V30 5172 C 483.085 -3.12869 -1.7788 0
M  V30 5173 C 482.693 -4.38161 -0.933768 0
M  V30 5174 C 484.437 -3.43265 -2.49738 0
M  V30 5175 C 482.344 -5.6534 -1.73623 0
M  V30 5176 H 481.274 -0.658795 -0.366749 0
M  V30 5177 H 483.925 -1.82092 -0.226902 0
M  V30 5178 H 482.307 -3.01606 -2.56612 0
M  V30 5179 H 483.481 -4.60413 -0.188736 0
M  V30 5180 H 481.796 -4.15102 -0.328488 0
M  V30 5181 H 484.393 -4.35501 -3.10231 0
M  V30 5182 H 484.736 -2.64614 -3.2138 0
M  V30 5183 H 485.269 -3.55746 -1.78016 0
M  V30 5184 H 482.008 -6.46814 -1.06354 0
M  V30 5185 H 481.528 -5.47188 -2.45653 0
M  V30 5186 H 483.207 -6.04616 -2.30323 0
M  V30 5187 N 483.339 0.512053 -1.4905 0
M  V30 5188 C 484.587 1.26436 -1.57665 0
M  V30 5189 C 484.908 1.93255 -0.260293 0
M  V30 5190 O 484.178 1.82206 0.719564 0
M  V30 5191 H 482.758 0.469658 -0.580888 0
M  V30 5192 H 485.42 0.594398 -1.85615 0
M  V30 5193 H 484.516 2.03417 -2.36702 0
M  V30 5194 N 484.817 1.37938 0.762283 0
M  V30 5195 C 485.78 1.34279 1.85747 0
M  V30 5196 C 486.78 0.244969 1.58923 0
M  V30 5197 O 487.97 0.501365 1.66829 0
M  V30 5198 C 485.102 1.08833 3.23061 0
M  V30 5199 H 486.295 2.31705 1.90401 0
M  V30 5200 H 483.848 1.23105 0.963057 0
M  V30 5201 H 484.583 0.119767 3.24079 0
M  V30 5202 H 484.368 1.88306 3.43923 0
M  V30 5203 H 485.858 1.08946 4.03138 0
M  V30 5204 N 486.295 -0.989507 1.22664 0
M  V30 5205 C 487.225 -2.09847 1.02404 0
M  V30 5206 C 488.206 -1.70007 -0.0561303 0
M  V30 5207 O 489.391 -1.93906 0.106748 0
M  V30 5208 C 486.521 -3.41996 0.604663 0
M  V30 5209 C 485.475 -3.95699 1.63115 0
M  V30 5210 C 484.801 -5.23936 1.0675 0
M  V30 5211 C 486.101 -4.25999 3.02196 0
M  V30 5212 H 487.795 -2.27054 1.95158 0
M  V30 5213 H 485.341 -1.09111 0.939727 0
M  V30 5214 H 487.294 -4.1899 0.45002 0
M  V30 5215 H 486.018 -3.24626 -0.35855 0
M  V30 5216 H 484.677 -3.2084 1.77362 0
M  V30 5217 H 484.325 -5.02909 0.0955422 0
M  V30 5218 H 484.025 -5.60833 1.75328 0
M  V30 5219 H 485.549 -6.0356 0.924516 0
M  V30 5220 H 486.963 -4.93777 2.91303 0
M  V30 5221 H 485.36 -4.74076 3.67929 0
M  V30 5222 H 486.43 -3.33636 3.51873 0
M  V30 5223 N 487.773 -1.03688 -1.18687 0
M  V30 5224 C 488.703 -0.645407 -2.24403 0
M  V30 5225 C 489.684 0.349511 -1.66471 0
M  V30 5226 O 490.869 0.230453 -1.92828 0
M  V30 5227 C 487.999 -0.00365337 -3.473 0
M  V30 5228 C 486.953 -0.921705 -4.17958 0
M  V30 5229 C 486.279 -0.144629 -5.34504 0
M  V30 5230 C 487.579 -2.23909 -4.71871 0
M  V30 5231 H 489.273 -1.52917 -2.57404 0
M  V30 5232 H 486.819 -0.736711 -1.23728 0
M  V30 5233 H 488.772 0.281908 -4.20456 0
M  V30 5234 H 487.496 0.914963 -3.13522 0
M  V30 5235 H 486.155 -1.19159 -3.46694 0
M  V30 5236 H 485.803 0.776274 -4.96974 0
M  V30 5237 H 485.503 -0.756206 -5.82714 0
M  V30 5238 H 487.027 0.134004 -6.10453 0
M  V30 5239 H 488.441 -2.0145 -5.36741 0
M  V30 5240 H 486.838 -2.8033 -5.30599 0
M  V30 5241 H 487.908 -2.88822 -3.895 0
M  V30 5242 N 489.251 1.34841 -0.815825 0
M  V30 5243 C 490.667 1.51543 -0.500697 0
M  V30 5244 C 490.867 1.76261 0.976444 0
M  V30 5245 O 489.923 1.8094 1.76117 0
M  V30 5246 C 491.236 2.68487 -1.35407 0
M  V30 5247 C 492.784 2.82368 -1.35046 0
M  V30 5248 C 493.259 4.02347 -2.18816 0
M  V30 5249 N 494.75 4.09542 -2.16402 0
M  V30 5250 C 495.485 5.01517 -2.77971 0
M  V30 5251 N 494.981 5.98763 -3.48503 0
M  V30 5252 N 496.774 4.94334 -2.67563 0
M  V30 5253 H 488.925 1.17055 -1.77234 0
M  V30 5254 H 491.188 0.573481 -0.754866 0
M  V30 5255 H 490.894 2.56829 -2.40274 0
M  V30 5256 H 490.768 3.63321 -1.01377 0
M  V30 5257 H 493.155 2.93471 -0.309604 0
M  V30 5258 H 493.236 1.88363 -1.73069 0
M  V30 5259 H 492.88 3.92004 -3.22948 0
M  V30 5260 H 492.81 4.95551 -1.78148 0
M  V30 5261 H 495.301 3.39932 -1.65091 0
M  V30 5262 H 495.614 6.6556 -3.92747 0
M  V30 5263 H 493.959 5.98909 -3.52609 0
M  V30 5264 H 497.15 4.1732 -2.12041 0
M  V30 5265 H 497.323 5.6582 -3.15834 0
M  V30 5266 N 490.729 0.570148 1.46925 0
M  V30 5267 C 492.006 -0.0153259 1.95594 0
M  V30 5268 C 492.386 -1.47232 1.51281 0
M  V30 5269 O 491.734 -2.15574 0.757624 0
M  V30 5270 C 491.944 0.143624 3.48704 0
M  V30 5271 C 493.292 0.00494484 4.246 0
M  V30 5272 O 494.316 0.0718214 3.56128 0
M  V30 5273 O 493.175 -0.141175 5.46318 0
M  V30 5274 H 490.269 -0.0568819 0.825041 0
M  V30 5275 H 492.815 0.637583 1.57267 0
M  V30 5276 H 491.587 1.15699 3.73804 0
M  V30 5277 H 491.21 -0.5463 3.93829 0
M  V30 5278 N 492.207 -1.54576 0.307264 0
M  V30 5279 C 493.454 -2.00263 -0.300167 0
M  V30 5280 C 493.782 -1.19561 -1.53413 0
M  V30 5281 O 493.037 -0.261487 -1.93945 0
M  V30 5282 C 493.336 -3.50572 -0.695253 0
M  V30 5283 C 493.002 -4.48771 0.437679 0
M  V30 5284 C 491.664 -4.7534 0.748681 0
M  V30 5285 C 494.016 -5.0721 1.19949 0
M  V30 5286 C 491.344 -5.5761 1.8245 0
M  V30 5287 C 493.696 -5.90651 2.26527 0
M  V30 5288 C 492.36 -6.15528 2.58227 0
M  V30 5289 H 491.63 -0.732814 -0.109839 0
M  V30 5290 H 494.277 -1.86664 0.427661 0
M  V30 5291 H 492.582 -3.61814 -1.50326 0
M  V30 5292 H 494.279 -3.83352 -1.17653 0
M  V30 5293 H 490.869 -4.282 0.185187 0
M  V30 5294 H 495.053 -4.86679 0.972474 0
M  V30 5295 H 490.309 -5.75121 2.07476 0
M  V30 5296 H 494.483 -6.34957 2.86011 0
M  V30 5297 H 492.11 -6.79066 3.4172 0
M  V30 5298 N 493.685 -0.035106 -1.57561 0
M  V30 5299 C 495.096 0.502885 -1.798 0
M  V30 5300 C 495.447 1.71892 -0.945921 0
M  V30 5301 O 494.572 2.15822 -0.157991 0
M  V30 5302 C 495.167 0.919097 -3.26095 0
M  V30 5303 C 493.726 1.40216 -3.49308 0
M  V30 5304 C 492.873 0.369709 -2.74824 0
M  V30 5305 H 495.824 -0.261102 -1.56537 0
M  V30 5306 H 495.845 1.78308 -3.36135 0
M  V30 5307 H 495.357 0.0338526 -3.88085 0
M  V30 5308 H 493.458 2.30714 -2.92578 0
M  V30 5309 H 493.571 1.40541 -4.58023 0
M  V30 5310 H 491.935 0.839113 -2.40481 0
M  V30 5311 H 492.718 -0.507173 -3.39533 0
M  V30 5312 N 495.163 1.55791 0.238111 0
M  V30 5313 C 496.111 1.91885 1.31464 0
M  V30 5314 C 497.105 0.798929 1.49377 0
M  V30 5315 O 498.311 0.983626 1.50747 0
M  V30 5316 H 494.686 0.609551 0.440399 0
M  V30 5317 H 496.657 2.81747 0.982925 0
M  V30 5318 C 495.406 2.23763 2.6613 0
M  V30 5319 H 494.729 3.09444 2.53149 0
M  V30 5320 H 496.169 2.52915 3.40309 0
M  V30 5321 C 494.628 1.05699 3.1989 0
M  V30 5322 O 495.158 0.309524 4.00506 0
M  V30 5323 N 493.364 0.845251 2.78036 0
M  V30 5324 H 492.911 1.4548 2.12588 0
M  V30 5325 H 492.869 0.0569973 3.14348 0
M  V30 5326 N 496.642 -0.504142 1.49319 0
M  V30 5327 C 498.058 -0.835039 1.36012 0
M  V30 5328 C 498.258 -1.97674 0.390808 0
M  V30 5329 O 497.314 -2.51867 -0.178655 0
M  V30 5330 C 498.627 -1.17821 2.76656 0
M  V30 5331 C 500.175 -1.2866 2.85334 0
M  V30 5332 C 500.65 -1.66307 4.26739 0
M  V30 5333 N 502.141 -1.73362 4.29534 0
M  V30 5334 C 502.876 -2.0393 5.35911 0
M  V30 5335 N 502.372 -2.32744 6.52535 0
M  V30 5336 N 504.165 -2.05155 5.23324 0
M  V30 5337 H 496.316 0.248764 2.10938 0
M  V30 5338 H 498.579 0.0486962 0.946748 0
M  V30 5339 H 498.285 -0.412682 3.4927 0
M  V30 5340 H 498.159 -2.12239 3.11825 0
M  V30 5341 H 500.546 -2.04285 2.1296 0
M  V30 5342 H 500.627 -0.323004 2.53752 0
M  V30 5343 H 500.271 -0.91234 4.99639 0
M  V30 5344 H 500.201 -2.63761 4.55782 0
M  V30 5345 H 502.692 -1.53268 3.45424 0
M  V30 5346 H 503.005 -2.55248 7.2943 0
M  V30 5347 H 501.35 -2.30207 6.55767 0
M  V30 5348 H 504.541 -1.82119 4.3122 0
M  V30 5349 H 504.714 -2.28644 6.06322 0
M  V30 5350 N 498.12 -1.38341 -0.754957 0
M  V30 5351 C 499.366 -1.35678 -1.51536 0
M  V30 5352 C 499.721 0.0533985 -1.92326 0
M  V30 5353 O 499.014 1.01573 -1.6246 0
M  V30 5354 C 499.208 -2.2452 -2.78075 0
M  V30 5355 C 499.037 -3.74035 -2.49655 0
M  V30 5356 C 497.807 -4.43066 -2.42942 0
M  V30 5357 C 500.005 -4.665 -2.16523 0
M  V30 5358 N 497.987 -5.78026 -2.06783 0
M  V30 5359 C 499.358 -5.89962 -1.90644 0
M  V30 5360 C 501.413 -4.54718 -2.02821 0
M  V30 5361 C 500.116 -7.0296 -1.52444 0
M  V30 5362 C 502.142 -5.67618 -1.66023 0
M  V30 5363 C 501.504 -6.90141 -1.41015 0
M  V30 5364 H 497.603 -0.551764 -0.554148 0
M  V30 5365 H 500.187 -1.73716 -0.879258 0
M  V30 5366 H 498.358 -1.88673 -3.39496 0
M  V30 5367 H 500.09 -2.12993 -3.44116 0
M  V30 5368 H 496.845 -3.96264 -2.59367 0
M  V30 5369 H 497.269 -6.49394 -1.91353 0
M  V30 5370 H 501.911 -3.60546 -2.20831 0
M  V30 5371 H 499.629 -7.97051 -1.33174 0
M  V30 5372 H 503.215 -5.6048 -1.56055 0
M  V30 5373 H 502.095 -7.76021 -1.12965 0
M  V30 5374 N 499.598 0.982988 -1.23187 0
M  V30 5375 C 500.508 2.10907 -1.02739 0
M  V30 5376 C 501.524 1.73979 0.0273188 0
M  V30 5377 O 502.7 2.00702 -0.16757 0
M  V30 5378 C 499.765 3.41142 -0.618304 0
M  V30 5379 C 498.826 3.92112 -1.74777 0
M  V30 5380 C 498.059 5.16131 -1.3581 0
M  V30 5381 O 498.282 5.6989 -0.241201 0
M  V30 5382 O 497.216 5.61103 -2.17824 0
M  V30 5383 H 501.042 2.31046 -1.97108 0
M  V30 5384 H 498.627 1.09284 -1.01869 0
M  V30 5385 H 500.509 4.19488 -0.400982 0
M  V30 5386 H 499.184 3.2234 0.296421 0
M  V30 5387 H 498.091 3.14895 -2.0197 0
M  V30 5388 H 499.424 4.15364 -2.64071 0
M  V30 5389 N 501.076 1.04316 1.18135 0
M  V30 5390 C 502.306 0.767003 1.91835 0
M  V30 5391 C 502.714 -0.68002 1.76557 0
M  V30 5392 O 502.057 -1.47548 1.09432 0
M  V30 5393 C 502.119 1.05674 3.43618 0
M  V30 5394 C 501.783 2.49818 3.82675 0
M  V30 5395 C 502.78 3.48003 3.86251 0
M  V30 5396 C 500.465 2.84596 4.13897 0
M  V30 5397 C 502.459 4.79016 4.20503 0
M  V30 5398 C 500.146 4.15813 4.4782 0
M  V30 5399 C 501.144 5.12834 4.51099 0
M  V30 5400 O 500.832 6.41699 4.84229 0
M  V30 5401 H 500.564 0.278948 0.615763 0
M  V30 5402 H 503.118 1.3946 1.50798 0
M  V30 5403 H 501.348 0.372029 3.84906 0
M  V30 5404 H 503.037 0.767994 3.98568 0
M  V30 5405 H 503.803 3.22475 3.62264 0
M  V30 5406 H 499.682 2.09748 4.1052 0
M  V30 5407 H 503.226 5.54739 4.22978 0
M  V30 5408 H 499.123 4.41109 4.71268 0
M  V30 5409 H 499.891 6.46387 5.02121 0
M  V30 5410 N 502.554 -1.34406 0.822964 0
M  V30 5411 C 503.784 -2.02214 0.423424 0
M  V30 5412 C 504.192 -1.62124 -0.975322 0
M  V30 5413 O 503.535 -0.822452 -1.6426 0
M  V30 5414 C 503.597 -3.56721 0.446107 0
M  V30 5415 C 503.261 -4.20136 1.79819 0
M  V30 5416 C 504.258 -4.4065 2.75904 0
M  V30 5417 C 501.943 -4.56906 2.08669 0
M  V30 5418 C 503.937 -4.9706 3.99012 0
M  V30 5419 C 501.624 -5.13026 3.32036 0
M  V30 5420 C 502.622 -5.33047 4.27024 0
M  V30 5421 O 502.31 -5.87979 5.48211 0
M  V30 5422 H 502.042 -0.654748 0.168169 0
M  V30 5423 H 504.596 -1.72659 1.11257 0
M  V30 5424 H 502.826 -3.85537 -0.299734 0
M  V30 5425 H 504.515 -4.05845 0.0666114 0
M  V30 5426 H 505.281 -4.12607 2.54912 0
M  V30 5427 H 501.16 -4.40626 1.35535 0
M  V30 5428 H 504.704 -5.12603 4.73164 0
M  V30 5429 H 500.601 -5.40498 3.52891 0
M  V30 5430 H 501.369 -6.06413 5.49732 0
M  V30 5431 N 504.032 -0.577932 -1.46621 0
M  V30 5432 C 504.962 0.145917 -2.33044 0
M  V30 5433 C 505.943 0.888412 -1.45056 0
M  V30 5434 O 507.128 0.864812 -1.73881 0
M  V30 5435 C 504.258 1.16322 -3.27241 0
M  V30 5436 C 503.212 0.535868 -4.24632 0
M  V30 5437 C 502.538 1.65929 -5.08303 0
M  V30 5438 C 503.838 -0.523861 -5.19666 0
M  V30 5439 H 505.532 -0.575636 -2.93814 0
M  V30 5440 H 503.078 -0.278272 -1.41286 0
M  V30 5441 H 505.031 1.67793 -3.86553 0
M  V30 5442 H 503.755 1.91498 -2.64567 0
M  V30 5443 H 502.414 0.0422759 -3.66576 0
M  V30 5444 H 502.062 2.40061 -4.42018 0
M  V30 5445 H 501.762 1.2452 -5.74255 0
M  V30 5446 H 503.286 2.17686 -5.70478 0
M  V30 5447 H 504.7 -0.0944059 -5.73222 0
M  V30 5448 H 503.097 -0.858 -5.93935 0
M  V30 5449 H 504.167 -1.41197 -4.63887 0
M  V30 5450 N 505.51 1.54411 -0.315457 0
M  V30 5451 C 506.457 2.24048 0.554166 0
M  V30 5452 C 507.427 1.2283 1.11812 0
M  V30 5453 O 508.612 1.51491 1.15997 0
M  V30 5454 C 505.752 2.99574 1.71316 0
M  V30 5455 C 504.865 4.15594 1.17922 0
M  V30 5456 C 504 4.78669 2.30324 0
M  V30 5457 C 503.039 5.86807 1.74137 0
M  V30 5458 N 502.176 6.43777 2.8017 0
M  V30 5459 H 507.016 2.97964 -0.0462602 0
M  V30 5460 H 504.553 1.47059 -0.0346009 0
M  V30 5461 H 506.511 3.41604 2.39505 0
M  V30 5462 H 505.141 2.28008 2.285 0
M  V30 5463 H 504.193 3.78404 0.389136 0
M  V30 5464 H 505.505 4.93459 0.728012 0
M  V30 5465 H 504.659 5.23626 3.06433 0
M  V30 5466 H 503.398 4.00168 2.78778 0
M  V30 5467 H 502.403 5.41261 0.965236 0
M  V30 5468 H 503.628 6.67201 1.2657 0
M  V30 5469 H 501.574 5.68153 3.2793 0
M  V30 5470 H 501.491 7.17031 2.39588 0
M  V30 5471 H 502.759 6.9339 3.56132 0
M  V30 5472 N 506.988 0.0434614 1.5754 0
M  V30 5473 C 507.92 -0.962586 2.08007 0
M  V30 5474 C 508.933 -1.27972 1.00634 0
M  V30 5475 O 510.122 -1.24186 1.28219 0
M  V30 5476 C 507.222 -2.28621 2.50171 0
M  V30 5477 C 506.395 -2.15214 3.80791 0
M  V30 5478 C 505.454 -3.30633 4.09351 0
M  V30 5479 O 504.48 -3.0688 4.79388 0
M  V30 5480 N 505.682 -4.54873 3.60654 0
M  V30 5481 H 508.447 -0.531891 2.94942 0
M  V30 5482 H 506.008 -0.142965 1.61268 0
M  V30 5483 H 508 -3.04689 2.66359 0
M  V30 5484 H 506.57 -2.63283 1.68525 0
M  V30 5485 H 505.79 -1.23785 3.74261 0
M  V30 5486 H 507.078 -2.03475 4.66343 0
M  V30 5487 H 506.476 -4.77063 3.04019 0
M  V30 5488 H 505.033 -5.2806 3.82094 0
M  V30 5489 N 508.466 -1.55915 -0.229846 0
M  V30 5490 C 509.396 -1.94754 -1.28815 0
M  V30 5491 C 510.377 -0.814657 -1.49323 0
M  V30 5492 O 511.562 -1.07631 -1.61645 0
M  V30 5493 C 508.692 -2.25705 -2.63959 0
M  V30 5494 C 507.646 -3.41406 -2.5812 0
M  V30 5495 C 506.972 -3.57941 -3.97218 0
M  V30 5496 C 508.272 -4.76616 -2.13623 0
M  V30 5497 H 509.966 -2.83404 -0.965547 0
M  V30 5498 H 507.512 -1.36353 -0.463028 0
M  V30 5499 H 509.465 -2.51467 -3.38146 0
M  V30 5500 H 508.189 -1.339 -2.9789 0
M  V30 5501 H 506.848 -3.1568 -1.86391 0
M  V30 5502 H 506.496 -2.63526 -4.28443 0
M  V30 5503 H 506.196 -4.35757 -3.94195 0
M  V30 5504 H 507.72 -3.86042 -4.73079 0
M  V30 5505 H 509.134 -5.01637 -2.77549 0
M  V30 5506 H 507.531 -5.57655 -2.21677 0
M  V30 5507 H 508.601 -4.7253 -1.08829 0
M  V30 5508 N 509.944 0.496216 -1.49584 0
M  V30 5509 C 510.876 1.61404 -1.62731 0
M  V30 5510 C 511.889 1.54613 -0.50978 0
M  V30 5511 O 513.078 1.60458 -0.782017 0
M  V30 5512 C 510.178 3.00212 -1.57245 0
M  V30 5513 C 509.351 3.32138 -2.84611 0
M  V30 5514 C 508.41 4.5038 -2.72112 0
M  V30 5515 O 507.436 4.51926 -3.46051 0
M  V30 5516 N 508.638 5.50575 -1.83977 0
M  V30 5517 H 511.403 1.50552 -2.59141 0
M  V30 5518 H 508.964 0.684182 -1.46733 0
M  V30 5519 H 510.956 3.77241 -1.4653 0
M  V30 5520 H 509.526 3.04964 -0.686729 0
M  V30 5521 H 508.746 2.4396 -3.09641 0
M  V30 5522 H 510.034 3.50268 -3.69039 0
M  V30 5523 H 509.432 5.52128 -1.23171 0
M  V30 5524 H 507.989 6.26687 -1.79182 0
M  V30 5525 N 511.423 1.38739 0.74761 0
M  V30 5526 C 512.371 1.36573 1.88283 0
M  V30 5527 C 513.365 0.250712 1.67534 0
M  V30 5528 O 514.571 0.420073 1.7503 0
M  V30 5529 H 510.946 0.42619 0.619569 0
M  V30 5530 H 512.917 2.32356 1.87226 0
M  V30 5531 C 511.666 1.21361 3.25832 0
M  V30 5532 H 510.989 2.06424 3.42388 0
M  V30 5533 H 512.429 1.23901 4.05493 0
M  V30 5534 C 510.888 -0.0790099 3.36807 0
M  V30 5535 O 511.418 -1.05385 3.8763 0
M  V30 5536 N 509.624 -0.13785 2.90273 0
M  V30 5537 H 509.171 0.656128 2.49104 0
M  V30 5538 H 509.129 -1.00228 2.97996 0
M  V30 5539 N 512.901 -0.976442 1.23707 0
M  V30 5540 C 513.848 -2.06952 1.02174 0
M  V30 5541 C 514.818 -1.65984 -0.0621034 0
M  V30 5542 O 516.003 -1.90584 0.0907906 0
M  V30 5543 C 513.143 -3.39425 0.62327 0
M  V30 5544 C 512.256 -3.9364 1.77966 0
M  V30 5545 C 511.391 -5.14343 1.3276 0
M  V30 5546 C 510.43 -5.60733 2.45449 0
M  V30 5547 N 509.567 -6.72662 2.01172 0
M  V30 5548 H 514.407 -2.24704 1.95734 0
M  V30 5549 H 511.944 -1.10143 0.975034 0
M  V30 5550 H 513.902 -4.15526 0.37332 0
M  V30 5551 H 512.532 -3.21624 -0.275329 0
M  V30 5552 H 511.584 -3.14258 2.14351 0
M  V30 5553 H 512.896 -4.24035 2.62671 0
M  V30 5554 H 512.05 -5.97789 1.03601 0
M  V30 5555 H 510.789 -4.8561 0.450975 0
M  V30 5556 H 509.794 -4.75865 2.75378 0
M  V30 5557 H 511.019 -5.91483 3.33654 0
M  V30 5558 H 508.965 -6.45681 1.15895 0
M  V30 5559 H 508.882 -7.02462 2.79434 0
M  V30 5560 H 510.15 -7.59572 1.75129 0
M  V30 5561 N 514.379 -1.04941 -1.1758 0
M  V30 5562 C 515.311 -0.606174 -2.21039 0
M  V30 5563 C 516.324 0.328763 -1.59446 0
M  V30 5564 O 517.513 0.121895 -1.78083 0
M  V30 5565 C 514.613 0.133294 -3.38638 0
M  V30 5566 C 513.786 -0.811711 -4.29802 0
M  V30 5567 C 512.845 -0.113958 -5.26077 0
M  V30 5568 O 511.871 -0.747237 -5.64274 0
M  V30 5569 N 513.073 1.14953 -5.69004 0
M  V30 5570 H 515.838 -1.49606 -2.59689 0
M  V30 5571 H 513.399 -0.930997 -1.32454 0
M  V30 5572 H 515.391 0.610144 -4.00074 0
M  V30 5573 H 513.961 0.924816 -2.98607 0
M  V30 5574 H 513.181 -1.46824 -3.65837 0
M  V30 5575 H 514.469 -1.45326 -4.87604 0
M  V30 5576 H 513.867 1.68441 -5.40041 0
M  V30 5577 H 512.424 1.57049 -6.32597 0
M  V30 5578 N 515.857 1.33968 -0.830081 0
M  V30 5579 C 517.104 1.98063 -0.421566 0
M  V30 5580 C 517.432 1.65787 1.0171 0
M  V30 5581 O 516.687 0.925348 1.72441 0
M  V30 5582 C 516.986 3.52679 -0.57898 0
M  V30 5583 C 516.652 4.04884 -1.98443 0
M  V30 5584 C 515.314 4.18852 -2.36888 0
M  V30 5585 C 517.666 4.32879 -2.90285 0
M  V30 5586 C 514.994 4.58145 -3.66497 0
M  V30 5587 C 517.346 4.7362 -4.19364 0
M  V30 5588 C 516.01 4.85794 -4.57778 0
M  V30 5589 H 515.28 0.724765 -0.154262 0
M  V30 5590 H 517.927 1.59792 -1.05541 0
M  V30 5591 H 516.232 3.91556 0.138219 0
M  V30 5592 H 517.929 4.00261 -0.243317 0
M  V30 5593 H 514.519 3.9448 -1.67581 0
M  V30 5594 H 518.703 4.21619 -2.61823 0
M  V30 5595 H 513.959 4.65762 -3.96075 0
M  V30 5596 H 518.133 4.9424 -4.90612 0
M  V30 5597 H 515.76 5.15998 -5.58256 0
M  V30 5598 N 517.335 0.585699 1.46312 0
M  V30 5599 C 518.282 -0.145835 2.30339 0
M  V30 5600 C 519.252 -0.881215 1.40797 0
M  V30 5601 O 520.437 -0.871293 1.69744 0
M  V30 5602 C 517.577 -1.15161 3.25318 0
M  V30 5603 C 516.69 -0.419367 4.2996 0
M  V30 5604 C 515.825 -1.41293 5.12064 0
M  V30 5605 C 514.864 -0.667261 6.08452 0
M  V30 5606 N 514.001 -1.60903 6.83414 0
M  V30 5607 H 518.841 0.576755 2.92365 0
M  V30 5608 H 516.378 0.296237 1.44086 0
M  V30 5609 H 518.336 -1.74763 3.78832 0
M  V30 5610 H 516.966 -1.84188 2.65094 0
M  V30 5611 H 516.018 0.291751 3.7928 0
M  V30 5612 H 517.33 0.163433 4.98532 0
M  V30 5613 H 516.484 -2.08167 5.6987 0
M  V30 5614 H 515.223 -2.02966 4.43459 0
M  V30 5615 H 514.228 0.0152356 5.49798 0
M  V30 5616 H 515.453 -0.0558817 6.79077 0
M  V30 5617 H 513.399 -2.21381 6.17516 0
M  V30 5618 H 513.316 -1.07911 7.48259 0
M  V30 5619 H 514.584 -2.26802 7.45775 0
M  V30 5620 N 518.813 -1.54241 0.323641 0
M  V30 5621 C 520.229 -1.59574 -0.0290018 0
M  V30 5622 C 520.429 -1.34017 -1.50472 0
M  V30 5623 O 519.485 -1.12464 -2.26071 0
M  V30 5624 C 520.798 -2.98169 0.389295 0
M  V30 5625 C 522.346 -3.11148 0.339958 0
M  V30 5626 C 522.821 -4.5209 0.733418 0
M  V30 5627 N 524.312 -4.5808 0.686827 0
M  V30 5628 C 525.047 -5.65248 0.963464 0
M  V30 5629 N 524.543 -6.80355 1.30724 0
M  V30 5630 N 526.336 -5.55025 0.88902 0
M  V30 5631 H 518.487 -1.6911 1.28512 0
M  V30 5632 H 520.75 -0.790972 0.522558 0
M  V30 5633 H 520.456 -3.21871 1.41746 0
M  V30 5634 H 520.33 -3.76399 -0.245657 0
M  V30 5635 H 522.717 -2.87182 -0.679002 0
M  V30 5636 H 522.798 -2.35023 1.00985 0
M  V30 5637 H 522.442 -4.76788 1.75029 0
M  V30 5638 H 522.372 -5.26584 0.0412189 0
M  V30 5639 H 524.863 -3.75411 0.43298 0
M  V30 5640 H 525.176 -7.58029 1.5037 0
M  V30 5641 H 523.521 -6.81851 1.3455 0
M  V30 5642 H 526.712 -4.63977 0.619939 0
M  V30 5643 H 526.885 -6.38458 1.10797 0
M  V30 5644 N 520.291 -0.0518155 -1.57515 0
M  V30 5645 C 521.54 0.621286 -1.91893 0
M  V30 5646 C 521.853 1.71966 -0.932052 0
M  V30 5647 O 523.059 2.45096 -1.16791 0
M  V30 5648 C 521.515 1.15641 -3.40816 0
M  V30 5649 C 521.123 0.0901146 -4.47909 0
M  V30 5650 C 522.867 1.80472 -3.84227 0
M  V30 5651 C 520.774 0.638154 -5.87947 0
M  V30 5652 H 519.704 0.235835 -0.716169 0
M  V30 5653 H 522.355 -0.120809 -1.83102 0
M  V30 5654 H 520.737 1.95084 -3.44613 0
M  V30 5655 H 521.911 -0.683525 -4.55702 0
M  V30 5656 H 520.226 -0.460774 -4.13843 0
M  V30 5657 H 522.823 2.22471 -4.86221 0
M  V30 5658 H 523.166 2.65669 -3.20508 0
M  V30 5659 H 523.699 1.07683 -3.82948 0
M  V30 5660 H 520.438 -0.176202 -6.55263 0
M  V30 5661 H 519.958 1.37976 -5.83714 0
M  V30 5662 H 521.637 1.12085 -6.37217 0
M  V30 5663 N 521.769 1.56035 0.221574 0
M  V30 5664 C 523.185 1.49026 0.571271 0
M  V30 5665 C 523.385 0.746912 1.87146 0
M  V30 5666 O 522.441 0.286566 2.50869 0
M  V30 5667 C 523.754 2.93579 0.650522 0
M  V30 5668 C 525.302 3.04099 0.741151 0
M  V30 5669 C 525.777 4.5001 0.851747 0
M  V30 5670 N 527.268 4.54053 0.915968 0
M  V30 5671 C 528.003 5.64232 1.02125 0
M  V30 5672 N 527.499 6.84164 1.09049 0
M  V30 5673 N 529.292 5.52084 1.05639 0
M  V30 5674 H 521.443 2.02791 -0.63162 0
M  V30 5675 H 523.706 0.921736 -0.221602 0
M  V30 5676 H 523.412 3.50912 -0.235253 0
M  V30 5677 H 523.286 3.45476 1.51413 0
M  V30 5678 H 525.673 2.4683 1.61737 0
M  V30 5679 H 525.754 2.55371 -0.148128 0
M  V30 5680 H 525.398 5.07896 -0.0200117 0
M  V30 5681 H 525.328 4.96444 1.75644 0
M  V30 5682 H 527.819 3.67683 0.872782 0
M  V30 5683 H 528.132 7.63883 1.1706 0
M  V30 5684 H 526.477 6.86875 1.05962 0
M  V30 5685 H 529.668 4.57317 0.998953 0
M  V30 5686 H 529.841 6.37983 1.13498 0
M  V30 5687 N 523.247 -0.488276 1.49845 0
M  V30 5688 C 524.194 -1.58836 1.67451 0
M  V30 5689 C 525.164 -1.57886 0.515857 0
M  V30 5690 O 526.349 -1.75679 0.744403 0
M  V30 5691 C 523.489 -2.96915 1.75885 0
M  V30 5692 C 522.602 -3.07784 3.03138 0
M  V30 5693 C 521.737 -4.36673 3.02473 0
M  V30 5694 C 520.776 -4.41222 4.24252 0
M  V30 5695 N 519.913 -5.61557 4.21424 0
M  V30 5696 H 524.753 -1.43131 2.61376 0
M  V30 5697 H 522.29 -0.696186 1.29583 0
M  V30 5698 H 524.248 -3.76965 1.78755 0
M  V30 5699 H 522.878 -3.11295 0.85414 0
M  V30 5700 H 521.93 -2.20717 3.09819 0
M  V30 5701 H 523.242 -3.07005 3.93128 0
M  V30 5702 H 522.396 -5.25055 3.03977 0
M  V30 5703 H 521.135 -4.40037 2.10283 0
M  V30 5704 H 520.14 -3.5124 4.22978 0
M  V30 5705 H 521.365 -4.39564 5.17649 0
M  V30 5706 H 519.311 -5.65738 3.32078 0
M  V30 5707 H 519.228 -5.62447 5.05163 0
M  V30 5708 H 520.496 -6.52111 4.2705 0
M  V30 5709 N 524.725 -1.39134 -0.740242 0
M  V30 5710 C 525.95 -1.39518 -1.53459 0
M  V30 5711 C 526.375 0.00968883 -1.88098 0
M  V30 5712 O 525.733 0.995312 -1.51536 0
M  V30 5713 C 525.781 -2.26981 -2.802 0
M  V30 5714 O 524.885 -1.69609 -3.75908 0
M  V30 5715 H 524.226 -0.475328 -0.463637 0
M  V30 5716 H 526.756 -1.83064 -0.913717 0
M  V30 5717 H 526.766 -2.41309 -3.28989 0
M  V30 5718 H 525.441 -3.29081 -2.5432 0
M  V30 5719 H 524.018 -1.64495 -3.34658 0
M  V30 5720 N 526.204 0.969867 -1.24223 0
M  V30 5721 C 527.429 1.75289 -1.10853 0
M  V30 5722 C 527.854 1.85091 0.335079 0
M  V30 5723 O 527.212 1.32024 1.24255 0
M  V30 5724 C 527.26 3.15255 -1.75062 0
M  V30 5725 O 526.364 3.99589 -1.01992 0
M  V30 5726 H 525.705 0.538904 -0.387915 0
M  V30 5727 H 528.235 1.21675 -1.64488 0
M  V30 5728 H 528.245 3.65787 -1.80731 0
M  V30 5729 H 526.92 3.07436 -2.801 0
M  V30 5730 H 525.497 3.58077 -1.04094 0
M  V30 5731 N 527.682 1.05563 1.17022 0
M  V30 5732 C 528.907 0.788437 1.91829 0
M  V30 5733 C 529.332 -0.650356 1.76499 0
M  V30 5734 O 528.69 -1.45229 1.08527 0
M  V30 5735 C 528.738 1.1786 3.40795 0
M  V30 5736 O 527.842 0.312965 4.11211 0
M  V30 5737 H 527.183 0.288794 0.597908 0
M  V30 5738 H 529.713 1.40948 1.48307 0
M  V30 5739 H 529.723 1.14697 3.91546 0
M  V30 5740 H 528.398 2.22666 3.51273 0
M  V30 5741 H 526.975 0.405515 3.70689 0
M  V30 5742 N 529.16 -1.33526 0.837174 0
M  V30 5743 C 530.39 -2.01754 0.444848 0
M  V30 5744 C 530.798 -1.63149 -0.958072 0
M  V30 5745 O 530.141 -0.839827 -1.63379 0
M  V30 5746 C 530.203 -3.56228 0.483917 0
M  V30 5747 C 529.867 -4.18205 1.84265 0
M  V30 5748 C 530.864 -4.37699 2.80563 0
M  V30 5749 C 528.549 -4.54667 2.13503 0
M  V30 5750 C 530.543 -4.928 4.04261 0
M  V30 5751 C 528.23 -5.09475 3.37458 0
M  V30 5752 C 529.228 -5.28488 4.32654 0
M  V30 5753 O 528.916 -5.82132 5.54417 0
M  V30 5754 H 528.648 -0.652928 0.175104 0
M  V30 5755 H 531.202 -1.71469 1.13082 0
M  V30 5756 H 529.432 -3.85833 -0.258826 0
M  V30 5757 H 531.121 -4.05752 0.109653 0
M  V30 5758 H 531.887 -4.0988 2.59274 0
M  V30 5759 H 527.766 -4.39164 1.40201 0
M  V30 5760 H 531.31 -5.07555 4.78574 0
M  V30 5761 H 527.207 -5.36725 3.58604 0
M  V30 5762 H 527.975 -6.00548 5.56133 0
M  V30 5763 N 530.638 -0.59345 -1.46 0
M  V30 5764 C 531.915 -0.0157933 -1.95594 0
M  V30 5765 C 532.295 1.44807 -1.53604 0
M  V30 5766 O 531.643 2.14342 -0.791824 0
M  V30 5767 C 531.853 -0.199081 -3.48432 0
M  V30 5768 C 533.201 -0.0724943 -4.24538 0
M  V30 5769 O 534.225 -0.128469 -3.55968 0
M  V30 5770 O 533.084 0.0542426 -5.46473 0
M  V30 5771 H 530.178 0.043749 -0.825842 0
M  V30 5772 H 532.724 -0.662522 -1.56233 0
M  V30 5773 H 531.496 -1.21631 -3.71916 0
M  V30 5774 H 531.119 0.483576 -3.94648 0
M  V30 5775 N 532.116 1.54067 -0.331816 0
M  V30 5776 C 533.346 2.04833 0.269605 0
M  V30 5777 C 533.754 1.20714 1.45687 0
M  V30 5778 O 533.097 0.232539 1.82222 0
M  V30 5779 C 533.159 3.51386 0.759499 0
M  V30 5780 C 532.823 4.55971 -0.306557 0
M  V30 5781 C 533.82 5.07126 -1.14538 0
M  V30 5782 C 531.505 5.00216 -0.457116 0
M  V30 5783 C 533.499 6.01096 -2.12042 0
M  V30 5784 C 531.186 5.93999 -1.43556 0
M  V30 5785 C 532.184 6.44326 -2.26568 0
M  V30 5786 O 531.872 7.36267 -3.22749 0
M  V30 5787 H 531.604 0.673509 0.0579763 0
M  V30 5788 H 534.158 1.99748 -0.478521 0
M  V30 5789 H 532.388 3.53896 1.55867 0
M  V30 5790 H 534.077 3.85184 1.28017 0
M  V30 5791 H 534.843 4.73716 -1.04009 0
M  V30 5792 H 530.722 4.60652 0.179142 0
M  V30 5793 H 534.266 6.40302 -2.76873 0
M  V30 5794 H 530.163 6.26825 -1.54146 0
M  V30 5795 H 530.931 7.54165 -3.18083 0
M  V30 5796 N 533.594 0.0601682 1.57485 0
M  V30 5797 C 534.504 -0.926121 2.15546 0
M  V30 5798 C 535.52 -1.33532 1.11558 0
M  V30 5799 O 536.696 -1.4104 1.4377 0
M  V30 5800 C 533.761 -2.17952 2.69625 0
M  V30 5801 C 532.822 -1.82783 3.88444 0
M  V30 5802 C 532.055 -3.02148 4.39935 0
M  V30 5803 O 532.278 -4.15803 3.90466 0
M  V30 5804 O 531.212 -2.82639 5.31412 0
M  V30 5805 H 535.038 -0.462289 3.00161 0
M  V30 5806 H 532.623 -0.162246 1.48516 0
M  V30 5807 H 534.505 -2.91474 3.04337 0
M  V30 5808 H 533.18 -2.63456 1.88077 0
M  V30 5809 H 532.087 -1.06549 3.58606 0
M  V30 5810 H 533.42 -1.42072 4.7125 0
M  V30 5811 N 535.072 -1.5615 -0.213296 0
M  V30 5812 C 536.035 -1.92249 -1.24792 0
M  V30 5813 C 537.035 -0.801828 -1.39382 0
M  V30 5814 O 538.225 -1.06948 -1.37506 0
M  V30 5815 C 535.357 -2.18056 -2.62039 0
M  V30 5816 H 536.55 -2.84793 -0.939845 0
M  V30 5817 H 534.103 -1.49559 -0.454062 0
M  V30 5818 H 534.838 -1.2809 -2.97932 0
M  V30 5819 H 534.623 -2.99703 -2.52825 0
M  V30 5820 H 536.113 -2.47051 -3.36683 0
M  V30 5821 N 536.55 0.480323 -1.50102 0
M  V30 5822 C 537.48 1.58769 -1.71215 0
M  V30 5823 C 538.461 1.60583 -0.560997 0
M  V30 5824 O 539.646 1.76996 -0.799127 0
M  V30 5825 C 536.776 2.97148 -1.79778 0
M  V30 5826 C 535.73 3.10201 -2.94888 0
M  V30 5827 C 535.056 4.50137 -2.88584 0
M  V30 5828 C 536.356 2.88283 -4.35534 0
M  V30 5829 H 538.05 1.41354 -2.6393 0
M  V30 5830 H 535.596 0.678591 -1.27008 0
M  V30 5831 H 537.549 3.74536 -1.93133 0
M  V30 5832 H 536.273 3.15699 -0.836772 0
M  V30 5833 H 534.932 2.35244 -2.81169 0
M  V30 5834 H 534.58 4.65593 -1.90349 0
M  V30 5835 H 534.28 4.59808 -3.65856 0
M  V30 5836 H 535.804 5.29558 -3.03976 0
M  V30 5837 H 537.218 3.55427 -4.49827 0
M  V30 5838 H 535.615 3.09408 -5.14186 0
M  V30 5839 H 536.685 1.84219 -4.48544 0
M  V30 5840 N 538.028 1.39524 0.732853 0
M  V30 5841 C 539.305 1.27373 1.48444 0
M  V30 5842 C 539.685 -0.115725 2.10783 0
M  V30 5843 O 539.033 -1.12713 1.98766 0
M  V30 5844 C 539.243 2.39966 2.53412 0
M  V30 5845 C 540.591 2.79384 3.19733 0
M  V30 5846 O 541.615 2.39431 2.63725 0
M  V30 5847 O 540.474 3.48353 4.21085 0
M  V30 5848 H 537.568 0.499272 0.659285 0
M  V30 5849 H 540.114 1.51403 0.766496 0
M  V30 5850 H 538.886 3.32845 2.05742 0
M  V30 5851 H 538.509 2.17612 3.32762 0
M  V30 5852 N 539.506 -0.963266 1.24736 0
M  V30 5853 C 540.416 -2.09246 1.06082 0
M  V30 5854 C 541.432 -1.74 0.000363101 0
M  V30 5855 O 542.608 -2.0041 0.199479 0
M  V30 5856 C 539.673 -3.40115 0.672498 0
M  V30 5857 C 538.734 -3.89282 1.80993 0
M  V30 5858 C 537.967 -5.13905 1.44004 0
M  V30 5859 O 538.19 -5.69434 0.331835 0
M  V30 5860 O 537.124 -5.57566 2.26723 0
M  V30 5861 H 540.95 -2.27881 2.00759 0
M  V30 5862 H 538.535 -1.07649 1.03595 0
M  V30 5863 H 540.417 -4.18797 0.467668 0
M  V30 5864 H 539.092 -3.22771 -0.245102 0
M  V30 5865 H 537.999 -3.11642 2.06955 0
M  V30 5866 H 539.332 -4.1111 2.70646 0
M  V30 5867 N 540.985 -1.06182 -1.16461 0
M  V30 5868 C 541.948 -0.675723 -2.19013 0
M  V30 5869 C 542.948 0.277963 -1.58379 0
M  V30 5870 O 544.138 0.0604962 -1.74095 0
M  V30 5871 C 541.27 0.00591459 -3.40899 0
M  V30 5872 H 542.463 -1.58353 -2.54685 0
M  V30 5873 H 540.016 -0.856908 -1.30716 0
M  V30 5874 H 540.751 0.92652 -3.10783 0
M  V30 5875 H 540.536 -0.67984 -3.86161 0
M  V30 5876 H 542.026 0.26181 -4.16778 0
M  V30 5877 N 542.463 1.3308 -0.844243 0
M  V30 5878 C 543.396 2.27075 -0.226279 0
M  V30 5879 C 544.374 1.49911 0.629716 0
M  V30 5880 O 545.558 1.79068 0.588803 0
M  V30 5881 C 542.685 3.31767 0.681782 0
M  V30 5882 C 541.731 4.26384 -0.0994565 0
M  V30 5883 S 542.564 5.15186 -1.46094 0
M  V30 5884 C 543.72 6.23405 -0.558319 0
M  V30 5885 H 543.953 2.79141 -1.02312 0
M  V30 5886 H 541.486 1.40452 -0.641292 0
M  V30 5887 H 543.444 3.92566 1.20008 0
M  V30 5888 H 542.105 2.78507 1.45234 0
M  V30 5889 H 541.298 5.00514 0.591733 0
M  V30 5890 H 540.9 3.69949 -0.548991 0
M  V30 5891 H 543.192 6.77069 0.241672 0
M  V30 5892 H 544.135 6.96619 -1.26995 0
M  V30 5893 H 544.543 5.64333 -0.13728 0
M  V30 5894 N 543.941 0.601185 1.45683 0
M  V30 5895 C 545.166 0.0982245 2.07167 0
M  V30 5896 C 545.591 -1.20546 1.44396 0
M  V30 5897 O 544.949 -1.73247 0.534347 0
M  V30 5898 C 544.997 -0.0346976 3.60583 0
M  V30 5899 O 544.101 -1.08657 3.97828 0
M  V30 5900 H 543.442 0.0711618 0.660176 0
M  V30 5901 H 545.972 0.829376 1.87036 0
M  V30 5902 H 545.982 -0.234969 4.07323 0
M  V30 5903 H 544.657 0.917265 4.05659 0
M  V30 5904 H 543.234 -0.863275 3.6277 0
M  V30 5905 N 545.419 -1.53889 0.339982 0
M  V30 5906 C 546.668 -2.00035 -0.258604 0
M  V30 5907 C 546.981 -1.23179 -1.51942 0
M  V30 5908 O 548.187 -1.59784 -2.19503 0
M  V30 5909 C 546.643 -3.56249 -0.511359 0
M  V30 5910 C 546.251 -4.41957 0.733349 0
M  V30 5911 C 547.995 -4.1082 -1.069 0
M  V30 5912 C 545.902 -5.89673 0.451591 0
M  V30 5913 H 544.832 -0.747284 -0.10041 0
M  V30 5914 H 547.483 -1.77776 0.454758 0
M  V30 5915 H 545.865 -3.7456 -1.28533 0
M  V30 5916 H 547.039 -4.35421 1.50815 0
M  V30 5917 H 545.354 -3.9836 1.21237 0
M  V30 5918 H 547.951 -5.18789 -1.2947 0
M  V30 5919 H 548.294 -3.63817 -2.02343 0
M  V30 5920 H 548.827 -3.96205 -0.355817 0
M  V30 5921 H 545.566 -6.40903 1.37565 0
M  V30 5922 H 545.086 -5.99122 -0.285193 0
M  V30 5923 H 546.765 -6.46965 0.0675067 0
M  V30 5924 N 546.897 -0.0685191 -1.57451 0
M  V30 5925 C 548.122 0.613919 -1.98106 0
M  V30 5926 C 548.547 1.62551 -0.946501 0
M  V30 5927 O 547.905 1.81085 0.0882824 0
M  V30 5928 C 547.953 1.26189 -3.378 0
M  V30 5929 O 547.057 2.37773 -3.36954 0
M  V30 5930 H 546.398 0.158163 -0.644888 0
M  V30 5931 H 548.928 -0.142063 -2.04106 0
M  V30 5932 H 548.938 1.60951 -3.74912 0
M  V30 5933 H 547.613 0.520625 -4.12629 0
M  V30 5934 H 546.19 2.04829 -3.11608 0
M  V30 5935 N 548.375 1.56261 0.205012 0
M  V30 5936 C 549.621 1.80306 0.9283 0
M  V30 5937 C 549.954 0.640932 1.83319 0
M  V30 5938 O 549.229 -0.359032 1.91158 0
M  V30 5939 C 549.512 3.14547 1.75306 0
M  V30 5940 C 549.365 4.41236 0.873562 0
M  V30 5941 C 550.684 3.45382 2.72762 0
M  V30 5942 H 547.803 0.655929 0.336044 0
M  V30 5943 H 550.445 1.88984 0.196211 0
M  V30 5944 H 548.595 3.0728 2.37721 0
M  V30 5945 H 550.267 4.60539 0.264887 0
M  V30 5946 H 548.51 4.33427 0.179773 0
M  V30 5947 H 549.181 5.31639 1.48541 0
M  V30 5948 H 551.657 3.52884 2.20481 0
M  V30 5949 H 550.533 4.40449 3.2756 0
M  V30 5950 H 550.794 2.68377 3.51321 0
M  V30 5951 N 549.853 -0.472356 1.50355 0
M  V30 5952 C 550.763 -1.59637 1.7191 0
M  V30 5953 C 551.779 -1.63247 0.602195 0
M  V30 5954 O 552.955 -1.81139 0.880369 0
M  V30 5955 C 550.02 -2.9586 1.80742 0
M  V30 5956 C 549.081 -3.02649 3.04471 0
M  V30 5957 C 548.314 -4.32374 3.12872 0
M  V30 5958 O 548.537 -5.22807 2.28099 0
M  V30 5959 O 547.471 -4.44728 4.05587 0
M  V30 5960 H 551.297 -1.44373 2.67189 0
M  V30 5961 H 548.882 -0.651717 1.34436 0
M  V30 5962 H 550.764 -3.7677 1.88739 0
M  V30 5963 H 549.439 -3.11325 0.88647 0
M  V30 5964 H 548.346 -2.20821 3.01975 0
M  V30 5965 H 549.679 -2.92119 3.9614 0
M  V30 5966 N 551.331 -1.39911 -0.725443 0
M  V30 5967 C 552.264 -1.33788 -1.84867 0
M  V30 5968 C 553.242 -0.209907 -1.61239 0
M  V30 5969 O 554.426 -0.391943 -1.8438 0
M  V30 5970 C 551.553 -1.07975 -3.21028 0
M  V30 5971 C 550.599 -2.23092 -3.635 0
M  V30 5972 S 551.432 -3.85431 -3.71757 0
M  V30 5973 C 552.588 -3.61862 -5.10692 0
M  V30 5974 H 552.821 -2.28848 -1.89779 0
M  V30 5975 H 550.354 -1.26079 -0.891254 0
M  V30 5976 H 552.312 -0.937669 -3.99647 0
M  V30 5977 H 550.973 -0.145865 -3.13761 0
M  V30 5978 H 550.166 -2.00647 -4.62338 0
M  V30 5979 H 549.768 -2.33553 -2.92112 0
M  V30 5980 H 552.06 -3.19719 -5.97316 0
M  V30 5981 H 553.003 -4.60196 -5.38169 0
M  V30 5982 H 553.411 -2.95757 -4.8082 0
M  V30 5983 N 552.809 0.956637 -1.25245 0
M  V30 5984 C 553.739 2.07058 -1.07931 0
M  V30 5985 C 554.72 1.70096 0.0110361 0
M  V30 5986 O 555.905 1.93555 -0.158121 0
M  V30 5987 C 553.035 3.40272 -0.695124 0
M  V30 5988 C 551.989 3.91235 -1.73549 0
M  V30 5989 C 551.315 5.20921 -1.20604 0
M  V30 5990 C 552.615 4.17837 -3.13385 0
M  V30 5991 H 554.309 2.218 -2.01109 0
M  V30 5992 H 551.855 1.06581 -0.968326 0
M  V30 5993 H 553.808 4.1765 -0.560949 0
M  V30 5994 H 552.532 3.25462 0.272355 0
M  V30 5995 H 551.191 3.16025 -1.85807 0
M  V30 5996 H 550.839 5.02479 -0.228846 0
M  V30 5997 H 550.539 5.55987 -1.90136 0
M  V30 5998 H 552.063 6.00897 -1.08421 0
M  V30 5999 H 553.477 4.8588 -3.04292 0
M  V30 6000 H 551.874 4.64154 -3.80369 0
M  V30 6001 H 552.944 3.2419 -3.60595 0
M  V30 6002 N 554.287 1.06798 1.15896 0
M  V30 6003 C 555.703 0.792423 1.38538 0
M  V30 6004 C 555.903 -0.60592 1.92174 0
M  V30 6005 O 554.959 -1.36561 2.12385 0
M  V30 6006 C 556.272 1.86157 2.36149 0
M  V30 6007 C 557.82 1.88567 2.49823 0
M  V30 6008 C 558.295 2.9455 3.5072 0
M  V30 6009 N 559.786 2.93616 3.58251 0
M  V30 6010 C 560.521 3.72267 4.36125 0
M  V30 6011 N 560.017 4.60751 5.17379 0
M  V30 6012 N 561.81 3.60637 4.31158 0
M  V30 6013 H 553.961 1.96993 0.794198 0
M  V30 6014 H 556.224 0.853942 0.411688 0
M  V30 6015 H 555.93 2.86603 2.03843 0
M  V30 6016 H 555.804 1.71692 3.3586 0
M  V30 6017 H 558.191 0.887765 2.8143 0
M  V30 6018 H 558.272 2.0711 1.5013 0
M  V30 6019 H 557.916 3.94537 3.19849 0
M  V30 6020 H 557.846 2.73255 4.50155 0
M  V30 6021 H 560.337 2.29472 3.00252 0
M  V30 6022 H 560.65 5.17408 5.74028 0
M  V30 6023 H 558.995 4.64803 5.16704 0
M  V30 6024 H 562.186 2.90892 3.66742 0
M  V30 6025 H 562.359 4.22176 4.91601 0
M  V30 6026 N 555.766 -1.3263 0.851289 0
M  V30 6027 C 556.676 -2.32722 0.296268 0
M  V30 6028 C 557.692 -1.63901 -0.584162 0
M  V30 6029 O 558.868 -1.95465 -0.485334 0
M  V30 6030 C 555.933 -3.42942 -0.509103 0
M  V30 6031 C 554.994 -4.2746 0.397069 0
M  V30 6032 C 554.227 -5.32416 -0.36996 0
M  V30 6033 O 554.45 -5.47491 -1.6003 0
M  V30 6034 O 553.384 -6.01327 0.262493 0
M  V30 6035 H 557.21 -2.82078 1.12543 0
M  V30 6036 H 554.795 -1.36194 0.614135 0
M  V30 6037 H 556.677 -4.1017 -0.96634 0
M  V30 6038 H 555.352 -2.95781 -1.31512 0
M  V30 6039 H 554.259 -3.63053 0.902411 0
M  V30 6040 H 555.592 -4.78136 1.16818 0
M  V30 6041 N 557.244 -0.608902 -1.45362 0
M  V30 6042 C 558.521 -0.0365378 -1.95566 0
M  V30 6043 C 558.901 1.43169 -1.55131 0
M  V30 6044 O 558.249 2.1349 -0.814513 0
M  V30 6045 C 558.459 -0.236026 -3.48201 0
M  V30 6046 C 559.807 -0.117518 -4.24437 0
M  V30 6047 O 560.831 -0.166217 -3.55812 0
M  V30 6048 O 559.69 -0.00372127 -5.465 0
M  V30 6049 H 556.784 0.0349874 -0.82626 0
M  V30 6050 H 559.33 -0.679055 -1.55521 0
M  V30 6051 H 558.102 -1.25569 -3.70605 0
M  V30 6052 H 557.725 0.441691 -3.95139 0
M  V30 6053 N 558.722 1.53707 -0.348139 0
M  V30 6054 C 559.971 2.0017 0.247992 0
M  V30 6055 C 560.284 1.23983 1.51286 0
M  V30 6056 O 561.49 1.60946 2.18652 0
M  V30 6057 C 559.946 3.56515 0.492459 0
M  V30 6058 C 559.554 4.41562 -0.756777 0
M  V30 6059 C 561.298 4.11381 1.0472 0
M  V30 6060 C 559.205 5.89426 -0.482856 0
M  V30 6061 H 558.135 0.747806 0.0964452 0
M  V30 6062 H 560.786 1.77532 -0.464179 0
M  V30 6063 H 559.168 3.75236 1.26545 0
M  V30 6064 H 560.342 4.34615 -1.53122 0
M  V30 6065 H 558.657 3.97711 -1.23348 0
M  V30 6066 H 561.254 5.19468 1.26717 0
M  V30 6067 H 561.597 3.64885 2.00411 0
M  V30 6068 H 562.13 3.96389 0.334801 0
M  V30 6069 H 558.869 6.40164 -1.40962 0
M  V30 6070 H 558.389 5.99264 0.253416 0
M  V30 6071 H 560.068 6.4692 -0.101816 0
M  V30 6072 N 560.2 0.0768682 1.57412 0
M  V30 6073 C 561.147 -0.888577 2.13009 0
M  V30 6074 C 562.117 -1.29198 1.0439 0
M  V30 6075 O 563.302 -1.37694 1.3208 0
M  V30 6076 C 560.442 -2.14899 2.70023 0
M  V30 6077 C 559.555 -1.79777 3.92816 0
M  V30 6078 C 558.69 -3.00467 4.38056 0
M  V30 6079 C 557.729 -2.61385 5.53484 0
M  V30 6080 N 556.866 -3.74851 5.93659 0
M  V30 6081 H 561.706 -0.407593 2.95199 0
M  V30 6082 H 559.243 -0.189534 1.45874 0
M  V30 6083 H 561.201 -2.88688 3.0119 0
M  V30 6084 H 559.831 -2.60529 1.9059 0
M  V30 6085 H 558.883 -0.960301 3.68079 0
M  V30 6086 H 560.195 -1.47027 4.76639 0
M  V30 6087 H 559.349 -3.82529 4.7091 0
M  V30 6088 H 558.088 -3.36413 3.53097 0
M  V30 6089 H 557.093 -1.77746 5.20275 0
M  V30 6090 H 558.318 -2.26603 6.40178 0
M  V30 6091 H 556.264 -4.1055 5.11649 0
M  V30 6092 H 556.181 -3.45887 6.72234 0
M  V30 6093 H 557.449 -4.57477 6.31138 0
M  V30 6094 N 561.678 -1.56367 -0.196722 0
M  V30 6095 C 562.955 -1.71359 -0.943159 0
M  V30 6096 C 563.335 -0.631192 -2.01443 0
M  V30 6097 O 562.683 0.358071 -2.25677 0
M  V30 6098 C 562.893 -3.13623 -1.53106 0
M  V30 6099 C 564.241 -3.73806 -2.01381 0
M  V30 6100 O 565.265 -3.16742 -1.62951 0
M  V30 6101 O 564.124 -4.73951 -2.7209 0
M  V30 6102 H 561.218 -0.698851 -0.442195 0
M  V30 6103 H 563.764 -1.68672 -0.186547 0
M  V30 6104 H 562.536 -3.83873 -0.758785 0
M  V30 6105 H 562.159 -3.20532 -2.35255 0
M  V30 6106 N 563.156 0.464375 -1.50603 0
M  V30 6107 C 564.386 1.23727 -1.65454 0
M  V30 6108 C 564.794 1.86119 -0.340032 0
M  V30 6109 O 564.137 1.70301 0.688706 0
M  V30 6110 C 564.199 2.38153 -2.69301 0
M  V30 6111 C 563.863 1.96345 -4.12671 0
M  V30 6112 C 564.86 1.48215 -4.98326 0
M  V30 6113 C 562.545 2.04861 -4.58625 0
M  V30 6114 C 564.539 1.09152 -6.27985 0
M  V30 6115 C 562.226 1.65409 -5.88288 0
M  V30 6116 C 563.224 1.17634 -6.72794 0
M  V30 6117 O 562.912 0.787312 -8.00035 0
M  V30 6118 H 562.644 0.380075 -0.559034 0
M  V30 6119 H 565.198 0.559919 -1.97621 0
M  V30 6120 H 563.428 3.09081 -2.32392 0
M  V30 6121 H 565.117 3.00099 -2.73304 0
M  V30 6122 H 565.883 1.41052 -4.64036 0
M  V30 6123 H 561.762 2.40996 -3.92991 0
M  V30 6124 H 565.306 0.717909 -6.93896 0
M  V30 6125 H 561.203 1.72233 -6.22098 0
M  V30 6126 H 561.971 0.915567 -8.13363 0
M  V30 6127 N 564.634 1.40294 0.718013 0
M  V30 6128 C 565.864 1.41544 1.50495 0
M  V30 6129 C 566.272 0.0127877 1.89196 0
M  V30 6130 O 565.615 -0.97305 1.55812 0
M  V30 6131 C 565.677 2.24021 2.81167 0
M  V30 6132 C 565.341 3.72463 2.64803 0
M  V30 6133 C 566.338 4.65154 2.32223 0
M  V30 6134 C 564.023 4.1625 2.81143 0
M  V30 6135 C 566.017 5.99618 2.16189 0
M  V30 6136 C 563.704 5.50784 2.64727 0
M  V30 6137 C 564.702 6.42283 2.32297 0
M  V30 6138 O 564.39 7.74337 2.16004 0
M  V30 6139 H 564.122 0.484819 0.471091 0
M  V30 6140 H 566.676 1.84948 0.893488 0
M  V30 6141 H 564.906 1.75393 3.44636 0
M  V30 6142 H 566.595 2.17243 3.42871 0
M  V30 6143 H 567.361 4.32622 2.19234 0
M  V30 6144 H 563.24 3.45352 3.05373 0
M  V30 6145 H 566.784 6.71 1.90799 0
M  V30 6146 H 562.681 5.82902 2.773 0
M  V30 6147 H 563.449 7.85244 2.30942 0
M  V30 6148 N 566.112 -0.949982 1.2575 0
M  V30 6149 C 567.34 -1.72972 1.13527 0
M  V30 6150 C 567.755 -1.8623 -0.310453 0
M  V30 6151 O 567.112 -1.36336 -1.2132 0
M  V30 6152 C 567.163 -3.14108 1.78936 0
M  V30 6153 O 566.884 -3.01493 3.17858 0
M  V30 6154 C 568.385 -4.08338 1.72554 0
M  V30 6155 H 565.605 -0.541864 0.395758 0
M  V30 6156 H 568.149 -1.19151 1.66202 0
M  V30 6157 H 566.304 -3.64858 1.30221 0
M  V30 6158 H 566.718 -3.90559 3.50092 0
M  V30 6159 H 568.192 -5.04963 2.22973 0
M  V30 6160 H 568.669 -4.33742 0.690251 0
M  V30 6161 H 569.275 -3.63506 2.2078 0
M  V30 6162 N 567.59 -1.07411 -1.15328 0
M  V30 6163 C 568.867 -0.710732 -1.82231 0
M  V30 6164 C 569.247 0.806732 -1.95077 0
M  V30 6165 O 568.595 1.72139 -1.50268 0
M  V30 6166 C 568.805 -1.42586 -3.18544 0
M  V30 6167 C 570.153 -1.57836 -3.94174 0
M  V30 6168 O 571.177 -1.38669 -3.281 0
M  V30 6169 O 570.036 -1.8938 -5.12638 0
M  V30 6170 H 567.13 -0.25297 -0.78736 0
M  V30 6171 H 569.676 -1.17508 -1.22434 0
M  V30 6172 H 568.448 -2.46008 -3.04296 0
M  V30 6173 H 568.071 -0.952332 -3.86026 0
M  V30 6174 N 569.068 1.32177 -0.85831 0
M  V30 6175 C 569.998 2.31282 -0.321041 0
M  V30 6176 C 570.979 1.59841 0.581786 0
M  V30 6177 O 572.164 1.87619 0.501262 0
M  V30 6178 C 569.294 3.4385 0.48832 0
M  V30 6179 C 568.248 4.26799 -0.320391 0
M  V30 6180 C 567.574 5.31164 0.613934 0
M  V30 6181 C 568.874 4.98829 -1.54813 0
M  V30 6182 H 570.568 2.76469 -1.14915 0
M  V30 6183 H 568.114 1.32916 -0.554028 0
M  V30 6184 H 570.067 4.12224 0.874626 0
M  V30 6185 H 568.791 2.97401 1.34983 0
M  V30 6186 H 567.45 3.60077 -0.688497 0
M  V30 6187 H 567.098 4.80967 1.47239 0
M  V30 6188 H 566.798 5.8755 0.0768097 0
M  V30 6189 H 568.322 6.024 0.997336 0
M  V30 6190 H 569.736 5.59864 -1.23392 0
M  V30 6191 H 568.133 5.64957 -2.02346 0
M  V30 6192 H 569.203 4.26483 -2.30739 0
M  V30 6193 N 570.547 0.616602 1.45037 0
M  V30 6194 C 571.772 0.120192 2.07051 0
M  V30 6195 C 572.197 -1.19008 1.45666 0
M  V30 6196 O 571.555 -1.7267 0.552692 0
M  V30 6197 C 571.603 0.00354901 3.606 0
M  V30 6198 O 570.707 -1.04431 3.98958 0
M  V30 6199 H 570.048 0.0781599 0.659384 0
M  V30 6200 H 572.578 0.849167 1.86146 0
M  V30 6201 H 572.588 -0.191754 4.07549 0
M  V30 6202 H 571.263 0.960239 4.04663 0
M  V30 6203 H 569.84 -0.824749 3.63665 0
M  V30 6204 N 572.025 -1.5352 0.356285 0
M  V30 6205 C 573.274 -2.00298 -0.237373 0
M  V30 6206 C 573.587 -1.24784 -1.50627 0
M  V30 6207 O 574.793 -1.62103 -2.17795 0
M  V30 6208 C 573.249 -3.56771 -0.473545 0
M  V30 6209 C 572.857 -4.41154 0.780183 0
M  V30 6210 C 574.601 -4.1193 -1.02537 0
M  V30 6211 C 572.508 -5.89161 0.514108 0
M  V30 6212 H 571.438 -0.748307 -0.092478 0
M  V30 6213 H 574.089 -1.77283 0.473588 0
M  V30 6214 H 572.471 -3.75902 -1.24553 0
M  V30 6215 H 573.645 -4.33797 1.55425 0
M  V30 6216 H 571.96 -3.97052 1.25455 0
M  V30 6217 H 574.557 -5.20133 -1.2396 0
M  V30 6218 H 574.9 -3.65943 -1.98473 0
M  V30 6219 H 575.433 -3.96561 -0.313775 0
M  V30 6220 H 572.172 -6.39408 1.44355 0
M  V30 6221 H 571.692 -5.9939 -0.221632 0
M  V30 6222 H 573.371 -6.46857 0.136122 0
M  V30 6223 N 573.503 -0.0852151 -1.57369 0
M  V30 6224 C 574.433 0.874556 -2.16503 0
M  V30 6225 C 575.414 1.30111 -1.09568 0
M  V30 6226 O 576.599 1.36977 -1.37662 0
M  V30 6227 C 573.729 2.13731 -2.73745 0
M  V30 6228 C 572.683 1.84971 -3.85966 0
M  V30 6229 C 572.009 3.17991 -4.29867 0
M  V30 6230 C 573.309 1.14442 -5.09608 0
M  V30 6231 H 575.003 0.381899 -2.96954 0
M  V30 6232 H 572.549 0.18225 -1.42842 0
M  V30 6233 H 574.502 2.81302 -3.13763 0
M  V30 6234 H 573.226 2.65263 -1.90534 0
M  V30 6235 H 571.885 1.19801 -3.46473 0
M  V30 6236 H 571.533 3.6739 -3.4356 0
M  V30 6237 H 571.233 2.99534 -5.05523 0
M  V30 6238 H 572.757 3.86737 -4.72511 0
M  V30 6239 H 574.171 1.72105 -5.46857 0
M  V30 6240 H 572.568 1.06197 -5.90629 0
M  V30 6241 H 573.638 0.12559 -4.84737 0
M  V30 6242 N 574.981 1.5647 0.188427 0
M  V30 6243 C 575.913 1.91611 1.25769 0
M  V30 6244 C 576.926 0.807436 1.41366 0
M  V30 6245 O 578.115 1.08586 1.41673 0
M  V30 6246 C 575.215 2.13874 2.6289 0
M  V30 6247 C 574.388 3.45047 2.68815 0
M  V30 6248 C 573.447 3.56342 3.87178 0
M  V30 6249 O 572.473 4.29109 3.73971 0
M  V30 6250 N 573.675 2.89924 5.02916 0
M  V30 6251 H 576.44 2.8393 0.959373 0
M  V30 6252 H 574.001 1.57418 0.378306 0
M  V30 6253 H 575.993 2.18713 3.4051 0
M  V30 6254 H 574.563 1.28022 2.85183 0
M  V30 6255 H 573.783 3.52017 1.77419 0
M  V30 6256 H 575.071 4.31395 2.6977 0
M  V30 6257 H 574.469 2.30644 5.16546 0
M  V30 6258 H 573.026 3.0038 5.78459 0
M  V30 6259 N 576.459 -0.456382 1.50847 0
M  V30 6260 C 577.406 -1.55249 1.70782 0
M  V30 6261 C 578.376 -1.56757 0.549231 0
M  V30 6262 O 579.561 -1.74061 0.7815 0
M  V30 6263 C 576.701 -2.93118 1.82143 0
M  V30 6264 C 575.814 -3.01285 3.09598 0
M  V30 6265 C 574.949 -4.30159 3.11667 0
M  V30 6266 C 573.988 -4.32124 4.33515 0
M  V30 6267 N 573.125 -5.52492 4.3324 0
M  V30 6268 H 577.965 -1.37555 2.64353 0
M  V30 6269 H 575.502 -0.668543 1.3103 0
M  V30 6270 H 577.46 -3.73088 1.86711 0
M  V30 6271 H 576.09 -3.09413 0.919978 0
M  V30 6272 H 575.142 -2.14096 3.14431 0
M  V30 6273 H 576.454 -2.98597 3.99551 0
M  V30 6274 H 575.608 -5.18489 3.15046 0
M  V30 6275 H 574.347 -4.35477 2.1957 0
M  V30 6276 H 573.352 -3.42189 4.30333 0
M  V30 6277 H 574.577 -4.28485 5.26856 0
M  V30 6278 H 572.523 -5.58567 3.44004 0
M  V30 6279 H 572.44 -5.51605 5.16979 0
M  V30 6280 H 573.708 -6.42906 4.40786 0
M  V30 6281 N 577.937 -1.40673 -0.710563 0
M  V30 6282 C 579.214 -1.29718 -1.46398 0
M  V30 6283 C 579.594 0.082177 -2.1094 0
M  V30 6284 O 578.942 1.09536 -2.00534 0
M  V30 6285 C 579.152 -2.43967 -2.49562 0
M  V30 6286 C 580.5 -2.84436 -3.15248 0
M  V30 6287 O 581.524 -2.43597 -2.59883 0
M  V30 6288 O 580.383 -3.55008 -4.1549 0
M  V30 6289 H 577.477 -0.509697 -0.651258 0
M  V30 6290 H 580.023 -1.52603 -0.742312 0
M  V30 6291 H 578.795 -3.36076 -2.0042 0
M  V30 6292 H 578.418 -2.22879 -3.29258 0
M  V30 6293 N 579.415 0.9433 -1.26252 0
M  V30 6294 C 580.661 1.69175 -1.11837 0
M  V30 6295 C 580.994 1.91238 0.337891 0
M  V30 6296 O 580.269 1.49152 1.24836 0
M  V30 6297 C 580.552 3.06783 -1.88563 0
M  V30 6298 C 580.405 2.9206 -3.42083 0
M  V30 6299 C 581.724 4.06865 -1.67776 0
M  V30 6300 H 578.843 0.61399 -0.407658 0
M  V30 6301 H 581.485 1.09572 -1.55222 0
M  V30 6302 H 579.635 3.57663 -1.51689 0
M  V30 6303 H 581.307 2.48419 -3.88698 0
M  V30 6304 H 579.55 2.27731 -3.69217 0
M  V30 6305 H 580.221 3.89651 -3.90994 0
M  V30 6306 H 582.697 3.64939 -1.99897 0
M  V30 6307 H 581.573 5.01168 -2.23879 0
M  V30 6308 H 581.834 4.37705 -0.621816 0
M  V30 6309 N 580.893 1.08022 1.14757 0
M  V30 6310 C 581.84 0.706657 2.19716 0
M  V30 6311 C 582.81 -0.30525 1.63271 0
M  V30 6312 O 583.995 -0.19015 1.8985 0
M  V30 6313 C 581.135 0.117914 3.44898 0
M  V30 6314 C 580.248 1.18212 4.15512 0
M  V30 6315 C 579.383 0.557659 5.28265 0
M  V30 6316 C 578.422 1.60418 5.90705 0
M  V30 6317 N 577.559 1.0018 6.94916 0
M  V30 6318 H 582.399 1.60603 2.51019 0
M  V30 6319 H 579.936 0.802664 1.23271 0
M  V30 6320 H 581.894 -0.241112 4.16503 0
M  V30 6321 H 580.524 -0.744788 3.1409 0
M  V30 6322 H 579.576 1.65863 3.42335 0
M  V30 6323 H 580.888 1.97533 4.5802 0
M  V30 6324 H 580.042 0.146654 6.06523 0
M  V30 6325 H 578.781 -0.267249 4.86967 0
M  V30 6326 H 577.786 2.02489 5.11154 0
M  V30 6327 H 579.011 2.43149 6.34078 0
M  V30 6328 H 576.957 0.197917 6.55701 0
M  V30 6329 H 576.874 1.73216 7.35889 0
M  V30 6330 H 578.142 0.616523 7.77058 0
M  V30 6331 N 582.371 -1.3172 0.865308 0
M  V30 6332 C 583.617 -1.97168 0.474633 0
M  V30 6333 C 583.95 -1.68263 -0.969604 0
M  V30 6334 O 583.225 -0.976588 -1.68205 0
M  V30 6335 C 583.508 -3.52689 0.726808 0
M  V30 6336 C 583.361 -3.91185 2.22024 0
M  V30 6337 C 584.68 -4.39689 0.190201 0
M  V30 6338 H 581.799 -0.716185 0.17392 0
M  V30 6339 H 584.441 -1.55925 1.08569 0
M  V30 6340 H 582.591 -3.8795 0.206705 0
M  V30 6341 H 584.263 -3.66049 2.80724 0
M  V30 6342 H 582.506 -3.3996 2.69462 0
M  V30 6343 H 583.177 -4.99604 2.34735 0
M  V30 6344 H 585.653 -4.11225 0.635103 0
M  V30 6345 H 584.529 -5.47469 0.396132 0
M  V30 6346 H 584.79 -4.32683 -0.907625 0
M  V30 6347 N 583.85 -0.624285 -1.44708 0
M  V30 6348 C 585.26 -0.2092 -1.85524 0
M  V30 6349 C 585.611 1.23783 -1.52225 0
M  V30 6350 O 584.736 1.94089 -0.956986 0
M  V30 6351 C 585.332 -0.372897 -3.36742 0
M  V30 6352 C 583.891 -0.012374 -3.76398 0
M  V30 6353 C 583.038 -0.68951 -2.68591 0
M  V30 6354 H 585.989 -0.829894 -1.35272 0
M  V30 6355 H 586.01 0.390134 -3.78495 0
M  V30 6356 H 585.522 -1.42615 -3.60947 0
M  V30 6357 H 583.623 1.03941 -3.57809 0
M  V30 6358 H 583.736 -0.417663 -4.77276 0
M  V30 6359 H 582.1 -0.125484 -2.54391 0
M  V30 6360 H 582.883 -1.74522 -2.9563 0
M  V30 6361 N 585.328 1.53329 -0.364422 0
M  V30 6362 C 586.556 2.05657 0.226424 0
M  V30 6363 C 586.971 1.23801 1.42544 0
M  V30 6364 O 586.328 0.27839 1.80364 0
M  V30 6365 C 586.379 3.56125 0.621056 0
M  V30 6366 O 586.1 4.34879 -0.530304 0
M  V30 6367 C 587.601 4.24706 1.27041 0
M  V30 6368 H 584.821 0.669806 0.0400056 0
M  V30 6369 H 587.365 1.97714 -0.522456 0
M  V30 6370 H 585.52 3.64223 1.31985 0
M  V30 6371 H 585.934 5.24073 -0.211546 0
M  V30 6372 H 587.408 5.3131 1.49711 0
M  V30 6373 H 587.885 3.78354 2.23036 0
M  V30 6374 H 588.491 4.20858 0.613079 0
M  V30 6375 N 586.806 0.0935595 1.57322 0
M  V30 6376 C 587.753 -0.865935 2.1394 0
M  V30 6377 C 588.723 -1.28083 1.05754 0
M  V30 6378 O 589.908 -1.36285 1.33533 0
M  V30 6379 C 587.048 -2.12023 2.72287 0
M  V30 6380 C 586.161 -1.756 3.94701 0
M  V30 6381 C 585.296 -2.95804 4.41218 0
M  V30 6382 C 584.335 -2.555 5.56225 0
M  V30 6383 N 583.472 -3.68534 5.97601 0
M  V30 6384 H 588.312 -0.376261 2.95615 0
M  V30 6385 H 585.849 -0.174052 1.46067 0
M  V30 6386 H 587.807 -2.85477 3.04235 0
M  V30 6387 H 586.437 -2.58492 1.93343 0
M  V30 6388 H 585.489 -0.921208 3.69077 0
M  V30 6389 H 586.801 -1.41964 4.78171 0
M  V30 6390 H 585.955 -3.77513 4.74941 0
M  V30 6391 H 584.694 -3.32649 3.56645 0
M  V30 6392 H 583.699 -1.72218 5.22131 0
M  V30 6393 H 584.924 -2.19801 6.42545 0
M  V30 6394 H 582.87 -4.051 5.15974 0
M  V30 6395 H 582.787 -3.38737 6.75865 0
M  V30 6396 H 584.055 -4.50757 6.35955 0
M  V30 6397 N 588.284 -1.56567 -0.180126 0
M  V30 6398 C 589.53 -1.81761 -0.899497 0
M  V30 6399 C 589.863 -0.670015 -1.82276 0
M  V30 6400 O 589.138 0.328575 -1.91705 0
M  V30 6401 C 589.421 -3.17296 -1.7028 0
M  V30 6402 C 589.274 -4.4257 -0.803255 0
M  V30 6403 C 590.593 -3.49678 -2.67233 0
M  V30 6404 H 587.712 -0.661192 -0.325567 0
M  V30 6405 H 590.354 -1.89272 -0.16612 0
M  V30 6406 H 588.504 -3.11023 -2.32802 0
M  V30 6407 H 590.176 -4.60902 -0.191585 0
M  V30 6408 H 588.419 -4.33658 -0.110796 0
M  V30 6409 H 589.09 -5.33935 -1.40064 0
M  V30 6410 H 591.566 -3.56347 -2.14839 0
M  V30 6411 H 590.442 -4.45605 -3.20511 0
M  V30 6412 H 590.703 -2.73932 -3.47007 0
M  V30 6413 N 589.762 0.448376 -1.51087 0
M  V30 6414 C 590.692 1.55102 -1.74544 0
M  V30 6415 C 591.673 1.59357 -0.594932 0
M  V30 6416 O 592.858 1.75261 -0.836491 0
M  V30 6417 C 589.988 2.93268 -1.86041 0
M  V30 6418 C 588.942 3.03877 -3.01402 0
M  V30 6419 C 588.268 4.43914 -2.98068 0
M  V30 6420 C 589.568 2.7898 -4.41551 0
M  V30 6421 H 591.262 1.35724 -2.66869 0
M  V30 6422 H 588.808 0.651498 -1.28419 0
M  V30 6423 H 590.761 3.70356 -2.01034 0
M  V30 6424 H 589.485 3.13853 -0.903548 0
M  V30 6425 H 588.144 2.29227 -2.86096 0
M  V30 6426 H 587.792 4.6145 -2.00182 0
M  V30 6427 H 587.492 4.51944 -3.75527 0
M  V30 6428 H 589.016 5.22991 -3.1514 0
M  V30 6429 H 590.43 3.45805 -4.57265 0
M  V30 6430 H 588.827 2.98431 -5.20633 0
M  V30 6431 H 589.897 1.74663 -4.5235 0
M  V30 6432 N 591.24 1.41047 0.703093 0
M  V30 6433 C 592.48 1.41461 1.4754 0
M  V30 6434 C 592.844 0.0199013 1.9199 0
M  V30 6435 O 594.045 -0.101138 2.6861 0
M  V30 6436 C 592.316 2.38703 2.66 0
M  V30 6437 S 593.875 2.57582 3.55242 0
M  V30 6438 H 590.693 0.501226 0.504275 0
M  V30 6439 H 593.295 1.77422 0.821074 0
M  V30 6440 H 591.999 3.3885 2.31536 0
M  V30 6441 H 591.53 2.04069 3.36333 0
M  V30 6442 H 593.545 1.83758 4.6092 0
M  V30 6443 N 592.718 -0.936591 1.26751 0
M  V30 6444 C 593.967 -1.67778 1.11953 0
M  V30 6445 C 594.28 -1.92694 -0.33589 0
M  V30 6446 O 595.486 -2.64682 -0.604618 0
M  V30 6447 C 593.942 -3.02138 1.95551 0
M  V30 6448 C 593.55 -2.84953 3.45696 0
M  V30 6449 C 595.294 -3.79917 1.89377 0
M  V30 6450 C 593.201 -4.14814 4.21525 0
M  V30 6451 H 592.131 -0.629275 0.415366 0
M  V30 6452 H 594.782 -1.04122 1.51099 0
M  V30 6453 H 593.164 -3.668 1.49243 0
M  V30 6454 H 594.338 -2.29112 3.99805 0
M  V30 6455 H 592.653 -2.20612 3.53156 0
M  V30 6456 H 595.25 -4.76134 2.43312 0
M  V30 6457 H 595.593 -4.07204 0.865464 0
M  V30 6458 H 596.126 -3.22037 2.33532 0
M  V30 6459 H 592.865 -3.92709 5.24843 0
M  V30 6460 H 592.385 -4.70352 3.72195 0
M  V30 6461 H 594.064 -4.83239 4.3022 0
M  V30 6462 N 594.196 -1.08629 -1.14182 0
M  V30 6463 C 595.126 -0.740003 -2.21464 0
M  V30 6464 C 596.107 0.278591 -1.67803 0
M  V30 6465 O 597.292 0.148461 -1.93632 0
M  V30 6466 C 594.422 -0.150952 -3.46972 0
M  V30 6467 C 593.376 -1.09815 -4.13672 0
M  V30 6468 C 592.702 -0.3712 -5.3341 0
M  V30 6469 C 594.002 -2.43722 -4.61949 0
M  V30 6470 H 595.696 -1.63697 -2.50686 0
M  V30 6471 H 593.242 -0.788526 -1.20492 0
M  V30 6472 H 595.195 0.103325 -4.21273 0
M  V30 6473 H 593.919 0.781164 -3.1712 0
M  V30 6474 H 592.578 -1.33756 -3.41328 0
M  V30 6475 H 592.226 0.564792 -4.99819 0
M  V30 6476 H 591.926 -1.00267 -5.78982 0
M  V30 6477 H 593.45 -0.12503 -6.10472 0
M  V30 6478 H 594.864 -2.24034 -5.27714 0
M  V30 6479 H 593.261 -3.02582 -5.18232 0
M  V30 6480 H 594.331 -3.05082 -3.76899 0
M  V30 6481 N 595.674 1.31259 -0.872281 0
M  V30 6482 C 596.92 1.973 -0.494414 0
M  V30 6483 C 597.275 1.67684 0.94339 0
M  V30 6484 O 596.568 0.964186 1.65572 0
M  V30 6485 C 596.762 3.50659 -0.690889 0
M  V30 6486 C 596.591 3.95179 -2.14624 0
M  V30 6487 C 595.361 4.21405 -2.7883 0
M  V30 6488 C 597.559 4.08948 -3.11875 0
M  V30 6489 N 595.541 4.52295 -4.15093 0
M  V30 6490 C 596.912 4.43576 -4.33174 0
M  V30 6491 C 598.967 3.91334 -3.07835 0
M  V30 6492 C 597.67 4.62429 -5.50956 0
M  V30 6493 C 599.696 4.11381 -4.24876 0
M  V30 6494 C 599.058 4.46343 -5.44938 0
M  V30 6495 H 595.157 0.747411 -0.230002 0
M  V30 6496 H 597.741 1.58741 -1.12736 0
M  V30 6497 H 595.912 3.88301 -0.0875162 0
M  V30 6498 H 597.644 4.03722 -0.281179 0
M  V30 6499 H 594.399 4.14131 -2.29767 0
M  V30 6500 H 594.823 4.71897 -4.8543 0
M  V30 6501 H 599.465 3.6339 -2.16119 0
M  V30 6502 H 597.183 4.8922 -6.43187 0
M  V30 6503 H 600.769 3.99235 -4.23205 0
M  V30 6504 H 599.649 4.6154 -6.33996 0
M  V30 6505 N 597.152 0.631951 1.44375 0
M  V30 6506 C 598.429 0.067646 1.95483 0
M  V30 6507 C 598.809 -1.40683 1.57389 0
M  V30 6508 O 598.157 -2.12167 0.848375 0
M  V30 6509 C 598.367 0.291392 3.47781 0
M  V30 6510 C 599.715 0.185028 4.24197 0
M  V30 6511 O 600.739 0.222803 3.55503 0
M  V30 6512 O 599.598 0.0906642 5.46425 0
M  V30 6513 H 596.692 -0.0218379 0.826712 0
M  V30 6514 H 599.238 0.703711 1.54421 0
M  V30 6515 H 598.01 1.31449 3.68561 0
M  V30 6516 H 597.633 -0.378772 3.95792 0
M  V30 6517 N 598.631 -1.53133 0.372548 0
M  V30 6518 C 599.564 -2.22328 -0.514361 0
M  V30 6519 C 600.542 -1.21776 -1.07747 0
M  V30 6520 O 601.726 -1.50704 -1.13228 0
M  V30 6521 C 598.853 -2.92343 -1.71035 0
M  V30 6522 C 597.899 -4.07026 -1.27405 0
M  V30 6523 S 598.732 -5.34821 -0.269526 0
M  V30 6524 C 599.888 -6.08352 -1.47168 0
M  V30 6525 H 600.121 -2.9721 0.0732683 0
M  V30 6526 H 597.654 -1.53603 0.156673 0
M  V30 6527 H 599.612 -3.33296 -2.39634 0
M  V30 6528 H 598.273 -2.17173 -2.26925 0
M  V30 6529 H 597.466 -4.55056 -2.16656 0
M  V30 6530 H 597.068 -3.68001 -0.66719 0
M  V30 6531 H 599.36 -6.33507 -2.40157 0
M  V30 6532 H 600.303 -7.0053 -1.03263 0
M  V30 6533 H 600.711 -5.38893 -1.6809 0
M  V30 6534 N 600.109 -0.101901 -1.5727 0
M  V30 6535 C 601.019 0.868647 -2.17926 0
M  V30 6536 C 602.035 1.30527 -1.1506 0
M  V30 6537 O 603.211 1.37178 -1.47459 0
M  V30 6538 C 600.276 2.10727 -2.75309 0
M  V30 6539 C 599.337 1.7242 -3.93154 0
M  V30 6540 C 598.57 2.90377 -4.47791 0
M  V30 6541 O 598.793 4.05305 -4.01353 0
M  V30 6542 O 597.727 2.6845 -5.38719 0
M  V30 6543 H 601.553 0.382544 -3.01281 0
M  V30 6544 H 599.138 0.122812 -1.48894 0
M  V30 6545 H 601.02 2.83303 -3.11958 0
M  V30 6546 H 599.695 2.58376 -1.94996 0
M  V30 6547 H 598.602 0.970039 -3.61305 0
M  V30 6548 H 599.935 1.29528 -4.74851 0
M  V30 6549 N 601.587 1.56661 0.17182 0
M  V30 6550 C 602.815 1.861 0.904115 0
M  V30 6551 C 603.23 0.687227 1.75848 0
M  V30 6552 O 602.587 -0.343671 1.79235 0
M  V30 6553 C 602.638 3.14568 1.78127 0
M  V30 6554 O 602.359 4.27422 0.961366 0
M  V30 6555 C 603.86 3.5735 2.62327 0
M  V30 6556 H 601.08 0.617445 0.262684 0
M  V30 6557 H 603.624 2.03775 0.172068 0
M  V30 6558 H 601.779 2.98721 2.46666 0
M  V30 6559 H 602.193 5.00725 1.56123 0
M  V30 6560 H 603.667 4.50144 3.1949 0
M  V30 6561 H 604.144 2.81445 3.37173 0
M  V30 6562 H 604.75 3.75807 1.99121 0
M  V30 6563 N 603.065 -0.440357 1.51323 0
M  V30 6564 C 603.975 -1.55955 1.75258 0
M  V30 6565 C 604.991 -1.61933 0.636687 0
M  V30 6566 O 606.167 -1.79231 0.918593 0
M  V30 6567 C 603.232 -2.9196 1.86977 0
M  V30 6568 C 602.293 -2.96122 3.10822 0
M  V30 6569 C 601.526 -4.2564 3.21973 0
M  V30 6570 O 601.749 -5.17851 2.39137 0
M  V30 6571 O 600.683 -4.36025 4.14929 0
M  V30 6572 H 604.509 -1.38673 2.70191 0
M  V30 6573 H 602.094 -0.623055 1.35788 0
M  V30 6574 H 603.976 -3.72682 1.96688 0
M  V30 6575 H 602.651 -3.09375 0.952307 0
M  V30 6576 H 601.558 -2.14366 3.06591 0
M  V30 6577 H 602.891 -2.83651 4.02247 0
M  V30 6578 N 604.543 -1.41418 -0.695603 0
M  V30 6579 C 605.453 -1.45622 -1.83933 0
M  V30 6580 C 606.469 -0.346825 -1.70508 0
M  V30 6581 O 607.645 -0.59454 -1.92424 0
M  V30 6582 C 604.71 -1.33627 -3.19914 0
M  V30 6583 C 603.771 -2.54882 -3.45447 0
M  V30 6584 C 603.004 -2.43449 -4.7494 0
M  V30 6585 O 603.227 -1.45905 -5.51424 0
M  V30 6586 O 602.161 -3.33206 -5.01256 0
M  V30 6587 H 605.987 -2.42114 -1.83342 0
M  V30 6588 H 603.572 -1.22956 -0.848658 0
M  V30 6589 H 605.454 -1.29221 -4.01098 0
M  V30 6590 H 604.129 -0.402508 -3.21188 0
M  V30 6591 H 603.036 -2.64865 -2.64192 0
M  V30 6592 H 604.369 -3.47087 -3.48987 0
M  V30 6593 N 606.021 0.929856 -1.27246 0
M  V30 6594 C 607.267 1.6798 -1.13625 0
M  V30 6595 C 607.6 1.91586 0.317589 0
M  V30 6596 O 606.875 1.50467 1.23247 0
M  V30 6597 C 607.158 3.04766 -1.91806 0
M  V30 6598 C 607.011 2.88415 -3.45162 0
M  V30 6599 C 608.33 4.05063 -1.72082 0
M  V30 6600 H 605.449 0.609632 -0.414147 0
M  V30 6601 H 608.091 1.0792 -1.56376 0
M  V30 6602 H 606.241 3.56034 -1.55474 0
M  V30 6603 H 607.913 2.44282 -3.91311 0
M  V30 6604 H 606.156 2.23802 -3.71611 0
M  V30 6605 H 606.827 3.85482 -3.95105 0
M  V30 6606 H 609.303 3.62798 -2.03757 0
M  V30 6607 H 608.179 4.98765 -2.29182 0
M  V30 6608 H 608.44 4.37021 -0.668206 0
M  V30 6609 N 607.499 1.09233 1.13605 0
M  V30 6610 C 608.409 0.741939 2.22559 0
M  V30 6611 C 609.425 -0.255236 1.72118 0
M  V30 6612 O 610.601 -0.0970747 2.01166 0
M  V30 6613 C 607.666 0.165595 3.46304 0
M  V30 6614 C 606.727 1.21846 4.11645 0
M  V30 6615 C 605.96 0.669526 5.29484 0
M  V30 6616 O 606.183 -0.508228 5.68131 0
M  V30 6617 O 605.117 1.42361 5.84822 0
M  V30 6618 H 608.943 1.65107 2.54899 0
M  V30 6619 H 606.528 0.866584 1.21699 0
M  V30 6620 H 608.41 -0.152592 4.21124 0
M  V30 6621 H 607.085 -0.716573 3.15669 0
M  V30 6622 H 605.992 1.58931 3.38662 0
M  V30 6623 H 607.325 2.07321 4.46407 0
M  V30 6624 N 608.977 -1.30795 0.87923 0
M  V30 6625 C 610.254 -1.91145 0.415086 0
M  V30 6626 C 610.634 -1.7995 -1.10368 0
M  V30 6627 O 609.982 -1.21305 -1.93642 0
M  V30 6628 C 610.192 -3.37014 0.906778 0
M  V30 6629 C 611.54 -4.14101 0.938358 0
M  V30 6630 O 612.564 -3.45834 0.853053 0
M  V30 6631 O 611.423 -5.36054 1.06342 0
M  V30 6632 H 608.517 -0.81736 0.125905 0
M  V30 6633 H 611.063 -1.39401 0.967753 0
M  V30 6634 H 609.835 -3.3922 1.95053 0
M  V30 6635 H 609.458 -3.96204 0.332948 0
M  V30 6636 N 610.455 -0.639598 -1.44038 0
M  V30 6637 C 611.704 -0.144885 -2.01179 0
M  V30 6638 C 612.017 1.24372 -1.50967 0
M  V30 6639 O 613.223 1.83291 -2.00292 0
M  V30 6640 C 611.679 -0.208244 -3.59297 0
M  V30 6641 C 611.287 -1.59869 -4.18504 0
M  V30 6642 C 613.031 0.229568 -4.23879 0
M  V30 6643 C 610.938 -1.61671 -5.68873 0
M  V30 6644 H 609.868 -0.0504005 -0.752314 0
M  V30 6645 H 612.519 -0.799639 -1.65161 0
M  V30 6646 H 610.901 0.513767 -3.92653 0
M  V30 6647 H 612.075 -2.34496 -3.96671 0
M  V30 6648 H 610.39 -1.98131 -3.66242 0
M  V30 6649 H 612.987 0.235758 -5.3418 0
M  V30 6650 H 613.33 1.25848 -3.96822 0
M  V30 6651 H 613.863 -0.440233 -3.95357 0
M  V30 6652 H 610.602 -2.62427 -6.00677 0
M  V30 6653 H 610.122 -0.913489 -5.92803 0
M  V30 6654 H 611.801 -1.35439 -6.32665 0
M  V30 6655 N 611.933 1.52934 -0.380664 0
M  V30 6656 C 612.863 2.29118 0.450268 0
M  V30 6657 C 613.844 1.32153 1.07096 0
M  V30 6658 O 615.029 1.61038 1.08537 0
M  V30 6659 C 612.159 3.09161 1.58231 0
M  V30 6660 C 611.113 4.13938 1.0881 0
M  V30 6661 C 610.439 4.82153 2.31155 0
M  V30 6662 C 611.739 5.22048 0.162146 0
M  V30 6663 H 613.433 2.98826 -0.185361 0
M  V30 6664 H 610.979 1.43715 -0.0905886 0
M  V30 6665 H 612.932 3.61211 2.17036 0
M  V30 6666 H 611.656 2.3717 2.2454 0
M  V30 6667 H 610.315 3.62855 0.522633 0
M  V30 6668 H 609.963 4.06719 2.95953 0
M  V30 6669 H 609.663 5.52966 1.98752 0
M  V30 6670 H 611.187 5.37004 2.90618 0
M  V30 6671 H 612.601 5.6951 0.658126 0
M  V30 6672 H 610.998 6.00057 -0.0717122 0
M  V30 6673 H 612.068 4.78398 -0.791438 0
M  V30 6674 N 613.412 0.11024 1.57214 0
M  V30 6675 C 614.344 -0.873497 2.11902 0
M  V30 6676 C 615.357 -1.23588 1.05971 0
M  V30 6677 O 616.546 -1.18636 1.33371 0
M  V30 6678 C 613.646 -2.17805 2.59643 0
M  V30 6679 C 612.819 -1.98869 3.89576 0
M  V30 6680 C 611.878 -3.12974 4.23006 0
M  V30 6681 O 610.904 -2.86272 4.91973 0
M  V30 6682 N 612.106 -4.39167 3.79622 0
M  V30 6683 H 614.871 -0.406317 2.96933 0
M  V30 6684 H 612.432 -0.074437 1.61729 0
M  V30 6685 H 614.424 -2.93117 2.79042 0
M  V30 6686 H 612.994 -2.55899 1.7954 0
M  V30 6687 H 612.214 -1.078 3.79174 0
M  V30 6688 H 613.502 -1.83512 4.74553 0
M  V30 6689 H 612.9 -4.63739 3.2398 0
M  V30 6690 H 611.457 -5.11379 4.04147 0
M  V30 6691 N 614.89 -1.56749 -0.16351 0
M  V30 6692 C 615.8 -2.00255 -1.2221 0
M  V30 6693 C 616.816 -0.915194 -1.47987 0
M  V30 6694 O 617.992 -1.22342 -1.59982 0
M  V30 6695 C 615.057 -2.36035 -2.53946 0
M  V30 6696 C 614.118 -3.58637 -2.35962 0
M  V30 6697 C 613.351 -3.92701 -3.61416 0
M  V30 6698 O 613.574 -3.27632 -4.66919 0
M  V30 6699 O 612.508 -4.86019 -3.55062 0
M  V30 6700 H 616.334 -2.90586 -0.882794 0
M  V30 6701 H 613.919 -1.44721 -0.370978 0
M  V30 6702 H 615.801 -2.59982 -3.31643 0
M  V30 6703 H 614.476 -1.48863 -2.8744 0
M  V30 6704 H 613.383 -3.39898 -1.5627 0
M  V30 6705 H 614.716 -4.46374 -2.0739 0
M  V30 6706 N 616.368 0.432326 -1.51554 0
M  V30 6707 C 617.615 1.18134 -1.64471 0
M  V30 6708 C 617.943 1.91076 -0.363349 0
M  V30 6709 O 617.198 1.84492 0.65279 0
M  V30 6710 C 617.497 2.21907 -2.80164 0
M  V30 6711 C 617.163 1.65941 -4.19255 0
M  V30 6712 C 615.825 1.50401 -4.57092 0
M  V30 6713 C 618.177 1.24843 -5.06027 0
M  V30 6714 C 615.505 0.922443 -5.79403 0
M  V30 6715 C 617.857 0.68113 -6.28922 0
M  V30 6716 C 616.521 0.512673 -6.65528 0
M  V30 6717 H 615.791 0.432283 -0.601841 0
M  V30 6718 H 618.438 0.471701 -1.856 0
M  V30 6719 H 616.743 2.98928 -2.53277 0
M  V30 6720 H 618.44 2.79691 -2.87357 0
M  V30 6721 H 615.03 1.79014 -3.89425 0
M  V30 6722 H 619.214 1.35667 -4.77397 0
M  V30 6723 H 614.47 0.779733 -6.06408 0
M  V30 6724 H 618.644 0.35418 -6.95499 0
M  V30 6725 H 616.271 0.0599084 -7.60176 0
M  V30 6726 N 617.846 1.41785 0.688094 0
M  V30 6727 C 619.092 1.41753 1.4503 0
M  V30 6728 C 619.425 0.0290745 1.94178 0
M  V30 6729 O 618.7 -0.944456 1.7003 0
M  V30 6730 C 618.983 2.43069 2.65686 0
M  V30 6731 C 618.836 3.91053 2.22256 0
M  V30 6732 C 620.155 2.41543 3.67893 0
M  V30 6733 H 617.274 0.516202 0.526027 0
M  V30 6734 H 619.916 1.73111 0.783105 0
M  V30 6735 H 618.066 2.1646 3.2261 0
M  V30 6736 H 619.738 4.28594 1.70602 0
M  V30 6737 H 617.981 4.05559 1.53963 0
M  V30 6738 H 618.652 4.57501 3.08863 0
M  V30 6739 H 621.128 2.65175 3.20658 0
M  V30 6740 H 620.004 3.14434 4.49914 0
M  V30 6741 H 620.265 1.43666 4.18106 0
M  V30 6742 N 619.324 -0.923095 1.27737 0
M  V30 6743 C 620.272 -2.04567 1.10703 0
M  V30 6744 C 621.266 -1.69375 0.0288445 0
M  V30 6745 O 622.472 -1.79027 0.186913 0
M  V30 6746 H 618.847 -0.670109 0.34126 0
M  V30 6747 H 620.818 -2.1608 2.05796 0
M  V30 6748 C 619.567 -3.38934 0.775837 0
M  V30 6749 H 618.89 -3.66501 1.59741 0
M  V30 6750 H 620.33 -4.18239 0.696548 0
M  V30 6751 C 618.789 -3.32863 -0.520012 0
M  V30 6752 O 619.319 -3.70462 -1.55308 0
M  V30 6753 N 617.525 -2.85958 -0.51732 0
M  V30 6754 H 617.072 -2.55557 0.32379 0
M  V30 6755 H 617.03 -2.82279 -1.38441 0
M  V30 6756 N 620.802 -1.09834 -1.13024 0
M  V30 6757 C 621.749 -0.741522 -2.18564 0
M  V30 6758 C 622.719 0.279236 -1.63736 0
M  V30 6759 O 623.904 0.159923 -1.90129 0
M  V30 6760 C 621.044 -0.17277 -3.44667 0
M  V30 6761 C 620.157 -1.24808 -4.13578 0
M  V30 6762 C 619.292 -0.641631 -5.27311 0
M  V30 6763 C 618.331 -1.69795 -5.88078 0
M  V30 6764 N 617.468 -1.11223 -6.93234 0
M  V30 6765 H 622.308 -1.64576 -2.48432 0
M  V30 6766 H 619.845 -0.822174 -1.21978 0
M  V30 6767 H 621.803 0.17482 -4.16834 0
M  V30 6768 H 620.433 0.694725 -3.15235 0
M  V30 6769 H 619.485 -1.71288 -3.39653 0
M  V30 6770 H 620.797 -2.04795 -4.54819 0
M  V30 6771 H 619.951 -0.243128 -6.06213 0
M  V30 6772 H 618.69 0.189742 -4.87331 0
M  V30 6773 H 617.695 -2.10595 -5.07868 0
M  V30 6774 H 618.92 -2.53206 -6.3013 0
M  V30 6775 H 616.866 -0.302208 -6.55304 0
M  V30 6776 H 616.783 -1.84901 -7.3304 0
M  V30 6777 H 618.051 -0.740068 -7.75979 0
M  V30 6778 N 622.28 1.30327 -0.886154 0
M  V30 6779 C 623.505 2.0079 -0.519425 0
M  V30 6780 C 623.93 1.65979 0.885013 0
M  V30 6781 O 623.288 0.877043 1.58675 0
M  V30 6782 C 623.336 3.53686 -0.702758 0
M  V30 6783 O 622.44 4.11637 0.250828 0
M  V30 6784 H 621.781 0.63171 -0.204544 0
M  V30 6785 H 624.311 1.66145 -1.19402 0
M  V30 6786 H 624.321 4.03531 -0.602207 0
M  V30 6787 H 622.996 3.78361 -1.72673 0
M  V30 6788 H 621.573 3.72755 0.103873 0
M  V30 6789 N 623.758 0.647228 1.43697 0
M  V30 6790 C 624.688 -0.0345631 2.33474 0
M  V30 6791 C 625.669 -0.818193 1.4913 0
M  V30 6792 O 626.854 -0.780867 1.77809 0
M  V30 6793 C 623.984 -1.00576 3.32418 0
M  V30 6794 C 622.938 -0.33266 4.26705 0
M  V30 6795 C 622.264 -1.41489 5.1564 0
M  V30 6796 C 623.564 0.771204 5.16575 0
M  V30 6797 H 625.258 0.715163 2.90733 0
M  V30 6798 H 622.804 0.345364 1.39797 0
M  V30 6799 H 624.757 -1.49159 3.94119 0
M  V30 6800 H 623.481 -1.78657 2.73403 0
M  V30 6801 H 622.14 0.13267 3.6636 0
M  V30 6802 H 621.788 -2.18698 4.52968 0
M  V30 6803 H 621.488 -0.969799 5.79542 0
M  V30 6804 H 623.012 -1.9022 5.80214 0
M  V30 6805 H 624.426 0.36779 5.72119 0
M  V30 6806 H 622.823 1.1404 5.89165 0
M  V30 6807 H 623.893 1.63169 4.56622 0
M  V30 6808 N 625.236 -1.5273 0.388769 0
M  V30 6809 C 626.166 -2.29353 -0.438111 0
M  V30 6810 C 627.147 -1.32719 -1.06394 0
M  V30 6811 O 628.332 -1.61612 -1.07681 0
M  V30 6812 C 625.462 -3.09995 -1.56589 0
M  V30 6813 C 624.416 -4.14509 -1.06613 0
M  V30 6814 C 623.742 -4.83372 -2.28594 0
M  V30 6815 C 625.042 -5.22127 -0.134459 0
M  V30 6816 H 626.736 -2.98723 0.201206 0
M  V30 6817 H 624.282 -1.43665 0.0982089 0
M  V30 6818 H 626.235 -3.62357 -2.15118 0
M  V30 6819 H 624.959 -2.38357 -2.23279 0
M  V30 6820 H 623.618 -3.63128 -0.503383 0
M  V30 6821 H 623.266 -4.08283 -2.93792 0
M  V30 6822 H 622.966 -5.54012 -1.95817 0
M  V30 6823 H 624.49 -5.38538 -2.87766 0
M  V30 6824 H 625.904 -5.69851 -0.627914 0
M  V30 6825 H 624.301 -6.00011 0.103534 0
M  V30 6826 H 625.371 -4.77971 0.816798 0
M  V30 6827 N 626.714 -0.118576 -1.57153 0
M  V30 6828 C 627.961 0.539526 -1.9518 0
M  V30 6829 C 628.289 1.66714 -1.00184 0
M  V30 6830 O 627.544 1.95683 -0.0256482 0
M  V30 6831 C 627.843 1.11303 -3.39627 0
M  V30 6832 C 627.509 0.106809 -4.50773 0
M  V30 6833 C 626.171 -0.169876 -4.809 0
M  V30 6834 C 628.523 -0.57895 -5.17975 0
M  V30 6835 C 625.851 -1.13861 -5.75545 0
M  V30 6836 C 628.203 -1.53631 -6.13661 0
M  V30 6837 C 626.867 -1.82099 -6.42181 0
M  V30 6838 H 626.137 0.197427 -0.714215 0
M  V30 6839 H 628.784 -0.199391 -1.90459 0
M  V30 6840 H 627.089 1.92869 -3.4104 0
M  V30 6841 H 628.786 1.63032 -3.66363 0
M  V30 6842 H 625.376 0.332645 -4.27307 0
M  V30 6843 H 629.56 -0.378359 -4.94856 0
M  V30 6844 H 624.816 -1.36592 -5.95947 0
M  V30 6845 H 628.99 -2.07337 -6.64819 0
M  V30 6846 H 626.617 -2.57319 -7.15326 0
M  V30 6847 N 628.193 1.56834 0.155195 0
M  V30 6848 C 629.433 1.84701 0.875488 0
M  V30 6849 C 629.797 0.701747 1.78716 0
M  V30 6850 O 630.998 0.861263 2.54629 0
M  V30 6851 C 629.269 3.1773 1.63654 0
M  V30 6852 S 630.828 3.67128 2.40338 0
M  V30 6853 H 627.646 0.647856 0.292923 0
M  V30 6854 H 630.248 1.95026 0.136024 0
M  V30 6855 H 628.952 3.99059 0.958117 0
M  V30 6856 H 628.483 3.10388 2.41708 0
M  V30 6857 H 630.498 3.35739 3.65368 0
M  V30 6858 N 629.671 -0.424282 1.51781 0
M  V30 6859 C 630.948 -1.18464 1.55646 0
M  V30 6860 C 631.328 -2.08529 0.328438 0
M  V30 6861 O 630.676 -2.17969 -0.685693 0
M  V30 6862 C 630.886 -1.97514 2.87731 0
M  V30 6863 C 632.234 -2.54106 3.40169 0
M  V30 6864 O 633.258 -2.07711 2.89369 0
M  V30 6865 O 632.117 -3.38759 4.28841 0
M  V30 6866 H 629.211 -0.540055 0.626314 0
M  V30 6867 H 631.757 -0.432291 1.64102 0
M  V30 6868 H 630.529 -1.31444 3.68562 0
M  V30 6869 H 630.152 -2.79787 2.82498 0
M  V30 6870 N 631.149 -1.42148 -0.680565 0
M  V30 6871 C 632.565 -1.24947 -0.992995 0
M  V30 6872 C 632.765 -0.149527 -2.00944 0
M  V30 6873 O 631.821 0.481145 -2.47873 0
M  V30 6874 C 633.134 -2.60426 -1.5033 0
M  V30 6875 C 634.682 -2.67733 -1.62137 0
M  V30 6876 C 635.157 -4.03564 -2.16565 0
M  V30 6877 N 636.648 -4.05488 -2.23905 0
M  V30 6878 C 637.383 -5.07401 -2.67081 0
M  V30 6879 N 636.879 -6.19698 -3.09751 0
M  V30 6880 N 638.672 -4.94758 -2.66778 0
M  V30 6881 H 630.823 -2.12399 -0.0074788 0
M  V30 6882 H 633.086 -0.94571 -0.0658529 0
M  V30 6883 H 632.792 -3.41743 -0.830947 0
M  V30 6884 H 632.666 -2.83949 -2.483 0
M  V30 6885 H 635.053 -1.86765 -2.2848 0
M  V30 6886 H 635.134 -2.48004 -0.626713 0
M  V30 6887 H 634.778 -4.84987 -1.50833 0
M  V30 6888 H 634.708 -4.20641 -3.1681 0
M  V30 6889 H 637.199 -3.24415 -1.93812 0
M  V30 6890 H 637.512 -6.93318 -3.41365 0
M  V30 6891 H 635.857 -6.23212 -3.07623 0
M  V30 6892 H 639.048 -4.06105 -2.32801 0
M  V30 6893 H 639.221 -5.74317 -3.00107 0
M  V30 6894 N 632.627 0.916307 -1.28225 0
M  V30 6895 C 633.575 2.03977 -1.11786 0
M  V30 6896 C 634.569 1.69358 -0.0378265 0
M  V30 6897 O 635.775 1.78925 -0.196405 0
M  V30 6898 H 632.15 0.66829 -0.344809 0
M  V30 6899 H 634.121 2.14985 -2.06939 0
M  V30 6900 C 632.87 3.38518 -0.7938 0
M  V30 6901 H 632.193 3.65649 -1.61682 0
M  V30 6902 H 633.633 4.17864 -0.718719 0
M  V30 6903 C 632.092 3.33134 0.502353 0
M  V30 6904 O 632.622 3.71281 1.53341 0
M  V30 6905 N 630.828 2.86229 0.502147 0
M  V30 6906 H 630.375 2.55382 -0.337338 0
M  V30 6907 H 630.333 2.83009 1.36942 0
M  V30 6908 N 634.105 1.10431 1.1244 0
M  V30 6909 C 635.353 0.845045 1.83585 0
M  V30 6910 C 635.674 -0.631168 1.84503 0
M  V30 6911 O 634.944 -1.45825 1.30813 0
M  V30 6912 H 633.524 0.309628 0.679809 0
M  V30 6913 H 636.186 1.39458 1.36153 0
M  V30 6914 H 635.282 1.20786 2.8778 0
M  V30 6915 N 635.583 -1.29855 0.893053 0
M  V30 6916 C 636.53 -2.27909 0.364161 0
M  V30 6917 C 637.5 -1.56726 -0.550093 0
M  V30 6918 O 638.685 -1.84747 -0.47677 0
M  V30 6919 C 635.825 -3.42678 -0.408178 0
M  V30 6920 C 634.938 -4.28659 0.536212 0
M  V30 6921 C 634.073 -5.30599 -0.252521 0
M  V30 6922 C 633.112 -6.08234 0.686822 0
M  V30 6923 N 632.249 -7.02068 -0.0670902 0
M  V30 6924 H 637.089 -2.72531 1.20544 0
M  V30 6925 H 634.626 -1.34047 0.605779 0
M  V30 6926 H 636.584 -4.07986 -0.871962 0
M  V30 6927 H 635.214 -2.99103 -1.21397 0
M  V30 6928 H 634.266 -3.63584 1.1185 0
M  V30 6929 H 635.578 -4.8274 1.25552 0
M  V30 6930 H 634.732 -6.01694 -0.777801 0
M  V30 6931 H 633.471 -4.77233 -1.005 0
M  V30 6932 H 632.476 -5.3601 1.22366 0
M  V30 6933 H 633.701 -6.63689 1.43852 0
M  V30 6934 H 631.647 -6.5108 -0.801955 0
M  V30 6935 H 631.564 -7.53675 0.59243 0
M  V30 6936 H 632.832 -7.77392 -0.572851 0
M  V30 6937 N 637.061 -0.65484 -1.43351 0
M  V30 6938 C 638.286 -0.175046 -2.0666 0
M  V30 6939 C 638.711 1.15104 -1.4877 0
M  V30 6940 O 638.069 1.71144 -0.598279 0
M  V30 6941 C 638.117 -0.0991544 -3.60464 0
M  V30 6942 O 637.221 0.938169 -4.01587 0
M  V30 6943 H 636.562 -0.0956148 -0.65708 0
M  V30 6944 H 639.092 -0.898222 -1.83829 0
M  V30 6945 H 639.102 0.083632 -4.07914 0
M  V30 6946 H 637.777 -1.06719 -4.01975 0
M  V30 6947 H 636.354 0.72804 -3.65724 0
M  V30 6948 N 638.539 1.52521 -0.396863 0
M  V30 6949 C 639.786 2.01672 0.182898 0
M  V30 6950 C 640.114 1.28302 1.46181 0
M  V30 6951 O 639.369 0.374118 1.92091 0
M  V30 6952 C 639.668 3.5403 0.489677 0
M  V30 6953 C 639.334 4.45456 -0.698581 0
M  V30 6954 C 637.996 4.70166 -1.02454 0
M  V30 6955 C 640.348 4.99354 -1.49316 0
M  V30 6956 C 637.676 5.46024 -2.1465 0
M  V30 6957 C 640.028 5.76439 -2.60579 0
M  V30 6958 C 638.692 5.99426 -2.93675 0
M  V30 6959 H 637.962 0.737971 0.066927 0
M  V30 6960 H 640.609 1.83853 -0.535764 0
M  V30 6961 H 638.914 3.69963 1.28976 0
M  V30 6962 H 640.611 3.8956 0.951018 0
M  V30 6963 H 637.201 4.26392 -0.434525 0
M  V30 6964 H 641.385 4.80182 -1.25457 0
M  V30 6965 H 636.641 5.62046 -2.40654 0
M  V30 6966 H 640.815 6.17202 -3.22544 0
M  V30 6967 H 638.442 6.57988 -3.80731 0
M  V30 6968 N 640.017 0.126909 1.57088 0
M  V30 6969 C 641.433 -0.229641 1.57939 0
M  V30 6970 C 641.633 -1.66145 1.1401 0
M  V30 6971 O 640.689 -2.3843 0.831119 0
M  V30 6972 C 642.002 0.0108648 3.00698 0
M  V30 6973 C 643.55 -0.054418 3.12953 0
M  V30 6974 C 644.025 0.158497 4.57726 0
M  V30 6975 N 645.516 0.104735 4.63082 0
M  V30 6976 C 646.251 0.24427 5.72879 0
M  V30 6977 N 645.747 0.440415 6.91399 0
M  V30 6978 N 647.54 0.183286 5.61801 0
M  V30 6979 H 639.691 1.06203 1.83942 0
M  V30 6980 H 641.954 0.418834 0.85046 0
M  V30 6981 H 641.66 1.00102 3.37154 0
M  V30 6982 H 641.534 -0.717512 3.70313 0
M  V30 6983 H 643.921 -1.0351 2.7635 0
M  V30 6984 H 644.002 0.705967 2.45865 0
M  V30 6985 H 643.646 1.13619 4.95028 0
M  V30 6986 H 643.576 -0.62197 5.22914 0
M  V30 6987 H 646.067 -0.0430298 3.77876 0
M  V30 6988 H 646.38 0.537536 7.70928 0
M  V30 6989 H 644.725 0.476488 6.93365 0
M  V30 6990 H 647.916 0.0309561 4.6809 0
M  V30 6991 H 648.089 0.295471 6.47326 0
M  V30 6992 N 641.495 -1.56914 -0.146875 0
M  V30 6993 C 642.725 -1.87243 -0.873126 0
M  V30 6994 C 643.133 -0.713127 -1.75246 0
M  V30 6995 O 642.476 0.326228 -1.8078 0
M  V30 6996 C 642.538 -3.12279 -1.78107 0
M  V30 6997 C 642.202 -4.44082 -1.07889 0
M  V30 6998 C 643.199 -5.18096 -0.432734 0
M  V30 6999 C 640.884 -4.90807 -1.06836 0
M  V30 7000 C 642.878 -6.37039 0.214569 0
M  V30 7001 C 640.565 -6.09674 -0.417243 0
M  V30 7002 C 641.563 -6.82636 0.223093 0
M  V30 7003 O 641.251 -7.99245 0.863884 0
M  V30 7004 H 640.983 -0.624896 -0.257839 0
M  V30 7005 H 643.537 -2.04892 -0.14434 0
M  V30 7006 H 641.767 -2.90639 -2.5508 0
M  V30 7007 H 643.456 -3.28854 -2.37929 0
M  V30 7008 H 644.222 -4.83066 -0.432677 0
M  V30 7009 H 640.101 -4.3394 -1.55618 0
M  V30 7010 H 643.645 -6.93927 0.714965 0
M  V30 7011 H 639.542 -6.44165 -0.414967 0
M  V30 7012 H 640.31 -8.14912 0.765564 0
M  V30 7013 N 642.974 0.416227 -1.52004 0
M  V30 7014 C 644.204 1.18401 -1.69307 0
M  V30 7015 C 644.612 1.84943 -0.399072 0
M  V30 7016 O 643.955 1.72406 0.634177 0
M  V30 7017 C 644.017 2.29465 -2.76742 0
M  V30 7018 C 643.681 1.83117 -4.18709 0
M  V30 7019 C 644.678 1.32286 -5.02789 0
M  V30 7020 C 642.363 1.90167 -4.64911 0
M  V30 7021 C 644.357 0.891178 -6.31139 0
M  V30 7022 C 642.044 1.4661 -5.93253 0
M  V30 7023 C 643.042 0.961696 -6.76196 0
M  V30 7024 O 642.73 0.532388 -8.02135 0
M  V30 7025 H 642.462 0.362098 -0.570843 0
M  V30 7026 H 645.016 0.496764 -1.99302 0
M  V30 7027 H 643.246 3.01531 -2.42107 0
M  V30 7028 H 644.935 2.91252 -2.82713 0
M  V30 7029 H 645.701 1.26218 -4.68288 0
M  V30 7030 H 641.58 2.28371 -4.00459 0
M  V30 7031 H 645.124 0.496788 -6.95829 0
M  V30 7032 H 641.021 1.52355 -6.27263 0
M  V30 7033 H 641.789 0.656339 -8.15864 0
M  V30 7034 N 644.452 1.42507 0.673017 0
M  V30 7035 C 645.382 1.48916 1.79851 0
M  V30 7036 C 646.363 0.345566 1.66553 0
M  V30 7037 O 647.548 0.560116 1.85947 0
M  V30 7038 C 644.678 1.39258 3.18158 0
M  V30 7039 C 643.632 2.51662 3.46194 0
M  V30 7040 C 642.958 2.27062 4.84094 0
M  V30 7041 C 644.258 3.93968 3.42909 0
M  V30 7042 H 645.952 2.43114 1.74745 0
M  V30 7043 H 643.498 1.17013 0.839288 0
M  V30 7044 H 645.451 1.42349 3.96629 0
M  V30 7045 H 644.175 0.415542 3.23946 0
M  V30 7046 H 642.834 2.47891 2.70084 0
M  V30 7047 H 642.482 1.27648 4.86534 0
M  V30 7048 H 642.182 3.02398 5.03815 0
M  V30 7049 H 643.706 2.31905 5.64847 0
M  V30 7050 H 645.12 3.99332 4.11347 0
M  V30 7051 H 643.517 4.6917 3.74165 0
M  V30 7052 H 644.587 4.20512 2.41449 0
M  V30 7053 N 645.93 -0.909495 1.28709 0
M  V30 7054 C 646.88 -1.9991 1.09636 0
M  V30 7055 C 647.864 -1.60889 0.01872 0
M  V30 7056 O 649.056 -1.75374 0.239338 0
M  V30 7057 C 646.185 -3.34675 0.764702 0
M  V30 7058 C 645.271 -3.80085 1.8814 0
M  V30 7059 N 645.662 -3.97824 3.12361 0
M  V30 7060 C 643.96 -4.09278 1.77221 0
M  V30 7061 C 644.661 -4.35928 3.85151 0
M  V30 7062 N 643.637 -4.44426 3.13028 0
M  V30 7063 H 647.439 -2.11681 2.03883 0
M  V30 7064 H 644.953 -1.09763 1.1969 0
M  V30 7065 H 646.95 -4.12426 0.609132 0
M  V30 7066 H 645.61 -3.24255 -0.169952 0
M  V30 7067 H 646.621 -3.83626 3.47925 0
M  V30 7068 H 643.298 -4.0747 0.909621 0
M  V30 7069 H 644.688 -4.57581 4.92006 0
M  V30 7070 N 647.408 -1.11026 -1.11852 0
M  V30 7071 C 648.685 -0.768347 -1.79877 0
M  V30 7072 C 649.065 0.744261 -1.97545 0
M  V30 7073 O 648.413 1.67271 -1.55669 0
M  V30 7074 C 648.623 -1.52648 -3.13846 0
M  V30 7075 C 649.971 -1.70297 -3.88953 0
M  V30 7076 O 650.995 -1.49037 -3.23522 0
M  V30 7077 O 649.854 -2.05593 -5.06353 0
M  V30 7078 H 646.948 -0.277891 -0.778913 0
M  V30 7079 H 649.494 -1.21343 -1.18633 0
M  V30 7080 H 648.266 -2.55564 -2.96315 0
M  V30 7081 H 647.889 -1.07466 -3.82801 0
M  V30 7082 N 648.886 1.2938 -0.899927 0
M  V30 7083 C 649.816 2.30144 -0.39446 0
M  V30 7084 C 650.797 1.61611 0.530639 0
M  V30 7085 O 651.982 1.89119 0.441319 0
M  V30 7086 C 649.112 3.45229 0.37868 0
M  V30 7087 C 648.066 4.25564 -0.456012 0
M  V30 7088 C 647.392 5.32848 0.444637 0
M  V30 7089 C 648.692 4.93651 -1.70605 0
M  V30 7090 H 650.386 2.72673 -1.23653 0
M  V30 7091 H 647.932 1.31086 -0.596034 0
M  V30 7092 H 649.885 4.14797 0.743037 0
M  V30 7093 H 648.609 3.01545 1.25453 0
M  V30 7094 H 647.268 3.57704 -0.802704 0
M  V30 7095 H 646.916 4.85408 1.31863 0
M  V30 7096 H 646.616 5.87497 -0.110154 0
M  V30 7097 H 648.14 6.05268 0.805182 0
M  V30 7098 H 649.554 5.55655 -1.41141 0
M  V30 7099 H 647.951 5.58233 -2.20217 0
M  V30 7100 H 649.021 4.18926 -2.4419 0
M  V30 7101 N 650.364 0.662433 1.43002 0
M  V30 7102 C 651.296 -0.062326 2.29115 0
M  V30 7103 C 652.309 -0.777926 1.43011 0
M  V30 7104 O 653.498 -0.634146 1.66856 0
M  V30 7105 C 650.598 -1.11163 3.2015 0
M  V30 7106 C 649.771 -0.472327 4.34842 0
M  V30 7107 C 648.83 -1.41974 5.06685 0
M  V30 7108 O 647.856 -0.924795 5.61637 0
M  V30 7109 N 649.058 -2.75345 5.11043 0
M  V30 7110 H 651.823 0.676838 2.91957 0
M  V30 7111 H 649.384 0.505907 1.53793 0
M  V30 7112 H 651.376 -1.74643 3.65078 0
M  V30 7113 H 649.946 -1.75266 2.58845 0
M  V30 7114 H 649.166 0.341751 3.92716 0
M  V30 7115 H 650.454 -0.0264381 5.08793 0
M  V30 7116 H 649.852 -3.18108 4.67786 0
M  V30 7117 H 648.409 -3.34105 5.59658 0
M  V30 7118 N 651.842 -1.52309 0.404946 0
M  V30 7119 C 653.088 -2.02065 -0.172455 0
M  V30 7120 C 653.421 -1.29022 -1.45145 0
M  V30 7121 O 652.696 -0.395284 -1.90441 0
M  V30 7122 C 652.979 -3.5759 -0.424433 0
M  V30 7123 C 652.832 -4.41287 0.870945 0
M  V30 7124 C 654.151 -4.23186 -1.20837 0
M  V30 7125 H 651.27 -0.734454 -0.0612035 0
M  V30 7126 H 653.912 -1.82236 0.53759 0
M  V30 7127 H 652.062 -3.74617 -1.02929 0
M  V30 7128 H 653.734 -4.3598 1.50729 0
M  V30 7129 H 651.977 -4.07669 1.48284 0
M  V30 7130 H 652.648 -5.48171 0.649083 0
M  V30 7131 H 655.124 -4.10232 -0.696338 0
M  V30 7132 H 654 -5.31953 -1.35343 0
M  V30 7133 H 654.261 -3.81862 -2.22786 0
M  V30 7134 N 653.32 -0.135238 -1.57019 0
M  V30 7135 C 654.597 0.563227 -1.87316 0
M  V30 7136 C 654.977 1.83749 -1.03921 0
M  V30 7137 O 654.325 2.2817 -0.122675 0
M  V30 7138 C 654.535 0.840031 -3.3874 0
M  V30 7139 C 655.883 1.18598 -4.077 0
M  V30 7140 O 656.907 0.92977 -3.43851 0
M  V30 7141 O 655.766 1.66758 -5.20436 0
M  V30 7142 H 652.86 0.285971 -0.775983 0
M  V30 7143 H 655.406 -0.170965 -1.68837 0
M  V30 7144 H 654.178 -0.0622785 -3.9125 0
M  V30 7145 H 653.801 1.62882 -3.62706 0
M  V30 7146 N 654.798 1.5699 0.138552 0
M  V30 7147 C 656.045 1.83809 0.849732 0
M  V30 7148 C 656.373 0.717409 1.80786 0
M  V30 7149 O 655.628 -0.292897 1.93496 0
M  V30 7150 C 655.927 3.17007 1.65049 0
M  V30 7151 C 655.593 4.43037 0.838398 0
M  V30 7152 C 654.255 4.77262 0.614385 0
M  V30 7153 C 656.607 5.20495 0.271044 0
M  V30 7154 C 653.935 5.864 -0.187552 0
M  V30 7155 C 656.287 6.30476 -0.517979 0
M  V30 7156 C 654.951 6.63245 -0.75249 0
M  V30 7157 H 654.221 0.672605 0.310939 0
M  V30 7158 H 656.868 1.91166 0.112971 0
M  V30 7159 H 655.173 3.05138 2.4576 0
M  V30 7160 H 656.87 3.34975 2.20437 0
M  V30 7161 H 653.46 4.16211 1.02307 0
M  V30 7162 H 657.644 4.94422 0.431371 0
M  V30 7163 H 652.9 6.10226 -0.378659 0
M  V30 7164 H 657.074 6.89686 -0.964694 0
M  V30 7165 H 654.701 7.47648 -1.37573 0
M  V30 7166 N 656.276 -0.40816 1.52223 0
M  V30 7167 C 657.206 -1.5042 1.78595 0
M  V30 7168 C 658.187 -1.57723 0.636974 0
M  V30 7169 O 659.372 -1.72982 0.882664 0
M  V30 7170 C 656.502 -2.88232 1.93751 0
M  V30 7171 C 655.456 -2.95779 3.09352 0
M  V30 7172 C 654.782 -4.35855 3.09732 0
M  V30 7173 C 656.082 -2.67175 4.48793 0
M  V30 7174 H 657.776 -1.28601 2.70374 0
M  V30 7175 H 655.322 -0.617221 1.30101 0
M  V30 7176 H 657.275 -3.64895 2.10783 0
M  V30 7177 H 655.999 -3.11347 0.986443 0
M  V30 7178 H 654.658 -2.21561 2.92072 0
M  V30 7179 H 654.306 -4.55981 2.12346 0
M  V30 7180 H 654.006 -4.41829 3.87377 0
M  V30 7181 H 655.53 -5.14451 3.28895 0
M  V30 7182 H 656.944 -3.3356 4.66273 0
M  V30 7183 H 655.341 -2.84523 5.28362 0
M  V30 7184 H 656.411 -1.62609 4.56822 0
M  V30 7185 N 657.755 -1.42862 -0.66545 0
M  V30 7186 C 658.983 -1.47246 -1.45349 0
M  V30 7187 C 659.398 -0.0865944 -1.88601 0
M  V30 7188 O 658.755 0.900652 -1.58728 0
M  V30 7189 C 658.806 -2.40772 -2.6965 0
M  V30 7190 O 658.527 -3.73968 -2.2821 0
M  V30 7191 C 660.028 -2.54272 -3.63126 0
M  V30 7192 H 657.248 -0.500497 -0.446927 0
M  V30 7193 H 659.792 -1.87477 -0.816871 0
M  V30 7194 H 657.947 -2.0377 -3.29479 0
M  V30 7195 H 658.361 -4.24146 -3.08546 0
M  V30 7196 H 659.835 -3.23815 -4.47043 0
M  V30 7197 H 660.312 -1.58364 -4.09656 0
M  V30 7198 H 660.918 -2.92036 -3.09185 0
M  V30 7199 N 659.233 0.902656 -1.29189 0
M  V30 7200 C 660.143 2.03946 -1.15944 0
M  V30 7201 C 661.159 1.738 -0.0833803 0
M  V30 7202 O 662.335 1.9923 -0.29487 0
M  V30 7203 C 659.4 3.36519 -0.834006 0
M  V30 7204 C 658.461 3.80203 -1.9936 0
M  V30 7205 C 657.694 5.06449 -1.68359 0
M  V30 7206 O 657.917 5.67202 -0.603141 0
M  V30 7207 O 656.851 5.46114 -2.53067 0
M  V30 7208 H 660.677 2.18043 -2.11403 0
M  V30 7209 H 658.262 1.02584 -1.08613 0
M  V30 7210 H 660.144 4.16089 -0.666949 0
M  V30 7211 H 658.819 3.23573 0.0908245 0
M  V30 7212 H 657.726 3.01413 -2.21588 0
M  V30 7213 H 659.059 3.97729 -2.89952 0
M  V30 7214 N 660.711 1.11618 1.11262 0
M  V30 7215 C 661.658 0.7762 2.17356 0
M  V30 7216 C 662.628 -0.253152 1.6416 0
M  V30 7217 O 663.813 -0.129655 1.90359 0
M  V30 7218 C 660.953 0.227581 3.44349 0
M  V30 7219 C 660.066 1.31372 4.1154 0
M  V30 7220 C 659.201 0.72544 5.26223 0
M  V30 7221 C 658.24 1.7913 5.85302 0
M  V30 7222 N 657.377 1.22237 6.91377 0
M  V30 7223 H 662.217 1.68508 2.45783 0
M  V30 7224 H 659.754 0.841475 1.20655 0
M  V30 7225 H 661.712 -0.108483 4.17059 0
M  V30 7226 H 660.342 -0.644486 3.16301 0
M  V30 7227 H 659.394 1.7667 3.36885 0
M  V30 7228 H 660.706 2.12005 4.51504 0
M  V30 7229 H 659.86 0.339541 6.05749 0
M  V30 7230 H 658.599 -0.112188 4.87571 0
M  V30 7231 H 657.604 2.18648 5.04453 0
M  V30 7232 H 658.829 2.63199 6.26022 0
M  V30 7233 H 656.775 0.406423 6.5474 0
M  V30 7234 H 656.692 1.9654 7.30006 0
M  V30 7235 H 657.96 0.863426 7.74703 0
M  V30 7236 N 662.189 -1.289 0.906776 0
M  V30 7237 C 663.137 -2.29477 0.379873 0
M  V30 7238 C 664.131 -1.61068 -0.524747 0
M  V30 7239 O 665.337 -1.75344 -0.406765 0
M  V30 7240 H 661.712 -0.744742 0.10423 0
M  V30 7241 H 663.683 -2.71353 1.24137 0
M  V30 7242 C 662.432 -3.45713 -0.371154 0
M  V30 7243 H 661.755 -3.98551 0.315716 0
M  V30 7244 H 663.195 -4.18105 -0.704581 0
M  V30 7245 C 661.654 -2.9774 -1.57646 0
M  V30 7246 O 662.184 -2.99618 -2.67567 0
M  V30 7247 N 660.39 -2.53485 -1.42105 0
M  V30 7248 H 659.937 -2.52156 -0.526783 0
M  V30 7249 H 659.895 -2.21747 -2.22881 0
M  V30 7250 N 663.667 -0.670007 -1.42649 0
M  V30 7251 C 664.907 -0.194106 -2.03476 0
M  V30 7252 C 665.271 1.1755 -1.51809 0
M  V30 7253 O 666.472 1.74579 -2.04391 0
M  V30 7254 C 664.743 -0.221828 -3.56711 0
M  V30 7255 S 666.302 0.183772 -4.38415 0
M  V30 7256 H 663.12 -0.0802478 -0.706457 0
M  V30 7257 H 665.722 -0.882092 -1.74469 0
M  V30 7258 H 664.426 -1.22107 -3.91814 0
M  V30 7259 H 663.957 0.486149 -3.90385 0
M  V30 7260 H 665.972 1.41839 -4.75496 0
M  V30 7261 N 665.145 1.52092 -0.413018 0
M  V30 7262 C 666.37 2.06756 0.163338 0
M  V30 7263 C 666.795 1.28073 1.37764 0
M  V30 7264 O 666.153 0.312015 1.78595 0
M  V30 7265 C 666.201 3.57278 0.488322 0
M  V30 7266 O 665.305 3.80986 1.57871 0
M  V30 7267 H 664.646 0.663882 0.0125068 0
M  V30 7268 H 667.176 1.95988 -0.587339 0
M  V30 7269 H 667.186 4.01125 0.745836 0
M  V30 7270 H 665.861 4.13978 -0.399327 0
M  V30 7271 H 664.438 3.49017 1.31306 0
M  V30 7272 N 666.623 0.143563 1.56945 0
M  V30 7273 C 667.555 -0.828353 2.13708 0
M  V30 7274 C 668.568 -1.21313 1.08568 0
M  V30 7275 O 669.757 -1.1578 1.35857 0
M  V30 7276 C 666.857 -2.12248 2.64204 0
M  V30 7277 C 666.03 -1.90561 3.93707 0
M  V30 7278 C 665.089 -3.03931 4.29549 0
M  V30 7279 O 664.115 -2.75772 4.97934 0
M  V30 7280 N 665.317 -4.31016 3.88852 0
M  V30 7281 H 668.082 -0.343242 2.97728 0
M  V30 7282 H 665.643 -0.0401152 1.6185 0
M  V30 7283 H 667.635 -2.87132 2.85197 0
M  V30 7284 H 666.205 -2.52033 1.84928 0
M  V30 7285 H 665.425 -0.997327 3.81375 0
M  V30 7286 H 666.713 -1.73405 4.78339 0
M  V30 7287 H 666.111 -4.56762 3.33743 0
M  V30 7288 H 664.668 -5.02691 4.14903 0
M  V30 7289 N 668.101 -1.57061 -0.130224 0
M  V30 7290 C 669.031 -2.02552 -1.16168 0
M  V30 7291 C 670.012 -0.907971 -1.4384 0
M  V30 7292 O 671.197 -1.17693 -1.54473 0
M  V30 7293 C 668.327 -2.42035 -2.49071 0
M  V30 7294 C 667.281 -3.5713 -2.35886 0
M  V30 7295 C 666.607 -3.82478 -3.7365 0
M  V30 7296 C 667.907 -4.89236 -1.8288 0
M  V30 7297 H 669.601 -2.8897 -0.783359 0
M  V30 7298 H 667.147 -1.39021 -0.375376 0
M  V30 7299 H 669.1 -2.72462 -3.21469 0
M  V30 7300 H 667.824 -1.52573 -2.88771 0
M  V30 7301 H 666.483 -3.26895 -1.65938 0
M  V30 7302 H 666.131 -2.9024 -4.10816 0
M  V30 7303 H 665.831 -4.59944 -3.65685 0
M  V30 7304 H 667.355 -4.15347 -4.47571 0
M  V30 7305 H 668.769 -5.18272 -2.45085 0
M  V30 7306 H 667.166 -5.70624 -1.85763 0
M  V30 7307 H 668.236 -4.78494 -0.785571 0
M  V30 7308 N 669.579 0.400081 -1.52437 0
M  V30 7309 C 670.511 1.50729 -1.72666 0
M  V30 7310 C 671.524 1.51058 -0.607075 0
M  V30 7311 O 672.713 1.5516 -0.88248 0
M  V30 7312 C 669.813 2.89604 -1.76019 0
M  V30 7313 C 668.986 3.13365 -3.05157 0
M  V30 7314 C 668.045 4.32163 -3.00203 0
M  V30 7315 O 667.071 4.29004 -3.74092 0
M  V30 7316 N 668.273 5.3776 -2.18619 0
M  V30 7317 H 671.038 1.33767 -2.68191 0
M  V30 7318 H 668.599 0.58948 -1.50787 0
M  V30 7319 H 670.591 3.67159 -1.70225 0
M  V30 7320 H 669.161 2.99979 -0.879284 0
M  V30 7321 H 668.381 2.23774 -3.24529 0
M  V30 7322 H 669.669 3.26089 -3.90568 0
M  V30 7323 H 669.067 5.43177 -1.58035 0
M  V30 7324 H 667.624 6.14023 -2.18674 0
M  V30 7325 N 671.057 1.43213 0.657864 0
M  V30 7326 C 672.334 1.35063 1.41483 0
M  V30 7327 C 672.714 -0.0038314 2.111 0
M  V30 7328 O 672.062 -1.02018 2.04462 0
M  V30 7329 C 672.272 2.53061 2.40335 0
M  V30 7330 C 673.62 2.9594 3.04474 0
M  V30 7331 O 674.644 2.53074 2.50663 0
M  V30 7332 O 673.503 3.70184 4.02027 0
M  V30 7333 H 670.597 0.533517 0.631893 0
M  V30 7334 H 673.143 1.55253 0.685162 0
M  V30 7335 H 671.915 3.43283 1.87809 0
M  V30 7336 H 671.538 2.34945 3.20759 0
M  V30 7337 N 672.536 -0.895792 1.29666 0
M  V30 7338 C 673.466 -2.01673 1.17688 0
M  V30 7339 C 674.447 -1.69955 0.0701317 0
M  V30 7340 O 675.632 -1.9258 0.250289 0
M  V30 7341 C 672.762 -3.36568 0.856681 0
M  V30 7342 C 671.716 -3.82509 1.92017 0
M  V30 7343 C 671.042 -5.14574 1.4532 0
M  V30 7344 C 672.342 -4.02409 3.32963 0
M  V30 7345 H 674.036 -2.11953 2.11463 0
M  V30 7346 H 671.582 -1.01839 1.01807 0
M  V30 7347 H 673.535 -4.14498 0.759577 0
M  V30 7348 H 672.259 -3.26391 -0.116763 0
M  V30 7349 H 670.918 -3.068 2.00673 0
M  V30 7350 H 670.566 -5.00815 0.468325 0
M  V30 7351 H 670.266 -5.46283 2.16447 0
M  V30 7352 H 671.79 -5.9504 1.36968 0
M  V30 7353 H 673.204 -4.70808 3.27127 0
M  V30 7354 H 671.601 -4.45478 4.02082 0
M  V30 7355 H 672.671 -3.06616 3.75652 0
M  V30 7356 N 674.014 -1.12206 -1.10668 0
M  V30 7357 C 674.964 -0.75669 -2.15077 0
M  V30 7358 C 675.948 0.243154 -1.59052 0
M  V30 7359 O 677.14 0.0490268 -1.76932 0
M  V30 7360 C 674.269 -0.210303 -3.42655 0
M  V30 7361 C 673.355 -1.23829 -4.05619 0
M  V30 7362 N 673.746 -2.43513 -4.43323 0
M  V30 7363 C 672.044 -1.08309 -4.32649 0
M  V30 7364 C 672.745 -3.09138 -4.92756 0
M  V30 7365 N 671.721 -2.36593 -4.89413 0
M  V30 7366 H 675.523 -1.66747 -2.42018 0
M  V30 7367 H 673.037 -1.00248 -1.27765 0
M  V30 7368 H 675.034 0.0696287 -4.16842 0
M  V30 7369 H 673.694 0.694967 -3.17176 0
M  V30 7370 H 674.705 -2.80912 -4.35097 0
M  V30 7371 H 671.382 -0.234919 -4.16839 0
M  V30 7372 H 672.772 -4.11049 -5.31496 0
M  V30 7373 N 675.492 1.28418 -0.913599 0
M  V30 7374 C 676.439 2.27301 -0.400373 0
M  V30 7375 C 677.409 1.57582 0.52509 0
M  V30 7376 O 678.594 1.85482 0.447318 0
M  V30 7377 C 675.734 3.43284 0.35361 0
M  V30 7378 C 674.847 4.27752 -0.604341 0
M  V30 7379 C 673.982 5.30934 0.168075 0
M  V30 7380 C 673.021 6.07065 -0.783499 0
M  V30 7381 N 672.158 7.02086 -0.0446112 0
M  V30 7382 H 676.998 2.70579 -1.24865 0
M  V30 7383 H 674.535 1.33067 -0.627028 0
M  V30 7384 H 676.493 4.09322 0.806945 0
M  V30 7385 H 675.123 3.00997 1.16623 0
M  V30 7386 H 674.175 3.61759 -1.17621 0
M  V30 7387 H 675.487 4.80682 -1.33216 0
M  V30 7388 H 674.641 6.02855 0.681979 0
M  V30 7389 H 673.38 4.78771 0.928947 0
M  V30 7390 H 672.385 5.33995 -1.30878 0
M  V30 7391 H 673.61 6.61317 -1.54392 0
M  V30 7392 H 671.556 6.52273 0.698272 0
M  V30 7393 H 671.473 7.52637 -0.712258 0
M  V30 7394 H 672.741 7.78205 0.449102 0
M  V30 7395 N 676.97 0.677563 1.42291 0
M  V30 7396 C 677.917 0.000947061 2.308 0
M  V30 7397 C 678.887 -0.789889 1.46116 0
M  V30 7398 O 680.072 -0.761578 1.74942 0
M  V30 7399 C 677.212 -0.942387 3.31984 0
M  V30 7400 C 676.325 -0.14508 4.31756 0
M  V30 7401 C 675.46 -1.08442 5.20013 0
M  V30 7402 C 674.499 -0.278958 6.11464 0
M  V30 7403 N 673.636 -1.17115 6.92263 0
M  V30 7404 H 678.476 0.761521 2.88106 0
M  V30 7405 H 676.013 0.38727 1.41911 0
M  V30 7406 H 677.971 -1.50317 3.89179 0
M  V30 7407 H 676.601 -1.66956 2.76271 0
M  V30 7408 H 675.653 0.532368 3.76656 0
M  V30 7409 H 676.965 0.48015 4.96484 0
M  V30 7410 H 676.119 -1.71504 5.81955 0
M  V30 7411 H 674.858 -1.74353 4.55469 0
M  V30 7412 H 673.863 0.364856 5.48588 0
M  V30 7413 H 675.088 0.376099 6.78058 0
M  V30 7414 H 673.034 -1.81661 6.30345 0
M  V30 7415 H 672.951 -0.601063 7.53607 0
M  V30 7416 H 674.219 -1.78915 7.58689 0
M  V30 7417 N 678.448 -1.51871 0.421078 0
M  V30 7418 C 679.697 -2.01125 -0.152206 0
M  V30 7419 C 680.01 -1.3106 -1.45199 0
M  V30 7420 O 681.216 -1.71195 -2.10724 0
M  V30 7421 C 679.672 -3.58458 -0.3218 0
M  V30 7422 C 679.28 -4.37448 0.96659 0
M  V30 7423 C 681.024 -4.15908 -0.84973 0
M  V30 7424 C 678.931 -5.86451 0.763529 0
M  V30 7425 H 677.861 -0.751556 -0.0606565 0
M  V30 7426 H 680.512 -1.75115 0.548354 0
M  V30 7427 H 678.894 -3.80847 -1.08498 0
M  V30 7428 H 680.068 -4.26814 1.73684 0
M  V30 7429 H 678.383 -3.91373 1.42183 0
M  V30 7430 H 680.98 -5.24922 -1.01788 0
M  V30 7431 H 681.323 -3.74031 -1.82774 0
M  V30 7432 H 681.856 -3.97535 -0.145297 0
M  V30 7433 H 678.595 -6.3271 1.71344 0
M  V30 7434 H 678.115 -5.99791 0.0327889 0
M  V30 7435 H 679.794 -6.45697 0.410354 0
M  V30 7436 N 679.926 -0.151884 -1.56866 0
M  V30 7437 C 681.175 0.497992 -1.95456 0
M  V30 7438 C 681.488 1.6569 -1.03953 0
M  V30 7439 O 682.694 2.37173 -1.32142 0
M  V30 7440 C 681.15 0.93732 -3.4748 0
M  V30 7441 C 680.758 -0.194921 -4.47576 0
M  V30 7442 C 682.502 1.55671 -3.94926 0
M  V30 7443 C 680.409 0.26295 -5.90815 0
M  V30 7444 H 679.339 0.189811 -0.729717 0
M  V30 7445 H 681.99 -0.237011 -1.81963 0
M  V30 7446 H 680.372 1.72773 -3.56322 0
M  V30 7447 H 681.546 -0.971951 -4.50433 0
M  V30 7448 H 679.861 -0.72303 -4.10075 0
M  V30 7449 H 682.458 1.91099 -4.99385 0
M  V30 7450 H 682.801 2.44748 -3.36755 0
M  V30 7451 H 683.334 0.831109 -3.89021 0
M  V30 7452 H 680.073 -0.592568 -6.52816 0
M  V30 7453 H 679.593 1.00575 -5.91308 0
M  V30 7454 H 681.272 0.713333 -6.43056 0
M  V30 7455 N 681.404 1.57128 0.121893 0
M  V30 7456 C 682.632 1.88883 0.844451 0
M  V30 7457 C 683.047 0.742824 1.73573 0
M  V30 7458 O 682.404 -0.286475 1.80238 0
M  V30 7459 C 682.455 3.20076 1.68029 0
M  V30 7460 O 682.176 4.30264 0.824898 0
M  V30 7461 C 683.677 3.65515 2.50826 0
M  V30 7462 H 680.897 0.62549 0.242907 0
M  V30 7463 H 683.441 2.04219 0.107151 0
M  V30 7464 H 681.596 3.06418 2.37038 0
M  V30 7465 H 682.01 5.05439 1.40113 0
M  V30 7466 H 683.484 4.60081 3.05008 0
M  V30 7467 H 683.961 2.92029 3.28048 0
M  V30 7468 H 684.567 3.81952 1.87064 0
M  V30 7469 N 682.882 -0.391992 1.52647 0
M  V30 7470 C 683.814 -1.49811 1.73463 0
M  V30 7471 C 684.827 -1.50734 0.615078 0
M  V30 7472 O 686.016 -1.5469 0.890696 0
M  V30 7473 C 683.116 -2.88667 1.77552 0
M  V30 7474 C 682.289 -3.11743 3.06815 0
M  V30 7475 C 681.348 -4.30564 3.02491 0
M  V30 7476 O 680.374 -4.27014 3.76361 0
M  V30 7477 N 681.576 -5.36593 2.21468 0
M  V30 7478 H 684.341 -1.32343 2.68897 0
M  V30 7479 H 681.902 -0.581475 1.51098 0
M  V30 7480 H 683.894 -3.66251 1.7217 0
M  V30 7481 H 682.464 -2.99508 0.895181 0
M  V30 7482 H 681.684 -2.2205 3.25711 0
M  V30 7483 H 682.972 -3.24013 3.92292 0
M  V30 7484 H 682.37 -5.42332 1.60913 0
M  V30 7485 H 680.927 -6.12855 2.21928 0
M  V30 7486 N 684.36 -1.4356 -0.65026 0
M  V30 7487 C 685.607 -1.45333 -1.41012 0
M  V30 7488 C 685.935 -0.0787282 -1.94341 0
M  V30 7489 O 685.19 0.916715 -1.72901 0
M  V30 7490 C 685.489 -2.44528 -2.60654 0
M  V30 7491 C 685.155 -3.90331 -2.25727 0
M  V30 7492 C 683.817 -4.3004 -2.15914 0
M  V30 7493 C 686.169 -4.822 -1.97821 0
M  V30 7494 C 683.497 -5.59568 -1.76354 0
M  V30 7495 C 685.849 -6.12095 -1.59759 0
M  V30 7496 C 684.513 -6.50778 -1.48473 0
M  V30 7497 H 683.783 -0.531813 -0.516 0
M  V30 7498 H 686.43 -1.76657 -0.739219 0
M  V30 7499 H 684.735 -2.06619 -3.3289 0
M  V30 7500 H 686.432 -2.43155 -3.18868 0
M  V30 7501 H 683.022 -3.58905 -2.34276 0
M  V30 7502 H 687.206 -4.5229 -2.04322 0
M  V30 7503 H 682.462 -5.88376 -1.66205 0
M  V30 7504 H 686.636 -6.82751 -1.37198 0
M  V30 7505 H 684.263 -7.5105 -1.17591 0
M  V30 7506 N 685.838 0.888903 -1.30139 0
M  V30 7507 C 686.77 1.99972 -1.11999 0
M  V30 7508 C 687.783 1.62673 -0.0643619 0
M  V30 7509 O 688.972 1.75788 -0.309983 0
M  V30 7510 C 686.072 3.31904 -0.685059 0
M  V30 7511 C 685.245 3.97665 -1.82158 0
M  V30 7512 C 684.304 5.07894 -1.37585 0
M  V30 7513 O 683.33 5.2974 -2.08241 0
M  V30 7514 N 684.532 5.7995 -0.252697 0
M  V30 7515 H 687.297 2.16085 -2.07671 0
M  V30 7516 H 684.858 1.06175 -1.22223 0
M  V30 7517 H 686.85 4.03005 -0.369964 0
M  V30 7518 H 685.42 3.12084 0.179507 0
M  V30 7519 H 684.64 3.19787 -2.305 0
M  V30 7520 H 685.928 4.3834 -2.58332 0
M  V30 7521 H 685.326 5.647 0.336141 0
M  V30 7522 H 683.883 6.518 0.00296813 0
M  V30 7523 N 687.317 1.12792 1.10072 0
M  V30 7524 C 688.733 0.864745 1.34143 0
M  V30 7525 C 688.933 -0.503201 1.95116 0
M  V30 7526 O 687.989 -1.25111 2.19325 0
M  V30 7527 C 689.302 1.98413 2.25949 0
M  V30 7528 C 690.85 2.01545 2.39476 0
M  V30 7529 C 691.325 3.12727 3.34613 0
M  V30 7530 N 692.816 3.12194 3.42183 0
M  V30 7531 C 693.551 3.94862 4.15779 0
M  V30 7532 N 693.047 4.87528 4.92228 0
M  V30 7533 N 694.84 3.82985 4.11435 0
M  V30 7534 H 686.991 2.00926 0.68866 0
M  V30 7535 H 689.254 0.874564 0.365844 0
M  V30 7536 H 688.96 2.97005 1.88364 0
M  V30 7537 H 688.834 1.89254 3.26287 0
M  V30 7538 H 691.221 1.0357 2.76328 0
M  V30 7539 H 691.302 2.14777 1.3894 0
M  V30 7540 H 690.946 4.10936 2.98486 0
M  V30 7541 H 690.876 2.96732 4.35037 0
M  V30 7542 H 693.367 2.45065 2.87666 0
M  V30 7543 H 693.68 5.47109 5.45794 0
M  V30 7544 H 692.025 4.91539 4.9134 0
M  V30 7545 H 695.216 3.09923 3.50807 0
M  V30 7546 H 695.389 4.47641 4.68531 0
M  V30 7547 N 688.795 -1.27931 0.920396 0
M  V30 7548 C 690.025 -1.98516 0.572256 0
M  V30 7549 C 690.433 -1.68912 -0.852375 0
M  V30 7550 O 689.776 -0.94203 -1.57707 0
M  V30 7551 C 689.838 -3.5243 0.709485 0
M  V30 7552 C 689.502 -4.0564 2.10489 0
M  V30 7553 C 690.499 -4.1897 3.07831 0
M  V30 7554 C 688.184 -4.40168 2.41986 0
M  V30 7555 C 690.178 -4.66093 4.34783 0
M  V30 7556 C 687.865 -4.86983 3.69176 0
M  V30 7557 C 688.863 -4.99903 4.65388 0
M  V30 7558 O 688.551 -5.45694 5.90316 0
M  V30 7559 H 688.283 -0.64047 0.216274 0
M  V30 7560 H 690.837 -1.6393 1.23758 0
M  V30 7561 H 689.067 -3.86698 -0.0129263 0
M  V30 7562 H 690.756 -4.04233 0.367474 0
M  V30 7563 H 691.522 -3.92562 2.84816 0
M  V30 7564 H 687.401 -4.29358 1.67846 0
M  V30 7565 H 690.945 -4.76092 5.09884 0
M  V30 7566 H 686.842 -5.12832 3.92012 0
M  V30 7567 H 687.61 -5.63965 5.932 0
M  V30 7568 N 690.273 -0.685099 -1.4193 0
M  V30 7569 C 691.223 0.00977295 -2.27998 0
M  V30 7570 C 692.207 0.763315 -1.41641 0
M  V30 7571 O 693.399 0.640532 -1.65004 0
M  V30 7572 C 690.528 0.952972 -3.29808 0
M  V30 7573 C 689.614 0.196231 -4.23646 0
M  V30 7574 N 690.005 -0.804401 -4.99363 0
M  V30 7575 C 688.303 0.433213 -4.43891 0
M  V30 7576 C 689.004 -1.25646 -5.67968 0
M  V30 7577 N 687.98 -0.5844 -5.4045 0
M  V30 7578 H 691.782 -0.757586 -2.83968 0
M  V30 7579 H 689.296 -0.515037 -1.54017 0
M  V30 7580 H 691.293 1.46585 -3.9028 0
M  V30 7581 H 689.953 1.72004 -2.75399 0
M  V30 7582 H 690.964 -1.18429 -5.04177 0
M  V30 7583 H 687.641 1.17899 -4.00507 0
M  V30 7584 H 689.031 -2.08622 -6.38691 0
M  V30 7585 N 691.751 1.51645 -0.429126 0
M  V30 7586 C 692.683 2.25279 0.422124 0
M  V30 7587 C 693.696 1.28986 0.993299 0
M  V30 7588 O 694.885 1.54797 0.888836 0
M  V30 7589 C 691.985 2.98666 1.60162 0
M  V30 7590 C 691.158 4.2199 1.15078 0
M  V30 7591 C 690.217 4.78028 2.19946 0
M  V30 7592 O 689.243 5.40084 1.79716 0
M  V30 7593 N 690.445 4.61342 3.5234 0
M  V30 7594 H 693.21 2.98971 -0.208931 0
M  V30 7595 H 690.771 1.59838 -0.257568 0
M  V30 7596 H 692.763 3.33044 2.29922 0
M  V30 7597 H 691.333 2.28036 2.13818 0
M  V30 7598 H 690.553 3.932 0.280552 0
M  V30 7599 H 691.841 5.02037 0.826831 0
M  V30 7600 H 691.239 4.11894 3.87763 0
M  V30 7601 H 689.796 5.00104 4.18019 0
M  V30 7602 N 693.229 0.160201 1.56784 0
M  V30 7603 C 694.64 -0.358417 1.83227 0
M  V30 7604 C 694.991 -1.63831 1.07952 0
M  V30 7605 O 694.116 -2.13885 0.328995 0
M  V30 7606 C 694.711 -0.657058 3.32368 0
M  V30 7607 C 693.27 -1.12015 3.59346 0
M  V30 7608 C 692.417 -0.15015 2.76893 0
M  V30 7609 H 695.368 0.384669 1.53967 0
M  V30 7610 H 695.389 -1.51033 3.49241 0
M  V30 7611 H 694.901 0.274647 3.87127 0
M  V30 7612 H 693.002 -2.06734 3.09987 0
M  V30 7613 H 693.115 -1.037 4.67743 0
M  V30 7614 H 691.479 -0.645361 2.46388 0
M  V30 7615 H 692.262 0.775379 3.34429 0
M  V30 7616 N 694.707 -1.5719 -0.113559 0
M  V30 7617 C 695.657 -1.97166 -1.14497 0
M  V30 7618 C 696.641 -0.847413 -1.36776 0
M  V30 7619 O 697.833 -1.11114 -1.37777 0
M  V30 7620 C 694.962 -2.38411 -2.47013 0
M  V30 7621 C 694.048 -3.5748 -2.28185 0
M  V30 7622 N 694.439 -4.72998 -1.79182 0
M  V30 7623 C 692.737 -3.63218 -2.58821 0
M  V30 7624 C 693.438 -5.55007 -1.74191 0
M  V30 7625 N 692.414 -4.9765 -2.18735 0
M  V30 7626 H 696.216 -2.83937 -0.758733 0
M  V30 7627 H 693.73 -1.59191 -0.321234 0
M  V30 7628 H 695.727 -2.65269 -3.21618 0
M  V30 7629 H 694.387 -1.53007 -2.8639 0
M  V30 7630 H 695.398 -4.96109 -1.48649 0
M  V30 7631 H 692.075 -2.88434 -3.01847 0
M  V30 7632 H 693.465 -6.57678 -1.37512 0
M  V30 7633 N 696.185 0.383891 -1.52853 0
M  V30 7634 C 697.413 1.1495 -1.7203 0
M  V30 7635 C 697.828 1.83578 -0.440957 0
M  V30 7636 O 697.185 1.72872 0.584925 0
M  V30 7637 C 697.236 2.19368 -2.87333 0
M  V30 7638 O 696.957 1.53536 -4.10315 0
M  V30 7639 C 698.458 3.08616 -3.18231 0
M  V30 7640 H 695.678 0.344445 -0.575846 0
M  V30 7641 H 698.222 0.448397 -1.99524 0
M  V30 7642 H 696.377 2.85105 -2.62286 0
M  V30 7643 H 696.791 2.2296 -4.74752 0
M  V30 7644 H 698.265 3.77902 -4.02361 0
M  V30 7645 H 698.742 3.72409 -2.32826 0
M  V30 7646 H 699.348 2.48518 -3.45136 0
M  V30 7647 N 697.663 1.43903 0.642637 0
M  V30 7648 C 698.593 1.52697 1.76652 0
M  V30 7649 C 699.574 0.380816 1.65782 0
M  V30 7650 O 700.759 0.599432 1.84717 0
M  V30 7651 C 697.889 1.45975 3.15133 0
M  V30 7652 C 696.843 2.58949 3.40778 0
M  V30 7653 C 696.169 2.37279 4.79169 0
M  V30 7654 C 697.469 4.01153 3.34475 0
M  V30 7655 H 699.163 2.46766 1.69549 0
M  V30 7656 H 696.709 1.18767 0.814279 0
M  V30 7657 H 698.662 1.5073 3.93521 0
M  V30 7658 H 697.386 0.484162 3.22991 0
M  V30 7659 H 696.045 2.53564 2.64765 0
M  V30 7660 H 695.693 1.37939 4.83717 0
M  V30 7661 H 695.393 3.13016 4.97287 0
M  V30 7662 H 696.917 2.43834 5.59801 0
M  V30 7663 H 698.331 4.07968 4.02784 0
M  V30 7664 H 696.728 4.77001 3.64129 0
M  V30 7665 H 697.798 4.25539 2.32475 0
M  V30 7666 N 699.141 -0.881989 1.30609 0
M  V30 7667 C 700.366 -1.67236 1.22665 0
M  V30 7668 C 700.791 -1.8696 -0.206777 0
M  V30 7669 O 700.149 -1.4027 -1.14865 0
M  V30 7670 C 700.197 -3.02446 1.96363 0
M  V30 7671 O 699.301 -3.91614 1.29276 0
M  V30 7672 H 698.642 -0.510902 0.424117 0
M  V30 7673 H 701.172 -1.10055 1.72479 0
M  V30 7674 H 701.182 -3.52468 2.055 0
M  V30 7675 H 699.857 -2.8741 3.00613 0
M  V30 7676 H 698.434 -3.50055 1.28514 0
M  V30 7677 N 700.619 -1.13374 -1.09472 0
M  V30 7678 C 702.03 -0.90801 -1.63132 0
M  V30 7679 C 702.381 0.555576 -1.8817 0
M  V30 7680 O 701.506 1.42218 -1.63104 0
M  V30 7681 C 702.101 -1.64182 -2.96361 0
M  V30 7682 C 700.66 -1.46197 -3.46848 0
M  V30 7683 C 699.807 -1.67134 -2.21273 0
M  V30 7684 H 702.758 -1.2871 -0.928411 0
M  V30 7685 H 702.779 -1.09863 -3.64294 0
M  V30 7686 H 702.291 -2.707 -2.78106 0
M  V30 7687 H 700.392 -0.419788 -3.70228 0
M  V30 7688 H 700.505 -2.22472 -4.24315 0
M  V30 7689 H 698.869 -1.09616 -2.29905 0
M  V30 7690 H 699.652 -2.74971 -2.05538 0
M  V30 7691 N 702.098 1.27442 -0.927168 0
M  V30 7692 C 703.375 1.89473 -0.485742 0
M  V30 7693 C 703.755 1.83922 1.03614 0
M  V30 7694 O 703.103 1.28409 1.89007 0
M  V30 7695 C 703.313 3.33417 -1.03123 0
M  V30 7696 C 704.661 4.10333 -1.0914 0
M  V30 7697 O 705.685 3.4243 -0.98082 0
M  V30 7698 O 704.544 5.31737 -1.26165 0
M  V30 7699 H 701.638 0.812124 -0.156154 0
M  V30 7700 H 704.184 1.35713 -1.01882 0
M  V30 7701 H 702.956 3.31747 -2.07508 0
M  V30 7702 H 702.579 3.94695 -0.479767 0
M  V30 7703 N 703.576 0.692616 1.41565 0
M  V30 7704 C 704.508 -0.0137132 2.29196 0
M  V30 7705 C 705.521 -0.747417 1.44629 0
M  V30 7706 O 706.71 -0.598611 1.68163 0
M  V30 7707 C 703.81 -1.04347 3.22436 0
M  V30 7708 C 702.983 -0.379985 4.35746 0
M  V30 7709 C 702.042 -1.31195 5.09583 0
M  V30 7710 O 701.068 -0.805455 5.63472 0
M  V30 7711 N 702.27 -2.64443 5.16769 0
M  V30 7712 H 705.035 0.738614 2.90456 0
M  V30 7713 H 702.596 0.538415 1.52685 0
M  V30 7714 H 704.588 -1.6686 3.687 0
M  V30 7715 H 703.158 -1.69736 2.62504 0
M  V30 7716 H 702.378 0.424975 3.91903 0
M  V30 7717 H 703.666 0.0814904 5.08735 0
M  V30 7718 H 703.064 -3.08114 4.74428 0
M  V30 7719 H 701.621 -3.22159 5.66619 0
M  V30 7720 N 705.054 -1.51416 0.437162 0
M  V30 7721 C 705.964 -2.31493 -0.380537 0
M  V30 7722 C 706.98 -1.40399 -1.02782 0
M  V30 7723 O 708.156 -1.73471 -1.02323 0
M  V30 7724 C 705.221 -3.1413 -1.46709 0
M  V30 7725 C 704.282 -4.21003 -0.839953 0
M  V30 7726 C 703.515 -4.9969 -1.87473 0
M  V30 7727 O 703.738 -4.79008 -3.09689 0
M  V30 7728 O 702.672 -5.8379 -1.46536 0
M  V30 7729 H 706.498 -3.02469 0.273183 0
M  V30 7730 H 704.083 -1.48059 0.199706 0
M  V30 7731 H 705.965 -3.65505 -2.09724 0
M  V30 7732 H 704.64 -2.45919 -2.10489 0
M  V30 7733 H 703.547 -3.73706 -0.171752 0
M  V30 7734 H 704.88 -4.91587 -0.245638 0
M  V30 7735 N 706.532 -0.168513 -1.56696 0
M  V30 7736 C 707.809 0.523367 -1.88468 0
M  V30 7737 C 708.189 1.81503 -1.07796 0
M  V30 7738 O 707.537 2.27859 -0.171045 0
M  V30 7739 C 707.747 0.767991 -3.40445 0
M  V30 7740 C 709.095 1.09924 -4.10124 0
M  V30 7741 O 710.119 0.856625 -3.45746 0
M  V30 7742 O 708.978 1.55681 -5.23856 0
M  V30 7743 H 706.072 0.269447 -0.781874 0
M  V30 7744 H 708.618 -0.206739 -1.68436 0
M  V30 7745 H 707.39 -0.145254 -3.9103 0
M  V30 7746 H 707.013 1.55151 -3.66079 0
M  V30 7747 N 708.01 1.57248 0.105221 0
M  V30 7748 C 709.25 1.87393 0.816283 0
M  V30 7749 C 709.614 0.758249 1.76393 0
M  V30 7750 O 710.815 0.941835 2.5176 0
M  V30 7751 C 709.086 3.22775 1.53463 0
M  V30 7752 S 710.645 3.74588 2.28537 0
M  V30 7753 H 707.463 0.656847 0.272164 0
M  V30 7754 H 710.065 1.9536 0.073909 0
M  V30 7755 H 708.769 4.01905 0.830674 0
M  V30 7756 H 708.3 3.17921 2.3171 0
M  V30 7757 H 710.315 3.47193 3.54502 0
M  V30 7758 N 709.488 -0.375779 1.53054 0
M  V30 7759 C 710.421 -1.48187 1.7354 0
M  V30 7760 C 711.399 -1.5177 0.583495 0
M  V30 7761 O 712.583 -1.69976 0.81488 0
M  V30 7762 C 709.71 -2.86598 1.80497 0
M  V30 7763 C 708.756 -3.00784 3.02376 0
M  V30 7764 S 709.589 -2.70601 4.62099 0
M  V30 7765 C 710.745 -4.11181 4.71891 0
M  V30 7766 H 710.978 -1.30587 2.67085 0
M  V30 7767 H 708.511 -0.569485 1.43514 0
M  V30 7768 H 710.469 -3.66353 1.85192 0
M  V30 7769 H 709.13 -3.01514 0.880217 0
M  V30 7770 H 708.323 -4.02128 3.03824 0
M  V30 7771 H 707.925 -2.28939 2.95742 0
M  V30 7772 H 710.217 -5.0529 4.51319 0
M  V30 7773 H 711.16 -4.14742 5.73929 0
M  V30 7774 H 711.568 -3.97706 4.00612 0
M  V30 7775 N 710.966 -1.44241 -0.634997 0
M  V30 7776 C 712.196 -1.50078 -1.41987 0
M  V30 7777 C 712.604 -0.123072 -1.88799 0
M  V30 7778 O 711.947 0.880552 -1.6122 0
M  V30 7779 C 712.009 -2.40033 -2.67628 0
M  V30 7780 C 711.673 -3.87268 -2.42637 0
M  V30 7781 C 712.67 -4.77902 -2.04708 0
M  V30 7782 C 710.355 -4.31933 -2.56396 0
M  V30 7783 C 712.349 -6.11202 -1.80862 0
M  V30 7784 C 710.036 -5.65281 -2.32164 0
M  V30 7785 C 711.034 -6.54734 -1.94455 0
M  V30 7786 O 710.722 -7.85613 -1.7049 0
M  V30 7787 H 710.454 -0.51146 -0.442023 0
M  V30 7788 H 713.008 -1.89843 -0.784138 0
M  V30 7789 H 711.238 -1.95188 -3.33824 0
M  V30 7790 H 712.927 -2.36863 -3.29622 0
M  V30 7791 H 713.693 -4.44668 -1.93638 0
M  V30 7792 H 709.572 -3.62569 -2.84719 0
M  V30 7793 H 713.116 -6.80983 -1.51353 0
M  V30 7794 H 709.013 -5.98078 -2.42843 0
M  V30 7795 H 709.781 -7.97373 -1.84767 0
M  V30 7796 N 712.444 0.87505 -1.31075 0
M  V30 7797 C 713.69 1.63006 -1.21657 0
M  V30 7798 C 714.045 1.91088 0.224306 0
M  V30 7799 O 713.338 1.52779 1.15625 0
M  V30 7800 C 713.532 2.96948 -1.98888 0
M  V30 7801 C 713.361 2.81944 -3.50339 0
M  V30 7802 C 712.131 2.814 -4.19693 0
M  V30 7803 C 714.329 2.57171 -4.45385 0
M  V30 7804 N 712.311 2.57392 -5.57335 0
M  V30 7805 C 713.682 2.42379 -5.7066 0
M  V30 7806 C 715.737 2.42474 -4.34868 0
M  V30 7807 C 714.44 2.14385 -6.86609 0
M  V30 7808 C 716.466 2.15868 -5.50595 0
M  V30 7809 C 715.828 2.0186 -6.74857 0
M  V30 7810 H 711.927 0.601043 -0.500271 0
M  V30 7811 H 714.511 1.03033 -1.65204 0
M  V30 7812 H 712.682 3.54936 -1.57718 0
M  V30 7813 H 714.414 3.61702 -1.81531 0
M  V30 7814 H 711.169 2.93596 -3.71616 0
M  V30 7815 H 711.593 2.48373 -6.29794 0
M  V30 7816 H 716.235 2.52035 -3.39468 0
M  V30 7817 H 713.953 2.03562 -7.82041 0
M  V30 7818 H 717.539 2.05304 -5.44372 0
M  V30 7819 H 716.419 1.81562 -7.62892 0
M  V30 7820 N 713.922 1.13953 1.08869 0
M  V30 7821 C 715.152 0.926825 1.84644 0
M  V30 7822 C 715.56 -0.527941 1.81685 0
M  V30 7823 O 714.903 -1.37742 1.21543 0
M  V30 7824 C 714.965 1.34416 3.33426 0
M  V30 7825 C 714.629 2.81351 3.60126 0
M  V30 7826 C 715.626 3.79486 3.55368 0
M  V30 7827 C 713.311 3.1865 3.88288 0
M  V30 7828 C 715.305 5.1293 3.78393 0
M  V30 7829 C 712.992 4.5227 4.10968 0
M  V30 7830 C 713.99 5.4922 4.06013 0
M  V30 7831 O 713.678 6.80429 4.28102 0
M  V30 7832 H 713.41 0.33013 0.589907 0
M  V30 7833 H 715.964 1.51738 1.38436 0
M  V30 7834 H 714.194 0.696901 3.80368 0
M  V30 7835 H 715.883 1.10302 3.90626 0
M  V30 7836 H 716.649 3.52017 3.3363 0
M  V30 7837 H 712.528 2.43785 3.91267 0
M  V30 7838 H 716.072 5.88591 3.74442 0
M  V30 7839 H 711.969 4.79462 4.32188 0
M  V30 7840 H 712.737 6.86617 4.45533 0
M  V30 7841 N 715.4 -1.26948 0.933913 0
M  V30 7842 C 716.348 -2.2862 0.428463 0
M  V30 7843 C 717.342 -1.62144 -0.490464 0
M  V30 7844 O 718.548 -1.76167 -0.36948 0
M  V30 7845 H 714.923 -0.742363 0.120003 0
M  V30 7846 H 716.894 -2.68659 1.29865 0
M  V30 7847 C 715.643 -3.46423 -0.29774 0
M  V30 7848 H 714.966 -3.97792 0.400183 0
M  V30 7849 H 716.406 -4.19505 -0.615736 0
M  V30 7850 C 714.865 -3.01017 -1.51295 0
M  V30 7851 O 715.395 -3.05226 -2.61151 0
M  V30 7852 N 713.601 -2.56442 -1.36696 0
M  V30 7853 H 713.148 -2.53217 -0.473178 0
M  V30 7854 H 713.106 -2.26424 -2.18127 0
M  V30 7855 N 716.879 -0.700114 -1.41195 0
M  V30 7856 C 718.126 -0.233006 -2.01155 0
M  V30 7857 C 718.454 1.16883 -1.55462 0
M  V30 7858 O 717.709 1.80395 -0.758695 0
M  V30 7859 C 718.008 -0.243986 -3.56566 0
M  V30 7860 C 717.674 -1.59397 -4.21786 0
M  V30 7861 C 716.336 -1.96355 -4.39316 0
M  V30 7862 C 718.688 -2.48192 -4.58312 0
M  V30 7863 C 716.016 -3.21683 -4.9065 0
M  V30 7864 C 718.368 -3.72857 -5.11039 0
M  V30 7865 C 717.032 -4.09951 -5.26779 0
M  V30 7866 H 716.302 -0.085263 -0.736078 0
M  V30 7867 H 718.949 -0.9001 -1.69028 0
M  V30 7868 H 717.254 0.506663 -3.8851 0
M  V30 7869 H 718.951 0.135031 -4.00773 0
M  V30 7870 H 715.541 -1.29654 -4.08519 0
M  V30 7871 H 719.725 -2.20918 -4.4442 0
M  V30 7872 H 714.981 -3.50412 -5.01021 0
M  V30 7873 H 719.155 -4.41844 -5.38282 0
M  V30 7874 H 716.782 -5.07136 -5.66319 0
M  V30 7875 N 718.357 1.51182 -0.445186 0
M  V30 7876 C 719.287 2.30821 0.352686 0
M  V30 7877 C 720.268 1.36576 1.01395 0
M  V30 7878 O 721.453 1.65497 1.01609 0
M  V30 7879 C 718.583 3.15593 1.44976 0
M  V30 7880 C 717.537 4.1818 0.911553 0
M  V30 7881 C 716.863 4.91523 2.10497 0
M  V30 7882 C 718.163 5.22266 -0.059418 0
M  V30 7883 H 719.857 2.97771 -0.311936 0
M  V30 7884 H 717.403 1.43201 -0.151461 0
M  V30 7885 H 719.356 3.70091 2.01521 0
M  V30 7886 H 718.08 2.4648 2.14278 0
M  V30 7887 H 716.739 3.64746 0.368264 0
M  V30 7888 H 716.387 4.18906 2.78437 0
M  V30 7889 H 716.087 5.60898 1.7512 0
M  V30 7890 H 717.611 5.48847 2.6758 0
M  V30 7891 H 719.025 5.71789 0.415985 0
M  V30 7892 H 717.422 5.99213 -0.326152 0
M  V30 7893 H 718.492 4.7461 -0.993631 0
M  V30 7894 N 719.835 0.176821 1.56605 0
M  V30 7895 C 720.798 -0.737429 2.17013 0
M  V30 7896 C 721.798 -1.15414 1.11965 0
M  V30 7897 O 722.988 -1.0702 1.37449 0
M  V30 7898 C 720.12 -2.00445 2.75744 0
M  V30 7899 H 721.313 -0.211455 2.99154 0
M  V30 7900 H 718.866 -0.0727582 1.56131 0
M  V30 7901 H 719.601 -2.57338 1.97352 0
M  V30 7902 H 719.386 -1.71456 3.52626 0
M  V30 7903 H 720.876 -2.65679 3.22187 0
M  V30 7904 N 721.313 -1.57302 -0.09688 0
M  V30 7905 C 722.543 -1.89926 -0.813114 0
M  V30 7906 C 722.951 -0.76852 -1.72888 0
M  V30 7907 O 722.294 0.268549 -1.81726 0
M  V30 7908 C 722.356 -3.17787 -1.68082 0
M  V30 7909 C 722.02 -4.4729 -0.937061 0
M  V30 7910 C 723.017 -5.1921 -0.267687 0
M  V30 7911 C 720.702 -4.93957 -0.911671 0
M  V30 7912 C 722.696 -6.36034 0.417129 0
M  V30 7913 C 720.383 -6.10693 -0.223068 0
M  V30 7914 C 721.381 -6.8158 0.440155 0
M  V30 7915 O 721.069 -7.96092 1.11772 0
M  V30 7916 H 720.801 -0.632783 -0.237828 0
M  V30 7917 H 723.355 -2.05248 -0.0790818 0
M  V30 7918 H 721.585 -2.98607 -2.45705 0
M  V30 7919 H 723.274 -3.36257 -2.27346 0
M  V30 7920 H 724.04 -4.84198 -0.278774 0
M  V30 7921 H 719.919 -4.38671 -1.41734 0
M  V30 7922 H 723.463 -6.91301 0.93537 0
M  V30 7923 H 719.36 -6.45159 -0.209821 0
M  V30 7924 H 720.128 -8.12064 1.02443 0
M  V30 7925 N 722.791 0.367657 -1.53252 0
M  V30 7926 C 723.741 1.45035 -1.75923 0
M  V30 7927 C 724.725 1.48736 -0.613719 0
M  V30 7928 O 725.917 1.54012 -0.872313 0
M  V30 7929 C 723.046 2.82493 -1.9507 0
M  V30 7930 C 722.132 2.83279 -3.15617 0
M  V30 7931 N 722.523 2.53712 -4.37566 0
M  V30 7932 C 720.821 3.1444 -3.16297 0
M  V30 7933 C 721.522 2.62123 -5.19294 0
M  V30 7934 N 720.498 2.96747 -4.55458 0
M  V30 7935 H 724.3 1.21035 -2.6782 0
M  V30 7936 H 721.814 0.575822 -1.51849 0
M  V30 7937 H 723.811 3.60473 -2.0944 0
M  V30 7938 H 722.471 3.07459 -1.044 0
M  V30 7939 H 723.482 2.27344 -4.65333 0
M  V30 7940 H 720.159 3.44733 -2.35511 0
M  V30 7941 H 721.549 2.42628 -6.26563 0
M  V30 7942 N 724.269 1.44576 0.627338 0
M  V30 7943 C 725.202 1.46206 1.75212 0
M  V30 7944 C 726.18 0.320483 1.5941 0
M  V30 7945 O 727.364 0.518028 1.81242 0
M  V30 7946 C 724.491 1.29834 3.12827 0
M  V30 7947 C 723.537 2.47603 3.47268 0
M  V30 7948 S 724.37 4.10125 3.44322 0
M  V30 7949 C 725.526 3.96183 4.84551 0
M  V30 7950 H 725.759 2.41378 1.73563 0
M  V30 7951 H 723.292 1.3192 0.802283 0
M  V30 7952 H 725.25 1.21075 3.92239 0
M  V30 7953 H 723.911 0.361662 3.12011 0
M  V30 7954 H 723.104 2.3202 4.47418 0
M  V30 7955 H 722.706 2.53121 2.75329 0
M  V30 7956 H 724.998 3.60107 5.73872 0
M  V30 7957 H 725.941 4.96176 5.05188 0
M  V30 7958 H 726.349 3.28177 4.59304 0
M  V30 7959 N 725.747 -0.868086 1.31537 0
M  V30 7960 C 726.71 -1.95703 1.19302 0
M  V30 7961 C 727.71 -1.60355 0.119612 0
M  V30 7962 O 728.9 -1.70247 0.36902 0
M  V30 7963 C 726.032 -3.30599 0.831684 0
M  V30 7964 H 727.225 -2.07982 2.16064 0
M  V30 7965 H 724.778 -1.05661 1.15176 0
M  V30 7966 H 725.513 -3.2402 -0.134694 0
M  V30 7967 H 725.298 -3.57629 1.60761 0
M  V30 7968 H 726.788 -4.10439 0.770026 0
M  V30 7969 N 727.225 -1.14528 -1.08264 0
M  V30 7970 C 728.45 -0.938381 -1.84957 0
M  V30 7971 C 728.875 0.508044 -1.81109 0
M  V30 7972 O 728.233 1.36146 -1.19724 0
M  V30 7973 C 728.281 -1.44568 -3.30352 0
M  V30 7974 O 727.385 -0.638745 -4.07423 0
M  V30 7975 H 726.726 -0.335394 -0.573068 0
M  V30 7976 H 729.256 -1.52287 -1.36637 0
M  V30 7977 H 729.266 -1.45449 -3.81194 0
M  V30 7978 H 727.941 -2.49876 -3.32468 0
M  V30 7979 H 726.518 -0.698801 -3.66294 0
M  V30 7980 N 728.703 1.26451 -0.940633 0
M  V30 7981 C 729.666 2.24651 -0.454378 0
M  V30 7982 C 730.666 1.54826 0.434222 0
M  V30 7983 O 731.856 1.72628 0.233477 0
M  V30 7984 C 728.988 3.39148 0.345192 0
M  V30 7985 H 730.181 2.69182 -1.32217 0
M  V30 7986 H 727.734 1.38596 -0.722547 0
M  V30 7987 H 728.469 3.00018 1.23125 0
M  V30 7988 H 728.254 3.9101 -0.292107 0
M  V30 7989 H 729.744 4.12103 0.675341 0
M  V30 7990 N 730.181 0.707592 1.40822 0
M  V30 7991 C 731.128 0.0499029 2.30746 0
M  V30 7992 C 732.098 -0.758718 1.47759 0
M  V30 7993 O 733.283 -0.724299 1.76518 0
M  V30 7994 C 730.423 -0.871756 3.33908 0
M  V30 7995 C 729.536 -0.0534655 4.31967 0
M  V30 7996 C 728.671 -0.973869 5.22197 0
M  V30 7997 C 727.71 -0.149194 6.11918 0
M  V30 7998 N 726.847 -1.02404 6.94592 0
M  V30 7999 H 731.687 0.822461 2.86426 0
M  V30 8000 H 729.224 0.417285 1.41057 0
M  V30 8001 H 731.182 -1.42028 3.9228 0
M  V30 8002 H 729.812 -1.61058 2.7975 0
M  V30 8003 H 728.864 0.612142 3.75442 0
M  V30 8004 H 730.176 0.585354 4.95353 0
M  V30 8005 H 729.33 -1.59121 5.85462 0
M  V30 8006 H 728.069 -1.64652 4.59065 0
M  V30 8007 H 727.074 0.481137 5.47691 0
M  V30 8008 H 728.299 0.519841 6.77107 0
M  V30 8009 H 726.245 -1.6825 6.34057 0
M  V30 8010 H 726.162 -0.441076 7.54712 0
M  V30 8011 H 727.43 -1.62782 7.62314 0
M  V30 8012 N 731.66 -1.50943 0.453197 0
M  V30 8013 C 732.593 -2.24742 -0.395787 0
M  V30 8014 C 733.571 -1.27316 -1.01141 0
M  V30 8015 O 734.755 -1.56494 -1.05081 0
M  V30 8016 C 731.882 -3.00999 -1.55298 0
M  V30 8017 C 730.928 -4.13207 -1.0565 0
M  V30 8018 S 731.761 -5.35498 0.01435 0
M  V30 8019 C 732.917 -6.15298 -1.14714 0
M  V30 8020 H 733.15 -2.96403 0.23071 0
M  V30 8021 H 730.683 -1.52557 0.237874 0
M  V30 8022 H 732.641 -3.45529 -2.2163 0
M  V30 8023 H 731.302 -2.28896 -2.15094 0
M  V30 8024 H 730.495 -4.65901 -1.9223 0
M  V30 8025 H 730.097 -3.7102 -0.471182 0
M  V30 8026 H 732.389 -6.45346 -2.06239 0
M  V30 8027 H 733.332 -7.05019 -0.659842 0
M  V30 8028 H 733.74 -5.47046 -1.39288 0
M  V30 8029 N 733.138 -0.185124 -1.56509 0
M  V30 8030 C 734.088 0.752315 -2.15231 0
M  V30 8031 C 735.072 1.18327 -1.0903 0
M  V30 8032 O 736.264 1.14333 -1.35119 0
M  V30 8033 C 733.393 1.97583 -2.80742 0
M  V30 8034 C 732.479 1.56623 -3.94119 0
M  V30 8035 N 732.87 0.867008 -4.98314 0
M  V30 8036 C 731.168 1.85626 -4.05535 0
M  V30 8037 C 731.869 0.663228 -5.77907 0
M  V30 8038 N 730.845 1.20891 -5.29987 0
M  V30 8039 H 734.647 0.209267 -2.93154 0
M  V30 8040 H 732.161 0.0150444 -1.62393 0
M  V30 8041 H 734.158 2.65779 -3.21197 0
M  V30 8042 H 732.818 2.52369 -2.04303 0
M  V30 8043 H 733.829 0.52355 -5.15247 0
M  V30 8044 H 730.506 2.41992 -3.40215 0
M  V30 8045 H 731.896 0.109273 -6.71811 0
M  V30 8046 N 734.616 1.57351 0.0885366 0
M  V30 8047 C 735.563 2.02523 1.10693 0
M  V30 8048 C 736.533 0.902736 1.39427 0
M  V30 8049 O 737.718 1.16921 1.50779 0
M  V30 8050 C 734.858 2.46013 2.42016 0
M  V30 8051 C 733.971 3.7181 2.19957 0
M  V30 8052 C 733.106 4.04152 3.44724 0
M  V30 8053 C 732.145 5.2304 3.17956 0
M  V30 8054 N 731.282 5.51102 4.35007 0
M  V30 8055 H 736.122 2.89302 0.714742 0
M  V30 8056 H 733.659 1.43084 0.341378 0
M  V30 8057 H 735.617 2.69274 3.18665 0
M  V30 8058 H 734.247 1.62235 2.79069 0
M  V30 8059 H 733.299 3.55987 1.34079 0
M  V30 8060 H 734.611 4.58604 1.96173 0
M  V30 8061 H 733.765 4.28225 4.29777 0
M  V30 8062 H 732.504 3.15893 3.71568 0
M  V30 8063 H 731.509 4.98781 2.31296 0
M  V30 8064 H 732.734 6.12902 2.92451 0
M  V30 8065 H 730.68 4.65802 4.61914 0
M  V30 8066 H 730.597 6.3228 4.14437 0
M  V30 8067 H 731.865 5.79714 5.21106 0
M  V30 8068 N 736.094 -0.359525 1.53444 0
M  V30 8069 C 737.004 -1.46445 1.83278 0
M  V30 8070 C 738.02 -1.5833 0.721629 0
M  V30 8071 O 739.196 -1.7411 1.01231 0
M  V30 8072 C 736.261 -2.81638 2.02191 0
M  V30 8073 C 735.322 -2.7923 3.26082 0
M  V30 8074 C 734.555 -4.07974 3.44082 0
M  V30 8075 O 734.778 -5.04447 2.66251 0
M  V30 8076 O 733.712 -4.13417 4.37458 0
M  V30 8077 H 737.538 -1.24156 2.77162 0
M  V30 8078 H 735.123 -0.550201 1.389 0
M  V30 8079 H 737.005 -3.61732 2.16167 0
M  V30 8080 H 735.68 -3.03892 1.11496 0
M  V30 8081 H 734.587 -1.97813 3.17523 0
M  V30 8082 H 735.92 -2.6193 4.16718 0
M  V30 8083 N 737.572 -1.44907 -0.619662 0
M  V30 8084 C 738.502 -1.55488 -1.742 0
M  V30 8085 C 739.483 -0.407143 -1.65156 0
M  V30 8086 O 740.668 -0.628743 -1.8374 0
M  V30 8087 C 737.798 -1.5097 -3.1277 0
M  V30 8088 C 736.752 -2.64337 -3.36615 0
M  V30 8089 C 736.078 -2.44872 -4.75333 0
M  V30 8090 C 737.378 -4.06423 -3.28051 0
M  V30 8091 H 739.072 -2.49432 -1.65602 0
M  V30 8092 H 736.618 -1.20047 -0.795281 0
M  V30 8093 H 738.571 -1.56971 -3.91073 0
M  V30 8094 H 737.295 -0.535486 -3.2218 0
M  V30 8095 H 735.954 -2.57744 -2.60698 0
M  V30 8096 H 735.602 -1.45617 -4.81461 0
M  V30 8097 H 735.302 -3.20888 -4.92244 0
M  V30 8098 H 736.826 -2.52709 -5.55851 0
M  V30 8099 H 738.24 -4.14324 -3.96243 0
M  V30 8100 H 736.637 -4.82733 -3.56495 0
M  V30 8101 H 737.707 -4.29183 -2.25676 0
M  V30 8102 N 739.05 0.861098 -1.31996 0
M  V30 8103 C 740.29 1.62873 -1.23498 0
M  V30 8104 C 740.654 1.90938 0.201692 0
M  V30 8105 O 741.855 2.6565 0.410305 0
M  V30 8106 C 740.126 2.91759 -2.06426 0
M  V30 8107 S 741.685 3.82583 -2.14885 0
M  V30 8108 H 738.503 0.558726 -0.439712 0
M  V30 8109 H 741.105 1.02025 -1.66767 0
M  V30 8110 H 739.809 2.69077 -3.0988 0
M  V30 8111 H 739.34 3.57627 -1.6391 0
M  V30 8112 H 741.355 4.7904 -1.29364 0
M  V30 8113 N 740.528 1.15101 1.07655 0
M  V30 8114 C 741.491 0.847625 2.12951 0
M  V30 8115 C 742.491 -0.151227 1.60087 0
M  V30 8116 O 743.681 0.0780399 1.74025 0
M  V30 8117 C 740.813 0.265 3.39868 0
M  V30 8118 H 742.006 1.7809 2.41296 0
M  V30 8119 H 739.559 0.958072 1.23494 0
M  V30 8120 H 740.294 -0.676625 3.17163 0
M  V30 8121 H 740.079 0.984554 3.79538 0
M  V30 8122 H 741.569 0.0702121 4.17541 0
M  V30 8123 N 742.006 -1.2595 0.947325 0
M  V30 8124 C 742.936 -2.28521 0.479604 0
M  V30 8125 C 743.917 -1.63469 -0.470293 0
M  V30 8126 O 745.102 -1.90627 -0.370824 0
M  V30 8127 C 742.232 -3.46397 -0.250289 0
M  V30 8128 C 741.186 -4.23578 0.613643 0
M  V30 8129 C 740.512 -5.34131 -0.246568 0
M  V30 8130 C 741.812 -4.86979 1.88809 0
M  V30 8131 H 743.506 -2.67895 1.33688 0
M  V30 8132 H 741.052 -1.28783 0.644274 0
M  V30 8133 H 743.005 -4.17269 -0.588576 0
M  V30 8134 H 741.729 -3.05993 -1.14175 0
M  V30 8135 H 740.388 -3.54478 0.93491 0
M  V30 8136 H 740.036 -4.89968 -1.13756 0
M  V30 8137 H 739.736 -5.86683 0.328123 0
M  V30 8138 H 741.26 -6.07839 -0.579986 0
M  V30 8139 H 742.674 -5.50034 1.61666 0
M  V30 8140 H 741.071 -5.49675 2.40784 0
M  V30 8141 H 742.141 -4.09575 2.5957 0
M  V30 8142 N 743.484 -0.715051 -1.40445 0
M  V30 8143 C 744.417 -0.0112426 -2.28197 0
M  V30 8144 C 745.395 0.768211 -1.43308 0
M  V30 8145 O 746.579 0.754961 -1.72721 0
M  V30 8146 C 743.706 0.991453 -3.23864 0
M  V30 8147 C 742.752 0.302873 -4.25423 0
M  V30 8148 S 743.585 -0.968852 -5.26663 0
M  V30 8149 C 744.741 0.0317538 -6.25892 0
M  V30 8150 H 744.974 -0.755467 -2.87541 0
M  V30 8151 H 742.507 -0.506054 -1.45871 0
M  V30 8152 H 744.465 1.56475 -3.79507 0
M  V30 8153 H 743.126 1.70838 -2.63578 0
M  V30 8154 H 742.319 1.06086 -4.92709 0
M  V30 8155 H 741.921 -0.197853 -3.73476 0
M  V30 8156 H 744.213 0.878764 -6.71777 0
M  V30 8157 H 745.156 -0.607698 -7.05488 0
M  V30 8158 H 745.564 0.39524 -5.63115 0
M  V30 8159 N 744.962 1.50701 -0.461195 0
M  V30 8160 C 746.209 2.02267 0.0971971 0
M  V30 8161 C 746.537 1.34387 1.40608 0
M  V30 8162 O 745.792 0.455254 1.90331 0
M  V30 8163 C 746.091 3.55788 0.33908 0
M  V30 8164 C 745.757 4.42092 -0.886885 0
M  V30 8165 C 744.419 4.65398 -1.22304 0
M  V30 8166 C 746.771 4.92571 -1.70361 0
M  V30 8167 C 744.099 5.36429 -2.37616 0
M  V30 8168 C 746.451 5.64868 -2.84793 0
M  V30 8169 C 745.115 5.86431 -3.18834 0
M  V30 8170 H 744.385 0.740146 0.0355669 0
M  V30 8171 H 747.032 1.81415 -0.61326 0
M  V30 8172 H 745.337 3.751 1.13168 0
M  V30 8173 H 747.034 3.93243 0.784937 0
M  V30 8174 H 743.624 4.24165 -0.614981 0
M  V30 8175 H 747.808 4.74428 -1.4571 0
M  V30 8176 H 743.064 5.51333 -2.64276 0
M  V30 8177 H 747.238 6.02966 -3.48432 0
M  V30 8178 H 744.865 6.41248 -4.08296 0
M  V30 8179 N 746.441 0.193421 1.56409 0
M  V30 8180 C 747.666 -0.454552 2.02358 0
M  V30 8181 C 748.091 -1.54516 1.07268 0
M  V30 8182 O 747.449 -1.81214 0.0558962 0
M  V30 8183 C 747.497 -0.989469 3.46759 0
M  V30 8184 O 746.601 -2.10244 3.54783 0
M  V30 8185 H 745.942 -0.106417 0.655417 0
M  V30 8186 H 748.472 0.303807 2.02332 0
M  V30 8187 H 748.482 -1.30649 3.86516 0
M  V30 8188 H 747.157 -0.191083 4.15461 0
M  V30 8189 H 745.734 -1.79419 3.26899 0
M  V30 8190 N 747.919 -1.57396 -0.0801906 0
M  V30 8191 C 748.849 -2.06145 -1.09665 0
M  V30 8192 C 749.83 -0.953273 -1.40878 0
M  V30 8193 O 751.015 -1.22548 -1.50651 0
M  V30 8194 C 748.145 -2.49836 -2.41245 0
M  V30 8195 C 747.099 -3.64454 -2.24405 0
M  V30 8196 C 746.425 -3.94172 -3.61293 0
M  V30 8197 C 747.725 -4.94807 -1.67223 0
M  V30 8198 H 749.419 -2.91316 -0.691028 0
M  V30 8199 H 746.965 -1.40145 -0.330957 0
M  V30 8200 H 748.918 -2.82552 -3.12638 0
M  V30 8201 H 747.642 -1.61683 -2.83771 0
M  V30 8202 H 746.301 -3.32008 -1.55454 0
M  V30 8203 H 745.949 -3.03163 -4.01374 0
M  V30 8204 H 745.649 -4.71345 -3.50867 0
M  V30 8205 H 747.173 -4.29376 -4.3413 0
M  V30 8206 H 748.587 -5.25807 -2.28472 0
M  V30 8207 H 746.984 -5.76245 -1.67515 0
M  V30 8208 H 748.054 -4.80751 -0.632944 0
M  V30 8209 N 749.397 0.351382 -1.53633 0
M  V30 8210 C 750.674 1.10903 -1.6112 0
M  V30 8211 C 751.054 2.06725 -0.427556 0
M  V30 8212 O 750.402 2.20992 0.580916 0
M  V30 8213 C 750.612 1.83561 -2.96827 0
M  V30 8214 C 751.96 2.37587 -3.51906 0
M  V30 8215 O 752.984 1.93669 -2.9895 0
M  V30 8216 O 751.843 3.17913 -4.44515 0
M  V30 8217 H 748.937 0.509558 -0.651368 0
M  V30 8218 H 751.483 0.353504 -1.65977 0
M  V30 8219 H 750.255 1.1371 -3.74414 0
M  V30 8220 H 749.878 2.6599 -2.95525 0
M  V30 8221 N 750.875 1.45233 0.611969 0
M  V30 8222 C 752.121 1.50233 1.37119 0
M  V30 8223 C 752.476 0.140336 1.91888 0
M  V30 8224 O 751.769 -0.847161 1.71854 0
M  V30 8225 C 751.963 2.51353 2.54079 0
M  V30 8226 C 751.792 3.97251 2.10764 0
M  V30 8227 C 750.562 4.65256 1.97141 0
M  V30 8228 C 752.76 4.85914 1.68499 0
M  V30 8229 N 750.742 5.95895 1.4759 0
M  V30 8230 C 752.113 6.06147 1.30331 0
M  V30 8231 C 754.168 4.72813 1.56051 0
M  V30 8232 C 752.871 7.14729 0.809591 0
M  V30 8233 C 754.897 5.8144 1.08083 0
M  V30 8234 C 754.259 7.00825 0.708775 0
M  V30 8235 H 750.358 0.604708 0.495835 0
M  V30 8236 H 752.942 1.81679 0.700055 0
M  V30 8237 H 751.113 2.21866 3.18795 0
M  V30 8238 H 752.845 2.46528 3.20945 0
M  V30 8239 H 749.6 4.20345 2.18191 0
M  V30 8240 H 750.024 6.65349 1.25059 0
M  V30 8241 H 754.666 3.80931 1.83443 0
M  V30 8242 H 752.384 8.06404 0.523215 0
M  V30 8243 H 755.97 5.73335 0.988842 0
M  V30 8244 H 754.85 7.83448 0.343305 0
M  V30 8245 N 752.353 -0.854086 1.3245 0
M  V30 8246 C 753.602 -1.60318 1.22397 0
M  V30 8247 C 753.915 -1.9444 -0.212664 0
M  V30 8248 O 755.121 -2.67991 -0.435066 0
M  V30 8249 C 753.577 -2.8909 2.1437 0
M  V30 8250 C 753.185 -2.62391 3.63119 0
M  V30 8251 C 754.929 -3.67104 2.13155 0
M  V30 8252 C 752.836 -3.87167 4.47052 0
M  V30 8253 H 751.766 -0.601586 0.454544 0
M  V30 8254 H 754.417 -0.943023 1.57415 0
M  V30 8255 H 752.799 -3.56567 1.72268 0
M  V30 8256 H 753.973 -2.03222 4.13567 0
M  V30 8257 H 752.288 -1.97706 3.66471 0
M  V30 8258 H 754.885 -4.59696 2.731 0
M  V30 8259 H 755.228 -4.00876 1.12268 0
M  V30 8260 H 755.761 -3.06533 2.5354 0
M  V30 8261 H 752.5 -3.58536 5.48755 0
M  V30 8262 H 752.02 -4.45729 4.01355 0
M  V30 8263 H 753.699 -4.549 4.60081 0
M  V30 8264 N 753.831 -1.1567 -1.07043 0
M  V30 8265 C 754.778 -0.856336 -2.14326 0
M  V30 8266 C 755.748 0.192051 -1.64986 0
M  V30 8267 O 756.933 0.0589148 -1.90709 0
M  V30 8268 C 754.073 -0.355227 -3.43267 0
M  V30 8269 C 753.186 -1.46555 -4.06381 0
M  V30 8270 C 752.321 -0.920245 -5.23168 0
M  V30 8271 C 751.36 -2.00729 -5.78251 0
M  V30 8272 N 750.497 -1.47813 -6.86364 0
M  V30 8273 H 755.337 -1.77514 -2.39359 0
M  V30 8274 H 752.874 -0.885676 -1.17449 0
M  V30 8275 H 754.832 -0.0463804 -4.17174 0
M  V30 8276 H 753.462 0.526649 -3.18475 0
M  V30 8277 H 752.514 -1.89052 -3.30096 0
M  V30 8278 H 753.826 -2.28616 -4.43324 0
M  V30 8279 H 752.98 -0.564127 -6.04072 0
M  V30 8280 H 751.719 -0.0688477 -4.87651 0
M  V30 8281 H 750.724 -2.3722 -4.95991 0
M  V30 8282 H 751.949 -2.86252 -6.15822 0
M  V30 8283 H 749.895 -0.649145 -6.5278 0
M  V30 8284 H 749.812 -2.23498 -7.22208 0
M  V30 8285 H 751.08 -1.15036 -7.70965 0
M  V30 8286 N 755.309 1.25446 -0.953992 0
M  V30 8287 C 756.272 2.24156 -0.478179 0
M  V30 8288 C 757.272 1.55278 0.417776 0
M  V30 8289 O 758.462 1.72866 0.215155 0
M  V30 8290 C 755.594 3.39495 0.309202 0
M  V30 8291 H 756.787 2.67764 -1.35064 0
M  V30 8292 H 754.34 1.37822 -0.737206 0
M  V30 8293 H 755.075 3.01307 1.19936 0
M  V30 8294 H 754.86 3.90679 -0.333562 0
M  V30 8295 H 756.35 4.12796 0.631594 0
M  V30 8296 N 756.787 0.722489 1.40064 0
M  V30 8297 C 757.734 0.0743738 2.3068 0
M  V30 8298 C 758.704 -0.743004 1.48555 0
M  V30 8299 O 759.889 -0.705536 1.77276 0
M  V30 8300 C 757.029 -0.836292 3.34814 0
M  V30 8301 C 756.142 -0.00764663 4.31999 0
M  V30 8302 C 755.277 -0.918428 5.232 0
M  V30 8303 C 754.316 -0.0842838 6.12042 0
M  V30 8304 N 753.453 -0.950316 6.95639 0
M  V30 8305 H 758.293 0.852794 2.85537 0
M  V30 8306 H 755.83 0.432222 1.40607 0
M  V30 8307 H 757.788 -1.3786 3.93765 0
M  V30 8308 H 756.418 -1.58082 2.81443 0
M  V30 8309 H 755.47 0.651928 3.74772 0
M  V30 8310 H 756.782 0.63786 4.94705 0
M  V30 8311 H 755.936 -1.52902 5.87116 0
M  V30 8312 H 754.675 -1.59774 4.60786 0
M  V30 8313 H 753.68 0.5392 5.4715 0
M  V30 8314 H 754.905 0.591628 6.76518 0
M  V30 8315 H 752.851 -1.61515 6.35806 0
M  V30 8316 H 752.768 -0.361004 7.55138 0
M  V30 8317 H 754.036 -1.54687 7.63997 0
M  V30 8318 N 758.265 -1.50454 0.469181 0
M  V30 8319 C 759.493 -2.06729 -0.0842134 0
M  V30 8320 C 759.908 -1.33326 -1.33677 0
M  V30 8321 O 759.265 -0.401977 -1.78018 0
M  V30 8322 C 759.316 -3.59557 -0.374253 0
M  V30 8323 O 759.037 -4.30192 0.828622 0
M  V30 8324 C 760.538 -4.32449 -0.974824 0
M  V30 8325 H 757.758 -0.670971 0.006231 0
M  V30 8326 H 760.302 -1.93645 0.657415 0
M  V30 8327 H 758.457 -3.7245 -1.06581 0
M  V30 8328 H 758.871 -5.21371 0.572066 0
M  V30 8329 H 760.345 -5.40361 -1.12755 0
M  V30 8330 H 760.822 -3.92819 -1.96442 0
M  V30 8331 H 761.428 -4.24082 -0.321703 0
M  V30 8332 N 759.743 -0.201713 -1.56304 0
M  V30 8333 C 760.653 0.728296 -2.23009 0
M  V30 8334 C 761.669 1.22945 -1.23128 0
M  V30 8335 O 762.845 1.27523 -1.55884 0
M  V30 8336 C 759.91 1.92792 -2.88153 0
M  V30 8337 C 758.971 1.47068 -4.03323 0
M  V30 8338 C 758.204 2.61312 -4.65351 0
M  V30 8339 O 758.427 3.7896 -4.26317 0
M  V30 8340 O 757.361 2.33646 -5.54701 0
M  V30 8341 H 761.187 0.190166 -3.03104 0
M  V30 8342 H 758.772 0.0278725 -1.49374 0
M  V30 8343 H 760.654 2.6289 -3.29343 0
M  V30 8344 H 759.329 2.45452 -2.11033 0
M  V30 8345 H 758.236 0.738299 -3.66742 0
M  V30 8346 H 759.569 0.990666 -4.82127 0
M  V30 8347 N 761.222 1.57436 0.0718424 0
M  V30 8348 C 762.152 2.06724 1.08571 0
M  V30 8349 C 763.133 0.960731 1.40371 0
M  V30 8350 O 764.318 1.23345 1.49999 0
M  V30 8351 C 761.448 2.51112 2.39916 0
M  V30 8352 C 760.402 3.65639 2.22469 0
M  V30 8353 C 759.728 3.96082 3.59198 0
M  V30 8354 C 761.028 4.95687 1.64596 0
M  V30 8355 H 762.722 2.91679 0.675569 0
M  V30 8356 H 760.268 1.40319 0.32352 0
M  V30 8357 H 762.221 2.84206 3.11135 0
M  V30 8358 H 760.945 1.63186 2.8291 0
M  V30 8359 H 759.604 3.32828 1.53691 0
M  V30 8360 H 759.252 3.05287 3.99761 0
M  V30 8361 H 758.952 4.73199 3.48362 0
M  V30 8362 H 760.476 4.31672 4.31847 0
M  V30 8363 H 761.89 5.27011 2.25681 0
M  V30 8364 H 760.287 5.77126 1.64457 0
M  V30 8365 H 761.357 4.8108 0.60744 0
M  V30 8366 N 762.7 -0.34323 1.53817 0
M  V30 8367 C 763.946 -1.08504 1.71332 0
M  V30 8368 C 764.279 -1.88294 0.475285 0
M  V30 8369 O 763.554 -1.87205 -0.527688 0
M  V30 8370 C 763.837 -2.02597 2.97702 0
M  V30 8371 C 763.69 -1.26268 4.31713 0
M  V30 8372 C 765.009 -3.0241 3.19744 0
M  V30 8373 H 762.128 -0.393072 0.623429 0
M  V30 8374 H 764.77 -0.363579 1.86489 0
M  V30 8375 H 762.92 -2.64118 2.8491 0
M  V30 8376 H 764.592 -0.673594 4.56356 0
M  V30 8377 H 762.835 -0.564696 4.30109 0
M  V30 8378 H 763.506 -1.95253 5.16314 0
M  V30 8379 H 765.982 -2.51004 3.31868 0
M  V30 8380 H 764.858 -3.65449 4.09558 0
M  V30 8381 H 765.119 -3.73806 2.36054 0
M  V30 8382 N 764.178 -1.45556 -0.604258 0
M  V30 8383 C 765.426 -1.4945 -1.36048 0
M  V30 8384 C 765.747 -0.138933 -1.94504 0
M  V30 8385 O 765.017 0.832097 -1.7735 0
M  V30 8386 H 763.597 -0.550381 -0.505064 0
M  V30 8387 H 766.259 -1.81535 -0.709308 0
M  V30 8388 H 765.355 -2.23519 -2.17821 0
M  V30 8389 N 765.656 0.84705 -1.32902 0
M  V30 8390 C 767.067 1.41785 -1.21466 0
M  V30 8391 C 767.418 1.95464 0.169767 0
M  V30 8392 O 766.543 1.88157 1.06892 0
M  V30 8393 C 767.138 2.57734 -2.19906 0
M  V30 8394 C 765.697 3.10791 -2.12334 0
M  V30 8395 C 764.844 1.83562 -2.07847 0
M  V30 8396 H 767.795 0.653532 -1.44619 0
M  V30 8397 H 767.816 3.35123 -1.80202 0
M  V30 8398 H 767.328 2.18635 -3.20656 0
M  V30 8399 H 765.429 3.54455 -1.14858 0
M  V30 8400 H 765.542 3.71519 -3.02506 0
M  V30 8401 H 763.906 2.03475 -1.53199 0
M  V30 8402 H 764.689 1.4667 -3.10392 0
M  V30 8403 N 767.134 1.16236 1.06428 0
M  V30 8404 C 768.097 0.870163 2.1204 0
M  V30 8405 C 769.097 -0.134239 1.60239 0
M  V30 8406 O 770.287 0.0964932 1.73933 0
M  V30 8407 C 767.419 0.301033 3.39568 0
M  V30 8408 H 768.612 1.8064 2.39394 0
M  V30 8409 H 766.165 0.971116 1.2247 0
M  V30 8410 H 766.9 -0.642948 3.17863 0
M  V30 8411 H 766.685 1.02475 3.78472 0
M  V30 8412 H 768.175 0.114494 4.17443 0
M  V30 8413 N 768.612 -1.24939 0.960631 0
M  V30 8414 C 769.562 -2.23388 0.456266 0
M  V30 8415 C 770.546 -1.54249 -0.45782 0
M  V30 8416 O 771.738 -1.7461 -0.289894 0
M  V30 8417 C 768.867 -3.42321 -0.259024 0
M  V30 8418 C 767.953 -4.18718 0.673478 0
M  V30 8419 N 768.344 -4.72394 1.8077 0
M  V30 8420 C 766.642 -4.43378 0.482859 0
M  V30 8421 C 767.343 -5.30316 2.3904 0
M  V30 8422 N 766.319 -5.17109 1.67629 0
M  V30 8423 H 770.121 -2.62499 1.32179 0
M  V30 8424 H 767.635 -1.40245 0.818851 0
M  V30 8425 H 769.632 -4.11997 -0.637527 0
M  V30 8426 H 768.292 -3.04732 -1.12108 0
M  V30 8427 H 769.303 -4.69345 2.18942 0
M  V30 8428 H 765.98 -4.16147 -0.335821 0
M  V30 8429 H 767.37 -5.82594 3.34715 0
M  V30 8430 N 770.09 -0.729906 -1.39679 0
M  V30 8431 C 771.02 -0.101618 -2.33279 0
M  V30 8432 C 772.001 0.729854 -1.53646 0
M  V30 8433 O 773.186 0.67587 -1.82059 0
M  V30 8434 C 770.316 0.81024 -3.37716 0
M  V30 8435 C 769.27 0.0833126 -4.27919 0
M  V30 8436 C 768.596 1.11185 -5.23012 0
M  V30 8437 C 769.896 -1.07107 -5.112 0
M  V30 8438 H 771.59 -0.883452 -2.86069 0
M  V30 8439 H 769.136 -0.426283 -1.37546 0
M  V30 8440 H 771.089 1.25927 -4.02145 0
M  V30 8441 H 769.813 1.62413 -2.83354 0
M  V30 8442 H 768.472 -0.346043 -3.64963 0
M  V30 8443 H 768.12 1.91917 -4.64948 0
M  V30 8444 H 767.82 0.63026 -5.8421 0
M  V30 8445 H 769.344 1.56068 -5.90318 0
M  V30 8446 H 770.758 -0.700726 -5.69002 0
M  V30 8447 H 769.155 -1.48196 -5.81514 0
M  V30 8448 H 770.225 -1.89513 -4.46332 0
M  V30 8449 N 771.568 1.50203 -0.477153 0
M  V30 8450 C 772.817 2.01551 0.0774548 0
M  V30 8451 C 773.13 1.36359 1.40234 0
M  V30 8452 O 774.336 1.78898 2.04225 0
M  V30 8453 C 772.792 3.59406 0.188539 0
M  V30 8454 C 772.4 4.3356 -1.12828 0
M  V30 8455 C 774.144 4.18776 0.694782 0
M  V30 8456 C 772.051 5.83213 -0.98066 0
M  V30 8457 H 770.981 0.75329 0.0327212 0
M  V30 8458 H 773.632 1.72959 -0.612969 0
M  V30 8459 H 772.014 3.84611 0.942881 0
M  V30 8460 H 773.188 4.20074 -1.89405 0
M  V30 8461 H 771.503 3.85827 -1.5661 0
M  V30 8462 H 774.1 5.28338 0.822356 0
M  V30 8463 H 774.443 3.80557 1.68766 0
M  V30 8464 H 774.976 3.978 -0.00234519 0
M  V30 8465 H 771.715 6.25914 -1.94709 0
M  V30 8466 H 771.235 5.99256 -0.255375 0
M  V30 8467 H 772.914 6.4373 -0.649717 0
M  V30 8468 N 773.046 0.209999 1.56195 0
M  V30 8469 C 773.996 -0.717978 2.164 0
M  V30 8470 C 774.98 -1.16577 1.10899 0
M  V30 8471 O 776.172 -1.12169 1.3692 0
M  V30 8472 C 773.301 -1.93091 2.8385 0
M  V30 8473 C 772.387 -1.50333 3.96561 0
M  V30 8474 N 772.778 -0.787621 4.9963 0
M  V30 8475 C 771.076 -1.79151 4.08437 0
M  V30 8476 C 771.777 -0.571204 5.78889 0
M  V30 8477 N 770.753 -1.12444 5.31843 0
M  V30 8478 H 774.555 -0.162603 2.9345 0
M  V30 8479 H 772.069 0.0107928 1.62396 0
M  V30 8480 H 774.066 -2.60635 3.25384 0
M  V30 8481 H 772.726 -2.49087 2.08293 0
M  V30 8482 H 773.737 -0.441513 5.16015 0
M  V30 8483 H 770.414 -2.36549 3.44022 0
M  V30 8484 H 771.804 -0.00237941 6.719 0
M  V30 8485 N 774.524 -1.57472 -0.0634922 0
M  V30 8486 C 775.434 -2.07621 -1.09227 0
M  V30 8487 C 776.45 -1.00746 -1.41867 0
M  V30 8488 O 777.626 -1.32269 -1.51878 0
M  V30 8489 C 774.691 -2.51707 -2.38421 0
M  V30 8490 C 773.752 -3.72917 -2.12676 0
M  V30 8491 C 772.985 -4.14891 -3.3571 0
M  V30 8492 O 773.208 -3.56663 -4.45137 0
M  V30 8493 O 772.142 -5.07616 -3.23434 0
M  V30 8494 H 775.968 -2.95612 -0.696205 0
M  V30 8495 H 773.553 -1.46787 -0.27819 0
M  V30 8496 H 775.435 -2.80547 -3.14438 0
M  V30 8497 H 774.11 -1.66842 -2.77391 0
M  V30 8498 H 773.017 -3.49148 -1.34337 0
M  V30 8499 H 774.35 -4.5866 -1.78583 0
M  V30 8500 N 776.003 0.335068 -1.53997 0
M  V30 8501 C 777.25 1.07435 -1.71651 0
M  V30 8502 C 777.578 1.88378 -0.48413 0
M  V30 8503 O 776.833 1.8827 0.534139 0
M  V30 8504 C 777.132 2.0364 -2.9371 0
M  V30 8505 C 776.798 1.38942 -4.28959 0
M  V30 8506 C 775.46 1.21027 -4.65732 0
M  V30 8507 C 777.812 0.924083 -5.12943 0
M  V30 8508 C 775.14 0.552097 -5.84097 0
M  V30 8509 C 777.492 0.27978 -6.31981 0
M  V30 8510 C 776.156 0.0883843 -6.67441 0
M  V30 8511 H 775.426 0.393133 -0.628114 0
M  V30 8512 H 778.073 0.352712 -1.88224 0
M  V30 8513 H 776.378 2.82215 -2.71775 0
M  V30 8514 H 778.075 2.6085 -3.04562 0
M  V30 8515 H 774.665 1.53885 -4.00022 0
M  V30 8516 H 778.849 1.05032 -4.85059 0
M  V30 8517 H 774.105 0.392502 -6.10139 0
M  V30 8518 H 778.279 -0.0888479 -6.96343 0
M  V30 8519 H 775.906 -0.423657 -7.59019 0
M  V30 8520 N 777.481 1.45874 0.596531 0
M  V30 8521 C 778.727 1.5069 1.35722 0
M  V30 8522 C 779.06 0.152506 1.936 0
M  V30 8523 O 778.335 -0.834411 1.75692 0
M  V30 8524 C 778.618 2.59474 2.4969 0
M  V30 8525 C 778.471 4.04396 1.96937 0
M  V30 8526 C 779.79 2.64451 3.51787 0
M  V30 8527 H 776.909 0.548611 0.492133 0
M  V30 8528 H 779.551 1.77741 0.671428 0
M  V30 8529 H 777.701 2.36539 3.08191 0
M  V30 8530 H 779.373 4.38576 1.43 0
M  V30 8531 H 777.616 4.14529 1.27859 0
M  V30 8532 H 778.287 4.76218 2.79143 0
M  V30 8533 H 780.763 2.85031 3.03145 0
M  V30 8534 H 779.639 3.42411 4.29006 0
M  V30 8535 H 779.9 1.69965 4.08123 0
M  V30 8536 N 778.959 -0.83999 1.33349 0
M  V30 8537 C 779.869 -1.98182 1.25543 0
M  V30 8538 C 780.885 -1.73204 0.166208 0
M  V30 8539 O 782.061 -1.97596 0.389589 0
M  V30 8540 C 779.126 -3.32157 0.993614 0
M  V30 8541 C 778.187 -3.70258 2.17273 0
M  V30 8542 C 777.42 -4.9784 1.92331 0
M  V30 8543 O 777.643 -5.63679 0.873074 0
M  V30 8544 O 776.577 -5.33418 2.78835 0
M  V30 8545 H 780.403 -2.07708 2.21565 0
M  V30 8546 H 777.988 -0.972852 1.13384 0
M  V30 8547 H 779.87 -4.12433 0.864711 0
M  V30 8548 H 778.545 -3.23637 0.0636596 0
M  V30 8549 H 777.452 -2.90497 2.35716 0
M  V30 8550 H 778.785 -3.83442 3.08598 0
M  V30 8551 N 780.437 -1.16799 -1.0581 0
M  V30 8552 C 781.667 -0.975454 -1.82122 0
M  V30 8553 C 782.075 0.479584 -1.83021 0
M  V30 8554 O 781.418 1.34471 -1.25153 0
M  V30 8555 C 781.48 -1.43209 -3.29744 0
M  V30 8556 C 781.144 -2.908 -3.5254 0
M  V30 8557 C 782.141 -3.88775 -3.45181 0
M  V30 8558 C 779.826 -3.28832 -3.79703 0
M  V30 8559 C 781.82 -5.22782 -3.64661 0
M  V30 8560 C 779.507 -4.63007 -3.98832 0
M  V30 8561 C 780.505 -5.59791 -3.91309 0
M  V30 8562 O 780.193 -6.9154 -4.09911 0
M  V30 8563 H 779.925 -0.345655 -0.580947 0
M  V30 8564 H 782.479 -1.55355 -1.34365 0
M  V30 8565 H 780.709 -0.797504 -3.78387 0
M  V30 8566 H 782.398 -1.2062 -3.87564 0
M  V30 8567 H 783.164 -3.60738 -3.2418 0
M  V30 8568 H 779.043 -2.54073 -3.84666 0
M  V30 8569 H 782.587 -5.98312 -3.58705 0
M  V30 8570 H 778.484 -4.90752 -4.19324 0
M  V30 8571 H 779.252 -6.98188 -4.27172 0
M  V30 8572 N 781.915 1.24427 -0.967243 0
M  V30 8573 C 783.331 1.44684 -0.6737 0
M  V30 8574 C 783.531 1.86429 0.764625 0
M  V30 8575 O 782.587 2.00211 1.53857 0
M  V30 8576 C 783.9 2.509 -1.6574 0
M  V30 8577 C 785.448 2.64728 -1.66998 0
M  V30 8578 C 785.923 3.7414 -2.64165 0
M  V30 8579 N 787.414 3.81567 -2.62604 0
M  V30 8580 C 788.149 4.6575 -3.34462 0
M  V30 8581 N 787.645 5.54124 -4.15835 0
M  V30 8582 N 789.438 4.59827 -3.23288 0
M  V30 8583 H 781.589 0.956276 -1.89655 0
M  V30 8584 H 783.852 0.48171 -0.816492 0
M  V30 8585 H 783.558 2.27113 -2.68538 0
M  V30 8586 H 783.432 3.4905 -1.42981 0
M  V30 8587 H 785.819 2.87872 -0.649121 0
M  V30 8588 H 785.9 1.66936 -1.93819 0
M  V30 8589 H 785.544 3.51745 -3.66384 0
M  V30 8590 H 785.474 4.71444 -2.34623 0
M  V30 8591 H 787.965 3.18403 -2.03539 0
M  V30 8592 H 788.278 6.15316 -4.67553 0
M  V30 8593 H 786.623 5.53791 -4.19929 0
M  V30 8594 H 789.814 3.898 -2.59179 0
M  V30 8595 H 789.987 5.25208 -3.79553 0
M  V30 8596 N 783.393 0.737304 1.3929 0
M  V30 8597 C 784.343 0.0748537 2.27877 0
M  V30 8598 C 785.327 -0.71022 1.44377 0
M  V30 8599 O 786.519 -0.578851 1.67267 0
M  V30 8600 C 783.648 -0.82991 3.33118 0
M  V30 8601 C 782.734 -0.0388619 4.24082 0
M  V30 8602 N 783.125 0.989182 4.96033 0
M  V30 8603 C 781.423 -0.268167 4.45193 0
M  V30 8604 C 782.124 1.46639 5.62914 0
M  V30 8605 N 781.1 0.784581 5.37908 0
M  V30 8606 H 784.902 0.862457 2.80961 0
M  V30 8607 H 782.416 0.571845 1.51999 0
M  V30 8608 H 784.413 -1.31999 3.95452 0
M  V30 8609 H 783.073 -1.61665 2.81593 0
M  V30 8610 H 784.084 1.3706 4.99435 0
M  V30 8611 H 780.761 -1.02953 4.04607 0
M  V30 8612 H 782.151 2.32182 6.30508 0
M  V30 8613 N 784.871 -1.49948 0.485112 0
M  V30 8614 C 786.12 -2.01589 -0.066765 0
M  V30 8615 C 786.433 -1.371 -1.39509 0
M  V30 8616 O 787.639 -1.79978 -2.03274 0
M  V30 8617 C 786.095 -3.59501 -0.169476 0
M  V30 8618 C 785.703 -4.32955 1.15126 0
M  V30 8619 C 787.447 -4.19138 -0.672564 0
M  V30 8620 C 785.354 -5.82684 1.01158 0
M  V30 8621 H 784.284 -0.753453 -0.0287259 0
M  V30 8622 H 786.935 -1.72632 0.622132 0
M  V30 8623 H 785.317 -3.85106 -0.922471 0
M  V30 8624 H 786.491 -4.19064 1.9163 0
M  V30 8625 H 784.806 -3.84991 1.58654 0
M  V30 8626 H 787.403 -5.28767 -0.794325 0
M  V30 8627 H 787.746 -3.81447 -1.66745 0
M  V30 8628 H 788.279 -3.97793 0.0234415 0
M  V30 8629 H 785.018 -6.24873 1.98025 0
M  V30 8630 H 784.538 -5.99112 0.287151 0
M  V30 8631 H 786.217 -6.43376 0.683847 0
M  V30 8632 N 786.349 -0.21828 -1.56081 0
M  V30 8633 C 787.279 0.687922 -2.23136 0
M  V30 8634 C 788.26 1.20357 -1.202 0
M  V30 8635 O 789.445 1.24817 -1.48776 0
M  V30 8636 C 786.575 1.89762 -2.90874 0
M  V30 8637 C 785.529 1.51595 -4.00254 0
M  V30 8638 C 784.855 2.80415 -4.55271 0
M  V30 8639 C 786.155 0.708404 -5.17474 0
M  V30 8640 H 787.849 0.128854 -2.99123 0
M  V30 8641 H 785.395 0.0605354 -1.43873 0
M  V30 8642 H 787.348 2.53699 -3.36474 0
M  V30 8643 H 786.072 2.4816 -2.1233 0
M  V30 8644 H 784.731 0.900058 -3.55379 0
M  V30 8645 H 784.379 3.36951 -3.73461 0
M  V30 8646 H 784.079 2.55613 -5.2909 0
M  V30 8647 H 785.603 3.453 -5.03587 0
M  V30 8648 H 787.017 1.2514 -5.59476 0
M  V30 8649 H 785.414 0.557593 -5.97504 0
M  V30 8650 H 786.484 -0.285679 -4.84058 0
M  V30 8651 N 787.827 1.57504 0.0551401 0
M  V30 8652 C 789.104 1.79155 0.785048 0
M  V30 8653 C 789.484 0.809995 1.94942 0
M  V30 8654 O 788.832 -0.153432 2.27984 0
M  V30 8655 C 789.042 3.26134 1.24247 0
M  V30 8656 C 790.39 3.90419 1.66908 0
M  V30 8657 O 791.414 3.30126 1.33772 0
M  V30 8658 O 790.273 4.96523 2.28314 0
M  V30 8659 H 787.367 0.735825 0.377479 0
M  V30 8660 H 789.913 1.69666 0.0339285 0
M  V30 8661 H 788.685 3.89145 0.410089 0
M  V30 8662 H 788.308 3.40411 2.05441 0
M  V30 8663 N 789.305 -0.326896 1.54172 0
M  V30 8664 C 790.215 -1.42525 1.86343 0
M  V30 8665 C 791.231 -1.56764 0.75505 0
M  V30 8666 O 792.407 -1.71924 1.04901 0
M  V30 8667 C 789.472 -2.77286 2.08119 0
M  V30 8668 C 788.533 -2.7225 3.31931 0
M  V30 8669 C 787.766 -4.00584 3.52659 0
M  V30 8670 O 787.989 -4.98686 2.76891 0
M  V30 8671 O 786.923 -4.04045 4.46129 0
M  V30 8672 H 790.749 -1.18249 2.79734 0
M  V30 8673 H 788.334 -0.520614 1.40036 0
M  V30 8674 H 790.216 -3.57065 2.23791 0
M  V30 8675 H 788.891 -3.01459 1.17917 0
M  V30 8676 H 787.798 -1.91033 3.21647 0
M  V30 8677 H 789.131 -2.53032 4.2218 0
M  V30 8678 N 790.784 -1.46188 -0.588786 0
M  V30 8679 C 791.731 -1.56292 -1.69828 0
M  V30 8680 C 792.701 -0.407581 -1.61022 0
M  V30 8681 O 793.886 -0.623532 -1.80324 0
M  V30 8682 C 791.026 -1.55341 -3.08161 0
M  V30 8683 C 790.139 -2.81564 -3.27636 0
M  V30 8684 C 789.274 -2.72158 -4.56183 0
M  V30 8685 C 788.313 -3.93348 -4.68981 0
M  V30 8686 N 787.45 -3.82365 -5.88848 0
M  V30 8687 H 792.29 -2.51066 -1.6053 0
M  V30 8688 H 789.827 -1.24562 -0.782474 0
M  V30 8689 H 791.785 -1.52776 -3.88221 0
M  V30 8690 H 790.415 -0.641034 -3.16371 0
M  V30 8691 H 789.467 -2.94136 -2.41223 0
M  V30 8692 H 790.779 -3.714 -3.32962 0
M  V30 8693 H 789.933 -2.67665 -5.44464 0
M  V30 8694 H 788.672 -1.79953 -4.53286 0
M  V30 8695 H 787.677 -3.98181 -3.7912 0
M  V30 8696 H 788.902 -4.86643 -4.73662 0
M  V30 8697 H 786.848 -2.92942 -5.86959 0
M  V30 8698 H 786.765 -4.65851 -5.95415 0
M  V30 8699 H 788.033 -3.81836 -6.79575 0
M  V30 8700 N 792.262 0.832906 -1.33792 0
M  V30 8701 C 793.539 1.57359 -1.16178 0
M  V30 8702 C 793.919 2.09372 0.269532 0
M  V30 8703 O 793.267 1.89993 1.26944 0
M  V30 8704 C 793.477 2.70279 -2.20795 0
M  V30 8705 C 794.825 3.39305 -2.55259 0
M  V30 8706 O 795.849 2.80526 -2.19508 0
M  V30 8707 O 794.708 4.45428 -3.16632 0
M  V30 8708 H 791.802 0.694025 -0.449731 0
M  V30 8709 H 794.348 0.875144 -1.45394 0
M  V30 8710 H 793.12 2.29527 -3.16911 0
M  V30 8711 H 792.743 3.47782 -1.927 0
M  V30 8712 N 793.74 1.17359 1.05189 0
M  V30 8713 C 794.98 0.972812 1.79766 0
M  V30 8714 C 795.344 -0.489832 1.85647 0
M  V30 8715 O 796.545 -0.809682 2.56315 0
M  V30 8716 C 794.816 1.59636 3.19767 0
M  V30 8717 S 796.375 1.54178 4.10822 0
M  V30 8718 H 793.193 0.34959 0.619119 0
M  V30 8719 H 795.795 1.49304 1.26209 0
M  V30 8720 H 794.499 2.65336 3.13089 0
M  V30 8721 H 794.03 1.07594 3.78401 0
M  V30 8722 H 796.045 0.549785 4.93145 0
M  V30 8723 N 795.218 -1.23913 0.973828 0
M  V30 8724 C 796.181 -2.23367 0.51378 0
M  V30 8725 C 797.181 -1.55923 -0.39302 0
M  V30 8726 O 798.371 -1.73187 -0.187626 0
M  V30 8727 C 795.503 -3.39944 -0.255152 0
M  V30 8728 H 796.696 -2.65581 1.39307 0
M  V30 8729 H 794.249 -1.36632 0.759039 0
M  V30 8730 H 794.984 -3.03177 -1.15127 0
M  V30 8731 H 794.769 -3.90098 0.395673 0
M  V30 8732 H 796.259 -4.13749 -0.565842 0
M  V30 8733 N 796.696 -0.74468 -1.38897 0
M  V30 8734 C 797.942 -0.297324 -2.00609 0
M  V30 8735 C 798.275 1.11547 -1.58968 0
M  V30 8736 O 797.55 1.76227 -0.823057 0
M  V30 8737 C 797.833 -0.410125 -3.57757 0
M  V30 8738 C 797.686 -1.86338 -4.09387 0
M  V30 8739 C 799.005 0.20176 -4.39637 0
M  V30 8740 H 796.124 -0.109509 -0.728819 0
M  V30 8741 H 798.766 -0.942653 -1.64967 0
M  V30 8742 H 796.916 0.139287 -3.8825 0
M  V30 8743 H 798.588 -2.47042 -3.89574 0
M  V30 8744 H 796.831 -2.38146 -3.62586 0
M  V30 8745 H 797.502 -1.89352 -5.18507 0
M  V30 8746 H 799.978 -0.266703 -4.15244 0
M  V30 8747 H 798.854 0.0925415 -5.48822 0
M  V30 8748 H 799.115 1.289 -4.22891 0
M  V30 8749 N 798.174 1.49689 -0.493057 0
M  V30 8750 C 799.399 2.07331 0.0535114 0
M  V30 8751 C 799.824 1.35196 1.30781 0
M  V30 8752 O 799.182 0.406246 1.7669 0
M  V30 8753 C 799.23 3.59364 0.29825 0
M  V30 8754 O 798.334 3.88819 1.37454 0
M  V30 8755 H 797.675 0.663612 -0.0227018 0
M  V30 8756 H 800.205 1.926 -0.690402 0
M  V30 8757 H 800.215 4.04515 0.532159 0
M  V30 8758 H 798.89 4.1128 -0.618207 0
M  V30 8759 H 797.467 3.55487 1.12621 0
M  V30 8760 N 799.652 0.226554 1.55963 0
M  V30 8761 C 800.562 -0.692725 2.24139 0
M  V30 8762 C 801.578 -1.20971 1.25068 0
M  V30 8763 O 802.754 -1.25027 1.57893 0
M  V30 8764 C 799.819 -1.88183 2.91184 0
M  V30 8765 C 798.88 -1.40633 4.05612 0
M  V30 8766 C 798.113 -2.53875 4.6945 0
M  V30 8767 O 798.336 -3.72129 4.32292 0
M  V30 8768 O 797.27 -2.24792 5.58348 0
M  V30 8769 H 801.096 -0.141921 3.03368 0
M  V30 8770 H 798.681 -0.0041049 1.49399 0
M  V30 8771 H 800.563 -2.57617 3.33484 0
M  V30 8772 H 799.238 -2.42064 2.14911 0
M  V30 8773 H 798.145 -0.67986 3.67871 0
M  V30 8774 H 799.478 -0.913838 4.83642 0
M  V30 8775 N 801.13 -1.57531 -0.0467866 0
M  V30 8776 C 802.078 -2.06455 -1.0714 0
M  V30 8777 C 803.072 -0.974744 -1.38546 0
M  V30 8778 O 804.278 -1.15974 -1.37659 0
M  V30 8779 H 800.653 -0.658607 -0.362962 0
M  V30 8780 H 802.624 -2.91613 -0.632813 0
M  V30 8781 C 801.373 -2.54481 -2.36927 0
M  V30 8782 H 800.696 -3.37946 -2.13617 0
M  V30 8783 H 802.136 -2.92442 -3.07007 0
M  V30 8784 C 800.595 -1.43836 -3.04652 0
M  V30 8785 O 801.125 -0.794531 -3.93764 0
M  V30 8786 N 799.331 -1.17727 -2.65686 0
M  V30 8787 H 798.878 -1.70265 -1.93307 0
M  V30 8788 H 798.836 -0.439051 -3.11319 0
M  V30 8789 N 802.608 0.318715 -1.54344 0
M  V30 8790 C 803.855 1.05608 -1.72781 0
M  V30 8791 C 804.183 1.87854 -0.504083 0
M  V30 8792 O 803.438 1.88826 0.51414 0
M  V30 8793 C 803.737 2.00514 -2.95853 0
M  V30 8794 C 803.403 1.34385 -4.30409 0
M  V30 8795 C 802.065 1.16081 -4.66989 0
M  V30 8796 C 804.417 0.869627 -5.13894 0
M  V30 8797 C 801.745 0.490114 -5.84649 0
M  V30 8798 C 804.097 0.212735 -6.32242 0
M  V30 8799 C 802.761 0.0175882 -6.67498 0
M  V30 8800 H 802.031 0.386449 -0.632249 0
M  V30 8801 H 804.678 0.332729 -1.88587 0
M  V30 8802 H 802.983 2.79317 -2.74753 0
M  V30 8803 H 804.68 2.57605 -3.07312 0
M  V30 8804 H 801.27 1.49634 -4.01631 0
M  V30 8805 H 805.454 0.998809 -4.86146 0
M  V30 8806 H 800.71 0.327767 -6.10521 0
M  V30 8807 H 804.884 -0.162699 -6.9621 0
M  V30 8808 H 802.511 -0.504137 -7.58527 0
M  V30 8809 N 804.086 1.46499 0.581025 0
M  V30 8810 C 805.018 1.53225 1.70455 0
M  V30 8811 C 806.031 0.420443 1.57277 0
M  V30 8812 O 807.22 0.688888 1.64671 0
M  V30 8813 C 804.32 1.39803 3.08721 0
M  V30 8814 C 803.493 2.65132 3.47884 0
M  V30 8815 C 802.552 2.45886 4.65217 0
M  V30 8816 O 801.578 3.19615 4.70993 0
M  V30 8817 N 802.78 1.5216 5.60203 0
M  V30 8818 H 805.545 2.50098 1.65139 0
M  V30 8819 H 803.106 1.42576 0.76705 0
M  V30 8820 H 805.098 1.24697 3.8501 0
M  V30 8821 H 803.668 0.51104 3.08394 0
M  V30 8822 H 802.888 2.95169 2.61284 0
M  V30 8823 H 804.176 3.48385 3.70817 0
M  V30 8824 H 803.574 0.913646 5.58273 0
M  V30 8825 H 802.131 1.43017 6.35916 0
M  V30 8826 N 805.565 -0.825799 1.34232 0
M  V30 8827 C 806.475 -1.9684 1.27638 0
M  V30 8828 C 807.491 -1.73018 0.184569 0
M  V30 8829 O 808.667 -1.97172 0.410525 0
M  V30 8830 C 805.732 -3.31084 1.02879 0
M  V30 8831 C 804.793 -3.67933 2.21188 0
M  V30 8832 C 804.026 -4.95772 1.976 0
M  V30 8833 O 804.249 -5.62721 0.93281 0
M  V30 8834 O 803.183 -5.30431 2.84477 0
M  V30 8835 H 807.009 -2.05346 2.23756 0
M  V30 8836 H 804.594 -0.960772 1.1441 0
M  V30 8837 H 806.476 -4.11492 0.908406 0
M  V30 8838 H 805.151 -3.23552 0.0979821 0
M  V30 8839 H 804.058 -2.87981 2.38784 0
M  V30 8840 H 805.391 -3.80147 3.12648 0
M  V30 8841 N 807.043 -1.17915 -1.04565 0
M  V30 8842 C 808.29 -0.971424 -1.77678 0
M  V30 8843 C 808.618 0.499401 -1.87979 0
M  V30 8844 O 807.873 1.38695 -1.38066 0
M  V30 8845 C 808.172 -1.56528 -3.213 0
M  V30 8846 C 807.838 -3.06138 -3.31044 0
M  V30 8847 C 806.5 -3.46974 -3.33411 0
M  V30 8848 C 808.852 -4.02151 -3.31548 0
M  V30 8849 C 806.18 -4.82406 -3.33918 0
M  V30 8850 C 808.532 -5.37492 -3.33595 0
M  V30 8851 C 807.196 -5.77782 -3.34251 0
M  V30 8852 H 806.466 -0.355469 -0.650171 0
M  V30 8853 H 809.113 -1.46902 -1.22849 0
M  V30 8854 H 807.418 -0.98955 -3.79098 0
M  V30 8855 H 809.115 -1.38003 -3.76505 0
M  V30 8856 H 805.705 -2.73589 -3.29919 0
M  V30 8857 H 809.889 -3.71656 -3.28916 0
M  V30 8858 H 805.145 -5.12927 -3.3274 0
M  V30 8859 H 809.319 -6.1166 -3.32934 0
M  V30 8860 H 806.946 -6.82702 -3.34397 0
M  V30 8861 N 808.521 1.23394 -0.980386 0
M  V30 8862 C 809.451 2.2717 -0.540024 0
M  V30 8863 C 810.432 1.64659 0.426787 0
M  V30 8864 O 811.617 1.91543 0.320153 0
M  V30 8865 C 808.747 3.46939 0.15836 0
M  V30 8866 C 807.701 4.21802 -0.725732 0
M  V30 8867 C 807.027 5.34597 0.104866 0
M  V30 8868 C 808.327 4.81802 -2.01654 0
M  V30 8869 H 810.021 2.64257 -1.40743 0
M  V30 8870 H 807.567 1.2703 -0.678193 0
M  V30 8871 H 809.52 4.18683 0.477737 0
M  V30 8872 H 808.244 3.08912 1.06022 0
M  V30 8873 H 806.903 3.51875 -1.02857 0
M  V30 8874 H 806.551 4.92812 1.00726 0
M  V30 8875 H 806.251 5.85607 -0.483557 0
M  V30 8876 H 807.775 6.09163 0.418624 0
M  V30 8877 H 809.189 5.45554 -1.76193 0
M  V30 8878 H 807.586 5.43098 -2.55273 0
M  V30 8879 H 808.656 4.02549 -2.70338 0
M  V30 8880 N 809.999 0.752036 1.385 0
M  V30 8881 C 811.224 0.316993 2.04963 0
M  V30 8882 C 811.649 -1.04582 1.56346 0
M  V30 8883 O 811.007 -1.66616 0.714755 0
M  V30 8884 C 811.055 0.347235 3.58924 0
M  V30 8885 O 810.159 -0.659296 4.07096 0
M  V30 8886 H 809.5 0.140652 0.648932 0
M  V30 8887 H 812.03 1.02272 1.77205 0
M  V30 8888 H 812.04 0.19757 4.07521 0
M  V30 8889 H 810.715 1.34157 3.93668 0
M  V30 8890 H 809.292 -0.474371 3.6987 0
M  V30 8891 N 811.477 -1.49425 0.500989 0
M  V30 8892 C 812.407 -2.31971 -0.266775 0
M  V30 8893 C 813.388 -1.40245 -0.962563 0
M  V30 8894 O 814.573 -1.69154 -0.953968 0
M  V30 8895 C 811.703 -3.20757 -1.33163 0
M  V30 8896 C 810.657 -4.21275 -0.75572 0
M  V30 8897 C 809.983 -4.98997 -1.92109 0
M  V30 8898 C 811.283 -5.21686 0.253213 0
M  V30 8899 H 812.977 -2.96408 0.422237 0
M  V30 8900 H 810.523 -1.4254 0.204505 0
M  V30 8901 H 812.476 -3.77315 -1.87646 0
M  V30 8902 H 811.2 -2.54263 -2.04983 0
M  V30 8903 H 809.859 -3.65861 -0.232637 0
M  V30 8904 H 809.507 -4.28951 -2.62698 0
M  V30 8905 H 809.207 -5.67011 -1.54182 0
M  V30 8906 H 810.731 -5.584 -2.47026 0
M  V30 8907 H 812.145 -5.72939 -0.203483 0
M  V30 8908 H 810.542 -5.9759 0.548322 0
M  V30 8909 H 811.612 -4.70596 1.16909 0
M  V30 8910 N 812.955 -0.234822 -1.55841 0
M  V30 8911 C 813.903 0.686145 -2.22249 0
M  V30 8912 C 814.897 1.18948 -1.20614 0
M  V30 8913 O 816.103 1.14777 -1.38659 0
M  V30 8914 H 812.478 0.239724 -0.712767 0
M  V30 8915 H 814.449 0.102762 -2.98223 0
M  V30 8916 C 813.198 1.8776 -2.92646 0
M  V30 8917 H 812.521 1.49943 -3.70617 0
M  V30 8918 H 813.961 2.4995 -3.42493 0
M  V30 8919 C 812.42 2.74127 -1.95847 0
M  V30 8920 O 812.95 3.7329 -1.48384 0
M  V30 8921 N 811.156 2.4044 -1.63209 0
M  V30 8922 H 810.703 1.59854 -2.02001 0
M  V30 8923 H 810.661 2.98504 -0.987063 0
M  V30 8924 N 814.433 1.57553 0.0384317 0
M  V30 8925 C 815.681 1.88468 0.729672 0
M  V30 8926 C 816.002 0.831302 1.76393 0
M  V30 8927 O 815.272 -0.13622 1.95426 0
M  V30 8928 H 813.852 0.695529 0.272485 0
M  V30 8929 H 816.514 1.94899 0.0066032 0
M  V30 8930 H 815.61 2.8705 1.22511 0
M  V30 8931 N 815.911 -0.310526 1.54511 0
M  V30 8932 C 816.861 -1.38405 1.81185 0
M  V30 8933 C 817.845 -1.46355 0.668499 0
M  V30 8934 O 819.037 -1.50668 0.928873 0
M  V30 8935 C 816.166 -2.75059 2.0542 0
M  V30 8936 C 815.252 -2.7137 3.25913 0
M  V30 8937 N 815.643 -2.37298 4.4668 0
M  V30 8938 C 813.941 -3.02484 3.27749 0
M  V30 8939 C 814.642 -2.42669 5.28665 0
M  V30 8940 N 813.618 -2.79639 4.66158 0
M  V30 8941 H 817.42 -1.11012 2.72128 0
M  V30 8942 H 814.934 -0.519068 1.53881 0
M  V30 8943 H 816.931 -3.52451 2.22674 0
M  V30 8944 H 815.591 -3.03372 1.15739 0
M  V30 8945 H 816.602 -2.09917 4.73451 0
M  V30 8946 H 813.279 -3.35754 2.48144 0
M  V30 8947 H 814.669 -2.19206 6.35136 0
M  V30 8948 N 817.389 -1.46805 -0.573248 0
M  V30 8949 C 818.319 -1.60951 -1.69165 0
M  V30 8950 C 819.3 -0.45948 -1.63777 0
M  V30 8951 O 820.485 -0.68688 -1.81647 0
M  V30 8952 C 817.615 -1.60844 -3.07809 0
M  V30 8953 C 816.569 -2.74913 -3.28035 0
M  V30 8954 C 815.895 -2.59871 -4.67302 0
M  V30 8955 C 817.195 -4.16654 -3.14955 0
M  V30 8956 H 818.889 -2.54574 -1.57582 0
M  V30 8957 H 816.435 -1.22516 -0.756686 0
M  V30 8958 H 818.388 -1.69334 -3.85881 0
M  V30 8959 H 817.112 -0.637714 -3.20314 0
M  V30 8960 H 815.771 -2.65908 -2.52366 0
M  V30 8961 H 815.419 -1.60861 -4.76585 0
M  V30 8962 H 815.119 -3.36386 -4.81786 0
M  V30 8963 H 816.643 -2.70265 -5.4753 0
M  V30 8964 H 818.057 -4.26721 -3.82861 0
M  V30 8965 H 816.454 -4.93831 -3.40956 0
M  V30 8966 H 817.524 -4.36146 -2.11908 0
M  V30 8967 N 818.867 0.818669 -1.34668 0
M  V30 8968 C 819.797 1.94468 -1.29245 0
M  V30 8969 C 820.778 1.69257 -0.169101 0
M  V30 8970 O 821.963 1.90794 -0.362143 0
M  V30 8971 C 819.093 3.31001 -1.05145 0
M  V30 8972 C 818.047 3.70663 -2.13992 0
M  V30 8973 C 817.373 5.05226 -1.75074 0
M  V30 8974 C 818.673 3.82312 -3.55858 0
M  V30 8975 H 820.367 1.99263 -2.2346 0
M  V30 8976 H 817.913 0.957304 -1.07572 0
M  V30 8977 H 819.866 4.09364 -0.999949 0
M  V30 8978 H 818.59 3.26517 -0.0737312 0
M  V30 8979 H 817.249 2.94578 -2.18219 0
M  V30 8980 H 816.897 4.97233 -0.759518 0
M  V30 8981 H 816.597 5.32734 -2.47928 0
M  V30 8982 H 818.121 5.86042 -1.71427 0
M  V30 8983 H 819.535 4.50935 -3.5402 0
M  V30 8984 H 817.932 4.21278 -4.2737 0
M  V30 8985 H 819.002 2.84193 -3.9289 0
M  V30 8986 N 820.346 1.18468 1.03938 0
M  V30 8987 C 821.594 0.978895 1.76811 0
M  V30 8988 C 821.915 -0.49257 1.88676 0
M  V30 8989 O 821.185 -1.3572 1.41269 0
M  V30 8990 H 819.765 0.359201 0.654968 0
M  V30 8991 H 822.427 1.49173 1.25433 0
M  V30 8992 H 821.523 1.418 2.78027 0
M  V30 8993 N 821.824 -1.22873 0.986916 0
M  V30 8994 C 823.24 -1.43594 0.696633 0
M  V30 8995 C 823.44 -1.87622 -0.734869 0
M  V30 8996 O 822.496 -2.02633 -1.50652 0
M  V30 8997 C 823.809 -2.48231 1.69711 0
M  V30 8998 C 825.357 -2.62037 1.71188 0
M  V30 8999 C 825.832 -3.6989 2.70084 0
M  V30 9000 N 827.323 -3.77341 2.68641 0
M  V30 9001 C 828.058 -4.6037 3.41829 0
M  V30 9002 N 827.554 -5.47438 4.24598 0
M  V30 9003 N 829.347 -4.54626 3.30563 0
M  V30 9004 H 821.498 -0.925982 1.91153 0
M  V30 9005 H 823.761 -0.46866 0.824052 0
M  V30 9006 H 823.467 -2.22812 2.72117 0
M  V30 9007 H 823.341 -3.46731 1.48516 0
M  V30 9008 H 825.728 -2.86803 0.694837 0
M  V30 9009 H 825.809 -1.63831 1.96451 0
M  V30 9010 H 825.453 -3.45872 3.71934 0
M  V30 9011 H 825.383 -4.67652 2.42093 0
M  V30 9012 H 827.874 -3.15124 2.08578 0
M  V30 9013 H 828.187 -6.078 4.77283 0
M  V30 9014 H 826.532 -5.4704 4.28687 0
M  V30 9015 H 829.723 -3.85627 2.65347 0
M  V30 9016 H 829.896 -5.19103 3.8786 0
M  V30 9017 N 823.302 -0.75937 -1.38099 0
M  V30 9018 C 824.234 -0.0956547 -2.29 0
M  V30 9019 C 825.247 0.677561 -1.4803 0
M  V30 9020 O 826.436 0.517696 -1.70828 0
M  V30 9021 C 823.536 0.88844 -3.27047 0
M  V30 9022 C 822.709 0.171652 -4.37063 0
M  V30 9023 C 821.768 1.06733 -5.15262 0
M  V30 9024 O 820.794 0.535698 -5.66674 0
M  V30 9025 N 821.996 2.39486 -5.28797 0
M  V30 9026 H 824.761 -0.876354 -2.86601 0
M  V30 9027 H 822.322 -0.61065 -1.49942 0
M  V30 9028 H 824.314 1.49079 -3.76241 0
M  V30 9029 H 822.884 1.57018 -2.70304 0
M  V30 9030 H 822.104 -0.611473 -3.89429 0
M  V30 9031 H 823.392 -0.324121 -5.07767 0
M  V30 9032 H 822.79 2.85127 -4.88589 0
M  V30 9033 H 821.347 2.94758 -5.81344 0
M  V30 9034 N 824.78 1.49157 -0.508906 0
M  V30 9035 C 826.191 1.86593 -0.0630975 0
M  V30 9036 C 826.542 1.42051 1.35337 0
M  V30 9037 O 825.667 0.801866 2.00995 0
M  V30 9038 C 826.262 3.38629 -0.107729 0
M  V30 9039 C 824.821 3.75336 0.282776 0
M  V30 9040 C 823.968 2.7317 -0.4768 0
M  V30 9041 H 826.919 1.41362 -0.72128 0
M  V30 9042 H 826.94 3.74271 0.685689 0
M  V30 9043 H 826.452 3.71017 -1.13876 0
M  V30 9044 H 824.553 3.48558 1.31675 0
M  V30 9045 H 824.666 4.79081 -0.0421728 0
M  V30 9046 H 823.03 2.54591 0.0743552 0
M  V30 9047 H 823.813 3.08403 -1.50807 0
M  V30 9048 N 826.258 0.243083 1.55714 0
M  V30 9049 C 827.505 -0.38272 1.9885 0
M  V30 9050 C 827.833 -1.58225 1.13115 0
M  V30 9051 O 827.088 -1.94861 0.181067 0
M  V30 9052 C 827.387 -0.839621 3.47398 0
M  V30 9053 C 827.053 0.251737 4.50197 0
M  V30 9054 C 825.715 0.551487 4.78029 0
M  V30 9055 C 828.067 0.988728 5.11736 0
M  V30 9056 C 825.395 1.59237 5.64677 0
M  V30 9057 C 827.747 2.0191 5.99512 0
M  V30 9058 C 826.411 2.32554 6.2568 0
M  V30 9059 H 825.681 -0.140047 0.727645 0
M  V30 9060 H 828.328 0.35011 1.88272 0
M  V30 9061 H 826.633 -1.65159 3.55288 0
M  V30 9062 H 828.33 -1.33404 3.78159 0
M  V30 9063 H 824.92 0.00796741 4.28599 0
M  V30 9064 H 829.104 0.7704 4.90284 0
M  V30 9065 H 824.36 1.83517 5.83208 0
M  V30 9066 H 828.534 2.59511 6.46241 0
M  V30 9067 H 826.161 3.13349 6.92616 0
M  V30 9068 N 827.736 -1.57571 -0.0300757 0
M  V30 9069 C 829.147 -1.77567 -0.576802 0
M  V30 9070 C 829.498 -0.874034 -1.75656 0
M  V30 9071 O 828.623 -0.0686124 -2.16291 0
M  V30 9072 C 829.218 -3.22016 -1.05315 0
M  V30 9073 C 827.777 -3.43212 -1.5454 0
M  V30 9074 C 826.924 -2.73061 -0.483033 0
M  V30 9075 H 829.875 -1.57483 0.196151 0
M  V30 9076 H 829.896 -3.28474 -1.92055 0
M  V30 9077 H 829.408 -3.87613 -0.194298 0
M  V30 9078 H 827.509 -2.82788 -2.42615 0
M  V30 9079 H 827.622 -4.5182 -1.5936 0
M  V30 9080 H 825.986 -2.36805 -0.937835 0
M  V30 9081 H 826.769 -3.4134 0.366341 0
M  V30 9082 N 829.214 0.302327 -1.54673 0
M  V30 9083 C 830.162 1.39286 -1.86285 0
M  V30 9084 C 831.156 1.52553 -0.736478 0
M  V30 9085 O 832.362 1.54686 -0.92045 0
M  V30 9086 H 828.737 0.465228 -0.590819 0
M  V30 9087 H 830.708 1.09859 -2.77441 0
M  V30 9088 C 829.457 2.75155 -2.12567 0
M  V30 9089 H 828.78 2.65728 -2.98712 0
M  V30 9090 H 830.22 3.50476 -2.38627 0
M  V30 9091 C 828.679 3.23987 -0.923813 0
M  V30 9092 O 829.209 4.01443 -0.143649 0
M  V30 9093 N 827.415 2.81293 -0.72956 0
M  V30 9094 H 826.962 2.18421 -1.36565 0
M  V30 9095 H 826.92 3.14315 0.0730351 0
M  V30 9096 N 830.692 1.47107 0.565454 0
M  V30 9097 C 831.941 1.5257 1.31929 0
M  V30 9098 C 832.254 0.189092 1.94684 0
M  V30 9099 O 833.46 0.121657 2.71227 0
M  V30 9100 C 831.916 2.68914 2.39193 0
M  V30 9101 C 831.524 4.09069 1.82665 0
M  V30 9102 C 833.268 2.83663 3.1581 0
M  V30 9103 C 831.175 5.16726 2.87661 0
M  V30 9104 H 830.105 0.567869 0.496025 0
M  V30 9105 H 832.756 1.73361 0.60151 0
M  V30 9106 H 831.138 2.41486 3.13848 0
M  V30 9107 H 832.312 4.46364 1.14438 0
M  V30 9108 H 830.627 3.99135 1.1866 0
M  V30 9109 H 833.224 3.61261 3.94201 0
M  V30 9110 H 833.567 1.91804 3.69482 0
M  V30 9111 H 834.1 3.10821 2.48265 0
M  V30 9112 H 830.839 6.10433 2.38854 0
M  V30 9113 H 830.359 4.83957 3.54324 0
M  V30 9114 H 832.038 5.43319 3.51303 0
M  V30 9115 N 832.17 -0.811516 1.35101 0
M  V30 9116 C 833.416 -1.57068 1.28287 0
M  V30 9117 C 833.749 -1.93667 -0.143808 0
M  V30 9118 O 833.024 -1.60953 -1.09199 0
M  V30 9119 C 833.307 -2.86259 2.18466 0
M  V30 9120 C 833.16 -2.56168 3.69727 0
M  V30 9121 C 834.479 -3.87924 2.07852 0
M  V30 9122 H 831.598 -0.569869 0.467353 0
M  V30 9123 H 834.24 -0.934023 1.65457 0
M  V30 9124 H 832.39 -3.4059 1.86898 0
M  V30 9125 H 834.062 -2.08059 4.11715 0
M  V30 9126 H 832.305 -1.89436 3.90252 0
M  V30 9127 H 832.976 -3.48344 4.28206 0
M  V30 9128 H 835.452 -3.4298 2.35593 0
M  V30 9129 H 834.328 -4.76106 2.73157 0
M  V30 9130 H 834.589 -4.2923 1.05896 0
M  V30 9131 N 833.648 -1.19017 -1.03309 0
M  V30 9132 C 834.58 -0.881847 -2.11556 0
M  V30 9133 C 835.593 0.123711 -1.62329 0
M  V30 9134 O 836.782 -0.105141 -1.7819 0
M  V30 9135 C 833.882 -0.297634 -3.37591 0
M  V30 9136 C 833.055 -1.35072 -4.16022 0
M  V30 9137 C 832.114 -0.780812 -5.20375 0
M  V30 9138 O 831.14 -1.45745 -5.50224 0
M  V30 9139 N 832.342 0.417964 -5.78993 0
M  V30 9140 H 835.107 -1.81359 -2.38598 0
M  V30 9141 H 832.668 -1.0916 -1.19565 0
M  V30 9142 H 834.66 0.097374 -4.04583 0
M  V30 9143 H 833.23 0.538299 -3.0793 0
M  V30 9144 H 832.45 -1.92074 -3.4424 0
M  V30 9145 H 833.738 -2.06044 -4.65213 0
M  V30 9146 H 833.136 0.985281 -5.57054 0
M  V30 9147 H 831.693 0.754802 -6.47415 0
M  V30 9148 N 835.127 1.22348 -0.993418 0
M  V30 9149 C 836.057 2.26584 -0.564088 0
M  V30 9150 C 837.038 1.65102 0.409298 0
M  V30 9151 O 838.223 1.91872 0.299819 0
M  V30 9152 C 835.353 3.47087 0.121554 0
M  V30 9153 C 834.307 4.21009 -0.770429 0
M  V30 9154 C 833.633 5.34678 0.0481586 0
M  V30 9155 C 834.933 4.79636 -2.06752 0
M  V30 9156 H 836.627 2.62749 -1.43538 0
M  V30 9157 H 834.173 1.26303 -0.691628 0
M  V30 9158 H 836.126 4.19166 0.433303 0
M  V30 9159 H 834.85 3.1002 1.0274 0
M  V30 9160 H 833.509 3.50764 -1.06583 0
M  V30 9161 H 833.157 4.93852 0.954933 0
M  V30 9162 H 832.857 5.85061 -0.545641 0
M  V30 9163 H 834.381 6.09573 0.353991 0
M  V30 9164 H 835.795 5.43654 -1.81969 0
M  V30 9165 H 834.192 5.4036 -2.61019 0
M  V30 9166 H 835.262 3.99659 -2.74592 0
M  V30 9167 N 836.605 0.766683 1.37694 0
M  V30 9168 C 837.853 0.328065 1.9942 0
M  V30 9169 C 838.174 -1.09775 1.61166 0
M  V30 9170 O 837.444 -1.75288 0.874686 0
M  V30 9171 H 836.024 0.11831 0.737572 0
M  V30 9172 H 838.686 0.983686 1.68255 0
M  V30 9173 H 837.782 0.401647 3.09505 0
M  V30 9174 N 838.083 -1.48885 0.516809 0
M  V30 9175 C 839.013 -2.32241 -0.242157 0
M  V30 9176 C 839.994 -1.41258 -0.947633 0
M  V30 9177 O 841.179 -1.70156 -0.935973 0
M  V30 9178 C 838.309 -3.22151 -1.29754 0
M  V30 9179 C 837.263 -4.22053 -0.710995 0
M  V30 9180 C 836.589 -5.01007 -1.86806 0
M  V30 9181 C 837.889 -5.21388 0.30853 0
M  V30 9182 H 839.583 -2.95943 0.453651 0
M  V30 9183 H 837.129 -1.42316 0.219612 0
M  V30 9184 H 839.082 -3.79284 -1.83634 0
M  V30 9185 H 837.806 -2.56423 -2.02274 0
M  V30 9186 H 836.465 -3.66087 -0.193819 0
M  V30 9187 H 836.113 -4.31713 -2.58133 0
M  V30 9188 H 835.813 -5.68615 -1.48159 0
M  V30 9189 H 837.337 -5.60989 -2.4109 0
M  V30 9190 H 838.751 -5.73122 -0.142703 0
M  V30 9191 H 837.148 -5.96975 0.611673 0
M  V30 9192 H 838.218 -4.69329 1.21894 0
M  V30 9193 N 839.561 -0.251338 -1.55583 0
M  V30 9194 C 840.801 0.373651 -2.00956 0
M  V30 9195 C 841.165 1.54806 -1.13574 0
M  V30 9196 O 842.366 2.24108 -1.48422 0
M  V30 9197 C 840.637 0.768919 -3.49031 0
M  V30 9198 S 842.196 1.38381 -4.16409 0
M  V30 9199 H 839.014 0.117371 -0.701245 0
M  V30 9200 H 841.616 -0.367611 -1.92013 0
M  V30 9201 H 840.32 -0.0950492 -4.1029 0
M  V30 9202 H 839.851 1.54225 -3.61909 0
M  V30 9203 H 841.866 2.6728 -4.18062 0
M  V30 9204 N 841.039 1.57585 0.0217189 0
M  V30 9205 C 841.949 2.10444 1.03684 0
M  V30 9206 C 842.965 1.04472 1.39146 0
M  V30 9207 O 844.141 1.36249 1.48317 0
M  V30 9208 C 841.206 2.5794 2.31664 0
M  V30 9209 C 840.267 3.78425 2.02714 0
M  V30 9210 C 839.5 4.23646 3.24592 0
M  V30 9211 O 839.723 3.6834 4.35525 0
M  V30 9212 O 838.657 5.16013 3.09862 0
M  V30 9213 H 842.483 2.97354 0.617584 0
M  V30 9214 H 840.068 1.47473 0.239174 0
M  V30 9215 H 841.95 2.88785 3.06889 0
M  V30 9216 H 840.625 1.74138 2.7287 0
M  V30 9217 H 839.532 3.52587 1.25033 0
M  V30 9218 H 840.865 4.63234 1.66359 0
M  V30 9219 N 842.517 -0.29412 1.54831 0
M  V30 9220 C 843.928 -0.866651 1.65366 0
M  V30 9221 C 844.279 -1.87834 0.56681 0
M  V30 9222 O 843.404 -2.14374 -0.295389 0
M  V30 9223 C 843.999 -1.57869 2.99771 0
M  V30 9224 C 842.558 -2.09954 3.12404 0
M  V30 9225 C 841.705 -0.934492 2.6108 0
M  V30 9226 H 844.656 -0.0709551 1.58541 0
M  V30 9227 H 844.677 -2.44462 2.91579 0
M  V30 9228 H 844.189 -0.84212 3.78853 0
M  V30 9229 H 842.29 -2.86637 2.38055 0
M  V30 9230 H 842.403 -2.32934 4.18663 0
M  V30 9231 H 840.767 -1.32199 2.17705 0
M  V30 9232 H 841.55 -0.211768 3.42646 0
M  V30 9233 N 843.995 -1.47404 -0.557645 0
M  V30 9234 C 844.905 -1.62491 -1.69216 0
M  V30 9235 C 845.921 -0.507764 -1.66426 0
M  V30 9236 O 847.097 -0.775241 -1.85882 0
M  V30 9237 C 844.162 -1.63511 -3.05721 0
M  V30 9238 C 843.223 -2.86648 -3.1958 0
M  V30 9239 C 842.456 -2.87609 -4.49574 0
M  V30 9240 O 842.679 -1.97799 -5.35006 0
M  V30 9241 O 841.613 -3.79465 -4.67215 0
M  V30 9242 H 845.439 -2.58487 -1.59431 0
M  V30 9243 H 843.024 -1.30485 -0.7276 0
M  V30 9244 H 844.906 -1.66863 -3.86956 0
M  V30 9245 H 843.581 -0.706812 -3.15889 0
M  V30 9246 H 842.488 -2.8884 -2.37744 0
M  V30 9247 H 843.821 -3.7877 -3.14316 0
M  V30 9248 N 845.473 0.80434 -1.35529 0
M  V30 9249 C 846.701 1.59283 -1.32048 0
M  V30 9250 C 847.116 1.88527 0.101556 0
M  V30 9251 O 846.473 1.48975 1.05417 0
M  V30 9252 C 846.524 2.92276 -2.12737 0
M  V30 9253 O 846.245 2.64299 -3.49396 0
M  V30 9254 C 847.746 3.86631 -2.16867 0
M  V30 9255 H 844.966 0.494523 -0.453528 0
M  V30 9256 H 847.51 0.999415 -1.78415 0
M  V30 9257 H 845.665 3.48125 -1.69964 0
M  V30 9258 H 846.079 3.4923 -3.91329 0
M  V30 9259 H 847.553 4.77053 -2.77712 0
M  V30 9260 H 848.03 4.23384 -1.16803 0
M  V30 9261 H 848.636 3.36717 -2.59811 0
M  V30 9262 N 846.951 1.19563 1.02676 0
M  V30 9263 C 848.176 1.02556 1.80269 0
M  V30 9264 C 848.601 -0.421056 1.83327 0
M  V30 9265 O 847.959 -1.30279 1.26084 0
M  V30 9266 C 848.007 1.60165 3.23078 0
M  V30 9267 O 847.111 0.832404 4.03912 0
M  V30 9268 H 846.452 0.362354 0.556413 0
M  V30 9269 H 848.982 1.58633 1.29216 0
M  V30 9270 H 848.992 1.6347 3.7382 0
M  V30 9271 H 847.667 2.65454 3.20167 0
M  V30 9272 H 846.244 0.872768 3.62543 0
M  V30 9273 N 848.429 -1.21819 0.999893 0
M  V30 9274 C 849.339 -2.27691 0.565159 0
M  V30 9275 C 850.355 -1.69587 -0.389398 0
M  V30 9276 O 851.531 -1.99786 -0.254499 0
M  V30 9277 C 848.596 -3.46537 -0.106432 0
M  V30 9278 C 847.657 -4.19932 0.891964 0
M  V30 9279 C 846.89 -5.33103 0.252327 0
M  V30 9280 O 847.113 -5.62398 -0.952103 0
M  V30 9281 O 846.047 -5.94184 0.960698 0
M  V30 9282 H 849.873 -2.67059 1.44613 0
M  V30 9283 H 847.458 -1.28119 0.768499 0
M  V30 9284 H 849.34 -4.18631 -0.482301 0
M  V30 9285 H 848.015 -3.09079 -0.961865 0
M  V30 9286 H 846.922 -3.5008 1.3189 0
M  V30 9287 H 848.255 -4.61287 1.71682 0
M  V30 9288 N 849.908 -0.773975 -1.37286 0
M  V30 9289 C 851.154 -0.339809 -1.99933 0
M  V30 9290 C 851.487 1.0815 -1.61299 0
M  V30 9291 O 850.762 1.74442 -0.860252 0
M  V30 9292 C 851.045 -0.485919 -3.56806 0
M  V30 9293 C 850.898 -1.9498 -4.05343 0
M  V30 9294 C 852.217 0.108461 -4.39966 0
M  V30 9295 H 849.336 -0.124944 -0.726332 0
M  V30 9296 H 851.978 -0.977433 -1.6293 0
M  V30 9297 H 850.128 0.0569023 -3.88458 0
M  V30 9298 H 851.8 -2.5525 -3.84246 0
M  V30 9299 H 850.043 -2.45784 -3.57453 0
M  V30 9300 H 850.714 -2.00308 -5.14374 0
M  V30 9301 H 853.19 -0.354722 -4.14585 0
M  V30 9302 H 852.066 -0.0238926 -5.48895 0
M  V30 9303 H 852.327 1.19901 -4.25531 0
M  V30 9304 N 851.386 1.48609 -0.524698 0
M  V30 9305 C 852.616 2.06599 0.00741868 0
M  V30 9306 C 853.024 1.3823 1.29186 0
M  V30 9307 O 852.367 0.461962 1.77797 0
M  V30 9308 C 852.429 3.58184 0.307324 0
M  V30 9309 C 852.093 4.48391 -0.882864 0
M  V30 9310 C 853.09 4.88485 -1.77984 0
M  V30 9311 C 850.775 4.90367 -1.08837 0
M  V30 9312 C 852.769 5.69319 -2.86627 0
M  V30 9313 C 850.456 5.70972 -2.17794 0
M  V30 9314 C 851.454 6.10355 -3.06523 0
M  V30 9315 O 851.142 6.89343 -4.13596 0
M  V30 9316 H 850.874 0.675421 -0.0279846 0
M  V30 9317 H 853.428 1.92058 -0.7282 0
M  V30 9318 H 851.658 3.70818 1.09685 0
M  V30 9319 H 853.347 3.98318 0.780886 0
M  V30 9320 H 854.113 4.56682 -1.63299 0
M  V30 9321 H 849.992 4.592 -0.407035 0
M  V30 9322 H 853.536 5.99978 -3.55911 0
M  V30 9323 H 849.433 6.02188 -2.32465 0
M  V30 9324 H 850.201 7.07689 -4.1124 0
M  V30 9325 N 852.864 0.259585 1.55447 0
M  V30 9326 C 853.796 -0.667548 2.19263 0
M  V30 9327 C 854.809 -1.12925 1.17268 0
M  V30 9328 O 855.998 -1.05384 1.44071 0
M  V30 9329 C 853.098 -1.92066 2.7922 0
M  V30 9330 C 852.271 -1.60832 4.06758 0
M  V30 9331 C 851.33 -2.71231 4.50911 0
M  V30 9332 O 850.356 -2.38077 5.17019 0
M  V30 9333 N 851.558 -4.00984 4.19752 0
M  V30 9334 H 854.323 -0.121449 2.99454 0
M  V30 9335 H 851.884 0.0800519 1.61702 0
M  V30 9336 H 853.876 -2.65186 3.0571 0
M  V30 9337 H 852.446 -2.37621 2.03113 0
M  V30 9338 H 851.666 -0.711685 3.87722 0
M  V30 9339 H 852.954 -1.37445 4.89884 0
M  V30 9340 H 852.352 -4.30748 3.66706 0
M  V30 9341 H 850.909 -4.7053 4.51048 0
M  V30 9342 N 854.342 -1.57594 -0.0133615 0
M  V30 9343 C 855.274 -2.04402 -1.03695 0
M  V30 9344 C 856.287 -0.959546 -1.31516 0
M  V30 9345 O 857.476 -1.23659 -1.28727 0
M  V30 9346 C 854.576 -2.41766 -2.37491 0
M  V30 9347 C 853.749 -3.72785 -2.28802 0
M  V30 9348 C 852.808 -3.97165 -3.45176 0
M  V30 9349 O 851.834 -4.68013 -3.23963 0
M  V30 9350 N 853.036 -3.44021 -4.67579 0
M  V30 9351 H 855.801 -2.92833 -0.637874 0
M  V30 9352 H 853.362 -1.60647 -0.20101 0
M  V30 9353 H 855.354 -2.55201 -3.14093 0
M  V30 9354 H 853.924 -1.58924 -2.69188 0
M  V30 9355 H 853.144 -3.69555 -1.37197 0
M  V30 9356 H 854.432 -4.58704 -2.20154 0
M  V30 9357 H 853.83 -2.86623 -4.87713 0
M  V30 9358 H 852.387 -3.62808 -5.41492 0
M  V30 9359 N 855.82 0.285905 -1.54985 0
M  V30 9360 C 856.783 1.33625 -1.86218 0
M  V30 9361 C 857.783 1.42971 -0.735936 0
M  V30 9362 O 858.973 1.42345 -1.00417 0
M  V30 9363 C 856.105 2.71926 -2.05595 0
M  V30 9364 H 857.298 1.07167 -2.80099 0
M  V30 9365 H 854.851 0.523335 -1.47278 0
M  V30 9366 H 855.586 3.03583 -1.14053 0
M  V30 9367 H 855.371 2.6653 -2.87583 0
M  V30 9368 H 856.861 3.47841 -2.31077 0
M  V30 9369 N 857.298 1.47698 0.54982 0
M  V30 9370 C 858.245 1.60739 1.65625 0
M  V30 9371 C 859.215 0.450129 1.59884 0
M  V30 9372 O 860.4 0.671123 1.78607 0
M  V30 9373 C 857.54 1.63457 3.03934 0
M  V30 9374 C 856.653 2.90152 3.20056 0
M  V30 9375 C 855.788 2.84157 4.48807 0
M  V30 9376 C 854.827 4.05644 4.58387 0
M  V30 9377 N 853.964 3.97843 5.78503 0
M  V30 9378 H 858.804 2.55234 1.53817 0
M  V30 9379 H 856.341 1.26593 0.749173 0
M  V30 9380 H 858.299 1.63015 3.84034 0
M  V30 9381 H 856.929 0.724689 3.1456 0
M  V30 9382 H 855.981 3.00428 2.33339 0
M  V30 9383 H 857.293 3.80097 3.22998 0
M  V30 9384 H 856.447 2.82006 5.37175 0
M  V30 9385 H 855.186 1.91908 4.48356 0
M  V30 9386 H 854.191 4.08092 3.6843 0
M  V30 9387 H 855.416 4.9903 4.60593 0
M  V30 9388 H 853.362 3.08401 5.78986 0
M  V30 9389 H 853.279 4.81473 5.82855 0
M  V30 9390 H 854.547 3.99719 6.69212 0
M  V30 9391 N 858.776 -0.797141 1.35954 0
M  V30 9392 C 859.706 -1.92387 1.32323 0
M  V30 9393 C 860.687 -1.68967 0.196007 0
M  V30 9394 O 861.872 -1.90193 0.39245 0
M  V30 9395 C 859.002 -3.29286 1.10398 0
M  V30 9396 C 857.956 -3.67212 2.19862 0
M  V30 9397 C 857.282 -5.02377 1.8309 0
M  V30 9398 C 858.582 -3.76602 3.61896 0
M  V30 9399 H 860.276 -1.95683 2.26602 0
M  V30 9400 H 857.822 -0.94007 1.09081 0
M  V30 9401 H 859.775 -4.07721 1.06495 0
M  V30 9402 H 858.499 -3.26358 0.125668 0
M  V30 9403 H 857.158 -2.91069 2.22878 0
M  V30 9404 H 856.806 -4.95961 0.838527 0
M  V30 9405 H 856.506 -5.28722 2.56372 0
M  V30 9406 H 858.03 -5.8324 1.80729 0
M  V30 9407 H 859.444 -4.45246 3.6115 0
M  V30 9408 H 857.841 -4.14425 4.34018 0
M  V30 9409 H 858.911 -2.77906 3.97361 0
M  V30 9410 N 860.254 -1.20106 -1.0204 0
M  V30 9411 C 861.186 -0.904236 -2.10609 0
M  V30 9412 C 862.199 0.106487 -1.62451 0
M  V30 9413 O 863.388 -0.124035 -1.78069 0
M  V30 9414 C 860.488 -0.333423 -3.37256 0
M  V30 9415 C 859.661 -1.39476 -4.14566 0
M  V30 9416 C 858.72 -0.835961 -5.19517 0
M  V30 9417 O 857.746 -1.51573 -5.48648 0
M  V30 9418 N 858.948 0.356531 -5.79404 0
M  V30 9419 H 861.713 -1.8388 -2.36661 0
M  V30 9420 H 859.274 -1.10422 -1.184 0
M  V30 9421 H 861.266 0.0544571 -4.04663 0
M  V30 9422 H 859.836 0.505608 -3.08484 0
M  V30 9423 H 859.056 -1.95714 -3.42184 0
M  V30 9424 H 860.344 -2.10967 -4.63001 0
M  V30 9425 H 859.742 0.926143 -5.58067 0
M  V30 9426 H 858.299 0.686093 -6.48179 0
M  V30 9427 N 861.732 1.21287 -1.00634 0
M  V30 9428 C 862.695 2.21927 -0.572821 0
M  V30 9429 C 863.695 1.5691 0.351541 0
M  V30 9430 O 864.885 1.73623 0.141643 0
M  V30 9431 C 862.017 3.40501 0.164932 0
M  V30 9432 H 863.21 2.61795 -1.463 0
M  V30 9433 H 860.763 1.34571 -0.794998 0
M  V30 9434 H 861.498 3.06123 1.07049 0
M  V30 9435 H 861.283 3.88912 -0.498962 0
M  V30 9436 H 862.773 4.15103 0.455945 0
M  V30 9437 N 863.21 0.781244 1.36873 0
M  V30 9438 C 864.157 0.172146 2.30157 0
M  V30 9439 C 865.127 -0.679328 1.51573 0
M  V30 9440 O 866.312 -0.629713 1.80109 0
M  V30 9441 C 863.452 -0.693534 3.38059 0
M  V30 9442 C 862.565 0.175586 4.31643 0
M  V30 9443 C 861.7 -0.695695 5.26625 0
M  V30 9444 C 860.739 0.17538 6.11849 0
M  V30 9445 N 859.876 -0.654416 6.99043 0
M  V30 9446 H 864.716 0.973133 2.81663 0
M  V30 9447 H 862.253 0.491469 1.38647 0
M  V30 9448 H 864.211 -1.21035 3.99257 0
M  V30 9449 H 862.841 -1.46003 2.87894 0
M  V30 9450 H 861.893 0.810295 3.7167 0
M  V30 9451 H 863.205 0.847107 4.91554 0
M  V30 9452 H 862.359 -1.27863 5.93073 0
M  V30 9453 H 861.098 -1.40087 4.67148 0
M  V30 9454 H 860.103 0.77078 5.4437 0
M  V30 9455 H 861.328 0.87803 6.734 0
M  V30 9456 H 859.274 -1.34403 6.42084 0
M  V30 9457 H 859.191 -0.0403998 7.55989 0
M  V30 9458 H 860.459 -1.22144 7.69871 0
M  V30 9459 N 864.689 -1.48329 0.532571 0
M  V30 9460 C 865.621 -2.27652 -0.265931 0
M  V30 9461 C 866.634 -1.35522 -0.902083 0
M  V30 9462 O 867.823 -1.60552 -0.780088 0
M  V30 9463 C 864.923 -3.0899 -1.39207 0
M  V30 9464 C 864.096 -4.28915 -0.857349 0
M  V30 9465 C 863.155 -4.92044 -1.86493 0
M  V30 9466 O 862.181 -5.51181 -1.42084 0
M  V30 9467 N 863.383 -4.84518 -3.19723 0
M  V30 9468 H 866.148 -2.96821 0.414389 0
M  V30 9469 H 863.709 -1.57684 0.367066 0
M  V30 9470 H 865.701 -3.48091 -2.06433 0
M  V30 9471 H 864.271 -2.42224 -1.97601 0
M  V30 9472 H 863.491 -3.94199 -0.00901765 0
M  V30 9473 H 864.779 -5.0654 -0.479025 0
M  V30 9474 H 864.177 -4.37628 -3.58467 0
M  V30 9475 H 862.734 -5.27712 -3.82575 0
M  V30 9476 N 866.167 -0.267825 -1.55308 0
M  V30 9477 C 867.077 0.633055 -2.25897 0
M  V30 9478 C 868.093 1.17613 -1.28231 0
M  V30 9479 O 869.269 1.20797 -1.61153 0
M  V30 9480 C 866.334 1.80397 -2.96071 0
M  V30 9481 C 865.395 1.29829 -4.09198 0
M  V30 9482 C 864.628 2.4134 -4.76016 0
M  V30 9483 O 864.851 3.60537 -4.42006 0
M  V30 9484 O 863.785 2.09909 -5.64111 0
M  V30 9485 H 867.611 0.0614381 -3.03638 0
M  V30 9486 H 865.196 -0.0355072 -1.49358 0
M  V30 9487 H 867.078 2.48685 -3.40197 0
M  V30 9488 H 865.753 2.36281 -2.21253 0
M  V30 9489 H 864.66 0.582086 -3.69544 0
M  V30 9490 H 865.993 0.785288 -4.85895 0
M  V30 9491 N 867.645 1.57599 0.00500368 0
M  V30 9492 C 868.891 1.90631 0.691919 0
M  V30 9493 C 869.224 0.868443 1.737 0
M  V30 9494 O 868.499 -0.113482 1.94169 0
M  V30 9495 C 868.782 3.34255 1.33961 0
M  V30 9496 C 868.635 4.48755 0.306413 0
M  V30 9497 C 869.954 3.77211 2.26715 0
M  V30 9498 H 867.073 0.693279 0.250066 0
M  V30 9499 H 869.715 1.89946 -0.0452634 0
M  V30 9500 H 867.865 3.3497 1.96793 0
M  V30 9501 H 869.537 4.60176 -0.321841 0
M  V30 9502 H 867.78 4.32203 -0.371852 0
M  V30 9503 H 868.451 5.46193 0.798554 0
M  V30 9504 H 870.927 3.78017 1.73904 0
M  V30 9505 H 869.803 4.78466 2.69002 0
M  V30 9506 H 870.064 3.10801 3.14413 0
M  V30 9507 N 869.123 -0.277682 1.55134 0
M  V30 9508 C 870.4 -1.0309 1.66228 0
M  V30 9509 C 870.78 -2.0445 0.525701 0
M  V30 9510 O 870.128 -2.23512 -0.474816 0
M  V30 9511 C 870.338 -1.6919 3.05247 0
M  V30 9512 C 871.686 -2.20526 3.62841 0
M  V30 9513 O 872.71 -1.79185 3.07849 0
M  V30 9514 O 871.569 -2.96342 4.59177 0
M  V30 9515 H 868.663 -0.4779 0.674937 0
M  V30 9516 H 871.209 -0.273912 1.67475 0
M  V30 9517 H 869.981 -0.957163 3.79413 0
M  V30 9518 H 869.604 -2.51587 3.07879 0
M  V30 9519 N 870.601 -1.47988 -0.541979 0
M  V30 9520 C 871.549 -1.62044 -1.66867 0
M  V30 9521 C 872.543 -0.487217 -1.62242 0
M  V30 9522 O 873.749 -0.66554 -1.67244 0
M  V30 9523 H 870.124 -0.51024 -0.552412 0
M  V30 9524 H 872.095 -2.56695 -1.52153 0
M  V30 9525 C 870.844 -1.66615 -3.0518 0
M  V30 9526 H 870.167 -2.5317 -3.09427 0
M  V30 9527 H 871.607 -1.80496 -3.83663 0
M  V30 9528 C 870.066 -0.402421 -3.34488 0
M  V30 9529 O 870.596 0.48992 -3.98701 0
M  V30 9530 N 868.802 -0.277778 -2.89269 0
M  V30 9531 H 868.349 -1.00488 -2.37192 0
M  V30 9532 H 868.307 0.566784 -3.09249 0
M  V30 9533 N 872.079 0.78992 -1.36375 0
M  V30 9534 C 873.327 1.54472 -1.30319 0
M  V30 9535 C 873.648 1.94647 0.117338 0
M  V30 9536 O 872.918 1.64906 1.05748 0
M  V30 9537 H 871.498 0.572879 -0.479394 0
M  V30 9538 H 874.16 0.941245 -1.70665 0
M  V30 9539 H 873.256 2.45252 -1.93024 0
M  V30 9540 N 873.557 1.20646 1.01402 0
M  V30 9541 C 874.49 0.900926 2.09663 0
M  V30 9542 C 875.468 -0.14801 1.61925 0
M  V30 9543 O 876.652 -0.0210235 1.88488 0
M  V30 9544 C 873.779 0.351097 3.36875 0
M  V30 9545 C 872.825 1.38142 4.03508 0
M  V30 9546 S 873.658 2.94741 4.47089 0
M  V30 9547 C 874.814 2.41341 5.77499 0
M  V30 9548 H 875.047 1.81773 2.35257 0
M  V30 9549 H 872.58 1.03521 1.14555 0
M  V30 9550 H 874.538 0.0404201 4.1048 0
M  V30 9551 H 873.199 -0.544255 3.09349 0
M  V30 9552 H 872.392 0.94614 4.9504 0
M  V30 9553 H 871.994 1.63971 3.36139 0
M  V30 9554 H 874.286 1.81263 6.52802 0
M  V30 9555 H 875.229 3.31278 6.25828 0
M  V30 9556 H 875.637 1.83374 5.33886 0
M  V30 9557 N 875.035 -1.20752 1.01276 0
M  V30 9558 C 875.965 -2.25658 0.600064 0
M  V30 9559 C 876.946 -1.65733 -0.38298 0
M  V30 9560 O 878.131 -1.92324 -0.269256 0
M  V30 9561 C 875.261 -3.47237 -0.0663197 0
M  V30 9562 C 874.215 -4.1973 0.83731 0
M  V30 9563 C 873.541 -5.34687 0.0369102 0
M  V30 9564 C 874.841 -4.76286 2.14357 0
M  V30 9565 H 876.535 -2.60432 1.477 0
M  V30 9566 H 874.081 -1.25187 0.711634 0
M  V30 9567 H 876.034 -4.19803 -0.366563 0
M  V30 9568 H 874.758 -3.11615 -0.977944 0
M  V30 9569 H 873.417 -3.49024 1.1215 0
M  V30 9570 H 873.065 -4.95309 -0.876244 0
M  V30 9571 H 872.765 -5.84119 0.63865 0
M  V30 9572 H 874.289 -6.10059 -0.256968 0
M  V30 9573 H 875.703 -5.40691 1.90595 0
M  V30 9574 H 874.1 -5.36139 2.69583 0
M  V30 9575 H 875.17 -3.9524 2.80916 0
M  V30 9576 N 876.513 -0.788492 -1.36457 0
M  V30 9577 C 877.743 -0.371825 -2.03227 0
M  V30 9578 C 878.151 1.01627 -1.59589 0
M  V30 9579 O 877.494 1.663 -0.780382 0
M  V30 9580 C 877.556 -0.355179 -3.57741 0
M  V30 9581 C 877.22 -1.69069 -4.24576 0
M  V30 9582 C 878.217 -2.64601 -4.47529 0
M  V30 9583 C 875.902 -1.96973 -4.62068 0
M  V30 9584 C 877.896 -3.86232 -5.07054 0
M  V30 9585 C 875.583 -3.18872 -5.2131 0
M  V30 9586 C 876.581 -4.1332 -5.43742 0
M  V30 9587 O 876.269 -5.3307 -6.0174 0
M  V30 9588 H 876.001 -0.151452 -0.658816 0
M  V30 9589 H 878.555 -1.06827 -1.75434 0
M  V30 9590 H 876.785 0.397753 -3.84649 0
M  V30 9591 H 878.474 0.0366955 -4.05883 0
M  V30 9592 H 879.24 -2.44329 -4.18961 0
M  V30 9593 H 875.119 -1.24277 -4.43933 0
M  V30 9594 H 878.663 -4.59965 -5.24478 0
M  V30 9595 H 874.56 -3.39022 -5.49304 0
M  V30 9596 H 875.328 -5.34121 -6.20207 0
M  V30 9597 N 877.991 1.48044 -0.54043 0
M  V30 9598 C 878.921 2.32597 0.205178 0
M  V30 9599 C 879.902 1.42748 0.925041 0
M  V30 9600 O 881.087 1.71624 0.908784 0
M  V30 9601 C 878.217 3.24175 1.24612 0
M  V30 9602 C 877.171 4.23131 0.64376 0
M  V30 9603 C 876.497 5.03915 1.78812 0
M  V30 9604 C 877.797 5.20831 -0.39144 0
M  V30 9605 H 879.491 2.95184 -0.500676 0
M  V30 9606 H 877.037 1.41948 -0.242225 0
M  V30 9607 H 878.99 3.82158 1.77576 0
M  V30 9608 H 877.714 2.59608 1.98169 0
M  V30 9609 H 876.373 3.66349 0.135554 0
M  V30 9610 H 876.021 4.35765 2.51232 0
M  V30 9611 H 875.721 5.709 1.39094 0
M  V30 9612 H 877.245 5.64753 2.32134 0
M  V30 9613 H 878.659 5.73277 0.0515064 0
M  V30 9614 H 877.056 5.95926 -0.706569 0
M  V30 9615 H 878.126 4.6733 -1.29345 0
M  V30 9616 N 879.47 0.276058 1.55163 0
M  V30 9617 C 880.38 -0.621066 2.2623 0
M  V30 9618 C 881.396 -1.16931 1.28853 0
M  V30 9619 O 882.572 -1.1994 1.61791 0
M  V30 9620 C 879.637 -1.78824 2.97023 0
M  V30 9621 C 878.698 -1.27657 4.09881 0
M  V30 9622 C 877.931 -2.38812 4.77289 0
M  V30 9623 O 878.154 -3.58188 4.43912 0
M  V30 9624 O 877.088 -2.06915 5.65217 0
M  V30 9625 H 880.914 -0.0453346 3.03666 0
M  V30 9626 H 878.499 0.0434275 1.49337 0
M  V30 9627 H 880.381 -2.46877 3.41511 0
M  V30 9628 H 879.056 -2.35104 2.22503 0
M  V30 9629 H 877.963 -0.56248 3.69847 0
M  V30 9630 H 879.296 -0.759509 4.86305 0
M  V30 9631 N 880.948 -1.576 0.00335426 0
M  V30 9632 C 882.194 -1.91833 -0.676149 0
M  V30 9633 C 882.549 -0.878079 -1.71194 0
M  V30 9634 O 881.842 0.109297 -1.91288 0
M  V30 9635 C 882.036 -3.3058 -1.35837 0
M  V30 9636 C 881.865 -4.48004 -0.390171 0
M  V30 9637 C 880.635 -5.053 0.000648493 0
M  V30 9638 C 882.833 -5.13142 0.344982 0
M  V30 9639 N 880.815 -6.06241 0.966709 0
M  V30 9640 C 882.186 -6.08944 1.16562 0
M  V30 9641 C 884.241 -4.96222 0.408457 0
M  V30 9642 C 882.944 -6.89649 2.04395 0
M  V30 9643 C 884.97 -5.77514 1.27403 0
M  V30 9644 C 884.332 -6.72912 2.08251 0
M  V30 9645 H 880.431 -0.750263 -0.220519 0
M  V30 9646 H 883.015 -1.94593 0.0644891 0
M  V30 9647 H 881.186 -3.28687 -2.06928 0
M  V30 9648 H 882.918 -3.52233 -1.99284 0
M  V30 9649 H 879.673 -4.72165 -0.368428 0
M  V30 9650 H 880.097 -6.61394 1.44521 0
M  V30 9651 H 884.739 -4.22316 -0.202324 0
M  V30 9652 H 882.457 -7.62878 2.66539 0
M  V30 9653 H 886.043 -5.66462 1.3271 0
M  V30 9654 H 884.923 -7.34721 2.74145 0
M  V30 9655 N 882.426 0.269451 -1.5528 0
M  V30 9656 C 883.675 0.998381 -1.75258 0
M  V30 9657 C 883.988 1.87321 -0.563034 0
M  V30 9658 O 885.194 2.63719 -0.645313 0
M  V30 9659 C 883.65 1.82505 -3.10193 0
M  V30 9660 C 883.258 0.99871 -4.36726 0
M  V30 9661 C 885.002 2.54807 -3.3952 0
M  V30 9662 C 882.909 1.81997 -5.627 0
M  V30 9663 H 881.839 0.376488 -0.653278 0
M  V30 9664 H 884.49 0.253909 -1.81735 0
M  V30 9665 H 882.872 2.61061 -2.97763 0
M  V30 9666 H 884.046 0.257064 -4.60082 0
M  V30 9667 H 882.361 0.390074 -4.14569 0
M  V30 9668 H 884.958 3.16662 -4.30847 0
M  V30 9669 H 885.301 3.25273 -2.59813 0
M  V30 9670 H 885.834 1.83278 -3.53064 0
M  V30 9671 H 882.573 1.15945 -6.45164 0
M  V30 9672 H 882.093 2.53749 -5.43481 0
M  V30 9673 H 883.772 2.39274 -6.0113 0
M  V30 9674 N 883.904 1.48273 0.534124 0
M  V30 9675 C 884.852 1.62926 1.66005 0
M  V30 9676 C 885.846 0.495814 1.61982 0
M  V30 9677 O 887.052 0.6744 1.66889 0
M  V30 9678 H 883.427 0.513163 0.549698 0
M  V30 9679 H 885.398 2.57498 1.50789 0
M  V30 9680 C 884.147 1.68231 3.04292 0
M  V30 9681 H 883.47 2.54807 3.0808 0
M  V30 9682 H 884.91 1.82528 3.827 0
M  V30 9683 C 883.369 0.420154 3.3427 0
M  V30 9684 O 883.899 -0.468769 3.98955 0
M  V30 9685 N 882.105 0.293115 2.89118 0
M  V30 9686 H 881.652 1.01745 2.36655 0
M  V30 9687 H 881.61 -0.550376 3.09545 0
M  V30 9688 N 885.382 -0.782676 1.36792 0
M  V30 9689 C 886.329 -1.89558 1.31667 0
M  V30 9690 C 887.299 -1.65076 0.184147 0
M  V30 9691 O 888.484 -1.87143 0.371753 0
M  V30 9692 C 885.624 -3.26469 1.11858 0
M  V30 9693 C 884.737 -3.62978 2.34245 0
M  V30 9694 C 883.872 -4.89041 2.07394 0
M  V30 9695 C 882.911 -5.18249 3.25706 0
M  V30 9696 N 882.048 -6.35497 2.98476 0
M  V30 9697 H 886.888 -1.93274 2.26824 0
M  V30 9698 H 884.425 -0.945057 1.12726 0
M  V30 9699 H 886.383 -4.05431 0.983968 0
M  V30 9700 H 885.013 -3.22158 0.203531 0
M  V30 9701 H 884.065 -2.79087 2.58485 0
M  V30 9702 H 885.377 -3.80507 3.22514 0
M  V30 9703 H 884.531 -5.75883 1.90901 0
M  V30 9704 H 883.27 -4.73594 1.16446 0
M  V30 9705 H 882.275 -4.29887 3.4275 0
M  V30 9706 H 883.5 -5.35611 4.1749 0
M  V30 9707 H 881.446 -6.21429 2.10146 0
M  V30 9708 H 881.363 -6.5339 3.80286 0
M  V30 9709 H 882.631 -7.25304 2.85577 0
M  V30 9710 N 886.86 -1.21182 -1.00761 0
M  V30 9711 C 887.807 -0.968741 -2.09485 0
M  V30 9712 C 888.777 0.104325 -1.65772 0
M  V30 9713 O 889.962 -0.0422587 -1.90753 0
M  V30 9714 C 887.102 -0.536686 -3.40901 0
M  V30 9715 C 886.215 -1.6789 -3.98041 0
M  V30 9716 C 885.35 -1.19627 -5.17555 0
M  V30 9717 C 884.389 -2.31099 -5.66798 0
M  V30 9718 N 883.526 -1.83988 -6.77564 0
M  V30 9719 H 888.366 -1.89952 -2.29613 0
M  V30 9720 H 885.903 -0.946688 -1.12589 0
M  V30 9721 H 887.861 -0.26745 -4.16342 0
M  V30 9722 H 886.491 0.357092 -3.20819 0
M  V30 9723 H 885.543 -2.06284 -3.19611 0
M  V30 9724 H 886.855 -2.51794 -4.30582 0
M  V30 9725 H 886.009 -0.883539 -6.00232 0
M  V30 9726 H 884.748 -0.327244 -4.86601 0
M  V30 9727 H 883.753 -2.63178 -4.82719 0
M  V30 9728 H 884.978 -3.18493 -5.99782 0
M  V30 9729 H 882.924 -0.994257 -6.48422 0
M  V30 9730 H 882.841 -2.61466 -7.09346 0
M  V30 9731 H 884.109 -1.55741 -7.63783 0
M  V30 9732 N 888.338 1.20213 -1.01915 0
M  V30 9733 C 889.286 2.25125 -0.584936 0
M  V30 9734 C 890.28 1.65138 0.377602 0
M  V30 9735 O 891.486 1.78294 0.247245 0
M  V30 9736 H 887.861 0.732333 -0.170858 0
M  V30 9737 H 889.832 2.59075 -1.48063 0
M  V30 9738 C 888.581 3.47651 0.058389 0
M  V30 9739 H 887.904 3.9409 -0.673263 0
M  V30 9740 H 889.344 4.2275 0.325285 0
M  V30 9741 C 887.803 3.10725 1.30199 0
M  V30 9742 O 888.333 3.22491 2.39505 0
M  V30 9743 N 886.539 2.6525 1.18706 0
M  V30 9744 H 886.086 2.55875 0.297618 0
M  V30 9745 H 886.044 2.40913 2.02011 0
M  V30 9746 N 889.816 0.795718 1.36037 0
M  V30 9747 C 891.065 0.367575 1.98322 0
M  V30 9748 C 891.378 -1.06823 1.63854 0
M  V30 9749 O 892.584 -1.59895 2.19421 0
M  V30 9750 C 891.04 0.606272 3.54757 0
M  V30 9751 C 890.648 2.0539 3.98144 0
M  V30 9752 C 892.392 0.242947 4.23804 0
M  V30 9753 C 890.299 2.23893 5.47381 0
M  V30 9754 H 889.229 0.133699 0.742052 0
M  V30 9755 H 891.88 0.978242 1.5525 0
M  V30 9756 H 890.262 -0.0741957 3.9593 0
M  V30 9757 H 891.436 2.77129 3.68152 0
M  V30 9758 H 889.751 2.37607 3.41953 0
M  V30 9759 H 892.348 0.359382 5.33491 0
M  V30 9760 H 892.691 -0.809661 4.08351 0
M  V30 9761 H 893.224 0.876899 3.88015 0
M  V30 9762 H 889.963 3.27559 5.6779 0
M  V30 9763 H 889.483 1.56666 5.78978 0
M  V30 9764 H 891.162 2.04914 6.13693 0
M  V30 9765 N 891.294 -1.47756 0.548274 0
M  V30 9766 C 892.522 -2.06884 0.0254873 0
M  V30 9767 C 892.937 -1.40225 -1.26422 0
M  V30 9768 O 892.294 -0.495776 -1.75637 0
M  V30 9769 C 892.345 -3.61036 -0.183134 0
M  V30 9770 O 892.066 -4.25195 1.05549 0
M  V30 9771 C 893.567 -4.37008 -0.744222 0
M  V30 9772 H 890.787 -0.669697 0.041789 0
M  V30 9773 H 893.331 -1.89888 0.759138 0
M  V30 9774 H 891.486 -3.77576 -0.866886 0
M  V30 9775 H 891.9 -5.17606 0.847629 0
M  V30 9776 H 893.374 -5.45579 -0.839529 0
M  V30 9777 H 893.851 -4.0268 -1.75344 0
M  V30 9778 H 894.457 -4.25191 -0.0964542 0
M  V30 9779 N 892.772 -0.284283 -1.55015 0
M  V30 9780 C 893.72 0.615091 -2.2432 0
M  V30 9781 C 894.714 1.15051 -1.24337 0
M  V30 9782 O 895.92 1.10308 -1.4224 0
M  V30 9783 H 892.295 0.216927 -0.720033 0
M  V30 9784 H 894.266 0.00783216 -2.98399 0
M  V30 9785 C 893.015 1.78355 -2.98471 0
M  V30 9786 H 892.338 1.38076 -3.752 0
M  V30 9787 H 893.778 2.38927 -3.50271 0
M  V30 9788 C 892.237 2.67757 -2.04469 0
M  V30 9789 O 892.767 3.6838 -1.60185 0
M  V30 9790 N 890.973 2.35125 -1.70776 0
M  V30 9791 H 890.52 1.53346 -2.06985 0
M  V30 9792 H 890.478 2.95212 -1.08153 0
M  V30 9793 N 894.251 1.57596 -0.0117121 0
M  V30 9794 C 895.181 2.12188 0.9746 0
M  V30 9795 C 896.162 1.03379 1.35081 0
M  V30 9796 O 897.347 1.31123 1.4325 0
M  V30 9797 C 894.477 2.63477 2.26268 0
M  V30 9798 C 893.431 3.76917 2.02774 0
M  V30 9799 C 892.757 4.14566 3.37697 0
M  V30 9800 C 894.057 5.03715 1.38089 0
M  V30 9801 H 895.751 2.9485 0.520007 0
M  V30 9802 H 893.297 1.41836 0.248685 0
M  V30 9803 H 895.25 3.00299 2.95633 0
M  V30 9804 H 893.974 1.77953 2.73862 0
M  V30 9805 H 892.633 3.40507 1.35832 0
M  V30 9806 H 892.281 3.26048 3.83016 0
M  V30 9807 H 891.981 4.91 3.22789 0
M  V30 9808 H 893.505 4.53956 4.08358 0
M  V30 9809 H 894.919 5.38233 1.97428 0
M  V30 9810 H 893.316 5.85032 1.33634 0
M  V30 9811 H 894.386 4.83624 0.351575 0
M  V30 9812 N 895.729 -0.261212 1.5542 0
M  V30 9813 C 896.954 -1.01341 1.80955 0
M  V30 9814 C 897.379 -1.78711 0.586849 0
M  V30 9815 O 896.737 -1.75266 -0.463837 0
M  V30 9816 C 896.785 -1.93835 3.04073 0
M  V30 9817 O 895.889 -3.02791 2.79985 0
M  V30 9818 H 895.23 -0.289123 0.597749 0
M  V30 9819 H 897.76 -0.286543 2.02584 0
M  V30 9820 H 897.77 -2.3557 3.33123 0
M  V30 9821 H 896.445 -1.36936 3.9271 0
M  V30 9822 H 895.022 -2.65287 2.62063 0
M  V30 9823 N 897.207 -1.48554 -0.526253 0
M  V30 9824 C 898.623 -1.34757 -0.855138 0
M  V30 9825 C 898.823 -0.36142 -1.98232 0
M  V30 9826 O 897.879 0.216026 -2.51574 0
M  V30 9827 C 899.192 -2.74877 -1.21915 0
M  V30 9828 C 900.74 -2.83393 -1.32882 0
M  V30 9829 C 901.215 -4.24223 -1.72624 0
M  V30 9830 N 902.706 -4.26913 -1.7972 0
M  V30 9831 C 903.441 -5.32824 -2.11863 0
M  V30 9832 N 902.937 -6.49008 -2.42405 0
M  V30 9833 N 904.73 -5.20221 -2.12901 0
M  V30 9834 H 896.881 -2.11284 0.217422 0
M  V30 9835 H 899.144 -0.947367 0.0346362 0
M  V30 9836 H 898.85 -3.48619 -0.464486 0
M  V30 9837 H 898.724 -3.0864 -2.16844 0
M  V30 9838 H 901.111 -2.09904 -2.07424 0
M  V30 9839 H 901.192 -2.53245 -0.360638 0
M  V30 9840 H 900.836 -4.98229 -0.986411 0
M  V30 9841 H 900.766 -4.51817 -2.70498 0
M  V30 9842 H 903.257 -3.4311 -1.58379 0
M  V30 9843 H 903.57 -7.25561 -2.66048 0
M  V30 9844 H 901.915 -6.52277 -2.39917 0
M  V30 9845 H 905.106 -4.28469 -1.885 0
M  V30 9846 H 905.279 -6.02861 -2.37619 0
M  V30 9847 N 898.685 0.775411 -1.37205 0
M  V30 9848 C 899.615 1.90258 -1.35367 0
M  V30 9849 C 900.596 1.68634 -0.222864 0
M  V30 9850 O 901.781 1.89545 -0.422659 0
M  V30 9851 C 898.911 3.27488 -1.15623 0
M  V30 9852 C 897.865 3.63668 -2.25676 0
M  V30 9853 C 897.191 4.994 -1.91059 0
M  V30 9854 C 898.491 3.70797 -3.67841 0
M  V30 9855 H 900.185 1.92053 -2.29687 0
M  V30 9856 H 897.731 0.922597 -1.10563 0
M  V30 9857 H 899.684 4.05976 -1.12968 0
M  V30 9858 H 898.408 3.26117 -0.177573 0
M  V30 9859 H 897.067 2.87486 -2.2748 0
M  V30 9860 H 896.715 4.94565 -0.917324 0
M  V30 9861 H 896.415 5.24576 -2.64751 0
M  V30 9862 H 897.939 5.80291 -1.89985 0
M  V30 9863 H 899.353 4.39444 -3.68187 0
M  V30 9864 H 897.75 4.07468 -4.40556 0
M  V30 9865 H 898.82 2.71549 -4.01732 0
M  V30 9866 N 900.163 1.21714 1.00117 0
M  V30 9867 C 901.409 1.03823 1.74208 0
M  V30 9868 C 901.742 -0.426733 1.89454 0
M  V30 9869 O 901.017 -1.31658 1.43166 0
M  V30 9870 C 901.3 1.74047 3.15246 0
M  V30 9871 C 901.153 3.28087 3.077 0
M  V30 9872 C 902.472 1.48614 4.14249 0
M  V30 9873 H 899.591 0.378573 0.632338 0
M  V30 9874 H 902.233 1.49942 1.16694 0
M  V30 9875 H 900.383 1.3484 3.64349 0
M  V30 9876 H 902.055 3.76686 2.6628 0
M  V30 9877 H 900.298 3.58191 2.44707 0
M  V30 9878 H 900.969 3.72392 4.07466 0
M  V30 9879 H 903.445 1.82656 3.73866 0
M  V30 9880 H 902.321 2.00257 5.11066 0
M  V30 9881 H 902.582 0.416957 4.40129 0
M  V30 9882 N 901.641 -1.19671 1.02551 0
M  V30 9883 C 902.887 -1.89548 0.721069 0
M  V30 9884 C 903.22 -1.79209 -0.748176 0
M  V30 9885 O 902.495 -1.1822 -1.54448 0
M  V30 9886 C 902.778 -3.4061 1.16861 0
M  V30 9887 C 902.631 -3.59838 2.69883 0
M  V30 9888 C 903.95 -4.33718 0.746782 0
M  V30 9889 H 901.069 -0.688315 0.263422 0
M  V30 9890 H 903.711 -1.40883 1.27483 0
M  V30 9891 H 901.861 -3.82188 0.697477 0
M  V30 9892 H 903.533 -3.27454 3.24917 0
M  V30 9893 H 901.776 -3.03005 3.10435 0
M  V30 9894 H 902.447 -4.65766 2.96253 0
M  V30 9895 H 904.923 -3.99837 1.15195 0
M  V30 9896 H 903.799 -5.38012 1.08786 0
M  V30 9897 H 904.06 -4.40704 -0.351057 0
M  V30 9898 N 903.119 -0.802921 -1.35613 0
M  V30 9899 C 904.535 -0.486214 -1.52014 0
M  V30 9900 C 904.735 0.993219 -1.75321 0
M  V30 9901 O 903.791 1.77835 -1.79251 0
M  V30 9902 C 905.104 -1.32839 -2.69767 0
M  V30 9903 C 906.652 -1.32346 -2.83643 0
M  V30 9904 C 907.127 -2.14967 -4.04417 0
M  V30 9905 N 908.618 -2.12484 -4.11588 0
M  V30 9906 C 909.353 -2.73173 -5.04147 0
M  V30 9907 N 908.849 -3.42774 -6.02061 0
M  V30 9908 N 910.642 -2.62834 -4.96865 0
M  V30 9909 H 902.793 -1.76109 -1.18741 0
M  V30 9910 H 905.056 -0.74936 -0.580658 0
M  V30 9911 H 904.762 -2.37813 -2.5911 0
M  V30 9912 H 904.636 -0.979058 -3.64272 0
M  V30 9913 H 907.023 -0.281586 -2.93753 0
M  V30 9914 H 907.104 -1.71264 -1.90006 0
M  V30 9915 H 906.748 -3.19193 -3.95068 0
M  V30 9916 H 906.678 -1.73411 -4.97228 0
M  V30 9917 H 909.169 -1.61839 -3.41492 0
M  V30 9918 H 909.482 -3.86378 -6.69277 0
M  V30 9919 H 907.827 -3.46878 -6.02246 0
M  V30 9920 H 911.018 -2.08049 -4.19325 0
M  V30 9921 H 911.191 -3.10421 -5.68808 0
M  V30 9922 N 904.597 1.47463 -0.556102 0
M  V30 9923 C 906.008 1.86298 -0.122429 0
M  V30 9924 C 906.359 1.46285 1.30749 0
M  V30 9925 O 905.484 0.865405 1.98342 0
M  V30 9926 C 906.079 3.38115 -0.215407 0
M  V30 9927 C 904.638 3.76046 0.163223 0
M  V30 9928 C 903.785 2.71515 -0.563466 0
M  V30 9929 H 906.736 1.38996 -0.765888 0
M  V30 9930 H 906.757 3.76263 0.566271 0
M  V30 9931 H 906.269 3.67207 -1.25622 0
M  V30 9932 H 904.37 3.5257 1.20519 0
M  V30 9933 H 904.483 4.78705 -0.194568 0
M  V30 9934 H 902.847 2.54699 -0.00667879 0
M  V30 9935 H 903.63 3.03449 -1.60542 0
M  V30 9936 N 906.075 0.2925 1.54862 0
M  V30 9937 C 907.025 -0.60226 2.19902 0
M  V30 9938 C 908.009 -1.10535 1.16923 0
M  V30 9939 O 909.201 -1.04753 1.42674 0
M  V30 9940 C 906.33 -1.77774 2.93686 0
M  V30 9941 C 905.416 -1.29101 4.03972 0
M  V30 9942 N 905.807 -0.521671 5.03103 0
M  V30 9943 C 904.105 -1.57248 4.17359 0
M  V30 9944 C 904.806 -0.263545 5.81103 0
M  V30 9945 N 903.782 -0.840937 5.37056 0
M  V30 9946 H 907.584 -0.00682274 2.93899 0
M  V30 9947 H 905.098 0.0968604 1.62111 0
M  V30 9948 H 907.095 -2.43021 3.38743 0
M  V30 9949 H 905.755 -2.37696 2.21203 0
M  V30 9950 H 906.766 -0.167364 5.1763 0
M  V30 9951 H 903.443 -2.1798 3.56077 0
M  V30 9952 H 904.833 0.353783 6.70968 0
M  V30 9953 N 907.553 -1.57587 0.0200696 0
M  V30 9954 C 908.781 -1.95718 -0.670964 0
M  V30 9955 C 909.196 -0.896081 -1.6618 0
M  V30 9956 O 908.553 0.123037 -1.82085 0
M  V30 9957 C 908.604 -3.33904 -1.38529 0
M  V30 9958 O 908.325 -4.35943 -0.434167 0
M  V30 9959 C 909.826 -3.86614 -2.16898 0
M  V30 9960 H 907.046 -0.644819 -0.185606 0
M  V30 9961 H 909.59 -2.04354 0.0771495 0
M  V30 9962 H 907.745 -3.26515 -2.08487 0
M  V30 9963 H 908.159 -5.16001 -0.940378 0
M  V30 9964 H 909.633 -4.85673 -2.62346 0
M  V30 9965 H 910.11 -3.20379 -3.00423 0
M  V30 9966 H 910.716 -3.97243 -1.51916 0
M  V30 9967 N 909.032 0.252966 -1.55557 0
M  V30 9968 C 910.309 1.00432 -1.67847 0
M  V30 9969 C 910.689 2.03587 -0.55816 0
M  V30 9970 O 910.037 2.24239 0.439197 0
M  V30 9971 C 910.247 1.64313 -3.079 0
M  V30 9972 C 911.595 2.14726 -3.66303 0
M  V30 9973 O 912.619 1.74264 -3.10661 0
M  V30 9974 O 911.478 2.89 -4.63833 0
M  V30 9975 H 908.572 0.467102 -0.682455 0
M  V30 9976 H 911.118 0.247233 -1.67889 0
M  V30 9977 H 909.89 0.896681 -3.80888 0
M  V30 9978 H 909.513 2.46657 -3.11843 0
M  V30 9979 N 910.51 1.48831 0.518367 0
M  V30 9980 C 911.473 1.63721 1.604 0
M  V30 9981 C 912.473 0.509857 1.52503 0
M  V30 9982 O 913.663 0.775922 1.55965 0
M  V30 9983 C 910.795 1.61831 3.00039 0
M  V30 9984 H 911.988 2.60534 1.48533 0
M  V30 9985 H 909.541 1.37602 0.741309 0
M  V30 9986 H 910.276 0.665387 3.17401 0
M  V30 9987 H 910.061 2.43686 3.0718 0
M  V30 9988 H 911.551 1.75467 3.78947 0
M  V30 9989 N 911.988 -0.768124 1.37614 0
M  V30 9990 C 913.234 -1.52907 1.33219 0
M  V30 9991 C 913.567 -1.94026 -0.0821218 0
M  V30 9992 O 912.842 -1.64345 -1.04023 0
M  V30 9993 C 913.125 -2.79164 2.27463 0
M  V30 9994 C 912.978 -2.44276 3.7769 0
M  V30 9995 C 914.297 -3.81115 2.20089 0
M  V30 9996 H 911.416 -0.554712 0.485246 0
M  V30 9997 H 914.058 -0.880911 1.68345 0
M  V30 9998 H 912.208 -3.34472 1.97639 0
M  V30 9999 H 913.88 -1.94855 4.18126 0
M  V30 10000 H 912.123 -1.76925 3.96081 0
M  V30 10001 H 912.794 -3.34544 4.39072 0
M  V30 10002 H 915.27 -3.35311 2.46386 0
M  V30 10003 H 914.146 -4.67174 2.88166 0
M  V30 10004 H 914.407 -4.25644 1.19498 0
M  V30 10005 N 913.466 -1.22244 -0.994698 0
M  V30 10006 C 914.696 -1.07062 -1.76695 0
M  V30 10007 C 915.104 0.381895 -1.85306 0
M  V30 10008 O 914.447 1.27648 -1.32105 0
M  V30 10009 C 914.509 -1.60487 -3.2169 0
M  V30 10010 C 914.173 -3.09079 -3.36629 0
M  V30 10011 C 915.17 -4.06526 -3.24088 0
M  V30 10012 C 912.855 -3.48497 -3.61739 0
M  V30 10013 C 914.849 -5.41377 -3.36437 0
M  V30 10014 C 912.536 -4.83498 -3.73729 0
M  V30 10015 C 913.534 -5.79747 -3.61086 0
M  V30 10016 O 913.222 -7.12297 -3.72678 0
M  V30 10017 H 912.954 -0.375963 -0.561807 0
M  V30 10018 H 915.508 -1.62259 -1.25941 0
M  V30 10019 H 913.738 -0.996957 -3.73628 0
M  V30 10020 H 915.427 -1.40994 -3.80625 0
M  V30 10021 H 916.193 -3.77415 -3.04602 0
M  V30 10022 H 912.072 -2.74106 -3.70657 0
M  V30 10023 H 915.616 -6.16485 -3.26485 0
M  V30 10024 H 911.513 -5.1229 -3.92721 0
M  V30 10025 H 912.281 -7.1985 -3.89562 0
M  V30 10026 N 914.944 1.19125 -1.03184 0
M  V30 10027 C 915.894 2.20348 -0.585731 0
M  V30 10028 C 916.878 1.56656 0.367109 0
M  V30 10029 O 918.07 1.76003 0.187598 0
M  V30 10030 C 915.199 3.43249 0.0590006 0
M  V30 10031 C 914.285 4.1408 -0.916457 0
M  V30 10032 N 914.676 4.61051 -2.08005 0
M  V30 10033 C 912.974 4.39809 -0.74054 0
M  V30 10034 C 913.675 5.15477 -2.69552 0
M  V30 10035 N 912.651 5.06456 -1.97493 0
M  V30 10036 H 916.453 2.54346 -1.47259 0
M  V30 10037 H 913.967 1.35232 -0.899225 0
M  V30 10038 H 915.964 4.15013 0.396236 0
M  V30 10039 H 914.624 3.1075 0.941507 0
M  V30 10040 H 915.635 4.55782 -2.45934 0
M  V30 10041 H 912.312 4.17397 0.0926238 0
M  V30 10042 H 913.702 5.62088 -3.68112 0
M  V30 10043 N 916.422 0.810101 1.35185 0
M  V30 10044 C 917.385 0.22852 2.28058 0
M  V30 10045 C 918.385 -0.586168 1.49735 0
M  V30 10046 O 919.575 -0.40414 1.69447 0
M  V30 10047 C 916.707 -0.681041 3.34028 0
M  V30 10048 H 917.9 1.04768 2.81005 0
M  V30 10049 H 915.453 0.58101 1.451 0
M  V30 10050 H 916.188 -1.52375 2.86273 0
M  V30 10051 H 915.973 -0.0985276 3.91976 0
M  V30 10052 H 917.463 -1.08217 4.03335 0
M  V30 10053 N 917.9 -1.47166 0.563914 0
M  V30 10054 C 919.14 -2.04351 0.0448121 0
M  V30 10055 C 919.504 -1.42808 -1.28336 0
M  V30 10056 O 920.705 -1.91079 -1.89056 0
M  V30 10057 C 918.976 -3.57378 -0.0395795 0
M  V30 10058 S 920.535 -4.35898 -0.503833 0
M  V30 10059 H 917.353 -0.710433 0.0283795 0
M  V30 10060 H 919.955 -1.80451 0.752166 0
M  V30 10061 H 918.659 -3.99693 0.931326 0
M  V30 10062 H 918.19 -3.85785 -0.770282 0
M  V30 10063 H 920.205 -4.63852 -1.76225 0
M  V30 10064 N 919.378 -0.300708 -1.54705 0
M  V30 10065 C 920.625 0.308654 -2.00134 0
M  V30 10066 C 920.953 1.53918 -1.1891 0
M  V30 10067 O 920.208 1.94054 -0.253263 0
M  V30 10068 C 920.507 0.710108 -3.50275 0
M  V30 10069 C 920.173 -0.418651 -4.48952 0
M  V30 10070 C 918.835 -0.728524 -4.75653 0
M  V30 10071 C 921.187 -1.17797 -5.07714 0
M  V30 10072 C 918.515 -1.80085 -5.58378 0
M  V30 10073 C 920.867 -2.24022 -5.91606 0
M  V30 10074 C 919.531 -2.55616 -6.16617 0
M  V30 10075 H 918.801 0.112945 -0.732342 0
M  V30 10076 H 921.448 -0.419744 -1.86843 0
M  V30 10077 H 919.753 1.51859 -3.61173 0
M  V30 10078 H 921.45 1.19277 -3.8285 0
M  V30 10079 H 918.04 -0.167034 -4.28274 0
M  V30 10080 H 922.224 -0.951835 -4.87087 0
M  V30 10081 H 917.48 -2.05036 -5.75995 0
M  V30 10082 H 921.654 -2.83317 -6.36164 0
M  V30 10083 H 919.281 -3.38839 -6.80509 0
M  V30 10084 N 920.856 1.57574 -0.0284266 0
M  V30 10085 C 922.081 1.96479 0.664137 0
M  V30 10086 C 922.506 0.904826 1.64908 0
M  V30 10087 O 921.864 -0.134339 1.80802 0
M  V30 10088 C 921.912 3.34479 1.34745 0
M  V30 10089 O 921.016 3.30794 2.46271 0
M  V30 10090 H 920.357 0.640654 0.174524 0
M  V30 10091 H 922.887 2.04402 -0.0900729 0
M  V30 10092 H 922.897 3.70694 1.7044 0
M  V30 10093 H 921.572 4.1117 0.625468 0
M  V30 10094 H 920.149 3.06294 2.12693 0
M  V30 10095 N 922.334 -0.244713 1.55689 0
M  V30 10096 C 923.244 -1.32447 1.93636 0
M  V30 10097 C 924.26 -1.52541 0.837086 0
M  V30 10098 O 925.436 -1.66121 1.13867 0
M  V30 10099 C 922.501 -2.65864 2.22525 0
M  V30 10100 C 921.562 -2.54273 3.45896 0
M  V30 10101 C 920.795 -3.81327 3.73397 0
M  V30 10102 O 921.018 -4.83307 3.02936 0
M  V30 10103 O 919.952 -3.79829 4.66919 0
M  V30 10104 H 923.778 -1.03255 2.85608 0
M  V30 10105 H 921.363 -0.445652 1.42598 0
M  V30 10106 H 923.245 -3.447 2.42404 0
M  V30 10107 H 921.92 -2.94784 1.33731 0
M  V30 10108 H 920.827 -1.73715 3.31321 0
M  V30 10109 H 922.16 -2.30297 4.34999 0
M  V30 10110 N 923.813 -1.49104 -0.510467 0
M  V30 10111 C 925.09 -1.48609 -1.27179 0
M  V30 10112 C 925.47 -0.208537 -2.10067 0
M  V30 10113 O 924.818 0.809335 -2.13687 0
M  V30 10114 C 925.028 -2.75953 -2.1366 0
M  V30 10115 C 926.376 -3.25067 -2.73161 0
M  V30 10116 O 927.4 -2.77005 -2.23934 0
M  V30 10117 O 926.259 -4.08747 -3.62751 0
M  V30 10118 H 923.353 -0.594374 -0.57502 0
M  V30 10119 H 925.899 -1.61358 -0.525515 0
M  V30 10120 H 924.671 -3.60434 -1.52325 0
M  V30 10121 H 924.294 -2.66019 -2.95499 0
M  V30 10122 N 925.291 0.760815 -1.38019 0
M  V30 10123 C 926.539 1.51673 -1.33566 0
M  V30 10124 C 926.86 1.94852 0.076024 0
M  V30 10125 O 926.13 1.67112 1.02227 0
M  V30 10126 H 924.71 0.562581 -0.491438 0
M  V30 10127 H 927.372 0.904832 -1.72623 0
M  V30 10128 H 926.468 2.41102 -1.98182 0
M  V30 10129 N 926.769 1.22769 0.988202 0
M  V30 10130 C 927.701 0.959757 2.08138 0
M  V30 10131 C 928.714 -0.0633787 1.62677 0
M  V30 10132 O 929.903 0.171203 1.77677 0
M  V30 10133 C 927.003 0.422724 3.36253 0
M  V30 10134 C 926.176 1.50419 4.10722 0
M  V30 10135 C 925.235 0.973407 5.17118 0
M  V30 10136 O 924.261 1.66066 5.44436 0
M  V30 10137 N 925.463 -0.202787 5.80146 0
M  V30 10138 H 928.228 1.9009 2.31702 0
M  V30 10139 H 925.789 1.13522 1.15431 0
M  V30 10140 H 927.781 0.0528514 4.04665 0
M  V30 10141 H 926.351 -0.423642 3.09716 0
M  V30 10142 H 925.571 2.04718 3.36874 0
M  V30 10143 H 926.859 2.23169 4.57245 0
M  V30 10144 H 926.257 -0.777856 5.60327 0
M  V30 10145 H 924.814 -0.513998 6.4977 0
M  V30 10146 N 928.247 -1.18576 1.03814 0
M  V30 10147 C 929.663 -1.4051 0.756909 0
M  V30 10148 C 929.863 -1.9057 -0.654631 0
M  V30 10149 O 928.919 -2.0884 -1.41922 0
M  V30 10150 C 930.232 -2.4081 1.80087 0
M  V30 10151 C 931.78 -2.54541 1.82148 0
M  V30 10152 C 932.255 -3.58102 2.85529 0
M  V30 10153 N 933.746 -3.65607 2.84404 0
M  V30 10154 C 934.481 -4.45458 3.61047 0
M  V30 10155 N 933.977 -5.28937 4.47434 0
M  V30 10156 N 935.77 -4.40196 3.49548 0
M  V30 10157 H 927.921 -0.844075 1.94908 0
M  V30 10158 H 930.184 -0.433287 0.843188 0
M  V30 10159 H 929.89 -2.1107 2.81322 0
M  V30 10160 H 929.764 -3.4012 1.63089 0
M  V30 10161 H 932.151 -2.83598 0.815855 0
M  V30 10162 H 932.232 -1.55352 2.03223 0
M  V30 10163 H 931.876 -3.29786 3.86269 0
M  V30 10164 H 931.806 -4.56963 2.6171 0
M  V30 10165 H 934.297 -3.05994 2.21756 0
M  V30 10166 H 934.61 -5.8701 5.02632 0
M  V30 10167 H 932.955 -5.28366 4.51503 0
M  V30 10168 H 936.146 -3.74026 2.81464 0
M  V30 10169 H 936.319 -5.02186 4.09528 0
M  V30 10170 N 929.725 -0.817259 -1.34754 0
M  V30 10171 C 930.974 -0.39908 -1.97713 0
M  V30 10172 C 931.287 1.04203 -1.65533 0
M  V30 10173 O 932.493 1.56384 -2.21937 0
M  V30 10174 C 930.949 -0.662634 -3.53747 0
M  V30 10175 C 930.557 -2.11699 -3.94826 0
M  V30 10176 C 932.301 -0.31034 -4.23364 0
M  V30 10177 C 930.208 -2.32573 -5.4375 0
M  V30 10178 H 929.138 -0.145488 -0.739831 0
M  V30 10179 H 931.789 -1.00282 -1.53674 0
M  V30 10180 H 930.171 0.0111972 -3.95998 0
M  V30 10181 H 931.345 -2.82951 -3.63697 0
M  V30 10182 H 929.66 -2.43017 -3.3813 0
M  V30 10183 H 932.257 -0.44421 -5.32852 0
M  V30 10184 H 932.6 0.744594 -4.09587 0
M  V30 10185 H 933.133 -0.938518 -3.8657 0
M  V30 10186 H 929.872 -3.36551 -5.62507 0
M  V30 10187 H 929.392 -1.65858 -5.76412 0
M  V30 10188 H 931.071 -2.14651 -6.10356 0
M  V30 10189 N 931.203 1.46865 -0.571711 0
M  V30 10190 C 932.166 2.28658 0.157499 0
M  V30 10191 C 933.166 1.37773 0.829172 0
M  V30 10192 O 934.356 1.6026 0.682811 0
M  V30 10193 C 931.488 3.17859 1.23202 0
M  V30 10194 H 932.681 2.94603 -0.561171 0
M  V30 10195 H 930.234 1.52793 -0.329229 0
M  V30 10196 H 930.969 2.56637 1.98262 0
M  V30 10197 H 930.754 3.84762 0.755031 0
M  V30 10198 H 932.244 3.7945 1.74378 0
M  V30 10199 N 932.681 0.308908 1.54543 0
M  V30 10200 C 933.906 -0.303196 2.05172 0
M  V30 10201 C 934.331 -1.46133 1.18434 0
M  V30 10202 O 933.689 -1.803 0.190162 0
M  V30 10203 C 933.737 -0.729526 3.53143 0
M  V30 10204 O 932.841 -1.83348 3.69401 0
M  V30 10205 H 932.182 -0.0575066 0.661505 0
M  V30 10206 H 934.712 0.453055 1.99521 0
M  V30 10207 H 934.722 -1.01619 3.95143 0
M  V30 10208 H 933.397 0.117622 4.15734 0
M  V30 10209 H 931.974 -1.54676 3.39308 0
M  V30 10210 N 934.159 -1.57557 0.0367827 0
M  V30 10211 C 935.399 -1.93981 -0.644252 0
M  V30 10212 C 935.763 -0.913982 -1.6885 0
M  V30 10213 O 936.964 -1.16468 -2.42257 0
M  V30 10214 C 935.235 -3.35281 -1.23779 0
M  V30 10215 S 936.794 -3.93643 -1.93883 0
M  V30 10216 H 933.612 -0.678683 -0.21192 0
M  V30 10217 H 936.214 -1.95232 0.102281 0
M  V30 10218 H 934.918 -4.07752 -0.465451 0
M  V30 10219 H 934.449 -3.37492 -2.02146 0
M  V30 10220 H 936.464 -3.777 -3.21803 0
M  V30 10221 N 935.637 0.236453 -1.55816 0
M  V30 10222 C 936.885 0.96111 -1.77784 0
M  V30 10223 C 937.206 1.85454 -0.602648 0
M  V30 10224 O 936.476 1.92157 0.381137 0
M  V30 10225 H 935.056 0.35787 -0.655697 0
M  V30 10226 H 937.718 0.251888 -1.93265 0
M  V30 10227 H 936.814 1.5767 -2.69345 0
M  V30 10228 N 937.115 1.49373 0.502552 0
M  V30 10229 C 938.078 1.65413 1.58654 0
M  V30 10230 C 939.078 0.526003 1.51953 0
M  V30 10231 O 940.268 0.792421 1.55133 0
M  V30 10232 C 937.4 1.65005 2.98306 0
M  V30 10233 H 938.593 2.62095 1.45762 0
M  V30 10234 H 936.146 1.38381 0.726672 0
M  V30 10235 H 936.881 0.699014 3.16677 0
M  V30 10236 H 936.666 2.46931 3.04578 0
M  V30 10237 H 938.156 1.79477 3.77065 0
M  V30 10238 N 938.594 -0.753485 1.38421 0
M  V30 10239 C 939.871 -1.50318 1.25155 0
M  V30 10240 C 940.251 -2.10588 -0.147003 0
M  V30 10241 O 939.599 -1.97071 -1.15651 0
M  V30 10242 C 939.809 -2.56946 2.36177 0
M  V30 10243 C 941.157 -3.23846 2.74607 0
M  V30 10244 O 942.181 -2.67251 2.3549 0
M  V30 10245 O 941.04 -4.2621 3.42064 0
M  V30 10246 H 938.134 -0.666624 0.48943 0
M  V30 10247 H 940.68 -0.788887 1.50249 0
M  V30 10248 H 939.452 -2.1066 3.29754 0
M  V30 10249 H 939.075 -3.35956 2.12648 0
M  V30 10250 N 940.072 -1.23292 -0.981677 0
M  V30 10251 C 941.019 -1.01296 -2.07383 0
M  V30 10252 C 941.989 0.069139 -1.65956 0
M  V30 10253 O 943.174 -0.0827108 -1.90621 0
M  V30 10254 C 940.314 -0.608876 -3.39686 0
M  V30 10255 C 939.427 -1.76296 -3.9439 0
M  V30 10256 C 938.562 -1.30578 -5.14901 0
M  V30 10257 C 937.601 -2.4307 -5.61768 0
M  V30 10258 N 936.738 -1.98319 -6.73509 0
M  V30 10259 H 941.578 -1.9478 -2.25532 0
M  V30 10260 H 939.115 -0.970356 -1.10555 0
M  V30 10261 H 941.073 -0.355702 -4.15681 0
M  V30 10262 H 939.703 0.288961 -3.21504 0
M  V30 10263 H 938.755 -2.13017 -3.15163 0
M  V30 10264 H 940.067 -2.60871 -4.25145 0
M  V30 10265 H 939.221 -1.01066 -5.98223 0
M  V30 10266 H 937.96 -0.430386 -4.85797 0
M  V30 10267 H 936.965 -2.73358 -4.77028 0
M  V30 10268 H 938.19 -3.31144 -5.92892 0
M  V30 10269 H 936.136 -1.13157 -6.46167 0
M  V30 10270 H 936.053 -2.76454 -7.0364 0
M  V30 10271 H 937.321 -1.71907 -7.60308 0
M  V30 10272 N 941.55 1.18024 -1.04442 0
M  V30 10273 C 942.778 1.92032 -0.770161 0
M  V30 10274 C 943.193 1.76391 0.673181 0
M  V30 10275 O 942.55 1.09604 1.45922 0
M  V30 10276 C 942.601 3.43328 -1.13173 0
M  V30 10277 O 942.322 3.5848 -2.51841 0
M  V30 10278 C 943.823 4.34427 -0.882523 0
M  V30 10279 H 941.043 0.609518 -0.280586 0
M  V30 10280 H 943.587 1.49711 -1.39308 0
M  V30 10281 H 941.742 3.83423 -0.553704 0
M  V30 10282 H 942.156 4.52166 -2.65794 0
M  V30 10283 H 943.63 5.39123 -1.18533 0
M  V30 10284 H 944.107 4.3882 0.18257 0
M  V30 10285 H 944.713 4.00035 -1.44403 0
M  V30 10286 N 943.028 0.824394 1.34319 0
M  V30 10287 C 943.958 0.262077 2.32025 0
M  V30 10288 C 944.939 -0.622277 1.58309 0
M  V30 10289 O 946.124 -0.548848 1.86283 0
M  V30 10290 C 943.254 -0.57567 3.42496 0
M  V30 10291 C 942.208 0.21167 4.27476 0
M  V30 10292 C 941.534 -0.748913 5.29429 0
M  V30 10293 C 942.834 1.42068 5.02607 0
M  V30 10294 H 944.528 1.07842 2.79304 0
M  V30 10295 H 942.074 0.520022 1.34282 0
M  V30 10296 H 944.027 -0.979251 4.09864 0
M  V30 10297 H 942.751 -1.42508 2.93869 0
M  V30 10298 H 941.41 0.596636 3.61712 0
M  V30 10299 H 941.058 -1.59432 4.77064 0
M  V30 10300 H 940.758 -0.226313 5.87164 0
M  V30 10301 H 942.282 -1.15032 5.99667 0
M  V30 10302 H 943.696 1.09103 5.62823 0
M  V30 10303 H 942.093 1.87903 5.69923 0
M  V30 10304 H 943.163 2.1981 4.32217 0
M  V30 10305 N 944.506 -1.46559 0.579492 0
M  V30 10306 C 945.438 -2.28383 -0.19337 0
M  V30 10307 C 946.451 -1.38324 -0.858511 0
M  V30 10308 O 947.64 -1.62952 -0.728615 0
M  V30 10309 C 944.74 -3.13262 -1.29306 0
M  V30 10310 C 943.913 -4.31426 -0.720459 0
M  V30 10311 C 942.972 -4.97728 -1.70744 0
M  V30 10312 O 941.998 -5.55423 -1.24476 0
M  V30 10313 N 943.2 -4.94445 -3.04146 0
M  V30 10314 H 945.965 -2.95353 0.508611 0
M  V30 10315 H 943.526 -1.56436 0.417046 0
M  V30 10316 H 945.518 -3.54483 -1.95254 0
M  V30 10317 H 944.088 -2.48388 -1.89795 0
M  V30 10318 H 943.308 -3.94028 0.116398 0
M  V30 10319 H 944.596 -5.07808 -0.31763 0
M  V30 10320 H 943.994 -4.4881 -3.44363 0
M  V30 10321 H 942.551 -5.39616 -3.65592 0
M  V30 10322 N 945.984 -0.3171 -1.54377 0
M  V30 10323 C 947.23 0.287836 -2.00747 0
M  V30 10324 C 947.563 1.52292 -1.20502 0
M  V30 10325 O 946.838 1.92391 -0.285626 0
M  V30 10326 C 947.121 0.628423 -3.54574 0
M  V30 10327 C 946.974 -0.616922 -4.45549 0
M  V30 10328 C 948.293 1.44862 -4.15575 0
M  V30 10329 H 945.412 0.103144 -0.729747 0
M  V30 10330 H 948.054 -0.432396 -1.85014 0
M  V30 10331 H 946.204 1.24203 -3.68111 0
M  V30 10332 H 947.876 -1.25526 -4.43893 0
M  V30 10333 H 946.119 -1.24706 -4.15489 0
M  V30 10334 H 946.79 -0.334243 -5.50987 0
M  V30 10335 H 949.266 0.930015 -4.05574 0
M  V30 10336 H 948.142 1.6557 -5.23333 0
M  V30 10337 H 948.403 2.44279 -3.68484 0
M  V30 10338 N 947.462 1.57535 -0.0451378 0
M  V30 10339 C 948.709 1.92451 0.629987 0
M  V30 10340 C 949.037 0.92298 1.71206 0
M  V30 10341 O 948.292 -0.0656626 1.9559 0
M  V30 10342 C 948.591 3.34065 1.27024 0
M  V30 10343 C 948.257 4.49785 0.316971 0
M  V30 10344 C 946.919 4.81169 0.0546406 0
M  V30 10345 C 949.271 5.20111 -0.336693 0
M  V30 10346 C 946.599 5.8023 -0.86889 0
M  V30 10347 C 948.951 6.2016 -1.24838 0
M  V30 10348 C 947.615 6.49976 -1.51944 0
M  V30 10349 H 946.885 0.704228 0.230529 0
M  V30 10350 H 949.532 1.91182 -0.110328 0
M  V30 10351 H 947.837 3.31672 2.08568 0
M  V30 10352 H 949.534 3.58359 1.79945 0
M  V30 10353 H 946.124 4.2529 0.531614 0
M  V30 10354 H 950.308 4.96082 -0.147105 0
M  V30 10355 H 945.564 6.0167 -1.08643 0
M  V30 10356 H 949.738 6.73767 -1.76098 0
M  V30 10357 H 947.365 7.26551 -2.2367 0
M  V30 10358 N 948.94 -0.228186 1.55939 0
M  V30 10359 C 949.887 -1.28274 1.91871 0
M  V30 10360 C 950.857 -1.46906 0.775103 0
M  V30 10361 O 952.042 -1.60583 1.03042 0
M  V30 10362 C 949.182 -2.62945 2.23504 0
M  V30 10363 C 948.295 -2.52166 3.50766 0
M  V30 10364 C 947.43 -3.79316 3.71878 0
M  V30 10365 C 946.469 -3.63231 4.92676 0
M  V30 10366 N 945.606 -4.82315 5.10212 0
M  V30 10367 H 950.446 -0.96931 2.81795 0
M  V30 10368 H 947.983 -0.467331 1.39479 0
M  V30 10369 H 949.941 -3.41359 2.39854 0
M  V30 10370 H 948.571 -2.92397 1.36762 0
M  V30 10371 H 947.623 -1.65221 3.42646 0
M  V30 10372 H 948.935 -2.36199 4.39331 0
M  V30 10373 H 948.089 -4.66173 3.88288 0
M  V30 10374 H 946.828 -3.982 2.81581 0
M  V30 10375 H 945.833 -2.74757 4.76223 0
M  V30 10376 H 947.058 -3.45823 5.84451 0
M  V30 10377 H 945.004 -5.01526 4.22856 0
M  V30 10378 H 944.921 -4.6905 5.92898 0
M  V30 10379 H 946.189 -5.70618 5.31051 0
M  V30 10380 N 950.418 -1.49637 -0.494624 0
M  V30 10381 C 951.381 -1.66252 -1.57775 0
M  V30 10382 C 952.381 -0.534054 -1.51672 0
M  V30 10383 O 953.571 -0.800637 -1.54711 0
M  V30 10384 C 950.703 -1.66584 -2.97426 0
M  V30 10385 H 951.896 -2.62864 -1.4437 0
M  V30 10386 H 949.449 -1.38764 -0.719323 0
M  V30 10387 H 950.184 -0.715798 -3.16302 0
M  V30 10388 H 949.969 -2.48543 -3.03264 0
M  V30 10389 H 951.459 -1.81474 -3.76108 0
M  V30 10390 N 951.896 0.746133 -1.38819 0
M  V30 10391 C 952.806 1.89063 -1.38897 0
M  V30 10392 C 953.822 1.71648 -0.28513 0
M  V30 10393 O 954.998 1.94443 -0.524783 0
M  V30 10394 C 952.063 3.24523 -1.22007 0
M  V30 10395 C 951.124 3.54411 -2.42263 0
M  V30 10396 C 950.357 4.83408 -2.26169 0
M  V30 10397 O 950.58 5.56325 -1.25931 0
M  V30 10398 O 949.514 5.12943 -3.14918 0
M  V30 10399 H 953.34 1.91951 -2.35347 0
M  V30 10400 H 950.925 0.892433 -1.19816 0
M  V30 10401 H 952.807 4.05496 -1.14677 0
M  V30 10402 H 951.482 3.2243 -0.286455 0
M  V30 10403 H 950.389 2.73569 -2.55168 0
M  V30 10404 H 951.722 3.61273 -3.3428 0
M  V30 10405 N 953.375 1.23811 0.975125 0
M  V30 10406 C 954.603 1.10019 1.75224 0
M  V30 10407 C 955.018 -0.34791 1.85567 0
M  V30 10408 O 954.375 -1.24043 1.33864 0
M  V30 10409 C 954.426 1.72572 3.1765 0
M  V30 10410 O 954.147 3.11719 3.07836 0
M  V30 10411 C 955.648 1.64292 4.11732 0
M  V30 10412 H 952.868 0.38476 0.549728 0
M  V30 10413 H 955.412 1.63768 1.22476 0
M  V30 10414 H 953.567 1.22843 3.67408 0
M  V30 10415 H 953.981 3.42152 3.97533 0
M  V30 10416 H 955.455 2.12754 5.09352 0
M  V30 10417 H 955.932 0.602722 4.35045 0
M  V30 10418 H 956.538 2.13411 3.6788 0
M  V30 10419 N 954.853 -1.17469 1.05066 0
M  V30 10420 C 956.101 -1.87327 0.758485 0
M  V30 10421 C 956.422 -1.81358 -0.716549 0
M  V30 10422 O 955.692 -1.23868 -1.51768 0
M  V30 10423 H 954.272 -0.693512 0.277579 0
M  V30 10424 H 956.934 -1.4251 1.32954 0
M  V30 10425 H 956.03 -2.93101 1.0723 0
M  V30 10426 N 956.331 -0.831506 -1.3388 0
M  V30 10427 C 957.241 -0.261688 -2.33136 0
M  V30 10428 C 958.257 0.608429 -1.63016 0
M  V30 10429 O 959.433 0.514297 -1.94723 0
M  V30 10430 C 956.498 0.559957 -3.42148 0
M  V30 10431 C 955.559 -0.333569 -4.28002 0
M  V30 10432 C 954.792 0.448956 -5.31808 0
M  V30 10433 O 955.015 1.6814 -5.45055 0
M  V30 10434 O 953.949 -0.173197 -6.01651 0
M  V30 10435 H 957.775 -1.08343 -2.83717 0
M  V30 10436 H 955.36 -0.593849 -1.3709 0
M  V30 10437 H 957.242 1.02712 -4.08691 0
M  V30 10438 H 955.917 1.35888 -2.93796 0
M  V30 10439 H 954.824 -0.848416 -3.64352 0
M  V30 10440 H 956.157 -1.09707 -4.79818 0
M  V30 10441 N 957.809 1.4625 -0.587256 0
M  V30 10442 C 958.756 2.30354 0.143384 0
M  V30 10443 C 959.726 1.40891 0.879716 0
M  V30 10444 O 960.911 1.69837 0.869486 0
M  V30 10445 C 958.051 3.25441 1.14815 0
M  V30 10446 C 957.164 4.30004 0.414792 0
M  V30 10447 C 956.299 5.12214 1.40748 0
M  V30 10448 C 955.338 6.08523 0.660786 0
M  V30 10449 N 954.475 6.83585 1.60176 0
M  V30 10450 H 959.315 2.92304 -0.579866 0
M  V30 10451 H 956.852 1.44055 -0.29777 0
M  V30 10452 H 958.81 3.79018 1.7436 0
M  V30 10453 H 957.44 2.6529 1.83906 0
M  V30 10454 H 956.492 3.79248 -0.295787 0
M  V30 10455 H 957.804 4.98515 -0.168738 0
M  V30 10456 H 956.958 5.70091 2.0756 0
M  V30 10457 H 955.697 4.43675 2.02494 0
M  V30 10458 H 954.702 5.49796 -0.0210864 0
M  V30 10459 H 955.927 6.79083 0.0486551 0
M  V30 10460 H 953.873 6.17752 2.20724 0
M  V30 10461 H 953.79 7.48373 1.07115 0
M  V30 10462 H 955.058 7.46016 2.26009 0
M  V30 10463 N 959.287 0.325282 1.54207 0
M  V30 10464 C 960.217 -0.532574 2.27345 0
M  V30 10465 C 961.198 -1.11791 1.28206 0
M  V30 10466 O 962.383 -1.14272 1.57021 0
M  V30 10467 C 959.513 -1.69274 3.03255 0
M  V30 10468 C 958.467 -1.23662 4.09746 0
M  V30 10469 C 957.793 -2.48386 4.73506 0
M  V30 10470 C 959.093 -0.350244 5.21124 0
M  V30 10471 H 960.787 0.0775108 2.993 0
M  V30 10472 H 958.333 0.0387193 1.43948 0
M  V30 10473 H 960.286 -2.29917 3.53152 0
M  V30 10474 H 959.01 -2.32944 2.28921 0
M  V30 10475 H 957.669 -0.653106 3.60735 0
M  V30 10476 H 957.317 -3.10424 3.95786 0
M  V30 10477 H 957.017 -2.18558 5.45441 0
M  V30 10478 H 958.541 -3.09789 5.26178 0
M  V30 10479 H 959.955 -0.863011 5.66767 0
M  V30 10480 H 958.352 -0.14466 5.99926 0
M  V30 10481 H 959.422 0.618457 4.8094 0
M  V30 10482 N 960.765 -1.57509 0.0534917 0
M  V30 10483 C 961.695 -2.14698 -0.917999 0
M  V30 10484 C 962.676 -1.06924 -1.32292 0
M  V30 10485 O 963.861 -1.34875 -1.39723 0
M  V30 10486 C 960.991 -2.69383 -2.19203 0
M  V30 10487 C 959.945 -3.82161 -1.9271 0
M  V30 10488 C 959.271 -4.23373 -3.26587 0
M  V30 10489 C 960.571 -5.07199 -1.24686 0
M  V30 10490 H 962.265 -2.96125 -0.44165 0
M  V30 10491 H 959.811 -1.42446 -0.210993 0
M  V30 10492 H 961.764 -3.08031 -2.87567 0
M  V30 10493 H 960.488 -1.85151 -2.69048 0
M  V30 10494 H 959.147 -3.43989 -1.26757 0
M  V30 10495 H 958.795 -3.36089 -3.74237 0
M  V30 10496 H 958.495 -4.99385 -3.09658 0
M  V30 10497 H 960.019 -4.64623 -3.96178 0
M  V30 10498 H 961.433 -5.43279 -1.83088 0
M  V30 10499 H 959.83 -5.88369 -1.18076 0
M  V30 10500 H 960.9 -4.84386 -0.223227 0
M  V30 10501 N 962.243 0.219913 -1.56058 0
M  V30 10502 C 963.153 1.29349 -1.95719 0
M  V30 10503 C 964.169 1.5119 -0.861248 0
M  V30 10504 O 965.345 1.64289 -1.16495 0
M  V30 10505 C 962.41 2.6229 -2.26726 0
M  V30 10506 C 961.471 2.48738 -3.49897 0
M  V30 10507 C 960.704 3.75339 -3.79416 0
M  V30 10508 O 960.927 4.78427 -3.10586 0
M  V30 10509 O 959.861 3.72352 -4.72903 0
M  V30 10510 H 963.687 0.986979 -2.87215 0
M  V30 10511 H 961.272 0.42291 -1.43289 0
M  V30 10512 H 963.154 3.408 -2.47857 0
M  V30 10513 H 961.829 2.92619 -1.38404 0
M  V30 10514 H 960.736 1.68422 -3.34043 0
M  V30 10515 H 962.069 2.23347 -4.38608 0
M  V30 10516 N 963.721 1.49897 0.486681 0
M  V30 10517 C 964.97 1.59349 1.23656 0
M  V30 10518 C 965.283 0.292024 1.93408 0
M  V30 10519 O 966.489 0.265258 2.70201 0
M  V30 10520 C 964.945 2.81215 2.24602 0
M  V30 10521 C 964.553 4.18177 1.60725 0
M  V30 10522 C 966.297 3.00004 3.00329 0
M  V30 10523 C 964.204 5.31247 2.59866 0
M  V30 10524 H 963.134 0.593363 0.465227 0
M  V30 10525 H 965.785 1.76306 0.508769 0
M  V30 10526 H 964.167 2.57783 3.00606 0
M  V30 10527 H 965.341 4.51802 0.90616 0
M  V30 10528 H 963.656 4.04864 0.973362 0
M  V30 10529 H 966.253 3.81649 3.74497 0
M  V30 10530 H 966.596 2.1112 3.58795 0
M  V30 10531 H 967.129 3.23544 2.3144 0
M  V30 10532 H 963.868 6.22236 2.06161 0
M  V30 10533 H 963.388 5.02059 3.28172 0
M  V30 10534 H 965.067 5.61177 3.22009 0
M  V30 10535 N 965.199 -0.738761 1.39212 0
M  V30 10536 C 966.146 -1.85273 1.37631 0
M  V30 10537 C 967.116 -1.64407 0.236572 0
M  V30 10538 O 968.301 -1.85866 0.431104 0
M  V30 10539 C 965.441 -3.22745 1.22188 0
M  V30 10540 C 964.554 -3.55342 2.45674 0
M  V30 10541 C 963.689 -4.82195 2.22847 0
M  V30 10542 C 962.728 -5.07625 3.42029 0
M  V30 10543 N 961.865 -6.25679 3.18543 0
M  V30 10544 H 966.705 -1.85959 2.32859 0
M  V30 10545 H 964.242 -0.908716 1.15675 0
M  V30 10546 H 966.2 -4.02095 1.11245 0
M  V30 10547 H 964.83 -3.21347 0.30592 0
M  V30 10548 H 963.882 -2.70722 2.67233 0
M  V30 10549 H 965.194 -3.70054 3.34457 0
M  V30 10550 H 964.348 -5.69518 2.09126 0
M  V30 10551 H 963.087 -4.6965 1.31454 0
M  V30 10552 H 962.092 -4.18765 3.56253 0
M  V30 10553 H 963.317 -5.22058 4.34319 0
M  V30 10554 H 961.263 -6.14429 2.2981 0
M  V30 10555 H 961.18 -6.40961 4.0088 0
M  V30 10556 H 962.448 -7.15851 3.08508 0
M  V30 10557 N 966.677 -1.24326 -0.968545 0
M  V30 10558 C 967.64 -1.03591 -2.04454 0
M  V30 10559 C 968.64 0.0064809 -1.60799 0
M  V30 10560 O 969.83 -0.234404 -1.72616 0
M  V30 10561 C 966.962 -0.56992 -3.36102 0
M  V30 10562 H 968.155 -1.99092 -2.24282 0
M  V30 10563 H 965.708 -1.06537 -1.14366 0
M  V30 10564 H 966.443 0.388325 -3.21967 0
M  V30 10565 H 966.228 -1.32227 -3.69132 0
M  V30 10566 H 967.718 -0.445854 -4.15213 0
M  V30 10567 N 968.156 1.1691 -1.05688 0
M  V30 10568 C 969.106 2.19056 -0.632339 0
M  V30 10569 C 970.09 1.574 0.333797 0
M  V30 10570 O 971.282 1.76361 0.150223 0
M  V30 10571 C 968.411 3.43297 -0.0138209 0
M  V30 10572 C 967.497 4.12042 -1.00408 0
M  V30 10573 N 967.888 4.56535 -2.17737 0
M  V30 10574 C 966.186 4.38139 -0.833663 0
M  V30 10575 C 966.887 5.09644 -2.80425 0
M  V30 10576 N 965.863 5.02153 -2.08191 0
M  V30 10577 H 969.665 2.51165 -1.52621 0
M  V30 10578 H 967.179 1.33294 -0.927707 0
M  V30 10579 H 969.176 4.1576 0.308117 0
M  V30 10580 H 967.836 3.12677 0.87538 0
M  V30 10581 H 968.847 4.50463 -2.55546 0
M  V30 10582 H 965.524 4.175 0.00406684 0
M  V30 10583 H 966.914 5.54153 -3.79952 0
M  V30 10584 N 969.634 0.838594 1.33437 0
M  V30 10585 C 970.544 0.274048 2.32994 0
M  V30 10586 C 971.56 -0.599776 1.63336 0
M  V30 10587 O 972.736 -0.503963 1.94993 0
M  V30 10588 C 969.801 -0.541804 3.4244 0
M  V30 10589 C 968.862 0.356262 4.27819 0
M  V30 10590 C 968.095 -0.420747 5.32039 0
M  V30 10591 O 968.318 -1.65247 5.45939 0
M  V30 10592 O 967.252 0.205101 6.0155 0
M  V30 10593 H 971.078 1.09846 2.83139 0
M  V30 10594 H 968.663 0.601111 1.36774 0
M  V30 10595 H 970.545 -1.00544 4.0923 0
M  V30 10596 H 969.22 -1.34328 2.94513 0
M  V30 10597 H 968.127 0.867726 3.63897 0
M  V30 10598 H 969.46 1.1225 4.79229 0
M  V30 10599 N 971.112 -1.45937 0.595003 0
M  V30 10600 C 972.389 -1.95592 0.0178748 0
M  V30 10601 C 972.769 -1.53758 -1.44643 0
M  V30 10602 O 972.117 -0.794104 -2.14257 0
M  V30 10603 C 972.327 -3.4841 0.202789 0
M  V30 10604 C 973.675 -4.2453 0.0770121 0
M  V30 10605 O 974.699 -3.55954 0.132257 0
M  V30 10606 O 973.558 -5.46479 -0.0484271 0
M  V30 10607 H 970.652 -0.825888 -0.0428702 0
M  V30 10608 H 973.198 -1.56162 0.664184 0
M  V30 10609 H 971.97 -3.71787 1.22027 0
M  V30 10610 H 971.593 -3.947 -0.479376 0
M  V30 10611 N 972.59 -0.333456 -1.54032 0
M  V30 10612 C 973.5 0.536674 -2.28379 0
M  V30 10613 C 974.516 1.12068 -1.33104 0
M  V30 10614 O 975.692 1.13853 -1.66131 0
M  V30 10615 C 972.757 1.67677 -3.03456 0
M  V30 10616 C 971.818 1.12357 -4.14336 0
M  V30 10617 C 971.051 2.20933 -4.85823 0
M  V30 10618 O 971.274 3.41466 -4.569 0
M  V30 10619 O 970.208 1.85795 -5.72507 0
M  V30 10620 H 974.034 -0.0674003 -3.03625 0
M  V30 10621 H 971.619 -0.098823 -1.49073 0
M  V30 10622 H 973.501 2.34032 -3.50438 0
M  V30 10623 H 972.176 2.26684 -2.31076 0
M  V30 10624 H 971.083 0.424827 -3.7168 0
M  V30 10625 H 972.416 0.578497 -4.88789 0
M  V30 10626 N 974.068 1.57479 -0.061844 0
M  V30 10627 C 975.314 1.93395 0.610443 0
M  V30 10628 C 975.647 0.941334 1.6986 0
M  V30 10629 O 974.922 -0.0310262 1.94475 0
M  V30 10630 C 975.205 3.39636 1.19664 0
M  V30 10631 C 975.058 4.49651 0.115805 0
M  V30 10632 C 976.377 3.86488 2.10512 0
M  V30 10633 H 973.496 0.703262 0.220436 0
M  V30 10634 H 976.138 1.89583 -0.125785 0
M  V30 10635 H 974.288 3.43015 1.82409 0
M  V30 10636 H 975.96 4.58397 -0.516728 0
M  V30 10637 H 974.203 4.30237 -0.55483 0
M  V30 10638 H 974.874 5.49089 0.566176 0
M  V30 10639 H 977.35 3.85052 1.57715 0
M  V30 10640 H 976.226 4.89444 2.48466 0
M  V30 10641 H 976.487 3.23856 3.00948 0
M  V30 10642 N 975.546 -0.211634 1.56173 0
M  V30 10643 C 976.476 -1.26533 1.96244 0
M  V30 10644 C 977.457 -1.48362 0.832028 0
M  V30 10645 O 978.642 -1.60378 1.0951 0
M  V30 10646 C 975.772 -2.61307 2.2877 0
M  V30 10647 C 974.726 -2.54119 3.44395 0
M  V30 10648 C 974.052 -3.93014 3.62552 0
M  V30 10649 C 975.352 -2.08046 4.79076 0
M  V30 10650 H 977.046 -0.932407 2.84511 0
M  V30 10651 H 974.592 -0.447084 1.36884 0
M  V30 10652 H 976.545 -3.35188 2.55396 0
M  V30 10653 H 975.269 -2.96307 1.37367 0
M  V30 10654 H 973.928 -1.82694 3.17834 0
M  V30 10655 H 973.576 -4.25338 2.68508 0
M  V30 10656 H 973.276 -3.89083 4.40327 0
M  V30 10657 H 974.8 -4.68542 3.91537 0
M  V30 10658 H 976.214 -2.71676 5.04842 0
M  V30 10659 H 974.611 -2.15154 5.60204 0
M  V30 10660 H 975.681 -1.03306 4.73768 0
M  V30 10661 N 977.024 -1.50153 -0.478725 0
M  V30 10662 C 978.264 -1.62393 -1.24129 0
M  V30 10663 C 978.628 -0.313774 -1.89419 0
M  V30 10664 O 979.829 -0.311537 -2.66989 0
M  V30 10665 C 978.1 -2.76633 -2.26293 0
M  V30 10666 S 979.659 -3.08961 -3.11591 0
M  V30 10667 H 976.477 -0.572559 -0.421541 0
M  V30 10668 H 979.079 -1.87906 -0.539592 0
M  V30 10669 H 977.783 -3.70319 -1.76896 0
M  V30 10670 H 977.314 -2.53182 -3.01102 0
M  V30 10671 H 979.329 -2.52197 -4.2733 0
M  V30 10672 N 978.502 0.731368 -1.39602 0
M  V30 10673 C 979.742 1.5036 -1.3846 0
M  V30 10674 C 980.106 1.91991 0.018784 0
M  V30 10675 O 981.307 2.68351 0.155236 0
M  V30 10676 C 979.578 2.70755 -2.33295 0
M  V30 10677 S 981.137 3.6036 -2.50372 0
M  V30 10678 H 977.955 0.514271 -0.490964 0
M  V30 10679 H 980.557 0.856654 -1.75732 0
M  V30 10680 H 979.261 2.38316 -3.34116 0
M  V30 10681 H 978.792 3.40376 -1.97251 0
M  V30 10682 H 980.807 4.64529 -1.74435 0
M  V30 10683 N 979.98 1.24838 0.961938 0
M  V30 10684 C 980.943 1.04674 2.03902 0
M  V30 10685 C 981.943 0.00204674 1.608 0
M  V30 10686 O 983.133 0.243555 1.72489 0
M  V30 10687 C 980.265 0.587736 3.35795 0
M  V30 10688 H 981.458 2.00278 2.23223 0
M  V30 10689 H 979.011 1.07142 1.138 0
M  V30 10690 H 979.746 -0.371244 3.22168 0
M  V30 10691 H 979.531 1.34182 3.68426 0
M  V30 10692 H 981.021 0.467867 4.14971 0
M  V30 10693 N 981.458 -1.16348 1.06306 0
M  V30 10694 C 982.705 -1.86881 0.779852 0
M  V30 10695 C 983.033 -1.8171 -0.693668 0
M  V30 10696 O 982.288 -1.22769 -1.52401 0
M  V30 10697 C 982.587 -3.35936 1.21991 0
M  V30 10698 C 982.253 -3.61307 2.69756 0
M  V30 10699 C 980.915 -3.6794 3.10119 0
M  V30 10700 C 983.267 -3.71871 3.65187 0
M  V30 10701 C 980.595 -3.82639 4.44752 0
M  V30 10702 C 982.947 -3.88091 4.99568 0
M  V30 10703 C 981.611 -3.92967 5.39568 0
M  V30 10704 H 980.881 -0.683847 0.285368 0
M  V30 10705 H 983.528 -1.37569 1.33218 0
M  V30 10706 H 981.833 -3.87381 0.586774 0
M  V30 10707 H 983.53 -3.88895 0.977821 0
M  V30 10708 H 980.12 -3.56777 2.37504 0
M  V30 10709 H 984.304 -3.66057 3.35136 0
M  V30 10710 H 979.56 -3.84666 4.75228 0
M  V30 10711 H 983.734 -3.95207 5.73397 0
M  V30 10712 H 981.361 -4.04109 6.43895 0
M  V30 10713 N 982.937 -0.845659 -1.3299 0
M  V30 10714 C 984.162 -0.457435 -2.02293 0
M  V30 10715 C 984.587 0.935634 -1.63179 0
M  V30 10716 O 983.945 1.61297 -0.827835 0
M  V30 10717 C 983.993 -0.593665 -3.5568 0
M  V30 10718 O 983.097 0.37729 -4.10671 0
M  V30 10719 H 982.438 -0.185022 -0.637701 0
M  V30 10720 H 984.968 -1.14237 -1.69738 0
M  V30 10721 H 984.978 -0.477834 -4.05192 0
M  V30 10722 H 983.653 -1.60957 -3.83491 0
M  V30 10723 H 982.23 0.218448 -3.7226 0
M  V30 10724 N 984.415 1.45619 -0.602734 0
M  V30 10725 C 985.643 2.06647 -0.102253 0
M  V30 10726 C 986.058 1.4482 1.21131 0
M  V30 10727 O 985.415 0.560621 1.73676 0
M  V30 10728 C 985.466 3.61467 0.0490113 0
M  V30 10729 O 985.187 4.20985 -1.21257 0
M  V30 10730 C 986.688 4.39469 0.581517 0
M  V30 10731 H 983.908 0.667685 -0.0666155 0
M  V30 10732 H 986.452 1.86939 -0.829091 0
M  V30 10733 H 984.607 3.80534 0.726153 0
M  V30 10734 H 985.021 5.14103 -1.03915 0
M  V30 10735 H 986.495 5.48318 0.636462 0
M  V30 10736 H 986.972 4.0891 1.60277 0
M  V30 10737 H 987.578 4.25256 -0.061419 0
M  V30 10738 N 985.893 0.34162 1.53853 0
M  V30 10739 C 987.17 -0.310664 1.93117 0
M  V30 10740 C 987.55 -1.68398 1.273 0
M  V30 10741 O 986.898 -2.24546 0.423225 0
M  V30 10742 C 987.108 -0.384867 3.46871 0
M  V30 10743 C 988.456 -0.636621 4.198 0
M  V30 10744 O 989.48 -0.467061 3.53125 0
M  V30 10745 O 988.339 -0.964962 5.37913 0
M  V30 10746 H 985.433 -0.180881 0.806977 0
M  V30 10747 H 987.979 0.392656 1.65095 0
M  V30 10748 H 986.751 0.57894 3.86994 0
M  V30 10749 H 986.374 -1.13505 3.81054 0
M  V30 10750 N 987.371 -1.57444 0.0701946 0
M  V30 10751 C 988.648 -1.84826 -0.6402 0
M  V30 10752 C 989.028 -0.962344 -1.87889 0
M  V30 10753 O 988.376 -0.0282209 -2.28483 0
M  V30 10754 C 988.586 -3.34976 -0.979382 0
M  V30 10755 C 989.934 -4.02448 -1.35355 0
M  V30 10756 O 990.958 -3.39713 -1.07116 0
M  V30 10757 O 989.817 -5.13096 -1.88136 0
M  V30 10758 H 986.911 -0.763494 -0.317813 0
M  V30 10759 H 989.457 -1.69399 0.101004 0
M  V30 10760 H 988.229 -3.91173 -0.0995576 0
M  V30 10761 H 987.852 -3.5566 -1.7774 0
M  V30 10762 N 988.849 0.203349 -1.56283 0
M  V30 10763 C 990.265 0.55384 -1.49682 0
M  V30 10764 C 990.465 1.86261 -0.768701 0
M  V30 10765 O 989.521 2.50517 -0.315824 0
M  V30 10766 C 990.834 0.616216 -2.94318 0
M  V30 10767 C 992.382 0.705611 -3.04943 0
M  V30 10768 C 992.857 0.79917 -4.50974 0
M  V30 10769 N 994.348 0.862916 -4.55091 0
M  V30 10770 C 995.083 0.955334 -5.65386 0
M  V30 10771 N 994.579 1.01057 -6.8539 0
M  V30 10772 N 996.372 0.991884 -5.53279 0
M  V30 10773 H 988.523 -0.655244 -2.0204 0
M  V30 10774 H 990.786 -0.232344 -0.919087 0
M  V30 10775 H 990.492 -0.27619 -3.50614 0
M  V30 10776 H 990.366 1.47371 -3.4722 0
M  V30 10777 H 992.753 1.58845 -2.48701 0
M  V30 10778 H 992.834 -0.177921 -2.5518 0
M  V30 10779 H 992.478 -0.0792841 -5.07838 0
M  V30 10780 H 992.408 1.69838 -4.9846 0
M  V30 10781 H 994.899 0.829812 -3.68677 0
M  V30 10782 H 995.212 1.08137 -7.65197 0
M  V30 10783 H 993.557 0.979384 -6.88065 0
M  V30 10784 H 996.748 0.945514 -4.58451 0
M  V30 10785 H 996.921 1.06045 -6.39264 0
M  V30 10786 N 990.327 1.50405 0.470755 0
M  V30 10787 C 991.574 1.61411 1.22281 0
M  V30 10788 C 991.902 0.314603 1.91939 0
M  V30 10789 O 991.157 -0.699531 1.82771 0
M  V30 10790 C 991.456 2.74426 2.28965 0
M  V30 10791 C 991.122 4.14896 1.76557 0
M  V30 10792 C 989.784 4.53116 1.61985 0
M  V30 10793 C 992.136 5.02686 1.3768 0
M  V30 10794 C 989.464 5.76868 1.0696 0
M  V30 10795 C 991.816 6.26985 0.840967 0
M  V30 10796 C 990.48 6.64008 0.68188 0
M  V30 10797 H 989.75 0.590645 0.447459 0
M  V30 10798 H 992.397 1.84339 0.518783 0
M  V30 10799 H 990.702 2.45588 3.05277 0
M  V30 10800 H 992.399 2.80146 2.86914 0
M  V30 10801 H 988.989 3.84743 1.88867 0
M  V30 10802 H 993.173 4.7379 1.47772 0
M  V30 10803 H 988.429 6.04227 0.933808 0
M  V30 10804 H 992.603 6.94372 0.531066 0
M  V30 10805 H 990.23 7.59778 0.25335 0
M  V30 10806 N 991.805 -0.723954 1.39988 0
M  V30 10807 C 993.054 -1.47922 1.3712 0
M  V30 10808 C 993.367 -1.95582 -0.0263665 0
M  V30 10809 O 994.573 -2.70918 -0.177652 0
M  V30 10810 C 993.029 -2.67342 2.40949 0
M  V30 10811 C 992.637 -2.26586 3.86475 0
M  V30 10812 C 994.381 -3.45116 2.47174 0
M  V30 10813 C 992.288 -3.42794 4.81919 0
M  V30 10814 H 991.218 -0.555522 0.509815 0
M  V30 10815 H 993.869 -0.788692 1.65686 0
M  V30 10816 H 992.251 -3.38524 2.0547 0
M  V30 10817 H 993.425 -1.62878 4.31054 0
M  V30 10818 H 991.74 -1.61876 3.83647 0
M  V30 10819 H 994.337 -4.31573 3.15672 0
M  V30 10820 H 994.68 -3.8835 1.49966 0
M  V30 10821 H 995.213 -2.80971 2.81602 0
M  V30 10822 H 991.952 -3.046 5.8043 0
M  V30 10823 H 991.472 -4.05445 4.42012 0
M  V30 10824 H 993.151 -4.08977 5.01345 0
M  V30 10825 N 993.283 -1.25346 -0.955304 0
M  V30 10826 C 994.246 -1.05754 -2.03344 0
M  V30 10827 C 995.246 -0.0105743 -1.60797 0
M  V30 10828 O 996.436 -0.252699 -1.72357 0
M  V30 10829 C 993.568 -0.605536 -3.35479 0
M  V30 10830 H 994.761 -2.01459 -2.22158 0
M  V30 10831 H 992.314 -1.07744 -1.1323 0
M  V30 10832 H 993.049 0.354154 -3.2236 0
M  V30 10833 H 992.834 -1.36134 -3.67709 0
M  V30 10834 H 994.324 -0.489867 -4.14717 0
M  V30 10835 N 994.761 1.15782 -1.06922 0
M  V30 10836 C 995.989 1.90355 -0.81072 0
M  V30 10837 C 996.404 1.77779 0.635614 0
M  V30 10838 O 995.761 1.12675 1.43564 0
M  V30 10839 C 995.812 3.4085 -1.2043 0
M  V30 10840 O 995.533 3.53057 -2.59388 0
M  V30 10841 C 997.034 4.32457 -0.974473 0
M  V30 10842 H 994.254 0.60343 -0.293451 0
M  V30 10843 H 996.798 1.46723 -1.42452 0
M  V30 10844 H 994.953 3.82162 -0.634909 0
M  V30 10845 H 995.367 4.46426 -2.75326 0
M  V30 10846 H 996.841 5.36488 -1.29942 0
M  V30 10847 H 997.318 4.39109 0.0894481 0
M  V30 10848 H 997.924 3.96882 -1.52856 0
M  V30 10849 N 996.239 0.8527 1.3254 0
M  V30 10850 C 997.479 0.461385 1.99125 0
M  V30 10851 C 997.843 -0.964507 1.66016 0
M  V30 10852 O 999.044 -1.46027 2.25676 0
M  V30 10853 C 997.315 0.69143 3.50648 0
M  V30 10854 S 998.874 0.397397 4.36997 0
M  V30 10855 H 995.692 0.172933 0.689649 0
M  V30 10856 H 998.294 1.10499 1.61277 0
M  V30 10857 H 996.998 1.72831 3.72233 0
M  V30 10858 H 996.529 0.0341812 3.93385 0
M  V30 10859 H 998.544 -0.777363 4.90073 0
M  V30 10860 N 997.718 -1.45297 0.610449 0
M  V30 10861 C 998.943 -2.07101 0.111414 0
M  V30 10862 C 999.368 -1.45161 -1.19625 0
M  V30 10863 O 998.726 -0.545368 -1.72903 0
M  V30 10864 C 998.774 -3.60598 -0.0117372 0
M  V30 10865 O 997.878 -3.98512 -1.06122 0
M  V30 10866 H 997.219 -0.659709 0.075364 0
M  V30 10867 H 999.749 -1.86504 0.841269 0
M  V30 10868 H 999.759 -4.07464 -0.209028 0
M  V30 10869 H 998.434 -4.05067 0.943076 0
M  V30 10870 H 997.011 -3.63312 -0.840158 0
M  V30 10871 N 999.196 -0.349774 -1.5367 0
M  V30 10872 C 1000.44 0.245189 -2.01312 0
M  V30 10873 C 1000.77 1.49702 -1.23705 0
M  V30 10874 O 1000.05 1.91742 -0.326371 0
M  V30 10875 C 1000.33 0.553071 -3.55827 0
M  V30 10876 C 1000.19 -0.71129 -4.4414 0
M  V30 10877 C 1001.5 1.36015 -4.18555 0
M  V30 10878 H 998.624 0.0876415 -0.73177 0
M  V30 10879 H 1001.27 -0.471543 -1.84056 0
M  V30 10880 H 999.416 1.16367 -3.70663 0
M  V30 10881 H 1001.09 -1.34913 -4.41131 0
M  V30 10882 H 999.331 -1.33491 -4.1275 0
M  V30 10883 H 1000 -0.45104 -5.50154 0
M  V30 10884 H 1002.48 0.843778 -4.07455 0
M  V30 10885 H 1001.35 1.54432 -5.26728 0
M  V30 10886 H 1001.61 2.36408 -3.73582 0
M  V30 10887 N 1000.67 1.57404 -0.0785433 0
M  V30 10888 C 1001.95 1.85163 0.630389 0
M  V30 10889 C 1002.33 0.972295 1.87376 0
M  V30 10890 O 1001.68 0.0403375 2.28464 0
M  V30 10891 C 1001.89 3.35491 0.961604 0
M  V30 10892 C 1003.24 4.0316 1.33219 0
M  V30 10893 O 1004.26 3.40276 1.05313 0
M  V30 10894 O 1003.12 5.14086 1.85412 0
M  V30 10895 H 1000.21 0.765169 0.31376 0
M  V30 10896 H 1002.76 1.69343 -0.109986 0
M  V30 10897 H 1001.53 3.91221 0.0788113 0
M  V30 10898 H 1001.15 3.56598 1.75852 0
M  V30 10899 N 1002.15 -0.195058 1.56388 0
M  V30 10900 C 1003.1 -1.24175 1.94549 0
M  V30 10901 C 1004.07 -1.45229 0.806089 0
M  V30 10902 O 1005.25 -1.58362 1.06425 0
M  V30 10903 C 1002.39 -2.58145 2.29031 0
M  V30 10904 C 1001.51 -2.44669 3.56035 0
M  V30 10905 C 1000.64 -3.71342 3.7984 0
M  V30 10906 C 999.681 -3.52699 5.0027 0
M  V30 10907 N 998.818 -4.71385 5.20328 0
M  V30 10908 H 1003.66 -0.909319 2.83788 0
M  V30 10909 H 1001.19 -0.437641 1.40439 0
M  V30 10910 H 1003.15 -3.36195 2.4704 0
M  V30 10911 H 1001.78 -2.8943 1.42933 0
M  V30 10912 H 1000.83 -1.57916 3.46073 0
M  V30 10913 H 1002.15 -2.26827 4.44242 0
M  V30 10914 H 1001.3 -4.57832 3.98088 0
M  V30 10915 H 1000.04 -3.92138 2.89964 0
M  V30 10916 H 999.045 -2.64594 4.81944 0
M  V30 10917 H 1000.27 -3.33349 5.91655 0
M  V30 10918 H 998.216 -4.92444 4.33399 0
M  V30 10919 H 998.133 -4.56368 6.02714 0
M  V30 10920 H 999.401 -5.59226 5.43035 0
M  V30 10921 N 1003.63 -1.50653 -0.462772 0
M  V30 10922 C 1004.58 -1.70122 -1.55971 0
M  V30 10923 C 1005.55 -0.542581 -1.56988 0
M  V30 10924 O 1006.73 -0.774114 -1.74391 0
M  V30 10925 C 1003.87 -1.80899 -2.93887 0
M  V30 10926 C 1002.98 -3.08318 -3.02595 0
M  V30 10927 C 1002.12 -3.09841 -4.31477 0
M  V30 10928 C 1001.16 -4.3168 -4.33957 0
M  V30 10929 N 1000.3 -4.30894 -5.54323 0
M  V30 10930 H 1005.14 -2.63768 -1.38674 0
M  V30 10931 H 1002.67 -1.30746 -0.674091 0
M  V30 10932 H 1004.63 -1.85128 -3.73876 0
M  V30 10933 H 1003.26 -0.906854 -3.098 0
M  V30 10934 H 1002.31 -3.13521 -2.15427 0
M  V30 10935 H 1003.62 -3.98282 -3.00288 0
M  V30 10936 H 1002.78 -3.12845 -5.1982 0
M  V30 10937 H 1001.52 -2.17722 -4.36404 0
M  V30 10938 H 1000.52 -4.28879 -3.4401 0
M  V30 10939 H 1001.75 -5.25035 -4.30715 0
M  V30 10940 H 999.694 -3.41633 -5.6002 0
M  V30 10941 H 999.611 -5.14636 -5.53792 0
M  V30 10942 H 1000.88 -4.38056 -6.44769 0
M  V30 10943 N 1005.11 0.71652 -1.4037 0
M  V30 10944 C 1006.35 1.47857 -1.38803 0
M  V30 10945 C 1006.69 1.94197 0.0100536 0
M  V30 10946 O 1005.96 1.68093 0.978521 0
M  V30 10947 C 1006.25 2.7053 -2.37667 0
M  V30 10948 C 1006.1 2.3009 -3.86496 0
M  V30 10949 C 1007.42 3.72684 -2.34082 0
M  V30 10950 H 1004.54 0.53632 -0.505499 0
M  V30 10951 H 1007.18 0.817824 -1.71498 0
M  V30 10952 H 1005.33 3.26906 -2.09916 0
M  V30 10953 H 1007 1.79202 -4.2507 0
M  V30 10954 H 1005.24 1.62102 -4.02375 0
M  V30 10955 H 1005.91 3.18018 -4.51186 0
M  V30 10956 H 1008.39 3.25935 -2.58661 0
M  V30 10957 H 1007.27 4.56157 -3.05306 0
M  V30 10958 H 1007.53 4.20916 -1.35213 0
M  V30 10959 N 1006.59 1.25851 0.948643 0
M  V30 10960 C 1007.53 1.06759 2.04625 0
M  V30 10961 C 1008.5 -0.0251144 1.66081 0
M  V30 10962 O 1009.69 0.133221 1.90334 0
M  V30 10963 C 1006.83 0.698724 3.37952 0
M  V30 10964 C 1005.94 1.8669 3.89578 0
M  V30 10965 C 1005.08 1.44184 5.11258 0
M  V30 10966 C 1004.12 2.57878 5.55126 0
M  V30 10967 N 1003.25 2.16106 6.68014 0
M  V30 10968 H 1008.09 2.00691 2.20289 0
M  V30 10969 H 1005.63 0.999327 1.07944 0
M  V30 10970 H 1007.59 0.465788 4.14592 0
M  V30 10971 H 1006.22 -0.203618 3.22157 0
M  V30 10972 H 1005.27 2.21298 3.09405 0
M  V30 10973 H 1006.58 2.72051 4.18079 0
M  V30 10974 H 1005.74 1.16891 5.95333 0
M  V30 10975 H 1004.47 0.559035 4.84485 0
M  V30 10976 H 1003.48 2.85909 4.69612 0
M  V30 10977 H 1004.7 3.46747 5.83904 0
M  V30 10978 H 1002.65 1.3025 6.42939 0
M  V30 10979 H 1002.57 2.95012 6.96063 0
M  V30 10980 H 1003.84 1.92005 7.55483 0
M  V30 10981 N 1008.06 -1.15214 1.07534 0
M  V30 10982 C 1009.31 -1.85388 0.794617 0
M  V30 10983 C 1009.63 -1.83331 -0.681838 0
M  V30 10984 O 1010.83 -2.49207 -1.0774 0
M  V30 10985 C 1009.29 -3.32747 1.37141 0
M  V30 10986 C 1008.9 -3.43244 2.87902 0
M  V30 10987 C 1010.64 -4.08093 1.16879 0
M  V30 10988 C 1008.55 -4.84762 3.38763 0
M  V30 10989 H 1007.48 -0.694499 0.293577 0
M  V30 10990 H 1010.13 -1.29944 1.29564 0
M  V30 10991 H 1008.51 -3.87874 0.798121 0
M  V30 10992 H 1009.68 -2.98214 3.51291 0
M  V30 10993 H 1008 -2.81345 3.06975 0
M  V30 10994 H 1010.6 -5.12535 1.52353 0
M  V30 10995 H 1010.94 -4.1616 0.107958 0
M  V30 10996 H 1011.47 -3.59241 1.70854 0
M  V30 10997 H 1008.21 -4.81879 4.4438 0
M  V30 10998 H 1007.73 -5.30366 2.80128 0
M  V30 10999 H 1009.41 -5.53624 3.34827 0
M  V30 11000 N 1009.54 -0.859717 -1.32086 0
M  V30 11001 C 1010.79 -0.475565 -1.97762 0
M  V30 11002 C 1011.14 0.959348 -1.66776 0
M  V30 11003 O 1010.44 1.66484 -0.948343 0
M  V30 11004 C 1010.63 -0.657397 -3.51302 0
M  V30 11005 C 1010.46 -2.10843 -3.97209 0
M  V30 11006 C 1009.23 -2.74796 -4.24046 0
M  V30 11007 C 1011.43 -3.07959 -4.11905 0
M  V30 11008 N 1009.41 -4.10758 -4.56236 0
M  V30 11009 C 1010.78 -4.28922 -4.4769 0
M  V30 11010 C 1012.84 -3.04086 -3.94254 0
M  V30 11011 C 1011.54 -5.46518 -4.67665 0
M  V30 11012 C 1013.56 -4.20931 -4.15416 0
M  V30 11013 C 1012.93 -5.40654 -4.51522 0
M  V30 11014 H 1009.03 -0.222859 -0.749572 0
M  V30 11015 H 1011.61 -1.11217 -1.59809 0
M  V30 11016 H 1009.78 -0.0504597 -3.88367 0
M  V30 11017 H 1011.51 -0.242642 -4.03972 0
M  V30 11018 H 1008.27 -2.25805 -4.16304 0
M  V30 11019 H 1008.69 -4.80905 -4.76507 0
M  V30 11020 H 1013.33 -2.12641 -3.65436 0
M  V30 11021 H 1011.05 -6.3849 -4.95335 0
M  V30 11022 H 1014.64 -4.19376 -4.03255 0
M  V30 11023 H 1013.52 -6.29563 -4.67568 0
M  V30 11024 N 1011.02 1.44971 -0.618145 0
M  V30 11025 C 1011.97 2.32354 0.106846 0
M  V30 11026 C 1012.96 1.4659 0.848984 0
M  V30 11027 O 1014.17 1.63012 0.763354 0
M  V30 11028 H 1010.54 0.750108 0.0533109 0
M  V30 11029 H 1012.51 2.9127 -0.648426 0
M  V30 11030 C 1011.26 3.30381 1.08368 0
M  V30 11031 H 1010.59 3.96377 0.52205 0
M  V30 11032 H 1012.03 3.94231 1.56069 0
M  V30 11033 C 1010.49 2.58336 2.1625 0
M  V30 11034 O 1011.02 2.37258 3.24148 0
M  V30 11035 N 1009.22 2.18292 1.91825 0
M  V30 11036 H 1008.77 2.35635 1.04086 0
M  V30 11037 H 1008.73 1.70413 2.6421 0
M  V30 11038 N 1012.5 0.357919 1.53482 0
M  V30 11039 C 1013.72 -0.237769 2.06033 0
M  V30 11040 C 1014.15 -1.42292 1.23023 0
M  V30 11041 O 1013.51 -1.79604 0.247427 0
M  V30 11042 C 1013.55 -0.616806 3.55286 0
M  V30 11043 O 1012.66 -1.71503 3.75047 0
M  V30 11044 H 1012 -0.0364322 0.663 0
M  V30 11045 H 1014.53 0.516301 1.97979 0
M  V30 11046 H 1014.54 -0.88996 3.98175 0
M  V30 11047 H 1013.21 0.249825 4.15149 0
M  V30 11048 H 1011.79 -1.43803 3.44057 0
M  V30 11049 N 1013.98 -1.5736 0.0868897 0
M  V30 11050 C 1014.91 -2.09211 -0.911382 0
M  V30 11051 C 1015.89 -1.00072 -1.28157 0
M  V30 11052 O 1017.07 -1.27514 -1.38825 0
M  V30 11053 C 1014.2 -2.56229 -2.21504 0
M  V30 11054 C 1013.24 -3.76948 -1.99531 0
M  V30 11055 S 1014.08 -5.20926 -1.24083 0
M  V30 11056 C 1015.23 -5.71288 -2.55697 0
M  V30 11057 H 1015.47 -2.93557 -0.470245 0
M  V30 11058 H 1013 -1.53883 -0.126218 0
M  V30 11059 H 1014.96 -2.83978 -2.96424 0
M  V30 11060 H 1013.62 -1.72123 -2.6274 0
M  V30 11061 H 1012.81 -4.07887 -2.96048 0
M  V30 11062 H 1012.41 -3.4965 -1.32744 0
M  V30 11063 H 1014.71 -5.79054 -3.51714 0
M  V30 11064 H 1015.65 -6.6993 -2.29347 0
M  V30 11065 H 1016.06 -4.99178 -2.63594 0
M  V30 11066 N 1015.45 0.186762 -1.56489 0
M  V30 11067 C 1016.68 0.921832 -1.85229 0
M  V30 11068 C 1017.1 1.76496 -0.670416 0
M  V30 11069 O 1016.45 1.78899 0.360758 0
M  V30 11070 C 1016.51 1.81121 -3.12854 0
M  V30 11071 O 1016.23 1.00211 -4.26485 0
M  V30 11072 C 1017.73 2.65725 -3.54831 0
M  V30 11073 H 1014.95 0.268563 -0.61491 0
M  V30 11074 H 1017.49 0.191505 -2.03601 0
M  V30 11075 H 1015.65 2.49506 -2.96354 0
M  V30 11076 H 1016.06 1.60893 -4.99213 0
M  V30 11077 H 1017.53 3.23771 -4.47075 0
M  V30 11078 H 1018.01 3.39843 -2.78215 0
M  V30 11079 H 1018.62 2.02698 -3.7389 0
M  V30 11080 N 1016.93 1.50896 0.454776 0
M  V30 11081 C 1018.18 1.62378 1.20324 0
M  V30 11082 C 1018.5 0.333883 1.9212 0
M  V30 11083 O 1017.77 -0.649477 1.8482 0
M  V30 11084 H 1016.35 0.598395 0.447139 0
M  V30 11085 H 1019.01 1.87749 0.523102 0
M  V30 11086 H 1018.11 2.44296 1.94232 0
M  V30 11087 N 1018.41 -0.709066 1.40748 0
M  V30 11088 C 1019.32 -1.85314 1.43861 0
M  V30 11089 C 1020.34 -1.70832 0.330539 0
M  V30 11090 O 1021.51 -1.92983 0.576152 0
M  V30 11091 C 1018.58 -3.21174 1.30568 0
M  V30 11092 C 1017.64 -3.47863 2.51574 0
M  V30 11093 C 1016.87 -4.77241 2.38906 0
M  V30 11094 O 1017.09 -5.52791 1.40636 0
M  V30 11095 O 1016.03 -5.04413 3.28407 0
M  V30 11096 H 1019.85 -1.85644 2.40354 0
M  V30 11097 H 1017.44 -0.860352 1.2214 0
M  V30 11098 H 1019.32 -4.02313 1.25388 0
M  V30 11099 H 1018 -3.21557 0.371841 0
M  V30 11100 H 1016.9 -2.66708 2.62331 0
M  V30 11101 H 1018.24 -3.52283 3.43741 0
M  V30 11102 N 1019.89 -1.26353 -0.941956 0
M  V30 11103 C 1020.82 -1.10341 -2.05784 0
M  V30 11104 C 1021.8 -0.00881565 -1.70098 0
M  V30 11105 O 1022.99 -0.180699 -1.93357 0
M  V30 11106 C 1020.12 -0.734788 -3.39438 0
M  V30 11107 C 1019.07 -1.78103 -3.89183 0
M  V30 11108 C 1018.4 -1.26675 -5.19478 0
M  V30 11109 C 1019.7 -3.1824 -4.14151 0
M  V30 11110 H 1021.39 -2.03684 -2.19438 0
M  V30 11111 H 1018.94 -0.980698 -1.05443 0
M  V30 11112 H 1020.89 -0.609653 -4.16967 0
M  V30 11113 H 1019.61 0.234354 -3.25758 0
M  V30 11114 H 1018.27 -1.89482 -3.13835 0
M  V30 11115 H 1017.92 -0.287472 -5.02178 0
M  V30 11116 H 1017.62 -1.96612 -5.53731 0
M  V30 11117 H 1019.14 -1.15427 -5.99591 0
M  V30 11118 H 1020.56 -3.09942 -4.82296 0
M  V30 11119 H 1018.95 -3.8576 -4.59684 0
M  V30 11120 H 1020.02 -3.64354 -3.19959 0
M  V30 11121 N 1021.37 1.14642 -1.08144 0
M  V30 11122 C 1022.61 1.85892 -0.810683 0
M  V30 11123 C 1022.95 1.82575 0.661821 0
M  V30 11124 O 1022.22 1.25454 1.48632 0
M  V30 11125 C 1022.5 3.34647 -1.32979 0
M  V30 11126 C 1022.36 3.46551 -2.86744 0
M  V30 11127 C 1023.68 4.29661 -0.952864 0
M  V30 11128 H 1020.8 0.674963 -0.295963 0
M  V30 11129 H 1023.44 1.3464 -1.3406 0
M  V30 11130 H 1021.59 3.78425 -0.87903 0
M  V30 11131 H 1023.26 3.11579 -3.40171 0
M  V30 11132 H 1021.5 2.87849 -3.24539 0
M  V30 11133 H 1022.17 4.51101 -3.18138 0
M  V30 11134 H 1024.65 3.93885 -1.34141 0
M  V30 11135 H 1023.53 5.32209 -1.34331 0
M  V30 11136 H 1023.79 4.41877 0.140392 0
M  V30 11137 N 1022.85 0.866709 1.31628 0
M  V30 11138 C 1023.8 0.291712 2.26126 0
M  V30 11139 C 1024.78 -0.569375 1.50489 0
M  V30 11140 O 1025.97 -0.416786 1.72023 0
M  V30 11141 C 1023.1 -0.508624 3.39511 0
M  V30 11142 C 1022.19 0.365524 4.22522 0
M  V30 11143 N 1022.58 1.45747 4.84346 0
M  V30 11144 C 1020.88 0.157384 4.45722 0
M  V30 11145 C 1021.58 1.99625 5.46374 0
M  V30 11146 N 1020.55 1.29371 5.27981 0
M  V30 11147 H 1024.35 1.12633 2.71461 0
M  V30 11148 H 1021.87 0.714118 1.45857 0
M  V30 11149 H 1023.87 -0.937057 4.06233 0
M  V30 11150 H 1022.53 -1.34089 2.9572 0
M  V30 11151 H 1023.54 1.84039 4.84097 0
M  V30 11152 H 1020.21 -0.639193 4.12578 0
M  V30 11153 H 1021.6 2.91222 6.05508 0
M  V30 11154 N 1024.32 -1.44642 0.625825 0
M  V30 11155 C 1025.55 -2.06458 0.135116 0
M  V30 11156 C 1025.97 -1.46729 -1.18811 0
M  V30 11157 O 1025.32 -0.58818 -1.72762 0
M  V30 11158 C 1025.37 -3.61499 0.00850114 0
M  V30 11159 O 1025.1 -4.19002 1.2794 0
M  V30 11160 C 1026.6 -4.40339 -0.511527 0
M  V30 11161 H 1023.82 -0.666541 0.0772294 0
M  V30 11162 H 1026.36 -1.85597 0.858726 0
M  V30 11163 H 1024.52 -3.81641 -0.665522 0
M  V30 11164 H 1024.93 -5.12385 1.12081 0
M  V30 11165 H 1026.4 -5.49262 -0.549149 0
M  V30 11166 H 1026.88 -4.11409 -1.53752 0
M  V30 11167 H 1027.49 -4.25104 0.129066 0
M  V30 11168 N 1025.8 -0.366053 -1.5329 0
M  V30 11169 C 1027.03 0.22391 -2.05383 0
M  V30 11170 C 1027.44 1.42962 -1.23929 0
M  V30 11171 O 1026.78 1.81659 -0.273072 0
M  V30 11172 C 1026.84 0.681038 -3.5299 0
M  V30 11173 C 1026.51 -0.40805 -4.55175 0
M  V30 11174 C 1027.51 -1.25806 -5.04449 0
M  V30 11175 C 1025.19 -0.568428 -4.99073 0
M  V30 11176 C 1027.18 -2.25379 -5.96224 0
M  V30 11177 C 1024.87 -1.56752 -5.90654 0
M  V30 11178 C 1025.87 -2.40864 -6.39119 0
M  V30 11179 O 1025.56 -3.39069 -7.28895 0
M  V30 11180 H 1025.29 0.0429593 -0.674634 0
M  V30 11181 H 1027.84 -0.522897 -1.98633 0
M  V30 11182 H 1026.07 1.47945 -3.5728 0
M  V30 11183 H 1027.76 1.19406 -3.8794 0
M  V30 11184 H 1028.53 -1.14536 -4.71282 0
M  V30 11185 H 1024.41 0.0764858 -4.60937 0
M  V30 11186 H 1027.95 -2.91068 -6.33976 0
M  V30 11187 H 1023.85 -1.6807 -6.23236 0
M  V30 11188 H 1024.62 -3.34804 -7.46893 0
M  V30 11189 N 1027.28 1.57312 -0.0952337 0
M  V30 11190 C 1028.56 1.85822 0.610715 0
M  V30 11191 C 1028.94 0.992114 1.86334 0
M  V30 11192 O 1028.28 0.0645669 2.28409 0
M  V30 11193 C 1028.49 3.36492 0.925967 0
M  V30 11194 C 1029.84 4.0455 1.28936 0
M  V30 11195 O 1030.87 3.41374 1.01698 0
M  V30 11196 O 1029.73 5.16024 1.79949 0
M  V30 11197 H 1026.82 0.768454 0.305626 0
M  V30 11198 H 1029.37 1.69217 -0.127941 0
M  V30 11199 H 1028.14 3.91282 0.0373127 0
M  V30 11200 H 1027.76 3.58443 1.7206 0
M  V30 11201 N 1028.76 -0.17846 1.56586 0
M  V30 11202 C 1029.67 -1.24115 1.9908 0
M  V30 11203 C 1030.68 -1.48854 0.901031 0
M  V30 11204 O 1031.86 -1.61142 1.2081 0
M  V30 11205 C 1028.92 -2.56187 2.33601 0
M  V30 11206 C 1027.99 -2.39373 3.56369 0
M  V30 11207 C 1027.22 -3.65147 3.89234 0
M  V30 11208 O 1027.44 -4.70024 3.23162 0
M  V30 11209 O 1026.38 -3.59683 4.82609 0
M  V30 11210 H 1030.2 -0.910482 2.89731 0
M  V30 11211 H 1027.79 -0.38477 1.4436 0
M  V30 11212 H 1029.67 -3.34109 2.56806 0
M  V30 11213 H 1028.34 -2.88847 1.46113 0
M  V30 11214 H 1027.25 -1.59506 3.38391 0
M  V30 11215 H 1028.58 -2.1164 4.44375 0
M  V30 11216 N 1030.24 -1.51135 -0.446768 0
M  V30 11217 C 1031.19 -1.68152 -1.53977 0
M  V30 11218 C 1032.17 -0.53563 -1.51723 0
M  V30 11219 O 1033.36 -0.791134 -1.58335 0
M  V30 11220 C 1030.49 -1.80133 -2.92245 0
M  V30 11221 C 1029.58 -3.00476 -2.99291 0
M  V30 11222 N 1029.97 -4.23796 -2.76099 0
M  V30 11223 C 1028.27 -2.99536 -3.30445 0
M  V30 11224 C 1028.97 -5.04977 -2.88744 0
M  V30 11225 N 1027.94 -4.39428 -3.20006 0
M  V30 11226 H 1031.74 -2.61172 -1.34784 0
M  V30 11227 H 1029.26 -1.48653 -0.653923 0
M  V30 11228 H 1031.26 -1.90432 -3.70866 0
M  V30 11229 H 1029.92 -0.882879 -3.12467 0
M  V30 11230 H 1030.93 -4.52896 -2.51209 0
M  V30 11231 H 1027.6 -2.17286 -3.56501 0
M  V30 11232 H 1028.99 -6.13114 -2.74847 0
M  V30 11233 N 1031.71 0.701592 -1.41122 0
M  V30 11234 C 1032.94 1.49553 -1.43696 0
M  V30 11235 C 1033.36 1.88053 -0.0421865 0
M  V30 11236 O 1032.72 1.54223 0.953144 0
M  V30 11237 C 1032.77 2.73834 -2.34622 0
M  V30 11238 O 1031.87 3.71088 -1.7991 0
M  V30 11239 H 1031.21 0.450352 -0.487933 0
M  V30 11240 H 1033.74 0.862886 -1.85514 0
M  V30 11241 H 1033.75 3.22209 -2.5029 0
M  V30 11242 H 1032.43 2.45149 -3.35969 0
M  V30 11243 H 1031.01 3.29994 -1.73661 0
M  V30 11244 N 1033.19 1.2685 0.935242 0
M  V30 11245 C 1034.1 1.10716 2.06831 0
M  V30 11246 C 1035.12 0.0391222 1.73956 0
M  V30 11247 O 1036.29 0.244071 1.99916 0
M  V30 11248 C 1033.36 0.748093 3.38533 0
M  V30 11249 C 1032.42 1.89619 3.85153 0
M  V30 11250 C 1031.65 1.55416 5.1057 0
M  V30 11251 O 1031.88 0.458596 5.68553 0
M  V30 11252 O 1030.81 2.39087 5.52378 0
M  V30 11253 H 1034.64 2.05785 2.23352 0
M  V30 11254 H 1032.22 1.05967 1.05315 0
M  V30 11255 H 1034.1 0.560841 4.17651 0
M  V30 11256 H 1032.78 -0.173142 3.23237 0
M  V30 11257 H 1031.68 2.13845 3.06954 0
M  V30 11258 H 1033.02 2.79737 4.04979 0
M  V30 11259 N 1034.67 -1.14067 1.0875 0
M  V30 11260 C 1035.6 -2.18926 0.67852 0
M  V30 11261 C 1036.62 -1.60441 -0.276163 0
M  V30 11262 O 1037.8 -1.78388 -0.0632788 0
M  V30 11263 C 1034.9 -3.38893 -0.0218852 0
M  V30 11264 C 1034.08 -4.26901 0.952582 0
M  V30 11265 C 1033.14 -5.25418 0.286859 0
M  V30 11266 O 1032.16 -5.61512 0.932354 0
M  V30 11267 N 1033.36 -5.72476 -0.961831 0
M  V30 11268 H 1036.13 -2.54629 1.58063 0
M  V30 11269 H 1033.69 -1.29321 0.974042 0
M  V30 11270 H 1035.68 -4.01864 -0.478278 0
M  V30 11271 H 1034.25 -3.01486 -0.826141 0
M  V30 11272 H 1033.47 -3.60812 1.58772 0
M  V30 11273 H 1034.76 -4.82563 1.61279 0
M  V30 11274 H 1034.16 -5.45287 -1.50594 0
M  V30 11275 H 1032.72 -6.37418 -1.36166 0
M  V30 11276 N 1036.15 -0.873678 -1.31166 0
M  V30 11277 C 1037.39 -0.487178 -1.96861 0
M  V30 11278 C 1037.73 0.95887 -1.68877 0
M  V30 11279 O 1037 1.6758 -0.987279 0
M  V30 11280 C 1037.29 -0.74925 -3.52219 0
M  V30 11281 C 1037.14 -2.2451 -3.89763 0
M  V30 11282 C 1038.46 -0.218194 -4.39559 0
M  V30 11283 H 1035.58 -0.178477 -0.715063 0
M  V30 11284 H 1038.22 -1.0956 -1.55231 0
M  V30 11285 H 1036.37 -0.231403 -3.8781 0
M  V30 11286 H 1038.04 -2.83049 -3.64254 0
M  V30 11287 H 1036.28 -2.71621 -3.38237 0
M  V30 11288 H 1036.95 -2.37911 -4.98099 0
M  V30 11289 H 1039.43 -0.661274 -4.10812 0
M  V30 11290 H 1038.31 -0.430983 -5.47205 0
M  V30 11291 H 1038.57 0.880056 -4.33252 0
M  V30 11292 N 1037.63 1.44308 -0.633487 0
M  V30 11293 C 1038.57 2.32455 0.0821956 0
M  V30 11294 C 1039.57 1.47482 0.833388 0
M  V30 11295 O 1040.77 1.63812 0.746021 0
M  V30 11296 H 1037.15 0.750631 0.045352 0
M  V30 11297 H 1039.12 2.90566 -0.679282 0
M  V30 11298 C 1037.87 3.31512 1.04858 0
M  V30 11299 H 1037.19 3.96908 0.479979 0
M  V30 11300 H 1038.63 3.95865 1.51879 0
M  V30 11301 C 1037.09 2.60615 2.13498 0
M  V30 11302 O 1037.62 2.40682 3.21613 0
M  V30 11303 N 1035.83 2.20315 1.89499 0
M  V30 11304 H 1035.37 2.36726 1.01581 0
M  V30 11305 H 1035.33 1.73205 2.62388 0
M  V30 11306 N 1039.1 0.374177 1.53094 0
M  V30 11307 C 1040.34 -0.21278 2.03289 0
M  V30 11308 C 1040.71 -1.45291 1.25517 0
M  V30 11309 O 1041.91 -2.11605 1.65761 0
M  V30 11310 C 1040.18 -0.48913 3.54037 0
M  V30 11311 S 1041.74 -1.04853 4.26088 0
M  V30 11312 H 1038.56 -0.0612752 0.708355 0
M  V30 11313 H 1041.16 0.519031 1.88484 0
M  V30 11314 H 1039.86 0.420786 4.08237 0
M  V30 11315 H 1039.39 -1.24978 3.7302 0
M  V30 11316 H 1041.41 -2.33213 4.3798 0
M  V30 11317 N 1040.58 -1.57259 0.103575 0
M  V30 11318 C 1041.82 -1.96539 -0.561398 0
M  V30 11319 C 1042.19 -0.984775 -1.64822 0
M  V30 11320 O 1043.39 -1.26638 -2.371 0
M  V30 11321 C 1041.66 -3.40229 -1.09447 0
M  V30 11322 S 1043.22 -4.01512 -1.77013 0
M  V30 11323 H 1040.04 -0.687061 -0.182944 0
M  V30 11324 H 1042.64 -1.94623 0.184993 0
M  V30 11325 H 1041.34 -4.09359 -0.292091 0
M  V30 11326 H 1040.87 -3.45762 -1.8765 0
M  V30 11327 H 1042.89 -3.91009 -3.05494 0
M  V30 11328 N 1042.06 0.170153 -1.56679 0
M  V30 11329 C 1043.01 1.21531 -1.9291 0
M  V30 11330 C 1043.99 1.39742 -0.797553 0
M  V30 11331 O 1045.19 1.41693 -1.06075 0
M  V30 11332 C 1042.32 2.55447 -2.29351 0
M  V30 11333 C 1041.4 2.40925 -3.49022 0
M  V30 11334 N 1041.79 1.96118 -4.66231 0
M  V30 11335 C 1040.09 2.71747 -3.53652 0
M  V30 11336 C 1040.79 1.94086 -5.48366 0
M  V30 11337 N 1039.77 2.36533 -4.89441 0
M  V30 11338 H 1043.57 0.860602 -2.81018 0
M  V30 11339 H 1041.08 0.378415 -1.5793 0
M  V30 11340 H 1043.08 3.30972 -2.53502 0
M  V30 11341 H 1041.74 2.9172 -1.42583 0
M  V30 11342 H 1042.75 1.66438 -4.90427 0
M  V30 11343 H 1039.43 3.1205 -2.77365 0
M  V30 11344 H 1040.82 1.61132 -6.52293 0
M  V30 11345 N 1043.54 1.5137 0.438746 0
M  V30 11346 C 1044.79 1.63969 1.1883 0
M  V30 11347 C 1045.11 0.355245 1.91228 0
M  V30 11348 O 1044.37 -0.660605 1.84213 0
M  V30 11349 C 1044.67 2.79221 2.23093 0
M  V30 11350 C 1044.33 4.18547 1.67717 0
M  V30 11351 C 1043 4.5645 1.52337 0
M  V30 11352 C 1045.35 5.05494 1.26986 0
M  V30 11353 C 1042.68 5.79007 0.946996 0
M  V30 11354 C 1045.03 6.28628 0.707785 0
M  V30 11355 C 1043.69 6.65305 0.540881 0
M  V30 11356 H 1042.96 0.600003 0.43483 0
M  V30 11357 H 1045.61 1.85398 0.479565 0
M  V30 11358 H 1043.91 2.52008 2.99999 0
M  V30 11359 H 1045.61 2.86168 2.80907 0
M  V30 11360 H 1042.2 3.88663 1.80663 0
M  V30 11361 H 1046.38 4.76818 1.37689 0
M  V30 11362 H 1041.64 6.06072 0.805432 0
M  V30 11363 H 1045.81 6.95342 0.38366 0
M  V30 11364 H 1043.44 7.60144 0.0921324 0
M  V30 11365 N 1045.02 -0.694098 1.41492 0
M  V30 11366 C 1046.24 -1.48286 1.44288 0
M  V30 11367 C 1046.66 -1.88737 0.0485783 0
M  V30 11368 O 1046.02 -1.56881 -0.932449 0
M  V30 11369 C 1046.07 -2.74446 2.3529 0
M  V30 11370 O 1045.79 -2.35698 3.69294 0
M  V30 11371 C 1047.29 -3.68175 2.46905 0
M  V30 11372 H 1044.51 -0.45692 0.491391 0
M  V30 11373 H 1047.05 -0.854477 1.85793 0
M  V30 11374 H 1045.21 -3.33518 1.9709 0
M  V30 11375 H 1045.62 -3.17029 4.17843 0
M  V30 11376 H 1047.1 -4.53476 3.14743 0
M  V30 11377 H 1047.57 -4.12763 1.50078 0
M  V30 11378 H 1048.18 -3.15006 2.85747 0
M  V30 11379 N 1046.49 -1.27344 -0.928501 0
M  V30 11380 C 1047.44 -1.09835 -2.05034 0
M  V30 11381 C 1048.44 -0.0216643 -1.69386 0
M  V30 11382 O 1049.64 -0.179323 -1.79105 0
M  V30 11383 H 1046.02 -0.338416 -0.671549 0
M  V30 11384 H 1047.99 -2.04879 -2.1695 0
M  V30 11385 C 1046.74 -0.761462 -3.3926 0
M  V30 11386 H 1046.06 -1.58186 -3.67175 0
M  V30 11387 H 1047.5 -0.678812 -4.18531 0
M  V30 11388 C 1045.96 0.534118 -3.32639 0
M  V30 11389 O 1046.49 1.56877 -3.69801 0
M  V30 11390 N 1044.7 0.529437 -2.85736 0
M  V30 11391 H 1044.24 -0.312954 -2.55692 0
M  V30 11392 H 1044.2 1.39637 -2.81689 0
M  V30 11393 N 1047.97 1.13488 -1.09353 0
M  V30 11394 C 1049.2 1.89133 -0.85108 0
M  V30 11395 C 1049.62 1.78542 0.591976 0
M  V30 11396 O 1048.98 1.13243 1.41583 0
M  V30 11397 C 1049.03 3.36736 -1.29001 0
M  V30 11398 O 1048.13 4.09959 -0.447993 0
M  V30 11399 H 1047.47 0.58809 -0.308296 0
M  V30 11400 H 1050 1.43593 -1.45747 0
M  V30 11401 H 1050.01 3.87564 -1.27508 0
M  V30 11402 H 1048.69 3.43762 -2.34095 0
M  V30 11403 H 1047.27 3.69155 -0.52717 0
M  V30 11404 N 1049.45 0.880621 1.30701 0
M  V30 11405 C 1050.68 0.510909 2.01009 0
M  V30 11406 C 1051.1 -0.892041 1.65603 0
M  V30 11407 O 1050.46 -1.59045 0.870309 0
M  V30 11408 C 1050.51 0.687759 3.53981 0
M  V30 11409 O 1049.61 -0.268275 4.11526 0
M  V30 11410 H 1048.95 0.201864 0.632572 0
M  V30 11411 H 1051.48 1.18697 1.6665 0
M  V30 11412 H 1051.49 0.585095 4.03783 0
M  V30 11413 H 1050.17 1.71068 3.79089 0
M  V30 11414 H 1048.74 -0.119673 3.72708 0
M  V30 11415 N 1050.93 -1.4397 0.641131 0
M  V30 11416 C 1051.88 -2.2786 -0.079879 0
M  V30 11417 C 1052.86 -1.39227 -0.80651 0
M  V30 11418 O 1054.06 -1.62956 -0.690969 0
M  V30 11419 C 1051.18 -3.26722 -1.05394 0
M  V30 11420 C 1050.27 -4.22842 -0.326411 0
M  V30 11421 N 1050.66 -5.016 0.650464 0
M  V30 11422 C 1048.96 -4.42349 -0.569507 0
M  V30 11423 C 1049.66 -5.71563 1.08121 0
M  V30 11424 N 1048.64 -5.41991 0.417932 0
M  V30 11425 H 1052.44 -2.86163 0.669906 0
M  V30 11426 H 1049.95 -1.55528 0.467433 0
M  V30 11427 H 1051.95 -3.85588 -1.58517 0
M  V30 11428 H 1050.61 -2.69979 -1.80392 0
M  V30 11429 H 1051.62 -5.07581 1.0287 0
M  V30 11430 H 1048.3 -3.96693 -1.30159 0
M  V30 11431 H 1049.69 -6.44805 1.88883 0
M  V30 11432 N 1052.41 -0.382291 -1.52893 0
M  V30 11433 C 1053.36 0.473026 -2.23039 0
M  V30 11434 C 1054.34 1.0353 -1.23168 0
M  V30 11435 O 1055.53 0.962566 -1.48538 0
M  V30 11436 C 1052.66 1.60349 -3.03551 0
M  V30 11437 C 1051.75 1.05329 -4.10812 0
M  V30 11438 N 1052.14 0.22746 -5.05288 0
M  V30 11439 C 1050.44 1.32648 -4.25818 0
M  V30 11440 C 1051.14 -0.0757032 -5.81651 0
M  V30 11441 N 1050.11 0.526387 -5.41045 0
M  V30 11442 H 1053.92 -0.164541 -2.93439 0
M  V30 11443 H 1051.43 -0.191211 -1.6127 0
M  V30 11444 H 1053.43 2.22858 -3.52335 0
M  V30 11445 H 1052.09 2.24394 -2.34685 0
M  V30 11446 H 1053.1 -0.134714 -5.17725 0
M  V30 11447 H 1049.78 1.96849 -3.6818 0
M  V30 11448 H 1051.17 -0.744375 -6.67764 0
M  V30 11449 N 1053.89 1.57202 -0.111913 0
M  V30 11450 C 1054.82 2.17957 0.837683 0
M  V30 11451 C 1055.8 1.1176 1.28233 0
M  V30 11452 O 1056.98 1.39967 1.34621 0
M  V30 11453 C 1054.11 2.77333 2.09054 0
M  V30 11454 C 1053.07 3.8905 1.78393 0
M  V30 11455 C 1052.39 4.35203 3.10649 0
M  V30 11456 C 1053.69 5.11477 1.05775 0
M  V30 11457 H 1055.39 2.9756 0.331441 0
M  V30 11458 H 1052.93 1.43131 0.157979 0
M  V30 11459 H 1054.88 3.18492 2.75936 0
M  V30 11460 H 1053.61 1.95009 2.6199 0
M  V30 11461 H 1052.27 3.48456 1.13903 0
M  V30 11462 H 1051.92 3.49747 3.61506 0
M  V30 11463 H 1051.62 5.10534 2.9091 0
M  V30 11464 H 1053.14 4.79007 3.78661 0
M  V30 11465 H 1054.55 5.497 1.62798 0
M  V30 11466 H 1052.95 5.92346 0.961573 0
M  V30 11467 H 1054.02 4.84881 0.043297 0
M  V30 11468 N 1055.36 -0.161842 1.56767 0
M  V30 11469 C 1056.29 -1.20226 2.0017 0
M  V30 11470 C 1057.27 -1.4564 0.878807 0
M  V30 11471 O 1058.46 -1.56813 1.14557 0
M  V30 11472 C 1055.59 -2.53897 2.36968 0
M  V30 11473 C 1054.54 -2.43033 3.52305 0
M  V30 11474 C 1053.87 -3.81281 3.74872 0
M  V30 11475 C 1055.17 -1.927 4.85453 0
M  V30 11476 H 1056.86 -0.84142 2.87333 0
M  V30 11477 H 1054.41 -0.403309 1.38237 0
M  V30 11478 H 1056.36 -3.26893 2.6593 0
M  V30 11479 H 1055.09 -2.91787 1.46724 0
M  V30 11480 H 1053.75 -1.7249 3.23485 0
M  V30 11481 H 1053.39 -4.1658 2.81904 0
M  V30 11482 H 1053.09 -3.74877 4.52483 0
M  V30 11483 H 1054.62 -4.55848 4.06245 0
M  V30 11484 H 1056.03 -2.55477 5.13229 0
M  V30 11485 H 1054.43 -1.97222 5.66766 0
M  V30 11486 H 1055.5 -0.881816 4.76814 0
M  V30 11487 N 1056.84 -1.516 -0.430713 0
M  V30 11488 C 1057.77 -1.76342 -1.53054 0
M  V30 11489 C 1058.75 -0.61349 -1.58652 0
M  V30 11490 O 1059.94 -0.856888 -1.74273 0
M  V30 11491 C 1057.07 -1.8945 -2.91077 0
M  V30 11492 C 1056.02 -3.04928 -3.00339 0
M  V30 11493 C 1055.35 -3.03228 -4.40405 0
M  V30 11494 C 1056.65 -4.44777 -2.73808 0
M  V30 11495 H 1058.34 -2.68435 -1.326 0
M  V30 11496 H 1055.89 -1.29171 -0.636466 0
M  V30 11497 H 1057.84 -2.05343 -3.67984 0
M  V30 11498 H 1056.56 -0.940114 -3.12777 0
M  V30 11499 H 1055.22 -2.88751 -2.25872 0
M  V30 11500 H 1054.87 -2.05553 -4.59083 0
M  V30 11501 H 1054.57 -3.80776 -4.47531 0
M  V30 11502 H 1056.1 -3.21222 -5.19277 0
M  V30 11503 H 1057.51 -4.6127 -3.40445 0
M  V30 11504 H 1055.91 -5.2408 -2.92335 0
M  V30 11505 H 1056.98 -4.54358 -1.69372 0
M  V30 11506 N 1058.32 0.686584 -1.41858 0
M  V30 11507 C 1059.28 1.78214 -1.44126 0
M  V30 11508 C 1060.28 1.57366 -0.330541 0
M  V30 11509 O 1061.47 1.63874 -0.590837 0
M  V30 11510 C 1058.6 3.16704 -1.26142 0
M  V30 11511 H 1059.8 1.77594 -2.41661 0
M  V30 11512 H 1057.35 0.895085 -1.28132 0
M  V30 11513 H 1058.09 3.22957 -0.294823 0
M  V30 11514 H 1057.87 3.33238 -2.06627 0
M  V30 11515 H 1059.36 3.96658 -1.30584 0
M  V30 11516 N 1059.8 1.27835 0.921735 0
M  V30 11517 C 1061.03 1.17352 1.704 0
M  V30 11518 C 1061.44 -0.268892 1.86875 0
M  V30 11519 O 1060.8 -1.18253 1.39005 0
M  V30 11520 C 1060.85 1.85889 3.10045 0
M  V30 11521 O 1060.57 3.24495 2.94338 0
M  V30 11522 C 1062.07 1.81607 4.04393 0
M  V30 11523 H 1059.29 0.40773 0.532914 0
M  V30 11524 H 1061.83 1.68815 1.15419 0
M  V30 11525 H 1059.99 1.38316 3.61867 0
M  V30 11526 H 1060.4 3.58705 3.82663 0
M  V30 11527 H 1061.88 2.34165 4.99871 0
M  V30 11528 H 1062.35 0.786697 4.32097 0
M  V30 11529 H 1062.96 2.28822 3.58498 0
M  V30 11530 N 1061.28 -1.12907 1.09954 0
M  V30 11531 C 1062.52 -1.83941 0.837255 0
M  V30 11532 C 1062.84 -1.84234 -0.638984 0
M  V30 11533 O 1062.11 -1.30193 -1.46378 0
M  V30 11534 H 1060.69 -0.681115 0.306743 0
M  V30 11535 H 1063.36 -1.36743 1.38879 0
M  V30 11536 H 1062.45 -2.88289 1.19565 0
M  V30 11537 N 1062.75 -0.88754 -1.30232 0
M  V30 11538 C 1063.98 -0.521562 -2.00735 0
M  V30 11539 C 1064.4 0.883247 -1.66073 0
M  V30 11540 O 1063.76 1.58581 -0.878731 0
M  V30 11541 C 1063.81 -0.706521 -3.53611 0
M  V30 11542 O 1062.91 0.246447 -4.11663 0
M  V30 11543 H 1062.25 -0.205216 -0.631492 0
M  V30 11544 H 1064.78 -1.19579 -1.66018 0
M  V30 11545 H 1064.79 -0.606501 -4.03467 0
M  V30 11546 H 1063.47 -1.73076 -3.78177 0
M  V30 11547 H 1062.05 0.0999062 -3.72766 0
M  V30 11548 N 1064.23 1.43628 -0.648757 0
M  V30 11549 C 1065.46 2.06732 -0.166284 0
M  V30 11550 C 1065.88 1.48281 1.15734 0
M  V30 11551 O 1065.24 0.591018 1.71396 0
M  V30 11552 C 1065.29 3.60502 -0.0838732 0
M  V30 11553 O 1064.39 4.01186 0.955185 0
M  V30 11554 H 1063.73 0.657479 -0.0928285 0
M  V30 11555 H 1066.26 1.84208 -0.890421 0
M  V30 11556 H 1066.27 4.07875 0.100923 0
M  V30 11557 H 1064.95 4.02424 -1.05014 0
M  V30 11558 H 1063.53 3.65412 0.743537 0
M  V30 11559 N 1065.71 0.390394 1.52688 0
M  V30 11560 C 1066.99 -0.249068 1.94008 0
M  V30 11561 C 1067.37 -1.64263 1.32593 0
M  V30 11562 O 1066.72 -2.23086 0.494448 0
M  V30 11563 C 1066.93 -0.274318 3.4792 0
M  V30 11564 C 1068.27 -0.502743 4.21613 0
M  V30 11565 O 1069.3 -0.35448 3.54432 0
M  V30 11566 O 1068.16 -0.79334 5.40711 0
M  V30 11567 H 1065.25 -0.155116 0.812323 0
M  V30 11568 H 1067.8 0.44498 1.63762 0
M  V30 11569 H 1066.57 0.701766 3.84956 0
M  V30 11570 H 1066.19 -1.01324 3.84473 0
M  V30 11571 N 1067.19 -1.57141 0.120249 0
M  V30 11572 C 1068.43 -1.97124 -0.540521 0
M  V30 11573 C 1068.79 -1.0022 -1.63768 0
M  V30 11574 O 1069.99 -1.29146 -2.35743 0
M  V30 11575 C 1068.26 -3.41371 -1.05833 0
M  V30 11576 S 1069.82 -4.03367 -1.72745 0
M  V30 11577 H 1066.64 -0.688962 -0.175646 0
M  V30 11578 H 1069.24 -1.94416 0.205625 0
M  V30 11579 H 1067.95 -4.09646 -0.248656 0
M  V30 11580 H 1067.48 -3.47732 -1.83972 0
M  V30 11581 H 1069.49 -3.94227 -3.0133 0
M  V30 11582 N 1068.67 0.153526 -1.5685 0
M  V30 11583 C 1069.91 0.867232 -1.8299 0
M  V30 11584 C 1070.24 1.81462 -0.700125 0
M  V30 11585 O 1069.5 1.93207 0.311348 0
M  V30 11586 C 1069.8 1.68066 -3.15418 0
M  V30 11587 C 1069.46 0.880635 -4.42217 0
M  V30 11588 C 1068.12 0.659899 -4.76654 0
M  V30 11589 C 1070.48 0.320698 -5.20212 0
M  V30 11590 C 1067.8 -0.131588 -5.86552 0
M  V30 11591 C 1070.16 -0.457794 -6.30941 0
M  V30 11592 C 1068.82 -0.689168 -6.63933 0
M  V30 11593 H 1068.09 0.317343 -0.669608 0
M  V30 11594 H 1070.74 0.131208 -1.9105 0
M  V30 11595 H 1069.04 2.4866 -3.02779 0
M  V30 11596 H 1070.74 2.23623 -3.32857 0
M  V30 11597 H 1067.33 1.06274 -4.15215 0
M  V30 11598 H 1071.51 0.47853 -4.93988 0
M  V30 11599 H 1066.77 -0.320413 -6.1056 0
M  V30 11600 H 1070.94 -0.898839 -6.90575 0
M  V30 11601 H 1068.57 -1.30433 -7.48927 0
M  V30 11602 N 1070.14 1.51827 0.422667 0
M  V30 11603 C 1071.07 1.77152 1.52117 0
M  V30 11604 C 1072.06 0.621895 1.58324 0
M  V30 11605 O 1073.24 0.866118 1.73816 0
M  V30 11606 C 1070.37 1.90991 2.90068 0
M  V30 11607 C 1069.32 3.06516 2.98717 0
M  V30 11608 C 1068.65 3.05559 4.38791 0
M  V30 11609 C 1069.95 4.46223 2.71445 0
M  V30 11610 H 1071.64 2.69135 1.31175 0
M  V30 11611 H 1069.19 1.29507 0.629607 0
M  V30 11612 H 1071.14 2.07291 3.6689 0
M  V30 11613 H 1069.87 0.956688 3.12274 0
M  V30 11614 H 1068.53 2.89945 2.24338 0
M  V30 11615 H 1068.17 2.07985 4.57986 0
M  V30 11616 H 1067.87 3.83144 4.45505 0
M  V30 11617 H 1069.4 3.23971 5.17566 0
M  V30 11618 H 1070.81 4.63069 3.37994 0
M  V30 11619 H 1069.21 5.25623 2.89552 0
M  V30 11620 H 1070.28 4.5525 1.6696 0
M  V30 11621 N 1071.62 -0.679052 1.4222 0
M  V30 11622 C 1072.57 -1.79269 1.45366 0
M  V30 11623 C 1073.54 -1.63255 0.306089 0
M  V30 11624 O 1074.72 -1.8387 0.509548 0
M  V30 11625 C 1071.86 -3.17272 1.35766 0
M  V30 11626 C 1070.98 -3.44603 2.60525 0
M  V30 11627 C 1070.11 -4.7231 2.43098 0
M  V30 11628 C 1069.15 -4.92661 3.63251 0
M  V30 11629 N 1068.29 -6.11606 3.44794 0
M  V30 11630 H 1073.13 -1.75916 2.40536 0
M  V30 11631 H 1070.67 -0.858836 1.19425 0
M  V30 11632 H 1072.62 -3.97015 1.282 0
M  V30 11633 H 1071.25 -3.1976 0.441939 0
M  V30 11634 H 1070.31 -2.59144 2.78475 0
M  V30 11635 H 1071.62 -3.55536 3.49851 0
M  V30 11636 H 1070.77 -5.60136 2.33093 0
M  V30 11637 H 1069.51 -4.63652 1.51255 0
M  V30 11638 H 1068.52 -4.03278 3.73693 0
M  V30 11639 H 1069.74 -5.03167 4.5607 0
M  V30 11640 H 1067.69 -6.04129 2.55663 0
M  V30 11641 H 1067.6 -6.23381 4.27705 0
M  V30 11642 H 1068.87 -7.02122 3.38592 0
M  V30 11643 N 1073.1 -1.28322 -0.914942 0
M  V30 11644 C 1074.03 -1.14681 -2.03398 0
M  V30 11645 C 1075.01 -0.0448939 -1.70041 0
M  V30 11646 O 1076.2 -0.221672 -1.92931 0
M  V30 11647 C 1073.33 -0.806623 -3.37803 0
M  V30 11648 C 1072.28 -1.86318 -3.85318 0
M  V30 11649 C 1071.61 -1.37665 -5.16674 0
M  V30 11650 C 1072.91 -3.26953 -4.07307 0
M  V30 11651 H 1074.6 -2.08293 -2.15068 0
M  V30 11652 H 1072.15 -1.00284 -1.03339 0
M  V30 11653 H 1074.1 -0.69796 -4.1558 0
M  V30 11654 H 1072.82 0.165203 -3.26182 0
M  V30 11655 H 1071.48 -1.96096 -3.09745 0
M  V30 11656 H 1071.13 -0.393927 -5.01455 0
M  V30 11657 H 1070.83 -2.08313 -5.49435 0
M  V30 11658 H 1072.35 -1.28119 -5.97007 0
M  V30 11659 H 1073.77 -3.20102 -4.75613 0
M  V30 11660 H 1072.17 -3.95424 -4.51398 0
M  V30 11661 H 1073.24 -3.71059 -3.12159 0
M  V30 11662 N 1074.58 1.12322 -1.10551 0
M  V30 11663 C 1075.82 1.84333 -0.859826 0
M  V30 11664 C 1076.18 1.82539 0.608052 0
M  V30 11665 O 1075.47 1.26086 1.44267 0
M  V30 11666 C 1075.67 3.31177 -1.34375 0
M  V30 11667 C 1075.5 3.47272 -2.85714 0
M  V30 11668 C 1074.27 3.60837 -3.5373 0
M  V30 11669 C 1076.46 3.42336 -3.83811 0
M  V30 11670 N 1074.45 3.65309 -4.93378 0
M  V30 11671 C 1075.82 3.53318 -5.09477 0
M  V30 11672 C 1077.87 3.25809 -3.76501 0
M  V30 11673 C 1076.57 3.49477 -6.28695 0
M  V30 11674 C 1078.6 3.23282 -4.9522 0
M  V30 11675 C 1077.96 3.34826 -6.19735 0
M  V30 11676 H 1074.06 0.690186 -0.367651 0
M  V30 11677 H 1076.65 1.34463 -1.40811 0
M  V30 11678 H 1074.82 3.79585 -0.822767 0
M  V30 11679 H 1076.55 3.91051 -1.04217 0
M  V30 11680 H 1073.3 3.63005 -3.04178 0
M  V30 11681 H 1073.73 3.71207 -5.66157 0
M  V30 11682 H 1078.37 3.15777 -2.81149 0
M  V30 11683 H 1076.09 3.5828 -7.24335 0
M  V30 11684 H 1079.67 3.11674 -4.91274 0
M  V30 11685 H 1078.55 3.32847 -7.10058 0
M  V30 11686 N 1076.06 0.894434 1.2976 0
M  V30 11687 C 1077.33 0.437365 1.90648 0
M  V30 11688 C 1077.71 -1.08261 1.81226 0
M  V30 11689 O 1077.06 -1.92213 1.23557 0
M  V30 11690 C 1077.27 0.946047 3.35933 0
M  V30 11691 C 1078.62 0.986621 4.12978 0
M  V30 11692 O 1079.64 0.893356 3.44815 0
M  V30 11693 O 1078.5 1.12591 5.34776 0
M  V30 11694 H 1075.6 0.135436 0.815835 0
M  V30 11695 H 1078.14 0.983955 1.38262 0
M  V30 11696 H 1076.91 1.98998 3.3692 0
M  V30 11697 H 1076.54 0.379164 3.95788 0
M  V30 11698 N 1077.53 -1.43282 0.656365 0
M  V30 11699 C 1078.46 -2.33492 -0.0196962 0
M  V30 11700 C 1079.45 -1.49647 -0.80868 0
M  V30 11701 O 1080.63 -1.78303 -0.769529 0
M  V30 11702 C 1077.76 -3.33052 -0.984574 0
M  V30 11703 C 1076.71 -4.26908 -0.305483 0
M  V30 11704 C 1076.04 -5.16531 -1.38202 0
M  V30 11705 C 1077.34 -5.16073 0.804081 0
M  V30 11706 H 1079.03 -2.90272 0.733661 0
M  V30 11707 H 1076.58 -1.39574 0.354259 0
M  V30 11708 H 1078.53 -3.9506 -1.46647 0
M  V30 11709 H 1077.26 -2.74535 -1.76913 0
M  V30 11710 H 1075.92 -3.66268 0.155995 0
M  V30 11711 H 1075.56 -4.54351 -2.1581 0
M  V30 11712 H 1075.26 -5.80148 -0.932878 0
M  V30 11713 H 1076.79 -5.81414 -1.86522 0
M  V30 11714 H 1078.2 -5.71873 0.404212 0
M  V30 11715 H 1076.6 -5.88427 1.17789 0
M  V30 11716 H 1077.67 -4.55574 1.66073 0
M  V30 11717 N 1079.01 -0.398486 -1.52479 0
M  V30 11718 C 1079.96 0.447001 -2.28264 0
M  V30 11719 C 1080.96 1.05511 -1.32529 0
M  V30 11720 O 1082.16 0.994528 -1.5003 0
M  V30 11721 H 1078.54 0.162919 -0.73414 0
M  V30 11722 H 1080.51 -0.213534 -2.97635 0
M  V30 11723 C 1079.26 1.55724 -3.10879 0
M  V30 11724 H 1078.58 1.09864 -3.84409 0
M  V30 11725 H 1080.02 2.12286 -3.67029 0
M  V30 11726 C 1078.48 2.51853 -2.23768 0
M  V30 11727 O 1079.01 3.55483 -1.87069 0
M  V30 11728 N 1077.21 2.2181 -1.87746 0
M  V30 11729 H 1076.76 1.3757 -2.17789 0
M  V30 11730 H 1076.72 2.86376 -1.29753 0
M  V30 11731 N 1080.49 1.57075 -0.12858 0
M  V30 11732 C 1081.42 2.12907 0.848708 0
M  V30 11733 C 1082.44 1.07406 1.22343 0
M  V30 11734 O 1083.63 1.34746 1.17071 0
M  V30 11735 C 1080.73 2.62167 2.1476 0
M  V30 11736 C 1079.9 3.91871 1.94309 0
M  V30 11737 C 1078.96 4.26629 3.08016 0
M  V30 11738 O 1077.98 4.9528 2.80511 0
M  V30 11739 N 1079.19 3.84721 4.34706 0
M  V30 11740 H 1081.95 2.97387 0.371636 0
M  V30 11741 H 1079.51 1.61805 0.0555574 0
M  V30 11742 H 1081.5 2.82444 2.89841 0
M  V30 11743 H 1080.07 1.82514 2.53786 0
M  V30 11744 H 1079.29 3.80406 1.03367 0
M  V30 11745 H 1080.58 4.76662 1.77962 0
M  V30 11746 H 1079.98 3.2937 4.59926 0
M  V30 11747 H 1078.54 4.10087 5.06628 0
M  V30 11748 N 1081.97 -0.145205 1.5693 0
M  V30 11749 C 1082.92 -1.17923 1.98401 0
M  V30 11750 C 1083.89 -1.42591 0.851885 0
M  V30 11751 O 1085.07 -1.54896 1.11409 0
M  V30 11752 C 1082.21 -2.50727 2.37128 0
M  V30 11753 C 1081.32 -2.33218 3.63639 0
M  V30 11754 C 1080.46 -3.5907 3.91462 0
M  V30 11755 C 1079.5 -3.36605 5.11237 0
M  V30 11756 N 1078.64 -4.54592 5.35061 0
M  V30 11757 H 1083.48 -0.818573 2.86537 0
M  V30 11758 H 1081.01 -0.392739 1.4176 0
M  V30 11759 H 1082.97 -3.28165 2.57611 0
M  V30 11760 H 1081.6 -2.84736 1.52069 0
M  V30 11761 H 1080.65 -1.46826 3.50922 0
M  V30 11762 H 1081.96 -2.12579 4.51234 0
M  V30 11763 H 1081.12 -4.44936 4.12453 0
M  V30 11764 H 1079.86 -3.82715 3.02293 0
M  V30 11765 H 1078.86 -2.49127 4.90118 0
M  V30 11766 H 1080.09 -3.14357 6.01961 0
M  V30 11767 H 1078.03 -4.78406 4.48847 0
M  V30 11768 H 1077.95 -4.36962 6.16928 0
M  V30 11769 H 1079.22 -5.41666 5.60551 0
M  V30 11770 N 1083.45 -1.52049 -0.414609 0
M  V30 11771 C 1084.36 -1.7788 -1.52958 0
M  V30 11772 C 1085.37 -0.66408 -1.60829 0
M  V30 11773 O 1086.55 -0.948882 -1.77646 0
M  V30 11774 C 1083.61 -1.91906 -2.88744 0
M  V30 11775 C 1082.68 -3.15803 -2.90804 0
M  V30 11776 C 1081.91 -3.29151 -4.20114 0
M  V30 11777 O 1082.13 -2.47892 -5.13718 0
M  V30 11778 O 1081.07 -4.2227 -4.28919 0
M  V30 11779 H 1084.89 -2.72506 -1.34067 0
M  V30 11780 H 1082.48 -1.36826 -0.599918 0
M  V30 11781 H 1084.36 -2.02986 -3.6929 0
M  V30 11782 H 1083.03 -1.00468 -3.07714 0
M  V30 11783 H 1081.94 -3.10185 -2.09131 0
M  V30 11784 H 1083.27 -4.07004 -2.76783 0
M  V30 11785 N 1084.93 0.6715 -1.42579 0
M  V30 11786 C 1086.17 1.44353 -1.44712 0
M  V30 11787 C 1086.53 1.91898 -0.0626628 0
M  V30 11788 O 1087.73 2.68768 0.0412789 0
M  V30 11789 C 1086 2.60616 -2.44569 0
M  V30 11790 S 1087.56 3.49416 -2.65431 0
M  V30 11791 H 1084.38 0.492985 -0.512334 0
M  V30 11792 H 1086.98 0.781349 -1.79207 0
M  V30 11793 H 1085.68 2.23931 -3.43923 0
M  V30 11794 H 1085.22 3.31703 -2.1151 0
M  V30 11795 H 1087.23 4.56712 -1.9398 0
M  V30 11796 N 1086.4 1.28806 0.908124 0
M  V30 11797 C 1087.82 1.06634 1.18749 0
M  V30 11798 C 1088.02 -0.187729 2.00624 0
M  V30 11799 O 1087.08 -0.88784 2.36376 0
M  V30 11800 C 1088.39 2.31703 1.91661 0
M  V30 11801 C 1089.94 2.36939 2.04521 0
M  V30 11802 C 1090.41 3.61789 2.80843 0
M  V30 11803 N 1091.9 3.62462 2.88402 0
M  V30 11804 C 1092.64 4.55746 3.47971 0
M  V30 11805 N 1092.13 5.59353 4.08774 0
M  V30 11806 N 1093.93 4.43331 3.45564 0
M  V30 11807 H 1086.08 2.09299 0.36164 0
M  V30 11808 H 1088.34 0.921479 0.222668 0
M  V30 11809 H 1088.05 3.23096 1.38931 0
M  V30 11810 H 1087.92 2.38556 2.92183 0
M  V30 11811 H 1090.31 1.4604 2.5643 0
M  V30 11812 H 1090.39 2.34077 1.03159 0
M  V30 11813 H 1090.03 4.53035 2.29612 0
M  V30 11814 H 1089.96 3.61907 3.82532 0
M  V30 11815 H 1092.45 2.87544 2.45208 0
M  V30 11816 H 1092.77 6.26668 4.52224 0
M  V30 11817 H 1091.11 5.63173 4.07261 0
M  V30 11818 H 1094.3 3.61587 2.97276 0
M  V30 11819 H 1094.48 5.16216 3.91695 0
M  V30 11820 N 1087.88 -1.11734 1.11145 0
M  V30 11821 C 1088.83 -2.19765 0.761982 0
M  V30 11822 C 1089.82 -1.67616 -0.24518 0
M  V30 11823 O 1091.03 -1.79695 -0.104781 0
M  V30 11824 H 1087.4 -0.71644 0.228513 0
M  V30 11825 H 1089.38 -2.4649 1.68183 0
M  V30 11826 C 1088.12 -3.47016 0.218057 0
M  V30 11827 H 1087.45 -3.87494 0.984299 0
M  V30 11828 H 1088.89 -4.23998 0.0116825 0
M  V30 11829 C 1087.35 -3.20088 -1.05096 0
M  V30 11830 O 1087.88 -3.40503 -2.1312 0
M  V30 11831 N 1086.08 -2.73844 -0.972523 0
M  V30 11832 H 1085.63 -2.57431 -0.0933459 0
M  V30 11833 H 1085.59 -2.56204 -1.82228 0
M  V30 11834 N 1089.36 -0.901303 -1.29284 0
M  V30 11835 C 1090.59 -0.543511 -1.99634 0
M  V30 11836 C 1091 0.872154 -1.67448 0
M  V30 11837 O 1090.36 1.57591 -0.920406 0
M  V30 11838 C 1090.41 -0.728148 -3.54091 0
M  V30 11839 O 1090.13 -2.08809 -3.85137 0
M  V30 11840 C 1091.63 -0.375519 -4.41707 0
M  V30 11841 H 1088.85 -0.208405 -0.637815 0
M  V30 11842 H 1091.4 -1.21109 -1.64781 0
M  V30 11843 H 1089.55 -0.107728 -3.8725 0
M  V30 11844 H 1089.97 -2.11863 -4.79807 0
M  V30 11845 H 1091.44 -0.555538 -5.49197 0
M  V30 11846 H 1091.92 0.687532 -4.33785 0
M  V30 11847 H 1092.52 -0.972949 -4.14021 0
M  V30 11848 N 1090.84 1.42931 -0.663954 0
M  V30 11849 C 1091.77 2.28089 0.0710318 0
M  V30 11850 C 1092.75 1.40446 0.819375 0
M  V30 11851 O 1093.93 1.69887 0.816738 0
M  V30 11852 C 1091.06 3.20079 1.10756 0
M  V30 11853 C 1090.11 4.24055 0.456045 0
M  V30 11854 S 1090.94 5.29813 -0.778356 0
M  V30 11855 C 1092.09 6.25371 0.257373 0
M  V30 11856 H 1092.33 2.90078 -0.651315 0
M  V30 11857 H 1089.86 1.47601 -0.453137 0
M  V30 11858 H 1091.82 3.7362 1.70055 0
M  V30 11859 H 1090.48 2.57248 1.80229 0
M  V30 11860 H 1089.67 4.88564 1.23779 0
M  V30 11861 H 1089.27 3.73947 -0.0630832 0
M  V30 11862 H 1091.57 6.68172 1.12037 0
M  V30 11863 H 1092.51 7.0722 -0.352969 0
M  V30 11864 H 1092.92 5.61324 0.597991 0
M  V30 11865 N 1092.32 0.406567 1.52266 0
M  V30 11866 C 1093.56 -0.170053 2.01785 0
M  V30 11867 C 1093.89 -1.45361 1.2923 0
M  V30 11868 O 1093.15 -1.91849 0.386342 0
M  V30 11869 C 1093.44 -0.467124 3.54334 0
M  V30 11870 C 1093.11 0.72693 4.45002 0
M  V30 11871 C 1091.77 1.05446 4.69505 0
M  V30 11872 C 1094.12 1.52493 4.98393 0
M  V30 11873 C 1091.45 2.18123 5.44646 0
M  V30 11874 C 1093.8 2.64244 5.74768 0
M  V30 11875 C 1092.47 2.97486 5.97544 0
M  V30 11876 H 1091.74 -0.0622267 0.738383 0
M  V30 11877 H 1094.39 0.54746 1.83508 0
M  V30 11878 H 1092.69 -1.26617 3.70777 0
M  V30 11879 H 1094.39 -0.926194 3.90157 0
M  V30 11880 H 1090.98 0.461666 4.26106 0
M  V30 11881 H 1095.16 1.28512 4.79373 0
M  V30 11882 H 1090.42 2.44228 5.60502 0
M  V30 11883 H 1094.59 3.26468 6.15136 0
M  V30 11884 H 1092.22 3.84913 6.5555 0
M  V30 11885 N 1093.79 -1.57004 0.136909 0
M  V30 11886 C 1095.04 -1.9541 -0.51569 0
M  V30 11887 C 1095.36 -1.02219 -1.66061 0
M  V30 11888 O 1094.63 -0.0818172 -1.95729 0
M  V30 11889 H 1093.21 -0.721504 -0.193497 0
M  V30 11890 H 1095.88 -1.93765 0.210046 0
M  V30 11891 H 1094.97 -2.98887 -0.898494 0
M  V30 11892 N 1095.27 0.136881 -1.57004 0
M  V30 11893 C 1096.22 1.17411 -1.95445 0
M  V30 11894 C 1097.21 1.38019 -0.827015 0
M  V30 11895 O 1098.4 1.39412 -1.09057 0
M  V30 11896 C 1095.53 2.50525 -2.34717 0
M  V30 11897 C 1094.61 2.33467 -3.54054 0
M  V30 11898 N 1095 1.86184 -4.70286 0
M  V30 11899 C 1093.3 2.64185 -3.59336 0
M  V30 11900 C 1094 1.82411 -5.5236 0
M  V30 11901 N 1092.98 2.26098 -4.94349 0
M  V30 11902 H 1096.78 0.8008 -2.8278 0
M  V30 11903 H 1094.3 0.344831 -1.58697 0
M  V30 11904 H 1096.29 3.2552 -2.60465 0
M  V30 11905 H 1094.95 2.8863 -1.48738 0
M  V30 11906 H 1095.96 1.55998 -4.93847 0
M  V30 11907 H 1092.64 3.06096 -2.83922 0
M  V30 11908 H 1094.03 1.4726 -6.55564 0
M  V30 11909 N 1096.75 1.52266 0.40654 0
M  V30 11910 C 1097.98 1.70304 1.17491 0
M  V30 11911 C 1098.39 0.413656 1.84213 0
M  V30 11912 O 1097.75 -0.610524 1.71985 0
M  V30 11913 C 1097.8 2.84045 2.23609 0
M  V30 11914 O 1097.52 4.0799 1.5961 0
M  V30 11915 C 1099.02 3.13614 3.13306 0
M  V30 11916 H 1096.24 0.570669 0.352955 0
M  V30 11917 H 1098.79 1.98836 0.477967 0
M  V30 11918 H 1096.94 2.58025 2.88967 0
M  V30 11919 H 1097.36 4.7139 2.29983 0
M  V30 11920 H 1098.83 3.96707 3.83833 0
M  V30 11921 H 1099.31 2.27272 3.75824 0
M  V30 11922 H 1099.91 3.41409 2.53614 0
M  V30 11923 N 1098.23 -0.663929 1.42933 0
M  V30 11924 C 1099.18 -1.79843 1.4751 0
M  V30 11925 C 1100.17 -1.65751 0.349727 0
M  V30 11926 O 1101.38 -1.72227 0.523239 0
M  V30 11927 H 1097.75 -0.593176 0.462219 0
M  V30 11928 H 1099.72 -1.73102 2.4306 0
M  V30 11929 C 1098.47 -3.18053 1.4049 0
M  V30 11930 H 1097.79 -3.29529 2.26386 0
M  V30 11931 H 1099.23 -3.97423 1.47754 0
M  V30 11932 C 1097.69 -3.36682 0.121076 0
M  V30 11933 O 1098.22 -3.93202 -0.821874 0
M  V30 11934 N 1096.43 -2.90579 0.0347141 0
M  V30 11935 H 1095.98 -2.44769 0.802852 0
M  V30 11936 H 1095.93 -3.03421 -0.823607 0
M  V30 11937 N 1099.71 -1.29285 -0.901281 0
M  V30 11938 C 1100.93 -1.20169 -1.69039 0
M  V30 11939 C 1101.36 0.234509 -1.86632 0
M  V30 11940 O 1100.71 1.16935 -1.38549 0
M  V30 11941 C 1100.76 -1.91852 -3.05328 0
M  V30 11942 O 1099.87 -1.23448 -3.9349 0
M  V30 11943 H 1099.21 -0.416486 -0.517141 0
M  V30 11944 H 1101.74 -1.70826 -1.12603 0
M  V30 11945 H 1101.75 -2.00244 -3.5548 0
M  V30 11946 H 1100.42 -2.96313 -2.91841 0
M  V30 11947 H 1099 -1.23303 -3.51924 0
M  V30 11948 N 1101.18 1.11143 -1.11736 0
M  V30 11949 C 1102.43 1.83219 -0.869413 0
M  V30 11950 C 1102.76 1.84588 0.603402 0
M  V30 11951 O 1102.04 1.30119 1.44566 0
M  V30 11952 C 1102.32 3.30247 -1.43559 0
M  V30 11953 C 1102.17 3.37253 -2.97624 0
M  V30 11954 C 1103.49 4.26412 -1.08907 0
M  V30 11955 H 1100.61 0.665205 -0.317286 0
M  V30 11956 H 1103.25 1.30307 -1.38275 0
M  V30 11957 H 1101.4 3.75437 -0.998978 0
M  V30 11958 H 1103.08 3.00599 -3.49911 0
M  V30 11959 H 1101.32 2.77378 -3.33532 0
M  V30 11960 H 1101.99 4.40752 -3.32328 0
M  V30 11961 H 1104.47 3.89418 -1.46604 0
M  V30 11962 H 1103.34 5.27666 -1.51195 0
M  V30 11963 H 1103.6 4.421 -0.000259009 0
M  V30 11964 N 1102.66 0.908147 1.28804 0
M  V30 11965 C 1103.61 0.382315 2.29437 0
M  V30 11966 C 1104.6 -0.523033 1.61123 0
M  V30 11967 O 1105.81 -0.404898 1.75387 0
M  V30 11968 H 1102.19 0.105022 0.74463 0
M  V30 11969 H 1104.16 1.24425 2.71221 0
M  V30 11970 C 1102.91 -0.367475 3.45753 0
M  V30 11971 H 1102.23 0.319957 3.98518 0
M  V30 11972 H 1103.67 -0.700131 4.1818 0
M  V30 11973 C 1102.13 -1.57329 2.97908 0
M  V30 11974 O 1102.66 -2.67248 2.99902 0
M  V30 11975 N 1100.86 -1.41835 2.53636 0
M  V30 11976 H 1100.41 -0.524099 2.52212 0
M  V30 11977 H 1100.37 -2.22645 2.21984 0
M  V30 11978 N 1104.14 -1.42577 0.671525 0
M  V30 11979 C 1105.09 -2.27978 -0.0315286 0
M  V30 11980 C 1106.07 -1.40907 -0.776796 0
M  V30 11981 O 1107.27 -1.64385 -0.656248 0
M  V30 11982 C 1104.4 -3.28884 -0.9844 0
M  V30 11983 C 1103.48 -4.23439 -0.236647 0
M  V30 11984 N 1103.87 -5.00107 0.756714 0
M  V30 11985 C 1102.17 -4.43457 -0.475551 0
M  V30 11986 C 1102.87 -5.69141 1.20221 0
M  V30 11987 N 1101.85 -5.40983 0.532802 0
M  V30 11988 H 1105.65 -2.84678 0.730455 0
M  V30 11989 H 1103.16 -1.54501 0.500317 0
M  V30 11990 H 1105.16 -3.88864 -1.50302 0
M  V30 11991 H 1103.82 -2.73745 -1.74625 0
M  V30 11992 H 1104.83 -5.05285 1.13613 0
M  V30 11993 H 1101.51 -3.99364 -1.21715 0
M  V30 11994 H 1102.9 -6.40653 2.02517 0
M  V30 11995 N 1105.62 -0.414636 -1.52048 0
M  V30 11996 C 1106.86 0.158807 -2.03782 0
M  V30 11997 C 1107.22 1.41912 -1.29325 0
M  V30 11998 O 1108.42 2.07136 -1.71313 0
M  V30 11999 C 1106.69 0.395092 -3.55209 0
M  V30 12000 S 1108.25 0.935193 -4.28719 0
M  V30 12001 H 1105.07 0.0424729 -0.70973 0
M  V30 12002 H 1107.67 -0.568822 -1.87042 0
M  V30 12003 H 1106.38 -0.528875 -4.06978 0
M  V30 12004 H 1105.91 1.15044 -3.76203 0
M  V30 12005 H 1107.92 2.21519 -4.44009 0
M  V30 12006 N 1107.1 1.56929 -0.145233 0
M  V30 12007 C 1108.51 1.58196 0.211194 0
M  V30 12008 C 1108.71 1.15941 1.64803 0
M  V30 12009 O 1107.77 0.858888 2.37443 0
M  V30 12010 C 1109.08 3.00665 -0.0459569 0
M  V30 12011 C 1110.63 3.12995 0.0178913 0
M  V30 12012 C 1111.1 4.5751 -0.211905 0
M  V30 12013 N 1112.6 4.62928 -0.158772 0
M  V30 12014 C 1113.33 5.72555 -0.311111 0
M  V30 12015 N 1112.83 6.90838 -0.521074 0
M  V30 12016 N 1114.62 5.61549 -0.248838 0
M  V30 12017 H 1106.77 1.8269 -1.08342 0
M  V30 12018 H 1109.03 0.845514 -0.428731 0
M  V30 12019 H 1108.74 3.35962 -1.0403 0
M  V30 12020 H 1108.61 3.71125 0.674246 0
M  V30 12021 H 1111 2.7754 1.00278 0
M  V30 12022 H 1111.08 2.45025 -0.734612 0
M  V30 12023 H 1110.73 4.93669 -1.19389 0
M  V30 12024 H 1110.66 5.23604 0.560901 0
M  V30 12025 H 1113.15 3.779 -0.00107283 0
M  V30 12026 H 1113.46 7.70248 -0.62747 0
M  V30 12027 H 1111.8 6.92761 -0.557374 0
M  V30 12028 H 1115 4.68022 -0.0855821 0
M  V30 12029 H 1115.17 6.46937 -0.370997 0
M  V30 12030 N 1108.58 -0.128553 1.57075 0
M  V30 12031 C 1109.82 -0.83801 1.84347 0
M  V30 12032 C 1110.15 -1.80325 0.728906 0
M  V30 12033 O 1109.41 -1.93678 -0.280571 0
M  V30 12034 C 1109.7 -1.63027 3.18052 0
M  V30 12035 C 1109.37 -0.810171 4.43562 0
M  V30 12036 C 1108.03 -0.583984 4.77643 0
M  V30 12037 C 1110.38 -0.237896 5.20657 0
M  V30 12038 C 1107.71 0.224887 5.86269 0
M  V30 12039 C 1110.06 0.558114 6.30133 0
M  V30 12040 C 1108.73 0.794706 6.62752 0
M  V30 12041 H 1108 -0.30665 0.674572 0
M  V30 12042 H 1110.65 -0.100797 1.91235 0
M  V30 12043 H 1108.95 -2.43812 3.06697 0
M  V30 12044 H 1110.65 -2.183 3.36372 0
M  V30 12045 H 1107.24 -0.996547 4.16854 0
M  V30 12046 H 1111.42 -0.399881 4.94686 0
M  V30 12047 H 1106.68 0.417507 6.09973 0
M  V30 12048 H 1110.85 1.00859 6.89058 0
M  V30 12049 H 1108.48 1.42331 7.46757 0
M  V30 12050 N 1110.05 -1.5248 -0.398459 0
M  V30 12051 C 1111.28 -1.71221 -1.17039 0
M  V30 12052 C 1111.7 -0.425515 -1.83224 0
M  V30 12053 O 1111.06 0.617938 -1.70444 0
M  V30 12054 C 1111.11 -2.8562 -2.20121 0
M  V30 12055 O 1110.21 -2.51934 -3.26501 0
M  V30 12056 H 1109.55 -0.569654 -0.34116 0
M  V30 12057 H 1112.08 -1.99231 -0.465652 0
M  V30 12058 H 1112.09 -3.10842 -2.64275 0
M  V30 12059 H 1110.77 -3.78969 -1.71334 0
M  V30 12060 H 1109.35 -2.3742 -2.87552 0
M  V30 12061 N 1111.53 0.65634 -1.43283 0
M  V30 12062 C 1112.94 1.23744 -1.39801 0
M  V30 12063 C 1113.29 1.95942 -0.100507 0
M  V30 12064 O 1112.42 2.01063 0.800161 0
M  V30 12065 C 1113.01 2.25062 -2.53244 0
M  V30 12066 C 1111.57 2.78657 -2.53036 0
M  V30 12067 C 1110.72 1.53251 -2.31105 0
M  V30 12068 H 1113.67 0.448553 -1.52229 0
M  V30 12069 H 1113.69 3.07174 -2.24553 0
M  V30 12070 H 1113.2 1.72487 -3.47664 0
M  V30 12071 H 1111.3 3.35304 -1.62487 0
M  V30 12072 H 1111.42 3.26414 -3.507 0
M  V30 12073 H 1109.78 1.80487 -1.79713 0
M  V30 12074 H 1110.56 1.02615 -3.27605 0
M  V30 12075 N 1113.01 1.29761 0.894412 0
M  V30 12076 C 1114.29 1.08711 1.62608 0
M  V30 12077 C 1114.67 -0.366907 2.07887 0
M  V30 12078 O 1114.01 -1.35669 1.83865 0
M  V30 12079 C 1114.22 2.07947 2.80284 0
M  V30 12080 C 1115.57 2.39153 3.50843 0
M  V30 12081 O 1116.6 2.06183 2.9046 0
M  V30 12082 O 1115.46 2.95509 4.59713 0
M  V30 12083 H 1112.55 0.416866 0.714249 0
M  V30 12084 H 1115.1 1.41153 0.942015 0
M  V30 12085 H 1113.87 3.05859 2.44061 0
M  V30 12086 H 1113.49 1.76266 3.56393 0
M  V30 12087 N 1114.49 -1.10549 1.12324 0
M  V30 12088 C 1115.76 -1.78968 0.789287 0
M  V30 12089 C 1116.14 -1.984 -0.721156 0
M  V30 12090 O 1115.49 -1.5761 -1.65443 0
M  V30 12091 C 1115.7 -3.12044 1.563 0
M  V30 12092 C 1117.05 -3.86939 1.74825 0
M  V30 12093 O 1118.07 -3.21761 1.52802 0
M  V30 12094 O 1116.93 -5.0392 2.11488 0
M  V30 12095 H 1114.03 -0.775617 0.286962 0
M  V30 12096 H 1116.57 -1.17209 1.2272 0
M  V30 12097 H 1115.35 -2.93313 2.59005 0
M  V30 12098 H 1114.97 -3.81521 1.11926 0
M  V30 12099 N 1115.97 -0.914965 -1.28321 0
M  V30 12100 C 1116.91 -0.402792 -2.27258 0
M  V30 12101 C 1117.88 0.523412 -1.57638 0
M  V30 12102 O 1119.07 0.445344 -1.8553 0
M  V30 12103 C 1116.21 0.349956 -3.43321 0
M  V30 12104 C 1115.32 -0.608892 -4.27687 0
M  V30 12105 C 1114.46 0.162425 -5.30952 0
M  V30 12106 C 1113.49 -0.789959 -6.06981 0
M  V30 12107 N 1112.63 -0.0520826 -7.02081 0
M  V30 12108 H 1117.47 -1.25153 -2.70446 0
M  V30 12109 H 1115.01 -0.628444 -1.33 0
M  V30 12110 H 1116.97 0.802589 -4.09407 0
M  V30 12111 H 1115.6 1.16303 -3.01121 0
M  V30 12112 H 1114.65 -1.18005 -3.61634 0
M  V30 12113 H 1115.96 -1.33727 -4.8054 0
M  V30 12114 H 1115.11 0.675563 -6.02927 0
M  V30 12115 H 1113.85 0.923851 -4.7887 0
M  V30 12116 H 1112.86 -1.31446 -5.33856 0
M  V30 12117 H 1114.08 -1.55096 -6.61152 0
M  V30 12118 H 1112.03 0.691331 -6.52347 0
M  V30 12119 H 1111.95 -0.720267 -7.52561 0
M  V30 12120 H 1113.21 0.44082 -7.78253 0
M  V30 12121 N 1117.44 1.42219 -0.679077 0
M  V30 12122 C 1118.37 2.33493 -0.0174528 0
M  V30 12123 C 1119.35 1.50915 0.78477 0
M  V30 12124 O 1120.54 1.79504 0.741065 0
M  V30 12125 C 1117.67 3.34576 0.931463 0
M  V30 12126 C 1116.62 4.2734 0.237527 0
M  V30 12127 C 1115.95 5.18664 1.29967 0
M  V30 12128 C 1117.25 5.14729 -0.886082 0
M  V30 12129 H 1118.94 2.89068 -0.779748 0
M  V30 12130 H 1116.49 1.38993 -0.376419 0
M  V30 12131 H 1118.44 3.97343 1.40343 0
M  V30 12132 H 1117.17 2.77315 1.72523 0
M  V30 12133 H 1115.83 3.65973 -0.214245 0
M  V30 12134 H 1115.47 4.57727 2.08554 0
M  V30 12135 H 1115.17 5.81558 0.840463 0
M  V30 12136 H 1116.7 5.84308 1.77249 0
M  V30 12137 H 1118.11 5.71158 -0.495141 0
M  V30 12138 H 1116.51 5.86478 -1.27135 0
M  V30 12139 H 1117.58 4.52874 -1.733 0
M  V30 12140 N 1118.92 0.422693 1.51826 0
M  V30 12141 C 1119.85 -0.386913 2.30272 0
M  V30 12142 C 1120.83 -1.03411 1.35056 0
M  V30 12143 O 1122.02 -1.04055 1.6397 0
M  V30 12144 C 1119.15 -1.49645 3.13407 0
M  V30 12145 C 1118.1 -0.973532 4.16781 0
M  V30 12146 C 1117.43 -2.1777 4.88344 0
M  V30 12147 C 1118.73 -0.0181194 5.22297 0
M  V30 12148 H 1120.42 0.267697 2.98201 0
M  V30 12149 H 1117.97 0.130186 1.4341 0
M  V30 12150 H 1119.92 -2.06993 3.67059 0
M  V30 12151 H 1118.64 -2.17914 2.43272 0
M  V30 12152 H 1117.3 -0.42237 3.64159 0
M  V30 12153 H 1116.95 -2.84625 4.14726 0
M  V30 12154 H 1116.65 -1.83427 5.58237 0
M  V30 12155 H 1118.18 -2.75699 5.44814 0
M  V30 12156 H 1119.59 -0.500822 5.71108 0
M  V30 12157 H 1117.99 0.237163 5.99631 0
M  V30 12158 H 1119.06 0.923065 4.76033 0
M  V30 12159 N 1120.4 -1.5685 0.153553 0
M  V30 12160 C 1121.36 -2.15894 -0.769564 0
M  V30 12161 C 1122.36 -1.10239 -1.17064 0
M  V30 12162 O 1123.55 -1.35845 -1.09049 0
M  V30 12163 C 1120.68 -2.72738 -2.04516 0
M  V30 12164 H 1121.88 -2.98807 -0.255842 0
M  V30 12165 H 1119.43 -1.56005 -0.0959279 0
M  V30 12166 H 1120.17 -1.9351 -2.60239 0
M  V30 12167 H 1119.95 -3.50042 -1.76672 0
M  V30 12168 H 1121.44 -3.18208 -2.70432 0
M  V30 12169 N 1121.88 0.120221 -1.57141 0
M  V30 12170 C 1123.1 0.84637 -1.89344 0
M  V30 12171 C 1123.53 1.72702 -0.745365 0
M  V30 12172 O 1122.89 1.7873 0.304155 0
M  V30 12173 C 1122.93 1.65671 -3.20289 0
M  V30 12174 O 1122.04 2.76353 -3.06109 0
M  V30 12175 H 1121.38 0.234132 -0.621352 0
M  V30 12176 H 1123.91 0.102986 -2.04341 0
M  V30 12177 H 1123.92 2.04621 -3.52979 0
M  V30 12178 H 1122.59 1.01023 -4.03444 0
M  V30 12179 H 1121.17 2.40615 -2.84884 0
M  V30 12180 N 1123.36 1.52689 0.390367 0
M  V30 12181 C 1124.6 1.69354 1.1445 0
M  V30 12182 C 1124.96 0.423677 1.87267 0
M  V30 12183 O 1126.16 0.466669 2.64718 0
M  V30 12184 C 1124.43 2.89356 2.0978 0
M  V30 12185 S 1125.99 3.26602 2.93047 0
M  V30 12186 H 1122.81 0.596162 0.387442 0
M  V30 12187 H 1125.41 1.90732 0.429119 0
M  V30 12188 H 1124.12 3.80003 1.55004 0
M  V30 12189 H 1123.65 2.70307 2.85828 0
M  V30 12190 H 1125.66 2.76683 4.11899 0
M  V30 12191 N 1124.83 -0.648732 1.43629 0
M  V30 12192 C 1126.06 -1.44117 1.49148 0
M  V30 12193 C 1126.48 -1.87767 0.111952 0
M  V30 12194 O 1125.84 -1.57655 -0.895249 0
M  V30 12195 C 1125.89 -2.64938 2.44623 0
M  V30 12196 O 1124.99 -3.64155 1.93559 0
M  V30 12197 H 1124.34 -0.431933 0.504312 0
M  V30 12198 H 1126.87 -0.793439 1.88589 0
M  V30 12199 H 1126.88 -3.12698 2.62076 0
M  V30 12200 H 1125.55 -2.3251 3.44836 0
M  V30 12201 H 1124.13 -3.23322 1.85789 0
M  V30 12202 N 1126.31 -1.30234 -0.887518 0
M  V30 12203 C 1127.28 -1.16384 -1.97452 0
M  V30 12204 C 1128.28 -0.0957942 -1.60514 0
M  V30 12205 O 1129.47 -0.343706 -1.70776 0
M  V30 12206 C 1126.6 -0.782514 -3.31797 0
M  V30 12207 H 1127.79 -2.12952 -2.11167 0
M  V30 12208 H 1125.34 -1.13594 -1.07359 0
M  V30 12209 H 1126.08 0.18278 -3.23785 0
M  V30 12210 H 1125.86 -1.55434 -3.59976 0
M  V30 12211 H 1127.35 -0.709011 -4.11537 0
M  V30 12212 N 1127.79 1.09952 -1.12909 0
M  V30 12213 C 1129.07 1.78547 -0.798767 0
M  V30 12214 C 1129.45 1.9878 0.710624 0
M  V30 12215 O 1128.8 1.58485 1.64604 0
M  V30 12216 C 1129.01 3.1121 -1.57953 0
M  V30 12217 C 1130.35 3.86006 -1.76874 0
M  V30 12218 O 1131.38 3.20946 -1.54506 0
M  V30 12219 O 1130.24 5.02791 -2.14158 0
M  V30 12220 H 1127.33 0.774084 -0.291072 0
M  V30 12221 H 1129.88 1.16557 -1.2334 0
M  V30 12222 H 1128.65 2.91935 -2.60557 0
M  V30 12223 H 1128.27 3.80922 -1.13948 0
M  V30 12224 N 1129.27 0.921757 1.27833 0
M  V30 12225 C 1130.52 0.557974 1.94245 0
M  V30 12226 C 1130.84 -0.90268 1.72849 0
M  V30 12227 O 1130.11 -1.63915 1.07279 0
M  V30 12228 H 1128.69 0.203364 0.718785 0
M  V30 12229 H 1131.35 1.17286 1.5566 0
M  V30 12230 H 1130.45 0.759202 3.02725 0
M  V30 12231 N 1130.75 -1.41857 0.686609 0
M  V30 12232 C 1131.97 -2.05699 0.222561 0
M  V30 12233 C 1132.39 -1.51636 -1.12481 0
M  V30 12234 O 1131.75 -0.660925 -1.70112 0
M  V30 12235 C 1131.8 -3.61138 0.161818 0
M  V30 12236 O 1131.52 -4.13199 1.45596 0
M  V30 12237 C 1133.02 -4.42112 -0.324304 0
M  V30 12238 H 1130.24 -0.662665 0.10543 0
M  V30 12239 H 1132.78 -1.81788 0.936671 0
M  V30 12240 H 1130.94 -3.8412 -0.503056 0
M  V30 12241 H 1131.35 -5.0717 1.33712 0
M  V30 12242 H 1132.83 -5.51097 -0.315694 0
M  V30 12243 H 1133.3 -4.1756 -1.36164 0
M  V30 12244 H 1133.91 -4.24174 0.309251 0
M  V30 12245 N 1132.22 -0.430739 -1.51599 0
M  V30 12246 C 1133.15 0.374695 -2.30474 0
M  V30 12247 C 1134.14 1.02694 -1.35602 0
M  V30 12248 O 1135.32 1.03184 -1.6452 0
M  V30 12249 C 1132.45 1.47981 -3.14196 0
M  V30 12250 C 1131.4 0.951415 -4.17291 0
M  V30 12251 C 1130.73 2.15177 -4.89492 0
M  V30 12252 C 1132.03 -0.00957951 -5.22299 0
M  V30 12253 H 1133.72 -0.283508 -2.98055 0
M  V30 12254 H 1131.27 -0.13779 -1.43339 0
M  V30 12255 H 1133.22 2.05043 -3.68151 0
M  V30 12256 H 1131.95 2.16621 -2.44424 0
M  V30 12257 H 1130.61 0.403052 -3.64378 0
M  V30 12258 H 1130.25 2.82421 -4.1623 0
M  V30 12259 H 1129.95 1.80464 -5.59202 0
M  V30 12260 H 1131.48 2.72806 -5.46269 0
M  V30 12261 H 1132.89 0.470527 -5.71366 0
M  V30 12262 H 1131.29 -0.268959 -5.99497 0
M  V30 12263 H 1132.36 -0.948297 -4.75537 0
M  V30 12264 N 1133.7 1.56767 -0.161869 0
M  V30 12265 C 1134.65 2.17502 0.772102 0
M  V30 12266 C 1135.62 1.11223 1.23364 0
M  V30 12267 O 1136.8 1.39332 1.30351 0
M  V30 12268 C 1133.94 2.81248 1.99984 0
M  V30 12269 C 1133.06 4.01962 1.58274 0
M  V30 12270 C 1132.19 4.53662 2.76341 0
M  V30 12271 C 1131.23 5.66807 2.31076 0
M  V30 12272 N 1130.37 6.13059 3.42203 0
M  V30 12273 H 1135.21 2.96971 0.247382 0
M  V30 12274 H 1132.75 1.46685 0.110382 0
M  V30 12275 H 1134.7 3.16359 2.7198 0
M  V30 12276 H 1133.33 2.04398 2.49842 0
M  V30 12277 H 1132.39 3.72733 0.759874 0
M  V30 12278 H 1133.7 4.83891 1.2104 0
M  V30 12279 H 1132.85 4.90905 3.56507 0
M  V30 12280 H 1131.59 3.7077 3.16829 0
M  V30 12281 H 1130.6 5.29125 1.49354 0
M  V30 12282 H 1131.82 6.51494 1.91657 0
M  V30 12283 H 1129.77 5.33099 3.82285 0
M  V30 12284 H 1129.68 6.89953 3.09033 0
M  V30 12285 H 1130.95 6.54951 4.22682 0
M  V30 12286 N 1135.18 -0.111886 1.57202 0
M  V30 12287 C 1136.11 -1.13796 2.03894 0
M  V30 12288 C 1137.09 -1.4277 0.924696 0
M  V30 12289 O 1138.28 -1.53089 1.19488 0
M  V30 12290 C 1135.41 -2.46229 2.44925 0
M  V30 12291 C 1134.36 -2.31702 3.59859 0
M  V30 12292 C 1133.69 -3.69161 3.86813 0
M  V30 12293 C 1134.99 -1.77158 4.91337 0
M  V30 12294 H 1136.68 -0.749581 2.89865 0
M  V30 12295 H 1134.23 -0.359126 1.3945 0
M  V30 12296 H 1136.18 -3.18267 2.76195 0
M  V30 12297 H 1134.9 -2.86971 1.55933 0
M  V30 12298 H 1133.56 -1.62112 3.28809 0
M  V30 12299 H 1133.21 -4.07401 2.95015 0
M  V30 12300 H 1132.91 -3.60292 4.6418 0
M  V30 12301 H 1134.43 -4.42693 4.20542 0
M  V30 12302 H 1135.85 -2.3902 5.21097 0
M  V30 12303 H 1134.25 -1.79091 5.72753 0
M  V30 12304 H 1135.32 -0.729675 4.79379 0
M  V30 12305 N 1136.66 -1.52894 -0.382264 0
M  V30 12306 C 1137.9 -1.69465 -1.12486 0
M  V30 12307 C 1138.26 -0.432631 -1.87473 0
M  V30 12308 O 1137.55 0.573901 -1.82803 0
M  V30 12309 C 1137.75 -2.87309 -2.12576 0
M  V30 12310 C 1137.58 -4.24849 -1.47421 0
M  V30 12311 C 1136.35 -4.89965 -1.23542 0
M  V30 12312 C 1138.54 -5.05991 -0.920733 0
M  V30 12313 N 1136.53 -6.1147 -0.545631 0
M  V30 12314 C 1137.9 -6.18958 -0.359379 0
M  V30 12315 C 1139.95 -4.91138 -0.817797 0
M  V30 12316 C 1138.65 -7.18695 0.294853 0
M  V30 12317 C 1140.68 -5.91134 -0.177375 0
M  V30 12318 C 1140.04 -7.03411 0.373179 0
M  V30 12319 H 1136.14 -0.673527 -0.397347 0
M  V30 12320 H 1138.73 -1.90259 -0.413479 0
M  V30 12321 H 1136.9 -2.68083 -2.81044 0
M  V30 12322 H 1138.63 -2.92784 -2.79392 0
M  V30 12323 H 1135.38 -4.48808 -1.51223 0
M  V30 12324 H 1135.81 -6.76653 -0.216582 0
M  V30 12325 H 1140.45 -4.04536 -1.22924 0
M  V30 12326 H 1138.17 -8.04901 0.718285 0
M  V30 12327 H 1141.75 -5.81716 -0.0988833 0
M  V30 12328 H 1140.63 -7.7946 0.860905 0
M  V30 12329 N 1138.14 0.641106 -1.43971 0
M  V30 12330 C 1139.41 1.39897 -1.36704 0
M  V30 12331 C 1139.79 2.1109 -0.0208051 0
M  V30 12332 O 1139.14 2.05638 0.99625 0
M  V30 12333 C 1139.35 2.37366 -2.55849 0
M  V30 12334 C 1140.7 3.01 -2.99473 0
M  V30 12335 O 1141.72 2.47692 -2.55982 0
M  V30 12336 O 1140.58 3.9768 -3.74851 0
M  V30 12337 H 1137.68 0.625623 -0.540855 0
M  V30 12338 H 1140.22 0.666997 -1.56042 0
M  V30 12339 H 1139 1.8379 -3.45452 0
M  V30 12340 H 1138.62 3.17995 -2.38673 0
M  V30 12341 N 1139.62 1.30703 0.880598 0
M  V30 12342 C 1140.58 1.17429 1.96832 0
M  V30 12343 C 1141.58 0.104305 1.60461 0
M  V30 12344 O 1142.77 0.352758 1.70591 0
M  V30 12345 C 1139.9 0.800099 3.31378 0
M  V30 12346 H 1141.09 2.14069 2.10034 0
M  V30 12347 H 1138.65 1.14162 1.06755 0
M  V30 12348 H 1139.38 -0.165606 3.23877 0
M  V30 12349 H 1139.17 1.57341 3.59146 0
M  V30 12350 H 1140.66 0.730826 4.11155 0
M  V30 12351 N 1141.09 -1.09351 1.1349 0
M  V30 12352 C 1142.32 -1.85304 0.920324 0
M  V30 12353 C 1142.74 -1.81182 -0.530883 0
M  V30 12354 O 1142.09 -1.20853 -1.36751 0
M  V30 12355 C 1142.14 -3.33249 1.40098 0
M  V30 12356 O 1141.87 -3.37333 2.79531 0
M  V30 12357 C 1143.37 -4.2604 1.22495 0
M  V30 12358 H 1140.59 -0.585294 0.328134 0
M  V30 12359 H 1143.13 -1.38168 1.50765 0
M  V30 12360 H 1141.29 -3.7781 0.85664 0
M  V30 12361 H 1141.7 -4.29614 3.00885 0
M  V30 12362 H 1143.17 -5.27999 1.61 0
M  V30 12363 H 1143.65 -4.38883 0.166717 0
M  V30 12364 H 1144.26 -3.87295 1.75735 0
M  V30 12365 N 1142.57 -0.928524 -1.27343 0
M  V30 12366 C 1143.8 -0.58516 -1.98974 0
M  V30 12367 C 1144.22 0.829964 -1.68799 0
M  V30 12368 O 1143.58 1.55705 -0.928738 0
M  V30 12369 C 1143.63 -0.818662 -3.51184 0
M  V30 12370 O 1142.73 0.115355 -4.12239 0
M  V30 12371 H 1142.07 -0.225203 -0.624644 0
M  V30 12372 H 1144.6 -1.248 -1.6213 0
M  V30 12373 H 1144.61 -0.734554 -4.01333 0
M  V30 12374 H 1143.29 -1.8502 -3.72479 0
M  V30 12375 H 1141.86 -0.0187371 -3.72895 0
M  V30 12376 N 1144.05 1.41491 -0.694123 0
M  V30 12377 C 1145.01 2.2917 -0.0368562 0
M  V30 12378 C 1146.01 1.44305 0.709426 0
M  V30 12379 O 1147.2 1.6547 0.544533 0
M  V30 12380 C 1144.33 3.27156 0.958201 0
M  V30 12381 H 1145.53 2.88787 -0.808829 0
M  V30 12382 H 1143.08 1.49453 -0.457538 0
M  V30 12383 H 1143.82 2.72516 1.75799 0
M  V30 12384 H 1143.6 3.89776 0.426227 0
M  V30 12385 H 1145.09 3.92863 1.41592 0
M  V30 12386 N 1145.53 0.438773 1.51369 0
M  V30 12387 C 1146.48 -0.386324 2.29369 0
M  V30 12388 C 1147.47 -1.0196 1.3528 0
M  V30 12389 O 1148.68 -0.9544 1.52615 0
M  V30 12390 H 1145.05 -0.143397 0.738201 0
M  V30 12391 H 1147.02 0.292372 2.96964 0
M  V30 12392 C 1145.77 -1.47426 3.14898 0
M  V30 12393 H 1145.09 -0.996335 3.87186 0
M  V30 12394 H 1146.53 -2.02481 3.72529 0
M  V30 12395 C 1144.99 -2.45831 2.30366 0
M  V30 12396 O 1145.52 -3.50398 1.96428 0
M  V30 12397 N 1143.73 -2.16754 1.93561 0
M  V30 12398 H 1143.28 -1.31748 2.2136 0
M  V30 12399 H 1143.23 -2.82836 1.373 0
M  V30 12400 N 1147.01 -1.56678 0.170181 0
M  V30 12401 C 1147.92 -2.21496 -0.773079 0
M  V30 12402 C 1148.93 -1.20626 -1.25401 0
M  V30 12403 O 1150.11 -1.53283 -1.30638 0
M  V30 12404 C 1147.17 -2.8421 -1.98558 0
M  V30 12405 C 1146.23 -4.00278 -1.55164 0
M  V30 12406 C 1145.47 -4.59992 -2.70634 0
M  V30 12407 O 1145.69 -4.18595 -3.87472 0
M  V30 12408 O 1144.62 -5.49881 -2.44775 0
M  V30 12409 H 1148.45 -3.02659 -0.251195 0
M  V30 12410 H 1146.03 -1.49288 -0.0579621 0
M  V30 12411 H 1147.92 -3.2398 -2.69472 0
M  V30 12412 H 1146.59 -2.06045 -2.49654 0
M  V30 12413 H 1145.5 -3.6518 -0.812038 0
M  V30 12414 H 1146.83 -4.80033 -1.0876 0
M  V30 12415 N 1148.48 0.103547 -1.57259 0
M  V30 12416 C 1149.9 0.457527 -1.52901 0
M  V30 12417 C 1150.1 1.80995 -0.8856 0
M  V30 12418 O 1149.16 2.48001 -0.474504 0
M  V30 12419 C 1150.47 0.427793 -2.97641 0
M  V30 12420 C 1152.02 0.51025 -3.08813 0
M  V30 12421 C 1152.49 0.51075 -4.55143 0
M  V30 12422 N 1153.98 0.571748 -4.59658 0
M  V30 12423 C 1154.72 0.593836 -5.70317 0
M  V30 12424 N 1154.21 0.572638 -6.90429 0
M  V30 12425 N 1156.01 0.638011 -5.58467 0
M  V30 12426 H 1148.16 -0.782408 -1.97464 0
M  V30 12427 H 1150.42 -0.290324 -0.90245 0
M  V30 12428 H 1150.13 -0.498608 -3.48148 0
M  V30 12429 H 1150 1.24991 -3.55889 0
M  V30 12430 H 1152.39 1.42707 -2.583 0
M  V30 12431 H 1152.47 -0.339846 -2.53532 0
M  V30 12432 H 1152.11 -0.40209 -5.06306 0
M  V30 12433 H 1152.04 1.37794 -5.08252 0
M  V30 12434 H 1154.53 0.593668 -3.73208 0
M  V30 12435 H 1154.85 0.592542 -7.70525 0
M  V30 12436 H 1153.19 0.539818 -6.929 0
M  V30 12437 H 1156.38 0.652042 -4.63536 0
M  V30 12438 H 1156.56 0.651756 -6.44714 0
M  V30 12439 N 1149.96 1.53094 0.37415 0
M  V30 12440 C 1150.91 1.78927 1.45787 0
M  V30 12441 C 1151.88 0.633187 1.53558 0
M  V30 12442 O 1153.06 0.874472 1.69581 0
M  V30 12443 C 1150.2 1.97726 2.8284 0
M  V30 12444 C 1149.32 3.25436 2.84104 0
M  V30 12445 C 1148.45 3.3447 4.12678 0
M  V30 12446 C 1147.49 4.56246 4.08051 0
M  V30 12447 N 1146.63 4.6248 5.28258 0
M  V30 12448 H 1151.47 2.71404 1.2306 0
M  V30 12449 H 1149 1.34453 0.596716 0
M  V30 12450 H 1150.96 2.06611 3.62447 0
M  V30 12451 H 1149.59 1.08593 3.03986 0
M  V30 12452 H 1148.64 3.25548 1.96781 0
M  V30 12453 H 1149.96 4.15112 2.76556 0
M  V30 12454 H 1149.11 3.4262 5.00696 0
M  V30 12455 H 1147.85 2.42795 4.22968 0
M  V30 12456 H 1146.85 4.48206 3.1842 0
M  V30 12457 H 1148.08 5.49254 3.99371 0
M  V30 12458 H 1146.03 3.73703 5.3915 0
M  V30 12459 H 1145.94 5.46049 5.22845 0
M  V30 12460 H 1147.21 4.74903 6.18132 0
M  V30 12461 N 1151.44 -0.633461 1.44309 0
M  V30 12462 C 1152.66 -1.42527 1.50668 0
M  V30 12463 C 1153.09 -1.87637 0.131861 0
M  V30 12464 O 1152.45 -1.58595 -0.878477 0
M  V30 12465 C 1152.5 -2.62328 2.47419 0
M  V30 12466 O 1151.6 -3.62081 1.97411 0
M  V30 12467 H 1150.94 -0.426559 0.508864 0
M  V30 12468 H 1153.47 -0.773392 1.8942 0
M  V30 12469 H 1153.48 -3.09901 2.65378 0
M  V30 12470 H 1152.16 -2.2884 3.47283 0
M  V30 12471 H 1150.73 -3.21333 1.89208 0
M  V30 12472 N 1152.92 -1.31168 -0.873655 0
M  V30 12473 C 1154.17 -1.20003 -1.62118 0
M  V30 12474 C 1154.48 0.241505 -1.94103 0
M  V30 12475 O 1155.69 0.474801 -2.67316 0
M  V30 12476 C 1154.14 -2.10055 -2.92241 0
M  V30 12477 C 1153.75 -3.59183 -2.67752 0
M  V30 12478 C 1155.49 -2.07681 -3.70228 0
M  V30 12479 C 1153.4 -4.41255 -3.93761 0
M  V30 12480 H 1152.33 -0.445564 -0.608267 0
M  V30 12481 H 1154.98 -1.55997 -0.966287 0
M  V30 12482 H 1153.36 -1.66956 -3.59085 0
M  V30 12483 H 1154.54 -4.10504 -2.09339 0
M  V30 12484 H 1152.85 -3.63496 -2.03125 0
M  V30 12485 H 1155.45 -2.66246 -4.637 0
M  V30 12486 H 1155.79 -1.06304 -4.02499 0
M  V30 12487 H 1156.33 -2.48961 -3.10263 0
M  V30 12488 H 1153.07 -5.43372 -3.66643 0
M  V30 12489 H 1152.59 -3.94694 -4.51638 0
M  V30 12490 H 1154.26 -4.53278 -4.6168 0
M  V30 12491 N 1154.4 1.08748 -1.14068 0
M  V30 12492 C 1155.34 2.17667 -0.819981 0
M  V30 12493 C 1156.34 1.68207 0.200654 0
M  V30 12494 O 1157.54 1.79909 0.0571014 0
M  V30 12495 H 1153.92 0.710129 -0.247427 0
M  V30 12496 H 1155.89 2.41944 -1.74659 0
M  V30 12497 C 1154.64 3.46315 -0.309985 0
M  V30 12498 H 1153.96 3.84748 -1.08669 0
M  V30 12499 H 1155.4 4.23818 -0.124094 0
M  V30 12500 C 1153.86 3.22762 0.965724 0
M  V30 12501 O 1154.39 3.46034 2.04018 0
M  V30 12502 N 1152.6 2.76326 0.899576 0
M  V30 12503 H 1152.14 2.57588 0.0250598 0
M  V30 12504 H 1152.1 2.60945 1.75371 0
M  V30 12505 N 1155.87 0.935264 1.26849 0
M  V30 12506 C 1157.12 0.580548 1.94313 0
M  V30 12507 C 1157.45 -0.877205 1.73259 0
M  V30 12508 O 1156.73 -1.62679 1.06611 0
M  V30 12509 C 1157.01 0.916445 3.48243 0
M  V30 12510 C 1156.86 2.42851 3.78607 0
M  V30 12511 C 1158.18 0.427665 4.38017 0
M  V30 12512 H 1155.3 0.21239 0.705733 0
M  V30 12513 H 1157.94 1.16841 1.49827 0
M  V30 12514 H 1156.09 0.416169 3.86265 0
M  V30 12515 H 1157.77 3.00106 3.50335 0
M  V30 12516 H 1156.01 2.8745 3.24892 0
M  V30 12517 H 1156.68 2.61405 4.8618 0
M  V30 12518 H 1159.16 0.856525 4.07189 0
M  V30 12519 H 1158.03 0.691571 5.44526 0
M  V30 12520 H 1158.29 -0.672344 4.36958 0
M  V30 12521 N 1157.35 -1.41121 0.701616 0
M  V30 12522 C 1158.3 -2.30765 0.040121 0
M  V30 12523 C 1159.27 -1.47436 -0.764975 0
M  V30 12524 O 1160.45 -1.76209 -0.731775 0
M  V30 12525 C 1157.59 -3.33535 -0.885903 0
M  V30 12526 C 1156.71 -4.3194 -0.0717765 0
M  V30 12527 C 1155.84 -5.21779 -0.995996 0
M  V30 12528 C 1154.88 -6.11849 -0.175133 0
M  V30 12529 N 1154.02 -6.94151 -1.05348 0
M  V30 12530 H 1158.86 -2.86772 0.810312 0
M  V30 12531 H 1156.4 -1.41233 0.411301 0
M  V30 12532 H 1158.35 -3.91675 -1.4369 0
M  V30 12533 H 1156.98 -2.79065 -1.62243 0
M  V30 12534 H 1156.04 -3.75698 0.596221 0
M  V30 12535 H 1157.35 -4.95597 0.56435 0
M  V30 12536 H 1156.5 -5.84782 -1.61601 0
M  V30 12537 H 1155.24 -4.58363 -1.66597 0
M  V30 12538 H 1154.25 -5.4789 0.457916 0
M  V30 12539 H 1155.47 -6.77322 0.491133 0
M  V30 12540 H 1153.42 -6.33338 -1.70936 0
M  V30 12541 H 1153.33 -7.54518 -0.473065 0
M  V30 12542 H 1154.6 -7.61617 -1.66012 0
M  V30 12543 N 1158.83 -0.446794 -1.51134 0
M  V30 12544 C 1159.76 0.395804 -2.25757 0
M  V30 12545 C 1160.78 0.978178 -1.30137 0
M  V30 12546 O 1161.96 0.87071 -1.55823 0
M  V30 12547 C 1159.06 1.56665 -3.00515 0
M  V30 12548 C 1158.24 1.10146 -4.23305 0
M  V30 12549 C 1157.3 2.14352 -4.80562 0
M  V30 12550 O 1156.32 1.73401 -5.42145 0
M  V30 12551 N 1157.52 3.46932 -4.65423 0
M  V30 12552 H 1160.29 -0.243808 -2.98707 0
M  V30 12553 H 1157.85 -0.276205 -1.59527 0
M  V30 12554 H 1159.84 2.26019 -3.35704 0
M  V30 12555 H 1158.41 2.11142 -2.30516 0
M  V30 12556 H 1157.63 0.234644 -3.93501 0
M  V30 12557 H 1158.92 0.768185 -5.02968 0
M  V30 12558 H 1158.32 3.82929 -4.16391 0
M  V30 12559 H 1156.88 4.12154 -5.04948 0
M  V30 12560 N 1160.31 1.56586 -0.178487 0
M  V30 12561 C 1161.56 1.97098 0.464617 0
M  V30 12562 C 1161.88 1.06476 1.62767 0
M  V30 12563 O 1161.14 0.100337 1.95443 0
M  V30 12564 C 1161.44 3.43629 0.982552 0
M  V30 12565 C 1161.1 4.50853 -0.0653645 0
M  V30 12566 C 1159.77 4.79901 -0.353349 0
M  V30 12567 C 1162.12 5.15387 -0.776279 0
M  V30 12568 C 1159.45 5.70779 -1.35751 0
M  V30 12569 C 1161.8 6.07349 -1.76948 0
M  V30 12570 C 1160.46 6.34761 -2.06483 0
M  V30 12571 H 1159.73 0.721232 0.170016 0
M  V30 12572 H 1162.38 1.89559 -0.271959 0
M  V30 12573 H 1160.68 3.48155 1.79709 0
M  V30 12574 H 1162.38 3.7232 1.48926 0
M  V30 12575 H 1158.97 4.28266 0.169266 0
M  V30 12576 H 1163.15 4.9305 -0.567008 0
M  V30 12577 H 1158.41 5.90298 -1.59244 0
M  V30 12578 H 1162.58 6.56419 -2.32567 0
M  V30 12579 H 1160.21 7.0498 -2.84441 0
M  V30 12580 N 1161.79 -0.095206 1.57312 0
M  V30 12581 C 1163.03 -0.798719 1.86083 0
M  V30 12582 C 1163.36 -1.78739 0.766991 0
M  V30 12583 O 1162.62 -1.9423 -0.239425 0
M  V30 12584 C 1162.92 -1.56244 3.21438 0
M  V30 12585 C 1162.58 -0.715903 4.4518 0
M  V30 12586 C 1161.24 -0.482537 4.78774 0
M  V30 12587 C 1163.6 -0.127404 5.21044 0
M  V30 12588 C 1160.92 0.349193 5.8566 0
M  V30 12589 C 1163.28 0.691649 6.28808 0
M  V30 12590 C 1161.94 0.935107 6.60918 0
M  V30 12591 H 1161.21 -0.292272 0.680924 0
M  V30 12592 H 1163.86 -0.0602105 1.91405 0
M  V30 12593 H 1162.16 -2.37251 3.118 0
M  V30 12594 H 1163.86 -2.11116 3.40927 0
M  V30 12595 H 1160.45 -0.907902 4.18874 0
M  V30 12596 H 1164.63 -0.29486 4.95423 0
M  V30 12597 H 1159.89 0.546797 6.0895 0
M  V30 12598 H 1164.06 1.15452 6.86763 0
M  V30 12599 H 1161.69 1.58139 7.4357 0
M  V30 12600 N 1163.26 -1.53291 -0.366026 0
M  V30 12601 C 1164.19 -1.82675 -1.45437 0
M  V30 12602 C 1165.18 -0.680227 -1.55907 0
M  V30 12603 O 1166.36 -0.930032 -1.70482 0
M  V30 12604 C 1163.49 -2.01626 -2.8278 0
M  V30 12605 C 1162.44 -3.17391 -2.87135 0
M  V30 12606 C 1161.77 -3.21634 -4.27148 0
M  V30 12607 C 1163.07 -4.5599 -2.54697 0
M  V30 12608 H 1164.76 -2.73818 -1.21096 0
M  V30 12609 H 1162.31 -1.31754 -0.581108 0
M  V30 12610 H 1164.26 -2.20765 -3.58944 0
M  V30 12611 H 1162.99 -1.07193 -3.08508 0
M  V30 12612 H 1161.65 -2.98071 -2.13422 0
M  V30 12613 H 1161.29 -2.2484 -4.49951 0
M  V30 12614 H 1160.99 -3.99414 -4.30978 0
M  V30 12615 H 1162.52 -3.42957 -5.05186 0
M  V30 12616 H 1163.93 -4.75294 -3.20575 0
M  V30 12617 H 1162.33 -5.36008 -2.69844 0
M  V30 12618 H 1163.4 -4.61133 -1.49949 0
M  V30 12619 N 1164.74 0.6258 -1.44643 0
M  V30 12620 C 1165.69 1.75869 -1.52226 0
M  V30 12621 C 1166.68 1.64765 -0.39355 0
M  V30 12622 O 1167.89 1.70779 -0.568718 0
M  V30 12623 H 1164.27 0.580712 -0.477784 0
M  V30 12624 H 1166.24 1.66596 -2.47565 0
M  V30 12625 C 1164.99 3.14217 -1.48873 0
M  V30 12626 H 1164.31 3.23411 -2.35043 0
M  V30 12627 H 1165.75 3.93365 -1.58239 0
M  V30 12628 C 1164.21 3.36243 -0.210299 0
M  V30 12629 O 1164.74 3.95243 0.717335 0
M  V30 12630 N 1162.94 2.90385 -0.111744 0
M  V30 12631 H 1162.49 2.42555 -0.867466 0
M  V30 12632 H 1162.45 3.05498 0.742871 0
M  V30 12633 N 1166.22 1.31629 0.866686 0
M  V30 12634 C 1167.15 1.22151 1.99001 0
M  V30 12635 C 1168.13 0.107972 1.69757 0
M  V30 12636 O 1169.32 0.293125 1.91975 0
M  V30 12637 C 1166.45 0.93144 3.34577 0
M  V30 12638 C 1165.4 2.0049 3.78137 0
M  V30 12639 C 1164.73 1.56747 5.11209 0
M  V30 12640 C 1166.03 3.41844 3.94892 0
M  V30 12641 H 1167.72 2.16132 2.0719 0
M  V30 12642 H 1165.27 1.04051 0.995463 0
M  V30 12643 H 1167.22 0.851719 4.12703 0
M  V30 12644 H 1165.94 -0.0440289 3.2657 0
M  V30 12645 H 1164.6 2.07457 3.02253 0
M  V30 12646 H 1164.25 0.579767 4.99648 0
M  V30 12647 H 1163.95 2.28562 5.41326 0
M  V30 12648 H 1165.47 1.50188 5.91841 0
M  V30 12649 H 1166.89 3.37534 4.63405 0
M  V30 12650 H 1165.29 4.11905 4.36411 0
M  V30 12651 H 1166.36 3.82389 2.98172 0
M  V30 12652 N 1167.7 -1.08142 1.14644 0
M  V30 12653 C 1168.61 -2.18675 0.849607 0
M  V30 12654 C 1169.63 -1.73158 -0.170983 0
M  V30 12655 O 1170.8 -2.014 0.0011579 0
M  V30 12656 C 1167.87 -3.45084 0.334305 0
M  V30 12657 C 1166.93 -4.05213 1.41779 0
M  V30 12658 C 1166.16 -5.25588 0.926981 0
M  V30 12659 O 1166.38 -5.69934 -0.230522 0
M  V30 12660 O 1165.32 -5.77183 1.70715 0
M  V30 12661 H 1169.14 -2.46542 1.77343 0
M  V30 12662 H 1166.73 -1.17328 0.924911 0
M  V30 12663 H 1168.61 -4.21367 0.0529893 0
M  V30 12664 H 1167.29 -3.18788 -0.561755 0
M  V30 12665 H 1166.19 -3.30507 1.7526 0
M  V30 12666 H 1167.53 -4.35764 2.28847 0
M  V30 12667 N 1169.18 -0.941978 -1.26351 0
M  V30 12668 C 1170.45 -0.507822 -1.88893 0
M  V30 12669 C 1170.83 1.0146 -1.85119 0
M  V30 12670 O 1170.18 1.87495 -1.30606 0
M  V30 12671 C 1170.39 -1.07007 -3.3219 0
M  V30 12672 C 1171.74 -1.13922 -4.09032 0
M  V30 12673 O 1172.76 -1.02072 -3.41262 0
M  V30 12674 O 1171.62 -1.32362 -5.30229 0
M  V30 12675 H 1168.72 -0.165621 -0.810246 0
M  V30 12676 H 1171.26 -1.03459 -1.34515 0
M  V30 12677 H 1170.04 -2.11366 -3.29302 0
M  V30 12678 H 1169.66 -0.525797 -3.94108 0
M  V30 12679 N 1170.66 1.40747 -0.709091 0
M  V30 12680 C 1172.07 1.83955 -0.318968 0
M  V30 12681 C 1172.42 1.59304 1.14527 0
M  V30 12682 O 1171.54 1.07052 1.88066 0
M  V30 12683 C 1172.14 3.33934 -0.572147 0
M  V30 12684 C 1170.7 3.75661 -0.235802 0
M  V30 12685 C 1169.84 2.64024 -0.847743 0
M  V30 12686 H 1172.79 1.30107 -0.908734 0
M  V30 12687 H 1172.82 3.80143 0.164752 0
M  V30 12688 H 1172.33 3.51844 -1.63791 0
M  V30 12689 H 1170.43 3.63348 0.825164 0
M  V30 12690 H 1170.54 4.73955 -0.700263 0
M  V30 12691 H 1168.91 2.53197 -0.276283 0
M  V30 12692 H 1169.69 2.84748 -1.91765 0
M  V30 12693 N 1172.13 0.454803 1.50895 0
M  V30 12694 C 1173.07 -0.383826 2.25963 0
M  V30 12695 C 1174.08 -0.971263 1.30653 0
M  V30 12696 O 1175.27 -0.862434 1.56283 0
M  V30 12697 C 1172.37 -1.55069 3.01342 0
M  V30 12698 C 1171.54 -1.07899 4.23883 0
M  V30 12699 C 1170.6 -2.118 4.81692 0
M  V30 12700 O 1169.63 -1.70523 5.43057 0
M  V30 12701 N 1170.83 -3.44459 4.67256 0
M  V30 12702 H 1173.59 0.259646 2.98573 0
M  V30 12703 H 1171.15 0.284661 1.59378 0
M  V30 12704 H 1173.15 -2.24236 3.36898 0
M  V30 12705 H 1171.72 -2.09917 2.31633 0
M  V30 12706 H 1170.94 -0.213773 3.9362 0
M  V30 12707 H 1172.22 -0.741501 5.03368 0
M  V30 12708 H 1171.62 -3.80716 4.18416 0
M  V30 12709 H 1170.18 -4.0947 5.07127 0
M  V30 12710 N 1173.61 -1.56489 0.186789 0
M  V30 12711 C 1174.52 -2.22304 -0.749543 0
M  V30 12712 C 1175.54 -1.21949 -1.24115 0
M  V30 12713 O 1176.71 -1.5466 -1.29005 0
M  V30 12714 C 1173.78 -2.863 -1.95533 0
M  V30 12715 C 1172.84 -4.01901 -1.5091 0
M  V30 12716 C 1172.07 -4.62837 -2.6574 0
M  V30 12717 O 1172.3 -4.22681 -3.8301 0
M  V30 12718 O 1171.23 -5.52446 -2.38929 0
M  V30 12719 H 1175.06 -3.02909 -0.21908 0
M  V30 12720 H 1172.64 -1.49341 -0.0421249 0
M  V30 12721 H 1174.52 -3.2682 -2.6602 0
M  V30 12722 H 1173.2 -2.08681 -2.47455 0
M  V30 12723 H 1172.1 -3.66021 -0.773261 0
M  V30 12724 H 1173.44 -4.8116 -1.03663 0
M  V30 12725 N 1175.09 0.086862 -1.5736 0
M  V30 12726 C 1176.37 0.820984 -1.77537 0
M  V30 12727 C 1176.75 1.96534 -0.770554 0
M  V30 12728 O 1176.09 2.27629 0.199334 0
M  V30 12729 C 1176.3 1.30793 -3.23565 0
M  V30 12730 C 1177.65 1.7474 -3.86977 0
M  V30 12731 O 1178.68 1.40396 -3.27364 0
M  V30 12732 O 1177.54 2.38271 -4.91822 0
M  V30 12733 H 1174.63 0.392228 -0.72807 0
M  V30 12734 H 1177.18 0.0681051 -1.69563 0
M  V30 12735 H 1175.95 0.488409 -3.8824 0
M  V30 12736 H 1175.57 2.12258 -3.36203 0
M  V30 12737 N 1176.57 1.53483 0.357892 0
M  V30 12738 C 1177.5 1.75257 1.46151 0
M  V30 12739 C 1178.48 0.601167 1.51079 0
M  V30 12740 O 1179.66 0.834661 1.69014 0
M  V30 12741 C 1176.79 1.8383 2.84472 0
M  V30 12742 C 1175.84 3.05866 2.97234 0
M  V30 12743 S 1176.67 4.65225 2.6519 0
M  V30 12744 C 1177.82 4.76657 4.05646 0
M  V30 12745 H 1178.06 2.6859 1.27462 0
M  V30 12746 H 1175.59 1.44169 0.552697 0
M  V30 12747 H 1177.55 1.89454 3.64167 0
M  V30 12748 H 1176.21 0.915345 3.00467 0
M  V30 12749 H 1175.4 3.08497 3.98555 0
M  V30 12750 H 1175 2.98393 2.25471 0
M  V30 12751 H 1177.3 4.57185 4.99988 0
M  V30 12752 H 1178.24 5.7873 4.08016 0
M  V30 12753 H 1178.65 4.05226 3.93004 0
M  V30 12754 N 1178.05 -0.61812 1.44973 0
M  V30 12755 C 1178.96 -1.7579 1.55355 0
M  V30 12756 C 1179.97 -1.68384 0.438512 0
M  V30 12757 O 1181.15 -1.88928 0.697715 0
M  V30 12758 C 1178.21 -3.1222 1.50729 0
M  V30 12759 C 1177.27 -3.3116 2.73188 0
M  V30 12760 C 1176.51 -4.61082 2.68774 0
M  V30 12761 O 1176.73 -5.42728 1.75507 0
M  V30 12762 O 1175.66 -4.82506 3.59821 0
M  V30 12763 H 1179.49 -1.69983 2.51674 0
M  V30 12764 H 1177.07 -0.780934 1.27365 0
M  V30 12765 H 1178.96 -3.93524 1.5072 0
M  V30 12766 H 1177.63 -3.18541 0.575587 0
M  V30 12767 H 1176.54 -2.49485 2.78762 0
M  V30 12768 H 1177.87 -3.29709 3.65449 0
M  V30 12769 N 1179.52 -1.32087 -0.859693 0
M  V30 12770 C 1180.77 -1.22542 -1.6159 0
M  V30 12771 C 1181.1 0.213533 -1.93022 0
M  V30 12772 O 1180.38 1.14931 -1.56911 0
M  V30 12773 C 1180.66 -2.08004 -2.93949 0
M  V30 12774 C 1180.51 -3.60252 -2.6933 0
M  V30 12775 C 1181.83 -1.93732 -3.95166 0
M  V30 12776 H 1178.95 -0.446504 -0.586347 0
M  V30 12777 H 1181.59 -1.61982 -0.993064 0
M  V30 12778 H 1179.74 -1.74498 -3.47106 0
M  V30 12779 H 1181.42 -4.03947 -2.22766 0
M  V30 12780 H 1179.66 -3.83169 -2.03382 0
M  V30 12781 H 1180.33 -4.1537 -3.63555 0
M  V30 12782 H 1182.81 -2.23075 -3.5125 0
M  V30 12783 H 1181.68 -2.55815 -4.85644 0
M  V30 12784 H 1181.94 -0.903528 -4.32769 0
M  V30 12785 N 1181 1.07532 -1.15215 0
M  V30 12786 C 1182.25 1.79474 -0.920439 0
M  V30 12787 C 1182.56 1.87593 0.553926 0
M  V30 12788 O 1183.77 2.56037 0.903169 0
M  V30 12789 C 1182.23 3.22509 -1.59738 0
M  V30 12790 C 1181.83 3.22596 -3.10863 0
M  V30 12791 C 1183.58 3.99072 -1.44714 0
M  V30 12792 C 1181.48 4.60273 -3.71352 0
M  V30 12793 H 1180.41 0.672625 -0.340722 0
M  V30 12794 H 1183.07 1.2071 -1.38208 0
M  V30 12795 H 1181.45 3.81454 -1.06342 0
M  V30 12796 H 1182.62 2.73306 -3.70999 0
M  V30 12797 H 1180.94 2.5953 -3.25627 0
M  V30 12798 H 1183.53 5.00823 -1.87299 0
M  V30 12799 H 1183.88 4.14428 -0.394386 0
M  V30 12800 H 1184.41 3.46617 -1.95195 0
M  V30 12801 H 1181.15 4.50122 -4.76519 0
M  V30 12802 H 1180.67 5.09809 -3.15998 0
M  V30 12803 H 1182.35 5.29243 -3.7217 0
M  V30 12804 N 1182.48 0.948665 1.2585 0
M  V30 12805 C 1183.73 0.601125 1.93686 0
M  V30 12806 C 1184.06 -0.858779 1.7418 0
M  V30 12807 O 1183.33 -1.61539 1.0833 0
M  V30 12808 C 1183.62 0.95333 3.47252 0
M  V30 12809 C 1183.47 2.46853 3.7601 0
M  V30 12810 C 1184.79 0.474098 4.37539 0
M  V30 12811 H 1181.91 0.219864 0.703441 0
M  V30 12812 H 1184.55 1.18424 1.48579 0
M  V30 12813 H 1182.7 0.457114 3.85801 0
M  V30 12814 H 1184.37 3.03804 3.47132 0
M  V30 12815 H 1182.62 2.9088 3.21825 0
M  V30 12816 H 1183.29 2.66547 4.83381 0
M  V30 12817 H 1185.76 0.899664 4.06258 0
M  V30 12818 H 1184.64 0.749287 5.43762 0
M  V30 12819 H 1184.9 -0.625961 4.37646 0
M  V30 12820 N 1183.96 -1.40369 0.716545 0
M  V30 12821 C 1184.91 -2.3071 0.0645944 0
M  V30 12822 C 1185.88 -1.48239 -0.749294 0
M  V30 12823 O 1187.06 -1.76975 -0.713045 0
M  V30 12824 C 1184.2 -3.34456 -0.850478 0
M  V30 12825 C 1183.31 -4.31992 -0.0259594 0
M  V30 12826 C 1182.45 -5.22806 -0.940599 0
M  V30 12827 C 1181.49 -6.12001 -0.110228 0
M  V30 12828 N 1180.62 -6.9523 -0.979796 0
M  V30 12829 H 1185.46 -2.85896 0.840682 0
M  V30 12830 H 1183 -1.40789 0.426258 0
M  V30 12831 H 1184.96 -3.93177 -1.39528 0
M  V30 12832 H 1183.59 -2.8077 -1.59274 0
M  V30 12833 H 1182.64 -3.75045 0.636036 0
M  V30 12834 H 1183.95 -4.94971 0.616883 0
M  V30 12835 H 1183.11 -5.86463 -1.5539 0
M  V30 12836 H 1181.85 -4.60104 -1.61726 0
M  V30 12837 H 1180.85 -5.47373 0.516001 0
M  V30 12838 H 1182.08 -6.76763 0.562944 0
M  V30 12839 H 1180.02 -6.35115 -1.64209 0
M  V30 12840 H 1179.94 -7.54978 -0.393012 0
M  V30 12841 H 1181.21 -7.63335 -1.57924 0
M  V30 12842 N 1185.44 -0.462799 -1.50652 0
M  V30 12843 C 1186.68 0.0938945 -2.04184 0
M  V30 12844 C 1187.04 1.37726 -1.33774 0
M  V30 12845 O 1188.24 2.01581 -1.77817 0
M  V30 12846 C 1186.51 0.281884 -3.56287 0
M  V30 12847 S 1188.07 0.798326 -4.31477 0
M  V30 12848 H 1184.89 0.0198719 -0.710722 0
M  V30 12849 H 1187.49 -0.62804 -1.85138 0
M  V30 12850 H 1186.2 -0.658084 -4.05089 0
M  V30 12851 H 1185.73 1.03017 -3.79672 0
M  V30 12852 H 1187.74 2.07281 -4.50832 0
M  V30 12853 N 1186.91 1.56388 -0.195085 0
M  V30 12854 C 1188.15 1.99478 0.445855 0
M  V30 12855 C 1188.52 1.0792 1.588 0
M  V30 12856 O 1189.72 1.40246 2.29313 0
M  V30 12857 C 1187.99 3.46032 0.894248 0
M  V30 12858 S 1189.55 4.11149 1.53303 0
M  V30 12859 H 1186.37 0.696558 0.142575 0
M  V30 12860 H 1188.97 1.93213 -0.298149 0
M  V30 12861 H 1187.67 4.10366 0.0529258 0
M  V30 12862 H 1187.2 3.56114 1.67172 0
M  V30 12863 H 1189.22 4.08155 2.82177 0
M  V30 12864 N 1188.39 -0.0785156 1.57404 0
M  V30 12865 C 1189.62 -0.795871 1.91522 0
M  V30 12866 C 1190.04 -1.70665 0.790892 0
M  V30 12867 O 1189.4 -1.79474 -0.25666 0
M  V30 12868 C 1189.45 -1.57121 3.24569 0
M  V30 12869 O 1188.55 -2.6814 3.13328 0
M  V30 12870 H 1187.89 -0.217575 0.627341 0
M  V30 12871 H 1190.42 -0.0487724 2.04542 0
M  V30 12872 H 1190.43 -1.9519 3.5828 0
M  V30 12873 H 1189.11 -0.902909 4.05981 0
M  V30 12874 H 1187.69 -2.32978 2.91163 0
M  V30 12875 N 1189.87 -1.5367 -0.349747 0
M  V30 12876 C 1191.12 -1.71813 -1.08866 0
M  V30 12877 C 1191.47 -0.472299 -1.86513 0
M  V30 12878 O 1190.76 0.534996 -1.83979 0
M  V30 12879 C 1190.96 -2.91753 -2.06434 0
M  V30 12880 C 1190.79 -4.27881 -1.38377 0
M  V30 12881 C 1189.56 -4.92475 -1.13122 0
M  V30 12882 C 1191.76 -5.0783 -0.813198 0
M  V30 12883 N 1189.74 -6.1249 -0.415806 0
M  V30 12884 C 1191.11 -6.19581 -0.228008 0
M  V30 12885 C 1193.16 -4.92762 -0.713436 0
M  V30 12886 C 1191.87 -7.17908 0.447232 0
M  V30 12887 C 1193.89 -5.91377 -0.051947 0
M  V30 12888 C 1193.25 -7.02461 0.522299 0
M  V30 12889 H 1189.35 -0.681804 -0.382971 0
M  V30 12890 H 1191.94 -1.91093 -0.373029 0
M  V30 12891 H 1190.11 -2.73984 -2.75295 0
M  V30 12892 H 1191.84 -2.98644 -2.73118 0
M  V30 12893 H 1188.6 -4.51915 -1.41669 0
M  V30 12894 H 1189.02 -6.76961 -0.0730052 0
M  V30 12895 H 1193.66 -4.07053 -1.14315 0
M  V30 12896 H 1191.38 -8.03197 0.888855 0
M  V30 12897 H 1194.97 -5.81795 0.0245295 0
M  V30 12898 H 1193.85 -7.77459 1.02605 0
M  V30 12899 N 1191.35 0.610423 -1.45298 0
M  V30 12900 C 1192.57 1.40112 -1.52917 0
M  V30 12901 C 1193 1.87404 -0.161696 0
M  V30 12902 O 1192.36 1.59973 0.853135 0
M  V30 12903 C 1192.4 2.58359 -2.51561 0
M  V30 12904 O 1191.51 3.58895 -2.03146 0
M  V30 12905 H 1190.85 0.41841 -0.515586 0
M  V30 12906 H 1193.38 0.743159 -1.90626 0
M  V30 12907 H 1193.39 3.0564 -2.70275 0
M  V30 12908 H 1192.06 2.23286 -3.50879 0
M  V30 12909 H 1190.64 3.18282 -1.94296 0
M  V30 12910 N 1192.83 1.32541 0.852676 0
M  V30 12911 C 1193.79 1.21578 1.94297 0
M  V30 12912 C 1194.79 0.138318 1.60204 0
M  V30 12913 O 1195.98 0.388864 1.69804 0
M  V30 12914 C 1193.11 0.870209 3.29606 0
M  V30 12915 H 1194.3 2.18476 2.05446 0
M  V30 12916 H 1191.86 1.16401 1.0431 0
M  V30 12917 H 1192.59 -0.0968698 3.24155 0
M  V30 12918 H 1192.38 1.64924 3.55728 0
M  V30 12919 H 1193.87 0.817874 4.09513 0
M  V30 12920 N 1194.3 -1.0692 1.15784 0
M  V30 12921 C 1195.58 -1.76367 0.845825 0
M  V30 12922 C 1195.96 -2.00594 -0.657672 0
M  V30 12923 O 1195.31 -1.62794 -1.60345 0
M  V30 12924 C 1195.52 -3.06913 1.66149 0
M  V30 12925 C 1196.87 -3.81181 1.87046 0
M  V30 12926 O 1197.89 -3.16737 1.62961 0
M  V30 12927 O 1196.75 -4.96936 2.27413 0
M  V30 12928 H 1193.84 -0.766095 0.311493 0
M  V30 12929 H 1196.39 -1.13246 1.26386 0
M  V30 12930 H 1195.16 -2.84924 2.68205 0
M  V30 12931 H 1194.79 -3.77767 1.24007 0
M  V30 12932 N 1195.78 -0.955326 -1.25345 0
M  V30 12933 C 1197.03 -0.609278 -1.92697 0
M  V30 12934 C 1197.35 0.856535 -1.75181 0
M  V30 12935 O 1196.62 1.61013 -1.11587 0
M  V30 12936 H 1195.2 -0.22235 -0.713141 0
M  V30 12937 H 1197.86 -1.21372 -1.52496 0
M  V30 12938 H 1196.96 -0.839198 -3.00606 0
M  V30 12939 N 1197.26 1.39987 -0.723979 0
M  V30 12940 C 1198.22 2.29041 -0.0854583 0
M  V30 12941 C 1199.22 1.45777 0.678657 0
M  V30 12942 O 1200.41 1.66588 0.509311 0
M  V30 12943 C 1197.55 3.29115 0.88859 0
M  V30 12944 H 1198.74 2.87006 -0.869903 0
M  V30 12945 H 1196.29 1.48449 -0.489136 0
M  V30 12946 H 1197.03 2.76184 1.69979 0
M  V30 12947 H 1196.81 3.90593 0.343454 0
M  V30 12948 H 1198.3 3.95778 1.33227 0
M  V30 12949 N 1198.74 0.470782 1.50404 0
M  V30 12950 C 1200.16 0.124919 1.5911 0
M  V30 12951 C 1200.36 -1.36855 1.47895 0
M  V30 12952 O 1199.41 -2.1418 1.33728 0
M  V30 12953 C 1200.72 0.674839 2.9303 0
M  V30 12954 C 1202.27 0.638239 3.06424 0
M  V30 12955 C 1202.75 1.1657 4.42917 0
M  V30 12956 N 1204.24 1.1251 4.49328 0
M  V30 12957 C 1204.97 1.50373 5.53331 0
M  V30 12958 N 1204.47 1.95684 6.6459 0
M  V30 12959 N 1206.26 1.41978 5.43874 0
M  V30 12960 H 1198.41 1.44212 1.55938 0
M  V30 12961 H 1200.68 0.596354 0.73693 0
M  V30 12962 H 1200.38 1.72106 3.06712 0
M  V30 12963 H 1200.26 0.118234 3.77015 0
M  V30 12964 H 1202.64 -0.399075 2.92389 0
M  V30 12965 H 1202.72 1.23164 2.24197 0
M  V30 12966 H 1202.37 2.20164 4.57701 0
M  V30 12967 H 1202.3 0.548513 5.23736 0
M  V30 12968 H 1204.79 0.79276 3.69491 0
M  V30 12969 H 1205.1 2.22724 7.40009 0
M  V30 12970 H 1203.45 1.99636 6.65711 0
M  V30 12971 H 1206.64 1.0642 4.55842 0
M  V30 12972 H 1206.81 1.71812 6.24808 0
M  V30 12973 N 1200.22 -1.56282 0.203376 0
M  V30 12974 C 1201.47 -1.96987 -0.433461 0
M  V30 12975 C 1201.78 -1.09344 -1.62183 0
M  V30 12976 O 1202.99 -1.39868 -2.327 0
M  V30 12977 C 1201.44 -3.50374 -0.82257 0
M  V30 12978 C 1201.05 -4.46693 0.341969 0
M  V30 12979 C 1202.79 -3.99831 -1.42603 0
M  V30 12980 C 1200.7 -5.9136 -0.0685608 0
M  V30 12981 H 1199.63 -0.735564 -0.165717 0
M  V30 12982 H 1202.28 -1.81085 0.296708 0
M  V30 12983 H 1200.66 -3.6181 -1.60964 0
M  V30 12984 H 1201.84 -4.46994 1.11952 0
M  V30 12985 H 1200.15 -4.07476 0.857463 0
M  V30 12986 H 1202.75 -5.05398 -1.74577 0
M  V30 12987 H 1203.09 -3.4462 -2.33544 0
M  V30 12988 H 1203.63 -3.91543 -0.702758 0
M  V30 12989 H 1200.36 -6.50515 0.80688 0
M  V30 12990 H 1199.88 -5.94295 -0.810798 0
M  V30 12991 H 1201.56 -6.45053 -0.501525 0
M  V30 12992 N 1201.7 0.070167 -1.57444 0
M  V30 12993 C 1202.63 1.11509 -1.991 0
M  V30 12994 C 1203.61 1.37481 -0.868194 0
M  V30 12995 O 1204.79 1.50827 -1.13064 0
M  V30 12996 C 1201.92 2.45908 -2.3291 0
M  V30 12997 C 1200.96 2.36059 -3.55216 0
M  V30 12998 S 1201.8 1.75316 -5.05989 0
M  V30 12999 C 1202.95 3.11289 -5.43001 0
M  V30 13000 H 1203.19 0.760096 -2.87419 0
M  V30 13001 H 1200.72 0.278756 -1.51863 0
M  V30 13002 H 1202.68 3.23217 -2.53063 0
M  V30 13003 H 1201.34 2.78567 -1.45117 0
M  V30 13004 H 1200.53 3.35176 -3.76395 0
M  V30 13005 H 1200.13 1.66886 -3.34701 0
M  V30 13006 H 1202.42 4.07603 -5.41171 0
M  V30 13007 H 1203.37 2.94888 -6.43775 0
M  V30 13008 H 1203.78 3.11969 -4.70463 0
M  V30 13009 N 1203.17 1.53854 0.341593 0
M  V30 13010 C 1204.42 1.71447 1.08322 0
M  V30 13011 C 1204.75 0.477289 1.88243 0
M  V30 13012 O 1204.03 -0.525695 1.87261 0
M  V30 13013 C 1204.31 2.97917 2.02281 0
M  V30 13014 C 1204.16 4.31847 1.25809 0
M  V30 13015 C 1205.48 3.20065 3.0207 0
M  V30 13016 H 1202.6 0.623847 0.392408 0
M  V30 13017 H 1205.24 1.86527 0.361594 0
M  V30 13018 H 1203.39 2.85191 2.63815 0
M  V30 13019 H 1205.07 4.56427 0.668737 0
M  V30 13020 H 1203.31 4.30169 0.560119 0
M  V30 13021 H 1203.98 5.16522 1.94704 0
M  V30 13022 H 1206.46 3.32135 2.50651 0
M  V30 13023 H 1205.33 4.09947 3.65013 0
M  V30 13024 H 1205.59 2.36452 3.73554 0
M  V30 13025 N 1204.65 -0.602709 1.4562 0
M  V30 13026 C 1205.61 -1.69508 1.54271 0
M  V30 13027 C 1206.61 -1.55171 0.421727 0
M  V30 13028 O 1207.8 -1.60151 0.685375 0
M  V30 13029 C 1204.94 -3.0881 1.44392 0
M  V30 13030 H 1206.13 -1.63203 2.51605 0
M  V30 13031 H 1203.68 -0.818857 1.33133 0
M  V30 13032 H 1204.42 -3.20689 0.482614 0
M  V30 13033 H 1204.2 -3.20625 2.25704 0
M  V30 13034 H 1205.69 -3.8837 1.53488 0
M  V30 13035 N 1206.13 -1.32992 -0.845635 0
M  V30 13036 C 1207.09 -1.22607 -1.9365 0
M  V30 13037 C 1208.09 -0.146812 -1.60128 0
M  V30 13038 O 1209.28 -0.397863 -1.69596 0
M  V30 13039 C 1206.41 -0.887677 -3.2914 0
M  V30 13040 H 1207.61 -2.19563 -2.04285 0
M  V30 13041 H 1205.16 -1.16952 -1.03691 0
M  V30 13042 H 1205.9 0.0796777 -3.24202 0
M  V30 13043 H 1205.68 -1.66808 -3.54849 0
M  V30 13044 H 1207.17 -0.83958 -4.09073 0
M  V30 13045 N 1207.61 1.06304 -1.1635 0
M  V30 13046 C 1208.55 2.13776 -0.869965 0
M  V30 13047 C 1209.52 1.65105 0.181541 0
M  V30 13048 O 1210.71 1.90743 0.0467705 0
M  V30 13049 C 1207.85 3.43034 -0.377077 0
M  V30 13050 C 1206.96 4.0544 -1.4914 0
M  V30 13051 C 1206.1 5.22572 -0.953538 0
M  V30 13052 C 1205.14 5.76961 -2.04407 0
M  V30 13053 N 1204.27 6.85409 -1.52181 0
M  V30 13054 H 1209.11 2.38224 -1.79034 0
M  V30 13055 H 1206.65 1.16882 -0.893136 0
M  V30 13056 H 1208.61 4.17136 -0.0729426 0
M  V30 13057 H 1207.24 3.18804 0.506359 0
M  V30 13058 H 1206.29 3.28886 -1.9115 0
M  V30 13059 H 1207.6 4.41859 -2.31434 0
M  V30 13060 H 1206.76 6.037 -0.602579 0
M  V30 13061 H 1205.5 4.87598 -0.099897 0
M  V30 13062 H 1204.5 4.9447 -2.40373 0
M  V30 13063 H 1205.73 6.13987 -2.90167 0
M  V30 13064 H 1203.67 6.52354 -0.690697 0
M  V30 13065 H 1203.59 7.2077 -2.28092 0
M  V30 13066 H 1204.86 7.70217 -1.19942 0
M  V30 13067 N 1209.09 0.96196 1.24836 0
M  V30 13068 C 1210.03 0.479282 2.27609 0
M  V30 13069 C 1211.03 -0.454224 1.63197 0
M  V30 13070 O 1212.23 -0.330146 1.76946 0
M  V30 13071 H 1208.61 0.13651 0.739506 0
M  V30 13072 H 1210.58 1.35817 2.657 0
M  V30 13073 C 1209.33 -0.220499 3.47 0
M  V30 13074 H 1208.65 0.488694 3.96802 0
M  V30 13075 H 1210.09 -0.522137 4.20773 0
M  V30 13076 C 1208.55 -1.44552 3.04313 0
M  V30 13077 O 1209.08 -2.54287 3.10967 0
M  V30 13078 N 1207.29 -1.3095 2.59423 0
M  V30 13079 H 1206.83 -0.416656 2.54208 0
M  V30 13080 H 1206.79 -2.13029 2.31227 0
M  V30 13081 N 1210.56 -1.39601 0.731392 0
M  V30 13082 C 1211.51 -2.30628 0.0890606 0
M  V30 13083 C 1212.48 -1.49025 -0.73353 0
M  V30 13084 O 1213.67 -1.77722 -0.694234 0
M  V30 13085 C 1210.81 -3.35339 -0.814956 0
M  V30 13086 C 1209.92 -4.31995 0.0198606 0
M  V30 13087 C 1209.05 -5.23774 -0.885095 0
M  V30 13088 C 1208.09 -6.12083 -0.045311 0
M  V30 13089 N 1207.23 -6.9623 -0.906002 0
M  V30 13090 H 1212.07 -2.84988 0.870958 0
M  V30 13091 H 1209.61 -1.40329 0.441166 0
M  V30 13092 H 1211.56 -3.94634 -1.3535 0
M  V30 13093 H 1210.19 -2.82443 -1.56287 0
M  V30 13094 H 1209.25 -3.74349 0.675778 0
M  V30 13095 H 1210.56 -4.94289 0.669346 0
M  V30 13096 H 1209.71 -5.88078 -1.49161 0
M  V30 13097 H 1208.45 -4.61794 -1.56837 0
M  V30 13098 H 1207.46 -5.46795 0.574028 0
M  V30 13099 H 1208.68 -6.76128 0.634692 0
M  V30 13100 H 1206.63 -6.36821 -1.57463 0
M  V30 13101 H 1206.54 -7.55352 -0.312914 0
M  V30 13102 H 1207.81 -7.64967 -1.49819 0
M  V30 13103 N 1212.04 -0.478751 -1.50152 0
M  V30 13104 C 1213.29 0.07531 -2.01559 0
M  V30 13105 C 1213.6 1.40089 -1.36508 0
M  V30 13106 O 1214.81 2.04035 -1.79115 0
M  V30 13107 C 1213.27 0.184714 -3.59426 0
M  V30 13108 C 1212.87 -1.13289 -4.33439 0
M  V30 13109 C 1214.62 0.690326 -4.18849 0
M  V30 13110 C 1212.53 -0.986866 -5.83108 0
M  V30 13111 H 1211.46 0.0319196 -0.753324 0
M  V30 13112 H 1214.11 -0.614809 -1.72894 0
M  V30 13113 H 1212.49 0.938788 -3.84711 0
M  V30 13114 H 1213.66 -1.89852 -4.19872 0
M  V30 13115 H 1211.98 -1.57021 -3.8566 0
M  V30 13116 H 1214.57 0.816733 -5.28426 0
M  V30 13117 H 1214.92 1.68361 -3.80737 0
M  V30 13118 H 1215.45 -0.00657846 -3.97799 0
M  V30 13119 H 1212.19 -1.95375 -6.25707 0
M  V30 13120 H 1211.71 -0.261752 -5.99229 0
M  V30 13121 H 1213.39 -0.656567 -6.4366 0
M  V30 13122 N 1213.52 1.56172 -0.211661 0
M  V30 13123 C 1214.77 1.98039 0.422706 0
M  V30 13124 C 1215.1 1.09904 1.60472 0
M  V30 13125 O 1214.35 0.141771 1.95186 0
M  V30 13126 C 1214.65 3.45636 0.909442 0
M  V30 13127 C 1214.32 4.50613 -0.160982 0
M  V30 13128 C 1212.98 4.79043 -0.455064 0
M  V30 13129 C 1215.33 5.13624 -0.885426 0
M  V30 13130 C 1212.66 5.67771 -1.47828 0
M  V30 13131 C 1215.01 6.03459 -1.8979 0
M  V30 13132 C 1213.67 6.30238 -2.19901 0
M  V30 13133 H 1212.94 0.724676 0.154679 0
M  V30 13134 H 1215.59 1.8894 -0.312106 0
M  V30 13135 H 1213.9 3.51889 1.72283 0
M  V30 13136 H 1215.59 3.75395 1.40995 0
M  V30 13137 H 1212.18 4.28528 0.0783864 0
M  V30 13138 H 1216.37 4.91737 -0.671463 0
M  V30 13139 H 1211.62 5.86787 -1.7173 0
M  V30 13140 H 1215.8 6.51338 -2.46438 0
M  V30 13141 H 1213.42 6.98788 -2.9933 0
M  V30 13142 N 1215 -0.0618163 1.57479 0
M  V30 13143 C 1215.93 -1.07252 2.07411 0
M  V30 13144 C 1216.91 -1.39756 0.969649 0
M  V30 13145 O 1218.09 -1.4921 1.24298 0
M  V30 13146 C 1215.22 -2.38313 2.52635 0
M  V30 13147 C 1214.18 -2.20136 3.67048 0
M  V30 13148 C 1213.5 -3.56668 3.98361 0
M  V30 13149 C 1214.8 -1.61437 4.96725 0
M  V30 13150 H 1216.5 -0.656983 2.92103 0
M  V30 13151 H 1214.04 -0.314579 1.40522 0
M  V30 13152 H 1216 -3.09319 2.86181 0
M  V30 13153 H 1214.72 -2.81865 1.64984 0
M  V30 13154 H 1213.38 -1.51569 3.338 0
M  V30 13155 H 1213.03 -3.97809 3.07826 0
M  V30 13156 H 1212.73 -3.45342 4.75408 0
M  V30 13157 H 1214.25 -4.2909 4.34413 0
M  V30 13158 H 1215.67 -2.2232 5.28438 0
M  V30 13159 H 1214.06 -1.60779 5.78161 0
M  V30 13160 H 1215.13 -0.576795 4.81457 0
M  V30 13161 N 1216.48 -1.54033 -0.333429 0
M  V30 13162 C 1217.72 -1.71765 -1.07252 0
M  V30 13163 C 1218.05 -0.486135 -1.88327 0
M  V30 13164 O 1217.31 0.532135 -1.88326 0
M  V30 13165 C 1217.61 -2.93926 -2.03328 0
M  V30 13166 C 1217.27 -4.29107 -1.38486 0
M  V30 13167 C 1215.93 -4.6586 -1.20532 0
M  V30 13168 C 1218.29 -5.13041 -0.918624 0
M  V30 13169 C 1215.61 -5.84155 -0.545881 0
M  V30 13170 C 1217.97 -6.3201 -0.273055 0
M  V30 13171 C 1216.63 -6.67451 -0.0812815 0
M  V30 13172 H 1215.9 -0.628532 -0.392464 0
M  V30 13173 H 1218.55 -1.88261 -0.350709 0
M  V30 13174 H 1216.85 -2.72075 -2.81926 0
M  V30 13175 H 1218.55 -3.0484 -2.60526 0
M  V30 13176 H 1215.14 -4.00185 -1.5346 0
M  V30 13177 H 1219.32 -4.8517 -1.04515 0
M  V30 13178 H 1214.58 -6.1018 -0.386009 0
M  V30 13179 H 1218.75 -6.96333 0.0962582 0
M  V30 13180 H 1216.38 -7.58973 0.431734 0
M  V30 13181 N 1217.95 0.594978 -1.45938 0
M  V30 13182 C 1219.23 1.35477 -1.41086 0
M  V30 13183 C 1219.61 2.10917 -0.0879512 0
M  V30 13184 O 1218.96 2.08704 0.930323 0
M  V30 13185 C 1219.17 2.29106 -2.63271 0
M  V30 13186 C 1220.52 2.9132 -3.08898 0
M  V30 13187 O 1221.54 2.39423 -2.63733 0
M  V30 13188 O 1220.4 3.85553 -3.87313 0
M  V30 13189 H 1217.49 0.6081 -0.560485 0
M  V30 13190 H 1220.04 0.617016 -1.58085 0
M  V30 13191 H 1218.81 1.72707 -3.51124 0
M  V30 13192 H 1218.44 3.10241 -2.48669 0
M  V30 13193 N 1219.43 1.33438 0.838571 0
M  V30 13194 C 1220.68 1.24259 1.58879 0
M  V30 13195 C 1220.99 -0.189957 1.94675 0
M  V30 13196 O 1222.2 -0.40376 2.68481 0
M  V30 13197 C 1220.66 2.1773 2.86569 0
M  V30 13198 C 1220.26 3.66156 2.58135 0
M  V30 13199 C 1222.01 2.17424 3.64591 0
M  V30 13200 C 1219.92 4.5154 3.81923 0
M  V30 13201 H 1218.85 0.461534 0.59624 0
M  V30 13202 H 1221.5 1.58504 0.924588 0
M  V30 13203 H 1219.88 1.76418 3.54532 0
M  V30 13204 H 1221.05 4.1591 1.98382 0
M  V30 13205 H 1219.37 3.68754 1.93416 0
M  V30 13206 H 1221.96 2.78446 4.56478 0
M  V30 13207 H 1222.31 1.16939 3.99539 0
M  V30 13208 H 1222.84 2.571 3.03553 0
M  V30 13209 H 1219.58 5.52902 3.52107 0
M  V30 13210 H 1219.1 4.06529 4.41015 0
M  V30 13211 H 1220.78 4.65359 4.495 0
M  V30 13212 N 1220.91 -1.05686 1.16912 0
M  V30 13213 C 1221.86 -2.11584 0.849483 0
M  V30 13214 C 1222.84 -1.59959 -0.173774 0
M  V30 13215 O 1224.04 -1.76978 0.0279436 0
M  V30 13216 C 1221.17 -3.41417 0.359079 0
M  V30 13217 C 1220.25 -3.99852 1.41347 0
M  V30 13218 N 1220.64 -4.32317 2.62557 0
M  V30 13219 C 1218.94 -4.27531 1.27017 0
M  V30 13220 C 1219.64 -4.7885 3.30269 0
M  V30 13221 N 1218.62 -4.78664 2.57647 0
M  V30 13222 H 1222.42 -2.34539 1.77112 0
M  V30 13223 H 1219.93 -1.23286 1.05708 0
M  V30 13224 H 1221.93 -4.1675 0.111666 0
M  V30 13225 H 1220.59 -3.19897 -0.556413 0
M  V30 13226 H 1221.6 -4.22472 2.99563 0
M  V30 13227 H 1218.28 -4.15423 0.415924 0
M  V30 13228 H 1219.67 -5.13123 4.33768 0
M  V30 13229 N 1222.39 -0.968567 -1.24324 0
M  V30 13230 C 1223.62 -0.648568 -1.96472 0
M  V30 13231 C 1224.03 0.782168 -1.71836 0
M  V30 13232 O 1223.39 1.5249 -1.00265 0
M  V30 13233 C 1223.44 -0.91482 -3.49733 0
M  V30 13234 O 1223.16 -2.28931 -3.73527 0
M  V30 13235 C 1224.66 -0.609131 -4.39095 0
M  V30 13236 H 1221.88 -0.241921 -0.625872 0
M  V30 13237 H 1224.43 -1.29673 -1.5813 0
M  V30 13238 H 1222.58 -0.31285 -3.86135 0
M  V30 13239 H 1222.99 -2.36998 -4.67902 0
M  V30 13240 H 1224.47 -0.845875 -5.4548 0
M  V30 13241 H 1224.95 0.456625 -4.3682 0
M  V30 13242 H 1225.55 -1.19105 -4.08282 0
M  V30 13243 N 1223.87 1.39211 -0.738786 0
M  V30 13244 C 1225.09 2.05256 -0.297421 0
M  V30 13245 C 1225.52 1.55341 1.06069 0
M  V30 13246 O 1224.87 0.698823 1.67291 0
M  V30 13247 C 1224.92 3.59239 -0.312969 0
M  V30 13248 O 1224.03 4.06448 0.698112 0
M  V30 13249 H 1223.37 0.650245 -0.134454 0
M  V30 13250 H 1225.9 1.78173 -1.00577 0
M  V30 13251 H 1225.91 4.07691 -0.158675 0
M  V30 13252 H 1224.58 3.94931 -1.30394 0
M  V30 13253 H 1223.16 3.69401 0.509643 0
M  V30 13254 N 1225.34 0.486708 1.49896 0
M  V30 13255 C 1226.59 -0.0627279 2.02003 0
M  V30 13256 C 1226.91 -1.38799 1.36967 0
M  V30 13257 O 1226.18 -1.88868 0.520173 0
M  V30 13258 H 1224.76 -0.0261718 0.746541 0
M  V30 13259 H 1227.43 0.640692 1.84068 0
M  V30 13260 H 1226.52 -0.202856 3.1144 0
M  V30 13261 N 1226.82 -1.56058 0.219941 0
M  V30 13262 C 1227.75 -2.2321 -0.685547 0
M  V30 13263 C 1228.73 -1.20328 -1.20229 0
M  V30 13264 O 1229.92 -1.48909 -1.24659 0
M  V30 13265 C 1227.05 -2.91076 -1.89452 0
M  V30 13266 C 1226 -4.00415 -1.51169 0
M  V30 13267 C 1225.33 -4.55569 -2.79931 0
M  V30 13268 C 1226.63 -5.17549 -0.702896 0
M  V30 13269 H 1228.32 -2.99136 -0.125671 0
M  V30 13270 H 1225.87 -1.43879 -0.0590043 0
M  V30 13271 H 1227.82 -3.36744 -2.53341 0
M  V30 13272 H 1226.55 -2.12594 -2.47934 0
M  V30 13273 H 1225.21 -3.55475 -0.896275 0
M  V30 13274 H 1224.85 -3.73819 -3.36553 0
M  V30 13275 H 1224.55 -5.29361 -2.55049 0
M  V30 13276 H 1226.08 -5.03955 -3.44764 0
M  V30 13277 H 1227.49 -5.59608 -1.24544 0
M  V30 13278 H 1225.89 -5.97563 -0.551234 0
M  V30 13279 H 1226.96 -4.84027 0.29083 0
M  V30 13280 N 1228.3 0.053464 -1.57509 0
M  V30 13281 C 1229.23 1.06151 -2.07977 0
M  V30 13282 C 1230.21 1.3924 -0.977047 0
M  V30 13283 O 1231.4 1.48549 -1.25087 0
M  V30 13284 C 1228.53 2.36969 -2.53895 0
M  V30 13285 C 1227.48 2.18186 -3.6821 0
M  V30 13286 C 1226.81 3.54551 -4.00247 0
M  V30 13287 C 1228.11 1.588 -4.97574 0
M  V30 13288 H 1229.8 0.641483 -2.92447 0
M  V30 13289 H 1227.35 0.307122 -1.40687 0
M  V30 13290 H 1229.3 3.07797 -2.87817 0
M  V30 13291 H 1228.02 2.80986 -1.66476 0
M  V30 13292 H 1226.68 1.49796 -3.34599 0
M  V30 13293 H 1226.33 3.96171 -3.09932 0
M  V30 13294 H 1226.03 3.42816 -4.77232 0
M  V30 13295 H 1227.56 4.2678 -4.36682 0
M  V30 13296 H 1228.97 2.19515 -5.29609 0
M  V30 13297 H 1227.37 1.57711 -5.79006 0
M  V30 13298 H 1228.44 0.551254 -4.81756 0
M  V30 13299 N 1229.78 1.54207 0.325255 0
M  V30 13300 C 1231.03 1.71991 1.0613 0
M  V30 13301 C 1231.35 0.495505 1.88599 0
M  V30 13302 O 1230.62 -0.490504 1.8966 0
M  V30 13303 H 1229.2 0.634137 0.394816 0
M  V30 13304 H 1231.86 1.91507 0.362101 0
M  V30 13305 H 1230.96 2.59878 1.72829 0
M  V30 13306 N 1231.26 -0.58723 1.46251 0
M  V30 13307 C 1232.17 -1.72455 1.59048 0
M  V30 13308 C 1233.18 -1.67416 0.47413 0
M  V30 13309 O 1234.36 -1.87406 0.737633 0
M  V30 13310 C 1231.42 -3.08953 1.57318 0
M  V30 13311 C 1230.49 -3.25291 2.80151 0
M  V30 13312 C 1229.72 -4.55277 2.78493 0
M  V30 13313 O 1229.94 -5.38883 1.8698 0
M  V30 13314 O 1228.88 -4.74765 3.69975 0
M  V30 13315 H 1232.7 -1.64606 2.55223 0
M  V30 13316 H 1230.29 -0.753742 1.28993 0
M  V30 13317 H 1232.17 -3.90239 1.59033 0
M  V30 13318 H 1230.84 -3.17249 0.643025 0
M  V30 13319 H 1229.75 -2.43515 2.83991 0
M  V30 13320 H 1231.08 -3.21883 3.7236 0
M  V30 13321 N 1232.74 -1.33881 -0.831482 0
M  V30 13322 C 1233.98 -1.251 -1.58218 0
M  V30 13323 C 1234.3 0.17963 -1.94773 0
M  V30 13324 O 1235.5 0.389516 -2.68691 0
M  V30 13325 C 1233.96 -2.19246 -2.8541 0
M  V30 13326 C 1233.57 -3.6752 -2.5619 0
M  V30 13327 C 1235.31 -2.19355 -3.63433 0
M  V30 13328 C 1233.22 -4.53559 -3.79523 0
M  V30 13329 H 1232.15 -0.46469 -0.593784 0
M  V30 13330 H 1234.8 -1.58992 -0.916169 0
M  V30 13331 H 1233.18 -1.78295 -3.53591 0
M  V30 13332 H 1234.36 -4.16956 -1.96173 0
M  V30 13333 H 1232.67 -3.69774 -1.91458 0
M  V30 13334 H 1235.27 -2.80863 -4.54995 0
M  V30 13335 H 1235.61 -1.19056 -3.98913 0
M  V30 13336 H 1236.14 -2.58706 -3.02185 0
M  V30 13337 H 1232.88 -5.54762 -3.4917 0
M  V30 13338 H 1232.4 -4.08862 -4.38853 0
M  V30 13339 H 1234.08 -4.67736 -4.47025 0
M  V30 13340 N 1234.21 1.05064 -1.1747 0
M  V30 13341 C 1235.16 2.11131 -0.860692 0
M  V30 13342 C 1236.15 1.60049 0.165288 0
M  V30 13343 O 1237.34 1.76961 -0.0373288 0
M  V30 13344 C 1234.47 3.41222 -0.37718 0
M  V30 13345 C 1233.55 3.99097 -1.43466 0
M  V30 13346 N 1233.95 4.30918 -2.64846 0
M  V30 13347 C 1232.24 4.26851 -1.29282 0
M  V30 13348 C 1232.94 4.77092 -3.32804 0
M  V30 13349 N 1231.92 4.77291 -2.60182 0
M  V30 13350 H 1235.72 2.33597 -1.78353 0
M  V30 13351 H 1233.24 1.22724 -1.06361 0
M  V30 13352 H 1235.23 4.16685 -0.133766 0
M  V30 13353 H 1233.89 3.20188 0.53944 0
M  V30 13354 H 1234.9 4.20877 -3.01799 0
M  V30 13355 H 1231.58 4.15197 -0.437949 0
M  V30 13356 H 1232.97 5.10815 -4.36483 0
M  V30 13357 N 1235.69 0.975146 1.23809 0
M  V30 13358 C 1236.92 0.658978 1.96125 0
M  V30 13359 C 1237.33 -0.773044 1.72248 0
M  V30 13360 O 1236.69 -1.51956 1.01072 0
M  V30 13361 C 1236.74 0.933355 3.49243 0
M  V30 13362 O 1236.46 2.30909 3.72307 0
M  V30 13363 C 1237.96 0.632408 4.38766 0
M  V30 13364 H 1235.18 0.245237 0.62458 0
M  V30 13365 H 1237.73 1.3051 1.5744 0
M  V30 13366 H 1235.88 0.333323 3.85963 0
M  V30 13367 H 1236.3 2.39476 4.66638 0
M  V30 13368 H 1237.77 0.874791 5.45024 0
M  V30 13369 H 1238.25 -0.433453 4.37056 0
M  V30 13370 H 1238.85 1.21268 4.07645 0
M  V30 13371 N 1237.17 -1.38817 0.746158 0
M  V30 13372 C 1238.42 -1.99885 0.298425 0
M  V30 13373 C 1238.74 -1.59518 -1.12156 0
M  V30 13374 O 1238.01 -0.848568 -1.76568 0
M  V30 13375 H 1236.59 -0.739247 0.107347 0
M  V30 13376 H 1239.25 -1.69696 0.9586 0
M  V30 13377 H 1238.35 -3.10067 0.355656 0
M  V30 13378 N 1238.65 -0.49465 -1.49636 0
M  V30 13379 C 1239.6 0.306278 -2.25933 0
M  V30 13380 C 1240.58 0.941082 -1.30508 0
M  V30 13381 O 1241.77 0.849732 -1.55269 0
M  V30 13382 C 1238.9 1.3739 -3.14609 0
M  V30 13383 C 1237.99 0.745657 -4.17493 0
M  V30 13384 N 1238.38 -0.147977 -5.05583 0
M  V30 13385 C 1236.68 1.00696 -4.34484 0
M  V30 13386 C 1237.38 -0.506949 -5.79487 0
M  V30 13387 N 1236.35 0.123603 -5.43459 0
M  V30 13388 H 1240.16 -0.381753 -2.9141 0
M  V30 13389 H 1237.67 -0.310311 -1.59408 0
M  V30 13390 H 1239.67 1.96108 -3.67896 0
M  V30 13391 H 1238.33 2.06368 -2.50684 0
M  V30 13392 H 1239.34 -0.518378 -5.15299 0
M  V30 13393 H 1236.02 1.68996 -3.81768 0
M  V30 13394 H 1237.41 -1.23766 -6.60403 0
M  V30 13395 N 1240.13 1.55939 -0.228214 0
M  V30 13396 C 1241.08 2.17223 0.692674 0
M  V30 13397 C 1242.06 1.12252 1.15275 0
M  V30 13398 O 1243.25 1.3822 1.10563 0
M  V30 13399 C 1240.38 2.86084 1.89766 0
M  V30 13400 C 1239.47 3.98288 1.45695 0
M  V30 13401 N 1239.86 5.00515 0.729258 0
M  V30 13402 C 1238.16 4.105 1.74372 0
M  V30 13403 C 1238.86 5.79516 0.503606 0
M  V30 13404 N 1237.83 5.33119 1.06229 0
M  V30 13405 H 1241.63 2.9362 0.128345 0
M  V30 13406 H 1239.15 1.62373 -0.0297445 0
M  V30 13407 H 1241.15 3.28404 2.5682 0
M  V30 13408 H 1239.81 2.11185 2.46639 0
M  V30 13409 H 1240.82 5.16495 0.381261 0
M  V30 13410 H 1237.49 3.46759 2.32518 0
M  V30 13411 H 1238.88 6.71857 -0.0760344 0
M  V30 13412 N 1241.6 -0.0451101 1.57535 0
M  V30 13413 C 1242.83 -0.755068 1.93167 0
M  V30 13414 C 1243.25 -1.68949 0.826915 0
M  V30 13415 O 1242.61 -1.79978 -0.218534 0
M  V30 13416 C 1242.66 -1.50201 3.27829 0
M  V30 13417 O 1241.76 -2.61434 3.18945 0
M  V30 13418 H 1241.11 -0.204219 0.631815 0
M  V30 13419 H 1243.64 -0.00537504 2.04599 0
M  V30 13420 H 1243.65 -1.87547 3.6234 0
M  V30 13421 H 1242.32 -0.816591 4.07805 0
M  V30 13422 H 1240.9 -2.26749 2.96039 0
M  V30 13423 N 1243.08 -1.54377 -0.317073 0
M  V30 13424 C 1244.31 -1.76865 -1.07362 0
M  V30 13425 C 1244.73 -0.520354 -1.81488 0
M  V30 13426 O 1244.08 0.509213 -1.75252 0
M  V30 13427 C 1244.13 -2.96598 -2.06668 0
M  V30 13428 O 1243.85 -4.16602 -1.35552 0
M  V30 13429 C 1245.36 -3.31348 -2.94489 0
M  V30 13430 H 1242.58 -0.590277 -0.319083 0
M  V30 13431 H 1245.12 -2.01284 -0.361227 0
M  V30 13432 H 1243.27 -2.74433 -2.73432 0
M  V30 13433 H 1243.69 -4.83996 -2.02108 0
M  V30 13434 H 1245.16 -4.1841 -3.60051 0
M  V30 13435 H 1245.64 -2.48797 -3.61935 0
M  V30 13436 H 1246.25 -3.55614 -2.33278 0
M  V30 13437 N 1244.56 0.579466 -1.4656 0
M  V30 13438 C 1245.81 1.33379 -1.51304 0
M  V30 13439 C 1246.12 1.94855 -0.170507 0
M  V30 13440 O 1247.33 2.71331 -0.0957704 0
M  V30 13441 C 1245.78 2.41748 -2.66619 0
M  V30 13442 C 1245.39 1.8656 -4.07307 0
M  V30 13443 C 1247.14 3.18502 -2.80636 0
M  V30 13444 C 1245.04 2.92578 -5.13957 0
M  V30 13445 H 1243.97 0.501422 -0.56311 0
M  V30 13446 H 1246.62 0.618025 -1.72779 0
M  V30 13447 H 1245.01 3.16138 -2.3848 0
M  V30 13448 H 1246.18 1.18692 -4.45252 0
M  V30 13449 H 1244.5 1.22464 -3.97984 0
M  V30 13450 H 1247.09 3.9763 -3.57483 0
M  V30 13451 H 1247.44 3.71295 -1.8827 0
M  V30 13452 H 1247.97 2.51219 -3.08437 0
M  V30 13453 H 1244.71 2.44668 -6.08126 0
M  V30 13454 H 1244.23 3.58926 -4.80554 0
M  V30 13455 H 1245.91 3.56471 -5.39942 0
M  V30 13456 N 1246.04 1.3432 0.824371 0
M  V30 13457 C 1246.97 1.21619 1.94271 0
M  V30 13458 C 1247.98 0.143628 1.62165 0
M  V30 13459 O 1249.17 0.395353 1.74067 0
M  V30 13460 C 1246.27 0.846128 3.28167 0
M  V30 13461 C 1245.45 2.01337 3.88307 0
M  V30 13462 C 1244.5 1.62194 5.00579 0
M  V30 13463 O 1243.53 2.33831 5.18953 0
M  V30 13464 N 1244.73 0.535262 5.78027 0
M  V30 13465 H 1247.5 2.17963 2.05699 0
M  V30 13466 H 1245.06 1.27256 1.00088 0
M  V30 13467 H 1247.05 0.566086 4.00721 0
M  V30 13468 H 1245.62 -0.0270764 3.12588 0
M  V30 13469 H 1244.84 2.45823 3.08164 0
M  V30 13470 H 1246.13 2.79404 4.25219 0
M  V30 13471 H 1245.53 -0.0603126 5.65668 0
M  V30 13472 H 1244.08 0.314946 6.51039 0
M  V30 13473 N 1247.52 -1.0444 1.18026 0
M  V30 13474 C 1248.75 -1.80971 0.996642 0
M  V30 13475 C 1249.15 -1.83568 -0.458192 0
M  V30 13476 O 1248.5 -1.26713 -1.33002 0
M  V30 13477 C 1248.56 -3.28051 1.47048 0
M  V30 13478 C 1248.22 -3.49122 2.94895 0
M  V30 13479 C 1249.22 -3.40621 3.92777 0
M  V30 13480 C 1246.91 -3.7584 3.33241 0
M  V30 13481 C 1248.9 -3.58535 5.27002 0
M  V30 13482 C 1246.59 -3.93402 4.6763 0
M  V30 13483 C 1247.58 -3.84749 5.6432 0
M  V30 13484 O 1247.27 -4.01813 6.96277 0
M  V30 13485 H 1247 -0.576873 0.352411 0
M  V30 13486 H 1249.56 -1.32542 1.56913 0
M  V30 13487 H 1247.79 -3.77431 0.841609 0
M  V30 13488 H 1249.48 -3.8613 1.25135 0
M  V30 13489 H 1250.24 -3.19948 3.64497 0
M  V30 13490 H 1246.12 -3.81674 2.58545 0
M  V30 13491 H 1249.67 -3.51698 6.02457 0
M  V30 13492 H 1245.56 -4.13568 4.95613 0
M  V30 13493 H 1246.33 -4.18995 7.03126 0
M  V30 13494 N 1248.99 -0.981699 -1.2329 0
M  V30 13495 C 1250.23 -0.659348 -1.93473 0
M  V30 13496 C 1250.6 0.792616 -1.74876 0
M  V30 13497 O 1251.8 1.22586 -2.3922 0
M  V30 13498 C 1250.07 -1.04065 -3.41914 0
M  V30 13499 S 1251.63 -0.834964 -4.30783 0
M  V30 13500 H 1248.45 -0.241428 -0.668755 0
M  V30 13501 H 1251.05 -1.26161 -1.49344 0
M  V30 13502 H 1249.75 -2.09398 -3.5296 0
M  V30 13503 H 1249.28 -0.429721 -3.91046 0
M  V30 13504 H 1251.3 0.280447 -4.95407 0
M  V30 13505 N 1250.47 1.3842 -0.753509 0
M  V30 13506 C 1251.75 1.94181 -0.235142 0
M  V30 13507 C 1252.13 1.68881 1.26659 0
M  V30 13508 O 1251.48 1.02731 2.04104 0
M  V30 13509 C 1251.69 3.43998 -0.588751 0
M  V30 13510 C 1253.04 4.21044 -0.548352 0
M  V30 13511 O 1254.06 3.52279 -0.52704 0
M  V30 13512 O 1252.92 5.43631 -0.559221 0
M  V30 13513 H 1250.01 0.825536 -0.0491834 0
M  V30 13514 H 1252.56 1.47813 -0.833626 0
M  V30 13515 H 1251.33 3.55921 -1.6259 0
M  V30 13516 H 1250.95 3.97582 0.0377429 0
M  V30 13517 N 1251.95 0.502579 1.49372 0
M  V30 13518 C 1253.2 -0.041381 2.02458 0
M  V30 13519 C 1253.53 -1.36848 1.38213 0
M  V30 13520 O 1252.78 -1.89003 0.507568 0
M  V30 13521 C 1253.08 -0.240835 3.56588 0
M  V30 13522 C 1252.75 1.00846 4.39478 0
M  V30 13523 C 1251.41 1.35091 4.61848 0
M  V30 13524 C 1253.76 1.8388 4.87686 0
M  V30 13525 C 1251.09 2.52318 5.29672 0
M  V30 13526 C 1253.44 3.00262 5.56799 0
M  V30 13527 C 1252.1 3.34885 5.77415 0
M  V30 13528 H 1251.37 -0.0151424 0.740845 0
M  V30 13529 H 1254.02 0.663056 1.79655 0
M  V30 13530 H 1252.33 -1.02781 3.78078 0
M  V30 13531 H 1254.02 -0.676194 3.95258 0
M  V30 13532 H 1250.61 0.731719 4.22308 0
M  V30 13533 H 1254.8 1.58738 4.7023 0
M  V30 13534 H 1250.05 2.79379 5.43836 0
M  V30 13535 H 1254.23 3.64927 5.93128 0
M  V30 13536 H 1251.85 4.25824 6.29744 0
M  V30 13537 N 1253.43 -1.55816 0.23648 0
M  V30 13538 C 1254.65 -2.03534 -0.398575 0
M  V30 13539 C 1255.08 -1.11488 -1.51499 0
M  V30 13540 O 1254.44 -0.105848 -1.80991 0
M  V30 13541 C 1254.48 -3.49356 -0.893467 0
M  V30 13542 O 1253.59 -3.60446 -2.00381 0
M  V30 13543 H 1252.93 -0.658102 -0.0883021 0
M  V30 13544 H 1255.46 -2.01417 0.359488 0
M  V30 13545 H 1255.47 -3.89972 -1.19941 0
M  V30 13546 H 1254.14 -4.1583 -0.0764388 0
M  V30 13547 H 1252.72 -3.31723 -1.70336 0
M  V30 13548 N 1254.91 0.036755 -1.57557 0
M  V30 13549 C 1256.32 0.584324 -1.7732 0
M  V30 13550 C 1256.67 1.76025 -0.86658 0
M  V30 13551 O 1255.79 2.16318 -0.059443 0
M  V30 13552 C 1256.39 1.06679 -3.21566 0
M  V30 13553 C 1254.95 1.55994 -3.42553 0
M  V30 13554 C 1254.09 0.494604 -2.72853 0
M  V30 13555 H 1257.05 -0.189473 -1.57565 0
M  V30 13556 H 1257.07 1.93446 -3.27657 0
M  V30 13557 H 1256.58 0.210727 -3.87527 0
M  V30 13558 H 1254.68 2.43811 -2.81757 0
M  V30 13559 H 1254.79 1.61274 -4.5114 0
M  V30 13560 H 1253.16 0.947865 -2.36406 0
M  V30 13561 H 1253.94 -0.351868 -3.41492 0
M  V30 13562 N 1256.39 1.54543 0.308881 0
M  V30 13563 C 1257.32 1.81309 1.40212 0
M  V30 13564 C 1258.33 0.69568 1.47187 0
M  V30 13565 O 1259.52 0.973034 1.49647 0
M  V30 13566 C 1256.62 1.92901 2.78644 0
M  V30 13567 C 1255.79 3.23222 2.94697 0
M  V30 13568 C 1254.85 3.25329 4.13579 0
M  V30 13569 O 1253.88 3.989 4.06039 0
M  V30 13570 N 1255.08 2.50158 5.23833 0
M  V30 13571 H 1257.84 2.75659 1.1761 0
M  V30 13572 H 1255.41 1.54021 0.498925 0
M  V30 13573 H 1257.4 1.91721 3.56406 0
M  V30 13574 H 1255.97 1.05582 2.9423 0
M  V30 13575 H 1255.19 3.37241 2.04113 0
M  V30 13576 H 1256.48 4.09238 3.02328 0
M  V30 13577 H 1255.87 1.90002 5.32838 0
M  V30 13578 H 1254.43 2.5474 5.99959 0
M  V30 13579 N 1257.86 -0.571685 1.46866 0
M  V30 13580 C 1258.81 -1.70098 1.58649 0
M  V30 13581 C 1259.81 -1.63191 0.45443 0
M  V30 13582 O 1261.01 -1.68551 0.63171 0
M  V30 13583 H 1257.39 -0.56258 0.499007 0
M  V30 13584 H 1259.36 -1.57293 2.53577 0
M  V30 13585 C 1258.11 -3.08475 1.60433 0
M  V30 13586 H 1257.43 -3.14465 2.46884 0
M  V30 13587 H 1258.87 -3.87221 1.7273 0
M  V30 13588 C 1257.33 -3.35231 0.334948 0
M  V30 13589 O 1257.86 -3.97633 -0.570149 0
M  V30 13590 N 1256.06 -2.8977 0.219441 0
M  V30 13591 H 1255.61 -2.39168 0.956891 0
M  V30 13592 H 1255.57 -3.08044 -0.628975 0
M  V30 13593 N 1259.34 -1.34755 -0.817236 0
M  V30 13594 C 1260.29 -1.23351 -1.91751 0
M  V30 13595 C 1261.28 -0.131215 -1.60364 0
M  V30 13596 O 1262.47 -0.361425 -1.73271 0
M  V30 13597 C 1259.6 -0.996932 -3.28506 0
M  V30 13598 C 1258.68 -2.14265 -3.65993 0
M  V30 13599 N 1259.07 -3.39424 -3.75 0
M  V30 13600 C 1257.37 -2.05416 -3.95879 0
M  V30 13601 C 1258.07 -4.14701 -4.07919 0
M  V30 13602 N 1257.05 -3.43349 -4.21441 0
M  V30 13603 H 1260.85 -2.18191 -1.96901 0
M  V30 13604 H 1258.36 -1.27075 -1.01122 0
M  V30 13605 H 1260.36 -0.89613 -4.07155 0
M  V30 13606 H 1259.02 -0.0572789 -3.24649 0
M  V30 13607 H 1260.03 -3.73907 -3.58349 0
M  V30 13608 H 1256.71 -1.19242 -4.0011 0
M  V30 13609 H 1258.1 -5.22808 -4.22044 0
M  V30 13610 N 1260.82 1.03812 -1.18578 0
M  V30 13611 C 1261.75 2.13802 -0.938665 0
M  V30 13612 C 1262.73 1.69643 0.124575 0
M  V30 13613 O 1263.92 1.94179 -0.0285421 0
M  V30 13614 C 1261.05 3.44154 -0.466392 0
M  V30 13615 C 1260 4.01949 -1.47041 0
M  V30 13616 C 1259.33 5.27811 -0.855558 0
M  V30 13617 C 1260.63 4.37827 -2.84789 0
M  V30 13618 H 1262.32 2.34732 -1.85852 0
M  V30 13619 H 1259.87 1.12808 -0.895007 0
M  V30 13620 H 1261.82 4.20463 -0.280856 0
M  V30 13621 H 1260.54 3.22918 0.489041 0
M  V30 13622 H 1259.2 3.27725 -1.64293 0
M  V30 13623 H 1258.85 5.02886 0.107142 0
M  V30 13624 H 1258.55 5.67441 -1.52592 0
M  V30 13625 H 1260.07 6.06795 -0.680609 0
M  V30 13626 H 1261.49 5.05112 -2.71173 0
M  V30 13627 H 1259.88 4.88514 -3.48532 0
M  V30 13628 H 1260.95 3.47541 -3.38147 0
M  V30 13629 N 1262.3 0.988223 1.22768 0
M  V30 13630 C 1263.26 0.539813 2.22752 0
M  V30 13631 C 1264.26 -0.374796 1.56371 0
M  V30 13632 O 1265.45 -0.167402 1.73394 0
M  V30 13633 C 1262.58 -0.215461 3.40218 0
M  V30 13634 H 1263.78 1.42397 2.63938 0
M  V30 13635 H 1261.33 0.774933 1.35737 0
M  V30 13636 H 1262.06 -1.11581 3.045 0
M  V30 13637 H 1261.85 0.441173 3.8961 0
M  V30 13638 H 1263.34 -0.517517 4.14381 0
M  V30 13639 N 1263.78 -1.38018 0.760839 0
M  V30 13640 C 1265.02 -2.00248 0.320716 0
M  V30 13641 C 1265.35 -1.60259 -1.09684 0
M  V30 13642 O 1264.63 -0.843567 -1.75255 0
M  V30 13643 C 1264.91 -3.57254 0.451849 0
M  V30 13644 C 1264.77 -4.07185 1.91103 0
M  V30 13645 C 1266.08 -4.39843 -0.150439 0
M  V30 13646 H 1263.2 -0.727491 0.118007 0
M  V30 13647 H 1265.85 -1.63855 0.961842 0
M  V30 13648 H 1264 -3.88386 -0.0939672 0
M  V30 13649 H 1265.67 -3.86665 2.51571 0
M  V30 13650 H 1263.91 -3.59782 2.42362 0
M  V30 13651 H 1264.58 -5.16262 1.9539 0
M  V30 13652 H 1267.06 -4.14905 0.315145 0
M  V30 13653 H 1265.93 -5.48893 -0.0284853 0
M  V30 13654 H 1266.19 -4.24367 -1.23956 0
M  V30 13655 N 1265.25 -0.510493 -1.49103 0
M  V30 13656 C 1266.5 0.030689 -2.02777 0
M  V30 13657 C 1266.83 1.35765 -1.38858 0
M  V30 13658 O 1266.11 1.87209 -0.527528 0
M  V30 13659 C 1266.39 0.173261 -3.59683 0
M  V30 13660 C 1266.24 -1.17749 -4.34114 0
M  V30 13661 C 1267.56 0.909395 -4.30602 0
M  V30 13662 H 1264.68 0.0096789 -0.736936 0
M  V30 13663 H 1267.32 -0.663746 -1.78029 0
M  V30 13664 H 1265.47 0.764721 -3.80899 0
M  V30 13665 H 1267.15 -1.80856 -4.24369 0
M  V30 13666 H 1265.39 -1.76438 -3.96298 0
M  V30 13667 H 1266.06 -1.03094 -5.42287 0
M  V30 13668 H 1268.54 0.407677 -4.14098 0
M  V30 13669 H 1267.41 0.978012 -5.40117 0
M  V30 13670 H 1267.67 1.9553 -3.96511 0
M  V30 13671 N 1266.73 1.55688 -0.24474 0
M  V30 13672 C 1267.69 2.20014 0.642382 0
M  V30 13673 C 1268.69 1.16877 1.10437 0
M  V30 13674 O 1269.88 1.41972 1.00943 0
M  V30 13675 C 1267.02 2.84198 1.88267 0
M  V30 13676 H 1268.21 2.9979 0.0811937 0
M  V30 13677 H 1265.76 1.56299 0.00480917 0
M  V30 13678 H 1266.5 2.08354 2.48514 0
M  V30 13679 H 1266.28 3.59747 1.55963 0
M  V30 13680 H 1267.77 3.33434 2.5142 0
M  V30 13681 N 1268.21 -0.0283989 1.57574 0
M  V30 13682 C 1269.14 -1.02828 2.09639 0
M  V30 13683 C 1270.12 -1.37668 0.999076 0
M  V30 13684 O 1271.31 -1.4654 1.27435 0
M  V30 13685 C 1268.44 -2.329 2.57633 0
M  V30 13686 C 1267.39 -2.12301 3.71635 0
M  V30 13687 C 1266.72 -3.48138 4.05837 0
M  V30 13688 C 1268.02 -1.50864 5.00037 0
M  V30 13689 H 1269.71 -0.594876 2.93431 0
M  V30 13690 H 1267.26 -0.284701 1.41158 0
M  V30 13691 H 1269.21 -3.03179 2.92678 0
M  V30 13692 H 1267.93 -2.78302 1.70926 0
M  V30 13693 H 1266.59 -1.44454 3.3694 0
M  V30 13694 H 1266.24 -3.9119 3.16195 0
M  V30 13695 H 1265.94 -3.3518 4.82626 0
M  V30 13696 H 1267.46 -4.19779 4.43417 0
M  V30 13697 H 1268.88 -2.11062 5.33035 0
M  V30 13698 H 1267.27 -1.48479 5.81441 0
M  V30 13699 H 1268.34 -0.474541 4.82572 0
M  V30 13700 N 1269.69 -1.54705 -0.300681 0
M  V30 13701 C 1270.91 -1.78318 -1.05913 0
M  V30 13702 C 1271.34 -0.541177 -1.80147 0
M  V30 13703 O 1270.7 0.508291 -1.74029 0
M  V30 13704 C 1270.74 -2.99041 -2.01511 0
M  V30 13705 O 1269.85 -2.72188 -3.09818 0
M  V30 13706 H 1269.19 -0.590197 -0.304242 0
M  V30 13707 H 1271.72 -2.01789 -0.338006 0
M  V30 13708 H 1271.73 -3.2702 -2.43971 0
M  V30 13709 H 1270.4 -3.89098 -1.46886 0
M  V30 13710 H 1268.98 -2.55227 -2.71871 0
M  V30 13711 N 1271.17 0.563888 -1.47167 0
M  V30 13712 C 1272.1 1.68655 -1.55204 0
M  V30 13713 C 1273.11 1.56776 -0.438769 0
M  V30 13714 O 1274.3 1.63856 -0.708059 0
M  V30 13715 C 1271.4 3.07068 -1.43396 0
M  V30 13716 C 1270.57 3.44767 -2.69174 0
M  V30 13717 C 1269.63 4.62316 -2.51298 0
M  V30 13718 O 1268.66 4.67231 -3.2509 0
M  V30 13719 N 1269.86 5.58389 -1.58688 0
M  V30 13720 H 1272.63 1.62209 -2.52009 0
M  V30 13721 H 1270.19 0.750359 -1.43462 0
M  V30 13722 H 1272.18 3.83529 -1.29181 0
M  V30 13723 H 1270.75 3.07777 -0.546997 0
M  V30 13724 H 1269.97 2.57821 -2.98198 0
M  V30 13725 H 1271.26 3.66726 -3.52689 0
M  V30 13726 H 1270.65 5.57169 -0.978737 0
M  V30 13727 H 1269.21 6.34204 -1.50428 0
M  V30 13728 N 1272.64 1.35187 0.810078 0
M  V30 13729 C 1273.87 1.31181 1.59609 0
M  V30 13730 C 1274.28 -0.113556 1.88859 0
M  V30 13731 O 1273.63 -1.07491 1.48968 0
M  V30 13732 C 1273.69 2.04749 2.95496 0
M  V30 13733 C 1273.35 3.53952 2.89079 0
M  V30 13734 C 1274.35 4.48612 2.6276 0
M  V30 13735 C 1272.03 3.96551 3.08306 0
M  V30 13736 C 1274.03 5.83846 2.5574 0
M  V30 13737 C 1271.71 5.31881 3.00909 0
M  V30 13738 C 1272.71 6.2534 2.74661 0
M  V30 13739 O 1272.4 7.58188 2.6722 0
M  V30 13740 H 1272.13 0.452285 0.502408 0
M  V30 13741 H 1274.69 1.78571 1.01497 0
M  V30 13742 H 1272.92 1.51992 3.55577 0
M  V30 13743 H 1274.61 1.93866 3.5661 0
M  V30 13744 H 1275.37 4.1702 2.47628 0
M  V30 13745 H 1271.25 3.24194 3.27749 0
M  V30 13746 H 1274.79 6.56765 2.35172 0
M  V30 13747 H 1270.69 5.63088 3.15598 0
M  V30 13748 H 1271.46 7.68073 2.82853 0
M  V30 13749 N 1274.12 -1.03182 1.19127 0
M  V30 13750 C 1275.36 -1.78089 1.00318 0
M  V30 13751 C 1275.73 -1.86451 -0.458252 0
M  V30 13752 O 1276.93 -2.57653 -0.766061 0
M  V30 13753 C 1275.2 -3.17012 1.6504 0
M  V30 13754 S 1276.76 -4.08146 1.61129 0
M  V30 13755 H 1273.58 -0.613096 0.360048 0
M  V30 13756 H 1276.18 -1.23657 1.51424 0
M  V30 13757 H 1274.88 -3.08541 2.70612 0
M  V30 13758 H 1274.41 -3.7652 1.14001 0
M  V30 13759 H 1276.43 -4.92141 0.633408 0
M  V30 13760 N 1275.6 -0.99472 -1.22242 0
M  V30 13761 C 1276.85 -0.672596 -1.91322 0
M  V30 13762 C 1277.18 0.793542 -1.77247 0
M  V30 13763 O 1276.45 1.57407 -1.14251 0
M  V30 13764 C 1276.74 -1.08155 -3.43474 0
M  V30 13765 C 1276.59 -2.60638 -3.6659 0
M  V30 13766 C 1277.91 -0.636161 -4.35478 0
M  V30 13767 H 1275.03 -0.24582 -0.694796 0
M  V30 13768 H 1277.67 -1.23857 -1.44082 0
M  V30 13769 H 1275.82 -0.599987 -3.83839 0
M  V30 13770 H 1277.49 -3.16479 -3.35617 0
M  V30 13771 H 1275.74 -3.02624 -3.10808 0
M  V30 13772 H 1276.41 -2.84304 -4.73155 0
M  V30 13773 H 1278.88 -1.04982 -4.02639 0
M  V30 13774 H 1277.76 -0.950584 -5.40606 0
M  V30 13775 H 1278.02 0.4631 -4.39668 0
M  V30 13776 N 1277.08 1.37613 -0.768148 0
M  V30 13777 C 1277.99 2.34103 -0.152649 0
M  V30 13778 C 1279 1.6 0.683811 0
M  V30 13779 O 1280.18 1.92112 0.604572 0
M  V30 13780 C 1277.25 3.39164 0.718954 0
M  V30 13781 C 1276.31 4.29092 -0.13355 0
M  V30 13782 C 1275.54 5.29135 0.696547 0
M  V30 13783 O 1275.76 5.36618 1.93383 0
M  V30 13784 O 1274.7 6.01804 0.107652 0
M  V30 13785 H 1278.52 2.88462 -0.949899 0
M  V30 13786 H 1276.11 1.39711 -0.529252 0
M  V30 13787 H 1277.99 4.03454 1.21665 0
M  V30 13788 H 1276.66 2.87137 1.49445 0
M  V30 13789 H 1275.57 3.67914 -0.677528 0
M  V30 13790 H 1276.9 4.84413 -0.872048 0
M  V30 13791 N 1278.56 0.518393 1.4883 0
M  V30 13792 C 1279.49 -0.239685 2.32267 0
M  V30 13793 C 1280.47 -0.94613 1.41359 0
M  V30 13794 O 1281.65 -0.934162 1.70256 0
M  V30 13795 C 1278.78 -1.29411 3.22289 0
M  V30 13796 C 1277.74 -0.706504 4.22129 0
M  V30 13797 C 1277.06 -1.86273 5.01205 0
M  V30 13798 C 1278.36 0.314079 5.21355 0
M  V30 13799 H 1280.06 0.4568 2.95895 0
M  V30 13800 H 1277.6 0.221126 1.42292 0
M  V30 13801 H 1279.56 -1.8323 3.7948 0
M  V30 13802 H 1278.28 -2.02001 2.56638 0
M  V30 13803 H 1276.94 -0.189924 3.66108 0
M  V30 13804 H 1276.59 -2.57674 4.31988 0
M  V30 13805 H 1276.29 -1.47554 5.68772 0
M  V30 13806 H 1277.81 -2.40492 5.61245 0
M  V30 13807 H 1279.22 -0.136604 5.73137 0
M  V30 13808 H 1277.62 0.618026 5.96909 0
M  V30 13809 H 1278.69 1.22394 4.69199 0
M  V30 13810 N 1280.03 -1.55556 0.252993 0
M  V30 13811 C 1281.28 -2.00122 -0.363693 0
M  V30 13812 C 1281.64 -1.13821 -1.55121 0
M  V30 13813 O 1280.93 -0.195137 -1.90604 0
M  V30 13814 C 1281.12 -3.47925 -0.817484 0
M  V30 13815 C 1280.95 -4.48528 0.32452 0
M  V30 13816 C 1279.72 -4.98908 0.801175 0
M  V30 13817 C 1281.92 -5.01196 1.15358 0
M  V30 13818 N 1279.9 -5.83269 1.91495 0
M  V30 13819 C 1281.27 -5.82787 2.11563 0
M  V30 13820 C 1283.33 -4.83484 1.18945 0
M  V30 13821 C 1282.03 -6.48557 3.11073 0
M  V30 13822 C 1284.06 -5.50036 2.17288 0
M  V30 13823 C 1283.42 -6.31421 3.12229 0
M  V30 13824 H 1279.52 -0.775724 -0.0988716 0
M  V30 13825 H 1282.1 -1.91114 0.371964 0
M  V30 13826 H 1280.27 -3.57319 -1.52242 0
M  V30 13827 H 1282 -3.79357 -1.40963 0
M  V30 13828 H 1278.76 -4.72039 0.384265 0
M  V30 13829 H 1279.18 -6.30145 2.47479 0
M  V30 13830 H 1283.83 -4.20187 0.469296 0
M  V30 13831 H 1281.54 -7.11016 3.84034 0
M  V30 13832 H 1285.13 -5.38283 2.20777 0
M  V30 13833 H 1284.01 -6.82009 3.87083 0
M  V30 13834 N 1281.51 0.0200419 -1.57587 0
M  V30 13835 C 1282.46 1.0362 -2.08244 0
M  V30 13836 C 1283.45 1.36872 -0.998119 0
M  V30 13837 O 1284.66 1.35671 -1.18293 0
M  V30 13838 H 1281.04 0.351731 -0.664673 0
M  V30 13839 H 1283.01 0.583226 -2.92645 0
M  V30 13840 C 1281.76 2.32574 -2.58466 0
M  V30 13841 H 1281.08 2.0785 -3.41523 0
M  V30 13842 H 1282.52 3.02 -2.97611 0
M  V30 13843 C 1280.98 3.02167 -1.48986 0
M  V30 13844 O 1281.51 3.92359 -0.861251 0
M  V30 13845 N 1279.71 2.63649 -1.22219 0
M  V30 13846 H 1279.26 1.90389 -1.73521 0
M  V30 13847 H 1279.22 3.10529 -0.491828 0
M  V30 13848 N 1282.99 1.54862 0.292472 0
M  V30 13849 C 1284.22 1.7855 1.04534 0
M  V30 13850 C 1284.63 0.549161 1.80637 0
M  V30 13851 O 1283.99 -0.481268 1.7604 0
M  V30 13852 C 1284.04 2.99849 2.01923 0
M  V30 13853 O 1283.76 4.18706 1.28907 0
M  V30 13854 C 1285.26 3.35991 2.8918 0
M  V30 13855 H 1282.48 0.595279 0.309652 0
M  V30 13856 H 1285.03 2.01834 0.329159 0
M  V30 13857 H 1283.18 2.78749 2.69032 0
M  V30 13858 H 1283.6 4.87151 1.94383 0
M  V30 13859 H 1285.07 4.24085 3.53349 0
M  V30 13860 H 1285.55 2.54524 3.57931 0
M  V30 13861 H 1286.15 3.59281 2.27591 0
M  V30 13862 N 1284.47 -0.556076 1.47464 0
M  V30 13863 C 1285.75 -1.31689 1.44628 0
M  V30 13864 C 1286.13 -2.10609 0.143841 0
M  V30 13865 O 1285.47 -2.11097 -0.874662 0
M  V30 13866 C 1285.68 -2.22045 2.69253 0
M  V30 13867 C 1287.03 -2.83028 3.16513 0
M  V30 13868 O 1288.06 -2.32346 2.69988 0
M  V30 13869 O 1286.91 -3.75148 3.97399 0
M  V30 13870 H 1284.01 -0.593026 0.576411 0
M  V30 13871 H 1286.55 -0.574885 1.59666 0
M  V30 13872 H 1285.33 -1.63337 3.5558 0
M  V30 13873 H 1284.95 -3.03539 2.56807 0
M  V30 13874 N 1285.95 -1.35615 -0.802897 0
M  V30 13875 C 1287.17 -1.32377 -1.59659 0
M  V30 13876 C 1287.6 0.0954235 -1.87858 0
M  V30 13877 O 1286.96 1.06336 -1.46842 0
M  V30 13878 C 1287 -2.13972 -2.90256 0
M  V30 13879 O 1286.11 -1.52296 -3.83249 0
M  V30 13880 H 1285.45 -0.453699 -0.484823 0
M  V30 13881 H 1287.98 -1.78708 -0.996217 0
M  V30 13882 H 1287.99 -2.26061 -3.39647 0
M  V30 13883 H 1286.66 -3.17145 -2.69057 0
M  V30 13884 H 1285.24 -1.49068 -3.41809 0
M  V30 13885 N 1287.43 1.02549 -1.19673 0
M  V30 13886 C 1288.84 1.28271 -0.94967 0
M  V30 13887 C 1289.04 1.97961 0.37599 0
M  V30 13888 O 1288.1 2.26955 1.10668 0
M  V30 13889 C 1289.41 2.12647 -2.12607 0
M  V30 13890 C 1290.96 2.25943 -2.16607 0
M  V30 13891 C 1291.43 3.13693 -3.33708 0
M  V30 13892 N 1292.92 3.21281 -3.33665 0
M  V30 13893 C 1293.66 3.89377 -4.20919 0
M  V30 13894 N 1293.16 4.59675 -5.18334 0
M  V30 13895 N 1294.95 3.85811 -4.08786 0
M  V30 13896 H 1287.1 0.557304 -2.04958 0
M  V30 13897 H 1289.36 0.308531 -0.896389 0
M  V30 13898 H 1289.07 1.68766 -3.08563 0
M  V30 13899 H 1288.94 3.13367 -2.09955 0
M  V30 13900 H 1291.33 2.69053 -1.2122 0
M  V30 13901 H 1291.41 1.24762 -2.23311 0
M  V30 13902 H 1291.05 2.7129 -4.29376 0
M  V30 13903 H 1290.98 4.14941 -3.2424 0
M  V30 13904 H 1293.48 2.71218 -2.63152 0
M  V30 13905 H 1293.79 5.09277 -5.81254 0
M  V30 13906 H 1292.13 4.58529 -5.22279 0
M  V30 13907 H 1295.32 3.30033 -3.31957 0
M  V30 13908 H 1295.5 4.38607 -4.76999 0
M  V30 13909 N 1288.9 1.00119 1.21713 0
M  V30 13910 C 1290.13 0.700172 1.95224 0
M  V30 13911 C 1290.55 -0.730138 1.73351 0
M  V30 13912 O 1289.91 -1.50026 1.01794 0
M  V30 13913 C 1289.96 1.02202 3.45814 0
M  V30 13914 O 1289.06 0.125188 4.1221 0
M  V30 13915 H 1288.4 0.261238 0.610451 0
M  V30 13916 H 1290.93 1.34041 1.54578 0
M  V30 13917 H 1290.94 0.967293 3.96368 0
M  V30 13918 H 1289.62 2.06422 3.61058 0
M  V30 13919 H 1288.2 0.236114 3.72152 0
M  V30 13920 N 1290.38 -1.37203 0.775435 0
M  V30 13921 C 1291.33 -2.30228 0.162388 0
M  V30 13922 C 1292.3 -1.51284 -0.685747 0
M  V30 13923 O 1293.48 -1.7984 -0.637342 0
M  V30 13924 C 1290.62 -3.37762 -0.707858 0
M  V30 13925 C 1289.74 -4.31714 0.157287 0
M  V30 13926 C 1288.87 -5.26325 -0.718012 0
M  V30 13927 C 1287.91 -6.11918 0.149442 0
M  V30 13928 N 1287.05 -6.9876 -0.684043 0
M  V30 13929 H 1291.89 -2.82073 0.961184 0
M  V30 13930 H 1289.42 -1.38854 0.485587 0
M  V30 13931 H 1291.38 -3.98741 -1.22726 0
M  V30 13932 H 1290.01 -2.87273 -1.47222 0
M  V30 13933 H 1289.06 -3.7201 0.794533 0
M  V30 13934 H 1290.38 -4.91909 0.826262 0
M  V30 13935 H 1289.53 -5.92526 -1.30376 0
M  V30 13936 H 1288.27 -4.6655 -1.42066 0
M  V30 13937 H 1287.27 -5.44692 0.747697 0
M  V30 13938 H 1288.5 -6.73766 0.849476 0
M  V30 13939 H 1286.45 -6.41508 -1.37124 0
M  V30 13940 H 1286.36 -7.55965 -0.0724464 0
M  V30 13941 H 1287.63 -7.69346 -1.25407 0
M  V30 13942 N 1291.86 -0.526279 -1.48553 0
M  V30 13943 C 1293.11 0.00918008 -2.02798 0
M  V30 13944 C 1293.44 1.34284 -1.4029 0
M  V30 13945 O 1292.71 1.86639 -0.547355 0
M  V30 13946 C 1293 0.135102 -3.59846 0
M  V30 13947 C 1292.85 -1.22347 -4.32841 0
M  V30 13948 C 1294.17 0.863673 -4.31542 0
M  V30 13949 H 1291.29 0.00186216 -0.736998 0
M  V30 13950 H 1293.93 -0.682591 -1.77315 0
M  V30 13951 H 1292.08 0.724279 -3.81689 0
M  V30 13952 H 1293.75 -1.85347 -4.22427 0
M  V30 13953 H 1291.99 -1.80631 -3.94405 0
M  V30 13954 H 1292.67 -1.08839 -5.41164 0
M  V30 13955 H 1295.14 0.363734 -4.14507 0
M  V30 13956 H 1294.02 0.92067 -5.41124 0
M  V30 13957 H 1294.28 1.91313 -3.98562 0
M  V30 13958 N 1293.34 1.5542 -0.261239 0
M  V30 13959 C 1294.3 2.20683 0.619011 0
M  V30 13960 C 1295.3 1.18042 1.09192 0
M  V30 13961 O 1296.49 1.43035 0.99432 0
M  V30 13962 C 1293.62 2.86179 1.85242 0
M  V30 13963 H 1294.82 2.99859 0.0493924 0
M  V30 13964 H 1292.37 1.56296 -0.0117687 0
M  V30 13965 H 1293.1 2.10978 2.4629 0
M  V30 13966 H 1292.89 3.61381 1.52138 0
M  V30 13967 H 1294.38 3.36081 2.47869 0
M  V30 13968 N 1294.82 -0.0116844 1.57596 0
M  V30 13969 C 1296.09 -0.735344 1.81251 0
M  V30 13970 C 1296.47 -1.92634 0.863446 0
M  V30 13971 O 1295.82 -2.28321 -0.0905028 0
M  V30 13972 C 1296.03 -1.15206 3.29437 0
M  V30 13973 C 1297.38 -1.56078 3.94873 0
M  V30 13974 O 1298.4 -1.24618 3.3369 0
M  V30 13975 O 1297.26 -2.14534 5.0263 0
M  V30 13976 H 1294.36 -0.357044 0.745955 0
M  V30 13977 H 1296.9 0.0128733 1.69695 0
M  V30 13978 H 1295.67 -0.302619 3.90128 0
M  V30 13979 H 1295.3 -1.95975 3.45947 0
M  V30 13980 N 1296.29 -1.55015 -0.284256 0
M  V30 13981 C 1297.53 -1.76836 -1.02511 0
M  V30 13982 C 1297.9 -0.551675 -1.83904 0
M  V30 13983 O 1299.1 -0.647919 -2.60874 0
M  V30 13984 C 1297.37 -3.0312 -1.89348 0
M  V30 13985 S 1298.93 -3.46013 -2.69852 0
M  V30 13986 H 1295.75 -0.621436 -0.345453 0
M  V30 13987 H 1298.35 -1.93235 -0.296708 0
M  V30 13988 H 1297.05 -3.89778 -1.28458 0
M  V30 13989 H 1296.58 -2.89355 -2.66528 0
M  V30 13990 H 1298.6 -3.044 -3.91861 0
M  V30 13991 N 1297.77 0.548248 -1.47757 0
M  V30 13992 C 1299.19 0.875048 -1.33473 0
M  V30 13993 C 1299.39 1.98747 -0.331952 0
M  V30 13994 O 1298.44 2.51226 0.253348 0
M  V30 13995 C 1299.76 1.25982 -2.73037 0
M  V30 13996 C 1301.3 1.37074 -2.81389 0
M  V30 13997 C 1301.78 1.78902 -4.21613 0
M  V30 13998 N 1303.27 1.86037 -4.24198 0
M  V30 13999 C 1304.01 2.1975 -5.2962 0
M  V30 14000 N 1303.5 2.52013 -6.45338 0
M  V30 14001 N 1305.29 2.206 -5.17003 0
M  V30 14002 H 1297.45 -0.186033 -2.11584 0
M  V30 14003 H 1299.71 -0.0205687 -0.947777 0
M  V30 14004 H 1299.41 0.516188 -3.47891 0
M  V30 14005 H 1299.29 2.21402 -3.05387 0
M  V30 14006 H 1301.68 2.10517 -2.06801 0
M  V30 14007 H 1301.76 0.398193 -2.52682 0
M  V30 14008 H 1301.4 1.06026 -4.9671 0
M  V30 14009 H 1301.33 2.77176 -4.47751 0
M  V30 14010 H 1303.82 1.63455 -3.40721 0
M  V30 14011 H 1304.13 2.7679 -7.21531 0
M  V30 14012 H 1302.48 2.49573 -6.48643 0
M  V30 14013 H 1305.67 1.9484 -4.25623 0
M  V30 14014 H 1305.84 2.46543 -5.99267 0
M  V30 14015 N 1299.25 1.36039 0.795694 0
M  V30 14016 C 1300.5 1.29663 1.55023 0
M  V30 14017 C 1300.82 -0.125588 1.94595 0
M  V30 14018 O 1300.09 -1.06447 1.64456 0
M  V30 14019 H 1298.67 0.476962 0.574906 0
M  V30 14020 H 1301.33 1.70265 0.948471 0
M  V30 14021 H 1300.43 1.91982 2.46068 0
M  V30 14022 N 1300.73 -1.01913 1.20215 0
M  V30 14023 C 1301.68 -2.08774 0.916367 0
M  V30 14024 C 1302.66 -1.60431 -0.122796 0
M  V30 14025 O 1303.85 -1.76799 0.0842336 0
M  V30 14026 C 1300.98 -3.40102 0.467517 0
M  V30 14027 C 1300.07 -3.95153 1.53997 0
M  V30 14028 N 1300.46 -4.23745 2.76178 0
M  V30 14029 C 1298.76 -4.23274 1.40554 0
M  V30 14030 C 1299.46 -4.681 3.45336 0
M  V30 14031 N 1298.44 -4.70224 2.72745 0
M  V30 14032 H 1302.24 -2.28786 1.84484 0
M  V30 14033 H 1299.75 -1.19861 1.09577 0
M  V30 14034 H 1301.75 -4.16184 0.244195 0
M  V30 14035 H 1300.41 -3.21505 -0.454358 0
M  V30 14036 H 1301.42 -4.12728 3.12852 0
M  V30 14037 H 1298.1 -4.1389 0.547877 0
M  V30 14038 H 1299.49 -4.99063 4.49873 0
M  V30 14039 N 1302.21 -1.00763 -1.2118 0
M  V30 14040 C 1303.14 -0.590493 -2.2591 0
M  V30 14041 C 1304.12 0.390002 -1.65569 0
M  V30 14042 O 1305.3 0.277406 -1.92208 0
M  V30 14043 C 1302.43 0.0810388 -3.47205 0
M  V30 14044 C 1301.39 -0.81951 -4.20081 0
M  V30 14045 C 1300.71 -0.014244 -5.34698 0
M  V30 14046 C 1302.01 -2.12336 -4.7719 0
M  V30 14047 H 1303.71 -1.46595 -2.61056 0
M  V30 14048 H 1301.25 -0.706321 -1.25487 0
M  V30 14049 H 1303.21 0.384355 -4.19644 0
M  V30 14050 H 1301.93 0.991145 -3.11197 0
M  V30 14051 H 1300.59 -1.10669 -3.49497 0
M  V30 14052 H 1300.24 0.897233 -4.94933 0
M  V30 14053 H 1299.94 -0.613883 -5.84384 0
M  V30 14054 H 1301.46 0.282827 -6.09945 0
M  V30 14055 H 1302.87 -1.88301 -5.41494 0
M  V30 14056 H 1301.27 -2.67308 -5.37277 0
M  V30 14057 H 1302.34 -2.79238 -3.96427 0
M  V30 14058 N 1303.68 1.3679 -0.7827 0
M  V30 14059 C 1304.91 2.04206 -0.362571 0
M  V30 14060 C 1305.33 1.58637 1.01074 0
M  V30 14061 O 1304.69 0.751692 1.64983 0
M  V30 14062 C 1304.74 3.58062 -0.4271 0
M  V30 14063 O 1303.84 4.08463 0.56845 0
M  V30 14064 H 1303.19 0.645638 -0.155073 0
M  V30 14065 H 1305.72 1.74883 -1.06194 0
M  V30 14066 H 1305.73 4.0698 -0.288298 0
M  V30 14067 H 1304.4 3.90582 -1.42893 0
M  V30 14068 H 1302.98 3.70835 0.391863 0
M  V30 14069 N 1305.16 0.53415 1.48272 0
M  V30 14070 C 1306.41 0.00971554 2.03398 0
M  V30 14071 C 1306.76 -1.316 1.40353 0
M  V30 14072 O 1306.06 -1.83786 0.541589 0
M  V30 14073 C 1306.25 -0.165144 3.57018 0
M  V30 14074 C 1306.08 1.14208 4.34956 0
M  V30 14075 C 1304.85 1.70309 4.75734 0
M  V30 14076 C 1307.05 2.05371 4.71516 0
M  V30 14077 N 1305.03 2.95276 5.38224 0
M  V30 14078 C 1306.4 3.14915 5.34068 0
M  V30 14079 C 1308.46 2.05647 4.53447 0
M  V30 14080 C 1307.16 4.24804 5.8046 0
M  V30 14081 C 1309.18 3.14533 5.00823 0
M  V30 14082 C 1308.55 4.22795 5.63404 0
M  V30 14083 H 1304.65 0.0451562 0.780695 0
M  V30 14084 H 1307.23 0.71635 1.81043 0
M  V30 14085 H 1305.4 -0.840869 3.79189 0
M  V30 14086 H 1307.13 -0.68956 3.98782 0
M  V30 14087 H 1303.89 1.24395 4.56971 0
M  V30 14088 H 1304.31 3.58911 5.74031 0
M  V30 14089 H 1308.95 1.23239 4.0444 0
M  V30 14090 H 1306.67 5.07987 6.2847 0
M  V30 14091 H 1310.26 3.15806 4.88629 0
M  V30 14092 H 1309.14 5.05661 5.99397 0
M  V30 14093 N 1306.64 -1.55279 0.269478 0
M  V30 14094 C 1307.89 -1.99767 -0.34943 0
M  V30 14095 C 1308.22 -1.15762 -1.55926 0
M  V30 14096 O 1307.49 -0.22633 -1.93179 0
M  V30 14097 C 1307.78 -3.52474 -0.73716 0
M  V30 14098 C 1307.63 -4.47236 0.479621 0
M  V30 14099 C 1308.95 -4.10924 -1.57573 0
M  V30 14100 H 1306.07 -0.72623 -0.125535 0
M  V30 14101 H 1308.71 -1.86257 0.375298 0
M  V30 14102 H 1306.86 -3.64118 -1.35464 0
M  V30 14103 H 1308.53 -4.47543 1.11816 0
M  V30 14104 H 1306.78 -4.19127 1.11871 0
M  V30 14105 H 1307.45 -5.51754 0.164653 0
M  V30 14106 H 1309.92 -4.02522 -1.05429 0
M  V30 14107 H 1308.8 -5.17995 -1.81584 0
M  V30 14108 H 1309.06 -3.60798 -2.55495 0
M  V30 14109 N 1308.12 0.00332656 -1.576 0
M  V30 14110 C 1309.07 1.00425 -2.04692 0
M  V30 14111 C 1310.05 1.30514 -0.941011 0
M  V30 14112 O 1311.24 1.29667 -1.2048 0
M  V30 14113 C 1308.37 2.29731 -2.55105 0
M  V30 14114 C 1307.46 2.02621 -3.72566 0
M  V30 14115 N 1307.85 1.45657 -4.84373 0
M  V30 14116 C 1306.15 2.3278 -3.80433 0
M  V30 14117 C 1306.85 1.34942 -5.65832 0
M  V30 14118 N 1305.83 1.83389 -5.11732 0
M  V30 14119 H 1309.63 0.558262 -2.88549 0
M  V30 14120 H 1307.14 0.209094 -1.61048 0
M  V30 14121 H 1309.14 3.02274 -2.87116 0
M  V30 14122 H 1307.8 2.74985 -1.72665 0
M  V30 14123 H 1308.81 1.13582 -5.05291 0
M  V30 14124 H 1305.49 2.80932 -3.08842 0
M  V30 14125 H 1306.88 0.911707 -6.65686 0
M  V30 14126 N 1309.6 1.55164 0.276031 0
M  V30 14127 C 1310.84 1.7528 1.00604 0
M  V30 14128 C 1311.17 0.555256 1.86928 0
M  V30 14129 O 1310.44 -0.429917 1.91124 0
M  V30 14130 H 1309.02 0.646377 0.374441 0
M  V30 14131 H 1311.68 1.92562 0.300992 0
M  V30 14132 H 1310.77 2.65245 1.64473 0
M  V30 14133 N 1311.07 -0.540404 1.48045 0
M  V30 14134 C 1312.32 -1.2987 1.55762 0
M  V30 14135 C 1312.65 -1.92877 0.226307 0
M  V30 14136 O 1311.93 -1.7875 -0.766727 0
M  V30 14137 C 1312.21 -2.39602 2.68817 0
M  V30 14138 C 1312.06 -1.81354 4.1162 0
M  V30 14139 C 1313.38 -3.41434 2.77688 0
M  V30 14140 H 1310.5 -0.47083 0.566999 0
M  V30 14141 H 1313.14 -0.603081 1.80175 0
M  V30 14142 H 1311.29 -2.98936 2.48132 0
M  V30 14143 H 1312.97 -1.26151 4.43716 0
M  V30 14144 H 1311.21 -1.1194 4.19108 0
M  V30 14145 H 1311.88 -2.60758 4.86528 0
M  V30 14146 H 1314.36 -2.92042 2.96396 0
M  V30 14147 H 1313.23 -4.15621 3.5854 0
M  V30 14148 H 1313.49 -4.01336 1.85422 0
M  V30 14149 N 1312.55 -1.36459 -0.788468 0
M  V30 14150 C 1313.49 -1.25222 -1.90774 0
M  V30 14151 C 1314.46 -0.136188 -1.62029 0
M  V30 14152 O 1315.65 -0.307486 -1.85975 0
M  V30 14153 C 1312.77 -0.932287 -3.25616 0
M  V30 14154 C 1311.82 -2.0629 -3.73292 0
M  V30 14155 S 1312.65 -3.68084 -3.8894 0
M  V30 14156 C 1313.81 -3.38206 -5.26657 0
M  V30 14157 H 1314.04 -2.19959 -2.00013 0
M  V30 14158 H 1311.58 -1.21886 -0.947801 0
M  V30 14159 H 1313.53 -0.754514 -4.03506 0
M  V30 14160 H 1312.19 -0.00268413 -3.141 0
M  V30 14161 H 1311.39 -1.79363 -4.71004 0
M  V30 14162 H 1310.99 -2.19994 -3.02454 0
M  V30 14163 H 1313.28 -2.92158 -6.11269 0
M  V30 14164 H 1314.22 -4.35185 -5.58587 0
M  V30 14165 H 1314.63 -2.73531 -4.93802 0
M  V30 14166 N 1314.03 1.01274 -1.20754 0
M  V30 14167 C 1315.28 1.74932 -1.02005 0
M  V30 14168 C 1315.61 1.89285 0.447372 0
M  V30 14169 O 1314.86 1.41838 1.34835 0
M  V30 14170 C 1315.16 3.16862 -1.65329 0
M  V30 14171 C 1314.83 3.22476 -3.15151 0
M  V30 14172 C 1313.49 3.23715 -3.56036 0
M  V30 14173 C 1315.84 3.20332 -4.11141 0
M  V30 14174 C 1313.17 3.20487 -4.91431 0
M  V30 14175 C 1315.52 3.18646 -5.46487 0
M  V30 14176 C 1314.18 3.18191 -5.8678 0
M  V30 14177 H 1313.45 0.640121 -0.373264 0
M  V30 14178 H 1316.1 1.18751 -1.50234 0
M  V30 14179 H 1314.41 3.76225 -1.09372 0
M  V30 14180 H 1316.1 3.72556 -1.48333 0
M  V30 14181 H 1312.69 3.22249 -2.82584 0
M  V30 14182 H 1316.88 3.18541 -3.80585 0
M  V30 14183 H 1312.13 3.18468 -5.21908 0
M  V30 14184 H 1316.31 3.1594 -6.20609 0
M  V30 14185 H 1313.93 3.15443 -6.91664 0
M  V30 14186 N 1315.51 1.01404 1.20644 0
M  V30 14187 C 1316.73 0.720839 1.9447 0
M  V30 14188 C 1317.16 -0.711711 1.74116 0
M  V30 14189 O 1316.52 -1.48938 1.03379 0
M  V30 14190 C 1316.57 1.05864 3.4471 0
M  V30 14191 O 1315.67 0.168901 4.12054 0
M  V30 14192 H 1315.01 0.267698 0.607646 0
M  V30 14193 H 1317.54 1.35672 1.53147 0
M  V30 14194 H 1317.55 1.00928 3.9532 0
M  V30 14195 H 1316.23 2.1024 3.58848 0
M  V30 14196 H 1314.8 0.275572 3.7188 0
M  V30 14197 N 1316.99 -1.36373 0.789944 0
M  V30 14198 C 1318.4 -1.81783 0.425677 0
M  V30 14199 C 1318.75 -1.65711 -1.05045 0
M  V30 14200 O 1317.87 -1.17835 -1.81505 0
M  V30 14201 C 1318.47 -3.3003 0.765866 0
M  V30 14202 C 1317.03 -3.73647 0.454421 0
M  V30 14203 C 1316.18 -2.58632 1.00023 0
M  V30 14204 H 1319.13 -1.24587 0.983044 0
M  V30 14205 H 1319.15 -3.80457 0.0571624 0
M  V30 14206 H 1318.66 -3.41696 1.84026 0
M  V30 14207 H 1316.76 -3.67541 -0.611918 0
M  V30 14208 H 1316.87 -4.69066 0.975401 0
M  V30 14209 H 1315.24 -2.51156 0.423434 0
M  V30 14210 H 1316.02 -2.73083 2.0804 0
M  V30 14211 N 1318.47 -0.542005 -1.47987 0
M  V30 14212 C 1319.74 0.0526494 -1.95529 0
M  V30 14213 C 1320.12 1.50092 -1.48444 0
M  V30 14214 O 1319.47 2.16981 -0.716347 0
M  V30 14215 C 1319.68 -0.0770524 -3.48915 0
M  V30 14216 C 1321.03 0.0760849 -4.24532 0
M  V30 14217 O 1322.05 -0.00384644 -3.562 0
M  V30 14218 O 1320.91 0.245406 -5.45949 0
M  V30 14219 H 1318.01 0.0726163 -0.823806 0
M  V30 14220 H 1320.55 -0.607454 -1.58455 0
M  V30 14221 H 1319.32 -1.08544 -3.75944 0
M  V30 14222 H 1318.95 0.621357 -3.92715 0
M  V30 14223 N 1319.94 1.55134 -0.277709 0
M  V30 14224 C 1321.19 1.99259 0.337662 0
M  V30 14225 C 1321.51 1.16755 1.56183 0
M  V30 14226 O 1320.78 0.257707 1.94198 0
M  V30 14227 H 1319.36 0.735995 0.127751 0
M  V30 14228 H 1322.02 1.91087 -0.383646 0
M  V30 14229 H 1321.12 3.05763 0.625747 0
M  V30 14230 N 1321.42 0.00503138 1.57599 0
M  V30 14231 C 1322.65 -0.693231 1.95471 0
M  V30 14232 C 1323.07 -1.66233 0.880246 0
M  V30 14233 O 1322.43 -1.80582 -0.161164 0
M  V30 14234 C 1322.48 -1.39696 3.32442 0
M  V30 14235 O 1321.58 -2.51154 3.27101 0
M  V30 14236 H 1320.92 -0.184015 0.637992 0
M  V30 14237 H 1323.45 0.0597194 2.04513 0
M  V30 14238 H 1323.46 -1.75924 3.68123 0
M  V30 14239 H 1322.14 -0.686438 4.10196 0
M  V30 14240 H 1320.71 -2.17216 3.03103 0
M  V30 14241 N 1322.9 -1.55308 -0.267798 0
M  V30 14242 C 1324.12 -1.80524 -1.02107 0
M  V30 14243 C 1324.55 -0.579268 -1.78958 0
M  V30 14244 O 1323.91 0.471262 -1.75068 0
M  V30 14245 C 1323.96 -3.03248 -1.95123 0
M  V30 14246 O 1323.06 -2.78699 -3.03975 0
M  V30 14247 H 1322.4 -0.596518 -0.291655 0
M  V30 14248 H 1324.93 -2.0246 -0.295128 0
M  V30 14249 H 1324.94 -3.32121 -2.3698 0
M  V30 14250 H 1323.62 -3.92126 -1.386 0
M  V30 14251 H 1322.19 -2.60936 -2.66396 0
M  V30 14252 N 1324.38 0.532545 -1.4833 0
M  V30 14253 C 1325.62 1.28851 -1.56217 0
M  V30 14254 C 1325.95 1.93076 -0.234967 0
M  V30 14255 O 1325.21 1.79722 0.774508 0
M  V30 14256 C 1325.51 2.40117 -2.64724 0
M  V30 14257 C 1325.17 1.93562 -4.0724 0
M  V30 14258 C 1323.83 1.80583 -4.46031 0
M  V30 14259 C 1326.19 1.58349 -4.96563 0
M  V30 14260 C 1323.51 1.30722 -5.71952 0
M  V30 14261 C 1325.87 1.09951 -6.22972 0
M  V30 14262 C 1324.53 0.955866 -6.60621 0
M  V30 14263 H 1323.8 0.4715 -0.571637 0
M  V30 14264 H 1326.45 0.594564 -1.82036 0
M  V30 14265 H 1324.75 3.15171 -2.32754 0
M  V30 14266 H 1326.45 2.98252 -2.68042 0
M  V30 14267 H 1323.04 2.04614 -3.76605 0
M  V30 14268 H 1327.22 1.67237 -4.67274 0
M  V30 14269 H 1322.48 1.18286 -5.99849 0
M  V30 14270 H 1326.65 0.817736 -6.91582 0
M  V30 14271 H 1324.28 0.567302 -7.5808 0
M  V30 14272 N 1325.86 1.36875 0.78122 0
M  V30 14273 C 1326.79 1.34559 1.9083 0
M  V30 14274 C 1327.77 0.215713 1.68727 0
M  V30 14275 O 1328.95 0.41462 1.89722 0
M  V30 14276 C 1326.08 1.14233 3.27976 0
M  V30 14277 C 1325.04 2.24132 3.64621 0
M  V30 14278 C 1324.36 1.8894 5.00206 0
M  V30 14279 C 1325.66 3.66266 3.72353 0
M  V30 14280 H 1327.36 2.28871 1.93025 0
M  V30 14281 H 1324.9 1.10171 0.927275 0
M  V30 14282 H 1326.85 1.11246 4.06451 0
M  V30 14283 H 1325.58 0.163747 3.26189 0
M  V30 14284 H 1324.24 2.26259 2.88448 0
M  V30 14285 H 1323.89 0.896351 4.94949 0
M  V30 14286 H 1323.59 2.62525 5.25694 0
M  V30 14287 H 1325.11 1.87523 5.81092 0
M  V30 14288 H 1326.52 3.66321 4.41001 0
M  V30 14289 H 1324.92 4.38825 4.09332 0
M  V30 14290 H 1325.99 4.00578 2.7325 0
M  V30 14291 N 1327.33 -1.00632 1.21289 0
M  V30 14292 C 1328.56 -1.77967 1.05524 0
M  V30 14293 C 1328.98 -1.84621 -0.395023 0
M  V30 14294 O 1328.33 -1.30664 -1.27409 0
M  V30 14295 C 1328.38 -3.21939 1.64432 0
M  V30 14296 O 1328.11 -3.15669 3.03784 0
M  V30 14297 C 1329.61 -4.1578 1.5376 0
M  V30 14298 H 1326.83 -0.559341 0.370646 0
M  V30 14299 H 1329.37 -1.26604 1.60598 0
M  V30 14300 H 1327.53 -3.70415 1.13453 0
M  V30 14301 H 1327.94 -4.06112 3.31924 0
M  V30 14302 H 1329.41 -5.14602 1.99722 0
M  V30 14303 H 1329.89 -4.36438 0.491811 0
M  V30 14304 H 1330.5 -3.73192 2.0398 0
M  V30 14305 N 1328.81 -1.02043 -1.20104 0
M  V30 14306 C 1330.04 -0.731142 -1.94085 0
M  V30 14307 C 1330.46 0.702467 -1.74491 0
M  V30 14308 O 1329.82 1.48387 -1.04168 0
M  V30 14309 C 1329.87 -1.07691 -3.44144 0
M  V30 14310 O 1328.97 -0.190751 -4.11959 0
M  V30 14311 H 1328.31 -0.270917 -0.606218 0
M  V30 14312 H 1330.84 -1.36483 -1.52426 0
M  V30 14313 H 1330.85 -1.03023 -3.94779 0
M  V30 14314 H 1329.53 -2.1214 -3.57728 0
M  V30 14315 H 1328.1 -0.29529 -3.71729 0
M  V30 14316 N 1330.29 1.35952 -0.797165 0
M  V30 14317 C 1331.52 2.0381 -0.38421 0
M  V30 14318 C 1331.94 1.597 0.993854 0
M  V30 14319 O 1331.3 0.769148 1.64176 0
M  V30 14320 C 1331.35 3.57589 -0.465054 0
M  V30 14321 O 1330.45 4.09043 0.525095 0
M  V30 14322 H 1329.79 0.643957 -0.161912 0
M  V30 14323 H 1332.32 1.73746 -1.08043 0
M  V30 14324 H 1332.33 4.06651 -0.331448 0
M  V30 14325 H 1331.01 3.89045 -1.47027 0
M  V30 14326 H 1329.58 3.7123 0.352509 0
M  V30 14327 N 1331.77 0.549846 1.47697 0
M  V30 14328 C 1333.05 -0.0422793 1.95554 0
M  V30 14329 C 1333.43 -1.49303 1.49238 0
M  V30 14330 O 1332.77 -2.16598 0.727844 0
M  V30 14331 C 1332.98 0.0955552 3.48869 0
M  V30 14332 C 1334.33 -0.0535698 4.24566 0
M  V30 14333 O 1335.36 0.0227365 3.56193 0
M  V30 14334 O 1334.21 -0.21645 5.46071 0
M  V30 14335 H 1331.31 -0.0682465 0.824179 0
M  V30 14336 H 1333.85 0.615849 1.58131 0
M  V30 14337 H 1332.63 1.10536 3.75363 0
M  V30 14338 H 1332.25 -0.600522 3.93039 0
M  V30 14339 N 1333.25 -1.54984 0.285932 0
M  V30 14340 C 1334.52 -1.91872 -0.380083 0
M  V30 14341 C 1334.9 -1.21146 -1.72878 0
M  V30 14342 O 1334.25 -0.341999 -2.25926 0
M  V30 14343 C 1334.46 -3.45258 -0.509667 0
M  V30 14344 C 1335.81 -4.17232 -0.787549 0
M  V30 14345 O 1336.83 -3.51211 -0.594062 0
M  V30 14346 O 1335.69 -5.34085 -1.15826 0
M  V30 14347 H 1332.79 -0.799931 -0.209856 0
M  V30 14348 H 1335.33 -1.66403 0.332882 0
M  V30 14349 H 1334.1 -3.88829 0.439049 0
M  V30 14350 H 1333.73 -3.76715 -1.27168 0
M  V30 14351 N 1334.72 -0.0133892 -1.57594 0
M  V30 14352 C 1335.66 1.00211 -2.06132 0
M  V30 14353 C 1336.67 1.29869 -0.98173 0
M  V30 14354 O 1337.86 1.2661 -1.25826 0
M  V30 14355 C 1334.96 2.33354 -2.45763 0
M  V30 14356 C 1334.13 2.22441 -3.76615 0
M  V30 14357 C 1333.19 3.38385 -4.02967 0
M  V30 14358 O 1332.22 3.15973 -4.73445 0
M  V30 14359 N 1333.42 4.61672 -3.51908 0
M  V30 14360 H 1336.18 0.588079 -2.93874 0
M  V30 14361 H 1333.74 0.173714 -1.60965 0
M  V30 14362 H 1335.74 3.09716 -2.60496 0
M  V30 14363 H 1334.31 2.66451 -1.6347 0
M  V30 14364 H 1333.53 1.30905 -3.7183 0
M  V30 14365 H 1334.81 2.12337 -4.62375 0
M  V30 14366 H 1334.21 4.82777 -2.9486 0
M  V30 14367 H 1332.77 5.35256 -3.71947 0
M  V30 14368 N 1336.2 1.55448 0.259558 0
M  V30 14369 C 1337.43 1.80727 1.00723 0
M  V30 14370 C 1337.85 0.587354 1.79431 0
M  V30 14371 O 1337.2 -0.443819 1.77021 0
M  V30 14372 C 1337.25 3.04064 1.95517 0
M  V30 14373 O 1336.97 4.21346 1.19996 0
M  V30 14374 C 1338.48 3.42049 2.81988 0
M  V30 14375 H 1335.7 0.601713 0.296956 0
M  V30 14376 H 1338.24 2.02486 0.286273 0
M  V30 14377 H 1336.39 2.84392 2.63058 0
M  V30 14378 H 1336.81 4.91164 1.84006 0
M  V30 14379 H 1338.28 4.31485 3.44274 0
M  V30 14380 H 1338.76 2.62059 3.52451 0
M  V30 14381 H 1339.37 3.64027 2.19918 0
M  V30 14382 N 1337.68 -0.524672 1.4861 0
M  V30 14383 C 1338.93 -1.27671 1.5615 0
M  V30 14384 C 1339.24 -1.94088 0.242709 0
M  V30 14385 O 1340.45 -2.70789 0.196407 0
M  V30 14386 C 1338.9 -2.31686 2.75408 0
M  V30 14387 C 1338.51 -1.71315 4.13951 0
M  V30 14388 C 1340.26 -3.07867 2.92264 0
M  V30 14389 C 1338.16 -2.73302 5.24462 0
M  V30 14390 H 1337.09 -0.480177 0.581332 0
M  V30 14391 H 1339.74 -0.553473 1.74954 0
M  V30 14392 H 1338.13 -3.07069 2.50049 0
M  V30 14393 H 1339.3 -1.02085 4.4935 0
M  V30 14394 H 1337.62 -1.07608 4.02255 0
M  V30 14395 H 1340.21 -3.84088 3.71995 0
M  V30 14396 H 1340.56 -3.64052 2.01921 0
M  V30 14397 H 1341.09 -2.39599 3.17549 0
M  V30 14398 H 1337.83 -2.21929 6.16788 0
M  V30 14399 H 1337.35 -3.40843 4.93544 0
M  V30 14400 H 1339.03 -3.36186 5.528 0
M  V30 14401 N 1339.16 -1.37287 -0.77395 0
M  V30 14402 C 1340.57 -1.18039 -1.0742 0
M  V30 14403 C 1340.77 -0.0150339 -2.01494 0
M  V30 14404 O 1339.83 0.645562 -2.44108 0
M  V30 14405 C 1341.14 -2.49808 -1.67382 0
M  V30 14406 C 1342.69 -2.5631 -1.7965 0
M  V30 14407 C 1343.17 -3.88204 -2.43025 0
M  V30 14408 N 1344.66 -3.89634 -2.50478 0
M  V30 14409 C 1345.39 -4.88437 -3.00361 0
M  V30 14410 N 1344.89 -5.97635 -3.50434 0
M  V30 14411 N 1346.68 -4.75843 -2.99215 0
M  V30 14412 H 1338.83 -2.11875 -0.149269 0
M  V30 14413 H 1341.1 -0.939203 -0.128846 0
M  V30 14414 H 1340.8 -3.35433 -1.05726 0
M  V30 14415 H 1340.68 -2.66737 -2.66704 0
M  V30 14416 H 1343.06 -1.71094 -2.40439 0
M  V30 14417 H 1343.14 -2.43266 -0.790894 0
M  V30 14418 H 1342.79 -4.73834 -1.82876 0
M  V30 14419 H 1342.72 -3.98551 -3.44187 0
M  V30 14420 H 1345.21 -3.10751 -2.15039 0
M  V30 14421 H 1345.52 -6.6898 -3.86893 0
M  V30 14422 H 1343.87 -6.01283 -3.48545 0
M  V30 14423 H 1347.06 -3.89656 -2.59395 0
M  V30 14424 H 1347.23 -5.52999 -3.37781 0
M  V30 14425 N 1340.64 0.999871 -1.21821 0
M  V30 14426 C 1341.57 2.10708 -1.00621 0
M  V30 14427 C 1342.55 1.69954 0.0705417 0
M  V30 14428 O 1343.73 1.9399 -0.0903042 0
M  V30 14429 C 1340.86 3.42496 -0.575646 0
M  V30 14430 C 1339.82 3.97068 -1.59754 0
M  V30 14431 C 1339.14 5.24822 -1.02304 0
M  V30 14432 C 1340.44 4.28545 -2.98574 0
M  V30 14433 H 1342.14 2.28701 -1.93226 0
M  V30 14434 H 1339.68 1.09903 -0.930443 0
M  V30 14435 H 1341.64 4.19357 -0.414481 0
M  V30 14436 H 1340.36 3.2431 0.386059 0
M  V30 14437 H 1339.02 3.22332 -1.74636 0
M  V30 14438 H 1338.67 5.02972 -0.0529016 0
M  V30 14439 H 1338.37 5.62299 -1.70567 0
M  V30 14440 H 1339.89 6.04322 -0.873312 0
M  V30 14441 H 1341.3 4.96229 -2.87106 0
M  V30 14442 H 1339.7 4.77178 -3.63897 0
M  V30 14443 H 1340.77 3.36607 -3.49032 0
M  V30 14444 N 1342.11 1.02678 1.19562 0
M  V30 14445 C 1343.36 0.73282 1.8974 0
M  V30 14446 C 1343.72 -0.730461 1.77994 0
M  V30 14447 O 1343.01 -1.52487 1.1601 0
M  V30 14448 C 1343.2 1.11603 3.39529 0
M  V30 14449 C 1343.03 2.61501 3.65851 0
M  V30 14450 C 1341.8 3.28441 3.83998 0
M  V30 14451 C 1344 3.59707 3.6758 0
M  V30 14452 N 1341.98 4.67465 3.97932 0
M  V30 14453 C 1343.35 4.84339 3.8706 0
M  V30 14454 C 1345.41 3.53535 3.50595 0
M  V30 14455 C 1344.11 6.03544 3.91315 0
M  V30 14456 C 1346.14 4.72153 3.56126 0
M  V30 14457 C 1345.5 5.95598 3.76089 0
M  V30 14458 H 1341.6 0.319992 0.713533 0
M  V30 14459 H 1344.18 1.31366 1.43704 0
M  V30 14460 H 1342.35 0.563414 3.84292 0
M  V30 14461 H 1344.08 0.774538 3.97219 0
M  V30 14462 H 1340.84 2.78856 3.82801 0
M  V30 14463 H 1341.26 5.39676 4.08753 0
M  V30 14464 H 1345.91 2.59083 3.34119 0
M  V30 14465 H 1343.62 6.98366 4.06583 0
M  V30 14466 H 1347.21 4.69003 3.44278 0
M  V30 14467 H 1346.09 6.85847 3.80241 0
M  V30 14468 N 1343.59 -1.35528 0.804364 0
M  V30 14469 C 1344.5 -2.33616 0.214663 0
M  V30 14470 C 1345.52 -1.61757 -0.64115 0
M  V30 14471 O 1346.69 -1.93647 -0.553424 0
M  V30 14472 C 1343.76 -3.40951 -0.628778 0
M  V30 14473 C 1342.82 -4.28587 0.247269 0
M  V30 14474 C 1342.05 -5.30796 -0.556012 0
M  V30 14475 O 1342.28 -5.41557 -1.79088 0
M  V30 14476 O 1341.21 -6.01878 0.0519437 0
M  V30 14477 H 1345.04 -2.85843 1.02605 0
M  V30 14478 H 1342.62 -1.38259 0.566108 0
M  V30 14479 H 1344.5 -4.06538 -1.10926 0
M  V30 14480 H 1343.18 -2.90999 -1.4178 0
M  V30 14481 H 1342.09 -3.65988 0.774835 0
M  V30 14482 H 1343.42 -4.81931 1.00017 0
M  V30 14483 N 1345.07 -0.557671 -1.47404 0
M  V30 14484 C 1346.3 -0.0386599 -2.06864 0
M  V30 14485 C 1346.71 1.25527 -1.41027 0
M  V30 14486 O 1346.07 1.75318 -0.506949 0
M  V30 14487 C 1346.12 0.160141 -3.61145 0
M  V30 14488 O 1345.84 -1.08255 -4.24515 0
M  V30 14489 C 1347.34 0.716381 -4.37473 0
M  V30 14490 H 1344.56 -0.0460523 -0.669418 0
M  V30 14491 H 1347.11 -0.771214 -1.894 0
M  V30 14492 H 1345.26 0.842826 -3.78121 0
M  V30 14493 H 1345.68 -0.88057 -5.17055 0
M  V30 14494 H 1347.15 0.804773 -5.46102 0
M  V30 14495 H 1347.63 1.72776 -4.03788 0
M  V30 14496 H 1348.23 0.0693787 -4.25243 0
M  V30 14497 N 1346.55 1.54831 -0.294147 0
M  V30 14498 C 1347.5 2.23263 0.58499 0
M  V30 14499 C 1348.47 1.21278 1.13494 0
M  V30 14500 O 1349.65 1.49878 1.18073 0
M  V30 14501 C 1346.79 2.97185 1.75429 0
M  V30 14502 C 1345.9 4.1393 1.23638 0
M  V30 14503 C 1345.04 4.7545 2.36899 0
M  V30 14504 C 1344.08 5.84352 1.82207 0
M  V30 14505 N 1343.22 6.39855 2.89015 0
M  V30 14506 H 1348.06 2.98 -0.00519329 0
M  V30 14507 H 1345.59 1.47093 -0.0143313 0
M  V30 14508 H 1347.55 3.38271 2.4419 0
M  V30 14509 H 1346.18 2.24837 2.3162 0
M  V30 14510 H 1345.23 3.77832 0.441247 0
M  V30 14511 H 1346.54 4.92409 0.795946 0
M  V30 14512 H 1345.7 5.19353 3.1362 0
M  V30 14513 H 1344.44 3.96288 2.84266 0
M  V30 14514 H 1343.44 5.39879 1.03974 0
M  V30 14515 H 1344.67 6.65393 1.35753 0
M  V30 14516 H 1342.61 5.6358 3.35729 0
M  V30 14517 H 1342.53 7.13661 2.49447 0
M  V30 14518 H 1343.8 6.88417 3.65654 0
M  V30 14519 N 1348.03 0.0217466 1.57585 0
M  V30 14520 C 1348.97 -0.962559 2.0977 0
M  V30 14521 C 1349.94 -1.32771 0.998053 0
M  V30 14522 O 1351.13 -1.42231 1.27181 0
M  V30 14523 C 1348.27 -2.24214 2.62339 0
M  V30 14524 C 1347.38 -1.9341 3.86286 0
M  V30 14525 C 1346.52 -3.15609 4.27275 0
M  V30 14526 C 1345.56 -2.8059 5.43999 0
M  V30 14527 N 1344.69 -3.95392 5.8018 0
M  V30 14528 H 1349.53 -0.510626 2.93593 0
M  V30 14529 H 1347.07 -0.240456 1.45121 0
M  V30 14530 H 1349.03 -2.99049 2.90905 0
M  V30 14531 H 1347.66 -2.67037 1.81358 0
M  V30 14532 H 1346.71 -1.08849 3.64494 0
M  V30 14533 H 1348.02 -1.63614 4.71203 0
M  V30 14534 H 1347.18 -3.9877 4.57239 0
M  V30 14535 H 1345.92 -3.48561 3.41111 0
M  V30 14536 H 1344.92 -1.9584 5.13738 0
M  V30 14537 H 1346.15 -2.48863 6.31858 0
M  V30 14538 H 1344.09 -4.282 4.96971 0
M  V30 14539 H 1344.01 -3.69195 6.59721 0
M  V30 14540 H 1345.28 -4.79279 6.14746 0
M  V30 14541 N 1349.51 -1.55583 -0.251311 0
M  V30 14542 C 1350.75 -1.77471 -0.981418 0
M  V30 14543 C 1351.08 -0.586228 -1.85141 0
M  V30 14544 O 1350.36 0.415623 -1.90007 0
M  V30 14545 C 1350.64 -3.09204 -1.84567 0
M  V30 14546 C 1350.5 -4.38448 -1.00417 0
M  V30 14547 C 1351.81 -3.37133 -2.82895 0
M  V30 14548 H 1348.93 -0.645664 -0.355369 0
M  V30 14549 H 1351.58 -1.88318 -0.252228 0
M  V30 14550 H 1349.73 -3.00087 -2.46738 0
M  V30 14551 H 1351.4 -4.5955 -0.40149 0
M  V30 14552 H 1349.64 -4.32703 -0.308365 0
M  V30 14553 H 1350.31 -5.26995 -1.64258 0
M  V30 14554 H 1352.79 -3.46183 -2.3086 0
M  V30 14555 H 1351.66 -4.30531 -3.40491 0
M  V30 14556 H 1351.92 -2.57829 -3.59133 0
M  V30 14557 N 1350.98 0.516783 -1.48886 0
M  V30 14558 C 1352.22 1.28221 -1.59181 0
M  V30 14559 C 1352.59 1.90156 -0.265466 0
M  V30 14560 O 1353.79 2.67695 -0.243489 0
M  V30 14561 C 1352.06 2.3326 -2.70785 0
M  V30 14562 S 1353.62 3.19353 -3.00931 0
M  V30 14563 H 1350.44 0.435976 -0.561646 0
M  V30 14564 H 1353.04 0.587238 -1.86472 0
M  V30 14565 H 1351.74 1.86263 -3.65697 0
M  V30 14566 H 1351.27 3.07447 -2.45438 0
M  V30 14567 H 1353.29 4.3361 -2.4124 0
M  V30 14568 N 1352.46 1.37696 0.766659 0
M  V30 14569 C 1353.41 1.33871 1.88009 0
M  V30 14570 C 1354.38 0.2034 1.6485 0
M  V30 14571 O 1355.56 0.393569 1.86697 0
M  V30 14572 C 1352.7 1.1566 3.25141 0
M  V30 14573 C 1351.82 2.38465 3.6022 0
M  V30 14574 C 1350.95 2.13087 4.86587 0
M  V30 14575 C 1349.99 3.31732 5.14413 0
M  V30 14576 N 1349.13 3.05872 6.3197 0
M  V30 14577 H 1353.97 2.29065 1.90613 0
M  V30 14578 H 1351.5 1.13821 0.931837 0
M  V30 14579 H 1353.46 1.03122 4.04255 0
M  V30 14580 H 1352.09 0.241115 3.21898 0
M  V30 14581 H 1351.14 2.61725 2.76051 0
M  V30 14582 H 1352.46 3.26933 3.76718 0
M  V30 14583 H 1351.61 1.97609 5.73616 0
M  V30 14584 H 1350.35 1.21965 4.72203 0
M  V30 14585 H 1349.35 3.47743 4.25858 0
M  V30 14586 H 1350.58 4.23712 5.30702 0
M  V30 14587 H 1348.53 2.17384 6.18935 0
M  V30 14588 H 1348.44 3.87885 6.48908 0
M  V30 14589 H 1349.71 2.94023 7.21922 0
M  V30 14590 N 1353.94 -0.993397 1.22349 0
M  V30 14591 C 1354.89 -2.10463 0.990358 0
M  V30 14592 C 1355.88 -1.6927 -0.0663528 0
M  V30 14593 O 1357.09 -1.79794 0.0860444 0
M  V30 14594 H 1353.46 -0.688222 0.303075 0
M  V30 14595 H 1355.43 -2.273 1.93333 0
M  V30 14596 C 1354.18 -3.42757 0.584205 0
M  V30 14597 H 1353.51 -3.74896 1.38899 0
M  V30 14598 H 1354.95 -4.21492 0.46049 0
M  V30 14599 C 1353.4 -3.29416 -0.706187 0
M  V30 14600 O 1353.93 -3.61152 -1.75875 0
M  V30 14601 N 1352.14 -2.82601 -0.677148 0
M  V30 14602 H 1351.69 -2.56972 0.179712 0
M  V30 14603 H 1351.65 -2.74056 -1.54081 0
M  V30 14604 N 1355.42 -1.03311 -1.19015 0
M  V30 14605 C 1356.64 -0.751686 -1.93299 0
M  V30 14606 C 1357.07 0.68392 -1.75226 0
M  V30 14607 O 1356.43 1.47274 -1.05736 0
M  V30 14608 C 1356.47 -1.11335 -3.42982 0
M  V30 14609 O 1355.58 -0.234434 -4.11733 0
M  V30 14610 H 1354.92 -0.277331 -0.60331 0
M  V30 14611 H 1357.45 -1.38092 -1.5097 0
M  V30 14612 H 1357.46 -1.07204 -3.93664 0
M  V30 14613 H 1356.13 -2.15922 -3.55458 0
M  V30 14614 H 1354.71 -0.3347 -3.71395 0
M  V30 14615 N 1356.9 1.35099 -0.81154 0
M  V30 14616 C 1357.86 2.28033 -0.230947 0
M  V30 14617 C 1358.86 1.49798 0.584575 0
M  V30 14618 O 1360.05 1.6949 0.402336 0
M  V30 14619 C 1357.18 3.341 0.677486 0
M  V30 14620 H 1358.37 2.80893 -1.05067 0
M  V30 14621 H 1355.93 1.45038 -0.582554 0
M  V30 14622 H 1356.66 2.86435 1.5207 0
M  V30 14623 H 1356.45 3.91986 0.0943563 0
M  V30 14624 H 1357.94 4.0345 1.07787 0
M  V30 14625 N 1358.37 0.56548 1.47106 0
M  V30 14626 C 1359.62 0.0445914 2.02751 0
M  V30 14627 C 1359.95 -1.30517 1.43801 0
M  V30 14628 O 1359.23 -1.85123 0.596646 0
M  V30 14629 C 1359.51 -0.0396474 3.60078 0
M  V30 14630 C 1359.36 1.3378 4.29445 0
M  V30 14631 C 1360.68 -0.748954 4.3368 0
M  V30 14632 H 1357.8 0.0176787 0.736788 0
M  V30 14633 H 1360.44 0.729363 1.75443 0
M  V30 14634 H 1358.59 -0.622826 3.83475 0
M  V30 14635 H 1360.27 1.96482 4.17364 0
M  V30 14636 H 1358.51 1.91024 3.89477 0
M  V30 14637 H 1359.18 1.23149 5.38088 0
M  V30 14638 H 1361.66 -0.253707 4.15326 0
M  V30 14639 H 1360.53 -0.776877 5.43374 0
M  V30 14640 H 1360.79 -1.80679 4.03494 0
M  V30 14641 N 1359.85 -1.54672 0.302354 0
M  V30 14642 C 1360.79 -2.19752 -0.615175 0
M  V30 14643 C 1361.76 -1.16737 -1.13186 0
M  V30 14644 O 1362.95 -1.45385 -1.19981 0
M  V30 14645 C 1360.07 -2.84243 -1.84184 0
M  V30 14646 C 1359.12 -4.00795 -1.45827 0
M  V30 14647 S 1359.95 -5.33037 -0.513046 0
M  V30 14648 C 1361.11 -6.01011 -1.74747 0
M  V30 14649 H 1361.34 -2.97235 -0.0622917 0
M  V30 14650 H 1358.88 -1.54158 0.0864897 0
M  V30 14651 H 1360.83 -3.22025 -2.54578 0
M  V30 14652 H 1359.49 -2.06603 -2.36589 0
M  V30 14653 H 1358.69 -4.44707 -2.37175 0
M  V30 14654 H 1358.29 -3.64577 -0.83425 0
M  V30 14655 H 1360.58 -6.21901 -2.68786 0
M  V30 14656 H 1361.52 -6.95095 -1.35089 0
M  V30 14657 H 1361.93 -5.30671 -1.9248 0
M  V30 14658 N 1361.33 -0.0301034 -1.57571 0
M  V30 14659 C 1362.26 0.94977 -2.13311 0
M  V30 14660 C 1363.24 1.33865 -1.04948 0
M  V30 14661 O 1364.43 1.4171 -1.32786 0
M  V30 14662 C 1361.56 2.23178 -2.66099 0
M  V30 14663 C 1360.51 1.98362 -3.79258 0
M  V30 14664 C 1359.84 3.32836 -4.18479 0
M  V30 14665 C 1361.14 1.32201 -5.05292 0
M  V30 14666 H 1362.83 0.485562 -2.95436 0
M  V30 14667 H 1360.38 0.232116 -1.42117 0
M  V30 14668 H 1362.33 2.92108 -3.03728 0
M  V30 14669 H 1361.05 2.71766 -1.81137 0
M  V30 14670 H 1359.71 1.31849 -3.42069 0
M  V30 14671 H 1359.36 3.79185 -3.30496 0
M  V30 14672 H 1359.06 3.17037 -4.94733 0
M  V30 14673 H 1360.58 4.03032 -4.58691 0
M  V30 14674 H 1362 1.91133 -5.40501 0
M  V30 14675 H 1360.4 1.26797 -5.86551 0
M  V30 14676 H 1361.47 0.29511 -4.84001 0
M  V30 14677 N 1362.81 1.55714 0.243056 0
M  V30 14678 C 1363.76 1.90638 1.30099 0
M  V30 14679 C 1364.73 0.761049 1.47639 0
M  V30 14680 O 1365.91 1.01505 1.61559 0
M  V30 14681 C 1363.05 2.20985 2.65065 0
M  V30 14682 C 1362.16 3.48343 2.55501 0
M  V30 14683 C 1361.3 3.68241 3.82847 0
M  V30 14684 C 1360.34 4.89187 3.67916 0
M  V30 14685 N 1359.47 5.05586 4.87162 0
M  V30 14686 H 1364.31 2.80857 0.996155 0
M  V30 14687 H 1361.85 1.39027 0.480619 0
M  V30 14688 H 1363.81 2.36585 3.43632 0
M  V30 14689 H 1362.44 1.33966 2.93689 0
M  V30 14690 H 1361.49 3.41054 1.68483 0
M  V30 14691 H 1362.8 4.37057 2.4038 0
M  V30 14692 H 1361.96 3.83822 4.69857 0
M  V30 14693 H 1360.7 2.77768 4.00869 0
M  V30 14694 H 1359.7 4.7358 2.79289 0
M  V30 14695 H 1360.93 5.81124 3.51385 0
M  V30 14696 H 1358.87 4.18051 5.05538 0
M  V30 14697 H 1358.79 5.88395 4.74686 0
M  V30 14698 H 1360.06 5.25582 5.7566 0
M  V30 14699 N 1364.29 -0.50888 1.49158 0
M  V30 14700 C 1365.22 -1.62778 1.61356 0
M  V30 14701 C 1366.23 -1.55039 0.496653 0
M  V30 14702 O 1367.42 -1.61115 0.768386 0
M  V30 14703 C 1364.52 -3.01534 1.54694 0
M  V30 14704 C 1363.69 -3.34539 2.81785 0
M  V30 14705 C 1362.75 -4.5267 2.68283 0
M  V30 14706 O 1361.78 -4.54844 3.42207 0
M  V30 14707 N 1362.98 -5.52115 1.79303 0
M  V30 14708 H 1365.75 -1.52744 2.57855 0
M  V30 14709 H 1363.31 -0.696597 1.46148 0
M  V30 14710 H 1365.3 -3.7847 1.43327 0
M  V30 14711 H 1363.87 -3.05535 0.660849 0
M  V30 14712 H 1363.09 -2.46576 3.07561 0
M  V30 14713 H 1364.38 -3.53384 3.66057 0
M  V30 14714 H 1363.77 -5.53153 1.18485 0
M  V30 14715 H 1362.33 -6.28184 1.73863 0
M  V30 14716 N 1365.76 -1.381 -0.759346 0
M  V30 14717 C 1366.67 -1.37086 -1.9038 0
M  V30 14718 C 1367.69 -0.268738 -1.71912 0
M  V30 14719 O 1368.87 -0.506205 -1.94935 0
M  V30 14720 C 1365.93 -1.18905 -3.25672 0
M  V30 14721 C 1364.99 -2.3887 -3.56707 0
M  V30 14722 C 1364.23 -2.21546 -4.85544 0
M  V30 14723 O 1364.45 -1.20616 -5.57501 0
M  V30 14724 O 1363.38 -3.10009 -5.15924 0
M  V30 14725 H 1367.21 -2.33505 -1.94188 0
M  V30 14726 H 1364.79 -1.18959 -0.903826 0
M  V30 14727 H 1366.68 -1.10803 -4.06572 0
M  V30 14728 H 1365.35 -0.255675 -3.22689 0
M  V30 14729 H 1364.26 -2.52546 -2.75992 0
M  V30 14730 H 1365.59 -3.30817 -3.64446 0
M  V30 14731 N 1367.24 0.986894 -1.22875 0
M  V30 14732 C 1368.49 1.72985 -1.05849 0
M  V30 14733 C 1368.82 1.89939 0.404594 0
M  V30 14734 O 1368.1 1.44693 1.29978 0
M  V30 14735 C 1368.38 3.13193 -1.77714 0
M  V30 14736 C 1368.23 3.0385 -3.31655 0
M  V30 14737 C 1369.55 4.12486 -1.53438 0
M  V30 14738 H 1366.67 0.627877 -0.385926 0
M  V30 14739 H 1369.31 1.14936 -1.51294 0
M  V30 14740 H 1367.46 3.62751 -1.39083 0
M  V30 14741 H 1369.13 2.61866 -3.79768 0
M  V30 14742 H 1367.38 2.4051 -3.61023 0
M  V30 14743 H 1368.05 4.03092 -3.77122 0
M  V30 14744 H 1370.52 3.71709 -1.87007 0
M  V30 14745 H 1369.4 5.08694 -2.06207 0
M  V30 14746 H 1369.66 4.39613 -0.468294 0
M  V30 14747 N 1368.72 1.0394 1.18466 0
M  V30 14748 C 1370 0.65632 1.8426 0
M  V30 14749 C 1370.38 -0.864288 1.92596 0
M  V30 14750 O 1369.73 -1.76524 1.45092 0
M  V30 14751 C 1369.94 1.33067 3.22636 0
M  V30 14752 C 1371.28 1.46065 3.98686 0
M  V30 14753 O 1372.31 1.28867 3.32072 0
M  V30 14754 O 1371.17 1.74078 5.18034 0
M  V30 14755 H 1368.26 0.229484 0.794523 0
M  V30 14756 H 1370.81 1.13821 1.25868 0
M  V30 14757 H 1369.58 2.36866 3.11465 0
M  V30 14758 H 1369.2 0.837313 3.88683 0
M  V30 14759 N 1370.2 -1.34667 0.818693 0
M  V30 14760 C 1371.44 -1.98708 0.405359 0
M  V30 14761 C 1371.78 -1.64767 -1.02788 0
M  V30 14762 O 1371.05 -0.91714 -1.71519 0
M  V30 14763 C 1371.34 -3.55016 0.602966 0
M  V30 14764 C 1371.19 -3.98713 2.08201 0
M  V30 14765 C 1372.51 -4.40085 0.0362489 0
M  V30 14766 H 1369.63 -0.721831 0.148756 0
M  V30 14767 H 1372.27 -1.59628 1.03047 0
M  V30 14768 H 1370.42 -3.88435 0.0708453 0
M  V30 14769 H 1372.09 -3.75647 2.67745 0
M  V30 14770 H 1370.33 -3.49179 2.57403 0
M  V30 14771 H 1371 -5.0751 2.17111 0
M  V30 14772 H 1373.48 -4.13195 0.490837 0
M  V30 14773 H 1372.36 -5.4852 0.204344 0
M  V30 14774 H 1372.62 -4.29243 -1.05845 0
M  V30 14775 N 1371.68 -0.573274 -1.46804 0
M  V30 14776 C 1372.92 -0.0553432 -2.02724 0
M  V30 14777 C 1373.26 1.29753 -1.44492 0
M  V30 14778 O 1372.53 1.84804 -0.606455 0
M  V30 14779 C 1372.81 0.0205511 -3.60094 0
M  V30 14780 C 1372.67 -1.36055 -4.2873 0
M  V30 14781 C 1373.99 0.725944 -4.34071 0
M  V30 14782 H 1371.1 -0.0215858 -0.736684 0
M  V30 14783 H 1373.75 -0.738657 -1.75054 0
M  V30 14784 H 1371.9 0.602481 -3.838 0
M  V30 14785 H 1373.57 -1.98692 -4.16316 0
M  V30 14786 H 1371.81 -1.93087 -3.88458 0
M  V30 14787 H 1372.48 -1.26001 -5.37427 0
M  V30 14788 H 1374.96 0.231677 -4.15455 0
M  V30 14789 H 1373.83 0.74805 -5.43779 0
M  V30 14790 H 1374.1 1.78536 -4.04447 0
M  V30 14791 N 1373.15 1.5451 -0.310553 0
M  V30 14792 C 1374.4 2.00326 0.295904 0
M  V30 14793 C 1374.73 1.19887 1.53158 0
M  V30 14794 O 1373.98 0.265615 1.93889 0
M  V30 14795 C 1374.28 3.5072 0.68779 0
M  V30 14796 C 1373.95 4.48677 -0.447229 0
M  V30 14797 C 1372.61 4.7518 -0.758796 0
M  V30 14798 C 1374.96 5.06953 -1.21028 0
M  V30 14799 C 1372.29 5.5722 -1.83637 0
M  V30 14800 C 1374.64 5.90167 -2.27784 0
M  V30 14801 C 1373.31 6.14977 -2.59537 0
M  V30 14802 H 1372.58 0.733046 0.108279 0
M  V30 14803 H 1375.22 1.86572 -0.431633 0
M  V30 14804 H 1373.53 3.62133 1.49556 0
M  V30 14805 H 1375.23 3.83602 1.16836 0
M  V30 14806 H 1371.82 4.28159 -0.1943 0
M  V30 14807 H 1376 4.86471 -0.98283 0
M  V30 14808 H 1371.26 5.74678 -2.08699 0
M  V30 14809 H 1375.43 6.34347 -2.87362 0
M  V30 14810 H 1373.06 6.78338 -3.43165 0
M  V30 14811 N 1374.63 0.0384594 1.57553 0
M  V30 14812 C 1375.57 -0.969185 2.077 0
M  V30 14813 C 1376.58 -1.2829 1.00227 0
M  V30 14814 O 1377.77 -1.24592 1.27824 0
M  V30 14815 C 1374.87 -2.29414 2.49444 0
M  V30 14816 C 1374.04 -2.16422 3.80106 0
M  V30 14817 C 1373.1 -3.31931 4.08299 0
M  V30 14818 O 1372.13 -3.08401 4.78412 0
M  V30 14819 N 1373.33 -4.56015 3.59208 0
M  V30 14820 H 1376.09 -0.541252 2.94772 0
M  V30 14821 H 1373.65 -0.148084 1.61221 0
M  V30 14822 H 1375.65 -3.05533 2.6539 0
M  V30 14823 H 1374.22 -2.63817 1.67688 0
M  V30 14824 H 1373.44 -1.24973 3.73866 0
M  V30 14825 H 1374.72 -2.04954 4.65694 0
M  V30 14826 H 1374.12 -4.78025 3.02503 0
M  V30 14827 H 1372.68 -5.29271 3.80415 0
M  V30 14828 N 1376.11 -1.55841 -0.234795 0
M  V30 14829 C 1377.02 -1.94476 -1.31211 0
M  V30 14830 C 1378.04 -0.846782 -1.52005 0
M  V30 14831 O 1379.21 -1.14922 -1.65393 0
M  V30 14832 C 1376.28 -2.24213 -2.64442 0
M  V30 14833 C 1375.34 -3.47508 -2.52065 0
M  V30 14834 C 1374.57 -3.75817 -3.78942 0
M  V30 14835 O 1374.8 -3.06007 -4.81369 0
M  V30 14836 O 1373.73 -4.69328 -3.76848 0
M  V30 14837 H 1377.56 -2.8626 -1.01434 0
M  V30 14838 H 1375.14 -1.42879 -0.436563 0
M  V30 14839 H 1377.02 -2.44594 -3.4315 0
M  V30 14840 H 1375.7 -1.35605 -2.93927 0
M  V30 14841 H 1374.6 -3.32421 -1.71602 0
M  V30 14842 H 1375.94 -4.36457 -2.27523 0
M  V30 14843 N 1377.59 0.500963 -1.49426 0
M  V30 14844 C 1378.54 1.62335 -1.66584 0
M  V30 14845 C 1379.53 1.60837 -0.531773 0
M  V30 14846 O 1380.74 1.65345 -0.711408 0
M  V30 14847 H 1377.11 0.538131 -0.52528 0
M  V30 14848 H 1379.08 1.45016 -2.60793 0
M  V30 14849 C 1377.83 3.00469 -1.74968 0
M  V30 14850 H 1377.16 3.02328 -2.61607 0
M  V30 14851 H 1378.6 3.78539 -1.91008 0
M  V30 14852 C 1377.05 3.33251 -0.49451 0
M  V30 14853 O 1377.58 3.99901 0.379783 0
M  V30 14854 N 1375.79 2.88393 -0.357445 0
M  V30 14855 H 1375.34 2.3433 -1.06991 0
M  V30 14856 H 1375.3 3.10694 0.481287 0
M  V30 14857 N 1379.07 1.38501 0.752011 0
M  V30 14858 C 1379.98 1.38094 1.8965 0
M  V30 14859 C 1380.99 0.277851 1.71767 0
M  V30 14860 O 1382.17 0.516536 1.94663 0
M  V30 14861 C 1379.23 1.2063 3.25037 0
M  V30 14862 C 1378.3 2.40758 3.55435 0
M  V30 14863 C 1377.53 2.24118 4.84362 0
M  V30 14864 O 1377.75 1.23571 5.56854 0
M  V30 14865 O 1376.69 3.12741 5.14273 0
M  V30 14866 H 1380.51 2.34532 1.92947 0
M  V30 14867 H 1378.1 1.19437 0.897504 0
M  V30 14868 H 1379.98 1.12957 4.05979 0
M  V30 14869 H 1378.65 0.272785 3.22549 0
M  V30 14870 H 1377.56 2.54006 2.74648 0
M  V30 14871 H 1378.89 3.32745 3.62686 0
M  V30 14872 N 1380.55 -0.980364 1.23396 0
M  V30 14873 C 1381.79 -1.72421 1.06765 0
M  V30 14874 C 1382.12 -1.90151 -0.394515 0
M  V30 14875 O 1381.4 -1.4538 -1.29209 0
M  V30 14876 C 1381.68 -3.12246 1.79372 0
M  V30 14877 C 1381.54 -3.02087 3.33262 0
M  V30 14878 C 1382.85 -4.11667 1.55624 0
M  V30 14879 H 1379.97 -0.625822 0.389251 0
M  V30 14880 H 1382.62 -1.14132 1.51901 0
M  V30 14881 H 1380.77 -3.62008 1.41004 0
M  V30 14882 H 1382.44 -2.59848 3.81152 0
M  V30 14883 H 1380.68 -2.38592 3.62293 0
M  V30 14884 H 1381.35 -4.01087 3.79254 0
M  V30 14885 H 1383.83 -3.70712 1.88975 0
M  V30 14886 H 1382.7 -5.07593 2.08902 0
M  V30 14887 H 1382.96 -4.39358 0.491601 0
M  V30 14888 N 1382.02 -1.04567 -1.17913 0
M  V30 14889 C 1382.96 -0.585519 -2.2056 0
M  V30 14890 C 1383.93 0.382581 -1.58035 0
M  V30 14891 O 1385.12 0.295692 -1.86166 0
M  V30 14892 C 1382.25 0.14396 -3.38394 0
M  V30 14893 C 1381.29 -0.778174 -4.19341 0
M  V30 14894 S 1382.12 -2.26385 -4.85294 0
M  V30 14895 C 1383.28 -1.54537 -6.06522 0
M  V30 14896 H 1383.51 -1.4552 -2.59251 0
M  V30 14897 H 1381.05 -0.857075 -1.28427 0
M  V30 14898 H 1383 0.558661 -4.06681 0
M  V30 14899 H 1381.67 0.989593 -2.98104 0
M  V30 14900 H 1380.86 -0.214053 -5.03545 0
M  V30 14901 H 1380.46 -1.13195 -3.56459 0
M  V30 14902 H 1382.75 -0.841199 -6.72257 0
M  V30 14903 H 1383.7 -2.36465 -6.6745 0
M  V30 14904 H 1384.1 -1.03551 -5.54921 0
M  V30 14905 N 1383.5 1.34231 -0.825823 0
M  V30 14906 C 1384.75 1.9849 -0.415891 0
M  V30 14907 C 1385.08 1.6531 1.01913 0
M  V30 14908 O 1384.36 0.926223 1.7103 0
M  V30 14909 C 1384.64 3.54691 -0.621785 0
M  V30 14910 C 1384.49 3.97603 -2.10313 0
M  V30 14911 C 1385.81 4.4006 -0.0595871 0
M  V30 14912 H 1382.93 0.721032 -0.152582 0
M  V30 14913 H 1385.57 1.5908 -1.03892 0
M  V30 14914 H 1383.72 3.88392 -0.0914439 0
M  V30 14915 H 1385.39 3.74221 -2.69733 0
M  V30 14916 H 1383.64 3.47809 -2.59251 0
M  V30 14917 H 1384.31 5.06352 -2.19799 0
M  V30 14918 H 1386.78 4.12929 -0.512743 0
M  V30 14919 H 1385.66 5.48403 -0.233431 0
M  V30 14920 H 1385.92 4.29798 1.03568 0
M  V30 14921 N 1384.98 0.581051 1.46498 0
M  V30 14922 C 1385.91 -0.140957 2.33074 0
M  V30 14923 C 1386.89 -0.885323 1.45245 0
M  V30 14924 O 1388.08 -0.86111 1.74065 0
M  V30 14925 C 1385.21 -1.15625 3.27488 0
M  V30 14926 C 1384.16 -0.526829 4.24745 0
M  V30 14927 C 1383.49 -1.64847 5.08655 0
M  V30 14928 C 1384.79 0.53492 5.19554 0
M  V30 14929 H 1386.48 0.581888 2.93691 0
M  V30 14930 H 1384.03 0.281278 1.41226 0
M  V30 14931 H 1385.98 -1.6697 3.8691 0
M  V30 14932 H 1384.7 -1.90935 2.64974 0
M  V30 14933 H 1383.36 -0.0344738 3.66584 0
M  V30 14934 H 1383.01 -2.3912 4.42528 0
M  V30 14935 H 1382.71 -1.23298 5.74518 0
M  V30 14936 H 1384.23 -2.16472 5.7094 0
M  V30 14937 H 1385.65 0.106606 5.73201 0
M  V30 14938 H 1384.04 0.870639 5.93751 0
M  V30 14939 H 1385.11 1.42184 4.63586 0
M  V30 14940 N 1386.46 -1.54343 0.318742 0
M  V30 14941 C 1387.42 -2.22828 -0.536679 0
M  V30 14942 C 1388.42 -1.22013 -1.04735 0
M  V30 14943 O 1389.61 -1.46626 -0.940549 0
M  V30 14944 C 1386.74 -2.92857 -1.74493 0
M  V30 14945 H 1387.94 -2.99836 0.0619325 0
M  V30 14946 H 1385.49 -1.56144 0.0697687 0
M  V30 14947 H 1386.22 -2.19973 -2.3829 0
M  V30 14948 H 1386.01 -3.66779 -1.38621 0
M  V30 14949 H 1387.5 -3.45049 -2.35225 0
M  V30 14950 N 1387.94 -0.0468143 -1.5753 0
M  V30 14951 C 1389.18 0.628869 -1.92803 0
M  V30 14952 C 1389.51 1.70751 -0.925083 0
M  V30 14953 O 1388.79 1.94437 0.0495821 0
M  V30 14954 C 1389.07 1.22899 -3.38479 0
M  V30 14955 C 1388.93 0.158707 -4.4952 0
M  V30 14956 C 1390.24 2.1419 -3.84461 0
M  V30 14957 H 1387.36 0.227137 -0.701126 0
M  V30 14958 H 1390.01 -0.107689 -1.89695 0
M  V30 14959 H 1388.16 1.85674 -3.41259 0
M  V30 14960 H 1389.83 -0.472963 -4.58869 0
M  V30 14961 H 1388.07 -0.51375 -4.30747 0
M  V30 14962 H 1388.74 0.618545 -5.48523 0
M  V30 14963 H 1391.22 1.61382 -3.8353 0
M  V30 14964 H 1390.09 2.53125 -4.87051 0
M  V30 14965 H 1390.35 3.04024 -3.2097 0
M  V30 14966 N 1389.41 1.55964 0.226527 0
M  V30 14967 C 1390.69 1.69528 0.975689 0
M  V30 14968 C 1391.07 0.592635 2.02611 0
M  V30 14969 O 1390.42 -0.401073 2.24953 0
M  V30 14970 C 1390.63 3.10644 1.59063 0
M  V30 14971 C 1391.98 3.69895 2.08478 0
M  V30 14972 O 1393 3.13574 1.68966 0
M  V30 14973 O 1391.86 4.68672 2.81085 0
M  V30 14974 H 1388.95 0.690285 0.455451 0
M  V30 14975 H 1391.5 1.68285 0.218702 0
M  V30 14976 H 1390.27 3.82355 0.831903 0
M  V30 14977 H 1389.9 3.15984 2.41329 0
M  V30 14978 N 1390.89 -0.493031 1.4969 0
M  V30 14979 C 1391.84 -1.59075 1.63337 0
M  V30 14980 C 1392.83 -1.53298 0.488721 0
M  V30 14981 O 1394.02 -1.60693 0.742071 0
M  V30 14982 C 1391.15 -2.97646 1.71061 0
M  V30 14983 C 1390.23 -3.08389 2.9113 0
M  V30 14984 N 1390.62 -2.89001 4.15105 0
M  V30 14985 C 1388.92 -3.395 2.89233 0
M  V30 14986 C 1389.62 -3.04136 4.95859 0
M  V30 14987 N 1388.6 -3.33367 4.2938 0
M  V30 14988 H 1392.4 -1.42751 2.56903 0
M  V30 14989 H 1389.92 -0.699325 1.46571 0
M  V30 14990 H 1391.91 -3.76546 1.78938 0
M  V30 14991 H 1390.57 -3.15034 0.786376 0
M  V30 14992 H 1391.58 -2.65017 4.44957 0
M  V30 14993 H 1388.26 -3.63014 2.06221 0
M  V30 14994 H 1389.65 -2.93571 6.04372 0
M  V30 14995 N 1392.37 -1.38898 -0.744656 0
M  V30 14996 C 1393.62 -1.34909 -1.49941 0
M  V30 14997 C 1393.93 0.0553979 -1.95522 0
M  V30 14998 O 1395.14 0.21785 -2.70625 0
M  V30 14999 C 1393.59 -2.36954 -2.70889 0
M  V30 15000 C 1393.2 -3.83069 -2.32298 0
M  V30 15001 C 1394.95 -2.42024 -3.48747 0
M  V30 15002 C 1392.85 -4.76777 -3.4991 0
M  V30 15003 H 1391.78 -0.501512 -0.563029 0
M  V30 15004 H 1394.43 -1.64497 -0.813201 0
M  V30 15005 H 1392.82 -2.00421 -3.41537 0
M  V30 15006 H 1393.99 -4.28588 -1.69259 0
M  V30 15007 H 1392.31 -3.81202 -1.67554 0
M  V30 15008 H 1394.9 -3.0923 -4.36212 0
M  V30 15009 H 1395.25 -1.44184 -3.90534 0
M  V30 15010 H 1395.78 -2.774 -2.85121 0
M  V30 15011 H 1392.52 -5.75844 -3.13183 0
M  V30 15012 H 1392.04 -4.35944 -4.11962 0
M  V30 15013 H 1393.72 -4.95219 -4.16374 0
M  V30 15014 N 1393.85 0.973806 -1.23914 0
M  V30 15015 C 1395.26 1.24128 -1.00322 0
M  V30 15016 C 1395.46 1.99378 0.29169 0
M  V30 15017 O 1394.52 2.31445 1.00943 0
M  V30 15018 C 1395.83 2.03438 -2.21435 0
M  V30 15019 C 1397.38 2.16553 -2.25995 0
M  V30 15020 C 1397.86 2.99257 -3.46712 0
M  V30 15021 N 1399.35 3.0684 -3.46992 0
M  V30 15022 C 1400.08 3.71174 -4.37055 0
M  V30 15023 N 1399.58 4.37277 -5.37364 0
M  V30 15024 N 1401.37 3.68126 -4.24782 0
M  V30 15025 H 1393.52 0.469872 -2.07138 0
M  V30 15026 H 1395.79 0.270234 -0.908668 0
M  V30 15027 H 1395.49 1.55527 -3.15443 0
M  V30 15028 H 1395.37 3.0418 -2.23057 0
M  V30 15029 H 1397.75 2.6367 -1.32522 0
M  V30 15030 H 1397.83 1.15179 -2.28402 0
M  V30 15031 H 1397.48 2.52835 -4.40496 0
M  V30 15032 H 1397.41 4.00815 -3.41547 0
M  V30 15033 H 1399.9 2.59813 -2.74419 0
M  V30 15034 H 1400.21 4.84166 -6.02331 0
M  V30 15035 H 1398.56 4.35965 -5.41257 0
M  V30 15036 H 1401.75 3.15657 -3.45656 0
M  V30 15037 H 1401.92 4.17981 -4.95173 0
M  V30 15038 N 1395.33 1.05191 1.17357 0
M  V30 15039 C 1396.74 0.773255 1.39617 0
M  V30 15040 C 1396.94 -0.632346 1.91321 0
M  V30 15041 O 1396 -1.39475 2.10483 0
M  V30 15042 C 1397.31 1.82885 2.38692 0
M  V30 15043 C 1398.86 1.85106 2.52398 0
M  V30 15044 C 1399.33 2.89689 3.54746 0
M  V30 15045 N 1400.83 2.88651 3.62263 0
M  V30 15046 C 1401.56 3.66221 4.41214 0
M  V30 15047 N 1401.06 4.53577 5.23679 0
M  V30 15048 N 1402.85 3.54661 4.36087 0
M  V30 15049 H 1395 1.9588 0.82127 0
M  V30 15050 H 1397.26 0.848187 0.423417 0
M  V30 15051 H 1396.97 2.83766 2.07773 0
M  V30 15052 H 1396.84 1.67047 3.38194 0
M  V30 15053 H 1399.23 0.848896 2.82627 0
M  V30 15054 H 1399.31 2.05022 1.5297 0
M  V30 15055 H 1398.96 3.90091 3.25255 0
M  V30 15056 H 1398.89 2.67025 4.53878 0
M  V30 15057 H 1401.38 2.25312 3.03386 0
M  V30 15058 H 1401.69 5.09449 5.81104 0
M  V30 15059 H 1400.03 4.57638 5.23061 0
M  V30 15060 H 1403.23 2.8581 3.70716 0
M  V30 15061 H 1403.4 4.15361 4.97372 0
M  V30 15062 N 1396.8 -1.33791 0.83293 0
M  V30 15063 C 1397.73 -2.31853 0.276846 0
M  V30 15064 C 1398.72 -1.58702 -0.612184 0
M  V30 15065 O 1399.9 -1.86629 -0.536975 0
M  V30 15066 C 1397.03 -3.42855 -0.55385 0
M  V30 15067 C 1395.98 -4.27333 0.238884 0
M  V30 15068 C 1395.31 -5.29895 -0.715187 0
M  V30 15069 C 1396.61 -5.01692 1.45265 0
M  V30 15070 H 1398.3 -2.78611 1.09618 0
M  V30 15071 H 1395.85 -1.33949 0.528562 0
M  V30 15072 H 1397.8 -4.10479 -0.953133 0
M  V30 15073 H 1396.53 -2.94771 -1.40634 0
M  V30 15074 H 1395.19 -3.61325 0.619656 0
M  V30 15075 H 1394.83 -4.7807 -1.56391 0
M  V30 15076 H 1394.53 -5.87296 -0.188921 0
M  V30 15077 H 1396.06 -6.00387 -1.11211 0
M  V30 15078 H 1397.47 -5.62117 1.12685 0
M  V30 15079 H 1395.87 -5.68715 1.91528 0
M  V30 15080 H 1396.94 -4.30809 2.22558 0
M  V30 15081 N 1398.28 -0.588812 -1.46187 0
M  V30 15082 C 1399.21 0.178825 -2.28501 0
M  V30 15083 C 1400.23 0.849686 -1.38867 0
M  V30 15084 O 1401.42 0.718224 -1.63413 0
M  V30 15085 C 1398.52 1.27309 -3.14079 0
M  V30 15086 C 1397.69 0.692974 -4.31876 0
M  V30 15087 C 1396.75 1.67572 -4.98805 0
M  V30 15088 O 1395.77 1.20937 -5.56204 0
M  V30 15089 N 1396.98 3.00992 -4.96371 0
M  V30 15090 H 1399.74 -0.527407 -2.95023 0
M  V30 15091 H 1397.3 -0.426998 -1.56168 0
M  V30 15092 H 1399.29 1.92993 -3.55719 0
M  V30 15093 H 1397.86 1.88209 -2.49592 0
M  V30 15094 H 1397.08 -0.141485 -3.93946 0
M  V30 15095 H 1398.37 0.28529 -5.08 0
M  V30 15096 H 1397.77 3.41498 -4.50994 0
M  V30 15097 H 1396.33 3.62149 -5.41933 0
M  V30 15098 N 1399.76 1.54172 -0.326923 0
M  V30 15099 C 1400.69 2.27402 0.530154 0
M  V30 15100 C 1401.67 1.28325 1.11655 0
M  V30 15101 O 1402.86 1.57142 1.14105 0
M  V30 15102 C 1399.99 3.03435 1.68951 0
M  V30 15103 C 1398.94 4.09877 1.23226 0
M  V30 15104 C 1398.27 4.7377 2.47882 0
M  V30 15105 C 1399.57 5.21161 0.344698 0
M  V30 15106 H 1401.26 2.99291 -0.0806959 0
M  V30 15107 H 1398.81 1.43944 -0.0402511 0
M  V30 15108 H 1400.76 3.53396 2.29541 0
M  V30 15109 H 1399.48 2.29169 2.327 0
M  V30 15110 H 1398.14 3.60805 0.649267 0
M  V30 15111 H 1397.79 3.96116 3.10002 0
M  V30 15112 H 1397.49 5.45674 2.17977 0
M  V30 15113 H 1399.01 5.26507 3.09229 0
M  V30 15114 H 1400.43 5.66859 0.856979 0
M  V30 15115 H 1398.83 5.99941 0.138276 0
M  V30 15116 H 1399.9 4.80874 -0.623575 0
M  V30 15117 N 1401.24 0.0551678 1.57503 0
M  V30 15118 C 1402.49 -0.617201 1.92025 0
M  V30 15119 C 1402.8 -1.71767 0.93571 0
M  V30 15120 O 1404.01 -2.44847 1.17312 0
M  V30 15121 C 1402.46 -1.14915 3.41061 0
M  V30 15122 C 1402.07 -0.0805814 4.47928 0
M  V30 15123 C 1403.81 -1.79654 3.8461 0
M  V30 15124 C 1401.72 -0.625639 5.88081 0
M  V30 15125 H 1400.65 -0.23431 0.716669 0
M  V30 15126 H 1403.3 0.124706 1.83076 0
M  V30 15127 H 1401.68 -1.9435 3.45028 0
M  V30 15128 H 1402.86 0.693222 4.55556 0
M  V30 15129 H 1401.17 0.469581 4.13744 0
M  V30 15130 H 1403.77 -2.21436 4.86693 0
M  V30 15131 H 1404.11 -2.64987 3.21073 0
M  V30 15132 H 1404.65 -1.06868 3.83176 0
M  V30 15133 H 1401.39 0.190148 6.55224 0
M  V30 15134 H 1400.91 -1.36734 5.84007 0
M  V30 15135 H 1402.58 -1.10728 6.37454 0
M  V30 15136 N 1402.72 -1.56081 -0.218252 0
M  V30 15137 C 1403.66 -1.93544 -1.2901 0
M  V30 15138 C 1404.66 -0.817886 -1.48348 0
M  V30 15139 O 1405.86 -1.00274 -1.49483 0
M  V30 15140 H 1402.24 -0.61511 -0.432601 0
M  V30 15141 H 1404.21 -2.82975 -0.946966 0
M  V30 15142 C 1402.96 -2.27134 -2.63259 0
M  V30 15143 H 1402.28 -3.12643 -2.49188 0
M  V30 15144 H 1403.72 -2.57228 -3.3706 0
M  V30 15145 C 1402.18 -1.09764 -3.18518 0
M  V30 15146 O 1402.71 -0.360501 -4.00079 0
M  V30 15147 N 1400.92 -0.880589 -2.76937 0
M  V30 15148 H 1400.46 -1.48175 -2.10718 0
M  V30 15149 H 1400.42 -0.0970234 -3.1425 0
M  V30 15150 N 1404.2 0.485086 -1.49949 0
M  V30 15151 C 1405.44 1.23571 -1.5992 0
M  V30 15152 C 1405.76 1.92754 -0.295108 0
M  V30 15153 O 1405.03 1.83474 0.686582 0
M  V30 15154 H 1403.61 0.459104 -0.589264 0
M  V30 15155 H 1406.28 0.560822 -1.86657 0
M  V30 15156 H 1405.37 1.99114 -2.40333 0
M  V30 15157 N 1405.67 1.39291 0.737279 0
M  V30 15158 C 1407.09 1.20845 1.04253 0
M  V30 15159 C 1407.29 0.0684513 2.01384 0
M  V30 15160 O 1406.35 -0.580615 2.45734 0
M  V30 15161 C 1407.66 2.54158 1.60699 0
M  V30 15162 C 1409.21 2.60983 1.72791 0
M  V30 15163 C 1409.68 3.94511 2.32647 0
M  V30 15164 N 1411.17 3.96138 2.4006 0
M  V30 15165 C 1411.91 4.96229 2.87306 0
M  V30 15166 N 1411.4 6.06716 3.34465 0
M  V30 15167 N 1413.2 4.83609 2.86494 0
M  V30 15168 H 1405.35 2.12196 0.0930416 0
M  V30 15169 H 1407.61 0.942289 0.103899 0
M  V30 15170 H 1407.32 3.38118 0.96795 0
M  V30 15171 H 1407.19 2.73715 2.59538 0
M  V30 15172 H 1409.58 1.77408 2.35818 0
M  V30 15173 H 1409.66 2.45278 0.726118 0
M  V30 15174 H 1409.3 4.78516 1.70249 0
M  V30 15175 H 1409.23 4.07536 3.33499 0
M  V30 15176 H 1411.72 3.16344 2.06725 0
M  V30 15177 H 1412.04 6.79002 3.6902 0
M  V30 15178 H 1410.38 6.10313 3.3248 0
M  V30 15179 H 1413.57 3.96396 2.48973 0
M  V30 15180 H 1413.75 5.6176 3.23001 0
M  V30 15181 N 1407.15 -0.967221 1.24429 0
M  V30 15182 C 1408.38 -1.7452 1.11133 0
M  V30 15183 C 1408.79 -1.85785 -0.336087 0
M  V30 15184 O 1408.15 -1.34652 -1.23188 0
M  V30 15185 C 1408.2 -3.16544 1.74591 0
M  V30 15186 O 1407.92 -3.05845 3.13673 0
M  V30 15187 C 1409.42 -4.10677 1.6691 0
M  V30 15188 H 1406.64 -0.547267 0.388253 0
M  V30 15189 H 1409.19 -1.2143 1.64545 0
M  V30 15190 H 1407.34 -3.66618 1.2518 0
M  V30 15191 H 1407.76 -3.95346 3.44676 0
M  V30 15192 H 1409.23 -5.07987 2.15992 0
M  V30 15193 H 1409.71 -4.34652 0.630411 0
M  V30 15194 H 1410.31 -3.66514 2.15749 0
M  V30 15195 N 1408.63 -1.05812 -1.16797 0
M  V30 15196 C 1409.88 -0.770398 -1.8684 0
M  V30 15197 C 1410.2 0.704986 -1.8181 0
M  V30 15198 O 1409.47 1.50977 -1.24832 0
M  V30 15199 H 1408.05 -0.281989 -0.691731 0
M  V30 15200 H 1410.71 -1.33859 -1.41661 0
M  V30 15201 H 1409.81 -1.09094 -2.92412 0
M  V30 15202 N 1410.11 1.33347 -0.840014 0
M  V30 15203 C 1411.04 2.28029 -0.231432 0
M  V30 15204 C 1412.05 1.51792 0.588488 0
M  V30 15205 O 1413.24 1.736 0.415371 0
M  V30 15206 C 1410.34 3.31745 0.692721 0
M  V30 15207 C 1409.51 4.37311 -0.0881144 0
M  V30 15208 C 1408.57 5.20689 0.759557 0
M  V30 15209 O 1407.6 5.68854 0.198347 0
M  V30 15210 N 1408.8 5.42082 2.07672 0
M  V30 15211 H 1411.57 2.80893 -1.04495 0
M  V30 15212 H 1409.13 1.46053 -0.698586 0
M  V30 15213 H 1411.12 3.84428 1.2648 0
M  V30 15214 H 1409.69 2.79148 1.40695 0
M  V30 15215 H 1408.91 3.85112 -0.841579 0
M  V30 15216 H 1410.2 5.04947 -0.624986 0
M  V30 15217 H 1409.6 5.04654 2.55619 0
M  V30 15218 H 1408.15 5.97817 2.59726 0
M  V30 15219 N 1411.59 0.596556 1.45873 0
M  V30 15220 C 1412.83 0.0850976 2.0152 0
M  V30 15221 C 1413.15 -1.28799 1.47208 0
M  V30 15222 O 1414.35 -1.89156 1.94762 0
M  V30 15223 C 1412.81 0.101488 3.59757 0
M  V30 15224 C 1412.42 1.47374 4.23066 0
M  V30 15225 C 1414.16 -0.355303 4.2301 0
M  V30 15226 C 1412.07 1.44711 5.73422 0
M  V30 15227 H 1411 0.0280444 0.753478 0
M  V30 15228 H 1413.65 0.750255 1.67462 0
M  V30 15229 H 1412.03 -0.630108 3.90955 0
M  V30 15230 H 1413.21 2.22617 4.03458 0
M  V30 15231 H 1411.52 1.87171 3.71962 0
M  V30 15232 H 1414.12 -0.394236 5.33245 0
M  V30 15233 H 1414.46 -1.37573 3.92911 0
M  V30 15234 H 1414.99 0.32267 3.96489 0
M  V30 15235 H 1411.73 2.44479 6.08203 0
M  V30 15236 H 1411.25 0.737102 5.95254 0
M  V30 15237 H 1412.93 1.16598 6.36407 0
M  V30 15238 N 1413.06 -1.53996 0.335095 0
M  V30 15239 C 1414.34 -1.92984 -0.318848 0
M  V30 15240 C 1414.72 -1.26585 -1.68936 0
M  V30 15241 O 1414.07 -0.413702 -2.24724 0
M  V30 15242 C 1414.28 -3.46705 -0.399568 0
M  V30 15243 C 1415.63 -4.19527 -0.654411 0
M  V30 15244 O 1416.65 -3.52923 -0.482026 0
M  V30 15245 O 1415.51 -5.37499 -0.987756 0
M  V30 15246 H 1412.6 -0.806202 -0.1843 0
M  V30 15247 H 1415.15 -1.6526 0.385653 0
M  V30 15248 H 1413.92 -3.87235 0.56253 0
M  V30 15249 H 1413.54 -3.8057 -1.15119 0
M  V30 15250 N 1414.54 -0.0635198 -1.57472 0
M  V30 15251 C 1415.77 0.615841 -1.97208 0
M  V30 15252 C 1416.18 1.64181 -0.940281 0
M  V30 15253 O 1415.52 1.83515 0.0824321 0
M  V30 15254 C 1415.58 1.34908 -3.33227 0
M  V30 15255 C 1415.25 0.477535 -4.54498 0
M  V30 15256 C 1416.25 -0.261479 -5.19242 0
M  V30 15257 C 1413.93 0.404839 -5.00666 0
M  V30 15258 C 1415.92 -1.0615 -6.28499 0
M  V30 15259 C 1413.61 -0.398859 -6.09797 0
M  V30 15260 C 1414.61 -1.1307 -6.73576 0
M  V30 15261 O 1414.3 -1.92116 -7.80607 0
M  V30 15262 H 1414.03 0.172273 -0.65368 0
M  V30 15263 H 1416.58 -0.129963 -2.04988 0
M  V30 15264 H 1414.81 2.14078 -3.22036 0
M  V30 15265 H 1416.5 1.91988 -3.57625 0
M  V30 15266 H 1417.27 -0.214859 -4.84524 0
M  V30 15267 H 1413.15 0.964087 -4.50806 0
M  V30 15268 H 1416.69 -1.63324 -6.78212 0
M  V30 15269 H 1412.59 -0.447073 -6.4395 0
M  V30 15270 H 1413.36 -1.84459 -7.97444 0
M  V30 15271 N 1416.02 1.56195 0.209972 0
M  V30 15272 C 1416.95 1.96378 1.26324 0
M  V30 15273 C 1417.93 0.833606 1.48273 0
M  V30 15274 O 1419.12 1.0968 1.60262 0
M  V30 15275 C 1416.25 2.29048 2.61064 0
M  V30 15276 C 1415.2 3.44665 2.53752 0
M  V30 15277 C 1414.53 3.6297 3.92628 0
M  V30 15278 C 1415.83 4.79297 2.07536 0
M  V30 15279 H 1417.52 2.8461 0.929379 0
M  V30 15280 H 1415.07 1.36931 0.445627 0
M  V30 15281 H 1417.02 2.55752 3.34916 0
M  V30 15282 H 1415.74 1.37682 2.96161 0
M  V30 15283 H 1414.4 3.18028 1.82356 0
M  V30 15284 H 1414.05 2.68961 4.25052 0
M  V30 15285 H 1413.75 4.40741 3.88614 0
M  V30 15286 H 1415.27 3.92035 4.68125 0
M  V30 15287 H 1416.69 5.05131 2.71138 0
M  V30 15288 H 1415.08 5.60433 2.14557 0
M  V30 15289 H 1416.15 4.73877 1.02802 0
M  V30 15290 N 1417.5 -0.477127 1.50204 0
M  V30 15291 C 1418.73 -1.25307 1.64638 0
M  V30 15292 C 1419.14 -1.85942 0.327274 0
M  V30 15293 O 1418.5 -1.6895 -0.690088 0
M  V30 15294 C 1418.55 -2.36616 2.73304 0
M  V30 15295 O 1418.27 -1.78469 4.00101 0
M  V30 15296 C 1419.77 -3.27595 2.98658 0
M  V30 15297 H 1416.99 -0.379192 0.553583 0
M  V30 15298 H 1419.53 -0.5702 1.9639 0
M  V30 15299 H 1417.69 -3.00689 2.44264 0
M  V30 15300 H 1418.1 -2.51722 4.60148 0
M  V30 15301 H 1419.58 -4.01921 3.7837 0
M  V30 15302 H 1420.05 -3.86017 2.09493 0
M  V30 15303 H 1420.66 -2.69264 3.29206 0
M  V30 15304 N 1418.98 -1.3968 -0.729882 0
M  V30 15305 C 1419.89 -1.41094 -1.87429 0
M  V30 15306 C 1420.9 -0.305142 -1.71303 0
M  V30 15307 O 1422.08 -0.54744 -1.93817 0
M  V30 15308 C 1419.14 -1.25786 -3.23077 0
M  V30 15309 C 1418.2 -2.46382 -3.5156 0
M  V30 15310 C 1417.44 -2.31795 -4.80735 0
M  V30 15311 O 1417.66 -1.32415 -5.54818 0
M  V30 15312 O 1416.59 -3.20883 -5.09232 0
M  V30 15313 H 1420.42 -2.37571 -1.89192 0
M  V30 15314 H 1418.01 -1.2085 -0.878389 0
M  V30 15315 H 1419.89 -1.19402 -4.0413 0
M  V30 15316 H 1418.56 -0.324065 -3.22074 0
M  V30 15317 H 1417.47 -2.58343 -2.70573 0
M  V30 15318 H 1418.8 -3.38473 -3.57347 0
M  V30 15319 N 1420.45 0.960609 -1.2494 0
M  V30 15320 C 1421.42 2.03791 -1.04891 0
M  V30 15321 C 1422.42 1.608 -0.00375792 0
M  V30 15322 O 1423.61 1.72463 -0.24539 0
M  V30 15323 C 1420.74 3.35733 -0.591309 0
M  V30 15324 H 1421.93 2.2301 -2.00516 0
M  V30 15325 H 1419.49 1.13686 -1.07263 0
M  V30 15326 H 1420.22 3.22207 0.367816 0
M  V30 15327 H 1420.01 3.68283 -1.34574 0
M  V30 15328 H 1421.5 4.14921 -0.472283 0
M  V30 15329 N 1421.93 1.0643 1.16234 0
M  V30 15330 C 1422.86 0.634274 2.20249 0
M  V30 15331 C 1423.88 -0.308432 1.59852 0
M  V30 15332 O 1425.07 -0.0992067 1.78224 0
M  V30 15333 C 1422.17 -0.0901593 3.3878 0
M  V30 15334 C 1421.34 0.866379 4.28734 0
M  V30 15335 C 1420.4 0.180942 5.25889 0
M  V30 15336 O 1419.42 0.819034 5.63277 0
M  V30 15337 N 1420.63 -1.07698 5.70422 0
M  V30 15338 H 1423.39 1.52901 2.57762 0
M  V30 15339 H 1420.95 0.947789 1.31258 0
M  V30 15340 H 1422.94 -0.559147 4.00819 0
M  V30 15341 H 1421.51 -0.886715 2.9976 0
M  V30 15342 H 1420.73 1.51471 3.63937 0
M  V30 15343 H 1422.02 1.51524 4.85714 0
M  V30 15344 H 1421.42 -1.6155 5.42142 0
M  V30 15345 H 1419.98 -1.48981 6.34545 0
M  V30 15346 N 1423.41 -1.329 0.847073 0
M  V30 15347 C 1424.66 -1.97803 0.447417 0
M  V30 15348 C 1424.99 -1.6691 -0.9927 0
M  V30 15349 O 1424.26 -0.953315 -1.69535 0
M  V30 15350 C 1424.55 -3.53657 0.678135 0
M  V30 15351 C 1424.4 -3.94207 2.16612 0
M  V30 15352 C 1425.72 -4.39909 0.129589 0
M  V30 15353 H 1422.84 -0.718514 0.164034 0
M  V30 15354 H 1425.48 -1.57407 1.0641 0
M  V30 15355 H 1423.63 -3.88198 0.153222 0
M  V30 15356 H 1425.3 -3.69883 2.75653 0
M  V30 15357 H 1423.55 -3.43641 2.64752 0
M  V30 15358 H 1424.22 -5.02791 2.27827 0
M  V30 15359 H 1426.69 -4.12061 0.578371 0
M  V30 15360 H 1425.57 -5.47963 0.320648 0
M  V30 15361 H 1425.83 -4.31391 -0.967167 0
M  V30 15362 N 1424.89 -0.604284 -1.45555 0
M  V30 15363 C 1426.11 -0.102634 -2.07146 0
M  V30 15364 C 1426.54 1.20239 -1.44652 0
M  V30 15365 O 1425.9 1.73133 -0.538033 0
M  V30 15366 C 1425.94 0.0270231 -3.6059 0
M  V30 15367 O 1425.05 1.0781 -3.98059 0
M  V30 15368 H 1424.39 -0.0725667 -0.660023 0
M  V30 15369 H 1426.92 -0.833355 -1.86859 0
M  V30 15370 H 1426.93 0.226299 -4.07372 0
M  V30 15371 H 1425.6 -0.925896 -4.05463 0
M  V30 15372 H 1424.18 0.855552 -3.62953 0
M  V30 15373 N 1426.37 1.53816 -0.343257 0
M  V30 15374 C 1427.61 2.0282 0.253695 0
M  V30 15375 C 1427.97 1.22564 1.47791 0
M  V30 15376 O 1429.17 1.61464 2.14902 0
M  V30 15377 C 1427.44 3.5298 0.560361 0
M  V30 15378 S 1429 4.23889 1.13416 0
M  V30 15379 H 1425.82 0.706976 0.0755344 0
M  V30 15380 H 1428.42 1.89492 -0.480951 0
M  V30 15381 H 1427.13 4.09002 -0.338451 0
M  V30 15382 H 1426.66 3.70426 1.32468 0
M  V30 15383 H 1428.67 4.33192 2.4199 0
M  V30 15384 N 1427.84 0.0718701 1.57436 0
M  V30 15385 C 1429.08 -0.600882 1.95368 0
M  V30 15386 C 1429.45 -1.66772 0.951368 0
M  V30 15387 O 1430.65 -2.39603 1.21835 0
M  V30 15388 C 1428.92 -1.1628 3.37955 0
M  V30 15389 S 1430.48 -1.85067 3.97864 0
M  V30 15390 H 1427.3 -0.196749 0.683235 0
M  V30 15391 H 1429.9 0.145744 1.94956 0
M  V30 15392 H 1428.6 -0.374507 4.08688 0
M  V30 15393 H 1428.13 -1.94578 3.41911 0
M  V30 15394 H 1430.15 -3.1331 3.84774 0
M  V30 15395 N 1429.32 -1.56304 -0.201686 0
M  V30 15396 C 1430.56 -1.82021 -0.929934 0
M  V30 15397 C 1430.93 -0.648382 -1.80721 0
M  V30 15398 O 1432.13 -0.785292 -2.57073 0
M  V30 15399 C 1430.4 -3.12731 -1.73014 0
M  V30 15400 S 1431.96 -3.59831 -2.51131 0
M  V30 15401 H 1428.78 -0.638874 -0.312027 0
M  V30 15402 H 1431.38 -1.94536 -0.193861 0
M  V30 15403 H 1430.08 -3.96039 -1.07616 0
M  V30 15404 H 1429.61 -3.03076 -2.50816 0
M  V30 15405 H 1431.63 -3.24744 -3.75174 0
M  V30 15406 N 1430.8 0.469154 -1.50455 0
M  V30 15407 C 1431.73 1.57493 -1.7239 0
M  V30 15408 C 1432.71 1.60161 -0.572915 0
M  V30 15409 O 1433.9 1.76397 -0.812259 0
M  V30 15410 C 1431.03 2.95804 -1.81981 0
M  V30 15411 C 1429.98 3.08001 -2.97185 0
M  V30 15412 C 1429.31 4.4798 -2.91922 0
M  V30 15413 C 1430.61 2.85039 -4.37665 0
M  V30 15414 H 1432.3 1.39389 -2.64974 0
M  V30 15415 H 1429.85 0.669133 -1.27509 0
M  V30 15416 H 1431.8 3.73091 -1.95911 0
M  V30 15417 H 1430.52 3.15068 -0.86021 0
M  V30 15418 H 1429.18 2.33148 -2.82909 0
M  V30 15419 H 1428.83 4.64165 -1.93803 0
M  V30 15420 H 1428.53 4.57076 -3.69263 0
M  V30 15421 H 1430.05 5.27284 -3.07903 0
M  V30 15422 H 1431.47 3.52074 -4.52456 0
M  V30 15423 H 1429.87 3.05578 -5.16471 0
M  V30 15424 H 1430.94 1.8088 -4.499 0
M  V30 15425 N 1432.28 1.40065 0.722464 0
M  V30 15426 C 1433.5 1.4146 1.5167 0
M  V30 15427 C 1433.93 0.0142653 1.88095 0
M  V30 15428 O 1433.29 -0.975934 1.52791 0
M  V30 15429 C 1433.33 2.30531 2.77287 0
M  V30 15430 O 1432.44 1.74382 3.73717 0
M  V30 15431 H 1431.78 0.481194 0.457546 0
M  V30 15432 H 1434.31 1.84213 0.890331 0
M  V30 15433 H 1434.32 2.45479 3.25889 0
M  V30 15434 H 1432.99 3.32292 2.50109 0
M  V30 15435 H 1431.57 1.68743 3.32536 0
M  V30 15436 N 1433.76 -0.95397 1.25448 0
M  V30 15437 C 1435.17 -1.51337 1.09335 0
M  V30 15438 C 1435.52 -1.93393 -0.330698 0
M  V30 15439 O 1434.64 -1.78681 -1.22074 0
M  V30 15440 C 1435.24 -2.75024 1.97857 0
M  V30 15441 C 1433.8 -3.27274 1.85927 0
M  V30 15442 C 1432.95 -2.00108 1.91969 0
M  V30 15443 H 1435.9 -0.770795 1.38724 0
M  V30 15444 H 1435.92 -3.48867 1.51894 0
M  V30 15445 H 1435.43 -2.44383 3.01494 0
M  V30 15446 H 1433.53 -3.62734 0.851767 0
M  V30 15447 H 1433.64 -3.95245 2.70773 0
M  V30 15448 H 1432.01 -2.15438 1.35862 0
M  V30 15449 H 1432.79 -1.71816 2.97211 0
M  V30 15450 N 1435.24 -1.07045 -1.15668 0
M  V30 15451 C 1436.19 -0.65786 -2.18303 0
M  V30 15452 C 1437.17 0.315405 -1.57778 0
M  V30 15453 O 1438.36 0.129631 -1.76525 0
M  V30 15454 C 1435.49 -0.0538843 -3.43258 0
M  V30 15455 C 1434.58 -1.0521 -4.10843 0
M  V30 15456 N 1434.97 -2.23051 -4.53963 0
M  V30 15457 C 1433.27 -0.884739 -4.37137 0
M  V30 15458 C 1433.97 -2.86354 -5.06336 0
M  V30 15459 N 1432.94 -2.14037 -4.99689 0
M  V30 15460 H 1436.74 -1.55542 -2.49367 0
M  V30 15461 H 1434.26 -0.9432 -1.32202 0
M  V30 15462 H 1436.26 0.259575 -4.16091 0
M  V30 15463 H 1434.92 0.83883 -3.13678 0
M  V30 15464 H 1435.93 -2.60786 -4.4745 0
M  V30 15465 H 1432.6 -0.0446575 -4.17476 0
M  V30 15466 H 1433.99 -3.86393 -5.49682 0
M  V30 15467 N 1436.71 1.32449 -0.85411 0
M  V30 15468 C 1437.64 2.31383 -0.313697 0
M  V30 15469 C 1438.62 1.59656 0.586858 0
M  V30 15470 O 1439.81 1.87459 0.507216 0
M  V30 15471 C 1436.94 3.43693 0.499235 0
M  V30 15472 C 1435.89 4.26899 -0.306839 0
M  V30 15473 C 1435.22 5.30966 0.630795 0
M  V30 15474 C 1436.52 4.99318 -1.53229 0
M  V30 15475 H 1438.21 2.76832 -1.14037 0
M  V30 15476 H 1435.76 1.33091 -0.549805 0
M  V30 15477 H 1437.71 4.11944 0.887709 0
M  V30 15478 H 1436.44 2.96971 1.35926 0
M  V30 15479 H 1435.1 3.60294 -0.677061 0
M  V30 15480 H 1434.74 4.80498 1.48765 0
M  V30 15481 H 1434.44 5.87522 0.0954635 0
M  V30 15482 H 1435.97 6.0208 1.01646 0
M  V30 15483 H 1437.38 5.60253 -1.21614 0
M  V30 15484 H 1435.78 5.65596 -2.00552 0
M  V30 15485 H 1436.85 4.27213 -2.29383 0
M  V30 15486 N 1438.19 0.611994 1.45232 0
M  V30 15487 C 1439.12 -0.142449 2.28757 0
M  V30 15488 C 1440.14 -0.827486 1.40202 0
M  V30 15489 O 1441.33 -0.692136 1.64535 0
M  V30 15490 C 1438.43 -1.22296 3.16065 0
M  V30 15491 C 1437.6 -0.624178 4.32924 0
M  V30 15492 C 1436.66 -1.59615 5.01408 0
M  V30 15493 O 1435.68 -1.12073 5.58058 0
M  V30 15494 N 1436.89 -2.93057 5.01097 0
M  V30 15495 H 1439.65 0.574276 2.94147 0
M  V30 15496 H 1437.21 0.451789 1.55469 0
M  V30 15497 H 1439.2 -1.87309 3.58744 0
M  V30 15498 H 1437.77 -1.84215 2.52554 0
M  V30 15499 H 1436.99 0.204141 3.93671 0
M  V30 15500 H 1438.28 -0.204435 5.08389 0
M  V30 15501 H 1437.68 -3.3428 4.5637 0
M  V30 15502 H 1436.24 -3.53481 5.47626 0
M  V30 15503 N 1439.67 -1.53632 0.351409 0
M  V30 15504 C 1440.9 -2.0516 -0.243498 0
M  V30 15505 C 1441.31 -1.22559 -1.44138 0
M  V30 15506 O 1440.65 -0.255726 -1.81911 0
M  V30 15507 C 1440.71 -3.52324 -0.71469 0
M  V30 15508 C 1440.38 -4.55543 0.364598 0
M  V30 15509 C 1441.37 -5.05626 1.20987 0
M  V30 15510 C 1439.06 -4.99593 0.520779 0
M  V30 15511 C 1441.05 -5.98347 2.1968 0
M  V30 15512 C 1438.74 -5.92123 1.51109 0
M  V30 15513 C 1439.74 -6.41389 2.34754 0
M  V30 15514 O 1439.43 -7.32097 3.32098 0
M  V30 15515 H 1439.16 -0.674193 -0.0493948 0
M  V30 15516 H 1441.71 -1.99123 0.503919 0
M  V30 15517 H 1439.94 -3.55852 -1.51348 0
M  V30 15518 H 1441.63 -3.86783 -1.23102 0
M  V30 15519 H 1442.4 -4.72353 1.10033 0
M  V30 15520 H 1438.28 -4.60843 -0.120466 0
M  V30 15521 H 1441.82 -6.36724 2.85005 0
M  V30 15522 H 1437.72 -6.24811 1.62116 0
M  V30 15523 H 1438.48 -7.50053 3.27662 0
M  V30 15524 N 1441.15 -0.0802183 -1.57396 0
M  V30 15525 C 1442.4 0.586573 -1.92982 0
M  V30 15526 C 1442.71 1.70256 -0.962918 0
M  V30 15527 O 1443.92 2.4295 -1.21193 0
M  V30 15528 C 1442.37 1.09475 -3.42846 0
M  V30 15529 C 1441.98 0.0093098 -4.47999 0
M  V30 15530 C 1443.72 1.73512 -3.87419 0
M  V30 15531 C 1441.63 0.532002 -5.89002 0
M  V30 15532 H 1440.56 0.222878 -0.720306 0
M  V30 15533 H 1443.21 -0.153816 -1.82854 0
M  V30 15534 H 1441.59 1.88836 -3.48076 0
M  V30 15535 H 1442.77 -0.765609 -4.54395 0
M  V30 15536 H 1441.08 -0.535345 -4.12944 0
M  V30 15537 H 1443.68 2.13665 -4.90154 0
M  V30 15538 H 1444.02 2.59845 -3.25248 0
M  V30 15539 H 1444.56 1.00758 -3.84828 0
M  V30 15540 H 1441.29 -0.294364 -6.54839 0
M  V30 15541 H 1440.81 1.27425 -5.86108 0
M  V30 15542 H 1442.49 1.00573 -6.39135 0
M  V30 15543 N 1442.63 1.56409 0.193394 0
M  V30 15544 C 1443.59 1.93822 1.22334 0
M  V30 15545 C 1444.59 0.819513 1.3835 0
M  V30 15546 O 1445.78 1.0869 1.36132 0
M  V30 15547 C 1442.91 2.21375 2.59241 0
M  V30 15548 H 1444.1 2.85967 0.903502 0
M  V30 15549 H 1441.66 1.50125 0.43498 0
M  V30 15550 H 1442.39 1.31874 2.96277 0
M  V30 15551 H 1442.18 3.02899 2.48988 0
M  V30 15552 H 1443.67 2.51319 3.33509 0
M  V30 15553 N 1444.1 -0.461169 1.50702 0
M  V30 15554 C 1445.35 -1.21251 1.62186 0
M  V30 15555 C 1445.68 -1.91735 0.326818 0
M  V30 15556 O 1444.93 -1.83212 -0.687879 0
M  V30 15557 C 1445.23 -2.27213 2.75879 0
M  V30 15558 C 1444.9 -1.73912 4.16011 0
M  V30 15559 C 1443.56 -1.59097 4.54138 0
M  V30 15560 C 1445.91 -1.34477 5.03553 0
M  V30 15561 C 1443.24 -1.03285 5.77537 0
M  V30 15562 C 1445.59 -0.801027 6.27508 0
M  V30 15563 C 1444.26 -0.639586 6.64429 0
M  V30 15564 H 1443.53 -0.443689 0.593482 0
M  V30 15565 H 1446.17 -0.507035 1.84666 0
M  V30 15566 H 1444.48 -3.03707 2.47526 0
M  V30 15567 H 1446.18 -2.85124 2.81967 0
M  V30 15568 H 1442.77 -1.86413 3.85938 0
M  V30 15569 H 1446.95 -1.44753 4.74721 0
M  V30 15570 H 1442.21 -0.895316 6.04809 0
M  V30 15571 H 1446.38 -0.486842 6.94696 0
M  V30 15572 H 1444.01 -0.204966 7.59924 0
M  V30 15573 N 1445.58 -1.40446 -0.715026 0
M  V30 15574 C 1446.83 -1.3848 -1.47199 0
M  V30 15575 C 1447.15 0.0119198 -1.94996 0
M  V30 15576 O 1446.42 0.966772 -1.70383 0
M  V30 15577 H 1445 -0.509669 -0.54612 0
M  V30 15578 H 1447.66 -1.75505 -0.847588 0
M  V30 15579 H 1446.76 -2.06002 -2.34456 0
M  V30 15580 N 1447.06 0.947303 -1.25952 0
M  V30 15581 C 1448.34 1.66964 -1.01894 0
M  V30 15582 C 1448.72 2.06192 0.452555 0
M  V30 15583 O 1448.06 1.78098 1.43156 0
M  V30 15584 C 1448.27 2.88643 -1.96179 0
M  V30 15585 C 1449.62 3.60432 -2.24441 0
M  V30 15586 O 1450.65 2.98737 -1.93996 0
M  V30 15587 O 1449.51 4.7154 -2.76247 0
M  V30 15588 H 1446.6 0.730875 -0.386976 0
M  V30 15589 H 1449.15 0.999577 -1.37137 0
M  V30 15590 H 1447.92 2.565 -2.95506 0
M  V30 15591 H 1447.54 3.63377 -1.61379 0
M  V30 15592 N 1448.54 1.07657 1.15099 0
M  V30 15593 C 1449.45 0.711198 2.2356 0
M  V30 15594 C 1450.46 -0.278932 1.7175 0
M  V30 15595 O 1451.64 -0.124788 2.01013 0
M  V30 15596 C 1448.71 0.117855 3.465 0
M  V30 15597 C 1447.77 1.16162 4.13286 0
M  V30 15598 C 1447 0.596494 5.30356 0
M  V30 15599 O 1447.22 -0.586474 5.67377 0
M  V30 15600 O 1446.16 1.34288 5.86729 0
M  V30 15601 H 1449.98 1.61578 2.5715 0
M  V30 15602 H 1447.57 0.84973 1.22882 0
M  V30 15603 H 1449.45 -0.210613 4.20873 0
M  V30 15604 H 1448.12 -0.760008 3.14652 0
M  V30 15605 H 1447.03 1.54249 3.4082 0
M  V30 15606 H 1448.36 2.01149 4.49221 0
M  V30 15607 N 1450.02 -1.31994 0.861122 0
M  V30 15608 C 1450.96 -2.30666 0.299352 0
M  V30 15609 C 1451.96 -1.59133 -0.580779 0
M  V30 15610 O 1453.16 -1.73813 -0.467864 0
M  V30 15611 H 1449.54 -0.747932 0.0781091 0
M  V30 15612 H 1451.51 -2.7553 1.14567 0
M  V30 15613 C 1450.26 -3.44203 -0.491883 0
M  V30 15614 H 1449.58 -3.99412 0.17608 0
M  V30 15615 H 1451.02 -4.15384 -0.850434 0
M  V30 15616 C 1449.48 -2.92042 -1.67967 0
M  V30 15617 O 1450.01 -2.90073 -2.77886 0
M  V30 15618 N 1448.22 -2.48358 -1.50887 0
M  V30 15619 H 1447.76 -2.50159 -0.614683 0
M  V30 15620 H 1447.72 -2.13813 -2.30503 0
M  V30 15621 N 1451.49 -0.619688 -1.44906 0
M  V30 15622 C 1452.74 -0.119397 -2.01747 0
M  V30 15623 C 1453.06 1.25904 -1.48907 0
M  V30 15624 O 1452.33 1.83417 -0.688104 0
M  V30 15625 H 1450.91 -0.0411482 -0.745866 0
M  V30 15626 H 1453.58 -0.803813 -1.77552 0
M  V30 15627 H 1452.67 -0.078368 -3.12002 0
M  V30 15628 N 1452.97 1.53444 -0.359552 0
M  V30 15629 C 1453.94 2.24173 0.477412 0
M  V30 15630 C 1454.94 1.24747 1.01464 0
M  V30 15631 O 1456.13 1.49069 0.901343 0
M  V30 15632 C 1453.26 2.9738 1.66667 0
M  V30 15633 H 1454.45 2.99566 -0.141407 0
M  V30 15634 H 1452 1.55904 -0.111143 0
M  V30 15635 H 1452.74 2.26214 2.32374 0
M  V30 15636 H 1452.52 3.70325 1.28848 0
M  V30 15637 H 1454.01 3.51165 2.25994 0
M  V30 15638 N 1454.45 0.0885642 1.57351 0
M  V30 15639 C 1455.7 -0.57633 1.93291 0
M  V30 15640 C 1456.01 -1.69743 0.971934 0
M  V30 15641 O 1457.22 -2.42304 1.22479 0
M  V30 15642 C 1455.67 -1.07655 3.43422 0
M  V30 15643 C 1455.28 0.0144488 4.47998 0
M  V30 15644 C 1457.03 -1.71455 3.88334 0
M  V30 15645 C 1454.93 -0.500758 5.89276 0
M  V30 15646 H 1453.86 -0.219055 0.721478 0
M  V30 15647 H 1456.51 0.163511 1.8277 0
M  V30 15648 H 1454.9 -1.86988 3.49072 0
M  V30 15649 H 1456.07 0.789696 4.53983 0
M  V30 15650 H 1454.39 0.557237 4.12655 0
M  V30 15651 H 1456.98 -2.11063 4.91281 0
M  V30 15652 H 1457.33 -2.58116 3.26621 0
M  V30 15653 H 1457.86 -0.987159 3.85357 0
M  V30 15654 H 1454.6 0.329088 6.54673 0
M  V30 15655 H 1454.12 -1.24315 5.86776 0
M  V30 15656 H 1455.8 -0.971821 6.3966 0
M  V30 15657 N 1455.93 -1.56509 -0.185096 0
M  V30 15658 C 1456.84 -1.98552 -1.24958 0
M  V30 15659 C 1457.85 -0.894713 -1.49234 0
M  V30 15660 O 1459.03 -1.20126 -1.61653 0
M  V30 15661 C 1456.1 -2.32513 -2.57175 0
M  V30 15662 C 1455.16 -3.55351 -2.40882 0
M  V30 15663 C 1454.39 -3.87683 -3.66794 0
M  V30 15664 O 1454.61 -3.21167 -4.7139 0
M  V30 15665 O 1453.55 -4.8108 -3.61726 0
M  V30 15666 H 1457.37 -2.89342 -0.922756 0
M  V30 15667 H 1454.96 -1.44196 -0.390887 0
M  V30 15668 H 1456.84 -2.55387 -3.35195 0
M  V30 15669 H 1455.51 -1.44888 -2.89464 0
M  V30 15670 H 1454.42 -3.37712 -1.60939 0
M  V30 15671 H 1455.75 -4.43474 -2.13522 0
M  V30 15672 N 1457.41 0.45317 -1.50944 0
M  V30 15673 C 1458.66 1.20076 -1.62064 0
M  V30 15674 C 1458.97 1.92709 -0.335034 0
M  V30 15675 O 1460.17 2.69543 -0.32538 0
M  V30 15676 C 1458.63 2.18283 -2.86148 0
M  V30 15677 C 1458.24 1.5137 -4.21653 0
M  V30 15678 C 1459.98 2.93572 -3.0662 0
M  V30 15679 C 1457.89 2.47968 -5.36904 0
M  V30 15680 H 1456.82 0.451894 -0.603579 0
M  V30 15681 H 1459.47 0.46937 -1.77396 0
M  V30 15682 H 1457.85 2.94789 -2.64415 0
M  V30 15683 H 1459.03 0.805295 -4.53709 0
M  V30 15684 H 1457.34 0.882935 -4.06931 0
M  V30 15685 H 1459.94 3.65903 -3.89897 0
M  V30 15686 H 1460.28 3.54003 -2.1906 0
M  V30 15687 H 1460.81 2.24175 -3.28619 0
M  V30 15688 H 1457.55 1.92249 -6.26674 0
M  V30 15689 H 1457.07 3.16907 -5.09244 0
M  V30 15690 H 1458.75 3.09428 -5.6821 0
M  V30 15691 N 1458.88 1.40823 0.707568 0
M  V30 15692 C 1459.81 1.44485 1.83429 0
M  V30 15693 C 1460.8 0.304848 1.67346 0
M  V30 15694 O 1461.98 0.514605 1.87258 0
M  V30 15695 C 1459.11 1.31458 3.21459 0
M  V30 15696 C 1458.06 2.43145 3.52228 0
M  V30 15697 C 1457.39 2.15189 4.89487 0
M  V30 15698 C 1458.69 3.85489 3.52414 0
M  V30 15699 H 1460.38 2.38781 1.80622 0
M  V30 15700 H 1457.93 1.14931 0.867572 0
M  V30 15701 H 1459.88 1.32635 3.99983 0
M  V30 15702 H 1458.61 0.336422 3.24863 0
M  V30 15703 H 1457.27 2.41231 2.76049 0
M  V30 15704 H 1456.91 1.15745 4.89502 0
M  V30 15705 H 1456.61 2.90022 5.11039 0
M  V30 15706 H 1458.14 2.18062 5.70334 0
M  V30 15707 H 1459.55 3.89183 4.20963 0
M  V30 15708 H 1457.95 4.59906 3.85495 0
M  V30 15709 H 1459.02 4.14499 2.51632 0
M  V30 15710 N 1460.36 -0.94061 1.26453 0
M  V30 15711 C 1461.27 -2.07298 1.09839 0
M  V30 15712 C 1462.29 -1.73971 0.0317477 0
M  V30 15713 O 1463.46 -2.00017 0.235594 0
M  V30 15714 C 1460.53 -3.38847 0.733736 0
M  V30 15715 C 1459.59 -3.85954 1.87985 0
M  V30 15716 C 1458.82 -5.11224 1.5325 0
M  V30 15717 O 1459.05 -5.68743 0.434491 0
M  V30 15718 O 1457.98 -5.53386 2.36743 0
M  V30 15719 H 1461.81 -2.24222 2.04837 0
M  V30 15720 H 1459.39 -1.05763 1.0552 0
M  V30 15721 H 1461.27 -4.17885 0.543131 0
M  V30 15722 H 1459.95 -3.2316 -0.186843 0
M  V30 15723 H 1458.86 -3.07858 2.12542 0
M  V30 15724 H 1460.19 -4.06162 2.78017 0
M  V30 15725 N 1461.84 -1.08266 -1.14527 0
M  V30 15726 C 1462.77 -0.732968 -2.21698 0
M  V30 15727 C 1463.75 0.283917 -1.67714 0
M  V30 15728 O 1464.94 0.154607 -1.93584 0
M  V30 15729 C 1462.07 -0.139935 -3.47018 0
M  V30 15730 C 1461.02 -1.08501 -4.14019 0
M  V30 15731 C 1460.35 -0.354263 -5.33525 0
M  V30 15732 C 1461.65 -2.42254 -4.62721 0
M  V30 15733 H 1463.34 -1.629 -2.51205 0
M  V30 15734 H 1460.89 -0.784696 -1.20742 0
M  V30 15735 H 1462.84 0.1167 -4.21238 0
M  V30 15736 H 1461.56 0.791228 -3.16871 0
M  V30 15737 H 1460.22 -1.32672 -3.41751 0
M  V30 15738 H 1459.87 0.580658 -4.99637 0
M  V30 15739 H 1459.57 -0.984287 -5.79297 0
M  V30 15740 H 1461.09 -0.105648 -6.10509 0
M  V30 15741 H 1462.51 -2.22357 -5.28422 0
M  V30 15742 H 1460.91 -3.00935 -5.1919 0
M  V30 15743 H 1461.98 -3.03884 -3.77866 0
M  V30 15744 N 1463.32 1.31536 -0.86811 0
M  V30 15745 C 1464.57 1.97066 -0.478829 0
M  V30 15746 C 1464.9 1.68469 0.966021 0
M  V30 15747 O 1464.17 0.980166 1.67997 0
M  V30 15748 C 1464.46 3.52533 -0.734313 0
M  V30 15749 C 1464.31 3.90711 -2.22856 0
M  V30 15750 C 1465.63 4.39647 -0.199559 0
M  V30 15751 H 1462.75 0.715813 -0.175444 0
M  V30 15752 H 1465.39 1.55694 -1.08901 0
M  V30 15753 H 1463.54 3.87905 -0.214962 0
M  V30 15754 H 1465.21 3.65451 -2.81502 0
M  V30 15755 H 1463.45 3.39385 -2.70185 0
M  V30 15756 H 1464.13 4.99103 -2.35797 0
M  V30 15757 H 1466.6 4.11088 -0.643853 0
M  V30 15758 H 1465.48 5.47383 -0.407783 0
M  V30 15759 H 1465.74 4.32875 0.898414 0
M  V30 15760 N 1464.8 0.627364 1.44575 0
M  V30 15761 C 1465.75 -0.0920488 2.32418 0
M  V30 15762 C 1466.74 -0.839633 1.47128 0
M  V30 15763 O 1467.95 -0.752958 1.63495 0
M  V30 15764 H 1464.32 -0.0485336 0.750432 0
M  V30 15765 H 1466.29 0.666959 2.90851 0
M  V30 15766 C 1465.04 -1.06262 3.31064 0
M  V30 15767 H 1464.36 -0.4968 3.96701 0
M  V30 15768 H 1465.8 -1.53556 3.95217 0
M  V30 15769 C 1464.26 -2.14601 2.59707 0
M  V30 15770 O 1464.79 -3.2263 2.39317 0
M  V30 15771 N 1463 -1.90431 2.19509 0
M  V30 15772 H 1462.55 -1.02584 2.36293 0
M  V30 15773 H 1462.5 -2.6312 1.72091 0
M  V30 15774 N 1466.28 -1.53251 0.367684 0
M  V30 15775 C 1467.22 -2.27318 -0.4929 0
M  V30 15776 C 1468.22 -1.30376 -1.08159 0
M  V30 15777 O 1469.42 -1.47996 -1.02455 0
M  V30 15778 H 1465.8 -0.730709 -0.177677 0
M  V30 15779 H 1467.77 -2.98005 0.153525 0
M  V30 15780 C 1466.52 -3.07678 -1.61955 0
M  V30 15781 H 1465.84 -3.82117 -1.17587 0
M  V30 15782 H 1467.28 -3.62678 -2.19638 0
M  V30 15783 C 1465.74 -2.18648 -2.5631 0
M  V30 15784 O 1466.27 -1.79869 -3.5918 0
M  V30 15785 N 1464.48 -1.83239 -2.25548 0
M  V30 15786 H 1464.02 -2.14973 -1.4193 0
M  V30 15787 H 1463.98 -1.23957 -2.88933 0
M  V30 15788 N 1467.75 -0.0969077 -1.57302 0
M  V30 15789 C 1469.17 0.25974 -1.57472 0
M  V30 15790 C 1469.37 1.6829 -1.10818 0
M  V30 15791 O 1468.43 2.39972 -0.785466 0
M  V30 15792 C 1469.74 0.0465211 -3.00664 0
M  V30 15793 C 1471.29 0.114131 -3.12792 0
M  V30 15794 C 1471.76 -0.0711175 -4.57945 0
M  V30 15795 N 1473.25 -0.0163438 -4.63197 0
M  V30 15796 C 1473.99 -0.1349 -5.73241 0
M  V30 15797 N 1473.48 -0.308391 -6.92113 0
M  V30 15798 N 1475.28 -0.0760411 -5.62049 0
M  V30 15799 H 1467.43 -1.02673 -1.85935 0
M  V30 15800 H 1469.69 -0.402528 -0.858298 0
M  V30 15801 H 1469.4 -0.936496 -3.39002 0
M  V30 15802 H 1469.27 0.78805 -3.68876 0
M  V30 15803 H 1471.66 1.08765 -2.74325 0
M  V30 15804 H 1471.74 -0.658918 -2.47168 0
M  V30 15805 H 1471.38 -1.04152 -4.97106 0
M  V30 15806 H 1471.31 0.721647 -5.21632 0
M  V30 15807 H 1473.8 0.115134 -3.77725 0
M  V30 15808 H 1474.12 -0.390318 -7.71814 0
M  V30 15809 H 1472.46 -0.344082 -6.94148 0
M  V30 15810 H 1475.65 0.0583778 -4.68064 0
M  V30 15811 H 1475.83 -0.171884 -6.47772 0
M  V30 15812 N 1469.23 1.56605 0.176793 0
M  V30 15813 C 1470.48 1.80875 0.892578 0
M  V30 15814 C 1470.79 0.673245 1.83648 0
M  V30 15815 O 1472 0.800732 2.59423 0
M  V30 15816 C 1470.46 3.20481 1.63768 0
M  V30 15817 C 1470.06 4.41885 0.737685 0
M  V30 15818 C 1471.81 3.54048 2.34202 0
M  V30 15819 C 1469.71 5.72512 1.48271 0
M  V30 15820 H 1468.64 0.674476 0.337042 0
M  V30 15821 H 1471.3 1.82922 0.145574 0
M  V30 15822 H 1469.68 3.12736 2.42924 0
M  V30 15823 H 1470.85 4.60797 -0.0165186 0
M  V30 15824 H 1469.17 4.16153 0.143277 0
M  V30 15825 H 1471.76 4.48886 2.90526 0
M  V30 15826 H 1472.11 2.78665 3.09276 0
M  V30 15827 H 1472.64 3.63322 1.61995 0
M  V30 15828 H 1469.38 6.5091 0.774399 0
M  V30 15829 H 1468.9 5.57586 2.21038 0
M  V30 15830 H 1470.58 6.14274 2.03165 0
M  V30 15831 N 1470.71 -0.445159 1.51182 0
M  V30 15832 C 1471.96 -1.19524 1.63463 0
M  V30 15833 C 1472.28 -1.91377 0.347136 0
M  V30 15834 O 1471.54 -1.83932 -0.668408 0
M  V30 15835 C 1471.84 -2.24274 2.78273 0
M  V30 15836 C 1471.5 -1.6949 4.17833 0
M  V30 15837 C 1470.17 -1.54271 4.558 0
M  V30 15838 C 1472.52 -1.29128 5.04951 0
M  V30 15839 C 1469.85 -0.971532 5.786 0
M  V30 15840 C 1472.2 -0.734426 6.28322 0
M  V30 15841 C 1470.86 -0.569079 6.6507 0
M  V30 15842 H 1470.13 -0.437369 0.598155 0
M  V30 15843 H 1472.78 -0.48742 1.85193 0
M  V30 15844 H 1471.08 -3.01065 2.50734 0
M  V30 15845 H 1472.78 -2.82117 2.84975 0
M  V30 15846 H 1469.37 -1.82309 3.87894 0
M  V30 15847 H 1473.56 -1.39709 4.7623 0
M  V30 15848 H 1468.81 -0.831117 6.05725 0
M  V30 15849 H 1472.99 -0.413133 6.95173 0
M  V30 15850 H 1470.61 -0.124355 7.60098 0
M  V30 15851 N 1472.19 -1.41197 -0.700089 0
M  V30 15852 C 1473.12 -1.38616 -1.82533 0
M  V30 15853 C 1474.13 -0.289047 -1.60213 0
M  V30 15854 O 1475.32 -0.550465 -1.698 0
M  V30 15855 C 1472.42 -1.13815 -3.19217 0
M  V30 15856 C 1471.59 -2.3548 -3.68603 0
M  V30 15857 C 1470.65 -2.06604 -4.83943 0
M  V30 15858 O 1469.68 -2.79604 -4.95792 0
M  V30 15859 N 1470.88 -1.05351 -5.7086 0
M  V30 15860 H 1473.65 -2.35598 -1.8524 0
M  V30 15861 H 1471.21 -1.3575 -0.882238 0
M  V30 15862 H 1473.2 -0.924571 -3.93997 0
M  V30 15863 H 1471.77 -0.254468 -3.11563 0
M  V30 15864 H 1470.99 -2.72569 -2.8478 0
M  V30 15865 H 1472.28 -3.16553 -3.98336 0
M  V30 15866 H 1471.68 -0.449223 -5.63914 0
M  V30 15867 H 1470.23 -0.899819 -6.45559 0
M  V30 15868 N 1473.67 0.933891 -1.2695 0
M  V30 15869 C 1474.89 1.72042 -1.15828 0
M  V30 15870 C 1475.32 1.85975 0.28193 0
M  V30 15871 O 1474.67 1.35528 1.20423 0
M  V30 15872 C 1474.72 3.10112 -1.84019 0
M  V30 15873 O 1473.83 3.96504 -1.13394 0
M  V30 15874 H 1473.17 0.527573 -0.40319 0
M  V30 15875 H 1475.7 1.16914 -1.67905 0
M  V30 15876 H 1475.71 3.60461 -1.91133 0
M  V30 15877 H 1474.38 2.99287 -2.8879 0
M  V30 15878 H 1472.96 3.54948 -1.14307 0
M  V30 15879 N 1475.14 1.08871 1.13951 0
M  V30 15880 C 1476.56 0.817282 1.37086 0
M  V30 15881 C 1476.76 -0.571159 1.93236 0
M  V30 15882 O 1475.82 -1.32708 2.14813 0
M  V30 15883 C 1477.13 1.90386 2.32752 0
M  V30 15884 C 1478.68 1.93043 2.46381 0
M  V30 15885 C 1479.15 3.00828 3.4535 0
M  V30 15886 N 1480.64 3.0003 3.52897 0
M  V30 15887 C 1481.38 3.80073 4.29339 0
M  V30 15888 N 1480.87 4.70008 5.08984 0
M  V30 15889 N 1482.67 3.68355 4.24583 0
M  V30 15890 H 1474.82 1.98393 0.758537 0
M  V30 15891 H 1477.08 0.861229 0.396219 0
M  V30 15892 H 1476.79 2.90233 1.9864 0
M  V30 15893 H 1476.66 1.77722 3.32708 0
M  V30 15894 H 1479.05 0.938382 2.79783 0
M  V30 15895 H 1479.13 2.09785 1.4637 0
M  V30 15896 H 1478.77 4.00242 3.1268 0
M  V30 15897 H 1478.7 2.8133 4.45153 0
M  V30 15898 H 1481.19 2.3485 2.96064 0
M  V30 15899 H 1481.51 5.27678 5.64602 0
M  V30 15900 H 1479.85 4.74047 5.08236 0
M  V30 15901 H 1483.04 2.9746 3.61435 0
M  V30 15902 H 1483.22 4.30974 4.83906 0
M  V30 15903 N 1476.62 -1.31073 0.875073 0
M  V30 15904 C 1477.87 -1.96518 0.488549 0
M  V30 15905 C 1478.2 -1.69144 -0.960243 0
M  V30 15906 O 1477.45 -0.983344 -1.69201 0
M  V30 15907 C 1477.75 -3.50511 0.698351 0
M  V30 15908 C 1477.42 -3.97915 2.12071 0
M  V30 15909 C 1476.08 -4.10571 2.50968 0
M  V30 15910 C 1478.43 -4.22777 3.0481 0
M  V30 15911 C 1475.76 -4.45442 3.81836 0
M  V30 15912 C 1478.11 -4.59114 4.35198 0
M  V30 15913 C 1476.77 -4.69977 4.74002 0
M  V30 15914 H 1476.04 -0.719111 0.178773 0
M  V30 15915 H 1478.69 -1.56117 1.10904 0
M  V30 15916 H 1477 -3.918 -0.00523937 0
M  V30 15917 H 1478.69 -3.99205 0.379031 0
M  V30 15918 H 1475.28 -3.88565 1.80874 0
M  V30 15919 H 1479.47 -4.12489 2.75983 0
M  V30 15920 H 1474.72 -4.52051 4.11655 0
M  V30 15921 H 1478.9 -4.77303 5.07105 0
M  V30 15922 H 1476.52 -4.96753 5.75448 0
M  V30 15923 N 1478.1 -0.635022 -1.4424 0
M  V30 15924 C 1479.03 0.106038 -2.28955 0
M  V30 15925 C 1480.05 0.805076 -1.415 0
M  V30 15926 O 1481.23 0.665872 -1.65615 0
M  V30 15927 C 1478.33 1.17252 -3.1797 0
M  V30 15928 C 1477.51 0.555225 -4.33862 0
M  V30 15929 C 1476.57 1.51618 -5.03883 0
M  V30 15930 O 1475.59 1.03181 -5.5977 0
M  V30 15931 N 1476.79 2.85048 -5.05696 0
M  V30 15932 H 1479.56 -0.620999 -2.93196 0
M  V30 15933 H 1477.12 -0.476466 -1.5473 0
M  V30 15934 H 1479.11 1.81578 -3.61679 0
M  V30 15935 H 1477.68 1.80174 -2.55453 0
M  V30 15936 H 1476.9 -0.266745 -3.93296 0
M  V30 15937 H 1478.19 0.123529 -5.0865 0
M  V30 15938 H 1477.59 3.26977 -4.6163 0
M  V30 15939 H 1476.15 3.44724 -5.5318 0
M  V30 15940 N 1479.58 1.53054 -0.375806 0
M  V30 15941 C 1480.53 2.22837 0.482477 0
M  V30 15942 C 1481.51 1.22728 1.04051 0
M  V30 15943 O 1482.7 1.48129 0.968854 0
M  V30 15944 C 1479.83 3.02869 1.61634 0
M  V30 15945 C 1478.92 4.10362 1.07069 0
M  V30 15946 N 1479.31 5.05187 0.248878 0
M  V30 15947 C 1477.61 4.25251 1.34452 0
M  V30 15948 C 1478.31 5.81678 -0.0510458 0
M  V30 15949 N 1477.29 5.40817 0.549318 0
M  V30 15950 H 1481.09 2.93506 -0.1521 0
M  V30 15951 H 1478.6 1.6135 -0.184373 0
M  V30 15952 H 1480.6 3.51387 2.24349 0
M  V30 15953 H 1479.26 2.33732 2.25387 0
M  V30 15954 H 1480.27 5.17777 -0.112766 0
M  V30 15955 H 1476.95 3.67342 1.98408 0
M  V30 15956 H 1478.34 6.68073 -0.716061 0
M  V30 15957 N 1481.06 0.105248 1.57248 0
M  V30 15958 C 1482 -0.850012 2.14577 0
M  V30 15959 C 1482.97 -1.27294 1.06703 0
M  V30 15960 O 1484.16 -1.35289 1.34542 0
M  V30 15961 C 1481.3 -2.09993 2.73856 0
M  V30 15962 C 1480.41 -1.72662 3.95995 0
M  V30 15963 C 1479.55 -2.92517 4.43404 0
M  V30 15964 C 1478.59 -2.5136 5.58108 0
M  V30 15965 N 1477.72 -3.64082 6.00324 0
M  V30 15966 H 1482.56 -0.354282 2.95887 0
M  V30 15967 H 1480.1 -0.163192 1.46192 0
M  V30 15968 H 1482.06 -2.83208 3.06348 0
M  V30 15969 H 1480.69 -2.57048 1.95259 0
M  V30 15970 H 1479.74 -0.893754 3.69752 0
M  V30 15971 H 1481.05 -1.38406 4.79213 0
M  V30 15972 H 1480.21 -3.73973 4.77734 0
M  V30 15973 H 1478.94 -3.2999 3.59107 0
M  V30 15974 H 1477.95 -1.68333 5.23397 0
M  V30 15975 H 1479.17 -2.15019 6.44161 0
M  V30 15976 H 1477.12 -4.01255 5.18971 0
M  V30 15977 H 1477.04 -3.33705 6.78363 0
M  V30 15978 H 1478.31 -4.46019 6.39287 0
M  V30 15979 N 1482.53 -1.56697 -0.168486 0
M  V30 15980 C 1483.48 -1.96628 -1.20855 0
M  V30 15981 C 1484.45 -0.830623 -1.4384 0
M  V30 15982 O 1485.64 -1.09097 -1.56533 0
M  V30 15983 C 1482.78 -2.3338 -2.5422 0
M  V30 15984 C 1481.89 -3.60137 -2.3859 0
M  V30 15985 C 1481.02 -3.86088 -3.64842 0
M  V30 15986 C 1480.06 -5.06184 -3.44157 0
M  V30 15987 N 1479.2 -5.28254 -4.62485 0
M  V30 15988 H 1484.04 -2.8529 -0.86102 0
M  V30 15989 H 1481.58 -1.41162 -0.413741 0
M  V30 15990 H 1483.54 -2.52711 -3.31953 0
M  V30 15991 H 1482.17 -1.47825 -2.86963 0
M  V30 15992 H 1481.22 -3.48704 -1.52019 0
M  V30 15993 H 1482.53 -4.48028 -2.19254 0
M  V30 15994 H 1481.68 -4.05802 -4.5101 0
M  V30 15995 H 1480.42 -2.96578 -3.8716 0
M  V30 15996 H 1479.43 -4.86366 -2.56376 0
M  V30 15997 H 1480.65 -5.97228 -3.23258 0
M  V30 15998 H 1478.6 -4.41695 -4.85017 0
M  V30 15999 H 1478.52 -6.10373 -4.46072 0
M  V30 16000 H 1479.78 -5.52448 -5.49928 0
M  V30 16001 N 1484.01 0.437135 -1.51416 0
M  V30 16002 C 1485.24 1.20898 -1.67903 0
M  V30 16003 C 1485.66 1.85009 -0.376458 0
M  V30 16004 O 1485.01 1.7072 0.645051 0
M  V30 16005 C 1485.06 2.29286 -2.79482 0
M  V30 16006 O 1484.78 1.67798 -4.04692 0
M  V30 16007 C 1486.29 3.19561 -3.07238 0
M  V30 16008 H 1483.51 0.364381 -0.563442 0
M  V30 16009 H 1486.05 0.517931 -1.97833 0
M  V30 16010 H 1484.2 2.94107 -2.5215 0
M  V30 16011 H 1484.62 2.39433 -4.6666 0
M  V30 16012 H 1486.09 3.91748 -3.88893 0
M  V30 16013 H 1486.57 3.80327 -2.19654 0
M  V30 16014 H 1487.18 2.60441 -3.3623 0
M  V30 16015 N 1485.49 1.41566 0.692592 0
M  V30 16016 C 1486.74 1.41292 1.4548 0
M  V30 16017 C 1487.07 0.0229093 1.94186 0
M  V30 16018 O 1486.34 -0.949849 1.6973 0
M  V30 16019 C 1486.63 2.42225 2.66457 0
M  V30 16020 C 1486.48 3.90345 2.23496 0
M  V30 16021 C 1487.8 2.40374 3.68658 0
M  V30 16022 H 1484.92 0.51453 0.527663 0
M  V30 16023 H 1487.56 1.72862 0.788598 0
M  V30 16024 H 1485.71 2.15435 3.23296 0
M  V30 16025 H 1487.38 4.2805 1.71962 0
M  V30 16026 H 1485.63 4.05068 1.55249 0
M  V30 16027 H 1486.3 4.56518 3.10314 0
M  V30 16028 H 1488.77 2.64156 3.21498 0
M  V30 16029 H 1487.65 3.13004 4.5091 0
M  V30 16030 H 1487.91 1.42338 4.1856 0
M  V30 16031 N 1486.97 -0.927146 1.27443 0
M  V30 16032 C 1488.21 -1.67775 1.14991 0
M  V30 16033 C 1488.57 -1.90029 -0.301107 0
M  V30 16034 O 1487.86 -1.47997 -1.21686 0
M  V30 16035 C 1488.06 -3.0472 1.86764 0
M  V30 16036 C 1487.89 -2.95829 3.38696 0
M  V30 16037 C 1486.66 -2.9808 4.08015 0
M  V30 16038 C 1488.85 -2.74905 4.34663 0
M  V30 16039 N 1486.84 -2.79636 5.46513 0
M  V30 16040 C 1488.21 -2.65172 5.60432 0
M  V30 16041 C 1490.26 -2.59797 4.24747 0
M  V30 16042 C 1488.96 -2.41872 6.77415 0
M  V30 16043 C 1490.99 -2.37874 5.41452 0
M  V30 16044 C 1490.35 -2.28884 6.66177 0
M  V30 16045 H 1486.45 -0.620709 0.475651 0
M  V30 16046 H 1489.04 -1.09605 1.60919 0
M  V30 16047 H 1487.21 -3.61002 1.43291 0
M  V30 16048 H 1488.94 -3.68722 1.66812 0
M  V30 16049 H 1485.69 -3.08329 3.59486 0
M  V30 16050 H 1486.12 -2.73544 6.19276 0
M  V30 16051 H 1490.76 -2.65506 3.29039 0
M  V30 16052 H 1488.48 -2.34903 7.73205 0
M  V30 16053 H 1492.06 -2.27069 5.35659 0
M  V30 16054 H 1490.94 -2.12149 7.54959 0
M  V30 16055 N 1488.45 -1.09474 -1.13372 0
M  V30 16056 C 1489.4 -0.704018 -2.16858 0
M  V30 16057 C 1490.38 0.281867 -1.58412 0
M  V30 16058 O 1491.57 0.0921582 -1.7676 0
M  V30 16059 C 1488.7 -0.126682 -3.43066 0
M  V30 16060 C 1487.79 -1.13901 -4.08518 0
M  V30 16061 N 1488.18 -2.3263 -4.49129 0
M  V30 16062 C 1486.48 -0.977263 -4.35162 0
M  V30 16063 C 1487.18 -2.9703 -5.00148 0
M  V30 16064 N 1486.15 -2.24588 -4.95037 0
M  V30 16065 H 1489.96 -1.60796 -2.46012 0
M  V30 16066 H 1487.47 -0.97103 -1.30172 0
M  V30 16067 H 1489.47 0.171257 -4.16548 0
M  V30 16068 H 1488.13 0.772105 -3.15386 0
M  V30 16069 H 1489.14 -2.70218 -4.41817 0
M  V30 16070 H 1485.81 -0.1332 -4.17287 0
M  V30 16071 H 1487.2 -3.97966 -5.41362 0
M  V30 16072 N 1489.92 1.30607 -0.882012 0
M  V30 16073 C 1491.17 1.95531 -0.495038 0
M  V30 16074 C 1491.49 1.70418 0.96005 0
M  V30 16075 O 1492.69 2.29301 1.45373 0
M  V30 16076 C 1491.15 3.50094 -0.834382 0
M  V30 16077 C 1490.76 3.84031 -2.30704 0
M  V30 16078 C 1492.5 4.21347 -0.516463 0
M  V30 16079 C 1490.41 5.31759 -2.58817 0
M  V30 16080 H 1489.34 0.731854 -0.181399 0
M  V30 16081 H 1491.99 1.486 -1.07658 0
M  V30 16082 H 1490.37 3.95582 -0.181961 0
M  V30 16083 H 1491.54 3.49463 -3.00353 0
M  V30 16084 H 1489.86 3.25874 -2.5922 0
M  V30 16085 H 1492.46 5.30051 -0.703576 0
M  V30 16086 H 1492.8 4.12731 0.543935 0
M  V30 16087 H 1493.33 3.81533 -1.12595 0
M  V30 16088 H 1490.07 5.45422 -3.63586 0
M  V30 16089 H 1489.59 5.67637 -1.93774 0
M  V30 16090 H 1491.27 5.9916 -2.44165 0
M  V30 16091 N 1491.4 0.642663 1.43901 0
M  V30 16092 C 1492.33 -0.0938945 2.29008 0
M  V30 16093 C 1493.35 -0.797561 1.41925 0
M  V30 16094 O 1494.54 -0.65708 1.65966 0
M  V30 16095 C 1491.64 -1.15564 3.18588 0
M  V30 16096 C 1490.81 -0.532208 4.3415 0
M  V30 16097 C 1489.87 -1.48943 5.0468 0
M  V30 16098 O 1488.89 -1.00211 5.60309 0
M  V30 16099 N 1490.1 -2.82362 5.072 0
M  V30 16100 H 1492.86 0.636539 2.92862 0
M  V30 16101 H 1490.42 0.484665 1.54475 0
M  V30 16102 H 1492.41 -1.79658 3.62636 0
M  V30 16103 H 1490.98 -1.78816 2.56405 0
M  V30 16104 H 1490.2 0.287598 3.93149 0
M  V30 16105 H 1491.49 -0.0965526 5.08708 0
M  V30 16106 H 1490.89 -3.24524 4.63358 0
M  V30 16107 H 1489.45 -3.41786 5.55001 0
M  V30 16108 N 1492.88 -1.52852 0.383918 0
M  V30 16109 C 1494.13 -2.0151 -0.199989 0
M  V30 16110 C 1494.46 -1.27058 -1.47263 0
M  V30 16111 O 1493.71 -0.357819 -1.92401 0
M  V30 16112 C 1494.01 -3.53602 -0.519674 0
M  V30 16113 C 1493.68 -4.46032 0.660789 0
M  V30 16114 C 1492.34 -4.71018 0.984646 0
M  V30 16115 C 1494.69 -5.00602 1.45077 0
M  V30 16116 C 1492.02 -5.47824 2.10013 0
M  V30 16117 C 1494.37 -5.78627 2.55682 0
M  V30 16118 C 1493.03 -6.01894 2.88582 0
M  V30 16119 H 1492.3 -0.737377 -0.0731812 0
M  V30 16120 H 1494.95 -1.843 0.520157 0
M  V30 16121 H 1493.26 -3.68856 -1.32108 0
M  V30 16122 H 1494.95 -3.88739 -0.984011 0
M  V30 16123 H 1491.54 -4.26745 0.398359 0
M  V30 16124 H 1495.73 -4.81228 1.21381 0
M  V30 16125 H 1490.98 -5.64066 2.3588 0
M  V30 16126 H 1495.16 -6.19914 3.173 0
M  V30 16127 H 1492.78 -6.61192 3.75138 0
M  V30 16128 N 1494.36 -0.113586 -1.5719 0
M  V30 16129 C 1495.59 0.553592 -1.99356 0
M  V30 16130 C 1496 1.60567 -0.993154 0
M  V30 16131 O 1495.36 1.82494 0.0147252 0
M  V30 16132 C 1495.41 1.18462 -3.41539 0
M  V30 16133 O 1495.13 0.174602 -4.37752 0
M  V30 16134 C 1496.63 1.93564 -3.98808 0
M  V30 16135 H 1493.85 0.146998 -0.6547 0
M  V30 16136 H 1496.4 -0.198329 -2.03536 0
M  V30 16137 H 1494.55 1.88736 -3.38316 0
M  V30 16138 H 1494.97 0.632395 -5.20674 0
M  V30 16139 H 1496.44 2.33051 -5.00391 0
M  V30 16140 H 1496.92 2.80874 -3.37648 0
M  V30 16141 H 1497.52 1.28066 -4.0556 0
M  V30 16142 N 1495.84 1.56784 0.160173 0
M  V30 16143 C 1496.8 1.96373 1.18195 0
M  V30 16144 C 1497.8 0.848674 1.3658 0
M  V30 16145 O 1498.99 1.11553 1.33796 0
M  V30 16146 C 1496.12 2.26824 2.54487 0
M  V30 16147 H 1497.32 2.87819 0.842641 0
M  V30 16148 H 1494.87 1.51014 0.403038 0
M  V30 16149 H 1495.6 1.38129 2.93413 0
M  V30 16150 H 1495.39 3.08112 2.42507 0
M  V30 16151 H 1496.88 2.58337 3.28104 0
M  V30 16152 N 1497.32 -0.429099 1.51646 0
M  V30 16153 C 1498.59 -1.18958 1.55269 0
M  V30 16154 C 1498.97 -2.08633 0.321816 0
M  V30 16155 O 1498.32 -2.1775 -0.69261 0
M  V30 16156 C 1498.53 -1.98427 2.87102 0
M  V30 16157 C 1499.88 -2.55185 3.39361 0
M  V30 16158 O 1500.9 -2.08629 2.88708 0
M  V30 16159 O 1499.76 -3.40119 4.27763 0
M  V30 16160 H 1496.86 -0.542041 0.624596 0
M  V30 16161 H 1499.4 -0.437499 1.63964 0
M  V30 16162 H 1498.17 -1.32613 3.68143 0
M  V30 16163 H 1497.8 -2.80683 2.81608 0
M  V30 16164 N 1498.79 -1.41931 -0.685074 0
M  V30 16165 C 1499.7 -1.46985 -1.82846 0
M  V30 16166 C 1500.72 -0.359487 -1.70246 0
M  V30 16167 O 1501.9 -0.608824 -1.91977 0
M  V30 16168 C 1498.96 -1.36001 -3.18912 0
M  V30 16169 C 1498.02 -2.57442 -3.43543 0
M  V30 16170 C 1497.25 -2.46972 -4.73118 0
M  V30 16171 O 1497.48 -1.49999 -5.50324 0
M  V30 16172 O 1496.41 -3.36922 -4.98766 0
M  V30 16173 H 1500.24 -2.4347 -1.81538 0
M  V30 16174 H 1497.82 -1.23583 -0.839497 0
M  V30 16175 H 1499.7 -1.32198 -4.00127 0
M  V30 16176 H 1498.38 -0.426366 -3.2088 0
M  V30 16177 H 1497.29 -2.66821 -2.62217 0
M  V30 16178 H 1498.62 -3.49671 -3.46398 0
M  V30 16179 N 1500.27 0.920374 -1.27933 0
M  V30 16180 C 1501.22 2.02196 -1.1129 0
M  V30 16181 C 1502.19 1.66096 -0.0118871 0
M  V30 16182 O 1503.37 1.8999 -0.175586 0
M  V30 16183 C 1500.51 3.36312 -0.77383 0
M  V30 16184 C 1499.63 3.85322 -1.95322 0
M  V30 16185 C 1498.76 5.07919 -1.55537 0
M  V30 16186 C 1497.8 5.49244 -2.7018 0
M  V30 16187 N 1496.94 6.63034 -2.30933 0
M  V30 16188 H 1501.78 2.15764 -2.05548 0
M  V30 16189 H 1499.31 1.05691 -1.02312 0
M  V30 16190 H 1501.27 4.13451 -0.558024 0
M  V30 16191 H 1499.9 3.22531 0.131806 0
M  V30 16192 H 1498.95 3.04399 -2.28135 0
M  V30 16193 H 1500.27 4.11915 -2.81296 0
M  V30 16194 H 1499.42 5.92581 -1.30123 0
M  V30 16195 H 1498.16 4.8312 -0.666818 0
M  V30 16196 H 1497.16 4.63127 -2.96299 0
M  V30 16197 H 1498.39 5.76035 -3.59667 0
M  V30 16198 H 1496.34 6.39878 -1.44539 0
M  V30 16199 H 1496.25 6.89319 -3.10444 0
M  V30 16200 H 1497.52 7.51018 -2.08786 0
M  V30 16201 N 1501.75 1.10074 1.1279 0
M  V30 16202 C 1502.98 0.862906 1.88047 0
M  V30 16203 C 1503.39 -0.586346 1.79464 0
M  V30 16204 O 1502.75 -1.40402 1.16591 0
M  V30 16205 C 1502.8 1.29784 3.37399 0
M  V30 16206 O 1502.52 2.69026 3.4577 0
M  V30 16207 C 1504.02 1.09336 4.29605 0
M  V30 16208 H 1501.24 0.309981 0.595108 0
M  V30 16209 H 1503.79 1.46444 1.42738 0
M  V30 16210 H 1501.94 0.740056 3.80266 0
M  V30 16211 H 1502.36 2.87532 4.38663 0
M  V30 16212 H 1503.83 1.44687 5.327 0
M  V30 16213 H 1504.31 0.031679 4.39189 0
M  V30 16214 H 1504.91 1.63743 3.92516 0
M  V30 16215 N 1503.23 -1.30138 0.888926 0
M  V30 16216 C 1504.16 -2.3047 0.374934 0
M  V30 16217 C 1505.14 -1.61156 -0.544322 0
M  V30 16218 O 1506.32 -1.88738 -0.457337 0
M  V30 16219 C 1503.45 -3.44896 -0.407935 0
M  V30 16220 C 1502.41 -4.25935 0.419916 0
M  V30 16221 C 1501.73 -5.32452 -0.489797 0
M  V30 16222 C 1503.03 -4.9508 1.66413 0
M  V30 16223 H 1504.73 -2.73711 1.21337 0
M  V30 16224 H 1502.27 -1.31586 0.584899 0
M  V30 16225 H 1504.23 -4.14153 -0.778177 0
M  V30 16226 H 1502.95 -3.0047 -1.28005 0
M  V30 16227 H 1501.61 -3.58372 0.772348 0
M  V30 16228 H 1501.26 -4.84273 -1.35974 0
M  V30 16229 H 1500.96 -5.87569 0.0603412 0
M  V30 16230 H 1502.48 -6.04563 -0.856468 0
M  V30 16231 H 1503.9 -5.56831 1.36425 0
M  V30 16232 H 1502.29 -5.6008 2.15477 0
M  V30 16233 H 1503.36 -4.20981 2.4063 0
M  V30 16234 N 1504.71 -0.650285 -1.43559 0
M  V30 16235 C 1505.95 -0.159832 -2.01066 0
M  V30 16236 C 1506.27 1.23246 -1.51887 0
M  V30 16237 O 1507.47 1.81797 -2.01648 0
M  V30 16238 C 1505.93 -0.23494 -3.59132 0
M  V30 16239 C 1505.54 -1.62975 -4.17305 0
M  V30 16240 C 1507.28 0.198061 -4.24038 0
M  V30 16241 C 1505.19 -1.65894 -5.67656 0
M  V30 16242 H 1504.12 -0.0559899 -0.751918 0
M  V30 16243 H 1506.77 -0.811891 -1.64562 0
M  V30 16244 H 1505.15 0.484573 -3.93024 0
M  V30 16245 H 1506.33 -2.37438 -3.94918 0
M  V30 16246 H 1504.64 -2.00847 -3.64759 0
M  V30 16247 H 1507.24 0.196054 -5.3434 0
M  V30 16248 H 1507.58 1.22896 -3.97747 0
M  V30 16249 H 1508.11 -0.469602 -3.95018 0
M  V30 16250 H 1504.85 -2.66883 -5.9871 0
M  V30 16251 H 1504.37 -0.957519 -5.92108 0
M  V30 16252 H 1506.05 -1.40137 -6.31641 0
M  V30 16253 N 1506.18 1.52647 -0.392018 0
M  V30 16254 C 1507.41 2.06511 0.191815 0
M  V30 16255 C 1507.83 1.26162 1.39516 0
M  V30 16256 O 1507.19 0.287373 1.79008 0
M  V30 16257 C 1507.24 3.56571 0.537512 0
M  V30 16258 O 1506.34 3.78774 1.63106 0
M  V30 16259 H 1505.68 0.663647 0.0216546 0
M  V30 16260 H 1508.21 1.96779 -0.560274 0
M  V30 16261 H 1508.22 4.00059 0.801044 0
M  V30 16262 H 1506.9 4.14489 -0.342239 0
M  V30 16263 H 1505.48 3.47175 1.36103 0
M  V30 16264 N 1507.66 0.121921 1.57128 0
M  V30 16265 C 1508.89 -0.546325 2.00075 0
M  V30 16266 C 1509.31 -1.59245 1.00113 0
M  V30 16267 O 1508.67 -1.8128 -0.0267687 0
M  V30 16268 C 1508.72 -1.14651 3.41888 0
M  V30 16269 O 1507.82 -2.26199 3.4483 0
M  V30 16270 H 1507.16 -0.136184 0.649885 0
M  V30 16271 H 1509.69 0.211257 2.03506 0
M  V30 16272 H 1509.7 -1.48133 3.80159 0
M  V30 16273 H 1508.38 -0.380273 4.14158 0
M  V30 16274 H 1506.96 -1.94134 3.18381 0
M  V30 16275 N 1509.14 -1.56867 -0.151857 0
M  V30 16276 C 1510.37 -1.87601 -0.884347 0
M  V30 16277 C 1510.79 -0.710419 -1.74168 0
M  V30 16278 O 1510.15 0.340103 -1.78081 0
M  V30 16279 C 1510.2 -3.16887 -1.72091 0
M  V30 16280 O 1509.3 -3.00479 -2.82464 0
M  V30 16281 H 1508.64 -0.616509 -0.246603 0
M  V30 16282 H 1511.17 -2.04092 -0.144135 0
M  V30 16283 H 1511.18 -3.48785 -2.11691 0
M  V30 16284 H 1509.86 -4.01327 -1.09131 0
M  V30 16285 H 1508.43 -2.79978 -2.46306 0
M  V30 16286 N 1510.62 0.421051 -1.51871 0
M  V30 16287 C 1511.9 1.18133 -1.55897 0
M  V30 16288 C 1512.28 2.08459 -0.332876 0
M  V30 16289 O 1511.62 2.18114 0.681052 0
M  V30 16290 C 1511.83 1.96902 -2.88151 0
M  V30 16291 C 1513.18 2.53382 -3.4071 0
M  V30 16292 O 1514.21 2.07095 -2.89811 0
M  V30 16293 O 1513.06 3.37846 -4.29561 0
M  V30 16294 H 1510.16 0.538721 -0.627462 0
M  V30 16295 H 1512.7 0.428798 -1.64193 0
M  V30 16296 H 1511.48 1.30659 -3.68841 0
M  V30 16297 H 1511.1 2.79185 -2.83093 0
M  V30 16298 N 1512.1 1.42293 0.677538 0
M  V30 16299 C 1513.37 1.331 1.43331 0
M  V30 16300 C 1513.75 -0.0329227 2.11074 0
M  V30 16301 O 1513.1 -1.04826 2.03036 0
M  V30 16302 C 1513.31 2.49725 2.438 0
M  V30 16303 C 1514.66 2.91716 3.08524 0
M  V30 16304 O 1515.68 2.49596 2.54127 0
M  V30 16305 O 1514.54 3.64609 4.07091 0
M  V30 16306 H 1511.64 0.524758 0.639185 0
M  V30 16307 H 1514.18 1.54294 0.706493 0
M  V30 16308 H 1512.95 3.40663 1.92522 0
M  V30 16309 H 1512.58 2.30503 3.23966 0
M  V30 16310 N 1513.57 -0.913576 1.28419 0
M  V30 16311 C 1514.54 -1.99757 1.12382 0
M  V30 16312 C 1515.54 -1.60675 0.063435 0
M  V30 16313 O 1516.73 -1.71433 0.30923 0
M  V30 16314 C 1513.86 -3.33307 0.715506 0
M  V30 16315 H 1515.05 -2.15414 2.08655 0
M  V30 16316 H 1512.61 -1.09626 1.11408 0
M  V30 16317 H 1513.34 -3.23351 -0.247977 0
M  V30 16318 H 1513.13 -3.63034 1.4815 0
M  V30 16319 H 1514.62 -4.12882 0.625953 0
M  V30 16320 N 1515.05 -1.1067 -1.12204 0
M  V30 16321 C 1515.96 -0.770221 -2.21596 0
M  V30 16322 C 1516.98 0.233297 -1.72429 0
M  V30 16323 O 1518.15 0.0714493 -2.01273 0
M  V30 16324 C 1515.22 -0.209682 -3.46065 0
M  V30 16325 C 1514.28 -1.27079 -4.1006 0
M  V30 16326 C 1513.51 -0.736899 -5.28588 0
M  V30 16327 O 1513.74 0.435838 -5.68732 0
M  V30 16328 O 1512.67 -1.49797 -5.82962 0
M  V30 16329 H 1516.5 -1.6834 -2.52776 0
M  V30 16330 H 1514.08 -0.882012 -1.20586 0
M  V30 16331 H 1515.96 0.0989516 -4.21284 0
M  V30 16332 H 1514.64 0.676316 -3.16556 0
M  V30 16333 H 1513.55 -1.63231 -3.3661 0
M  V30 16334 H 1514.88 -2.12989 -4.4373 0
M  V30 16335 N 1516.53 1.29665 -0.895815 0
M  V30 16336 C 1517.78 1.94995 -0.515749 0
M  V30 16337 C 1518.09 1.71427 0.94192 0
M  V30 16338 O 1519.3 2.3083 1.42933 0
M  V30 16339 C 1517.75 3.4919 -0.871468 0
M  V30 16340 C 1517.36 3.81562 -2.34764 0
M  V30 16341 C 1519.11 4.20775 -0.561123 0
M  V30 16342 C 1517.01 5.28984 -2.64442 0
M  V30 16343 H 1515.94 0.729889 -0.189151 0
M  V30 16344 H 1518.59 1.4745 -1.09228 0
M  V30 16345 H 1516.98 3.95366 -0.223908 0
M  V30 16346 H 1518.15 3.46258 -3.04043 0
M  V30 16347 H 1516.47 3.23107 -2.62661 0
M  V30 16348 H 1519.06 5.29275 -0.759755 0
M  V30 16349 H 1519.41 4.13285 0.500129 0
M  V30 16350 H 1519.94 3.80317 -1.16635 0
M  V30 16351 H 1516.68 5.41535 -3.69351 0
M  V30 16352 H 1516.2 5.6555 -1.99784 0
M  V30 16353 H 1517.88 5.96536 -2.50506 0
M  V30 16354 N 1518.01 0.657889 1.43212 0
M  V30 16355 C 1518.94 -0.0695999 2.29094 0
M  V30 16356 C 1519.95 -0.782463 1.42763 0
M  V30 16357 O 1521.14 -0.63944 1.66654 0
M  V30 16358 C 1518.24 -1.12178 3.19796 0
M  V30 16359 C 1517.42 -0.486131 4.3469 0
M  V30 16360 C 1516.47 -1.43582 5.06232 0
M  V30 16361 O 1515.5 -0.942622 5.61341 0
M  V30 16362 N 1516.7 -2.76966 5.10167 0
M  V30 16363 H 1519.47 0.667565 2.92171 0
M  V30 16364 H 1517.03 0.501022 1.53953 0
M  V30 16365 H 1519.02 -1.75801 3.64522 0
M  V30 16366 H 1517.59 -1.76087 2.58287 0
M  V30 16367 H 1516.81 0.329281 3.92822 0
M  V30 16368 H 1518.1 -0.0425918 5.08782 0
M  V30 16369 H 1517.5 -3.19592 4.66774 0
M  V30 16370 H 1516.05 -3.3588 5.58595 0
M  V30 16371 N 1519.49 -1.52437 0.400108 0
M  V30 16372 C 1520.73 -2.0201 -0.17887 0
M  V30 16373 C 1521.07 -1.2856 -1.45554 0
M  V30 16374 O 1520.34 -0.389236 -1.90565 0
M  V30 16375 C 1520.62 -3.57453 -0.435784 0
M  V30 16376 C 1520.48 -4.41562 0.85693 0
M  V30 16377 C 1521.8 -4.228 -1.2218 0
M  V30 16378 H 1518.91 -0.734256 -0.063535 0
M  V30 16379 H 1521.56 -1.82406 0.531801 0
M  V30 16380 H 1519.71 -3.74288 -1.04117 0
M  V30 16381 H 1521.38 -4.36456 1.49344 0
M  V30 16382 H 1519.62 -4.08138 1.46989 0
M  V30 16383 H 1520.29 -5.48374 0.631675 0
M  V30 16384 H 1522.77 -4.10009 -0.709359 0
M  V30 16385 H 1521.64 -5.3152 -1.37031 0
M  V30 16386 H 1521.91 -3.81153 -2.23998 0
M  V30 16387 N 1520.96 -0.130252 -1.57061 0
M  V30 16388 C 1522.21 0.519478 -1.96654 0
M  V30 16389 C 1522.57 1.63568 -1.01308 0
M  V30 16390 O 1521.86 1.91547 -0.0450944 0
M  V30 16391 C 1522.05 1.08776 -3.40445 0
M  V30 16392 C 1521.88 0.0281442 -4.49691 0
M  V30 16393 C 1520.65 -0.407544 -5.03654 0
M  V30 16394 C 1522.85 -0.757073 -5.08697 0
M  V30 16395 N 1520.83 -1.45175 -5.96488 0
M  V30 16396 C 1522.2 -1.65219 -5.97581 0
M  V30 16397 C 1524.26 -0.806718 -4.91321 0
M  V30 16398 C 1522.96 -2.59266 -6.7095 0
M  V30 16399 C 1524.99 -1.73494 -5.65379 0
M  V30 16400 C 1524.35 -2.61761 -6.53957 0
M  V30 16401 H 1520.45 0.159387 -0.765585 0
M  V30 16402 H 1523.03 -0.220978 -1.93442 0
M  V30 16403 H 1521.2 1.79788 -3.44283 0
M  V30 16404 H 1522.93 1.70273 -3.67137 0
M  V30 16405 H 1519.69 -0.0129839 -4.73598 0
M  V30 16406 H 1520.11 -1.97311 -6.47609 0
M  V30 16407 H 1524.76 -0.138406 -4.22573 0
M  V30 16408 H 1522.47 -3.27105 -7.38937 0
M  V30 16409 H 1526.06 -1.77894 -5.53936 0
M  V30 16410 H 1524.94 -3.32418 -7.10259 0
M  V30 16411 N 1522.44 1.56945 0.143535 0
M  V30 16412 C 1523.39 1.99479 1.19628 0
M  V30 16413 C 1524.39 0.887733 1.44276 0
M  V30 16414 O 1525.59 1.07292 1.44528 0
M  V30 16415 H 1521.97 0.635049 0.402761 0
M  V30 16416 H 1523.94 2.87171 0.810877 0
M  V30 16417 C 1522.69 2.39436 2.52123 0
M  V30 16418 H 1522.01 3.24176 2.33987 0
M  V30 16419 H 1523.45 2.73017 3.24404 0
M  V30 16420 C 1521.91 1.24836 3.12918 0
M  V30 16421 O 1522.44 0.550973 3.97903 0
M  V30 16422 N 1520.64 1.01172 2.7242 0
M  V30 16423 H 1520.19 1.5806 2.03408 0
M  V30 16424 H 1520.15 0.246846 3.13429 0
M  V30 16425 N 1523.92 -0.412991 1.52093 0
M  V30 16426 C 1525.17 -1.15878 1.67164 0
M  V30 16427 C 1525.52 -1.88306 0.394772 0
M  V30 16428 O 1524.82 -1.8161 -0.610614 0
M  V30 16429 C 1525.01 -2.18321 2.82968 0
M  V30 16430 C 1524.84 -1.55951 4.21793 0
M  V30 16431 C 1523.61 -1.33389 4.87376 0
M  V30 16432 C 1525.81 -1.02249 5.04033 0
M  V30 16433 N 1523.79 -0.668717 6.10247 0
M  V30 16434 C 1525.16 -0.484011 6.18108 0
M  V30 16435 C 1527.21 -0.916583 4.89391 0
M  V30 16436 C 1525.92 0.149993 7.19144 0
M  V30 16437 C 1527.94 -0.296438 5.90657 0
M  V30 16438 C 1527.31 0.231383 7.0402 0
M  V30 16439 H 1523.4 -0.410837 0.665385 0
M  V30 16440 H 1525.99 -0.451728 1.89387 0
M  V30 16441 H 1524.16 -2.86389 2.62366 0
M  V30 16442 H 1525.89 -2.85234 2.87095 0
M  V30 16443 H 1522.65 -1.60235 4.4567 0
M  V30 16444 H 1523.07 -0.352867 6.7608 0
M  V30 16445 H 1527.71 -1.31049 4.01978 0
M  V30 16446 H 1525.43 0.555971 8.06185 0
M  V30 16447 H 1529.02 -0.216065 5.81399 0
M  V30 16448 H 1527.9 0.703689 7.81036 0
M  V30 16449 N 1525.4 -1.4265 -0.669982 0
M  V30 16450 C 1526.33 -1.42457 -1.79551 0
M  V30 16451 C 1527.34 -0.322966 -1.59564 0
M  V30 16452 O 1528.53 -0.586359 -1.68594 0
M  V30 16453 C 1525.63 -1.20561 -3.16731 0
M  V30 16454 C 1524.81 -2.43246 -3.63525 0
M  V30 16455 C 1523.87 -2.16823 -4.79452 0
M  V30 16456 O 1522.89 -2.90058 -4.8975 0
M  V30 16457 N 1524.09 -1.17436 -5.68497 0
M  V30 16458 H 1526.86 -2.39474 -1.80201 0
M  V30 16459 H 1524.42 -1.37591 -0.853244 0
M  V30 16460 H 1526.41 -1.00794 -3.91947 0
M  V30 16461 H 1524.98 -0.320497 -3.10953 0
M  V30 16462 H 1524.2 -2.78549 -2.78934 0
M  V30 16463 H 1525.49 -3.24931 -3.91532 0
M  V30 16464 H 1524.89 -0.568736 -5.62834 0
M  V30 16465 H 1523.44 -1.03655 -6.43505 0
M  V30 16466 N 1526.88 0.906753 -1.28902 0
M  V30 16467 C 1527.81 2.02663 -1.15974 0
M  V30 16468 C 1528.79 1.70009 -0.0557202 0
M  V30 16469 O 1529.97 1.92786 -0.233952 0
M  V30 16470 C 1527.1 3.37283 -0.828115 0
M  V30 16471 C 1526.06 3.84123 -1.88767 0
M  V30 16472 C 1525.38 5.15787 -1.40953 0
M  V30 16473 C 1526.68 4.05217 -3.2954 0
M  V30 16474 H 1528.38 2.13738 -2.09658 0
M  V30 16475 H 1525.92 1.02699 -1.0094 0
M  V30 16476 H 1527.88 4.15127 -0.724408 0
M  V30 16477 H 1526.6 3.2628 0.14443 0
M  V30 16478 H 1525.26 3.0849 -1.98065 0
M  V30 16479 H 1524.91 5.01194 -0.425848 0
M  V30 16480 H 1524.61 5.48098 -2.11807 0
M  V30 16481 H 1526.13 5.9618 -1.31918 0
M  V30 16482 H 1527.55 4.73565 -3.23124 0
M  V30 16483 H 1525.94 4.48871 -3.9829 0
M  V30 16484 H 1527.01 3.0979 -3.73039 0
M  V30 16485 N 1528.36 1.11264 1.11616 0
M  V30 16486 C 1529.63 0.772174 1.79713 0
M  V30 16487 C 1530.01 -0.740055 1.97703 0
M  V30 16488 O 1529.36 -1.66939 1.56024 0
M  V30 16489 C 1529.57 1.53316 3.13521 0
M  V30 16490 C 1530.92 1.71124 3.88589 0
M  V30 16491 O 1531.94 1.49725 3.23204 0
M  V30 16492 O 1530.8 2.0667 5.05915 0
M  V30 16493 H 1527.9 0.279548 0.77832 0
M  V30 16494 H 1530.44 1.21596 1.18375 0
M  V30 16495 H 1529.21 2.56194 2.95771 0
M  V30 16496 H 1528.84 1.08281 3.82572 0
M  V30 16497 N 1529.83 -1.29188 0.902679 0
M  V30 16498 C 1530.78 -2.27632 0.381088 0
M  V30 16499 C 1531.75 -1.57131 -0.538431 0
M  V30 16500 O 1532.94 -1.85096 -0.463027 0
M  V30 16501 C 1530.08 -3.42971 -0.382701 0
M  V30 16502 C 1529.19 -4.28249 0.568054 0
M  V30 16503 C 1528.32 -5.30772 -0.213082 0
M  V30 16504 C 1527.36 -6.07707 0.732004 0
M  V30 16505 N 1526.5 -7.02098 -0.0149139 0
M  V30 16506 H 1531.34 -2.71628 1.22566 0
M  V30 16507 H 1528.88 -1.33594 0.615724 0
M  V30 16508 H 1530.83 -4.08623 -0.841619 0
M  V30 16509 H 1529.46 -2.99997 -1.19171 0
M  V30 16510 H 1528.52 -3.62743 1.14549 0
M  V30 16511 H 1529.83 -4.81794 1.29136 0
M  V30 16512 H 1528.98 -6.02255 -0.733065 0
M  V30 16513 H 1527.72 -4.77966 -0.969504 0
M  V30 16514 H 1526.73 -5.35086 1.26346 0
M  V30 16515 H 1527.95 -6.62602 1.4878 0
M  V30 16516 H 1525.9 -6.51658 -0.753548 0
M  V30 16517 H 1525.81 -7.53214 0.648423 0
M  V30 16518 H 1527.08 -7.77796 -0.515062 0
M  V30 16519 N 1531.31 -0.665475 -1.42861 0
M  V30 16520 C 1532.55 -0.187645 -2.03537 0
M  V30 16521 C 1532.92 1.18032 -1.51435 0
M  V30 16522 O 1534.12 1.75227 -2.03836 0
M  V30 16523 C 1532.39 -0.210502 -3.5678 0
M  V30 16524 S 1533.95 0.197691 -4.38354 0
M  V30 16525 H 1530.76 -0.0780044 -0.706708 0
M  V30 16526 H 1533.37 -0.876548 -1.74748 0
M  V30 16527 H 1532.07 -1.20863 -3.92199 0
M  V30 16528 H 1531.6 0.498541 -3.90228 0
M  V30 16529 H 1533.62 1.43348 -4.75043 0
M  V30 16530 N 1532.79 1.52222 -0.408187 0
M  V30 16531 C 1534.04 2.00989 0.169252 0
M  V30 16532 C 1534.35 1.29824 1.46305 0
M  V30 16533 O 1535.56 1.69402 2.12168 0
M  V30 16534 C 1534.01 3.58173 0.352179 0
M  V30 16535 C 1533.62 4.38252 -0.929468 0
M  V30 16536 C 1535.37 4.15173 0.88496 0
M  V30 16537 C 1533.27 5.87077 -0.713781 0
M  V30 16538 H 1532.2 0.751015 0.0670261 0
M  V30 16539 H 1534.85 1.75574 -0.533487 0
M  V30 16540 H 1533.24 3.79913 1.11723 0
M  V30 16541 H 1534.41 4.28272 -1.70059 0
M  V30 16542 H 1532.72 3.92565 -1.38859 0
M  V30 16543 H 1535.32 5.2404 1.06235 0
M  V30 16544 H 1535.66 3.72468 1.85938 0
M  V30 16545 H 1536.2 3.97397 0.178995 0
M  V30 16546 H 1532.94 6.3414 -1.65974 0
M  V30 16547 H 1532.46 5.99797 0.0180631 0
M  V30 16548 H 1534.14 6.46022 -0.355596 0
M  V30 16549 N 1534.27 0.138579 1.5699 0
M  V30 16550 C 1535.51 -0.514627 1.95852 0
M  V30 16551 C 1535.84 -1.65424 1.02299 0
M  V30 16552 O 1535.1 -1.95635 0.0505654 0
M  V30 16553 C 1535.4 -1.06969 3.41017 0
M  V30 16554 C 1535.06 -0.049396 4.50873 0
M  V30 16555 C 1533.72 0.231103 4.80645 0
M  V30 16556 C 1536.08 0.644865 5.17195 0
M  V30 16557 C 1533.4 1.21181 5.74049 0
M  V30 16558 C 1535.76 1.61434 6.11655 0
M  V30 16559 C 1534.42 1.90262 6.3981 0
M  V30 16560 H 1533.69 -0.188315 0.716672 0
M  V30 16561 H 1536.34 0.223629 1.9019 0
M  V30 16562 H 1534.64 -1.88511 3.43469 0
M  V30 16563 H 1536.34 -1.58354 3.68409 0
M  V30 16564 H 1532.93 -0.278202 4.27696 0
M  V30 16565 H 1537.11 0.441346 4.94334 0
M  V30 16566 H 1532.37 1.4417 5.94159 0
M  V30 16567 H 1536.54 2.15786 6.62125 0
M  V30 16568 H 1534.17 2.66407 7.11991 0
M  V30 16569 N 1535.75 -1.57019 -0.13521 0
M  V30 16570 C 1536.68 -2.02182 -1.16811 0
M  V30 16571 C 1537.66 -0.9034 -1.44127 0
M  V30 16572 O 1538.84 -1.17202 -1.54846 0
M  V30 16573 C 1535.97 -2.41243 -2.49838 0
M  V30 16574 C 1534.93 -3.56379 -2.37018 0
M  V30 16575 C 1534.25 -3.8129 -3.74863 0
M  V30 16576 C 1535.55 -4.88653 -1.84432 0
M  V30 16577 H 1537.25 -2.8872 -0.792529 0
M  V30 16578 H 1534.79 -1.38901 -0.379788 0
M  V30 16579 H 1536.74 -2.7144 -3.22332 0
M  V30 16580 H 1535.47 -1.51656 -2.89254 0
M  V30 16581 H 1534.13 -3.26366 -1.66975 0
M  V30 16582 H 1533.78 -2.88934 -4.11735 0
M  V30 16583 H 1533.48 -4.58781 -3.67143 0
M  V30 16584 H 1535 -4.13924 -4.48887 0
M  V30 16585 H 1536.41 -5.17492 -2.46729 0
M  V30 16586 H 1534.81 -5.70032 -1.87574 0
M  V30 16587 H 1535.88 -4.78242 -0.800759 0
M  V30 16588 N 1537.22 0.404919 -1.52309 0
M  V30 16589 C 1538.64 0.743846 -1.41206 0
M  V30 16590 C 1538.84 1.94678 -0.519874 0
M  V30 16591 O 1537.9 2.52497 0.0127417 0
M  V30 16592 C 1539.21 0.99384 -2.83802 0
M  V30 16593 C 1540.76 1.0963 -2.93173 0
M  V30 16594 C 1541.23 1.37902 -4.36746 0
M  V30 16595 N 1542.72 1.44758 -4.39999 0
M  V30 16596 C 1543.46 1.68269 -5.48154 0
M  V30 16597 N 1542.95 1.89356 -6.6642 0
M  V30 16598 N 1544.75 1.70318 -5.35675 0
M  V30 16599 H 1536.9 -0.386855 -2.08847 0
M  V30 16600 H 1539.16 -0.110811 -0.941501 0
M  V30 16601 H 1538.87 0.182249 -3.51227 0
M  V30 16602 H 1538.74 1.91287 -3.25099 0
M  V30 16603 H 1541.13 1.89847 -2.25925 0
M  V30 16604 H 1541.21 0.155539 -2.55327 0
M  V30 16605 H 1540.85 0.582004 -5.04554 0
M  V30 16606 H 1540.78 2.33237 -4.72132 0
M  V30 16607 H 1543.27 1.30235 -3.5475 0
M  V30 16608 H 1543.59 2.06758 -7.44628 0
M  V30 16609 H 1541.93 1.86612 -6.69478 0
M  V30 16610 H 1545.12 1.53385 -4.42256 0
M  V30 16611 H 1545.3 1.88302 -6.20037 0
M  V30 16612 N 1538.7 1.43003 0.662408 0
M  V30 16613 C 1539.95 1.43848 1.41958 0
M  V30 16614 C 1540.27 0.06046 1.94906 0
M  V30 16615 O 1539.54 -0.90287 1.73854 0
M  V30 16616 H 1538.12 0.529587 0.526827 0
M  V30 16617 H 1540.78 1.7853 0.781867 0
M  V30 16618 H 1539.88 2.14562 2.26649 0
M  V30 16619 N 1540.18 -0.899904 1.29381 0
M  V30 16620 C 1541.13 -1.9909 1.11119 0
M  V30 16621 C 1542.11 -1.60871 0.030676 0
M  V30 16622 O 1543.31 -1.75192 0.252365 0
M  V30 16623 C 1540.44 -3.34097 0.789552 0
M  V30 16624 C 1539.52 -3.78676 1.90959 0
M  V30 16625 N 1539.91 -3.95492 3.15309 0
M  V30 16626 C 1538.21 -4.0795 1.80258 0
M  V30 16627 C 1538.91 -4.33054 3.8838 0
M  V30 16628 N 1537.89 -4.42087 3.16322 0
M  V30 16629 H 1541.69 -2.1016 2.0545 0
M  V30 16630 H 1539.2 -1.08871 1.20503 0
M  V30 16631 H 1541.2 -4.11962 0.639765 0
M  V30 16632 H 1539.86 -3.24372 -0.14585 0
M  V30 16633 H 1540.87 -3.8103 3.50766 0
M  V30 16634 H 1537.55 -4.06783 0.939877 0
M  V30 16635 H 1538.94 -4.53912 4.95393 0
M  V30 16636 N 1541.66 -1.11854 -1.11024 0
M  V30 16637 C 1542.59 -0.738635 -2.16972 0
M  V30 16638 C 1543.6 0.231814 -1.61141 0
M  V30 16639 O 1544.79 0.0140607 -1.78494 0
M  V30 16640 C 1541.89 -0.0715797 -3.38824 0
M  V30 16641 C 1541.07 -1.06995 -4.24112 0
M  V30 16642 C 1540.12 -0.431644 -5.24427 0
M  V30 16643 O 1539.15 -1.08685 -5.58727 0
M  V30 16644 N 1540.35 0.803593 -5.74911 0
M  V30 16645 H 1543.12 -1.65025 -2.50174 0
M  V30 16646 H 1540.68 -1.00933 -1.26586 0
M  V30 16647 H 1542.67 0.367274 -4.0303 0
M  V30 16648 H 1541.24 0.742686 -3.03649 0
M  V30 16649 H 1540.46 -1.68662 -3.56296 0
M  V30 16650 H 1541.75 -1.74525 -4.77931 0
M  V30 16651 H 1541.15 1.355 -5.49232 0
M  V30 16652 H 1539.7 1.18536 -6.40931 0
M  V30 16653 N 1543.14 1.28707 -0.909517 0
M  V30 16654 C 1544.05 2.31171 -0.399628 0
M  V30 16655 C 1545.06 1.6634 0.510582 0
M  V30 16656 O 1546.24 1.97432 0.397792 0
M  V30 16657 C 1543.3 3.44869 0.355852 0
M  V30 16658 C 1542.36 4.25267 -0.587065 0
M  V30 16659 C 1541.6 5.33536 0.132456 0
M  V30 16660 O 1541.82 5.54075 1.35486 0
M  V30 16661 O 1540.75 5.99561 -0.530062 0
M  V30 16662 H 1544.58 2.76785 -1.24995 0
M  V30 16663 H 1542.17 1.33323 -0.674186 0
M  V30 16664 H 1544.05 4.14068 0.782692 0
M  V30 16665 H 1542.72 3.01345 1.18207 0
M  V30 16666 H 1541.63 3.58673 -1.06322 0
M  V30 16667 H 1542.96 4.72459 -1.37998 0
M  V30 16668 N 1544.61 0.673042 1.42506 0
M  V30 16669 C 1545.84 0.202922 2.05902 0
M  V30 16670 C 1546.26 -1.13923 1.50556 0
M  V30 16671 O 1545.61 -1.70735 0.644662 0
M  V30 16672 C 1545.67 0.12735 3.61276 0
M  V30 16673 O 1545.39 1.41646 4.1457 0
M  V30 16674 C 1546.89 -0.366477 4.41783 0
M  V30 16675 H 1544.11 0.0991021 0.663641 0
M  V30 16676 H 1546.65 0.919282 1.82673 0
M  V30 16677 H 1544.81 -0.539687 3.83622 0
M  V30 16678 H 1545.22 1.28866 5.08423 0
M  V30 16679 H 1546.69 -0.368267 5.5077 0
M  V30 16680 H 1547.17 -1.40142 4.16241 0
M  V30 16681 H 1547.78 0.268761 4.2445 0
M  V30 16682 N 1546.09 -1.52004 0.416254 0
M  V30 16683 C 1547.34 -2.02188 -0.157434 0
M  V30 16684 C 1547.67 -1.30097 -1.44182 0
M  V30 16685 O 1546.95 -0.409426 -1.90142 0
M  V30 16686 C 1547.23 -3.57896 -0.397847 0
M  V30 16687 C 1547.08 -4.40628 0.903715 0
M  V30 16688 C 1548.4 -4.24072 -1.17689 0
M  V30 16689 H 1545.52 -0.734889 -0.0557437 0
M  V30 16690 H 1548.16 -1.81831 0.551118 0
M  V30 16691 H 1546.31 -3.75372 -1.00142 0
M  V30 16692 H 1547.98 -4.34848 1.53964 0
M  V30 16693 H 1546.23 -4.06556 1.5131 0
M  V30 16694 H 1546.9 -5.47673 0.689802 0
M  V30 16695 H 1549.37 -4.10738 -0.665832 0
M  V30 16696 H 1548.25 -5.32944 -1.31386 0
M  V30 16697 H 1548.51 -3.83507 -2.19942 0
M  V30 16698 N 1547.57 -0.146903 -1.56914 0
M  V30 16699 C 1548.52 0.792821 -2.16756 0
M  V30 16700 C 1549.49 1.2442 -1.1004 0
M  V30 16701 O 1550.67 1.31674 -1.38081 0
M  V30 16702 C 1547.81 2.02659 -2.79327 0
M  V30 16703 C 1546.93 1.62102 -4.00433 0
M  V30 16704 C 1546.06 2.80658 -4.51004 0
M  V30 16705 C 1545.1 2.36474 -5.64576 0
M  V30 16706 N 1544.24 3.48038 -6.09766 0
M  V30 16707 H 1549.08 0.275708 -2.96722 0
M  V30 16708 H 1546.61 0.124374 -1.46573 0
M  V30 16709 H 1548.57 2.74986 -3.13749 0
M  V30 16710 H 1547.2 2.51781 -2.02005 0
M  V30 16711 H 1546.25 0.795407 -3.71991 0
M  V30 16712 H 1547.57 1.25652 -4.82714 0
M  V30 16713 H 1546.72 3.61175 -4.87481 0
M  V30 16714 H 1545.46 3.20353 -3.6773 0
M  V30 16715 H 1544.46 1.54397 -5.27676 0
M  V30 16716 H 1545.69 1.97865 -6.49635 0
M  V30 16717 H 1543.63 3.87354 -5.29427 0
M  V30 16718 H 1543.55 3.15602 -6.86972 0
M  V30 16719 H 1544.82 4.28912 -6.50887 0
M  V30 16720 N 1549.05 1.57088 0.126881 0
M  V30 16721 C 1550.33 1.7539 0.8659 0
M  V30 16722 C 1550.71 0.720288 1.98432 0
M  V30 16723 O 1550.05 -0.2572 2.27048 0
M  V30 16724 C 1550.26 3.20131 1.38985 0
M  V30 16725 C 1551.61 3.82404 1.84532 0
M  V30 16726 O 1552.64 3.23685 1.48682 0
M  V30 16727 O 1551.49 4.85599 2.50711 0
M  V30 16728 H 1548.59 0.717853 0.41063 0
M  V30 16729 H 1551.13 1.69335 0.111236 0
M  V30 16730 H 1549.91 3.86871 0.587056 0
M  V30 16731 H 1549.53 3.30692 2.20745 0
M  V30 16732 N 1550.53 -0.396836 1.52522 0
M  V30 16733 C 1551.77 -1.14263 1.67183 0
M  V30 16734 C 1552.1 -1.90176 0.407845 0
M  V30 16735 O 1551.36 -1.85965 -0.609553 0
M  V30 16736 C 1551.66 -2.15308 2.85267 0
M  V30 16737 C 1551.32 -1.56111 4.23013 0
M  V30 16738 C 1549.98 -1.39692 4.60478 0
M  V30 16739 C 1552.34 -1.12998 5.08803 0
M  V30 16740 C 1549.66 -0.786963 5.81398 0
M  V30 16741 C 1552.02 -0.534159 6.30341 0
M  V30 16742 C 1550.68 -0.357204 6.66544 0
M  V30 16743 H 1549.95 -0.418118 0.611766 0
M  V30 16744 H 1552.6 -0.428255 1.8665 0
M  V30 16745 H 1550.9 -2.92935 2.60185 0
M  V30 16746 H 1552.6 -2.72908 2.93806 0
M  V30 16747 H 1549.19 -1.69876 3.93497 0
M  V30 16748 H 1553.37 -1.24488 4.80434 0
M  V30 16749 H 1548.63 -0.63799 6.08062 0
M  V30 16750 H 1552.8 -0.191759 6.96136 0
M  V30 16751 H 1550.43 0.117528 7.60109 0
M  V30 16752 N 1552.01 -1.43353 -0.654814 0
M  V30 16753 C 1553.42 -1.26718 -0.970297 0
M  V30 16754 C 1553.62 -0.185747 -2.00642 0
M  V30 16755 O 1552.68 0.436357 -2.48701 0
M  V30 16756 C 1553.99 -2.63095 -1.45608 0
M  V30 16757 C 1555.54 -2.70613 -1.57281 0
M  V30 16758 C 1556.01 -4.07404 -2.0925 0
M  V30 16759 N 1557.5 -4.09461 -2.16555 0
M  V30 16760 C 1558.24 -5.12135 -2.57885 0
M  V30 16761 N 1557.74 -6.25185 -2.98523 0
M  V30 16762 N 1559.53 -4.9949 -2.57811 0
M  V30 16763 H 1551.68 -2.12378 0.0308331 0
M  V30 16764 H 1553.94 -0.946744 -0.0487843 0
M  V30 16765 H 1553.65 -3.43186 -0.769171 0
M  V30 16766 H 1553.52 -2.88381 -2.43138 0
M  V30 16767 H 1555.91 -1.90855 -2.25074 0
M  V30 16768 H 1555.99 -2.49094 -0.581879 0
M  V30 16769 H 1555.63 -4.87628 -1.4206 0
M  V30 16770 H 1555.56 -4.26287 -3.09172 0
M  V30 16771 H 1558.06 -3.27858 -1.87929 0
M  V30 16772 H 1558.37 -6.99362 -3.28804 0
M  V30 16773 H 1556.71 -6.28659 -2.96332 0
M  V30 16774 H 1559.9 -4.10238 -2.25438 0
M  V30 16775 H 1560.08 -5.79637 -2.89699 0
M  V30 16776 N 1553.48 0.89303 -1.29857 0
M  V30 16777 C 1554.41 2.01422 -1.18117 0
M  V30 16778 C 1555.39 1.6994 -0.0737487 0
M  V30 16779 O 1556.58 1.92527 -0.254387 0
M  V30 16780 C 1553.71 3.36385 -0.863842 0
M  V30 16781 C 1552.66 3.821 -1.92831 0
M  V30 16782 C 1551.99 5.14263 -1.46415 0
M  V30 16783 C 1553.29 4.01699 -3.33819 0
M  V30 16784 H 1554.98 2.11502 -2.11913 0
M  V30 16785 H 1552.53 1.01622 -1.02024 0
M  V30 16786 H 1554.48 4.14335 -0.768397 0
M  V30 16787 H 1553.21 3.26415 0.109816 0
M  V30 16788 H 1551.87 3.06372 -2.01325 0
M  V30 16789 H 1551.51 5.00714 -0.478983 0
M  V30 16790 H 1551.21 5.45821 -2.17609 0
M  V30 16791 H 1552.74 5.94747 -1.38234 0
M  V30 16792 H 1554.15 4.70111 -3.28129 0
M  V30 16793 H 1552.55 4.44621 -4.03029 0
M  V30 16794 H 1553.62 3.05816 -3.76304 0
M  V30 16795 N 1554.96 1.12442 1.10429 0
M  V30 16796 C 1555.89 0.814745 2.18824 0
M  V30 16797 C 1556.87 -0.221476 1.68652 0
M  V30 16798 O 1558.06 -0.0826537 1.94024 0
M  V30 16799 C 1555.19 0.268632 3.4626 0
M  V30 16800 C 1554.14 1.23792 4.09707 0
M  V30 16801 C 1553.47 0.552034 5.31843 0
M  V30 16802 C 1554.77 2.5926 4.53411 0
M  V30 16803 H 1556.46 1.72111 2.44986 0
M  V30 16804 H 1554.01 0.828968 1.17746 0
M  V30 16805 H 1555.96 0.0397207 4.21381 0
M  V30 16806 H 1554.68 -0.673079 3.19589 0
M  V30 16807 H 1553.34 1.45264 3.36592 0
M  V30 16808 H 1552.99 -0.394821 5.01448 0
M  V30 16809 H 1552.69 1.19861 5.75245 0
M  V30 16810 H 1554.22 0.332161 6.09696 0
M  V30 16811 H 1555.63 2.41816 5.19806 0
M  V30 16812 H 1554.03 3.19997 5.07663 0
M  V30 16813 H 1555.1 3.17699 3.66327 0
M  V30 16814 N 1556.44 -1.28223 0.91633 0
M  V30 16815 C 1557.39 -2.27215 0.40521 0
M  V30 16816 C 1558.36 -1.57693 -0.521734 0
M  V30 16817 O 1559.54 -1.85577 -0.443369 0
M  V30 16818 C 1556.68 -3.43358 -0.346303 0
M  V30 16819 C 1555.79 -4.27622 0.613443 0
M  V30 16820 C 1554.93 -5.30969 -0.156775 0
M  V30 16821 C 1553.97 -6.06897 0.796418 0
M  V30 16822 N 1553.11 -7.02075 0.0595539 0
M  V30 16823 H 1557.95 -2.70312 1.2544 0
M  V30 16824 H 1555.48 -1.32933 0.629859 0
M  V30 16825 H 1557.44 -4.09492 -0.798231 0
M  V30 16826 H 1556.07 -3.01244 -1.15982 0
M  V30 16827 H 1555.12 -3.61508 1.1839 0
M  V30 16828 H 1556.43 -4.80397 1.34239 0
M  V30 16829 H 1555.59 -6.02999 -0.669146 0
M  V30 16830 H 1554.33 -4.78968 -0.918755 0
M  V30 16831 H 1553.33 -5.33716 1.32014 0
M  V30 16832 H 1554.56 -6.60987 1.558 0
M  V30 16833 H 1552.5 -6.5242 -0.684388 0
M  V30 16834 H 1552.42 -7.52484 0.728275 0
M  V30 16835 H 1553.69 -7.78299 -0.432538 0
M  V30 16836 N 1557.92 -0.68059 -1.42147 0
M  V30 16837 C 1558.87 0.00572503 -2.32599 0
M  V30 16838 C 1559.86 0.784449 -1.50142 0
M  V30 16839 O 1561.07 0.69176 -1.66177 0
M  V30 16840 H 1557.44 0.0206483 -0.751716 0
M  V30 16841 H 1559.41 -0.774447 -2.88175 0
M  V30 16842 C 1558.16 0.939019 -3.3478 0
M  V30 16843 H 1557.48 0.349225 -3.98272 0
M  V30 16844 H 1558.92 1.38782 -4.00644 0
M  V30 16845 C 1557.38 2.04814 -2.67493 0
M  V30 16846 O 1557.91 3.13526 -2.51126 0
M  V30 16847 N 1556.12 1.82153 -2.26426 0
M  V30 16848 H 1555.67 0.93743 -2.39938 0
M  V30 16849 H 1555.62 2.56551 -1.81738 0
M  V30 16850 N 1559.4 1.51781 -0.424309 0
M  V30 16851 C 1560.62 2.06871 0.147968 0
M  V30 16852 C 1561.05 1.29093 1.36808 0
M  V30 16853 O 1560.4 0.325279 1.78358 0
M  V30 16854 C 1560.45 3.57631 0.461757 0
M  V30 16855 O 1559.56 3.82149 1.55035 0
M  V30 16856 H 1558.9 0.663957 0.00757275 0
M  V30 16857 H 1561.43 1.95547 -0.601888 0
M  V30 16858 H 1561.44 4.01668 0.716005 0
M  V30 16859 H 1560.11 4.1367 -0.430081 0
M  V30 16860 H 1558.69 3.49984 1.28709 0
M  V30 16861 N 1560.87 0.155222 1.56834 0
M  V30 16862 C 1562.29 -0.201116 1.58328 0
M  V30 16863 C 1562.49 -1.64061 1.16988 0
M  V30 16864 O 1561.55 -2.36892 0.873989 0
M  V30 16865 C 1562.86 0.0651005 3.0063 0
M  V30 16866 C 1564.41 0.00203866 3.13 0
M  V30 16867 C 1564.88 0.241032 4.57365 0
M  V30 16868 N 1566.37 0.188245 4.62817 0
M  V30 16869 C 1567.11 0.347562 5.72346 0
M  V30 16870 N 1566.6 0.565052 6.90492 0
M  V30 16871 N 1568.4 0.284589 5.61379 0
M  V30 16872 H 1560.55 1.09503 1.81997 0
M  V30 16873 H 1562.81 0.434106 0.842767 0
M  V30 16874 H 1562.52 1.06167 3.35293 0
M  V30 16875 H 1562.39 -0.650601 3.71547 0
M  V30 16876 H 1564.78 -0.98509 2.78173 0
M  V30 16877 H 1564.86 0.750199 2.44552 0
M  V30 16878 H 1564.5 1.2253 4.92898 0
M  V30 16879 H 1564.43 -0.52755 5.23951 0
M  V30 16880 H 1566.92 0.0251352 3.77892 0
M  V30 16881 H 1567.24 0.676502 7.69833 0
M  V30 16882 H 1565.58 0.601473 6.92392 0
M  V30 16883 H 1568.77 0.115381 4.67958 0
M  V30 16884 H 1568.95 0.412182 6.46688 0
M  V30 16885 N 1562.35 -1.57153 -0.118549 0
M  V30 16886 C 1563.28 -2.03409 -1.1466 0
M  V30 16887 C 1564.26 -0.918636 -1.43161 0
M  V30 16888 O 1565.45 -1.18838 -1.53594 0
M  V30 16889 C 1562.58 -2.43879 -2.47265 0
M  V30 16890 C 1561.53 -3.58873 -2.33225 0
M  V30 16891 C 1560.86 -3.85244 -3.70798 0
M  V30 16892 C 1562.16 -4.90582 -1.79239 0
M  V30 16893 H 1563.85 -2.89545 -0.761862 0
M  V30 16894 H 1561.4 -1.39296 -0.365034 0
M  V30 16895 H 1563.35 -2.74844 -3.19435 0
M  V30 16896 H 1562.07 -1.54715 -2.8763 0
M  V30 16897 H 1560.73 -3.28119 -1.63504 0
M  V30 16898 H 1560.38 -2.93285 -4.08648 0
M  V30 16899 H 1560.08 -4.62649 -3.62257 0
M  V30 16900 H 1561.61 -4.18661 -4.44472 0
M  V30 16901 H 1563.02 -5.20079 -2.41227 0
M  V30 16902 H 1561.42 -5.71989 -1.81518 0
M  V30 16903 H 1562.49 -4.79065 -0.74999 0
M  V30 16904 N 1563.83 0.388742 -1.5273 0
M  V30 16905 C 1564.76 1.48133 -1.80496 0
M  V30 16906 C 1565.74 1.56899 -0.657008 0
M  V30 16907 O 1566.93 1.71844 -0.904621 0
M  V30 16908 C 1564.06 2.85742 -1.97405 0
M  V30 16909 C 1563.01 2.91815 -3.13094 0
M  V30 16910 C 1562.34 4.31876 -3.15258 0
M  V30 16911 C 1563.64 2.61438 -4.52159 0
M  V30 16912 H 1565.33 1.25147 -2.7199 0
M  V30 16913 H 1562.88 0.600603 -1.30877 0
M  V30 16914 H 1564.83 3.62182 -2.15412 0
M  V30 16915 H 1563.55 3.10065 -1.02601 0
M  V30 16916 H 1562.21 2.17824 -2.9487 0
M  V30 16917 H 1561.86 4.53239 -2.18135 0
M  V30 16918 H 1561.56 4.3686 -3.92972 0
M  V30 16919 H 1563.08 5.10221 -3.3542 0
M  V30 16920 H 1564.5 3.27596 -4.70483 0
M  V30 16921 H 1562.89 2.77771 -5.31943 0
M  V30 16922 H 1563.96 1.56778 -4.58856 0
M  V30 16923 N 1565.31 1.43698 0.647203 0
M  V30 16924 C 1566.53 1.49301 1.43958 0
M  V30 16925 C 1566.96 0.11395 1.87755 0
M  V30 16926 O 1566.32 -0.893571 1.5775 0
M  V30 16927 C 1566.36 2.44905 2.64677 0
M  V30 16928 O 1565.47 1.93947 3.63948 0
M  V30 16929 H 1564.81 0.504771 0.431396 0
M  V30 16930 H 1567.34 1.88673 0.791432 0
M  V30 16931 H 1567.35 2.62409 3.12419 0
M  V30 16932 H 1566.02 3.45083 2.32143 0
M  V30 16933 H 1564.6 1.86133 3.23124 0
M  V30 16934 N 1566.79 -0.886131 1.30328 0
M  V30 16935 C 1568.03 -1.64032 1.20271 0
M  V30 16936 C 1568.39 -1.90891 -0.240498 0
M  V30 16937 O 1567.68 -1.51793 -1.16916 0
M  V30 16938 C 1567.87 -2.98624 1.96364 0
M  V30 16939 C 1567.7 -2.84904 3.47936 0
M  V30 16940 C 1566.47 -2.84948 4.17292 0
M  V30 16941 C 1568.67 -2.60937 4.43189 0
M  V30 16942 N 1566.65 -2.62108 5.55133 0
M  V30 16943 C 1568.02 -2.47208 5.68584 0
M  V30 16944 C 1570.08 -2.46153 4.32797 0
M  V30 16945 C 1568.78 -2.20198 6.84767 0
M  V30 16946 C 1570.81 -2.20528 5.48745 0
M  V30 16947 C 1570.17 -2.07574 6.73121 0
M  V30 16948 H 1566.27 -0.605263 0.495158 0
M  V30 16949 H 1568.85 -1.0443 1.64324 0
M  V30 16950 H 1567.02 -3.5626 1.54703 0
M  V30 16951 H 1568.76 -3.63228 1.78458 0
M  V30 16952 H 1565.51 -2.96736 3.69114 0
M  V30 16953 H 1565.94 -2.53703 6.27665 0
M  V30 16954 H 1570.58 -2.54904 3.37319 0
M  V30 16955 H 1568.3 -2.10185 7.80287 0
M  V30 16956 H 1571.88 -2.09912 5.42612 0
M  V30 16957 H 1570.76 -1.88023 7.61326 0
M  V30 16958 N 1568.26 -1.13026 -1.09832 0
M  V30 16959 C 1569.49 -0.912803 -1.86233 0
M  V30 16960 C 1569.91 0.532955 -1.80392 0
M  V30 16961 O 1569.27 1.37783 -1.17837 0
M  V30 16962 C 1569.32 -1.40002 -3.32313 0
M  V30 16963 O 1568.42 -0.582537 -4.08265 0
M  V30 16964 H 1567.77 -0.327464 -0.577636 0
M  V30 16965 H 1570.3 -1.5039 -1.38723 0
M  V30 16966 H 1570.31 -1.40182 -3.83162 0
M  V30 16967 H 1568.98 -2.4527 -3.3588 0
M  V30 16968 H 1567.56 -0.648255 -3.67222 0
M  V30 16969 N 1569.74 1.27735 -0.923117 0
M  V30 16970 C 1570.99 1.9457 -0.561149 0
M  V30 16971 C 1571.32 1.72591 0.896805 0
M  V30 16972 O 1570.57 1.04546 1.65434 0
M  V30 16973 C 1570.87 3.47677 -0.827959 0
M  V30 16974 C 1570.54 3.8977 -2.26693 0
M  V30 16975 C 1569.2 4.00973 -2.66033 0
M  V30 16976 C 1571.55 4.11173 -3.20291 0
M  V30 16977 C 1568.88 4.30963 -3.98105 0
M  V30 16978 C 1571.23 4.42645 -4.51938 0
M  V30 16979 C 1569.9 4.52061 -4.91119 0
M  V30 16980 H 1569.17 0.711981 -0.205339 0
M  V30 16981 H 1571.81 1.51894 -1.16621 0
M  V30 16982 H 1570.12 3.91549 -0.140178 0
M  V30 16983 H 1571.81 3.97523 -0.526932 0
M  V30 16984 H 1568.4 3.81584 -1.95171 0
M  V30 16985 H 1572.59 4.01962 -2.91102 0
M  V30 16986 H 1567.84 4.36461 -4.28149 0
M  V30 16987 H 1572.02 4.58153 -5.2447 0
M  V30 16988 H 1569.65 4.75053 -5.93488 0
M  V30 16989 N 1571.22 0.688118 1.41784 0
M  V30 16990 C 1572.5 0.144304 1.95067 0
M  V30 16991 C 1572.88 -1.34399 1.62789 0
M  V30 16992 O 1572.23 -2.08675 0.930978 0
M  V30 16993 C 1572.44 0.427641 3.4637 0
M  V30 16994 C 1573.78 0.351345 4.23144 0
M  V30 16995 O 1574.81 0.362134 3.54354 0
M  V30 16996 O 1573.67 0.305018 5.45648 0
M  V30 16997 H 1570.76 0.01062 0.826932 0
M  V30 16998 H 1573.31 0.763766 1.51541 0
M  V30 16999 H 1572.08 1.4581 3.63119 0
M  V30 17000 H 1571.7 -0.223167 3.96973 0
M  V30 17001 N 1572.7 -1.51554 0.432352 0
M  V30 17002 C 1573.95 -2.01645 -0.135511 0
M  V30 17003 C 1574.27 -1.31874 -1.43647 0
M  V30 17004 O 1573.54 -0.451746 -1.9062 0
M  V30 17005 H 1572.12 -0.745113 -0.0530683 0
M  V30 17006 H 1574.78 -1.86258 0.573917 0
M  V30 17007 H 1573.88 -3.10506 -0.315001 0
M  V30 17008 N 1574.18 -0.163538 -1.56749 0
M  V30 17009 C 1575.4 0.489888 -2.01017 0
M  V30 17010 C 1575.82 1.57327 -1.04373 0
M  V30 17011 O 1575.18 1.82449 -0.0433414 0
M  V30 17012 C 1575.23 1.07537 -3.45135 0
M  V30 17013 O 1574.95 0.0352465 -4.38086 0
M  V30 17014 C 1576.45 1.80779 -4.04764 0
M  V30 17015 H 1573.67 0.126095 -0.659046 0
M  V30 17016 H 1576.21 -0.262982 -2.02802 0
M  V30 17017 H 1574.37 1.77877 -3.44149 0
M  V30 17018 H 1574.78 0.466426 -5.22422 0
M  V30 17019 H 1576.26 2.17014 -5.07552 0
M  V30 17020 H 1576.73 2.6999 -3.46413 0
M  V30 17021 H 1577.34 1.15098 -4.09429 0
M  V30 17022 N 1575.65 1.57214 0.110213 0
M  V30 17023 C 1576.9 1.85586 0.817649 0
M  V30 17024 C 1577.23 0.750536 1.79111 0
M  V30 17025 O 1576.51 -0.242864 1.92978 0
M  V30 17026 C 1576.79 3.24565 1.55979 0
M  V30 17027 C 1576.64 4.45708 0.605339 0
M  V30 17028 C 1577.96 3.61233 2.51393 0
M  V30 17029 H 1575.08 0.675037 0.295794 0
M  V30 17030 H 1577.72 1.89824 0.0816541 0
M  V30 17031 H 1575.87 3.21083 2.18718 0
M  V30 17032 H 1577.55 4.61298 -0.0138894 0
M  V30 17033 H 1575.79 4.33722 -0.0824644 0
M  V30 17034 H 1576.46 5.39643 1.16143 0
M  V30 17035 H 1578.94 3.65563 1.98754 0
M  V30 17036 H 1577.81 4.59438 3.00346 0
M  V30 17037 H 1578.07 2.89116 3.34461 0
M  V30 17038 N 1577.13 -0.380637 1.52934 0
M  V30 17039 C 1578.08 -1.46544 1.78307 0
M  V30 17040 C 1579.05 -1.53825 0.626671 0
M  V30 17041 O 1580.23 -1.6995 0.867276 0
M  V30 17042 C 1577.37 -2.83676 1.96525 0
M  V30 17043 C 1576.49 -2.85481 3.24229 0
M  V30 17044 C 1575.62 -4.14092 3.32718 0
M  V30 17045 C 1574.66 -4.09982 4.54512 0
M  V30 17046 N 1573.8 -5.30214 4.60237 0
M  V30 17047 H 1578.64 -1.24209 2.7088 0
M  V30 17048 H 1576.18 -0.60241 1.34199 0
M  V30 17049 H 1578.13 -3.63319 2.05073 0
M  V30 17050 H 1576.76 -3.04443 1.07304 0
M  V30 17051 H 1575.82 -1.98159 3.24711 0
M  V30 17052 H 1577.13 -2.78313 4.13936 0
M  V30 17053 H 1576.28 -5.02144 3.40494 0
M  V30 17054 H 1575.02 -4.23993 2.41 0
M  V30 17055 H 1574.03 -3.20317 4.46852 0
M  V30 17056 H 1575.25 -4.01696 5.47556 0
M  V30 17057 H 1573.2 -5.40729 3.71414 0
M  V30 17058 H 1573.11 -5.25155 5.43827 0
M  V30 17059 H 1574.38 -6.2014 4.72279 0
M  V30 17060 N 1578.61 -1.44039 -0.639573 0
M  V30 17061 C 1579.86 -1.46594 -1.40136 0
M  V30 17062 C 1580.19 -0.0949646 -1.93968 0
M  V30 17063 O 1579.46 0.886201 -1.73138 0
M  V30 17064 C 1579.75 -2.51947 -2.57283 0
M  V30 17065 C 1579.6 -3.98371 -2.08855 0
M  V30 17066 C 1580.92 -2.53891 -3.59482 0
M  V30 17067 H 1578.04 -0.533759 -0.508203 0
M  V30 17068 H 1580.68 -1.75669 -0.723898 0
M  V30 17069 H 1578.83 -2.27285 -3.15077 0
M  V30 17070 H 1580.5 -4.34137 -1.55956 0
M  V30 17071 H 1578.75 -4.10551 -1.40109 0
M  V30 17072 H 1579.42 -4.67721 -2.93157 0
M  V30 17073 H 1581.89 -2.75906 -3.11473 0
M  V30 17074 H 1580.77 -3.29524 -4.38982 0
M  V30 17075 H 1581.03 -1.57774 -4.12989 0
M  V30 17076 N 1580.09 0.879207 -1.30796 0
M  V30 17077 C 1581.33 1.63392 -1.21139 0
M  V30 17078 C 1581.69 1.91016 0.230372 0
M  V30 17079 O 1580.98 1.52411 1.1611 0
M  V30 17080 C 1581.18 2.97578 -1.97945 0
M  V30 17081 C 1581.01 2.83055 -3.49442 0
M  V30 17082 C 1579.78 2.82731 -4.18797 0
M  V30 17083 C 1581.97 2.58583 -4.44566 0
M  V30 17084 N 1579.96 2.5916 -5.56515 0
M  V30 17085 C 1581.33 2.44189 -5.69887 0
M  V30 17086 C 1583.38 2.43854 -4.34096 0
M  V30 17087 C 1582.08 2.16563 -6.85925 0
M  V30 17088 C 1584.11 2.17615 -5.49907 0
M  V30 17089 C 1583.47 2.04002 -6.74213 0
M  V30 17090 H 1579.57 0.602628 -0.498361 0
M  V30 17091 H 1582.16 1.03557 -1.64876 0
M  V30 17092 H 1580.33 3.55435 -1.56591 0
M  V30 17093 H 1582.06 3.62277 -1.80382 0
M  V30 17094 H 1578.81 2.94774 -3.70682 0
M  V30 17095 H 1579.24 2.50371 -6.29002 0
M  V30 17096 H 1583.88 2.53111 -3.38666 0
M  V30 17097 H 1581.6 2.06044 -7.81391 0
M  V30 17098 H 1585.18 2.07032 -5.43718 0
M  V30 17099 H 1584.06 1.83983 -7.62312 0
M  V30 17100 N 1581.57 1.13606 1.09231 0
M  V30 17101 C 1582.52 0.810747 2.18013 0
M  V30 17102 C 1583.51 -0.207782 1.68121 0
M  V30 17103 O 1584.72 -0.0647274 1.79884 0
M  V30 17104 H 1581.09 0.244415 0.711172 0
M  V30 17105 H 1583.06 1.73632 2.42682 0
M  V30 17106 C 1581.81 0.295302 3.46444 0
M  V30 17107 H 1581.13 1.07037 3.85205 0
M  V30 17108 H 1582.57 0.106127 4.23867 0
M  V30 17109 C 1581.03 -0.979398 3.2235 0
M  V30 17110 O 1581.56 -2.05483 3.45166 0
M  V30 17111 N 1579.77 -0.911282 2.75942 0
M  V30 17112 H 1579.32 -0.035979 2.57575 0
M  V30 17113 H 1579.27 -1.76476 2.60199 0
M  V30 17114 N 1583.05 -1.27244 0.929878 0
M  V30 17115 C 1584.29 -1.93559 0.567267 0
M  V30 17116 C 1584.61 -1.73864 -0.896138 0
M  V30 17117 O 1585.81 -2.34538 -1.36763 0
M  V30 17118 C 1584.27 -3.46756 0.963743 0
M  V30 17119 C 1583.88 -3.75204 2.44798 0
M  V30 17120 C 1585.62 -4.19139 0.672487 0
M  V30 17121 C 1583.53 -5.21787 2.78375 0
M  V30 17122 H 1582.46 -0.724617 0.208437 0
M  V30 17123 H 1585.11 -1.44502 1.13099 0
M  V30 17124 H 1583.49 -3.94634 0.328654 0
M  V30 17125 H 1584.67 -3.38075 3.13116 0
M  V30 17126 H 1582.98 -3.16029 2.71136 0
M  V30 17127 H 1585.58 -5.27074 0.899816 0
M  V30 17128 H 1585.92 -4.14466 -0.390378 0
M  V30 17129 H 1586.45 -3.77091 1.26678 0
M  V30 17130 H 1583.19 -5.31552 3.83579 0
M  V30 17131 H 1582.71 -5.60054 2.14708 0
M  V30 17132 H 1584.39 -5.89685 2.66234 0
M  V30 17133 N 1584.52 -0.695628 -1.41417 0
M  V30 17134 C 1585.77 -0.223719 -2.00455 0
M  V30 17135 C 1586.09 1.18352 -1.55731 0
M  V30 17136 O 1587.29 1.7529 -2.0733 0
M  V30 17137 C 1585.75 -0.349076 -3.58203 0
M  V30 17138 C 1585.36 -1.76168 -4.11909 0
M  V30 17139 C 1587.1 0.0630563 -4.24453 0
M  V30 17140 C 1585.01 -1.83869 -5.62091 0
M  V30 17141 H 1583.94 -0.0798833 -0.749756 0
M  V30 17142 H 1586.59 -0.863834 -1.61896 0
M  V30 17143 H 1584.97 0.35929 -3.94367 0
M  V30 17144 H 1586.14 -2.49881 -3.87164 0
M  V30 17145 H 1584.46 -2.1235 -3.58185 0
M  V30 17146 H 1587.06 0.0259584 -5.34694 0
M  V30 17147 H 1587.4 1.10179 -4.01455 0
M  V30 17148 H 1587.93 -0.595036 -3.93324 0
M  V30 17149 H 1584.67 -2.85796 -5.89916 0
M  V30 17150 H 1584.19 -1.14541 -5.88762 0
M  V30 17151 H 1585.87 -1.60161 -6.26863 0
M  V30 17152 N 1586 1.51322 -0.440383 0
M  V30 17153 C 1587.23 2.0653 0.123649 0
M  V30 17154 C 1587.64 1.30751 1.36197 0
M  V30 17155 O 1587 0.367932 1.78753 0
M  V30 17156 C 1587.05 3.58778 0.442802 0
M  V30 17157 O 1586.77 4.31695 -0.746375 0
M  V30 17158 C 1588.27 4.3051 1.05717 0
M  V30 17159 H 1585.49 0.670968 0.00657466 0
M  V30 17160 H 1588.04 1.94864 -0.620341 0
M  V30 17161 H 1586.19 3.70349 1.13669 0
M  V30 17162 H 1586.61 5.22368 -0.472466 0
M  V30 17163 H 1588.08 5.38111 1.23046 0
M  V30 17164 H 1588.56 3.88999 2.03903 0
M  V30 17165 H 1589.16 4.2339 0.402574 0
M  V30 17166 N 1587.48 0.171848 1.5666 0
M  V30 17167 C 1588.73 -0.472034 1.9651 0
M  V30 17168 C 1589.05 -1.63743 1.05893 0
M  V30 17169 O 1588.32 -1.95498 0.125396 0
M  V30 17170 H 1586.9 -0.177377 0.725635 0
M  V30 17171 H 1589.56 0.253155 1.93249 0
M  V30 17172 H 1588.66 -0.831693 3.00814 0
M  V30 17173 N 1588.96 -1.5727 -0.101874 0
M  V30 17174 C 1589.91 -2.0258 -1.14297 0
M  V30 17175 C 1590.9 -0.925674 -1.41872 0
M  V30 17176 O 1592.11 -1.11086 -1.41633 0
M  V30 17177 H 1588.48 -0.645504 -0.385782 0
M  V30 17178 H 1590.45 -2.8922 -0.734453 0
M  V30 17179 C 1589.2 -2.46036 -2.45686 0
M  V30 17180 H 1588.52 -3.30266 -2.2531 0
M  V30 17181 H 1589.96 -2.81522 -3.17051 0
M  V30 17182 C 1588.42 -1.33089 -3.09498 0
M  V30 17183 O 1588.95 -0.656277 -3.96303 0
M  V30 17184 N 1587.16 -1.08359 -2.69642 0
M  V30 17185 H 1586.71 -1.63397 -1.99146 0
M  V30 17186 H 1586.66 -0.329859 -3.12665 0
M  V30 17187 N 1590.44 0.372521 -1.53134 0
M  V30 17188 C 1591.38 1.45597 -1.79082 0
M  V30 17189 C 1592.35 1.5349 -0.63482 0
M  V30 17190 O 1593.54 1.69488 -0.876276 0
M  V30 17191 C 1590.68 2.8263 -1.98026 0
M  V30 17192 C 1589.79 2.83758 -3.25738 0
M  V30 17193 C 1588.93 4.12322 -3.34909 0
M  V30 17194 C 1587.96 4.07565 -4.5668 0
M  V30 17195 N 1587.1 5.27766 -4.63042 0
M  V30 17196 H 1591.94 1.22771 -2.71535 0
M  V30 17197 H 1589.48 0.595285 -1.34517 0
M  V30 17198 H 1591.44 3.62227 -2.06997 0
M  V30 17199 H 1590.07 3.0387 -1.08917 0
M  V30 17200 H 1589.12 1.96435 -3.25757 0
M  V30 17201 H 1590.43 2.76114 -4.15406 0
M  V30 17202 H 1589.58 5.00331 -3.43153 0
M  V30 17203 H 1588.32 4.22709 -2.43245 0
M  V30 17204 H 1587.33 3.17943 -4.48545 0
M  V30 17205 H 1588.55 3.98786 -5.49678 0
M  V30 17206 H 1586.5 5.38752 -3.74276 0
M  V30 17207 H 1586.42 5.22264 -5.46605 0
M  V30 17208 H 1587.68 6.17626 -4.75561 0
M  V30 17209 N 1591.91 1.44376 0.631925 0
M  V30 17210 C 1592.82 1.5367 1.77264 0
M  V30 17211 C 1593.84 0.422425 1.68794 0
M  V30 17212 O 1595.02 0.679656 1.89585 0
M  V30 17213 C 1592.08 1.47743 3.13644 0
M  V30 17214 C 1591.14 2.70015 3.33752 0
M  V30 17215 C 1590.37 2.64362 4.63626 0
M  V30 17216 O 1590.6 1.7032 5.44378 0
M  V30 17217 O 1589.53 3.55201 4.85918 0
M  V30 17218 H 1593.36 2.5004 1.72376 0
M  V30 17219 H 1590.94 1.26614 0.793052 0
M  V30 17220 H 1592.82 1.46958 3.94945 0
M  V30 17221 H 1591.5 0.545165 3.19076 0
M  V30 17222 H 1590.41 2.76369 2.52133 0
M  V30 17223 H 1591.74 3.62286 3.33181 0
M  V30 17224 N 1593.39 -0.872258 1.31261 0
M  V30 17225 C 1594.34 -1.97926 1.18718 0
M  V30 17226 C 1595.31 -1.65937 0.0735242 0
M  V30 17227 O 1596.49 -1.89208 0.245979 0
M  V30 17228 C 1593.63 -3.33208 0.898117 0
M  V30 17229 C 1592.75 -3.77808 2.09488 0
M  V30 17230 C 1591.88 -5.01796 1.74281 0
M  V30 17231 C 1590.92 -5.38838 2.90379 0
M  V30 17232 N 1590.06 -6.54007 2.55382 0
M  V30 17233 H 1594.9 -2.07986 2.13415 0
M  V30 17234 H 1592.43 -1.01821 1.06165 0
M  V30 17235 H 1594.39 -4.11095 0.711089 0
M  V30 17236 H 1593.02 -3.22798 -0.0120097 0
M  V30 17237 H 1592.07 -2.95722 2.39276 0
M  V30 17238 H 1593.39 -4.01191 2.96391 0
M  V30 17239 H 1592.54 -5.87344 1.52027 0
M  V30 17240 H 1591.28 -4.80312 0.845665 0
M  V30 17241 H 1590.28 -4.51811 3.13284 0
M  V30 17242 H 1591.51 -5.62289 3.80799 0
M  V30 17243 H 1589.46 -6.34073 1.68188 0
M  V30 17244 H 1589.37 -6.77322 3.35814 0
M  V30 17245 H 1590.64 -7.42752 2.36516 0
M  V30 17246 N 1594.87 -1.14184 -1.08627 0
M  V30 17247 C 1596.15 -0.81955 -1.77603 0
M  V30 17248 C 1596.53 0.687377 -1.99595 0
M  V30 17249 O 1595.87 1.62744 -1.60396 0
M  V30 17250 C 1596.08 -1.61574 -3.09346 0
M  V30 17251 C 1597.43 -1.81367 -3.83916 0
M  V30 17252 O 1598.46 -1.58241 -3.19121 0
M  V30 17253 O 1597.32 -2.20011 -5.00257 0
M  V30 17254 H 1594.41 -0.300086 -0.770635 0
M  V30 17255 H 1596.96 -1.24691 -1.15109 0
M  V30 17256 H 1595.73 -2.63946 -2.88874 0
M  V30 17257 H 1595.35 -1.18386 -3.79566 0
M  V30 17258 N 1596.35 1.26749 -0.936613 0
M  V30 17259 C 1597.6 1.93964 -0.581754 0
M  V30 17260 C 1597.92 1.73532 0.878449 0
M  V30 17261 O 1597.18 1.06295 1.64316 0
M  V30 17262 C 1597.48 3.4678 -0.864789 0
M  V30 17263 C 1597.14 3.87344 -2.30815 0
M  V30 17264 C 1595.81 3.98129 -2.70271 0
M  V30 17265 C 1598.16 4.07752 -3.24634 0
M  V30 17266 C 1595.49 4.26717 -4.02653 0
M  V30 17267 C 1597.84 4.37827 -4.56607 0
M  V30 17268 C 1596.5 4.46826 -4.95886 0
M  V30 17269 H 1595.77 0.709763 -0.212879 0
M  V30 17270 H 1598.42 1.50648 -1.18226 0
M  V30 17271 H 1596.72 3.91378 -0.181699 0
M  V30 17272 H 1598.42 3.96942 -0.569065 0
M  V30 17273 H 1595.01 3.79492 -1.99207 0
M  V30 17274 H 1599.19 3.98852 -2.95349 0
M  V30 17275 H 1594.45 4.31895 -4.32755 0
M  V30 17276 H 1598.62 4.52565 -5.293 0
M  V30 17277 H 1596.25 4.68732 -5.98494 0
M  V30 17278 N 1597.83 0.703118 1.41046 0
M  V30 17279 C 1599.07 0.237638 2.01403 0
M  V30 17280 C 1599.41 -1.16217 1.55587 0
M  V30 17281 O 1598.68 -1.78593 0.770377 0
M  V30 17282 C 1598.96 0.303738 3.58817 0
M  V30 17283 C 1598.82 1.74103 4.14739 0
M  V30 17284 C 1600.14 -0.332186 4.38845 0
M  V30 17285 H 1597.25 0.0878243 0.731749 0
M  V30 17286 H 1599.9 0.893264 1.67693 0
M  V30 17287 H 1598.05 -0.254485 3.87666 0
M  V30 17288 H 1599.72 2.35368 3.96736 0
M  V30 17289 H 1597.96 2.27277 3.69496 0
M  V30 17290 H 1598.63 1.73876 5.239 0
M  V30 17291 H 1601.11 0.143312 4.15853 0
M  V30 17292 H 1599.98 -0.255429 5.48305 0
M  V30 17293 H 1600.25 -1.41397 4.18878 0
M  V30 17294 N 1599.3 -1.51086 0.448402 0
M  V30 17295 C 1600.54 -2.04085 -0.113374 0
M  V30 17296 C 1600.91 -1.32454 -1.38996 0
M  V30 17297 O 1602.11 -1.75885 -2.03268 0
M  V30 17298 C 1600.38 -3.56001 -0.315869 0
M  V30 17299 S 1601.94 -4.30695 -0.839462 0
M  V30 17300 H 1598.76 -0.7105 -0.0266528 0
M  V30 17301 H 1601.36 -1.85728 0.610345 0
M  V30 17302 H 1600.06 -4.05699 0.6194 0
M  V30 17303 H 1599.59 -3.78672 -1.06635 0
M  V30 17304 H 1601.61 -4.48833 -2.11573 0
M  V30 17305 N 1600.78 -0.180154 -1.56567 0
M  V30 17306 C 1601.73 0.759144 -2.14991 0
M  V30 17307 C 1602.72 1.18672 -1.08654 0
M  V30 17308 O 1603.91 1.14761 -1.34755 0
M  V30 17309 C 1601.04 1.98473 -2.80113 0
M  V30 17310 C 1600.12 1.57874 -3.9362 0
M  V30 17311 N 1600.51 0.882825 -4.98036 0
M  V30 17312 C 1598.81 1.86913 -4.04944 0
M  V30 17313 C 1599.51 0.681573 -5.77693 0
M  V30 17314 N 1598.49 1.22573 -5.29601 0
M  V30 17315 H 1602.29 0.218574 -2.93086 0
M  V30 17316 H 1599.81 0.0202002 -1.62387 0
M  V30 17317 H 1601.8 2.66797 -3.20351 0
M  V30 17318 H 1600.46 2.53017 -2.03501 0
M  V30 17319 H 1601.47 0.539906 -5.15078 0
M  V30 17320 H 1598.15 2.43071 -3.39445 0
M  V30 17321 H 1599.54 0.130602 -6.71773 0
M  V30 17322 N 1602.26 1.57322 0.0935319 0
M  V30 17323 C 1603.19 1.98861 1.13961 0
M  V30 17324 C 1604.21 0.891385 1.36228 0
M  V30 17325 O 1605.39 1.16949 1.34853 0
M  V30 17326 C 1602.49 2.29369 2.49485 0
M  V30 17327 C 1601.67 3.6066 2.47473 0
M  V30 17328 C 1600.73 3.79087 3.64937 0
M  V30 17329 O 1599.75 4.50923 3.47357 0
M  V30 17330 N 1600.95 3.19784 4.84478 0
M  V30 17331 H 1603.72 2.89208 0.786048 0
M  V30 17332 H 1601.28 1.59416 0.282491 0
M  V30 17333 H 1603.27 2.38889 3.26671 0
M  V30 17334 H 1601.84 1.45021 2.76925 0
M  V30 17335 H 1601.06 3.62095 1.55823 0
M  V30 17336 H 1602.35 4.46908 2.43209 0
M  V30 17337 H 1601.75 2.61436 5.01665 0
M  V30 17338 H 1600.31 3.34786 5.59251 0
M  V30 17339 N 1603.74 -0.364395 1.53329 0
M  V30 17340 C 1604.99 -1.10473 1.69234 0
M  V30 17341 C 1605.31 -1.89799 0.447347 0
M  V30 17342 O 1604.58 -1.8835 -0.538612 0
M  V30 17343 H 1603.16 -0.410826 0.623884 0
M  V30 17344 H 1605.82 -0.410721 1.90523 0
M  V30 17345 H 1604.92 -1.79387 2.55396 0
M  V30 17346 N 1605.22 -1.44709 -0.62426 0
M  V30 17347 C 1606.44 -1.51348 -1.41072 0
M  V30 17348 C 1606.86 -0.140576 -1.88276 0
M  V30 17349 O 1606.22 0.854821 -1.61242 0
M  V30 17350 C 1606.27 -2.48396 -2.62643 0
M  V30 17351 O 1605.99 -3.8035 -2.17406 0
M  V30 17352 C 1607.49 -2.64568 -3.55694 0
M  V30 17353 H 1604.71 -0.513092 -0.432409 0
M  V30 17354 H 1607.25 -1.89739 -0.762841 0
M  V30 17355 H 1605.41 -2.13122 -3.23508 0
M  V30 17356 H 1605.82 -4.32809 -2.96272 0
M  V30 17357 H 1607.3 -3.36486 -4.37585 0
M  V30 17358 H 1607.77 -1.70031 -4.04952 0
M  V30 17359 H 1608.38 -3.00771 -3.00694 0
M  V30 17360 N 1606.69 0.865285 -1.31722 0
M  V30 17361 C 1607.94 1.62108 -1.21855 0
M  V30 17362 C 1608.27 1.9293 0.221714 0
M  V30 17363 O 1607.55 1.56423 1.15595 0
M  V30 17364 C 1607.83 2.94828 -2.06756 0
M  V30 17365 C 1607.68 2.70855 -3.59107 0
M  V30 17366 C 1609 3.95983 -1.92055 0
M  V30 17367 H 1606.12 0.588234 -0.444015 0
M  V30 17368 H 1608.76 0.999922 -1.6156 0
M  V30 17369 H 1606.91 3.47843 -1.73025 0
M  V30 17370 H 1608.59 2.24477 -4.02999 0
M  V30 17371 H 1606.83 2.05004 -3.82303 0
M  V30 17372 H 1607.5 3.65312 -4.13825 0
M  V30 17373 H 1609.98 3.52193 -2.21584 0
M  V30 17374 H 1608.85 4.86724 -2.53754 0
M  V30 17375 H 1609.11 4.33148 -0.885174 0
M  V30 17376 N 1608.17 1.14759 1.0802 0
M  V30 17377 C 1609.1 0.860977 2.17047 0
M  V30 17378 C 1610.08 -0.185652 1.69084 0
M  V30 17379 O 1611.27 -0.0414797 1.94156 0
M  V30 17380 C 1608.4 0.342018 3.45612 0
M  V30 17381 C 1607.35 1.32455 4.06989 0
M  V30 17382 C 1606.68 0.664721 5.30552 0
M  V30 17383 C 1607.98 2.68819 4.4781 0
M  V30 17384 H 1609.67 1.77269 2.4128 0
M  V30 17385 H 1607.22 0.853757 1.15961 0
M  V30 17386 H 1609.17 0.129093 4.21202 0
M  V30 17387 H 1607.9 -0.605138 3.20945 0
M  V30 17388 H 1606.55 1.52371 3.33435 0
M  V30 17389 H 1606.2 -0.288367 5.02173 0
M  V30 17390 H 1605.9 1.32036 5.72573 0
M  V30 17391 H 1607.43 0.461412 6.08854 0
M  V30 17392 H 1608.84 2.52787 5.14559 0
M  V30 17393 H 1607.24 3.30694 5.00761 0
M  V30 17394 H 1608.31 3.25398 3.59506 0
M  V30 17395 N 1609.65 -1.26251 0.943322 0
M  V30 17396 C 1610.88 -1.98278 0.608341 0
M  V30 17397 C 1611.3 -1.69756 -0.810208 0
M  V30 17398 O 1610.66 -0.946846 -1.54611 0
M  V30 17399 C 1610.71 -3.50205 0.859591 0
M  V30 17400 O 1609.81 -4.12345 -0.0672371 0
M  V30 17401 H 1609.15 -0.621973 0.232477 0
M  V30 17402 H 1611.68 -1.60662 1.26684 0
M  V30 17403 H 1611.69 -4.00449 0.781341 0
M  V30 17404 H 1610.37 -3.70294 1.89354 0
M  V30 17405 H 1608.94 -3.72848 0.0622543 0
M  V30 17406 N 1611.13 -0.710588 -1.40671 0
M  V30 17407 C 1612.37 -0.252303 -2.02837 0
M  V30 17408 C 1612.73 1.13154 -1.55113 0
M  V30 17409 O 1613.93 1.68653 -2.09307 0
M  V30 17410 C 1612.21 -0.323902 -3.55929 0
M  V30 17411 S 1613.76 0.0581316 -4.38761 0
M  V30 17412 H 1610.58 -0.100448 -0.703869 0
M  V30 17413 H 1613.18 -0.931699 -1.71871 0
M  V30 17414 H 1611.89 -1.33279 -3.88156 0
M  V30 17415 H 1611.42 0.37414 -3.91617 0
M  V30 17416 H 1613.43 1.28162 -4.79363 0
M  V30 17417 N 1612.61 1.50847 -0.456408 0
M  V30 17418 C 1613.88 1.94907 0.164485 0
M  V30 17419 C 1614.26 1.39609 1.58343 0
M  V30 17420 O 1613.61 0.590971 2.20726 0
M  V30 17421 C 1613.82 3.48784 0.122794 0
M  V30 17422 C 1615.17 4.234 0.318964 0
M  V30 17423 O 1616.19 3.55638 0.20005 0
M  V30 17424 O 1615.05 5.43649 0.557507 0
M  V30 17425 H 1612.15 0.818298 0.119652 0
M  V30 17426 H 1614.69 1.61673 -0.515758 0
M  V30 17427 H 1613.47 3.81541 -0.868468 0
M  V30 17428 H 1613.09 3.88514 0.84513 0
M  V30 17429 N 1614.09 0.188454 1.56469 0
M  V30 17430 C 1615.33 -0.452238 1.96565 0
M  V30 17431 C 1615.65 -1.63219 1.07792 0
M  V30 17432 O 1616.85 -2.34024 1.37641 0
M  V30 17433 C 1615.31 -0.855966 3.49573 0
M  V30 17434 C 1614.92 0.299329 4.46999 0
M  V30 17435 C 1616.66 -1.46411 3.98452 0
M  V30 17436 C 1614.57 -0.124987 5.91268 0
M  V30 17437 H 1613.5 -0.172729 0.733949 0
M  V30 17438 H 1616.15 0.279415 1.8136 0
M  V30 17439 H 1614.53 -1.64409 3.60258 0
M  V30 17440 H 1615.71 1.07681 4.48042 0
M  V30 17441 H 1614.02 0.818542 4.08275 0
M  V30 17442 H 1616.62 -1.79392 5.03709 0
M  V30 17443 H 1616.96 -2.36822 3.42376 0
M  V30 17444 H 1617.49 -0.740088 3.90855 0
M  V30 17445 H 1614.23 0.744769 6.51255 0
M  V30 17446 H 1613.75 -0.86747 5.93494 0
M  V30 17447 H 1615.43 -0.563054 6.44545 0
M  V30 17448 N 1615.56 -1.5737 -0.0851874 0
M  V30 17449 C 1616.79 -1.91183 -0.803983 0
M  V30 17450 C 1617.21 -0.78365 -1.70999 0
M  V30 17451 O 1616.57 0.264266 -1.79364 0
M  V30 17452 C 1616.62 -3.239 -1.58496 0
M  V30 17453 O 1615.72 -3.12189 -2.69466 0
M  V30 17454 H 1615.06 -0.626413 -0.220233 0
M  V30 17455 H 1617.59 -2.04519 -0.0574426 0
M  V30 17456 H 1617.6 -3.5745 -1.96707 0
M  V30 17457 H 1616.28 -4.05594 -0.920111 0
M  V30 17458 H 1614.86 -2.90173 -2.3421 0
M  V30 17459 N 1617.04 0.356258 -1.53521 0
M  V30 17460 C 1617.99 1.43723 -1.76996 0
M  V30 17461 C 1618.98 1.48275 -0.624756 0
M  V30 17462 O 1620.17 1.53359 -0.883734 0
M  V30 17463 C 1617.3 2.81036 -1.97164 0
M  V30 17464 C 1616.38 2.80925 -3.17713 0
M  V30 17465 N 1616.77 2.50454 -4.39439 0
M  V30 17466 C 1615.07 3.12081 -3.18625 0
M  V30 17467 C 1615.77 2.58257 -5.21228 0
M  V30 17468 N 1614.75 2.93354 -4.57651 0
M  V30 17469 H 1618.55 1.19041 -2.68712 0
M  V30 17470 H 1616.06 0.564522 -1.52272 0
M  V30 17471 H 1618.06 3.58906 -2.12113 0
M  V30 17472 H 1616.72 3.06674 -1.06682 0
M  V30 17473 H 1617.73 2.23879 -4.6701 0
M  V30 17474 H 1614.41 3.42973 -2.38067 0
M  V30 17475 H 1615.8 2.37965 -6.28349 0
M  V30 17476 N 1618.52 1.45038 0.616577 0
M  V30 17477 C 1619.8 1.39059 1.37557 0
M  V30 17478 C 1620.18 0.0566307 2.11024 0
M  V30 17479 O 1619.52 -0.961203 2.073 0
M  V30 17480 C 1619.73 2.59841 2.32989 0
M  V30 17481 C 1621.08 3.04539 2.95874 0
M  V30 17482 O 1622.11 2.6015 2.43312 0
M  V30 17483 O 1620.97 3.81547 3.9126 0
M  V30 17484 H 1618.06 0.551396 0.616353 0
M  V30 17485 H 1620.61 1.57152 0.640416 0
M  V30 17486 H 1619.38 3.48521 1.779 0
M  V30 17487 H 1619 2.44036 3.13899 0
M  V30 17488 N 1620 -0.858287 1.32179 0
M  V30 17489 C 1620.96 -1.94811 1.20753 0
M  V30 17490 C 1621.96 -1.60261 0.131526 0
M  V30 17491 O 1623.15 -1.69968 0.381662 0
M  V30 17492 C 1620.28 -3.29972 0.856229 0
M  V30 17493 H 1621.48 -2.06371 2.17603 0
M  V30 17494 H 1619.03 -1.04802 1.15958 0
M  V30 17495 H 1619.76 -3.24111 -0.11061 0
M  V30 17496 H 1619.55 -3.56424 1.63414 0
M  V30 17497 H 1621.04 -4.09856 0.800507 0
M  V30 17498 N 1621.48 -1.1533 -1.07409 0
M  V30 17499 C 1622.7 -0.951643 -1.83715 0
M  V30 17500 C 1623.12 0.500054 -1.82057 0
M  V30 17501 O 1622.48 1.3468 -1.23157 0
M  V30 17502 C 1622.53 -1.45734 -3.30823 0
M  V30 17503 O 1622.25 -2.85217 -3.3254 0
M  V30 17504 C 1623.75 -1.29709 -4.23899 0
M  V30 17505 H 1620.97 -0.338021 -0.57964 0
M  V30 17506 H 1623.51 -1.53088 -1.35589 0
M  V30 17507 H 1621.67 -0.920643 -3.76302 0
M  V30 17508 H 1622.08 -3.08134 -4.24445 0
M  V30 17509 H 1623.56 -1.69938 -5.2519 0
M  V30 17510 H 1624.03 -0.241185 -4.38537 0
M  V30 17511 H 1624.64 -1.82283 -3.84256 0
M  V30 17512 N 1622.95 1.25748 -0.950004 0
M  V30 17513 C 1623.9 2.26061 -0.46531 0
M  V30 17514 C 1624.87 1.59021 0.479742 0
M  V30 17515 O 1626.06 1.86687 0.394011 0
M  V30 17516 C 1623.2 3.44156 0.255146 0
M  V30 17517 C 1622.31 4.25846 -0.726604 0
M  V30 17518 C 1621.44 5.31198 0.0159429 0
M  V30 17519 C 1620.48 6.04572 -0.957046 0
M  V30 17520 N 1619.62 7.0167 -0.245676 0
M  V30 17521 H 1624.46 2.66891 -1.32563 0
M  V30 17522 H 1622 1.31216 -0.664882 0
M  V30 17523 H 1623.95 4.11465 0.689381 0
M  V30 17524 H 1622.58 3.04213 1.07954 0
M  V30 17525 H 1621.64 3.58242 -1.27933 0
M  V30 17526 H 1622.95 4.76669 -1.46928 0
M  V30 17527 H 1622.1 6.04561 0.509037 0
M  V30 17528 H 1620.84 4.81235 0.791442 0
M  V30 17529 H 1619.85 5.30028 -1.46118 0
M  V30 17530 H 1621.07 6.56624 -1.7327 0
M  V30 17531 H 1619.02 6.54005 0.51117 0
M  V30 17532 H 1618.93 7.50289 -0.927527 0
M  V30 17533 H 1620.2 7.79172 0.226034 0
M  V30 17534 N 1624.43 0.718038 1.40292 0
M  V30 17535 C 1625.68 0.258603 2.00842 0
M  V30 17536 C 1626.01 -1.14894 1.56938 0
M  V30 17537 O 1625.26 -1.79414 0.781606 0
M  V30 17538 C 1625.56 0.289374 3.56227 0
M  V30 17539 C 1625.23 1.64756 4.19722 0
M  V30 17540 C 1623.89 2.01934 4.36779 0
M  V30 17541 C 1626.24 2.54008 4.55115 0
M  V30 17542 C 1623.57 3.27905 4.86513 0
M  V30 17543 C 1625.92 3.79334 5.06249 0
M  V30 17544 C 1624.58 4.16626 5.21516 0
M  V30 17545 H 1623.85 0.0946296 0.734933 0
M  V30 17546 H 1626.5 0.921552 1.67868 0
M  V30 17547 H 1624.81 -0.457147 3.89124 0
M  V30 17548 H 1626.5 -0.0839832 4.00912 0
M  V30 17549 H 1623.09 1.34846 4.06835 0
M  V30 17550 H 1627.28 2.2656 4.4157 0
M  V30 17551 H 1622.53 3.56763 4.96518 0
M  V30 17552 H 1626.71 4.48663 5.32611 0
M  V30 17553 H 1624.33 5.14306 5.59815 0
M  V30 17554 N 1625.91 -1.50602 0.464402 0
M  V30 17555 C 1627.14 -2.07191 -0.0930678 0
M  V30 17556 C 1627.56 -1.32675 -1.33338 0
M  V30 17557 O 1626.92 -0.372453 -1.77433 0
M  V30 17558 C 1626.97 -3.5873 -0.366775 0
M  V30 17559 O 1626.07 -3.86125 -1.44849 0
M  V30 17560 H 1625.41 -0.663924 0.0100336 0
M  V30 17561 H 1627.94 -1.93882 0.653522 0
M  V30 17562 H 1627.95 -4.03425 -0.609258 0
M  V30 17563 H 1626.63 -4.12385 0.539608 0
M  V30 17564 H 1625.2 -3.53273 -1.19384 0
M  V30 17565 N 1627.39 -0.19675 -1.56367 0
M  V30 17566 C 1628.61 0.450245 -2.02454 0
M  V30 17567 C 1629.04 1.54287 -1.07597 0
M  V30 17568 O 1628.4 1.81202 -0.0597529 0
M  V30 17569 C 1628.44 0.982087 -3.46969 0
M  V30 17570 O 1627.55 2.09489 -3.5523 0
M  V30 17571 H 1626.89 0.105022 -0.655642 0
M  V30 17572 H 1629.42 -0.308112 -2.02267 0
M  V30 17573 H 1629.43 1.29826 -3.86793 0
M  V30 17574 H 1628.1 0.18224 -4.15501 0
M  V30 17575 H 1626.68 1.78723 -3.27281 0
M  V30 17576 N 1628.87 1.57413 0.0768405 0
M  V30 17577 C 1630.09 1.91224 0.790007 0
M  V30 17578 C 1630.51 0.792232 1.71374 0
M  V30 17579 O 1629.87 -0.234736 1.80984 0
M  V30 17580 C 1629.92 3.24757 1.58793 0
M  V30 17581 O 1629.64 4.3245 0.701329 0
M  V30 17582 C 1631.14 3.72549 2.40254 0
M  V30 17583 H 1628.36 0.63219 0.224893 0
M  V30 17584 H 1630.9 2.04442 0.0486173 0
M  V30 17585 H 1629.06 3.13081 2.28165 0
M  V30 17586 H 1629.47 5.09245 1.2558 0
M  V30 17587 H 1630.95 4.68628 2.91705 0
M  V30 17588 H 1631.42 3.01305 3.1955 0
M  V30 17589 H 1632.03 3.87153 1.76048 0
M  V30 17590 N 1630.34 -0.348112 1.53707 0
M  V30 17591 C 1631.57 -1.11346 1.74976 0
M  V30 17592 C 1631.99 -1.81726 0.485525 0
M  V30 17593 O 1631.35 -1.72384 -0.561565 0
M  V30 17594 C 1631.4 -2.10611 2.92703 0
M  V30 17595 O 1630.5 -3.18042 2.62532 0
M  V30 17596 H 1629.85 -0.322247 0.580563 0
M  V30 17597 H 1632.38 -0.399898 2.00654 0
M  V30 17598 H 1632.39 -2.53912 3.19363 0
M  V30 17599 H 1631.06 -1.58782 3.84397 0
M  V30 17600 H 1629.64 -2.79591 2.46746 0
M  V30 17601 N 1631.82 -1.45363 -0.608876 0
M  V30 17602 C 1632.79 -1.53551 -1.70161 0
M  V30 17603 C 1633.79 -0.415146 -1.55349 0
M  V30 17604 O 1634.98 -0.67858 -1.6044 0
M  V30 17605 C 1632.11 -1.43081 -3.0942 0
M  V30 17606 H 1633.3 -2.5091 -1.64268 0
M  V30 17607 H 1630.85 -1.32785 -0.824493 0
M  V30 17608 H 1631.59 -0.469016 -3.20891 0
M  V30 17609 H 1631.37 -2.24343 -3.21579 0
M  V30 17610 H 1632.86 -1.51841 -3.89017 0
M  V30 17611 N 1633.3 0.851265 -1.32632 0
M  V30 17612 C 1634.58 1.58945 -1.13999 0
M  V30 17613 C 1634.96 2.08981 0.29836 0
M  V30 17614 O 1634.31 1.88226 1.2955 0
M  V30 17615 C 1634.52 2.73296 -2.17049 0
M  V30 17616 C 1635.86 3.42791 -2.50559 0
M  V30 17617 O 1636.89 2.83524 -2.15621 0
M  V30 17618 O 1635.75 4.49749 -3.10464 0
M  V30 17619 H 1632.84 0.700157 -0.440124 0
M  V30 17620 H 1635.39 0.895098 -1.44174 0
M  V30 17621 H 1634.16 2.33873 -3.13718 0
M  V30 17622 H 1633.78 3.50405 -1.87888 0
M  V30 17623 N 1634.78 1.15898 1.06796 0
M  V30 17624 C 1635.73 0.860895 2.14143 0
M  V30 17625 C 1636.7 -0.188539 1.65026 0
M  V30 17626 O 1637.88 -0.0548558 1.90721 0
M  V30 17627 C 1635.02 0.362533 3.4319 0
M  V30 17628 C 1634.13 1.4742 4.06068 0
M  V30 17629 C 1633.27 0.931377 5.22971 0
M  V30 17630 C 1632.31 2.0196 5.77822 0
M  V30 17631 N 1631.44 1.49274 6.86048 0
M  V30 17632 H 1636.28 1.78023 2.38981 0
M  V30 17633 H 1633.82 0.888173 1.1726 0
M  V30 17634 H 1635.78 0.0552592 4.17163 0
M  V30 17635 H 1634.41 -0.519869 3.18586 0
M  V30 17636 H 1633.46 1.89754 3.29693 0
M  V30 17637 H 1634.77 2.29559 4.42836 0
M  V30 17638 H 1633.93 0.576982 6.0395 0
M  V30 17639 H 1632.67 0.0792265 4.87636 0
M  V30 17640 H 1631.67 2.38275 4.95485 0
M  V30 17641 H 1632.9 2.87562 6.15211 0
M  V30 17642 H 1630.84 0.663037 6.52641 0
M  V30 17643 H 1630.76 2.25035 7.21731 0
M  V30 17644 H 1632.03 1.16676 7.70718 0
M  V30 17645 N 1636.26 -1.25243 0.956659 0
M  V30 17646 C 1637.48 -1.97082 0.629791 0
M  V30 17647 C 1637.9 -1.71082 -0.798529 0
M  V30 17648 O 1637.26 -0.98805 -1.5344 0
M  V30 17649 C 1637.31 -3.5059 0.881406 0
M  V30 17650 O 1637.03 -3.75694 2.25356 0
M  V30 17651 C 1638.53 -4.39656 0.567203 0
M  V30 17652 H 1635.75 -0.628152 0.235938 0
M  V30 17653 H 1638.29 -1.5936 1.28159 0
M  V30 17654 H 1636.45 -3.86416 0.27599 0
M  V30 17655 H 1636.86 -4.70142 2.32523 0
M  V30 17656 H 1638.34 -5.46263 0.793785 0
M  V30 17657 H 1638.81 -4.36364 -0.498287 0
M  V30 17658 H 1639.42 -4.094 1.15203 0
M  V30 17659 N 1637.73 -0.725468 -1.3991 0
M  V30 17660 C 1638.7 -0.0878956 -2.29031 0
M  V30 17661 C 1639.7 0.677105 -1.45849 0
M  V30 17662 O 1640.89 0.507538 -1.66642 0
M  V30 17663 C 1638.02 0.885087 -3.2921 0
M  V30 17664 H 1639.21 -0.872957 -2.86914 0
M  V30 17665 H 1636.77 -0.490715 -1.48397 0
M  V30 17666 H 1637.5 1.69685 -2.76365 0
M  V30 17667 H 1637.29 0.339297 -3.90629 0
M  V30 17668 H 1638.78 1.32806 -3.9592 0
M  V30 17669 N 1639.21 1.50354 -0.472382 0
M  V30 17670 C 1640.16 2.28555 0.321118 0
M  V30 17671 C 1641.13 1.33665 0.98605 0
M  V30 17672 O 1642.31 1.62603 0.998239 0
M  V30 17673 C 1639.45 3.15586 1.39641 0
M  V30 17674 C 1638.57 4.25508 0.746129 0
M  V30 17675 C 1637.7 4.99794 1.79943 0
M  V30 17676 C 1636.74 6.01589 1.12946 0
M  V30 17677 N 1635.88 6.69149 2.12567 0
M  V30 17678 H 1640.72 2.95913 -0.352051 0
M  V30 17679 H 1638.26 1.45926 -0.185461 0
M  V30 17680 H 1640.21 3.64397 2.03152 0
M  V30 17681 H 1638.84 2.50271 2.03873 0
M  V30 17682 H 1637.9 3.804 -0.00157718 0
M  V30 17683 H 1639.21 4.98326 0.217335 0
M  V30 17684 H 1638.36 5.5233 2.51031 0
M  V30 17685 H 1637.1 4.26684 2.36203 0
M  V30 17686 H 1636.11 5.48312 0.404207 0
M  V30 17687 H 1637.33 6.76672 0.573735 0
M  V30 17688 H 1635.28 5.9883 2.67841 0
M  V30 17689 H 1635.19 7.37847 1.64676 0
M  V30 17690 H 1636.46 7.26301 2.83031 0
M  V30 17691 N 1640.69 0.205039 1.56261 0
M  V30 17692 C 1641.94 -0.431364 1.97033 0
M  V30 17693 C 1642.25 -1.62066 1.09517 0
M  V30 17694 O 1643.46 -2.32551 1.40116 0
M  V30 17695 C 1641.92 -0.818841 3.50461 0
M  V30 17696 C 1641.52 0.346723 4.46656 0
M  V30 17697 C 1643.27 -1.42177 3.99982 0
M  V30 17698 C 1641.17 -0.0622677 5.91367 0
M  V30 17699 H 1640.1 -0.164934 0.73574 0
M  V30 17700 H 1642.76 0.298635 1.81054 0
M  V30 17701 H 1641.14 -1.60579 3.61981 0
M  V30 17702 H 1642.31 1.12427 4.46874 0
M  V30 17703 H 1640.63 0.861799 4.07384 0
M  V30 17704 H 1643.22 -1.74039 5.05583 0
M  V30 17705 H 1643.57 -2.33177 3.44868 0
M  V30 17706 H 1644.1 -0.698591 3.91618 0
M  V30 17707 H 1640.84 0.813802 6.50429 0
M  V30 17708 H 1640.36 -0.804474 5.94381 0
M  V30 17709 H 1642.04 -0.49466 6.45106 0
M  V30 17710 N 1642.17 -1.57451 -0.0684915 0
M  V30 17711 C 1643.42 -1.88551 -0.762893 0
M  V30 17712 C 1643.77 -0.799127 -1.75019 0
M  V30 17713 O 1643.06 0.196383 -1.90591 0
M  V30 17714 C 1643.26 -3.24044 -1.50765 0
M  V30 17715 C 1643.09 -4.4576 -0.593989 0
M  V30 17716 C 1641.86 -5.04778 -0.229695 0
M  V30 17717 C 1644.05 -5.14181 0.110706 0
M  V30 17718 N 1642.04 -6.10017 0.689348 0
M  V30 17719 C 1643.41 -6.13625 0.886817 0
M  V30 17720 C 1645.46 -4.97568 0.181829 0
M  V30 17721 C 1644.17 -6.98249 1.72745 0
M  V30 17722 C 1646.19 -5.82721 1.00945 0
M  V30 17723 C 1645.55 -6.81706 1.77359 0
M  V30 17724 H 1641.65 -0.739431 -0.254491 0
M  V30 17725 H 1644.24 -1.94685 -0.0242838 0
M  V30 17726 H 1642.41 -3.18913 -2.21696 0
M  V30 17727 H 1644.14 -3.42782 -2.15133 0
M  V30 17728 H 1640.89 -4.69994 -0.583282 0
M  V30 17729 H 1641.32 -6.67295 1.14221 0
M  V30 17730 H 1645.96 -4.20954 -0.394627 0
M  V30 17731 H 1643.68 -7.74235 2.31486 0
M  V30 17732 H 1647.26 -5.71923 1.0675 0
M  V30 17733 H 1646.14 -7.46454 2.40367 0
M  V30 17734 N 1643.65 0.339955 -1.5389 0
M  V30 17735 C 1644.87 1.10417 -1.75564 0
M  V30 17736 C 1645.3 1.81466 -0.495156 0
M  V30 17737 O 1644.66 1.72679 0.552415 0
M  V30 17738 C 1644.7 2.09056 -2.93816 0
M  V30 17739 O 1643.81 3.16645 -2.64215 0
M  V30 17740 H 1643.15 0.319164 -0.582263 0
M  V30 17741 H 1645.68 0.389251 -2.00863 0
M  V30 17742 H 1645.69 2.52215 -3.20705 0
M  V30 17743 H 1644.36 1.56741 -3.85234 0
M  V30 17744 H 1642.94 2.78278 -2.48225 0
M  V30 17745 N 1645.13 1.45684 0.601159 0
M  V30 17746 C 1646.37 1.50036 1.35998 0
M  V30 17747 C 1646.7 0.144645 1.93961 0
M  V30 17748 O 1645.96 -0.857502 1.75913 0
M  V30 17749 C 1646.25 2.53235 2.52204 0
M  V30 17750 C 1645.92 3.97767 2.12348 0
M  V30 17751 C 1644.58 4.37121 2.01193 0
M  V30 17752 C 1646.93 4.88636 1.8134 0
M  V30 17753 C 1644.26 5.65231 1.5726 0
M  V30 17754 C 1646.61 6.17164 1.38892 0
M  V30 17755 C 1645.28 6.55442 1.26299 0
M  V30 17756 H 1644.55 0.54902 0.497652 0
M  V30 17757 H 1647.2 1.79065 0.678833 0
M  V30 17758 H 1645.5 2.17799 3.25685 0
M  V30 17759 H 1647.2 2.53837 3.10431 0
M  V30 17760 H 1643.79 3.6665 2.21959 0
M  V30 17761 H 1647.97 4.58964 1.88853 0
M  V30 17762 H 1643.23 5.93678 1.46139 0
M  V30 17763 H 1647.4 6.87015 1.13946 0
M  V30 17764 H 1645.03 7.54609 0.920316 0
M  V30 17765 N 1646.6 -0.84422 1.33082 0
M  V30 17766 C 1647.88 -1.58339 1.1484 0
M  V30 17767 C 1648.26 -2.09136 -0.287273 0
M  V30 17768 O 1647.61 -1.8891 -1.2855 0
M  V30 17769 C 1647.82 -2.72141 2.18496 0
M  V30 17770 C 1649.17 -3.41457 2.52373 0
M  V30 17771 O 1650.19 -2.82377 2.17122 0
M  V30 17772 O 1649.05 -4.48096 3.12845 0
M  V30 17773 H 1646.14 -0.697813 0.443831 0
M  V30 17774 H 1648.69 -0.88744 1.44646 0
M  V30 17775 H 1647.46 -2.32206 3.14954 0
M  V30 17776 H 1647.08 -3.49404 1.89744 0
M  V30 17777 N 1648.08 -1.16463 -1.0618 0
M  V30 17778 C 1649.01 -0.895399 -2.1565 0
M  V30 17779 C 1649.99 0.158729 -1.69358 0
M  V30 17780 O 1651.18 0.010586 -1.94197 0
M  V30 17781 C 1648.31 -0.396959 -3.45024 0
M  V30 17782 C 1647.26 -1.38913 -4.0483 0
M  V30 17783 C 1646.59 -0.749043 -5.29427 0
M  V30 17784 C 1647.89 -2.7591 -4.43476 0
M  V30 17785 H 1649.58 -1.81085 -2.38429 0
M  V30 17786 H 1647.13 -0.872098 -1.14588 0
M  V30 17787 H 1649.08 -0.196086 -4.20944 0
M  V30 17788 H 1647.8 0.554002 -3.21867 0
M  V30 17789 H 1646.46 -1.57657 -3.30968 0
M  V30 17790 H 1646.11 0.208439 -5.02568 0
M  V30 17791 H 1645.81 -1.41128 -5.704 0
M  V30 17792 H 1647.34 -0.558217 -6.08043 0
M  V30 17793 H 1648.75 -2.60942 -5.10473 0
M  V30 17794 H 1647.15 -3.38618 -4.95437 0
M  V30 17795 H 1648.22 -3.31076 -3.54284 0
M  V30 17796 N 1649.56 1.24734 -0.963288 0
M  V30 17797 C 1650.49 2.27892 -0.508667 0
M  V30 17798 C 1651.47 1.64055 0.449438 0
M  V30 17799 O 1652.66 1.91083 0.346519 0
M  V30 17800 C 1649.79 3.46688 0.206157 0
M  V30 17801 C 1648.74 4.22762 -0.667534 0
M  V30 17802 C 1648.07 5.34402 0.178529 0
M  V30 17803 C 1649.37 4.84535 -1.94995 0
M  V30 17804 H 1651.06 2.66171 -1.37088 0
M  V30 17805 H 1648.61 1.27952 -0.660622 0
M  V30 17806 H 1650.56 4.17985 0.535391 0
M  V30 17807 H 1649.28 3.07422 1.10269 0
M  V30 17808 H 1647.94 3.53259 -0.979976 0
M  V30 17809 H 1647.59 4.91377 1.07508 0
M  V30 17810 H 1647.29 5.86218 -0.402808 0
M  V30 17811 H 1648.81 6.08529 0.502533 0
M  V30 17812 H 1650.23 5.4793 -1.68658 0
M  V30 17813 H 1648.62 5.46564 -2.47765 0
M  V30 17814 H 1649.69 4.06236 -2.64765 0
M  V30 17815 N 1651.04 0.732878 1.39523 0
M  V30 17816 C 1651.97 0.106583 2.33257 0
M  V30 17817 C 1652.95 -0.726582 1.53801 0
M  V30 17818 O 1654.13 -0.671994 1.82203 0
M  V30 17819 C 1651.26 -0.803051 3.37888 0
M  V30 17820 C 1650.22 -0.0742048 4.27936 0
M  V30 17821 C 1649.54 -1.10071 5.23248 0
M  V30 17822 C 1650.84 1.08195 5.10971 0
M  V30 17823 H 1652.54 0.889539 2.8588 0
M  V30 17824 H 1650.08 0.429209 1.37455 0
M  V30 17825 H 1652.04 -1.25071 4.02412 0
M  V30 17826 H 1650.76 -1.6181 2.83699 0
M  V30 17827 H 1649.42 0.35381 3.64889 0
M  V30 17828 H 1649.07 -1.90927 4.65356 0
M  V30 17829 H 1648.77 -0.617825 5.84343 0
M  V30 17830 H 1650.29 -1.54812 5.90649 0
M  V30 17831 H 1651.71 0.712835 5.68851 0
M  V30 17832 H 1650.1 1.49433 5.81197 0
M  V30 17833 H 1651.17 1.90463 4.45928 0
M  V30 17834 N 1652.52 -1.50101 0.480349 0
M  V30 17835 C 1653.93 -1.8668 0.0274773 0
M  V30 17836 C 1654.28 -1.39442 -1.38023 0
M  V30 17837 O 1653.4 -0.763363 -2.02489 0
M  V30 17838 C 1654 -3.38773 0.043087 0
M  V30 17839 C 1652.56 -3.74728 -0.354352 0
M  V30 17840 C 1651.7 -2.7403 0.424583 0
M  V30 17841 H 1654.65 -1.42713 0.694172 0
M  V30 17842 H 1654.68 -3.72894 -0.756989 0
M  V30 17843 H 1654.19 -3.73123 1.06775 0
M  V30 17844 H 1652.29 -3.45981 -1.38303 0
M  V30 17845 H 1652.4 -4.79075 -0.0492608 0
M  V30 17846 H 1650.77 -2.54403 -0.122927 0
M  V30 17847 H 1651.55 -3.11225 1.44894 0
M  V30 17848 N 1653.99 -0.213323 -1.5615 0
M  V30 17849 C 1654.92 0.695003 -2.22917 0
M  V30 17850 C 1655.9 1.20738 -1.19818 0
M  V30 17851 O 1657.09 1.25289 -1.48379 0
M  V30 17852 C 1654.22 1.90685 -2.9027 0
M  V30 17853 C 1653.17 1.52865 -3.9977 0
M  V30 17854 C 1652.5 2.81859 -4.54378 0
M  V30 17855 C 1653.8 0.724829 -5.17246 0
M  V30 17856 H 1655.49 0.138351 -2.9908 0
M  V30 17857 H 1653.04 0.0651029 -1.43853 0
M  V30 17858 H 1654.99 2.54766 -3.35667 0
M  V30 17859 H 1653.72 2.48833 -2.11541 0
M  V30 17860 H 1652.38 0.911336 -3.55092 0
M  V30 17861 H 1652.02 3.38135 -3.72389 0
M  V30 17862 H 1651.72 2.57291 -5.28275 0
M  V30 17863 H 1653.25 3.46897 -5.02489 0
M  V30 17864 H 1654.66 1.26915 -5.59076 0
M  V30 17865 H 1653.06 0.57656 -5.97324 0
M  V30 17866 H 1654.13 -0.270309 -4.84146 0
M  V30 17867 N 1655.47 1.57485 0.0601405 0
M  V30 17868 C 1656.42 2.00939 1.07739 0
M  V30 17869 C 1657.41 0.893348 1.33821 0
M  V30 17870 O 1658.6 1.15727 1.33927 0
M  V30 17871 C 1655.73 2.46657 2.38778 0
M  V30 17872 C 1654.81 3.65019 2.1592 0
M  V30 17873 N 1655.2 4.78807 1.63025 0
M  V30 17874 C 1653.5 3.71794 2.46344 0
M  V30 17875 C 1654.2 5.60599 1.55253 0
M  V30 17876 N 1653.18 5.04788 2.01718 0
M  V30 17877 H 1656.98 2.86349 0.661923 0
M  V30 17878 H 1654.5 1.6019 0.267017 0
M  V30 17879 H 1656.49 2.76032 3.12429 0
M  V30 17880 H 1655.15 1.62639 2.81031 0
M  V30 17881 H 1656.16 5.00868 1.31725 0
M  V30 17882 H 1652.84 2.98513 2.91884 0
M  V30 17883 H 1654.23 6.61966 1.1511 0
M  V30 17884 N 1656.95 -0.331789 1.54068 0
M  V30 17885 C 1657.86 -1.43116 1.8589 0
M  V30 17886 C 1658.88 -1.57003 0.75007 0
M  V30 17887 O 1660.05 -1.72256 1.04355 0
M  V30 17888 C 1657.12 -2.77945 2.07238 0
M  V30 17889 C 1656.18 -2.73303 3.31065 0
M  V30 17890 C 1655.41 -4.01702 3.51385 0
M  V30 17891 O 1655.63 -4.99562 2.75306 0
M  V30 17892 O 1654.57 -4.0546 4.44844 0
M  V30 17893 H 1658.39 -1.19137 2.79357 0
M  V30 17894 H 1655.98 -0.525057 1.3987 0
M  V30 17895 H 1657.86 -3.57774 2.22656 0
M  V30 17896 H 1656.54 -3.01831 1.16959 0
M  V30 17897 H 1655.44 -1.92054 3.21039 0
M  V30 17898 H 1656.78 -2.54371 4.21374 0
M  V30 17899 N 1658.43 -1.46001 -0.593424 0
M  V30 17900 C 1659.36 -1.58605 -1.71367 0
M  V30 17901 C 1660.34 -0.436866 -1.64394 0
M  V30 17902 O 1661.52 -0.661782 -1.82576 0
M  V30 17903 C 1658.65 -1.56587 -3.09996 0
M  V30 17904 C 1657.61 -2.70366 -3.31792 0
M  V30 17905 C 1656.93 -2.53406 -4.70839 0
M  V30 17906 C 1658.23 -4.12274 -3.20667 0
M  V30 17907 H 1659.93 -2.52379 -1.61076 0
M  V30 17908 H 1657.47 -1.21462 -0.773499 0
M  V30 17909 H 1659.43 -1.64 -3.88178 0
M  V30 17910 H 1658.15 -0.593511 -3.21162 0
M  V30 17911 H 1656.81 -2.62405 -2.56006 0
M  V30 17912 H 1656.46 -1.54278 -4.78756 0
M  V30 17913 H 1656.16 -3.29715 -4.86376 0
M  V30 17914 H 1657.68 -2.62694 -5.51203 0
M  V30 17915 H 1659.1 -4.21404 -3.88705 0
M  V30 17916 H 1657.49 -4.89085 -3.47729 0
M  V30 17917 H 1658.56 -4.33184 -2.17898 0
M  V30 17918 N 1659.91 0.83715 -1.33527 0
M  V30 17919 C 1661.32 1.12809 -1.12899 0
M  V30 17920 C 1661.52 2.01345 0.0789761 0
M  V30 17921 O 1660.58 2.40831 0.758732 0
M  V30 17922 C 1661.89 1.78852 -2.41728 0
M  V30 17923 C 1663.44 1.91411 -2.47651 0
M  V30 17924 C 1663.91 2.6087 -3.76445 0
M  V30 17925 N 1665.41 2.68381 -3.77526 0
M  V30 17926 C 1666.14 3.22819 -4.73894 0
M  V30 17927 N 1665.64 3.77931 -5.80638 0
M  V30 17928 N 1667.43 3.21087 -4.61367 0
M  V30 17929 H 1659.58 0.247942 -2.10948 0
M  V30 17930 H 1661.84 0.172518 -0.93217 0
M  V30 17931 H 1661.55 1.21258 -3.30135 0
M  V30 17932 H 1661.42 2.78856 -2.54006 0
M  V30 17933 H 1663.81 2.48159 -1.59691 0
M  V30 17934 H 1663.89 0.903512 -2.39312 0
M  V30 17935 H 1663.54 2.0478 -4.64787 0
M  V30 17936 H 1663.47 3.62404 -3.82061 0
M  V30 17937 H 1665.96 2.29301 -3.00382 0
M  V30 17938 H 1666.27 4.17678 -6.50204 0
M  V30 17939 H 1664.61 3.76214 -5.8437 0
M  V30 17940 H 1667.81 2.7729 -3.77131 0
M  V30 17941 H 1667.98 3.6321 -5.3664 0
M  V30 17942 N 1661.38 1.17024 1.05561 0
M  V30 17943 C 1662.63 0.954436 1.78143 0
M  V30 17944 C 1662.95 -0.518525 1.8798 0
M  V30 17945 O 1662.22 -1.37654 1.39385 0
M  V30 17946 H 1660.8 0.350141 0.659856 0
M  V30 17947 H 1663.47 1.4743 1.27477 0
M  V30 17948 H 1662.56 1.37955 2.79955 0
M  V30 17949 N 1662.86 -1.24221 0.969889 0
M  V30 17950 C 1663.81 -2.23043 0.472854 0
M  V30 17951 C 1664.8 -1.54585 -0.446344 0
M  V30 17952 O 1665.99 -1.74821 -0.27691 0
M  V30 17953 C 1663.12 -3.42504 -0.233578 0
M  V30 17954 C 1662.2 -4.18206 0.704577 0
M  V30 17955 N 1662.59 -4.71037 1.84276 0
M  V30 17956 C 1660.89 -4.43007 0.515795 0
M  V30 17957 C 1661.59 -5.28525 2.42974 0
M  V30 17958 N 1660.57 -5.15849 1.71467 0
M  V30 17959 H 1664.37 -2.6151 1.34126 0
M  V30 17960 H 1661.89 -1.39632 0.829251 0
M  V30 17961 H 1663.88 -4.12459 -0.606891 0
M  V30 17962 H 1662.54 -3.05557 -1.0984 0
M  V30 17963 H 1663.55 -4.67705 2.22424 0
M  V30 17964 H 1660.23 -4.16385 -0.304885 0
M  V30 17965 H 1661.62 -5.8009 3.39035 0
M  V30 17966 N 1664.34 -0.740267 -1.39132 0
M  V30 17967 C 1665.29 -0.0929334 -2.32414 0
M  V30 17968 C 1666.28 0.720062 -1.53334 0
M  V30 17969 O 1667.49 0.620656 -1.68961 0
M  V30 17970 H 1663.86 -0.0112531 -0.751916 0
M  V30 17971 H 1665.83 -0.895975 -2.84631 0
M  V30 17972 C 1664.58 0.796182 -3.38462 0
M  V30 17973 H 1663.91 0.17999 -3.99395 0
M  V30 17974 H 1665.35 1.21664 -4.0617 0
M  V30 17975 C 1663.81 1.93285 -2.75939 0
M  V30 17976 O 1664.34 3.02593 -2.64198 0
M  V30 17977 N 1662.54 1.72386 -2.33948 0
M  V30 17978 H 1662.09 0.834821 -2.43698 0
M  V30 17979 H 1662.05 2.48612 -1.92456 0
M  V30 17980 N 1665.82 1.49844 -0.488302 0
M  V30 17981 C 1667.07 2.02009 0.0605782 0
M  V30 17982 C 1667.39 1.37114 1.38653 0
M  V30 17983 O 1666.66 0.522182 1.88812 0
M  V30 17984 H 1665.24 0.746569 0.0253773 0
M  V30 17985 H 1667.9 1.84 -0.64265 0
M  V30 17986 H 1667 3.11461 0.199542 0
M  V30 17987 N 1667.3 0.221601 1.56034 0
M  V30 17988 C 1668.54 -0.411933 2.00206 0
M  V30 17989 C 1668.9 -1.56945 1.10599 0
M  V30 17990 O 1670.1 -2.269 1.44118 0
M  V30 17991 C 1668.37 -0.835387 3.475 0
M  V30 17992 S 1669.93 -1.46302 4.13692 0
M  V30 17993 H 1666.75 -0.130732 0.698878 0
M  V30 17994 H 1669.35 0.330901 1.92679 0
M  V30 17995 H 1668.06 0.0167339 4.10397 0
M  V30 17996 H 1667.59 -1.61103 3.589 0
M  V30 17997 H 1669.6 -2.75209 4.12885 0
M  V30 17998 N 1668.77 -1.57515 -0.0517878 0
M  V30 17999 C 1670.02 -1.88493 -0.748206 0
M  V30 18000 C 1670.35 -0.816494 -1.76202 0
M  V30 18001 O 1669.63 0.171075 -1.93746 0
M  V30 18002 C 1669.91 -3.30131 -1.43825 0
M  V30 18003 C 1669.76 -4.47648 -0.4395 0
M  V30 18004 C 1671.08 -3.70315 -2.37813 0
M  V30 18005 H 1668.2 -0.68555 -0.270537 0
M  V30 18006 H 1670.84 -1.89997 -0.0111457 0
M  V30 18007 H 1668.99 -3.2898 -2.06651 0
M  V30 18008 H 1670.67 -4.60929 0.185088 0
M  V30 18009 H 1668.91 -4.33117 0.243381 0
M  V30 18010 H 1669.58 -5.43582 -0.96035 0
M  V30 18011 H 1672.06 -3.72687 -1.8505 0
M  V30 18012 H 1670.93 -4.70269 -2.83087 0
M  V30 18013 H 1671.19 -3.0133 -3.23501 0
M  V30 18014 N 1670.25 0.323614 -1.54242 0
M  V30 18015 C 1671.67 0.66795 -1.4495 0
M  V30 18016 C 1671.87 1.91649 -0.622338 0
M  V30 18017 O 1670.93 2.52209 -0.121119 0
M  V30 18018 C 1672.24 0.842006 -2.88671 0
M  V30 18019 C 1673.79 0.93935 -2.98572 0
M  V30 18020 C 1674.26 1.14557 -4.43442 0
M  V30 18021 N 1675.75 1.21231 -4.47054 0
M  V30 18022 C 1676.49 1.38976 -5.56303 0
M  V30 18023 N 1675.98 1.53764 -6.75521 0
M  V30 18024 N 1677.78 1.41684 -5.4395 0
M  V30 18025 H 1669.93 -0.497017 -2.06503 0
M  V30 18026 H 1672.19 -0.160563 -0.934304 0
M  V30 18027 H 1671.9 -0.00418568 -3.517 0
M  V30 18028 H 1671.77 1.73785 -3.34782 0
M  V30 18029 H 1674.16 1.77605 -2.35671 0
M  V30 18030 H 1674.24 0.0199775 -2.55792 0
M  V30 18031 H 1673.88 0.313732 -5.0693 0
M  V30 18032 H 1673.81 2.07882 -4.83831 0
M  V30 18033 H 1676.3 1.11247 -3.61154 0
M  V30 18034 H 1676.62 1.66996 -7.54541 0
M  V30 18035 H 1674.96 1.50862 -6.78429 0
M  V30 18036 H 1678.15 1.29726 -4.49765 0
M  V30 18037 H 1678.33 1.5517 -6.29147 0
M  V30 18038 N 1671.73 1.46313 0.585673 0
M  V30 18039 C 1672.97 1.53027 1.35507 0
M  V30 18040 C 1673.34 0.176473 1.91187 0
M  V30 18041 O 1674.54 0.118349 2.68539 0
M  V30 18042 C 1672.81 2.59609 2.45638 0
M  V30 18043 S 1674.37 2.85706 3.33043 0
M  V30 18044 H 1671.18 0.540697 0.461701 0
M  V30 18045 H 1673.79 1.8353 0.673585 0
M  V30 18046 H 1672.49 3.5661 2.03119 0
M  V30 18047 H 1672.02 2.30829 3.18562 0
M  V30 18048 H 1674.04 2.20751 4.44391 0
M  V30 18049 N 1673.21 -0.830057 1.33969 0
M  V30 18050 C 1674.43 -1.62294 1.29133 0
M  V30 18051 C 1674.86 -1.87627 -0.133253 0
M  V30 18052 O 1674.22 -1.44669 -1.09272 0
M  V30 18053 C 1674.27 -2.94508 2.0808 0
M  V30 18054 O 1673.37 -3.86239 1.44544 0
M  V30 18055 H 1672.71 -0.493865 0.443839 0
M  V30 18056 H 1675.24 -1.03202 1.76665 0
M  V30 18057 H 1675.25 -3.44133 2.19173 0
M  V30 18058 H 1673.93 -2.75392 3.1166 0
M  V30 18059 H 1672.5 -3.44743 1.42151 0
M  V30 18060 N 1674.69 -1.17582 -1.04939 0
M  V30 18061 C 1675.65 -0.897095 -2.10914 0
M  V30 18062 C 1676.65 0.113823 -1.60397 0
M  V30 18063 O 1677.84 -0.118635 -1.73796 0
M  V30 18064 C 1674.97 -0.344251 -3.39157 0
M  V30 18065 H 1676.17 -1.83674 -2.37074 0
M  V30 18066 H 1673.72 -0.986634 -1.21224 0
M  V30 18067 H 1674.45 0.602417 -3.18656 0
M  V30 18068 H 1674.24 -1.07287 -3.77137 0
M  V30 18069 H 1675.73 -0.167644 -4.17263 0
M  V30 18070 N 1676.17 1.23705 -0.976463 0
M  V30 18071 C 1677.41 1.92015 -0.643168 0
M  V30 18072 C 1677.74 1.76239 0.822796 0
M  V30 18073 O 1677 1.11469 1.60851 0
M  V30 18074 C 1677.29 3.43853 -0.974676 0
M  V30 18075 C 1676.96 3.79805 -2.43021 0
M  V30 18076 C 1675.62 3.89329 -2.82801 0
M  V30 18077 C 1677.97 3.97218 -3.37442 0
M  V30 18078 C 1675.3 4.13691 -4.16025 0
M  V30 18079 C 1677.65 4.23079 -4.70305 0
M  V30 18080 C 1676.32 4.30824 -5.0985 0
M  V30 18081 H 1675.59 0.702631 -0.235352 0
M  V30 18082 H 1678.24 1.46811 -1.22959 0
M  V30 18083 H 1676.54 3.90602 -0.306121 0
M  V30 18084 H 1678.24 3.9493 -0.695061 0
M  V30 18085 H 1674.83 3.72963 -2.11179 0
M  V30 18086 H 1679.01 3.89254 -3.07889 0
M  V30 18087 H 1674.27 4.17909 -4.46276 0
M  V30 18088 H 1678.44 4.35496 -5.4343 0
M  V30 18089 H 1676.07 4.49454 -6.13103 0
M  V30 18090 N 1677.64 0.747635 1.38738 0
M  V30 18091 C 1678.87 0.310484 2.05063 0
M  V30 18092 C 1679.29 -1.05078 1.56013 0
M  V30 18093 O 1678.65 -1.66842 0.709461 0
M  V30 18094 C 1678.7 0.335837 3.59033 0
M  V30 18095 O 1677.8 -0.672218 4.06884 0
M  V30 18096 H 1677.14 0.138591 0.649375 0
M  V30 18097 H 1679.67 1.01709 1.77529 0
M  V30 18098 H 1679.68 0.184631 4.07582 0
M  V30 18099 H 1678.36 1.32906 3.94092 0
M  V30 18100 H 1676.94 -0.486112 3.69718 0
M  V30 18101 N 1679.12 -1.49583 0.496242 0
M  V30 18102 C 1680.37 -2.02738 -0.050037 0
M  V30 18103 C 1680.7 -1.37556 -1.37083 0
M  V30 18104 O 1679.98 -0.50964 -1.87704 0
M  V30 18105 C 1680.26 -3.59501 -0.207575 0
M  V30 18106 C 1680.11 -4.35218 1.13601 0
M  V30 18107 C 1681.43 -4.29715 -0.950443 0
M  V30 18108 H 1678.55 -0.736811 -0.0167105 0
M  V30 18109 H 1681.19 -1.78654 0.646728 0
M  V30 18110 H 1679.34 -3.80152 -0.801033 0
M  V30 18111 H 1681.01 -4.26075 1.76798 0
M  V30 18112 H 1679.26 -3.97964 1.72648 0
M  V30 18113 H 1679.93 -5.43247 0.979142 0
M  V30 18114 H 1682.4 -4.1369 -0.447173 0
M  V30 18115 H 1681.28 -5.39159 -1.02951 0
M  V30 18116 H 1681.54 -3.94627 -1.99304 0
M  V30 18117 N 1680.6 -0.229873 -1.55915 0
M  V30 18118 C 1681.88 0.449007 -1.90377 0
M  V30 18119 C 1682.26 1.77133 -1.14835 0
M  V30 18120 O 1681.6 2.27012 -0.260328 0
M  V30 18121 C 1681.81 0.633805 -3.43197 0
M  V30 18122 C 1683.16 0.937453 -4.14122 0
M  V30 18123 O 1684.19 0.72029 -3.48841 0
M  V30 18124 O 1683.05 1.35005 -5.29562 0
M  V30 18125 H 1680.14 0.238557 -0.791846 0
M  V30 18126 H 1682.69 -0.272676 -1.67495 0
M  V30 18127 H 1681.46 -0.298587 -3.90159 0
M  V30 18128 H 1681.08 1.40667 -3.71885 0
M  V30 18129 N 1682.08 1.5754 0.0434337 0
M  V30 18130 C 1683.3 1.93247 0.753012 0
M  V30 18131 C 1683.73 0.828712 1.68861 0
M  V30 18132 O 1683.09 -0.216618 1.80001 0
M  V30 18133 C 1683.13 3.27989 1.49852 0
M  V30 18134 O 1682.24 3.19223 2.61094 0
M  V30 18135 H 1681.58 0.632032 0.203547 0
M  V30 18136 H 1684.11 2.046 0.00319776 0
M  V30 18137 H 1684.12 3.62539 1.87161 0
M  V30 18138 H 1682.79 4.07891 0.812251 0
M  V30 18139 H 1681.37 2.9628 2.26434 0
M  V30 18140 N 1683.56 -0.31543 1.54411 0
M  V30 18141 C 1684.78 -1.07173 1.76979 0
M  V30 18142 C 1685.2 -1.81432 0.522285 0
M  V30 18143 O 1684.56 -1.75306 -0.507348 0
M  V30 18144 C 1684.61 -2.06352 2.96818 0
M  V30 18145 O 1684.33 -1.35108 4.16746 0
M  V30 18146 C 1685.83 -2.94136 3.31661 0
M  V30 18147 H 1683.05 -0.318455 0.590616 0
M  V30 18148 H 1685.59 -0.359085 2.01323 0
M  V30 18149 H 1683.75 -2.7314 2.74724 0
M  V30 18150 H 1684.16 -2.01593 4.84211 0
M  V30 18151 H 1685.64 -3.59606 4.18793 0
M  V30 18152 H 1686.11 -3.6167 2.49182 0
M  V30 18153 H 1686.72 -2.32899 3.55863 0
M  V30 18154 N 1685.03 -1.46622 -0.577906 0
M  V30 18155 C 1685.96 -1.60413 -1.69676 0
M  V30 18156 C 1686.95 -0.454277 -1.63922 0
M  V30 18157 O 1688.13 -0.68111 -1.81864 0
M  V30 18158 C 1685.26 -1.59866 -3.08318 0
M  V30 18159 C 1684.21 -2.7387 -3.28906 0
M  V30 18160 C 1683.54 -2.58386 -4.68125 0
M  V30 18161 C 1684.84 -4.15652 -3.16276 0
M  V30 18162 H 1686.53 -2.54073 -1.5839 0
M  V30 18163 H 1684.08 -1.22275 -0.760572 0
M  V30 18164 H 1686.03 -1.68108 -3.86417 0
M  V30 18165 H 1684.76 -0.627541 -3.20514 0
M  V30 18166 H 1683.42 -2.65105 -2.53209 0
M  V30 18167 H 1683.06 -1.59347 -4.77093 0
M  V30 18168 H 1682.76 -3.34855 -4.82852 0
M  V30 18169 H 1684.29 -2.68525 -5.48385 0
M  V30 18170 H 1685.7 -4.25503 -3.84214 0
M  V30 18171 H 1684.1 -4.92746 -3.42523 0
M  V30 18172 H 1685.17 -4.35471 -2.13291 0
M  V30 18173 N 1686.51 0.822941 -1.34408 0
M  V30 18174 C 1687.44 1.94878 -1.28627 0
M  V30 18175 C 1688.42 1.6931 -0.163727 0
M  V30 18176 O 1689.61 1.90908 -0.356083 0
M  V30 18177 C 1686.74 3.31333 -1.04094 0
M  V30 18178 C 1685.69 3.71341 -2.12814 0
M  V30 18179 C 1685.02 5.05779 -1.73469 0
M  V30 18180 C 1686.32 3.83439 -3.54643 0
M  V30 18181 H 1688.01 1.99972 -2.22827 0
M  V30 18182 H 1685.56 0.960715 -1.07267 0
M  V30 18183 H 1687.51 4.0968 -0.986947 0
M  V30 18184 H 1686.24 3.26539 -0.0633642 0
M  V30 18185 H 1684.89 2.95269 -2.17282 0
M  V30 18186 H 1684.54 4.97471 -0.743727 0
M  V30 18187 H 1684.24 5.33518 -2.46236 0
M  V30 18188 H 1685.77 5.86583 -1.69566 0
M  V30 18189 H 1687.18 4.52057 -3.52587 0
M  V30 18190 H 1685.58 4.22632 -4.2603 0
M  V30 18191 H 1686.65 2.85439 -3.91986 0
M  V30 18192 N 1687.99 1.18137 1.04314 0
M  V30 18193 C 1688.95 0.908268 2.10436 0
M  V30 18194 C 1689.95 -0.105315 1.60455 0
M  V30 18195 O 1691.14 0.12785 1.7373 0
M  V30 18196 C 1688.28 0.362233 3.3897 0
M  V30 18197 H 1689.47 1.84928 2.36096 0
M  V30 18198 H 1687.02 0.993048 1.20699 0
M  V30 18199 H 1687.76 -0.58551 3.18971 0
M  V30 18200 H 1687.54 1.09285 3.76562 0
M  V30 18201 H 1689.03 0.18977 4.17169 0
M  V30 18202 N 1689.47 -1.23186 0.98301 0
M  V30 18203 C 1690.7 -1.95702 0.671453 0
M  V30 18204 C 1691.11 -1.72737 -0.76206 0
M  V30 18205 O 1690.47 -1.02037 -1.5131 0
M  V30 18206 C 1690.52 -3.48642 0.955573 0
M  V30 18207 O 1690.24 -3.70829 2.33275 0
M  V30 18208 C 1691.74 -4.38354 0.660333 0
M  V30 18209 H 1688.96 -0.623006 0.249209 0
M  V30 18210 H 1691.51 -1.56606 1.3151 0
M  V30 18211 H 1689.66 -3.85743 0.357892 0
M  V30 18212 H 1690.07 -4.65104 2.42443 0
M  V30 18213 H 1691.55 -5.44456 0.909477 0
M  V30 18214 H 1692.03 -4.37323 -0.405615 0
M  V30 18215 H 1692.63 -4.06864 1.23861 0
M  V30 18216 N 1690.95 -0.754982 -1.38339 0
M  V30 18217 C 1692.19 -0.311146 -1.9969 0
M  V30 18218 C 1692.52 1.11138 -1.60229 0
M  V30 18219 O 1691.79 1.76024 -0.859794 0
M  V30 18220 H 1690.37 -0.112052 -0.738548 0
M  V30 18221 H 1693.03 -0.969386 -1.69083 0
M  V30 18222 H 1692.12 -0.375392 -3.09834 0
M  V30 18223 N 1692.42 1.49318 -0.504168 0
M  V30 18224 C 1693.7 1.95332 0.102393 0
M  V30 18225 C 1694.08 1.44576 1.53821 0
M  V30 18226 O 1693.43 0.660894 2.18734 0
M  V30 18227 C 1693.64 3.48998 0.0117694 0
M  V30 18228 C 1694.99 4.24201 0.184101 0
M  V30 18229 O 1696.01 3.56094 0.0868056 0
M  V30 18230 O 1694.87 5.45147 0.384267 0
M  V30 18231 H 1691.96 0.821691 0.0935582 0
M  V30 18232 H 1694.51 1.5995 -0.566932 0
M  V30 18233 H 1693.28 3.78585 -0.989413 0
M  V30 18234 H 1692.91 3.91006 0.7211 0
M  V30 18235 N 1693.9 0.238138 1.5579 0
M  V30 18236 C 1695.18 -0.438905 1.90612 0
M  V30 18237 C 1695.56 -1.76522 1.15773 0
M  V30 18238 O 1694.91 -2.26871 0.272363 0
M  V30 18239 C 1695.12 -0.615595 3.43528 0
M  V30 18240 C 1696.47 -0.915478 4.14613 0
M  V30 18241 O 1697.49 -0.70178 3.49218 0
M  V30 18242 O 1696.35 -1.32194 5.30271 0
M  V30 18243 H 1693.44 -0.234355 0.7931 0
M  V30 18244 H 1695.99 0.281555 1.67348 0
M  V30 18245 H 1694.76 0.319274 3.89995 0
M  V30 18246 H 1694.38 -1.38692 3.72626 0
M  V30 18247 N 1695.38 -1.57561 -0.0350783 0
M  V30 18248 C 1696.33 -2.07246 -1.05602 0
M  V30 18249 C 1697.32 -0.985013 -1.37818 0
M  V30 18250 O 1698.53 -1.16993 -1.36794 0
M  V30 18251 H 1694.9 -0.661286 -0.358057 0
M  V30 18252 H 1696.87 -2.92075 -0.611124 0
M  V30 18253 C 1695.62 -2.56235 -2.3503 0
M  V30 18254 H 1694.95 -3.39525 -2.111 0
M  V30 18255 H 1696.39 -2.94716 -3.04826 0
M  V30 18256 C 1694.85 -1.46096 -3.03575 0
M  V30 18257 O 1695.38 -0.823772 -3.93163 0
M  V30 18258 N 1693.58 -1.19698 -2.64803 0
M  V30 18259 H 1693.13 -1.71697 -1.92036 0
M  V30 18260 H 1693.09 -0.462174 -3.10984 0
M  V30 18261 N 1696.86 0.307236 -1.54576 0
M  V30 18262 C 1698.11 1.04115 -1.73218 0
M  V30 18263 C 1698.43 1.88008 -0.517482 0
M  V30 18264 O 1697.7 1.90219 0.468336 0
M  V30 18265 H 1696.28 0.387388 -0.638701 0
M  V30 18266 H 1698.94 0.339727 -1.91916 0
M  V30 18267 H 1698.04 1.69784 -2.61877 0
M  V30 18268 N 1698.34 1.46926 0.570122 0
M  V30 18269 C 1699.25 1.6105 1.70587 0
M  V30 18270 C 1700.26 0.493636 1.66851 0
M  V30 18271 O 1701.44 0.759454 1.86532 0
M  V30 18272 C 1698.5 1.60913 3.07096 0
M  V30 18273 C 1697.56 2.83928 3.21999 0
M  V30 18274 C 1696.8 2.83788 4.51996 0
M  V30 18275 O 1697.02 1.93256 5.36664 0
M  V30 18276 O 1695.95 3.75491 4.70415 0
M  V30 18277 H 1699.78 2.57126 1.61616 0
M  V30 18278 H 1697.37 1.29863 0.738637 0
M  V30 18279 H 1699.25 1.63576 3.88356 0
M  V30 18280 H 1697.92 0.680005 3.16477 0
M  V30 18281 H 1696.83 2.86814 2.40185 0
M  V30 18282 H 1698.16 3.76091 3.17516 0
M  V30 18283 N 1699.82 -0.815801 1.34842 0
M  V30 18284 C 1701.06 -1.56747 1.26938 0
M  V30 18285 C 1701.38 -1.9497 -0.156887 0
M  V30 18286 O 1702.58 -2.69128 -0.358132 0
M  V30 18287 C 1701.04 -2.82832 2.22562 0
M  V30 18288 C 1700.65 -2.51883 3.70485 0
M  V30 18289 C 1702.39 -3.60849 2.23581 0
M  V30 18290 C 1700.3 -3.74204 4.57957 0
M  V30 18291 H 1699.23 -0.58832 0.471588 0
M  V30 18292 H 1701.88 -0.897551 1.60051 0
M  V30 18293 H 1700.26 -3.51486 1.8241 0
M  V30 18294 H 1701.44 -1.91294 4.19217 0
M  V30 18295 H 1699.75 -1.87129 3.71983 0
M  V30 18296 H 1702.35 -4.51686 2.86154 0
M  V30 18297 H 1702.69 -3.97496 1.23703 0
M  V30 18298 H 1703.22 -2.99146 2.62215 0
M  V30 18299 H 1699.96 -3.42672 5.58799 0
M  V30 18300 H 1699.48 -4.34051 4.13956 0
M  V30 18301 H 1701.16 -4.41536 4.72921 0
M  V30 18302 N 1701.29 -1.18689 -1.03686 0
M  V30 18303 C 1702.71 -0.937386 -1.29171 0
M  V30 18304 C 1702.91 0.394863 -1.97593 0
M  V30 18305 O 1701.97 1.12829 -2.25889 0
M  V30 18306 C 1703.28 -2.10568 -2.14666 0
M  V30 18307 C 1704.83 -2.14441 -2.28 0
M  V30 18308 C 1705.3 -3.30699 -3.16863 0
M  V30 18309 N 1706.79 -3.30584 -3.24451 0
M  V30 18310 C 1707.53 -4.17184 -3.93376 0
M  V30 18311 N 1707.02 -5.13924 -4.646 0
M  V30 18312 N 1708.82 -4.05086 -3.89694 0
M  V30 18313 H 1700.97 -2.04417 -0.576836 0
M  V30 18314 H 1703.23 -0.893404 -0.31707 0
M  V30 18315 H 1702.94 -3.06938 -1.71702 0
M  V30 18316 H 1702.81 -2.06955 -3.15356 0
M  V30 18317 H 1705.2 -1.18647 -2.70198 0
M  V30 18318 H 1705.28 -2.22111 -1.26888 0
M  V30 18319 H 1704.92 -4.26768 -2.75375 0
M  V30 18320 H 1704.85 -3.20266 -4.18016 0
M  V30 18321 H 1707.34 -2.60552 -2.73717 0
M  V30 18322 H 1707.66 -5.76368 -5.14801 0
M  V30 18323 H 1706 -5.1788 -4.63492 0
M  V30 18324 H 1709.19 -3.28793 -3.33186 0
M  V30 18325 H 1709.37 -4.72792 -4.43139 0
M  V30 18326 N 1702.77 1.22662 -0.989529 0
M  V30 18327 C 1704.02 1.90632 -0.65897 0
M  V30 18328 C 1704.33 1.77942 0.812165 0
M  V30 18329 O 1705.54 2.40796 1.25417 0
M  V30 18330 C 1704 3.41763 -1.12809 0
M  V30 18331 C 1703.6 3.63097 -2.62421 0
M  V30 18332 C 1705.35 4.15454 -0.871698 0
M  V30 18333 C 1703.25 5.07911 -3.02953 0
M  V30 18334 H 1702.18 0.713847 -0.242772 0
M  V30 18335 H 1704.84 1.38942 -1.19864 0
M  V30 18336 H 1703.22 3.92616 -0.516564 0
M  V30 18337 H 1704.39 3.22751 -3.2889 0
M  V30 18338 H 1702.71 3.02733 -2.85905 0
M  V30 18339 H 1705.3 5.22181 -1.15027 0
M  V30 18340 H 1705.65 4.15856 0.192186 0
M  V30 18341 H 1706.18 3.70618 -1.44525 0
M  V30 18342 H 1702.92 5.12646 -4.08503 0
M  V30 18343 H 1702.44 5.49172 -2.41185 0
M  V30 18344 H 1704.12 5.76311 -2.94066 0
M  V30 18345 N 1704.25 0.762308 1.37937 0
M  V30 18346 C 1705.5 0.331831 2.00675 0
M  V30 18347 C 1705.85 -1.07702 1.5943 0
M  V30 18348 O 1705.14 -1.72885 0.825917 0
M  V30 18349 C 1705.34 0.402558 3.55126 0
M  V30 18350 C 1705.17 1.81674 4.11369 0
M  V30 18351 C 1703.94 2.43527 4.42744 0
M  V30 18352 C 1706.13 2.77478 4.33024 0
M  V30 18353 N 1704.12 3.76816 4.84647 0
M  V30 18354 C 1705.49 3.95549 4.77432 0
M  V30 18355 C 1707.54 2.74888 4.1514 0
M  V30 18356 C 1706.25 5.114 5.05829 0
M  V30 18357 C 1708.27 3.89904 4.44667 0
M  V30 18358 C 1707.63 5.06714 4.89306 0
M  V30 18359 H 1703.73 0.16827 0.763681 0
M  V30 18360 H 1706.32 0.994125 1.67407 0
M  V30 18361 H 1704.49 -0.229509 3.87721 0
M  V30 18362 H 1706.22 -0.0490702 4.0467 0
M  V30 18363 H 1702.97 1.95221 4.31492 0
M  V30 18364 H 1703.4 4.45321 5.0992 0
M  V30 18365 H 1708.04 1.85757 3.79808 0
M  V30 18366 H 1705.76 6.01139 5.40054 0
M  V30 18367 H 1709.34 3.89229 4.32425 0
M  V30 18368 H 1708.22 5.94236 5.11716 0
M  V30 18369 N 1705.73 -1.49049 0.51208 0
M  V30 18370 C 1706.68 -2.30981 -0.273991 0
M  V30 18371 C 1707.67 -1.40092 -0.952402 0
M  V30 18372 O 1708.88 -1.57088 -0.878828 0
M  V30 18373 H 1705.25 -0.744317 -0.107221 0
M  V30 18374 H 1707.22 -2.95185 0.436866 0
M  V30 18375 C 1705.97 -3.21714 -1.31892 0
M  V30 18376 H 1705.29 -3.91585 -0.806302 0
M  V30 18377 H 1706.73 -3.81961 -1.8407 0
M  V30 18378 C 1705.19 -2.42082 -2.34303 0
M  V30 18379 O 1705.72 -2.13285 -3.40401 0
M  V30 18380 N 1703.93 -2.03903 -2.07055 0
M  V30 18381 H 1703.48 -2.27523 -1.20794 0
M  V30 18382 H 1703.43 -1.50932 -2.75802 0
M  V30 18383 N 1707.21 -0.246397 -1.55662 0
M  V30 18384 C 1708.45 0.379047 -1.99226 0
M  V30 18385 C 1708.78 1.57627 -1.13434 0
M  V30 18386 O 1708.06 1.93493 -0.197627 0
M  V30 18387 C 1708.34 0.789403 -3.51341 0
M  V30 18388 C 1708.2 -0.413176 -4.47898 0
M  V30 18389 C 1709.51 1.63656 -4.0854 0
M  V30 18390 H 1706.63 0.136302 -0.724286 0
M  V30 18391 H 1709.28 -0.347607 -1.86793 0
M  V30 18392 H 1707.43 1.40854 -3.62067 0
M  V30 18393 H 1709.1 -1.0516 -4.49154 0
M  V30 18394 H 1707.34 -1.05636 -4.20741 0
M  V30 18395 H 1708.01 -0.0827267 -5.51938 0
M  V30 18396 H 1710.49 1.11393 -4.00912 0
M  V30 18397 H 1709.36 1.89254 -5.15242 0
M  V30 18398 H 1709.62 2.60823 -3.56965 0
M  V30 18399 N 1708.68 1.57577 0.026722 0
M  V30 18400 C 1709.91 1.94035 0.732473 0
M  V30 18401 C 1710.33 0.846575 1.67972 0
M  V30 18402 O 1709.69 -0.197514 1.80221 0
M  V30 18403 C 1709.74 3.2956 1.46365 0
M  V30 18404 O 1708.84 3.21975 2.57694 0
M  V30 18405 H 1708.18 0.634155 0.196832 0
M  V30 18406 H 1710.71 2.04592 -0.018503 0
M  V30 18407 H 1710.72 3.64504 1.83305 0
M  V30 18408 H 1709.4 4.0873 0.768943 0
M  V30 18409 H 1707.98 2.98665 2.23279 0
M  V30 18410 N 1710.16 -0.299034 1.54737 0
M  V30 18411 C 1711.11 -1.38889 1.86581 0
M  V30 18412 C 1712.1 -1.52396 0.739723 0
M  V30 18413 O 1713.31 -1.5449 0.92374 0
M  V30 18414 H 1709.68 -0.463969 0.591808 0
M  V30 18415 H 1711.66 -1.09268 2.77674 0
M  V30 18416 C 1710.4 -2.74702 2.13152 0
M  V30 18417 H 1709.73 -2.65092 2.99277 0
M  V30 18418 H 1711.17 -3.49967 2.39372 0
M  V30 18419 C 1709.63 -3.23789 0.930706 0
M  V30 18420 O 1710.16 -4.01412 0.152193 0
M  V30 18421 N 1708.36 -2.81137 0.735545 0
M  V30 18422 H 1707.91 -2.1813 1.37029 0
M  V30 18423 H 1707.87 -3.1433 -0.0663452 0
M  V30 18424 N 1711.64 -1.47227 -0.562322 0
M  V30 18425 C 1712.89 -1.53286 -1.31712 0
M  V30 18426 C 1713.21 -0.194583 -1.94027 0
M  V30 18427 O 1712.48 0.780961 -1.7966 0
M  V30 18428 H 1711.06 -0.564621 -0.489094 0
M  V30 18429 H 1713.72 -1.83492 -0.657024 0
M  V30 18430 H 1712.82 -2.29665 -2.1133 0
M  V30 18431 N 1713.12 0.808639 -1.35273 0
M  V30 18432 C 1714.03 1.95198 -1.30134 0
M  V30 18433 C 1715.04 1.72769 -0.206587 0
M  V30 18434 O 1716.22 1.96633 -0.4356 0
M  V30 18435 C 1713.28 3.29747 -1.07087 0
M  V30 18436 C 1712.35 3.65086 -2.25855 0
M  V30 18437 C 1711.58 4.93215 -2.03898 0
M  V30 18438 O 1711.8 5.61487 -1.00439 0
M  V30 18439 O 1710.74 5.26765 -2.91208 0
M  V30 18440 H 1714.56 2.0248 -2.26353 0
M  V30 18441 H 1712.15 0.946124 -1.15624 0
M  V30 18442 H 1714.03 4.10302 -0.960734 0
M  V30 18443 H 1712.7 3.23401 -0.139177 0
M  V30 18444 H 1711.61 2.84917 -2.42432 0
M  V30 18445 H 1712.94 3.76135 -3.17464 0
M  V30 18446 N 1714.6 1.19237 1.03055 0
M  V30 18447 C 1715.53 0.95226 2.132 0
M  V30 18448 C 1716.51 -0.113771 1.69719 0
M  V30 18449 O 1717.69 0.0409057 1.94157 0
M  V30 18450 C 1714.82 0.488296 3.4385 0
M  V30 18451 C 1713.78 1.49597 4.01005 0
M  V30 18452 C 1713.1 0.889148 5.27255 0
M  V30 18453 C 1714.4 2.87571 4.36005 0
M  V30 18454 H 1716.1 1.87343 2.33544 0
M  V30 18455 H 1713.64 0.902172 1.12236 0
M  V30 18456 H 1715.6 0.307623 4.20276 0
M  V30 18457 H 1714.32 -0.468469 3.23223 0
M  V30 18458 H 1712.98 1.66376 3.26672 0
M  V30 18459 H 1712.63 -0.0751191 5.02944 0
M  V30 18460 H 1712.33 1.56202 5.66458 0
M  V30 18461 H 1713.85 0.719233 6.06349 0
M  V30 18462 H 1715.26 2.74384 5.03375 0
M  V30 18463 H 1713.66 3.51635 4.86285 0
M  V30 18464 H 1714.73 3.40353 3.45381 0
M  V30 18465 N 1716.07 -1.22136 0.99602 0
M  V30 18466 C 1717 -2.26463 0.568909 0
M  V30 18467 C 1717.99 -1.65189 -0.405783 0
M  V30 18468 O 1719.17 -1.91935 -0.295735 0
M  V30 18469 C 1716.3 -3.47112 -0.114166 0
M  V30 18470 C 1715.25 -4.20844 0.779387 0
M  V30 18471 C 1714.58 -5.34687 -0.0367787 0
M  V30 18472 C 1715.88 -4.79195 2.07773 0
M  V30 18473 H 1717.57 -2.62443 1.44097 0
M  V30 18474 H 1715.12 -1.26156 0.694314 0
M  V30 18475 H 1717.07 -4.19258 -0.424381 0
M  V30 18476 H 1715.8 -3.10238 -1.02079 0
M  V30 18477 H 1714.46 -3.50537 1.07329 0
M  V30 18478 H 1714.1 -4.94054 -0.94442 0
M  V30 18479 H 1713.8 -5.84944 0.558092 0
M  V30 18480 H 1715.33 -6.09647 -0.341016 0
M  V30 18481 H 1716.74 -5.43266 1.83126 0
M  V30 18482 H 1715.14 -5.39803 2.62169 0
M  V30 18483 H 1716.21 -3.99073 2.75442 0
M  V30 18484 N 1717.55 -0.769612 -1.37531 0
M  V30 18485 C 1718.5 -0.128018 -2.2764 0
M  V30 18486 C 1719.49 0.67633 -1.45995 0
M  V30 18487 O 1720.68 0.539654 -1.68573 0
M  V30 18488 C 1717.81 0.751936 -3.34964 0
M  V30 18489 C 1716.89 -0.0601264 -4.24057 0
M  V30 18490 N 1717.28 -1.10468 -4.93589 0
M  V30 18491 C 1715.58 0.164189 -4.45698 0
M  V30 18492 C 1716.28 -1.59737 -5.59338 0
M  V30 18493 N 1715.26 -0.909912 -5.35931 0
M  V30 18494 H 1719.06 -0.927797 -2.78871 0
M  V30 18495 H 1716.58 -0.607165 -1.50623 0
M  V30 18496 H 1718.57 1.22733 -3.98425 0
M  V30 18497 H 1717.23 1.55049 -2.85289 0
M  V30 18498 H 1718.24 -1.48679 -4.961 0
M  V30 18499 H 1714.92 0.934815 -4.069 0
M  V30 18500 H 1716.31 -2.46835 -6.24918 0
M  V30 18501 N 1719.03 1.48775 -0.519977 0
M  V30 18502 C 1719.96 2.32292 0.237213 0
M  V30 18503 C 1720.94 1.4146 0.944625 0
M  V30 18504 O 1722.13 1.70355 0.932349 0
M  V30 18505 C 1719.26 3.22426 1.29068 0
M  V30 18506 C 1718.21 4.22204 0.702011 0
M  V30 18507 C 1717.54 5.01403 1.85739 0
M  V30 18508 C 1718.84 5.21321 -0.319626 0
M  V30 18509 H 1720.53 2.95846 -0.459949 0
M  V30 18510 H 1718.08 1.42268 -0.222641 0
M  V30 18511 H 1720.03 3.79674 1.82826 0
M  V30 18512 H 1718.75 2.56853 2.01728 0
M  V30 18513 H 1717.41 3.66128 0.186027 0
M  V30 18514 H 1717.06 4.32262 2.57214 0
M  V30 18515 H 1716.76 5.68929 1.46949 0
M  V30 18516 H 1718.28 5.615 2.39895 0
M  V30 18517 H 1719.7 5.73151 0.130505 0
M  V30 18518 H 1718.1 5.96843 -0.624377 0
M  V30 18519 H 1719.17 4.69069 -1.22893 0
M  V30 18520 N 1720.51 0.254649 1.55529 0
M  V30 18521 C 1721.75 -0.369374 2.01035 0
M  V30 18522 C 1722.11 -1.54564 1.13904 0
M  V30 18523 O 1723.31 -2.23792 1.48899 0
M  V30 18524 C 1721.58 -0.761489 3.49194 0
M  V30 18525 S 1723.14 -1.37494 4.16702 0
M  V30 18526 H 1719.96 -0.115878 0.701494 0
M  V30 18527 H 1722.56 0.371696 1.91934 0
M  V30 18528 H 1721.27 0.103781 4.10269 0
M  V30 18529 H 1720.8 -1.53454 3.62237 0
M  V30 18530 H 1722.81 -2.66389 4.1863 0
M  V30 18531 N 1721.99 -1.57589 -0.0183649 0
M  V30 18532 C 1722.95 -2.06217 -1.00035 0
M  V30 18533 C 1723.95 -0.968195 -1.28385 0
M  V30 18534 O 1725.14 -1.23147 -1.23209 0
M  V30 18535 C 1722.27 -2.48815 -2.33032 0
M  V30 18536 H 1723.46 -2.94236 -0.580085 0
M  V30 18537 H 1721.02 -1.5403 -0.265438 0
M  V30 18538 H 1721.75 -1.63985 -2.79785 0
M  V30 18539 H 1721.54 -3.28694 -2.13781 0
M  V30 18540 H 1723.03 -2.86828 -3.03512 0
M  V30 18541 N 1723.46 0.290824 -1.54893 0
M  V30 18542 C 1724.88 0.86313 -1.6555 0
M  V30 18543 C 1725.23 1.87713 -0.570806 0
M  V30 18544 O 1724.35 2.14437 0.290826 0
M  V30 18545 C 1724.95 1.57231 -3.00107 0
M  V30 18546 C 1723.51 2.09288 -3.1285 0
M  V30 18547 C 1722.65 0.928933 -2.61278 0
M  V30 18548 H 1725.6 0.0675807 -1.58556 0
M  V30 18549 H 1725.62 2.43841 -2.92099 0
M  V30 18550 H 1725.14 0.834055 -3.79032 0
M  V30 18551 H 1723.24 2.86129 -2.38665 0
M  V30 18552 H 1723.35 2.32042 -4.19158 0
M  V30 18553 H 1721.71 1.31735 -2.17986 0
M  V30 18554 H 1722.5 0.204475 -3.42691 0
M  V30 18555 N 1724.94 1.47523 0.554506 0
M  V30 18556 C 1725.87 1.63093 1.67102 0
M  V30 18557 C 1726.85 0.480298 1.63178 0
M  V30 18558 O 1728.04 0.709956 1.80757 0
M  V30 18559 C 1725.17 1.64751 3.05736 0
M  V30 18560 C 1724.12 2.79068 3.24507 0
M  V30 18561 C 1723.45 2.65801 4.63955 0
M  V30 18562 C 1724.75 4.20631 3.09623 0
M  V30 18563 H 1726.44 2.56561 1.54328 0
M  V30 18564 H 1723.99 1.2347 0.741023 0
M  V30 18565 H 1725.94 1.74234 3.83693 0
M  V30 18566 H 1724.67 0.678453 3.19475 0
M  V30 18567 H 1723.32 2.691 2.48959 0
M  V30 18568 H 1722.97 1.66917 4.74497 0
M  V30 18569 H 1722.67 3.42494 4.77464 0
M  V30 18570 H 1724.2 2.77216 5.44044 0
M  V30 18571 H 1725.61 4.31562 3.77396 0
M  V30 18572 H 1724.01 4.98133 3.3464 0
M  V30 18573 H 1725.08 4.38809 2.06336 0
M  V30 18574 N 1726.42 -0.801453 1.357 0
M  V30 18575 C 1727.65 -1.59518 1.32547 0
M  V30 18576 C 1728.07 -1.87868 -0.0934243 0
M  V30 18577 O 1727.43 -1.46955 -1.06179 0
M  V30 18578 C 1727.48 -2.90028 2.14281 0
M  V30 18579 O 1726.58 -3.83086 1.52704 0
M  V30 18580 H 1725.92 -0.48434 0.454215 0
M  V30 18581 H 1728.45 -0.994315 1.78814 0
M  V30 18582 H 1728.46 -3.39406 2.26423 0
M  V30 18583 H 1727.14 -2.6872 3.17431 0
M  V30 18584 H 1725.71 -3.4165 1.49432 0
M  V30 18585 N 1727.9 -1.19782 -1.02421 0
M  V30 18586 C 1728.81 -0.955253 -2.14271 0
M  V30 18587 C 1729.82 0.0863233 -1.73786 0
M  V30 18588 O 1731 -0.0993878 -2.01155 0
M  V30 18589 C 1728.07 -0.502219 -3.43043 0
M  V30 18590 C 1727.13 -1.61374 -3.97815 0
M  V30 18591 C 1726.36 -1.18223 -5.20441 0
M  V30 18592 O 1726.58 -0.0477334 -5.7038 0
M  V30 18593 O 1725.52 -1.98664 -5.68169 0
M  V30 18594 H 1729.34 -1.89157 -2.37599 0
M  V30 18595 H 1726.93 -0.981035 -1.12677 0
M  V30 18596 H 1728.81 -0.258445 -4.20607 0
M  V30 18597 H 1727.48 0.4056 -3.21149 0
M  V30 18598 H 1726.39 -1.91172 -3.21565 0
M  V30 18599 H 1727.72 -2.49829 -4.24083 0
M  V30 18600 N 1729.38 1.21606 -1.00248 0
M  V30 18601 C 1730.29 2.2757 -0.570004 0
M  V30 18602 C 1731.3 1.69669 0.385788 0
M  V30 18603 O 1732.48 1.99839 0.250246 0
M  V30 18604 C 1729.54 3.46558 0.0990566 0
M  V30 18605 C 1728.61 4.19741 -0.9009 0
M  V30 18606 C 1727.84 5.33048 -0.263673 0
M  V30 18607 O 1728.06 5.62599 0.940131 0
M  V30 18608 O 1727 5.93978 -0.973342 0
M  V30 18609 H 1730.82 2.66751 -1.45182 0
M  V30 18610 H 1728.41 1.27955 -0.771224 0
M  V30 18611 H 1730.29 4.18733 0.47339 0
M  V30 18612 H 1728.96 3.09283 0.955285 0
M  V30 18613 H 1727.87 3.49798 -1.32634 0
M  V30 18614 H 1729.2 4.60921 -1.72664 0
M  V30 18615 N 1730.86 0.776895 1.37121 0
M  V30 18616 C 1732.1 0.342876 1.9917 0
M  V30 18617 C 1732.42 -1.08574 1.61977 0
M  V30 18618 O 1731.69 -1.74634 0.887689 0
M  V30 18619 H 1730.27 0.123788 0.736672 0
M  V30 18620 H 1732.94 0.996163 1.67519 0
M  V30 18621 H 1732.03 0.424637 3.09198 0
M  V30 18622 N 1732.33 -1.48497 0.527859 0
M  V30 18623 C 1733.3 -2.2809 -0.225312 0
M  V30 18624 C 1734.3 -1.35251 -0.869707 0
M  V30 18625 O 1735.49 -1.58163 -0.730086 0
M  V30 18626 C 1732.62 -3.14061 -1.32584 0
M  V30 18627 H 1733.81 -2.96139 0.473465 0
M  V30 18628 H 1731.36 -1.53703 0.283724 0
M  V30 18629 H 1732.1 -2.50638 -2.05794 0
M  V30 18630 H 1731.88 -3.82351 -0.868922 0
M  V30 18631 H 1733.37 -3.74106 -1.85566 0
M  V30 18632 N 1733.81 -0.262893 -1.55392 0
M  V30 18633 C 1734.77 0.616662 -2.20749 0
M  V30 18634 C 1735.77 1.09066 -1.18158 0
M  V30 18635 O 1736.96 0.992797 -1.4314 0
M  V30 18636 C 1734.1 1.84937 -2.86376 0
M  V30 18637 H 1735.29 0.0462013 -2.99864 0
M  V30 18638 H 1732.84 -0.013432 -1.56294 0
M  V30 18639 H 1733.58 2.46066 -2.1124 0
M  V30 18640 H 1733.36 1.51754 -3.61543 0
M  V30 18641 H 1734.85 2.47511 -3.36345 0
M  V30 18642 N 1735.29 1.57597 0.0100073 0
M  V30 18643 C 1736.52 1.94402 0.708192 0
M  V30 18644 C 1736.93 0.864205 1.6786 0
M  V30 18645 O 1736.29 -0.157763 1.81817 0
M  V30 18646 C 1736.34 3.312 1.44876 0
M  V30 18647 O 1736.06 4.35035 0.517281 0
M  V30 18648 C 1737.56 3.82404 2.24237 0
M  V30 18649 H 1734.78 0.64116 0.197877 0
M  V30 18650 H 1737.33 2.04464 -0.0381373 0
M  V30 18651 H 1735.48 3.22476 2.1468 0
M  V30 18652 H 1735.9 5.14113 1.03868 0
M  V30 18653 H 1737.37 4.80578 2.71567 0
M  V30 18654 H 1737.85 3.14587 3.06483 0
M  V30 18655 H 1738.45 3.94271 1.59469 0
M  V30 18656 N 1736.77 -0.282606 1.55045 0
M  V30 18657 C 1737.72 -1.35115 1.83652 0
M  V30 18658 C 1738.7 -1.45126 0.694788 0
M  V30 18659 O 1739.89 -1.48968 0.955898 0
M  V30 18660 C 1737.02 -2.71309 2.10348 0
M  V30 18661 C 1736.11 -2.65447 3.30755 0
M  V30 18662 N 1736.5 -2.29202 4.50888 0
M  V30 18663 C 1734.8 -2.96523 3.33152 0
M  V30 18664 C 1735.5 -2.33094 5.32956 0
M  V30 18665 N 1734.47 -2.71185 4.71126 0
M  V30 18666 H 1738.28 -1.06085 2.74086 0
M  V30 18667 H 1735.79 -0.491228 1.54792 0
M  V30 18668 H 1737.79 -3.48378 2.28995 0
M  V30 18669 H 1736.45 -3.01235 1.21192 0
M  V30 18670 H 1737.46 -2.01343 4.7716 0
M  V30 18671 H 1734.14 -3.31224 2.54159 0
M  V30 18672 H 1735.53 -2.07714 6.38987 0
M  V30 18673 N 1738.25 -1.47815 -0.546675 0
M  V30 18674 C 1739.49 -1.54674 -1.30078 0
M  V30 18675 C 1739.81 -0.215151 -1.93809 0
M  V30 18676 O 1739.08 0.761862 -1.80478 0
M  V30 18677 H 1737.66 -0.569776 -0.483078 0
M  V30 18678 H 1740.33 -1.84178 -0.637525 0
M  V30 18679 H 1739.42 -2.31894 -2.08882 0
M  V30 18680 N 1739.72 0.794246 -1.36123 0
M  V30 18681 C 1740.97 1.54885 -1.29827 0
M  V30 18682 C 1741.29 1.94608 0.123517 0
M  V30 18683 O 1740.56 1.6457 1.06272 0
M  V30 18684 H 1739.14 0.574398 -0.477573 0
M  V30 18685 H 1741.8 0.946658 -1.70365 0
M  V30 18686 H 1740.9 2.45863 -1.92244 0
M  V30 18687 N 1741.2 1.20323 1.01785 0
M  V30 18688 C 1742.45 1.02417 1.75734 0
M  V30 18689 C 1742.8 -0.439244 1.87319 0
M  V30 18690 O 1742.1 -1.32182 1.38703 0
M  V30 18691 C 1742.29 1.63984 3.1756 0
M  V30 18692 C 1742.12 3.1616 3.19802 0
M  V30 18693 C 1740.89 3.85129 3.27114 0
M  V30 18694 C 1743.09 4.13399 3.0595 0
M  V30 18695 N 1741.07 5.24604 3.18847 0
M  V30 18696 C 1742.44 5.39543 3.05439 0
M  V30 18697 C 1744.49 4.04615 2.90158 0
M  V30 18698 C 1743.2 6.57917 2.90755 0
M  V30 18699 C 1745.22 5.2261 2.76827 0
M  V30 18700 C 1744.59 6.47658 2.7698 0
M  V30 18701 H 1740.68 0.428994 0.653826 0
M  V30 18702 H 1743.27 1.52474 1.21078 0
M  V30 18703 H 1741.44 1.16512 3.70512 0
M  V30 18704 H 1743.17 1.39406 3.79932 0
M  V30 18705 H 1739.93 3.3598 3.33788 0
M  V30 18706 H 1740.35 5.97618 3.18091 0
M  V30 18707 H 1744.99 3.08745 2.88853 0
M  V30 18708 H 1742.71 7.5396 2.90808 0
M  V30 18709 H 1746.3 5.17623 2.65626 0
M  V30 18710 H 1745.18 7.37426 2.66781 0
M  V30 18711 N 1742.68 -1.21073 1.00892 0
M  V30 18712 C 1743.93 -1.90524 0.694879 0
M  V30 18713 C 1744.26 -1.78161 -0.772802 0
M  V30 18714 O 1743.53 -1.1608 -1.56063 0
M  V30 18715 C 1743.82 -3.42188 1.12156 0
M  V30 18716 C 1743.67 -3.63523 2.64898 0
M  V30 18717 C 1744.99 -4.34706 0.68694 0
M  V30 18718 H 1742.11 -0.69188 0.253912 0
M  V30 18719 H 1744.75 -1.42626 1.2553 0
M  V30 18720 H 1742.9 -3.83113 0.644742 0
M  V30 18721 H 1744.57 -3.31901 3.20374 0
M  V30 18722 H 1742.81 -3.07255 3.0623 0
M  V30 18723 H 1743.49 -4.69805 2.89806 0
M  V30 18724 H 1745.96 -4.01386 1.09674 0
M  V30 18725 H 1744.84 -5.3946 1.01361 0
M  V30 18726 H 1745.1 -4.40178 -0.411757 0
M  V30 18727 N 1744.16 -0.784156 -1.36707 0
M  V30 18728 C 1745.39 -0.365901 -2.03639 0
M  V30 18729 C 1745.8 1.01599 -1.59132 0
M  V30 18730 O 1745.16 1.65072 -0.778298 0
M  V30 18731 C 1745.21 -0.414035 -3.59121 0
M  V30 18732 O 1744.93 -1.74142 -4.02003 0
M  V30 18733 C 1746.43 0.0142546 -4.43298 0
M  V30 18734 H 1743.65 -0.151525 -0.653667 0
M  V30 18735 H 1746.2 -1.06154 -1.7479 0
M  V30 18736 H 1744.35 0.233134 -3.86698 0
M  V30 18737 H 1744.76 -1.68861 -4.96575 0
M  V30 18738 H 1746.24 -0.0705681 -5.51955 0
M  V30 18739 H 1746.72 1.06623 -4.26061 0
M  V30 18740 H 1747.32 -0.605201 -4.20972 0
M  V30 18741 N 1745.64 1.48215 -0.535727 0
M  V30 18742 C 1746.91 1.95505 0.0609376 0
M  V30 18743 C 1747.29 1.47806 1.5072 0
M  V30 18744 O 1746.64 0.707142 2.17283 0
M  V30 18745 C 1746.85 3.48944 -0.0622609 0
M  V30 18746 C 1748.2 4.24496 0.0940805 0
M  V30 18747 O 1749.22 3.56198 0.0112532 0
M  V30 18748 O 1748.08 5.4584 0.268547 0
M  V30 18749 H 1745.18 0.82349 0.0761079 0
M  V30 18750 H 1747.72 1.58711 -0.600732 0
M  V30 18751 H 1746.49 3.76401 -1.06949 0
M  V30 18752 H 1746.12 3.92448 0.637999 0
M  V30 18753 N 1747.11 0.27113 1.5525 0
M  V30 18754 C 1748.04 -0.61179 2.25343 0
M  V30 18755 C 1749.03 -1.16208 1.24216 0
M  V30 18756 O 1750.21 -1.19696 1.52927 0
M  V30 18757 C 1747.34 -1.7978 2.97147 0
M  V30 18758 C 1746.29 -1.37922 4.05169 0
M  V30 18759 C 1745.62 -2.64801 4.64526 0
M  V30 18760 C 1746.92 -0.532357 5.1958 0
M  V30 18761 H 1748.61 -0.0272538 2.99388 0
M  V30 18762 H 1746.16 -0.0116681 1.43995 0
M  V30 18763 H 1748.11 -2.42132 3.44891 0
M  V30 18764 H 1746.84 -2.40811 2.20631 0
M  V30 18765 H 1745.5 -0.778918 3.5823 0
M  V30 18766 H 1745.14 -3.24081 3.84682 0
M  V30 18767 H 1744.84 -2.37507 5.37461 0
M  V30 18768 H 1746.37 -3.28009 5.15017 0
M  V30 18769 H 1747.78 -1.06078 5.63401 0
M  V30 18770 H 1746.18 -0.35447 5.99052 0
M  V30 18771 H 1747.25 0.44981 4.82809 0
M  V30 18772 N 1748.59 -1.576 -0.00164943 0
M  V30 18773 C 1749.83 -1.92353 -0.691364 0
M  V30 18774 C 1750.2 -0.872536 -1.71029 0
M  V30 18775 O 1751.4 -1.10526 -2.45026 0
M  V30 18776 C 1749.67 -3.32163 -1.31918 0
M  V30 18777 S 1751.23 -3.88798 -2.03425 0
M  V30 18778 H 1748.05 -0.673314 -0.228407 0
M  V30 18779 H 1750.65 -1.95424 0.0546418 0
M  V30 18780 H 1749.35 -4.06496 -0.564746 0
M  V30 18781 H 1748.88 -3.32462 -2.10316 0
M  V30 18782 H 1750.9 -3.6974 -3.30918 0
M  V30 18783 N 1750.07 0.274379 -1.55193 0
M  V30 18784 C 1751.32 1.00617 -1.75734 0
M  V30 18785 C 1751.65 1.86334 -0.557679 0
M  V30 18786 O 1750.9 1.90221 0.459848 0
M  V30 18787 C 1751.2 1.91958 -3.01475 0
M  V30 18788 C 1750.87 1.22002 -4.34081 0
M  V30 18789 C 1749.53 1.02658 -4.70122 0
M  V30 18790 C 1751.88 0.722087 -5.16174 0
M  V30 18791 C 1749.21 0.322465 -5.85813 0
M  V30 18792 C 1751.56 0.0315683 -6.32592 0
M  V30 18793 C 1750.22 -0.173595 -6.67274 0
M  V30 18794 H 1749.49 0.368182 -0.643058 0
M  V30 18795 H 1752.14 0.278579 -1.89463 0
M  V30 18796 H 1750.45 2.71333 -2.8264 0
M  V30 18797 H 1752.14 2.48698 -3.14564 0
M  V30 18798 H 1748.73 1.3807 -4.05752 0
M  V30 18799 H 1752.92 0.859163 -4.88807 0
M  V30 18800 H 1748.17 0.152775 -6.11209 0
M  V30 18801 H 1752.35 -0.362033 -6.95458 0
M  V30 18802 H 1749.97 -0.721178 -7.56771 0
M  V30 18803 N 1751.55 1.48103 0.538828 0
M  V30 18804 C 1752.77 1.59568 1.32487 0
M  V30 18805 C 1753.2 0.252908 1.86392 0
M  V30 18806 O 1752.56 -0.774094 1.63944 0
M  V30 18807 C 1752.6 2.63863 2.45782 0
M  V30 18808 O 1751.71 2.20409 3.48559 0
M  V30 18809 H 1751.05 0.53538 0.392765 0
M  V30 18810 H 1753.58 1.94024 0.649299 0
M  V30 18811 H 1753.59 2.8486 2.92093 0
M  V30 18812 H 1752.26 3.61352 2.05906 0
M  V30 18813 H 1750.84 2.09588 3.08427 0
M  V30 18814 N 1753.03 -0.787016 1.36542 0
M  V30 18815 C 1754.44 -1.36234 1.2766 0
M  V30 18816 C 1754.79 -1.96026 -0.0825391 0
M  V30 18817 O 1753.91 -1.92731 -0.984059 0
M  V30 18818 C 1754.51 -2.47684 2.31167 0
M  V30 18819 C 1753.07 -3.01026 2.25966 0
M  V30 18820 C 1752.21 -1.74122 2.15816 0
M  V30 18821 H 1755.17 -0.58847 1.47386 0
M  V30 18822 H 1755.19 -3.26765 1.94949 0
M  V30 18823 H 1754.7 -2.04136 3.30076 0
M  V30 18824 H 1752.8 -3.48988 1.30531 0
M  V30 18825 H 1752.91 -3.57677 3.18754 0
M  V30 18826 H 1751.28 -1.9645 1.6211 0
M  V30 18827 H 1752.06 -1.32699 3.16616 0
M  V30 18828 N 1754.5 -1.20861 -1.01145 0
M  V30 18829 C 1755.78 -0.93084 -1.72031 0
M  V30 18830 C 1756.16 0.559051 -2.03563 0
M  V30 18831 O 1755.51 1.52214 -1.70421 0
M  V30 18832 C 1755.72 -1.8092 -2.98444 0
M  V30 18833 C 1757.07 -2.05415 -3.71604 0
M  V30 18834 O 1758.09 -1.78216 -3.08411 0
M  V30 18835 O 1756.95 -2.5138 -4.85253 0
M  V30 18836 H 1754.04 -0.348488 -0.74999 0
M  V30 18837 H 1756.59 -1.3176 -1.06946 0
M  V30 18838 H 1755.36 -2.81783 -2.71503 0
M  V30 18839 H 1754.99 -1.42285 -3.71269 0
M  V30 18840 N 1755.98 1.20536 -1.01532 0
M  V30 18841 C 1757.23 1.89496 -0.70254 0
M  V30 18842 C 1757.55 1.7915 0.770072 0
M  V30 18843 O 1756.82 1.19308 1.55379 0
M  V30 18844 H 1755.4 0.701447 -0.256868 0
M  V30 18845 H 1758.06 1.46394 -1.28665 0
M  V30 18846 H 1757.16 2.96155 -0.984817 0
M  V30 18847 N 1757.46 0.791395 1.36289 0
M  V30 18848 C 1758.41 0.189246 2.30023 0
M  V30 18849 C 1759.38 -0.668045 1.52074 0
M  V30 18850 O 1760.56 -0.61631 1.80572 0
M  V30 18851 C 1757.7 -0.668391 3.38565 0
M  V30 18852 C 1756.82 0.207659 4.31501 0
M  V30 18853 C 1755.95 -0.656539 5.27127 0
M  V30 18854 C 1754.99 0.220845 6.11701 0
M  V30 18855 N 1754.13 -0.602449 6.99511 0
M  V30 18856 H 1758.97 0.994038 2.80932 0
M  V30 18857 H 1756.5 0.501759 1.38278 0
M  V30 18858 H 1758.46 -1.18064 4.00146 0
M  V30 18859 H 1757.09 -1.43859 2.88971 0
M  V30 18860 H 1756.14 0.837894 3.71057 0
M  V30 18861 H 1757.46 0.883613 4.90911 0
M  V30 18862 H 1756.61 -1.23452 5.94007 0
M  V30 18863 H 1755.35 -1.36611 4.68176 0
M  V30 18864 H 1754.35 0.811214 5.43782 0
M  V30 18865 H 1755.58 0.928049 6.72729 0
M  V30 18866 H 1753.52 -1.29628 6.43065 0
M  V30 18867 H 1753.44 0.015783 7.55998 0
M  V30 18868 H 1754.71 -1.16419 7.70757 0
M  V30 18869 N 1758.94 -1.47929 0.54358 0
M  V30 18870 C 1759.87 -2.26722 -0.259258 0
M  V30 18871 C 1760.85 -1.33195 -0.932623 0
M  V30 18872 O 1762.03 -1.62558 -0.954322 0
M  V30 18873 C 1759.16 -3.09833 -1.36826 0
M  V30 18874 C 1758.21 -4.18836 -0.80488 0
M  V30 18875 S 1759.04 -5.34433 0.337912 0
M  V30 18876 C 1760.2 -6.21105 -0.773234 0
M  V30 18877 H 1760.43 -2.94468 0.409397 0
M  V30 18878 H 1757.96 -1.5084 0.329626 0
M  V30 18879 H 1759.92 -3.5829 -2.00345 0
M  V30 18880 H 1758.58 -2.41476 -2.00869 0
M  V30 18881 H 1757.77 -4.76665 -1.63726 0
M  V30 18882 H 1757.38 -3.73189 -0.246123 0
M  V30 18883 H 1759.67 -6.56629 -1.66865 0
M  V30 18884 H 1760.61 -7.07718 -0.232611 0
M  V30 18885 H 1761.02 -5.54463 -1.05977 0
M  V30 18886 N 1760.42 -0.27936 -1.55104 0
M  V30 18887 C 1761.35 0.599831 -2.25664 0
M  V30 18888 C 1762.33 1.15548 -1.24831 0
M  V30 18889 O 1763.51 1.18883 -1.53559 0
M  V30 18890 C 1760.64 1.78202 -2.98096 0
M  V30 18891 C 1759.6 1.35771 -4.05894 0
M  V30 18892 C 1758.92 2.62334 -4.65924 0
M  V30 18893 C 1760.22 0.504795 -5.19855 0
M  V30 18894 H 1761.92 0.0113761 -2.99398 0
M  V30 18895 H 1759.46 0.00403149 -1.43999 0
M  V30 18896 H 1761.42 2.403 -3.4617 0
M  V30 18897 H 1760.14 2.39637 -2.21905 0
M  V30 18898 H 1758.8 0.75991 -3.58638 0
M  V30 18899 H 1758.45 3.22036 -3.86396 0
M  V30 18900 H 1758.15 2.34654 -5.38713 0
M  V30 18901 H 1759.67 3.25273 -5.16749 0
M  V30 18902 H 1761.09 1.03089 -5.63955 0
M  V30 18903 H 1759.48 0.322696 -5.99232 0
M  V30 18904 H 1760.55 -0.475409 -4.82564 0
M  V30 18905 N 1761.9 1.57599 -0.0067085 0
M  V30 18906 C 1763.14 1.90036 0.675957 0
M  V30 18907 C 1763.46 0.882449 1.74563 0
M  V30 18908 O 1764.66 1.09728 2.48339 0
M  V30 18909 C 1763.12 3.37366 1.25349 0
M  V30 18910 C 1762.73 4.47468 0.218284 0
M  V30 18911 C 1764.47 3.78904 1.91396 0
M  V30 18912 C 1762.38 5.85879 0.806182 0
M  V30 18913 H 1761.31 0.709125 0.256237 0
M  V30 18914 H 1763.96 1.83373 -0.0683502 0
M  V30 18915 H 1762.34 3.38888 2.04868 0
M  V30 18916 H 1763.52 4.57472 -0.552808 0
M  V30 18917 H 1761.83 4.14992 -0.342131 0
M  V30 18918 H 1764.43 4.79654 2.36297 0
M  V30 18919 H 1764.77 3.12773 2.74734 0
M  V30 18920 H 1765.3 3.79709 1.186 0
M  V30 18921 H 1762.04 6.55499 0.0114275 0
M  V30 18922 H 1761.56 5.79526 1.54628 0
M  V30 18923 H 1763.24 6.33748 1.30278 0
M  V30 18924 N 1763.37 -0.266145 1.55336 0
M  V30 18925 C 1764.6 -1.01915 1.80633 0
M  V30 18926 C 1765.02 -1.78897 0.581172 0
M  V30 18927 O 1764.38 -1.75118 -0.469399 0
M  V30 18928 C 1764.43 -1.948 3.03456 0
M  V30 18929 O 1763.53 -3.03678 2.79022 0
M  V30 18930 H 1762.87 -0.29102 0.596828 0
M  V30 18931 H 1765.4 -0.292973 2.02492 0
M  V30 18932 H 1765.41 -2.36626 3.32373 0
M  V30 18933 H 1764.09 -1.38182 3.92273 0
M  V30 18934 H 1762.67 -2.66118 2.61219 0
M  V30 18935 N 1764.85 -1.48386 -0.530967 0
M  V30 18936 C 1765.81 -1.62355 -1.61782 0
M  V30 18937 C 1766.81 -0.496909 -1.5293 0
M  V30 18938 O 1768 -0.762672 -1.56617 0
M  V30 18939 C 1765.14 -1.59282 -3.014 0
M  V30 18940 H 1766.33 -2.59265 -1.50737 0
M  V30 18941 H 1763.88 -1.36969 -0.752948 0
M  V30 18942 H 1764.62 -0.638453 -3.17953 0
M  V30 18943 H 1764.4 -2.41073 -3.09235 0
M  V30 18944 H 1765.89 -1.72248 -3.80421 0
M  V30 18945 N 1766.33 0.779763 -1.36958 0
M  V30 18946 C 1767.58 1.53499 -1.31463 0
M  V30 18947 C 1767.9 1.94728 0.102869 0
M  V30 18948 O 1767.17 1.65688 1.0452 0
M  V30 18949 H 1765.75 0.5693 -0.483638 0
M  V30 18950 H 1768.41 0.928536 -1.7136 0
M  V30 18951 H 1767.51 2.4381 -1.94841 0
M  V30 18952 N 1767.81 1.21396 1.00503 0
M  V30 18953 C 1769.06 1.02913 1.73935 0
M  V30 18954 C 1769.38 -0.438329 1.9001 0
M  V30 18955 O 1768.65 -1.31618 1.45098 0
M  V30 18956 H 1767.23 0.377813 0.644412 0
M  V30 18957 H 1769.89 1.52704 1.21109 0
M  V30 18958 H 1768.98 1.49705 2.73852 0
M  V30 18959 N 1769.29 -1.19996 1.0217 0
M  V30 18960 C 1770.52 -1.93186 0.732311 0
M  V30 18961 C 1770.92 -1.75303 -0.711724 0
M  V30 18962 O 1770.27 -1.06756 -1.49495 0
M  V30 18963 C 1770.33 -3.45466 0.994655 0
M  V30 18964 C 1769.99 -3.87114 2.42882 0
M  V30 18965 C 1770.99 -3.92459 3.40987 0
M  V30 18966 C 1768.67 -4.18958 2.77091 0
M  V30 18967 C 1770.67 -4.29067 4.7136 0
M  V30 18968 C 1768.36 -4.5524 4.07676 0
M  V30 18969 C 1769.35 -4.60267 5.04622 0
M  V30 18970 O 1769.04 -4.95713 6.32869 0
M  V30 18971 H 1768.77 -0.62069 0.267806 0
M  V30 18972 H 1771.33 -1.53287 1.3672 0
M  V30 18973 H 1769.56 -3.85514 0.30261 0
M  V30 18974 H 1771.25 -3.99887 0.696049 0
M  V30 18975 H 1772.01 -3.68016 3.15895 0
M  V30 18976 H 1767.89 -4.14233 2.02317 0
M  V30 18977 H 1771.44 -4.32905 5.47027 0
M  V30 18978 H 1767.33 -4.7914 4.32545 0
M  V30 18979 H 1768.1 -5.13687 6.37234 0
M  V30 18980 N 1770.76 -0.798611 -1.35867 0
M  V30 18981 C 1772.01 -0.371795 -1.98244 0
M  V30 18982 C 1772.33 1.06474 -1.64081 0
M  V30 18983 O 1773.53 1.59428 -2.19761 0
M  V30 18984 C 1771.99 -0.613821 -3.54627 0
M  V30 18985 C 1771.6 -2.06237 -3.97706 0
M  V30 18986 C 1773.34 -0.251966 -4.23752 0
M  V30 18987 C 1771.25 -2.25057 -5.46903 0
M  V30 18988 H 1770.18 -0.135278 -0.741765 0
M  V30 18989 H 1772.83 -0.981544 -1.55042 0
M  V30 18990 H 1771.21 0.0657688 -3.95945 0
M  V30 18991 H 1772.38 -2.77912 -3.67562 0
M  V30 18992 H 1770.7 -2.38334 -3.41447 0
M  V30 18993 H 1773.3 -0.370736 -5.33413 0
M  V30 18994 H 1773.64 0.800968 -4.08522 0
M  V30 18995 H 1774.17 -0.885155 -3.87827 0
M  V30 18996 H 1770.91 -3.28767 -5.67091 0
M  V30 18997 H 1770.43 -1.57898 -5.78643 0
M  V30 18998 H 1772.11 -2.06219 -6.13256 0
M  V30 18999 N 1772.24 1.47639 -0.551417 0
M  V30 19000 C 1773.19 2.29936 0.199514 0
M  V30 19001 C 1774.16 1.38704 0.913811 0
M  V30 19002 O 1775.34 1.67666 0.910643 0
M  V30 19003 C 1772.48 3.22544 1.22717 0
M  V30 19004 C 1771.6 4.28865 0.519527 0
M  V30 19005 C 1770.73 5.0863 1.53197 0
M  V30 19006 C 1769.77 6.06731 0.808981 0
M  V30 19007 N 1768.91 6.79476 1.76798 0
M  V30 19008 H 1773.75 2.93631 -0.508414 0
M  V30 19009 H 1771.28 1.44738 -0.262553 0
M  V30 19010 H 1773.24 3.74653 1.83551 0
M  V30 19011 H 1771.87 2.60726 1.9032 0
M  V30 19012 H 1770.92 3.79857 -0.203217 0
M  V30 19013 H 1772.24 4.98778 -0.0471224 0
M  V30 19014 H 1771.39 5.6486 2.214 0
M  V30 19015 H 1770.13 4.38605 2.13253 0
M  V30 19016 H 1769.13 5.49684 0.112991 0
M  V30 19017 H 1770.36 6.78762 0.214239 0
M  V30 19018 H 1768.31 6.12185 2.35722 0
M  V30 19019 H 1768.22 7.45539 1.25333 0
M  V30 19020 H 1769.49 7.40283 2.44133 0
M  V30 19021 N 1773.72 0.287581 1.54954 0
M  V30 19022 C 1774.97 -0.319025 2.00883 0
M  V30 19023 C 1775.32 -1.52547 1.17248 0
M  V30 19024 O 1774.61 -1.90122 0.237546 0
M  V30 19025 C 1774.81 -0.739779 3.4966 0
M  V30 19026 C 1774.64 0.42435 4.47693 0
M  V30 19027 C 1773.41 0.91211 4.97 0
M  V30 19028 C 1775.61 1.26494 4.98502 0
M  V30 19029 N 1773.59 2.0444 5.78859 0
M  V30 19030 C 1774.96 2.24493 5.7793 0
M  V30 19031 C 1777.01 1.29685 4.80714 0
M  V30 19032 C 1775.72 3.25443 6.41467 0
M  V30 19033 C 1777.74 2.29487 5.45059 0
M  V30 19034 C 1777.1 3.26216 6.24309 0
M  V30 19035 H 1773.2 -0.0815675 0.777734 0
M  V30 19036 H 1775.79 0.414443 1.90238 0
M  V30 19037 H 1773.96 -1.44245 3.60622 0
M  V30 19038 H 1775.69 -1.32478 3.82402 0
M  V30 19039 H 1772.45 0.489318 4.71065 0
M  V30 19040 H 1772.87 2.61454 6.24476 0
M  V30 19041 H 1777.51 0.562778 4.19038 0
M  V30 19042 H 1775.23 3.99777 7.02285 0
M  V30 19043 H 1778.82 2.32713 5.33232 0
M  V30 19044 H 1777.7 4.02179 6.73218 0
M  V30 19045 N 1775.2 -1.57593 0.0150662 0
M  V30 19046 C 1776.44 -1.9233 -0.661874 0
M  V30 19047 C 1776.8 -0.890777 -1.70537 0
M  V30 19048 O 1776.09 0.0950783 -1.91364 0
M  V30 19049 C 1776.29 -3.3158 -1.33376 0
M  V30 19050 C 1776.12 -4.48282 -0.356866 0
M  V30 19051 C 1774.89 -5.05286 0.0382 0
M  V30 19052 C 1777.08 -5.12871 0.383107 0
M  V30 19053 N 1775.07 -6.05506 1.01174 0
M  V30 19054 C 1776.44 -6.08061 1.21084 0
M  V30 19055 C 1778.49 -4.95905 0.445323 0
M  V30 19056 C 1777.19 -6.88111 2.09515 0
M  V30 19057 C 1779.22 -5.76551 1.31691 0
M  V30 19058 C 1778.58 -6.71346 2.13246 0
M  V30 19059 H 1774.68 -0.751882 -0.214937 0
M  V30 19060 H 1777.27 -1.9454 0.0789486 0
M  V30 19061 H 1775.44 -3.30216 -2.0448 0
M  V30 19062 H 1777.17 -3.53704 -1.96661 0
M  V30 19063 H 1773.92 -4.72426 -0.333328 0
M  V30 19064 H 1774.35 -6.60302 1.49432 0
M  V30 19065 H 1778.99 -4.22454 -0.170934 0
M  V30 19066 H 1776.71 -7.60876 2.72201 0
M  V30 19067 H 1780.29 -5.6546 1.36916 0
M  V30 19068 H 1779.17 -7.32663 2.79597 0
M  V30 19069 N 1776.68 0.257904 -1.55475 0
M  V30 19070 C 1777.62 1.33893 -1.90198 0
M  V30 19071 C 1778.62 1.50381 -0.779868 0
M  V30 19072 O 1779.82 1.51986 -0.964376 0
M  V30 19073 H 1776.2 0.448115 -0.603901 0
M  V30 19074 H 1778.17 1.01868 -2.80474 0
M  V30 19075 C 1776.92 2.68954 -2.20361 0
M  V30 19076 H 1776.24 2.57064 -3.062 0
M  V30 19077 H 1777.68 3.43498 -2.48567 0
M  V30 19078 C 1776.14 3.21208 -1.01623 0
M  V30 19079 O 1776.67 4.00867 -0.258567 0
M  V30 19080 N 1774.88 2.79088 -0.809825 0
M  V30 19081 H 1774.42 2.1442 -1.42764 0
M  V30 19082 H 1774.38 3.14395 -0.0170171 0
M  V30 19083 N 1778.15 1.48666 0.52309 0
M  V30 19084 C 1779.4 1.57267 1.28043 0
M  V30 19085 C 1779.73 0.248801 1.926 0
M  V30 19086 O 1779.01 -0.745814 1.79633 0
M  V30 19087 C 1779.29 2.71595 2.36449 0
M  V30 19088 C 1779.14 4.13708 1.76538 0
M  V30 19089 C 1780.46 2.81654 3.3817 0
M  V30 19090 H 1777.58 0.572455 0.464181 0
M  V30 19091 H 1780.22 1.80866 0.582013 0
M  V30 19092 H 1778.37 2.51604 2.9602 0
M  V30 19093 H 1780.05 4.45158 1.20964 0
M  V30 19094 H 1778.29 4.20386 1.07041 0
M  V30 19095 H 1778.96 4.89538 2.55062 0
M  V30 19096 H 1781.44 2.99784 2.88563 0
M  V30 19097 H 1780.31 3.63366 4.11408 0
M  V30 19098 H 1780.57 1.90093 3.99145 0
M  V30 19099 N 1779.63 -0.772489 1.37369 0
M  V30 19100 C 1780.88 -1.53329 1.32733 0
M  V30 19101 C 1781.21 -1.93999 -0.0882815 0
M  V30 19102 O 1780.49 -1.64014 -1.04545 0
M  V30 19103 C 1780.77 -2.79885 2.26575 0
M  V30 19104 C 1780.62 -2.45474 3.76912 0
M  V30 19105 C 1781.94 -3.81812 2.18878 0
M  V30 19106 H 1779.06 -0.55625 0.483482 0
M  V30 19107 H 1781.7 -0.886251 1.68064 0
M  V30 19108 H 1779.85 -3.35097 1.96576 0
M  V30 19109 H 1781.52 -1.96182 4.17505 0
M  V30 19110 H 1779.77 -1.78181 3.95517 0
M  V30 19111 H 1780.44 -3.35937 4.38007 0
M  V30 19112 H 1782.91 -3.36091 2.4532 0
M  V30 19113 H 1781.79 -4.68087 2.86681 0
M  V30 19114 H 1782.05 -4.26021 1.18146 0
M  V30 19115 N 1781.11 -1.21927 -0.998575 0
M  V30 19116 C 1782.34 -1.06655 -1.77291 0
M  V30 19117 C 1782.75 0.38326 -1.84869 0
M  V30 19118 O 1782.11 1.26575 -1.31473 0
M  V30 19119 C 1782.16 -1.66478 -3.20885 0
M  V30 19120 O 1781.88 -3.05788 -3.13728 0
M  V30 19121 C 1783.38 -1.56404 -4.14792 0
M  V30 19122 H 1780.6 -0.3742 -0.55697 0
M  V30 19123 H 1783.15 -1.61401 -1.25579 0
M  V30 19124 H 1781.3 -1.15809 -3.69685 0
M  V30 19125 H 1781.72 -3.34503 -4.0399 0
M  V30 19126 H 1783.19 -2.02995 -5.1332 0
M  V30 19127 H 1783.67 -0.519591 -4.36116 0
M  V30 19128 H 1784.27 -2.06352 -3.71886 0
M  V30 19129 N 1782.59 1.19452 -1.02805 0
M  V30 19130 C 1783.84 1.8874 -0.722599 0
M  V30 19131 C 1784.16 1.79957 0.751028 0
M  V30 19132 O 1783.43 1.20949 1.54104 0
M  V30 19133 H 1782.01 0.698683 -0.264294 0
M  V30 19134 H 1784.67 1.45021 -1.30211 0
M  V30 19135 H 1783.77 2.95094 -1.01617 0
M  V30 19136 N 1784.07 0.805805 1.35442 0
M  V30 19137 C 1784.98 0.217149 2.33593 0
M  V30 19138 C 1785.99 -0.639428 1.61825 0
M  V30 19139 O 1787.17 -0.551363 1.93706 0
M  V30 19140 C 1784.23 -0.625149 3.41017 0
M  V30 19141 C 1783.29 0.25183 4.28561 0
M  V30 19142 C 1782.53 -0.550363 5.30855 0
M  V30 19143 O 1782.75 -1.78511 5.41747 0
M  V30 19144 O 1781.68 0.0583487 6.01872 0
M  V30 19145 H 1785.51 1.02909 2.85733 0
M  V30 19146 H 1783.1 0.567579 1.38199 0
M  V30 19147 H 1784.98 -1.10493 4.06656 0
M  V30 19148 H 1783.65 -1.4147 2.91149 0
M  V30 19149 H 1782.56 0.77873 3.65905 0
M  V30 19150 H 1783.89 1.0053 4.81824 0
M  V30 19151 N 1785.54 -1.47344 0.559239 0
M  V30 19152 C 1786.77 -2.07364 0.0388864 0
M  V30 19153 C 1787.19 -1.40886 -1.2463 0
M  V30 19154 O 1786.55 -0.48454 -1.74705 0
M  V30 19155 C 1786.6 -3.60336 -0.137894 0
M  V30 19156 O 1785.7 -3.94555 -1.2 0
M  V30 19157 H 1785.05 -0.661942 0.0522363 0
M  V30 19158 H 1787.58 -1.89333 0.7755 0
M  V30 19159 H 1787.59 -4.06483 -0.351462 0
M  V30 19160 H 1786.26 -4.08118 0.800776 0
M  V30 19161 H 1784.84 -3.6015 -0.966757 0
M  V30 19162 N 1787.02 -0.295795 -1.54799 0
M  V30 19163 C 1788.25 0.32058 -2.04907 0
M  V30 19164 C 1788.67 1.47132 -1.17191 0
M  V30 19165 O 1788.03 1.80455 -0.174869 0
M  V30 19166 C 1788.08 0.759439 -3.52512 0
M  V30 19167 O 1787.18 1.86474 -3.67833 0
M  V30 19168 H 1786.52 0.0631128 -0.660994 0
M  V30 19169 H 1789.05 -0.436123 -1.99898 0
M  V30 19170 H 1789.06 1.04965 -3.94267 0
M  V30 19171 H 1787.74 -0.0823715 -4.15818 0
M  V30 19172 H 1786.32 1.57547 -3.37984 0
M  V30 19173 N 1788.5 1.57583 -0.0234236 0
M  V30 19174 C 1789.43 2.06766 0.988961 0
M  V30 19175 C 1790.45 0.98998 1.29241 0
M  V30 19176 O 1791.64 1.2663 1.25806 0
M  V30 19177 C 1788.74 2.47244 2.31784 0
M  V30 19178 C 1787.91 3.78023 2.20039 0
M  V30 19179 C 1786.97 4.05113 3.35812 0
M  V30 19180 O 1785.99 4.75447 3.12952 0
M  V30 19181 N 1787.2 3.5484 4.59422 0
M  V30 19182 H 1789.96 2.94242 0.569355 0
M  V30 19183 H 1787.52 1.61073 0.163461 0
M  V30 19184 H 1789.51 2.62463 3.08051 0
M  V30 19185 H 1788.08 1.65163 2.65405 0
M  V30 19186 H 1787.3 3.72656 1.28534 0
M  V30 19187 H 1788.59 4.63717 2.09389 0
M  V30 19188 H 1787.99 2.97928 4.8089 0
M  V30 19189 H 1786.55 3.75348 5.32877 0
M  V30 19190 N 1789.98 -0.249655 1.5561 0
M  V30 19191 C 1791.21 -0.995707 1.81365 0
M  V30 19192 C 1791.62 -1.79054 0.598767 0
M  V30 19193 O 1790.98 -1.773 -0.432538 0
M  V30 19194 C 1791.03 -1.93577 3.05303 0
M  V30 19195 O 1790.75 -1.17311 4.22102 0
M  V30 19196 C 1792.25 -2.79804 3.43838 0
M  V30 19197 H 1789.47 -0.293118 0.603591 0
M  V30 19198 H 1792.02 -0.273374 2.02665 0
M  V30 19199 H 1790.17 -2.61242 2.86062 0
M  V30 19200 H 1790.59 -1.80875 4.92326 0
M  V30 19201 H 1792.06 -3.4152 4.33668 0
M  V30 19202 H 1792.54 -3.50776 2.64298 0
M  V30 19203 H 1793.14 -2.17596 3.6542 0
M  V30 19204 N 1791.46 -1.48941 -0.515198 0
M  V30 19205 C 1792.7 -1.5771 -1.27019 0
M  V30 19206 C 1793.03 -0.257484 -1.92788 0
M  V30 19207 O 1792.29 0.753481 -1.80613 0
M  V30 19208 C 1792.59 -2.67508 -2.37011 0
M  V30 19209 C 1792.25 -4.09471 -1.88796 0
M  V30 19210 C 1790.91 -4.48108 -1.75365 0
M  V30 19211 C 1793.27 -4.98378 -1.52543 0
M  V30 19212 C 1790.59 -5.73438 -1.24038 0
M  V30 19213 C 1792.95 -6.24212 -1.02673 0
M  V30 19214 C 1791.61 -6.61691 -0.878703 0
M  V30 19215 H 1790.88 -0.577101 -0.464796 0
M  V30 19216 H 1793.53 -1.82718 -0.573279 0
M  V30 19217 H 1791.83 -2.36417 -3.12433 0
M  V30 19218 H 1793.53 -2.71505 -2.95104 0
M  V30 19219 H 1790.12 -3.78967 -2.00205 0
M  V30 19220 H 1794.3 -4.69194 -1.61773 0
M  V30 19221 H 1789.56 -6.01188 -1.11277 0
M  V30 19222 H 1793.73 -6.9249 -0.73697 0
M  V30 19223 H 1791.36 -7.58691 -0.478792 0
M  V30 19224 N 1792.94 0.765193 -1.37777 0
M  V30 19225 C 1794.17 1.5521 -1.36358 0
M  V30 19226 C 1794.57 1.8913 0.0514021 0
M  V30 19227 O 1793.92 1.52422 1.02535 0
M  V30 19228 C 1793.98 2.88605 -2.14354 0
M  V30 19229 C 1793.64 2.77286 -3.63265 0
M  V30 19230 C 1794.64 2.47869 -4.57009 0
M  V30 19231 C 1792.32 2.95102 -4.06473 0
M  V30 19232 C 1794.32 2.36406 -5.91938 0
M  V30 19233 C 1792.01 2.83259 -5.41486 0
M  V30 19234 C 1793 2.53952 -6.34032 0
M  V30 19235 O 1792.69 2.42148 -7.66564 0
M  V30 19236 H 1792.42 0.487266 -0.468559 0
M  V30 19237 H 1794.98 0.955716 -1.81811 0
M  V30 19238 H 1793.21 3.50388 -1.636 0
M  V30 19239 H 1794.9 3.50043 -2.05486 0
M  V30 19240 H 1795.66 2.33784 -4.24936 0
M  V30 19241 H 1791.54 3.16913 -3.34794 0
M  V30 19242 H 1795.09 2.13452 -6.64142 0
M  V30 19243 H 1790.98 2.96914 -5.7316 0
M  V30 19244 H 1791.75 2.57448 -7.76957 0
M  V30 19245 N 1794.41 1.22455 0.992094 0
M  V30 19246 C 1795.64 1.07594 1.76723 0
M  V30 19247 C 1796.06 -0.37345 1.8507 0
M  V30 19248 O 1795.41 -1.25876 1.32142 0
M  V30 19249 C 1795.46 1.68178 3.19998 0
M  V30 19250 O 1795.19 3.07447 3.12102 0
M  V30 19251 C 1796.69 1.58602 4.13957 0
M  V30 19252 H 1793.91 0.377148 0.554978 0
M  V30 19253 H 1796.45 1.62065 1.24721 0
M  V30 19254 H 1794.61 1.17768 3.69066 0
M  V30 19255 H 1795.02 3.36641 4.0221 0
M  V30 19256 H 1796.49 2.05714 5.12236 0
M  V30 19257 H 1796.97 0.542712 4.35834 0
M  V30 19258 H 1797.58 2.08321 3.70786 0
M  V30 19259 N 1795.89 -1.18905 1.03437 0
M  V30 19260 C 1796.84 -2.24362 0.613557 0
M  V30 19261 C 1797.83 -1.65605 -0.356541 0
M  V30 19262 O 1799.04 -1.78594 -0.22452 0
M  V30 19263 H 1795.41 -0.730098 0.18017 0
M  V30 19264 H 1797.39 -2.57168 1.51351 0
M  V30 19265 C 1796.13 -3.47697 -0.0141125 0
M  V30 19266 H 1795.46 -3.93201 0.723394 0
M  V30 19267 H 1796.9 -4.2313 -0.271424 0
M  V30 19268 C 1795.36 -3.12357 -1.26232 0
M  V30 19269 O 1795.89 -3.25515 -2.35378 0
M  V30 19270 N 1794.09 -2.6674 -1.15318 0
M  V30 19271 H 1793.64 -2.56233 -0.26501 0
M  V30 19272 H 1793.6 -2.43466 -1.98927 0
M  V30 19273 N 1797.37 -0.812977 -1.35013 0
M  V30 19274 C 1798.62 -0.395562 -1.98191 0
M  V30 19275 C 1798.94 1.04242 -1.64799 0
M  V30 19276 O 1798.21 1.72219 -0.933678 0
M  V30 19277 H 1796.79 -0.143276 -0.733131 0
M  V30 19278 H 1799.45 -1.04023 -1.64819 0
M  V30 19279 H 1798.55 -0.506466 -3.07963 0
M  V30 19280 N 1798.85 1.47045 -0.567045 0
M  V30 19281 C 1800.08 2.06835 -0.0518309 0
M  V30 19282 C 1800.49 1.41823 1.24626 0
M  V30 19283 O 1799.85 0.518102 1.74991 0
M  V30 19284 C 1799.9 3.6124 0.137142 0
M  V30 19285 O 1799.62 4.23817 -1.10955 0
M  V30 19286 C 1801.12 4.37921 0.688511 0
M  V30 19287 H 1798.34 0.669111 -0.0503138 0
M  V30 19288 H 1800.88 1.88906 -0.783258 0
M  V30 19289 H 1799.04 3.7865 0.818733 0
M  V30 19290 H 1799.45 5.16484 -0.913475 0
M  V30 19291 H 1800.93 5.46603 0.769984 0
M  V30 19292 H 1801.4 4.0488 1.70201 0
M  V30 19293 H 1802.01 4.25279 0.0423004 0
M  V30 19294 N 1800.33 0.304 1.5464 0
M  V30 19295 C 1801.27 -0.586475 2.25085 0
M  V30 19296 C 1802.27 -1.13458 1.25792 0
M  V30 19297 O 1803.47 -1.08487 1.43633 0
M  V30 19298 H 1799.85 -0.20774 0.722737 0
M  V30 19299 H 1801.82 0.0301682 2.98385 0
M  V30 19300 C 1800.57 -1.74539 3.00718 0
M  V30 19301 H 1799.89 -1.33287 3.76928 0
M  V30 19302 H 1801.33 -2.34447 3.53285 0
M  V30 19303 C 1799.79 -2.65132 2.07862 0
M  V30 19304 O 1800.32 -3.6631 1.64863 0
M  V30 19305 N 1798.53 -2.32932 1.73756 0
M  V30 19306 H 1798.07 -1.50698 2.08921 0
M  V30 19307 H 1798.03 -2.93811 1.11904 0
M  V30 19308 N 1801.8 -1.57568 0.0317802 0
M  V30 19309 C 1802.73 -2.13412 -0.947499 0
M  V30 19310 C 1803.71 -1.05091 -1.33753 0
M  V30 19311 O 1804.9 -1.32936 -1.41568 0
M  V30 19312 C 1802.03 -2.66337 -2.22895 0
M  V30 19313 C 1800.98 -3.79469 -1.97958 0
M  V30 19314 C 1800.31 -4.18833 -3.3239 0
M  V30 19315 C 1801.61 -5.05432 -1.31664 0
M  V30 19316 H 1803.3 -2.95488 -0.482417 0
M  V30 19317 H 1800.85 -1.42142 -0.230603 0
M  V30 19318 H 1802.8 -3.04039 -2.91784 0
M  V30 19319 H 1801.53 -1.81426 -2.71574 0
M  V30 19320 H 1800.19 -3.42209 -1.31485 0
M  V30 19321 H 1799.83 -3.30899 -3.78833 0
M  V30 19322 H 1799.53 -4.95071 -3.16511 0
M  V30 19323 H 1801.06 -4.5912 -4.02544 0
M  V30 19324 H 1802.47 -5.40704 -1.90558 0
M  V30 19325 H 1800.87 -5.86686 -1.26173 0
M  V30 19326 H 1801.94 -4.84032 -0.28996 0
M  V30 19327 N 1803.28 0.241399 -1.5574 0
M  V30 19328 C 1804.23 1.29896 -1.90777 0
M  V30 19329 C 1805.2 1.47558 -0.76262 0
M  V30 19330 O 1806.38 1.61451 -1.01677 0
M  V30 19331 C 1803.52 2.6483 -2.21267 0
M  V30 19332 C 1802.64 2.5513 -3.48615 0
M  V30 19333 C 1801.77 3.82455 -3.68649 0
M  V30 19334 C 1800.81 3.67395 -4.89579 0
M  V30 19335 N 1799.95 4.86624 -5.06105 0
M  V30 19336 H 1804.79 0.993166 -2.80963 0
M  V30 19337 H 1802.33 0.47914 -1.39078 0
M  V30 19338 H 1804.28 3.4338 -2.36951 0
M  V30 19339 H 1802.91 2.93546 -1.34278 0
M  V30 19340 H 1801.97 1.6812 -3.41233 0
M  V30 19341 H 1803.28 2.39915 -4.37312 0
M  V30 19342 H 1802.43 4.69449 -3.84321 0
M  V30 19343 H 1801.17 4.00573 -2.78195 0
M  V30 19344 H 1800.18 2.78785 -4.73877 0
M  V30 19345 H 1801.4 3.50766 -5.81498 0
M  V30 19346 H 1799.35 5.05093 -4.18589 0
M  V30 19347 H 1799.26 4.7406 -5.889 0
M  V30 19348 H 1800.53 5.751 -5.26194 0
M  V30 19349 N 1804.76 1.49212 0.507292 0
M  V30 19350 C 1805.71 1.65417 1.60953 0
M  V30 19351 C 1806.68 0.495737 1.5853 0
M  V30 19352 O 1807.86 0.722002 1.76612 0
M  V30 19353 C 1805 1.72095 2.99128 0
M  V30 19354 C 1804.12 2.99199 3.11615 0
M  V30 19355 C 1803.25 2.96895 4.40485 0
M  V30 19356 C 1802.29 4.18607 4.46581 0
M  V30 19357 N 1801.43 4.14248 5.66871 0
M  V30 19358 H 1806.27 2.59535 1.46444 0
M  V30 19359 H 1803.8 1.28687 0.712609 0
M  V30 19360 H 1805.76 1.73947 3.79207 0
M  V30 19361 H 1804.39 0.814484 3.12356 0
M  V30 19362 H 1803.44 3.06988 2.24639 0
M  V30 19363 H 1804.76 3.89192 3.11979 0
M  V30 19364 H 1803.91 2.97275 5.28878 0
M  V30 19365 H 1802.65 2.0467 4.42675 0
M  V30 19366 H 1801.65 4.18477 3.56591 0
M  V30 19367 H 1802.88 5.12017 4.46112 0
M  V30 19368 H 1800.82 3.24857 5.69916 0
M  V30 19369 H 1800.74 4.97969 5.68826 0
M  V30 19370 H 1802.01 4.18722 6.57489 0
M  V30 19371 N 1806.24 -0.757876 1.38181 0
M  V30 19372 C 1807.49 -1.51222 1.33472 0
M  V30 19373 C 1807.8 -1.9546 -0.0740525 0
M  V30 19374 O 1809.01 -2.70404 -0.243664 0
M  V30 19375 C 1807.46 -2.73138 2.34358 0
M  V30 19376 C 1807.07 -2.35943 3.80835 0
M  V30 19377 C 1808.81 -3.51041 2.38685 0
M  V30 19378 C 1806.72 -3.54444 4.73417 0
M  V30 19379 H 1805.65 -0.567789 0.496116 0
M  V30 19380 H 1808.3 -0.828861 1.63714 0
M  V30 19381 H 1806.68 -3.43433 1.97153 0
M  V30 19382 H 1807.86 -1.73341 4.26954 0
M  V30 19383 H 1806.17 -1.71184 3.79585 0
M  V30 19384 H 1808.77 -4.39143 3.05054 0
M  V30 19385 H 1809.11 -3.91892 1.40451 0
M  V30 19386 H 1809.65 -2.87755 2.74667 0
M  V30 19387 H 1806.39 -3.18663 5.7283 0
M  V30 19388 H 1805.91 -4.16103 4.31993 0
M  V30 19389 H 1807.58 -4.21081 4.91223 0
M  V30 19390 N 1807.72 -1.22979 -0.985586 0
M  V30 19391 C 1808.67 -0.973592 -2.06168 0
M  V30 19392 C 1809.65 0.0785071 -1.60708 0
M  V30 19393 O 1810.84 -0.132958 -1.765 0
M  V30 19394 C 1807.97 -0.561129 -3.38683 0
M  V30 19395 C 1807.06 -1.64835 -3.90756 0
M  V30 19396 N 1807.45 -2.87758 -4.15967 0
M  V30 19397 C 1805.75 -1.52173 -4.19237 0
M  V30 19398 C 1806.45 -3.58113 -4.58399 0
M  V30 19399 N 1805.42 -2.85609 -4.62524 0
M  V30 19400 H 1809.23 -1.90723 -2.23611 0
M  V30 19401 H 1806.74 -1.12841 -1.16793 0
M  V30 19402 H 1808.74 -0.358874 -4.15353 0
M  V30 19403 H 1807.4 0.365524 -3.22636 0
M  V30 19404 H 1808.41 -3.24114 -4.03943 0
M  V30 19405 H 1805.08 -0.661807 -4.12221 0
M  V30 19406 H 1806.47 -4.63465 -4.86467 0
M  V30 19407 N 1809.19 1.18355 -1.04066 0
M  V30 19408 C 1810.44 1.88614 -0.745148 0
M  V30 19409 C 1810.77 1.80147 0.725294 0
M  V30 19410 O 1810.05 1.20177 1.5293 0
M  V30 19411 C 1810.33 3.39095 -1.2119 0
M  V30 19412 C 1810.18 3.56372 -2.74444 0
M  V30 19413 C 1811.5 4.32732 -0.801953 0
M  V30 19414 H 1808.62 0.684905 -0.272166 0
M  V30 19415 H 1811.26 1.39248 -1.29267 0
M  V30 19416 H 1809.41 3.81269 -0.746091 0
M  V30 19417 H 1811.09 3.2329 -3.29061 0
M  V30 19418 H 1809.33 2.99028 -3.14269 0
M  V30 19419 H 1810 4.61956 -3.0216 0
M  V30 19420 H 1812.48 3.98337 -1.20278 0
M  V30 19421 H 1811.35 5.36583 -1.15628 0
M  V30 19422 H 1811.61 4.41115 0.294907 0
M  V30 19423 N 1810.67 0.820125 1.3458 0
M  V30 19424 C 1811.9 0.418747 2.03129 0
M  V30 19425 C 1812.32 -0.966605 1.61364 0
M  V30 19426 O 1811.68 -1.62847 0.796903 0
M  V30 19427 C 1811.73 0.525681 3.56748 0
M  V30 19428 O 1810.83 -0.455592 4.09876 0
M  V30 19429 H 1810.17 0.172819 0.641116 0
M  V30 19430 H 1812.7 1.10977 1.71888 0
M  V30 19431 H 1812.71 0.400422 4.0603 0
M  V30 19432 H 1811.39 1.53609 3.86493 0
M  V30 19433 H 1809.97 -0.289449 3.71775 0
M  V30 19434 N 1812.15 -1.46743 0.574835 0
M  V30 19435 C 1813.56 -1.86127 0.146143 0
M  V30 19436 C 1813.91 -1.47938 -1.28875 0
M  V30 19437 O 1813.04 -0.890593 -1.97224 0
M  V30 19438 C 1813.63 -3.37813 0.258447 0
M  V30 19439 C 1812.19 -3.76223 -0.115322 0
M  V30 19440 C 1811.34 -2.70775 0.597997 0
M  V30 19441 H 1814.29 -1.38009 0.783526 0
M  V30 19442 H 1814.31 -3.76953 -0.51831 0
M  V30 19443 H 1813.82 -3.65577 1.30288 0
M  V30 19444 H 1811.92 -3.54077 -1.16019 0
M  V30 19445 H 1812.04 -4.78418 0.255513 0
M  V30 19446 H 1810.4 -2.5467 0.039113 0
M  V30 19447 H 1811.18 -3.0138 1.64393 0
M  V30 19448 N 1813.63 -0.312197 -1.54477 0
M  V30 19449 C 1814.91 0.347462 -1.92489 0
M  V30 19450 C 1815.29 1.70797 -1.24063 0
M  V30 19451 O 1814.63 2.25313 -0.380296 0
M  V30 19452 C 1814.84 0.450992 -3.46074 0
M  V30 19453 C 1816.19 0.716618 -4.18509 0
M  V30 19454 O 1817.22 0.534364 -3.52169 0
M  V30 19455 O 1816.07 1.06744 -5.35974 0
M  V30 19456 H 1813.17 0.196248 -0.803378 0
M  V30 19457 H 1815.71 -0.361078 -1.65814 0
M  V30 19458 H 1814.49 -0.504982 -3.88028 0
M  V30 19459 H 1814.11 1.20756 -3.78819 0
M  V30 19460 N 1815.11 1.57549 -0.040136 0
M  V30 19461 C 1816.35 1.9225 0.636094 0
M  V30 19462 C 1816.68 0.917539 1.71498 0
M  V30 19463 O 1815.94 -0.0718721 1.95568 0
M  V30 19464 C 1816.24 3.3366 1.28084 0
M  V30 19465 C 1815.9 4.49682 0.331249 0
M  V30 19466 C 1814.56 4.81149 0.0699171 0
M  V30 19467 C 1816.92 5.20216 -0.320179 0
M  V30 19468 C 1814.24 5.80503 -0.850464 0
M  V30 19469 C 1816.6 6.20553 -1.22868 0
M  V30 19470 C 1815.26 6.50455 -1.4988 0
M  V30 19471 H 1814.53 0.703493 0.232763 0
M  V30 19472 H 1817.18 1.91216 -0.104258 0
M  V30 19473 H 1815.48 3.31008 2.0962 0
M  V30 19474 H 1817.18 3.57785 1.81082 0
M  V30 19475 H 1813.77 4.25119 0.545114 0
M  V30 19476 H 1817.95 4.96126 -0.131354 0
M  V30 19477 H 1813.21 6.02012 -1.06733 0
M  V30 19478 H 1817.38 6.74323 -1.73958 0
M  V30 19479 H 1815.01 7.27257 -2.21362 0
M  V30 19480 N 1816.58 -0.233136 1.55866 0
M  V30 19481 C 1817.53 -1.28882 1.91463 0
M  V30 19482 C 1818.5 -1.47151 0.770435 0
M  V30 19483 O 1819.69 -1.6091 1.02531 0
M  V30 19484 C 1816.83 -2.63653 2.22668 0
M  V30 19485 C 1815.94 -2.53278 3.49963 0
M  V30 19486 C 1815.07 -3.80494 3.70672 0
M  V30 19487 C 1814.11 -3.64794 4.9152 0
M  V30 19488 N 1813.25 -4.83933 5.08678 0
M  V30 19489 H 1818.09 -0.978251 2.81486 0
M  V30 19490 H 1815.63 -0.471757 1.3933 0
M  V30 19491 H 1817.59 -3.42119 2.38769 0
M  V30 19492 H 1816.22 -2.9283 1.35833 0
M  V30 19493 H 1815.27 -1.66308 3.4212 0
M  V30 19494 H 1816.58 -2.37592 4.38579 0
M  V30 19495 H 1815.73 -4.67404 3.86806 0
M  V30 19496 H 1814.47 -3.99092 2.80315 0
M  V30 19497 H 1813.48 -2.76268 4.75348 0
M  V30 19498 H 1814.7 -3.47677 5.8335 0
M  V30 19499 H 1812.65 -5.02866 4.21262 0
M  V30 19500 H 1812.57 -4.7093 5.91406 0
M  V30 19501 H 1813.83 -5.72302 5.29236 0
M  V30 19502 N 1818.06 -1.49479 -0.499372 0
M  V30 19503 C 1819.29 -1.6276 -1.27738 0
M  V30 19504 C 1819.71 -0.299635 -1.86407 0
M  V30 19505 O 1819.06 0.715092 -1.67907 0
M  V30 19506 C 1819.11 -2.69762 -2.40647 0
M  V30 19507 O 1818.84 -3.97407 -1.84388 0
M  V30 19508 C 1820.34 -2.93762 -3.31992 0
M  V30 19509 H 1817.56 -0.547893 -0.387368 0
M  V30 19510 H 1820.1 -1.95522 -0.599292 0
M  V30 19511 H 1818.26 -2.39773 -3.04282 0
M  V30 19512 H 1818.67 -4.56361 -2.58525 0
M  V30 19513 H 1820.14 -3.72361 -4.07494 0
M  V30 19514 H 1820.62 -2.0374 -3.89085 0
M  V30 19515 H 1821.23 -3.25173 -2.74122 0
M  V30 19516 N 1819.54 0.750537 -1.38581 0
M  V30 19517 C 1820.77 1.53755 -1.37996 0
M  V30 19518 C 1821.18 1.89174 0.0313394 0
M  V30 19519 O 1820.52 1.535 1.00912 0
M  V30 19520 C 1820.58 2.86315 -2.17403 0
M  V30 19521 C 1820.25 2.73417 -3.66186 0
M  V30 19522 C 1821.25 2.43008 -4.59612 0
M  V30 19523 C 1818.93 2.90774 -4.0958 0
M  V30 19524 C 1820.92 2.30114 -5.94413 0
M  V30 19525 C 1818.61 2.775 -5.4446 0
M  V30 19526 C 1819.61 2.47213 -6.3669 0
M  V30 19527 O 1819.3 2.34004 -7.69089 0
M  V30 19528 H 1819.03 0.482269 -0.473701 0
M  V30 19529 H 1821.58 0.936379 -1.82814 0
M  V30 19530 H 1819.81 3.48633 -1.67307 0
M  V30 19531 H 1821.5 3.47844 -2.09187 0
M  V30 19532 H 1822.27 2.29263 -4.27391 0
M  V30 19533 H 1818.15 3.13344 -3.38137 0
M  V30 19534 H 1821.69 2.06396 -6.66368 0
M  V30 19535 H 1817.59 2.90818 -5.76277 0
M  V30 19536 H 1818.36 2.49193 -7.79644 0
M  V30 19537 N 1821.02 1.235 0.979051 0
M  V30 19538 C 1822.27 1.06949 1.72307 0
M  V30 19539 C 1822.6 -0.392491 1.90192 0
M  V30 19540 O 1821.87 -1.29054 1.45518 0
M  V30 19541 C 1822.16 1.79705 3.12055 0
M  V30 19542 C 1822.01 3.33583 3.01732 0
M  V30 19543 C 1823.33 1.56062 4.11501 0
M  V30 19544 H 1820.45 0.389917 0.625407 0
M  V30 19545 H 1823.09 1.52022 1.1397 0
M  V30 19546 H 1821.24 1.4139 3.61858 0
M  V30 19547 H 1822.91 3.81428 2.59443 0
M  V30 19548 H 1821.15 3.62547 2.38206 0
M  V30 19549 H 1821.83 3.79681 4.00683 0
M  V30 19550 H 1824.3 1.8937 3.70511 0
M  V30 19551 H 1823.18 2.09442 5.07371 0
M  V30 19552 H 1823.44 0.496276 4.39306 0
M  V30 19553 N 1822.5 -1.17802 1.04693 0
M  V30 19554 C 1823.73 -1.91867 0.774246 0
M  V30 19555 C 1824.14 -1.76534 -0.669425 0
M  V30 19556 O 1823.5 -1.09915 -1.45688 0
M  V30 19557 C 1823.55 -3.43086 1.13904 0
M  V30 19558 O 1823.27 -3.57943 2.52604 0
M  V30 19559 C 1824.77 -4.34238 0.891767 0
M  V30 19560 H 1821.99 -0.60892 0.281882 0
M  V30 19561 H 1824.53 -1.49414 1.39627 0
M  V30 19562 H 1822.69 -3.83304 0.561863 0
M  V30 19563 H 1823.1 -4.51599 2.66756 0
M  V30 19564 H 1824.58 -5.3887 1.1968 0
M  V30 19565 H 1825.05 -4.38858 -0.17323 0
M  V30 19566 H 1825.66 -3.99727 1.45254 0
M  V30 19567 N 1823.98 -0.827251 -1.34143 0
M  V30 19568 C 1825.22 -0.418003 -1.98445 0
M  V30 19569 C 1825.55 1.01737 -1.65418 0
M  V30 19570 O 1824.83 1.70932 -0.928042 0
M  V30 19571 C 1825.11 -0.625559 -3.54625 0
M  V30 19572 C 1824.97 -2.10736 -3.97379 0
M  V30 19573 C 1826.28 -0.0642701 -4.40053 0
M  V30 19574 H 1823.4 -0.15335 -0.72087 0
M  V30 19575 H 1826.05 -1.04062 -1.58969 0
M  V30 19576 H 1824.2 -0.095577 -3.88382 0
M  V30 19577 H 1825.87 -2.70131 -3.73934 0
M  V30 19578 H 1824.11 -2.59621 -3.47533 0
M  V30 19579 H 1824.78 -2.20338 -5.06118 0
M  V30 19580 H 1827.26 -0.517137 -4.12874 0
M  V30 19581 H 1826.13 -0.239267 -5.48378 0
M  V30 19582 H 1826.39 1.0311 -4.29908 0
M  V30 19583 N 1825.45 1.46436 -0.582609 0
M  V30 19584 C 1826.73 1.956 -0.00129167 0
M  V30 19585 C 1827.11 1.52526 1.45942 0
M  V30 19586 O 1826.46 0.775911 2.14923 0
M  V30 19587 C 1826.67 3.4857 -0.173243 0
M  V30 19588 C 1828.02 4.2458 -0.0410173 0
M  V30 19589 O 1829.04 3.56054 -0.102074 0
M  V30 19590 O 1827.9 5.46418 0.0947564 0
M  V30 19591 H 1824.99 0.825495 0.0498706 0
M  V30 19592 H 1827.54 1.5672 -0.650921 0
M  V30 19593 H 1826.31 3.72808 -1.1887 0
M  V30 19594 H 1825.93 3.94279 0.512822 0
M  V30 19595 N 1826.93 0.320385 1.54309 0
M  V30 19596 C 1827.88 -0.562569 2.25694 0
M  V30 19597 C 1828.87 -1.12117 1.26988 0
M  V30 19598 O 1830.08 -1.06958 1.44776 0
M  V30 19599 H 1826.45 -0.200063 0.724899 0
M  V30 19600 H 1828.43 0.0618142 2.98336 0
M  V30 19601 C 1827.17 -1.7134 3.02552 0
M  V30 19602 H 1826.5 -1.29281 3.7832 0
M  V30 19603 H 1827.94 -2.30687 3.55752 0
M  V30 19604 C 1826.4 -2.62912 2.10663 0
M  V30 19605 O 1826.93 -3.64541 1.68739 0
M  V30 19606 N 1825.13 -2.31076 1.76217 0
M  V30 19607 H 1824.68 -1.48474 2.10507 0
M  V30 19608 H 1824.64 -2.92608 1.15014 0
M  V30 19609 N 1828.41 -1.57525 0.0484906 0
M  V30 19610 C 1829.34 -2.14405 -0.924811 0
M  V30 19611 C 1830.32 -1.06503 -1.32631 0
M  V30 19612 O 1831.51 -1.3443 -1.4015 0
M  V30 19613 C 1828.64 -2.68686 -2.20057 0
M  V30 19614 C 1827.59 -3.81547 -1.93922 0
M  V30 19615 C 1826.92 -4.22334 -3.27929 0
M  V30 19616 C 1828.22 -5.06801 -1.26295 0
M  V30 19617 H 1829.91 -2.95983 -0.45105 0
M  V30 19618 H 1827.46 -1.42378 -0.215514 0
M  V30 19619 H 1829.41 -3.07117 -2.88543 0
M  V30 19620 H 1828.13 -1.84296 -2.69634 0
M  V30 19621 H 1826.79 -3.43585 -1.27848 0
M  V30 19622 H 1826.44 -3.34899 -3.75302 0
M  V30 19623 H 1826.14 -4.984 -3.11242 0
M  V30 19624 H 1827.66 -4.63363 -3.97652 0
M  V30 19625 H 1829.08 -5.42695 -1.84812 0
M  V30 19626 H 1827.47 -5.87991 -1.19943 0
M  V30 19627 H 1828.54 -4.84313 -0.238605 0
M  V30 19628 N 1829.89 0.224867 -1.55988 0
M  V30 19629 C 1831.14 0.947871 -1.78493 0
M  V30 19630 C 1831.46 1.85001 -0.616413 0
M  V30 19631 O 1830.73 1.92435 0.366847 0
M  V30 19632 H 1829.31 0.352987 -0.658338 0
M  V30 19633 H 1831.97 0.237519 -1.93447 0
M  V30 19634 H 1831.06 1.55664 -2.70509 0
M  V30 19635 N 1831.37 1.49742 0.491438 0
M  V30 19636 C 1832.61 1.58956 1.24161 0
M  V30 19637 C 1832.93 0.285882 1.935 0
M  V30 19638 O 1834.13 0.256678 2.70284 0
M  V30 19639 C 1832.59 2.805 2.25494 0
M  V30 19640 C 1832.2 4.17664 1.62051 0
M  V30 19641 C 1833.94 2.99049 3.0128 0
M  V30 19642 C 1831.85 5.3042 2.61551 0
M  V30 19643 H 1830.78 0.591883 0.467108 0
M  V30 19644 H 1833.43 1.76144 0.514364 0
M  V30 19645 H 1831.81 2.56827 3.01423 0
M  V30 19646 H 1832.99 4.51512 0.9205 0
M  V30 19647 H 1831.3 4.04553 0.986211 0
M  V30 19648 H 1833.9 3.80458 3.75707 0
M  V30 19649 H 1834.24 2.0998 3.59464 0
M  V30 19650 H 1834.77 3.22807 2.32466 0
M  V30 19651 H 1831.51 6.21579 2.08135 0
M  V30 19652 H 1831.03 5.01014 3.29765 0
M  V30 19653 H 1832.71 5.60152 3.23789 0
M  V30 19654 N 1832.84 -0.743177 1.38977 0
M  V30 19655 C 1833.77 -1.87047 1.3977 0
M  V30 19656 C 1834.76 -1.68068 0.262161 0
M  V30 19657 O 1835.94 -1.88507 0.466782 0
M  V30 19658 C 1833.07 -3.24701 1.23234 0
M  V30 19659 C 1832.02 -3.58302 2.34102 0
M  V30 19660 C 1831.35 -4.94805 2.02663 0
M  V30 19661 C 1832.65 -3.62111 3.76395 0
M  V30 19662 H 1834.34 -1.8664 2.34107 0
M  V30 19663 H 1831.89 -0.896541 1.12686 0
M  V30 19664 H 1833.84 -4.03228 1.22412 0
M  V30 19665 H 1832.57 -3.25614 0.253638 0
M  V30 19666 H 1831.23 -2.82099 2.34128 0
M  V30 19667 H 1830.87 -4.92289 1.0325 0
M  V30 19668 H 1830.57 -5.18254 2.76922 0
M  V30 19669 H 1832.1 -5.75699 2.03477 0
M  V30 19670 H 1833.51 -4.30731 3.78343 0
M  V30 19671 H 1831.91 -3.97075 4.49946 0
M  V30 19672 H 1832.98 -2.62099 4.07961 0
M  V30 19673 N 1834.32 -1.24018 -0.972487 0
M  V30 19674 C 1835.55 -1.10232 -1.74736 0
M  V30 19675 C 1835.96 0.348409 -1.85964 0
M  V30 19676 O 1835.3 1.25245 -1.34386 0
M  V30 19677 C 1835.37 -1.66263 -3.18743 0
M  V30 19678 C 1835.03 -3.151 -3.31 0
M  V30 19679 C 1836.03 -4.12305 -3.16703 0
M  V30 19680 C 1833.71 -3.54965 -3.55394 0
M  V30 19681 C 1835.71 -5.47357 -3.26617 0
M  V30 19682 C 1833.39 -4.9016 -3.64947 0
M  V30 19683 C 1834.39 -5.86165 -3.5057 0
M  V30 19684 O 1834.08 -7.18903 -3.5977 0
M  V30 19685 H 1833.81 -0.386036 -0.554935 0
M  V30 19686 H 1836.36 -1.64505 -1.22993 0
M  V30 19687 H 1834.59 -1.06419 -3.71769 0
M  V30 19688 H 1836.28 -1.47837 -3.7802 0
M  V30 19689 H 1837.05 -3.82848 -2.97745 0
M  V30 19690 H 1832.93 -2.80747 -3.65653 0
M  V30 19691 H 1836.47 -6.22273 -3.15312 0
M  V30 19692 H 1832.37 -5.1929 -3.83416 0
M  V30 19693 H 1833.14 -7.26759 -3.76515 0
M  V30 19694 N 1835.8 1.17245 -1.05316 0
M  V30 19695 C 1837.05 1.86871 -0.759093 0
M  V30 19696 C 1837.36 1.81997 0.7167 0
M  V30 19697 O 1838.57 2.47106 1.12476 0
M  V30 19698 C 1837.02 3.35303 -1.30766 0
M  V30 19699 C 1836.63 3.48676 -2.81299 0
M  V30 19700 C 1838.38 4.10249 -1.0907 0
M  V30 19701 C 1836.28 4.91138 -3.2945 0
M  V30 19702 H 1835.21 0.699975 -0.28027 0
M  V30 19703 H 1837.86 1.32393 -1.27061 0
M  V30 19704 H 1836.25 3.89326 -0.723955 0
M  V30 19705 H 1837.42 3.04864 -3.45536 0
M  V30 19706 H 1835.74 2.87152 -3.0155 0
M  V30 19707 H 1838.33 5.1535 -1.42545 0
M  V30 19708 H 1838.68 4.1629 -0.0285204 0
M  V30 19709 H 1839.21 3.62436 -1.63967 0
M  V30 19710 H 1835.95 4.90271 -4.35103 0
M  V30 19711 H 1835.47 5.35615 -2.69956 0
M  V30 19712 H 1837.15 5.59913 -3.24201 0
M  V30 19713 N 1837.28 0.834353 1.33702 0
M  V30 19714 C 1838.21 0.279313 2.31823 0
M  V30 19715 C 1839.19 -0.610495 1.58767 0
M  V30 19716 O 1840.37 -0.534989 1.86686 0
M  V30 19717 C 1837.5 -0.550201 3.42914 0
M  V30 19718 C 1836.46 0.243432 4.27307 0
M  V30 19719 C 1835.78 -0.709548 5.29971 0
M  V30 19720 C 1837.08 1.45799 5.01537 0
M  V30 19721 H 1838.78 1.09915 2.78494 0
M  V30 19722 H 1836.32 0.529987 1.33892 0
M  V30 19723 H 1838.28 -0.948764 4.10581 0
M  V30 19724 H 1837 -1.4032 2.9492 0
M  V30 19725 H 1835.66 0.6235 3.61259 0
M  V30 19726 H 1835.31 -1.55882 4.78236 0
M  V30 19727 H 1835.01 -0.182671 5.87316 0
M  V30 19728 H 1836.53 -1.10572 6.00505 0
M  V30 19729 H 1837.95 1.13283 5.61996 0
M  V30 19730 H 1836.34 1.92133 5.68511 0
M  V30 19731 H 1837.41 2.23016 4.30571 0
M  V30 19732 N 1838.76 -1.46125 0.590367 0
M  V30 19733 C 1839.69 -2.2852 -0.176393 0
M  V30 19734 C 1840.7 -1.38958 -0.848208 0
M  V30 19735 O 1841.89 -1.63489 -0.716485 0
M  V30 19736 C 1838.99 -3.14214 -1.26974 0
M  V30 19737 C 1838.16 -4.31949 -0.688377 0
M  V30 19738 C 1837.22 -4.98983 -1.67041 0
M  V30 19739 O 1836.25 -5.56332 -1.20345 0
M  V30 19740 N 1837.45 -4.96691 -3.00463 0
M  V30 19741 H 1840.22 -2.94967 0.530546 0
M  V30 19742 H 1837.78 -1.56122 0.42866 0
M  V30 19743 H 1839.77 -3.55924 -1.92614 0
M  V30 19744 H 1838.34 -2.49792 -1.87944 0
M  V30 19745 H 1837.56 -3.93931 0.145677 0
M  V30 19746 H 1838.85 -5.0803 -0.279884 0
M  V30 19747 H 1838.24 -4.51357 -3.41018 0
M  V30 19748 H 1836.8 -5.42318 -3.61572 0
M  V30 19749 N 1840.23 -0.328564 -1.54137 0
M  V30 19750 C 1841.46 0.274326 -2.05073 0
M  V30 19751 C 1841.88 1.45393 -1.20442 0
M  V30 19752 O 1841.23 1.80964 -0.23625 0
M  V30 19753 C 1841.29 0.703941 -3.5458 0
M  V30 19754 O 1841.01 -0.428738 -4.35997 0
M  V30 19755 C 1842.51 1.36912 -4.21628 0
M  V30 19756 H 1839.73 0.0556157 -0.668691 0
M  V30 19757 H 1842.27 -0.476204 -1.98878 0
M  V30 19758 H 1840.43 1.40444 -3.61046 0
M  V30 19759 H 1840.84 -0.0892654 -5.24424 0
M  V30 19760 H 1842.31 1.62062 -5.27674 0
M  V30 19761 H 1842.79 2.31799 -3.73049 0
M  V30 19762 H 1843.4 0.711064 -4.19314 0
M  V30 19763 N 1841.71 1.57497 -0.0568439 0
M  V30 19764 C 1842.64 2.14892 0.913427 0
M  V30 19765 C 1843.62 1.07205 1.32065 0
M  V30 19766 O 1844.81 1.35172 1.39435 0
M  V30 19767 C 1841.94 2.69849 2.18629 0
M  V30 19768 C 1840.89 3.8257 1.91896 0
M  V30 19769 C 1840.22 4.24068 3.25685 0
M  V30 19770 C 1841.52 5.07463 1.23606 0
M  V30 19771 H 1843.21 2.96218 0.435347 0
M  V30 19772 H 1840.76 1.4249 0.20796 0
M  V30 19773 H 1842.71 3.08643 2.86911 0
M  V30 19774 H 1841.44 1.85723 2.68653 0
M  V30 19775 H 1840.09 3.44258 1.26024 0
M  V30 19776 H 1839.74 3.36884 3.73521 0
M  V30 19777 H 1839.44 5.00043 3.08594 0
M  V30 19778 H 1840.97 4.65466 3.95189 0
M  V30 19779 H 1842.38 5.43667 1.81931 0
M  V30 19780 H 1840.78 5.88619 1.16823 0
M  V30 19781 H 1841.85 4.84432 0.212918 0
M  V30 19782 N 1843.19 -0.216591 1.56105 0
M  V30 19783 C 1844.1 -1.28933 1.95994 0
M  V30 19784 C 1845.12 -1.51007 0.864464 0
M  V30 19785 O 1846.29 -1.6404 1.16845 0
M  V30 19786 C 1843.36 -2.61807 2.27284 0
M  V30 19787 C 1842.42 -2.47992 3.50426 0
M  V30 19788 C 1841.65 -3.7453 3.80214 0
M  V30 19789 O 1841.87 -4.77765 3.11604 0
M  V30 19790 O 1840.81 -3.71345 4.73694 0
M  V30 19791 H 1844.63 -0.980864 2.87424 0
M  V30 19792 H 1842.22 -0.419859 1.43379 0
M  V30 19793 H 1844.1 -3.40272 2.48582 0
M  V30 19794 H 1842.78 -2.92324 1.39026 0
M  V30 19795 H 1841.68 -1.67711 3.34401 0
M  V30 19796 H 1843.02 -2.22413 4.39082 0
M  V30 19797 O 1844.71 -1.57391 -0.362003 0
M  V30 19798 H 1845.4 -1.65127 -1.01256 0
M  V30 END ATOM
M  V30 BEGIN BOND
M  V30 END BOND
M  V30 END CTAB
M  END
$$$$
