drugbank_target|Q9NXB9 Elongation of very long chain fatty acids protein 2 (DB00132)
 OpenBabel12092121233D

  0  0  0     0  0            999 V3000
M  V30 BEGIN CTAB
M  V30 COUNTS 4886 4965 0 0 0
M  V30 BEGIN ATOM
M  V30 1 H -0.908 1.98254 -0.117106 0
M  V30 2 N 0 1.576 0 0
M  V30 3 C 0.933 2.03868 1.02534 0
M  V30 4 C 1.911 0.928543 1.3348 0
M  V30 5 O 3.095 1.19667 1.45644 0
M  V30 6 C 0.222 2.43627 2.35294 0
M  V30 7 C -0.732 3.65373 2.2001 0
M  V30 8 S 0.101 5.13292 1.52614 0
M  V30 9 C 1.257 5.56322 2.86805 0
M  V30 10 H 1.49 2.90518 0.631377 0
M  V30 11 H -0.977 1.52953 0.210867 0
M  V30 12 H 0.981 2.67203 3.11629 0
M  V30 13 H -0.358 1.57376 2.7183 0
M  V30 14 H -1.165 3.90944 3.18086 0
M  V30 15 H -1.563 3.418 1.51819 0
M  V30 16 H 0.729 5.58782 3.83104 0
M  V30 17 H 1.672 6.56266 2.65933 0
M  V30 18 H 2.08 4.83886 2.90714 0
M  V30 19 N 1.4781 -0.272755 1.55222 0
M  V30 20 C 2.3881 -1.35918 1.91216 0
M  V30 21 C 3.4041 -1.54026 0.809436 0
M  V30 22 O 4.5801 -1.68148 1.10852 0
M  V30 23 C 1.6451 -2.69834 2.17693 0
M  V30 24 C 0.7061 -2.6047 3.41253 0
M  V30 25 C -0.0609 -3.88 3.66458 0
M  V30 26 O 0.1621 -4.88693 2.94169 0
M  V30 27 O -0.9039 -3.88189 4.59992 0
M  V30 28 H 2.9221 -1.0839 2.83699 0
M  V30 29 H 0.5071 -0.471301 1.41771 0
M  V30 30 H 2.3891 -3.49017 2.36147 0
M  V30 31 H 1.0641 -2.97148 1.28392 0
M  V30 32 H -0.0289 -1.79663 3.28134 0
M  V30 33 H 1.3041 -2.38106 4.30774 0
M  V30 34 N 2.9562 -1.48159 -0.537278 0
M  V30 35 C 3.9062 -1.5854 -1.63857 0
M  V30 36 C 4.8902 -0.442969 -1.54682 0
M  V30 37 O 6.0822 -0.69401 -1.62827 0
M  V30 38 C 3.2112 -1.62144 -3.02596 0
M  V30 39 C 2.2972 -2.81841 -3.16901 0
M  V30 40 N 2.6882 -4.06337 -3.01204 0
M  V30 41 C 0.9862 -2.79021 -3.47942 0
M  V30 42 C 1.6872 -4.86606 -3.18731 0
M  V30 43 N 0.6632 -4.19288 -3.45974 0
M  V30 44 H 4.4652 -2.5255 -1.50319 0
M  V30 45 H 1.9792 -1.4443 -0.742555 0
M  V30 46 H 3.9762 -1.67674 -3.81695 0
M  V30 47 H 2.6362 -0.69245 -3.17231 0
M  V30 48 H 3.6472 -4.36888 -2.78117 0
M  V30 49 H 0.3242 -1.95347 -3.6898 0
M  V30 50 H 1.7142 -5.95385 -3.11394 0
M  V30 51 N 4.4343 0.785586 -1.36625 0
M  V30 52 C 5.3643 1.91259 -1.33949 0
M  V30 53 C 6.3453 1.68795 -0.210325 0
M  V30 54 O 7.5303 1.89854 -0.408561 0
M  V30 55 C 4.6603 3.28339 -1.13186 0
M  V30 56 C 3.6143 3.65335 -2.22967 0
M  V30 57 C 2.9403 5.00806 -1.87342 0
M  V30 58 C 4.2403 3.7352 -3.65075 0
M  V30 59 H 5.9343 1.93755 -2.28253 0
M  V30 60 H 3.4803 0.930788 -1.09874 0
M  V30 61 H 5.4333 4.06804 -1.09948 0
M  V30 62 H 4.1573 3.2624 -0.153332 0
M  V30 63 H 2.8163 2.89169 -2.25337 0
M  V30 64 H 2.4643 4.95233 -0.880545 0
M  V30 65 H 2.1643 5.26529 -2.60846 0
M  V30 66 H 3.6883 5.81687 -1.85667 0
M  V30 67 H 5.1023 4.42168 -3.64911 0
M  V30 68 H 3.4993 4.10731 -4.37516 0
M  V30 69 H 4.5693 2.74527 -3.99703 0
M  V30 70 N 5.9124 1.20967 1.01018 0
M  V30 71 C 6.8594 0.964281 2.09691 0
M  V30 72 C 7.8294 -0.107853 1.65749 0
M  V30 73 O 9.0144 0.0381987 1.90762 0
M  V30 74 C 6.1544 0.52943 3.41015 0
M  V30 75 C 5.2674 1.67043 3.98398 0
M  V30 76 C 4.4024 1.18525 5.17808 0
M  V30 77 C 3.4414 2.29892 5.67288 0
M  V30 78 N 2.5784 1.82546 6.77954 0
M  V30 79 H 7.4184 1.89463 2.30017 0
M  V30 80 H 4.9554 0.944289 1.1279 0
M  V30 81 H 6.9134 0.258588 4.16398 0
M  V30 82 H 5.5434 -0.363919 3.20742 0
M  V30 83 H 4.5954 2.05603 3.20049 0
M  V30 84 H 5.9074 2.50877 4.31117 0
M  V30 85 H 5.0614 0.870762 6.00419 0
M  V30 86 H 3.8004 0.316887 4.86669 0
M  V30 87 H 2.8054 2.6215 4.83278 0
M  V30 88 H 4.0304 3.17216 6.00459 0
M  V30 89 H 1.9764 0.980454 6.48632 0
M  V30 90 H 1.8934 2.59956 7.09901 0
M  V30 91 H 3.1614 1.54115 7.64113 0
M  V30 92 N 7.3905 -1.2043 1.01659 0
M  V30 93 C 8.3535 -2.21433 0.591616 0
M  V30 94 C 9.3535 -1.57203 -0.338226 0
M  V30 95 O 10.5435 -1.73737 -0.126918 0
M  V30 96 C 7.6755 -3.40628 -0.136058 0
M  V30 97 H 8.8685 -2.60545 1.48514 0
M  V30 98 H 6.4215 -1.33893 0.806379 0
M  V30 99 H 7.1565 -3.07019 -1.04449 0
M  V30 100 H 6.9415 -3.88475 0.531917 0
M  V30 101 H 8.4315 -4.15475 -0.420735 0
M  V30 102 N 8.8686 -0.792821 -1.36206 0
M  V30 103 C 10.1156 -0.366786 -1.99151 0
M  V30 104 C 10.4436 1.06243 -1.62919 0
M  V30 105 O 9.6986 1.74927 -0.877442 0
M  V30 106 C 9.9976 -0.481501 -3.54142 0
M  V30 107 C 9.6636 -1.87202 -4.10203 0
M  V30 108 C 8.3256 -2.25248 -4.25226 0
M  V30 109 C 10.6776 -2.78237 -4.40719 0
M  V30 110 C 8.0056 -3.53723 -4.68078 0
M  V30 111 C 10.3576 -4.06144 -4.85005 0
M  V30 112 C 9.0216 -4.44207 -4.98234 0
M  V30 113 H 8.2916 -0.134217 -0.728743 0
M  V30 114 H 10.9386 -1.01094 -1.62641 0
M  V30 115 H 9.2436 0.246146 -3.91026 0
M  V30 116 H 10.9406 -0.132844 -4.0078 0
M  V30 117 H 7.5306 -1.56639 -3.98951 0
M  V30 118 H 11.7146 -2.50097 -4.28679 0
M  V30 119 H 6.9706 -3.8308 -4.76508 0
M  V30 120 H 11.1446 -4.76796 -5.07581 0
M  V30 121 H 8.7716 -5.43814 -5.31197 0
M  V30 122 N 10.3467 1.47872 -0.545128 0
M  V30 123 C 11.6237 1.9554 0.0485222 0
M  V30 124 C 12.0037 1.4876 1.49779 0
M  V30 125 O 11.3517 0.720925 2.16829 0
M  V30 126 C 11.5617 3.48898 -0.084417 0
M  V30 127 C 12.9097 4.24547 0.0671239 0
M  V30 128 O 13.9337 3.56198 -0.0113649 0
M  V30 129 O 12.7927 5.45999 0.233882 0
M  V30 130 H 9.8867 0.823957 0.0708773 0
M  V30 131 H 12.4327 1.58327 -0.610798 0
M  V30 132 H 11.2047 3.75714 -1.09337 0
M  V30 133 H 10.8277 3.92845 0.613066 0
M  V30 134 N 11.8248 0.280983 1.55075 0
M  V30 135 C 13.1018 -0.386207 1.91749 0
M  V30 136 C 13.4818 -1.73264 1.20594 0
M  V30 137 O 12.8298 -2.26034 0.334784 0
M  V30 138 C 13.0398 -0.520687 3.45094 0
M  V30 139 C 14.3878 -0.800865 4.16979 0
M  V30 140 O 15.4118 -0.605271 3.5102 0
M  V30 141 O 14.2708 -1.1753 5.33712 0
M  V30 142 H 11.3648 -0.212408 0.799257 0
M  V30 143 H 13.9108 0.327568 1.66509 0
M  V30 144 H 12.6828 0.426633 3.88967 0
M  V30 145 H 12.3058 -1.2837 3.76307 0
M  V30 146 N 13.3029 -1.57598 0.00835791 0
M  V30 147 C 14.2129 -2.12385 -0.996487 0
M  V30 148 C 15.2289 -1.07108 -1.37127 0
M  V30 149 O 16.4049 -1.39055 -1.4569 0
M  V30 150 C 13.4699 -2.62314 -2.26699 0
M  V30 151 C 12.5309 -3.82225 -1.95456 0
M  V30 152 C 11.7639 -4.29763 -3.16449 0
M  V30 153 O 11.9869 -3.76584 -4.28416 0
M  V30 154 O 10.9209 -5.21832 -2.99958 0
M  V30 155 H 14.7469 -2.98479 -0.560725 0
M  V30 156 H 12.3319 -1.47903 -0.210987 0
M  V30 157 H 14.2139 -2.94589 -3.01322 0
M  V30 158 H 12.8889 -1.79313 -2.69497 0
M  V30 159 H 11.7959 -3.54909 -1.18282 0
M  V30 160 H 13.1289 -4.66324 -1.57489 0
M  V30 161 N 14.781 0.264519 -1.55364 0
M  V30 162 C 16.03 0.992812 -1.75574 0
M  V30 163 C 16.343 1.87142 -0.568979 0
M  V30 164 O 17.549 2.63513 -0.653682 0
M  V30 165 C 16.005 1.81519 -3.10771 0
M  V30 166 C 15.613 0.984839 -4.37041 0
M  V30 167 C 17.357 2.53727 -3.40327 0
M  V30 168 C 15.264 1.80209 -5.63275 0
M  V30 169 H 14.194 0.374412 -0.65447 0
M  V30 170 H 16.845 0.248138 -1.81815 0
M  V30 171 H 15.227 2.60115 -2.98591 0
M  V30 172 H 16.401 0.242455 -4.60162 0
M  V30 173 H 14.716 0.37691 -4.14691 0
M  V30 174 H 17.313 3.15292 -4.3185 0
M  V30 175 H 17.656 3.24447 -2.60845 0
M  V30 176 H 18.189 1.82156 -3.53644 0
M  V30 177 H 14.928 1.13896 -6.45529 0
M  V30 178 H 14.448 2.52022 -5.44284 0
M  V30 179 H 16.127 2.37364 -6.01887 0
M  V30 180 N 16.2591 1.48442 0.529413 0
M  V30 181 C 17.2071 1.63452 1.65487 0
M  V30 182 C 18.2011 0.500955 1.61823 0
M  V30 183 O 19.4071 0.679695 1.66674 0
M  V30 184 H 15.7821 0.514905 0.548066 0
M  V30 185 H 17.7531 2.57975 1.49971 0
M  V30 186 C 16.5021 1.69196 3.03756 0
M  V30 187 H 15.8251 2.55784 3.07269 0
M  V30 188 H 17.2651 1.83743 3.82119 0
M  V30 189 C 15.7241 0.430765 3.34135 0
M  V30 190 O 16.2541 -0.4561 3.99102 0
M  V30 191 N 14.4601 0.302293 2.89023 0
M  V30 192 H 14.0071 1.02496 2.36331 0
M  V30 193 H 13.9651 -0.540546 3.09718 0
M  V30 194 N 17.7372 -0.778329 1.37039 0
M  V30 195 C 18.7002 -1.87301 1.32102 0
M  V30 196 C 19.7002 -1.59198 0.226405 0
M  V30 197 O 20.8902 -1.67403 0.481861 0
M  V30 198 C 18.0222 -3.24309 1.05055 0
M  V30 199 H 19.2152 -1.93093 2.29467 0
M  V30 200 H 16.7682 -0.977358 1.21973 0
M  V30 201 H 17.5032 -3.24196 0.0819373 0
M  V30 202 H 17.2882 -3.46098 1.84279 0
M  V30 203 H 18.7782 -4.04382 1.04234 0
M  V30 204 N 19.2153 -1.21501 -1.00376 0
M  V30 205 C 20.4623 -1.03299 -1.74171 0
M  V30 206 C 20.7903 0.433326 -1.89612 0
M  V30 207 O 20.0453 1.33779 -1.42834 0
M  V30 208 C 20.3443 -1.67673 -3.15627 0
M  V30 209 C 20.0103 -3.17533 -3.2013 0
M  V30 210 C 18.6723 -3.58427 -3.21067 0
M  V30 211 C 21.0243 -4.13504 -3.17275 0
M  V30 212 C 18.3523 -4.93794 -3.16835 0
M  V30 213 C 20.7043 -5.48834 -3.14585 0
M  V30 214 C 19.3683 -5.89123 -3.13831 0
M  V30 215 H 18.6383 -0.377999 -0.637336 0
M  V30 216 H 21.2853 -1.51111 -1.17634 0
M  V30 217 H 19.5903 -1.12158 -3.75404 0
M  V30 218 H 21.2873 -1.51091 -3.71446 0
M  V30 219 H 17.8773 -2.84965 -3.20145 0
M  V30 220 H 22.0613 -3.82936 -3.15711 0
M  V30 221 H 17.3173 -5.24255 -3.1459 0
M  V30 222 H 21.4913 -6.22934 -3.1133 0
M  V30 223 H 19.1183 -6.93984 -3.10307 0
M  V30 224 N 20.6934 1.19889 -1.02296 0
M  V30 225 C 21.6234 2.25141 -0.619174 0
M  V30 226 C 22.6044 1.66051 0.368915 0
M  V30 227 O 23.7894 1.92546 0.252941 0
M  V30 228 C 20.9194 3.4728 0.0368783 0
M  V30 229 C 19.8734 4.19005 -0.872865 0
M  V30 230 C 19.1994 5.34637 -0.0822402 0
M  V30 231 C 20.4994 4.74452 -2.18387 0
M  V30 232 H 22.1934 2.59171 -1.49903 0
M  V30 233 H 19.7394 1.24579 -0.722222 0
M  V30 234 H 21.6924 4.20098 0.330958 0
M  V30 235 H 20.4164 3.12433 0.95149 0
M  V30 236 H 19.0754 3.48061 -1.15105 0
M  V30 237 H 18.7234 4.96034 0.83422 0
M  V30 238 H 18.4234 5.83557 -0.688149 0
M  V30 239 H 19.9474 6.10255 0.205238 0
M  V30 240 H 21.3614 5.39055 -1.95172 0
M  V30 241 H 19.7584 5.33834 -2.74119 0
M  V30 242 H 20.8284 3.92844 -2.84257 0
M  V30 243 N 22.1715 0.800033 1.35784 0
M  V30 244 C 23.4485 0.30088 1.93272 0
M  V30 245 C 23.8285 -1.20857 1.73081 0
M  V30 246 O 23.1765 -2.00502 1.09596 0
M  V30 247 C 23.3865 0.70511 3.41803 0
M  V30 248 C 24.7345 0.690871 4.18942 0
M  V30 249 O 25.7585 0.646244 3.50289 0
M  V30 250 O 24.6175 0.74332 5.41421 0
M  V30 251 H 21.7115 0.0771605 0.823393 0
M  V30 252 H 24.2575 0.88329 1.449 0
M  V30 253 H 23.0295 1.74571 3.50201 0
M  V30 254 H 22.6525 0.0971541 3.97481 0
M  V30 255 N 23.6496 -1.47581 0.552962 0
M  V30 256 C 24.5976 -2.31648 -0.21023 0
M  V30 257 C 25.5916 -1.42663 -0.913432 0
M  V30 258 O 26.7976 -1.5945 -0.835201 0
M  V30 259 H 23.1726 -0.746989 -0.0866676 0
M  V30 260 H 25.1436 -2.93869 0.518051 0
M  V30 261 C 23.8926 -3.25226 -1.22976 0
M  V30 262 H 23.2156 -3.93658 -0.698077 0
M  V30 263 H 24.6556 -3.86889 -1.73473 0
M  V30 264 C 23.1146 -2.48448 -2.27542 0
M  V30 265 O 23.6446 -2.22585 -3.34393 0
M  V30 266 N 21.8506 -2.09532 -2.01357 0
M  V30 267 H 21.3976 -2.30765 -1.14478 0
M  V30 268 H 21.3556 -1.58476 -2.71538 0
M  V30 269 N 25.1277 -0.289203 -1.54924 0
M  V30 270 C 26.0607 0.633823 -2.19221 0
M  V30 271 C 27.0387 1.14174 -1.15772 0
M  V30 272 O 28.2227 1.21211 -1.44361 0
M  V30 273 C 25.3497 1.86592 -2.82668 0
M  V30 274 C 24.3957 1.49227 -3.99542 0
M  V30 275 S 25.2287 0.558312 -5.32582 0
M  V30 276 C 26.3847 1.79847 -5.99505 0
M  V30 277 H 26.6177 0.0875416 -2.97171 0
M  V30 278 H 24.1507 -0.0733899 -1.54225 0
M  V30 279 H 26.1087 2.57305 -3.19851 0
M  V30 280 H 24.7697 2.38335 -2.04585 0
M  V30 281 H 23.9627 2.40945 -4.42676 0
M  V30 282 H 23.5647 0.865193 -3.63855 0
M  V30 283 H 25.8567 2.7406 -6.19595 0
M  V30 284 H 26.7997 1.4099 -6.93922 0
M  V30 285 H 27.2077 1.96982 -5.29016 0
M  V30 286 N 26.6058 1.57591 -0.0167156 0
M  V30 287 C 27.8528 1.91283 0.664597 0
M  V30 288 C 28.1808 0.891949 1.72842 0
M  V30 289 O 27.4358 -0.100931 1.9544 0
M  V30 290 C 27.7348 3.3172 1.33029 0
M  V30 291 C 27.4008 4.4914 0.398047 0
M  V30 292 C 26.0628 4.80992 0.141421 0
M  V30 293 C 28.4148 5.20634 -0.242825 0
M  V30 294 C 25.7428 5.81703 -0.764092 0
M  V30 295 C 28.0948 6.22311 -1.13632 0
M  V30 296 C 26.7588 6.52611 -1.40196 0
M  V30 297 H 26.0288 0.699956 0.243193 0
M  V30 298 H 28.6758 1.9135 -0.0758267 0
M  V30 299 H 26.9808 3.27856 2.14517 0
M  V30 300 H 28.6778 3.55055 1.86379 0
M  V30 301 H 25.2678 4.24262 0.608238 0
M  V30 302 H 29.4518 4.96267 -0.0576019 0
M  V30 303 H 24.7078 6.03532 -0.977732 0
M  V30 304 H 28.8818 6.76834 -1.63917 0
M  V30 305 H 26.5088 7.30467 -2.10529 0
M  V30 306 N 28.0839 -0.256276 1.55502 0
M  V30 307 C 29.3319 -0.983672 1.76545 0
M  V30 308 C 29.6529 -1.86206 0.578982 0
M  V30 309 O 28.9229 -1.91656 -0.405577 0
M  V30 310 H 27.5029 -0.366191 0.651086 0
M  V30 311 H 30.1649 -0.276479 1.92929 0
M  V30 312 H 29.2609 -1.61087 2.67315 0
M  V30 313 N 29.562 -1.4872 -0.521534 0
M  V30 314 C 30.973 -1.50607 -1.10337 0
M  V30 315 C 31.324 -0.280612 -1.94183 0
M  V30 316 O 30.449 0.611507 -2.0758 0
M  V30 317 C 31.044 -2.72903 -2.00772 0
M  V30 318 C 29.603 -2.77634 -2.54158 0
M  V30 319 C 28.75 -2.44241 -1.31307 0
M  V30 320 H 31.701 -1.55714 -0.306388 0
M  V30 321 H 31.722 -2.519 -2.85178 0
M  V30 322 H 31.234 -3.62077 -1.39721 0
M  V30 323 H 29.335 -1.92689 -3.18907 0
M  V30 324 H 29.448 -3.79283 -2.92714 0
M  V30 325 H 27.812 -1.95577 -1.63161 0
M  V30 326 H 28.595 -3.35666 -0.719943 0
M  V30 327 N 31.0401 0.771051 -1.3745 0
M  V30 328 C 32.4561 1.07171 -1.18265 0
M  V30 329 C 32.6561 2.01491 -0.019287 0
M  V30 330 O 31.7121 2.44244 0.640408 0
M  V30 331 C 33.0251 1.66854 -2.50161 0
M  V30 332 C 34.5731 1.79109 -2.56689 0
M  V30 333 C 35.0481 2.42205 -3.88717 0
M  V30 334 N 36.5391 2.49655 -3.90162 0
M  V30 335 C 37.2741 2.9933 -4.8907 0
M  V30 336 N 36.7701 3.49172 -5.98374 0
M  V30 337 N 38.5631 2.9821 -4.76474 0
M  V30 338 H 30.7141 0.144796 -2.11906 0
M  V30 339 H 32.9771 0.126863 -0.939473 0
M  V30 340 H 32.6831 1.05017 -3.35655 0
M  V30 341 H 32.5571 2.6614 -2.673 0
M  V30 342 H 34.9441 2.40077 -1.71601 0
M  V30 343 H 35.0251 0.785757 -2.43433 0
M  V30 344 H 34.6691 1.81875 -4.74219 0
M  V30 345 H 34.5991 3.43345 -3.99276 0
M  V30 346 H 37.0901 2.14383 -3.11205 0
M  V30 347 H 37.4031 3.8548 -6.69795 0
M  V30 348 H 35.7481 3.47275 -6.02018 0
M  V30 349 H 38.9391 2.58572 -3.90203 0
M  V30 350 H 39.1121 3.36613 -5.53711 0
M  V30 351 N 32.5182 1.22032 0.997298 0
M  V30 352 C 33.7952 0.950823 1.70935 0
M  V30 353 C 34.1752 -0.535292 2.042 0
M  V30 354 O 33.5232 -1.50217 1.72183 0
M  V30 355 C 33.7332 1.84386 2.96315 0
M  V30 356 C 35.0812 2.09732 3.69185 0
M  V30 357 O 36.1052 1.81798 3.06314 0
M  V30 358 O 34.9642 2.57018 4.82291 0
M  V30 359 H 32.0582 0.357204 0.745878 0
M  V30 360 H 34.6042 1.32997 1.05404 0
M  V30 361 H 33.3762 2.84928 2.68201 0
M  V30 362 H 32.9992 1.46602 3.69586 0
M  V30 363 N 33.9963 -1.19345 1.0293 0
M  V30 364 C 35.2213 -1.93538 0.745511 0
M  V30 365 C 35.6463 -1.75007 -0.689511 0
M  V30 366 O 35.0043 -1.05265 -1.47611 0
M  V30 367 C 35.0523 -3.43336 1.10239 0
M  V30 368 O 34.1563 -4.11806 0.221289 0
M  V30 369 H 33.4973 -0.604193 0.275404 0
M  V30 370 H 36.0273 -1.5141 1.37609 0
M  V30 371 H 36.0373 -3.94004 1.05947 0
M  V30 372 H 34.7123 -3.56146 2.14786 0
M  V30 373 H 33.2893 -3.715 0.322842 0
M  V30 374 N 35.4744 -0.807222 -1.35358 0
M  V30 375 C 36.8904 -0.491038 -1.51858 0
M  V30 376 C 37.0904 0.987648 -1.75635 0
M  V30 377 O 36.1464 1.77265 -1.79815 0
M  V30 378 C 37.4594 -1.33695 -2.69344 0
M  V30 379 C 39.0074 -1.33246 -2.83222 0
M  V30 380 C 39.4824 -2.1625 -4.03733 0
M  V30 381 N 40.9734 -2.1379 -4.10911 0
M  V30 382 C 41.7084 -2.74772 -5.03277 0
M  V30 383 N 41.2044 -3.44684 -6.0097 0
M  V30 384 N 42.9974 -2.6441 -4.96028 0
M  V30 385 H 35.1484 -1.76485 -1.18181 0
M  V30 386 H 37.4114 -0.751199 -0.578276 0
M  V30 387 H 37.1174 -2.38634 -2.58354 0
M  V30 388 H 36.9914 -0.990618 -3.6396 0
M  V30 389 H 39.3784 -0.290911 -2.93663 0
M  V30 390 H 39.4594 -1.71866 -1.89461 0
M  V30 391 H 39.1034 -3.20445 -3.94052 0
M  V30 392 H 39.0334 -1.74989 -4.96675 0
M  V30 393 H 41.5244 -1.62923 -3.40976 0
M  V30 394 H 41.8374 -3.88501 -6.68047 0
M  V30 395 H 40.1824 -3.48788 -6.01142 0
M  V30 396 H 43.3734 -2.0938 -4.18662 0
M  V30 397 H 43.5464 -3.12225 -5.6782 0
M  V30 398 N 36.9525 1.47285 -0.560781 0
M  V30 399 C 38.1985 2.02764 -0.0381184 0
M  V30 400 C 38.5315 1.43384 1.30976 0
M  V30 401 O 37.8065 0.590733 1.85312 0
M  V30 402 C 38.0895 3.60064 0.0511427 0
M  V30 403 C 37.9425 4.2987 -1.32408 0
M  V30 404 C 39.2615 4.33439 0.762795 0
M  V30 405 H 36.3805 0.736841 -0.0153264 0
M  V30 406 H 39.0225 1.75675 -0.723759 0
M  V30 407 H 37.1725 3.83274 0.635065 0
M  V30 408 H 38.8445 4.17989 -1.95148 0
M  V30 409 H 37.0875 3.90085 -1.8978 0
M  V30 410 H 37.7585 5.38478 -1.21431 0
M  V30 411 H 40.2345 4.15243 0.266965 0
M  V30 412 H 39.1105 5.43124 0.794221 0
M  V30 413 H 39.3715 4.02915 1.81966 0
M  V30 414 N 38.4306 0.297415 1.54768 0
M  V30 415 C 39.8466 -0.0560823 1.59501 0
M  V30 416 C 40.0466 -1.52725 1.31444 0
M  V30 417 O 39.1026 -2.27947 1.08611 0
M  V30 418 C 40.4156 0.338631 2.98787 0
M  V30 419 C 41.9636 0.287097 3.11681 0
M  V30 420 C 42.4386 0.656579 4.53269 0
M  V30 421 N 43.9296 0.608977 4.59179 0
M  V30 422 C 44.6646 0.867385 5.66802 0
M  V30 423 N 44.1606 1.19157 6.82476 0
M  V30 424 N 45.9536 0.794687 5.56454 0
M  V30 425 H 38.1046 1.25624 1.71267 0
M  V30 426 H 40.3676 0.509057 0.799728 0
M  V30 427 H 40.0736 1.36263 3.2423 0
M  V30 428 H 39.9476 -0.309508 3.75928 0
M  V30 429 H 42.3346 -0.727649 2.85988 0
M  V30 430 H 42.4156 0.969809 2.36703 0
M  V30 431 H 42.0596 1.66912 4.7969 0
M  V30 432 H 41.9896 -0.0481649 5.26578 0
M  V30 433 H 44.4806 0.369198 3.76092 0
M  V30 434 H 44.7936 1.37482 7.60473 0
M  V30 435 H 43.1386 1.22958 6.84037 0
M  V30 436 H 46.3296 0.541098 4.64962 0
M  V30 437 H 46.5026 0.999445 6.40246 0
M  V30 438 N 39.9087 -1.5758 0.0250728 0
M  V30 439 C 41.1567 -1.91255 -0.653151 0
M  V30 440 C 41.4777 -0.901691 -1.729 0
M  V30 441 O 40.7477 0.0573785 -1.95816 0
M  V30 442 H 39.3277 -0.705942 -0.244243 0
M  V30 443 H 41.9897 -1.94767 0.0719209 0
M  V30 444 H 41.0857 -2.91752 -1.10847 0
M  V30 445 N 41.3868 0.248026 -1.55636 0
M  V30 446 C 42.6328 0.973427 -1.78594 0
M  V30 447 C 42.9878 1.83007 -0.593823 0
M  V30 448 O 42.2808 1.87097 0.412961 0
M  V30 449 C 42.4748 1.86819 -3.04686 0
M  V30 450 C 42.3038 1.09965 -4.36048 0
M  V30 451 C 41.0738 0.805204 -4.98843 0
M  V30 452 C 43.2718 0.477783 -5.12076 0
M  V30 453 N 41.2538 0.0124859 -6.13899 0
M  V30 454 C 42.6248 -0.179565 -6.1974 0
M  V30 455 C 44.6798 0.388136 -4.96385 0
M  V30 456 C 43.3828 -0.91795 -7.13419 0
M  V30 457 C 45.4088 -0.336716 -5.90441 0
M  V30 458 C 44.7708 -0.982705 -6.97511 0
M  V30 459 H 40.8698 0.337348 -0.705493 0
M  V30 460 H 43.4538 0.24667 -1.93131 0
M  V30 461 H 41.6248 2.56698 -2.9148 0
M  V30 462 H 43.3568 2.52907 -3.15944 0
M  V30 463 H 40.1118 1.11671 -4.60246 0
M  V30 464 H 40.5358 -0.371933 -6.75978 0
M  V30 465 H 45.1778 0.873237 -4.13684 0
M  V30 466 H 42.8958 -1.41466 -7.95621 0
M  V30 467 H 46.4818 -0.406731 -5.80377 0
M  V30 468 H 45.3618 -1.53464 -7.69037 0
M  V30 469 N 42.8649 1.48995 0.513639 0
M  V30 470 C 44.1119 1.57843 1.26854 0
M  V30 471 C 44.4399 0.259501 1.92761 0
M  V30 472 O 43.6949 -0.75159 1.80692 0
M  V30 473 C 43.9939 2.67756 2.36731 0
M  V30 474 C 43.6599 4.09669 1.88368 0
M  V30 475 C 42.3219 4.48291 1.74896 0
M  V30 476 C 44.6739 4.98537 1.52021 0
M  V30 477 C 42.0019 5.73568 1.23438 0
M  V30 478 C 44.3539 6.24319 1.0202 0
M  V30 479 C 43.0179 6.61783 0.871778 0
M  V30 480 H 42.2879 0.577587 0.464192 0
M  V30 481 H 44.9349 1.82778 0.571366 0
M  V30 482 H 43.2399 2.36743 3.12185 0
M  V30 483 H 44.9369 2.71813 2.9482 0
M  V30 484 H 41.5269 3.79176 1.99808 0
M  V30 485 H 45.7109 4.69363 1.61281 0
M  V30 486 H 40.9669 6.01304 1.10648 0
M  V30 487 H 45.1409 6.92566 0.729722 0
M  V30 488 H 42.7679 7.5874 0.470852 0
M  V30 489 N 44.343 -0.763751 1.37857 0
M  V30 490 C 45.276 -1.88486 1.28639 0
M  V30 491 C 46.254 -1.61757 0.165363 0
M  V30 492 O 47.438 -1.85391 0.340948 0
M  V30 493 C 44.565 -3.23884 0.990811 0
M  V30 494 C 43.611 -3.69514 2.12983 0
M  V30 495 S 44.444 -3.82244 3.75033 0
M  V30 496 C 45.6 -5.20477 3.47641 0
M  V30 497 H 45.833 -1.96017 2.23527 0
M  V30 498 H 43.366 -0.925684 1.23574 0
M  V30 499 H 45.324 -4.02081 0.827101 0
M  V30 500 H 43.985 -3.14044 0.0592832 0
M  V30 501 H 43.178 -4.67696 1.87821 0
M  V30 502 H 42.78 -2.98441 2.25408 0
M  V30 503 H 45.072 -6.05905 3.03125 0
M  V30 504 H 46.015 -5.50655 4.4518 0
M  V30 505 H 46.423 -4.88793 2.82385 0
M  V30 506 N 45.8211 -1.22559 -0.990812 0
M  V30 507 C 46.7511 -1.0218 -2.09956 0
M  V30 508 C 47.7321 0.0579394 -1.70001 0
M  V30 509 O 48.9171 -0.104684 -1.93918 0
M  V30 510 C 46.0471 -0.601023 -3.4206 0
M  V30 511 C 45.0011 -1.62694 -3.95872 0
M  V30 512 C 44.3271 -1.06193 -5.24049 0
M  V30 513 C 45.6271 -3.01743 -4.2632 0
M  V30 514 H 47.3211 -1.94916 -2.27262 0
M  V30 515 H 44.8671 -0.938566 -1.09211 0
M  V30 516 H 46.8201 -0.445561 -4.19038 0
M  V30 517 H 45.5441 0.362005 -3.24588 0
M  V30 518 H 44.2031 -1.77021 -3.21028 0
M  V30 519 H 43.8511 -0.0901903 -5.02919 0
M  V30 520 H 43.5511 -1.74732 -5.61019 0
M  V30 521 H 45.0751 -0.918092 -6.03658 0
M  V30 522 H 46.4891 -2.90777 -4.94087 0
M  V30 523 H 44.8861 -3.67425 -4.74467 0
M  V30 524 H 45.9561 -3.51518 -3.34011 0
M  V30 525 N 47.2992 1.18797 -1.03562 0
M  V30 526 C 48.5762 1.84469 -0.650434 0
M  V30 527 C 48.9562 1.92319 0.870433 0
M  V30 528 O 48.3042 1.44528 1.76986 0
M  V30 529 C 48.5142 3.2306 -1.32036 0
M  V30 530 C 49.8622 3.9915 -1.44792 0
M  V30 531 O 50.8862 3.32481 -1.27806 0
M  V30 532 O 49.7452 5.18587 -1.72423 0
M  V30 533 H 46.8392 0.795251 -0.226946 0
M  V30 534 H 49.3852 1.26231 -1.13419 0
M  V30 535 H 48.1572 3.1222 -2.3587 0
M  V30 536 H 47.7802 3.88949 -0.8249 0
M  V30 537 N 48.7773 0.814389 1.34928 0
M  V30 538 C 50.0023 0.410097 2.03305 0
M  V30 539 C 50.4273 -0.973464 1.60951 0
M  V30 540 O 49.7853 -1.63185 0.789964 0
M  V30 541 C 49.8333 0.51049 3.56968 0
M  V30 542 O 48.9373 -0.473035 4.09678 0
M  V30 543 H 48.2783 0.170088 0.641846 0
M  V30 544 H 50.8083 1.10244 1.72358 0
M  V30 545 H 50.8183 0.383135 4.06197 0
M  V30 546 H 49.4933 1.51963 3.87144 0
M  V30 547 H 48.0703 -0.305272 3.71648 0
M  V30 548 N 50.2554 -1.46986 0.568584 0
M  V30 549 C 51.4854 -2.0653 0.0539173 0
M  V30 550 C 51.8934 -1.42004 -1.25026 0
M  V30 551 O 51.2364 -0.514541 -1.76347 0
M  V30 552 C 51.2984 -3.58938 -0.200854 0
M  V30 553 C 50.9624 -4.45572 1.01559 0
M  V30 554 C 51.9594 -4.82986 1.92407 0
M  V30 555 C 49.6444 -4.8692 1.23346 0
M  V30 556 C 51.6384 -5.60559 3.03402 0
M  V30 557 C 49.3254 -5.64255 2.34649 0
M  V30 558 C 50.3234 -6.00986 3.24507 0
M  V30 559 O 50.0114 -6.76761 4.33878 0
M  V30 560 H 49.7434 -0.674292 0.0480234 0
M  V30 561 H 52.2974 -1.89812 0.784896 0
M  V30 562 H 50.5274 -3.73911 -0.986279 0
M  V30 563 H 52.2164 -4.0046 -0.662294 0
M  V30 564 H 52.9824 -4.51633 1.76785 0
M  V30 565 H 48.8614 -4.57789 0.543178 0
M  V30 566 H 52.4054 -5.89147 3.73565 0
M  V30 567 H 48.3024 -5.95021 2.5024 0
M  V30 568 H 49.0704 -6.95168 4.32068 0
M  V30 569 N 51.7335 -0.305618 -1.54608 0
M  V30 570 C 52.6635 0.561482 -2.26649 0
M  V30 571 C 53.6445 1.13415 -1.26772 0
M  V30 572 O 54.8295 1.16262 -1.55553 0
M  V30 573 C 51.9595 1.73122 -3.01075 0
M  V30 574 C 50.9135 1.2887 -4.08138 0
M  V30 575 C 50.2395 2.54396 -4.70305 0
M  V30 576 C 51.5395 0.416578 -5.20636 0
M  V30 577 H 53.2335 -0.0393902 -2.99374 0
M  V30 578 H 50.7795 -0.020385 -1.43986 0
M  V30 579 H 52.7325 2.34396 -3.50195 0
M  V30 580 H 51.4565 2.3584 -2.25936 0
M  V30 581 H 50.1155 0.698991 -3.59875 0
M  V30 582 H 49.7635 3.15439 -3.918 0
M  V30 583 H 49.4635 2.25486 -5.42614 0
M  V30 584 H 50.9875 3.16464 -5.2219 0
M  V30 585 H 52.4015 0.935116 -5.65622 0
M  V30 586 H 50.7985 0.221046 -5.99693 0
M  V30 587 H 51.8685 -0.557162 -4.81688 0
M  V30 588 N 53.2116 1.57565 -0.0334293 0
M  V30 589 C 54.6226 1.79746 0.504798 0
M  V30 590 C 54.9736 0.944091 1.71992 0
M  V30 591 O 54.0986 0.155694 2.15839 0
M  V30 592 C 54.6936 3.25997 0.922567 0
M  V30 593 C 53.2526 3.49159 1.40588 0
M  V30 594 C 52.3996 2.74785 0.372633 0
M  V30 595 H 55.3506 1.56565 -0.259436 0
M  V30 596 H 55.3716 3.35945 1.78666 0
M  V30 597 H 54.8836 3.88081 0.0379825 0
M  V30 598 H 52.9846 2.92332 2.31025 0
M  V30 599 H 53.0976 4.57873 1.41028 0
M  V30 600 H 51.4616 2.40391 0.841672 0
M  V30 601 H 52.2446 3.39587 -0.503559 0
M  V30 602 N 54.6897 -0.239769 1.55765 0
M  V30 603 C 55.9177 -0.98417 1.81994 0
M  V30 604 C 56.3327 -1.7867 0.610124 0
M  V30 605 O 55.6897 -1.77571 -0.421271 0
M  V30 606 C 55.7407 -1.91635 3.06526 0
M  V30 607 O 55.4617 -1.14629 4.22838 0
M  V30 608 C 56.9627 -2.77616 3.45607 0
M  V30 609 H 54.1827 -0.28928 0.605441 0
M  V30 610 H 56.7267 -0.260499 2.02834 0
M  V30 611 H 54.8817 -2.5942 2.87715 0
M  V30 612 H 55.2957 -1.77745 4.93464 0
M  V30 613 H 56.7697 -3.38759 4.35828 0
M  V30 614 H 57.2467 -3.4909 2.6652 0
M  V30 615 H 57.8527 -2.15271 3.66795 0
M  V30 616 N 56.1678 -1.49265 -0.50573 0
M  V30 617 C 57.4148 -1.58513 -1.26015 0
M  V30 618 C 57.7428 -0.26972 -1.92621 0
M  V30 619 O 56.9978 0.741997 -1.81088 0
M  V30 620 C 57.2968 -2.69008 -2.35308 0
M  V30 621 C 56.9628 -4.10662 -1.86192 0
M  V30 622 C 55.6248 -4.49212 -1.72516 0
M  V30 623 C 57.9768 -4.99336 -1.49375 0
M  V30 624 C 55.3048 -5.74214 -1.20394 0
M  V30 625 C 57.6568 -6.24852 -0.987072 0
M  V30 626 C 56.3208 -6.62236 -0.836669 0
M  V30 627 H 55.5908 -0.580041 -0.461122 0
M  V30 628 H 58.2378 -1.83078 -0.561665 0
M  V30 629 H 56.5428 -2.38396 -3.10926 0
M  V30 630 H 58.2398 -2.73373 -2.93374 0
M  V30 631 H 54.8298 -3.8023 -1.97795 0
M  V30 632 H 59.0138 -4.70212 -1.5879 0
M  V30 633 H 54.2698 -6.01883 -1.07458 0
M  V30 634 H 58.4438 -6.92944 -0.692983 0
M  V30 635 H 56.0708 -7.58979 -0.430607 0
M  V30 636 N 57.6459 0.756429 -1.3826 0
M  V30 637 C 58.8929 1.51547 -1.34312 0
M  V30 638 C 59.2209 1.94382 0.0677144 0
M  V30 639 O 58.4759 1.65514 1.04421 0
M  V30 640 C 58.7749 2.78313 -2.24224 0
M  V30 641 C 58.4409 2.54455 -3.72241 0
M  V30 642 C 57.1029 2.47657 -4.12576 0
M  V30 643 C 59.4549 2.3354 -4.65949 0
M  V30 644 C 56.7829 2.17956 -5.44713 0
M  V30 645 C 59.1349 2.05359 -5.9834 0
M  V30 646 C 57.7989 1.97016 -6.37762 0
M  V30 647 H 57.0689 0.55455 -0.491482 0
M  V30 648 H 59.7159 0.870039 -1.70595 0
M  V30 649 H 58.0209 3.47492 -1.80987 0
M  V30 650 H 59.7179 3.36259 -2.18474 0
M  V30 651 H 56.3079 2.60616 -3.40261 0
M  V30 652 H 60.4919 2.37772 -4.35635 0
M  V30 653 H 55.7479 2.10003 -5.74203 0
M  V30 654 H 59.9219 1.88179 -6.70494 0
M  V30 655 H 57.5489 1.73766 -7.40074 0
M  V30 656 N 59.124 1.23083 0.984299 0
M  V30 657 C 60.054 1.03292 2.09411 0
M  V30 658 C 61.035 -0.048923 1.7003 0
M  V30 659 O 62.22 0.114967 1.93859 0
M  V30 660 C 59.35 0.619155 3.41736 0
M  V30 661 C 58.304 1.64791 3.95004 0
M  V30 662 C 57.63 1.0897 5.23478 0
M  V30 663 C 58.93 3.03999 4.24714 0
M  V30 664 H 60.624 1.96119 2.26225 0
M  V30 665 H 58.17 0.944344 1.08711 0
M  V30 666 H 60.123 0.467777 4.18796 0
M  V30 667 H 58.847 -0.344786 3.24775 0
M  V30 668 H 57.506 1.78721 3.20085 0
M  V30 669 H 57.154 0.11686 5.02864 0
M  V30 670 H 56.854 1.77704 5.60085 0
M  V30 671 H 58.378 0.950093 6.03163 0
M  V30 672 H 59.792 2.93393 4.92538 0
M  V30 673 H 58.189 3.69936 4.72512 0
M  V30 674 H 59.259 3.53285 3.32142 0
M  V30 675 N 60.6021 -1.18246 1.0419 0
M  V30 676 C 61.8301 -1.92195 0.766072 0
M  V30 677 C 62.2451 -1.76247 -0.676933 0
M  V30 678 O 61.6021 -1.09293 -1.46155 0
M  V30 679 C 61.6531 -3.43568 1.12442 0
M  V30 680 O 61.3741 -3.59015 2.51078 0
M  V30 681 C 62.8751 -4.34613 0.873275 0
M  V30 682 H 60.0951 -0.610114 0.279288 0
M  V30 683 H 62.6391 -1.50007 1.38989 0
M  V30 684 H 60.7941 -3.8354 0.545542 0
M  V30 685 H 61.2081 -4.5273 2.64831 0
M  V30 686 H 62.6821 -5.39374 1.17385 0
M  V30 687 H 63.1591 -4.38781 -0.191909 0
M  V30 688 H 63.7651 -4.00341 1.43551 0
M  V30 689 N 62.0802 -0.821533 -1.34494 0
M  V30 690 C 63.3262 -0.409552 -1.98622 0
M  V30 691 C 63.6592 1.0244 -1.64984 0
M  V30 692 O 62.9342 1.71325 -0.920758 0
M  V30 693 C 63.2172 -0.610458 -3.54888 0
M  V30 694 C 63.0702 -2.09043 -3.98273 0
M  V30 695 C 64.3892 -0.0455379 -4.40076 0
M  V30 696 H 61.5082 -0.15028 -0.721516 0
M  V30 697 H 64.1502 -1.03384 -1.59411 0
M  V30 698 H 62.3002 -0.079044 -3.8842 0
M  V30 699 H 63.9722 -2.68537 -3.75081 0
M  V30 700 H 62.2152 -2.58139 -3.48635 0
M  V30 701 H 62.8862 -2.18182 -5.07051 0
M  V30 702 H 65.3622 -0.499557 -4.1309 0
M  V30 703 H 64.2382 -0.215922 -5.48475 0
M  V30 704 H 64.4992 1.04939 -4.29465 0
M  V30 705 N 63.5583 1.46682 -0.576371 0
M  V30 706 C 64.4913 2.27243 0.208731 0
M  V30 707 C 65.4693 1.35238 0.902746 0
M  V30 708 O 66.6533 1.64641 0.917904 0
M  V30 709 C 63.7803 3.12802 1.29896 0
M  V30 710 C 62.8263 4.20524 0.711457 0
M  V30 711 S 63.6593 5.33548 -0.456781 0
M  V30 712 C 64.8153 6.22673 0.634798 0
M  V30 713 H 65.0483 2.93484 -0.474838 0
M  V30 714 H 62.5813 1.50069 -0.363118 0
M  V30 715 H 64.5393 3.62661 1.92321 0
M  V30 716 H 63.2003 2.45887 1.95444 0
M  V30 717 H 62.3933 4.80191 1.53076 0
M  V30 718 H 61.9953 3.73645 0.162999 0
M  V30 719 H 64.2873 6.60181 1.52209 0
M  V30 720 H 65.2303 7.0806 0.0750311 0
M  V30 721 H 65.6383 5.56684 0.936092 0
M  V30 722 N 65.0364 0.313813 1.54444 0
M  V30 723 C 66.2664 -0.293491 2.04505 0
M  V30 724 C 66.6744 -1.47086 1.19005 0
M  V30 725 O 66.0174 -1.82481 0.211257 0
M  V30 726 C 66.0794 -0.800455 3.50475 0
M  V30 727 C 65.7434 0.253322 4.56297 0
M  V30 728 C 66.7404 1.08612 5.08428 0
M  V30 729 C 64.4254 0.398708 5.00715 0
M  V30 730 C 66.4194 2.05013 6.0353 0
M  V30 731 C 64.1064 1.36614 5.95634 0
M  V30 732 C 65.1044 2.19033 6.46926 0
M  V30 733 O 64.7924 3.14134 7.39983 0
M  V30 734 H 64.5244 -0.0658325 0.672787 0
M  V30 735 H 67.0784 0.455177 2.00293 0
M  V30 736 H 65.3084 -1.59987 3.52053 0
M  V30 737 H 66.9974 -1.32504 3.83663 0
M  V30 738 H 67.7634 0.984736 4.74898 0
M  V30 739 H 63.6424 -0.23289 4.60411 0
M  V30 740 H 67.1864 2.69382 6.4349 0
M  V30 741 H 63.0834 1.4682 6.28581 0
M  V30 742 H 63.8514 3.0926 7.57826 0
M  V30 743 N 66.5145 -1.57545 0.0417849 0
M  V30 744 C 67.4445 -2.14009 -0.933929 0
M  V30 745 C 68.4255 -1.05938 -1.33083 0
M  V30 746 O 69.6105 -1.33833 -1.40721 0
M  V30 747 C 66.7405 -2.67747 -2.21199 0
M  V30 748 C 65.6945 -3.80718 -1.95544 0
M  V30 749 C 65.0205 -4.20935 -3.29724 0
M  V30 750 C 66.3205 -5.06258 -1.28452 0
M  V30 751 H 68.0145 -2.95788 -0.463645 0
M  V30 752 H 65.5605 -1.42285 -0.221573 0
M  V30 753 H 67.5135 -3.05886 -2.89848 0
M  V30 754 H 66.2375 -1.83147 -2.70416 0
M  V30 755 H 64.8965 -3.43037 -1.2931 0
M  V30 756 H 64.5445 -3.33298 -3.76724 0
M  V30 757 H 64.2445 -4.9707 -3.13361 0
M  V30 758 H 65.7685 -4.61666 -3.9962 0
M  V30 759 H 67.1825 -5.41903 -1.8712 0
M  V30 760 H 65.5795 -5.87475 -1.22445 0
M  V30 761 H 66.6495 -4.84207 -0.259219 0
M  V30 762 N 67.9926 0.231505 -1.5589 0
M  V30 763 C 68.9226 1.29022 -1.94617 0
M  V30 764 C 69.9036 1.4941 -0.813067 0
M  V30 765 O 71.0886 1.6176 -1.07459 0
M  V30 766 C 68.2186 2.64199 -2.25424 0
M  V30 767 C 67.1726 2.58484 -3.41131 0
M  V30 768 C 66.4986 3.97599 -3.57518 0
M  V30 769 C 67.7986 2.1413 -4.76388 0
M  V30 770 H 69.4926 0.968563 -2.83301 0
M  V30 771 H 67.0386 0.464479 -1.36303 0
M  V30 772 H 68.9916 3.38413 -2.51107 0
M  V30 773 H 67.7156 2.98032 -1.33583 0
M  V30 774 H 66.3746 1.86727 -3.15481 0
M  V30 775 H 66.0226 4.28723 -2.6307 0
M  V30 776 H 65.7226 3.94659 -4.35337 0
M  V30 777 H 67.2466 4.7349 -3.85538 0
M  V30 778 H 68.6606 2.78083 -5.01341 0
M  V30 779 H 67.0576 2.2227 -5.57419 0
M  V30 780 H 68.1276 1.09331 -4.72414 0
M  V30 781 N 69.4707 1.49531 0.497807 0
M  V30 782 C 70.6957 1.63159 1.28039 0
M  V30 783 C 71.1207 0.30418 1.85624 0
M  V30 784 O 70.4787 -0.728618 1.66015 0
M  V30 785 C 70.5267 2.70537 2.38416 0
M  V30 786 O 69.6307 2.29931 3.42353 0
M  V30 787 H 68.9717 0.546001 0.377861 0
M  V30 788 H 71.5017 1.9574 0.59558 0
M  V30 789 H 71.5117 2.92802 2.84132 0
M  V30 790 H 70.1867 3.6689 1.95869 0
M  V30 791 H 68.7637 2.18009 3.02533 0
M  V30 792 N 70.9488 -0.749086 1.3866 0
M  V30 793 C 72.1978 -1.50371 1.3443 0
M  V30 794 C 72.5108 -1.95503 -0.0616397 0
M  V30 795 O 73.7168 -2.70554 -0.226489 0
M  V30 796 C 72.1728 -2.71644 2.36088 0
M  V30 797 C 71.7808 -2.3352 3.82325 0
M  V30 798 C 73.5248 -3.49518 2.40909 0
M  V30 799 C 71.4318 -3.51431 4.75658 0
M  V30 800 H 70.3618 -0.564628 0.499712 0
M  V30 801 H 73.0128 -0.818449 1.64237 0
M  V30 802 H 71.3948 -3.42175 1.9933 0
M  V30 803 H 72.5688 -1.70627 4.28046 0
M  V30 804 H 70.8838 -1.6877 3.80665 0
M  V30 805 H 73.4808 -4.37197 3.07836 0
M  V30 806 H 73.8238 -3.90992 1.42937 0
M  V30 807 H 74.3568 -2.86005 2.76489 0
M  V30 808 H 71.0958 -3.15019 5.74842 0
M  V30 809 H 70.6158 -4.13352 4.34627 0
M  V30 810 H 72.2948 -4.17953 4.93887 0
M  V30 811 N 72.4269 -1.23603 -0.977757 0
M  V30 812 C 73.6729 -1.08136 -1.72274 0
M  V30 813 C 74.0279 0.377453 -1.88661 0
M  V30 814 O 73.3209 1.27552 -1.42972 0
M  V30 815 C 73.5149 -1.7433 -3.11999 0
M  V30 816 C 73.3439 -3.26498 -3.0924 0
M  V30 817 C 72.1139 -3.9567 -3.14282 0
M  V30 818 C 74.3119 -4.2323 -2.92201 0
M  V30 819 N 72.2939 -5.34799 -3.01436 0
M  V30 820 C 73.6649 -5.49289 -2.87544 0
M  V30 821 C 75.7199 -4.13931 -2.76705 0
M  V30 822 C 74.4229 -6.67116 -2.68978 0
M  V30 823 C 76.4489 -5.31424 -2.59504 0
M  V30 824 C 75.8109 -6.5641 -2.55548 0
M  V30 825 H 71.9099 -0.450247 -0.639376 0
M  V30 826 H 74.4939 -1.5637 -1.16002 0
M  V30 827 H 72.6649 -1.28624 -3.66484 0
M  V30 828 H 74.3969 -1.51815 -3.75146 0
M  V30 829 H 71.1519 -3.46767 -3.22567 0
M  V30 830 H 71.5759 -6.07748 -2.98281 0
M  V30 831 H 76.2179 -3.1807 -2.78552 0
M  V30 832 H 73.9359 -7.63109 -2.65876 0
M  V30 833 H 77.5219 -5.26072 -2.48474 0
M  V30 834 H 76.4019 -7.45795 -2.42405 0
M  V30 835 N 73.905 1.17692 -1.04816 0
M  V30 836 C 74.835 2.23777 -0.666791 0
M  V30 837 C 75.816 1.66796 0.33361 0
M  V30 838 O 77.001 1.93039 0.212042 0
M  V30 839 C 74.131 3.47281 -0.0367933 0
M  V30 840 C 73.085 4.17059 -0.961546 0
M  V30 841 C 72.411 5.34342 -0.195626 0
M  V30 842 C 73.711 4.69713 -2.28402 0
M  V30 843 H 75.405 2.55933 -1.55367 0
M  V30 844 H 72.951 1.23019 -0.748484 0
M  V30 845 H 74.904 4.20706 0.241775 0
M  V30 846 H 73.628 3.14381 0.885004 0
M  V30 847 H 72.287 3.45541 -1.22462 0
M  V30 848 H 71.935 4.97692 0.728816 0
M  V30 849 H 71.635 5.81966 -0.811775 0
M  V30 850 H 73.159 6.10553 0.0757473 0
M  V30 851 H 74.573 5.34794 -2.06563 0
M  V30 852 H 72.97 5.279 -2.8538 0
M  V30 853 H 74.04 3.86726 -2.92525 0
M  V30 854 N 75.3831 0.828654 1.34056 0
M  V30 855 C 76.6311 0.41863 1.97717 0
M  V30 856 C 76.9521 -1.02314 1.66002 0
M  V30 857 O 76.2221 -1.71119 0.953683 0
M  V30 858 H 74.8021 0.151809 0.731412 0
M  V30 859 H 77.4641 1.05936 1.63596 0
M  V30 860 H 76.5601 0.542318 3.07352 0
M  V30 861 N 76.8612 -1.46375 0.584142 0
M  V30 862 C 77.8092 -2.32042 -0.161047 0
M  V30 863 C 78.8032 -1.44569 -0.882966 0
M  V30 864 O 80.0092 -1.61186 -0.801191 0
M  V30 865 H 76.3842 -0.748659 -0.0708033 0
M  V30 866 H 78.3552 -2.92704 0.580269 0
M  V30 867 C 77.1042 -3.27762 -1.1605 0
M  V30 868 H 76.4272 -3.95051 -0.614419 0
M  V30 869 H 77.8672 -3.90481 -1.65228 0
M  V30 870 C 76.3262 -2.53218 -2.22221 0
M  V30 871 O 76.8562 -2.29628 -3.29597 0
M  V30 872 N 75.0622 -2.13756 -1.96868 0
M  V30 873 H 74.6092 -2.33142 -1.09557 0
M  V30 874 H 74.5672 -1.642 -2.68115 0
M  V30 875 N 78.3393 -0.321999 -1.54275 0
M  V30 876 C 79.2863 0.544664 -2.24281 0
M  V30 877 C 80.2563 1.1129 -1.23303 0
M  V30 878 O 81.4413 1.15354 -1.51981 0
M  V30 879 C 78.5813 1.70045 -3.00298 0
M  V30 880 C 77.6943 1.16159 -4.1609 0
M  V30 881 C 76.8293 2.28293 -4.79641 0
M  V30 882 C 75.8683 1.71648 -5.8754 0
M  V30 883 N 75.0053 2.77438 -6.44959 0
M  V30 884 H 79.8453 -0.0588907 -2.97942 0
M  V30 885 H 77.3823 -0.0408345 -1.47043 0
M  V30 886 H 79.3403 2.38054 -3.42616 0
M  V30 887 H 77.9703 2.27531 -2.28975 0
M  V30 888 H 77.0223 0.373092 -3.78566 0
M  V30 889 H 78.3343 0.707087 -4.93763 0
M  V30 890 H 77.4883 3.0421 -5.2492 0
M  V30 891 H 76.2273 2.77079 -4.01346 0
M  V30 892 H 75.2323 0.942282 -5.41665 0
M  V30 893 H 76.4573 1.23741 -6.67731 0
M  V30 894 H 74.4033 3.25519 -5.69538 0
M  V30 895 H 74.3203 2.36547 -7.1804 0
M  V30 896 H 75.5883 3.53189 -6.94894 0
M  V30 897 N 79.8174 1.5752 -0.0501392 0
M  V30 898 C 81.0474 1.96678 0.632573 0
M  V30 899 C 81.4554 0.926298 1.64974 0
M  V30 900 O 80.7984 -0.09802 1.83438 0
M  V30 901 C 80.8604 3.32068 1.37735 0
M  V30 902 C 80.5244 4.54076 0.516131 0
M  V30 903 C 81.5214 5.19445 -0.217357 0
M  V30 904 C 79.2064 5.00304 0.44736 0
M  V30 905 C 81.2004 6.29378 -1.00807 0
M  V30 906 C 78.8874 6.10114 -0.347038 0
M  V30 907 C 79.8854 6.74512 -1.07344 0
M  V30 908 O 79.5734 7.82211 -1.85477 0
M  V30 909 H 79.3054 0.652193 0.177821 0
M  V30 910 H 81.8594 2.05091 -0.112543 0
M  V30 911 H 80.0894 3.20206 2.16807 0
M  V30 912 H 81.7784 3.55981 1.95019 0
M  V30 913 H 82.5444 4.84689 -0.173688 0
M  V30 914 H 78.4234 4.49971 1.00235 0
M  V30 915 H 81.9674 6.79575 -1.57556 0
M  V30 916 H 77.8644 6.44307 -0.392349 0
M  V30 917 H 78.6324 7.98982 -1.77678 0
M  V30 918 N 81.2955 -0.223234 1.56011 0
M  V30 919 C 82.2285 -1.30377 1.87289 0
M  V30 920 C 83.2065 -1.45286 0.730112 0
M  V30 921 O 84.3905 -1.61126 0.978302 0
M  V30 922 C 81.5175 -2.67431 2.07843 0
M  V30 923 C 80.5635 -2.69546 3.30526 0
M  V30 924 S 81.3965 -2.23781 4.865 0
M  V30 925 C 82.5525 -3.62714 5.10088 0
M  V30 926 H 82.7855 -1.03652 2.78646 0
M  V30 927 H 80.3185 -0.425393 1.48424 0
M  V30 928 H 82.2765 -3.46336 2.20368 0
M  V30 929 H 80.9375 -2.91381 1.17285 0
M  V30 930 H 80.1305 -3.70255 3.41947 0
M  V30 931 H 79.7325 -1.98703 3.16849 0
M  V30 932 H 82.0245 -4.58391 4.98883 0
M  V30 933 H 82.9675 -3.5621 6.11981 0
M  V30 934 H 83.3755 -3.56323 4.37829 0
M  V30 935 N 82.7736 -1.49793 -0.48987 0
M  V30 936 C 83.7206 -1.67281 -1.59014 0
M  V30 937 C 84.6906 -0.514177 -1.57941 0
M  V30 938 O 85.8756 -0.742533 -1.75759 0
M  V30 939 C 83.0156 -1.75569 -2.97102 0
M  V30 940 C 82.1286 -3.0281 -3.08107 0
M  V30 941 C 81.2636 -3.02008 -4.36995 0
M  V30 942 C 80.3026 -4.23782 -4.41673 0
M  V30 943 N 79.4396 -4.20826 -5.62005 0
M  V30 944 H 84.2796 -2.61224 -1.43409 0
M  V30 945 H 81.8166 -1.29508 -0.697565 0
M  V30 946 H 83.7746 -1.78354 -3.77155 0
M  V30 947 H 82.4046 -0.850827 -3.11385 0
M  V30 948 H 81.4566 -3.09584 -2.21047 0
M  V30 949 H 82.7686 -3.92801 -3.07423 0
M  V30 950 H 81.9226 -3.03418 -5.25378 0
M  V30 951 H 80.6616 -2.09815 -4.4026 0
M  V30 952 H 79.6666 -4.22604 -3.5169 0
M  V30 953 H 80.8916 -5.17181 -4.40115 0
M  V30 954 H 78.8376 -3.31476 -5.66091 0
M  V30 955 H 78.7546 -5.04564 -5.62984 0
M  V30 956 H 80.0226 -4.26355 -6.52565 0
M  V30 957 N 84.2517 0.741722 -1.39055 0
M  V30 958 C 85.1997 1.87702 -1.3737 0
M  V30 959 C 86.1937 1.67427 -0.257812 0
M  V30 960 O 87.3997 1.7485 -0.427489 0
M  V30 961 H 83.7747 0.617757 -0.428812 0
M  V30 962 H 85.7457 1.86239 -2.33147 0
M  V30 963 C 84.4947 3.25315 -1.22741 0
M  V30 964 H 83.8177 3.41509 -2.07873 0
M  V30 965 H 85.2577 4.04964 -1.25618 0
M  V30 966 C 83.7167 3.36838 0.0647316 0
M  V30 967 O 84.2467 3.88073 1.03741 0
M  V30 968 N 82.4527 2.90329 0.125544 0
M  V30 969 H 81.9997 2.48823 -0.666682 0
M  V30 970 H 81.9577 2.98418 0.989639 0
M  V30 971 N 85.7298 1.2412 0.971189 0
M  V30 972 C 87.1458 1.00584 1.23916 0
M  V30 973 C 87.3458 -0.287481 1.99439 0
M  V30 974 O 86.4018 -1.00454 2.31658 0
M  V30 975 C 87.7148 2.21864 2.0297 0
M  V30 976 C 89.2628 2.26452 2.16076 0
M  V30 977 C 89.7378 3.47343 2.98524 0
M  V30 978 N 91.2288 3.47639 3.06107 0
M  V30 979 C 91.9638 4.37837 3.70251 0
M  V30 980 N 91.4598 5.38286 4.36142 0
M  V30 981 N 93.2528 4.25558 3.67228 0
M  V30 982 H 85.4038 2.07236 0.465499 0
M  V30 983 H 87.6668 0.909236 0.268315 0
M  V30 984 H 87.3728 3.15771 1.54861 0
M  V30 985 H 87.2468 2.23698 3.03709 0
M  V30 986 H 89.6338 1.33078 2.6339 0
M  V30 987 H 89.7148 2.28645 1.14696 0
M  V30 988 H 89.3588 4.41029 2.51905 0
M  V30 989 H 89.2888 3.42393 4.00093 0
M  V30 990 H 91.7798 2.74966 2.59233 0
M  V30 991 H 92.0928 6.03352 4.82894 0
M  V30 992 H 90.4378 5.42176 4.34822 0
M  V30 993 H 93.6288 3.46322 3.14927 0
M  V30 994 H 93.8018 4.96054 4.16935 0
M  V30 995 N 87.2079 -1.17134 1.05439 0
M  V30 996 C 88.6189 -1.69084 0.791676 0
M  V30 997 C 88.9699 -1.83822 -0.685839 0
M  V30 998 O 88.0949 -1.52757 -1.53278 0
M  V30 999 C 88.6899 -3.07119 1.4305 0
M  V30 1000 C 87.2489 -3.56225 1.21577 0
M  V30 1001 C 86.3959 -2.32421 1.51247 0
M  V30 1002 H 89.3469 -1.01617 1.219 0
M  V30 1003 H 89.3679 -3.71087 0.84112 0
M  V30 1004 H 88.8799 -2.9636 2.50584 0
M  V30 1005 H 86.9809 -3.72257 0.159787 0
M  V30 1006 H 87.0939 -4.38837 1.92246 0
M  V30 1007 H 85.4579 -2.3701 0.932653 0
M  V30 1008 H 86.2409 -2.24268 2.5992 0
M  V30 1009 N 88.686 -0.835752 -1.33615 0
M  V30 1010 C 89.649 -0.272 -2.2758 0
M  V30 1011 C 90.649 0.557487 -1.50827 0
M  V30 1012 O 91.839 0.37173 -1.70188 0
M  V30 1013 C 88.971 0.617173 -3.35267 0
M  V30 1014 H 90.164 -1.10111 -2.78954 0
M  V30 1015 H 87.717 -0.608594 -1.43965 0
M  V30 1016 H 88.452 1.46884 -2.89129 0
M  V30 1017 H 88.237 0.0237066 -3.92093 0
M  V30 1018 H 89.727 1.005 -4.05326 0
M  V30 1019 N 90.1641 1.46063 -0.591896 0
M  V30 1020 C 91.0941 2.33172 0.123673 0
M  V30 1021 C 92.0751 1.45897 0.87453 0
M  V30 1022 O 93.2601 1.74698 0.848181 0
M  V30 1023 C 90.3901 3.28336 1.13194 0
M  V30 1024 C 89.3441 4.25124 0.495324 0
M  V30 1025 C 88.6701 5.09863 1.61071 0
M  V30 1026 C 89.9701 5.19143 -0.573425 0
M  V30 1027 H 91.6641 2.93252 -0.603646 0
M  V30 1028 H 89.2101 1.41014 -0.291741 0
M  V30 1029 H 91.1631 3.88137 1.64097 0
M  V30 1030 H 89.8871 2.66383 1.88965 0
M  V30 1031 H 88.5461 3.66599 0.00729452 0
M  V30 1032 H 88.1941 4.44288 2.35832 0
M  V30 1033 H 87.8941 5.75417 1.19035 0
M  V30 1034 H 89.4181 5.72529 2.12233 0
M  V30 1035 H 90.8321 5.73106 -0.1491 0
M  V30 1036 H 89.2291 5.93089 -0.914636 0
M  V30 1037 H 90.2991 4.62519 -1.45617 0
M  V30 1038 N 91.6422 0.330177 1.54103 0
M  V30 1039 C 92.8672 -0.274893 2.0557 0
M  V30 1040 C 93.2922 -1.44487 1.20437 0
M  V30 1041 O 92.6502 -1.80021 0.214991 0
M  V30 1042 C 92.6982 -0.68079 3.54115 0
M  V30 1043 O 91.8022 -1.7824 3.71893 0
M  V30 1044 H 91.1432 -0.0483849 0.662235 0
M  V30 1045 H 93.6732 0.480508 1.98878 0
M  V30 1046 H 93.6832 -0.961635 3.96505 0
M  V30 1047 H 92.3582 0.174903 4.15532 0
M  V30 1048 H 90.9352 -1.49985 3.41407 0
M  V30 1049 N 93.1203 -1.57491 0.0584922 0
M  V30 1050 C 94.0503 -2.14988 -0.911178 0
M  V30 1051 C 95.0313 -1.07343 -1.31952 0
M  V30 1052 O 96.2163 -1.35318 -1.39294 0
M  V30 1053 C 93.3463 -2.70078 -2.18347 0
M  V30 1054 C 92.3003 -3.82771 -1.91495 0
M  V30 1055 C 91.6263 -4.24408 -3.25241 0
M  V30 1056 C 92.9263 -5.07592 -1.23075 0
M  V30 1057 H 94.6203 -2.96263 -0.432246 0
M  V30 1058 H 92.1663 -1.42512 -0.206469 0
M  V30 1059 H 94.1193 -3.08943 -2.86587 0
M  V30 1060 H 92.8433 -1.86005 -2.68458 0
M  V30 1061 H 91.5023 -3.44389 -1.25664 0
M  V30 1062 H 91.1503 -3.37275 -3.73168 0
M  V30 1063 H 90.8503 -5.00366 -3.08071 0
M  V30 1064 H 92.3743 -4.65879 -3.94701 0
M  V30 1065 H 93.7883 -5.43857 -1.81362 0
M  V30 1066 H 92.1853 -5.88741 -1.16207 0
M  V30 1067 H 93.2553 -4.84454 -0.207847 0
M  V30 1068 N 94.5984 0.214957 -1.56127 0
M  V30 1069 C 96.0144 0.564948 -1.49267 0
M  V30 1070 C 96.2144 1.86827 -0.754838 0
M  V30 1071 O 95.2704 2.50745 -0.297198 0
M  V30 1072 C 96.5834 0.638071 -2.93852 0
M  V30 1073 C 98.1314 0.728253 -3.0441 0
M  V30 1074 C 98.6064 0.832663 -4.50367 0
M  V30 1075 N 100.097 0.896712 -4.54437 0
M  V30 1076 C 100.832 0.997324 -5.6466 0
M  V30 1077 N 100.328 1.06147 -6.8462 0
M  V30 1078 N 102.121 1.03297 -5.52527 0
M  V30 1079 H 94.2724 -0.640211 -2.02522 0
M  V30 1080 H 96.5354 -0.225507 -0.920788 0
M  V30 1081 H 96.2414 -0.250126 -3.50809 0
M  V30 1082 H 96.1154 1.49947 -3.46115 0
M  V30 1083 H 98.5024 1.60689 -2.47514 0
M  V30 1084 H 98.5834 -0.158952 -2.55306 0
M  V30 1085 H 98.2274 -0.0415417 -5.07883 0
M  V30 1086 H 98.1574 1.73538 -4.97184 0
M  V30 1087 H 100.648 0.857188 -3.6805 0
M  V30 1088 H 100.961 1.1382 -7.64372 0
M  V30 1089 H 99.3064 1.03049 -6.87318 0
M  V30 1090 H 102.497 0.979558 -4.57736 0
M  V30 1091 H 102.67 1.10793 -6.38458 0
M  V30 1092 N 96.0765 1.50051 0.48192 0
M  V30 1093 C 97.3245 1.60181 1.23234 0
M  V30 1094 C 97.6455 0.299176 1.92691 0
M  V30 1095 O 96.9155 -0.682708 1.83619 0
M  V30 1096 H 95.4955 0.590232 0.457859 0
M  V30 1097 H 98.1575 1.86775 0.556881 0
M  V30 1098 H 97.2535 2.40753 1.98607 0
M  V30 1099 N 97.5546 -0.734337 1.39446 0
M  V30 1100 C 98.8036 -1.48937 1.36017 0
M  V30 1101 C 99.1166 -1.95557 -0.0409005 0
M  V30 1102 O 100.323 -2.70779 -0.19778 0
M  V30 1103 C 98.7786 -2.69125 2.38955 0
M  V30 1104 C 98.3866 -2.29452 3.8478 0
M  V30 1105 C 100.131 -3.46944 2.44603 0
M  V30 1106 C 98.0376 -3.46366 4.79358 0
M  V30 1107 H 96.9676 -0.559296 0.505672 0
M  V30 1108 H 99.6186 -0.800983 1.65095 0
M  V30 1109 H 98.0006 -3.40041 2.02948 0
M  V30 1110 H 99.1746 -1.66077 4.29831 0
M  V30 1111 H 97.4896 -1.64723 3.82433 0
M  V30 1112 H 100.087 -4.33907 3.12456 0
M  V30 1113 H 100.43 -3.89454 1.47076 0
M  V30 1114 H 100.963 -2.83056 2.79507 0
M  V30 1115 H 97.7016 -3.08905 5.78151 0
M  V30 1116 H 97.2216 -4.08719 4.38986 0
M  V30 1117 H 98.9006 -4.12691 4.98292 0
M  V30 1118 N 99.0327 -1.24633 -0.964593 0
M  V30 1119 C 99.9627 -1.06611 -2.07741 0
M  V30 1120 C 100.944 0.0218666 -1.70086 0
M  V30 1121 O 102.129 -0.145793 -1.93652 0
M  V30 1122 C 99.2587 -0.673444 -3.40708 0
M  V30 1123 C 98.2127 -1.71054 -3.92332 0
M  V30 1124 C 97.5387 -1.17285 -5.21678 0
M  V30 1125 C 98.8387 -3.10718 -4.19824 0
M  V30 1126 H 100.533 -1.99693 -2.23076 0
M  V30 1127 H 98.0787 -0.96152 -1.07195 0
M  V30 1128 H 100.032 -0.534345 -4.17998 0
M  V30 1129 H 98.7557 0.293073 -3.25282 0
M  V30 1130 H 97.4147 -1.83791 -3.17201 0
M  V30 1131 H 97.0627 -0.196847 -5.02615 0
M  V30 1132 H 96.7627 -1.86592 -5.57187 0
M  V30 1133 H 98.2867 -1.04593 -6.01575 0
M  V30 1134 H 99.7007 -3.01192 -4.87808 0
M  V30 1135 H 98.0977 -3.77406 -4.66567 0
M  V30 1136 H 99.1677 -3.58524 -3.26479 0
M  V30 1137 N 100.511 1.16574 -1.06058 0
M  V30 1138 C 101.739 1.90952 -0.796552 0
M  V30 1139 C 102.154 1.77302 0.648808 0
M  V30 1140 O 101.511 1.11605 1.44397 0
M  V30 1141 C 101.562 3.41736 -1.17894 0
M  V30 1142 O 101.283 3.54975 -2.56758 0
M  V30 1143 C 102.784 4.33169 -0.942308 0
M  V30 1144 H 100.004 0.605594 -0.288959 0
M  V30 1145 H 102.548 1.47777 -1.41358 0
M  V30 1146 H 100.703 3.82623 -0.606491 0
M  V30 1147 H 101.117 4.4846 -2.72 0
M  V30 1148 H 102.591 5.37439 -1.25952 0
M  V30 1149 H 103.068 4.3903 0.122078 0
M  V30 1150 H 103.674 3.98007 -1.49902 0
M  V30 1151 N 101.989 0.842826 1.3317 0
M  V30 1152 C 102.919 0.294028 2.31641 0
M  V30 1153 C 103.9 -0.600401 1.59151 0
M  V30 1154 O 105.085 -0.523124 1.87022 0
M  V30 1155 C 102.215 -0.528416 3.43257 0
M  V30 1156 C 101.169 0.27056 4.27144 0
M  V30 1157 C 100.495 -0.675881 5.30411 0
M  V30 1158 C 101.795 1.48981 5.00602 0
M  V30 1159 H 103.489 1.11681 2.77791 0
M  V30 1160 H 101.035 0.538478 1.33553 0
M  V30 1161 H 102.988 -0.922674 4.11175 0
M  V30 1162 H 101.712 -1.38445 2.95805 0
M  V30 1163 H 100.371 0.646427 3.60856 0
M  V30 1164 H 100.019 -1.52842 4.79216 0
M  V30 1165 H 99.7189 -0.145374 5.8742 0
M  V30 1166 H 101.243 -1.06757 6.01195 0
M  V30 1167 H 102.657 1.16849 5.61266 0
M  V30 1168 H 101.054 1.95739 5.6728 0
M  V30 1169 H 102.124 2.25746 4.29147 0
M  V30 1170 N 103.467 -1.45747 0.599634 0
M  V30 1171 C 104.697 -2.06369 0.0977132 0
M  V30 1172 C 105.105 -1.44624 -1.21985 0
M  V30 1173 O 104.448 -0.551831 -1.75216 0
M  V30 1174 C 104.51 -3.59284 -0.124673 0
M  V30 1175 C 104.174 -4.43318 1.10987 0
M  V30 1176 C 105.171 -4.78796 2.02609 0
M  V30 1177 C 102.856 -4.84194 1.33647 0
M  V30 1178 C 104.85 -5.53997 3.15224 0
M  V30 1179 C 102.537 -5.5915 2.46565 0
M  V30 1180 C 103.535 -5.93968 3.37182 0
M  V30 1181 O 103.223 -6.67405 4.48136 0
M  V30 1182 H 102.955 -0.673122 0.0623153 0
M  V30 1183 H 105.509 -1.88104 0.824981 0
M  V30 1184 H 103.739 -3.75919 -0.906745 0
M  V30 1185 H 105.428 -4.01775 -0.577201 0
M  V30 1186 H 106.194 -4.47781 1.86325 0
M  V30 1187 H 102.073 -4.56534 0.64016 0
M  V30 1188 H 105.617 -5.81091 3.85978 0
M  V30 1189 H 101.514 -5.89579 2.62805 0
M  V30 1190 H 102.282 -6.85847 4.46717 0
M  V30 1191 N 104.945 -0.338344 -1.53925 0
M  V30 1192 C 105.893 0.536231 -2.26335 0
M  V30 1193 C 106.887 1.1063 -1.28286 0
M  V30 1194 O 108.093 1.05264 -1.46012 0
M  V30 1195 H 104.468 0.191602 -0.727181 0
M  V30 1196 H 106.439 -0.0965747 -2.98244 0
M  V30 1197 C 105.188 1.67803 -3.04528 0
M  V30 1198 H 104.511 1.24864 -3.79801 0
M  V30 1199 H 105.951 2.26526 -3.58416 0
M  V30 1200 C 104.41 2.60439 -2.13712 0
M  V30 1201 O 104.94 3.6255 -1.72975 0
M  V30 1202 N 103.146 2.29006 -1.78898 0
M  V30 1203 H 102.693 1.46011 -2.12223 0
M  V30 1204 H 102.651 2.91248 -1.18416 0
M  V30 1205 N 106.423 1.57458 -0.0668435 0
M  V30 1206 C 107.353 2.15468 0.899764 0
M  V30 1207 C 108.334 1.08042 1.31381 0
M  V30 1208 O 109.519 1.36054 1.38574 0
M  V30 1209 C 106.649 2.71232 2.16911 0
M  V30 1210 C 105.603 3.83781 1.89463 0
M  V30 1211 C 104.929 4.26127 3.22986 0
M  V30 1212 C 106.229 5.08238 1.20381 0
M  V30 1213 H 107.923 2.96488 0.416529 0
M  V30 1214 H 105.469 1.4262 0.198908 0
M  V30 1215 H 107.422 3.10458 2.84945 0
M  V30 1216 H 106.146 1.87426 2.67468 0
M  V30 1217 H 104.805 3.45051 1.23836 0
M  V30 1218 H 104.453 3.39249 3.71374 0
M  V30 1219 H 104.153 5.01993 3.05413 0
M  V30 1220 H 105.677 4.67966 3.92225 0
M  V30 1221 H 107.091 5.44811 1.78475 0
M  V30 1222 H 105.488 5.89349 1.13083 0
M  V30 1223 H 106.558 4.84558 0.182153 0
M  V30 1224 N 107.901 -0.206675 1.56239 0
M  V30 1225 C 109.149 -0.927007 1.79586 0
M  V30 1226 C 109.47 -1.8427 0.637929 0
M  V30 1227 O 108.74 -1.92849 -0.344398 0
M  V30 1228 H 107.32 -0.345292 0.662407 0
M  V30 1229 H 109.982 -0.21496 1.93711 0
M  V30 1230 H 109.078 -1.52501 2.72305 0
M  V30 1231 N 109.379 -1.50304 -0.473955 0
M  V30 1232 C 110.628 -1.60392 -1.22301 0
M  V30 1233 C 110.941 -0.308411 -1.93153 0
M  V30 1234 O 112.147 -0.288156 -2.69966 0
M  V30 1235 C 110.603 -2.83109 -2.2221 0
M  V30 1236 C 110.211 -4.19524 -1.57173 0
M  V30 1237 C 111.955 -3.0254 -2.97775 0
M  V30 1238 C 109.862 -5.33431 -2.55353 0
M  V30 1239 H 108.792 -0.597286 -0.460179 0
M  V30 1240 H 111.443 -1.76731 -0.493803 0
M  V30 1241 H 109.825 -2.60322 -2.9841 0
M  V30 1242 H 110.999 -4.52554 -0.867824 0
M  V30 1243 H 109.314 -4.05674 -0.939002 0
M  V30 1244 H 111.911 -3.84811 -3.71248 0
M  V30 1245 H 112.254 -2.14154 -3.56992 0
M  V30 1246 H 112.787 -3.25494 -2.28688 0
M  V30 1247 H 109.526 -6.23962 -2.00878 0
M  V30 1248 H 109.046 -5.04823 -3.23904 0
M  V30 1249 H 110.725 -5.63887 -3.17239 0
M  V30 1250 N 110.857 0.726932 -1.39834 0
M  V30 1251 C 112.085 1.51613 -1.40787 0
M  V30 1252 C 112.5 1.88799 -0.00451505 0
M  V30 1253 O 111.857 1.54662 0.968809 0
M  V30 1254 C 111.908 2.79863 -2.28821 0
M  V30 1255 O 111.629 2.44253 -3.63692 0
M  V30 1256 C 113.13 3.73837 -2.38245 0
M  V30 1257 H 110.35 0.468264 -0.480593 0
M  V30 1258 H 112.894 0.897607 -1.83748 0
M  V30 1259 H 111.049 3.38027 -1.89252 0
M  V30 1260 H 111.463 3.26695 -4.1033 0
M  V30 1261 H 112.937 4.60699 -3.04073 0
M  V30 1262 H 113.414 4.16153 -1.40403 0
M  V30 1263 H 114.02 3.21589 -2.78317 0
M  V30 1264 N 112.336 1.25143 0.95797 0
M  V30 1265 C 113.266 1.07711 2.07173 0
M  V30 1266 C 114.247 -0.0128462 1.70095 0
M  V30 1267 O 115.432 0.156061 1.93572 0
M  V30 1268 C 112.562 0.691503 3.40346 0
M  V30 1269 C 111.516 1.73132 3.9142 0
M  V30 1270 C 110.842 1.20049 5.21049 0
M  V30 1271 C 112.142 3.1294 4.1817 0
M  V30 1272 H 113.836 2.00873 2.22014 0
M  V30 1273 H 111.382 0.967191 1.06684 0
M  V30 1274 H 113.335 0.556505 4.17709 0
M  V30 1275 H 112.059 -0.275819 3.25433 0
M  V30 1276 H 110.718 1.8547 3.16222 0
M  V30 1277 H 110.366 0.223499 5.02503 0
M  V30 1278 H 110.066 1.89545 5.56189 0
M  V30 1279 H 111.59 1.07782 6.01012 0
M  V30 1280 H 113.004 3.03775 4.86203 0
M  V30 1281 H 111.401 3.79875 4.64559 0
M  V30 1282 H 112.471 3.6025 3.24573 0
M  V30 1283 N 113.814 -1.1601 1.06675 0
M  V30 1284 C 114.744 -2.22688 0.702307 0
M  V30 1285 C 115.725 -1.67306 -0.307032 0
M  V30 1286 O 116.91 -1.93352 -0.181305 0
M  V30 1287 C 114.04 -3.47178 0.092038 0
M  V30 1288 C 112.994 -4.15477 1.02777 0
M  V30 1289 C 112.32 -5.33963 0.28061 0
M  V30 1290 C 113.62 -4.66019 2.35846 0
M  V30 1291 H 115.314 -2.53429 1.59419 0
M  V30 1292 H 112.86 -1.21813 0.767961 0
M  V30 1293 H 114.813 -4.21037 -0.174814 0
M  V30 1294 H 113.537 -3.15749 -0.834877 0
M  V30 1295 H 112.196 -3.43549 1.27944 0
M  V30 1296 H 111.844 -4.98788 -0.649545 0
M  V30 1297 H 111.544 -5.806 0.904258 0
M  V30 1298 H 113.068 -6.10596 0.021396 0
M  V30 1299 H 114.482 -5.3144 2.15045 0
M  V30 1300 H 112.879 -5.23293 2.93743 0
M  V30 1301 H 113.949 -3.82023 2.98641 0
M  V30 1302 N 115.292 -0.849877 -1.32721 0
M  V30 1303 C 116.517 -0.463856 -2.02146 0
M  V30 1304 C 116.942 0.930449 -1.63476 0
M  V30 1305 O 116.3 1.61033 -0.832952 0
M  V30 1306 C 116.348 -0.604955 -3.55489 0
M  V30 1307 O 115.452 0.36425 -4.10788 0
M  V30 1308 H 114.793 -0.187046 -0.637111 0
M  V30 1309 H 117.323 -1.14775 -1.69375 0
M  V30 1310 H 117.333 -0.490696 -4.05038 0
M  V30 1311 H 116.008 -1.62174 -3.82978 0
M  V30 1312 H 114.585 0.206628 -3.72327 0
M  V30 1313 N 116.77 1.45427 -0.607355 0
M  V30 1314 C 117.733 2.28974 0.101693 0
M  V30 1315 C 118.733 1.39754 0.795329 0
M  V30 1316 O 119.923 1.61878 0.643527 0
M  V30 1317 C 117.055 3.20768 1.15414 0
M  V30 1318 H 118.248 2.93147 -0.632844 0
M  V30 1319 H 115.801 1.51945 -0.366391 0
M  V30 1320 H 116.536 2.61395 1.91945 0
M  V30 1321 H 116.321 3.86489 0.66098 0
M  V30 1322 H 117.811 3.83589 1.65073 0
M  V30 1323 N 118.248 0.346503 1.53744 0
M  V30 1324 C 119.478 -0.250047 2.05081 0
M  V30 1325 C 119.886 -1.44529 1.22098 0
M  V30 1326 O 119.229 -1.81992 0.249917 0
M  V30 1327 C 119.291 -0.725934 3.52094 0
M  V30 1328 C 118.955 0.350053 4.55657 0
M  V30 1329 C 119.952 1.19372 5.0601 0
M  V30 1330 C 117.637 0.504827 4.99757 0
M  V30 1331 C 119.631 2.17768 5.99046 0
M  V30 1332 C 117.318 1.49218 5.92602 0
M  V30 1333 C 118.316 2.32706 6.42135 0
M  V30 1334 O 118.004 3.2976 7.33153 0
M  V30 1335 H 117.736 -0.0515469 0.674032 0
M  V30 1336 H 120.29 0.497559 1.99282 0
M  V30 1337 H 118.52 -1.52483 3.55367 0
M  V30 1338 H 120.209 -1.24336 3.86388 0
M  V30 1339 H 120.975 1.08525 4.72702 0
M  V30 1340 H 116.854 -0.135178 4.60802 0
M  V30 1341 H 120.398 2.82971 6.37631 0
M  V30 1342 H 116.295 1.6012 6.25325 0
M  V30 1343 H 117.063 3.25265 7.51096 0
M  V30 1344 N 119.726 -1.57421 0.075193 0
M  V30 1345 C 120.659 -2.08528 -0.926904 0
M  V30 1346 C 121.637 -0.991171 -1.28898 0
M  V30 1347 O 122.821 -1.26479 -1.39769 0
M  V30 1348 C 119.948 -2.54576 -2.23402 0
M  V30 1349 C 118.994 -3.75454 -2.02327 0
M  V30 1350 S 119.827 -5.19989 -1.27951 0
M  V30 1351 C 120.983 -5.69372 -2.59935 0
M  V30 1352 H 121.216 -2.932 -0.492048 0
M  V30 1353 H 118.749 -1.53785 -0.137651 0
M  V30 1354 H 120.707 -2.81767 -2.98526 0
M  V30 1355 H 119.368 -1.70166 -2.64012 0
M  V30 1356 H 118.561 -4.05675 -2.99071 0
M  V30 1357 H 118.163 -3.48654 -1.35339 0
M  V30 1358 H 120.455 -5.76424 -3.56008 0
M  V30 1359 H 121.398 -6.68207 -2.34319 0
M  V30 1360 H 121.806 -4.97205 -2.67296 0
M  V30 1361 N 121.204 0.198386 -1.56346 0
M  V30 1362 C 122.134 1.24865 -1.9731 0
M  V30 1363 C 123.115 1.47651 -0.844576 0
M  V30 1364 O 124.3 1.59444 -1.10866 0
M  V30 1365 C 121.43 2.59358 -2.30977 0
M  V30 1366 C 120.384 2.5119 -3.46537 0
M  V30 1367 C 119.71 3.89926 -3.65871 0
M  V30 1368 C 121.01 2.03977 -4.80823 0
M  V30 1369 H 122.704 0.908252 -2.85291 0
M  V30 1370 H 120.25 0.435462 -1.37258 0
M  V30 1371 H 122.203 3.33011 -2.58228 0
M  V30 1372 H 120.927 2.95132 -1.39874 0
M  V30 1373 H 119.586 1.79993 -3.19371 0
M  V30 1374 H 119.234 4.23046 -2.72105 0
M  V30 1375 H 118.934 3.85336 -4.4361 0
M  V30 1376 H 120.458 4.65205 -3.95495 0
M  V30 1377 H 121.872 2.67386 -5.07127 0
M  V30 1378 H 120.269 2.10397 -5.62008 0
M  V30 1379 H 121.339 0.992861 -4.74626 0
M  V30 1380 N 122.682 1.50554 0.465978 0
M  V30 1381 C 123.645 1.69233 1.54574 0
M  V30 1382 C 124.645 0.562901 1.50626 0
M  V30 1383 O 125.835 0.830016 1.53155 0
M  V30 1384 C 122.967 1.7223 2.94193 0
M  V30 1385 H 124.16 2.65571 1.39327 0
M  V30 1386 H 121.713 1.40111 0.692711 0
M  V30 1387 H 122.448 0.77603 3.14878 0
M  V30 1388 H 122.233 2.54285 2.98466 0
M  V30 1389 H 123.723 1.88618 3.72576 0
M  V30 1390 N 124.16 -0.719506 1.40217 0
M  V30 1391 C 125.07 -1.86378 1.42479 0
M  V30 1392 C 126.086 -1.71073 0.317834 0
M  V30 1393 O 127.262 -1.93406 0.561794 0
M  V30 1394 C 124.327 -3.22136 1.28178 0
M  V30 1395 C 123.388 -3.49723 2.48982 0
M  V30 1396 C 122.621 -4.79004 2.35353 0
M  V30 1397 O 122.844 -5.53821 1.36524 0
M  V30 1398 O 121.778 -5.06839 3.2465 0
M  V30 1399 H 125.604 -1.87425 2.38968 0
M  V30 1400 H 123.189 -0.869405 1.21498 0
M  V30 1401 H 125.071 -4.03234 1.22395 0
M  V30 1402 H 123.746 -3.21825 0.347934 0
M  V30 1403 H 122.653 -2.6865 2.60342 0
M  V30 1404 H 123.986 -3.54828 3.41113 0
M  V30 1405 N 125.638 -1.25649 -0.95132 0
M  V30 1406 C 126.568 -1.08808 -2.06599 0
M  V30 1407 C 127.549 0.00382547 -1.701 0
M  V30 1408 O 128.734 -0.166325 -1.93486 0
M  V30 1409 C 125.864 -0.709542 -3.39975 0
M  V30 1410 C 124.818 -1.75206 -3.90496 0
M  V30 1411 C 124.144 -1.22811 -5.20405 0
M  V30 1412 C 125.444 -3.15153 -4.16504 0
M  V30 1413 H 127.138 -2.02048 -2.20946 0
M  V30 1414 H 124.684 -0.972835 -1.06169 0
M  V30 1415 H 126.637 -0.578649 -4.17408 0
M  V30 1416 H 125.361 0.258556 -3.25575 0
M  V30 1417 H 124.02 -1.87145 -3.15234 0
M  V30 1418 H 123.668 -0.250145 -5.02378 0
M  V30 1419 H 123.368 -1.92492 -5.55176 0
M  V30 1420 H 124.892 -1.10968 -6.00432 0
M  V30 1421 H 126.306 -3.06349 -4.84586 0
M  V30 1422 H 124.703 -3.82333 -4.62538 0
M  V30 1423 H 125.773 -3.61966 -3.22658 0
M  V30 1424 N 127.117 1.15442 -1.07289 0
M  V30 1425 C 128.366 1.85557 -0.790669 0
M  V30 1426 C 128.679 1.83186 0.685739 0
M  V30 1427 O 129.885 2.48977 1.0827 0
M  V30 1428 C 128.341 3.33038 -1.36433 0
M  V30 1429 C 127.949 3.43856 -2.8717 0
M  V30 1430 C 129.693 4.0834 -1.1601 0
M  V30 1431 C 127.6 4.85482 -3.3773 0
M  V30 1432 H 126.53 0.695122 -0.292098 0
M  V30 1433 H 129.181 1.30219 -1.29287 0
M  V30 1434 H 127.563 3.88043 -0.789864 0
M  V30 1435 H 128.737 2.98961 -3.50655 0
M  V30 1436 H 127.052 2.81998 -3.06376 0
M  V30 1437 H 129.649 5.12859 -1.51262 0
M  V30 1438 H 129.992 4.16182 -0.0991007 0
M  V30 1439 H 130.525 3.59603 -1.70089 0
M  V30 1440 H 127.264 4.82823 -4.43353 0
M  V30 1441 H 126.784 5.30961 -2.78999 0
M  V30 1442 H 128.463 5.54335 -3.33648 0
M  V30 1443 N 128.595 0.856903 1.32268 0
M  V30 1444 C 129.525 0.31858 2.31316 0
M  V30 1445 C 130.506 -0.583487 1.59779 0
M  V30 1446 O 131.691 -0.503259 1.87566 0
M  V30 1447 C 128.821 -0.491979 3.43798 0
M  V30 1448 C 127.775 0.315849 4.26833 0
M  V30 1449 C 127.101 -0.619586 5.31098 0
M  V30 1450 C 128.401 1.54282 4.98993 0
M  V30 1451 H 130.095 1.14621 2.76591 0
M  V30 1452 H 127.641 0.552613 1.32974 0
M  V30 1453 H 129.594 -0.879012 4.1213 0
M  V30 1454 H 128.318 -1.35299 2.97257 0
M  V30 1455 H 126.977 0.684664 3.6015 0
M  V30 1456 H 126.625 -1.47751 4.8081 0
M  V30 1457 H 126.325 -0.0830621 5.87541 0
M  V30 1458 H 127.849 -1.00375 6.02293 0
M  V30 1459 H 129.263 1.22796 5.59995 0
M  V30 1460 H 127.66 2.01745 5.65172 0
M  V30 1461 H 128.73 2.30285 4.26728 0
M  V30 1462 N 130.073 -1.45103 0.615059 0
M  V30 1463 C 131.298 -2.07064 0.117988 0
M  V30 1464 C 131.723 -1.4554 -1.19163 0
M  V30 1465 O 131.081 -0.550855 -1.72729 0
M  V30 1466 C 131.129 -3.606 -0.000288387 0
M  V30 1467 O 130.233 -3.98847 -1.04856 0
M  V30 1468 H 129.574 -0.659467 0.0774581 0
M  V30 1469 H 132.104 -1.86236 0.847186 0
M  V30 1470 H 132.114 -4.07529 -0.196091 0
M  V30 1471 H 130.789 -4.04765 0.955932 0
M  V30 1472 H 129.366 -3.63577 -0.828619 0
M  V30 1473 N 131.551 -0.354651 -1.53558 0
M  V30 1474 C 132.779 0.239515 -2.05509 0
M  V30 1475 C 133.194 1.4333 -1.2289 0
M  V30 1476 O 132.551 1.80538 -0.266899 0
M  V30 1477 C 132.602 0.643719 -3.55723 0
M  V30 1478 O 132.323 -0.502602 -4.35207 0
M  V30 1479 C 133.824 1.29743 -4.23889 0
M  V30 1480 H 131.044 0.0442697 -0.669538 0
M  V30 1481 H 133.588 -0.509856 -1.98042 0
M  V30 1482 H 131.743 1.34302 -3.63376 0
M  V30 1483 H 132.157 -0.178172 -5.24197 0
M  V30 1484 H 133.631 1.53091 -5.30346 0
M  V30 1485 H 134.108 2.25441 -3.76926 0
M  V30 1486 H 134.714 0.639865 -4.20459 0
M  V30 1487 N 133.029 1.57378 -0.0835403 0
M  V30 1488 C 134.275 1.95025 0.577664 0
M  V30 1489 C 134.63 0.964049 1.66505 0
M  V30 1490 O 133.923 -0.0118235 1.91596 0
M  V30 1491 C 134.117 3.37063 1.1884 0
M  V30 1492 C 133.946 4.49409 0.16171 0
M  V30 1493 C 132.716 5.04642 -0.257756 0
M  V30 1494 C 134.914 5.10722 -0.605634 0
M  V30 1495 N 132.896 6.00537 -1.27393 0
M  V30 1496 C 134.267 6.02225 -1.47395 0
M  V30 1497 C 136.322 4.93501 -0.660418 0
M  V30 1498 C 135.025 6.78355 -2.39221 0
M  V30 1499 C 137.051 5.70283 -1.56623 0
M  V30 1500 C 136.413 6.61444 -2.4222 0
M  V30 1501 H 132.512 0.760512 0.182058 0
M  V30 1502 H 135.096 1.94013 -0.163419 0
M  V30 1503 H 133.267 3.3879 1.89936 0
M  V30 1504 H 134.999 3.61917 1.81103 0
M  V30 1505 H 131.754 4.73428 0.127702 0
M  V30 1506 H 132.178 6.53184 -1.77987 0
M  V30 1507 H 136.82 4.22798 -0.0128221 0
M  V30 1508 H 134.538 7.48327 -3.05011 0
M  V30 1509 H 138.124 5.58976 -1.61361 0
M  V30 1510 H 137.004 7.1982 -3.11174 0
M  V30 1511 N 134.507 -0.190092 1.56449 0
M  V30 1512 C 135.417 -1.25591 1.98152 0
M  V30 1513 C 136.433 -1.49519 0.889944 0
M  V30 1514 O 137.609 -1.62036 1.19609 0
M  V30 1515 C 134.674 -2.57916 2.3169 0
M  V30 1516 C 133.735 -2.42015 3.5458 0
M  V30 1517 C 132.968 -3.6803 3.8651 0
M  V30 1518 O 133.191 -4.72413 3.1966 0
M  V30 1519 O 132.125 -3.6326 4.79923 0
M  V30 1520 H 135.951 -0.931988 2.89046 0
M  V30 1521 H 133.536 -0.395488 1.4407 0
M  V30 1522 H 135.418 -3.36008 2.54316 0
M  V30 1523 H 134.093 -2.89925 1.43963 0
M  V30 1524 H 133 -1.62017 3.37196 0
M  V30 1525 H 134.333 -2.14937 4.4279 0
M  V30 1526 N 135.985 -1.50799 -0.457987 0
M  V30 1527 C 137.233 -1.62121 -1.2067 0
M  V30 1528 C 137.554 -0.329793 -1.92191 0
M  V30 1529 O 136.824 0.653409 -1.84682 0
M  V30 1530 H 135.404 -0.597441 -0.448411 0
M  V30 1531 H 138.066 -1.87637 -0.527096 0
M  V30 1532 H 137.162 -2.43882 -1.94751 0
M  V30 1533 N 137.463 0.71206 -1.40597 0
M  V30 1534 C 138.711 1.46907 -1.38791 0
M  V30 1535 C 139.032 1.94998 0.00780391 0
M  V30 1536 O 138.302 1.70587 0.963174 0
M  V30 1537 H 136.882 0.545043 -0.51082 0
M  V30 1538 H 139.544 0.843882 -1.75683 0
M  V30 1539 H 138.64 2.34021 -2.06496 0
M  V30 1540 N 138.941 1.26152 0.944643 0
M  V30 1541 C 140.171 1.14094 1.72239 0
M  V30 1542 C 140.579 -0.306931 1.86694 0
M  V30 1543 O 139.922 -1.22222 1.3714 0
M  V30 1544 C 139.984 1.73316 3.14963 0
M  V30 1545 C 139.648 3.2239 3.23904 0
M  V30 1546 C 140.645 4.19252 3.07447 0
M  V30 1547 C 138.33 3.62788 3.47405 0
M  V30 1548 C 140.324 5.54491 3.14353 0
M  V30 1549 C 138.011 4.98162 3.53947 0
M  V30 1550 C 139.009 5.93823 3.37436 0
M  V30 1551 O 138.697 7.26732 3.43679 0
M  V30 1552 H 138.429 0.398292 0.546205 0
M  V30 1553 H 140.983 1.67201 1.19301 0
M  V30 1554 H 139.213 1.14667 3.69308 0
M  V30 1555 H 140.902 1.56214 3.74636 0
M  V30 1556 H 141.668 3.8938 2.8915 0
M  V30 1557 H 137.547 2.88816 3.59313 0
M  V30 1558 H 141.091 6.29137 3.01384 0
M  V30 1559 H 136.988 5.27695 3.71763 0
M  V30 1560 H 137.756 7.3496 3.60245 0
M  V30 1561 N 140.419 -1.14872 1.07899 0
M  V30 1562 C 141.367 -2.21857 0.698727 0
M  V30 1563 C 142.361 -1.66845 -0.293086 0
M  V30 1564 O 143.567 -1.79321 -0.156204 0
M  V30 1565 H 139.942 -0.722691 0.207899 0
M  V30 1566 H 141.913 -2.51205 1.61054 0
M  V30 1567 C 140.662 -3.47498 0.11858 0
M  V30 1568 H 139.985 -3.90154 0.872914 0
M  V30 1569 H 141.425 -4.23858 -0.109759 0
M  V30 1570 C 139.884 -3.16947 -1.1422 0
M  V30 1571 O 140.414 -3.3426 -2.22785 0
M  V30 1572 N 138.62 -2.70946 -1.05055 0
M  V30 1573 H 138.167 -2.57058 -0.167038 0
M  V30 1574 H 138.125 -2.50879 -1.89491 0
M  V30 1575 N 141.898 -0.863906 -1.31812 0
M  V30 1576 C 142.828 -0.330843 -2.31144 0
M  V30 1577 C 143.809 0.575005 -1.60087 0
M  V30 1578 O 144.994 0.493304 -1.8783 0
M  V30 1579 C 142.124 0.47374 -3.44054 0
M  V30 1580 C 141.078 -0.338481 -4.26659 0
M  V30 1581 C 140.404 0.591412 -5.31419 0
M  V30 1582 C 141.704 -1.56926 -4.98168 0
M  V30 1583 H 143.398 -1.16086 -2.75979 0
M  V30 1584 H 140.944 -0.559657 -1.32679 0
M  V30 1585 H 142.897 0.857143 -4.12591 0
M  V30 1586 H 141.621 1.33721 -2.9797 0
M  V30 1587 H 140.28 -0.703754 -3.59782 0
M  V30 1588 H 139.928 1.45199 -4.81587 0
M  V30 1589 H 139.628 0.0519022 -5.87577 0
M  V30 1590 H 141.152 0.97179 -6.02817 0
M  V30 1591 H 142.566 -1.25764 -5.59336 0
M  V30 1592 H 140.963 -2.04739 -5.64094 0
M  V30 1593 H 142.033 -2.32544 -4.25501 0
M  V30 1594 N 143.376 1.44774 -0.622745 0
M  V30 1595 C 144.308 2.28856 0.125485 0
M  V30 1596 C 145.321 1.40811 0.817069 0
M  V30 1597 O 146.51 1.65044 0.679918 0
M  V30 1598 C 143.61 3.16963 1.19949 0
M  V30 1599 C 142.783 4.33374 0.592064 0
M  V30 1600 C 141.842 5.02577 1.55893 0
M  V30 1601 O 140.868 5.58873 1.07933 0
M  V30 1602 N 142.07 5.03256 2.89334 0
M  V30 1603 H 144.835 2.93713 -0.596068 0
M  V30 1604 H 142.396 1.55129 -0.463303 0
M  V30 1605 H 144.388 3.60123 1.84644 0
M  V30 1606 H 142.958 2.53913 1.82337 0
M  V30 1607 H 142.178 3.93509 -0.233322 0
M  V30 1608 H 143.466 5.08527 0.166738 0
M  V30 1609 H 142.864 4.58836 3.30887 0
M  V30 1610 H 141.421 5.50232 3.49412 0
M  V30 1611 N 144.854 0.36279 1.53368 0
M  V30 1612 C 146.094 -0.227882 2.03126 0
M  V30 1613 C 146.458 -1.4622 1.24434 0
M  V30 1614 O 147.659 -2.12831 1.64184 0
M  V30 1615 C 145.93 -0.515427 3.53664 0
M  V30 1616 S 147.489 -1.08017 4.25297 0
M  V30 1617 H 144.307 -0.0665377 0.70788 0
M  V30 1618 H 146.909 0.50501 1.88865 0
M  V30 1619 H 145.613 0.390436 4.08539 0
M  V30 1620 H 145.144 -1.27747 3.72081 0
M  V30 1621 H 147.159 -2.36462 4.36234 0
M  V30 1622 N 146.332 -1.57332 0.0918853 0
M  V30 1623 C 147.264 -2.10869 -0.898168 0
M  V30 1624 C 148.277 -1.04521 -1.24817 0
M  V30 1625 O 149.466 -1.31977 -1.20184 0
M  V30 1626 C 146.566 -2.57083 -2.2082 0
M  V30 1627 C 145.739 -3.87229 -2.03402 0
M  V30 1628 C 144.798 -4.19324 -3.17889 0
M  V30 1629 O 143.824 -4.88598 -2.91994 0
M  V30 1630 N 145.026 -3.74471 -4.43567 0
M  V30 1631 H 147.791 -2.96439 -0.440943 0
M  V30 1632 H 145.352 -1.61631 -0.0933064 0
M  V30 1633 H 147.344 -2.75602 -2.96354 0
M  V30 1634 H 145.914 -1.76541 -2.57977 0
M  V30 1635 H 145.134 -3.7789 -1.12218 0
M  V30 1636 H 146.422 -4.72379 -1.89038 0
M  V30 1637 H 145.82 -3.18546 -4.67488 0
M  V30 1638 H 144.377 -3.98151 -5.16061 0
M  V30 1639 N 147.81 0.181792 -1.56548 0
M  V30 1640 C 149.087 0.926765 -1.72251 0
M  V30 1641 C 149.467 2.00831 -0.650386 0
M  V30 1642 O 148.815 2.26008 0.336521 0
M  V30 1643 C 149.025 1.50106 -3.1507 0
M  V30 1644 C 150.373 1.97805 -3.75711 0
M  V30 1645 O 151.397 1.59922 -3.18282 0
M  V30 1646 O 150.256 2.67555 -4.76525 0
M  V30 1647 H 147.35 0.435506 -0.703039 0
M  V30 1648 H 149.896 0.170443 -1.68842 0
M  V30 1649 H 148.668 0.72212 -3.84579 0
M  V30 1650 H 148.291 2.32186 -3.22763 0
M  V30 1651 N 149.288 1.51039 0.449983 0
M  V30 1652 C 150.218 1.74379 1.55288 0
M  V30 1653 C 151.199 0.593236 1.5942 0
M  V30 1654 O 152.384 0.834625 1.7535 0
M  V30 1655 C 149.514 1.85728 2.93466 0
M  V30 1656 C 148.468 3.01078 3.04197 0
M  V30 1657 C 147.794 2.97595 4.44231 0
M  V30 1658 C 149.094 4.41254 2.7945 0
M  V30 1659 H 150.788 2.66725 1.36008 0
M  V30 1660 H 148.334 1.2835 0.652864 0
M  V30 1661 H 150.287 2.0064 3.70569 0
M  V30 1662 H 149.011 0.900207 3.13949 0
M  V30 1663 H 147.67 2.85851 2.29531 0
M  V30 1664 H 147.318 1.99691 4.61663 0
M  V30 1665 H 147.018 3.75046 4.52343 0
M  V30 1666 H 148.542 3.14583 5.23326 0
M  V30 1667 H 149.956 4.56897 3.46292 0
M  V30 1668 H 148.353 5.20315 2.98985 0
M  V30 1669 H 149.423 4.52164 1.75144 0
M  V30 1670 N 150.766 -0.704594 1.40972 0
M  V30 1671 C 151.994 -1.49354 1.43182 0
M  V30 1672 C 152.409 -1.88768 0.0345508 0
M  V30 1673 O 151.766 -1.56184 -0.944081 0
M  V30 1674 C 151.817 -2.76187 2.33244 0
M  V30 1675 O 151.538 -2.38436 3.67532 0
M  V30 1676 C 153.039 -3.7 2.44162 0
M  V30 1677 H 150.259 -0.460559 0.487982 0
M  V30 1678 H 152.803 -0.868261 1.85153 0
M  V30 1679 H 150.958 -3.34974 1.94606 0
M  V30 1680 H 151.372 -3.20126 4.15475 0
M  V30 1681 H 152.846 -4.55803 3.11364 0
M  V30 1682 H 153.323 -4.13867 1.47006 0
M  V30 1683 H 153.929 -3.17121 2.83398 0
M  V30 1684 N 152.244 -1.26651 -0.937939 0
M  V30 1685 C 153.469 -1.15279 -1.72411 0
M  V30 1686 C 153.894 0.287866 -1.85884 0
M  V30 1687 O 153.252 1.20855 -1.35143 0
M  V30 1688 C 153.3 -1.83028 -3.10698 0
M  V30 1689 O 152.404 -1.12128 -3.96864 0
M  V30 1690 H 151.745 -0.401504 -0.528858 0
M  V30 1691 H 154.275 -1.67531 -1.1745 0
M  V30 1692 H 154.285 -1.89981 -3.6107 0
M  V30 1693 H 152.96 -2.87833 -3.00208 0
M  V30 1694 H 151.537 -1.13173 -3.55312 0
M  V30 1695 N 153.722 1.14298 -1.08507 0
M  V30 1696 C 154.685 2.17607 -0.719711 0
M  V30 1697 C 155.685 1.58907 0.245997 0
M  V30 1698 O 156.875 1.74181 0.0254081 0
M  V30 1699 C 154.007 3.40842 -0.0627695 0
M  V30 1700 H 155.2 2.51443 -1.63452 0
M  V30 1701 H 152.753 1.28963 -0.88307 0
M  V30 1702 H 153.488 3.12587 0.863716 0
M  V30 1703 H 153.273 3.84713 -0.757504 0
M  V30 1704 H 154.763 4.17221 0.177786 0
M  V30 1705 N 155.201 0.870884 1.31352 0
M  V30 1706 C 156.449 0.48132 1.96285 0
M  V30 1707 C 156.77 -0.969813 1.69173 0
M  V30 1708 O 156.04 -1.67998 1.00764 0
M  V30 1709 H 154.62 0.175002 0.726212 0
M  V30 1710 H 157.282 1.11087 1.60143 0
M  V30 1711 H 156.378 0.639825 3.05471 0
M  V30 1712 N 156.679 -1.44442 0.630414 0
M  V30 1713 C 157.589 -2.34476 -0.0761693 0
M  V30 1714 C 158.605 -1.52576 -0.836449 0
M  V30 1715 O 159.781 -1.85307 -0.788874 0
M  V30 1716 C 156.846 -3.30545 -1.04599 0
M  V30 1717 C 155.907 -4.28352 -0.28516 0
M  V30 1718 C 155.14 -5.19831 -1.20878 0
M  V30 1719 O 155.363 -5.15223 -2.44747 0
M  V30 1720 O 154.297 -5.97892 -0.693491 0
M  V30 1721 H 158.123 -2.96345 0.664324 0
M  V30 1722 H 155.708 -1.44203 0.39061 0
M  V30 1723 H 157.59 -3.89681 -1.60396 0
M  V30 1724 H 156.265 -2.7121 -1.76711 0
M  V30 1725 H 155.172 -3.72764 0.315837 0
M  V30 1726 H 156.505 -4.90605 0.395924 0
M  V30 1727 N 158.157 -0.370918 -1.53173 0
M  V30 1728 C 159.12 0.460778 -2.24521 0
M  V30 1729 C 160.12 1.00536 -1.25496 0
M  V30 1730 O 161.31 0.890266 -1.49733 0
M  V30 1731 C 158.442 1.64457 -2.98608 0
M  V30 1732 H 159.635 -0.163613 -2.99453 0
M  V30 1733 H 157.188 -0.122699 -1.55818 0
M  V30 1734 H 157.923 2.30691 -2.2793 0
M  V30 1735 H 157.708 1.26099 -3.7127 0
M  V30 1736 H 159.198 2.23384 -3.5283 0
M  V30 1737 N 159.635 1.57281 -0.100228 0
M  V30 1738 C 160.912 1.86014 0.604812 0
M  V30 1739 C 161.292 0.998025 1.86018 0
M  V30 1740 O 160.64 0.0718184 2.28387 0
M  V30 1741 C 160.85 3.36784 0.915278 0
M  V30 1742 C 162.198 4.04957 1.27651 0
M  V30 1743 O 163.222 3.41695 1.00613 0
M  V30 1744 O 162.081 5.16593 1.7831 0
M  V30 1745 H 159.175 0.76942 0.303185 0
M  V30 1746 H 161.721 1.69176 -0.133313 0
M  V30 1747 H 160.493 3.91292 0.0248896 0
M  V30 1748 H 160.116 3.58987 1.70921 0
M  V30 1749 N 161.113 -0.173488 1.56642 0
M  V30 1750 C 162.362 -0.888758 1.81063 0
M  V30 1751 C 162.675 -1.83506 0.67712 0
M  V30 1752 O 163.881 -2.59254 0.806206 0
M  V30 1753 C 162.337 -1.63091 3.20826 0
M  V30 1754 C 161.945 -0.728357 4.4204 0
M  V30 1755 C 163.689 -2.33454 3.54541 0
M  V30 1756 C 161.596 -1.47062 5.72823 0
M  V30 1757 H 160.526 -0.335618 0.675186 0
M  V30 1758 H 163.177 -0.141712 1.82952 0
M  V30 1759 H 161.559 -2.42263 3.13248 0
M  V30 1760 H 162.733 0.0262449 4.60793 0
M  V30 1761 H 161.048 -0.134492 4.16183 0
M  V30 1762 H 163.645 -2.89578 4.49498 0
M  V30 1763 H 163.988 -3.08687 2.79317 0
M  V30 1764 H 164.521 -1.61227 3.63663 0
M  V30 1765 H 161.26 -0.760658 6.51072 0
M  V30 1766 H 160.78 -2.1986 5.58052 0
M  V30 1767 H 162.459 -2.01868 6.14702 0
M  V30 1768 N 162.591 -1.51276 -0.441967 0
M  V30 1769 C 164.007 -1.39349 -0.778083 0
M  V30 1770 C 164.207 -0.472212 -1.95889 0
M  V30 1771 O 163.263 0.0743551 -2.5239 0
M  V30 1772 C 164.576 -2.81292 -1.0628 0
M  V30 1773 C 166.124 -2.9041 -1.16751 0
M  V30 1774 C 166.599 -4.33251 -1.48519 0
M  V30 1775 N 168.09 -4.36336 -1.55453 0
M  V30 1776 C 168.825 -5.43885 -1.81596 0
M  V30 1777 N 168.321 -6.61601 -2.05562 0
M  V30 1778 N 170.114 -5.3136 -1.8334 0
M  V30 1779 H 162.265 -2.09729 0.335774 0
M  V30 1780 H 164.528 -0.943925 0.0878028 0
M  V30 1781 H 164.234 -3.50678 -0.267905 0
M  V30 1782 H 164.108 -3.20334 -1.99163 0
M  V30 1783 H 166.495 -2.21225 -1.95304 0
M  V30 1784 H 166.576 -2.54871 -0.217801 0
M  V30 1785 H 166.22 -5.02984 -0.704958 0
M  V30 1786 H 166.15 -4.66299 -2.44689 0
M  V30 1787 H 168.641 -3.51466 -1.38853 0
M  V30 1788 H 168.954 -7.39361 -2.24867 0
M  V30 1789 H 167.299 -6.64725 -2.02894 0
M  V30 1790 H 170.49 -4.38382 -1.64132 0
M  V30 1791 H 170.663 -6.15258 -2.03377 0
M  V30 1792 N 164.069 0.697108 -1.41344 0
M  V30 1793 C 165.315 1.4593 -1.40827 0
M  V30 1794 C 165.648 1.94193 -0.0167098 0
M  V30 1795 O 164.923 1.69425 0.955263 0
M  V30 1796 C 165.206 2.67229 -2.41373 0
M  V30 1797 C 165.059 2.24741 -3.8963 0
M  V30 1798 C 166.378 3.69423 -2.39196 0
M  V30 1799 H 163.497 0.529303 -0.512842 0
M  V30 1800 H 166.139 0.794112 -1.72609 0
M  V30 1801 H 164.289 3.23982 -2.14401 0
M  V30 1802 H 165.961 1.73327 -4.27499 0
M  V30 1803 H 164.204 1.56542 -4.0457 0
M  V30 1804 H 164.875 3.1177 -4.55525 0
M  V30 1805 H 167.351 3.2234 -2.63128 0
M  V30 1806 H 166.227 4.51907 -3.11563 0
M  V30 1807 H 166.488 4.19012 -1.41001 0
M  V30 1808 N 165.547 1.27147 0.931209 0
M  V30 1809 C 166.51 1.09615 2.01289 0
M  V30 1810 C 167.51 0.0412581 1.60747 0
M  V30 1811 O 168.7 0.285545 1.71844 0
M  V30 1812 C 165.832 0.669447 3.34262 0
M  V30 1813 H 167.025 2.05662 2.18273 0
M  V30 1814 H 164.578 1.09885 1.11153 0
M  V30 1815 H 165.313 -0.292572 3.22978 0
M  V30 1816 H 165.098 1.43127 3.65044 0
M  V30 1817 H 166.588 0.568921 4.13706 0
M  V30 1818 N 167.025 -1.13721 1.09112 0
M  V30 1819 C 167.972 -2.19031 0.727591 0
M  V30 1820 C 168.942 -1.63555 -0.289656 0
M  V30 1821 O 170.127 -1.90023 -0.172026 0
M  V30 1822 C 167.267 -3.4477 0.15082 0
M  V30 1823 C 166.38 -4.14365 1.22172 0
M  V30 1824 C 165.515 -5.27709 0.608042 0
M  V30 1825 C 164.554 -5.89147 1.66047 0
M  V30 1826 N 163.691 -6.93929 1.06806 0
M  V30 1827 H 168.531 -2.49475 1.62991 0
M  V30 1828 H 166.068 -1.22499 0.81439 0
M  V30 1829 H 168.026 -4.16714 -0.201358 0
M  V30 1830 H 166.656 -3.14787 -0.714783 0
M  V30 1831 H 165.708 -3.40737 1.69122 0
M  V30 1832 H 167.02 -4.56114 2.01895 0
M  V30 1833 H 166.174 -6.06355 0.204523 0
M  V30 1834 H 164.913 -4.872 -0.220769 0
M  V30 1835 H 163.918 -5.09198 2.07357 0
M  V30 1836 H 165.143 -6.31729 2.49189 0
M  V30 1837 H 163.089 -6.55483 0.260476 0
M  V30 1838 H 163.006 -7.34202 1.8023 0
M  V30 1839 H 164.274 -7.76434 0.690644 0
M  V30 1840 N 168.503 -0.877838 -1.30888 0
M  V30 1841 C 169.749 -0.493426 -1.96706 0
M  V30 1842 C 170.082 0.953504 -1.6918 0
M  V30 1843 O 169.357 1.67266 -0.992594 0
M  V30 1844 C 169.64 -0.760429 -3.51979 0
M  V30 1845 C 169.493 -2.25747 -3.89048 0
M  V30 1846 C 170.812 -0.232148 -4.39487 0
M  V30 1847 H 167.931 -0.180746 -0.714493 0
M  V30 1848 H 170.573 -1.10052 -1.54882 0
M  V30 1849 H 168.723 -0.243715 -3.87735 0
M  V30 1850 H 170.395 -2.84204 -3.63354 0
M  V30 1851 H 168.638 -2.72694 -3.37373 0
M  V30 1852 H 169.309 -2.39491 -4.97341 0
M  V30 1853 H 171.785 -0.674314 -4.106 0
M  V30 1854 H 170.661 -0.448355 -5.47066 0
M  V30 1855 H 170.922 0.866297 -4.33529 0
M  V30 1856 N 169.982 1.44106 -0.638065 0
M  V30 1857 C 170.912 2.33448 0.0494287 0
M  V30 1858 C 171.893 1.48606 0.827672 0
M  V30 1859 O 173.078 1.77308 0.792173 0
M  V30 1860 C 170.208 3.31771 1.02691 0
M  V30 1861 C 169.162 4.26485 0.359823 0
M  V30 1862 C 168.488 5.14729 1.44769 0
M  V30 1863 C 169.788 5.17056 -0.738296 0
M  V30 1864 H 171.482 2.91183 -0.696636 0
M  V30 1865 H 169.028 1.40014 -0.336456 0
M  V30 1866 H 170.981 3.93161 1.51666 0
M  V30 1867 H 169.705 2.7226 1.80395 0
M  V30 1868 H 168.364 3.66437 -0.10934 0
M  V30 1869 H 168.012 4.51566 2.21578 0
M  V30 1870 H 167.712 5.78913 1.00668 0
M  V30 1871 H 169.236 5.78991 1.93911 0
M  V30 1872 H 170.65 5.72342 -0.331354 0
M  V30 1873 H 169.047 5.89879 -1.10286 0
M  V30 1874 H 170.117 4.57652 -1.60258 0
M  V30 1875 N 171.46 0.379036 1.52974 0
M  V30 1876 C 172.706 -0.199244 2.02422 0
M  V30 1877 C 173.061 -1.4532 1.26095 0
M  V30 1878 O 172.354 -1.88377 0.34996 0
M  V30 1879 C 172.548 -0.53096 3.53434 0
M  V30 1880 C 172.377 0.689298 4.44386 0
M  V30 1881 C 171.147 1.20546 4.9071 0
M  V30 1882 C 173.345 1.55856 4.90116 0
M  V30 1883 N 171.327 2.38434 5.65705 0
M  V30 1884 C 172.698 2.58396 5.63588 0
M  V30 1885 C 174.753 1.57986 4.7217 0
M  V30 1886 C 173.456 3.62939 6.21022 0
M  V30 1887 C 175.482 2.6143 5.30479 0
M  V30 1888 C 174.844 3.62693 6.03849 0
M  V30 1889 H 170.943 -0.0352671 0.781204 0
M  V30 1890 H 173.527 0.526614 1.87443 0
M  V30 1891 H 171.698 -1.22588 3.68547 0
M  V30 1892 H 173.43 -1.0955 3.89591 0
M  V30 1893 H 170.185 0.768022 4.67331 0
M  V30 1894 H 170.609 2.98055 6.07859 0
M  V30 1895 H 175.251 0.810475 4.14959 0
M  V30 1896 H 172.969 4.40751 6.77321 0
M  V30 1897 H 176.555 2.63949 5.18481 0
M  V30 1898 H 175.435 4.41424 6.48163 0
M  V30 1899 N 172.938 -1.57226 0.108567 0
M  V30 1900 C 174.184 -1.95919 -0.546564 0
M  V30 1901 C 174.539 -0.990417 -1.6495 0
M  V30 1902 O 173.832 -0.0186593 -1.91591 0
M  V30 1903 C 174.026 -3.38911 -1.13463 0
M  V30 1904 C 173.855 -4.4961 -0.0901926 0
M  V30 1905 C 172.625 -5.04168 0.338008 0
M  V30 1906 C 174.823 -5.09693 0.686808 0
M  V30 1907 N 172.805 -5.98434 1.36931 0
M  V30 1908 C 174.176 -5.99804 1.56958 0
M  V30 1909 C 176.231 -4.92388 0.738846 0
M  V30 1910 C 174.934 -6.74463 2.49983 0
M  V30 1911 C 176.96 -5.67719 1.65676 0
M  V30 1912 C 176.322 -6.57507 2.52713 0
M  V30 1913 H 172.421 -0.763312 -0.169936 0
M  V30 1914 H 175.005 -1.93728 0.194264 0
M  V30 1915 H 173.176 -3.41769 -1.84522 0
M  V30 1916 H 174.908 -3.64752 -1.75322 0
M  V30 1917 H 171.663 -4.73571 -0.0523673 0
M  V30 1918 H 172.087 -6.5027 1.88356 0
M  V30 1919 H 176.729 -4.22724 0.080084 0
M  V30 1920 H 174.447 -7.4338 3.16878 0
M  V30 1921 H 178.033 -5.56338 1.70233 0
M  V30 1922 H 176.913 -7.14778 3.22586 0
M  V30 1923 N 174.416 0.165178 -1.56732 0
M  V30 1924 C 175.646 0.894919 -1.86212 0
M  V30 1925 C 176.054 1.76066 -0.692627 0
M  V30 1926 O 175.397 1.80387 0.347303 0
M  V30 1927 C 175.459 1.8174 -3.10179 0
M  V30 1928 C 175.123 1.13064 -4.42793 0
M  V30 1929 C 176.12 0.493169 -5.17556 0
M  V30 1930 C 173.805 1.12556 -4.89527 0
M  V30 1931 C 175.799 -0.140209 -6.37246 0
M  V30 1932 C 173.486 0.488366 -6.09145 0
M  V30 1933 C 174.484 -0.143411 -6.82849 0
M  V30 1934 O 174.172 -0.77055 -8.00199 0
M  V30 1935 H 173.904 0.265114 -0.621844 0
M  V30 1936 H 176.458 0.168242 -2.0471 0
M  V30 1937 H 174.688 2.58455 -2.87642 0
M  V30 1938 H 176.377 2.4175 -3.26055 0
M  V30 1939 H 177.143 0.489023 -4.82528 0
M  V30 1940 H 173.022 1.60672 -4.32094 0
M  V30 1941 H 176.566 -0.633932 -6.94714 0
M  V30 1942 H 172.463 0.490116 -6.43637 0
M  V30 1943 H 173.231 -0.670408 -8.1575 0
M  V30 1944 N 175.894 1.51508 0.433938 0
M  V30 1945 C 177.124 1.67914 1.20369 0
M  V30 1946 C 177.532 0.377461 1.85397 0
M  V30 1947 O 176.875 -0.654255 1.71654 0
M  V30 1948 C 176.937 2.74045 2.32679 0
M  V30 1949 C 176.601 4.16543 1.87991 0
M  V30 1950 C 177.598 5.01211 1.38145 0
M  V30 1951 C 175.283 4.6266 1.95579 0
M  V30 1952 C 177.277 6.30056 0.964774 0
M  V30 1953 C 174.964 5.91501 1.53523 0
M  V30 1954 C 175.962 6.75027 1.04055 0
M  V30 1955 O 175.65 8.01459 0.625964 0
M  V30 1956 H 175.382 0.566578 0.368735 0
M  V30 1957 H 177.936 1.98709 0.51999 0
M  V30 1958 H 176.166 2.38572 3.04336 0
M  V30 1959 H 177.855 2.79295 2.94532 0
M  V30 1960 H 178.621 4.66783 1.31675 0
M  V30 1961 H 174.5 3.97767 2.33029 0
M  V30 1962 H 178.044 6.95202 0.57796 0
M  V30 1963 H 173.941 6.25442 1.59665 0
M  V30 1964 H 174.709 8.15043 0.751509 0
M  V30 1965 N 177.372 -0.689602 1.41712 0
M  V30 1966 C 178.619 -1.44966 1.4139 0
M  V30 1967 C 178.947 -1.94484 0.025105 0
M  V30 1968 O 178.202 -1.70307 -0.964048 0
M  V30 1969 C 178.501 -2.67298 2.37247 0
M  V30 1970 C 178.167 -2.36405 3.83958 0
M  V30 1971 C 176.829 -2.27691 4.23923 0
M  V30 1972 C 179.181 -2.11043 4.76561 0
M  V30 1973 C 176.509 -1.91719 5.54492 0
M  V30 1974 C 178.861 -1.76578 6.07456 0
M  V30 1975 C 177.525 -1.66363 6.46436 0
M  V30 1976 H 176.795 -0.53047 0.517381 0
M  V30 1977 H 179.442 -0.787655 1.74552 0
M  V30 1978 H 177.747 -3.38461 1.9736 0
M  V30 1979 H 179.444 -3.25452 2.34269 0
M  V30 1980 H 176.034 -2.44085 3.52308 0
M  V30 1981 H 180.218 -2.16717 4.46483 0
M  V30 1982 H 175.474 -1.82367 5.83568 0
M  V30 1983 H 179.648 -1.55974 6.78708 0
M  V30 1984 H 177.275 -1.38258 7.47522 0
M  V30 1985 N 178.85 -1.27639 -0.924453 0
M  V30 1986 C 180.075 -1.17101 -1.71179 0
M  V30 1987 C 180.5 0.268134 -1.86179 0
M  V30 1988 O 179.858 1.19415 -1.36418 0
M  V30 1989 C 179.906 -1.86313 -3.08739 0
M  V30 1990 O 179.01 -1.16331 -3.95652 0
M  V30 1991 H 178.351 -0.407091 -0.524569 0
M  V30 1992 H 180.881 -1.68767 -1.15666 0
M  V30 1993 H 180.891 -1.938 -3.59034 0
M  V30 1994 H 179.566 -2.91001 -2.97138 0
M  V30 1995 H 178.143 -1.16935 -3.54091 0
M  V30 1996 N 180.328 1.1314 -1.09713 0
M  V30 1997 C 181.275 2.18642 -0.739196 0
M  V30 1998 C 182.245 1.63706 0.280978 0
M  V30 1999 O 183.43 1.90111 0.161946 0
M  V30 2000 C 180.57 3.44685 -0.169102 0
M  V30 2001 C 179.683 4.13711 -1.24367 0
M  V30 2002 C 178.818 5.27379 -0.636019 0
M  V30 2003 C 177.857 5.88259 -1.69169 0
M  V30 2004 N 176.994 6.93352 -1.10485 0
M  V30 2005 H 181.834 2.48607 -1.64312 0
M  V30 2006 H 179.371 1.22066 -0.820875 0
M  V30 2007 H 181.329 4.16815 0.179256 0
M  V30 2008 H 179.959 3.15161 0.698079 0
M  V30 2009 H 179.011 3.39835 -1.70927 0
M  V30 2010 H 180.323 4.55037 -2.04311 0
M  V30 2011 H 179.477 6.06238 -0.236677 0
M  V30 2012 H 178.216 4.8731 0.194928 0
M  V30 2013 H 177.221 5.08092 -2.10055 0
M  V30 2014 H 178.446 6.30399 -2.52536 0
M  V30 2015 H 176.392 6.55335 -0.295234 0
M  V30 2016 H 176.309 7.33236 -1.84121 0
M  V30 2017 H 177.577 7.76057 -0.73181 0
M  V30 2018 N 181.806 0.884767 1.30421 0
M  V30 2019 C 183.031 0.517288 2.00845 0
M  V30 2020 C 183.456 -0.886779 1.65885 0
M  V30 2021 O 182.814 -1.58768 0.875354 0
M  V30 2022 C 182.862 0.698994 3.5376 0
M  V30 2023 O 181.966 -0.255208 4.1161 0
M  V30 2024 H 181.307 0.203872 0.631927 0
M  V30 2025 H 183.837 1.19225 1.66272 0
M  V30 2026 H 183.847 0.597912 4.03595 0
M  V30 2027 H 182.522 1.72271 3.78544 0
M  V30 2028 H 181.099 -0.10784 3.72744 0
M  V30 2029 N 183.284 -1.43765 0.645699 0
M  V30 2030 C 184.53 -2.02197 0.156271 0
M  V30 2031 C 184.863 -1.50776 -1.22393 0
M  V30 2032 O 184.138 -0.697771 -1.81553 0
M  V30 2033 C 184.421 -3.59749 0.158872 0
M  V30 2034 C 184.274 -4.21419 1.57245 0
M  V30 2035 C 185.593 -4.37149 -0.50879 0
M  V30 2036 H 182.712 -0.734694 0.0582602 0
M  V30 2037 H 185.354 -1.71157 0.824951 0
M  V30 2038 H 183.504 -3.86325 -0.410525 0
M  V30 2039 H 185.176 -4.059 2.19186 0
M  V30 2040 H 183.419 -3.78356 2.122 0
M  V30 2041 H 184.09 -5.30482 1.52619 0
M  V30 2042 H 186.566 -4.16093 -0.024412 0
M  V30 2043 H 185.442 -5.4683 -0.476213 0
M  V30 2044 H 185.703 -4.12839 -1.58165 0
M  V30 2045 N 184.763 -0.387143 -1.52771 0
M  V30 2046 C 185.673 0.456442 -2.30117 0
M  V30 2047 C 186.689 1.07342 -1.36944 0
M  V30 2048 O 187.865 1.07971 -1.70013 0
M  V30 2049 C 184.93 1.56957 -3.09136 0
M  V30 2050 C 183.991 0.977916 -4.18014 0
M  V30 2051 C 183.224 2.038 -4.93256 0
M  V30 2052 O 183.447 3.25271 -4.68567 0
M  V30 2053 O 182.381 1.6565 -5.78657 0
M  V30 2054 H 186.207 -0.17359 -3.03203 0
M  V30 2055 H 183.792 -0.150919 -1.48636 0
M  V30 2056 H 185.674 2.21628 -3.58412 0
M  V30 2057 H 184.349 2.18461 -2.38865 0
M  V30 2058 H 183.256 0.294525 -3.72939 0
M  V30 2059 H 184.589 0.407128 -4.90513 0
M  V30 2060 N 186.241 1.57166 -0.116904 0
M  V30 2061 C 187.488 1.95123 0.541603 0
M  V30 2062 C 187.816 1.00006 1.6682 0
M  V30 2063 O 187.071 0.0235658 1.95686 0
M  V30 2064 C 187.37 3.39508 1.11664 0
M  V30 2065 C 187.036 4.50762 0.111606 0
M  V30 2066 C 185.698 4.80918 -0.164758 0
M  V30 2067 C 188.05 5.18036 -0.573438 0
M  V30 2068 C 185.378 5.75666 -1.13249 0
M  V30 2069 C 187.73 6.13824 -1.52978 0
M  V30 2070 C 186.394 6.42374 -1.81415 0
M  V30 2071 H 185.664 0.714005 0.198187 0
M  V30 2072 H 188.311 1.9048 -0.197365 0
M  V30 2073 H 186.616 3.40835 1.93232 0
M  V30 2074 H 188.313 3.66189 1.63422 0
M  V30 2075 H 184.903 4.27272 0.337192 0
M  V30 2076 H 189.087 4.94896 -0.373092 0
M  V30 2077 H 184.343 5.96092 -1.35958 0
M  V30 2078 H 188.517 6.65039 -2.06629 0
M  V30 2079 H 186.144 7.15599 -2.56557 0
M  V30 2080 N 187.719 -0.156864 1.56817 0
M  V30 2081 C 188.649 -1.19589 2.00551 0
M  V30 2082 C 189.63 -1.4536 0.883426 0
M  V30 2083 O 190.815 -1.56449 1.15054 0
M  V30 2084 C 187.945 -2.53143 2.37773 0
M  V30 2085 C 186.899 -2.41913 3.53075 0
M  V30 2086 C 186.225 -3.80088 3.76081 0
M  V30 2087 C 187.525 -1.91157 4.86062 0
M  V30 2088 H 189.219 -0.832293 2.87599 0
M  V30 2089 H 186.765 -0.398918 1.38364 0
M  V30 2090 H 188.718 -3.26047 2.66967 0
M  V30 2091 H 187.442 -2.91319 1.4765 0
M  V30 2092 H 186.101 -1.71462 3.24031 0
M  V30 2093 H 185.749 -4.15683 2.83225 0
M  V30 2094 H 185.449 -3.73439 4.53671 0
M  V30 2095 H 186.973 -4.54556 4.0769 0
M  V30 2096 H 188.387 -2.53846 5.14038 0
M  V30 2097 H 186.784 -1.95422 5.67389 0
M  V30 2098 H 187.854 -0.866673 4.77092 0
M  V30 2099 N 189.197 -1.51736 -0.425897 0
M  V30 2100 C 190.474 -1.55519 -1.1863 0
M  V30 2101 C 190.854 -0.326219 -2.08564 0
M  V30 2102 O 190.202 0.688012 -2.17896 0
M  V30 2103 C 190.412 -2.87521 -1.9782 0
M  V30 2104 C 191.76 -3.39899 -2.54468 0
M  V30 2105 O 192.784 -2.89148 -2.08019 0
M  V30 2106 O 191.643 -4.2848 -3.39215 0
M  V30 2107 H 188.737 -0.625739 -0.540721 0
M  V30 2108 H 191.283 -1.64055 -0.434038 0
M  V30 2109 H 190.055 -3.68422 -1.31836 0
M  V30 2110 H 189.678 -2.822 -2.80088 0
M  V30 2111 N 190.675 0.682077 -1.42076 0
M  V30 2112 C 191.903 1.47057 -1.4554 0
M  V30 2113 C 192.318 1.8869 -0.0645779 0
M  V30 2114 O 191.675 1.57666 0.919115 0
M  V30 2115 C 191.726 2.72442 -2.37609 0
M  V30 2116 O 191.447 2.32559 -3.71279 0
M  V30 2117 C 192.948 3.66069 -2.50017 0
M  V30 2118 H 190.168 0.452737 -0.495248 0
M  V30 2119 H 192.712 0.838695 -1.8651 0
M  V30 2120 H 190.867 3.31835 -1.9991 0
M  V30 2121 H 191.281 3.13475 -4.20516 0
M  V30 2122 H 192.755 4.50792 -3.18576 0
M  V30 2123 H 193.232 4.11476 -1.53572 0
M  V30 2124 H 193.838 3.12572 -2.88407 0
M  V30 2125 N 192.153 1.28127 0.917671 0
M  V30 2126 C 193.402 1.14432 1.66097 0
M  V30 2127 C 193.715 -0.307247 1.93172 0
M  V30 2128 O 194.921 -0.565259 2.65551 0
M  V30 2129 C 193.377 2.00015 2.99202 0
M  V30 2130 C 192.985 3.49889 2.79789 0
M  V30 2131 C 194.729 1.94996 3.77064 0
M  V30 2132 C 192.636 4.27636 4.08511 0
M  V30 2133 H 191.566 0.424662 0.62304 0
M  V30 2134 H 194.217 1.52628 1.01868 0
M  V30 2135 H 192.599 1.54672 3.64544 0
M  V30 2136 H 193.773 4.03162 2.23152 0
M  V30 2137 H 192.088 3.56392 2.15345 0
M  V30 2138 H 194.685 2.50354 4.72469 0
M  V30 2139 H 195.028 0.925819 4.05875 0
M  V30 2140 H 195.561 2.38287 3.18534 0
M  V30 2141 H 192.3 5.30615 3.84874 0
M  V30 2142 H 191.82 3.79137 4.64774 0
M  V30 2143 H 193.499 4.37346 4.76799 0
M  V30 2144 N 193.631 -1.12557 1.10312 0
M  V30 2145 C 194.878 -1.84038 0.844759 0
M  V30 2146 C 195.206 -1.84026 -0.629668 0
M  V30 2147 O 194.461 -1.28026 -1.48013 0
M  V30 2148 C 194.76 -3.31462 1.33669 0
M  V30 2149 C 194.426 -3.51647 2.82232 0
M  V30 2150 C 193.088 -3.56864 3.22802 0
M  V30 2151 C 195.44 -3.58867 3.77974 0
M  V30 2152 C 192.768 -3.66844 4.57867 0
M  V30 2153 C 195.12 -3.70375 5.1284 0
M  V30 2154 C 193.784 -3.73848 5.52986 0
M  V30 2155 H 193.054 -0.673444 0.309119 0
M  V30 2156 H 195.701 -1.32824 1.37949 0
M  V30 2157 H 194.006 -3.85091 0.721949 0
M  V30 2158 H 195.703 -3.85236 1.11329 0
M  V30 2159 H 192.293 -3.48249 2.49842 0
M  V30 2160 H 196.477 -3.54107 3.47738 0
M  V30 2161 H 191.733 -3.67804 4.88396 0
M  V30 2162 H 195.907 -3.74904 5.86873 0
M  V30 2163 H 193.534 -3.81333 6.57639 0
M  V30 2164 N 195.109 -0.891671 -1.2995 0
M  V30 2165 C 196.356 -0.513501 -1.95881 0
M  V30 2166 C 196.684 0.938655 -1.70351 0
M  V30 2167 O 195.939 1.67936 -1.00478 0
M  V30 2168 C 196.238 -0.742868 -3.49594 0
M  V30 2169 C 195.904 -2.17114 -3.95186 0
M  V30 2170 C 194.566 -2.56169 -4.07346 0
M  V30 2171 C 196.918 -3.10162 -4.18866 0
M  V30 2172 C 194.246 -3.87469 -4.4055 0
M  V30 2173 C 196.598 -4.41001 -4.53542 0
M  V30 2174 C 195.262 -4.79941 -4.63911 0
M  V30 2175 H 194.532 -0.187903 -0.71678 0
M  V30 2176 H 197.179 -1.1288 -1.54694 0
M  V30 2177 H 195.484 -0.044586 -3.91775 0
M  V30 2178 H 197.181 -0.429767 -3.9869 0
M  V30 2179 H 193.771 -1.85801 -3.86233 0
M  V30 2180 H 197.955 -2.81206 -4.08946 0
M  V30 2181 H 193.211 -4.17371 -4.46779 0
M  V30 2182 H 197.385 -5.13133 -4.70815 0
M  V30 2183 H 195.012 -5.81719 -4.89395 0
M  V30 2184 N 196.587 1.43421 -0.653314 0
M  V30 2185 C 197.833 2.02111 -0.166992 0
M  V30 2186 C 198.166 1.51423 1.21592 0
M  V30 2187 O 197.441 0.707389 1.8118 0
M  V30 2188 C 197.724 3.5966 -0.177948 0
M  V30 2189 C 197.577 4.20579 -1.59478 0
M  V30 2190 C 198.896 4.37413 0.4856 0
M  V30 2191 H 196.015 0.734374 -0.0621557 0
M  V30 2192 H 198.657 1.70717 -0.834016 0
M  V30 2193 H 196.807 3.86537 0.390032 0
M  V30 2194 H 198.479 4.04732 -2.21336 0
M  V30 2195 H 196.722 3.77226 -2.14204 0
M  V30 2196 H 197.393 5.29665 -1.5543 0
M  V30 2197 H 199.869 4.161 0.00234528 0
M  V30 2198 H 198.745 5.47075 0.447207 0
M  V30 2199 H 199.006 4.13672 1.55974 0
M  V30 2200 N 198.065 0.39524 1.52563 0
M  V30 2201 C 198.995 -0.428384 2.29537 0
M  V30 2202 C 199.976 -1.05831 1.33169 0
M  V30 2203 O 201.161 -1.06995 1.62067 0
M  V30 2204 C 198.291 -1.55274 3.10656 0
M  V30 2205 C 197.245 -1.04855 4.14957 0
M  V30 2206 C 196.571 -2.26543 4.84337 0
M  V30 2207 C 197.871 -0.112324 5.22179 0
M  V30 2208 H 199.565 0.213867 2.98635 0
M  V30 2209 H 197.111 0.104298 1.43622 0
M  V30 2210 H 199.064 -2.1358 3.63265 0
M  V30 2211 H 197.788 -2.22266 2.39302 0
M  V30 2212 H 196.447 -0.487985 3.63338 0
M  V30 2213 H 196.095 -2.92059 4.09525 0
M  V30 2214 H 195.795 -1.93466 5.54837 0
M  V30 2215 H 197.319 -2.85481 5.39753 0
M  V30 2216 H 198.733 -0.603752 5.70112 0
M  V30 2217 H 197.13 0.128968 5.99961 0
M  V30 2218 H 198.2 0.837052 4.77621 0
M  V30 2219 N 199.544 -1.57102 0.125237 0
M  V30 2220 C 200.96 -1.57915 -0.231322 0
M  V30 2221 C 201.16 -1.13833 -1.66266 0
M  V30 2222 O 200.216 -0.828581 -2.38518 0
M  V30 2223 C 201.529 -3.00699 0.00766489 0
M  V30 2224 C 203.077 -3.12947 -0.0577483 0
M  V30 2225 C 203.552 -4.57742 0.153626 0
M  V30 2226 N 205.043 -4.63092 0.0998073 0
M  V30 2227 C 205.778 -5.72905 0.238174 0
M  V30 2228 N 205.274 -6.91445 0.433057 0
M  V30 2229 N 207.067 -5.6182 0.177308 0
M  V30 2230 H 199.218 -1.84055 1.06007 0
M  V30 2231 H 201.481 -0.850905 0.417929 0
M  V30 2232 H 201.187 -3.3726 0.997431 0
M  V30 2233 H 201.061 -3.70236 -0.721452 0
M  V30 2234 H 203.448 -2.7624 -1.03804 0
M  V30 2235 H 203.529 -2.4594 0.70335 0
M  V30 2236 H 203.173 -4.95149 1.13092 0
M  V30 2237 H 203.103 -5.22848 -0.627534 0
M  V30 2238 H 205.594 -3.77871 -0.047051 0
M  V30 2239 H 205.907 -7.70985 0.529332 0
M  V30 2240 H 204.252 -6.93415 0.469109 0
M  V30 2241 H 207.443 -4.68093 0.0259748 0
M  V30 2242 H 207.616 -6.47357 0.288582 0
M  V30 2243 N 201.022 0.148545 -1.56898 0
M  V30 2244 C 201.969 1.18345 -1.98149 0
M  V30 2245 C 202.939 1.42772 -0.848848 0
M  V30 2246 O 204.124 1.55132 -1.11079 0
M  V30 2247 C 201.264 2.51231 -2.36594 0
M  V30 2248 C 200.377 2.33991 -3.63142 0
M  V30 2249 C 199.512 3.59902 -3.90697 0
M  V30 2250 C 198.551 3.37692 -5.1052 0
M  V30 2251 N 197.688 4.5573 -5.34092 0
M  V30 2252 H 202.528 0.82467 -2.86362 0
M  V30 2253 H 200.065 0.395756 -1.41676 0
M  V30 2254 H 202.023 3.28713 -2.56912 0
M  V30 2255 H 200.653 2.85059 -1.51463 0
M  V30 2256 H 199.705 1.47572 -3.50609 0
M  V30 2257 H 201.017 2.13539 -4.5078 0
M  V30 2258 H 200.171 4.45813 -4.11505 0
M  V30 2259 H 198.91 3.83357 -3.01477 0
M  V30 2260 H 197.915 2.5017 -4.89587 0
M  V30 2261 H 199.14 3.15637 -6.0129 0
M  V30 2262 H 197.086 4.79361 -4.47827 0
M  V30 2263 H 197.003 4.38274 -6.15996 0
M  V30 2264 H 198.271 5.42858 -5.59397 0
M  V30 2265 N 202.5 1.5196 0.417844 0
M  V30 2266 C 203.447 1.74678 1.50852 0
M  V30 2267 C 204.417 0.588947 1.55308 0
M  V30 2268 O 205.602 0.825544 1.72016 0
M  V30 2269 C 202.742 1.89544 2.88387 0
M  V30 2270 C 201.855 3.17166 2.93309 0
M  V30 2271 C 200.99 3.22513 4.22088 0
M  V30 2272 C 200.029 4.44372 4.20951 0
M  V30 2273 N 199.166 4.47161 5.41287 0
M  V30 2274 H 204.006 2.67768 1.30783 0
M  V30 2275 H 201.543 1.32689 0.63498 0
M  V30 2276 H 203.501 1.96146 3.68216 0
M  V30 2277 H 202.131 0.998424 3.06971 0
M  V30 2278 H 201.183 3.19778 2.06024 0
M  V30 2279 H 202.495 4.07021 2.88332 0
M  V30 2280 H 201.649 3.28139 5.10303 0
M  V30 2281 H 200.388 2.30581 4.29748 0
M  V30 2282 H 199.393 4.38902 3.31127 0
M  V30 2283 H 200.618 5.3759 4.14938 0
M  V30 2284 H 198.564 3.58108 5.49632 0
M  V30 2285 H 198.481 5.3085 5.3827 0
M  V30 2286 H 199.749 4.57005 6.3148 0
M  V30 2287 N 203.978 -0.674533 1.42435 0
M  V30 2288 C 205.206 -1.46283 1.46317 0
M  V30 2289 C 205.621 -1.88653 0.0745836 0
M  V30 2290 O 204.978 -1.58151 -0.91074 0
M  V30 2291 C 205.029 -2.71178 2.3905 0
M  V30 2292 O 204.75 -2.30586 3.72507 0
M  V30 2293 C 206.251 -3.64738 2.51955 0
M  V30 2294 H 203.471 -0.450104 0.497642 0
M  V30 2295 H 206.015 -0.828792 1.86953 0
M  V30 2296 H 204.17 -3.3077 2.01667 0
M  V30 2297 H 204.584 -3.11241 4.22172 0
M  V30 2298 H 206.058 -4.49096 3.20962 0
M  V30 2299 H 206.535 -4.10656 1.55752 0
M  V30 2300 H 207.141 -3.11038 2.90061 0
M  V30 2301 N 205.456 -1.28612 -0.910864 0
M  V30 2302 C 206.681 -1.1891 -1.69927 0
M  V30 2303 C 207.106 0.248372 -1.86453 0
M  V30 2304 O 206.464 1.17961 -1.37676 0
M  V30 2305 C 206.512 -1.89578 -3.06745 0
M  V30 2306 O 205.616 -1.20521 -3.94396 0
M  V30 2307 H 204.957 -0.412632 -0.520222 0
M  V30 2308 H 207.487 -1.69985 -1.1387 0
M  V30 2309 H 207.497 -1.97597 -3.56958 0
M  V30 2310 H 206.172 -2.94136 -2.94035 0
M  V30 2311 H 204.749 -1.20684 -3.52831 0
M  V30 2312 N 206.934 1.1197 -1.10907 0
M  V30 2313 C 207.866 2.17592 -0.720175 0
M  V30 2314 C 208.879 1.60938 0.245495 0
M  V30 2315 O 210.068 1.78476 0.0292245 0
M  V30 2316 C 207.168 3.38873 -0.0427917 0
M  V30 2317 C 206.341 4.25006 -1.03388 0
M  V30 2318 C 205.4 5.24774 -0.387075 0
M  V30 2319 O 204.426 5.59631 -1.03934 0
M  V30 2320 N 205.628 5.74208 0.852407 0
M  V30 2321 H 208.393 2.51567 -1.62893 0
M  V30 2322 H 205.954 1.27439 -0.998543 0
M  V30 2323 H 207.946 4.02703 0.401501 0
M  V30 2324 H 206.516 3.03007 0.768456 0
M  V30 2325 H 205.736 3.57716 -1.65629 0
M  V30 2326 H 207.024 4.79397 -1.70458 0
M  V30 2327 H 206.422 5.48062 1.40161 0
M  V30 2328 H 204.979 6.39901 1.23977 0
M  V30 2329 N 208.412 0.89855 1.29475 0
M  V30 2330 C 209.661 0.519863 1.94885 0
M  V30 2331 C 209.974 -0.9383 1.71625 0
M  V30 2332 O 211.18 -1.42445 2.31131 0
M  V30 2333 C 209.636 0.878836 3.49005 0
M  V30 2334 C 209.244 2.35569 3.81066 0
M  V30 2335 C 210.988 0.570004 4.20656 0
M  V30 2336 C 208.895 2.65558 5.28425 0
M  V30 2337 H 207.825 0.190692 0.729488 0
M  V30 2338 H 210.476 1.09539 1.47219 0
M  V30 2339 H 208.858 0.232253 3.95318 0
M  V30 2340 H 210.032 3.04773 3.45616 0
M  V30 2341 H 208.347 2.63343 3.22552 0
M  V30 2342 H 210.944 0.770925 5.29113 0
M  V30 2343 H 211.287 -0.491404 4.1339 0
M  V30 2344 H 211.82 1.17438 3.8007 0
M  V30 2345 H 208.559 3.70493 5.40754 0
M  V30 2346 H 208.079 2.00977 5.65127 0
M  V30 2347 H 209.758 2.51765 5.96006 0
M  V30 2348 N 209.89 -1.43072 0.660911 0
M  V30 2349 C 211.118 -2.06067 0.185422 0
M  V30 2350 C 211.533 -1.49582 -1.15198 0
M  V30 2351 O 210.89 -0.630134 -1.71276 0
M  V30 2352 C 210.941 -3.61371 0.0966523 0
M  V30 2353 O 210.662 -4.15758 1.38119 0
M  V30 2354 C 212.163 -4.41455 -0.403996 0
M  V30 2355 H 209.383 -0.664459 0.0934604 0
M  V30 2356 H 211.927 -1.83447 0.90373 0
M  V30 2357 H 210.082 -3.8315 -0.572259 0
M  V30 2358 H 210.496 -5.09499 1.24542 0
M  V30 2359 H 211.97 -5.50437 -0.415045 0
M  V30 2360 H 212.447 -4.15036 -1.43674 0
M  V30 2361 H 213.053 -4.24663 0.232691 0
M  V30 2362 N 211.368 -0.403325 -1.52352 0
M  V30 2363 C 212.615 0.174347 -2.01748 0
M  V30 2364 C 212.943 1.45636 -1.2892 0
M  V30 2365 O 212.198 1.9193 -0.382258 0
M  V30 2366 C 212.497 0.474665 -3.54234 0
M  V30 2367 C 212.163 -0.717458 -4.45155 0
M  V30 2368 C 210.825 -1.04447 -4.69728 0
M  V30 2369 C 213.177 -1.51432 -4.98716 0
M  V30 2370 C 210.505 -2.16963 -5.45109 0
M  V30 2371 C 212.857 -2.6302 -5.75329 0
M  V30 2372 C 211.521 -2.96213 -5.98175 0
M  V30 2373 H 210.791 0.0637981 -0.738248 0
M  V30 2374 H 213.438 -0.543553 -1.83624 0
M  V30 2375 H 211.743 1.27406 -3.70506 0
M  V30 2376 H 213.44 0.934496 -3.89959 0
M  V30 2377 H 210.03 -0.452596 -4.26204 0
M  V30 2378 H 214.214 -1.27491 -4.79645 0
M  V30 2379 H 209.47 -2.43034 -5.61021 0
M  V30 2380 H 213.644 -3.25158 -6.15829 0
M  V30 2381 H 211.271 -3.83516 -6.56368 0
M  V30 2382 N 212.846 1.57033 -0.133567 0
M  V30 2383 C 213.776 2.1909 0.807567 0
M  V30 2384 C 214.757 1.13517 1.26681 0
M  V30 2385 O 215.942 1.41809 1.32679 0
M  V30 2386 C 213.072 2.80188 2.05212 0
M  V30 2387 C 212.026 3.91471 1.73015 0
M  V30 2388 C 211.352 4.39443 3.04622 0
M  V30 2389 C 212.652 5.12886 0.987168 0
M  V30 2390 H 214.346 2.97988 0.290403 0
M  V30 2391 H 211.892 1.43335 0.138239 0
M  V30 2392 H 213.845 3.22264 2.71521 0
M  V30 2393 H 212.569 1.98601 2.59278 0
M  V30 2394 H 211.228 3.49993 1.0909 0
M  V30 2395 H 210.876 3.54695 3.56651 0
M  V30 2396 H 210.576 5.14495 2.83847 0
M  V30 2397 H 212.1 4.8418 3.72024 0
M  V30 2398 H 213.514 5.51891 1.55208 0
M  V30 2399 H 211.911 5.93615 0.87985 0
M  V30 2400 H 212.981 4.84894 -0.0235286 0
M  V30 2401 N 214.325 -0.140222 1.56975 0
M  V30 2402 C 215.275 -1.17827 1.95194 0
M  V30 2403 C 216.259 -1.38195 0.824075 0
M  V30 2404 O 217.451 -1.39643 1.0876 0
M  V30 2405 C 214.58 -2.51024 2.34184 0
M  V30 2406 C 213.666 -2.3422 3.53556 0
M  V30 2407 N 214.057 -1.87185 4.69889 0
M  V30 2408 C 212.355 -2.64949 3.58773 0
M  V30 2409 C 213.056 -1.83586 5.5197 0
M  V30 2410 N 212.032 -2.2715 4.93866 0
M  V30 2411 H 215.834 -0.806817 2.82609 0
M  V30 2412 H 213.348 -0.348208 1.58623 0
M  V30 2413 H 215.345 -3.26074 2.59772 0
M  V30 2414 H 214.005 -2.88945 1.48124 0
M  V30 2415 H 215.016 -1.57048 4.93514 0
M  V30 2416 H 211.693 -3.067 2.8327 0
M  V30 2417 H 213.083 -1.48655 6.55249 0
M  V30 2418 N 215.803 -1.52179 -0.40978 0
M  V30 2419 C 217.049 -1.66453 -1.15851 0
M  V30 2420 C 217.382 -0.392972 -1.90182 0
M  V30 2421 O 216.657 0.608579 -1.84734 0
M  V30 2422 C 216.94 -2.88612 -2.15349 0
M  V30 2423 C 216.793 -4.25815 -1.44918 0
M  V30 2424 C 218.112 -3.06294 -3.16026 0
M  V30 2425 H 215.231 -0.60575 -0.419805 0
M  V30 2426 H 217.873 -1.84732 -0.444314 0
M  V30 2427 H 216.023 -2.73158 -2.76255 0
M  V30 2428 H 217.695 -4.52995 -0.871365 0
M  V30 2429 H 215.938 -4.27247 -0.751159 0
M  V30 2430 H 216.609 -5.07337 -2.17516 0
M  V30 2431 H 219.085 -3.20641 -2.65195 0
M  V30 2432 H 217.961 -3.93283 -3.8291 0
M  V30 2433 H 218.222 -2.19579 -3.83715 0
M  V30 2434 N 217.281 0.66697 -1.42791 0
M  V30 2435 C 218.511 1.45294 -1.46878 0
M  V30 2436 C 218.919 1.89027 -0.0809861 0
M  V30 2437 O 218.262 1.59219 0.916246 0
M  V30 2438 C 218.324 2.72908 -2.34012 0
M  V30 2439 C 217.988 2.51203 -3.81767 0
M  V30 2440 C 218.985 2.15302 -4.73224 0
M  V30 2441 C 216.67 2.65954 -4.26115 0
M  V30 2442 C 218.664 1.94431 -6.07022 0
M  V30 2443 C 216.351 2.44699 -5.59969 0
M  V30 2444 C 217.349 2.08992 -6.5024 0
M  V30 2445 O 217.037 1.87948 -7.81621 0
M  V30 2446 H 216.769 0.453306 -0.501487 0
M  V30 2447 H 219.323 0.826232 -1.88049 0
M  V30 2448 H 217.553 3.38089 -1.87703 0
M  V30 2449 H 219.242 3.34816 -2.29462 0
M  V30 2450 H 220.008 2.03495 -4.40244 0
M  V30 2451 H 215.887 2.92724 -3.56137 0
M  V30 2452 H 219.431 1.66484 -6.77443 0
M  V30 2453 H 215.328 2.56105 -5.9252 0
M  V30 2454 H 216.096 2.02483 -7.93059 0
M  V30 2455 N 218.759 1.29093 0.90403 0
M  V30 2456 C 219.709 1.10482 1.99443 0
M  V30 2457 C 220.693 0.0255401 1.6088 0
M  V30 2458 O 221.885 0.24677 1.75271 0
M  V30 2459 C 219.014 0.778882 3.34348 0
M  V30 2460 C 218.1 1.89749 3.79284 0
M  V30 2461 N 218.491 3.14045 3.96497 0
M  V30 2462 C 216.789 1.78955 4.08523 0
M  V30 2463 C 217.49 3.86996 4.34292 0
M  V30 2464 N 216.466 3.14909 4.43095 0
M  V30 2465 H 220.268 2.04778 2.10815 0
M  V30 2466 H 217.782 1.20155 1.09255 0
M  V30 2467 H 219.779 0.62661 4.12164 0
M  V30 2468 H 218.439 -0.156205 3.24324 0
M  V30 2469 H 219.45 3.49548 3.82148 0
M  V30 2470 H 216.127 0.926886 4.07081 0
M  V30 2471 H 217.517 4.93941 4.55491 0
M  V30 2472 N 220.237 -1.11381 1.11499 0
M  V30 2473 C 221.187 -2.15555 0.74298 0
M  V30 2474 C 222.171 -1.58894 -0.253276 0
M  V30 2475 O 223.363 -1.76897 -0.0602918 0
M  V30 2476 C 220.492 -3.42782 0.188481 0
M  V30 2477 C 219.578 -4.064 1.21244 0
M  V30 2478 N 219.969 -4.44864 2.40685 0
M  V30 2479 C 218.267 -4.3333 1.05552 0
M  V30 2480 C 218.968 -4.94715 3.05994 0
M  V30 2481 N 217.944 -4.90909 2.33472 0
M  V30 2482 H 221.746 -2.43074 1.65203 0
M  V30 2483 H 219.26 -1.28401 0.994329 0
M  V30 2484 H 221.257 -4.16789 -0.0961693 0
M  V30 2485 H 219.917 -3.16727 -0.715149 0
M  V30 2486 H 220.928 -4.36876 2.78136 0
M  V30 2487 H 217.605 -4.1698 0.208372 0
M  V30 2488 H 218.995 -5.34103 4.07656 0
M  V30 2489 N 221.715 -0.905404 -1.28997 0
M  V30 2490 C 222.678 -0.392253 -2.25819 0
M  V30 2491 C 223.678 0.476753 -1.5357 0
M  V30 2492 O 224.868 0.280994 -1.71919 0
M  V30 2493 C 222 0.438588 -3.38067 0
M  V30 2494 H 223.193 -1.24743 -2.72725 0
M  V30 2495 H 220.746 -0.684051 -1.40536 0
M  V30 2496 H 221.481 1.31352 -2.96508 0
M  V30 2497 H 221.266 -0.184167 -3.91667 0
M  V30 2498 H 222.756 0.78873 -4.10084 0
M  V30 2499 N 223.193 1.4272 -0.668489 0
M  V30 2500 C 224.418 2.06484 -0.194758 0
M  V30 2501 C 224.843 1.49862 1.13679 0
M  V30 2502 O 224.201 0.614582 1.70565 0
M  V30 2503 C 224.249 3.60353 -0.133546 0
M  V30 2504 O 223.353 4.02464 0.899806 0
M  V30 2505 H 222.694 0.656137 -0.10188 0
M  V30 2506 H 225.224 1.82964 -0.915722 0
M  V30 2507 H 225.234 4.07976 0.0447041 0
M  V30 2508 H 223.909 4.00938 -1.1055 0
M  V30 2509 H 222.486 3.66402 0.693109 0
M  V30 2510 N 224.671 0.411399 1.52136 0
M  V30 2511 C 225.604 -0.457614 2.23565 0
M  V30 2512 C 226.582 -1.04613 1.24478 0
M  V30 2513 O 227.766 -1.09356 1.53536 0
M  V30 2514 C 224.893 -1.6354 2.96602 0
M  V30 2515 C 223.939 -1.17005 4.10137 0
M  V30 2516 S 224.772 -0.13333 5.35334 0
M  V30 2517 C 225.928 -1.31638 6.119 0
M  V30 2518 H 226.161 0.148883 2.96927 0
M  V30 2519 H 223.694 0.195713 1.53155 0
M  V30 2520 H 225.652 -2.31074 3.39286 0
M  V30 2521 H 224.313 -2.21324 2.22878 0
M  V30 2522 H 223.506 -2.05005 4.60422 0
M  V30 2523 H 223.108 -0.573319 3.6958 0
M  V30 2524 H 225.4 -2.23957 6.39413 0
M  V30 2525 H 226.343 -0.854014 7.02931 0
M  V30 2526 H 226.751 -1.54321 5.42997 0
M  V30 2527 N 226.149 -1.5696 0.141893 0
M  V30 2528 C 227.396 -1.9596 -0.510492 0
M  V30 2529 C 227.724 -1.02648 -1.65208 0
M  V30 2530 O 226.979 -0.0546947 -1.95624 0
M  V30 2531 C 227.278 -3.41242 -1.06249 0
M  V30 2532 C 226.944 -4.50882 -0.0398791 0
M  V30 2533 C 225.606 -4.80595 0.241247 0
M  V30 2534 C 227.958 -5.17058 0.65578 0
M  V30 2535 C 225.286 -5.73792 1.22393 0
M  V30 2536 C 227.638 -6.11313 1.62724 0
M  V30 2537 C 226.302 -6.39407 1.91612 0
M  V30 2538 H 225.572 -0.717068 -0.186802 0
M  V30 2539 H 228.219 -1.90142 0.227643 0
M  V30 2540 H 226.524 -3.43866 -1.87785 0
M  V30 2541 H 228.221 -3.68742 -1.57576 0
M  V30 2542 H 224.811 -4.27754 -0.269174 0
M  V30 2543 H 228.995 -4.94239 0.451779 0
M  V30 2544 H 224.251 -5.93853 1.45424 0
M  V30 2545 H 228.425 -6.61668 2.17183 0
M  V30 2546 H 226.052 -7.11427 2.6791 0
M  V30 2547 N 227.627 0.131896 -1.57047 0
M  V30 2548 C 228.575 1.18146 -2.0036 0
M  V30 2549 C 229.569 1.43614 -0.898406 0
M  V30 2550 O 230.775 1.43729 -1.08361 0
M  V30 2551 H 227.15 0.398042 -0.638018 0
M  V30 2552 H 229.121 0.789564 -2.87765 0
M  V30 2553 C 227.87 2.50341 -2.41298 0
M  V30 2554 H 227.193 2.31578 -3.25902 0
M  V30 2555 H 228.633 3.22371 -2.75414 0
M  V30 2556 C 227.092 3.11984 -1.27153 0
M  V30 2557 O 227.622 3.97484 -0.580459 0
M  V30 2558 N 225.828 2.71662 -1.03189 0
M  V30 2559 H 225.375 2.02231 -1.59564 0
M  V30 2560 H 225.333 3.13238 -0.270077 0
M  V30 2561 N 229.106 1.52395 0.401703 0
M  V30 2562 C 230.355 1.66044 1.14509 0
M  V30 2563 C 230.668 0.400216 1.91462 0
M  V30 2564 O 231.874 0.416632 2.68284 0
M  V30 2565 C 230.33 2.93388 2.0845 0
M  V30 2566 C 229.938 4.26545 1.36978 0
M  V30 2567 C 231.682 3.16402 2.83001 0
M  V30 2568 C 229.589 5.45007 2.29611 0
M  V30 2569 H 228.519 0.618562 0.431158 0
M  V30 2570 H 231.17 1.78886 0.40892 0
M  V30 2571 H 229.552 2.74263 2.8565 0
M  V30 2572 H 230.726 4.56179 0.650916 0
M  V30 2573 H 229.041 4.09692 0.74438 0
M  V30 2574 H 231.638 4.02085 3.52465 0
M  V30 2575 H 231.981 2.30943 3.46368 0
M  V30 2576 H 232.514 3.36034 2.12898 0
M  V30 2577 H 229.253 6.32835 1.70879 0
M  V30 2578 H 228.773 5.19702 2.9945 0
M  V30 2579 H 230.452 5.7838 2.89974 0
M  V30 2580 N 230.584 -0.659388 1.43143 0
M  V30 2581 C 231.83 -1.41984 1.45644 0
M  V30 2582 C 232.185 -1.92245 0.0771718 0
M  V30 2583 O 231.478 -1.68976 -0.903205 0
M  V30 2584 C 231.672 -2.62206 2.42864 0
M  V30 2585 C 231.501 -2.23711 3.90107 0
M  V30 2586 C 230.271 -2.12332 4.58523 0
M  V30 2587 C 232.469 -1.84384 4.80112 0
M  V30 2588 N 230.451 -1.67102 5.9072 0
M  V30 2589 C 231.822 -1.5019 6.01534 0
M  V30 2590 C 233.877 -1.71512 4.67427 0
M  V30 2591 C 232.58 -1.04414 7.11681 0
M  V30 2592 C 234.606 -1.27142 5.77572 0
M  V30 2593 C 233.968 -0.938808 6.98116 0
M  V30 2594 H 230.067 -0.515448 0.588079 0
M  V30 2595 H 232.651 -0.759409 1.79279 0
M  V30 2596 H 230.822 -3.25917 2.11265 0
M  V30 2597 H 232.554 -3.28877 2.35843 0
M  V30 2598 H 229.309 -2.31893 4.12944 0
M  V30 2599 H 229.733 -1.46866 6.60878 0
M  V30 2600 H 234.375 -1.95868 3.74694 0
M  V30 2601 H 232.093 -0.788061 8.04248 0
M  V30 2602 H 235.679 -1.17681 5.69774 0
M  V30 2603 H 234.559 -0.6007 7.81896 0
M  V30 2604 N 232.062 -1.29571 -0.897171 0
M  V30 2605 C 233.308 -1.18873 -1.65048 0
M  V30 2606 C 233.663 0.256707 -1.9068 0
M  V30 2607 O 232.956 1.18202 -1.50794 0
M  V30 2608 C 233.15 -1.9382 -3.00281 0
M  V30 2609 C 232.979 -3.45503 -2.8785 0
M  V30 2610 C 231.749 -4.14856 -2.88483 0
M  V30 2611 C 233.947 -4.40956 -2.64693 0
M  V30 2612 N 231.929 -5.52886 -2.66815 0
M  V30 2613 C 233.3 -5.66464 -2.5203 0
M  V30 2614 C 235.355 -4.3069 -2.49821 0
M  V30 2615 C 234.058 -6.82871 -2.26008 0
M  V30 2616 C 236.084 -5.46852 -2.25182 0
M  V30 2617 C 235.446 -6.71333 -2.13286 0
M  V30 2618 H 231.545 -0.489998 -0.609447 0
M  V30 2619 H 234.129 -1.63431 -1.05822 0
M  V30 2620 H 232.3 -1.51671 -3.57562 0
M  V30 2621 H 234.032 -1.75366 -3.64731 0
M  V30 2622 H 230.787 -3.66579 -2.99861 0
M  V30 2623 H 231.211 -6.25487 -2.59027 0
M  V30 2624 H 235.853 -3.35141 -2.5776 0
M  V30 2625 H 233.571 -7.78473 -2.16806 0
M  V30 2626 H 237.157 -5.40809 -2.14515 0
M  V30 2627 H 236.037 -7.59701 -1.94485 0
M  V30 2628 N 233.54 1.10788 -1.12088 0
M  V30 2629 C 234.78 1.84297 -0.883974 0
M  V30 2630 C 235.144 1.83036 0.579797 0
M  V30 2631 O 236.345 2.52061 0.933734 0
M  V30 2632 C 234.616 3.27173 -1.43849 0
M  V30 2633 S 236.175 4.17853 -1.33957 0
M  V30 2634 H 232.993 0.635433 -0.318977 0
M  V30 2635 H 235.595 1.33341 -1.4297 0
M  V30 2636 H 234.299 3.25658 -2.49749 0
M  V30 2637 H 233.83 3.83198 -0.890096 0
M  V30 2638 H 235.845 4.95239 -0.308603 0
M  V30 2639 N 235.018 0.912232 1.28515 0
M  V30 2640 C 236.264 0.545405 1.95328 0
M  V30 2641 C 236.597 -0.908313 1.71649 0
M  V30 2642 O 235.872 -1.64575 1.03659 0
M  V30 2643 C 236.155 0.853483 3.4984 0
M  V30 2644 C 236.008 2.35982 3.82926 0
M  V30 2645 C 237.327 0.348589 4.38717 0
M  V30 2646 H 234.446 0.199626 0.709449 0
M  V30 2647 H 237.088 1.1412 1.5191 0
M  V30 2648 H 235.238 0.34643 3.86952 0
M  V30 2649 H 236.91 2.93738 3.55691 0
M  V30 2650 H 235.153 2.81543 3.30024 0
M  V30 2651 H 235.824 2.52593 4.90816 0
M  V30 2652 H 238.3 0.78294 4.08668 0
M  V30 2653 H 237.176 0.593242 5.45685 0
M  V30 2654 H 237.437 -0.751049 4.35674 0
M  V30 2655 N 236.496 -1.42363 0.676048 0
M  V30 2656 C 237.426 -2.33497 0.0124832 0
M  V30 2657 C 238.407 -1.50748 -0.787981 0
M  V30 2658 O 239.592 -1.79346 -0.744884 0
M  V30 2659 C 236.722 -3.34377 -0.938582 0
M  V30 2660 C 235.676 -4.27289 -0.246622 0
M  V30 2661 C 235.002 -5.18386 -1.31071 0
M  V30 2662 C 236.302 -5.14916 0.875125 0
M  V30 2663 H 237.996 -2.89233 0.773593 0
M  V30 2664 H 235.542 -1.39073 0.37346 0
M  V30 2665 H 237.495 -3.97044 -1.41188 0
M  V30 2666 H 236.219 -2.76947 -1.73113 0
M  V30 2667 H 234.878 -3.66018 0.206456 0
M  V30 2668 H 234.526 -4.57282 -2.09528 0
M  V30 2669 H 234.226 -5.81378 -0.852839 0
M  V30 2670 H 235.75 -5.83929 -1.78492 0
M  V30 2671 H 237.164 -5.71262 0.482983 0
M  V30 2672 H 235.561 -5.86747 1.25887 0
M  V30 2673 H 236.631 -4.53242 1.72335 0
M  V30 2674 N 237.974 -0.419461 -1.51915 0
M  V30 2675 C 238.922 0.415502 -2.28859 0
M  V30 2676 C 239.916 1.03674 -1.3397 0
M  V30 2677 O 241.122 0.973757 -1.51387 0
M  V30 2678 H 237.497 0.152786 -0.736315 0
M  V30 2679 H 239.468 -0.254531 -2.97312 0
M  V30 2680 C 238.217 1.51425 -3.12995 0
M  V30 2681 H 237.54 1.04556 -3.85886 0
M  V30 2682 H 238.98 2.07208 -3.6992 0
M  V30 2683 C 237.439 2.48745 -2.27217 0
M  V30 2684 O 237.969 3.52871 -1.9195 0
M  V30 2685 N 236.175 2.19202 -1.90785 0
M  V30 2686 H 235.722 1.34556 -2.19664 0
M  V30 2687 H 235.68 2.84561 -1.33687 0
M  V30 2688 N 239.452 1.56882 -0.150215 0
M  V30 2689 C 240.698 1.97299 0.494427 0
M  V30 2690 C 241.053 1.0338 1.62266 0
M  V30 2691 O 240.346 0.0694497 1.91474 0
M  V30 2692 C 240.54 3.41801 1.04437 0
M  V30 2693 C 240.369 4.49691 -0.0290451 0
M  V30 2694 C 239.139 5.03095 -0.47156 0
M  V30 2695 C 241.337 5.07693 -0.821703 0
M  V30 2696 N 239.319 5.94593 -1.52749 0
M  V30 2697 C 240.69 5.95431 -1.72805 0
M  V30 2698 C 242.745 4.90256 -0.869134 0
M  V30 2699 C 241.448 6.67599 -2.67777 0
M  V30 2700 C 243.474 5.63127 -1.8067 0
M  V30 2701 C 242.836 6.50576 -2.70057 0
M  V30 2702 H 238.935 0.76755 0.149639 0
M  V30 2703 H 241.519 1.93145 -0.24556 0
M  V30 2704 H 239.69 3.46541 1.75396 0
M  V30 2705 H 241.422 3.69272 1.6559 0
M  V30 2706 H 238.177 4.73543 -0.0732101 0
M  V30 2707 H 238.601 6.45047 -2.05531 0
M  V30 2708 H 243.243 4.22363 -0.192134 0
M  V30 2709 H 240.961 7.34717 -3.36476 0
M  V30 2710 H 244.547 5.51629 -1.84924 0
M  V30 2711 H 243.427 7.05974 -3.41424 0
M  V30 2712 N 240.93 -0.123565 1.57115 0
M  V30 2713 C 242.179 -0.830704 1.83799 0
M  V30 2714 C 242.492 -1.81259 0.735158 0
M  V30 2715 O 243.698 -2.56558 0.888278 0
M  V30 2716 C 242.154 -1.52802 3.25852 0
M  V30 2717 C 241.762 -0.587356 4.44133 0
M  V30 2718 C 243.506 -2.22056 3.61789 0
M  V30 2719 C 241.413 -1.28764 5.77212 0
M  V30 2720 H 240.343 -0.313967 0.685522 0
M  V30 2721 H 242.994 -0.0834359 1.8331 0
M  V30 2722 H 241.376 -2.32175 3.20797 0
M  V30 2723 H 242.55 0.172829 4.60476 0
M  V30 2724 H 240.865 -0.00201892 4.164 0
M  V30 2725 H 243.462 -2.75131 4.58483 0
M  V30 2726 H 243.805 -2.99644 2.88997 0
M  V30 2727 H 244.338 -1.49576 3.68608 0
M  V30 2728 H 241.077 -0.55314 6.53162 0
M  V30 2729 H 240.597 -2.01995 5.64764 0
M  V30 2730 H 242.276 -1.8221 6.20813 0
M  V30 2731 N 242.408 -1.52605 -0.393616 0
M  V30 2732 C 243.819 -1.59417 -0.971761 0
M  V30 2733 C 244.17 -0.444173 -1.91106 0
M  V30 2734 O 243.295 0.433382 -2.12016 0
M  V30 2735 C 243.89 -2.88936 -1.76921 0
M  V30 2736 C 242.449 -2.98175 -2.29714 0
M  V30 2737 C 241.596 -2.54491 -1.10135 0
M  V30 2738 H 244.547 -1.57751 -0.173317 0
M  V30 2739 H 244.568 -2.75163 -2.62804 0
M  V30 2740 H 244.08 -3.72616 -1.08532 0
M  V30 2741 H 242.181 -2.19024 -3.01429 0
M  V30 2742 H 242.294 -4.02726 -2.59517 0
M  V30 2743 H 240.658 -2.08702 -1.45999 0
M  V30 2744 H 241.441 -3.4056 -0.432874 0
M  V30 2745 N 243.887 0.651787 -1.4349 0
M  V30 2746 C 245.127 1.42345 -1.46688 0
M  V30 2747 C 245.491 1.91793 -0.0891023 0
M  V30 2748 O 246.692 2.688 0.00423594 0
M  V30 2749 C 244.963 2.57221 -2.48137 0
M  V30 2750 S 246.522 3.45725 -2.70221 0
M  V30 2751 H 243.34 0.485878 -0.51908 0
M  V30 2752 H 245.942 0.756578 -1.80267 0
M  V30 2753 H 244.646 2.1917 -3.46976 0
M  V30 2754 H 244.177 3.28757 -2.16061 0
M  V30 2755 H 246.192 4.53996 -2.00255 0
M  V30 2756 N 245.365 1.30045 0.890287 0
M  V30 2757 C 246.613 1.18327 1.63839 0
M  V30 2758 C 246.934 -0.263455 1.93212 0
M  V30 2759 O 246.204 -1.17856 1.56482 0
M  V30 2760 H 244.784 0.434933 0.607324 0
M  V30 2761 H 247.446 1.631 1.06698 0
M  V30 2762 H 246.542 1.74024 2.59079 0
M  V30 2763 N 246.843 -1.10192 1.12674 0
M  V30 2764 C 247.775 -2.16418 0.754701 0
M  V30 2765 C 248.788 -1.61309 -0.21986 0
M  V30 2766 O 249.977 -1.785 -0.000826841 0
M  V30 2767 C 247.077 -3.38762 0.096698 0
M  V30 2768 C 246.25 -4.23307 1.10136 0
M  V30 2769 C 245.309 -5.24092 0.470513 0
M  V30 2770 O 244.335 -5.57906 1.12824 0
M  V30 2771 N 245.537 -5.75491 -0.760948 0
M  V30 2772 H 248.302 -2.48943 1.66875 0
M  V30 2773 H 245.863 -1.25834 1.01869 0
M  V30 2774 H 247.855 -4.03291 -0.337384 0
M  V30 2775 H 246.425 -3.04192 -0.720153 0
M  V30 2776 H 245.645 -3.55036 1.71299 0
M  V30 2777 H 246.933 -4.76624 1.78064 0
M  V30 2778 H 246.331 -5.50222 -1.31424 0
M  V30 2779 H 244.888 -6.41792 -1.13781 0
M  V30 2780 N 248.321 -0.919034 -1.28029 0
M  V30 2781 C 249.546 -0.570357 -1.99403 0
M  V30 2782 C 249.971 0.842486 -1.68178 0
M  V30 2783 O 249.329 1.56391 -0.917141 0
M  V30 2784 C 249.377 -0.792541 -3.51783 0
M  V30 2785 O 248.481 0.145988 -4.12142 0
M  V30 2786 H 247.822 -0.220555 -0.6263 0
M  V30 2787 H 250.352 -1.23592 -1.63053 0
M  V30 2788 H 250.362 -0.704708 -4.01868 0
M  V30 2789 H 249.037 -1.82247 -3.73844 0
M  V30 2790 H 247.614 0.00897528 -3.72899 0
M  V30 2791 N 249.799 1.42003 -0.683588 0
M  V30 2792 C 251.046 2.01413 -0.209514 0
M  V30 2793 C 251.374 1.54088 1.1869 0
M  V30 2794 O 250.629 0.737591 1.81268 0
M  V30 2795 C 250.928 3.56827 -0.202357 0
M  V30 2796 C 250.594 4.23617 -1.54464 0
M  V30 2797 C 249.256 4.41577 -1.91215 0
M  V30 2798 C 251.608 4.61178 -2.42826 0
M  V30 2799 C 248.936 4.9437 -3.15935 0
M  V30 2800 C 251.288 5.15355 -3.66867 0
M  V30 2801 C 249.952 5.31528 -4.03776 0
M  V30 2802 H 249.222 0.737023 -0.0766668 0
M  V30 2803 H 251.869 1.70067 -0.880312 0
M  V30 2804 H 250.174 3.87892 0.551969 0
M  V30 2805 H 251.871 4.00588 0.181793 0
M  V30 2806 H 248.461 4.10004 -1.24877 0
M  V30 2807 H 252.645 4.46968 -2.15717 0
M  V30 2808 H 247.901 5.05076 -3.44541 0
M  V30 2809 H 252.075 5.43402 -4.35531 0
M  V30 2810 H 249.702 5.72199 -5.00492 0
M  V30 2811 N 251.277 0.427512 1.51691 0
M  V30 2812 C 252.524 -0.142229 2.02 0
M  V30 2813 C 252.852 -1.43566 1.31221 0
M  V30 2814 O 252.107 -1.91298 0.412744 0
M  V30 2815 C 252.406 -0.418249 3.54944 0
M  V30 2816 C 252.072 0.788187 4.43958 0
M  V30 2817 C 250.734 1.11906 4.68007 0
M  V30 2818 C 253.086 1.59347 4.96244 0
M  V30 2819 C 250.414 2.25608 5.41588 0
M  V30 2820 C 252.766 2.7214 5.71072 0
M  V30 2821 C 251.43 3.05692 5.93387 0
M  V30 2822 H 250.7 -0.0520451 0.73917 0
M  V30 2823 H 253.347 0.572697 1.82736 0
M  V30 2824 H 251.652 -1.21496 3.72486 0
M  V30 2825 H 253.349 -0.872339 3.91397 0
M  V30 2826 H 249.939 0.520344 4.2543 0
M  V30 2827 H 254.123 1.35106 4.77556 0
M  V30 2828 H 249.379 2.51929 5.57083 0
M  V30 2829 H 253.553 3.34914 6.10578 0
M  V30 2830 H 251.18 3.9391 6.50184 0
M  V30 2831 N 252.755 -1.56801 0.158532 0
M  V30 2832 C 254.003 -1.96102 -0.488712 0
M  V30 2833 C 254.324 -1.04498 -1.64636 0
M  V30 2834 O 253.594 -0.108783 -1.95598 0
M  V30 2835 H 252.174 -0.724102 -0.183535 0
M  V30 2836 H 254.836 -1.93457 0.236728 0
M  V30 2837 H 253.932 -3.00097 -0.857219 0
M  V30 2838 N 254.233 0.115231 -1.57178 0
M  V30 2839 C 255.644 0.67197 -1.74188 0
M  V30 2840 C 255.995 1.80125 -0.777777 0
M  V30 2841 O 255.12 2.16346 0.0484376 0
M  V30 2842 C 255.715 1.22573 -3.1585 0
M  V30 2843 C 254.274 1.72872 -3.34353 0
M  V30 2844 C 253.421 0.629972 -2.70049 0
M  V30 2845 H 256.372 -0.110712 -1.58313 0
M  V30 2846 H 256.393 2.09535 -3.17609 0
M  V30 2847 H 255.905 0.403598 -3.85996 0
M  V30 2848 H 254.006 2.5755 -2.69256 0
M  V30 2849 H 254.119 1.83557 -4.42542 0
M  V30 2850 H 252.483 1.0645 -2.31388 0
M  V30 2851 H 253.266 -0.181241 -3.42821 0
M  V30 2852 N 255.711 1.52812 0.385517 0
M  V30 2853 C 256.939 1.71907 1.15133 0
M  V30 2854 C 257.354 0.439004 1.83625 0
M  V30 2855 O 256.711 -0.586765 1.7281 0
M  V30 2856 C 256.762 2.87099 2.19673 0
M  V30 2857 O 256.483 4.10151 1.53973 0
M  V30 2858 C 257.984 3.17902 3.08955 0
M  V30 2859 H 255.204 0.575479 0.345057 0
M  V30 2860 H 257.748 1.99476 0.45052 0
M  V30 2861 H 255.903 2.61982 2.85384 0
M  V30 2862 H 256.317 4.74514 2.23465 0
M  V30 2863 H 257.791 4.01959 3.7833 0
M  V30 2864 H 258.268 2.3243 3.72657 0
M  V30 2865 H 258.874 3.44871 2.48885 0
M  V30 2866 N 257.189 -0.644168 1.43834 0
M  V30 2867 C 258.119 -1.76814 1.52509 0
M  V30 2868 C 259.1 -1.65823 0.379052 0
M  V30 2869 O 260.285 -1.84781 0.597466 0
M  V30 2870 C 257.415 -3.15288 1.4564 0
M  V30 2871 C 256.369 -3.41053 2.58586 0
M  V30 2872 C 255.695 -4.79421 2.36769 0
M  V30 2873 C 256.995 -3.34902 4.00797 0
M  V30 2874 H 258.689 -1.69812 2.46586 0
M  V30 2875 H 256.235 -0.815542 1.1868 0
M  V30 2876 H 258.188 -3.93681 1.50311 0
M  V30 2877 H 256.912 -3.23043 0.480725 0
M  V30 2878 H 255.571 -2.65035 2.53282 0
M  V30 2879 H 255.219 -4.83863 1.37424 0
M  V30 2880 H 254.919 -4.9762 3.12487 0
M  V30 2881 H 256.443 -5.6006 2.43238 0
M  V30 2882 H 257.857 -4.03218 4.07539 0
M  V30 2883 H 256.254 -3.64637 4.76613 0
M  V30 2884 H 257.324 -2.32928 4.25291 0
M  V30 2885 N 258.668 -1.30515 -0.883378 0
M  V30 2886 C 259.616 -1.16941 -2.01066 0
M  V30 2887 C 260.61 -0.0809148 -1.69207 0
M  V30 2888 O 261.816 -0.241877 -1.78367 0
M  V30 2889 H 258.191 -0.361705 -0.659298 0
M  V30 2890 H 260.162 -2.12344 -2.09649 0
M  V30 2891 C 258.911 -0.879694 -3.36388 0
M  V30 2892 H 258.234 -1.70936 -3.61415 0
M  V30 2893 H 259.674 -0.82483 -4.159 0
M  V30 2894 C 258.133 0.417409 -3.34304 0
M  V30 2895 O 258.663 1.43843 -3.75063 0
M  V30 2896 N 256.869 0.429141 -2.87414 0
M  V30 2897 H 256.416 -0.402222 -2.5444 0
M  V30 2898 H 256.374 1.29696 -2.86403 0
M  V30 2899 N 260.146 1.09593 -1.13257 0
M  V30 2900 C 261.371 1.8604 -0.916732 0
M  V30 2901 C 261.796 1.80504 0.529146 0
M  V30 2902 O 261.154 1.18127 1.37534 0
M  V30 2903 C 261.202 3.32017 -1.40703 0
M  V30 2904 O 260.306 4.08141 -0.591153 0
M  V30 2905 H 259.647 0.576943 -0.328683 0
M  V30 2906 H 262.177 1.38405 -1.50682 0
M  V30 2907 H 262.187 3.82865 -1.4099 0
M  V30 2908 H 260.862 3.35361 -2.45979 0
M  V30 2909 H 259.439 3.67084 -0.656005 0
M  V30 2910 N 261.624 0.925811 1.2754 0
M  V30 2911 C 262.871 0.565255 1.94451 0
M  V30 2912 C 263.199 -0.89316 1.7278 0
M  V30 2913 O 262.454 -1.65213 1.04895 0
M  V30 2914 C 262.753 0.835296 3.47502 0
M  V30 2915 C 262.419 2.27515 3.89291 0
M  V30 2916 C 261.081 2.66879 4.00411 0
M  V30 2917 C 263.433 3.21158 4.10496 0
M  V30 2918 C 260.761 3.99014 4.30122 0
M  V30 2919 C 263.113 4.52871 4.4169 0
M  V30 2920 C 261.777 4.92072 4.51023 0
M  V30 2921 H 261.047 0.206841 0.711546 0
M  V30 2922 H 263.694 1.16942 1.51647 0
M  V30 2923 H 261.999 0.148442 3.91519 0
M  V30 2924 H 263.696 0.535322 3.97411 0
M  V30 2925 H 260.286 1.95976 3.81171 0
M  V30 2926 H 264.47 2.9195 4.01346 0
M  V30 2927 H 259.726 4.2907 4.35556 0
M  V30 2928 H 263.9 5.25436 4.57045 0
M  V30 2929 H 261.527 5.9449 4.738 0
M  V30 2930 N 263.102 -1.41638 0.69111 0
M  V30 2931 C 264.351 -2.00526 0.217318 0
M  V30 2932 C 264.664 -1.55353 -1.18848 0
M  V30 2933 O 265.87 -2.06769 -1.75951 0
M  V30 2934 C 264.326 -3.58313 0.337639 0
M  V30 2935 C 263.934 -4.12469 1.74852 0
M  V30 2936 C 265.678 -4.24431 -0.0766066 0
M  V30 2937 C 263.585 -5.62675 1.82074 0
M  V30 2938 H 262.515 -0.750008 0.0774893 0
M  V30 2939 H 265.166 -1.6217 0.858661 0
M  V30 2940 H 263.548 -3.9425 -0.371879 0
M  V30 2941 H 264.722 -3.8796 2.48644 0
M  V30 2942 H 263.037 -3.58861 2.11205 0
M  V30 2943 H 265.634 -5.34683 -0.0430284 0
M  V30 2944 H 265.977 -4.01101 -1.1146 0
M  V30 2945 H 266.51 -3.93512 0.582476 0
M  V30 2946 H 263.249 -5.90826 2.83911 0
M  V30 2947 H 262.769 -5.89124 1.12661 0
M  V30 2948 H 264.448 -6.27371 1.58159 0
M  V30 2949 N 264.58 -0.43555 -1.51462 0
M  V30 2950 C 265.53 0.394701 -2.24558 0
M  V30 2951 C 266.514 0.99157 -1.26715 0
M  V30 2952 O 267.706 0.910007 -1.51815 0
M  V30 2953 C 264.835 1.4963 -3.08975 0
M  V30 2954 C 263.921 0.908912 -4.14246 0
M  V30 2955 N 264.312 0.0505335 -5.05775 0
M  V30 2956 C 262.61 1.17668 -4.30198 0
M  V30 2957 C 263.311 -0.279161 -5.8103 0
M  V30 2958 N 262.287 0.336767 -5.42556 0
M  V30 2959 H 266.089 -0.267106 -2.92684 0
M  V30 2960 H 263.603 -0.247518 -1.60503 0
M  V30 2961 H 265.6 2.10394 -3.59917 0
M  V30 2962 H 264.26 2.16046 -2.42393 0
M  V30 2963 H 265.271 -0.31577 -5.16936 0
M  V30 2964 H 261.948 1.83847 -3.74842 0
M  V30 2965 H 263.338 -0.977553 -6.64751 0
M  V30 2966 N 266.058 1.56714 -0.166846 0
M  V30 2967 C 267.307 1.95922 0.479318 0
M  V30 2968 C 267.62 1.05529 1.6469 0
M  V30 2969 O 268.826 1.34399 2.35901 0
M  V30 2970 C 267.282 3.48359 0.90412 0
M  V30 2971 C 266.89 4.47369 -0.237621 0
M  V30 2972 C 268.634 3.96394 1.51896 0
M  V30 2973 C 266.541 5.91039 0.206561 0
M  V30 2974 H 265.471 0.731495 0.18284 0
M  V30 2975 H 268.122 1.81728 -0.254363 0
M  V30 2976 H 266.504 3.57955 1.69365 0
M  V30 2977 H 267.678 4.49485 -1.01489 0
M  V30 2978 H 265.993 4.09366 -0.762128 0
M  V30 2979 H 268.59 5.01186 1.86325 0
M  V30 2980 H 268.933 3.39075 2.41524 0
M  V30 2981 H 269.466 3.89796 0.79395 0
M  V30 2982 H 266.205 6.52221 -0.654834 0
M  V30 2983 H 265.725 5.9224 0.949282 0
M  V30 2984 H 267.404 6.43707 0.651939 0
M  V30 2985 N 267.536 -0.106894 1.57237 0
M  V30 2986 C 268.466 -1.13148 2.04254 0
M  V30 2987 C 269.447 -1.42476 0.929224 0
M  V30 2988 O 270.632 -1.52709 1.19973 0
M  V30 2989 C 267.762 -2.4545 2.45706 0
M  V30 2990 C 266.716 -2.30558 3.60592 0
M  V30 2991 C 266.042 -3.67931 3.87983 0
M  V30 2992 C 267.342 -1.75597 4.91897 0
M  V30 2993 H 269.036 -0.740374 2.90101 0
M  V30 2994 H 266.582 -0.354696 1.39563 0
M  V30 2995 H 268.535 -3.17389 2.77205 0
M  V30 2996 H 267.259 -2.86475 1.56843 0
M  V30 2997 H 265.918 -1.61067 3.29322 0
M  V30 2998 H 265.566 -4.06462 2.96306 0
M  V30 2999 H 265.266 -3.58817 4.65322 0
M  V30 3000 H 266.79 -4.41356 4.21945 0
M  V30 3001 H 268.204 -2.37364 5.21854 0
M  V30 3002 H 266.601 -1.77272 5.73319 0
M  V30 3003 H 267.671 -0.714451 4.79608 0
M  V30 3004 N 269.014 -1.53014 -0.377408 0
M  V30 3005 C 269.947 -1.73382 -1.48371 0
M  V30 3006 C 270.925 -0.581879 -1.51832 0
M  V30 3007 O 272.109 -0.81307 -1.70063 0
M  V30 3008 C 269.236 -1.80192 -2.8679 0
M  V30 3009 C 268.282 -3.02056 -3.01105 0
M  V30 3010 S 269.115 -4.61811 -2.71093 0
M  V30 3011 C 270.271 -4.71453 -4.11683 0
M  V30 3012 H 270.504 -2.66946 -1.30872 0
M  V30 3013 H 268.037 -1.43453 -0.571012 0
M  V30 3014 H 269.995 -1.84802 -3.6655 0
M  V30 3015 H 268.656 -0.877008 -3.01608 0
M  V30 3016 H 267.849 -3.03396 -4.02451 0
M  V30 3017 H 267.451 -2.95498 -2.29253 0
M  V30 3018 H 269.743 -4.50781 -5.0577 0
M  V30 3019 H 270.686 -5.73487 -4.15353 0
M  V30 3020 H 271.094 -4.00189 -3.98132 0
M  V30 3021 N 270.492 0.636531 -1.44174 0
M  V30 3022 C 271.722 1.42146 -1.49927 0
M  V30 3023 C 272.13 1.88812 -0.121063 0
M  V30 3024 O 271.473 1.61126 0.882267 0
M  V30 3025 C 271.535 2.67883 -2.39748 0
M  V30 3026 C 271.199 2.43048 -3.8701 0
M  V30 3027 C 272.196 2.05216 -4.77684 0
M  V30 3028 C 269.881 2.56856 -4.3166 0
M  V30 3029 C 271.875 1.81512 -6.11009 0
M  V30 3030 C 269.562 2.32766 -5.65034 0
M  V30 3031 C 270.56 1.95152 -6.54526 0
M  V30 3032 O 270.248 1.71326 -7.85431 0
M  V30 3033 H 269.98 0.442567 -0.51099 0
M  V30 3034 H 272.534 0.786158 -1.8976 0
M  V30 3035 H 270.764 3.34032 -1.94832 0
M  V30 3036 H 272.453 3.29874 -2.36513 0
M  V30 3037 H 273.219 1.94111 -4.44462 0
M  V30 3038 H 269.098 2.85104 -3.62266 0
M  V30 3039 H 272.642 1.52077 -6.80822 0
M  V30 3040 H 268.539 2.43479 -5.97819 0
M  V30 3041 H 269.307 1.85616 -7.97176 0
M  V30 3042 N 271.97 1.30982 0.876444 0
M  V30 3043 C 273.195 1.23373 1.66715 0
M  V30 3044 C 273.62 -0.19885 1.87046 0
M  V30 3045 O 272.978 -1.1427 1.40756 0
M  V30 3046 C 273.026 1.97644 3.01611 0
M  V30 3047 O 272.13 1.30935 3.91062 0
M  V30 3048 H 271.471 0.426279 0.509099 0
M  V30 3049 H 274.001 1.72944 1.09323 0
M  V30 3050 H 274.011 2.06992 3.51594 0
M  V30 3051 H 272.686 3.01829 2.86133 0
M  V30 3052 H 271.263 1.29996 3.49507 0
M  V30 3053 N 273.449 -1.08991 1.13837 0
M  V30 3054 C 274.679 -1.84743 0.924859 0
M  V30 3055 C 275.087 -1.81629 -0.529874 0
M  V30 3056 O 274.43 -1.21397 -1.37872 0
M  V30 3057 C 274.492 -3.33568 1.34061 0
M  V30 3058 C 274.156 -3.60425 2.80968 0
M  V30 3059 C 275.153 -3.55771 3.79108 0
M  V30 3060 C 272.838 -3.88627 3.18236 0
M  V30 3061 C 274.832 -3.78939 5.12527 0
M  V30 3062 C 272.519 -4.11449 4.51833 0
M  V30 3063 C 273.517 -4.06598 5.48787 0
M  V30 3064 O 273.205 -4.28826 6.79973 0
M  V30 3065 H 272.937 -0.590258 0.329502 0
M  V30 3066 H 275.491 -1.38598 1.51591 0
M  V30 3067 H 273.721 -3.80442 0.692853 0
M  V30 3068 H 275.41 -3.90743 1.09886 0
M  V30 3069 H 276.176 -3.34005 3.51661 0
M  V30 3070 H 272.055 -3.91526 2.43369 0
M  V30 3071 H 275.599 -3.75068 5.88192 0
M  V30 3072 H 271.496 -4.32698 4.79002 0
M  V30 3073 H 272.264 -4.46264 6.86142 0
M  V30 3074 N 274.927 -0.932562 -1.27047 0
M  V30 3075 C 276.157 -0.591173 -1.97961 0
M  V30 3076 C 276.565 0.836219 -1.69717 0
M  V30 3077 O 275.908 1.56801 -0.957036 0
M  V30 3078 C 275.97 -0.743082 -3.51736 0
M  V30 3079 C 275.634 -2.1435 -4.03613 0
M  V30 3080 C 276.631 -3.11815 -4.16014 0
M  V30 3081 C 274.316 -2.46175 -4.37839 0
M  V30 3082 C 276.31 -4.39211 -4.61923 0
M  V30 3083 C 273.997 -3.73806 -4.83438 0
M  V30 3084 C 274.995 -4.70137 -4.95439 0
M  V30 3085 O 274.683 -5.95496 -5.40037 0
M  V30 3086 H 274.415 -0.222375 -0.638377 0
M  V30 3087 H 276.969 -1.25317 -1.62742 0
M  V30 3088 H 275.199 -0.0239739 -3.86693 0
M  V30 3089 H 276.888 -0.40603 -4.03864 0
M  V30 3090 H 277.654 -2.88549 -3.89826 0
M  V30 3091 H 273.533 -1.71936 -4.27737 0
M  V30 3092 H 277.077 -5.14404 -4.71205 0
M  V30 3093 H 272.974 -3.96888 -5.09068 0
M  V30 3094 H 273.742 -5.98554 -5.58279 0
M  V30 3095 N 276.405 1.4127 -0.698611 0
M  V30 3096 C 277.653 2.00782 -0.230409 0
M  V30 3097 C 277.974 1.5562 1.17505 0
M  V30 3098 O 277.244 0.78815 1.79346 0
M  V30 3099 H 275.824 0.742464 -0.0821944 0
M  V30 3100 H 278.486 1.72852 -0.90045 0
M  V30 3101 H 277.582 3.11095 -0.25021 0
M  V30 3102 N 277.883 0.443576 1.51229 0
M  V30 3103 C 278.813 -0.355142 2.30783 0
M  V30 3104 C 279.794 -1.0154 1.36468 0
M  V30 3105 O 280.979 -1.01785 1.65389 0
M  V30 3106 C 278.109 -1.45312 3.15439 0
M  V30 3107 C 277.063 -0.916002 4.18083 0
M  V30 3108 C 276.389 -2.1102 4.91299 0
M  V30 3109 C 277.689 0.0538602 5.22272 0
M  V30 3110 H 279.383 0.308767 2.97804 0
M  V30 3111 H 276.929 0.149937 1.43217 0
M  V30 3112 H 278.882 -2.01914 3.69876 0
M  V30 3113 H 277.606 -2.14541 2.46252 0
M  V30 3114 H 276.265 -0.372145 3.64706 0
M  V30 3115 H 275.913 -2.78882 4.18609 0
M  V30 3116 H 275.613 -1.75717 5.60712 0
M  V30 3117 H 277.137 -2.68164 5.48562 0
M  V30 3118 H 278.551 -0.422069 5.71744 0
M  V30 3119 H 276.948 0.319776 5.99247 0
M  V30 3120 H 278.018 0.98858 4.74716 0
M  V30 3121 N 279.361 -1.56624 0.175154 0
M  V30 3122 C 280.586 -2.01813 -0.478137 0
M  V30 3123 C 281.011 -1.05457 -1.55757 0
M  V30 3124 O 280.369 -0.0347439 -1.81267 0
M  V30 3125 C 280.417 -3.45581 -1.02987 0
M  V30 3126 O 279.521 -3.52305 -2.14371 0
M  V30 3127 H 278.862 -0.65413 -0.114059 0
M  V30 3128 H 281.392 -2.02673 0.280173 0
M  V30 3129 H 281.402 -3.84965 -1.35151 0
M  V30 3130 H 280.077 -4.1521 -0.239556 0
M  V30 3131 H 278.654 -3.24783 -1.83222 0
M  V30 3132 N 280.839 0.0985539 -1.57292 0
M  V30 3133 C 282.085 0.803867 -1.86188 0
M  V30 3134 C 282.418 1.78549 -0.763794 0
M  V30 3135 O 281.693 1.93153 0.22855 0
M  V30 3136 C 281.976 1.53568 -3.25713 0
M  V30 3137 C 281.829 0.572277 -4.46145 0
M  V30 3138 C 283.148 2.48708 -3.63087 0
M  V30 3139 H 280.267 0.290781 -0.677211 0
M  V30 3140 H 282.909 0.0675783 -1.8988 0
M  V30 3141 H 281.059 2.16332 -3.22696 0
M  V30 3142 H 282.731 -0.0480894 -4.61275 0
M  V30 3143 H 280.974 -0.114618 -4.33649 0
M  V30 3144 H 281.645 1.12139 -5.40489 0
M  V30 3145 H 284.121 1.96039 -3.67026 0
M  V30 3146 H 282.997 2.96932 -4.61652 0
M  V30 3147 H 283.258 3.32309 -2.91588 0
M  V30 3148 N 282.317 1.53212 0.369288 0
M  V30 3149 C 283.564 1.69215 1.11232 0
M  V30 3150 C 283.892 0.442048 1.8941 0
M  V30 3151 O 283.147 -0.575944 1.87033 0
M  V30 3152 C 283.446 2.89101 2.10132 0
M  V30 3153 C 283.112 4.25758 1.48463 0
M  V30 3154 C 281.774 4.6292 1.31372 0
M  V30 3155 C 284.126 5.10757 1.03811 0
M  V30 3156 C 281.454 5.82722 0.68207 0
M  V30 3157 C 283.806 6.31201 0.420487 0
M  V30 3158 C 282.47 6.67079 0.237038 0
M  V30 3159 H 281.74 0.619201 0.407027 0
M  V30 3160 H 284.387 1.87391 0.394552 0
M  V30 3161 H 282.692 2.65421 2.88199 0
M  V30 3162 H 284.389 2.98676 2.6757 0
M  V30 3163 H 280.979 3.96494 1.62758 0
M  V30 3164 H 285.163 4.82599 1.1581 0
M  V30 3165 H 280.419 6.09113 0.528316 0
M  V30 3166 H 284.593 6.96368 0.0662874 0
M  V30 3167 H 282.22 7.59774 -0.254477 0
M  V30 3168 N 283.795 -0.628877 1.44509 0
M  V30 3169 C 285.206 -1.21054 1.42137 0
M  V30 3170 C 285.557 -1.95715 0.137881 0
M  V30 3171 O 284.682 -2.02554 -0.761645 0
M  V30 3172 C 285.277 -2.20189 2.57493 0
M  V30 3173 C 283.836 -2.73777 2.58308 0
M  V30 3174 C 282.983 -1.48813 2.33987 0
M  V30 3175 H 285.934 -0.41942 1.53057 0
M  V30 3176 H 285.955 -3.02833 2.30375 0
M  V30 3177 H 285.467 -1.6582 3.50892 0
M  V30 3178 H 283.568 -3.32142 1.68856 0
M  V30 3179 H 283.681 -3.19662 3.56865 0
M  V30 3180 H 282.045 -1.77024 1.83124 0
M  V30 3181 H 282.828 -0.963442 3.29504 0
M  V30 3182 N 285.273 -1.31445 -0.869486 0
M  V30 3183 C 286.498 -1.24256 -1.66058 0
M  V30 3184 C 286.923 0.188928 -1.87149 0
M  V30 3185 O 286.281 1.13522 -1.4136 0
M  V30 3186 C 286.329 -1.9924 -3.00559 0
M  V30 3187 O 285.433 -1.33007 -3.90362 0
M  V30 3188 H 284.774 -0.428973 -0.506831 0
M  V30 3189 H 287.304 -1.73521 -1.08404 0
M  V30 3190 H 287.314 -2.08854 -3.50491 0
M  V30 3191 H 285.989 -3.03342 -2.84528 0
M  V30 3192 H 284.566 -1.31848 -3.48813 0
M  V30 3193 N 286.751 1.08385 -1.14413 0
M  V30 3194 C 287.684 2.14642 -0.774871 0
M  V30 3195 C 288.662 1.60761 0.243876 0
M  V30 3196 O 289.846 1.88031 0.132883 0
M  V30 3197 C 286.973 3.38366 -0.150491 0
M  V30 3198 C 286.019 4.10997 -1.13945 0
M  V30 3199 S 286.852 4.63797 -2.67679 0
M  V30 3200 C 288.008 5.90808 -2.06631 0
M  V30 3201 H 288.241 2.45633 -1.67487 0
M  V30 3202 H 285.774 1.20498 -0.96538 0
M  V30 3203 H 287.732 4.09996 0.203334 0
M  V30 3204 H 286.393 3.05572 0.72694 0
M  V30 3205 H 285.586 4.99783 -0.65059 0
M  V30 3206 H 285.188 3.4528 -1.43727 0
M  V30 3207 H 287.48 6.62411 -1.4219 0
M  V30 3208 H 288.423 6.4439 -2.93542 0
M  V30 3209 H 288.831 5.4383 -1.51357 0
M  V30 3210 N 288.23 0.939286 1.26551 0
M  V30 3211 C 289.18 0.418284 2.2413 0
M  V30 3212 C 290.164 -0.483935 1.5345 0
M  V30 3213 O 291.356 -0.319489 1.74093 0
M  V30 3214 C 288.485 -0.31709 3.41832 0
M  V30 3215 C 287.571 0.602311 4.19801 0
M  V30 3216 N 287.962 1.72726 4.75394 0
M  V30 3217 C 286.26 0.407534 4.44134 0
M  V30 3218 C 286.961 2.30004 5.34297 0
M  V30 3219 N 285.937 1.58828 5.1988 0
M  V30 3220 H 289.739 1.27705 2.64705 0
M  V30 3221 H 287.253 0.794929 1.41614 0
M  V30 3222 H 289.25 -0.707364 4.10855 0
M  V30 3223 H 287.91 -1.17264 3.02786 0
M  V30 3224 H 288.921 2.10944 4.72994 0
M  V30 3225 H 285.598 -0.406406 4.15517 0
M  V30 3226 H 286.988 3.24778 5.88191 0
M  V30 3227 N 289.708 -1.40897 0.706093 0
M  V30 3228 C 290.655 -2.30751 0.0474474 0
M  V30 3229 C 291.625 -1.47678 -0.76029 0
M  V30 3230 O 292.81 -1.76441 -0.726177 0
M  V30 3231 C 289.95 -3.33815 -0.875309 0
M  V30 3232 C 289.063 -4.31961 -0.0580623 0
M  V30 3233 C 288.198 -5.22093 -0.979425 0
M  V30 3234 C 287.237 -6.11902 -0.155706 0
M  V30 3235 N 286.374 -6.94482 -1.03144 0
M  V30 3236 H 291.214 -2.86513 0.819413 0
M  V30 3237 H 288.751 -1.41102 0.415783 0
M  V30 3238 H 290.709 -3.92129 -1.42446 0
M  V30 3239 H 289.339 -2.79579 -1.61356 0
M  V30 3240 H 288.391 -3.75507 0.608147 0
M  V30 3241 H 289.703 -4.95415 0.580082 0
M  V30 3242 H 288.857 -5.85292 -1.59744 0
M  V30 3243 H 287.596 -4.5889 -1.65141 0
M  V30 3244 H 286.601 -5.47742 0.475309 0
M  V30 3245 H 287.826 -6.77162 0.512635 0
M  V30 3246 H 285.772 -6.33877 -1.68924 0
M  V30 3247 H 285.689 -7.54665 -0.449108 0
M  V30 3248 H 286.957 -7.6214 -1.63593 0
M  V30 3249 N 291.186 -0.45159 -1.50991 0
M  V30 3250 C 292.416 0.108177 -2.06317 0
M  V30 3251 C 292.824 1.35774 -1.31765 0
M  V30 3252 O 292.167 1.79838 -0.374694 0
M  V30 3253 C 292.229 0.481659 -3.56259 0
M  V30 3254 C 291.893 -0.663114 -4.52163 0
M  V30 3255 C 292.89 -1.53947 -4.96585 0
M  V30 3256 C 290.575 -0.8479 -4.95092 0
M  V30 3257 C 292.569 -2.58518 -5.82621 0
M  V30 3258 C 290.256 -1.89686 -5.80915 0
M  V30 3259 C 291.254 -2.76388 -6.24579 0
M  V30 3260 O 290.942 -3.79482 -7.08695 0
M  V30 3261 H 290.674 0.00499183 -0.675982 0
M  V30 3262 H 293.228 -0.633659 -1.95381 0
M  V30 3263 H 291.458 1.27641 -3.65027 0
M  V30 3264 H 293.147 0.974233 -3.94035 0
M  V30 3265 H 293.913 -1.4083 -4.64103 0
M  V30 3266 H 289.792 -0.18258 -4.60638 0
M  V30 3267 H 293.336 -3.26224 -6.16623 0
M  V30 3268 H 289.233 -2.02817 -6.12809 0
M  V30 3269 H 290.001 -3.76234 -7.26905 0
M  V30 3270 N 292.664 1.56529 -0.183458 0
M  V30 3271 C 293.594 2.21549 0.737456 0
M  V30 3272 C 294.575 1.17489 1.23005 0
M  V30 3273 O 295.76 1.45959 1.281 0
M  V30 3274 C 292.89 2.86575 1.96194 0
M  V30 3275 C 291.844 3.96778 1.60473 0
M  V30 3276 C 291.17 4.48911 2.90487 0
M  V30 3277 C 292.47 5.15767 0.823497 0
M  V30 3278 H 294.164 2.98761 0.195453 0
M  V30 3279 H 291.71 1.43702 0.0925686 0
M  V30 3280 H 293.663 3.30739 2.61131 0
M  V30 3281 H 292.387 2.06749 2.52828 0
M  V30 3282 H 291.046 3.53286 0.978997 0
M  V30 3283 H 290.694 3.65862 3.45186 0
M  V30 3284 H 290.394 5.23265 2.67335 0
M  V30 3285 H 291.918 4.95771 3.56432 0
M  V30 3286 H 293.332 5.56549 1.37571 0
M  V30 3287 H 291.729 5.96114 0.690551 0
M  V30 3288 H 292.799 4.84574 -0.177782 0
M  V30 3289 N 294.142 -0.090211 1.57342 0
M  V30 3290 C 295.388 -0.788838 1.8748 0
M  V30 3291 C 295.743 -1.76105 0.7749 0
M  V30 3292 O 295.036 -1.90302 -0.222663 0
M  V30 3293 C 295.23 -1.55222 3.21933 0
M  V30 3294 C 295.059 -0.655441 4.44898 0
M  V30 3295 C 293.829 -0.299325 5.04413 0
M  V30 3296 C 296.027 0.0397458 5.14285 0
M  V30 3297 N 294.009 0.605108 6.10911 0
M  V30 3298 C 295.38 0.802061 6.1479 0
M  V30 3299 C 297.435 0.113154 4.97771 0
M  V30 3300 C 296.138 1.63093 7.00566 0
M  V30 3301 C 298.164 0.928942 5.84059 0
M  V30 3302 C 297.526 1.67936 6.84088 0
M  V30 3303 H 293.625 -0.26467 0.735849 0
M  V30 3304 H 296.209 -0.0511453 1.94633 0
M  V30 3305 H 294.38 -2.26076 3.15823 0
M  V30 3306 H 296.112 -2.19843 3.39781 0
M  V30 3307 H 292.867 -0.648079 4.69145 0
M  V30 3308 H 293.291 1.05002 6.68808 0
M  V30 3309 H 297.933 -0.452676 4.2037 0
M  V30 3310 H 295.651 2.20781 7.77355 0
M  V30 3311 H 299.237 0.988478 5.73341 0
M  V30 3312 H 298.117 2.30044 7.49699 0
M  V30 3313 N 295.62 -1.53406 -0.361157 0
M  V30 3314 C 296.866 -1.70999 -1.1014 0
M  V30 3315 C 297.221 -0.458425 -1.86859 0
M  V30 3316 O 296.514 0.548654 -1.83577 0
M  V30 3317 C 296.708 -2.90211 -2.08596 0
M  V30 3318 C 296.537 -4.26841 -1.41553 0
M  V30 3319 C 295.307 -4.91621 -1.16778 0
M  V30 3320 C 297.505 -5.07212 -0.850915 0
M  V30 3321 N 295.487 -6.12164 -0.461312 0
M  V30 3322 C 296.858 -6.19394 -0.274046 0
M  V30 3323 C 298.913 -4.92218 -0.750036 0
M  V30 3324 C 297.616 -7.18221 0.393868 0
M  V30 3325 C 299.642 -5.91322 -0.095894 0
M  V30 3326 C 299.004 -7.0283 0.470081 0
M  V30 3327 H 295.103 -0.678939 -0.388028 0
M  V30 3328 H 297.687 -1.90811 -0.38722 0
M  V30 3329 H 295.858 -2.71931 -2.77323 0
M  V30 3330 H 297.59 -2.96606 -2.7533 0
M  V30 3331 H 294.345 -4.50849 -1.45024 0
M  V30 3332 H 294.769 -6.76888 -0.123312 0
M  V30 3333 H 299.411 -4.06192 -1.17337 0
M  V30 3334 H 297.129 -8.03835 0.82914 0
M  V30 3335 H 300.715 -5.81797 -0.0187075 0
M  V30 3336 H 299.595 -7.782 0.968241 0
M  V30 3337 N 297.098 0.621204 -1.44841 0
M  V30 3338 C 298.045 1.73267 -1.5247 0
M  V30 3339 C 299.015 1.6189 -0.371611 0
M  V30 3340 O 300.2 1.81668 -0.58321 0
M  V30 3341 C 297.34 3.11545 -1.48438 0
M  V30 3342 C 296.453 3.33827 -2.74196 0
M  V30 3343 C 295.588 4.62133 -2.61929 0
M  V30 3344 C 294.627 4.77627 -3.82804 0
M  V30 3345 N 293.764 5.97219 -3.69153 0
M  V30 3346 H 298.604 1.66082 -2.47428 0
M  V30 3347 H 296.141 0.810026 -1.22788 0
M  V30 3348 H 298.099 3.91528 -1.4409 0
M  V30 3349 H 296.729 3.1772 -0.570402 0
M  V30 3350 H 295.781 2.47715 -2.88689 0
M  V30 3351 H 297.093 3.41153 -3.6389 0
M  V30 3352 H 296.247 5.50291 -2.5547 0
M  V30 3353 H 294.986 4.57182 -1.69811 0
M  V30 3354 H 293.991 3.87896 -3.89637 0
M  V30 3355 H 295.216 4.84385 -4.75971 0
M  V30 3356 H 293.162 5.93339 -2.79794 0
M  V30 3357 H 293.079 6.05644 -4.52472 0
M  V30 3358 H 294.347 6.87912 -3.66603 0
M  V30 3359 N 298.576 1.31904 0.862503 0
M  V30 3360 C 299.523 1.20182 1.9704 0
M  V30 3361 C 300.493 0.0858247 1.65878 0
M  V30 3362 O 301.678 0.26 1.8902 0
M  V30 3363 C 298.818 0.922797 3.32533 0
M  V30 3364 C 297.931 2.12284 3.76244 0
M  V30 3365 C 297.066 1.77996 5.00491 0
M  V30 3366 C 296.105 2.94366 5.36671 0
M  V30 3367 N 295.242 2.60223 6.52095 0
M  V30 3368 H 300.082 2.14951 2.06398 0
M  V30 3369 H 297.619 1.06917 1.01031 0
M  V30 3370 H 299.577 0.741548 4.10557 0
M  V30 3371 H 298.207 0.0119227 3.22798 0
M  V30 3372 H 297.259 2.41461 2.9394 0
M  V30 3373 H 298.571 2.99357 3.98982 0
M  V30 3374 H 297.725 1.56377 5.862 0
M  V30 3375 H 296.464 0.881252 4.79672 0
M  V30 3376 H 295.469 3.16625 4.49476 0
M  V30 3377 H 296.694 3.84957 5.59451 0
M  V30 3378 H 294.64 1.72884 6.32809 0
M  V30 3379 H 294.557 3.40827 6.74814 0
M  V30 3380 H 295.825 2.42016 7.40978 0
M  V30 3381 N 300.054 -1.07777 1.14986 0
M  V30 3382 C 301.284 -1.83752 0.944402 0
M  V30 3383 C 301.692 -1.8218 -0.51058 0
M  V30 3384 O 301.035 -1.22852 -1.36576 0
M  V30 3385 C 301.097 -3.32128 1.37592 0
M  V30 3386 C 300.761 -3.57425 2.84775 0
M  V30 3387 C 301.758 -3.5173 3.8286 0
M  V30 3388 C 299.443 -3.8523 3.2234 0
M  V30 3389 C 301.437 -3.73482 5.16517 0
M  V30 3390 C 299.124 -4.06634 4.56171 0
M  V30 3391 C 300.122 -4.00754 5.53069 0
M  V30 3392 O 299.81 -4.2159 6.84483 0
M  V30 3393 H 299.542 -0.58673 0.335744 0
M  V30 3394 H 302.096 -1.36982 1.53052 0
M  V30 3395 H 300.326 -3.79686 0.733165 0
M  V30 3396 H 302.015 -3.89555 1.14024 0
M  V30 3397 H 302.781 -3.30256 3.55184 0
M  V30 3398 H 298.66 -3.88923 2.47508 0
M  V30 3399 H 302.204 -3.68808 5.92137 0
M  V30 3400 H 298.101 -4.27593 4.83564 0
M  V30 3401 H 298.869 -4.38961 6.90837 0
M  V30 3402 N 301.532 -0.945985 -1.26051 0
M  V30 3403 C 302.462 -0.477172 -2.28572 0
M  V30 3404 C 303.443 0.472032 -1.63419 0
M  V30 3405 O 304.628 0.372853 -1.90587 0
M  V30 3406 C 301.758 0.253975 -3.4637 0
M  V30 3407 C 300.712 -0.609135 -4.23643 0
M  V30 3408 C 300.038 0.252252 -5.34105 0
M  V30 3409 C 301.338 -1.8829 -4.8718 0
M  V30 3410 H 303.032 -1.33402 -2.68038 0
M  V30 3411 H 300.578 -0.642904 -1.28852 0
M  V30 3412 H 302.531 0.593016 -4.17207 0
M  V30 3413 H 301.255 1.145 -3.05871 0
M  V30 3414 H 299.914 -0.931138 -3.54578 0
M  V30 3415 H 299.562 1.14278 -4.89846 0
M  V30 3416 H 299.262 -0.32188 -5.86718 0
M  V30 3417 H 300.786 0.586454 -6.07777 0
M  V30 3418 H 302.2 -1.61081 -5.50205 0
M  V30 3419 H 300.597 -2.40199 -5.49931 0
M  V30 3420 H 301.667 -2.59134 -4.09851 0
M  V30 3421 N 303.011 1.40521 -0.713556 0
M  V30 3422 C 304.239 2.05237 -0.261775 0
M  V30 3423 C 304.654 1.53755 1.09567 0
M  V30 3424 O 304.011 0.693268 1.6882 0
M  V30 3425 C 304.062 3.60763 -0.230706 0
M  V30 3426 O 303.783 4.10345 -1.53455 0
M  V30 3427 C 305.284 4.42651 0.239874 0
M  V30 3428 H 302.504 0.660533 -0.118057 0
M  V30 3429 H 305.048 1.79967 -0.971192 0
M  V30 3430 H 303.203 3.8501 0.429661 0
M  V30 3431 H 303.617 5.04526 -1.43366 0
M  V30 3432 H 305.091 5.51599 0.210468 0
M  V30 3433 H 305.568 4.20082 1.28171 0
M  V30 3434 H 306.174 4.23507 -0.390142 0
M  V30 3435 N 304.489 0.459591 1.5075 0
M  V30 3436 C 305.421 -0.37665 2.26084 0
M  V30 3437 C 306.434 -0.967109 1.30961 0
M  V30 3438 O 307.623 -0.857468 1.56556 0
M  V30 3439 C 304.723 -1.54112 3.01832 0
M  V30 3440 C 303.896 -1.06553 4.24223 0
M  V30 3441 C 302.955 -2.1027 4.82362 0
M  V30 3442 O 301.981 -1.68798 5.43595 0
M  V30 3443 N 303.183 -3.42974 4.68347 0
M  V30 3444 H 305.948 0.269124 2.98489 0
M  V30 3445 H 303.509 0.28972 1.59287 0
M  V30 3446 H 305.501 -2.23165 3.37608 0
M  V30 3447 H 304.071 -2.0918 2.32298 0
M  V30 3448 H 303.291 -0.201274 3.93686 0
M  V30 3449 H 304.579 -0.725516 5.03601 0
M  V30 3450 H 303.977 -3.79385 4.19623 0
M  V30 3451 H 302.534 -4.07858 5.08424 0
M  V30 3452 N 305.967 -1.56429 0.191757 0
M  V30 3453 C 306.93 -2.17707 -0.716688 0
M  V30 3454 C 307.93 -1.13061 -1.14341 0
M  V30 3455 O 309.12 -1.38464 -1.05704 0
M  V30 3456 C 306.252 -2.77644 -1.97804 0
M  V30 3457 H 307.445 -2.99342 -0.1829 0
M  V30 3458 H 304.998 -1.56193 -0.0578566 0
M  V30 3459 H 305.733 -1.99799 -2.55443 0
M  V30 3460 H 305.518 -3.54246 -1.68083 0
M  V30 3461 H 307.008 -3.24708 -2.62592 0
M  V30 3462 N 307.445 0.0818655 -1.57387 0
M  V30 3463 C 308.377 1.12484 -1.997 0
M  V30 3464 C 309.39 1.35564 -0.90146 0
M  V30 3465 O 310.579 1.33982 -1.17945 0
M  V30 3466 C 307.679 2.47778 -2.31213 0
M  V30 3467 C 306.852 2.44793 -3.62485 0
M  V30 3468 C 305.911 3.62117 -3.81782 0
M  V30 3469 O 304.937 3.44005 -4.53486 0
M  V30 3470 N 306.139 4.82094 -3.23367 0
M  V30 3471 H 308.904 0.764585 -2.89783 0
M  V30 3472 H 306.465 0.270664 -1.59621 0
M  V30 3473 H 308.457 3.24891 -2.41304 0
M  V30 3474 H 307.027 2.75843 -1.4707 0
M  V30 3475 H 306.247 1.53134 -3.6324 0
M  V30 3476 H 307.535 2.39889 -4.48699 0
M  V30 3477 H 306.933 4.99713 -2.65148 0
M  V30 3478 H 305.49 5.56753 -3.38923 0
M  V30 3479 N 308.923 1.53595 0.353017 0
M  V30 3480 C 309.853 1.83902 1.43883 0
M  V30 3481 C 310.834 0.693421 1.55324 0
M  V30 3482 O 312.019 0.944452 1.69687 0
M  V30 3483 C 309.149 2.04016 2.8106 0
M  V30 3484 C 308.103 3.19814 2.84434 0
M  V30 3485 C 307.429 3.25244 4.24406 0
M  V30 3486 C 308.729 4.58133 2.50822 0
M  V30 3487 H 310.423 2.74835 1.1877 0
M  V30 3488 H 307.969 1.32242 0.569917 0
M  V30 3489 H 309.922 2.238 3.57059 0
M  V30 3490 H 308.646 1.09804 3.07588 0
M  V30 3491 H 307.305 2.9987 2.10887 0
M  V30 3492 H 306.953 2.28646 4.48029 0
M  V30 3493 H 306.653 4.03054 4.27576 0
M  V30 3494 H 308.177 3.47228 5.0226 0
M  V30 3495 H 309.591 4.77995 3.16534 0
M  V30 3496 H 307.988 5.38276 2.6529 0
M  V30 3497 H 309.058 4.62387 1.46034 0
M  V30 3498 N 310.401 -0.613514 1.45168 0
M  V30 3499 C 311.647 -1.37471 1.49096 0
M  V30 3500 C 311.98 -1.93765 0.129901 0
M  V30 3501 O 311.255 -1.74707 -0.854858 0
M  V30 3502 C 311.538 -2.52701 2.56542 0
M  V30 3503 C 311.391 -2.01643 4.0207 0
M  V30 3504 C 312.71 -3.54849 2.60327 0
M  V30 3505 H 309.829 -0.498502 0.54283 0
M  V30 3506 H 312.471 -0.692125 1.76945 0
M  V30 3507 H 310.621 -3.10931 2.32926 0
M  V30 3508 H 312.293 -1.48108 4.36877 0
M  V30 3509 H 310.536 -1.32688 4.13009 0
M  V30 3510 H 311.207 -2.84681 4.72928 0
M  V30 3511 H 313.683 -3.0645 2.81474 0
M  V30 3512 H 312.559 -4.32973 3.37381 0
M  V30 3513 H 312.82 -4.10079 1.6519 0
M  V30 3514 N 311.879 -1.3236 -0.855495 0
M  V30 3515 C 312.811 -1.17052 -1.97057 0
M  V30 3516 C 313.824 -0.10574 -1.62456 0
M  V30 3517 O 315.013 -0.354619 -1.74942 0
M  V30 3518 C 312.113 -0.769305 -3.30053 0
M  V30 3519 C 311.286 -1.9222 -3.929 0
M  V30 3520 C 310.345 -1.50466 -5.04228 0
M  V30 3521 O 309.371 -2.21655 -5.24269 0
M  V30 3522 N 310.573 -0.400209 -5.79119 0
M  V30 3523 H 313.338 -2.13103 -2.1073 0
M  V30 3524 H 310.899 -1.24885 -1.0303 0
M  V30 3525 H 312.891 -0.472407 -4.01933 0
M  V30 3526 H 311.461 0.100025 -3.1244 0
M  V30 3527 H 310.681 -2.38563 -3.13817 0
M  V30 3528 H 311.969 -2.69403 -4.31624 0
M  V30 3529 H 311.367 0.192319 -5.65373 0
M  V30 3530 H 309.924 -0.162912 -6.51596 0
M  V30 3531 N 313.357 1.07166 -1.15556 0
M  V30 3532 C 314.604 1.79798 -0.931604 0
M  V30 3533 C 314.932 1.8682 0.54115 0
M  V30 3534 O 314.187 1.34942 1.41736 0
M  V30 3535 C 314.486 3.24707 -1.49332 0
M  V30 3536 C 314.152 3.37781 -2.98688 0
M  V30 3537 C 312.814 3.41057 -3.39461 0
M  V30 3538 C 315.166 3.40424 -3.94665 0
M  V30 3539 C 312.494 3.4458 -4.74849 0
M  V30 3540 C 314.846 3.45485 -5.29927 0
M  V30 3541 C 313.51 3.47039 -5.70193 0
M  V30 3542 H 312.78 0.657928 -0.340898 0
M  V30 3543 H 315.427 1.26091 -1.44129 0
M  V30 3544 H 313.732 3.81208 -0.904859 0
M  V30 3545 H 315.429 3.79486 -1.29582 0
M  V30 3546 H 312.019 3.35932 -2.66172 0
M  V30 3547 H 316.203 3.37113 -3.64237 0
M  V30 3548 H 311.459 3.44083 -5.05388 0
M  V30 3549 H 315.633 3.46476 -6.04092 0
M  V30 3550 H 313.26 3.49522 -6.75084 0
M  V30 3551 N 314.835 0.952656 1.25548 0
M  V30 3552 C 316.081 0.607272 1.93494 0
M  V30 3553 C 316.414 -0.853245 1.74452 0
M  V30 3554 O 315.689 -1.61194 1.08843 0
M  V30 3555 C 315.972 0.96435 3.46947 0
M  V30 3556 C 315.825 2.48045 3.75225 0
M  V30 3557 C 317.144 0.487987 4.37386 0
M  V30 3558 H 314.263 0.222096 0.702739 0
M  V30 3559 H 316.905 1.18895 1.48203 0
M  V30 3560 H 315.055 0.469361 3.85654 0
M  V30 3561 H 316.727 3.04905 3.46166 0
M  V30 3562 H 314.97 2.919 3.209 0
M  V30 3563 H 315.641 2.6808 4.82532 0
M  V30 3564 H 318.117 0.912558 4.0597 0
M  V30 3565 H 316.993 0.766547 5.43521 0
M  V30 3566 H 317.254 -0.612063 4.37843 0
M  V30 3567 N 316.313 -1.40141 0.720998 0
M  V30 3568 C 317.243 -2.33339 0.0867621 0
M  V30 3569 C 318.224 -1.53178 -0.739622 0
M  V30 3570 O 319.409 -1.81625 -0.687449 0
M  V30 3571 C 316.539 -3.37194 -0.831728 0
M  V30 3572 C 315.493 -4.27857 -0.110558 0
M  V30 3573 C 314.819 -5.22294 -1.14513 0
M  V30 3574 C 316.119 -5.11872 1.0385 0
M  V30 3575 H 317.813 -2.86626 0.865219 0
M  V30 3576 H 315.359 -1.37814 0.417516 0
M  V30 3577 H 317.312 -4.01335 -1.28485 0
M  V30 3578 H 316.036 -2.82314 -1.64214 0
M  V30 3579 H 314.695 -3.65176 0.322797 0
M  V30 3580 H 314.343 -4.63717 -1.94874 0
M  V30 3581 H 314.043 -5.83797 -0.667446 0
M  V30 3582 H 315.567 -5.89312 -1.59824 0
M  V30 3583 H 316.981 -5.69436 0.664482 0
M  V30 3584 H 315.378 -5.82445 1.4449 0
M  V30 3585 H 316.448 -4.4753 1.86668 0
M  V30 3586 N 317.792 -0.46758 -1.50504 0
M  V30 3587 C 319.02 0.0864133 -2.06719 0
M  V30 3588 C 319.435 1.33819 -1.33184 0
M  V30 3589 O 318.792 1.78061 -0.400083 0
M  V30 3590 C 318.843 0.378079 -3.59517 0
M  V30 3591 O 318.564 -0.824044 -4.3028 0
M  V30 3592 C 320.065 0.979426 -4.32345 0
M  V30 3593 H 317.285 -0.00551697 -0.670977 0
M  V30 3594 H 319.829 -0.655354 -1.93715 0
M  V30 3595 H 317.984 1.06977 -3.72337 0
M  V30 3596 H 318.398 -0.566518 -5.21432 0
M  V30 3597 H 319.872 1.1333 -5.40241 0
M  V30 3598 H 320.349 1.9686 -3.9261 0
M  V30 3599 H 320.955 0.326216 -4.24047 0
M  V30 3600 N 319.27 1.56325 -0.20005 0
M  V30 3601 C 320.519 1.96895 0.437652 0
M  V30 3602 C 320.832 1.08999 1.62415 0
M  V30 3603 O 322.038 1.39372 2.32997 0
M  V30 3604 C 320.494 3.50198 0.830025 0
M  V30 3605 C 320.102 4.46765 -0.332461 0
M  V30 3606 C 321.846 3.99526 1.43453 0
M  V30 3607 C 319.753 5.91344 0.0811468 0
M  V30 3608 H 318.683 0.735209 0.167282 0
M  V30 3609 H 321.334 1.81148 -0.292853 0
M  V30 3610 H 319.716 3.61467 1.61734 0
M  V30 3611 H 320.89 4.47231 -1.11 0
M  V30 3612 H 319.205 4.07657 -0.848789 0
M  V30 3613 H 321.802 5.05025 1.75652 0
M  V30 3614 H 322.145 3.44122 2.34277 0
M  V30 3615 H 322.678 3.91393 0.71109 0
M  V30 3616 H 319.417 6.50685 -0.793033 0
M  V30 3617 H 318.937 5.94121 0.823445 0
M  V30 3618 H 320.616 6.44945 0.515252 0
M  V30 3619 N 320.748 -0.0735177 1.57428 0
M  V30 3620 C 321.976 -0.785969 1.9139 0
M  V30 3621 C 322.391 -1.71207 0.795847 0
M  V30 3622 O 321.748 -1.81033 -0.230915 0
M  V30 3623 C 321.799 -1.58107 3.25091 0
M  V30 3624 O 321.52 -0.6922 4.32597 0
M  V30 3625 C 323.021 -2.39467 3.73055 0
M  V30 3626 H 320.241 -0.223558 0.632663 0
M  V30 3627 H 322.785 -0.044302 2.04452 0
M  V30 3628 H 320.94 -2.27503 3.13562 0
M  V30 3629 H 321.354 -1.24504 5.09508 0
M  V30 3630 H 322.828 -2.90716 4.69242 0
M  V30 3631 H 323.305 -3.18913 3.01979 0
M  V30 3632 H 323.911 -1.7523 3.87523 0
M  V30 3633 N 322.226 -1.5378 -0.344866 0
M  V30 3634 C 323.176 -1.78057 -1.42407 0
M  V30 3635 C 324.16 -0.635732 -1.47808 0
M  V30 3636 O 325.352 -0.89508 -1.527 0
M  V30 3637 C 322.481 -1.99242 -2.79566 0
M  V30 3638 C 321.567 -3.19787 -2.78562 0
M  V30 3639 N 321.958 -4.41284 -2.47189 0
M  V30 3640 C 320.256 -3.2093 -3.0971 0
M  V30 3641 C 320.957 -5.23128 -2.54385 0
M  V30 3642 N 319.933 -4.59813 -2.89953 0
M  V30 3643 H 323.735 -2.69588 -1.17046 0
M  V30 3644 H 321.249 -1.52687 -0.553217 0
M  V30 3645 H 323.246 -2.14768 -3.57324 0
M  V30 3646 H 321.906 -1.08953 -3.05875 0
M  V30 3647 H 322.917 -4.68657 -2.20411 0
M  V30 3648 H 319.594 -2.40603 -3.41199 0
M  V30 3649 H 320.984 -6.30096 -2.333 0
M  V30 3650 N 323.704 0.605807 -1.45491 0
M  V30 3651 C 324.932 1.39136 -1.5313 0
M  V30 3652 C 325.347 1.88082 -0.164507 0
M  V30 3653 O 324.704 1.62316 0.834247 0
M  V30 3654 C 324.755 2.59463 -2.51716 0
M  V30 3655 O 324.476 2.12551 -3.83084 0
M  V30 3656 C 325.977 3.52301 -2.6907 0
M  V30 3657 H 323.197 0.425849 -0.51855 0
M  V30 3658 H 325.741 0.73865 -1.90694 0
M  V30 3659 H 323.896 3.20772 -2.17219 0
M  V30 3660 H 324.31 2.90744 -4.36541 0
M  V30 3661 H 325.784 4.33271 -3.42024 0
M  V30 3662 H 326.261 4.02757 -1.75167 0
M  V30 3663 H 326.867 2.96845 -3.04571 0
M  V30 3664 N 325.182 1.32811 0.848464 0
M  V30 3665 C 326.115 1.16601 1.96162 0
M  V30 3666 C 327.093 0.0638855 1.62474 0
M  V30 3667 O 328.277 0.224348 1.8716 0
M  V30 3668 C 325.404 0.786333 3.29446 0
M  V30 3669 C 324.45 1.89459 3.8211 0
M  V30 3670 S 325.283 3.50395 4.04949 0
M  V30 3671 C 326.439 3.14413 5.41198 0
M  V30 3672 H 326.672 2.10832 2.09612 0
M  V30 3673 H 324.205 1.17543 1.00115 0
M  V30 3674 H 326.163 0.574044 4.06466 0
M  V30 3675 H 324.824 -0.137218 3.138 0
M  V30 3676 H 324.017 1.58207 4.78526 0
M  V30 3677 H 323.619 2.06304 3.11953 0
M  V30 3678 H 325.911 2.64642 6.23675 0
M  V30 3679 H 326.854 4.09874 5.77416 0
M  V30 3680 H 327.262 2.51266 5.05495 0
M  V30 3681 N 326.66 -1.06551 1.16123 0
M  V30 3682 C 327.885 -1.83544 0.965735 0
M  V30 3683 C 328.31 -1.81843 -0.481102 0
M  V30 3684 O 327.668 -1.21732 -1.34354 0
M  V30 3685 C 327.716 -3.28169 1.49457 0
M  V30 3686 O 326.82 -4.0643 0.699157 0
M  V30 3687 H 326.161 -0.568026 0.343864 0
M  V30 3688 H 328.691 -1.34362 1.54299 0
M  V30 3689 H 328.701 -3.78992 1.51092 0
M  V30 3690 H 327.376 -3.28722 2.54784 0
M  V30 3691 H 325.953 -3.65216 0.7531 0
M  V30 3692 N 328.138 -0.959301 -1.25041 0
M  V30 3693 C 329.101 -0.487677 -2.23952 0
M  V30 3694 C 330.101 0.41119 -1.55454 0
M  V30 3695 O 331.291 0.207825 -1.72956 0
M  V30 3696 C 328.423 0.294807 -3.39623 0
M  V30 3697 H 329.616 -1.36198 -2.67189 0
M  V30 3698 H 327.169 -0.743042 -1.37508 0
M  V30 3699 H 327.904 1.18658 -3.01813 0
M  V30 3700 H 327.689 -0.35012 -3.90534 0
M  V30 3701 H 329.179 0.614089 -4.1306 0
M  V30 3702 N 329.616 1.39756 -0.72842 0
M  V30 3703 C 330.862 2.00942 -0.273892 0
M  V30 3704 C 331.195 1.57656 1.13394 0
M  V30 3705 O 330.47 0.802434 1.77176 0
M  V30 3706 C 330.753 3.58211 -0.368346 0
M  V30 3707 C 330.606 4.11534 -1.81548 0
M  V30 3708 C 331.925 4.39372 0.253054 0
M  V30 3709 H 329.044 0.730047 -0.100996 0
M  V30 3710 H 331.686 1.66056 -0.923337 0
M  V30 3711 H 329.836 3.88061 0.184588 0
M  V30 3712 H 331.508 3.92431 -2.42478 0
M  V30 3713 H 329.751 3.65341 -2.33898 0
M  V30 3714 H 330.422 5.20682 -1.83288 0
M  V30 3715 H 332.898 4.15527 -0.218224 0
M  V30 3716 H 331.774 5.48677 0.156585 0
M  V30 3717 H 332.035 4.21358 1.33826 0
M  V30 3718 N 331.094 0.475555 1.50254 0
M  V30 3719 C 332.34 -0.0780073 2.0265 0
M  V30 3720 C 332.673 -1.38968 1.35652 0
M  V30 3721 O 331.948 -1.8839 0.483691 0
M  V30 3722 C 332.231 -0.257161 3.59181 0
M  V30 3723 C 332.084 1.07585 4.36744 0
M  V30 3724 C 333.403 -1.00965 4.28362 0
M  V30 3725 H 330.522 -0.0268758 0.73651 0
M  V30 3726 H 333.164 0.622015 1.7953 0
M  V30 3727 H 331.314 -0.853412 3.79011 0
M  V30 3728 H 332.986 1.70902 4.28474 0
M  V30 3729 H 331.229 1.6714 4.00308 0
M  V30 3730 H 331.9 0.904088 5.44546 0
M  V30 3731 H 334.376 -0.504214 4.13034 0
M  V30 3732 H 333.252 -1.10381 5.37687 0
M  V30 3733 H 333.513 -2.04731 3.91839 0
M  V30 3734 N 332.573 -1.56217 0.208337 0
M  V30 3735 C 333.52 -2.19699 -0.707192 0
M  V30 3736 C 334.49 -1.14836 -1.20008 0
M  V30 3737 O 335.675 -1.4314 -1.26157 0
M  V30 3738 C 332.815 -2.87061 -1.91546 0
M  V30 3739 C 331.928 -4.06483 -1.46271 0
M  V30 3740 C 331.063 -4.61665 -2.62752 0
M  V30 3741 C 330.102 -5.73417 -2.14147 0
M  V30 3742 N 329.239 -6.22948 -3.23853 0
M  V30 3743 H 334.079 -2.97575 -0.159111 0
M  V30 3744 H 331.616 -1.46948 -0.0667874 0
M  V30 3745 H 333.574 -3.24294 -2.62468 0
M  V30 3746 H 332.204 -2.11725 -2.43664 0
M  V30 3747 H 331.256 -3.74825 -0.648886 0
M  V30 3748 H 332.568 -4.87271 -1.06622 0
M  V30 3749 H 331.722 -5.01272 -3.41776 0
M  V30 3750 H 330.461 -3.80013 -3.05682 0
M  V30 3751 H 329.466 -5.33326 -1.33581 0
M  V30 3752 H 330.691 -6.56897 -1.72232 0
M  V30 3753 H 328.637 -5.44213 -3.6629 0
M  V30 3754 H 328.554 -6.98823 -2.88414 0
M  V30 3755 H 329.822 -6.6721 -4.03052 0
M  V30 3756 N 334.051 0.0651679 -1.57465 0
M  V30 3757 C 335.462 0.616213 -1.76238 0
M  V30 3758 C 335.813 1.7756 -0.834689 0
M  V30 3759 O 334.938 2.1639 -0.0204156 0
M  V30 3760 C 335.533 1.12462 -3.1959 0
M  V30 3761 C 334.092 1.62147 -3.39684 0
M  V30 3762 C 333.239 0.543739 -2.71917 0
M  V30 3763 H 336.19 -0.161022 -1.57881 0
M  V30 3764 H 336.211 1.99324 -3.24114 0
M  V30 3765 H 335.723 0.280592 -3.87084 0
M  V30 3766 H 333.824 2.48854 -2.77313 0
M  V30 3767 H 333.937 1.69385 -4.48158 0
M  V30 3768 H 332.301 0.990352 -2.34657 0
M  V30 3769 H 333.084 -0.290216 -3.42071 0
M  V30 3770 N 335.529 1.53961 0.336706 0
M  V30 3771 C 336.769 1.73254 1.08454 0
M  V30 3772 C 337.133 0.488937 1.8567 0
M  V30 3773 O 338.334 0.559001 2.62923 0
M  V30 3774 C 336.605 2.96519 1.99528 0
M  V30 3775 S 338.164 3.36655 2.81441 0
M  V30 3776 H 334.982 0.609353 0.366347 0
M  V30 3777 H 337.584 1.92117 0.362124 0
M  V30 3778 H 336.288 3.85193 1.41614 0
M  V30 3779 H 335.819 2.80142 2.76196 0
M  V30 3780 H 337.834 2.90925 4.01967 0
M  V30 3781 N 337.007 -0.598083 1.45811 0
M  V30 3782 C 338.255 -1.35413 1.50026 0
M  V30 3783 C 338.576 -1.94444 0.147177 0
M  V30 3784 O 337.846 -1.77701 -0.824571 0
M  V30 3785 H 336.426 -0.502727 0.552517 0
M  V30 3786 H 339.088 -0.701606 1.81834 0
M  V30 3787 H 338.184 -2.16871 2.2444 0
M  V30 3788 N 338.485 -1.33259 -0.841409 0
M  V30 3789 C 339.732 -1.24572 -1.5965 0
M  V30 3790 C 340.06 0.189137 -1.93578 0
M  V30 3791 O 339.315 1.14566 -1.5866 0
M  V30 3792 C 339.614 -2.06381 -2.9179 0
M  V30 3793 C 339.28 -3.556 -2.77235 0
M  V30 3794 C 337.942 -3.96282 -2.72973 0
M  V30 3795 C 340.294 -4.50433 -2.62221 0
M  V30 3796 C 337.622 -5.30017 -2.51592 0
M  V30 3797 C 339.974 -5.84327 -2.42374 0
M  V30 3798 C 338.638 -6.24194 -2.36512 0
M  V30 3799 H 337.908 -0.455842 -0.5842 0
M  V30 3800 H 340.555 -1.6482 -0.975016 0
M  V30 3801 H 338.86 -1.58903 -3.5813 0
M  V30 3802 H 340.557 -1.97019 -3.49263 0
M  V30 3803 H 337.147 -3.23298 -2.81384 0
M  V30 3804 H 341.331 -4.19914 -2.64549 0
M  V30 3805 H 336.587 -5.59947 -2.45499 0
M  V30 3806 H 340.761 -6.57414 -2.29739 0
M  V30 3807 H 338.388 -7.27759 -2.19706 0
M  V30 3808 N 339.963 1.05934 -1.16686 0
M  V30 3809 C 341.374 1.60263 -0.957745 0
M  V30 3810 C 341.725 1.89789 0.49745 0
M  V30 3811 O 340.85 1.67401 1.37135 0
M  V30 3812 C 341.445 2.91172 -1.73218 0
M  V30 3813 C 340.004 3.42188 -1.56794 0
M  V30 3814 C 339.151 2.16028 -1.73859 0
M  V30 3815 H 342.102 0.888392 -1.31504 0
M  V30 3816 H 342.123 3.60744 -1.21014 0
M  V30 3817 H 341.635 2.6965 -2.79124 0
M  V30 3818 H 339.736 3.68762 -0.533437 0
M  V30 3819 H 339.849 4.17273 -2.35414 0
M  V30 3820 H 338.213 2.26426 -1.16633 0
M  V30 3821 H 338.996 1.96985 -2.81161 0
M  V30 3822 N 341.441 0.965919 1.2453 0
M  V30 3823 C 342.688 0.626831 1.92554 0
M  V30 3824 C 343.016 -0.837739 1.75534 0
M  V30 3825 O 342.271 -1.61793 1.10098 0
M  V30 3826 C 342.57 0.945428 3.44669 0
M  V30 3827 C 342.236 2.39785 3.81856 0
M  V30 3828 C 340.898 2.79483 3.91718 0
M  V30 3829 C 343.25 3.34055 4.00071 0
M  V30 3830 C 340.578 4.12496 4.1721 0
M  V30 3831 C 342.93 4.66694 4.27059 0
M  V30 3832 C 341.594 5.06172 4.3514 0
M  V30 3833 H 340.864 0.229374 0.704605 0
M  V30 3834 H 343.511 1.21707 1.4785 0
M  V30 3835 H 341.816 0.272926 3.90848 0
M  V30 3836 H 343.513 0.661484 3.95507 0
M  V30 3837 H 340.103 2.08003 3.74743 0
M  V30 3838 H 344.287 3.04571 3.91855 0
M  V30 3839 H 339.543 4.42709 4.21685 0
M  V30 3840 H 343.717 5.3971 4.40097 0
M  V30 3841 H 341.344 6.09262 4.54646 0
M  V30 3842 N 342.919 -1.39368 0.735821 0
M  V30 3843 C 344.167 -2.00101 0.283562 0
M  V30 3844 C 344.488 -1.5868 -1.13338 0
M  V30 3845 O 343.758 -0.835423 -1.77193 0
M  V30 3846 H 342.338 -0.740024 0.101851 0
M  V30 3847 H 345 -1.70404 0.945962 0
M  V30 3848 H 344.096 -3.10323 0.332604 0
M  V30 3849 N 344.397 -0.483516 -1.5 0
M  V30 3850 C 345.637 0.0657469 -2.04294 0
M  V30 3851 C 346.001 1.35869 -1.35659 0
M  V30 3852 O 347.202 1.99111 -1.80578 0
M  V30 3853 C 345.473 0.232758 -3.56641 0
M  V30 3854 S 347.032 0.738788 -4.32536 0
M  V30 3855 H 343.85 0.0100755 -0.710929 0
M  V30 3856 H 346.452 -0.653494 -1.84254 0
M  V30 3857 H 345.156 -0.713847 -4.04144 0
M  V30 3858 H 344.687 0.977751 -3.81056 0
M  V30 3859 H 346.702 2.01048 -4.53645 0
M  V30 3860 N 345.875 1.56104 -0.216619 0
M  V30 3861 C 346.805 2.23063 0.690296 0
M  V30 3862 C 347.786 1.20072 1.20485 0
M  V30 3863 O 348.971 1.48643 1.24976 0
M  V30 3864 C 346.101 2.90672 1.90072 0
M  V30 3865 C 345.055 4.00092 1.5202 0
M  V30 3866 C 344.381 4.54972 2.80899 0
M  V30 3867 C 345.681 5.17398 0.71391 0
M  V30 3868 H 347.375 2.99109 0.132038 0
M  V30 3869 H 344.921 1.43866 0.0620664 0
M  V30 3870 H 346.874 3.36204 2.54057 0
M  V30 3871 H 345.598 2.12066 2.48386 0
M  V30 3872 H 344.257 3.55283 0.903839 0
M  V30 3873 H 343.905 3.73102 3.37348 0
M  V30 3874 H 343.605 5.28817 2.56176 0
M  V30 3875 H 345.129 5.0322 3.45836 0
M  V30 3876 H 346.543 5.59342 1.25735 0
M  V30 3877 H 344.94 5.97444 0.563951 0
M  V30 3878 H 346.01 4.84088 -0.280527 0
M  V30 3879 N 347.353 -0.0568162 1.57498 0
M  V30 3880 C 348.602 -0.752001 1.87157 0
M  V30 3881 C 348.915 -1.77978 0.811375 0
M  V30 3882 O 350.121 -2.52559 0.996293 0
M  V30 3883 C 348.577 -1.38844 3.3204 0
M  V30 3884 C 348.185 -0.398456 4.46225 0
M  V30 3885 C 349.929 -2.06512 3.70882 0
M  V30 3886 C 347.836 -1.04166 5.82154 0
M  V30 3887 H 346.766 -0.28461 0.698222 0
M  V30 3888 H 349.417 -0.00561272 1.83499 0
M  V30 3889 H 347.799 -2.1836 3.30356 0
M  V30 3890 H 348.973 0.367977 4.59328 0
M  V30 3891 H 347.288 0.174592 4.16034 0
M  V30 3892 H 349.885 -2.55437 4.6974 0
M  V30 3893 H 350.228 -2.87117 3.01445 0
M  V30 3894 H 350.761 -1.33808 3.7462 0
M  V30 3895 H 347.5 -0.275614 6.5492 0
M  V30 3896 H 347.02 -1.7786 5.72823 0
M  V30 3897 H 348.699 -1.55715 6.27982 0
M  V30 3898 N 348.832 -1.54138 -0.328536 0
M  V30 3899 C 350.079 -1.72105 -1.06706 0
M  V30 3900 C 350.407 -0.492111 -1.88171 0
M  V30 3901 O 349.662 0.526153 -1.88494 0
M  V30 3902 C 349.961 -2.9457 -2.02393 0
M  V30 3903 C 349.627 -4.29544 -1.37122 0
M  V30 3904 C 348.289 -4.6624 -1.19052 0
M  V30 3905 C 350.641 -5.1333 -0.902331 0
M  V30 3906 C 347.969 -5.84325 -0.527331 0
M  V30 3907 C 350.321 -6.32094 -0.252988 0
M  V30 3908 C 348.985 -6.67473 -0.0600901 0
M  V30 3909 H 348.255 -0.629775 -0.390466 0
M  V30 3910 H 350.902 -1.88372 -0.34473 0
M  V30 3911 H 349.207 -2.72969 -2.81061 0
M  V30 3912 H 350.904 -3.05665 -2.59557 0
M  V30 3913 H 347.494 -4.0067 -1.52188 0
M  V30 3914 H 351.678 -4.855 -1.02974 0
M  V30 3915 H 346.934 -6.103 -0.366634 0
M  V30 3916 H 351.108 -6.96299 0.118366 0
M  V30 3917 H 348.735 -7.58832 0.455828 0
M  V30 3918 N 350.31 0.590341 -1.46126 0
M  V30 3919 C 351.242 1.71427 -1.52136 0
M  V30 3920 C 352.255 1.57542 -0.41042 0
M  V30 3921 O 353.444 1.65106 -0.678389 0
M  V30 3922 C 350.544 3.09605 -1.37834 0
M  V30 3923 C 349.717 3.49566 -2.62912 0
M  V30 3924 C 348.776 4.66773 -2.42918 0
M  V30 3925 O 347.802 4.73019 -3.1661 0
M  V30 3926 N 349.004 5.61161 -1.4859 0
M  V30 3927 H 351.769 1.66728 -2.49042 0
M  V30 3928 H 349.33 0.776113 -1.42085 0
M  V30 3929 H 351.322 3.85796 -1.22243 0
M  V30 3930 H 349.892 3.08714 -0.491393 0
M  V30 3931 H 349.112 2.63158 -2.93499 0
M  V30 3932 H 350.4 3.73028 -3.46017 0
M  V30 3933 H 349.798 5.58844 -0.87808 0
M  V30 3934 H 348.355 6.36814 -1.38965 0
M  V30 3935 N 351.788 1.33704 0.83433 0
M  V30 3936 C 353.013 1.28615 1.62705 0
M  V30 3937 C 353.438 -0.139242 1.87584 0
M  V30 3938 O 352.796 -1.09734 1.4432 0
M  V30 3939 C 352.844 2.07139 2.95171 0
M  V30 3940 O 351.948 1.4331 3.86699 0
M  V30 3941 H 351.289 0.44226 0.49528 0
M  V30 3942 H 353.819 1.76335 1.03766 0
M  V30 3943 H 353.829 2.18073 3.44831 0
M  V30 3944 H 352.504 3.10779 2.76386 0
M  V30 3945 H 351.081 1.4105 3.45195 0
M  V30 3946 N 353.266 -1.05314 1.17247 0
M  V30 3947 C 354.491 -1.82509 0.985148 0
M  V30 3948 C 354.916 -1.82343 -0.461788 0
M  V30 3949 O 354.274 -1.23151 -1.33055 0
M  V30 3950 C 354.322 -3.26566 1.52929 0
M  V30 3951 O 353.426 -4.05666 0.742225 0
M  V30 3952 H 352.767 -0.564347 0.349869 0
M  V30 3953 H 355.297 -1.32718 1.55715 0
M  V30 3954 H 355.307 -3.77369 1.55103 0
M  V30 3955 H 353.982 -3.26001 2.58256 0
M  V30 3956 H 352.559 -3.64397 0.791794 0
M  V30 3957 N 354.744 -0.972509 -1.24016 0
M  V30 3958 C 355.974 -0.653853 -1.9598 0
M  V30 3959 C 356.382 0.781801 -1.72292 0
M  V30 3960 O 355.725 1.53677 -1.00644 0
M  V30 3961 C 355.787 -0.854608 -3.49194 0
M  V30 3962 C 355.451 -2.27082 -3.96589 0
M  V30 3963 C 356.448 -3.24892 -4.05883 0
M  V30 3964 C 354.133 -2.5998 -4.29786 0
M  V30 3965 C 356.127 -4.53684 -4.47716 0
M  V30 3966 C 353.814 -3.88997 -4.71301 0
M  V30 3967 C 354.812 -4.85661 -4.80232 0
M  V30 3968 O 354.5 -6.12376 -5.20818 0
M  V30 3969 H 354.232 -0.242572 -0.630979 0
M  V30 3970 H 356.786 -1.30431 -1.58673 0
M  V30 3971 H 355.016 -0.146985 -3.86421 0
M  V30 3972 H 356.705 -0.534311 -4.02368 0
M  V30 3973 H 357.471 -3.00805 -3.80449 0
M  V30 3974 H 353.35 -1.85457 -4.22051 0
M  V30 3975 H 356.894 -5.29135 -4.54601 0
M  V30 3976 H 352.791 -4.12882 -4.96184 0
M  V30 3977 H 353.559 -6.16013 -5.38953 0
M  V30 3978 N 356.222 1.38976 -0.743202 0
M  V30 3979 C 357.155 2.28128 -0.0572165 0
M  V30 3980 C 358.133 1.44827 0.739182 0
M  V30 3981 O 359.317 1.74207 0.720009 0
M  V30 3982 C 356.444 3.25796 0.926001 0
M  V30 3983 C 355.49 4.25947 0.217099 0
M  V30 3984 S 356.323 5.24604 -1.07477 0
M  V30 3985 C 357.479 6.25829 -0.0943545 0
M  V30 3986 H 357.712 2.85961 -0.813246 0
M  V30 3987 H 355.245 1.44822 -0.535341 0
M  V30 3988 H 357.203 3.82583 1.48797 0
M  V30 3989 H 355.864 2.66966 1.65493 0
M  V30 3990 H 355.057 4.94746 0.961372 0
M  V30 3991 H 354.659 3.73002 -0.273059 0
M  V30 3992 H 356.951 6.73411 0.743239 0
M  V30 3993 H 357.894 7.0412 -0.749713 0
M  V30 3994 H 358.302 5.63797 0.281706 0
M  V30 3995 N 357.7 0.491464 1.49741 0
M  V30 3996 C 358.63 -0.28154 2.31796 0
M  V30 3997 C 359.611 -0.971473 1.3963 0
M  V30 3998 O 360.796 -0.964719 1.68543 0
M  V30 3999 C 357.926 -1.35203 3.19902 0
M  V30 4000 C 356.88 -0.782529 4.20786 0
M  V30 4001 C 356.206 -1.95283 4.97764 0
M  V30 4002 C 357.506 0.21999 5.21837 0
M  V30 4003 H 359.2 0.403355 2.96671 0
M  V30 4004 H 356.746 0.195425 1.42668 0
M  V30 4005 H 358.699 -1.90045 3.76113 0
M  V30 4006 H 357.423 -2.06598 2.52953 0
M  V30 4007 H 356.082 -0.255928 3.65706 0
M  V30 4008 H 355.73 -2.65423 4.2727 0
M  V30 4009 H 355.43 -1.57789 5.66018 0
M  V30 4010 H 356.954 -2.50577 5.56816 0
M  V30 4011 H 358.368 -0.23996 5.72798 0
M  V30 4012 H 356.765 0.51026 5.97927 0
M  V30 4013 H 357.835 1.13911 4.7133 0
M  V30 4014 N 359.178 -1.55987 0.224894 0
M  V30 4015 C 360.406 -2.02784 -0.410665 0
M  V30 4016 C 360.821 -1.10464 -1.53112 0
M  V30 4017 O 360.178 -0.114871 -1.82138 0
M  V30 4018 C 360.229 -3.49087 -0.939165 0
M  V30 4019 O 359.95 -4.37887 0.136614 0
M  V30 4020 C 361.451 -4.11543 -1.64763 0
M  V30 4021 H 358.671 -0.663484 -0.100148 0
M  V30 4022 H 361.215 -2.01614 0.342326 0
M  V30 4023 H 359.37 -3.50861 -1.64242 0
M  V30 4024 H 359.784 -5.23849 -0.261155 0
M  V30 4025 H 361.258 -5.15673 -1.96939 0
M  V30 4026 H 361.735 -3.56736 -2.56195 0
M  V30 4027 H 362.341 -4.13629 -0.989503 0
M  V30 4028 N 360.656 0.0484629 -1.57525 0
M  V30 4029 C 361.586 1.0549 -2.08313 0
M  V30 4030 C 362.567 1.38929 -0.981463 0
M  V30 4031 O 363.752 1.48151 -1.25558 0
M  V30 4032 C 360.882 2.36162 -2.54646 0
M  V30 4033 C 359.836 2.17016 -3.68901 0
M  V30 4034 C 359.162 3.53278 -4.01371 0
M  V30 4035 C 360.462 1.57219 -4.98076 0
M  V30 4036 H 362.156 0.632195 -2.92649 0
M  V30 4037 H 359.702 0.302654 -1.40784 0
M  V30 4038 H 361.655 3.06882 -2.88793 0
M  V30 4039 H 360.379 2.80456 -1.67368 0
M  V30 4040 H 359.038 1.48733 -3.35073 0
M  V30 4041 H 358.686 3.95185 -3.11188 0
M  V30 4042 H 358.386 3.41299 -4.78318 0
M  V30 4043 H 359.91 4.25391 -4.38035 0
M  V30 4044 H 361.324 2.17832 -5.30304 0
M  V30 4045 H 359.721 1.55871 -5.79503 0
M  V30 4046 H 360.791 0.535956 -4.81929 0
M  V30 4047 N 362.134 1.5431 0.320358 0
M  V30 4048 C 363.38 1.72924 1.05949 0
M  V30 4049 C 363.713 0.503185 1.87568 0
M  V30 4050 O 362.988 -0.499839 1.87968 0
M  V30 4051 C 363.271 3.00676 1.98156 0
M  V30 4052 C 363.124 4.3354 1.19845 0
M  V30 4053 C 364.443 3.24198 2.9763 0
M  V30 4054 H 361.562 0.629195 0.383774 0
M  V30 4055 H 364.204 1.87008 0.335854 0
M  V30 4056 H 362.354 2.888 2.59859 0
M  V30 4057 H 364.026 4.57305 0.605773 0
M  V30 4058 H 362.269 4.309 0.500784 0
M  V30 4059 H 362.94 5.19156 1.87567 0
M  V30 4060 H 365.416 3.35557 2.4605 0
M  V30 4061 H 364.292 4.14938 3.59329 0
M  V30 4062 H 364.553 2.41577 3.7026 0
M  V30 4063 N 363.613 -0.582584 1.46437 0
M  V30 4064 C 364.862 -1.337 1.5102 0
M  V30 4065 C 365.175 -1.94891 0.166359 0
M  V30 4066 O 366.381 -2.71351 0.0899954 0
M  V30 4067 C 364.837 -2.42315 2.66104 0
M  V30 4068 C 364.445 -1.87427 4.06909 0
M  V30 4069 C 366.189 -3.19099 2.79958 0
M  V30 4070 C 364.096 -2.93672 5.13333 0
M  V30 4071 H 363.026 -0.502619 0.562041 0
M  V30 4072 H 365.677 -0.621701 1.72647 0
M  V30 4073 H 364.059 -3.16645 2.37807 0
M  V30 4074 H 365.233 -1.19639 4.44998 0
M  V30 4075 H 363.548 -1.2331 3.97723 0
M  V30 4076 H 366.145 -3.9839 3.56636 0
M  V30 4077 H 366.488 -3.71695 1.87479 0
M  V30 4078 H 367.021 -2.51875 3.07902 0
M  V30 4079 H 363.76 -2.45962 6.07604 0
M  V30 4080 H 363.28 -3.59948 4.79789 0
M  V30 4081 H 364.959 -3.5762 5.39182 0
M  V30 4082 N 365.091 -1.34144 -0.827227 0
M  V30 4083 C 366.021 -1.28005 -1.95287 0
M  V30 4084 C 367.002 -0.158321 -1.69362 0
M  V30 4085 O 368.187 -0.349987 -1.9102 0
M  V30 4086 C 365.317 -1.03036 -3.31664 0
M  V30 4087 C 364.271 -2.11628 -3.72019 0
M  V30 4088 C 363.597 -1.71854 -5.0633 0
M  V30 4089 C 364.897 -3.53417 -3.8457 0
M  V30 4090 H 366.591 -2.22187 -2.00682 0
M  V30 4091 H 364.137 -1.0696 -0.964135 0
M  V30 4092 H 366.09 -0.973863 -4.09993 0
M  V30 4093 H 364.814 -0.0529391 -3.26557 0
M  V30 4094 H 363.473 -2.16339 -2.95961 0
M  V30 4095 H 363.121 -0.727841 -4.97706 0
M  V30 4096 H 362.821 -2.44531 -5.34302 0
M  V30 4097 H 364.345 -1.67692 -5.87122 0
M  V30 4098 H 365.759 -3.51142 -4.5318 0
M  V30 4099 H 364.156 -4.24679 -4.2399 0
M  V30 4100 H 365.226 -3.91072 -2.86689 0
M  V30 4101 N 366.569 1.04691 -1.17803 0
M  V30 4102 C 367.816 1.77782 -0.969532 0
M  V30 4103 C 368.144 1.87926 0.501401 0
M  V30 4104 O 367.399 1.37918 1.38842 0
M  V30 4105 C 367.698 3.21467 -1.56186 0
M  V30 4106 C 367.364 3.3137 -3.05786 0
M  V30 4107 C 366.026 3.3378 -3.46619 0
M  V30 4108 C 368.378 3.31976 -4.01797 0
M  V30 4109 C 365.706 3.34431 -4.82051 0
M  V30 4110 C 368.058 3.34167 -5.37136 0
M  V30 4111 C 366.722 3.34866 -5.77426 0
M  V30 4112 H 365.992 0.650549 -0.354777 0
M  V30 4113 H 368.639 1.23006 -1.46772 0
M  V30 4114 H 366.944 3.79203 -0.985515 0
M  V30 4115 H 368.641 3.76652 -1.37602 0
M  V30 4116 H 365.231 3.3021 -2.73238 0
M  V30 4117 H 369.415 3.29311 -3.71306 0
M  V30 4118 H 364.671 3.33285 -5.12573 0
M  V30 4119 H 368.845 3.33585 -6.11305 0
M  V30 4120 H 366.472 3.35124 -6.82346 0
M  V30 4121 N 368.047 0.979072 1.23499 0
M  V30 4122 C 368.977 0.537606 2.27227 0
M  V30 4123 C 369.958 -0.428539 1.64613 0
M  V30 4124 O 371.143 -0.322191 1.91509 0
M  V30 4125 C 368.273 -0.162052 3.46922 0
M  V30 4126 C 367.227 0.721242 4.21879 0
M  V30 4127 C 366.553 -0.110555 5.34586 0
M  V30 4128 C 367.853 2.01141 4.82016 0
M  V30 4129 H 369.547 1.40462 2.64406 0
M  V30 4130 H 367.093 0.67684 1.27102 0
M  V30 4131 H 369.046 -0.482192 4.18632 0
M  V30 4132 H 367.77 -1.06351 3.08799 0
M  V30 4133 H 366.429 1.02482 3.51984 0
M  V30 4134 H 366.077 -1.0125 4.92704 0
M  V30 4135 H 365.777 0.477325 5.85658 0
M  V30 4136 H 367.301 -0.425107 6.09118 0
M  V30 4137 H 368.715 1.75612 5.45741 0
M  V30 4138 H 367.112 2.54695 5.43369 0
M  V30 4139 H 368.182 2.69909 4.02836 0
M  V30 4140 N 369.525 -1.3858 0.750561 0
M  V30 4141 C 370.473 -2.32339 0.110162 0
M  V30 4142 C 371.467 -1.53864 -0.708674 0
M  V30 4143 O 372.673 -1.69417 -0.608112 0
M  V30 4144 H 369.048 -0.751812 0.0168275 0
M  V30 4145 H 371.019 -2.83959 0.917053 0
M  V30 4146 C 369.768 -3.39043 -0.771067 0
M  V30 4147 H 369.091 -3.99517 -0.150374 0
M  V30 4148 H 370.531 -4.07061 -1.1865 0
M  V30 4149 C 368.99 -2.77365 -1.91234 0
M  V30 4150 O 369.52 -2.66434 -3.00626 0
M  V30 4151 N 367.726 -2.35219 -1.70646 0
M  V30 4152 H 367.273 -2.4431 -0.81673 0
M  V30 4153 H 367.231 -1.94294 -2.47178 0
M  V30 4154 N 371.003 -0.499398 -1.49478 0
M  V30 4155 C 372.25 0.0456899 -2.02448 0
M  V30 4156 C 372.578 1.37142 -1.37921 0
M  V30 4157 O 371.833 1.89111 -0.503544 0
M  V30 4158 C 372.132 0.248424 -3.56536 0
M  V30 4159 C 371.798 -0.999107 -4.39692 0
M  V30 4160 C 370.46 -1.34108 -4.62135 0
M  V30 4161 C 372.812 -1.82842 -4.88076 0
M  V30 4162 C 370.14 -2.51191 -5.30208 0
M  V30 4163 C 372.492 -2.99076 -5.57437 0
M  V30 4164 C 371.156 -3.33655 -5.78127 0
M  V30 4165 H 370.426 0.0167191 -0.740811 0
M  V30 4166 H 373.073 -0.65923 -1.79795 0
M  V30 4167 H 371.378 1.03586 -3.77859 0
M  V30 4168 H 373.075 0.684605 -3.95113 0
M  V30 4169 H 369.665 -0.722729 -4.22463 0
M  V30 4170 H 373.849 -1.57737 -4.70566 0
M  V30 4171 H 369.105 -2.78221 -5.44429 0
M  V30 4172 H 373.279 -3.63664 -5.93904 0
M  V30 4173 H 370.906 -4.24483 -6.30649 0
M  V30 4174 N 372.481 1.55866 -0.233164 0
M  V30 4175 C 373.711 2.02704 0.399325 0
M  V30 4176 C 374.119 1.11204 1.53069 0
M  V30 4177 O 373.462 0.116182 1.83332 0
M  V30 4178 C 373.524 3.45844 0.981429 0
M  V30 4179 C 373.188 4.56997 -0.0159561 0
M  V30 4180 C 374.185 5.13384 -0.820552 0
M  V30 4181 C 371.87 5.0211 -0.138072 0
M  V30 4182 C 373.864 6.13365 -1.73386 0
M  V30 4183 C 371.551 6.01926 -1.0549 0
M  V30 4184 C 372.549 6.57431 -1.85132 0
M  V30 4185 O 372.237 7.55302 -2.75272 0
M  V30 4186 H 371.969 0.668459 0.100692 0
M  V30 4187 H 374.523 2.02387 -0.35052 0
M  V30 4188 H 372.753 3.43267 1.78058 0
M  V30 4189 H 374.442 3.76262 1.52255 0
M  V30 4190 H 375.208 4.79372 -0.736721 0
M  V30 4191 H 371.087 4.5858 0.471737 0
M  V30 4192 H 374.631 6.56614 -2.35592 0
M  V30 4193 H 370.528 6.35359 -1.1397 0
M  V30 4194 H 371.296 7.72867 -2.69477 0
M  V30 4195 N 373.959 -0.0401083 1.57549 0
M  V30 4196 C 375.205 -0.734211 1.89043 0
M  V30 4197 C 375.538 -1.75591 0.829535 0
M  V30 4198 O 374.813 -1.93868 -0.156706 0
M  V30 4199 C 375.096 -1.41374 3.31188 0
M  V30 4200 C 374.949 -0.406299 4.47961 0
M  V30 4201 C 376.268 -2.35061 3.72068 0
M  V30 4202 H 373.387 -0.265447 0.687537 0
M  V30 4203 H 376.029 0.00294087 1.9 0
M  V30 4204 H 374.179 -2.04206 3.30503 0
M  V30 4205 H 375.851 0.219255 4.60779 0
M  V30 4206 H 374.094 0.275485 4.32924 0
M  V30 4207 H 374.765 -0.920022 5.44279 0
M  V30 4208 H 377.241 -1.82282 3.74049 0
M  V30 4209 H 376.117 -2.79593 4.72355 0
M  V30 4210 H 376.378 -3.21258 3.0372 0
M  V30 4211 N 375.437 -1.54477 -0.31217 0
M  V30 4212 C 376.369 -1.81011 -1.40598 0
M  V30 4213 C 377.382 -0.692546 -1.47335 0
M  V30 4214 O 378.571 -0.969847 -1.49854 0
M  V30 4215 C 375.671 -1.92307 -2.79054 0
M  V30 4216 C 374.844 -3.22594 -2.95384 0
M  V30 4217 C 373.903 -3.24448 -4.1427 0
M  V30 4218 O 372.929 -3.98035 -4.06887 0
M  V30 4219 N 374.131 -2.49042 -5.24365 0
M  V30 4220 H 376.896 -2.75408 -1.18196 0
M  V30 4221 H 374.457 -1.53914 -0.502202 0
M  V30 4222 H 376.449 -1.90962 -3.56813 0
M  V30 4223 H 375.019 -1.04955 -2.94454 0
M  V30 4224 H 374.239 -3.36806 -2.04831 0
M  V30 4225 H 375.527 -4.08593 -3.03198 0
M  V30 4226 H 374.925 -1.88867 -5.33241 0
M  V30 4227 H 373.482 -2.53463 -6.005 0
M  V30 4228 N 376.915 0.57481 -1.46744 0
M  V30 4229 C 378.143 1.35856 -1.56047 0
M  V30 4230 C 378.558 1.87691 -0.204365 0
M  V30 4231 O 377.915 1.64049 0.79963 0
M  V30 4232 C 377.966 2.54066 -2.57163 0
M  V30 4233 O 377.687 2.04377 -3.87507 0
M  V30 4234 C 379.188 3.46514 -2.76483 0
M  V30 4235 H 376.408 0.414754 -0.527466 0
M  V30 4236 H 378.952 0.698035 -1.92218 0
M  V30 4237 H 377.107 3.16092 -2.23974 0
M  V30 4238 H 377.521 2.81419 -4.4261 0
M  V30 4239 H 378.995 4.25919 -3.51137 0
M  V30 4240 H 379.472 3.98951 -1.83671 0
M  V30 4241 H 380.078 2.90318 -3.10799 0
M  V30 4242 N 378.394 1.34581 0.820102 0
M  V30 4243 C 379.624 1.29991 1.6058 0
M  V30 4244 C 380.032 -0.127588 1.88769 0
M  V30 4245 O 379.375 -1.08595 1.48165 0
M  V30 4246 C 379.437 2.02548 2.9701 0
M  V30 4247 C 379.101 3.51794 2.91701 0
M  V30 4248 C 380.098 4.46647 2.66087 0
M  V30 4249 C 377.783 3.94249 3.11245 0
M  V30 4250 C 379.777 5.81929 2.60071 0
M  V30 4251 C 377.464 5.2963 3.04853 0
M  V30 4252 C 378.462 6.23282 2.793 0
M  V30 4253 O 378.15 7.56181 2.72847 0
M  V30 4254 H 377.882 0.448539 0.505756 0
M  V30 4255 H 380.436 1.77811 1.02822 0
M  V30 4256 H 378.666 1.49345 3.56697 0
M  V30 4257 H 380.355 1.91211 3.58041 0
M  V30 4258 H 381.121 4.15168 2.5072 0
M  V30 4259 H 377 3.21749 3.30149 0
M  V30 4260 H 380.544 6.54999 2.40046 0
M  V30 4261 H 376.441 5.60727 3.19774 0
M  V30 4262 H 377.209 7.6595 2.88553 0
M  V30 4263 N 379.872 -1.04064 1.18357 0
M  V30 4264 C 381.288 -1.2947 0.933258 0
M  V30 4265 C 381.488 -1.97466 -0.401169 0
M  V30 4266 O 380.544 -2.25528 -1.13549 0
M  V30 4267 C 381.857 -2.15337 2.09882 0
M  V30 4268 C 383.405 -2.28683 2.13712 0
M  V30 4269 C 383.88 -3.17917 3.29686 0
M  V30 4270 N 385.371 -3.25504 3.29547 0
M  V30 4271 C 386.106 -3.94706 4.15926 0
M  V30 4272 N 385.602 -4.66239 5.12439 0
M  V30 4273 N 387.395 -3.90986 4.0384 0
M  V30 4274 H 379.546 -0.583359 2.04232 0
M  V30 4275 H 381.809 -0.319921 0.892387 0
M  V30 4276 H 381.515 -1.72682 3.06389 0
M  V30 4277 H 381.389 -3.16015 2.05947 0
M  V30 4278 H 383.776 -2.70575 1.17784 0
M  V30 4279 H 383.857 -1.27596 2.21705 0
M  V30 4280 H 383.501 -2.76736 4.25887 0
M  V30 4281 H 383.431 -4.19036 3.1893 0
M  V30 4282 H 385.922 -2.74547 2.59677 0
M  V30 4283 H 386.235 -5.16638 5.74722 0
M  V30 4284 H 384.58 -4.65143 5.16398 0
M  V30 4285 H 387.771 -3.34234 3.27727 0
M  V30 4286 H 387.944 -4.44646 4.71375 0
M  V30 4287 N 381.35 -0.985608 -1.22978 0
M  V30 4288 C 382.297 -0.529825 -2.24636 0
M  V30 4289 C 383.267 0.434028 -1.60329 0
M  V30 4290 O 384.452 0.340414 -1.87739 0
M  V30 4291 C 381.592 0.156533 -3.44745 0
M  V30 4292 C 380.705 -0.848197 -4.23591 0
M  V30 4293 C 379.84 -0.136109 -5.31026 0
M  V30 4294 C 378.879 -1.1297 -6.01585 0
M  V30 4295 N 378.016 -0.446415 -7.00679 0
M  V30 4296 H 382.856 -1.40148 -2.62988 0
M  V30 4297 H 380.393 -0.702168 -1.29259 0
M  V30 4298 H 382.351 0.571324 -4.1327 0
M  V30 4299 H 380.981 0.992025 -3.07179 0
M  V30 4300 H 380.033 -1.38135 -3.54433 0
M  V30 4301 H 381.345 -1.60512 -4.72268 0
M  V30 4302 H 380.499 0.335784 -6.0577 0
M  V30 4303 H 379.238 0.653373 -4.83304 0
M  V30 4304 H 378.243 -1.6123 -5.25628 0
M  V30 4305 H 379.468 -1.91993 -6.51395 0
M  V30 4306 H 377.414 0.323763 -6.55201 0
M  V30 4307 H 377.331 -1.1419 -7.47326 0
M  V30 4308 H 378.599 0.00291697 -7.795 0
M  V30 4309 N 382.828 1.3818 -0.7579 0
M  V30 4310 C 383.775 2.30416 -0.133057 0
M  V30 4311 C 384.745 1.50398 0.704957 0
M  V30 4312 O 385.93 1.79014 0.660192 0
M  V30 4313 C 383.07 3.36834 0.750813 0
M  V30 4314 C 382.183 4.31879 -0.102297 0
M  V30 4315 C 381.318 5.25368 0.784979 0
M  V30 4316 C 380.357 6.12058 -0.0715046 0
M  V30 4317 N 379.494 6.97832 0.772972 0
M  V30 4318 H 384.334 2.83274 -0.925186 0
M  V30 4319 H 381.871 1.39461 -0.467866 0
M  V30 4320 H 383.829 3.97145 1.27794 0
M  V30 4321 H 382.459 2.85374 1.50868 0
M  V30 4322 H 381.511 3.72991 -0.747095 0
M  V30 4323 H 382.823 4.92921 -0.763552 0
M  V30 4324 H 381.977 5.90818 1.37911 0
M  V30 4325 H 380.716 4.64703 1.47996 0
M  V30 4326 H 379.721 5.456 -0.678272 0
M  V30 4327 H 380.946 6.74793 -0.763606 0
M  V30 4328 H 378.892 6.3971 1.45282 0
M  V30 4329 H 378.809 7.55812 0.168709 0
M  V30 4330 H 380.077 7.67687 1.35194 0
M  V30 4331 N 384.306 0.507319 1.49211 0
M  V30 4332 C 385.717 0.0611118 1.866 0
M  V30 4333 C 386.068 -1.35488 1.41907 0
M  V30 4334 O 385.193 -2.0108 0.799726 0
M  V30 4335 C 385.788 0.104125 3.3864 0
M  V30 4336 C 384.347 -0.28677 3.75306 0
M  V30 4337 C 383.494 0.473893 2.73221 0
M  V30 4338 H 386.445 0.719775 1.41439 0
M  V30 4339 H 386.466 -0.689672 3.74198 0
M  V30 4340 H 385.978 1.13482 3.71138 0
M  V30 4341 H 384.079 -1.32046 3.48417 0
M  V30 4342 H 384.192 0.0370745 4.79086 0
M  V30 4343 H 382.556 -0.0770644 2.54583 0
M  V30 4344 H 383.339 1.50478 3.08563 0
M  V30 4345 N 385.784 -1.5574 0.241426 0
M  V30 4346 C 386.717 -2.17168 -0.700935 0
M  V30 4347 C 387.695 -1.12206 -1.1768 0
M  V30 4348 O 388.879 -1.40565 -1.25593 0
M  V30 4349 C 386.006 -2.76796 -1.95196 0
M  V30 4350 C 385.052 -3.94764 -1.61442 0
M  V30 4351 S 385.885 -5.30613 -0.72182 0
M  V30 4352 C 387.041 -5.93691 -1.98197 0
M  V30 4353 H 387.274 -2.96761 -0.178882 0
M  V30 4354 H 384.807 -1.54378 0.0259299 0
M  V30 4355 H 386.765 -3.11787 -2.67019 0
M  V30 4356 H 385.426 -1.9716 -2.44514 0
M  V30 4357 H 384.619 -4.35057 -2.54443 0
M  V30 4358 H 384.221 -3.61022 -0.976672 0
M  V30 4359 H 386.513 -6.10874 -2.92983 0
M  V30 4360 H 387.456 -6.89258 -1.62262 0
M  V30 4361 H 387.864 -5.22709 -2.13156 0
M  V30 4362 N 387.262 0.0317525 -1.57568 0
M  V30 4363 C 388.209 1.0332 -2.06382 0
M  V30 4364 C 389.179 1.36082 -0.952414 0
M  V30 4365 O 390.364 1.46466 -1.2228 0
M  V30 4366 C 387.504 2.32989 -2.54578 0
M  V30 4367 C 386.617 2.0641 -3.79498 0
M  V30 4368 C 385.752 3.2993 -4.16317 0
M  V30 4369 C 384.791 2.98893 -5.34162 0
M  V30 4370 N 383.928 4.14857 -5.66426 0
M  V30 4371 H 388.768 0.609982 -2.9169 0
M  V30 4372 H 386.305 0.289573 -1.44222 0
M  V30 4373 H 388.263 3.0875 -2.80587 0
M  V30 4374 H 386.893 2.73039 -1.7219 0
M  V30 4375 H 385.945 1.21158 -3.6059 0
M  V30 4376 H 387.257 1.79513 -4.65378 0
M  V30 4377 H 386.411 4.1406 -4.4344 0
M  V30 4378 H 385.15 3.59938 -3.29083 0
M  V30 4379 H 384.155 2.13164 -5.06795 0
M  V30 4380 H 385.38 2.70165 -6.23047 0
M  V30 4381 H 383.326 4.44821 -4.82151 0
M  V30 4382 H 383.243 3.91374 -6.4681 0
M  V30 4383 H 384.511 4.99868 -5.98124 0
M  V30 4384 N 388.74 1.54641 0.303973 0
M  V30 4385 C 389.687 1.85386 1.37479 0
M  V30 4386 C 390.657 0.702528 1.50512 0
M  V30 4387 O 391.842 0.950867 1.65418 0
M  V30 4388 C 388.982 2.10413 2.73533 0
M  V30 4389 C 388.095 3.38049 2.68974 0
M  V30 4390 C 387.23 3.52934 3.97002 0
M  V30 4391 C 386.269 4.74373 3.86829 0
M  V30 4392 N 385.406 4.8608 5.06627 0
M  V30 4393 H 390.246 2.76732 1.1056 0
M  V30 4394 H 387.783 1.37034 0.534805 0
M  V30 4395 H 389.741 2.22919 3.52652 0
M  V30 4396 H 388.371 1.22338 2.98719 0
M  V30 4397 H 387.423 3.3418 1.81736 0
M  V30 4398 H 388.735 4.27288 2.57346 0
M  V30 4399 H 387.889 3.65088 4.84557 0
M  V30 4400 H 386.628 2.61824 4.1146 0
M  V30 4401 H 385.633 4.62255 2.97658 0
M  V30 4402 H 386.858 5.66888 3.73918 0
M  V30 4403 H 384.804 3.97891 5.21554 0
M  V30 4404 H 384.721 5.69315 4.9741 0
M  V30 4405 H 385.989 5.02587 5.95841 0
M  V30 4406 N 390.218 -0.567019 1.47046 0
M  V30 4407 C 391.495 -1.3276 1.43646 0
M  V30 4408 C 391.875 -2.1071 0.128186 0
M  V30 4409 O 391.223 -2.10441 -0.890326 0
M  V30 4410 C 391.433 -2.2404 2.67595 0
M  V30 4411 C 392.781 -2.85372 3.14401 0
M  V30 4412 O 393.805 -2.34346 2.68254 0
M  V30 4413 O 392.664 -3.78091 3.946 0
M  V30 4414 H 389.758 -0.597293 0.571988 0
M  V30 4415 H 392.304 -0.586735 1.59234 0
M  V30 4416 H 391.076 -1.65975 3.54356 0
M  V30 4417 H 390.699 -3.05439 2.54544 0
M  V30 4418 N 391.696 -1.35014 -0.812953 0
M  V30 4419 C 392.629 -1.21761 -1.93001 0
M  V30 4420 C 393.607 -0.10694 -1.62248 0
M  V30 4421 O 394.791 -0.273891 -1.865 0
M  V30 4422 C 391.918 -0.873404 -3.27245 0
M  V30 4423 C 390.964 -1.99523 -3.76952 0
M  V30 4424 S 391.797 -3.61009 -3.95516 0
M  V30 4425 C 392.953 -3.28651 -5.32672 0
M  V30 4426 H 393.186 -2.16315 -2.03948 0
M  V30 4427 H 390.719 -1.20156 -0.969631 0
M  V30 4428 H 392.677 -0.68161 -4.04802 0
M  V30 4429 H 391.338 0.053971 -3.14054 0
M  V30 4430 H 390.531 -1.70838 -4.74163 0
M  V30 4431 H 390.133 -2.14503 -3.06373 0
M  V30 4432 H 392.425 -2.81085 -6.1644 0
M  V30 4433 H 393.368 -4.25039 -5.66346 0
M  V30 4434 H 393.776 -2.6458 -4.98656 0
M  V30 4435 N 393.175 1.03435 -1.18907 0
M  V30 4436 C 394.107 2.1165 -0.879595 0
M  V30 4437 C 395.12 1.62316 0.125439 0
M  V30 4438 O 396.309 1.78201 -0.103245 0
M  V30 4439 C 393.409 3.37622 -0.294042 0
M  V30 4440 C 392.582 4.16166 -1.34629 0
M  V30 4441 C 391.641 5.20457 -0.775274 0
M  V30 4442 O 390.667 5.50379 -1.4516 0
M  V30 4443 N 391.869 5.78949 0.424126 0
M  V30 4444 H 394.634 2.38791 -1.81105 0
M  V30 4445 H 392.195 1.19681 -1.09032 0
M  V30 4446 H 394.187 4.04572 0.101679 0
M  V30 4447 H 392.757 3.07873 0.541575 0
M  V30 4448 H 391.977 3.44444 -1.91707 0
M  V30 4449 H 393.265 4.65432 -2.05549 0
M  V30 4450 H 392.663 5.56948 0.991209 0
M  V30 4451 H 391.22 6.47334 0.761691 0
M  V30 4452 N 394.653 0.992116 1.22453 0
M  V30 4453 C 395.563 0.55065 2.28046 0
M  V30 4454 C 396.579 -0.400189 1.69335 0
M  V30 4455 O 397.755 -0.267215 1.99619 0
M  V30 4456 C 394.82 -0.128496 3.46462 0
M  V30 4457 C 393.881 0.865208 4.20491 0
M  V30 4458 C 393.114 0.218377 5.33253 0
M  V30 4459 O 393.337 -0.987894 5.6178 0
M  V30 4460 O 392.271 0.922845 5.94783 0
M  V30 4461 H 396.097 1.4291 2.67975 0
M  V30 4462 H 393.682 0.760326 1.28606 0
M  V30 4463 H 395.564 -0.508947 4.18315 0
M  V30 4464 H 394.239 -0.981526 3.0846 0
M  V30 4465 H 393.146 1.29658 3.50913 0
M  V30 4466 H 394.479 1.68741 4.62371 0
M  V30 4467 N 396.131 -1.37776 0.765217 0
M  V30 4468 C 397.542 -1.82521 0.392819 0
M  V30 4469 C 397.893 -1.63789 -1.08017 0
M  V30 4470 O 397.018 -1.14542 -1.83601 0
M  V30 4471 C 397.613 -3.31358 0.706214 0
M  V30 4472 C 396.172 -3.74406 0.386952 0
M  V30 4473 C 395.319 -2.60394 0.953422 0
M  V30 4474 H 398.27 -1.2634 0.960412 0
M  V30 4475 H 398.291 -3.80498 -0.0114706 0
M  V30 4476 H 397.803 -3.44959 1.77833 0
M  V30 4477 H 395.904 -3.66377 -0.678112 0
M  V30 4478 H 396.017 -4.70749 0.890636 0
M  V30 4479 H 394.381 -2.51878 0.378064 0
M  V30 4480 H 395.164 -2.76791 2.03081 0
M  V30 4481 N 397.609 -0.515225 -1.4894 0
M  V30 4482 C 399.02 -0.0710067 -1.86565 0
M  V30 4483 C 399.371 1.34733 -1.42623 0
M  V30 4484 O 398.496 2.00653 -0.810379 0
M  V30 4485 C 399.091 -0.122083 -3.3858 0
M  V30 4486 C 397.65 0.266863 -3.75453 0
M  V30 4487 C 396.797 -0.488376 -2.72966 0
M  V30 4488 H 399.748 -0.727266 -1.41055 0
M  V30 4489 H 399.769 0.669818 -3.74558 0
M  V30 4490 H 399.281 -1.15448 -3.70531 0
M  V30 4491 H 397.382 1.30196 -3.49113 0
M  V30 4492 H 397.495 -0.0624811 -4.79059 0
M  V30 4493 H 395.859 0.0635622 -2.54621 0
M  V30 4494 H 396.642 -1.52113 -3.07761 0
M  V30 4495 N 399.087 1.5561 -0.249682 0
M  V30 4496 C 400.05 2.20217 0.635394 0
M  V30 4497 C 401.05 1.17227 1.10066 0
M  V30 4498 O 402.24 1.42292 1.00492 0
M  V30 4499 C 399.372 2.84794 1.87363 0
M  V30 4500 H 400.565 2.99814 0.0716752 0
M  V30 4501 H 398.118 1.563 -0.000153234 0
M  V30 4502 H 398.853 2.09142 2.47851 0
M  V30 4503 H 398.638 3.60241 1.5482 0
M  V30 4504 H 400.128 3.3423 2.5036 0
M  V30 4505 N 400.565 -0.0233959 1.57583 0
M  V30 4506 C 401.813 -0.711654 1.89156 0
M  V30 4507 C 402.134 -1.75591 0.848096 0
M  V30 4508 O 401.404 -1.95547 -0.117566 0
M  V30 4509 H 399.984 -0.265835 0.698098 0
M  V30 4510 H 402.646 0.0119948 1.94896 0
M  V30 4511 H 401.742 -1.19766 2.88206 0
M  V30 4512 N 402.043 -1.548 -0.295768 0
M  V30 4513 C 402.99 -1.86113 -1.36494 0
M  V30 4514 C 403.96 -0.7105 -1.50137 0
M  V30 4515 O 405.145 -0.959626 -1.64912 0
M  V30 4516 C 402.285 -2.11861 -2.72413 0
M  V30 4517 C 401.398 -3.39471 -2.67177 0
M  V30 4518 C 400.533 -3.55035 -3.95125 0
M  V30 4519 C 399.572 -4.76418 -3.84308 0
M  V30 4520 N 398.709 -4.8876 -5.04042 0
M  V30 4521 H 403.549 -2.77314 -1.09091 0
M  V30 4522 H 401.086 -1.37315 -0.52753 0
M  V30 4523 H 403.044 -2.24786 -3.51464 0
M  V30 4524 H 401.674 -1.2392 -2.98066 0
M  V30 4525 H 400.726 -3.35139 -1.79962 0
M  V30 4526 H 402.038 -4.28646 -2.55076 0
M  V30 4527 H 401.192 -3.67653 -4.82614 0
M  V30 4528 H 399.931 -2.64002 -4.10066 0
M  V30 4529 H 398.936 -4.63827 -2.95202 0
M  V30 4530 H 400.161 -5.68863 -3.70906 0
M  V30 4531 H 398.107 -4.00652 -5.19436 0
M  V30 4532 H 398.024 -5.71945 -4.94384 0
M  V30 4533 H 399.292 -5.0574 -5.93167 0
M  V30 4534 N 403.521 0.559213 -1.47345 0
M  V30 4535 C 404.431 1.69388 -1.62311 0
M  V30 4536 C 405.447 1.6648 -0.505993 0
M  V30 4537 O 406.623 1.85964 -0.773262 0
M  V30 4538 C 403.688 3.05894 -1.63185 0
M  V30 4539 C 402.749 3.19885 -2.86307 0
M  V30 4540 C 401.982 4.49879 -2.87131 0
M  V30 4541 O 402.205 5.35217 -1.97229 0
M  V30 4542 O 401.139 4.67618 -3.78968 0
M  V30 4543 H 404.965 1.59706 -2.58317 0
M  V30 4544 H 402.55 0.728989 -1.30407 0
M  V30 4545 H 404.432 3.87133 -1.66451 0
M  V30 4546 H 403.107 3.15964 -0.70345 0
M  V30 4547 H 402.014 2.38052 -2.88587 0
M  V30 4548 H 403.347 3.14718 -3.78435 0
M  V30 4549 N 404.999 1.35443 0.805782 0
M  V30 4550 C 406.245 1.28952 1.56522 0
M  V30 4551 C 406.578 -0.135597 1.93726 0
M  V30 4552 O 405.853 -1.08516 1.61414 0
M  V30 4553 C 406.136 2.19678 2.85331 0
M  V30 4554 C 405.989 3.7081 2.54598 0
M  V30 4555 C 407.308 2.09495 3.8704 0
M  V30 4556 H 404.427 0.469764 0.567883 0
M  V30 4557 H 407.069 1.65851 0.927001 0
M  V30 4558 H 405.219 1.8834 3.39795 0
M  V30 4559 H 406.891 4.12593 2.06312 0
M  V30 4560 H 405.134 3.91051 1.8778 0
M  V30 4561 H 405.805 4.29679 3.46525 0
M  V30 4562 H 408.281 2.37045 3.41978 0
M  V30 4563 H 407.157 2.75173 4.74943 0
M  V30 4564 H 407.418 1.07714 4.28777 0
M  V30 4565 N 406.477 -1.02803 1.19454 0
M  V30 4566 C 407.424 -2.11099 0.933046 0
M  V30 4567 C 408.394 -1.65571 -0.132447 0
M  V30 4568 O 409.579 -1.90797 0.00987576 0
M  V30 4569 C 406.719 -3.41763 0.478747 0
M  V30 4570 C 405.832 -4.00833 1.6111 0
M  V30 4571 C 404.967 -5.19511 1.10825 0
M  V30 4572 C 404.006 -5.70639 2.21445 0
M  V30 4573 N 403.143 -6.80589 1.72461 0
M  V30 4574 H 407.983 -2.32804 1.86028 0
M  V30 4575 H 405.52 -1.14179 0.927441 0
M  V30 4576 H 407.478 -4.16736 0.196745 0
M  V30 4577 H 406.108 -3.20166 -0.411493 0
M  V30 4578 H 405.16 -3.23066 2.00829 0
M  V30 4579 H 406.472 -4.34794 2.4445 0
M  V30 4580 H 405.626 -6.01645 0.781533 0
M  V30 4581 H 404.365 -4.87086 0.244606 0
M  V30 4582 H 403.37 -4.87116 2.54947 0
M  V30 4583 H 404.595 -6.05102 3.08267 0
M  V30 4584 H 402.541 -6.50016 0.884056 0
M  V30 4585 H 402.458 -7.13681 2.49389 0
M  V30 4586 H 403.726 -7.66317 1.42755 0
M  V30 4587 N 407.956 -0.998596 -1.21925 0
M  V30 4588 C 408.904 -0.546641 -2.26085 0
M  V30 4589 C 409.898 0.405576 -1.64473 0
M  V30 4590 O 411.104 0.277471 -1.77849 0
M  V30 4591 H 407.479 -0.158403 -0.735127 0
M  V30 4592 H 409.45 -1.43645 -2.61551 0
M  V30 4593 C 408.199 0.117388 -3.47502 0
M  V30 4594 H 407.522 -0.606277 -3.95176 0
M  V30 4595 H 408.962 0.396993 -4.22137 0
M  V30 4596 C 407.421 1.35455 -3.0847 0
M  V30 4597 O 407.951 2.44944 -3.18379 0
M  V30 4598 N 406.157 1.23191 -2.63196 0
M  V30 4599 H 405.704 0.341006 -2.55333 0
M  V30 4600 H 405.662 2.06071 -2.37449 0
M  V30 4601 N 409.434 1.37368 -0.772513 0
M  V30 4602 C 410.682 1.99279 -0.336516 0
M  V30 4603 C 411.003 1.6163 1.09091 0
M  V30 4604 O 410.273 0.882109 1.74916 0
M  V30 4605 H 408.853 0.737063 -0.121435 0
M  V30 4606 H 411.515 1.67836 -0.990809 0
M  V30 4607 H 410.611 3.09332 -0.414763 0
M  V30 4608 N 410.912 0.523116 1.48665 0
M  V30 4609 C 412.159 -0.0134763 2.02496 0
M  V30 4610 C 412.487 -1.3493 1.40086 0
M  V30 4611 O 411.742 -1.88286 0.533567 0
M  V30 4612 C 412.041 -0.191671 3.56886 0
M  V30 4613 C 411.707 1.06893 4.38046 0
M  V30 4614 C 410.369 1.41443 4.59943 0
M  V30 4615 C 412.721 1.90584 4.85106 0
M  V30 4616 C 410.049 2.59594 5.26144 0
M  V30 4617 C 412.401 3.07907 5.52609 0
M  V30 4618 C 411.065 3.42811 5.72745 0
M  V30 4619 H 410.335 -0.00493133 0.740984 0
M  V30 4620 H 412.982 0.687751 1.78724 0
M  V30 4621 H 411.287 -0.97561 3.79459 0
M  V30 4622 H 412.984 -0.621659 3.96152 0
M  V30 4623 H 409.574 0.789848 4.21259 0
M  V30 4624 H 413.758 1.65203 4.67997 0
M  V30 4625 H 409.014 2.86847 5.39934 0
M  V30 4626 H 413.188 3.73066 5.88043 0
M  V30 4627 H 410.815 4.34462 6.23816 0
M  V30 4628 N 412.39 -1.55475 0.257931 0
M  V30 4629 C 413.615 -2.04064 -0.370488 0
M  V30 4630 C 414.04 -1.13565 -1.49948 0
M  V30 4631 O 413.398 -0.130781 -1.80828 0
M  V30 4632 C 413.446 -3.50554 -0.845237 0
M  V30 4633 O 412.55 -3.63173 -1.95394 0
M  V30 4634 H 411.891 -0.659257 -0.0792243 0
M  V30 4635 H 414.421 -2.00903 0.387212 0
M  V30 4636 H 414.431 -3.91588 -1.14555 0
M  V30 4637 H 413.106 -4.15896 -0.0191259 0
M  V30 4638 H 411.683 -3.34039 -1.65748 0
M  V30 4639 N 413.868 0.0150385 -1.57593 0
M  V30 4640 C 414.815 1.01126 -2.07466 0
M  V30 4641 C 415.785 1.35064 -0.966794 0
M  V30 4642 O 416.97 1.4516 -1.23827 0
M  V30 4643 C 414.11 2.30276 -2.57035 0
M  V30 4644 C 413.223 2.02373 -3.81666 0
M  V30 4645 C 412.358 3.25496 -4.19793 0
M  V30 4646 C 411.397 2.93211 -5.37303 0
M  V30 4647 N 410.534 4.08826 -5.70794 0
M  V30 4648 H 415.374 0.57901 -2.92321 0
M  V30 4649 H 412.911 0.27426 -1.44521 0
M  V30 4650 H 414.869 3.05757 -2.83846 0
M  V30 4651 H 413.499 2.71197 -1.75077 0
M  V30 4652 H 412.551 1.17327 -3.61854 0
M  V30 4653 H 413.863 1.74567 -4.67256 0
M  V30 4654 H 413.017 4.09333 -4.47807 0
M  V30 4655 H 411.756 3.56428 -3.32882 0
M  V30 4656 H 410.761 2.07777 -5.09027 0
M  V30 4657 H 411.986 2.63542 -6.25877 0
M  V30 4658 H 409.932 4.39682 -4.86842 0
M  V30 4659 H 409.849 3.84491 -6.50924 0
M  V30 4660 H 411.117 4.93496 -6.03392 0
M  V30 4661 N 415.346 1.54954 0.287554 0
M  V30 4662 C 416.309 1.86076 1.33823 0
M  V30 4663 C 417.309 0.734414 1.43049 0
M  V30 4664 O 418.499 1.00266 1.42452 0
M  V30 4665 C 415.631 2.05305 2.72144 0
M  V30 4666 H 416.824 2.79984 1.07465 0
M  V30 4667 H 414.377 1.47223 0.524902 0
M  V30 4668 H 415.112 1.1373 3.03704 0
M  V30 4669 H 414.897 2.873 2.66836 0
M  V30 4670 H 416.387 2.30706 3.48087 0
M  V30 4671 N 416.824 -0.551391 1.4764 0
M  V30 4672 C 418.054 -1.33163 1.57959 0
M  V30 4673 C 418.462 -1.87785 0.23094 0
M  V30 4674 O 417.805 -1.65996 -0.786825 0
M  V30 4675 C 417.867 -2.53449 2.54958 0
M  V30 4676 C 417.531 -2.20071 4.00522 0
M  V30 4677 C 418.528 -1.77017 4.88836 0
M  V30 4678 C 416.213 -2.31252 4.45901 0
M  V30 4679 C 418.207 -1.4558 6.20552 0
M  V30 4680 C 415.894 -1.99427 5.77644 0
M  V30 4681 C 416.892 -1.56659 6.64791 0
M  V30 4682 O 416.58 -1.25242 7.94084 0
M  V30 4683 H 416.312 -0.412022 0.535923 0
M  V30 4684 H 418.866 -0.674186 1.9402 0
M  V30 4685 H 417.096 -3.22104 2.13976 0
M  V30 4686 H 418.785 -3.15523 2.55343 0
M  V30 4687 H 419.551 -1.67867 4.55023 0
M  V30 4688 H 415.43 -2.63498 3.78272 0
M  V30 4689 H 418.974 -1.12125 6.8853 0
M  V30 4690 H 414.871 -2.08211 6.10998 0
M  V30 4691 H 415.639 -1.38822 8.06642 0
M  V30 4692 N 418.302 -1.35869 -0.798587 0
M  V30 4693 C 419.549 -1.29588 -1.55606 0
M  V30 4694 C 419.877 0.127456 -1.94082 0
M  V30 4695 O 419.132 1.09461 -1.62225 0
M  V30 4696 C 419.431 -2.1556 -2.85077 0
M  V30 4697 C 419.097 -3.6424 -2.65781 0
M  V30 4698 C 417.759 -4.04766 -2.60227 0
M  V30 4699 C 420.111 -4.58547 -2.47758 0
M  V30 4700 C 417.439 -5.37753 -2.34603 0
M  V30 4701 C 419.791 -5.91742 -2.23662 0
M  V30 4702 C 418.455 -6.31402 -2.16534 0
M  V30 4703 H 417.725 -0.474197 -0.569402 0
M  V30 4704 H 420.372 -1.67839 -0.922086 0
M  V30 4705 H 418.677 -1.70216 -3.52893 0
M  V30 4706 H 420.374 -2.08031 -3.42818 0
M  V30 4707 H 416.964 -3.32086 -2.70956 0
M  V30 4708 H 421.148 -4.28117 -2.51056 0
M  V30 4709 H 416.404 -5.67474 -2.2756 0
M  V30 4710 H 420.578 -6.6439 -2.08708 0
M  V30 4711 H 418.205 -7.34381 -1.96441 0
M  V30 4712 N 419.78 1.02168 -1.19998 0
M  V30 4713 C 421.008 1.79296 -1.03249 0
M  V30 4714 C 421.423 1.84103 0.418502 0
M  V30 4715 O 420.78 1.29031 1.29063 0
M  V30 4716 C 420.831 3.24007 -1.60319 0
M  V30 4717 O 420.552 3.19512 -2.99739 0
M  V30 4718 C 422.053 4.17704 -1.48453 0
M  V30 4719 H 419.273 0.564016 -0.363493 0
M  V30 4720 H 421.817 1.28639 -1.58973 0
M  V30 4721 H 419.972 3.7183 -1.08727 0
M  V30 4722 H 420.386 4.10306 -3.26725 0
M  V30 4723 H 421.86 5.17104 -1.93153 0
M  V30 4724 H 422.337 4.37029 -0.436193 0
M  V30 4725 H 422.943 3.7576 -1.99211 0
M  V30 4726 N 421.258 1.00505 1.21394 0
M  V30 4727 C 422.221 0.570459 2.21987 0
M  V30 4728 C 423.221 -0.353211 1.56873 0
M  V30 4729 O 424.411 -0.14349 1.73608 0
M  V30 4730 C 421.543 -0.168555 3.40483 0
M  V30 4731 H 422.736 1.46021 2.6195 0
M  V30 4732 H 420.289 0.793565 1.34656 0
M  V30 4733 H 421.024 -1.07374 3.06009 0
M  V30 4734 H 420.809 0.494823 3.88965 0
M  V30 4735 H 422.299 -0.460362 4.15055 0
M  V30 4736 N 422.737 -1.36956 0.779787 0
M  V30 4737 C 423.7 -2.2851 0.177662 0
M  V30 4738 C 424.7 -1.48393 -0.619377 0
M  V30 4739 O 425.89 -1.68505 -0.441785 0
M  V30 4740 C 423.022 -3.32428 -0.755279 0
M  V30 4741 H 424.215 -2.83269 0.984823 0
M  V30 4742 H 421.768 -1.46358 0.548544 0
M  V30 4743 H 422.503 -2.82808 -1.58714 0
M  V30 4744 H 422.288 -3.91659 -0.185817 0
M  V30 4745 H 423.778 -4.00824 -1.17174 0
M  V30 4746 N 424.215 -0.530993 -1.48385 0
M  V30 4747 C 425.163 0.244595 -2.3131 0
M  V30 4748 C 426.157 0.93451 -1.41291 0
M  V30 4749 O 427.363 0.85878 -1.58193 0
M  V30 4750 H 423.738 0.0977472 -0.74562 0
M  V30 4751 H 425.709 -0.474369 -2.94605 0
M  V30 4752 C 424.458 1.2779 -3.23365 0
M  V30 4753 H 423.781 0.756439 -3.92579 0
M  V30 4754 H 425.221 1.79198 -3.84271 0
M  V30 4755 C 423.68 2.31205 -2.45042 0
M  V30 4756 O 424.21 3.37661 -2.17596 0
M  V30 4757 N 422.416 2.04446 -2.0652 0
M  V30 4758 H 421.963 1.17891 -2.2904 0
M  V30 4759 H 421.921 2.73861 -1.54427 0
M  V30 4760 N 425.693 1.55336 -0.266172 0
M  V30 4761 C 426.941 1.99003 0.35246 0
M  V30 4762 C 427.262 1.15591 1.57047 0
M  V30 4763 O 426.532 0.243268 1.94384 0
M  V30 4764 H 425.112 0.735025 0.133217 0
M  V30 4765 H 427.774 1.91367 -0.369434 0
M  V30 4766 H 426.87 3.05289 0.648453 0
M  V30 4767 N 427.171 -0.0066808 1.57599 0
M  V30 4768 C 428.417 -0.693947 1.90558 0
M  V30 4769 C 428.75 -1.73792 0.866594 0
M  V30 4770 O 428.025 -1.94156 -0.115548 0
M  V30 4771 C 428.308 -1.34317 3.34112 0
M  V30 4772 C 428.161 -0.311189 4.48722 0
M  V30 4773 C 429.48 -2.27116 3.7697 0
M  V30 4774 H 426.599 -0.250803 0.693013 0
M  V30 4775 H 429.241 0.043242 1.89951 0
M  V30 4776 H 427.391 -1.9715 3.3476 0
M  V30 4777 H 429.063 0.316944 4.6021 0
M  V30 4778 H 427.306 0.367253 4.32243 0
M  V30 4779 H 427.977 -0.804366 5.46108 0
M  V30 4780 H 430.453 -1.74306 3.77831 0
M  V30 4781 H 429.329 -2.69511 4.78179 0
M  V30 4782 H 429.59 -3.14743 3.10466 0
M  V30 4783 N 428.649 -1.55105 -0.279332 0
M  V30 4784 C 429.582 -1.82467 -1.37044 0
M  V30 4785 C 430.56 -0.677261 -1.47824 0
M  V30 4786 O 431.744 -0.919578 -1.64548 0
M  V30 4787 C 428.871 -1.98066 -2.7475 0
M  V30 4788 C 427.917 -3.20594 -2.81286 0
M  V30 4789 S 428.75 -4.78116 -2.41175 0
M  V30 4790 C 429.906 -4.9668 -3.80867 0
M  V30 4791 H 430.139 -2.74728 -1.1363 0
M  V30 4792 H 427.672 -1.46794 -0.478625 0
M  V30 4793 H 429.63 -2.07739 -3.54055 0
M  V30 4794 H 428.291 -1.06704 -2.9542 0
M  V30 4795 H 427.484 -3.28376 -3.82341 0
M  V30 4796 H 427.086 -3.09479 -2.09996 0
M  V30 4797 H 429.378 -4.82033 -4.76078 0
M  V30 4798 H 430.321 -5.98741 -3.78041 0
M  V30 4799 H 430.729 -4.24698 -3.71876 0
M  V30 4800 N 430.127 0.543554 -1.4793 0
M  V30 4801 C 431.075 1.67039 -1.61866 0
M  V30 4802 C 432.069 1.62294 -0.48549 0
M  V30 4803 O 433.275 1.67315 -0.66376 0
M  V30 4804 H 429.65 0.552954 -0.509652 0
M  V30 4805 H 431.621 1.52426 -2.56533 0
M  V30 4806 C 430.37 3.05357 -1.6629 0
M  V30 4807 H 429.693 3.09696 -2.5284 0
M  V30 4808 H 431.133 3.83855 -1.80088 0
M  V30 4809 C 429.592 3.34531 -0.398861 0
M  V30 4810 O 430.122 3.98649 0.494162 0
M  V30 4811 N 428.328 2.89299 -0.2747 0
M  V30 4812 H 427.875 2.37298 -1.00236 0
M  V30 4813 H 427.833 3.09188 0.570075 0
M  V30 4814 N 431.605 1.3629 0.791371 0
M  V30 4815 C 432.552 1.30458 1.90393 0
M  V30 4816 C 433.522 0.173632 1.6519 0
M  V30 4817 O 434.707 0.35983 1.87376 0
M  V30 4818 C 431.847 1.09777 3.27174 0
M  V30 4819 C 430.96 2.31929 3.64462 0
M  V30 4820 C 430.095 2.04276 4.90352 0
M  V30 4821 C 429.134 3.224 5.20312 0
M  V30 4822 N 428.271 2.94424 6.37385 0
M  V30 4823 H 433.111 2.25589 1.94714 0
M  V30 4824 H 430.648 1.12122 0.952216 0
M  V30 4825 H 432.606 0.958133 4.06049 0
M  V30 4826 H 431.236 0.183014 3.22281 0
M  V30 4827 H 430.288 2.56703 2.80727 0
M  V30 4828 H 431.6 3.20085 3.82553 0
M  V30 4829 H 430.754 1.87231 5.77087 0
M  V30 4830 H 429.493 1.13428 4.74326 0
M  V30 4831 H 428.498 3.40005 4.32061 0
M  V30 4832 H 429.723 4.14071 5.38258 0
M  V30 4833 H 427.669 2.06185 6.22755 0
M  V30 4834 H 427.586 3.76118 6.55798 0
M  V30 4835 H 428.854 2.80953 7.27108 0
M  V30 4836 N 433.083 -1.0153 1.20538 0
M  V30 4837 C 434.03 -2.10098 0.955383 0
M  V30 4838 C 435 -1.65702 -0.114878 0
M  V30 4839 O 436.185 -1.90776 0.0301118 0
M  V30 4840 C 433.325 -3.41236 0.514969 0
M  V30 4841 C 432.438 -3.99102 1.65353 0
M  V30 4842 C 431.573 -5.18306 1.16329 0
M  V30 4843 C 430.612 -5.68258 2.27485 0
M  V30 4844 N 429.749 -6.78722 1.7967 0
M  V30 4845 H 434.589 -2.30818 1.88486 0
M  V30 4846 H 432.126 -1.13189 0.939499 0
M  V30 4847 H 434.084 -4.16504 0.240935 0
M  V30 4848 H 432.714 -3.20585 -0.377512 0
M  V30 4849 H 431.766 -3.20918 2.04245 0
M  V30 4850 H 433.078 -4.32177 2.49047 0
M  V30 4851 H 432.232 -6.00782 0.845302 0
M  V30 4852 H 430.971 -4.86799 0.296254 0
M  V30 4853 H 429.976 -4.84385 2.60099 0
M  V30 4854 H 431.201 -6.01798 3.14667 0
M  V30 4855 H 429.147 -6.49042 0.95295 0
M  V30 4856 H 429.064 -7.10996 2.56944 0
M  V30 4857 H 430.332 -7.64759 1.50875 0
M  V30 4858 N 434.561 -1.01147 -1.20859 0
M  V30 4859 C 435.524 -0.582224 -2.21682 0
M  V30 4860 C 436.524 0.344887 -1.57058 0
M  V30 4861 O 437.714 0.134281 -1.73682 0
M  V30 4862 C 434.846 0.150496 -3.40568 0
M  V30 4863 H 436.039 -1.47408 -2.61172 0
M  V30 4864 H 433.592 -0.800695 -1.34233 0
M  V30 4865 H 434.327 1.0575 -3.06574 0
M  V30 4866 H 434.112 -0.515444 -3.88697 0
M  V30 4867 H 435.602 0.438344 -4.15293 0
M  V30 4868 N 436.039 1.36541 -0.78704 0
M  V30 4869 C 436.971 2.28761 -0.141773 0
M  V30 4870 C 437.984 1.49365 0.647599 0
M  V30 4871 O 439.173 1.71836 0.483173 0
M  V30 4872 C 436.273 3.28771 0.822368 0
M  V30 4873 C 435.446 4.3732 0.0835594 0
M  V30 4874 C 434.505 5.17307 0.963296 0
M  V30 4875 O 433.531 5.67638 0.421419 0
M  V30 4876 N 434.733 5.33515 2.28784 0
M  V30 4877 H 437.498 2.84777 -0.933919 0
M  V30 4878 H 435.059 1.48682 -0.640735 0
M  V30 4879 H 437.051 3.79169 1.41468 0
M  V30 4880 H 435.621 2.73412 1.5154 0
M  V30 4881 H 434.841 3.88118 -0.689809 0
M  V30 4882 H 436.129 5.0701 -0.426358 0
M  V30 4883 H 435.527 4.94234 2.75226 0
M  V30 4884 H 434.084 5.87165 2.82985 0
M  V30 4885 O 437.556 0.680126 1.4648 0
M  V30 4886 H 438.247 0.213972 1.92515 0
M  V30 END ATOM
M  V30 BEGIN BOND
M  V30 END BOND
M  V30 END CTAB
M  END
$$$$
