drugbank_drug|DB13933 sp|P00740|FA9_HUMAN Coagulation factor IX OS=Homo sapiens GN=F9 PE=1 SV=2
 OpenBabel12092119113D

  0  0  0     0  0            999 V3000
M  V30 BEGIN CTAB
M  V30 COUNTS 7130 7205 0 0 0
M  V30 BEGIN ATOM
M  V30 1 H -0.908 1.98254 -0.117106 0
M  V30 2 N 0 1.576 0 0
M  V30 3 C 0.933 2.03868 1.02534 0
M  V30 4 C 1.911 0.928543 1.3348 0
M  V30 5 O 3.095 1.19667 1.45644 0
M  V30 6 C 0.222 2.43627 2.35294 0
M  V30 7 C -0.732 3.65373 2.2001 0
M  V30 8 S 0.101 5.13292 1.52614 0
M  V30 9 C 1.257 5.56322 2.86805 0
M  V30 10 H 1.49 2.90518 0.631377 0
M  V30 11 H -0.977 1.52953 0.210867 0
M  V30 12 H 0.981 2.67203 3.11629 0
M  V30 13 H -0.358 1.57376 2.7183 0
M  V30 14 H -1.165 3.90944 3.18086 0
M  V30 15 H -1.563 3.418 1.51819 0
M  V30 16 H 0.729 5.58782 3.83104 0
M  V30 17 H 1.672 6.56266 2.65933 0
M  V30 18 H 2.08 4.83886 2.90714 0
M  V30 19 N 1.4781 -0.272755 1.55222 0
M  V30 20 C 2.4101 -1.35946 1.8453 0
M  V30 21 C 3.4231 -1.45525 0.729818 0
M  V30 22 O 4.6121 -1.47337 1.00767 0
M  V30 23 C 1.7121 -2.74069 1.99347 0
M  V30 24 C 0.8851 -2.87079 3.30007 0
M  V30 25 C -0.0559 -4.05879 3.34886 0
M  V30 26 O -1.0299 -3.96626 4.08261 0
M  V30 27 N 0.1721 -5.17857 2.62307 0
M  V30 28 H 2.9371 -1.11149 2.78327 0
M  V30 29 H 0.4981 -0.462869 1.55142 0
M  V30 30 H 2.4901 -3.51838 1.99981 0
M  V30 31 H 1.0601 -2.91688 1.12415 0
M  V30 32 H 0.2801 -1.96193 3.41909 0
M  V30 33 H 1.5681 -2.92701 4.16177 0
M  V30 34 H 0.9661 -5.28261 2.02377 0
M  V30 35 H -0.4769 -5.93855 2.68663 0
M  V30 36 N 2.9562 -1.48159 -0.537278 0
M  V30 37 C 4.3722 -1.34118 -0.865129 0
M  V30 38 C 4.5722 -0.346678 -1.98495 0
M  V30 39 O 3.6282 0.234715 -2.51407 0
M  V30 40 C 4.9412 -2.73963 -1.23954 0
M  V30 41 C 6.4892 -2.82397 -1.34984 0
M  V30 42 C 6.9642 -4.22928 -1.75772 0
M  V30 43 N 8.4552 -4.25566 -1.82887 0
M  V30 44 C 9.1902 -5.31235 -2.15817 0
M  V30 45 N 8.6862 -6.47189 -2.47222 0
M  V30 46 N 10.4792 -5.18624 -2.16761 0
M  V30 47 H 2.6302 -2.1144 0.201715 0
M  V30 48 H 4.8932 -0.947598 0.0275949 0
M  V30 49 H 4.5992 -3.48264 -0.490381 0
M  V30 50 H 4.4732 -3.0702 -2.19132 0
M  V30 51 H 6.8602 -2.08356 -2.08978 0
M  V30 52 H 6.9412 -2.5297 -0.379448 0
M  V30 53 H 6.5852 -4.97482 -1.02341 0
M  V30 54 H 6.5152 -4.49794 -2.73848 0
M  V30 55 H 9.0062 -3.41924 -1.60924 0
M  V30 56 H 9.3192 -7.23564 -2.71433 0
M  V30 57 H 7.6642 -6.50476 -2.44757 0
M  V30 58 H 10.8552 -4.27056 -1.91679 0
M  V30 59 H 11.0282 -6.01078 -2.42093 0
M  V30 60 N 4.4343 0.785586 -1.36625 0
M  V30 61 C 5.6803 1.54591 -1.31261 0
M  V30 62 C 6.0133 1.93906 0.106823 0
M  V30 63 O 5.2883 1.63007 1.06108 0
M  V30 64 C 5.5713 2.82038 -2.23889 0
M  V30 65 C 5.4243 2.49066 -3.74548 0
M  V30 66 C 6.7433 3.83887 -2.15217 0
M  V30 67 H 3.8623 0.560846 -0.478143 0
M  V30 68 H 6.5043 0.902278 -1.67209 0
M  V30 69 H 4.6543 3.36961 -1.93363 0
M  V30 70 H 6.3263 2.00164 -4.15611 0
M  V30 71 H 4.5693 1.81954 -3.93796 0
M  V30 72 H 5.2403 3.40109 -4.34776 0
M  V30 73 H 7.7163 3.38421 -2.42096 0
M  V30 74 H 6.5923 4.70806 -2.82193 0
M  V30 75 H 6.8533 4.27131 -1.14068 0
M  V30 76 N 5.9124 1.20967 1.01018 0
M  V30 77 C 6.8604 0.961223 2.1181 0
M  V30 78 C 7.8544 -0.0897034 1.69162 0
M  V30 79 O 9.0604 0.0612271 1.79896 0
M  V30 80 H 5.4354 0.29355 0.692338 0
M  V30 81 H 7.4064 1.90178 2.29946 0
M  V30 82 C 6.1554 0.536854 3.4353 0
M  V30 83 H 5.4784 1.33713 3.76777 0
M  V30 84 H 6.9184 0.402286 4.22087 0
M  V30 85 C 5.3774 -0.751574 3.2841 0
M  V30 86 O 5.9074 -1.80841 3.58691 0
M  V30 87 N 4.1134 -0.716079 2.81639 0
M  V30 88 H 3.6604 0.144236 2.57196 0
M  V30 89 H 3.6184 -1.57847 2.71904 0
M  V30 90 N 7.3905 -1.2043 1.01659 0
M  V30 91 C 8.3235 -2.21924 0.531521 0
M  V30 92 C 9.3015 -1.57054 -0.421032 0
M  V30 93 O 10.4855 -1.85389 -0.341035 0
M  V30 94 C 7.6125 -3.37942 -0.226496 0
M  V30 95 C 6.6585 -4.21115 0.67561 0
M  V30 96 S 7.4915 -4.90674 2.14475 0
M  V30 97 C 8.6475 -6.10113 1.3969 0
M  V30 98 H 8.8805 -2.62725 1.3915 0
M  V30 99 H 6.4135 -1.30481 0.825479 0
M  V30 100 H 8.3715 -4.05196 -0.657738 0
M  V30 101 H 7.0325 -2.956 -1.06205 0
M  V30 102 H 6.2255 -5.03918 0.091108 0
M  V30 103 H 5.8275 -3.59115 1.04463 0
M  V30 104 H 8.1195 -6.7411 0.676897 0
M  V30 105 H 9.0625 -6.73022 2.20107 0
M  V30 106 H 9.4705 -5.57283 0.899786 0
M  V30 107 N 8.8686 -0.792821 -1.36206 0
M  V30 108 C 10.1176 -0.363353 -1.984 0
M  V30 109 C 10.4306 1.07172 -1.63626 0
M  V30 110 O 11.6366 1.60362 -2.19081 0
M  V30 111 C 10.0926 -0.59872 -3.54885 0
M  V30 112 C 9.7006 -2.04543 -3.9858 0
M  V30 113 C 11.4446 -0.233926 -4.23855 0
M  V30 114 C 9.3516 -2.22727 -5.47856 0
M  V30 115 H 8.2816 -0.13212 -0.742334 0
M  V30 116 H 10.9326 -0.974935 -1.55458 0
M  V30 117 H 9.3146 0.0826222 -3.95914 0
M  V30 118 H 10.4886 -2.76345 -3.68741 0
M  V30 119 H 8.8036 -2.36879 -3.42458 0
M  V30 120 H 11.4006 -0.348027 -5.33566 0
M  V30 121 H 11.7436 0.818351 -4.08177 0
M  V30 122 H 12.2766 -0.868639 -3.882 0
M  V30 123 H 9.0156 -3.2635 -5.68486 0
M  V30 124 H 8.5356 -1.55434 -5.7931 0
M  V30 125 H 10.2146 -2.03607 -6.14128 0
M  V30 126 N 10.3467 1.47872 -0.545128 0
M  V30 127 C 11.2797 2.2675 0.256885 0
M  V30 128 C 12.2577 1.33293 0.931228 0
M  V30 129 O 13.4417 1.62657 0.95262 0
M  V30 130 C 10.5687 3.09976 1.36501 0
M  V30 131 C 9.6147 4.1892 0.800496 0
M  V30 132 S 10.4477 5.34397 -0.343505 0
M  V30 133 C 11.6037 6.21186 0.766733 0
M  V30 134 H 11.8367 2.94425 -0.412479 0
M  V30 135 H 9.3697 1.50806 -0.331204 0
M  V30 136 H 11.3277 3.585 1.9997 0
M  V30 137 H 9.9887 2.41686 2.00616 0
M  V30 138 H 9.1817 4.76836 1.63227 0
M  V30 139 H 8.7837 3.73215 0.242217 0
M  V30 140 H 11.0757 6.56804 1.66178 0
M  V30 141 H 12.0187 7.07742 0.225204 0
M  V30 142 H 12.4267 5.54574 1.05396 0
M  V30 143 N 11.8248 0.280983 1.55075 0
M  V30 144 C 12.7878 -0.590896 2.21452 0
M  V30 145 C 13.7878 -1.07682 1.19421 0
M  V30 146 O 14.9778 -0.97605 1.44288 0
M  V30 147 C 12.1098 -1.81587 2.88511 0
M  V30 148 H 13.3028 -0.0112554 2.99898 0
M  V30 149 H 10.8558 0.0316438 1.56268 0
M  V30 150 H 11.5908 -2.43587 2.14093 0
M  V30 151 H 11.3758 -1.4753 3.63287 0
M  V30 152 H 12.8658 -2.43575 3.39206 0
M  V30 153 N 13.3029 -1.57598 0.00835791 0
M  V30 154 C 14.2129 -2.12385 -0.996487 0
M  V30 155 C 15.2289 -1.07108 -1.37127 0
M  V30 156 O 16.4049 -1.39055 -1.4569 0
M  V30 157 C 13.4699 -2.62314 -2.26699 0
M  V30 158 C 12.5309 -3.82225 -1.95456 0
M  V30 159 C 11.7639 -4.29763 -3.16449 0
M  V30 160 O 11.9869 -3.76584 -4.28416 0
M  V30 161 O 10.9209 -5.21832 -2.99958 0
M  V30 162 H 14.7469 -2.98479 -0.560725 0
M  V30 163 H 12.3319 -1.47903 -0.210987 0
M  V30 164 H 14.2139 -2.94589 -3.01322 0
M  V30 165 H 12.8889 -1.79313 -2.69497 0
M  V30 166 H 11.7959 -3.54909 -1.18282 0
M  V30 167 H 13.1289 -4.66324 -1.57489 0
M  V30 168 N 14.781 0.264519 -1.55364 0
M  V30 169 C 16.006 1.01726 -1.80739 0
M  V30 170 C 16.431 1.78836 -0.583044 0
M  V30 171 O 15.789 1.75167 0.467566 0
M  V30 172 C 15.837 1.94482 -3.03659 0
M  V30 173 O 14.941 3.03386 -2.7934 0
M  V30 174 H 14.282 0.290395 -0.597132 0
M  V30 175 H 16.812 0.290854 -2.02522 0
M  V30 176 H 16.822 2.36278 -3.32621 0
M  V30 177 H 15.497 1.37772 -3.92418 0
M  V30 178 H 14.074 2.65844 -2.61498 0
M  V30 179 N 16.2591 1.48442 0.529413 0
M  V30 180 C 17.6701 1.5002 1.11134 0
M  V30 181 C 18.0211 0.27031 1.94329 0
M  V30 182 O 17.1461 -0.622507 2.07253 0
M  V30 183 C 17.7411 2.71834 2.02217 0
M  V30 184 C 16.3001 2.76283 2.55627 0
M  V30 185 C 15.4471 2.43542 1.326 0
M  V30 186 H 18.3981 1.5555 0.314641 0
M  V30 187 H 18.4191 2.50384 2.8651 0
M  V30 188 H 17.9311 3.61331 1.41639 0
M  V30 189 H 16.0321 1.90995 3.19924 0
M  V30 190 H 16.1451 3.77725 2.94721 0
M  V30 191 H 14.5091 1.94709 1.64196 0
M  V30 192 H 15.2921 3.3528 0.737734 0
M  V30 193 N 17.7372 -0.778329 1.37039 0
M  V30 194 C 18.9852 -1.53361 1.31623 0
M  V30 195 C 19.3062 -1.94739 -0.100831 0
M  V30 196 O 18.5762 -1.65797 -1.04347 0
M  V30 197 H 17.1562 -0.568794 0.484234 0
M  V30 198 H 19.8182 -0.926742 1.71457 0
M  V30 199 H 18.9142 -2.43606 1.95096 0
M  V30 200 N 19.2153 -1.21501 -1.00376 0
M  V30 201 C 20.1453 -0.999478 -2.11028 0
M  V30 202 C 21.1263 0.0759671 -1.6993 0
M  V30 203 O 22.3113 -0.0841106 -1.94018 0
M  V30 204 C 19.4413 -0.564709 -3.42678 0
M  V30 205 C 18.3953 -1.58486 -3.97576 0
M  V30 206 C 17.7213 -1.00628 -5.25146 0
M  V30 207 C 19.0213 -2.97204 -4.29496 0
M  V30 208 H 20.7153 -1.92495 -2.29317 0
M  V30 209 H 18.2613 -0.92693 -1.102 0
M  V30 210 H 20.2143 -0.401091 -4.19487 0
M  V30 211 H 18.9383 0.396411 -3.24185 0
M  V30 212 H 17.5973 -1.73606 -3.22888 0
M  V30 213 H 17.2453 -0.0368439 -5.02987 0
M  V30 214 H 16.9453 -1.68771 -5.62841 0
M  V30 215 H 18.4693 -0.854015 -6.04598 0
M  V30 216 H 19.8833 -2.8552 -4.97143 0
M  V30 217 H 18.2803 -3.62372 -4.78338 0
M  V30 218 H 19.3503 -3.47956 -3.3772 0
M  V30 219 N 20.6934 1.19889 -1.02296 0
M  V30 220 C 21.9424 1.88743 -0.711257 0
M  V30 221 C 22.2554 1.80112 0.762817 0
M  V30 222 O 23.4614 2.44161 1.18733 0
M  V30 223 C 21.9174 3.38525 -1.22185 0
M  V30 224 C 21.5254 3.55727 -2.72328 0
M  V30 225 C 23.2694 4.12893 -0.985864 0
M  V30 226 C 21.1764 4.99369 -3.16835 0
M  V30 227 H 20.1064 0.706885 -0.262353 0
M  V30 228 H 22.7574 1.35586 -1.23648 0
M  V30 229 H 21.1394 3.91044 -0.624571 0
M  V30 230 H 22.3134 3.13564 -3.3766 0
M  V30 231 H 20.6284 2.94739 -2.9414 0
M  V30 232 H 23.2254 5.18813 -1.29374 0
M  V30 233 H 23.5684 4.16228 0.0775055 0
M  V30 234 H 24.1014 3.66494 -1.54684 0
M  V30 235 H 20.8404 5.01193 -4.22476 0
M  V30 236 H 20.3604 5.42317 -2.56228 0
M  V30 237 H 22.0394 5.67988 -3.09837 0
M  V30 238 N 22.1715 0.800033 1.35784 0
M  V30 239 C 23.3995 0.389606 2.03199 0
M  V30 240 C 23.8145 -0.997375 1.60306 0
M  V30 241 O 23.1715 -1.64154 0.797481 0
M  V30 242 C 23.2225 0.455855 3.58614 0
M  V30 243 O 22.9435 1.78815 3.99946 0
M  V30 244 C 24.4445 0.0374032 4.43284 0
M  V30 245 H 21.6645 0.159132 0.651857 0
M  V30 246 H 24.2085 1.08183 1.73541 0
M  V30 247 H 22.3635 -0.188057 3.86943 0
M  V30 248 H 22.7775 1.74636 4.94573 0
M  V30 249 H 24.2515 0.134882 5.51835 0
M  V30 250 H 24.7285 -1.01651 4.27275 0
M  V30 251 H 25.3345 0.654215 4.20238 0
M  V30 252 N 23.6496 -1.47581 0.552962 0
M  V30 253 C 24.8986 -2.01684 0.0251995 0
M  V30 254 C 25.2116 -1.43317 -1.33115 0
M  V30 255 O 26.4176 -1.89057 -1.94858 0
M  V30 256 C 24.8736 -3.599 -0.00542052 0
M  V30 257 C 24.4816 -4.27257 1.34742 0
M  V30 258 C 26.2256 -4.21768 -0.4808 0
M  V30 259 C 24.1326 -5.77467 1.27614 0
M  V30 260 H 23.0626 -0.753979 0.00565033 0
M  V30 261 H 25.7136 -1.69616 0.70018 0
M  V30 262 H 24.0956 -3.88911 -0.745961 0
M  V30 263 H 25.2696 -4.09893 2.10534 0
M  V30 264 H 23.5846 -3.77358 1.76039 0
M  V30 265 H 26.1816 -5.31838 -0.55246 0
M  V30 266 H 26.5246 -3.88651 -1.49184 0
M  V30 267 H 27.0576 -3.97273 0.204752 0
M  V30 268 H 23.7966 -6.15196 2.26304 0
M  V30 269 H 23.3166 -5.9718 0.55996 0
M  V30 270 H 24.9956 -6.3959 0.976421 0
M  V30 271 N 25.1277 -0.289203 -1.54924 0
M  V30 272 C 26.3677 0.324536 -2.01807 0
M  V30 273 C 26.7317 1.5199 -1.17316 0
M  V30 274 O 27.9327 2.20422 -1.53843 0
M  V30 275 C 26.2037 0.683578 -3.50802 0
M  V30 276 S 27.7627 1.28185 -4.19659 0
M  V30 277 H 24.5807 0.100236 -0.703899 0
M  V30 278 H 27.1827 -0.414325 -1.91059 0
M  V30 279 H 25.8867 -0.195073 -4.09936 0
M  V30 280 H 25.4177 1.45354 -3.65562 0
M  V30 281 H 27.4327 2.57006 -4.24456 0
M  V30 282 N 26.6058 1.57591 -0.0167156 0
M  V30 283 C 27.5358 2.12496 0.967858 0
M  V30 284 C 28.5168 1.03807 1.34752 0
M  V30 285 O 29.7018 1.31577 1.42833 0
M  V30 286 C 26.8318 2.64194 2.25431 0
M  V30 287 C 25.7858 3.77559 2.01576 0
M  V30 288 C 25.1118 4.15636 3.36379 0
M  V30 289 C 26.4118 5.04151 1.36489 0
M  V30 290 H 28.1058 2.95013 0.510643 0
M  V30 291 H 25.6518 1.41915 0.244181 0
M  V30 292 H 27.6048 3.01236 2.94678 0
M  V30 293 H 26.3288 1.78821 2.73296 0
M  V30 294 H 24.9878 3.40937 1.34751 0
M  V30 295 H 24.6358 3.27263 3.81979 0
M  V30 296 H 24.3358 4.92022 3.21229 0
M  V30 297 H 25.8598 4.5525 4.06915 0
M  V30 298 H 27.2738 5.38857 1.95718 0
M  V30 299 H 25.6708 5.85453 1.31776 0
M  V30 300 H 26.7408 4.83733 0.336219 0
M  V30 301 N 28.0839 -0.256276 1.55502 0
M  V30 302 C 29.0139 -1.32102 1.92539 0
M  V30 303 C 29.9949 -1.50684 0.789194 0
M  V30 304 O 31.1799 -1.63449 1.04872 0
M  V30 305 C 28.3099 -2.67752 2.21192 0
M  V30 306 C 27.2639 -2.63878 3.36975 0
M  V30 307 C 26.5899 -4.03236 3.51147 0
M  V30 308 C 27.8899 -2.21682 4.72921 0
M  V30 309 H 29.5839 -1.01351 2.81724 0
M  V30 310 H 27.1299 -0.486105 1.35547 0
M  V30 311 H 29.0829 -3.42365 2.45691 0
M  V30 312 H 27.8069 -3.0012 1.28824 0
M  V30 313 H 26.4659 -1.91722 3.12471 0
M  V30 314 H 26.1139 -4.32854 2.56216 0
M  V30 315 H 25.8139 -4.01535 4.29003 0
M  V30 316 H 27.3379 -4.79563 3.77957 0
M  V30 317 H 28.7519 -2.86023 4.96854 0
M  V30 318 H 27.1489 -2.3111 5.53812 0
M  V30 319 H 28.2189 -1.16833 4.70615 0
M  V30 320 N 29.562 -1.4872 -0.521534 0
M  V30 321 C 30.81 -1.56857 -1.27437 0
M  V30 322 C 31.131 -0.247982 -1.93417 0
M  V30 323 O 30.401 0.731151 -1.81744 0
M  V30 324 H 28.981 -0.577885 -0.473347 0
M  V30 325 H 31.643 -1.85233 -0.606205 0
M  V30 326 H 30.739 -2.35402 -2.0492 0
M  V30 327 N 31.0401 0.771051 -1.3745 0
M  V30 328 C 32.2701 1.55789 -1.35696 0
M  V30 329 C 32.6781 1.89107 0.0594523 0
M  V30 330 O 32.0211 1.51984 1.03183 0
M  V30 331 C 32.0831 2.89515 -2.13123 0
M  V30 332 C 31.7471 2.78829 -3.62082 0
M  V30 333 C 32.7441 2.49812 -4.5595 0
M  V30 334 C 30.4291 2.9683 -4.05213 0
M  V30 335 C 32.4231 2.38923 -5.90927 0
M  V30 336 C 30.1101 2.85562 -5.40276 0
M  V30 337 C 31.1081 2.56649 -6.32946 0
M  V30 338 O 30.7961 2.45408 -7.65526 0
M  V30 339 H 30.5281 0.489257 -0.466481 0
M  V30 340 H 33.0821 0.963446 -1.81403 0
M  V30 341 H 31.3121 3.51081 -1.62107 0
M  V30 342 H 33.0011 3.50915 -2.03994 0
M  V30 343 H 33.7671 2.3559 -4.23937 0
M  V30 344 H 29.6461 3.18335 -3.33442 0
M  V30 345 H 33.1901 2.16277 -6.63227 0
M  V30 346 H 29.0871 2.99351 -5.71891 0
M  V30 347 H 29.8551 2.60753 -7.75855 0
M  V30 348 N 32.5182 1.22032 0.997298 0
M  V30 349 C 33.4482 1.01065 2.10495 0
M  V30 350 C 34.4292 -0.0669542 1.69968 0
M  V30 351 O 35.6142 0.0943987 1.9397 0
M  V30 352 C 32.7442 0.582874 3.42374 0
M  V30 353 C 31.6982 1.60592 3.96729 0
M  V30 354 C 31.0242 1.03412 5.24605 0
M  V30 355 C 32.3242 2.99478 4.27914 0
M  V30 356 H 34.0182 1.93708 2.28292 0
M  V30 357 H 31.5642 0.932761 1.09707 0
M  V30 358 H 33.5172 0.423332 4.19268 0
M  V30 359 H 32.2412 -0.379213 3.24391 0
M  V30 360 H 30.9002 1.75316 3.21963 0
M  V30 361 H 30.5482 0.063518 5.0296 0
M  V30 362 H 30.2482 1.71754 5.61938 0
M  V30 363 H 31.7722 0.886066 6.04137 0
M  V30 364 H 33.1862 2.88153 4.95622 0
M  V30 365 H 31.5832 3.64903 4.76409 0
M  V30 366 H 32.6532 3.49742 3.3587 0
M  V30 367 N 33.9963 -1.19345 1.0293 0
M  V30 368 C 34.9263 -2.2481 0.631105 0
M  V30 369 C 35.9073 -1.66245 -0.360104 0
M  V30 370 O 37.0923 -1.92677 -0.242726 0
M  V30 371 C 34.2223 -3.47295 -0.0184607 0
M  V30 372 C 33.1763 -4.18536 0.895073 0
M  V30 373 C 32.5023 -5.34586 0.110592 0
M  V30 374 C 33.8023 -4.73287 2.209 0
M  V30 375 H 35.4963 -2.58372 1.51275 0
M  V30 376 H 33.0423 -1.24194 0.728818 0
M  V30 377 H 34.9953 -4.20268 -0.308675 0
M  V30 378 H 33.7193 -3.12933 -0.934907 0
M  V30 379 H 32.3783 -3.47446 1.16949 0
M  V30 380 H 32.0263 -4.96469 -0.807902 0
M  V30 381 H 31.7263 -5.83183 0.719087 0
M  V30 382 H 33.2503 -6.10355 -0.172871 0
M  V30 383 H 34.6643 -5.38013 1.98028 0
M  V30 384 H 33.0613 -5.32373 2.76946 0
M  V30 385 H 34.1313 -3.91331 2.86336 0
M  V30 386 N 35.4744 -0.807222 -1.35358 0
M  V30 387 C 36.6994 -0.399309 -2.0352 0
M  V30 388 C 37.1244 0.981986 -1.60433 0
M  V30 389 O 36.4824 1.63601 -0.781299 0
M  V30 390 C 36.5304 -0.491552 -3.57234 0
M  V30 391 O 35.6344 0.494754 -4.09421 0
M  V30 392 H 34.9754 -0.166682 -0.642739 0
M  V30 393 H 37.5054 -1.09328 -1.72941 0
M  V30 394 H 37.5154 -0.361588 -4.06395 0
M  V30 395 H 36.1904 -1.49907 -3.87944 0
M  V30 396 H 34.7674 0.324977 -3.71481 0
M  V30 397 N 36.9525 1.47285 -0.560781 0
M  V30 398 C 37.9155 2.28535 0.174488 0
M  V30 399 C 38.9155 1.37153 0.839388 0
M  V30 400 O 40.1055 1.59748 0.694702 0
M  V30 401 C 37.2375 3.16934 1.25561 0
M  V30 402 H 38.4305 2.95012 -0.539262 0
M  V30 403 H 35.9835 1.53034 -0.317865 0
M  V30 404 H 36.7185 2.55157 2.00164 0
M  V30 405 H 36.5035 3.8419 0.783604 0
M  V30 406 H 37.9935 3.78143 1.77193 0
M  V30 407 N 38.4306 0.297415 1.54768 0
M  V30 408 C 39.3406 -0.58983 2.27064 0
M  V30 409 C 40.3566 -1.15144 1.30453 0
M  V30 410 O 41.5326 -1.17699 1.63428 0
M  V30 411 C 38.5976 -1.74714 2.9946 0
M  V30 412 C 37.6586 -1.21997 4.11601 0
M  V30 413 C 36.8916 -2.32212 4.80535 0
M  V30 414 O 37.1146 -3.52036 4.48806 0
M  V30 415 O 36.0486 -1.99106 5.68014 0
M  V30 416 H 39.8746 -0.00348199 3.037 0
M  V30 417 H 37.4596 0.0640035 1.49263 0
M  V30 418 H 39.3416 -2.42147 3.44881 0
M  V30 419 H 38.0166 -2.32016 2.25722 0
M  V30 420 H 36.9236 -0.511458 3.70587 0
M  V30 421 H 38.2566 -0.692419 4.87305 0
M  V30 422 N 39.9087 -1.5758 0.0250728 0
M  V30 423 C 41.1487 -1.93497 -0.65865 0
M  V30 424 C 41.5127 -0.901409 -1.69525 0
M  V30 425 O 42.7137 -1.14664 -2.43116 0
M  V30 426 C 40.9847 -3.34352 -1.26267 0
M  V30 427 S 42.5437 -3.92191 -1.96803 0
M  V30 428 H 39.3617 -0.67709 -0.216958 0
M  V30 429 H 41.9637 -1.95303 0.0877692 0
M  V30 430 H 40.6677 -4.07395 -0.495741 0
M  V30 431 H 40.1987 -3.3598 -2.04648 0
M  V30 432 H 42.2137 -3.75298 -3.24601 0
M  V30 433 N 41.3868 0.248026 -1.55636 0
M  V30 434 C 42.6148 0.993808 -1.81469 0
M  V30 435 C 43.0298 1.78991 -0.60064 0
M  V30 436 O 42.3868 1.77345 0.430682 0
M  V30 437 C 42.4378 1.93258 -3.05506 0
M  V30 438 O 42.1588 1.16869 -4.22224 0
M  V30 439 C 43.6598 2.79444 -3.4413 0
M  V30 440 H 40.8798 0.292486 -0.603898 0
M  V30 441 H 43.4238 0.271253 -2.02693 0
M  V30 442 H 41.5788 2.60943 -2.86335 0
M  V30 443 H 41.9928 1.80359 -4.92515 0
M  V30 444 H 43.4668 3.41066 -4.34026 0
M  V30 445 H 43.9438 3.50499 -2.64665 0
M  V30 446 H 44.5498 2.17214 -3.65648 0
M  V30 447 N 42.8649 1.48995 0.513639 0
M  V30 448 C 44.1109 1.58076 1.27042 0
M  V30 449 C 44.4439 0.261026 1.92438 0
M  V30 450 O 43.7189 -0.734393 1.80103 0
M  V30 451 C 44.0019 2.73091 2.34719 0
M  V30 452 C 43.8549 4.14821 1.73907 0
M  V30 453 C 45.1739 2.83796 3.36375 0
M  V30 454 H 42.2929 0.575391 0.460536 0
M  V30 455 H 44.9349 1.81232 0.570516 0
M  V30 456 H 43.0849 2.53479 2.94416 0
M  V30 457 H 44.7569 4.45917 1.18135 0
M  V30 458 H 42.9999 4.21058 1.0437 0
M  V30 459 H 43.6709 4.91147 2.51949 0
M  V30 460 H 46.1469 3.01611 2.86653 0
M  V30 461 H 45.0229 3.65971 4.09093 0
M  V30 462 H 45.2839 1.92624 3.9793 0
M  V30 463 N 44.343 -0.763751 1.37857 0
M  V30 464 C 45.59 -1.52257 1.33506 0
M  V30 465 C 45.918 -1.94343 -0.078022 0
M  V30 466 O 45.173 -1.64958 -1.05297 0
M  V30 467 C 45.472 -2.79499 2.22745 0
M  V30 468 C 45.138 -2.56426 3.70886 0
M  V30 469 C 43.8 -2.49842 4.11257 0
M  V30 470 C 46.152 -2.36008 4.64704 0
M  V30 471 C 43.48 -2.20841 5.43549 0
M  V30 472 C 45.832 -2.0853 5.97242 0
M  V30 473 C 44.496 -2.00396 6.36709 0
M  V30 474 H 43.766 -0.557149 0.488534 0
M  V30 475 H 46.413 -0.879073 1.70131 0
M  V30 476 H 44.718 -3.48447 1.79142 0
M  V30 477 H 46.415 -3.37413 2.16688 0
M  V30 478 H 43.005 -2.62416 3.38874 0
M  V30 479 H 47.189 -2.40079 4.34368 0
M  V30 480 H 42.445 -2.13045 5.73081 0
M  V30 481 H 46.619 -1.91732 6.69486 0
M  V30 482 H 44.246 -1.77688 7.39142 0
M  V30 483 N 45.8211 -1.22559 -0.990812 0
M  V30 484 C 46.7511 -1.0218 -2.09956 0
M  V30 485 C 47.7321 0.0579394 -1.70001 0
M  V30 486 O 48.9171 -0.104684 -1.93918 0
M  V30 487 C 46.0471 -0.601023 -3.4206 0
M  V30 488 C 45.0011 -1.62694 -3.95872 0
M  V30 489 C 44.3271 -1.06193 -5.24049 0
M  V30 490 C 45.6271 -3.01743 -4.2632 0
M  V30 491 H 47.3211 -1.94916 -2.27262 0
M  V30 492 H 44.8671 -0.938566 -1.09211 0
M  V30 493 H 46.8201 -0.445561 -4.19038 0
M  V30 494 H 45.5441 0.362005 -3.24588 0
M  V30 495 H 44.2031 -1.77021 -3.21028 0
M  V30 496 H 43.8511 -0.0901903 -5.02919 0
M  V30 497 H 43.5511 -1.74732 -5.61019 0
M  V30 498 H 45.0751 -0.918092 -6.03658 0
M  V30 499 H 46.4891 -2.90777 -4.94087 0
M  V30 500 H 44.8861 -3.67425 -4.74467 0
M  V30 501 H 45.9561 -3.51518 -3.34011 0
M  V30 502 N 47.2992 1.18797 -1.03562 0
M  V30 503 C 48.5762 1.84469 -0.650434 0
M  V30 504 C 48.9562 1.92319 0.870433 0
M  V30 505 O 48.3042 1.44528 1.76986 0
M  V30 506 C 48.5142 3.2306 -1.32036 0
M  V30 507 C 49.8622 3.9915 -1.44792 0
M  V30 508 O 50.8862 3.32481 -1.27806 0
M  V30 509 O 49.7452 5.18587 -1.72423 0
M  V30 510 H 46.8392 0.795251 -0.226946 0
M  V30 511 H 49.3852 1.26231 -1.13419 0
M  V30 512 H 48.1572 3.1222 -2.3587 0
M  V30 513 H 47.7802 3.88949 -0.8249 0
M  V30 514 N 48.7773 0.814389 1.34928 0
M  V30 515 C 49.7273 0.202752 2.27097 0
M  V30 516 C 50.7113 -0.62799 1.48139 0
M  V30 517 O 51.9033 -0.483969 1.70255 0
M  V30 518 C 49.0323 -0.64146 3.37254 0
M  V30 519 C 48.1183 0.19944 4.23631 0
M  V30 520 N 48.5093 1.26628 4.89693 0
M  V30 521 C 46.8073 -0.0176433 4.45997 0
M  V30 522 C 47.5083 1.78031 5.53787 0
M  V30 523 N 46.4843 1.08553 5.32651 0
M  V30 524 H 50.2863 1.01893 2.75672 0
M  V30 525 H 47.8003 0.656332 1.48546 0
M  V30 526 H 49.7973 -1.09575 4.02243 0
M  V30 527 H 48.4573 -1.4559 2.9023 0
M  V30 528 H 49.4683 1.64901 4.90946 0
M  V30 529 H 46.1453 -0.800601 4.09752 0
M  V30 530 H 47.5353 2.67236 6.16469 0
M  V30 531 N 50.2554 -1.46986 0.568584 0
M  V30 532 C 51.1654 -2.33942 -0.17555 0
M  V30 533 C 52.1814 -1.48891 -0.90041 0
M  V30 534 O 53.3574 -1.81794 -0.86676 0
M  V30 535 C 50.4224 -3.25811 -1.18524 0
M  V30 536 C 49.4834 -4.26757 -0.466582 0
M  V30 537 C 48.7164 -5.14236 -1.42817 0
M  V30 538 O 48.9394 -5.04379 -2.66379 0
M  V30 539 O 47.8734 -5.94412 -0.946453 0
M  V30 540 H 51.6994 -2.98896 0.538036 0
M  V30 541 H 49.2844 -1.4573 0.329097 0
M  V30 542 H 51.1664 -3.82527 -1.76779 0
M  V30 543 H 49.8414 -2.63471 -1.88055 0
M  V30 544 H 48.7484 -3.73769 0.157451 0
M  V30 545 H 50.0814 -4.91843 0.187485 0
M  V30 546 N 51.7335 -0.305618 -1.54608 0
M  V30 547 C 52.6815 0.584119 -2.25146 0
M  V30 548 C 53.6755 1.13326 -1.25911 0
M  V30 549 O 54.8815 1.08337 -1.43747 0
M  V30 550 H 51.2565 0.206983 -0.722954 0
M  V30 551 H 53.2275 -0.033291 -2.98381 0
M  V30 552 C 51.9765 1.74225 -3.009 0
M  V30 553 H 51.2995 1.32892 -3.77067 0
M  V30 554 H 52.7395 2.34077 -3.53531 0
M  V30 555 C 51.1985 2.64914 -2.0814 0
M  V30 556 O 51.7285 3.66137 -1.65246 0
M  V30 557 N 49.9345 2.3275 -1.74 0
M  V30 558 H 49.4815 1.50479 -2.09078 0
M  V30 559 H 49.4395 2.93694 -1.12211 0
M  V30 560 N 53.2116 1.57565 -0.0334293 0
M  V30 561 C 54.1746 2.09393 0.932048 0
M  V30 562 C 55.1746 1.00986 1.25134 0
M  V30 563 O 56.3646 1.27129 1.19096 0
M  V30 564 C 53.4966 2.56338 2.2473 0
M  V30 565 H 54.6896 2.95984 0.483085 0
M  V30 566 H 52.2426 1.54819 0.21468 0
M  V30 567 H 52.9776 1.7309 2.74245 0
M  V30 568 H 52.7626 3.35542 2.02865 0
M  V30 569 H 54.2526 2.96646 2.93923 0
M  V30 570 N 54.6897 -0.239769 1.55765 0
M  V30 571 C 55.6377 -1.31668 1.91745 0
M  V30 572 C 56.6317 -1.49462 0.797338 0
M  V30 573 O 57.8377 -1.50852 0.982021 0
M  V30 574 H 54.2127 -0.441048 0.609082 0
M  V30 575 H 56.1837 -0.985923 2.81642 0
M  V30 576 C 54.9327 -2.66368 2.2348 0
M  V30 577 H 54.2557 -2.53478 3.09175 0
M  V30 578 H 55.6957 -3.40578 2.52553 0
M  V30 579 C 54.1547 -3.20002 1.05359 0
M  V30 580 O 54.6847 -4.00538 0.305261 0
M  V30 581 N 52.8907 -2.78126 0.842292 0
M  V30 582 H 52.4377 -2.12742 1.45253 0
M  V30 583 H 52.3957 -3.14354 0.053652 0
M  V30 584 N 56.1678 -1.49265 -0.50573 0
M  V30 585 C 57.1148 -1.65585 -1.6078 0
M  V30 586 C 58.0848 -0.497396 -1.58478 0
M  V30 587 O 59.2698 -0.72385 -1.76536 0
M  V30 588 C 56.4098 -1.72408 -2.98948 0
M  V30 589 C 55.5228 -2.99525 -3.11301 0
M  V30 590 C 54.6578 -2.97356 -4.40174 0
M  V30 591 C 53.6968 -4.19074 -4.46143 0
M  V30 592 N 52.8338 -4.14841 -5.66437 0
M  V30 593 H 57.6738 -2.59688 -1.46172 0
M  V30 594 H 55.2108 -1.28761 -0.711261 0
M  V30 595 H 57.1688 -1.74344 -3.79025 0
M  V30 596 H 55.7988 -0.817753 -3.1227 0
M  V30 597 H 54.8508 -3.07222 -2.24318 0
M  V30 598 H 56.1628 -3.89518 -3.11572 0
M  V30 599 H 55.3168 -2.97829 -5.28567 0
M  V30 600 H 54.0558 -2.05133 -4.42461 0
M  V30 601 H 53.0608 -4.1885 -3.56153 0
M  V30 602 H 54.2858 -5.12483 -4.45575 0
M  V30 603 H 52.2318 -3.25453 -5.69575 0
M  V30 604 H 52.1488 -4.98564 -5.68304 0
M  V30 605 H 53.4168 -4.1941 -6.57051 0
M  V30 606 N 57.6459 0.756429 -1.3826 0
M  V30 607 C 58.8949 1.51082 -1.3363 0
M  V30 608 C 59.2079 1.95467 0.0720068 0
M  V30 609 O 60.4139 2.7043 0.240834 0
M  V30 610 C 58.8699 2.72893 -2.34644 0
M  V30 611 C 58.4779 2.35544 -3.81081 0
M  V30 612 C 60.2219 3.50791 -2.39052 0
M  V30 613 C 58.1289 3.53948 -4.73787 0
M  V30 614 H 57.0589 0.56727 -0.49671 0
M  V30 615 H 59.7099 0.827147 -1.638 0
M  V30 616 H 58.0919 3.43227 -1.97513 0
M  V30 617 H 59.2659 1.72894 -4.27135 0
M  V30 618 H 57.5809 1.70786 -3.79764 0
M  V30 619 H 60.1779 4.38823 -3.05513 0
M  V30 620 H 60.5209 3.91745 -1.40861 0
M  V30 621 H 61.0539 2.87467 -2.74968 0
M  V30 622 H 57.7929 3.18064 -5.73163 0
M  V30 623 H 57.3129 4.15651 -4.32428 0
M  V30 624 H 58.9919 4.20566 -4.91663 0
M  V30 625 N 59.124 1.23083 0.984299 0
M  V30 626 C 60.054 1.03292 2.09411 0
M  V30 627 C 61.035 -0.048923 1.7003 0
M  V30 628 O 62.22 0.114967 1.93859 0
M  V30 629 C 59.35 0.619155 3.41736 0
M  V30 630 C 58.304 1.64791 3.95004 0
M  V30 631 C 57.63 1.0897 5.23478 0
M  V30 632 C 58.93 3.03999 4.24714 0
M  V30 633 H 60.624 1.96119 2.26225 0
M  V30 634 H 58.17 0.944344 1.08711 0
M  V30 635 H 60.123 0.467777 4.18796 0
M  V30 636 H 58.847 -0.344786 3.24775 0
M  V30 637 H 57.506 1.78721 3.20085 0
M  V30 638 H 57.154 0.11686 5.02864 0
M  V30 639 H 56.854 1.77704 5.60085 0
M  V30 640 H 58.378 0.950093 6.03163 0
M  V30 641 H 59.792 2.93393 4.92538 0
M  V30 642 H 58.189 3.69936 4.72512 0
M  V30 643 H 59.259 3.53285 3.32142 0
M  V30 644 N 60.6021 -1.18246 1.0419 0
M  V30 645 C 61.5501 -2.23968 0.627792 0
M  V30 646 C 62.5441 -1.65828 -0.346019 0
M  V30 647 O 63.7501 -1.78733 -0.213175 0
M  V30 648 H 60.1251 -0.728939 0.184802 0
M  V30 649 H 62.0961 -2.56202 1.52981 0
M  V30 650 C 60.8451 -3.47699 0.00796591 0
M  V30 651 H 60.1681 -3.92734 0.748347 0
M  V30 652 H 61.6081 -4.23294 -0.24455 0
M  V30 653 C 60.0671 -3.13153 -1.24246 0
M  V30 654 O 60.5971 -3.27003 -2.33307 0
M  V30 655 N 58.8031 -2.67467 -1.13622 0
M  V30 656 H 58.3501 -2.56396 -0.248734 0
M  V30 657 H 58.3081 -2.44724 -1.97377 0
M  V30 658 N 62.0802 -0.821533 -1.34494 0
M  V30 659 C 63.4962 -0.507117 -1.51329 0
M  V30 660 C 63.6962 0.968964 -1.76673 0
M  V30 661 O 62.7522 1.75348 -1.81685 0
M  V30 662 C 64.0652 -1.36544 -2.67911 0
M  V30 663 C 65.6132 -1.36242 -2.81793 0
M  V30 664 C 66.0882 -2.2052 -4.01416 0
M  V30 665 N 67.5792 -2.18136 -4.08621 0
M  V30 666 C 68.3142 -2.80095 -5.00334 0
M  V30 667 N 67.8102 -3.51039 -5.9728 0
M  V30 668 N 69.6032 -2.69656 -4.93196 0
M  V30 669 H 61.7542 -1.77729 -1.16302 0
M  V30 670 H 64.0172 -0.757291 -0.570276 0
M  V30 671 H 63.7232 -2.41361 -2.55808 0
M  V30 672 H 63.5972 -1.02917 -3.62888 0
M  V30 673 H 65.9842 -0.322041 -2.93338 0
M  V30 674 H 66.0652 -1.73866 -1.87628 0
M  V30 675 H 65.7092 -3.24607 -3.90631 0
M  V30 676 H 65.6392 -1.80247 -4.94791 0
M  V30 677 H 68.1302 -1.6653 -3.39229 0
M  V30 678 H 68.4432 -3.95565 -6.63889 0
M  V30 679 H 66.7882 -3.55145 -5.97409 0
M  V30 680 H 69.9792 -2.13808 -4.16418 0
M  V30 681 H 70.1522 -3.1823 -5.64476 0
M  V30 682 N 63.5583 1.46682 -0.576371 0
M  V30 683 C 64.9693 1.86112 -0.148091 0
M  V30 684 C 65.3203 1.48073 1.2872 0
M  V30 685 O 64.4453 0.892656 1.97131 0
M  V30 686 C 65.0403 3.37786 -0.261982 0
M  V30 687 C 63.5993 3.76235 0.111384 0
M  V30 688 C 62.7463 2.70713 -0.60083 0
M  V30 689 H 65.6973 1.37927 -0.78497 0
M  V30 690 H 65.7183 3.77007 0.514364 0
M  V30 691 H 65.2303 3.6544 -1.30671 0
M  V30 692 H 63.3313 3.54198 1.15649 0
M  V30 693 H 63.4443 4.78391 -0.26052 0
M  V30 694 H 61.8083 2.54666 -0.0417783 0
M  V30 695 H 62.5913 3.01208 -1.64708 0
M  V30 696 N 65.0364 0.313813 1.54444 0
M  V30 697 C 65.9834 -0.55655 2.23989 0
M  V30 698 C 66.9534 -1.11943 1.22711 0
M  V30 699 O 68.1384 -1.16158 1.51367 0
M  V30 700 C 65.2784 -1.71635 2.99392 0
M  V30 701 C 64.3914 -1.18364 4.15468 0
M  V30 702 C 63.5264 -2.30834 4.78424 0
M  V30 703 C 62.5654 -1.74762 5.86622 0
M  V30 704 N 61.7024 -2.80855 6.43479 0
M  V30 705 H 66.5424 0.0430893 2.97969 0
M  V30 706 H 64.0794 0.0330359 1.47063 0
M  V30 707 H 66.0374 -2.39868 3.41349 0
M  V30 708 H 64.6674 -2.28742 2.27765 0
M  V30 709 H 63.7194 -0.393163 3.78363 0
M  V30 710 H 65.0314 -0.733262 4.93381 0
M  V30 711 H 64.1854 -3.0699 5.23299 0
M  V30 712 H 62.9244 -2.79204 3.99871 0
M  V30 713 H 61.9294 -0.970995 5.41158 0
M  V30 714 H 63.1544 -1.2728 6.67066 0
M  V30 715 H 61.1004 -3.28535 5.67804 0
M  V30 716 H 61.0174 -2.40351 7.16776 0
M  V30 717 H 62.2854 -3.5687 6.93011 0
M  V30 718 N 66.5145 -1.57545 0.0417849 0
M  V30 719 C 67.9305 -1.56467 -0.314704 0
M  V30 720 C 68.1305 -1.04859 -1.72066 0
M  V30 721 O 67.1865 -0.700983 -2.42575 0
M  V30 722 C 68.4995 -3.00317 -0.15174 0
M  V30 723 C 70.0475 -3.12201 -0.223553 0
M  V30 724 C 70.5225 -4.57913 -0.0892295 0
M  V30 725 N 72.0135 -4.6297 -0.145808 0
M  V30 726 C 72.7485 -5.73362 -0.0658459 0
M  V30 727 N 72.2445 -6.92769 0.0659282 0
M  V30 728 N 74.0375 -5.6197 -0.12075 0
M  V30 729 H 66.1885 -1.89416 0.961014 0
M  V30 730 H 68.4515 -0.871862 0.372237 0
M  V30 731 H 68.1575 -3.42073 0.817254 0
M  V30 732 H 68.0315 -3.65892 -0.916692 0
M  V30 733 H 70.4185 -2.70349 -1.18301 0
M  V30 734 H 70.4995 -2.49323 0.571994 0
M  V30 735 H 70.1435 -5.00448 0.866867 0
M  V30 736 H 70.0735 -5.18786 -0.903802 0
M  V30 737 H 72.5645 -3.7709 -0.247286 0
M  V30 738 H 72.8775 -7.72707 0.119905 0
M  V30 739 H 71.2225 -6.94927 0.100885 0
M  V30 740 H 74.4135 -4.67572 -0.222187 0
M  V30 741 H 74.5865 -6.47977 -0.0549735 0
M  V30 742 N 67.9926 0.231505 -1.5589 0
M  V30 743 C 69.2226 0.973092 -1.82248 0
M  V30 744 C 69.6306 1.78845 -0.617328 0
M  V30 745 O 68.9736 1.78752 0.423499 0
M  V30 746 C 69.0356 1.94732 -3.02192 0
M  V30 747 C 68.6996 1.31743 -4.37599 0
M  V30 748 C 69.6966 0.712238 -5.14998 0
M  V30 749 C 67.3816 1.33218 -4.84312 0
M  V30 750 C 69.3756 0.130195 -6.37267 0
M  V30 751 C 67.0626 0.746286 -6.06526 0
M  V30 752 C 68.0606 0.146337 -6.82843 0
M  V30 753 O 67.7486 -0.430465 -8.02747 0
M  V30 754 H 67.4806 0.29125 -0.61004 0
M  V30 755 H 70.0346 0.254915 -2.03812 0
M  V30 756 H 68.2646 2.70422 -2.76422 0
M  V30 757 H 69.9536 2.55362 -3.15508 0
M  V30 758 H 70.7196 0.69324 -4.8002 0
M  V30 759 H 66.5986 1.78854 -4.24891 0
M  V30 760 H 70.1426 -0.33871 -6.96777 0
M  V30 761 H 66.0396 0.762663 -6.40979 0
M  V30 762 H 66.8076 -0.323818 -8.17859 0
M  V30 763 N 69.4707 1.49531 0.497807 0
M  V30 764 C 70.4187 1.66926 1.61983 0
M  V30 765 C 71.4127 0.535167 1.60724 0
M  V30 766 O 72.6187 0.714896 1.65195 0
M  V30 767 H 68.9937 0.526415 0.537021 0
M  V30 768 H 70.9647 2.61098 1.44465 0
M  V30 769 C 69.7137 1.75602 3.00099 0
M  V30 770 H 69.0367 2.62244 3.01775 0
M  V30 771 H 70.4767 1.91807 3.78135 0
M  V30 772 C 68.9357 0.501543 3.33146 0
M  V30 773 O 69.4657 -0.371342 3.9998 0
M  V30 774 N 67.6717 0.363531 2.88317 0
M  V30 775 H 67.2187 1.07485 2.34104 0
M  V30 776 H 67.1767 -0.474728 3.10795 0
M  V30 777 N 70.9488 -0.749086 1.3866 0
M  V30 778 C 72.1738 -1.54344 1.38538 0
M  V30 779 C 72.5988 -1.88088 -0.0216655 0
M  V30 780 O 71.9568 -1.50899 -1.00494 0
M  V30 781 C 72.0048 -2.8164 2.25192 0
M  V30 782 O 71.1088 -3.7698 1.67212 0
M  V30 783 H 70.4498 -0.466654 0.472367 0
M  V30 784 H 72.9798 -0.925355 1.82478 0
M  V30 785 H 72.9898 -3.30519 2.3921 0
M  V30 786 H 71.6648 -2.56411 3.27454 0
M  V30 787 H 70.2418 -3.35699 1.6236 0
M  V30 788 N 72.4269 -1.23603 -0.977757 0
M  V30 789 C 73.6749 -1.06759 -1.71601 0
M  V30 790 C 73.9959 0.395929 -1.90938 0
M  V30 791 O 73.2659 1.28356 -1.47992 0
M  V30 792 H 71.8459 -0.392062 -0.635843 0
M  V30 793 H 74.5079 -1.55362 -1.1768 0
M  V30 794 H 73.6039 -1.55763 -2.70452 0
M  V30 795 N 73.905 1.17692 -1.04816 0
M  V30 796 C 74.852 2.21581 -0.645797 0
M  V30 797 C 75.822 1.62367 0.350159 0
M  V30 798 O 77.007 1.89254 0.242433 0
M  V30 799 C 74.147 3.45092 -0.0227568 0
M  V30 800 C 73.26 4.18613 -1.06709 0
M  V30 801 C 72.395 5.29602 -0.411767 0
M  V30 802 C 71.434 5.94904 -1.44067 0
M  V30 803 N 70.571 6.97414 -0.809781 0
M  V30 804 H 75.411 2.55353 -1.5362 0
M  V30 805 H 72.948 1.25438 -0.768364 0
M  V30 806 H 74.906 4.15679 0.35588 0
M  V30 807 H 73.536 3.11917 0.831122 0
M  V30 808 H 72.588 3.46779 -1.5636 0
M  V30 809 H 73.9 4.63293 -1.84827 0
M  V30 810 H 73.054 6.06696 0.0206623 0
M  V30 811 H 71.793 4.86045 0.401438 0
M  V30 812 H 70.798 5.16544 -1.88316 0
M  V30 813 H 72.023 6.40542 -2.25571 0
M  V30 814 H 69.969 6.55998 -0.0170186 0
M  V30 815 H 69.886 7.40386 -1.52856 0
M  V30 816 H 71.154 7.78463 -0.401999 0
M  V30 817 N 75.3831 0.828654 1.34056 0
M  V30 818 C 76.3131 0.269443 2.3194 0
M  V30 819 C 77.2941 -0.617247 1.58506 0
M  V30 820 O 78.4791 -0.542931 1.86456 0
M  V30 821 C 75.6091 -0.564793 3.42677 0
M  V30 822 C 74.5631 0.225241 4.27407 0
M  V30 823 C 73.8891 -0.7321 5.29664 0
M  V30 824 C 75.1891 1.43663 5.02154 0
M  V30 825 H 76.8831 1.08728 2.7896 0
M  V30 826 H 74.4291 0.524283 1.34117 0
M  V30 827 H 76.3821 -0.966233 4.10173 0
M  V30 828 H 75.1061 -1.41574 2.9432 0
M  V30 829 H 73.7651 0.608117 3.61521 0
M  V30 830 H 73.4131 -1.57916 4.77568 0
M  V30 831 H 73.1131 -0.20767 5.87233 0
M  V30 832 H 74.6371 -1.13128 6.00029 0
M  V30 833 H 76.0511 1.1089 5.62473 0
M  V30 834 H 74.4481 1.89711 5.69324 0
M  V30 835 H 75.5181 2.21181 4.31517 0
M  V30 836 N 76.8612 -1.46375 0.584142 0
M  V30 837 C 77.7712 -2.34115 -0.150728 0
M  V30 838 C 78.7872 -1.49838 -0.884567 0
M  V30 839 O 79.9632 -1.82704 -0.847429 0
M  V30 840 C 77.0282 -3.2705 -1.15062 0
M  V30 841 C 76.0892 -4.27228 -0.421293 0
M  V30 842 C 75.3222 -5.15722 -1.37355 0
M  V30 843 O 75.5452 -5.07176 -2.61014 0
M  V30 844 O 74.4792 -5.95383 -0.883355 0
M  V30 845 H 78.3052 -2.98309 0.569708 0
M  V30 846 H 75.8902 -1.45373 0.344535 0
M  V30 847 H 77.7722 -3.84381 -1.72712 0
M  V30 848 H 76.4472 -2.65451 -1.8525 0
M  V30 849 H 75.3542 -3.7358 0.197085 0
M  V30 850 H 76.6872 -4.91616 0.239641 0
M  V30 851 N 78.3393 -0.321999 -1.54275 0
M  V30 852 C 79.2493 0.553631 -2.27974 0
M  V30 853 C 80.2653 1.13054 -1.32268 0
M  V30 854 O 81.4413 1.15084 -1.6528 0
M  V30 855 C 78.5063 1.69927 -3.02201 0
M  V30 856 C 77.5673 1.15433 -4.1349 0
M  V30 857 C 76.8003 2.24537 -4.84168 0
M  V30 858 O 77.0233 3.44852 -4.5435 0
M  V30 859 O 75.9573 1.90044 -5.7111 0
M  V30 860 H 79.7833 -0.0448345 -3.03667 0
M  V30 861 H 77.3683 -0.0877418 -1.49142 0
M  V30 862 H 79.2503 2.3663 -3.48689 0
M  V30 863 H 77.9253 2.28395 -2.29385 0
M  V30 864 H 76.8323 0.452436 -3.71354 0
M  V30 865 H 78.1653 0.614805 -4.88345 0
M  V30 866 N 79.8174 1.5752 -0.0501392 0
M  V30 867 C 81.0644 1.9265 0.623874 0
M  V30 868 C 81.3924 0.928411 1.70912 0
M  V30 869 O 80.6474 -0.0594525 1.9561 0
M  V30 870 C 80.9464 3.34467 1.25963 0
M  V30 871 C 80.6124 4.49883 0.302689 0
M  V30 872 C 79.2744 4.81184 0.0393636 0
M  V30 873 C 81.6264 5.20002 -0.353205 0
M  V30 874 C 78.9544 5.79951 -0.887308 0
M  V30 875 C 81.3064 6.1976 -1.26806 0
M  V30 876 C 79.9704 6.49491 -1.54007 0
M  V30 877 H 79.2404 0.704957 0.228292 0
M  V30 878 H 81.8874 1.91146 -0.116398 0
M  V30 879 H 80.1924 3.32333 2.07514 0
M  V30 880 H 81.8894 3.58928 1.78806 0
M  V30 881 H 78.4794 4.25457 0.518109 0
M  V30 882 H 82.6634 4.96033 -0.162854 0
M  V30 883 H 77.9194 6.01322 -1.10553 0
M  V30 884 H 82.0934 6.73205 -1.78236 0
M  V30 885 H 79.7204 7.25837 -2.25976 0
M  V30 886 N 81.2955 -0.223234 1.56011 0
M  V30 887 C 82.5415 -0.949279 1.79211 0
M  V30 888 C 82.8745 -1.84054 0.619494 0
M  V30 889 O 82.1495 -1.90726 -0.381317 0
M  V30 890 C 82.4325 -1.78965 3.12479 0
M  V30 891 C 82.2855 -0.924997 4.40186 0
M  V30 892 C 83.6045 -2.76774 3.42175 0
M  V30 893 H 80.7235 -0.343676 0.651963 0
M  V30 894 H 83.3655 -0.218253 1.88742 0
M  V30 895 H 81.5155 -2.41291 3.04485 0
M  V30 896 H 83.1875 -0.318615 4.60198 0
M  V30 897 H 81.4305 -0.230344 4.33188 0
M  V30 898 H 82.1015 -1.54735 5.29869 0
M  V30 899 H 84.5775 -2.24584 3.50287 0
M  V30 900 H 83.4535 -3.32678 4.36597 0
M  V30 901 H 83.7145 -3.54429 2.64258 0
M  V30 902 N 82.7736 -1.49793 -0.48987 0
M  V30 903 C 83.7056 -1.63413 -1.60713 0
M  V30 904 C 84.7186 -0.516329 -1.54395 0
M  V30 905 O 85.9076 -0.788812 -1.60125 0
M  V30 906 C 83.0076 -1.58516 -2.99543 0
M  V30 907 C 82.1806 -2.86016 -3.30928 0
M  V30 908 C 81.2396 -2.74018 -4.49222 0
M  V30 909 O 80.2656 -3.47964 -4.50455 0
M  V30 910 N 81.4676 -1.86309 -5.4979 0
M  V30 911 H 84.2326 -2.59777 -1.49452 0
M  V30 912 H 81.7936 -1.47022 -0.677955 0
M  V30 913 H 83.7856 -1.48128 -3.76617 0
M  V30 914 H 82.3556 -0.69965 -3.0467 0
M  V30 915 H 81.5756 -3.10672 -2.42645 0
M  V30 916 H 82.8636 -3.70521 -3.487 0
M  V30 917 H 82.2616 -1.2551 -5.51601 0
M  V30 918 H 80.8186 -1.81837 -6.25922 0
M  V30 919 N 84.2517 0.741722 -1.39055 0
M  V30 920 C 85.4997 1.49818 -1.35643 0
M  V30 921 C 85.8207 1.94938 0.0491642 0
M  V30 922 O 85.0907 1.68505 0.999141 0
M  V30 923 H 83.6707 0.555755 -0.499144 0
M  V30 924 H 86.3327 0.880957 -1.73854 0
M  V30 925 H 85.4287 2.38348 -2.01486 0
M  V30 926 N 85.7298 1.2412 0.971189 0
M  V30 927 C 86.6778 1.02812 2.08644 0
M  V30 928 C 87.6718 -0.0358403 1.69362 0
M  V30 929 O 88.8778 0.118429 1.7961 0
M  V30 930 H 85.2528 0.315428 0.682649 0
M  V30 931 H 87.2238 1.97397 2.23779 0
M  V30 932 C 85.9728 0.645874 3.41649 0
M  V30 933 H 85.2958 1.45632 3.72332 0
M  V30 934 H 86.7358 0.536366 4.20594 0
M  V30 935 C 85.1948 -0.646713 3.30635 0
M  V30 936 O 85.7248 -1.69338 3.64263 0
M  V30 937 N 83.9308 -0.626115 2.83775 0
M  V30 938 H 83.4778 0.225988 2.56607 0
M  V30 939 H 83.4358 -1.49117 2.76788 0
M  V30 940 N 87.2079 -1.17134 1.05439 0
M  V30 941 C 88.1379 -2.2342 0.678649 0
M  V30 942 C 89.1189 -1.66971 -0.32476 0
M  V30 943 O 90.3039 -1.93149 -0.201802 0
M  V30 944 C 87.4339 -3.47256 0.0552099 0
M  V30 945 C 86.3879 -4.16543 0.98365 0
M  V30 946 C 85.7139 -5.34231 0.223961 0
M  V30 947 C 87.0139 -4.68495 2.3089 0
M  V30 948 H 88.7079 -2.55105 1.56722 0
M  V30 949 H 86.2539 -1.2262 0.754998 0
M  V30 950 H 88.2069 -4.20828 -0.21946 0
M  V30 951 H 86.9309 -3.14846 -0.868319 0
M  V30 952 H 85.5899 -3.44887 1.24293 0
M  V30 953 H 85.2379 -4.98071 -0.702412 0
M  V30 954 H 84.9379 -5.81527 0.842627 0
M  V30 955 H 86.4619 -6.10585 -0.0433671 0
M  V30 956 H 87.8759 -5.33691 2.09396 0
M  V30 957 H 86.2729 -5.26379 2.88176 0
M  V30 958 H 87.3429 -3.85169 2.94572 0
M  V30 959 N 88.686 -0.835752 -1.33615 0
M  V30 960 C 89.596 -0.269088 -2.33052 0
M  V30 961 C 90.612 0.603251 -1.63208 0
M  V30 962 O 91.788 0.508112 -1.94885 0
M  V30 963 C 88.853 0.549091 -3.42324 0
M  V30 964 C 87.914 -0.347156 -4.27894 0
M  V30 965 C 87.147 0.43207 -5.31948 0
M  V30 966 O 87.37 1.66409 -5.45586 0
M  V30 967 O 86.304 -0.192298 -6.01593 0
M  V30 968 H 90.13 -1.09243 -2.83372 0
M  V30 969 H 87.715 -0.598198 -1.36901 0
M  V30 970 H 89.597 1.01414 -4.09015 0
M  V30 971 H 88.272 1.34955 -2.94226 0
M  V30 972 H 87.179 -0.859979 -3.64081 0
M  V30 973 H 88.512 -1.1123 -4.79467 0
M  V30 974 N 90.1641 1.46063 -0.591896 0
M  V30 975 C 91.5801 1.57561 -0.254288 0
M  V30 976 C 91.7801 1.58565 1.24336 0
M  V30 977 O 90.8361 1.50753 2.02558 0
M  V30 978 C 92.1491 2.86549 -0.911611 0
M  V30 979 C 93.6971 3.00197 -0.886059 0
M  V30 980 C 94.1721 4.31933 -1.5231 0
M  V30 981 N 95.6631 4.38654 -1.48786 0
M  V30 982 C 96.3981 5.39222 -1.95006 0
M  V30 983 N 95.8941 6.46414 -2.49241 0
M  V30 984 N 97.6871 5.3048 -1.85868 0
M  V30 985 H 89.8381 1.43655 -1.56451 0
M  V30 986 H 92.1011 0.68583 -0.654478 0
M  V30 987 H 91.8071 2.91651 -1.96551 0
M  V30 988 H 91.6811 3.74794 -0.425368 0
M  V30 989 H 94.0681 2.9467 0.159246 0
M  V30 990 H 94.1491 2.13403 -1.41041 0
M  V30 991 H 93.7931 4.38217 -2.56765 0
M  V30 992 H 93.7231 5.17516 -0.973891 0
M  V30 993 H 96.2141 3.61793 -1.09151 0
M  V30 994 H 96.5271 7.19376 -2.82344 0
M  V30 995 H 94.8721 6.47208 -2.53272 0
M  V30 996 H 98.0631 4.45643 -1.43248 0
M  V30 997 H 98.2361 6.08711 -2.22204 0
M  V30 998 N 91.6422 0.330177 1.54103 0
M  V30 999 C 92.5522 -0.541534 2.28264 0
M  V30 1000 C 93.5682 -1.12351 1.32866 0
M  V30 1001 O 94.7442 -1.14206 1.65888 0
M  V30 1002 C 91.8092 -1.68322 3.03098 0
M  V30 1003 C 90.8702 -1.13238 4.14096 0
M  V30 1004 C 90.1032 -2.21966 4.85352 0
M  V30 1005 O 90.3262 -3.42437 4.56172 0
M  V30 1006 O 89.2602 -1.87013 5.7211 0
M  V30 1007 H 93.0862 0.060938 3.03639 0
M  V30 1008 H 90.6712 0.09565 1.49093 0
M  V30 1009 H 92.5532 -2.34777 3.49939 0
M  V30 1010 H 91.2282 -2.27176 2.30593 0
M  V30 1011 H 90.1352 -0.432736 3.71589 0
M  V30 1012 H 91.4682 -0.588898 4.88664 0
M  V30 1013 N 93.1203 -1.57491 0.0584922 0
M  V30 1014 C 94.3603 -1.94851 -0.617458 0
M  V30 1015 C 94.7243 -0.937165 -1.67575 0
M  V30 1016 O 95.9253 -1.19795 -2.40629 0
M  V30 1017 C 94.1963 -3.36955 -1.19147 0
M  V30 1018 S 95.7553 -3.96277 -1.8844 0
M  V30 1019 H 92.5733 -0.681539 -0.202547 0
M  V30 1020 H 95.1753 -1.95073 0.129176 0
M  V30 1021 H 93.8793 -4.08355 -0.409215 0
M  V30 1022 H 93.4103 -3.40245 -1.97476 0
M  V30 1023 H 95.4253 -3.82099 -3.16568 0
M  V30 1024 N 94.5984 0.214957 -1.56127 0
M  V30 1025 C 95.5314 1.29382 -1.87977 0
M  V30 1026 C 96.5094 1.44897 -0.737807 0
M  V30 1027 O 97.6934 1.60605 -0.986833 0
M  V30 1028 C 94.8204 2.66325 -2.09258 0
M  V30 1029 C 93.8664 2.67789 -3.31951 0
M  V30 1030 S 94.6994 2.21198 -4.8768 0
M  V30 1031 C 95.8554 3.60003 -5.12004 0
M  V30 1032 H 96.0884 1.02173 -2.79192 0
M  V30 1033 H 93.6214 0.417516 -1.48648 0
M  V30 1034 H 95.5794 3.45162 -2.22201 0
M  V30 1035 H 94.2404 2.90755 -1.18829 0
M  V30 1036 H 93.4334 3.68436 -3.43906 0
M  V30 1037 H 93.0354 1.9702 -3.17898 0
M  V30 1038 H 95.3274 4.55739 -5.01307 0
M  V30 1039 H 96.2704 3.52959 -6.13861 0
M  V30 1040 H 96.6784 3.53996 -4.39712 0
M  V30 1041 N 96.0765 1.50051 0.48192 0
M  V30 1042 C 96.9865 1.7089 1.60728 0
M  V30 1043 C 98.0025 0.591788 1.63627 0
M  V30 1044 O 99.1785 0.868817 1.81696 0
M  V30 1045 C 96.2435 1.78855 2.97005 0
M  V30 1046 C 95.3045 3.02537 3.04581 0
M  V30 1047 C 94.5375 3.10112 4.34357 0
M  V30 1048 O 94.7605 2.24765 5.24249 0
M  V30 1049 O 93.6945 4.02747 4.47301 0
M  V30 1050 H 97.5205 2.66264 1.46072 0
M  V30 1051 H 95.1055 1.34018 0.660264 0
M  V30 1052 H 96.9875 1.86336 3.77964 0
M  V30 1053 H 95.6625 0.866628 3.11883 0
M  V30 1054 H 94.5695 3.00563 2.22739 0
M  V30 1055 H 95.9025 3.94272 2.94636 0
M  V30 1056 N 97.5546 -0.734337 1.39446 0
M  V30 1057 C 98.4646 -1.87879 1.40495 0
M  V30 1058 C 99.4806 -1.714 0.299672 0
M  V30 1059 O 100.657 -1.93991 0.541249 0
M  V30 1060 C 97.7216 -3.23477 1.24754 0
M  V30 1061 C 96.7826 -3.52344 2.45259 0
M  V30 1062 C 96.0156 -4.81473 2.30259 0
M  V30 1063 O 96.2386 -5.55237 1.30643 0
M  V30 1064 O 95.1726 -5.10254 3.19256 0
M  V30 1065 H 98.9986 -1.89949 2.36966 0
M  V30 1066 H 96.5836 -0.882243 1.20569 0
M  V30 1067 H 98.4656 -4.04509 1.18111 0
M  V30 1068 H 97.1406 -3.22176 0.313781 0
M  V30 1069 H 96.0476 -2.71396 2.57478 0
M  V30 1070 H 97.3806 -3.58426 3.37331 0
M  V30 1071 N 99.0327 -1.24633 -0.964593 0
M  V30 1072 C 99.9797 -1.04144 -2.05968 0
M  V30 1073 C 100.95 0.046262 -1.66036 0
M  V30 1074 O 102.135 -0.108972 -1.90489 0
M  V30 1075 C 99.2747 -0.65563 -3.38815 0
M  V30 1076 C 98.3877 -1.81714 -3.91923 0
M  V30 1077 C 97.5227 -1.37662 -5.13052 0
M  V30 1078 C 96.5617 -2.50788 -5.58365 0
M  V30 1079 N 95.6987 -2.07582 -6.70712 0
M  V30 1080 H 100.539 -1.9787 -2.22827 0
M  V30 1081 H 98.0757 -0.9855 -1.09208 0
M  V30 1082 H 100.034 -0.412954 -4.15151 0
M  V30 1083 H 98.6637 0.244627 -3.21872 0
M  V30 1084 H 97.7157 -2.1734 -3.12198 0
M  V30 1085 H 99.0277 -2.66705 -4.21509 0
M  V30 1086 H 98.1817 -1.093 -5.96773 0
M  V30 1087 H 96.9207 -0.497293 -4.85158 0
M  V30 1088 H 95.9257 -2.79906 -4.73215 0
M  V30 1089 H 97.1507 -3.39283 -5.88272 0
M  V30 1090 H 95.0967 -1.22051 -6.44546 0
M  V30 1091 H 95.0137 -2.86125 -6.99763 0
M  V30 1092 H 96.2817 -1.82369 -7.57867 0
M  V30 1093 N 100.511 1.16574 -1.06058 0
M  V30 1094 C 101.751 1.88723 -0.78504 0
M  V30 1095 C 102.115 1.79706 0.676006 0
M  V30 1096 O 103.316 2.46757 1.06603 0
M  V30 1097 C 101.587 3.34338 -1.26304 0
M  V30 1098 S 103.146 4.24366 -1.1162 0
M  V30 1099 H 99.9638 0.651448 -0.284846 0
M  V30 1100 H 102.566 1.40732 -1.35701 0
M  V30 1101 H 101.27 3.38439 -2.32136 0
M  V30 1102 H 100.801 3.87378 -0.685719 0
M  V30 1103 H 102.816 4.96179 -0.0456539 0
M  V30 1104 N 101.989 0.842826 1.3317 0
M  V30 1105 C 103.214 0.453129 2.02389 0
M  V30 1106 C 103.639 -0.939105 1.6298 0
M  V30 1107 O 102.997 -1.61472 0.8244 0
M  V30 1108 C 103.045 0.586094 3.55805 0
M  V30 1109 O 102.149 -0.386029 4.10589 0
M  V30 1110 H 101.49 0.183664 0.638094 0
M  V30 1111 H 104.02 1.13875 1.69981 0
M  V30 1112 H 104.03 0.469209 4.05293 0
M  V30 1113 H 102.705 1.6014 3.83833 0
M  V30 1114 H 101.282 -0.226371 3.72212 0
M  V30 1115 N 103.467 -1.45747 0.599634 0
M  V30 1116 C 104.714 -2.02292 0.0917284 0
M  V30 1117 C 105.042 -1.46906 -1.27472 0
M  V30 1118 O 104.297 -0.630652 -1.8526 0
M  V30 1119 C 104.596 -3.57399 -0.00602758 0
M  V30 1120 C 104.262 -4.31902 1.29503 0
M  V30 1121 C 102.924 -4.51974 1.65144 0
M  V30 1122 C 105.276 -4.74551 2.15525 0
M  V30 1123 C 102.604 -5.11949 2.86574 0
M  V30 1124 C 104.956 -5.35868 3.36196 0
M  V30 1125 C 103.62 -5.54165 3.72099 0
M  V30 1126 H 102.89 -0.740239 0.0335658 0
M  V30 1127 H 105.537 -1.7491 0.779661 0
M  V30 1128 H 103.842 -3.84014 -0.777183 0
M  V30 1129 H 105.539 -3.98846 -0.415038 0
M  V30 1130 H 102.129 -4.16588 1.00761 0
M  V30 1131 H 106.313 -4.58784 1.8929 0
M  V30 1132 H 101.569 -5.24305 3.14507 0
M  V30 1133 H 105.743 -5.6787 4.03109 0
M  V30 1134 H 103.37 -6.00406 4.6628 0
M  V30 1135 N 104.945 -0.338344 -1.53925 0
M  V30 1136 C 105.855 0.529421 -2.28548 0
M  V30 1137 C 106.871 1.11645 -1.3346 0
M  V30 1138 O 108.047 1.13325 -1.66492 0
M  V30 1139 C 105.112 1.66713 -3.03987 0
M  V30 1140 C 104.173 1.11041 -4.14691 0
M  V30 1141 C 103.406 2.19389 -4.86522 0
M  V30 1142 O 103.629 3.40013 -4.57982 0
M  V30 1143 O 102.563 1.83976 -5.73094 0
M  V30 1144 H 106.389 -0.0770399 -3.03602 0
M  V30 1145 H 103.974 -0.103555 -1.49041 0
M  V30 1146 H 105.856 2.32918 -3.5118 0
M  V30 1147 H 104.531 2.25949 -2.31794 0
M  V30 1148 H 103.438 0.413024 -3.71813 0
M  V30 1149 H 104.771 0.562975 -4.8897 0
M  V30 1150 N 106.423 1.57458 -0.0668435 0
M  V30 1151 C 107.333 2.15937 0.916975 0
M  V30 1152 C 108.349 1.12123 1.33058 0
M  V30 1153 O 109.525 1.44366 1.40429 0
M  V30 1154 C 106.59 2.70547 2.16807 0
M  V30 1155 C 105.651 3.89215 1.81135 0
M  V30 1156 C 104.884 4.41211 3.0028 0
M  V30 1157 O 105.107 3.92225 4.14144 0
M  V30 1158 O 104.041 5.32605 2.80384 0
M  V30 1159 H 107.867 3.00354 0.449561 0
M  V30 1160 H 105.452 1.48584 0.155949 0
M  V30 1161 H 107.334 3.0557 2.90181 0
M  V30 1162 H 106.009 1.89192 2.62656 0
M  V30 1163 H 104.916 3.59054 1.05028 0
M  V30 1164 H 106.249 4.71848 1.40073 0
M  V30 1165 N 107.901 -0.206675 1.56239 0
M  V30 1166 C 108.864 -1.23976 1.92776 0
M  V30 1167 C 109.864 -1.39041 0.807729 0
M  V30 1168 O 111.054 -1.37051 1.0753 0
M  V30 1169 C 108.186 -2.61112 2.19165 0
M  V30 1170 H 109.379 -0.927764 2.85189 0
M  V30 1171 H 106.932 -0.447718 1.4975 0
M  V30 1172 H 107.667 -2.97386 1.29352 0
M  V30 1173 H 107.452 -2.51552 3.00772 0
M  V30 1174 H 108.942 -3.35633 2.48476 0
M  V30 1175 N 109.379 -1.50304 -0.473955 0
M  V30 1176 C 110.795 -1.37667 -0.807466 0
M  V30 1177 C 110.995 -0.430555 -1.96846 0
M  V30 1178 O 110.051 0.127874 -2.52176 0
M  V30 1179 C 111.364 -2.78974 -1.12223 0
M  V30 1180 C 112.912 -2.87868 -1.22885 0
M  V30 1181 C 113.387 -4.30003 -1.57676 0
M  V30 1182 N 114.878 -4.3294 -1.64673 0
M  V30 1183 C 115.613 -5.3991 -1.93091 0
M  V30 1184 N 115.109 -6.57092 -2.1955 0
M  V30 1185 N 116.902 -5.27351 -1.94569 0
M  V30 1186 H 109.053 -2.10394 0.291212 0
M  V30 1187 H 111.316 -0.945575 0.0677609 0
M  V30 1188 H 111.022 -3.50031 -0.342229 0
M  V30 1189 H 110.896 -3.16038 -2.05913 0
M  V30 1190 H 113.283 -2.17032 -1.99953 0
M  V30 1191 H 113.364 -2.54352 -0.271814 0
M  V30 1192 H 113.008 -5.01375 -0.81149 0
M  V30 1193 H 112.938 -4.61004 -2.54525 0
M  V30 1194 H 115.429 -3.48441 -1.46277 0
M  V30 1195 H 115.742 -7.34425 -2.405 0
M  V30 1196 H 114.087 -6.60272 -2.16948 0
M  V30 1197 H 117.278 -4.34801 -1.73394 0
M  V30 1198 H 117.451 -6.10805 -2.16381 0
M  V30 1199 N 110.857 0.726932 -1.39834 0
M  V30 1200 C 111.767 1.87131 -1.41489 0
M  V30 1201 C 112.783 1.71239 -0.308757 0
M  V30 1202 O 113.959 1.93701 -0.551529 0
M  V30 1203 C 111.024 3.22811 -1.26468 0
M  V30 1204 C 110.085 3.51039 -2.47124 0
M  V30 1205 C 109.318 4.80245 -2.3281 0
M  V30 1206 O 109.541 5.54537 -1.33585 0
M  V30 1207 O 108.475 5.08554 -3.21957 0
M  V30 1208 H 112.301 1.8869 -2.3797 0
M  V30 1209 H 109.886 0.875837 -1.21035 0
M  V30 1210 H 111.768 4.03877 -1.20255 0
M  V30 1211 H 110.443 3.22005 -0.330862 0
M  V30 1212 H 109.35 2.70027 -2.58914 0
M  V30 1213 H 110.683 3.56632 -3.39227 0
M  V30 1214 N 112.336 1.25143 0.95797 0
M  V30 1215 C 113.582 1.09855 1.70469 0
M  V30 1216 C 113.915 -0.360187 1.90831 0
M  V30 1217 O 113.19 -1.26568 1.47685 0
M  V30 1218 C 113.473 1.8497 3.08963 0
M  V30 1219 C 113.326 3.38652 2.96032 0
M  V30 1220 C 114.645 1.63016 4.08795 0
M  V30 1221 H 111.764 0.400465 0.618706 0
M  V30 1222 H 114.406 1.53933 1.11376 0
M  V30 1223 H 112.556 1.47505 3.59409 0
M  V30 1224 H 114.228 3.85772 2.52938 0
M  V30 1225 H 112.471 3.66534 2.32025 0
M  V30 1226 H 113.142 3.8642 3.94187 0
M  V30 1227 H 115.618 1.95625 3.67247 0
M  V30 1228 H 114.494 2.18015 5.03747 0
M  V30 1229 H 114.755 0.570692 4.38401 0
M  V30 1230 N 113.814 -1.1601 1.06675 0
M  V30 1231 C 115.061 -1.86633 0.785781 0
M  V30 1232 C 115.389 -1.81929 -0.687896 0
M  V30 1233 O 114.644 -1.23253 -1.52011 0
M  V30 1234 C 114.943 -3.35547 1.23057 0
M  V30 1235 C 114.609 -3.60448 2.70902 0
M  V30 1236 C 113.271 -3.66954 3.11285 0
M  V30 1237 C 115.623 -3.7071 3.66365 0
M  V30 1238 C 112.951 -3.81225 4.45965 0
M  V30 1239 C 115.303 -3.86503 5.00797 0
M  V30 1240 C 113.967 -3.91252 5.40813 0
M  V30 1241 H 113.237 -0.682937 0.287538 0
M  V30 1242 H 115.884 -1.37146 1.33654 0
M  V30 1243 H 114.189 -3.87193 0.59907 0
M  V30 1244 H 115.886 -3.88583 0.990163 0
M  V30 1245 H 112.476 -3.56021 2.38636 0
M  V30 1246 H 116.66 -3.64991 3.36296 0
M  V30 1247 H 111.916 -3.83155 4.76447 0
M  V30 1248 H 116.09 -3.93385 5.74649 0
M  V30 1249 H 113.717 -4.02062 6.45174 0
M  V30 1250 N 115.292 -0.849877 -1.32721 0
M  V30 1251 C 116.202 -0.293791 -2.32753 0
M  V30 1252 C 117.218 0.585906 -1.63839 0
M  V30 1253 O 118.394 0.487413 -1.95413 0
M  V30 1254 C 115.459 0.512752 -3.42887 0
M  V30 1255 C 114.52 -0.39252 -4.27502 0
M  V30 1256 C 113.753 0.375625 -5.32377 0
M  V30 1257 O 113.976 1.60613 -5.4732 0
M  V30 1258 O 112.91 -0.256094 -6.01355 0
M  V30 1259 H 116.736 -1.12242 -2.82197 0
M  V30 1260 H 114.321 -0.612685 -1.36259 0
M  V30 1261 H 116.203 0.970704 -4.10067 0
M  V30 1262 H 114.878 1.31826 -2.95641 0
M  V30 1263 H 113.785 -0.898547 -3.63149 0
M  V30 1264 H 115.118 -1.16309 -4.7826 0
M  V30 1265 N 116.77 1.45427 -0.607355 0
M  V30 1266 C 117.718 2.32269 0.12411 0
M  V30 1267 C 118.712 1.45955 0.859854 0
M  V30 1268 O 119.918 1.6244 0.775447 0
M  V30 1269 H 116.293 0.749691 0.0588839 0
M  V30 1270 H 118.264 2.91743 -0.626762 0
M  V30 1271 C 117.013 3.29567 1.1082 0
M  V30 1272 H 116.336 3.95978 0.551492 0
M  V30 1273 H 117.776 3.93061 1.58995 0
M  V30 1274 C 116.235 2.56722 2.18164 0
M  V30 1275 O 116.765 2.34842 3.25902 0
M  V30 1276 N 114.971 2.16861 1.93442 0
M  V30 1277 H 114.518 2.34855 1.05834 0
M  V30 1278 H 114.476 1.68444 2.65469 0
M  V30 1279 N 118.248 0.346503 1.53744 0
M  V30 1280 C 119.476 -0.25041 2.05379 0
M  V30 1281 C 119.891 -1.43979 1.22129 0
M  V30 1282 O 119.248 -1.80677 0.257321 0
M  V30 1283 C 119.299 -0.662575 3.55376 0
M  V30 1284 O 119.02 0.479515 4.35468 0
M  V30 1285 C 120.521 -1.31989 4.23195 0
M  V30 1286 H 117.741 -0.0478198 0.669294 0
M  V30 1287 H 120.285 0.499346 1.9831 0
M  V30 1288 H 118.44 -1.36227 3.62658 0
M  V30 1289 H 118.854 0.15037 5.24284 0
M  V30 1290 H 120.328 -1.55902 5.29527 0
M  V30 1291 H 120.805 -2.27436 3.75725 0
M  V30 1292 H 121.411 -0.662154 4.20114 0
M  V30 1293 N 119.726 -1.57421 0.075193 0
M  V30 1294 C 120.636 -2.1642 -0.905511 0
M  V30 1295 C 121.652 -1.12828 -1.32461 0
M  V30 1296 O 122.828 -1.45109 -1.39661 0
M  V30 1297 C 119.893 -2.71693 -2.15369 0
M  V30 1298 C 118.954 -3.90171 -1.79068 0
M  V30 1299 C 118.187 -4.42798 -2.97936 0
M  V30 1300 O 118.41 -3.94416 -4.12058 0
M  V30 1301 O 117.344 -5.34085 -2.77555 0
M  V30 1302 H 121.17 -3.00588 -0.433626 0
M  V30 1303 H 118.755 -1.48664 -0.148067 0
M  V30 1304 H 120.637 -3.07104 -2.88557 0
M  V30 1305 H 119.312 -1.90582 -2.61649 0
M  V30 1306 H 118.219 -3.59606 -1.03122 0
M  V30 1307 H 119.552 -4.72584 -1.37569 0
M  V30 1308 N 121.204 0.198386 -1.56346 0
M  V30 1309 C 122.62 0.549085 -1.49857 0
M  V30 1310 C 122.82 1.86016 -0.774611 0
M  V30 1311 O 121.876 2.50416 -0.323776 0
M  V30 1312 C 123.189 0.606868 -2.94512 0
M  V30 1313 C 124.737 0.695925 -3.05165 0
M  V30 1314 C 125.212 0.784848 -4.51225 0
M  V30 1315 N 126.703 0.848463 -4.55363 0
M  V30 1316 C 127.438 0.937378 -5.65686 0
M  V30 1317 N 126.934 0.9888 -6.85707 0
M  V30 1318 N 128.727 0.974312 -5.53592 0
M  V30 1319 H 120.878 -0.661655 -2.01831 0
M  V30 1320 H 123.141 -0.235261 -0.918344 0
M  V30 1321 H 122.847 -0.28732 -3.50524 0
M  V30 1322 H 122.721 1.46268 -3.47686 0
M  V30 1323 H 125.108 1.58055 -2.49204 0
M  V30 1324 H 125.189 -0.186022 -2.55123 0
M  V30 1325 H 124.833 -0.0954072 -5.0781 0
M  V30 1326 H 124.763 1.68255 -4.98997 0
M  V30 1327 H 127.254 0.818103 -3.68938 0
M  V30 1328 H 127.567 1.05707 -7.65536 0
M  V30 1329 H 125.912 0.957534 -6.88372 0
M  V30 1330 H 129.103 0.930954 -4.58749 0
M  V30 1331 H 129.276 1.04015 -6.39597 0
M  V30 1332 N 122.682 1.50554 0.465978 0
M  V30 1333 C 123.91 1.65563 1.24083 0
M  V30 1334 C 124.325 0.341051 1.85694 0
M  V30 1335 O 123.682 -0.677543 1.69457 0
M  V30 1336 C 123.733 2.75051 2.34583 0
M  V30 1337 O 123.454 4.01413 1.75497 0
M  V30 1338 C 124.955 3.01078 3.25372 0
M  V30 1339 H 122.175 0.55638 0.375077 0
M  V30 1340 H 124.719 1.96807 0.555624 0
M  V30 1341 H 122.874 2.46486 2.9887 0
M  V30 1342 H 123.288 4.62002 2.48303 0
M  V30 1343 H 124.762 3.81339 3.99105 0
M  V30 1344 H 125.239 2.12349 3.84453 0
M  V30 1345 H 125.845 3.31194 2.66816 0
M  V30 1346 N 124.16 -0.719506 1.40217 0
M  V30 1347 C 125.388 -1.50864 1.41589 0
M  V30 1348 C 125.803 -1.88794 0.0145275 0
M  V30 1349 O 125.16 -1.55174 -0.960594 0
M  V30 1350 C 125.211 -2.78646 2.30302 0
M  V30 1351 O 124.932 -2.42321 3.64983 0
M  V30 1352 C 126.433 -3.72569 2.40224 0
M  V30 1353 H 123.653 -0.465709 0.48307 0
M  V30 1354 H 126.197 -0.88785 1.84221 0
M  V30 1355 H 124.352 -3.37019 1.91042 0
M  V30 1356 H 124.766 -3.24514 4.12057 0
M  V30 1357 H 126.24 -4.5908 3.06512 0
M  V30 1358 H 126.717 -4.15403 1.42608 0
M  V30 1359 H 127.323 -3.20109 2.80019 0
M  V30 1360 N 125.638 -1.25649 -0.95132 0
M  V30 1361 C 126.548 -1.08073 -2.08224 0
M  V30 1362 C 127.564 -0.0169666 -1.73992 0
M  V30 1363 O 128.74 -0.218593 -2.0021 0
M  V30 1364 C 125.805 -0.704922 -3.39458 0
M  V30 1365 C 124.866 -1.84699 -3.87537 0
M  V30 1366 C 124.099 -1.48902 -5.12508 0
M  V30 1367 O 124.322 -0.386156 -5.69091 0
M  V30 1368 O 123.256 -2.32033 -5.55378 0
M  V30 1369 H 127.082 -2.02924 -2.25954 0
M  V30 1370 H 124.667 -1.04618 -1.06656 0
M  V30 1371 H 126.549 -0.507609 -4.18332 0
M  V30 1372 H 125.224 0.214291 -3.2299 0
M  V30 1373 H 124.131 -2.09919 -3.09653 0
M  V30 1374 H 125.464 -2.74557 -4.08509 0
M  V30 1375 N 127.117 1.15442 -1.07289 0
M  V30 1376 C 128.364 1.86213 -0.795668 0
M  V30 1377 C 128.692 1.82291 0.678238 0
M  V30 1378 O 127.947 1.24057 1.51355 0
M  V30 1379 C 128.246 3.3489 -1.24834 0
M  V30 1380 C 127.912 3.59007 -2.72809 0
M  V30 1381 C 126.574 3.65298 -3.13227 0
M  V30 1382 C 128.926 3.68762 -3.68326 0
M  V30 1383 C 126.254 3.78854 -4.4798 0
M  V30 1384 C 128.606 3.83842 -5.0284 0
M  V30 1385 C 127.27 3.88378 -5.4288 0
M  V30 1386 H 126.54 0.681403 -0.291155 0
M  V30 1387 H 129.187 1.36435 -1.34379 0
M  V30 1388 H 127.492 3.8687 -0.619595 0
M  V30 1389 H 129.189 3.88052 -1.01076 0
M  V30 1390 H 125.779 3.5475 -2.40521 0
M  V30 1391 H 129.963 3.63202 -3.38227 0
M  V30 1392 H 125.219 3.80623 -4.78472 0
M  V30 1393 H 129.393 3.90332 -5.76727 0
M  V30 1394 H 127.02 3.98635 -6.47298 0
M  V30 1395 N 128.595 0.856903 1.32268 0
M  V30 1396 C 129.841 0.471355 1.97863 0
M  V30 1397 C 130.196 -0.962896 1.66572 0
M  V30 1398 O 129.489 -1.66686 0.944797 0
M  V30 1399 C 129.683 0.649919 3.51441 0
M  V30 1400 C 129.512 2.09997 3.97657 0
M  V30 1401 C 128.282 2.73893 4.2463 0
M  V30 1402 C 130.48 3.07081 4.1256 0
M  V30 1403 N 128.462 4.09786 4.57109 0
M  V30 1404 C 129.833 4.27968 4.48602 0
M  V30 1405 C 131.888 3.03247 3.949 0
M  V30 1406 C 130.591 5.45521 4.68827 0
M  V30 1407 C 132.617 4.20046 4.16311 0
M  V30 1408 C 131.979 5.39692 4.52672 0
M  V30 1409 H 128.078 0.221263 0.750044 0
M  V30 1410 H 130.662 1.10876 1.60045 0
M  V30 1411 H 128.833 0.0421938 3.88377 0
M  V30 1412 H 130.565 0.234044 4.04023 0
M  V30 1413 H 127.32 2.24918 4.16784 0
M  V30 1414 H 127.744 4.7989 4.7753 0
M  V30 1415 H 132.386 2.11863 3.65888 0
M  V30 1416 H 130.104 6.37434 4.96693 0
M  V30 1417 H 133.69 4.18517 4.04147 0
M  V30 1418 H 132.57 6.28566 4.68907 0
M  V30 1419 N 130.073 -1.45103 0.615059 0
M  V30 1420 C 131.02 -2.30586 -0.0993978 0
M  V30 1421 C 131.99 -1.42544 -0.852669 0
M  V30 1422 O 133.175 -1.71465 -0.836917 0
M  V30 1423 C 130.315 -3.27572 -1.08583 0
M  V30 1424 C 129.428 -4.30717 -0.332656 0
M  V30 1425 C 128.563 -5.14807 -1.30947 0
M  V30 1426 C 127.602 -6.09673 -0.544538 0
M  V30 1427 N 126.739 -6.86517 -1.47101 0
M  V30 1428 H 131.579 -2.91144 0.635542 0
M  V30 1429 H 129.116 -1.4346 0.325206 0
M  V30 1430 H 131.074 -3.82276 -1.67095 0
M  V30 1431 H 129.704 -2.68751 -1.78809 0
M  V30 1432 H 128.756 -3.78615 0.368107 0
M  V30 1433 H 130.068 -4.98102 0.263842 0
M  V30 1434 H 129.222 -5.73948 -1.96643 0
M  V30 1435 H 127.961 -4.47458 -1.9399 0
M  V30 1436 H 126.966 -5.49656 0.126003 0
M  V30 1437 H 128.191 -6.79052 0.080947 0
M  V30 1438 H 126.137 -6.21851 -2.08895 0
M  V30 1439 H 126.054 -7.50281 -0.928137 0
M  V30 1440 H 127.322 -7.50194 -2.11731 0
M  V30 1441 N 131.551 -0.354651 -1.53558 0
M  V30 1442 C 132.483 0.5315 -2.22952 0
M  V30 1443 C 133.496 1.05503 -1.23988 0
M  V30 1444 O 134.685 0.963279 -1.50277 0
M  V30 1445 C 131.785 1.74538 -2.90499 0
M  V30 1446 C 130.958 1.35524 -4.15875 0
M  V30 1447 C 130.017 2.42999 -4.66731 0
M  V30 1448 O 129.043 2.05844 -5.30676 0
M  V30 1449 N 130.245 3.74423 -4.43608 0
M  V30 1450 H 133.01 -0.0628615 -2.99634 0
M  V30 1451 H 130.571 -0.179302 -1.60904 0
M  V30 1452 H 132.563 2.45892 -3.21433 0
M  V30 1453 H 131.133 2.24686 -2.17336 0
M  V30 1454 H 130.353 0.471998 -3.91364 0
M  V30 1455 H 131.641 1.07071 -4.97406 0
M  V30 1456 H 131.039 4.07391 -3.92491 0
M  V30 1457 H 129.596 4.41913 -4.7912 0
M  V30 1458 N 133.029 1.57378 -0.0835403 0
M  V30 1459 C 134.259 1.97975 0.590713 0
M  V30 1460 C 134.667 0.961083 1.62972 0
M  V30 1461 O 134.01 -0.0590879 1.83605 0
M  V30 1462 C 134.072 3.34915 1.3066 0
M  V30 1463 C 133.736 4.55069 0.419698 0
M  V30 1464 C 134.733 5.18868 -0.32749 0
M  V30 1465 C 132.418 5.0114 0.341137 0
M  V30 1466 C 134.412 6.27098 -1.14134 0
M  V30 1467 C 132.099 6.0924 -0.476374 0
M  V30 1468 C 133.097 6.72083 -1.21627 0
M  V30 1469 O 132.785 7.781 -2.02028 0
M  V30 1470 H 132.517 0.655818 0.163947 0
M  V30 1471 H 135.071 2.04807 -0.156021 0
M  V30 1472 H 133.301 3.24733 2.09966 0
M  V30 1473 H 134.99 3.60037 1.87424 0
M  V30 1474 H 135.756 4.84211 -0.276459 0
M  V30 1475 H 131.635 4.51996 0.90668 0
M  V30 1476 H 135.179 6.7608 -1.71935 0
M  V30 1477 H 131.076 6.43329 -0.528927 0
M  V30 1478 H 131.844 7.95034 -1.94586 0
M  V30 1479 N 134.507 -0.190092 1.56449 0
M  V30 1480 C 135.753 -0.911052 1.81184 0
M  V30 1481 C 136.086 -1.82699 0.658396 0
M  V30 1482 O 135.361 -1.91491 -0.340775 0
M  V30 1483 C 135.644 -1.72297 3.16205 0
M  V30 1484 C 135.497 -0.831419 4.42049 0
M  V30 1485 C 136.816 -2.69454 3.47969 0
M  V30 1486 H 133.935 -0.32977 0.659106 0
M  V30 1487 H 136.577 -0.178169 1.89163 0
M  V30 1488 H 134.727 -2.34778 3.09534 0
M  V30 1489 H 136.399 -0.220929 4.60771 0
M  V30 1490 H 134.642 -0.138406 4.33579 0
M  V30 1491 H 135.313 -1.43461 5.33032 0
M  V30 1492 H 137.789 -2.17104 3.54972 0
M  V30 1493 H 136.665 -3.23342 4.43555 0
M  V30 1494 H 136.926 -3.48744 2.71717 0
M  V30 1495 N 135.985 -1.50799 -0.457987 0
M  V30 1496 C 137.262 -1.52968 -1.21902 0
M  V30 1497 C 137.642 -0.281906 -2.09209 0
M  V30 1498 O 136.99 0.734076 -2.16388 0
M  V30 1499 C 137.2 -2.8326 -2.03875 0
M  V30 1500 C 138.548 -3.34425 -2.6162 0
M  V30 1501 O 139.572 -2.8467 -2.14106 0
M  V30 1502 O 138.431 -4.21188 -3.48228 0
M  V30 1503 H 135.525 -0.614129 -0.553873 0
M  V30 1504 H 138.071 -1.63098 -0.468739 0
M  V30 1505 H 136.843 -3.65543 -1.39621 0
M  V30 1506 H 136.466 -2.76195 -2.8601 0
M  V30 1507 N 137.463 0.71206 -1.40597 0
M  V30 1508 C 138.711 1.46907 -1.38791 0
M  V30 1509 C 139.032 1.94998 0.00780391 0
M  V30 1510 O 138.302 1.70587 0.963174 0
M  V30 1511 H 136.882 0.545043 -0.51082 0
M  V30 1512 H 139.544 0.843882 -1.75683 0
M  V30 1513 H 138.64 2.34021 -2.06496 0
M  V30 1514 N 138.941 1.26152 0.944643 0
M  V30 1515 C 140.218 1.02247 1.66748 0
M  V30 1516 C 140.598 -0.448202 2.06287 0
M  V30 1517 O 139.946 -1.42779 1.78399 0
M  V30 1518 C 140.156 1.96788 2.88228 0
M  V30 1519 C 141.504 2.25201 3.59958 0
M  V30 1520 O 142.528 1.94626 2.98327 0
M  V30 1521 O 141.387 2.77242 4.70956 0
M  V30 1522 H 138.481 0.388517 0.730057 0
M  V30 1523 H 141.027 1.37348 0.99668 0
M  V30 1524 H 139.799 2.96047 2.55875 0
M  V30 1525 H 139.422 1.62145 3.63035 0
M  V30 1526 N 140.419 -1.14872 1.07899 0
M  V30 1527 C 141.351 -2.19425 0.662231 0
M  V30 1528 C 142.364 -1.60231 -0.288079 0
M  V30 1529 O 143.553 -1.78336 -0.076534 0
M  V30 1530 C 140.653 -3.38867 -0.0470695 0
M  V30 1531 C 139.826 -4.27597 0.920831 0
M  V30 1532 C 138.885 -5.25616 0.247805 0
M  V30 1533 O 137.911 -5.62189 0.890599 0
M  V30 1534 N 139.113 -5.71746 -1.00435 0
M  V30 1535 H 141.878 -2.55797 1.56166 0
M  V30 1536 H 139.439 -1.30042 0.964404 0
M  V30 1537 H 141.431 -4.01497 -0.50813 0
M  V30 1538 H 140.001 -3.00864 -0.848523 0
M  V30 1539 H 139.221 -3.61982 1.56087 0
M  V30 1540 H 140.509 -4.83748 1.57688 0
M  V30 1541 H 139.907 -5.44153 -1.54642 0
M  V30 1542 H 138.464 -6.36389 -1.40899 0
M  V30 1543 N 141.898 -0.863906 -1.31812 0
M  V30 1544 C 143.138 -0.47825 -1.98726 0
M  V30 1545 C 143.502 0.950397 -1.66828 0
M  V30 1546 O 144.703 1.44109 -2.26905 0
M  V30 1547 C 142.974 -0.721134 -3.50049 0
M  V30 1548 S 144.533 -0.434432 -4.36644 0
M  V30 1549 H 141.351 -0.178773 -0.688158 0
M  V30 1550 H 143.953 -1.11862 -1.60334 0
M  V30 1551 H 142.657 -1.75981 -3.70755 0
M  V30 1552 H 142.188 -0.0675315 -3.93342 0
M  V30 1553 H 144.203 0.735786 -4.90714 0
M  V30 1554 N 143.376 1.44774 -0.622745 0
M  V30 1555 C 144.286 2.34433 0.0886031 0
M  V30 1556 C 145.302 1.52131 0.844529 0
M  V30 1557 O 146.478 1.84886 0.798691 0
M  V30 1558 C 143.543 3.29986 1.0635 0
M  V30 1559 C 142.604 4.28195 0.307873 0
M  V30 1560 C 141.837 5.19183 1.23633 0
M  V30 1561 O 142.06 5.13918 2.47476 0
M  V30 1562 O 140.994 5.97515 0.725189 0
M  V30 1563 H 144.82 2.96693 -0.648599 0
M  V30 1564 H 142.405 1.44408 -0.382957 0
M  V30 1565 H 144.287 3.88825 1.6246 0
M  V30 1566 H 142.962 2.70269 1.78146 0
M  V30 1567 H 141.869 3.72927 -0.296064 0
M  V30 1568 H 143.202 4.90808 -0.3699 0
M  V30 1569 N 144.854 0.36279 1.53368 0
M  V30 1570 C 146.079 -0.231226 2.06107 0
M  V30 1571 C 146.504 -1.419 1.23474 0
M  V30 1572 O 145.862 -1.79524 0.253128 0
M  V30 1573 C 145.91 -0.605523 3.5548 0
M  V30 1574 O 145.014 -1.70312 3.7559 0
M  V30 1575 H 144.355 -0.034327 0.663112 0
M  V30 1576 H 146.885 0.522584 1.97814 0
M  V30 1577 H 146.895 -0.877314 3.98456 0
M  V30 1578 H 145.57 0.263004 4.15068 0
M  V30 1579 H 144.147 -1.4271 3.44512 0
M  V30 1580 N 146.332 -1.57332 0.0918853 0
M  V30 1581 C 147.28 -2.15075 -0.885747 0
M  V30 1582 C 148.274 -1.09277 -1.29441 0
M  V30 1583 O 149.48 -1.27627 -1.26931 0
M  V30 1584 H 145.855 -0.687966 -0.303656 0
M  V30 1585 H 147.826 -2.96047 -0.373995 0
M  V30 1586 C 146.575 -2.74325 -2.13638 0
M  V30 1587 H 145.898 -3.55418 -1.8308 0
M  V30 1588 H 147.338 -3.183 -2.80109 0
M  V30 1589 C 145.797 -1.70062 -2.90827 0
M  V30 1590 O 146.327 -1.13763 -3.85254 0
M  V30 1591 N 144.533 -1.40628 -2.54307 0
M  V30 1592 H 144.08 -1.866 -1.7759 0
M  V30 1593 H 144.038 -0.711043 -3.06254 0
M  V30 1594 N 147.81 0.181792 -1.56548 0
M  V30 1595 C 149.221 0.745244 -1.71181 0
M  V30 1596 C 149.572 1.83262 -0.70068 0
M  V30 1597 O 148.697 2.15946 0.140154 0
M  V30 1598 C 149.292 1.35859 -3.10367 0
M  V30 1599 C 147.851 1.86898 -3.2672 0
M  V30 1600 C 146.998 0.743942 -2.67134 0
M  V30 1601 H 149.949 -0.0434661 -1.5864 0
M  V30 1602 H 149.97 2.22817 -3.08436 0
M  V30 1603 H 149.482 0.566948 -3.83937 0
M  V30 1604 H 147.583 2.68738 -2.5809 0
M  V30 1605 H 147.696 2.02162 -4.34359 0
M  V30 1606 H 146.06 1.16169 -2.26665 0
M  V30 1607 H 146.843 -0.035676 -3.43281 0
M  V30 1608 N 149.288 1.51039 0.449983 0
M  V30 1609 C 150.528 1.64732 1.21007 0
M  V30 1610 C 150.892 0.349865 1.88785 0
M  V30 1611 O 152.093 0.362431 2.66345 0
M  V30 1612 C 150.364 2.80902 2.20973 0
M  V30 1613 S 151.923 3.14851 3.05638 0
M  V30 1614 H 148.741 0.5805 0.410538 0
M  V30 1615 H 151.343 1.88901 0.503634 0
M  V30 1616 H 150.047 3.73627 1.69796 0
M  V30 1617 H 149.578 2.58882 2.96215 0
M  V30 1618 H 151.593 2.60306 4.22439 0
M  V30 1619 N 150.766 -0.704594 1.40972 0
M  V30 1620 C 151.696 -1.83124 1.44872 0
M  V30 1621 C 152.677 -1.67281 0.30838 0
M  V30 1622 O 153.862 -1.87149 0.518556 0
M  V30 1623 C 150.992 -3.21181 1.32136 0
M  V30 1624 C 149.946 -3.51714 2.43888 0
M  V30 1625 C 149.272 -4.89032 2.16222 0
M  V30 1626 C 150.572 -3.516 3.86232 0
M  V30 1627 H 152.266 -1.80117 2.39161 0
M  V30 1628 H 149.812 -0.865145 1.15114 0
M  V30 1629 H 151.765 -3.99702 1.33479 0
M  V30 1630 H 150.489 -3.24791 0.343279 0
M  V30 1631 H 149.148 -2.75539 2.41813 0
M  V30 1632 H 148.796 -4.89256 1.16778 0
M  V30 1633 H 148.496 -5.10426 2.911 0
M  V30 1634 H 150.02 -5.69873 2.19265 0
M  V30 1635 H 151.434 -4.2014 3.9007 0
M  V30 1636 H 149.831 -3.84523 4.60719 0
M  V30 1637 H 150.901 -2.50757 4.15029 0
M  V30 1638 N 152.244 -1.26651 -0.937939 0
M  V30 1639 C 153.192 -1.08308 -2.05845 0
M  V30 1640 C 154.186 -0.0090757 -1.69398 0
M  V30 1641 O 155.392 -0.166007 -1.79233 0
M  V30 1642 H 151.767 -0.333416 -0.674046 0
M  V30 1643 H 153.738 -2.03261 -2.18467 0
M  V30 1644 C 152.487 -0.736229 -3.39816 0
M  V30 1645 H 151.81 -1.55453 -3.6834 0
M  V30 1646 H 153.25 -0.64769 -4.19024 0
M  V30 1647 C 151.709 0.558824 -3.32233 0
M  V30 1648 O 152.239 1.59621 -3.68624 0
M  V30 1649 N 150.445 0.550657 -2.85335 0
M  V30 1650 H 149.992 -0.293943 -2.55917 0
M  V30 1651 H 149.95 1.41726 -2.80644 0
M  V30 1652 N 153.722 1.14298 -1.08507 0
M  V30 1653 C 154.97 1.84993 -0.813763 0
M  V30 1654 C 155.291 1.83405 0.662393 0
M  V30 1655 O 154.561 1.28319 1.48024 0
M  V30 1656 H 153.141 0.684966 -0.298045 0
M  V30 1657 H 155.803 1.385 -1.37126 0
M  V30 1658 H 154.899 2.89788 -1.15884 0
M  V30 1659 N 155.201 0.870884 1.31352 0
M  V30 1660 C 156.449 0.48132 1.96285 0
M  V30 1661 C 156.77 -0.969813 1.69173 0
M  V30 1662 O 156.04 -1.67998 1.00764 0
M  V30 1663 H 154.62 0.175002 0.726212 0
M  V30 1664 H 157.282 1.11087 1.60143 0
M  V30 1665 H 156.378 0.639825 3.05471 0
M  V30 1666 N 156.679 -1.44442 0.630414 0
M  V30 1667 C 157.904 -2.06927 0.139944 0
M  V30 1668 C 158.329 -1.46795 -1.17613 0
M  V30 1669 O 157.687 -0.569144 -1.72135 0
M  V30 1670 C 157.735 -3.6058 0.0379581 0
M  V30 1671 O 156.839 -3.99937 -1.0062 0
M  V30 1672 H 156.18 -0.658608 0.0844483 0
M  V30 1673 H 158.71 -1.85327 0.866891 0
M  V30 1674 H 158.72 -4.07714 -0.152856 0
M  V30 1675 H 157.395 -4.03728 0.998809 0
M  V30 1676 H 155.972 -3.64436 -0.79001 0
M  V30 1677 N 158.157 -0.370918 -1.53173 0
M  V30 1678 C 159.397 0.217106 -2.03244 0
M  V30 1679 C 159.761 1.45558 -1.25207 0
M  V30 1680 O 160.962 2.11957 -1.65311 0
M  V30 1681 C 159.233 0.496664 -3.53932 0
M  V30 1682 S 160.792 1.0576 -4.25864 0
M  V30 1683 H 157.61 0.0627827 -0.708223 0
M  V30 1684 H 160.212 -0.515019 -1.88594 0
M  V30 1685 H 158.916 -0.412096 -4.08326 0
M  V30 1686 H 158.447 1.25772 -3.72753 0
M  V30 1687 H 160.462 2.34145 -4.37482 0
M  V30 1688 N 159.635 1.57281 -0.100228 0
M  V30 1689 C 160.582 2.14305 0.856858 0
M  V30 1690 C 161.552 1.06296 1.27634 0
M  V30 1691 O 162.737 1.34109 1.35718 0
M  V30 1692 C 159.877 2.73184 2.10866 0
M  V30 1693 C 158.99 3.95442 1.73925 0
M  V30 1694 C 158.125 4.42468 2.93931 0
M  V30 1695 C 157.164 5.57303 2.5314 0
M  V30 1696 N 156.301 5.99158 3.65997 0
M  V30 1697 H 161.141 2.95772 0.363726 0
M  V30 1698 H 158.678 1.46139 0.167858 0
M  V30 1699 H 160.636 3.05442 2.84185 0
M  V30 1700 H 159.266 1.94437 2.57671 0
M  V30 1701 H 158.318 3.69464 0.905554 0
M  V30 1702 H 159.63 4.78769 1.39935 0
M  V30 1703 H 158.784 4.76537 3.75496 0
M  V30 1704 H 157.523 3.58052 3.31134 0
M  V30 1705 H 156.528 5.22857 1.70003 0
M  V30 1706 H 157.753 6.43471 2.17075 0
M  V30 1707 H 155.699 5.17687 4.02909 0
M  V30 1708 H 155.616 6.77295 3.35869 0
M  V30 1709 H 156.884 6.3786 4.48057 0
M  V30 1710 N 161.113 -0.173488 1.56642 0
M  V30 1711 C 162.39 -0.917617 1.7274 0
M  V30 1712 C 162.77 -2.00484 0.661027 0
M  V30 1713 O 162.118 -2.26184 -0.32453 0
M  V30 1714 C 162.328 -1.48433 3.15862 0
M  V30 1715 C 163.676 -1.95809 3.76754 0
M  V30 1716 O 164.7 -1.58231 3.19126 0
M  V30 1717 O 163.559 -2.65024 4.77938 0
M  V30 1718 H 160.653 -0.431772 0.705338 0
M  V30 1719 H 163.199 -0.161487 1.6893 0
M  V30 1720 H 161.971 -0.701715 3.84957 0
M  V30 1721 H 161.594 -2.30471 3.23989 0
M  V30 1722 N 162.591 -1.51276 -0.441967 0
M  V30 1723 C 163.868 -1.54252 -1.20273 0
M  V30 1724 C 164.248 -0.30408 -2.08898 0
M  V30 1725 O 163.596 0.711084 -2.17154 0
M  V30 1726 C 163.806 -2.85406 -2.00859 0
M  V30 1727 C 165.154 -3.37181 -2.58059 0
M  V30 1728 O 166.178 -2.86925 -2.11074 0
M  V30 1729 O 165.037 -4.24858 -3.43741 0
M  V30 1730 H 162.131 -0.619969 -0.547328 0
M  V30 1731 H 164.677 -1.63586 -0.451413 0
M  V30 1732 H 163.449 -3.67003 -1.35736 0
M  V30 1733 H 163.072 -2.79213 -2.83065 0
M  V30 1734 N 164.069 0.697108 -1.41344 0
M  V30 1735 C 165.318 1.45279 -1.39918 0
M  V30 1736 C 165.631 1.95597 -0.0109624 0
M  V30 1737 O 166.837 2.71208 0.125919 0
M  V30 1738 C 165.293 2.62695 -2.46007 0
M  V30 1739 C 164.901 2.19169 -3.90729 0
M  V30 1740 C 166.645 3.40336 -2.53715 0
M  V30 1741 C 164.552 3.33535 -4.88373 0
M  V30 1742 H 163.482 0.545692 -0.520323 0
M  V30 1743 H 166.133 0.756929 -1.67161 0
M  V30 1744 H 164.515 3.34541 -2.11892 0
M  V30 1745 H 165.689 1.54623 -4.34083 0
M  V30 1746 H 164.004 1.54525 -3.86666 0
M  V30 1747 H 166.601 4.2547 -3.2385 0
M  V30 1748 H 166.944 3.85418 -1.5735 0
M  V30 1749 H 167.477 2.75546 -2.86913 0
M  V30 1750 H 164.216 2.93468 -5.86137 0
M  V30 1751 H 163.736 3.96936 -4.49668 0
M  V30 1752 H 165.415 3.99335 -5.09059 0
M  V30 1753 N 165.547 1.27147 0.931209 0
M  V30 1754 C 166.495 1.09398 2.05268 0
M  V30 1755 C 167.489 0.0180591 1.6939 0
M  V30 1756 O 168.695 0.17551 1.79142 0
M  V30 1757 H 165.07 0.336986 0.672268 0
M  V30 1758 H 167.041 2.04416 2.17386 0
M  V30 1759 C 165.79 0.75424 3.39421 0
M  V30 1760 H 165.113 1.57404 3.67511 0
M  V30 1761 H 166.553 0.669903 4.18674 0
M  V30 1762 C 165.012 -0.541197 3.32525 0
M  V30 1763 O 165.542 -1.57664 3.69466 0
M  V30 1764 N 163.748 -0.535517 2.85623 0
M  V30 1765 H 163.295 0.307511 2.55758 0
M  V30 1766 H 163.253 -1.40236 2.81392 0
M  V30 1767 N 167.025 -1.13721 1.09112 0
M  V30 1768 C 168.25 -1.89314 0.847053 0
M  V30 1769 C 168.675 -1.78416 -0.595774 0
M  V30 1770 O 168.033 -1.12942 -1.41823 0
M  V30 1771 C 168.081 -3.3701 1.28284 0
M  V30 1772 O 167.185 -4.10054 0.439267 0
M  V30 1773 H 166.526 -0.588745 0.307044 0
M  V30 1774 H 169.056 -1.43902 1.45442 0
M  V30 1775 H 169.066 -3.87834 1.26683 0
M  V30 1776 H 167.741 -3.4426 2.33363 0
M  V30 1777 H 166.318 -3.69266 0.519312 0
M  V30 1778 N 168.503 -0.877838 -1.30888 0
M  V30 1779 C 169.733 -0.506678 -2.00291 0
M  V30 1780 C 170.141 0.907449 -1.66018 0
M  V30 1781 O 169.484 1.60719 -0.88967 0
M  V30 1782 C 169.546 -0.59323 -3.54572 0
M  V30 1783 C 169.21 -1.97038 -4.12341 0
M  V30 1784 C 170.207 -2.93889 -4.28865 0
M  V30 1785 C 167.892 -2.27383 -4.47886 0
M  V30 1786 C 169.886 -4.19224 -4.80136 0
M  V30 1787 C 167.573 -3.52965 -4.98857 0
M  V30 1788 C 168.571 -4.48701 -5.14934 0
M  V30 1789 O 168.259 -5.72056 -5.64808 0
M  V30 1790 H 167.991 -0.1951 -0.647234 0
M  V30 1791 H 170.545 -1.18301 -1.6791 0
M  V30 1792 H 168.775 0.140057 -3.86446 0
M  V30 1793 H 170.464 -0.234372 -4.05223 0
M  V30 1794 H 171.23 -2.71756 -4.01714 0
M  V30 1795 H 167.109 -1.53639 -4.34645 0
M  V30 1796 H 170.653 -4.93956 -4.92599 0
M  V30 1797 H 166.55 -3.74939 -5.25443 0
M  V30 1798 H 167.318 -5.74337 -5.83163 0
M  V30 1799 N 169.982 1.44106 -0.638065 0
M  V30 1800 C 170.892 2.34513 0.0637334 0
M  V30 1801 C 171.908 1.53018 0.828346 0
M  V30 1802 O 173.084 1.85723 0.779036 0
M  V30 1803 C 170.149 3.31095 1.02844 0
M  V30 1804 C 169.21 4.28497 0.26244 0
M  V30 1805 C 168.443 5.20465 1.1812 0
M  V30 1806 O 168.666 5.16514 2.42011 0
M  V30 1807 O 167.6 5.98251 0.661774 0
M  V30 1808 H 171.426 2.95989 -0.68003 0
M  V30 1809 H 169.011 1.43994 -0.398252 0
M  V30 1810 H 170.893 3.90526 1.58327 0
M  V30 1811 H 169.568 2.72144 1.7527 0
M  V30 1812 H 168.475 3.72592 -0.335602 0
M  V30 1813 H 169.808 4.90388 -0.421936 0
M  V30 1814 N 171.46 0.379036 1.52974 0
M  V30 1815 C 172.7 -0.206325 2.03356 0
M  V30 1816 C 173.064 -1.44892 1.25977 0
M  V30 1817 O 174.265 -2.11078 1.66432 0
M  V30 1818 C 172.536 -0.477887 3.54191 0
M  V30 1819 S 174.095 -1.035 4.26419 0
M  V30 1820 H 170.913 -0.0590259 0.708546 0
M  V30 1821 H 173.515 0.525013 1.88319 0
M  V30 1822 H 172.219 0.433745 4.08101 0
M  V30 1823 H 171.75 -1.23793 3.73415 0
M  V30 1824 H 173.765 -2.31821 4.38718 0
M  V30 1825 N 172.938 -1.57226 0.108567 0
M  V30 1826 C 174.184 -1.95919 -0.546564 0
M  V30 1827 C 174.539 -0.990417 -1.6495 0
M  V30 1828 O 173.832 -0.0186593 -1.91591 0
M  V30 1829 C 174.026 -3.38911 -1.13463 0
M  V30 1830 C 173.855 -4.4961 -0.0901926 0
M  V30 1831 C 172.625 -5.04168 0.338008 0
M  V30 1832 C 174.823 -5.09693 0.686808 0
M  V30 1833 N 172.805 -5.98434 1.36931 0
M  V30 1834 C 174.176 -5.99804 1.56958 0
M  V30 1835 C 176.231 -4.92388 0.738846 0
M  V30 1836 C 174.934 -6.74463 2.49983 0
M  V30 1837 C 176.96 -5.67719 1.65676 0
M  V30 1838 C 176.322 -6.57507 2.52713 0
M  V30 1839 H 172.421 -0.763312 -0.169936 0
M  V30 1840 H 175.005 -1.93728 0.194264 0
M  V30 1841 H 173.176 -3.41769 -1.84522 0
M  V30 1842 H 174.908 -3.64752 -1.75322 0
M  V30 1843 H 171.663 -4.73571 -0.0523673 0
M  V30 1844 H 172.087 -6.5027 1.88356 0
M  V30 1845 H 176.729 -4.22724 0.080084 0
M  V30 1846 H 174.447 -7.4338 3.16878 0
M  V30 1847 H 178.033 -5.56338 1.70233 0
M  V30 1848 H 176.913 -7.14778 3.22586 0
M  V30 1849 N 174.416 0.165178 -1.56732 0
M  V30 1850 C 175.656 0.887231 -1.8414 0
M  V30 1851 C 176.02 1.79159 -0.690353 0
M  V30 1852 O 177.221 2.55172 -0.845032 0
M  V30 1853 C 175.492 1.65674 -3.16681 0
M  V30 1854 S 177.051 2.42671 -3.6559 0
M  V30 1855 H 173.869 0.297042 -0.645978 0
M  V30 1856 H 176.471 0.148439 -1.94936 0
M  V30 1857 H 175.175 0.983507 -3.98441 0
M  V30 1858 H 174.706 2.43679 -3.08843 0
M  V30 1859 H 176.721 3.67499 -3.33406 0
M  V30 1860 N 175.894 1.51508 0.433938 0
M  V30 1861 C 177.305 1.56784 1.01369 0
M  V30 1862 C 177.656 0.393349 1.92217 0
M  V30 1863 O 176.781 -0.489441 2.10792 0
M  V30 1864 C 177.376 2.84144 1.8452 0
M  V30 1865 C 175.935 2.9198 2.37539 0
M  V30 1866 C 175.082 2.51482 1.16843 0
M  V30 1867 H 178.033 1.57236 0.215081 0
M  V30 1868 H 178.054 2.68098 2.70007 0
M  V30 1869 H 177.566 3.69607 1.18373 0
M  V30 1870 H 175.667 2.10955 3.0713 0
M  V30 1871 H 175.78 3.95704 2.70103 0
M  V30 1872 H 174.144 2.04758 1.51481 0
M  V30 1873 H 174.927 3.39293 0.523015 0
M  V30 1874 N 177.372 -0.689602 1.41712 0
M  V30 1875 C 178.619 -1.44966 1.4139 0
M  V30 1876 C 178.947 -1.94484 0.025105 0
M  V30 1877 O 178.202 -1.70307 -0.964048 0
M  V30 1878 C 178.501 -2.67298 2.37247 0
M  V30 1879 C 178.167 -2.36405 3.83958 0
M  V30 1880 C 176.829 -2.27691 4.23923 0
M  V30 1881 C 179.181 -2.11043 4.76561 0
M  V30 1882 C 176.509 -1.91719 5.54492 0
M  V30 1883 C 178.861 -1.76578 6.07456 0
M  V30 1884 C 177.525 -1.66363 6.46436 0
M  V30 1885 H 176.795 -0.53047 0.517381 0
M  V30 1886 H 179.442 -0.787655 1.74552 0
M  V30 1887 H 177.747 -3.38461 1.9736 0
M  V30 1888 H 179.444 -3.25452 2.34269 0
M  V30 1889 H 176.034 -2.44085 3.52308 0
M  V30 1890 H 180.218 -2.16717 4.46483 0
M  V30 1891 H 175.474 -1.82367 5.83568 0
M  V30 1892 H 179.648 -1.55974 6.78708 0
M  V30 1893 H 177.275 -1.38258 7.47522 0
M  V30 1894 N 178.85 -1.27639 -0.924453 0
M  V30 1895 C 180.098 -1.13941 -1.66918 0
M  V30 1896 C 180.419 0.314589 -1.92446 0
M  V30 1897 O 179.689 1.21964 -1.53303 0
M  V30 1898 H 178.269 -0.418678 -0.618642 0
M  V30 1899 H 180.931 -1.60213 -1.10985 0
M  V30 1900 H 180.027 -1.67094 -2.63602 0
M  V30 1901 N 180.328 1.1314 -1.09713 0
M  V30 1902 C 181.575 1.84484 -0.834987 0
M  V30 1903 C 181.903 1.83689 0.639418 0
M  V30 1904 O 181.158 1.2724 1.4869 0
M  V30 1905 C 181.457 3.32167 -1.3191 0
M  V30 1906 C 181.123 3.53139 -2.80363 0
M  V30 1907 C 179.785 3.58571 -3.20905 0
M  V30 1908 C 182.137 3.60866 -3.76065 0
M  V30 1909 C 179.465 3.69267 -4.55916 0
M  V30 1910 C 181.817 3.73089 -5.10869 0
M  V30 1911 C 180.481 3.76775 -5.50996 0
M  V30 1912 H 179.751 0.675073 -0.305544 0
M  V30 1913 H 182.398 1.33554 -1.37243 0
M  V30 1914 H 180.703 3.85469 -0.701517 0
M  V30 1915 H 182.4 3.85821 -1.09284 0
M  V30 1916 H 178.99 3.49569 -2.47991 0
M  V30 1917 H 183.174 3.55946 -3.45855 0
M  V30 1918 H 178.43 3.70388 -4.86438 0
M  V30 1919 H 182.604 3.78011 -5.84877 0
M  V30 1920 H 180.231 3.84815 -6.55608 0
M  V30 1921 N 181.806 0.884767 1.30421 0
M  V30 1922 C 182.716 0.355398 2.31892 0
M  V30 1923 C 183.732 -0.542261 1.65335 0
M  V30 1924 O 184.908 -0.435432 1.96637 0
M  V30 1925 C 181.973 -0.421661 3.44126 0
M  V30 1926 C 181.034 0.505727 4.26311 0
M  V30 1927 C 180.267 -0.234343 5.33185 0
M  V30 1928 O 180.49 -1.46045 5.51386 0
M  V30 1929 O 179.424 0.415443 6.00465 0
M  V30 1930 H 183.25 1.19685 2.79122 0
M  V30 1931 H 180.835 0.648596 1.34587 0
M  V30 1932 H 182.717 -0.861641 4.12497 0
M  V30 1933 H 181.392 -1.23942 2.99032 0
M  V30 1934 H 180.299 0.994513 3.60639 0
M  V30 1935 H 181.632 1.28948 4.75009 0
M  V30 1936 N 183.284 -1.43765 0.645699 0
M  V30 1937 C 184.532 -2.01499 0.155731 0
M  V30 1938 C 184.853 -1.51151 -1.232 0
M  V30 1939 O 184.123 -0.721044 -1.82148 0
M  V30 1940 H 182.703 -0.745003 0.0545817 0
M  V30 1941 H 185.365 -1.76075 0.835677 0
M  V30 1942 H 184.461 -3.1181 0.134577 0
M  V30 1943 N 184.763 -0.387143 -1.52771 0
M  V30 1944 C 185.71 0.449048 -2.26389 0
M  V30 1945 C 186.68 1.05961 -1.27912 0
M  V30 1946 O 187.865 1.08804 -1.56737 0
M  V30 1947 C 185.005 1.57155 -3.0724 0
M  V30 1948 C 184.118 0.984066 -4.20643 0
M  V30 1949 C 183.253 2.07745 -4.88892 0
M  V30 1950 C 182.292 1.46574 -5.94292 0
M  V30 1951 N 181.429 2.49834 -6.56146 0
M  V30 1952 H 186.269 -0.185205 -2.97424 0
M  V30 1953 H 183.806 -0.103164 -1.46738 0
M  V30 1954 H 185.764 2.23309 -3.52405 0
M  V30 1955 H 184.394 2.17615 -2.38419 0
M  V30 1956 H 183.446 0.212193 -3.79808 0
M  V30 1957 H 184.758 0.497029 -4.96318 0
M  V30 1958 H 183.912 2.81673 -5.3735 0
M  V30 1959 H 182.651 2.59807 -4.12737 0
M  V30 1960 H 181.656 0.711696 -5.45174 0
M  V30 1961 H 182.881 0.953088 -6.72379 0
M  V30 1962 H 180.827 3.0107 -5.82832 0
M  V30 1963 H 180.744 2.05879 -7.27427 0
M  V30 1964 H 182.012 3.23399 -7.09249 0
M  V30 1965 N 186.241 1.57166 -0.116904 0
M  V30 1966 C 187.189 2.16457 0.851418 0
M  V30 1967 C 188.183 1.11323 1.27686 0
M  V30 1968 O 189.389 1.2963 1.24884 0
M  V30 1969 H 185.764 0.69271 0.292672 0
M  V30 1970 H 187.735 2.96605 0.32685 0
M  V30 1971 C 186.484 2.77689 2.09246 0
M  V30 1972 H 185.807 3.58285 1.77402 0
M  V30 1973 H 187.247 3.22716 2.7501 0
M  V30 1974 C 185.706 1.74667 2.88085 0
M  V30 1975 O 186.236 1.19877 3.83396 0
M  V30 1976 N 184.442 1.44656 2.52038 0
M  V30 1977 H 183.989 1.89402 1.74599 0
M  V30 1978 H 183.947 0.759675 3.05084 0
M  V30 1979 N 187.719 -0.156864 1.56817 0
M  V30 1980 C 188.959 -0.877453 1.84608 0
M  V30 1981 C 189.323 -1.78791 0.699845 0
M  V30 1982 O 190.524 -2.5472 0.858553 0
M  V30 1983 C 188.795 -1.63992 3.17555 0
M  V30 1984 S 190.354 -2.40729 3.66872 0
M  V30 1985 H 187.172 -0.293612 0.647544 0
M  V30 1986 H 189.774 -0.138099 1.95012 0
M  V30 1987 H 188.478 -0.962363 3.98957 0
M  V30 1988 H 188.009 -2.42038 3.10131 0
M  V30 1989 H 190.024 -3.65725 3.3535 0
M  V30 1990 N 189.197 -1.51736 -0.425897 0
M  V30 1991 C 190.107 -1.76738 -1.54275 0
M  V30 1992 C 191.123 -0.65211 -1.61318 0
M  V30 1993 O 192.299 -0.935654 -1.78346 0
M  V30 1994 C 189.364 -1.89755 -2.90162 0
M  V30 1995 C 188.425 -3.13633 -2.93143 0
M  V30 1996 C 187.658 -3.2602 -4.22548 0
M  V30 1997 O 187.881 -2.44067 -5.15546 0
M  V30 1998 O 186.815 -4.19071 -4.32046 0
M  V30 1999 H 190.641 -2.71502 -1.36089 0
M  V30 2000 H 188.226 -1.36376 -0.610069 0
M  V30 2001 H 190.108 -2.00236 -3.70788 0
M  V30 2002 H 188.783 -0.981785 -3.08452 0
M  V30 2003 H 187.69 -3.08622 -2.11431 0
M  V30 2004 H 189.023 -4.04936 -2.798 0
M  V30 2005 N 190.675 0.682077 -1.42076 0
M  V30 2006 C 191.605 1.80796 -1.47767 0
M  V30 2007 C 192.586 1.6677 -0.334954 0
M  V30 2008 O 193.771 1.863 -0.548264 0
M  V30 2009 C 190.901 3.19038 -1.37229 0
M  V30 2010 C 189.855 3.47789 -2.49453 0
M  V30 2011 C 189.181 4.8553 -2.23975 0
M  V30 2012 C 190.481 3.45411 -3.91776 0
M  V30 2013 H 192.175 1.7629 -2.41997 0
M  V30 2014 H 189.721 0.846721 -1.16476 0
M  V30 2015 H 191.674 3.97528 -1.39821 0
M  V30 2016 H 190.398 3.24204 -0.394907 0
M  V30 2017 H 189.057 2.71657 -2.46166 0
M  V30 2018 H 188.705 4.87337 -1.24547 0
M  V30 2019 H 188.405 5.0573 -2.99184 0
M  V30 2020 H 189.929 5.66312 -2.28304 0
M  V30 2021 H 191.343 4.13882 -3.96705 0
M  V30 2022 H 189.74 3.77145 -4.66778 0
M  V30 2023 H 190.81 2.44122 -4.18966 0
M  V30 2024 N 192.153 1.28127 0.917671 0
M  V30 2025 C 193.43 1.05761 1.64542 0
M  V30 2026 C 193.81 -0.404344 2.07191 0
M  V30 2027 O 193.158 -1.38963 1.81388 0
M  V30 2028 C 193.368 2.02857 2.83989 0
M  V30 2029 C 194.716 2.32786 3.551 0
M  V30 2030 O 195.74 2.0091 2.94132 0
M  V30 2031 O 194.599 2.87169 4.64969 0
M  V30 2032 H 191.693 0.403916 0.721652 0
M  V30 2033 H 194.239 1.39431 0.967322 0
M  V30 2034 H 193.011 3.01407 2.49538 0
M  V30 2035 H 192.634 1.69809 3.59514 0
M  V30 2036 N 193.631 -1.12557 1.10312 0
M  V30 2037 C 194.877 -1.84311 0.846011 0
M  V30 2038 C 195.21 -1.83805 -0.626859 0
M  V30 2039 O 194.485 -1.28268 -1.46211 0
M  V30 2040 C 194.768 -3.32048 1.39341 0
M  V30 2041 C 194.621 -3.41016 2.93305 0
M  V30 2042 C 195.94 -4.27764 1.03468 0
M  V30 2043 H 193.059 -0.669192 0.30879 0
M  V30 2044 H 195.701 -1.32057 1.36605 0
M  V30 2045 H 193.851 -3.76678 0.951087 0
M  V30 2046 H 195.523 -3.05031 3.46055 0
M  V30 2047 H 193.766 -2.81603 3.29973 0
M  V30 2048 H 194.437 -4.44948 3.26689 0
M  V30 2049 H 196.913 -3.91253 1.41633 0
M  V30 2050 H 195.789 -5.29549 1.44463 0
M  V30 2051 H 196.05 -4.42064 -0.0560404 0
M  V30 2052 N 195.109 -0.891671 -1.2995 0
M  V30 2053 C 196.337 -0.52866 -2.00032 0
M  V30 2054 C 196.752 0.884574 -1.66795 0
M  V30 2055 O 196.109 1.5827 -0.908669 0
M  V30 2056 C 196.16 -0.701814 -3.54622 0
M  V30 2057 O 195.881 -2.05942 -3.86678 0
M  V30 2058 C 197.382 -0.342683 -4.41973 0
M  V30 2059 H 194.602 -0.203659 -0.639347 0
M  V30 2060 H 197.146 -1.19881 -1.65677 0
M  V30 2061 H 195.301 -0.0789468 -3.8732 0
M  V30 2062 H 195.715 -2.08291 -4.81368 0
M  V30 2063 H 197.189 -0.514709 -5.49595 0
M  V30 2064 H 197.666 0.71975 -4.33262 0
M  V30 2065 H 198.272 -0.942154 -4.14733 0
M  V30 2066 N 196.587 1.43421 -0.653314 0
M  V30 2067 C 197.827 2.03689 -0.170346 0
M  V30 2068 C 198.191 1.50427 1.19314 0
M  V30 2069 O 199.392 2.0234 1.76952 0
M  V30 2070 C 197.663 3.56946 -0.180183 0
M  V30 2071 S 199.222 4.38171 0.234925 0
M  V30 2072 H 196.04 0.707345 -0.0719976 0
M  V30 2073 H 198.642 1.75486 -0.86167 0
M  V30 2074 H 197.346 3.93212 -1.17526 0
M  V30 2075 H 196.877 3.89791 0.531675 0
M  V30 2076 H 198.892 4.73808 1.47378 0
M  V30 2077 N 198.065 0.39524 1.52563 0
M  V30 2078 C 199.013 -0.451859 2.28169 0
M  V30 2079 C 200.007 -1.05792 1.32304 0
M  V30 2080 O 201.213 -0.997718 1.49818 0
M  V30 2081 H 197.588 -0.164481 0.733792 0
M  V30 2082 H 199.559 0.207199 2.9768 0
M  V30 2083 C 198.308 -1.56385 3.10546 0
M  V30 2084 H 197.631 -1.10682 3.84174 0
M  V30 2085 H 199.071 -2.13067 3.66577 0
M  V30 2086 C 197.53 -2.52328 2.23231 0
M  V30 2087 O 198.06 -3.5588 1.86312 0
M  V30 2088 N 196.266 -2.22209 1.87274 0
M  V30 2089 H 195.813 -1.38033 2.17496 0
M  V30 2090 H 195.771 -2.86652 1.29143 0
M  V30 2091 N 199.544 -1.57102 0.125237 0
M  V30 2092 C 200.793 -1.94582 -0.531095 0
M  V30 2093 C 201.106 -1.01126 -1.6743 0
M  V30 2094 O 202.312 -1.28097 -2.39381 0
M  V30 2095 C 200.768 -3.45839 -0.996164 0
M  V30 2096 C 200.376 -4.47842 0.118926 0
M  V30 2097 C 202.12 -3.92227 -1.62352 0
M  V30 2098 C 200.027 -5.90284 -0.363192 0
M  V30 2099 H 198.957 -0.726391 -0.20217 0
M  V30 2100 H 201.608 -1.82339 0.206092 0
M  V30 2101 H 199.99 -3.53338 -1.78796 0
M  V30 2102 H 201.164 -4.52018 0.895358 0
M  V30 2103 H 199.479 -4.11243 0.653324 0
M  V30 2104 H 202.076 -4.96069 -1.99548 0
M  V30 2105 H 202.419 -3.32552 -2.50429 0
M  V30 2106 H 202.952 -3.87554 -0.897019 0
M  V30 2107 H 199.691 -6.53728 0.481679 0
M  V30 2108 H 199.211 -5.89515 -1.10597 0
M  V30 2109 H 200.89 -6.41752 -0.822377 0
M  V30 2110 N 201.022 0.148545 -1.56898 0
M  V30 2111 C 201.969 1.18345 -1.98149 0
M  V30 2112 C 202.939 1.42772 -0.848848 0
M  V30 2113 O 204.124 1.55132 -1.11079 0
M  V30 2114 C 201.264 2.51231 -2.36594 0
M  V30 2115 C 200.377 2.33991 -3.63142 0
M  V30 2116 C 199.512 3.59902 -3.90697 0
M  V30 2117 C 198.551 3.37692 -5.1052 0
M  V30 2118 N 197.688 4.5573 -5.34092 0
M  V30 2119 H 202.528 0.82467 -2.86362 0
M  V30 2120 H 200.065 0.395756 -1.41676 0
M  V30 2121 H 202.023 3.28713 -2.56912 0
M  V30 2122 H 200.653 2.85059 -1.51463 0
M  V30 2123 H 199.705 1.47572 -3.50609 0
M  V30 2124 H 201.017 2.13539 -4.5078 0
M  V30 2125 H 200.171 4.45813 -4.11505 0
M  V30 2126 H 198.91 3.83357 -3.01477 0
M  V30 2127 H 197.915 2.5017 -4.89587 0
M  V30 2128 H 199.14 3.15637 -6.0129 0
M  V30 2129 H 197.086 4.79361 -4.47827 0
M  V30 2130 H 197.003 4.38274 -6.15996 0
M  V30 2131 H 198.271 5.42858 -5.59397 0
M  V30 2132 N 202.5 1.5196 0.417844 0
M  V30 2133 C 203.448 1.75278 1.52907 0
M  V30 2134 C 204.442 0.619611 1.57662 0
M  V30 2135 O 205.648 0.801457 1.61173 0
M  V30 2136 H 202.023 0.554141 0.508362 0
M  V30 2137 H 203.994 2.68389 1.30422 0
M  V30 2138 C 202.743 1.91262 2.90369 0
M  V30 2139 H 202.066 2.77872 2.8745 0
M  V30 2140 H 203.506 2.11581 3.67436 0
M  V30 2141 C 201.965 0.677431 3.30019 0
M  V30 2142 O 202.495 -0.158799 4.01386 0
M  V30 2143 N 200.701 0.515851 2.85985 0
M  V30 2144 H 200.248 1.19744 2.28077 0
M  V30 2145 H 200.206 -0.309315 3.12875 0
M  V30 2146 N 203.978 -0.674533 1.42435 0
M  V30 2147 C 205.226 -1.43175 1.42637 0
M  V30 2148 C 205.547 -1.94951 0.0438992 0
M  V30 2149 O 204.817 -1.7308 -0.917607 0
M  V30 2150 H 203.397 -0.531307 0.525092 0
M  V30 2151 H 206.059 -0.797006 1.77859 0
M  V30 2152 H 205.155 -2.28463 2.12629 0
M  V30 2153 N 205.456 -1.28612 -0.910864 0
M  V30 2154 C 206.872 -1.06381 -1.18976 0
M  V30 2155 C 207.072 0.191998 -2.00583 0
M  V30 2156 O 206.128 0.892869 -2.36187 0
M  V30 2157 C 207.441 -2.31295 -1.92154 0
M  V30 2158 C 208.989 -2.36503 -2.05025 0
M  V30 2159 C 209.464 -3.61191 -2.81612 0
M  V30 2160 N 210.955 -3.61847 -2.89172 0
M  V30 2161 C 211.69 -4.55004 -3.4894 0
M  V30 2162 N 211.186 -5.58482 -4.09963 0
M  V30 2163 N 212.979 -4.42594 -3.46506 0
M  V30 2164 H 205.13 -2.09221 -0.366094 0
M  V30 2165 H 207.393 -0.921003 -0.224629 0
M  V30 2166 H 207.099 -3.228 -1.39618 0
M  V30 2167 H 206.973 -2.37934 -2.9269 0
M  V30 2168 H 209.36 -1.45494 -2.5674 0
M  V30 2169 H 209.441 -2.33857 -1.03657 0
M  V30 2170 H 209.085 -4.52545 -2.30576 0
M  V30 2171 H 209.015 -3.61092 -3.83302 0
M  V30 2172 H 211.506 -2.87022 -2.45819 0
M  V30 2173 H 211.819 -6.25704 -4.53557 0
M  V30 2174 H 210.164 -5.62305 -4.08459 0
M  V30 2175 H 213.355 -3.60953 -2.98045 0
M  V30 2176 H 213.528 -5.15381 -3.92793 0
M  V30 2177 N 206.934 1.1197 -1.10907 0
M  V30 2178 C 208.174 1.85224 -0.864378 0
M  V30 2179 C 208.538 1.82411 0.599178 0
M  V30 2180 O 209.739 2.51057 0.960416 0
M  V30 2181 C 208.01 3.2868 -1.40371 0
M  V30 2182 S 209.569 4.1925 -1.29518 0
M  V30 2183 H 206.387 0.63878 -0.312219 0
M  V30 2184 H 208.989 1.3485 -1.41548 0
M  V30 2185 H 207.693 3.28289 -2.46281 0
M  V30 2186 H 207.224 3.84121 -0.849402 0
M  V30 2187 H 209.239 4.95539 -0.256059 0
M  V30 2188 N 208.412 0.89855 1.29475 0
M  V30 2189 C 209.322 0.379974 2.31502 0
M  V30 2190 C 210.338 -0.524695 1.659 0
M  V30 2191 O 211.514 -0.414551 1.97087 0
M  V30 2192 C 208.579 -0.385138 3.44554 0
M  V30 2193 C 207.64 0.550914 4.2575 0
M  V30 2194 C 206.873 -0.177778 5.33404 0
M  V30 2195 O 207.096 -1.40189 5.52904 0
M  V30 2196 O 206.03 0.479106 5.9999 0
M  V30 2197 H 209.856 1.22639 2.77837 0
M  V30 2198 H 207.441 0.662834 1.33891 0
M  V30 2199 H 209.323 -0.817841 4.13388 0
M  V30 2200 H 207.998 -1.20763 3.0033 0
M  V30 2201 H 206.905 1.03271 3.59564 0
M  V30 2202 H 208.238 1.33979 4.73614 0
M  V30 2203 N 209.89 -1.43072 0.660911 0
M  V30 2204 C 210.822 -2.29108 -0.0647641 0
M  V30 2205 C 211.835 -1.42928 -0.779448 0
M  V30 2206 O 213.024 -1.66788 -0.635921 0
M  V30 2207 C 210.124 -3.20032 -1.11503 0
M  V30 2208 C 209.297 -4.34792 -0.476955 0
M  V30 2209 C 208.356 -5.06534 -1.42513 0
M  V30 2210 O 207.382 -5.61538 -0.930771 0
M  V30 2211 N 208.584 -5.1075 -2.75889 0
M  V30 2212 H 211.349 -2.92029 0.673731 0
M  V30 2213 H 208.91 -1.53846 0.50427 0
M  V30 2214 H 210.902 -3.64892 -1.75032 0
M  V30 2215 H 209.472 -2.58658 -1.75541 0
M  V30 2216 H 208.692 -3.92752 0.337572 0
M  V30 2217 H 209.98 -5.0879 -0.0318525 0
M  V30 2218 H 209.378 -4.67447 -3.18606 0
M  V30 2219 H 207.935 -5.59302 -3.347 0
M  V30 2220 N 211.368 -0.403325 -1.52352 0
M  V30 2221 C 212.615 0.174347 -2.01748 0
M  V30 2222 C 212.943 1.45636 -1.2892 0
M  V30 2223 O 212.198 1.9193 -0.382258 0
M  V30 2224 C 212.497 0.474665 -3.54234 0
M  V30 2225 C 212.163 -0.717458 -4.45155 0
M  V30 2226 C 210.825 -1.04447 -4.69728 0
M  V30 2227 C 213.177 -1.51432 -4.98716 0
M  V30 2228 C 210.505 -2.16963 -5.45109 0
M  V30 2229 C 212.857 -2.6302 -5.75329 0
M  V30 2230 C 211.521 -2.96213 -5.98175 0
M  V30 2231 H 210.791 0.0637981 -0.738248 0
M  V30 2232 H 213.438 -0.543553 -1.83624 0
M  V30 2233 H 211.743 1.27406 -3.70506 0
M  V30 2234 H 213.44 0.934496 -3.89959 0
M  V30 2235 H 210.03 -0.452596 -4.26204 0
M  V30 2236 H 214.214 -1.27491 -4.79645 0
M  V30 2237 H 209.47 -2.43034 -5.61021 0
M  V30 2238 H 213.644 -3.25158 -6.15829 0
M  V30 2239 H 211.271 -3.83516 -6.56368 0
M  V30 2240 N 212.846 1.57033 -0.133567 0
M  V30 2241 C 214.086 1.97575 0.523789 0
M  V30 2242 C 214.45 1.01605 1.62912 0
M  V30 2243 O 215.651 1.3114 2.3464 0
M  V30 2244 C 213.922 3.42256 1.02935 0
M  V30 2245 S 215.481 4.04817 1.69319 0
M  V30 2246 H 212.299 0.690427 0.169799 0
M  V30 2247 H 214.901 1.94234 -0.222101 0
M  V30 2248 H 213.605 4.09842 0.213917 0
M  V30 2249 H 213.136 3.4928 1.81017 0
M  V30 2250 H 215.151 3.96767 2.97977 0
M  V30 2251 N 214.325 -0.140222 1.56975 0
M  V30 2252 C 215.272 -1.17292 1.98774 0
M  V30 2253 C 216.242 -1.4232 0.856408 0
M  V30 2254 O 217.427 -1.54541 1.119 0
M  V30 2255 C 214.567 -2.49973 2.37923 0
M  V30 2256 C 213.68 -2.32062 3.64378 0
M  V30 2257 C 212.815 -3.57825 3.926 0
M  V30 2258 C 211.854 -3.3498 5.12303 0
M  V30 2259 N 210.991 -4.52891 5.36502 0
M  V30 2260 H 215.831 -0.809472 2.86795 0
M  V30 2261 H 213.368 -0.388237 1.41884 0
M  V30 2262 H 215.326 -3.27346 2.58652 0
M  V30 2263 H 213.956 -2.84252 1.52972 0
M  V30 2264 H 213.008 -1.45711 3.51387 0
M  V30 2265 H 214.32 -2.11145 4.51906 0
M  V30 2266 H 213.474 -4.43624 4.13863 0
M  V30 2267 H 212.213 -3.81753 3.03506 0
M  V30 2268 H 211.218 -2.4757 4.90906 0
M  V30 2269 H 212.443 -3.12444 6.02956 0
M  V30 2270 H 210.389 -4.76979 4.50363 0
M  V30 2271 H 210.306 -4.35001 6.18312 0
M  V30 2272 H 211.574 -5.39884 5.62268 0
M  V30 2273 N 215.803 -1.52179 -0.40978 0
M  V30 2274 C 216.751 -1.76086 -1.51975 0
M  V30 2275 C 217.745 -0.627964 -1.57331 0
M  V30 2276 O 218.951 -0.809993 -1.60745 0
M  V30 2277 H 215.326 -0.556829 -0.505416 0
M  V30 2278 H 217.297 -2.69077 -1.28996 0
M  V30 2279 C 216.046 -1.92799 -2.8935 0
M  V30 2280 H 215.369 -2.79392 -2.85972 0
M  V30 2281 H 216.809 -2.13527 -3.66309 0
M  V30 2282 C 215.268 -0.694923 -3.29655 0
M  V30 2283 O 215.798 0.13751 -4.01465 0
M  V30 2284 N 214.004 -0.53101 -2.85707 0
M  V30 2285 H 213.551 -1.20952 -2.27439 0
M  V30 2286 H 213.509 0.292718 -3.13034 0
M  V30 2287 N 217.281 0.66697 -1.42791 0
M  V30 2288 C 218.506 1.46004 -1.47301 0
M  V30 2289 C 218.931 1.87894 -0.0880317 0
M  V30 2290 O 218.289 1.56502 0.915253 0
M  V30 2291 C 218.337 2.68031 -2.41229 0
M  V30 2292 O 217.441 3.6659 -1.88906 0
M  V30 2293 H 216.782 0.43832 -0.49877 0
M  V30 2294 H 219.312 0.817391 -1.87563 0
M  V30 2295 H 219.322 3.1601 -2.58073 0
M  V30 2296 H 217.997 2.36883 -3.41847 0
M  V30 2297 H 216.574 3.25661 -1.81656 0
M  V30 2298 N 218.759 1.29093 0.90403 0
M  V30 2299 C 219.722 1.1386 1.98919 0
M  V30 2300 C 220.722 0.0753457 1.60623 0
M  V30 2301 O 221.912 0.321931 1.71199 0
M  V30 2302 C 219.044 0.740198 3.32767 0
M  V30 2303 H 220.237 2.10246 2.13861 0
M  V30 2304 H 217.79 1.12218 1.08797 0
M  V30 2305 H 218.525 -0.223997 3.23525 0
M  V30 2306 H 218.31 1.50838 3.61926 0
M  V30 2307 H 219.8 0.656546 4.12407 0
M  V30 2308 N 220.237 -1.11381 1.11499 0
M  V30 2309 C 221.514 -1.7955 0.775965 0
M  V30 2310 C 221.894 -1.97859 -0.73588 0
M  V30 2311 O 221.242 -1.56376 -1.66609 0
M  V30 2312 C 221.452 -3.13196 1.53977 0
M  V30 2313 C 222.8 -3.88227 1.71944 0
M  V30 2314 O 223.824 -3.22887 1.50407 0
M  V30 2315 O 222.683 -5.05477 2.07738 0
M  V30 2316 H 219.777 -0.777728 0.28119 0
M  V30 2317 H 222.323 -1.18118 1.21845 0
M  V30 2318 H 221.095 -2.95229 2.56818 0
M  V30 2319 H 220.718 -3.82342 1.09088 0
M  V30 2320 N 221.715 -0.905404 -1.28997 0
M  V30 2321 C 222.663 -0.377431 -2.29517 0
M  V30 2322 C 223.657 0.526461 -1.61012 0
M  V30 2323 O 224.863 0.40863 -1.753 0
M  V30 2324 H 221.238 -0.103437 -0.744852 0
M  V30 2325 H 223.209 -1.23848 -2.71485 0
M  V30 2326 C 221.958 0.374833 -3.45674 0
M  V30 2327 H 221.281 -0.311474 -3.98585 0
M  V30 2328 H 222.721 0.70903 -4.1803 0
M  V30 2329 C 221.18 1.57963 -2.97572 0
M  V30 2330 O 221.71 2.67886 -2.99333 0
M  V30 2331 N 219.916 1.42375 -2.53333 0
M  V30 2332 H 219.463 0.529466 -2.521 0
M  V30 2333 H 219.421 2.23117 -2.21509 0
M  V30 2334 N 223.193 1.4272 -0.668489 0
M  V30 2335 C 224.14 2.30796 0.0137489 0
M  V30 2336 C 225.11 1.4561 0.799177 0
M  V30 2337 O 226.295 1.74453 0.772702 0
M  V30 2338 C 223.435 3.31377 0.963507 0
M  V30 2339 C 222.548 4.31655 0.172569 0
M  V30 2340 C 221.683 5.19312 1.1175 0
M  V30 2341 C 220.722 6.11274 0.317886 0
M  V30 2342 N 219.859 6.91504 1.2152 0
M  V30 2343 H 224.699 2.88585 -0.743161 0
M  V30 2344 H 222.236 1.42154 -0.378226 0
M  V30 2345 H 224.194 3.88214 1.52792 0
M  V30 2346 H 222.824 2.75202 1.68712 0
M  V30 2347 H 221.876 3.76988 -0.508374 0
M  V30 2348 H 223.188 4.96779 -0.448527 0
M  V30 2349 H 222.342 5.80851 1.75206 0
M  V30 2350 H 221.081 4.5435 1.77249 0
M  V30 2351 H 220.086 5.48809 -0.329918 0
M  V30 2352 H 221.311 6.78283 -0.332917 0
M  V30 2353 H 219.257 6.29176 1.85671 0
M  V30 2354 H 219.174 7.53209 0.649036 0
M  V30 2355 H 220.442 7.57535 1.83742 0
M  V30 2356 N 224.671 0.411399 1.52136 0
M  V30 2357 C 225.917 -0.163888 2.02137 0
M  V30 2358 C 226.25 -1.44597 1.29636 0
M  V30 2359 O 225.525 -1.90272 0.403353 0
M  V30 2360 C 225.808 -0.40927 3.57767 0
M  V30 2361 C 225.661 0.889643 4.40914 0
M  V30 2362 C 226.98 -1.19042 4.23694 0
M  V30 2363 H 224.099 -0.0580896 0.734707 0
M  V30 2364 H 226.741 0.54531 1.82007 0
M  V30 2365 H 224.891 -1.0134 3.7505 0
M  V30 2366 H 226.563 1.52575 4.35337 0
M  V30 2367 H 224.806 1.50011 4.07037 0
M  V30 2368 H 225.477 0.672314 5.4789 0
M  V30 2369 H 227.953 -0.678942 4.10524 0
M  V30 2370 H 226.829 -1.33086 5.32522 0
M  V30 2371 H 227.09 -2.21166 3.82803 0
M  V30 2372 N 226.149 -1.5696 0.141893 0
M  V30 2373 C 227.395 -1.9625 -0.511248 0
M  V30 2374 C 227.728 -1.02654 -1.64851 0
M  V30 2375 O 227.003 -0.0679676 -1.94381 0
M  V30 2376 C 227.286 -3.45285 -1.02227 0
M  V30 2377 C 227.139 -4.49658 0.113138 0
M  V30 2378 C 228.458 -3.96698 -1.90574 0
M  V30 2379 H 225.577 -0.713567 -0.184367 0
M  V30 2380 H 228.219 -1.88698 0.222087 0
M  V30 2381 H 226.369 -3.51852 -1.64719 0
M  V30 2382 H 228.041 -4.55174 0.749302 0
M  V30 2383 H 226.284 -4.26857 0.773026 0
M  V30 2384 H 226.955 -5.51258 -0.286053 0
M  V30 2385 H 229.431 -3.92578 -1.37918 0
M  V30 2386 H 228.307 -5.01453 -2.2324 0
M  V30 2387 H 228.568 -3.3875 -2.84079 0
M  V30 2388 N 227.627 0.131896 -1.57047 0
M  V30 2389 C 228.867 0.847972 -1.85981 0
M  V30 2390 C 229.231 1.77655 -0.7282 0
M  V30 2391 O 230.432 2.53322 -0.898968 0
M  V30 2392 C 228.703 1.58919 -3.20124 0
M  V30 2393 S 230.262 2.34862 -3.70655 0
M  V30 2394 H 227.08 0.283273 -0.652133 0
M  V30 2395 H 229.682 0.107057 -1.95207 0
M  V30 2396 H 228.386 0.898771 -4.00438 0
M  V30 2397 H 227.917 2.37073 -3.13942 0
M  V30 2398 H 229.932 3.60344 -3.41126 0
M  V30 2399 N 229.106 1.52395 0.401703 0
M  V30 2400 C 230.331 1.70972 1.17403 0
M  V30 2401 C 230.756 0.421615 1.83314 0
M  V30 2402 O 230.114 -0.621564 1.70312 0
M  V30 2403 C 230.162 2.85151 2.20728 0
M  V30 2404 O 229.266 2.51238 3.27037 0
M  V30 2405 H 228.607 0.568927 0.342372 0
M  V30 2406 H 231.137 1.99131 0.469891 0
M  V30 2407 H 231.147 3.10279 2.64936 0
M  V30 2408 H 229.822 3.78603 1.7214 0
M  V30 2409 H 228.399 2.36808 2.88057 0
M  V30 2410 N 230.584 -0.659388 1.43143 0
M  V30 2411 C 231.824 -1.43121 1.45931 0
M  V30 2412 C 232.188 -1.91838 0.0789298 0
M  V30 2413 O 233.389 -2.68794 -0.018491 0
M  V30 2414 C 231.66 -2.58534 2.46769 0
M  V30 2415 S 233.219 -3.47154 2.68384 0
M  V30 2416 H 230.037 -0.488624 0.516496 0
M  V30 2417 H 232.639 -0.766128 1.79863 0
M  V30 2418 H 231.343 -2.21007 3.45809 0
M  V30 2419 H 230.874 -3.29898 2.14315 0
M  V30 2420 H 232.889 -4.55051 1.97845 0
M  V30 2421 N 232.062 -1.29571 -0.897171 0
M  V30 2422 C 233.29 -1.20583 -1.68129 0
M  V30 2423 C 233.705 0.233181 -1.87354 0
M  V30 2424 O 233.062 1.15579 -1.41236 0
M  V30 2425 C 233.113 -1.91772 -3.06441 0
M  V30 2426 O 232.834 -3.30053 -2.88091 0
M  V30 2427 C 234.335 -1.89291 -4.00854 0
M  V30 2428 H 231.555 -0.417826 -0.525036 0
M  V30 2429 H 234.099 -1.70987 -1.12177 0
M  V30 2430 H 232.254 -1.45196 -3.59161 0
M  V30 2431 H 232.668 -3.65942 -3.75748 0
M  V30 2432 H 234.142 -2.43662 -4.95311 0
M  V30 2433 H 234.619 -0.869014 -4.30517 0
M  V30 2434 H 235.225 -2.35622 -3.54066 0
M  V30 2435 N 233.54 1.10788 -1.12088 0
M  V30 2436 C 234.45 2.20599 -0.798338 0
M  V30 2437 C 235.466 1.72712 0.21135 0
M  V30 2438 O 236.642 2.01348 0.0458477 0
M  V30 2439 C 233.707 3.45771 -0.253674 0
M  V30 2440 C 232.768 4.08411 -1.32283 0
M  V30 2441 C 232.001 5.27608 -0.80406 0
M  V30 2442 O 232.224 5.69241 0.363478 0
M  V30 2443 O 231.158 5.8101 -1.57198 0
M  V30 2444 H 234.984 2.50614 -1.7154 0
M  V30 2445 H 232.569 1.19454 -0.897275 0
M  V30 2446 H 234.451 4.21376 0.0453691 0
M  V30 2447 H 233.126 3.1739 0.636005 0
M  V30 2448 H 232.033 3.34507 -1.67499 0
M  V30 2449 H 233.366 4.40986 -2.18614 0
M  V30 2450 N 235.018 0.912232 1.28515 0
M  V30 2451 C 236.266 0.543523 1.94654 0
M  V30 2452 C 236.587 -0.9155 1.72173 0
M  V30 2453 O 235.857 -1.64708 1.06058 0
M  V30 2454 H 234.437 0.198017 0.720277 0
M  V30 2455 H 237.099 1.16126 1.56527 0
M  V30 2456 H 236.195 0.736684 3.03281 0
M  V30 2457 N 236.496 -1.42363 0.676048 0
M  V30 2458 C 237.726 -2.05561 0.206967 0
M  V30 2459 C 238.134 -1.50887 -1.14148 0
M  V30 2460 O 237.477 -0.643933 -1.72044 0
M  V30 2461 C 237.539 -3.5944 0.0659508 0
M  V30 2462 C 237.203 -4.36812 1.34331 0
M  V30 2463 C 238.2 -4.67383 2.27704 0
M  V30 2464 C 235.885 -4.76429 1.59125 0
M  V30 2465 C 237.879 -5.36509 3.44147 0
M  V30 2466 C 235.566 -5.45294 2.75857 0
M  V30 2467 C 236.564 -5.75259 3.68193 0
M  V30 2468 O 236.252 -6.42712 4.82883 0
M  V30 2469 H 235.984 -0.668872 0.0979084 0
M  V30 2470 H 238.538 -1.83467 0.923531 0
M  V30 2471 H 236.768 -3.80197 -0.706204 0
M  V30 2472 H 238.457 -4.0427 -0.363418 0
M  V30 2473 H 239.223 -4.37275 2.09799 0
M  V30 2474 H 235.102 -4.52498 0.881258 0
M  V30 2475 H 238.646 -5.59814 4.16238 0
M  V30 2476 H 234.543 -5.7482 2.93688 0
M  V30 2477 H 235.311 -6.61204 4.82444 0
M  V30 2478 N 237.974 -0.419461 -1.51915 0
M  V30 2479 C 239.39 -0.0708431 -1.59443 0
M  V30 2480 C 239.59 1.41796 -1.43164 0
M  V30 2481 O 238.646 2.18596 -1.26381 0
M  V30 2482 C 239.959 -0.574991 -2.95151 0
M  V30 2483 C 241.507 -0.533867 -3.08413 0
M  V30 2484 C 241.982 -1.01469 -4.46618 0
M  V30 2485 N 243.473 -0.971939 -4.52888 0
M  V30 2486 C 244.208 -1.31505 -5.58116 0
M  V30 2487 N 243.704 -1.73014 -6.70849 0
M  V30 2488 N 245.497 -1.23436 -5.48379 0
M  V30 2489 H 237.648 -1.38836 -1.60743 0
M  V30 2490 H 239.911 -0.570998 -0.756747 0
M  V30 2491 H 239.617 -1.61597 -3.12377 0
M  V30 2492 H 239.491 0.00979777 -3.77199 0
M  V30 2493 H 241.878 0.498086 -2.90866 0
M  V30 2494 H 241.959 -1.15484 -2.28248 0
M  V30 2495 H 241.603 -2.04502 -4.6491 0
M  V30 2496 H 241.533 -0.370433 -5.25295 0
M  V30 2497 H 244.024 -0.666893 -3.71969 0
M  V30 2498 H 244.337 -1.97479 -7.47143 0
M  V30 2499 H 242.682 -1.76926 -6.72103 0
M  V30 2500 H 245.873 -0.908869 -4.59192 0
M  V30 2501 H 246.046 -1.50506 -6.30279 0
M  V30 2502 N 239.452 1.56882 -0.150215 0
M  V30 2503 C 240.382 2.19935 0.784284 0
M  V30 2504 C 241.363 1.14854 1.25469 0
M  V30 2505 O 242.548 1.43209 1.31168 0
M  V30 2506 C 239.678 2.82349 2.02229 0
M  V30 2507 C 238.632 3.93285 1.68853 0
M  V30 2508 C 237.958 4.42649 2.99944 0
M  V30 2509 C 239.258 5.13904 0.932714 0
M  V30 2510 H 240.952 2.9828 0.258781 0
M  V30 2511 H 238.498 1.43473 0.123029 0
M  V30 2512 H 240.451 3.25126 2.68088 0
M  V30 2513 H 239.175 2.0134 2.57157 0
M  V30 2514 H 237.834 3.5113 1.05371 0
M  V30 2515 H 237.482 3.58458 3.52869 0
M  V30 2516 H 237.182 5.17476 2.78374 0
M  V30 2517 H 238.706 4.88099 3.66868 0
M  V30 2518 H 240.12 5.53506 1.49345 0
M  V30 2519 H 238.517 5.94515 0.81684 0
M  V30 2520 H 239.587 4.84842 -0.0749568 0
M  V30 2521 N 240.93 -0.123565 1.57115 0
M  V30 2522 C 241.893 -1.13583 1.99076 0
M  V30 2523 C 242.893 -1.34564 0.880296 0
M  V30 2524 O 244.083 -1.31158 1.14644 0
M  V30 2525 C 241.215 -2.49128 2.32698 0
M  V30 2526 H 242.408 -0.775287 2.89706 0
M  V30 2527 H 239.961 -0.36771 1.51913 0
M  V30 2528 H 240.696 -2.90111 1.44934 0
M  V30 2529 H 240.481 -2.35255 3.13684 0
M  V30 2530 H 241.971 -3.2199 2.65918 0
M  V30 2531 N 242.408 -1.52605 -0.393616 0
M  V30 2532 C 243.318 -1.79971 -1.50492 0
M  V30 2533 C 244.334 -0.686181 -1.59899 0
M  V30 2534 O 245.51 -0.973274 -1.76322 0
M  V30 2535 C 242.575 -1.95867 -2.86072 0
M  V30 2536 C 241.636 -3.19781 -2.86424 0
M  V30 2537 C 240.869 -3.34909 -4.15538 0
M  V30 2538 O 241.092 -2.54948 -5.10253 0
M  V30 2539 O 240.026 -4.28141 -4.23059 0
M  V30 2540 H 243.852 -2.74328 -1.30299 0
M  V30 2541 H 241.437 -1.3764 -0.581005 0
M  V30 2542 H 243.319 -2.08056 -3.66457 0
M  V30 2543 H 241.994 -1.04699 -3.063 0
M  V30 2544 H 240.901 -3.13038 -2.04837 0
M  V30 2545 H 242.234 -4.1078 -2.71147 0
M  V30 2546 N 243.887 0.651787 -1.4349 0
M  V30 2547 C 244.835 1.78586 -1.49029 0
M  V30 2548 C 245.829 1.65448 -0.363767 0
M  V30 2549 O 247.035 1.71777 -0.537821 0
M  V30 2550 H 243.41 0.589236 -0.467231 0
M  V30 2551 H 245.381 1.71035 -2.44519 0
M  V30 2552 C 244.13 3.16851 -1.43181 0
M  V30 2553 H 243.453 3.27598 -2.29171 0
M  V30 2554 H 244.893 3.96156 -1.51118 0
M  V30 2555 C 243.352 3.36568 -0.149616 0
M  V30 2556 O 243.882 3.93885 0.788509 0
M  V30 2557 N 242.088 2.90539 -0.0593484 0
M  V30 2558 H 241.635 2.4408 -0.823575 0
M  V30 2559 H 241.593 3.04108 0.797853 0
M  V30 2560 N 245.365 1.30045 0.890287 0
M  V30 2561 C 246.297 1.11786 2.00091 0
M  V30 2562 C 247.31 0.0626307 1.62679 0
M  V30 2563 O 248.499 0.308112 1.75821 0
M  V30 2564 C 245.599 0.681527 3.31977 0
M  V30 2565 C 244.772 1.81735 3.97858 0
M  V30 2566 C 243.831 1.37045 5.08041 0
M  V30 2567 O 242.857 2.07677 5.29961 0
M  V30 2568 N 244.059 0.246525 5.79976 0
M  V30 2569 H 246.824 2.07441 2.16306 0
M  V30 2570 H 244.385 1.2211 1.06305 0
M  V30 2571 H 246.377 0.365675 4.03045 0
M  V30 2572 H 244.947 -0.182828 3.12065 0
M  V30 2573 H 244.167 2.30159 3.20032 0
M  V30 2574 H 245.455 2.57865 4.38615 0
M  V30 2575 H 244.853 -0.34215 5.64664 0
M  V30 2576 H 243.41 -0.00990438 6.51799 0
M  V30 2577 N 246.843 -1.10192 1.12674 0
M  V30 2578 C 247.79 -2.16606 0.796906 0
M  V30 2579 C 248.76 -1.64394 -0.237476 0
M  V30 2580 O 249.945 -1.90474 -0.111484 0
M  V30 2581 C 247.085 -3.44116 0.26043 0
M  V30 2582 C 246.198 -4.10268 1.35293 0
M  V30 2583 C 245.333 -5.25507 0.775621 0
M  V30 2584 C 244.372 -5.83567 1.84706 0
M  V30 2585 N 243.509 -6.90179 1.28829 0
M  V30 2586 H 248.349 -2.44163 1.70846 0
M  V30 2587 H 245.886 -1.19846 0.85295 0
M  V30 2588 H 247.844 -4.17143 -0.0686814 0
M  V30 2589 H 246.474 -3.16901 -0.614274 0
M  V30 2590 H 245.526 -3.35184 1.79877 0
M  V30 2591 H 246.838 -4.4946 2.16303 0
M  V30 2592 H 245.992 -6.05398 0.397327 0
M  V30 2593 H 244.731 -4.87656 -0.0656581 0
M  V30 2594 H 243.736 -5.02344 2.23452 0
M  V30 2595 H 244.961 -6.23482 2.69161 0
M  V30 2596 H 242.907 -6.54322 0.468881 0
M  V30 2597 H 242.824 -7.28097 2.03497 0
M  V30 2598 H 244.092 -7.73844 0.937311 0
M  V30 2599 N 248.321 -0.919034 -1.28029 0
M  V30 2600 C 249.546 -0.570357 -1.99403 0
M  V30 2601 C 249.971 0.842486 -1.68178 0
M  V30 2602 O 249.329 1.56391 -0.917141 0
M  V30 2603 C 249.377 -0.792541 -3.51783 0
M  V30 2604 O 248.481 0.145988 -4.12142 0
M  V30 2605 H 247.822 -0.220555 -0.6263 0
M  V30 2606 H 250.352 -1.23592 -1.63053 0
M  V30 2607 H 250.362 -0.704708 -4.01868 0
M  V30 2608 H 249.037 -1.82247 -3.73844 0
M  V30 2609 H 247.614 0.00897528 -3.72899 0
M  V30 2610 N 249.799 1.42003 -0.683588 0
M  V30 2611 C 251.039 2.03282 -0.213513 0
M  V30 2612 C 251.403 1.52924 1.16097 0
M  V30 2613 O 252.604 2.06048 1.7262 0
M  V30 2614 C 250.875 3.56483 -0.255856 0
M  V30 2615 S 252.434 4.3857 0.14193 0
M  V30 2616 H 249.252 0.705659 -0.0869853 0
M  V30 2617 H 251.854 1.73619 -0.8987 0
M  V30 2618 H 250.558 3.90631 -1.25841 0
M  V30 2619 H 250.089 3.90831 0.448875 0
M  V30 2620 H 252.104 4.76828 1.37295 0
M  V30 2621 N 251.277 0.427512 1.51691 0
M  V30 2622 C 252.187 -0.39527 2.31246 0
M  V30 2623 C 253.203 -1.03674 1.39742 0
M  V30 2624 O 254.379 -1.03425 1.72816 0
M  V30 2625 C 251.444 -1.48706 3.13189 0
M  V30 2626 C 250.505 -0.866743 4.20459 0
M  V30 2627 C 249.738 -1.90651 4.98486 0
M  V30 2628 O 249.961 -3.12733 4.77026 0
M  V30 2629 O 248.895 -1.5025 5.82845 0
M  V30 2630 H 252.721 0.253918 3.02637 0
M  V30 2631 H 250.306 0.190274 1.48183 0
M  V30 2632 H 252.188 -2.12047 3.64162 0
M  V30 2633 H 250.863 -2.12051 2.44573 0
M  V30 2634 H 249.77 -0.195544 3.73589 0
M  V30 2635 H 251.103 -0.276934 4.9142 0
M  V30 2636 N 252.755 -1.56801 0.158532 0
M  V30 2637 C 254.166 -1.83189 -0.360366 0
M  V30 2638 C 254.517 -1.07778 -1.63946 0
M  V30 2639 O 253.642 -0.326718 -2.13919 0
M  V30 2640 C 254.237 -3.32297 -0.660595 0
M  V30 2641 C 252.796 -3.59227 -1.12398 0
M  V30 2642 C 251.943 -2.76877 -0.153097 0
M  V30 2643 H 254.894 -1.54008 0.383031 0
M  V30 2644 H 254.915 -3.4908 -1.51405 0
M  V30 2645 H 254.427 -3.87156 0.270527 0
M  V30 2646 H 252.528 -3.09766 -2.07064 0
M  V30 2647 H 252.641 -4.67632 -1.04197 0
M  V30 2648 H 251.005 -2.46319 -0.647983 0
M  V30 2649 H 251.788 -3.34511 0.77182 0
M  V30 2650 N 254.233 0.115231 -1.57178 0
M  V30 2651 C 255.196 1.12526 -1.99676 0
M  V30 2652 C 256.196 1.34095 -0.88742 0
M  V30 2653 O 257.386 1.30548 -1.15337 0
M  V30 2654 C 254.518 2.4789 -2.34015 0
M  V30 2655 H 255.711 0.759912 -2.90113 0
M  V30 2656 H 253.264 0.359648 -1.52106 0
M  V30 2657 H 253.999 2.89339 -1.4647 0
M  V30 2658 H 253.784 2.33588 -3.14927 0
M  V30 2659 H 255.274 3.20575 -2.67622 0
M  V30 2660 N 255.711 1.52812 0.385517 0
M  V30 2661 C 256.957 1.68275 1.13188 0
M  V30 2662 C 257.29 0.423179 1.89533 0
M  V30 2663 O 256.565 -0.579113 1.85679 0
M  V30 2664 C 256.848 2.92001 2.1073 0
M  V30 2665 C 256.701 4.28067 1.38125 0
M  V30 2666 C 258.02 3.11283 3.11113 0
M  V30 2667 H 255.139 0.612352 0.410115 0
M  V30 2668 H 257.781 1.85415 0.414869 0
M  V30 2669 H 255.931 2.77519 2.71874 0
M  V30 2670 H 257.603 4.54324 0.799187 0
M  V30 2671 H 255.846 4.28388 0.683092 0
M  V30 2672 H 256.517 5.10733 2.09417 0
M  V30 2673 H 258.993 3.2482 2.6006 0
M  V30 2674 H 257.869 3.99325 3.76605 0
M  V30 2675 H 258.13 2.25656 3.80173 0
M  V30 2676 N 257.189 -0.644168 1.43834 0
M  V30 2677 C 258.6 -1.22554 1.40845 0
M  V30 2678 C 258.951 -1.9585 0.117115 0
M  V30 2679 O 258.076 -2.01734 -0.783086 0
M  V30 2680 C 258.671 -2.22907 2.55143 0
M  V30 2681 C 257.23 -2.76501 2.5539 0
M  V30 2682 C 256.377 -1.51287 2.32396 0
M  V30 2683 H 259.328 -0.43563 1.52604 0
M  V30 2684 H 259.349 -3.05259 2.2715 0
M  V30 2685 H 258.861 -1.69533 3.49114 0
M  V30 2686 H 256.962 -3.33914 1.65324 0
M  V30 2687 H 257.075 -3.23429 3.53455 0
M  V30 2688 H 255.439 -1.78957 1.81236 0
M  V30 2689 H 256.222 -0.998336 3.28463 0
M  V30 2690 N 258.668 -1.30515 -0.883378 0
M  V30 2691 C 259.915 -1.1943 -1.63532 0
M  V30 2692 C 260.243 0.250627 -1.92878 0
M  V30 2693 O 259.498 1.19556 -1.54935 0
M  V30 2694 C 259.797 -1.96994 -2.98209 0
M  V30 2695 C 259.463 -3.466 -2.88408 0
M  V30 2696 C 258.125 -3.87397 -2.85442 0
M  V30 2697 C 260.477 -4.41863 -2.76418 0
M  V30 2698 C 257.805 -5.21745 -2.68327 0
M  V30 2699 C 260.157 -5.7632 -2.60841 0
M  V30 2700 C 258.821 -6.16354 -2.56251 0
M  V30 2701 H 258.091 -0.437025 -0.598406 0
M  V30 2702 H 260.738 -1.61635 -1.02696 0
M  V30 2703 H 259.043 -1.47429 -3.63004 0
M  V30 2704 H 260.74 -1.85808 -3.55354 0
M  V30 2705 H 257.33 -3.14182 -2.91527 0
M  V30 2706 H 261.514 -4.11285 -2.77775 0
M  V30 2707 H 256.77 -5.51853 -2.63189 0
M  V30 2708 H 260.944 -6.49772 -2.50538 0
M  V30 2709 H 258.571 -7.20401 -2.42748 0
M  V30 2710 N 260.146 1.09593 -1.13257 0
M  V30 2711 C 261.557 1.63229 -0.906274 0
M  V30 2712 C 261.908 1.8811 0.557578 0
M  V30 2713 O 261.033 1.62953 1.42391 0
M  V30 2714 C 261.628 2.96535 -1.63867 0
M  V30 2715 C 260.187 3.47003 -1.45828 0
M  V30 2716 C 259.334 2.2145 -1.66898 0
M  V30 2717 H 262.285 0.92978 -1.28611 0
M  V30 2718 H 262.306 3.64411 -1.09476 0
M  V30 2719 H 261.818 2.78394 -2.70404 0
M  V30 2720 H 259.919 3.70272 -0.415848 0
M  V30 2721 H 260.032 4.24551 -2.2202 0
M  V30 2722 H 258.396 2.30022 -1.09371 0
M  V30 2723 H 259.179 2.0583 -2.74752 0
M  V30 2724 N 261.624 0.925811 1.2754 0
M  V30 2725 C 262.864 0.572521 1.96218 0
M  V30 2726 C 263.228 -0.869719 1.71172 0
M  V30 2727 O 264.429 -1.33119 2.33523 0
M  V30 2728 C 262.7 0.887325 3.4621 0
M  V30 2729 S 264.259 0.642266 4.34074 0
M  V30 2730 H 261.077 0.211403 0.678845 0
M  V30 2731 H 263.679 1.19384 1.54815 0
M  V30 2732 H 262.383 1.93469 3.61936 0
M  V30 2733 H 261.914 0.255123 3.92572 0
M  V30 2734 H 263.929 -0.500822 4.93666 0
M  V30 2735 N 263.102 -1.41638 0.69111 0
M  V30 2736 C 264.35 -2.00902 0.219758 0
M  V30 2737 C 264.671 -1.54994 -1.18329 0
M  V30 2738 O 263.941 -0.778628 -1.79762 0
M  V30 2739 H 262.521 -0.74289 0.0782558 0
M  V30 2740 H 265.183 -1.73327 0.891271 0
M  V30 2741 H 264.279 -3.11224 0.233708 0
M  V30 2742 N 264.58 -0.43555 -1.51462 0
M  V30 2743 C 265.996 -0.0877501 -1.59359 0
M  V30 2744 C 266.196 1.4027 -1.4466 0
M  V30 2745 O 265.252 2.17243 -1.28693 0
M  V30 2746 C 266.565 -0.606264 -2.94525 0
M  V30 2747 C 268.113 -0.566548 -3.0783 0
M  V30 2748 C 268.588 -1.06201 -4.45517 0
M  V30 2749 N 270.079 -1.01992 -4.51832 0
M  V30 2750 C 270.814 -1.37417 -5.5669 0
M  V30 2751 N 270.31 -1.80119 -6.68976 0
M  V30 2752 N 272.103 -1.29245 -5.47039 0
M  V30 2753 H 264.254 -1.40533 -1.59261 0
M  V30 2754 H 266.517 -0.578992 -0.750648 0
M  V30 2755 H 266.223 -1.64901 -3.10645 0
M  V30 2756 H 266.097 -0.0302097 -3.77188 0
M  V30 2757 H 268.484 0.467208 -2.91378 0
M  V30 2758 H 268.565 -1.17898 -2.2701 0
M  V30 2759 H 268.209 -2.09422 -4.62715 0
M  V30 2760 H 268.139 -0.426127 -5.24873 0
M  V30 2761 H 270.63 -0.706308 -3.71241 0
M  V30 2762 H 270.943 -2.05392 -7.45006 0
M  V30 2763 H 269.288 -1.84044 -6.70189 0
M  V30 2764 H 272.479 -0.957522 -4.58202 0
M  V30 2765 H 272.652 -1.57182 -6.28648 0
M  V30 2766 N 266.058 1.56714 -0.166846 0
M  V30 2767 C 267.304 1.97039 0.479962 0
M  V30 2768 C 267.637 1.05264 1.63197 0
M  V30 2769 O 266.912 0.0988833 1.94248 0
M  V30 2770 C 267.195 3.46867 0.967212 0
M  V30 2771 C 267.048 4.49421 -0.18466 0
M  V30 2772 C 268.367 3.9968 1.84238 0
M  V30 2773 H 265.486 0.71641 0.172992 0
M  V30 2774 H 268.128 1.8832 -0.252079 0
M  V30 2775 H 266.278 3.54428 1.59101 0
M  V30 2776 H 267.95 4.53924 -0.821621 0
M  V30 2777 H 266.193 4.25573 -0.840837 0
M  V30 2778 H 266.864 5.51644 0.198317 0
M  V30 2779 H 269.34 3.94723 1.31655 0
M  V30 2780 H 268.216 5.04941 2.15234 0
M  V30 2781 H 268.477 3.43226 2.78654 0
M  V30 2782 N 267.536 -0.106894 1.57237 0
M  V30 2783 C 268.761 -0.830287 1.90055 0
M  V30 2784 C 269.186 -1.72064 0.75998 0
M  V30 2785 O 268.544 -1.78982 -0.288991 0
M  V30 2786 C 268.592 -1.6295 3.21683 0
M  V30 2787 O 267.696 -2.73748 3.08441 0
M  V30 2788 H 267.037 -0.228855 0.623315 0
M  V30 2789 H 269.567 -0.085658 2.04421 0
M  V30 2790 H 269.577 -2.01621 3.54701 0
M  V30 2791 H 268.252 -0.975989 4.04286 0
M  V30 2792 H 266.829 -2.38192 2.86913 0
M  V30 2793 N 269.014 -1.53014 -0.377408 0
M  V30 2794 C 270.26 -1.68872 -1.12294 0
M  V30 2795 C 270.593 -0.433224 -1.89306 0
M  V30 2796 O 269.868 0.569258 -1.85983 0
M  V30 2797 C 270.151 -2.93115 -2.09179 0
M  V30 2798 C 270.004 -4.28794 -1.35853 0
M  V30 2799 C 271.323 -3.12928 -3.09458 0
M  V30 2800 H 268.442 -0.614518 -0.406862 0
M  V30 2801 H 271.084 -1.85633 -0.40503 0
M  V30 2802 H 269.234 -2.78956 -2.70399 0
M  V30 2803 H 270.906 -4.54742 -0.775082 0
M  V30 2804 H 269.149 -4.28744 -0.660364 0
M  V30 2805 H 269.82 -5.11837 -2.06706 0
M  V30 2806 H 272.296 -3.26194 -2.58334 0
M  V30 2807 H 271.172 -4.01316 -3.74482 0
M  V30 2808 H 271.433 -2.27669 -3.78971 0
M  V30 2809 N 270.492 0.636531 -1.44174 0
M  V30 2810 C 271.717 1.42847 -1.50364 0
M  V30 2811 C 272.142 1.87665 -0.127867 0
M  V30 2812 O 271.5 1.58408 0.88185 0
M  V30 2813 C 271.548 2.62854 -2.4686 0
M  V30 2814 O 270.652 3.62501 -1.9664 0
M  V30 2815 H 269.993 0.427642 -0.507955 0
M  V30 2816 H 272.523 0.777422 -1.89255 0
M  V30 2817 H 272.533 3.10465 -2.64718 0
M  V30 2818 H 271.208 2.29578 -3.46795 0
M  V30 2819 H 269.785 3.21735 -1.88523 0
M  V30 2820 N 271.97 1.30982 0.876444 0
M  V30 2821 C 272.902 1.13902 1.98894 0
M  V30 2822 C 273.915 0.0798815 1.62604 0
M  V30 2823 O 275.104 0.326743 1.75484 0
M  V30 2824 C 272.204 0.716699 3.31235 0
M  V30 2825 C 271.377 1.85945 3.95908 0
M  V30 2826 C 270.436 1.42426 5.06558 0
M  V30 2827 O 269.462 2.13287 5.27729 0
M  V30 2828 N 270.664 0.308025 5.79682 0
M  V30 2829 H 273.429 2.09724 2.14094 0
M  V30 2830 H 270.99 1.2323 1.05004 0
M  V30 2831 H 272.982 0.408403 4.02634 0
M  V30 2832 H 271.552 -0.149719 3.12241 0
M  V30 2833 H 270.772 2.33541 3.17573 0
M  V30 2834 H 272.06 2.62503 4.35855 0
M  V30 2835 H 271.458 -0.282241 5.64995 0
M  V30 2836 H 270.015 0.0592282 6.51773 0
M  V30 2837 N 273.449 -1.08991 1.13837 0
M  V30 2838 C 274.677 -1.85011 0.926202 0
M  V30 2839 C 275.092 -1.8135 -0.525127 0
M  V30 2840 O 274.449 -1.21287 -1.36366 0
M  V30 2841 C 274.5 -3.32802 1.41155 0
M  V30 2842 O 274.221 -3.36444 2.80601 0
M  V30 2843 C 275.722 -4.25649 1.23847 0
M  V30 2844 H 272.942 -0.584249 0.32999 0
M  V30 2845 H 275.486 -1.37688 1.51202 0
M  V30 2846 H 273.641 -3.77536 0.868631 0
M  V30 2847 H 274.055 -4.28657 3.02248 0
M  V30 2848 H 275.529 -5.27485 1.62675 0
M  V30 2849 H 276.006 -4.38828 0.18065 0
M  V30 2850 H 276.612 -3.86735 1.76964 0
M  V30 2851 N 274.927 -0.932562 -1.27047 0
M  V30 2852 C 276.152 -0.591474 -1.98787 0
M  V30 2853 C 276.577 0.824601 -1.69062 0
M  V30 2854 O 275.935 1.5541 -0.933677 0
M  V30 2855 C 275.983 -0.829808 -3.50922 0
M  V30 2856 O 275.087 0.102266 -4.12273 0
M  V30 2857 H 274.428 -0.227185 -0.623926 0
M  V30 2858 H 276.958 -1.25314 -1.61733 0
M  V30 2859 H 276.968 -0.747292 -4.01098 0
M  V30 2860 H 275.643 -1.86201 -3.7189 0
M  V30 2861 H 274.22 -0.0305761 -3.72887 0
M  V30 2862 N 276.405 1.4127 -0.698611 0
M  V30 2863 C 277.352 2.30773 -0.0352094 0
M  V30 2864 C 278.322 1.47273 0.768111 0
M  V30 2865 O 279.507 1.76053 0.735524 0
M  V30 2866 C 276.647 3.33346 0.893 0
M  V30 2867 C 275.76 4.31924 0.0809695 0
M  V30 2868 C 274.895 5.21566 1.0071 0
M  V30 2869 C 273.934 6.11811 0.188155 0
M  V30 2870 N 273.071 6.93926 1.06825 0
M  V30 2871 H 277.911 2.86943 -0.804207 0
M  V30 2872 H 275.448 1.4132 -0.408294 0
M  V30 2873 H 277.406 3.91368 1.44523 0
M  V30 2874 H 276.036 2.78719 1.62836 0
M  V30 2875 H 275.088 3.75825 -0.588224 0
M  V30 2876 H 276.4 4.95716 -0.553801 0
M  V30 2877 H 275.554 5.84437 1.62845 0
M  V30 2878 H 274.293 4.58008 1.67572 0
M  V30 2879 H 273.298 5.47986 -0.446254 0
M  V30 2880 H 274.523 6.77425 -0.476716 0
M  V30 2881 H 272.469 6.32973 1.72283 0
M  V30 2882 H 272.386 7.54416 0.489123 0
M  V30 2883 H 273.654 7.61262 1.67632 0
M  V30 2884 N 277.883 0.443576 1.51229 0
M  V30 2885 C 278.813 -0.355142 2.30783 0
M  V30 2886 C 279.794 -1.0154 1.36468 0
M  V30 2887 O 280.979 -1.01785 1.65389 0
M  V30 2888 C 278.109 -1.45312 3.15439 0
M  V30 2889 C 277.063 -0.916002 4.18083 0
M  V30 2890 C 276.389 -2.1102 4.91299 0
M  V30 2891 C 277.689 0.0538602 5.22272 0
M  V30 2892 H 279.383 0.308767 2.97804 0
M  V30 2893 H 276.929 0.149937 1.43217 0
M  V30 2894 H 278.882 -2.01914 3.69876 0
M  V30 2895 H 277.606 -2.14541 2.46252 0
M  V30 2896 H 276.265 -0.372145 3.64706 0
M  V30 2897 H 275.913 -2.78882 4.18609 0
M  V30 2898 H 275.613 -1.75717 5.60712 0
M  V30 2899 H 277.137 -2.68164 5.48562 0
M  V30 2900 H 278.551 -0.422069 5.71744 0
M  V30 2901 H 276.948 0.319776 5.99247 0
M  V30 2902 H 278.018 0.98858 4.74716 0
M  V30 2903 N 279.361 -1.56624 0.175154 0
M  V30 2904 C 280.589 -2.01374 -0.474971 0
M  V30 2905 C 281.004 -1.05537 -1.56548 0
M  V30 2906 O 280.361 -0.0568668 -1.82411 0
M  V30 2907 C 280.412 -3.45923 -1.04975 0
M  V30 2908 O 280.133 -4.381 -0.00276605 0
M  V30 2909 C 281.634 -4.06093 -1.77773 0
M  V30 2910 H 278.854 -0.659962 -0.121206 0
M  V30 2911 H 281.398 -2.02601 0.27801 0
M  V30 2912 H 279.553 -3.45458 -1.75321 0
M  V30 2913 H 279.967 -5.22753 -0.427681 0
M  V30 2914 H 281.441 -5.09147 -2.13245 0
M  V30 2915 H 281.918 -3.48405 -2.67414 0
M  V30 2916 H 282.524 -4.10272 -1.12059 0
M  V30 2917 N 280.839 0.0985539 -1.57292 0
M  V30 2918 C 282.255 0.45267 -1.53046 0
M  V30 2919 C 282.455 1.80713 -0.891342 0
M  V30 2920 O 281.511 2.4785 -0.482375 0
M  V30 2921 C 282.824 0.418341 -2.97776 0
M  V30 2922 C 284.372 0.500443 -3.08973 0
M  V30 2923 C 284.847 0.496297 -4.55303 0
M  V30 2924 N 286.338 0.557151 -4.59837 0
M  V30 2925 C 287.073 0.575726 -5.70502 0
M  V30 2926 N 286.569 0.550714 -6.90608 0
M  V30 2927 N 288.362 0.620277 -5.58667 0
M  V30 2928 H 280.513 -0.788673 -1.97215 0
M  V30 2929 H 282.776 -0.293188 -0.901524 0
M  V30 2930 H 282.482 -0.509659 -3.47988 0
M  V30 2931 H 282.356 1.2386 -3.56284 0
M  V30 2932 H 284.743 1.41886 -2.58751 0
M  V30 2933 H 284.824 -0.347894 -2.53423 0
M  V30 2934 H 284.468 -0.418162 -5.06176 0
M  V30 2935 H 284.398 1.3618 -5.08687 0
M  V30 2936 H 286.889 0.581816 -3.73394 0
M  V30 2937 H 287.202 0.568075 -7.70709 0
M  V30 2938 H 285.547 0.517816 -6.93068 0
M  V30 2939 H 288.738 0.637322 -4.63741 0
M  V30 2940 H 288.911 0.631283 -6.44918 0
M  V30 2941 N 282.317 1.53212 0.369288 0
M  V30 2942 C 283.28 1.7872 1.43498 0
M  V30 2943 C 284.28 0.657554 1.46741 0
M  V30 2944 O 285.47 0.925736 1.47566 0
M  V30 2945 C 282.602 1.90591 2.82645 0
M  V30 2946 H 283.795 2.73894 1.22156 0
M  V30 2947 H 281.348 1.44233 0.602203 0
M  V30 2948 H 282.083 0.974709 3.09306 0
M  V30 2949 H 281.868 2.72751 2.8169 0
M  V30 2950 H 283.358 2.11931 3.59826 0
M  V30 2951 N 283.795 -0.628877 1.44509 0
M  V30 2952 C 284.705 -1.7694 1.54044 0
M  V30 2953 C 285.721 -1.68705 0.425987 0
M  V30 2954 O 286.897 -1.89442 0.683656 0
M  V30 2955 C 283.962 -3.13332 1.48405 0
M  V30 2956 C 283.023 -3.33181 2.70719 0
M  V30 2957 C 282.256 -4.63067 2.6534 0
M  V30 2958 O 282.479 -5.44017 1.71469 0
M  V30 2959 O 281.413 -4.85167 3.56226 0
M  V30 2960 H 285.239 -1.71848 2.50403 0
M  V30 2961 H 282.824 -0.790378 1.26781 0
M  V30 2962 H 284.706 -3.94634 1.47791 0
M  V30 2963 H 283.381 -3.1896 0.551898 0
M  V30 2964 H 282.288 -2.51549 2.769 0
M  V30 2965 H 283.621 -3.32416 3.62988 0
M  V30 2966 N 285.273 -1.31445 -0.869486 0
M  V30 2967 C 286.501 -1.24122 -1.65534 0
M  V30 2968 C 286.916 0.193387 -1.87807 0
M  V30 2969 O 286.273 1.12557 -1.43656 0
M  V30 2970 C 286.324 -1.98229 -3.02304 0
M  V30 2971 O 286.045 -3.3609 -2.81026 0
M  V30 2972 C 287.546 -1.97751 -3.96749 0
M  V30 2973 H 284.766 -0.428868 -0.516055 0
M  V30 2974 H 287.31 -1.73328 -1.08525 0
M  V30 2975 H 285.465 -1.52782 -3.56001 0
M  V30 2976 H 285.879 -3.7383 -3.67902 0
M  V30 2977 H 287.353 -2.54114 -4.90031 0
M  V30 2978 H 287.83 -0.960137 -4.28577 0
M  V30 2979 H 288.436 -2.43079 -3.48988 0
M  V30 2980 N 286.751 1.08385 -1.14413 0
M  V30 2981 C 287.997 1.81044 -0.913834 0
M  V30 2982 C 288.33 1.86004 0.558209 0
M  V30 2983 O 287.605 1.33606 1.4135 0
M  V30 2984 C 287.888 3.26648 -1.51569 0
M  V30 2985 C 287.741 3.29895 -3.0576 0
M  V30 2986 C 289.06 4.23629 -1.19273 0
M  V30 2987 H 286.179 0.65727 -0.333414 0
M  V30 2988 H 288.821 1.26896 -1.41412 0
M  V30 2989 H 286.971 3.72889 -1.09023 0
M  V30 2990 H 288.643 2.91977 -3.57137 0
M  V30 2991 H 286.886 2.69163 -3.40197 0
M  V30 2992 H 287.557 4.32516 -3.42977 0
M  V30 2993 H 290.033 3.85727 -1.56057 0
M  V30 2994 H 288.909 5.23822 -1.64017 0
M  V30 2995 H 289.17 4.41968 -0.108068 0
M  V30 2996 N 288.23 0.939286 1.26551 0
M  V30 2997 C 289.477 0.585847 1.9384 0
M  V30 2998 C 289.805 -0.874784 1.73718 0
M  V30 2999 O 289.06 -1.64092 1.06642 0
M  V30 3000 C 289.359 0.872106 3.46596 0
M  V30 3001 C 289.025 2.31632 3.86856 0
M  V30 3002 C 287.687 2.71111 3.97558 0
M  V30 3003 C 290.039 3.25494 4.07066 0
M  V30 3004 C 287.367 4.03553 4.25866 0
M  V30 3005 C 289.719 4.57531 4.36862 0
M  V30 3006 C 288.383 4.96828 4.45778 0
M  V30 3007 H 287.653 0.214377 0.709312 0
M  V30 3008 H 290.3 1.18544 1.50398 0
M  V30 3009 H 288.605 0.18996 3.91339 0
M  V30 3010 H 290.302 0.577442 3.96821 0
M  V30 3011 H 286.892 2.00008 3.79071 0
M  V30 3012 H 291.076 2.9619 3.98227 0
M  V30 3013 H 286.332 4.33665 4.30981 0
M  V30 3014 H 290.506 5.30254 4.51446 0
M  V30 3015 H 288.133 5.99482 4.67468 0
M  V30 3016 N 289.708 -1.40897 0.706093 0
M  V30 3017 C 291.119 -1.84023 0.315052 0
M  V30 3018 C 291.47 -1.5906 -1.14866 0
M  V30 3019 O 290.595 -1.06651 -1.88293 0
M  V30 3020 C 291.19 -3.34055 0.565038 0
M  V30 3021 C 289.749 -3.7571 0.227806 0
M  V30 3022 C 288.896 -2.64204 0.842122 0
M  V30 3023 H 291.847 -1.303 0.905963 0
M  V30 3024 H 291.868 -3.80107 -0.172843 0
M  V30 3025 H 291.38 -3.52192 1.63042 0
M  V30 3026 H 289.481 -3.63172 -0.832895 0
M  V30 3027 H 289.594 -4.74103 0.690174 0
M  V30 3028 H 287.958 -2.53255 0.270893 0
M  V30 3029 H 288.741 -2.85155 1.91158 0
M  V30 3030 N 291.186 -0.45159 -1.50991 0
M  V30 3031 C 292.463 0.170707 -1.94854 0
M  V30 3032 C 292.843 1.58788 -1.39103 0
M  V30 3033 O 292.191 2.20913 -0.583921 0
M  V30 3034 C 292.401 0.133929 -3.48743 0
M  V30 3035 C 293.749 0.33248 -4.23296 0
M  V30 3036 O 294.773 0.211403 -3.55572 0
M  V30 3037 O 293.632 0.57486 -5.43468 0
M  V30 3038 H 290.726 0.122264 -0.817912 0
M  V30 3039 H 293.272 -0.510594 -1.61836 0
M  V30 3040 H 292.044 -0.856283 -3.81816 0
M  V30 3041 H 291.667 0.857529 -3.88242 0
M  V30 3042 N 292.664 1.56529 -0.183458 0
M  V30 3043 C 293.91 1.97537 0.459036 0
M  V30 3044 C 294.243 1.06989 1.62071 0
M  V30 3045 O 293.518 0.11948 1.94133 0
M  V30 3046 C 293.801 3.47874 0.930368 0
M  V30 3047 C 293.654 4.492 -0.232317 0
M  V30 3048 C 294.973 4.01612 1.79989 0
M  V30 3049 H 292.092 0.718204 0.165383 0
M  V30 3050 H 294.734 1.88042 -0.272038 0
M  V30 3051 H 292.884 3.56095 1.55333 0
M  V30 3052 H 294.556 4.53027 -0.86972 0
M  V30 3053 H 292.799 4.24657 -0.885928 0
M  V30 3054 H 293.47 5.51823 0.139796 0
M  V30 3055 H 295.946 3.96097 1.27461 0
M  V30 3056 H 294.822 5.07195 2.09867 0
M  V30 3057 H 295.083 3.46163 2.74998 0
M  V30 3058 N 294.142 -0.090211 1.57342 0
M  V30 3059 C 295.419 -0.824761 1.77361 0
M  V30 3060 C 295.799 -1.96698 0.76637 0
M  V30 3061 O 295.147 -2.27586 -0.204179 0
M  V30 3062 C 295.357 -1.31481 3.23286 0
M  V30 3063 C 296.705 -1.75563 3.86604 0
M  V30 3064 O 297.729 -1.41093 3.27065 0
M  V30 3065 O 296.588 -2.39317 4.91314 0
M  V30 3066 H 293.682 -0.393776 0.727234 0
M  V30 3067 H 296.228 -0.0717138 1.69548 0
M  V30 3068 H 295 -0.496671 3.88135 0
M  V30 3069 H 294.623 -2.12973 3.35751 0
M  V30 3070 N 295.62 -1.53406 -0.361157 0
M  V30 3071 C 296.85 -1.73465 -1.1222 0
M  V30 3072 C 297.258 -0.465486 -1.83384 0
M  V30 3073 O 296.601 0.571611 -1.7458 0
M  V30 3074 C 296.663 -2.84834 -2.19339 0
M  V30 3075 C 296.327 -4.25038 -1.67903 0
M  V30 3076 C 297.324 -5.07231 -1.14074 0
M  V30 3077 C 295.009 -4.71464 -1.73282 0
M  V30 3078 C 297.003 -6.33942 -0.663068 0
M  V30 3079 C 294.69 -5.98153 -1.25127 0
M  V30 3080 C 295.688 -6.79223 -0.717296 0
M  V30 3081 O 295.376 -8.03533 -0.242865 0
M  V30 3082 H 295.108 -0.583526 -0.341283 0
M  V30 3083 H 297.662 -2.00964 -0.424591 0
M  V30 3084 H 295.892 -2.5282 -2.92607 0
M  V30 3085 H 297.581 -2.9303 -2.80871 0
M  V30 3086 H 298.347 -4.72534 -1.09254 0
M  V30 3087 H 294.226 -4.08432 -2.13786 0
M  V30 3088 H 297.77 -6.97167 -0.245612 0
M  V30 3089 H 293.667 -6.32347 -1.29642 0
M  V30 3090 H 294.435 -8.177 -0.361786 0
M  V30 3091 N 297.098 0.621204 -1.44841 0
M  V30 3092 C 298.344 1.3826 -1.48365 0
M  V30 3093 C 298.677 1.93831 -0.119624 0
M  V30 3094 O 297.952 1.74251 0.864111 0
M  V30 3095 C 298.235 2.54058 -2.55199 0
M  V30 3096 C 298.088 2.03772 -4.00995 0
M  V30 3097 C 299.407 3.56225 -2.58442 0
M  V30 3098 H 296.526 0.501374 -0.540179 0
M  V30 3099 H 299.168 0.7015 -1.76576 0
M  V30 3100 H 297.318 3.12162 -2.31274 0
M  V30 3101 H 298.99 1.50423 -4.36086 0
M  V30 3102 H 297.233 1.34876 -4.12299 0
M  V30 3103 H 297.904 2.87185 -4.71411 0
M  V30 3104 H 300.38 3.07939 -2.79844 0
M  V30 3105 H 299.256 4.34756 -3.3508 0
M  V30 3106 H 299.517 4.10949 -1.63013 0
M  V30 3107 N 298.576 1.31904 0.862503 0
M  V30 3108 C 299.524 1.20125 1.9918 0
M  V30 3109 C 300.518 0.107824 1.69056 0
M  V30 3110 O 301.724 0.270223 1.7796 0
M  V30 3111 H 298.099 0.372148 0.65346 0
M  V30 3112 H 300.07 2.15652 2.06244 0
M  V30 3113 C 298.819 0.933099 3.34946 0
M  V30 3114 H 298.142 1.76664 3.5865 0
M  V30 3115 H 299.582 0.890892 4.14535 0
M  V30 3116 C 298.041 -0.364172 3.34926 0
M  V30 3117 O 298.571 -1.37858 3.77304 0
M  V30 3118 N 296.777 -0.383362 2.8806 0
M  V30 3119 H 296.324 0.442651 2.53768 0
M  V30 3120 H 296.282 -1.25123 2.8843 0
M  V30 3121 N 300.054 -1.07777 1.14986 0
M  V30 3122 C 301.279 -1.84558 0.946213 0
M  V30 3123 C 301.704 -1.81323 -0.500362 0
M  V30 3124 O 301.062 -1.20301 -1.35637 0
M  V30 3125 C 301.11 -3.29736 1.45968 0
M  V30 3126 O 300.214 -4.07149 0.65601 0
M  V30 3127 H 299.555 -0.571641 0.33782 0
M  V30 3128 H 302.085 -1.35991 1.52865 0
M  V30 3129 H 302.095 -3.80574 1.47063 0
M  V30 3130 H 300.77 -3.31406 2.51283 0
M  V30 3131 H 299.347 -3.65994 0.714322 0
M  V30 3132 N 301.532 -0.945985 -1.26051 0
M  V30 3133 C 302.76 -0.613025 -1.9761 0
M  V30 3134 C 303.175 0.813035 -1.70397 0
M  V30 3135 O 302.532 1.54274 -0.974979 0
M  V30 3136 C 302.583 -0.85159 -3.51326 0
M  V30 3137 O 302.304 -2.22157 -3.77595 0
M  V30 3138 C 303.805 -0.529831 -4.40122 0
M  V30 3139 H 301.025 -0.230593 -0.630133 0
M  V30 3140 H 303.569 -1.268 -1.60443 0
M  V30 3141 H 301.724 -0.243151 -3.86636 0
M  V30 3142 H 302.138 -2.2852 -4.721 0
M  V30 3143 H 303.612 -0.747348 -5.46917 0
M  V30 3144 H 304.089 0.535341 -4.35925 0
M  V30 3145 H 304.695 -1.11721 -4.10364 0
M  V30 3146 N 303.011 1.40521 -0.713556 0
M  V30 3147 C 303.921 2.34522 -0.0606667 0
M  V30 3148 C 304.937 1.57193 0.74607 0
M  V30 3149 O 306.113 1.89591 0.679493 0
M  V30 3150 C 303.178 3.36081 0.851491 0
M  V30 3151 C 302.239 4.29286 0.0349339 0
M  V30 3152 C 301.472 5.25994 0.903649 0
M  V30 3153 O 301.695 5.28616 2.14292 0
M  V30 3154 O 300.629 6.00918 0.343723 0
M  V30 3155 H 304.455 2.91968 -0.835972 0
M  V30 3156 H 302.04 1.41681 -0.47402 0
M  V30 3157 H 303.922 3.98369 1.37404 0
M  V30 3158 H 302.597 2.81052 1.60598 0
M  V30 3159 H 301.504 3.70289 -0.532633 0
M  V30 3160 H 302.837 4.87462 -0.681287 0
M  V30 3161 N 304.489 0.459591 1.5075 0
M  V30 3162 C 305.452 -0.329093 2.26825 0
M  V30 3163 C 306.452 -0.930481 1.31144 0
M  V30 3164 O 307.642 -0.801453 1.54669 0
M  V30 3165 C 304.774 -1.46768 3.07688 0
M  V30 3166 H 305.967 0.337924 2.9799 0
M  V30 3167 H 303.52 0.213336 1.54837 0
M  V30 3168 H 304.255 -2.17009 2.40993 0
M  V30 3169 H 304.04 -1.04238 3.77991 0
M  V30 3170 H 305.53 -2.02433 3.65254 0
M  V30 3171 N 305.967 -1.56429 0.191757 0
M  V30 3172 C 306.877 -2.22541 -0.742481 0
M  V30 3173 C 307.893 -1.22342 -1.23727 0
M  V30 3174 O 309.069 -1.55069 -1.28513 0
M  V30 3175 C 306.134 -2.8692 -1.94623 0
M  V30 3176 C 305.195 -4.02378 -1.49633 0
M  V30 3177 C 304.428 -4.63678 -2.6427 0
M  V30 3178 O 304.651 -4.23895 -3.81666 0
M  V30 3179 O 303.585 -5.53202 -2.37174 0
M  V30 3180 H 307.411 -3.02977 -0.209462 0
M  V30 3181 H 304.996 -1.49353 -0.0373832 0
M  V30 3182 H 306.878 -3.27663 -2.64982 0
M  V30 3183 H 305.553 -2.09466 -2.46791 0
M  V30 3184 H 304.46 -3.66265 -0.761636 0
M  V30 3185 H 305.793 -4.81487 -1.02134 0
M  V30 3186 N 307.445 0.0818655 -1.57387 0
M  V30 3187 C 308.673 0.796108 -1.9097 0
M  V30 3188 C 309.088 1.71626 -0.786757 0
M  V30 3189 O 308.445 1.80908 0.240513 0
M  V30 3190 C 308.496 1.59829 -3.24248 0
M  V30 3191 O 308.217 0.715131 -4.32224 0
M  V30 3192 C 309.718 2.41442 -3.7178 0
M  V30 3193 H 306.938 0.22691 -0.631469 0
M  V30 3194 H 309.482 0.0551439 -2.04426 0
M  V30 3195 H 307.637 2.29163 -3.12351 0
M  V30 3196 H 308.051 1.27205 -5.08841 0
M  V30 3197 H 309.525 2.932 -4.67694 0
M  V30 3198 H 310.002 3.2051 -3.00283 0
M  V30 3199 H 310.608 1.77283 -3.86589 0
M  V30 3200 N 308.923 1.53595 0.353017 0
M  V30 3201 C 310.172 1.69603 1.09168 0
M  V30 3202 C 310.485 0.460925 1.90092 0
M  V30 3203 O 311.691 0.501774 2.66823 0
M  V30 3204 C 310.147 2.99872 1.9901 0
M  V30 3205 C 309.755 4.30687 1.23339 0
M  V30 3206 C 311.499 3.25246 2.72792 0
M  V30 3207 C 309.406 5.52036 2.12156 0
M  V30 3208 H 308.336 0.631966 0.411261 0
M  V30 3209 H 310.987 1.80096 0.351802 0
M  V30 3210 H 309.369 2.83212 2.7678 0
M  V30 3211 H 310.543 4.58019 0.505456 0
M  V30 3212 H 308.858 4.11853 0.613663 0
M  V30 3213 H 311.455 4.13095 3.39495 0
M  V30 3214 H 311.798 2.41846 3.38846 0
M  V30 3215 H 312.331 3.42638 2.021 0
M  V30 3216 H 309.07 6.37951 1.50659 0
M  V30 3217 H 308.59 5.28966 2.82764 0
M  V30 3218 H 310.269 5.87313 2.71427 0
M  V30 3219 N 310.401 -0.613514 1.45168 0
M  V30 3220 C 311.331 -1.7354 1.56225 0
M  V30 3221 C 312.312 -1.64981 0.41414 0
M  V30 3222 O 313.497 -1.83472 0.636526 0
M  V30 3223 C 310.627 -3.12128 1.52295 0
M  V30 3224 C 309.581 -3.35491 2.65762 0
M  V30 3225 C 308.907 -4.74291 2.46885 0
M  V30 3226 C 310.207 -3.26325 4.0781 0
M  V30 3227 H 311.901 -1.64543 2.50132 0
M  V30 3228 H 309.447 -0.790185 1.20383 0
M  V30 3229 H 311.4 -3.90404 1.58628 0
M  V30 3230 H 310.124 -3.2195 0.549139 0
M  V30 3231 H 308.783 -2.59603 2.58847 0
M  V30 3232 H 308.431 -4.80839 1.47657 0
M  V30 3233 H 308.131 -4.9088 3.22972 0
M  V30 3234 H 309.655 -5.54775 2.55063 0
M  V30 3235 H 311.069 -3.94483 4.16 0
M  V30 3236 H 309.466 -3.54445 4.8424 0
M  V30 3237 H 310.536 -2.23855 4.30136 0
M  V30 3238 N 311.879 -1.3236 -0.855495 0
M  V30 3239 C 313.156 -1.13491 -1.59309 0
M  V30 3240 C 313.536 0.30503 -2.08885 0
M  V30 3241 O 312.884 1.30151 -1.87811 0
M  V30 3242 C 313.094 -2.16176 -2.73987 0
M  V30 3243 C 314.442 -2.49463 -3.43589 0
M  V30 3244 O 315.466 -2.14715 -2.84211 0
M  V30 3245 O 314.325 -3.09027 -4.50738 0
M  V30 3246 H 311.419 -0.437887 -0.701559 0
M  V30 3247 H 313.965 -1.43887 -0.899696 0
M  V30 3248 H 312.737 -3.1297 -2.34873 0
M  V30 3249 H 312.36 -1.86769 -3.51003 0
M  V30 3250 N 313.357 1.07166 -1.15556 0
M  V30 3251 C 314.305 2.16517 -0.8499 0
M  V30 3252 C 315.299 1.68468 0.177454 0
M  V30 3253 O 316.505 1.79971 0.0323026 0
M  V30 3254 H 312.88 0.706652 -0.25719 0
M  V30 3255 H 314.851 2.39514 -1.77976 0
M  V30 3256 C 313.6 3.45855 -0.357682 0
M  V30 3257 H 312.923 3.83214 -1.13961 0
M  V30 3258 H 314.363 4.23607 -0.182489 0
M  V30 3259 C 312.822 3.24062 0.921152 0
M  V30 3260 O 313.352 3.48813 1.9923 0
M  V30 3261 N 311.558 2.77539 0.86141 0
M  V30 3262 H 311.105 2.57598 -0.0104408 0
M  V30 3263 H 311.063 2.63337 1.71758 0
M  V30 3264 N 314.835 0.952656 1.25548 0
M  V30 3265 C 316.084 0.602053 1.92505 0
M  V30 3266 C 316.397 -0.864663 1.75451 0
M  V30 3267 O 317.603 -1.32514 2.36965 0
M  V30 3268 C 316.059 1.02607 3.44963 0
M  V30 3269 C 315.667 2.51519 3.70732 0
M  V30 3270 C 317.411 0.747905 4.1786 0
M  V30 3271 C 315.318 2.87732 5.16686 0
M  V30 3272 H 314.248 0.22146 0.720744 0
M  V30 3273 H 316.899 1.15684 1.42441 0
M  V30 3274 H 315.281 0.399712 3.93978 0
M  V30 3275 H 316.455 3.19157 3.32378 0
M  V30 3276 H 314.77 2.76786 3.11092 0
M  V30 3277 H 317.367 0.994647 5.25367 0
M  V30 3278 H 317.71 -0.315629 4.15102 0
M  V30 3279 H 318.243 1.33452 3.74747 0
M  V30 3280 H 314.982 3.93095 5.24554 0
M  V30 3281 H 314.502 2.24765 5.56094 0
M  V30 3282 H 316.181 2.76817 5.84792 0
M  V30 3283 N 316.313 -1.40141 0.720998 0
M  V30 3284 C 317.541 -2.05096 0.272656 0
M  V30 3285 C 317.956 -1.54334 -1.0875 0
M  V30 3286 O 317.313 -0.702211 -1.6845 0
M  V30 3287 C 317.364 -3.60636 0.249835 0
M  V30 3288 O 317.085 -4.09526 1.55629 0
M  V30 3289 C 318.586 -4.42772 -0.216396 0
M  V30 3290 H 315.806 -0.659897 0.121558 0
M  V30 3291 H 318.35 -1.79449 0.980723 0
M  V30 3292 H 316.505 -3.85232 -0.409237 0
M  V30 3293 H 316.919 -5.03758 1.4604 0
M  V30 3294 H 318.393 -5.51702 -0.181212 0
M  V30 3295 H 318.87 -4.20756 -1.25941 0
M  V30 3296 H 319.476 -4.23294 0.412596 0
M  V30 3297 N 317.792 -0.46758 -1.50504 0
M  V30 3298 C 318.724 0.364655 -2.26281 0
M  V30 3299 C 319.737 0.960151 -1.31472 0
M  V30 3300 O 320.926 0.849153 -1.57008 0
M  V30 3301 C 318.026 1.52509 -3.02645 0
M  V30 3302 C 317.199 1.04302 -4.24782 0
M  V30 3303 C 316.258 2.07709 -4.8347 0
M  V30 3304 O 315.284 1.65913 -5.44483 0
M  V30 3305 N 316.486 3.40485 -4.70159 0
M  V30 3306 H 319.251 -0.28495 -2.98342 0
M  V30 3307 H 316.812 -0.298163 -1.59131 0
M  V30 3308 H 318.804 2.21371 -3.38787 0
M  V30 3309 H 317.374 2.07945 -2.33404 0
M  V30 3310 H 316.594 0.180393 -3.93787 0
M  V30 3311 H 317.882 0.698798 -5.03978 0
M  V30 3312 H 317.28 3.77155 -4.21629 0
M  V30 3313 H 315.837 4.05156 -5.1058 0
M  V30 3314 N 319.27 1.56325 -0.20005 0
M  V30 3315 C 320.495 2.02548 0.44597 0
M  V30 3316 C 320.92 1.07922 1.5406 0
M  V30 3317 O 320.278 0.0635775 1.81188 0
M  V30 3318 C 320.326 3.47175 0.974761 0
M  V30 3319 O 319.43 3.55671 2.08739 0
M  V30 3320 H 318.771 0.655862 0.103638 0
M  V30 3321 H 321.301 2.02201 -0.312381 0
M  V30 3322 H 321.311 3.87067 1.2901 0
M  V30 3323 H 319.986 4.15538 0.17347 0
M  V30 3324 H 318.563 3.27657 1.78032 0
M  V30 3325 N 320.748 -0.0735177 1.57428 0
M  V30 3326 C 321.976 -0.785969 1.9139 0
M  V30 3327 C 322.391 -1.71207 0.795847 0
M  V30 3328 O 321.748 -1.81033 -0.230915 0
M  V30 3329 C 321.799 -1.58107 3.25091 0
M  V30 3330 O 321.52 -0.6922 4.32597 0
M  V30 3331 C 323.021 -2.39467 3.73055 0
M  V30 3332 H 320.241 -0.223558 0.632663 0
M  V30 3333 H 322.785 -0.044302 2.04452 0
M  V30 3334 H 320.94 -2.27503 3.13562 0
M  V30 3335 H 321.354 -1.24504 5.09508 0
M  V30 3336 H 322.828 -2.90716 4.69242 0
M  V30 3337 H 323.305 -3.18913 3.01979 0
M  V30 3338 H 323.911 -1.7523 3.87523 0
M  V30 3339 N 322.226 -1.5378 -0.344866 0
M  V30 3340 C 323.158 -1.77988 -1.44406 0
M  V30 3341 C 324.171 -0.661138 -1.48771 0
M  V30 3342 O 325.36 -0.937842 -1.51877 0
M  V30 3343 C 322.46 -1.86345 -2.8307 0
M  V30 3344 C 321.633 -3.16256 -3.0216 0
M  V30 3345 C 320.692 -3.15588 -4.21059 0
M  V30 3346 O 319.718 -3.89314 -4.15239 0
M  V30 3347 N 320.92 -2.37864 -5.29529 0
M  V30 3348 H 323.685 -2.72839 -1.24012 0
M  V30 3349 H 321.246 -1.52814 -0.534737 0
M  V30 3350 H 323.238 -1.83351 -3.60783 0
M  V30 3351 H 321.808 -0.986858 -2.96614 0
M  V30 3352 H 321.028 -3.32385 -2.11929 0
M  V30 3353 H 322.316 -4.0207 -3.11797 0
M  V30 3354 H 321.714 -1.77514 -5.37127 0
M  V30 3355 H 320.271 -2.40668 -6.05741 0
M  V30 3356 N 323.704 0.605807 -1.45491 0
M  V30 3357 C 324.929 1.39625 -1.53361 0
M  V30 3358 C 325.354 1.87351 -0.167645 0
M  V30 3359 O 324.712 1.60243 0.848051 0
M  V30 3360 C 324.76 2.57559 -2.5238 0
M  V30 3361 O 323.864 3.58248 -2.04285 0
M  V30 3362 H 323.205 0.416771 -0.516912 0
M  V30 3363 H 325.735 0.737103 -1.90861 0
M  V30 3364 H 325.745 3.0478 -2.71244 0
M  V30 3365 H 324.42 2.22171 -3.51586 0
M  V30 3366 H 322.997 3.17664 -1.95305 0
M  V30 3367 N 325.182 1.32811 0.848464 0
M  V30 3368 C 326.429 1.23724 1.60308 0
M  V30 3369 C 326.757 -0.1994 1.93475 0
M  V30 3370 O 326.012 -1.15406 1.5805 0
M  V30 3371 C 326.311 2.04831 2.92881 0
M  V30 3372 C 325.977 3.54125 2.79117 0
M  V30 3373 C 324.639 3.94829 2.7507 0
M  V30 3374 C 326.991 4.49036 2.64606 0
M  V30 3375 C 324.319 5.28675 2.544 0
M  V30 3376 C 326.671 5.83033 2.4547 0
M  V30 3377 C 325.335 6.22931 2.39819 0
M  V30 3378 H 324.605 0.452737 0.586609 0
M  V30 3379 H 327.252 1.64301 0.983743 0
M  V30 3380 H 325.557 1.57001 3.58968 0
M  V30 3381 H 327.254 1.95164 3.50303 0
M  V30 3382 H 323.844 3.21801 2.83094 0
M  V30 3383 H 328.028 4.18505 2.66772 0
M  V30 3384 H 323.284 5.58637 2.48465 0
M  V30 3385 H 327.458 6.56186 2.33222 0
M  V30 3386 H 325.085 7.26584 2.23562 0
M  V30 3387 N 326.66 -1.06551 1.16123 0
M  V30 3388 C 327.608 -2.16063 0.861371 0
M  V30 3389 C 328.602 -1.6856 -0.168517 0
M  V30 3390 O 329.808 -1.79986 -0.0227579 0
M  V30 3391 H 326.183 -0.705278 0.260934 0
M  V30 3392 H 328.154 -2.38567 1.79244 0
M  V30 3393 C 326.903 -3.45661 0.376018 0
M  V30 3394 H 326.226 -3.82604 1.15992 0
M  V30 3395 H 327.666 -4.23504 0.204951 0
M  V30 3396 C 326.125 -3.24546 -0.903954 0
M  V30 3397 O 326.655 -3.49865 -1.97377 0
M  V30 3398 N 324.861 -2.77992 -0.846679 0
M  V30 3399 H 324.408 -2.57589 0.0241017 0
M  V30 3400 H 324.366 -2.64244 -1.70359 0
M  V30 3401 N 328.138 -0.959301 -1.25041 0
M  V30 3402 C 329.415 -0.533805 -1.88175 0
M  V30 3403 C 329.795 0.988994 -1.865 0
M  V30 3404 O 329.143 1.85677 -1.33177 0
M  V30 3405 C 329.353 -1.11575 -3.30684 0
M  V30 3406 C 330.701 -1.19548 -4.07423 0
M  V30 3407 O 331.725 -1.06765 -3.39823 0
M  V30 3408 O 330.584 -1.39656 -5.28354 0
M  V30 3409 H 327.678 -0.176772 -0.807887 0
M  V30 3410 H 330.224 -1.05303 -1.33076 0
M  V30 3411 H 328.996 -2.15884 -3.26358 0
M  V30 3412 H 328.619 -0.580059 -3.93346 0
M  V30 3413 N 329.616 1.39756 -0.72842 0
M  V30 3414 C 330.863 2.00645 -0.273487 0
M  V30 3415 C 331.191 1.57786 1.13727 0
M  V30 3416 O 330.446 0.794886 1.7883 0
M  V30 3417 C 330.745 3.56002 -0.315776 0
M  V30 3418 C 330.411 4.18489 -1.67863 0
M  V30 3419 C 329.073 4.3527 -2.05166 0
M  V30 3420 C 331.425 4.53219 -2.57375 0
M  V30 3421 C 328.753 4.84069 -3.31503 0
M  V30 3422 C 331.105 5.03423 -3.83077 0
M  V30 3423 C 329.769 5.18413 -4.20481 0
M  V30 3424 H 329.039 0.734211 -0.100076 0
M  V30 3425 H 331.686 1.6718 -0.933972 0
M  V30 3426 H 329.991 3.89452 0.428285 0
M  V30 3427 H 331.688 4.00963 0.0542575 0
M  V30 3428 H 328.278 4.05824 -1.37858 0
M  V30 3429 H 332.462 4.39878 -2.29827 0
M  V30 3430 H 327.718 4.93859 -3.60435 0
M  V30 3431 H 331.892 5.2927 -4.52599 0
M  V30 3432 H 329.519 5.55987 -5.18443 0
M  V30 3433 N 331.094 0.475555 1.50254 0
M  V30 3434 C 332.322 -0.0754493 2.06762 0
M  V30 3435 C 332.737 -1.33111 1.33891 0
M  V30 3436 O 332.094 -1.77846 0.40952 0
M  V30 3437 C 332.145 -0.359008 3.59713 0
M  V30 3438 O 331.866 0.846851 4.29837 0
M  V30 3439 C 333.367 -0.956484 4.32858 0
M  V30 3440 H 330.587 0.00907525 0.670939 0
M  V30 3441 H 333.131 0.665618 1.93364 0
M  V30 3442 H 331.286 -1.05001 3.72899 0
M  V30 3443 H 331.7 0.594162 5.21124 0
M  V30 3444 H 333.174 -1.10463 5.40834 0
M  V30 3445 H 333.651 -1.94775 3.93649 0
M  V30 3446 H 334.257 -0.303723 4.24214 0
M  V30 3447 N 332.573 -1.56217 0.208337 0
M  V30 3448 C 333.989 -1.58919 -0.14729 0
M  V30 3449 C 334.189 -1.22486 -1.59998 0
M  V30 3450 O 333.245 -0.953849 -2.3379 0
M  V30 3451 C 334.558 -3.00236 0.167048 0
M  V30 3452 C 336.106 -3.12813 0.108219 0
M  V30 3453 C 336.581 -4.56284 0.396049 0
M  V30 3454 N 338.072 -4.61912 0.345142 0
M  V30 3455 C 338.807 -5.70837 0.541523 0
M  V30 3456 N 338.303 -6.88178 0.798968 0
M  V30 3457 N 340.096 -5.60091 0.474867 0
M  V30 3458 H 332.247 -1.78177 1.15614 0
M  V30 3459 H 334.51 -0.827555 0.462446 0
M  V30 3460 H 334.216 -3.31499 1.1748 0
M  V30 3461 H 334.09 -3.7354 -0.524184 0
M  V30 3462 H 336.477 -2.81354 -0.890157 0
M  V30 3463 H 336.558 -2.41866 0.832729 0
M  V30 3464 H 336.202 -4.88458 1.3918 0
M  V30 3465 H 336.132 -5.25439 -0.349502 0
M  V30 3466 H 338.623 -3.77589 0.153316 0
M  V30 3467 H 338.936 -7.67095 0.93727 0
M  V30 3468 H 337.281 -6.89953 0.836013 0
M  V30 3469 H 340.472 -4.67297 0.274064 0
M  V30 3470 H 340.645 -6.44917 0.631326 0
M  V30 3471 N 334.051 0.0651679 -1.57465 0
M  V30 3472 C 335.297 0.764193 -1.87851 0
M  V30 3473 C 335.63 1.76889 -0.801495 0
M  V30 3474 O 334.905 1.93594 0.187528 0
M  V30 3475 C 335.188 1.46625 -3.28897 0
M  V30 3476 C 335.041 0.477515 -4.47258 0
M  V30 3477 C 336.36 2.4095 -3.68281 0
M  V30 3478 H 333.479 0.276351 -0.683227 0
M  V30 3479 H 336.121 0.0272868 -1.8998 0
M  V30 3480 H 334.271 2.09438 -3.27212 0
M  V30 3481 H 335.943 -0.145922 -4.61069 0
M  V30 3482 H 334.186 -0.206576 -4.33308 0
M  V30 3483 H 334.857 1.0065 -5.42746 0
M  V30 3484 H 337.333 1.88209 -3.71102 0
M  V30 3485 H 336.209 2.87072 -4.67847 0
M  V30 3486 H 336.47 3.26049 -2.98571 0
M  V30 3487 N 335.529 1.53961 0.336706 0
M  V30 3488 C 336.775 1.7179 1.07777 0
M  V30 3489 C 337.108 0.483263 1.88091 0
M  V30 3490 O 336.383 -0.519747 1.87427 0
M  V30 3491 C 336.666 2.98558 2.01334 0
M  V30 3492 C 336.519 4.32245 1.24437 0
M  V30 3493 C 337.838 3.21023 3.01052 0
M  V30 3494 H 334.957 0.625089 0.390426 0
M  V30 3495 H 337.599 1.86641 0.35567 0
M  V30 3496 H 335.749 2.86028 2.62908 0
M  V30 3497 H 337.421 4.56637 0.654243 0
M  V30 3498 H 335.664 4.30344 0.546458 0
M  V30 3499 H 336.335 5.17137 1.93063 0
M  V30 3500 H 338.811 3.32929 2.49595 0
M  V30 3501 H 337.687 4.11104 3.6371 0
M  V30 3502 H 337.948 2.37637 3.72802 0
M  V30 3503 N 337.007 -0.598083 1.45811 0
M  V30 3504 C 338.255 -1.35413 1.50026 0
M  V30 3505 C 338.576 -1.94444 0.147177 0
M  V30 3506 O 337.846 -1.77701 -0.824571 0
M  V30 3507 H 336.426 -0.502727 0.552517 0
M  V30 3508 H 339.088 -0.701606 1.81834 0
M  V30 3509 H 338.184 -2.16871 2.2444 0
M  V30 3510 N 338.485 -1.33259 -0.841409 0
M  V30 3511 C 339.733 -1.24326 -1.59334 0
M  V30 3512 C 340.054 0.191564 -1.94057 0
M  V30 3513 O 339.324 1.11967 -1.60749 0
M  V30 3514 H 337.904 -0.457174 -0.590763 0
M  V30 3515 H 340.566 -1.66947 -1.00571 0
M  V30 3516 H 339.662 -1.8352 -2.52442 0
M  V30 3517 N 339.963 1.05934 -1.16686 0
M  V30 3518 C 340.873 2.17014 -0.891183 0
M  V30 3519 C 341.889 1.73453 0.137907 0
M  V30 3520 O 343.065 2.01361 -0.039592 0
M  V30 3521 C 340.13 3.44384 -0.400099 0
M  V30 3522 C 339.191 4.02433 -1.49486 0
M  V30 3523 C 338.424 5.23723 -1.02711 0
M  V30 3524 O 338.647 5.7027 0.121716 0
M  V30 3525 O 337.581 5.7382 -1.81699 0
M  V30 3526 H 341.407 2.43113 -1.82015 0
M  V30 3527 H 338.992 1.15541 -0.947132 0
M  V30 3528 H 340.874 4.21189 -0.133392 0
M  V30 3529 H 339.549 3.19802 0.500817 0
M  V30 3530 H 338.456 3.27102 -1.81535 0
M  V30 3531 H 339.789 4.31317 -2.37121 0
M  V30 3532 N 341.441 0.965919 1.2453 0
M  V30 3533 C 342.718 0.543777 1.87889 0
M  V30 3534 C 343.098 -0.97909 1.87021 0
M  V30 3535 O 342.446 -1.84969 1.3416 0
M  V30 3536 C 342.656 1.13327 3.30088 0
M  V30 3537 C 344.004 1.21707 4.06783 0
M  V30 3538 O 345.028 1.08566 3.39252 0
M  V30 3539 O 343.887 1.42456 5.27606 0
M  V30 3540 H 340.981 0.181054 0.806938 0
M  V30 3541 H 343.527 1.06007 1.32516 0
M  V30 3542 H 342.299 2.17612 3.25209 0
M  V30 3543 H 341.922 0.600911 3.93033 0
M  V30 3544 N 342.919 -1.39368 0.735821 0
M  V30 3545 C 343.882 -2.2896 0.104874 0
M  V30 3546 C 344.882 -1.46347 -0.666274 0
M  V30 3547 O 346.072 -1.67014 -0.49517 0
M  V30 3548 C 343.204 -3.29857 -0.860656 0
M  V30 3549 H 344.397 -2.86259 0.894205 0
M  V30 3550 H 341.95 -1.48029 0.501704 0
M  V30 3551 H 342.685 -2.77615 -1.67631 0
M  V30 3552 H 342.47 -3.9087 -0.310327 0
M  V30 3553 H 343.96 -3.96893 -1.29867 0
M  V30 3554 N 344.397 -0.483516 -1.5 0
M  V30 3555 C 345.344 0.304164 -2.28787 0
M  V30 3556 C 346.314 0.976114 -1.34392 0
M  V30 3557 O 347.499 0.986156 -1.63339 0
M  V30 3558 C 344.639 1.37298 -3.16612 0
M  V30 3559 C 343.752 0.714561 -4.26049 0
M  V30 3560 C 342.887 1.76232 -5.01114 0
M  V30 3561 C 341.926 1.08483 -6.0241 0
M  V30 3562 N 341.063 2.076 -6.70706 0
M  V30 3563 H 345.903 -0.373981 -2.95644 0
M  V30 3564 H 343.44 -0.196275 -1.45785 0
M  V30 3565 H 345.398 2.00445 -3.65893 0
M  V30 3566 H 344.028 2.02012 -2.51776 0
M  V30 3567 H 343.08 -0.0297798 -3.80388 0
M  V30 3568 H 344.392 0.180383 -4.98474 0
M  V30 3569 H 343.546 2.46929 -5.54176 0
M  V30 3570 H 342.285 2.33033 -4.28424 0
M  V30 3571 H 341.29 0.363545 -5.48597 0
M  V30 3572 H 342.515 0.523551 -6.77079 0
M  V30 3573 H 340.461 2.63394 -6.00799 0
M  V30 3574 H 340.378 1.59201 -7.39047 0
M  V30 3575 H 341.646 2.77639 -7.2838 0
M  V30 3576 N 345.875 1.56104 -0.216619 0
M  V30 3577 C 347.286 1.844 0.292128 0
M  V30 3578 C 347.637 1.13788 1.59833 0
M  V30 3579 O 346.762 0.405888 2.12559 0
M  V30 3580 C 347.357 3.3452 0.53681 0
M  V30 3581 C 345.916 3.63151 0.989876 0
M  V30 3582 C 345.063 2.77255 0.0502302 0
M  V30 3583 H 348.014 1.52481 -0.439926 0
M  V30 3584 H 348.035 3.54459 1.38345 0
M  V30 3585 H 347.547 3.85885 -0.414031 0
M  V30 3586 H 345.648 3.17238 1.95425 0
M  V30 3587 H 345.761 4.71177 0.867698 0
M  V30 3588 H 344.125 2.48555 0.556117 0
M  V30 3589 H 344.908 3.31416 -0.89544 0
M  V30 3590 N 347.353 -0.0568162 1.57498 0
M  V30 3591 C 348.601 -0.751617 1.87604 0
M  V30 3592 C 348.922 -1.77351 0.81066 0
M  V30 3593 O 348.192 -1.95254 -0.159018 0
M  V30 3594 H 346.772 -0.280583 0.692302 0
M  V30 3595 H 349.434 -0.0293483 1.94878 0
M  V30 3596 H 348.53 -1.25852 2.856 0
M  V30 3597 N 348.832 -1.54138 -0.328536 0
M  V30 3598 C 349.764 -1.79509 -1.4251 0
M  V30 3599 C 350.777 -0.67688 -1.48061 0
M  V30 3600 O 351.966 -0.953898 -1.50874 0
M  V30 3601 C 349.066 -1.89337 -2.81078 0
M  V30 3602 C 348.239 -3.19443 -2.98789 0
M  V30 3603 C 347.298 -3.20036 -4.17688 0
M  V30 3604 O 346.324 -3.93697 -4.11086 0
M  V30 3605 N 347.526 -2.43467 -5.26976 0
M  V30 3606 H 350.291 -2.74139 -1.21111 0
M  V30 3607 H 347.852 -1.53373 -0.518499 0
M  V30 3608 H 349.844 -1.87167 -3.58818 0
M  V30 3609 H 348.414 -1.01826 -2.95551 0
M  V30 3610 H 347.634 -3.34614 -2.08391 0
M  V30 3611 H 348.922 -4.05354 -3.07515 0
M  V30 3612 H 348.32 -1.83201 -5.35214 0
M  V30 3613 H 346.877 -2.4708 -6.03154 0
M  V30 3614 N 350.31 0.590341 -1.46126 0
M  V30 3615 C 351.557 1.34882 -1.5104 0
M  V30 3616 C 351.885 1.93849 -0.159021 0
M  V30 3617 O 351.14 1.76544 0.844436 0
M  V30 3618 C 351.439 2.5032 -2.55097 0
M  V30 3619 C 351.105 2.09394 -3.99331 0
M  V30 3620 C 349.767 1.97947 -4.38601 0
M  V30 3621 C 352.119 1.77712 -4.89967 0
M  V30 3622 C 349.447 1.53065 -5.66381 0
M  V30 3623 C 351.799 1.34312 -6.18177 0
M  V30 3624 C 350.463 1.21436 -6.56361 0
M  V30 3625 H 349.733 0.493568 -0.552695 0
M  V30 3626 H 352.38 0.665539 -1.79563 0
M  V30 3627 H 350.685 3.24062 -2.20207 0
M  V30 3628 H 352.382 3.08541 -2.56132 0
M  V30 3629 H 348.972 2.19235 -3.68285 0
M  V30 3630 H 353.156 1.85445 -4.60352 0
M  V30 3631 H 348.412 1.41733 -5.94745 0
M  V30 3632 H 352.586 1.08849 -6.87841 0
M  V30 3633 H 350.213 0.864345 -7.5527 0
M  V30 3634 N 351.788 1.33704 0.83433 0
M  V30 3635 C 353.199 1.22813 1.4062 0
M  V30 3636 C 353.55 -0.151107 1.95617 0
M  V30 3637 O 352.675 -1.05092 1.89168 0
M  V30 3638 C 353.27 2.22355 2.55624 0
M  V30 3639 C 351.829 2.1529 3.08751 0
M  V30 3640 C 350.976 2.09589 1.8157 0
M  V30 3641 H 353.927 1.45236 0.639702 0
M  V30 3642 H 353.948 1.83391 3.33389 0
M  V30 3643 H 353.46 3.22728 2.15566 0
M  V30 3644 H 351.561 1.18235 3.53343 0
M  V30 3645 H 351.674 3.06038 3.68616 0
M  V30 3646 H 350.038 1.55134 2.02004 0
M  V30 3647 H 350.821 3.11777 1.43701 0
M  V30 3648 N 353.266 -1.05314 1.17247 0
M  V30 3649 C 354.512 -1.78699 0.971513 0
M  V30 3650 C 354.867 -1.85932 -0.494692 0
M  V30 3651 O 354.16 -1.34716 -1.36243 0
M  V30 3652 C 354.354 -3.2229 1.54479 0
M  V30 3653 C 354.183 -3.29052 3.06521 0
M  V30 3654 C 352.953 -3.3841 3.75242 0
M  V30 3655 C 355.151 -3.18095 4.04129 0
M  V30 3656 N 353.133 -3.34289 5.14902 0
M  V30 3657 C 354.504 -3.21331 5.30232 0
M  V30 3658 C 356.559 -3.02049 3.95817 0
M  V30 3659 C 355.262 -3.10169 6.4899 0
M  V30 3660 C 357.288 -2.92228 5.14156 0
M  V30 3661 C 356.65 -2.96096 6.39145 0
M  V30 3662 H 352.749 -0.66628 0.409383 0
M  V30 3663 H 355.333 -1.25553 1.4881 0
M  V30 3664 H 353.504 -3.7381 1.05455 0
M  V30 3665 H 355.236 -3.83905 1.28059 0
M  V30 3666 H 351.991 -3.43621 3.25917 0
M  V30 3667 H 352.415 -3.35702 5.87906 0
M  V30 3668 H 357.057 -2.97897 3.00029 0
M  V30 3669 H 354.775 -3.13076 7.44989 0
M  V30 3670 H 358.361 -2.80885 5.09505 0
M  V30 3671 H 357.241 -2.88568 7.29176 0
M  V30 3672 N 354.744 -0.972509 -1.24016 0
M  V30 3673 C 355.676 -0.464375 -2.24446 0
M  V30 3674 C 356.689 0.4295 -1.57032 0
M  V30 3675 O 357.878 0.234902 -1.76948 0
M  V30 3676 C 354.978 0.348385 -3.37105 0
M  V30 3677 C 354.151 -0.53673 -4.34094 0
M  V30 3678 C 353.21 0.220838 -5.25736 0
M  V30 3679 O 352.236 -0.386867 -5.67884 0
M  V30 3680 N 353.438 1.50907 -5.60542 0
M  V30 3681 H 356.203 -1.32788 -2.68677 0
M  V30 3682 H 353.764 -0.844877 -1.38107 0
M  V30 3683 H 355.756 0.863341 -3.95384 0
M  V30 3684 H 354.326 1.11285 -2.92121 0
M  V30 3685 H 353.546 -1.23261 -3.74433 0
M  V30 3686 H 354.834 -1.14022 -4.95859 0
M  V30 3687 H 354.232 2.02444 -5.28236 0
M  V30 3688 H 352.789 1.96962 -6.21329 0
M  V30 3689 N 356.222 1.38976 -0.743202 0
M  V30 3690 C 357.468 2.0064 -0.295189 0
M  V30 3691 C 357.801 1.5885 1.11716 0
M  V30 3692 O 357.076 0.821181 1.76315 0
M  V30 3693 C 357.359 3.578 -0.406318 0
M  V30 3694 C 357.212 4.09586 -1.85903 0
M  V30 3695 C 358.531 4.39616 0.206439 0
M  V30 3696 H 355.65 0.728935 -0.108733 0
M  V30 3697 H 358.292 1.65067 -0.940897 0
M  V30 3698 H 356.442 3.88235 0.143419 0
M  V30 3699 H 358.114 3.89837 -2.46627 0
M  V30 3700 H 356.357 3.6284 -2.3776 0
M  V30 3701 H 357.028 5.18708 -1.888 0
M  V30 3702 H 359.504 4.15273 -0.262283 0
M  V30 3703 H 358.38 5.48812 0.0983819 0
M  V30 3704 H 358.641 4.22754 1.2935 0
M  V30 3705 N 357.7 0.491464 1.49741 0
M  V30 3706 C 358.946 -0.0565092 2.02721 0
M  V30 3707 C 359.279 -1.37522 1.37118 0
M  V30 3708 O 358.554 -1.87866 0.503645 0
M  V30 3709 C 358.837 -0.219051 3.59433 0
M  V30 3710 C 358.69 1.12211 4.35579 0
M  V30 3711 C 360.009 -0.964157 4.29409 0
M  V30 3712 H 357.128 -0.0190627 0.736753 0
M  V30 3713 H 359.77 0.641021 1.7886 0
M  V30 3714 H 357.92 -0.813165 3.79895 0
M  V30 3715 H 359.592 1.75437 4.26637 0
M  V30 3716 H 357.835 1.71377 3.98513 0
M  V30 3717 H 358.506 0.961794 5.43556 0
M  V30 3718 H 360.982 -0.460378 4.13545 0
M  V30 3719 H 359.858 -1.04671 5.38828 0
M  V30 3720 H 360.119 -2.00563 3.93988 0
M  V30 3721 N 359.178 -1.55987 0.224894 0
M  V30 3722 C 360.108 -2.23426 -0.678457 0
M  V30 3723 C 361.089 -1.20709 -1.19847 0
M  V30 3724 O 362.274 -1.49304 -1.24186 0
M  V30 3725 C 359.404 -2.91676 -1.88527 0
M  V30 3726 C 358.358 -4.00893 -1.49896 0
M  V30 3727 C 357.684 -4.56455 -2.78483 0
M  V30 3728 C 358.984 -5.17769 -0.686461 0
M  V30 3729 H 360.678 -2.99175 -0.116173 0
M  V30 3730 H 358.224 -1.43897 -0.054436 0
M  V30 3731 H 360.177 -3.37547 -2.5227 0
M  V30 3732 H 358.901 -2.1338 -2.47258 0
M  V30 3733 H 357.56 -3.55758 -0.884985 0
M  V30 3734 H 357.208 -3.74886 -3.35365 0
M  V30 3735 H 356.908 -5.30169 -2.53368 0
M  V30 3736 H 358.432 -5.05047 -3.43162 0
M  V30 3737 H 359.846 -5.60001 -1.22767 0
M  V30 3738 H 358.243 -5.97735 -0.532259 0
M  V30 3739 H 359.313 -4.83932 0.306196 0
M  V30 3740 N 360.656 0.0484629 -1.57525 0
M  V30 3741 C 361.604 1.07359 -2.06341 0
M  V30 3742 C 362.598 1.3865 -0.973269 0
M  V30 3743 O 363.804 1.37783 -1.15827 0
M  V30 3744 H 360.179 0.363662 -0.65822 0
M  V30 3745 H 362.15 0.635916 -2.91545 0
M  V30 3746 C 360.899 2.37198 -2.54229 0
M  V30 3747 H 360.222 2.13977 -3.37719 0
M  V30 3748 H 361.662 3.07319 -2.92115 0
M  V30 3749 C 360.121 3.04805 -1.43511 0
M  V30 3750 O 360.651 3.93848 -0.79034 0
M  V30 3751 N 358.857 2.65811 -1.17444 0
M  V30 3752 H 358.404 1.93488 -1.70059 0
M  V30 3753 H 358.362 3.11366 -0.435737 0
M  V30 3754 N 362.134 1.5431 0.320358 0
M  V30 3755 C 363.382 1.72327 1.05583 0
M  V30 3756 C 363.703 0.50149 1.88441 0
M  V30 3757 O 362.973 -0.48448 1.89815 0
M  V30 3758 H 361.553 0.635387 0.3928 0
M  V30 3759 H 364.215 1.91621 0.356019 0
M  V30 3760 H 363.311 2.60426 1.72003 0
M  V30 3761 N 363.613 -0.582584 1.46437 0
M  V30 3762 C 364.56 -1.69164 1.5701 0
M  V30 3763 C 365.53 -1.60847 0.414403 0
M  V30 3764 O 366.715 -1.80058 0.631171 0
M  V30 3765 C 363.855 -3.075 1.56646 0
M  V30 3766 C 362.968 -3.2644 2.82951 0
M  V30 3767 C 362.103 -4.55026 2.7409 0
M  V30 3768 C 361.142 -4.6731 3.95333 0
M  V30 3769 N 360.279 -5.87221 3.84858 0
M  V30 3770 H 365.119 -1.59464 2.51744 0
M  V30 3771 H 362.656 -0.777186 1.24893 0
M  V30 3772 H 364.614 -3.8757 1.5442 0
M  V30 3773 H 363.244 -3.16096 0.654439 0
M  V30 3774 H 362.296 -2.39974 2.95155 0
M  V30 3775 H 363.608 -3.31385 3.72808 0
M  V30 3776 H 362.762 -5.43324 2.6997 0
M  V30 3777 H 361.501 -4.52519 1.81873 0
M  V30 3778 H 360.506 -3.77429 3.99784 0
M  V30 3779 H 361.731 -4.71595 4.88646 0
M  V30 3780 H 359.677 -5.85712 2.95427 0
M  V30 3781 H 359.594 -5.93435 4.6837 0
M  V30 3782 H 360.862 -6.7795 3.84713 0
M  V30 3783 N 365.091 -1.34144 -0.827227 0
M  V30 3784 C 366.337 -1.26446 -1.58554 0
M  V30 3785 C 366.67 0.1664 -1.93486 0
M  V30 3786 O 365.945 1.1107 -1.59667 0
M  V30 3787 C 366.228 -2.15111 -2.8879 0
M  V30 3788 C 366.081 -3.66712 -2.60465 0
M  V30 3789 C 367.4 -2.03311 -3.90324 0
M  V30 3790 H 364.519 -0.46067 -0.575284 0
M  V30 3791 H 367.161 -1.64356 -0.953269 0
M  V30 3792 H 365.311 -1.8291 -3.42748 0
M  V30 3793 H 366.983 -4.09259 -2.1285 0
M  V30 3794 H 365.226 -3.88014 -1.93978 0
M  V30 3795 H 365.897 -4.24112 -3.53317 0
M  V30 3796 H 368.373 -2.31574 -3.45706 0
M  V30 3797 H 367.249 -2.67582 -4.79261 0
M  V30 3798 H 367.51 -1.00879 -4.30437 0
M  V30 3799 N 366.569 1.04691 -1.17803 0
M  V30 3800 C 367.846 1.7472 -0.879328 0
M  V30 3801 C 368.226 2.01812 0.619271 0
M  V30 3802 O 367.574 1.65824 1.57209 0
M  V30 3803 C 367.784 3.03686 -1.71976 0
M  V30 3804 C 369.132 3.77542 -1.94286 0
M  V30 3805 O 370.156 3.13569 -1.68976 0
M  V30 3806 O 369.015 4.92506 -2.36855 0
M  V30 3807 H 366.109 0.760011 -0.326056 0
M  V30 3808 H 368.655 1.10813 -1.28525 0
M  V30 3809 H 367.427 2.79754 -2.73594 0
M  V30 3810 H 367.05 3.75332 -1.31194 0
M  V30 3811 N 368.047 0.979072 1.23499 0
M  V30 3812 C 369.01 0.523244 2.23147 0
M  V30 3813 C 370.01 -0.386406 1.56088 0
M  V30 3814 O 371.2 -0.180283 1.73265 0
M  V30 3815 C 368.332 -0.240739 3.40049 0
M  V30 3816 H 369.525 1.40432 2.64989 0
M  V30 3817 H 367.078 0.764824 1.36309 0
M  V30 3818 H 367.813 -1.13841 3.03662 0
M  V30 3819 H 367.598 0.412207 3.89927 0
M  V30 3820 H 369.088 -0.548297 4.13985 0
M  V30 3821 N 369.525 -1.3858 0.750561 0
M  V30 3822 C 370.772 -2.00184 0.305373 0
M  V30 3823 C 371.1 -1.59575 -1.11203 0
M  V30 3824 O 370.355 -0.823236 -1.77542 0
M  V30 3825 C 370.654 -3.55455 0.372373 0
M  V30 3826 C 370.32 -4.15765 1.745 0
M  V30 3827 C 368.982 -4.31951 2.12065 0
M  V30 3828 C 371.334 -4.49067 2.64553 0
M  V30 3829 C 368.662 -4.78734 3.39162 0
M  V30 3830 C 371.014 -4.97265 3.91038 0
M  V30 3831 C 369.678 -5.11658 4.28676 0
M  V30 3832 H 368.948 -0.732526 0.111744 0
M  V30 3833 H 371.595 -1.65673 0.960451 0
M  V30 3834 H 369.9 -3.90084 -0.366272 0
M  V30 3835 H 371.597 -4.00999 0.00953918 0
M  V30 3836 H 368.187 -4.03579 1.44297 0
M  V30 3837 H 372.371 -4.36166 2.36796 0
M  V30 3838 H 367.627 -4.88062 3.68246 0
M  V30 3839 H 371.801 -5.22003 4.60962 0
M  V30 3840 H 369.428 -5.47668 5.27222 0
M  V30 3841 N 371.003 -0.499398 -1.49478 0
M  V30 3842 C 372.243 0.0440751 -2.04352 0
M  V30 3843 C 372.607 1.34423 -1.37093 0
M  V30 3844 O 373.808 1.97184 -1.82679 0
M  V30 3845 C 372.079 0.194918 -3.56868 0
M  V30 3846 S 373.638 0.69287 -4.33295 0
M  V30 3847 H 370.456 0.00253458 -0.710995 0
M  V30 3848 H 373.058 -0.673 -1.83551 0
M  V30 3849 H 371.762 -0.756672 -4.03364 0
M  V30 3850 H 371.293 0.93728 -3.82071 0
M  V30 3851 H 373.308 1.96226 -4.55752 0
M  V30 3852 N 372.481 1.55866 -0.233164 0
M  V30 3853 C 373.729 1.9821 0.394593 0
M  V30 3854 C 374.05 1.12234 1.59463 0
M  V30 3855 O 373.32 0.201981 1.94856 0
M  V30 3856 H 371.9 0.732034 0.148778 0
M  V30 3857 H 374.562 1.92107 -0.32876 0
M  V30 3858 H 373.658 3.03845 0.713063 0
M  V30 3859 N 373.959 -0.0401083 1.57549 0
M  V30 3860 C 375.207 -0.731677 1.8839 0
M  V30 3861 C 375.528 -1.76481 0.829425 0
M  V30 3862 O 374.798 -1.95411 -0.1383 0
M  V30 3863 H 373.378 -0.273225 0.695239 0
M  V30 3864 H 376.04 -0.00867725 1.94898 0
M  V30 3865 H 375.136 -1.22816 2.86919 0
M  V30 3866 N 375.437 -1.54477 -0.31217 0
M  V30 3867 C 376.662 -1.77526 -1.07235 0
M  V30 3868 C 377.087 -0.527775 -1.80544 0
M  V30 3869 O 376.445 0.52121 -1.73646 0
M  V30 3870 C 376.493 -2.97535 -2.03728 0
M  V30 3871 O 375.597 -2.69878 -3.11833 0
M  V30 3872 H 374.938 -0.58792 -0.30862 0
M  V30 3873 H 377.468 -2.01532 -0.352993 0
M  V30 3874 H 377.478 -3.25198 -2.46395 0
M  V30 3875 H 376.153 -3.87996 -1.49774 0
M  V30 3876 H 374.73 -2.53199 -2.7376 0
M  V30 3877 N 376.915 0.57481 -1.46744 0
M  V30 3878 C 378.164 1.32898 -1.51727 0
M  V30 3879 C 378.477 1.948 -0.176692 0
M  V30 3880 O 379.683 2.71299 -0.104385 0
M  V30 3881 C 378.139 2.40901 -2.67385 0
M  V30 3882 C 377.747 1.85266 -4.07898 0
M  V30 3883 C 379.491 3.17609 -2.81646 0
M  V30 3884 C 377.398 2.90945 -5.14883 0
M  V30 3885 H 376.328 0.499631 -0.564699 0
M  V30 3886 H 378.979 0.612536 -1.72975 0
M  V30 3887 H 377.361 3.15379 -2.39483 0
M  V30 3888 H 378.535 1.17278 -4.45626 0
M  V30 3889 H 376.85 1.21199 -3.98371 0
M  V30 3890 H 379.447 3.96493 -3.58744 0
M  V30 3891 H 379.79 3.70696 -1.89448 0
M  V30 3892 H 380.323 2.50239 -3.09233 0
M  V30 3893 H 377.062 2.42736 -6.089 0
M  V30 3894 H 376.582 3.57398 -4.81691 0
M  V30 3895 H 378.261 3.54755 -5.41071 0
M  V30 3896 N 378.394 1.34581 0.820102 0
M  V30 3897 C 379.64 1.27285 1.57881 0
M  V30 3898 C 379.973 -0.156137 1.93571 0
M  V30 3899 O 379.248 -1.10222 1.60254 0
M  V30 3900 C 379.531 2.16639 2.87645 0
M  V30 3901 C 379.384 3.68088 2.58517 0
M  V30 3902 C 380.703 2.05378 3.8924 0
M  V30 3903 H 377.822 0.463714 0.572833 0
M  V30 3904 H 380.464 1.64859 0.944539 0
M  V30 3905 H 378.614 1.84725 3.41773 0
M  V30 3906 H 380.286 4.10382 2.10676 0
M  V30 3907 H 378.529 3.89038 1.91917 0
M  V30 3908 H 379.2 4.2598 3.51063 0
M  V30 3909 H 381.676 2.33404 3.44473 0
M  V30 3910 H 380.552 2.7012 4.77835 0
M  V30 3911 H 380.813 1.0316 4.29896 0
M  V30 3912 N 379.872 -1.04064 1.18357 0
M  V30 3913 C 380.82 -2.14187 0.907007 0
M  V30 3914 C 381.814 -1.68879 -0.132725 0
M  V30 3915 O 383.02 -1.79993 0.0154248 0
M  V30 3916 H 379.395 -0.699585 0.275835 0
M  V30 3917 H 381.366 -2.34711 1.84264 0
M  V30 3918 C 380.115 -3.44785 0.449254 0
M  V30 3919 H 379.438 -3.80058 1.24081 0
M  V30 3920 H 380.878 -4.22974 0.294737 0
M  V30 3921 C 379.337 -3.26391 -0.834909 0
M  V30 3922 O 379.867 -3.53973 -1.89911 0
M  V30 3923 N 378.073 -2.79726 -0.787523 0
M  V30 3924 H 377.62 -2.5748 0.0787347 0
M  V30 3925 H 377.578 -2.67798 -1.64716 0
M  V30 3926 N 381.35 -0.985608 -1.22978 0
M  V30 3927 C 382.26 -0.538548 -2.28335 0
M  V30 3928 C 383.276 0.409163 -1.69121 0
M  V30 3929 O 384.452 0.277797 -1.99475 0
M  V30 3930 C 381.517 0.146867 -3.46389 0
M  V30 3931 C 380.578 -0.842896 -4.20944 0
M  V30 3932 C 379.811 -0.190095 -5.33361 0
M  V30 3933 O 380.034 1.01767 -5.61248 0
M  V30 3934 O 378.968 -0.891289 -5.95264 0
M  V30 3935 H 382.794 -1.41487 -2.68729 0
M  V30 3936 H 380.379 -0.753495 -1.29007 0
M  V30 3937 H 382.261 0.531125 -4.1804 0
M  V30 3938 H 380.936 0.997871 -3.07935 0
M  V30 3939 H 379.843 -1.27795 -3.51595 0
M  V30 3940 H 381.176 -1.66287 -4.6326 0
M  V30 3941 N 382.828 1.3818 -0.7579 0
M  V30 3942 C 383.775 2.30416 -0.133057 0
M  V30 3943 C 384.745 1.50398 0.704957 0
M  V30 3944 O 385.93 1.79014 0.660192 0
M  V30 3945 C 383.07 3.36834 0.750813 0
M  V30 3946 C 382.183 4.31879 -0.102297 0
M  V30 3947 C 381.318 5.25368 0.784979 0
M  V30 3948 C 380.357 6.12058 -0.0715046 0
M  V30 3949 N 379.494 6.97832 0.772972 0
M  V30 3950 H 384.334 2.83274 -0.925186 0
M  V30 3951 H 381.871 1.39461 -0.467866 0
M  V30 3952 H 383.829 3.97145 1.27794 0
M  V30 3953 H 382.459 2.85374 1.50868 0
M  V30 3954 H 381.511 3.72991 -0.747095 0
M  V30 3955 H 382.823 4.92921 -0.763552 0
M  V30 3956 H 381.977 5.90818 1.37911 0
M  V30 3957 H 380.716 4.64703 1.47996 0
M  V30 3958 H 379.721 5.456 -0.678272 0
M  V30 3959 H 380.946 6.74793 -0.763606 0
M  V30 3960 H 378.892 6.3971 1.45282 0
M  V30 3961 H 378.809 7.55812 0.168709 0
M  V30 3962 H 380.077 7.67687 1.35194 0
M  V30 3963 N 384.306 0.507319 1.49211 0
M  V30 3964 C 385.552 -0.0269732 2.03382 0
M  V30 3965 C 385.907 -1.34111 1.37957 0
M  V30 3966 O 385.2 -1.84733 0.508351 0
M  V30 3967 C 385.394 -0.229513 3.56662 0
M  V30 3968 C 385.223 1.06344 4.36945 0
M  V30 3969 C 383.993 1.617 4.78729 0
M  V30 3970 C 386.191 1.96833 4.75143 0
M  V30 3971 N 384.173 2.8552 5.43463 0
M  V30 3972 C 385.544 3.0523 5.39661 0
M  V30 3973 C 387.599 1.97434 4.57082 0
M  V30 3974 C 386.302 4.14265 5.88028 0
M  V30 3975 C 388.328 3.05448 5.06414 0
M  V30 3976 C 387.69 4.12564 5.70938 0
M  V30 3977 H 383.789 0.0310673 0.781383 0
M  V30 3978 H 386.373 0.683579 1.82305 0
M  V30 3979 H 384.544 -0.909127 3.7761 0
M  V30 3980 H 386.276 -0.761377 3.97473 0
M  V30 3981 H 383.031 1.16132 4.59141 0
M  V30 3982 H 383.455 3.48499 5.80412 0
M  V30 3983 H 388.097 1.15924 4.06597 0
M  V30 3984 H 385.815 4.96569 6.3753 0
M  V30 3985 H 389.401 3.06941 4.94246 0
M  V30 3986 H 388.281 4.94767 6.0842 0
M  V30 3987 N 385.784 -1.5574 0.241426 0
M  V30 3988 C 387.033 -1.97986 -0.385295 0
M  V30 3989 C 387.346 -1.13267 -1.59468 0
M  V30 3990 O 388.552 -1.45501 -2.2922 0
M  V30 3991 C 387.008 -3.52275 -0.736884 0
M  V30 3992 C 386.616 -4.45726 0.450796 0
M  V30 3993 C 388.36 -4.03189 -1.3281 0
M  V30 3994 C 386.267 -5.91352 0.0756662 0
M  V30 3995 H 385.197 -0.739386 -0.147731 0
M  V30 3996 H 387.848 -1.80308 0.340779 0
M  V30 3997 H 386.23 -3.65628 -1.52094 0
M  V30 3998 H 387.404 -4.44131 1.22819 0
M  V30 3999 H 385.719 -4.05264 0.956573 0
M  V30 4000 H 388.316 -5.09505 -1.62201 0
M  V30 4001 H 388.659 -3.50212 -2.25071 0
M  V30 4002 H 389.192 -3.93141 -0.607069 0
M  V30 4003 H 385.931 -6.48354 0.965272 0
M  V30 4004 H 385.451 -5.96095 -0.665635 0
M  V30 4005 H 387.13 -6.46084 -0.344075 0
M  V30 4006 N 387.262 0.0317525 -1.57568 0
M  V30 4007 C 388.508 0.724175 -1.8943 0
M  V30 4008 C 388.841 1.75149 -0.838836 0
M  V30 4009 O 388.116 1.93948 0.146422 0
M  V30 4010 C 388.399 1.39615 -3.31933 0
M  V30 4011 C 388.252 0.382537 -4.4817 0
M  V30 4012 C 389.571 2.33084 -3.73309 0
M  V30 4013 H 386.69 0.261797 -0.688935 0
M  V30 4014 H 389.332 -0.013017 -1.89996 0
M  V30 4015 H 387.482 2.02451 -3.31581 0
M  V30 4016 H 389.154 -0.243689 -4.60656 0
M  V30 4017 H 387.397 -0.29844 -4.32772 0
M  V30 4018 H 388.068 0.891145 -5.44759 0
M  V30 4019 H 390.544 1.80295 -3.7501 0
M  V30 4020 H 389.42 2.77084 -4.73831 0
M  V30 4021 H 389.681 3.19643 -3.05419 0
M  V30 4022 N 388.74 1.54641 0.303973 0
M  V30 4023 C 389.968 1.77768 1.05858 0
M  V30 4024 C 390.383 0.535722 1.8104 0
M  V30 4025 O 389.74 -0.494337 1.75677 0
M  V30 4026 C 389.791 2.9834 2.04146 0
M  V30 4027 O 389.512 4.17736 1.32015 0
M  V30 4028 C 391.013 3.33832 2.91669 0
M  V30 4029 H 388.233 0.592961 0.314067 0
M  V30 4030 H 390.777 2.01583 0.344149 0
M  V30 4031 H 388.932 2.76742 2.71096 0
M  V30 4032 H 389.346 4.85693 1.97998 0
M  V30 4033 H 390.82 4.21448 3.56491 0
M  V30 4034 H 391.297 2.51857 3.59812 0
M  V30 4035 H 391.903 3.57579 2.30254 0
M  V30 4036 N 390.218 -0.567019 1.47046 0
M  V30 4037 C 391.181 -1.65696 1.58359 0
M  V30 4038 C 392.181 -1.54097 0.459441 0
M  V30 4039 O 393.371 -1.58432 0.724225 0
M  V30 4040 C 390.503 -3.05197 1.51879 0
M  V30 4041 H 391.696 -1.57019 2.5551 0
M  V30 4042 H 389.249 -0.786148 1.3509 0
M  V30 4043 H 389.984 -3.19417 0.560673 0
M  V30 4044 H 389.769 -3.15025 2.33455 0
M  V30 4045 H 391.259 -3.84511 1.62913 0
M  V30 4046 N 391.696 -1.35014 -0.812953 0
M  V30 4047 C 392.659 -1.27292 -1.90602 0
M  V30 4048 C 393.659 -0.185817 -1.59723 0
M  V30 4049 O 394.849 -0.439102 -1.68575 0
M  V30 4050 C 391.981 -0.967676 -3.26877 0
M  V30 4051 H 393.174 -2.24479 -1.9887 0
M  V30 4052 H 390.727 -1.19446 -1.00808 0
M  V30 4053 H 391.462 0.0005954 -3.243 0
M  V30 4054 H 391.247 -1.75412 -3.50675 0
M  V30 4055 H 392.737 -0.939085 -4.06904 0
M  V30 4056 N 393.175 1.03435 -1.18907 0
M  V30 4057 C 394.125 2.09924 -0.889706 0
M  V30 4058 C 395.109 1.60261 0.143216 0
M  V30 4059 O 396.301 1.76892 -0.0617122 0
M  V30 4060 C 393.43 3.40669 -0.424168 0
M  V30 4061 C 392.516 3.97082 -1.48952 0
M  V30 4062 N 392.907 4.27227 -2.70759 0
M  V30 4063 C 391.205 4.25029 -1.35152 0
M  V30 4064 C 391.906 4.7246 -3.39347 0
M  V30 4065 N 390.882 4.7366 -2.66735 0
M  V30 4066 H 394.684 2.31116 -1.81555 0
M  V30 4067 H 392.198 1.21246 -1.08042 0
M  V30 4068 H 394.195 4.16461 -0.191176 0
M  V30 4069 H 392.855 3.20901 0.495263 0
M  V30 4070 H 393.866 4.16678 -3.0757 0
M  V30 4071 H 390.543 4.14554 -0.495126 0
M  V30 4072 H 391.933 5.04751 -4.43481 0
M  V30 4073 N 394.653 0.992116 1.22453 0
M  V30 4074 C 395.893 0.675727 1.92907 0
M  V30 4075 C 396.257 -0.777762 1.75542 0
M  V30 4076 O 397.458 -1.20553 2.40251 0
M  V30 4077 C 395.729 1.0696 3.4102 0
M  V30 4078 S 397.288 0.871456 4.30059 0
M  V30 4079 H 394.106 0.247089 0.666684 0
M  V30 4080 H 396.708 1.27423 1.48269 0
M  V30 4081 H 395.412 2.12383 3.51172 0
M  V30 4082 H 394.943 0.462858 3.90668 0
M  V30 4083 H 396.958 -0.238436 4.95627 0
M  V30 4084 N 396.131 -1.37776 0.765217 0
M  V30 4085 C 397.377 -2.00145 0.327072 0
M  V30 4086 C 397.71 -1.60607 -1.09175 0
M  V30 4087 O 396.985 -0.849127 -1.74986 0
M  V30 4088 C 397.268 -3.57109 0.46319 0
M  V30 4089 C 397.121 -4.06576 1.92395 0
M  V30 4090 C 398.44 -4.39888 -0.136473 0
M  V30 4091 H 395.559 -0.727113 0.120316 0
M  V30 4092 H 398.201 -1.63549 0.967039 0
M  V30 4093 H 396.351 -3.88414 -0.0816358 0
M  V30 4094 H 398.023 -3.85864 2.52798 0
M  V30 4095 H 396.266 -3.59011 2.43503 0
M  V30 4096 H 396.937 -5.15639 1.97028 0
M  V30 4097 H 399.413 -4.14803 0.328317 0
M  V30 4098 H 398.289 -5.48899 -0.0110582 0
M  V30 4099 H 398.55 -4.24758 -1.22608 0
M  V30 4100 N 397.609 -0.515225 -1.4894 0
M  V30 4101 C 398.519 0.259774 -2.33157 0
M  V30 4102 C 399.535 0.953501 -1.45548 0
M  V30 4103 O 400.711 0.931735 -1.78552 0
M  V30 4104 C 397.776 1.30193 -3.21326 0
M  V30 4105 C 396.837 0.620129 -4.24797 0
M  V30 4106 C 396.07 1.61263 -5.08753 0
M  V30 4107 O 396.293 2.84389 -4.94448 0
M  V30 4108 O 395.227 1.16013 -5.90614 0
M  V30 4109 H 399.053 -0.429932 -3.00641 0
M  V30 4110 H 396.638 -0.276346 -1.46822 0
M  V30 4111 H 398.52 1.90455 -3.75905 0
M  V30 4112 H 397.195 1.97431 -2.56521 0
M  V30 4113 H 396.102 -0.0226019 -3.74093 0
M  V30 4114 H 397.435 -0.0100493 -4.92199 0
M  V30 4115 N 399.087 1.5561 -0.249682 0
M  V30 4116 C 400.315 2.03411 0.378352 0
M  V30 4117 C 400.73 1.12886 1.51335 0
M  V30 4118 O 400.087 0.143833 1.81932 0
M  V30 4119 C 400.138 3.50537 0.88351 0
M  V30 4120 O 399.859 4.37614 -0.20626 0
M  V30 4121 C 401.36 4.14113 1.58195 0
M  V30 4122 H 398.58 0.664994 0.08958 0
M  V30 4123 H 401.124 2.01044 -0.374357 0
M  V30 4124 H 399.279 3.5343 1.58639 0
M  V30 4125 H 399.693 5.24199 0.177782 0
M  V30 4126 H 401.167 5.18741 1.8871 0
M  V30 4127 H 401.644 3.60767 2.50487 0
M  V30 4128 H 402.25 4.15151 0.923573 0
M  V30 4129 N 400.565 -0.0233959 1.57583 0
M  V30 4130 C 401.813 -0.711654 1.89156 0
M  V30 4131 C 402.134 -1.75591 0.848096 0
M  V30 4132 O 401.404 -1.95547 -0.117566 0
M  V30 4133 H 399.984 -0.265835 0.698098 0
M  V30 4134 H 402.646 0.0119948 1.94896 0
M  V30 4135 H 401.742 -1.19766 2.88206 0
M  V30 4136 N 402.043 -1.548 -0.295768 0
M  V30 4137 C 403.289 -1.74588 -1.03184 0
M  V30 4138 C 403.622 -0.532962 -1.86744 0
M  V30 4139 O 402.897 0.469872 -1.88739 0
M  V30 4140 C 403.18 -3.03791 -1.93347 0
M  V30 4141 C 403.033 -4.35392 -1.12933 0
M  V30 4142 C 404.352 -3.28892 -2.92435 0
M  V30 4143 H 401.471 -0.635221 -0.373715 0
M  V30 4144 H 404.113 -1.87519 -0.30606 0
M  V30 4145 H 402.263 -2.92898 -2.55232 0
M  V30 4146 H 403.935 -4.58211 -0.532943 0
M  V30 4147 H 402.178 -4.31642 -0.432168 0
M  V30 4148 H 402.849 -5.22074 -1.79284 0
M  V30 4149 H 405.325 -3.39429 -2.4068 0
M  V30 4150 H 404.201 -4.20603 -3.52682 0
M  V30 4151 H 404.462 -2.47437 -3.6637 0
M  V30 4152 N 403.521 0.559213 -1.47345 0
M  V30 4153 C 404.468 1.66645 -1.59682 0
M  V30 4154 C 405.438 1.60168 -0.43994 0
M  V30 4155 O 406.623 1.79031 -0.659736 0
M  V30 4156 C 403.763 3.04969 -1.61518 0
M  V30 4157 C 402.876 3.21897 -2.88108 0
M  V30 4158 C 402.011 4.50608 -2.81294 0
M  V30 4159 C 401.05 4.60961 -4.02717 0
M  V30 4160 N 400.187 5.81024 -3.94151 0
M  V30 4161 H 405.027 1.55439 -2.54249 0
M  V30 4162 H 402.564 0.757219 -1.26113 0
M  V30 4163 H 404.522 3.85064 -1.60566 0
M  V30 4164 H 403.152 3.15015 -0.704645 0
M  V30 4165 H 402.204 2.35248 -2.98936 0
M  V30 4166 H 403.516 3.25412 -3.78032 0
M  V30 4167 H 402.67 5.3896 -2.7858 0
M  V30 4168 H 401.409 4.49568 -1.89049 0
M  V30 4169 H 400.414 3.71021 -4.05738 0
M  V30 4170 H 401.639 4.63761 -4.96087 0
M  V30 4171 H 399.585 5.80938 -3.04708 0
M  V30 4172 H 399.502 5.85909 -4.77752 0
M  V30 4173 H 400.77 6.71744 -3.9545 0
M  V30 4174 N 404.999 1.35443 0.805782 0
M  V30 4175 C 406.248 1.28097 1.55801 0
M  V30 4176 C 406.561 -0.142428 1.95081 0
M  V30 4177 O 407.767 -0.33817 2.69386 0
M  V30 4178 C 406.223 2.24653 2.81174 0
M  V30 4179 C 405.831 3.72342 2.49129 0
M  V30 4180 C 407.575 2.2625 3.59181 0
M  V30 4181 C 405.482 4.60719 3.70799 0
M  V30 4182 H 404.412 0.475937 0.584808 0
M  V30 4183 H 407.063 1.60712 0.885661 0
M  V30 4184 H 405.445 1.85011 3.50124 0
M  V30 4185 H 406.619 4.20624 1.88181 0
M  V30 4186 H 404.934 3.73361 1.84366 0
M  V30 4187 H 407.531 2.89495 4.49552 0
M  V30 4188 H 407.874 1.26647 3.96568 0
M  V30 4189 H 408.407 2.64426 2.97193 0
M  V30 4190 H 405.146 5.61324 3.3852 0
M  V30 4191 H 404.666 4.17163 4.3097 0
M  V30 4192 H 406.345 4.76182 4.38018 0
M  V30 4193 N 406.477 -1.02803 1.19454 0
M  V30 4194 C 407.705 -1.79841 1.02297 0
M  V30 4195 C 408.12 -1.83879 -0.428259 0
M  V30 4196 O 407.477 -1.28345 -1.29745 0
M  V30 4197 C 407.528 -3.24852 1.58598 0
M  V30 4198 O 407.249 -3.21097 2.98041 0
M  V30 4199 C 408.75 -4.18485 1.46236 0
M  V30 4200 H 405.97 -0.565936 0.360496 0
M  V30 4201 H 408.514 -1.2948 1.58288 0
M  V30 4202 H 406.669 -3.72401 1.06753 0
M  V30 4203 H 407.083 -4.12033 3.24545 0
M  V30 4204 H 408.557 -5.18121 1.90407 0
M  V30 4205 H 409.034 -4.37254 0.41301 0
M  V30 4206 H 409.64 -3.76811 1.97215 0
M  V30 4207 N 407.956 -0.998596 -1.21925 0
M  V30 4208 C 409.202 -0.678667 -1.91107 0
M  V30 4209 C 409.535 0.78791 -1.77498 0
M  V30 4210 O 408.81 1.57043 -1.1475 0
M  V30 4211 C 409.093 -1.09245 -3.43129 0
M  V30 4212 C 408.946 -2.61801 -3.6576 0
M  V30 4213 C 410.265 -0.649984 -4.35274 0
M  V30 4214 H 407.384 -0.248025 -0.694012 0
M  V30 4215 H 410.026 -1.24314 -1.43688 0
M  V30 4216 H 408.176 -0.612171 -3.83647 0
M  V30 4217 H 409.848 -3.17543 -3.34611 0
M  V30 4218 H 408.091 -3.03609 -3.09845 0
M  V30 4219 H 408.762 -2.85804 -4.7225 0
M  V30 4220 H 411.238 -1.0626 -4.02303 0
M  V30 4221 H 410.114 -0.967743 -5.40302 0
M  V30 4222 H 410.375 0.449139 -4.39813 0
M  V30 4223 N 409.434 1.37368 -0.772513 0
M  V30 4224 C 410.68 1.99969 -0.337681 0
M  V30 4225 C 411.013 1.61184 1.08321 0
M  V30 4226 O 410.288 0.858395 1.74533 0
M  V30 4227 C 410.571 3.56858 -0.482121 0
M  V30 4228 C 410.424 4.0555 -1.94549 0
M  V30 4229 C 411.743 4.39955 0.113143 0
M  V30 4230 H 408.862 0.726464 -0.124171 0
M  V30 4231 H 411.504 1.63034 -0.975699 0
M  V30 4232 H 409.654 3.88452 0.0610361 0
M  V30 4233 H 411.326 3.84518 -2.54841 0
M  V30 4234 H 409.569 3.57715 -2.45403 0
M  V30 4235 H 410.24 5.14587 -1.9976 0
M  V30 4236 H 412.716 4.14623 -0.35031 0
M  V30 4237 H 411.592 5.48897 -0.0180514 0
M  V30 4238 H 411.853 4.25403 1.20354 0
M  V30 4239 N 410.912 0.523116 1.48665 0
M  V30 4240 C 411.875 -0.232592 2.28017 0
M  V30 4241 C 412.875 -0.874021 1.34972 0
M  V30 4242 O 414.065 -0.735132 1.57929 0
M  V30 4243 C 411.197 -1.33586 3.13636 0
M  V30 4244 H 412.39 0.464008 2.96289 0
M  V30 4245 H 409.943 0.278816 1.53793 0
M  V30 4246 H 410.678 -2.06593 2.4998 0
M  V30 4247 H 410.463 -0.881125 3.82071 0
M  V30 4248 H 411.953 -1.86759 3.73511 0
M  V30 4249 N 412.39 -1.55475 0.257931 0
M  V30 4250 C 413.638 -1.98813 -0.363009 0
M  V30 4251 C 413.959 -1.14757 -1.57657 0
M  V30 4252 O 413.229 -0.232956 -1.9451 0
M  V30 4253 H 411.809 -0.734308 -0.137113 0
M  V30 4254 H 414.471 -1.9156 0.359281 0
M  V30 4255 H 413.567 -3.04941 -0.664634 0
M  V30 4256 N 413.868 0.0150385 -1.57593 0
M  V30 4257 C 414.778 1.02791 -2.10882 0
M  V30 4258 C 415.794 1.38702 -1.0506 0
M  V30 4259 O 416.97 1.47739 -1.36877 0
M  V30 4260 C 414.035 2.30568 -2.58919 0
M  V30 4261 C 413.096 2.01108 -3.79281 0
M  V30 4262 C 412.329 3.22794 -4.25018 0
M  V30 4263 O 412.552 4.33959 -3.70183 0
M  V30 4264 O 411.486 3.07672 -5.17322 0
M  V30 4265 H 415.312 0.604973 -2.97613 0
M  V30 4266 H 412.897 0.23292 -1.47573 0
M  V30 4267 H 414.779 3.05662 -2.90084 0
M  V30 4268 H 413.454 2.72129 -1.75293 0
M  V30 4269 H 412.361 1.23537 -3.53114 0
M  V30 4270 H 413.694 1.64394 -4.63935 0
M  V30 4271 N 415.346 1.54954 0.287554 0
M  V30 4272 C 416.296 1.8322 1.357 0
M  V30 4273 C 417.28 0.690152 1.45347 0
M  V30 4274 O 418.472 0.951137 1.49273 0
M  V30 4275 C 415.601 2.09481 2.71979 0
M  V30 4276 C 414.687 3.29906 2.66502 0
M  V30 4277 N 415.078 4.50154 2.30641 0
M  V30 4278 C 413.376 3.32203 2.97585 0
M  V30 4279 C 414.077 5.32209 2.34794 0
M  V30 4280 N 413.053 4.70258 2.72688 0
M  V30 4281 H 416.855 2.73746 1.0696 0
M  V30 4282 H 414.369 1.54635 0.496167 0
M  V30 4283 H 416.366 2.27882 3.49107 0
M  V30 4284 H 415.026 1.2023 3.0162 0
M  V30 4285 H 416.037 4.76515 2.02865 0
M  V30 4286 H 412.714 2.53101 3.32034 0
M  V30 4287 H 414.104 6.38321 2.09753 0
M  V30 4288 N 416.824 -0.551391 1.4764 0
M  V30 4289 C 417.772 -1.67896 1.60978 0
M  V30 4290 C 418.766 -1.62549 0.476877 0
M  V30 4291 O 419.972 -1.67664 0.654878 0
M  V30 4292 H 416.347 -0.555649 0.506713 0
M  V30 4293 H 418.318 -1.53784 2.55721 0
M  V30 4294 C 417.067 -3.06234 1.64669 0
M  V30 4295 H 416.39 -3.11033 2.51194 0
M  V30 4296 H 417.83 -3.84804 1.7805 0
M  V30 4297 C 416.289 -3.34737 0.381115 0
M  V30 4298 O 416.819 -3.98381 -0.515297 0
M  V30 4299 N 415.025 -2.8944 0.259354 0
M  V30 4300 H 414.572 -2.37827 0.98976 0
M  V30 4301 H 414.53 -3.08882 -0.586464 0
M  V30 4302 N 418.302 -1.35869 -0.798587 0
M  V30 4303 C 419.551 -1.28921 -1.5512 0
M  V30 4304 C 419.864 0.13208 -1.95154 0
M  V30 4305 O 421.07 0.323879 -2.69561 0
M  V30 4306 C 419.526 -2.26141 -2.79979 0
M  V30 4307 C 419.134 -3.73658 -2.47151 0
M  V30 4308 C 420.878 -2.28152 -3.57976 0
M  V30 4309 C 418.785 -4.62679 -3.6835 0
M  V30 4310 H 417.715 -0.479031 -0.582276 0
M  V30 4311 H 420.366 -1.61179 -0.877125 0
M  V30 4312 H 418.748 -1.86865 -3.49138 0
M  V30 4313 H 419.922 -4.21616 -1.85947 0
M  V30 4314 H 418.237 -3.74333 -1.82383 0
M  V30 4315 H 420.834 -2.91875 -4.4801 0
M  V30 4316 H 421.177 -1.28748 -3.95891 0
M  V30 4317 H 421.71 -2.65998 -2.95787 0
M  V30 4318 H 418.449 -5.63111 -3.35538 0
M  V30 4319 H 417.969 -4.19442 -4.28752 0
M  V30 4320 H 419.648 -4.78498 -4.35487 0
M  V30 4321 N 419.78 1.02168 -1.19998 0
M  V30 4322 C 420.69 2.14069 -0.959774 0
M  V30 4323 C 421.706 1.73804 0.082655 0
M  V30 4324 O 422.882 2.01133 -0.103633 0
M  V30 4325 C 419.947 3.42936 -0.509459 0
M  V30 4326 C 419.008 3.97474 -1.62213 0
M  V30 4327 C 418.241 5.2019 -1.19321 0
M  V30 4328 O 418.464 5.70369 -0.0597726 0
M  V30 4329 O 417.398 5.67749 -1.99863 0
M  V30 4330 H 421.224 2.37199 -1.89658 0
M  V30 4331 H 418.809 1.12469 -0.983411 0
M  V30 4332 H 420.691 4.20551 -0.267322 0
M  V30 4333 H 419.366 3.21234 0.398821 0
M  V30 4334 H 418.273 3.21161 -1.9185 0
M  V30 4335 H 419.606 4.23555 -2.50723 0
M  V30 4336 N 421.258 1.00505 1.21394 0
M  V30 4337 C 422.168 0.574806 2.27449 0
M  V30 4338 C 423.184 -0.382206 1.6975 0
M  V30 4339 O 424.36 -0.246027 1.99892 0
M  V30 4340 C 421.425 -0.0917414 3.46579 0
M  V30 4341 C 420.486 0.909758 4.1955 0
M  V30 4342 C 419.719 0.274924 5.32991 0
M  V30 4343 O 419.942 -0.928254 5.62796 0
M  V30 4344 O 418.876 0.985877 5.93771 0
M  V30 4345 H 422.702 1.45744 2.66444 0
M  V30 4346 H 420.287 0.773923 1.27792 0
M  V30 4347 H 422.169 -0.464551 4.18832 0
M  V30 4348 H 420.844 -0.948755 3.09484 0
M  V30 4349 H 419.751 1.33372 3.49518 0
M  V30 4350 H 421.084 1.73636 4.60555 0
M  V30 4351 N 422.737 -1.36956 0.779787 0
M  V30 4352 C 423.965 -2.03755 0.359398 0
M  V30 4353 C 424.38 -1.58807 -1.02106 0
M  V30 4354 O 423.737 -0.773024 -1.6532 0
M  V30 4355 C 423.788 -3.59251 0.402568 0
M  V30 4356 O 423.509 -4.02557 1.72858 0
M  V30 4357 C 425.01 -4.43291 -0.0284068 0
M  V30 4358 H 422.23 -0.654148 0.149437 0
M  V30 4359 H 424.774 -1.75128 1.05595 0
M  V30 4360 H 422.929 -3.86621 -0.245478 0
M  V30 4361 H 423.343 -4.97111 1.67275 0
M  V30 4362 H 424.817 -5.51975 0.0529466 0
M  V30 4363 H 425.294 -4.25719 -1.07982 0
M  V30 4364 H 425.9 -4.21163 0.591758 0
M  V30 4365 N 424.215 -0.530993 -1.48385 0
M  V30 4366 C 425.125 0.23503 -2.3342 0
M  V30 4367 C 426.141 0.93801 -1.46552 0
M  V30 4368 O 427.317 0.912745 -1.7953 0
M  V30 4369 C 424.382 1.26778 -3.22689 0
M  V30 4370 C 423.443 0.575038 -4.25431 0
M  V30 4371 C 422.676 1.55858 -5.10435 0
M  V30 4372 O 422.899 2.79129 -4.97437 0
M  V30 4373 O 421.833 1.09742 -5.91811 0
M  V30 4374 H 425.659 -0.461794 -3.00169 0
M  V30 4375 H 423.244 -0.291903 -1.46521 0
M  V30 4376 H 425.126 1.86457 -3.77904 0
M  V30 4377 H 423.801 1.94699 -2.586 0
M  V30 4378 H 422.708 -0.0622782 -3.74048 0
M  V30 4379 H 424.041 -0.062253 -4.92161 0
M  V30 4380 N 425.693 1.55336 -0.266172 0
M  V30 4381 C 426.643 2.18848 0.639497 0
M  V30 4382 C 427.627 1.1503 1.12503 0
M  V30 4383 O 428.819 1.40875 1.0716 0
M  V30 4384 C 425.948 2.90626 1.82733 0
M  V30 4385 C 425.034 4.01723 1.35939 0
M  V30 4386 N 425.425 5.02145 0.606988 0
M  V30 4387 C 423.723 4.1463 1.6431 0
M  V30 4388 C 424.424 5.80572 0.362138 0
M  V30 4389 N 423.4 5.35551 0.931971 0
M  V30 4390 H 427.202 2.93845 0.0567057 0
M  V30 4391 H 424.716 1.62252 -0.0693312 0
M  V30 4392 H 426.713 3.34569 2.48735 0
M  V30 4393 H 425.373 2.17137 2.41416 0
M  V30 4394 H 426.384 5.17271 0.255198 0
M  V30 4395 H 423.061 3.52326 2.23993 0
M  V30 4396 H 424.451 6.71472 -0.239848 0
M  V30 4397 N 427.171 -0.0066808 1.57599 0
M  V30 4398 C 428.399 -0.704087 1.94551 0
M  V30 4399 C 428.814 -1.67677 0.867746 0
M  V30 4400 O 428.171 -1.8185 -0.153925 0
M  V30 4401 C 428.222 -1.44177 3.31505 0
M  V30 4402 O 427.943 -0.508097 4.35144 0
M  V30 4403 C 429.444 -2.23429 3.82876 0
M  V30 4404 H 426.664 -0.196523 0.641576 0
M  V30 4405 H 429.208 0.042453 2.04456 0
M  V30 4406 H 427.363 -2.13999 3.22929 0
M  V30 4407 H 427.777 -1.02782 5.14331 0
M  V30 4408 H 429.251 -2.70552 4.8115 0
M  V30 4409 H 429.728 -3.05818 3.15233 0
M  V30 4410 H 430.334 -1.58636 3.94607 0
M  V30 4411 N 428.649 -1.55105 -0.279332 0
M  V30 4412 C 429.559 -1.90638 -1.36727 0
M  V30 4413 C 430.575 -0.802899 -1.54368 0
M  V30 4414 O 431.751 -1.10138 -1.68616 0
M  V30 4415 C 428.816 -2.16547 -2.70755 0
M  V30 4416 C 427.877 -3.40146 -2.61915 0
M  V30 4417 C 427.11 -3.6481 -3.8955 0
M  V30 4418 O 427.333 -2.92095 -4.89935 0
M  V30 4419 O 426.267 -4.58343 -3.90135 0
M  V30 4420 H 430.093 -2.83237 -1.09591 0
M  V30 4421 H 427.678 -1.4157 -0.477306 0
M  V30 4422 H 429.56 -2.34665 -3.50014 0
M  V30 4423 H 428.235 -1.27131 -2.9769 0
M  V30 4424 H 427.142 -3.2737 -1.81052 0
M  V30 4425 H 428.475 -4.29761 -2.3993 0
M  V30 4426 N 430.127 0.543554 -1.4793 0
M  V30 4427 C 431.059 1.665 -1.57513 0
M  V30 4428 C 432.072 1.56156 -0.460333 0
M  V30 4429 O 433.261 1.62865 -0.730573 0
M  V30 4430 C 430.361 3.05063 -1.47614 0
M  V30 4431 C 429.534 3.41024 -2.739 0
M  V30 4432 C 428.593 4.58809 -2.57645 0
M  V30 4433 O 427.619 4.62707 -3.31498 0
M  V30 4434 N 428.821 5.56149 -1.66368 0
M  V30 4435 H 431.586 1.5872 -2.5422 0
M  V30 4436 H 429.147 0.730517 -1.44482 0
M  V30 4437 H 431.139 3.81712 -1.34455 0
M  V30 4438 H 429.709 3.06994 -0.589359 0
M  V30 4439 H 428.929 2.53687 -3.01723 0
M  V30 4440 H 430.217 3.61831 -3.57709 0
M  V30 4441 H 429.615 5.55767 -1.05543 0
M  V30 4442 H 428.172 6.32071 -1.59154 0
M  V30 4443 N 431.605 1.3629 0.791371 0
M  V30 4444 C 432.552 1.30458 1.90393 0
M  V30 4445 C 433.522 0.173632 1.6519 0
M  V30 4446 O 434.707 0.35983 1.87376 0
M  V30 4447 C 431.847 1.09777 3.27174 0
M  V30 4448 C 430.96 2.31929 3.64462 0
M  V30 4449 C 430.095 2.04276 4.90352 0
M  V30 4450 C 429.134 3.224 5.20312 0
M  V30 4451 N 428.271 2.94424 6.37385 0
M  V30 4452 H 433.111 2.25589 1.94714 0
M  V30 4453 H 430.648 1.12122 0.952216 0
M  V30 4454 H 432.606 0.958133 4.06049 0
M  V30 4455 H 431.236 0.183014 3.22281 0
M  V30 4456 H 430.288 2.56703 2.80727 0
M  V30 4457 H 431.6 3.20085 3.82553 0
M  V30 4458 H 430.754 1.87231 5.77087 0
M  V30 4459 H 429.493 1.13428 4.74326 0
M  V30 4460 H 428.498 3.40005 4.32061 0
M  V30 4461 H 429.723 4.14071 5.38258 0
M  V30 4462 H 427.669 2.06185 6.22755 0
M  V30 4463 H 427.586 3.76118 6.55798 0
M  V30 4464 H 428.854 2.80953 7.27108 0
M  V30 4465 N 433.083 -1.0153 1.20538 0
M  V30 4466 C 434.499 -1.27461 0.96051 0
M  V30 4467 C 434.699 -1.98273 -0.359193 0
M  V30 4468 O 433.755 -2.27886 -1.0874 0
M  V30 4469 C 435.068 -2.10837 2.14402 0
M  V30 4470 C 436.616 -2.24099 2.18515 0
M  V30 4471 C 437.091 -3.10852 3.36355 0
M  V30 4472 N 438.582 -3.18441 3.36377 0
M  V30 4473 C 439.317 -3.85795 4.24205 0
M  V30 4474 N 438.813 -4.55264 5.22213 0
M  V30 4475 N 440.606 -3.82331 4.12043 0
M  V30 4476 H 432.757 -0.539907 2.05423 0
M  V30 4477 H 435.02 -0.30092 0.898972 0
M  V30 4478 H 434.726 -1.66144 3.09983 0
M  V30 4479 H 434.6 -3.11576 2.12604 0
M  V30 4480 H 436.987 -2.68016 1.23497 0
M  V30 4481 H 437.068 -1.22865 2.24361 0
M  V30 4482 H 436.712 -2.6764 4.31661 0
M  V30 4483 H 436.642 -4.12177 3.27746 0
M  V30 4484 H 439.133 -2.68978 2.65442 0
M  V30 4485 H 439.446 -5.04331 5.85551 0
M  V30 4486 H 437.791 -4.54085 5.26148 0
M  V30 4487 H 440.982 -3.27207 3.34743 0
M  V30 4488 H 441.155 -4.34547 4.807 0
M  V30 4489 N 434.561 -1.01147 -1.20859 0
M  V30 4490 C 435.509 -0.57059 -2.25493 0
M  V30 4491 C 436.503 0.388109 -1.64894 0
M  V30 4492 O 437.709 0.258592 -1.78133 0
M  V30 4493 H 434.084 -0.166191 -0.733406 0
M  V30 4494 H 436.055 -1.46411 -2.60012 0
M  V30 4495 C 434.804 0.0805241 -3.47607 0
M  V30 4496 H 434.127 -0.648156 -3.94511 0
M  V30 4497 H 435.567 0.352197 -4.22535 0
M  V30 4498 C 434.026 1.32175 -3.09889 0
M  V30 4499 O 434.556 2.41553 -3.20959 0
M  V30 4500 N 432.762 1.20392 -2.64488 0
M  V30 4501 H 432.309 0.313905 -2.5568 0
M  V30 4502 H 432.267 2.03541 -2.39621 0
M  V30 4503 N 436.039 1.36541 -0.78704 0
M  V30 4504 C 437.285 1.99599 -0.358872 0
M  V30 4505 C 437.618 1.62323 1.06606 0
M  V30 4506 O 436.893 0.876858 1.73613 0
M  V30 4507 C 437.176 3.56327 -0.519944 0
M  V30 4508 C 437.029 4.03464 -1.98839 0
M  V30 4509 C 438.348 4.4005 0.0664737 0
M  V30 4510 H 435.467 0.725107 -0.131869 0
M  V30 4511 H 438.109 1.6199 -0.992936 0
M  V30 4512 H 436.259 3.88495 0.0198321 0
M  V30 4513 H 437.931 3.81793 -2.58905 0
M  V30 4514 H 436.174 3.55092 -2.49183 0
M  V30 4515 H 436.845 5.12439 -2.05207 0
M  V30 4516 H 439.321 4.14228 -0.394267 0
M  V30 4517 H 438.197 5.48847 -0.0762682 0
M  V30 4518 H 438.458 4.26655 1.15835 0
M  V30 4519 N 437.518 0.538854 1.48102 0
M  V30 4520 C 438.767 0.0059532 2.01699 0
M  V30 4521 C 439.08 -1.34476 1.42041 0
M  V30 4522 O 440.286 -1.96653 1.87189 0
M  V30 4523 C 438.742 -0.0397627 3.59878 0
M  V30 4524 C 438.35 1.30659 4.28523 0
M  V30 4525 C 440.094 -0.521024 4.2129 0
M  V30 4526 C 438.001 1.22098 5.78659 0
M  V30 4527 H 436.931 -0.00154456 0.753998 0
M  V30 4528 H 439.582 0.683963 1.70277 0
M  V30 4529 H 437.964 -0.783037 3.88181 0
M  V30 4530 H 439.138 2.06613 4.11883 0
M  V30 4531 H 437.453 1.7243 3.79021 0
M  V30 4532 H 440.05 -0.603184 5.31287 0
M  V30 4533 H 440.393 -1.52885 3.8721 0
M  V30 4534 H 440.926 0.166834 3.9745 0
M  V30 4535 H 437.665 2.20424 6.17328 0
M  V30 4536 H 437.185 0.50295 5.97688 0
M  V30 4537 H 438.864 0.915345 6.40492 0
M  V30 4538 N 438.996 -1.55193 0.274407 0
M  V30 4539 C 440.412 -1.59401 -0.0797543 0
M  V30 4540 C 440.612 -1.29162 -1.54659 0
M  V30 4541 O 439.668 -1.05215 -2.29534 0
M  V30 4542 C 440.981 -2.99257 0.294238 0
M  V30 4543 C 442.529 -3.12072 0.240796 0
M  V30 4544 C 443.004 -4.54194 0.589218 0
M  V30 4545 N 444.495 -4.60033 0.540744 0
M  V30 4546 C 445.23 -5.68027 0.783147 0
M  V30 4547 N 444.726 -6.8417 1.09013 0
M  V30 4548 N 446.519 -5.57572 0.711993 0
M  V30 4549 H 438.67 -1.73113 1.23067 0
M  V30 4550 H 440.933 -0.807197 0.497129 0
M  V30 4551 H 440.639 -3.26217 1.31435 0
M  V30 4552 H 440.513 -3.75427 -0.365281 0
M  V30 4553 H 442.9 -2.84877 -0.770024 0
M  V30 4554 H 442.981 -2.38117 0.934563 0
M  V30 4555 H 442.625 -4.82115 1.59772 0
M  V30 4556 H 442.555 -5.26448 -0.126331 0
M  V30 4557 H 445.046 -3.76599 0.313327 0
M  V30 4558 H 445.359 -7.6243 1.26178 0
M  V30 4559 H 443.704 -6.85787 1.12789 0
M  V30 4560 H 446.895 -4.65714 0.472014 0
M  V30 4561 H 447.068 -6.41659 0.90429 0
M  V30 4562 N 440.474 -0.00167713 -1.576 0
M  V30 4563 C 441.723 0.682021 -1.89819 0
M  V30 4564 C 442.036 1.74844 -0.876871 0
M  V30 4565 O 443.242 2.48688 -1.08934 0
M  V30 4566 C 441.698 1.26425 -3.36964 0
M  V30 4567 C 441.306 0.232568 -4.47396 0
M  V30 4568 C 443.05 1.92604 -3.78291 0
M  V30 4569 C 440.957 0.824882 -5.85619 0
M  V30 4570 H 439.887 0.258499 -0.708304 0
M  V30 4571 H 442.538 -0.0624957 -1.83394 0
M  V30 4572 H 440.92 2.05949 -3.38232 0
M  V30 4573 H 442.094 -0.5382 -4.57646 0
M  V30 4574 H 440.409 -0.32888 -4.15099 0
M  V30 4575 H 443.006 2.37827 -4.78897 0
M  V30 4576 H 443.349 2.75732 -3.11894 0
M  V30 4577 H 443.882 1.19812 -3.79328 0
M  V30 4578 H 440.621 0.0323542 -6.55492 0
M  V30 4579 H 440.141 1.56477 -5.79029 0
M  V30 4580 H 441.82 1.32301 -6.33329 0
M  V30 4581 N 441.952 1.55251 0.271103 0
M  V30 4582 C 443.201 1.75151 1.00025 0
M  V30 4583 C 443.514 0.561041 1.87381 0
M  V30 4584 O 444.72 0.642506 2.63788 0
M  V30 4585 C 443.176 3.09999 1.82835 0
M  V30 4586 C 442.784 4.3662 1.00336 0
M  V30 4587 C 444.528 3.39249 2.55168 0
M  V30 4588 C 442.435 5.62506 1.82595 0
M  V30 4589 H 441.365 0.652877 0.377183 0
M  V30 4590 H 444.016 1.81708 0.255843 0
M  V30 4591 H 442.398 2.97485 2.61378 0
M  V30 4592 H 443.572 4.60055 0.261959 0
M  V30 4593 H 441.887 4.14527 0.394486 0
M  V30 4594 H 444.484 4.3051 3.1712 0
M  V30 4595 H 444.827 2.59467 3.2555 0
M  V30 4596 H 445.36 3.52869 1.83653 0
M  V30 4597 H 442.099 6.45041 1.16631 0
M  V30 4598 H 441.619 5.43211 2.54327 0
M  V30 4599 H 443.298 6.00875 2.39913 0
M  V30 4600 N 443.43 -0.535701 1.48216 0
M  V30 4601 C 444.841 -1.11769 1.49548 0
M  V30 4602 C 445.192 -1.94442 0.26207 0
M  V30 4603 O 444.317 -2.06987 -0.631287 0
M  V30 4604 C 444.912 -2.03367 2.70975 0
M  V30 4605 C 443.471 -2.56795 2.75196 0
M  V30 4606 C 442.618 -1.33631 2.42977 0
M  V30 4607 H 445.569 -0.321232 1.55415 0
M  V30 4608 H 445.59 -2.87569 2.49167 0
M  V30 4609 H 445.102 -1.43169 3.60727 0
M  V30 4610 H 443.203 -3.20731 1.89638 0
M  V30 4611 H 443.316 -2.9632 3.76472 0
M  V30 4612 H 441.68 -1.6502 1.94012 0
M  V30 4613 H 442.463 -0.75194 3.34964 0
M  V30 4614 N 444.908 -1.36708 -0.784132 0
M  V30 4615 C 445.858 -1.2799 -1.88686 0
M  V30 4616 C 446.842 -0.170282 -1.59996 0
M  V30 4617 O 448.034 -0.403571 -1.72338 0
M  V30 4618 C 445.163 -1.07674 -3.25977 0
M  V30 4619 C 444.249 -2.23127 -3.60659 0
M  V30 4620 N 444.64 -3.48467 -3.66612 0
M  V30 4621 C 442.938 -2.15009 -3.90752 0
M  V30 4622 C 443.639 -4.24525 -3.97685 0
M  V30 4623 N 442.615 -3.53524 -4.12943 0
M  V30 4624 H 446.417 -2.22927 -1.91522 0
M  V30 4625 H 443.931 -1.29503 -0.979933 0
M  V30 4626 H 445.928 -0.995151 -4.04849 0
M  V30 4627 H 444.588 -0.13643 -3.24413 0
M  V30 4628 H 445.599 -3.82534 -3.49125 0
M  V30 4629 H 442.276 -1.28963 -3.97083 0
M  V30 4630 H 443.666 -5.32944 -4.0917 0
M  V30 4631 N 446.386 1.0089 -1.21074 0
M  V30 4632 C 447.336 2.0799 -0.934034 0
M  V30 4633 C 448.32 1.60529 0.10919 0
M  V30 4634 O 449.512 1.76722 -0.0992198 0
M  V30 4635 C 446.641 3.39693 -0.496334 0
M  V30 4636 C 445.727 3.93833 -1.57341 0
M  V30 4637 N 446.118 4.21388 -2.7976 0
M  V30 4638 C 444.416 4.22067 -1.44137 0
M  V30 4639 C 445.117 4.65156 -3.49292 0
M  V30 4640 N 444.093 4.67895 -2.76722 0
M  V30 4641 H 447.895 2.27213 -1.86417 0
M  V30 4642 H 445.409 1.18927 -1.10589 0
M  V30 4643 H 447.406 4.15962 -0.279471 0
M  V30 4644 H 446.066 3.21879 0.427084 0
M  V30 4645 H 447.077 4.10061 -3.1634 0
M  V30 4646 H 443.754 4.1341 -0.582947 0
M  V30 4647 H 445.144 4.95231 -4.54088 0
M  V30 4648 N 447.864 1.01787 1.20321 0
M  V30 4649 C 448.812 0.58254 2.25187 0
M  V30 4650 C 449.806 -0.379359 1.65098 0
M  V30 4651 O 451.012 -0.249142 1.78267 0
M  V30 4652 H 447.387 0.170078 0.732514 0
M  V30 4653 H 449.358 1.47788 2.59232 0
M  V30 4654 C 448.107 -0.0620885 3.47645 0
M  V30 4655 H 447.43 0.669069 3.94162 0
M  V30 4656 H 448.87 -0.329784 4.22716 0
M  V30 4657 C 447.329 -1.3053 3.10586 0
M  V30 4658 O 447.859 -2.39848 3.22236 0
M  V30 4659 N 446.065 -1.18988 2.65123 0
M  V30 4660 H 445.612 -0.300341 2.55843 0
M  V30 4661 H 445.57 -2.02267 2.40698 0
M  V30 4662 N 449.342 -1.36122 0.79427 0
M  V30 4663 C 450.572 -2.03067 0.380437 0
M  V30 4664 C 450.98 -1.60018 -1.00949 0
M  V30 4665 O 450.323 -0.787425 -1.65968 0
M  V30 4666 C 450.385 -3.57587 0.37034 0
M  V30 4667 C 450.049 -4.23855 1.70867 0
M  V30 4668 C 451.046 -4.46404 2.66496 0
M  V30 4669 C 448.731 -4.61229 1.9893 0
M  V30 4670 C 450.725 -5.05412 3.88378 0
M  V30 4671 C 448.412 -5.19953 3.21079 0
M  V30 4672 C 449.41 -5.41985 4.15621 0
M  V30 4673 O 449.098 -5.99475 5.35616 0
M  V30 4674 H 448.83 -0.658168 0.154243 0
M  V30 4675 H 451.384 -1.7498 1.0757 0
M  V30 4676 H 449.614 -3.84814 -0.381444 0
M  V30 4677 H 451.303 -4.05895 -0.0194894 0
M  V30 4678 H 452.069 -4.17921 2.46103 0
M  V30 4679 H 447.948 -4.43402 1.26158 0
M  V30 4680 H 451.492 -5.22524 4.62185 0
M  V30 4681 H 447.389 -5.47862 3.41347 0
M  V30 4682 H 448.157 -6.17937 5.36745 0
M  V30 4683 N 450.82 -0.546701 -1.47814 0
M  V30 4684 C 451.768 0.220048 -2.31557 0
M  V30 4685 C 452.762 0.919472 -1.42275 0
M  V30 4686 O 453.968 0.841953 -1.59095 0
M  V30 4687 H 450.343 0.0898334 -0.746615 0
M  V30 4688 H 452.314 -0.505589 -2.94086 0
M  V30 4689 C 451.063 1.24353 -3.24702 0
M  V30 4690 H 450.386 0.714758 -3.93359 0
M  V30 4691 H 451.826 1.75112 -3.8615 0
M  V30 4692 C 450.285 2.28593 -2.47481 0
M  V30 4693 O 450.815 3.35334 -2.21165 0
M  V30 4694 N 449.021 2.02244 -2.08676 0
M  V30 4695 H 448.568 1.15455 -2.30278 0
M  V30 4696 H 448.526 2.72207 -1.57323 0
M  V30 4697 N 452.299 1.55045 -0.282633 0
M  V30 4698 C 453.262 2.21515 0.588539 0
M  V30 4699 C 454.262 1.19535 1.07554 0
M  V30 4700 O 455.452 1.44391 0.974514 0
M  V30 4701 C 452.584 2.88704 1.8128 0
M  V30 4702 H 453.777 2.99899 0.00806397 0
M  V30 4703 H 451.33 1.56265 -0.0333067 0
M  V30 4704 H 452.065 2.14352 2.43359 0
M  V30 4705 H 451.85 3.63443 1.47144 0
M  V30 4706 H 453.34 3.39465 2.43214 0
M  V30 4707 N 453.777 0.010035 1.57597 0
M  V30 4708 C 454.74 -0.963029 2.07986 0
M  V30 4709 C 455.74 -1.26619 0.991173 0
M  V30 4710 O 456.93 -1.2097 1.25347 0
M  V30 4711 C 454.062 -2.2851 2.52974 0
M  V30 4712 H 455.255 -0.526971 2.95234 0
M  V30 4713 H 452.808 -0.237639 1.54483 0
M  V30 4714 H 453.543 -2.76784 1.69 0
M  V30 4715 H 453.328 -2.07824 3.32493 0
M  V30 4716 H 454.818 -2.98294 2.9225 0
M  V30 4717 N 455.255 -1.55392 -0.262866 0
M  V30 4718 C 456.504 -1.75679 -0.990943 0
M  V30 4719 C 456.817 -0.57097 -1.87081 0
M  V30 4720 O 458.023 -0.656486 -2.63444 0
M  V30 4721 C 456.479 -3.10964 -1.81188 0
M  V30 4722 C 456.087 -4.37146 -0.980188 0
M  V30 4723 C 457.831 -3.40597 -2.53365 0
M  V30 4724 C 455.738 -5.63466 -1.7961 0
M  V30 4725 H 454.668 -0.654868 -0.373716 0
M  V30 4726 H 457.319 -1.81841 -0.246203 0
M  V30 4727 H 455.701 -2.98867 -2.59797 0
M  V30 4728 H 456.875 -4.60187 -0.237558 0
M  V30 4729 H 455.19 -4.14731 -0.372497 0
M  V30 4730 H 457.787 -4.32186 -3.14833 0
M  V30 4731 H 458.13 -2.6119 -3.24169 0
M  V30 4732 H 458.663 -3.53838 -1.81779 0
M  V30 4733 H 455.402 -6.4565 -1.13209 0
M  V30 4734 H 454.922 -5.44552 -2.51443 0
M  V30 4735 H 456.601 -6.02139 -2.36723 0
M  V30 4736 N 456.733 0.527833 -1.48498 0
M  V30 4737 C 457.681 1.65313 -1.63628 0
M  V30 4738 C 458.675 1.6177 -0.502676 0
M  V30 4739 O 459.881 1.66601 -0.681469 0
M  V30 4740 H 456.256 0.547518 -0.515488 0
M  V30 4741 H 458.227 1.49696 -2.58135 0
M  V30 4742 C 456.976 3.03576 -1.6952 0
M  V30 4743 H 456.299 3.06997 -2.56111 0
M  V30 4744 H 457.739 3.81923 -1.84149 0
M  V30 4745 C 456.198 3.34089 -0.43432 0
M  V30 4746 O 456.728 3.99151 0.451852 0
M  V30 4747 N 454.934 2.88991 -0.305368 0
M  V30 4748 H 454.481 2.36222 -1.02747 0
M  V30 4749 H 454.439 3.09776 0.537249 0
M  V30 4750 N 458.211 1.37122 0.776871 0
M  V30 4751 C 459.158 1.3247 1.88998 0
M  V30 4752 C 460.128 0.191143 1.64997 0
M  V30 4753 O 461.313 0.379683 1.86984 0
M  V30 4754 C 458.453 1.13241 3.25992 0
M  V30 4755 C 457.566 2.35782 3.61982 0
M  V30 4756 C 456.701 2.09465 4.88158 0
M  V30 4757 C 455.74 3.279 5.16864 0
M  V30 4758 N 454.877 3.01167 6.34226 0
M  V30 4759 H 459.717 2.27642 1.9231 0
M  V30 4760 H 457.254 1.13125 0.94027 0
M  V30 4761 H 459.212 1.00115 4.0501 0
M  V30 4762 H 457.842 0.217186 3.22069 0
M  V30 4763 H 456.894 2.59666 2.77989 0
M  V30 4764 H 458.206 3.24125 3.79137 0
M  V30 4765 H 457.36 1.93341 5.75069 0
M  V30 4766 H 456.099 1.18452 4.73097 0
M  V30 4767 H 455.104 3.44569 4.2843 0
M  V30 4768 H 456.329 4.19757 5.33836 0
M  V30 4769 H 454.275 2.12779 6.20533 0
M  V30 4770 H 454.192 3.83052 6.51772 0
M  V30 4771 H 455.46 2.88649 7.24087 0
M  V30 4772 N 459.689 -1.00246 1.21608 0
M  V30 4773 C 460.919 -1.77373 1.05935 0
M  V30 4774 C 461.327 -1.85059 -0.393686 0
M  V30 4775 O 460.67 -1.31289 -1.28487 0
M  V30 4776 C 460.732 -3.22705 1.58435 0
M  V30 4777 C 460.396 -3.38591 3.06929 0
M  V30 4778 C 461.393 -3.2667 4.04454 0
M  V30 4779 C 459.078 -3.6395 3.46187 0
M  V30 4780 C 461.072 -3.39877 5.39224 0
M  V30 4781 C 458.759 -3.768 4.81108 0
M  V30 4782 C 459.757 -3.6477 5.77436 0
M  V30 4783 O 459.445 -3.77206 7.09909 0
M  V30 4784 H 459.177 -0.56419 0.372378 0
M  V30 4785 H 461.731 -1.26971 1.61454 0
M  V30 4786 H 459.961 -3.74255 0.973147 0
M  V30 4787 H 461.65 -3.81515 1.38568 0
M  V30 4788 H 462.416 -3.06999 3.75468 0
M  V30 4789 H 458.295 -3.72395 2.71741 0
M  V30 4790 H 461.839 -3.30404 6.14393 0
M  V30 4791 H 457.736 -3.95975 5.09779 0
M  V30 4792 H 458.504 -3.94138 7.17355 0
M  V30 4793 N 461.167 -1.02423 -1.1978 0
M  V30 4794 C 462.115 -0.594474 -2.24875 0
M  V30 4795 C 463.109 0.370598 -1.65296 0
M  V30 4796 O 464.315 0.239684 -1.78397 0
M  V30 4797 H 460.69 -0.173961 -0.731602 0
M  V30 4798 H 462.661 -1.4916 -2.58445 0
M  V30 4799 C 461.41 0.0436512 -3.47673 0
M  V30 4800 H 460.733 -0.689963 -3.93801 0
M  V30 4801 H 462.173 0.307362 -4.22884 0
M  V30 4802 C 460.632 1.28881 -3.11274 0
M  V30 4803 O 461.162 2.38135 -3.23503 0
M  V30 4804 N 459.368 1.1758 -2.6575 0
M  V30 4805 H 458.915 0.286769 -2.55999 0
M  V30 4806 H 458.873 2.00988 -2.41767 0
M  V30 4807 N 462.645 1.35699 -0.801477 0
M  V30 4808 C 463.595 2.2728 -0.181073 0
M  V30 4809 C 464.579 1.47533 0.642098 0
M  V30 4810 O 465.771 1.69785 0.500193 0
M  V30 4811 C 462.9 3.36626 0.673612 0
M  V30 4812 C 461.986 4.23802 -0.159008 0
M  V30 4813 N 462.377 4.90879 -1.2195 0
M  V30 4814 C 460.675 4.45959 0.0602005 0
M  V30 4815 C 461.376 5.5546 -1.72738 0
M  V30 4816 N 460.352 5.33663 -1.03465 0
M  V30 4817 H 464.154 2.76632 -0.992582 0
M  V30 4818 H 461.668 1.49166 -0.642127 0
M  V30 4819 H 463.665 4.01179 1.13408 0
M  V30 4820 H 462.325 2.88828 1.48353 0
M  V30 4821 H 463.336 4.92497 -1.60209 0
M  V30 4822 H 460.013 4.08969 0.839664 0
M  V30 4823 H 461.403 6.18991 -2.61342 0
M  V30 4824 N 464.123 0.554532 1.47522 0
M  V30 4825 C 465.4 -0.0360704 1.95567 0
M  V30 4826 C 465.78 -1.48828 1.49711 0
M  V30 4827 O 465.128 -2.16366 0.734717 0
M  V30 4828 C 465.338 0.106631 3.48837 0
M  V30 4829 C 466.686 -0.0400899 4.24581 0
M  V30 4830 O 467.71 0.0340453 3.56184 0
M  V30 4831 O 466.569 -0.199111 5.46137 0
M  V30 4832 H 463.663 -0.0656294 0.824392 0
M  V30 4833 H 466.209 0.620867 1.57935 0
M  V30 4834 H 464.981 1.11727 3.7501 0
M  V30 4835 H 464.604 -0.58804 3.93227 0
M  V30 4836 N 465.601 -1.54893 0.290851 0
M  V30 4837 C 466.85 -1.99111 -0.322113 0
M  V30 4838 C 467.163 -1.18283 -1.55784 0
M  V30 4839 O 468.369 -1.5272 -2.24475 0
M  V30 4840 C 466.825 -3.54442 -0.624438 0
M  V30 4841 C 466.433 -4.44066 0.592373 0
M  V30 4842 C 468.177 -4.07211 -1.19916 0
M  V30 4843 C 466.084 -5.90812 0.263762 0
M  V30 4844 H 465.014 -0.743712 -0.124133 0
M  V30 4845 H 467.665 -1.79132 0.39797 0
M  V30 4846 H 466.047 -3.70281 -1.40384 0
M  V30 4847 H 467.221 -4.39999 1.36886 0
M  V30 4848 H 465.536 -4.02015 1.08502 0
M  V30 4849 H 468.133 -5.14407 -1.45909 0
M  V30 4850 H 468.476 -3.57196 -2.13815 0
M  V30 4851 H 469.009 -3.94873 -0.481687 0
M  V30 4852 H 465.748 -6.44955 1.17105 0
M  V30 4853 H 465.268 -5.97911 -0.475655 0
M  V30 4854 H 466.947 -6.46852 -0.138354 0
M  V30 4855 N 467.08 -0.0183926 -1.57589 0
M  V30 4856 C 468.043 0.951986 -2.08494 0
M  V30 4857 C 469.043 1.26092 -0.997874 0
M  V30 4858 O 470.233 1.20304 -1.25987 0
M  V30 4859 C 467.365 2.27165 -2.54182 0
M  V30 4860 H 468.558 0.511307 -2.95509 0
M  V30 4861 H 466.111 0.229444 -1.54607 0
M  V30 4862 H 466.846 2.75884 -1.70465 0
M  V30 4863 H 466.631 2.06057 -3.33591 0
M  V30 4864 H 468.121 2.9674 -2.93828 0
M  V30 4865 N 468.558 1.5553 0.254621 0
M  V30 4866 C 469.488 1.9268 1.31897 0
M  V30 4867 C 470.469 0.790797 1.506 0
M  V30 4868 O 471.654 1.05045 1.63337 0
M  V30 4869 C 468.784 2.21477 2.67517 0
M  V30 4870 C 467.738 3.37256 2.63519 0
M  V30 4871 C 467.064 3.51576 4.02862 0
M  V30 4872 C 468.364 4.73157 2.21179 0
M  V30 4873 H 470.058 2.81832 1.01051 0
M  V30 4874 H 467.604 1.35599 0.484662 0
M  V30 4875 H 469.557 2.46055 3.42104 0
M  V30 4876 H 468.281 1.29144 2.99982 0
M  V30 4877 H 466.94 3.12675 1.9139 0
M  V30 4878 H 466.588 2.56676 4.32581 0
M  V30 4879 H 466.288 4.2943 4.01078 0
M  V30 4880 H 467.812 3.78467 4.79161 0
M  V30 4881 H 469.226 4.97158 2.85494 0
M  V30 4882 H 467.623 5.54058 2.30521 0
M  V30 4883 H 468.693 4.70739 1.16332 0
M  V30 4884 N 470.036 -0.519951 1.48776 0
M  V30 4885 C 470.966 -1.63253 1.66945 0
M  V30 4886 C 471.947 -1.62014 0.518224 0
M  V30 4887 O 473.132 -1.79053 0.751919 0
M  V30 4888 C 470.262 -3.0181 1.71836 0
M  V30 4889 C 469.216 -3.17911 2.8656 0
M  V30 4890 C 468.542 -4.5763 2.76548 0
M  V30 4891 C 469.842 -2.99729 4.27738 0
M  V30 4892 H 471.536 -1.48302 2.6009 0
M  V30 4893 H 469.082 -0.712026 1.25165 0
M  V30 4894 H 471.035 -3.79525 1.83135 0
M  V30 4895 H 469.759 -3.17806 0.752775 0
M  V30 4896 H 468.418 -2.42616 2.74833 0
M  V30 4897 H 468.066 -4.70476 1.77937 0
M  V30 4898 H 467.766 -4.69346 3.53536 0
M  V30 4899 H 469.29 -5.37431 2.89828 0
M  V30 4900 H 470.704 -3.67228 4.40246 0
M  V30 4901 H 469.101 -3.22932 5.05801 0
M  V30 4902 H 470.171 -1.96047 4.43502 0
M  V30 4903 N 471.514 -1.37532 -0.769588 0
M  V30 4904 C 472.424 -1.35668 -1.91393 0
M  V30 4905 C 473.44 -0.255954 -1.72107 0
M  V30 4906 O 474.616 -0.491704 -1.95305 0
M  V30 4907 C 471.681 -1.16481 -3.26547 0
M  V30 4908 C 470.742 -2.36212 -3.58472 0
M  V30 4909 C 469.975 -2.17932 -4.87177 0
M  V30 4910 O 470.198 -1.1647 -5.58382 0
M  V30 4911 O 469.132 -3.06167 -5.18214 0
M  V30 4912 H 472.958 -2.32055 -1.95918 0
M  V30 4913 H 470.543 -1.18284 -0.912641 0
M  V30 4914 H 472.425 -1.07778 -4.07384 0
M  V30 4915 H 471.1 -0.231687 -3.2287 0
M  V30 4916 H 470.007 -2.50488 -2.77861 0
M  V30 4917 H 471.34 -3.281 -3.66894 0
M  V30 4918 N 472.992 0.995999 -1.22138 0
M  V30 4919 C 473.922 2.10387 -1.01289 0
M  V30 4920 C 474.903 1.69975 0.0651454 0
M  V30 4921 O 476.088 1.9396 -0.0964628 0
M  V30 4922 C 473.218 3.42312 -0.586517 0
M  V30 4923 C 472.172 3.96558 -1.61014 0
M  V30 4924 C 471.498 5.24494 -1.0397 0
M  V30 4925 C 472.798 4.27595 -2.99933 0
M  V30 4926 H 474.492 2.28086 -1.93951 0
M  V30 4927 H 472.038 1.09607 -0.933928 0
M  V30 4928 H 473.991 4.19223 -0.427793 0
M  V30 4929 H 472.715 3.24431 0.375761 0
M  V30 4930 H 471.374 3.21776 -1.75658 0
M  V30 4931 H 471.022 5.02953 -0.0688703 0
M  V30 4932 H 470.722 5.61755 -1.72352 0
M  V30 4933 H 472.246 6.04042 -0.892494 0
M  V30 4934 H 473.66 4.95315 -2.8868 0
M  V30 4935 H 472.057 4.76021 -3.6541 0
M  V30 4936 H 473.127 3.35498 -3.50099 0
M  V30 4937 N 474.47 1.03057 1.19235 0
M  V30 4938 C 475.747 0.642608 1.84743 0
M  V30 4939 C 476.127 -0.878577 1.91948 0
M  V30 4940 O 475.475 -1.77597 1.43776 0
M  V30 4941 C 475.685 1.30665 3.23616 0
M  V30 4942 C 477.033 1.43098 3.9976 0
M  V30 4943 O 478.057 1.26396 3.3302 0
M  V30 4944 O 476.916 1.70223 5.19313 0
M  V30 4945 H 474.01 0.223573 0.796206 0
M  V30 4946 H 476.556 1.12883 1.26711 0
M  V30 4947 H 475.328 2.34544 3.13217 0
M  V30 4948 H 474.951 0.808405 3.89295 0
M  V30 4949 N 475.948 -1.35272 0.808662 0
M  V30 4950 C 476.858 -2.33546 0.222079 0
M  V30 4951 C 477.874 -1.6196 -0.636011 0
M  V30 4952 O 479.05 -1.93822 -0.547274 0
M  V30 4953 C 476.115 -3.41148 -0.61795 0
M  V30 4954 C 475.176 -4.28507 0.260875 0
M  V30 4955 C 474.409 -5.3097 -0.539156 0
M  V30 4956 O 474.632 -5.42123 -1.77367 0
M  V30 4957 O 473.566 -6.01858 0.0710526 0
M  V30 4958 H 477.392 -2.85515 1.03512 0
M  V30 4959 H 474.977 -1.38079 0.570495 0
M  V30 4960 H 476.859 -4.06889 -1.09634 0
M  V30 4961 H 475.534 -2.91447 -1.40855 0
M  V30 4962 H 474.441 -3.6574 0.786451 0
M  V30 4963 H 475.774 -4.81611 1.01547 0
M  V30 4964 N 477.426 -0.562348 -1.47226 0
M  V30 4965 C 478.837 -0.130325 -1.86245 0
M  V30 4966 C 479.188 1.30128 -1.46838 0
M  V30 4967 O 478.313 1.97974 -0.873805 0
M  V30 4968 C 478.908 -0.229738 -3.3802 0
M  V30 4969 C 477.467 0.14728 -3.76112 0
M  V30 4970 C 476.614 -0.574971 -2.71274 0
M  V30 4971 H 479.565 -0.771773 -1.3867 0
M  V30 4972 H 479.586 0.550316 -3.76499 0
M  V30 4973 H 479.098 -1.27178 -3.66671 0
M  V30 4974 H 477.199 1.19023 -3.53078 0
M  V30 4975 H 477.312 -0.214858 -4.78618 0
M  V30 4976 H 475.676 -0.0174756 -2.54694 0
M  V30 4977 H 476.459 -1.61827 -3.02766 0
M  V30 4978 N 478.904 1.54736 -0.299062 0
M  V30 4979 C 479.834 2.26409 0.571085 0
M  V30 4980 C 480.815 1.2629 1.13951 0
M  V30 4981 O 482 1.55059 1.16921 0
M  V30 4982 C 479.13 3.00338 1.74396 0
M  V30 4983 C 478.084 4.07588 1.30599 0
M  V30 4984 C 477.41 4.69222 2.56387 0
M  V30 4985 C 478.71 5.20455 0.438645 0
M  V30 4986 H 480.404 2.99388 -0.0266991 0
M  V30 4987 H 477.95 1.43993 -0.0142812 0
M  V30 4988 H 479.903 3.49198 2.35878 0
M  V30 4989 H 478.627 2.24934 2.36796 0
M  V30 4990 H 477.286 3.59575 0.71424 0
M  V30 4991 H 476.934 3.9046 3.17097 0
M  V30 4992 H 476.634 5.41653 2.27784 0
M  V30 4993 H 478.158 5.20844 3.18675 0
M  V30 4994 H 479.572 5.65221 0.959085 0
M  V30 4995 H 477.969 5.99594 0.246466 0
M  V30 4996 H 479.039 4.8192 -0.536738 0
M  V30 4997 N 480.382 0.0267497 1.57577 0
M  V30 4998 C 481.628 -0.653371 1.91987 0
M  V30 4999 C 481.961 -1.71915 0.903263 0
M  V30 5000 O 481.236 -1.94358 -0.0743387 0
M  V30 5001 C 481.519 -1.272 3.36886 0
M  V30 5002 C 481.372 -0.215938 4.49281 0
M  V30 5003 C 482.691 -2.19069 3.81703 0
M  V30 5004 H 479.81 -0.236047 0.698177 0
M  V30 5005 H 482.452 0.0835236 1.89816 0
M  V30 5006 H 480.602 -1.90005 3.38866 0
M  V30 5007 H 482.274 0.41449 4.59434 0
M  V30 5008 H 480.517 0.458855 4.31366 0
M  V30 5009 H 481.188 -0.688347 5.47691 0
M  V30 5010 H 483.664 -1.66253 3.81444 0
M  V30 5011 H 482.54 -2.59307 4.83788 0
M  V30 5012 H 482.801 -3.08087 3.17072 0
M  V30 5013 N 481.861 -1.55662 -0.24637 0
M  V30 5014 C 482.791 -1.93377 -1.30873 0
M  V30 5015 C 483.772 -0.798773 -1.50179 0
M  V30 5016 O 484.957 -1.0591 -1.62778 0
M  V30 5017 C 482.087 -2.22893 -2.66338 0
M  V30 5018 C 481.041 -3.38649 -2.61727 0
M  V30 5019 C 480.367 -3.53708 -4.00992 0
M  V30 5020 C 481.667 -4.74323 -2.18666 0
M  V30 5021 H 483.361 -2.82363 -0.995552 0
M  V30 5022 H 480.907 -1.35854 -0.477464 0
M  V30 5023 H 482.86 -2.47866 -3.40794 0
M  V30 5024 H 481.584 -1.30733 -2.99293 0
M  V30 5025 H 480.243 -3.13685 -1.89729 0
M  V30 5026 H 479.891 -2.58967 -4.31214 0
M  V30 5027 H 479.591 -4.31551 -3.98795 0
M  V30 5028 H 481.115 -3.81003 -4.77147 0
M  V30 5029 H 482.529 -4.98665 -2.82854 0
M  V30 5030 H 480.926 -5.55273 -2.27579 0
M  V30 5031 H 481.996 -4.71349 -1.13834 0
M  V30 5032 N 483.339 0.512053 -1.4905 0
M  V30 5033 C 484.287 1.63568 -1.65373 0
M  V30 5034 C 485.281 1.61228 -0.519806 0
M  V30 5035 O 486.487 1.65869 -0.699101 0
M  V30 5036 H 482.862 0.542019 -0.521267 0
M  V30 5037 H 484.833 1.4695 -2.59708 0
M  V30 5038 C 483.582 3.01761 -1.7273 0
M  V30 5039 H 482.905 3.04263 -2.59353 0
M  V30 5040 H 484.345 3.79948 -1.8819 0
M  V30 5041 C 482.804 3.33609 -0.46973 0
M  V30 5042 O 483.334 3.99607 0.409492 0
M  V30 5043 N 481.54 2.88651 -0.336003 0
M  V30 5044 H 481.087 2.35119 -1.05247 0
M  V30 5045 H 481.045 3.10328 0.504363 0
M  V30 5046 N 484.817 1.37938 0.762283 0
M  V30 5047 C 486.042 1.37059 1.55659 0
M  V30 5048 C 486.467 -0.0396123 1.88058 0
M  V30 5049 O 485.825 -1.01929 1.49934 0
M  V30 5050 C 485.873 2.22494 2.83776 0
M  V30 5051 O 484.977 1.63607 3.78559 0
M  V30 5052 H 484.318 0.467892 0.47114 0
M  V30 5053 H 486.848 1.81587 0.942725 0
M  V30 5054 H 486.858 2.36045 3.32786 0
M  V30 5055 H 485.533 3.24993 2.59524 0
M  V30 5056 H 484.11 1.5915 3.37233 0
M  V30 5057 N 486.295 -0.989507 1.22664 0
M  V30 5058 C 487.525 -1.7624 1.0781 0
M  V30 5059 C 487.933 -1.85466 -0.374036 0
M  V30 5060 O 487.276 -1.32645 -1.27087 0
M  V30 5061 C 487.338 -3.21007 1.61849 0
M  V30 5062 C 487.002 -3.35316 3.10503 0
M  V30 5063 C 487.999 -3.22362 4.07896 0
M  V30 5064 C 485.684 -3.60258 3.50028 0
M  V30 5065 C 487.678 -3.34139 5.42798 0
M  V30 5066 C 485.365 -3.71676 4.85078 0
M  V30 5067 C 486.363 -3.58625 5.81272 0
M  V30 5068 O 486.051 -3.69655 7.1387 0
M  V30 5069 H 485.783 -0.560209 0.378341 0
M  V30 5070 H 488.337 -1.25252 1.62792 0
M  V30 5071 H 486.567 -3.73202 1.01279 0
M  V30 5072 H 488.256 -3.80024 1.42606 0
M  V30 5073 H 489.022 -3.03 3.78703 0
M  V30 5074 H 484.901 -3.69492 2.75675 0
M  V30 5075 H 488.445 -3.23869 6.17863 0
M  V30 5076 H 484.342 -3.90545 5.1395 0
M  V30 5077 H 485.11 -3.86507 7.21495 0
M  V30 5078 N 487.773 -1.03688 -1.18687 0
M  V30 5079 C 489.019 -0.739123 -1.88851 0
M  V30 5080 C 489.352 0.731042 -1.79915 0
M  V30 5081 O 488.627 1.53313 -1.19688 0
M  V30 5082 C 488.91 -1.20106 -3.3948 0
M  V30 5083 C 488.763 -2.73304 -3.57246 0
M  V30 5084 C 490.082 -0.788134 -4.32986 0
M  V30 5085 H 487.201 -0.269978 -0.68577 0
M  V30 5086 H 489.843 -1.28822 -1.3966 0
M  V30 5087 H 487.993 -0.733915 -3.81505 0
M  V30 5088 H 489.665 -3.28027 -3.24339 0
M  V30 5089 H 487.908 -3.13313 -3.00029 0
M  V30 5090 H 488.579 -3.00684 -4.62918 0
M  V30 5091 H 491.055 -1.19005 -3.98719 0
M  V30 5092 H 489.931 -1.13915 -5.36949 0
M  V30 5093 H 490.192 0.308988 -4.41019 0
M  V30 5094 N 489.251 1.34841 -0.815825 0
M  V30 5095 C 490.479 2.0273 -0.413294 0
M  V30 5096 C 490.894 1.61459 0.978599 0
M  V30 5097 O 490.251 0.816584 1.63212 0
M  V30 5098 C 490.302 3.58058 -0.497676 0
M  V30 5099 O 490.023 3.97832 -1.8347 0
M  V30 5100 C 491.524 4.4321 -0.0891339 0
M  V30 5101 H 488.744 0.649956 -0.166728 0
M  V30 5102 H 491.288 1.72267 -1.10201 0
M  V30 5103 H 489.443 3.87136 0.142886 0
M  V30 5104 H 489.857 4.92501 -1.80396 0
M  V30 5105 H 491.331 5.5164 -0.199274 0
M  V30 5106 H 491.808 4.28432 0.966571 0
M  V30 5107 H 492.414 4.19446 -0.703214 0
M  V30 5108 N 490.729 0.570148 1.46925 0
M  V30 5109 C 492.14 0.1402 1.86173 0
M  V30 5110 C 492.491 -1.29347 1.47526 0
M  V30 5111 O 491.616 -1.97508 0.884292 0
M  V30 5112 C 492.211 0.247661 3.37894 0
M  V30 5113 C 490.77 -0.127332 3.76185 0
M  V30 5114 C 489.917 0.589349 2.70965 0
M  V30 5115 H 492.868 0.779117 1.38259 0
M  V30 5116 H 492.889 -0.530341 3.76786 0
M  V30 5117 H 492.401 1.29121 3.65991 0
M  V30 5118 H 490.502 -1.17149 3.53704 0
M  V30 5119 H 490.615 0.240238 4.78497 0
M  V30 5120 H 488.979 0.0309824 2.54681 0
M  V30 5121 H 489.762 1.6343 3.01903 0
M  V30 5122 N 492.207 -1.54576 0.307264 0
M  V30 5123 C 493.456 -1.99442 -0.300976 0
M  V30 5124 C 493.769 -1.19928 -1.5452 0
M  V30 5125 O 494.975 -1.55092 -2.22842 0
M  V30 5126 C 493.431 -3.55084 -0.586809 0
M  V30 5127 C 493.039 -4.43413 0.639438 0
M  V30 5128 C 494.783 -4.0846 -1.1559 0
M  V30 5129 C 492.69 -5.90499 0.326411 0
M  V30 5130 H 491.62 -0.744986 -0.116238 0
M  V30 5131 H 494.271 -1.787 0.416947 0
M  V30 5132 H 492.653 -3.71749 -1.36449 0
M  V30 5133 H 493.827 -4.38522 1.41545 0
M  V30 5134 H 492.142 -4.00842 1.1276 0
M  V30 5135 H 494.739 -5.15926 -1.40445 0
M  V30 5136 H 495.082 -3.59443 -2.10015 0
M  V30 5137 H 495.615 -3.95362 -0.439778 0
M  V30 5138 H 492.354 -6.43676 1.23939 0
M  V30 5139 H 491.874 -5.98382 -0.412212 0
M  V30 5140 H 493.553 -6.46962 -0.0697393 0
M  V30 5141 N 493.685 -0.035106 -1.57561 0
M  V30 5142 C 494.925 0.646316 -1.93913 0
M  V30 5143 C 495.289 1.68947 -0.912185 0
M  V30 5144 O 496.49 2.42381 -1.1621 0
M  V30 5145 C 494.761 1.24136 -3.35149 0
M  V30 5146 S 496.32 1.94302 -3.93436 0
M  V30 5147 H 493.138 0.212642 -0.678457 0
M  V30 5148 H 495.74 -0.100203 -1.95243 0
M  V30 5149 H 494.444 0.46979 -4.07702 0
M  V30 5150 H 493.975 2.02505 -3.37276 0
M  V30 5151 H 495.99 3.22205 -3.77357 0
M  V30 5152 N 495.163 1.55791 0.238111 0
M  V30 5153 C 496.412 1.77234 0.962868 0
M  V30 5154 C 496.725 0.600661 1.86149 0
M  V30 5155 O 497.931 0.698315 2.62366 0
M  V30 5156 C 496.387 3.13808 1.76218 0
M  V30 5157 C 495.995 4.3865 0.910518 0
M  V30 5158 C 497.739 3.44585 2.47914 0
M  V30 5159 C 495.646 5.66252 1.70623 0
M  V30 5160 H 494.576 0.660731 0.36325 0
M  V30 5161 H 497.227 1.8221 0.217242 0
M  V30 5162 H 495.609 3.02963 2.55009 0
M  V30 5163 H 496.783 4.60507 0.164316 0
M  V30 5164 H 495.098 4.15271 0.30647 0
M  V30 5165 H 497.695 4.3714 3.07917 0
M  V30 5166 H 498.038 2.66314 3.19973 0
M  V30 5167 H 498.571 3.56685 1.76127 0
M  V30 5168 H 495.31 6.47369 1.02923 0
M  V30 5169 H 494.83 5.48483 2.42748 0
M  V30 5170 H 496.509 6.05829 2.27114 0
M  V30 5171 N 496.642 -0.504142 1.49319 0
M  V30 5172 C 497.605 -1.5883 1.65244 0
M  V30 5173 C 498.605 -1.52009 0.524386 0
M  V30 5174 O 499.795 -1.55218 0.79077 0
M  V30 5175 C 496.927 -2.98481 1.64687 0
M  V30 5176 H 498.12 -1.4604 2.61939 0
M  V30 5177 H 495.673 -0.728144 1.38303 0
M  V30 5178 H 496.408 -3.16751 0.695644 0
M  V30 5179 H 496.193 -3.0484 2.46607 0
M  V30 5180 H 497.683 -3.77256 1.79075 0
M  V30 5181 N 498.12 -1.38341 -0.754957 0
M  V30 5182 C 499.397 -1.24995 -1.50451 0
M  V30 5183 C 499.777 0.149244 -2.10572 0
M  V30 5184 O 499.125 1.15861 -1.96948 0
M  V30 5185 C 499.335 -2.35904 -2.57197 0
M  V30 5186 C 500.683 -2.74262 -3.24138 0
M  V30 5187 O 501.707 -2.35205 -2.67501 0
M  V30 5188 O 500.566 -3.4161 -4.26574 0
M  V30 5189 H 497.66 -0.48872 -0.667144 0
M  V30 5190 H 500.206 -1.50165 -0.790486 0
M  V30 5191 H 498.978 -3.2953 -2.11011 0
M  V30 5192 H 498.601 -2.12291 -3.36182 0
M  V30 5193 N 499.598 0.982988 -1.23187 0
M  V30 5194 C 500.545 2.07491 -1.01075 0
M  V30 5195 C 501.515 1.65949 0.070905 0
M  V30 5196 O 502.7 1.90629 -0.0806822 0
M  V30 5197 C 499.84 3.39751 -0.605261 0
M  V30 5198 C 498.953 3.94578 -1.75876 0
M  V30 5199 C 498.088 5.15039 -1.3003 0
M  V30 5200 C 497.127 5.62027 -2.42472 0
M  V30 5201 N 496.264 6.73719 -1.97602 0
M  V30 5202 H 501.104 2.25739 -1.9454 0
M  V30 5203 H 498.641 1.10659 -0.969179 0
M  V30 5204 H 500.599 4.15719 -0.351279 0
M  V30 5205 H 499.229 3.21473 0.292382 0
M  V30 5206 H 498.281 3.1539 -2.12681 0
M  V30 5207 H 499.593 4.25422 -2.60418 0
M  V30 5208 H 498.747 5.9833 -1.00429 0
M  V30 5209 H 497.486 4.85843 -0.425216 0
M  V30 5210 H 496.491 4.77318 -2.7285 0
M  V30 5211 H 497.716 5.93244 -3.30512 0
M  V30 5212 H 495.662 6.46287 -1.1247 0
M  V30 5213 H 495.579 7.03934 -2.75705 0
M  V30 5214 H 496.847 7.6049 -1.71098 0
M  V30 5215 N 501.076 1.04316 1.18135 0
M  V30 5216 C 501.986 0.646876 2.25505 0
M  V30 5217 C 503.002 -0.328008 1.7088 0
M  V30 5218 O 504.178 -0.182309 2.00573 0
M  V30 5219 C 501.243 0.0185664 3.46695 0
M  V30 5220 C 500.304 1.04277 4.16443 0
M  V30 5221 C 499.537 0.444352 5.31847 0
M  V30 5222 O 499.76 -0.748735 5.65465 0
M  V30 5223 O 498.694 1.17428 5.90334 0
M  V30 5224 H 502.52 1.54147 2.61672 0
M  V30 5225 H 500.105 0.814188 1.25265 0
M  V30 5226 H 501.987 -0.331068 4.20097 0
M  V30 5227 H 500.662 -0.849814 3.12346 0
M  V30 5228 H 499.569 1.44425 3.45098 0
M  V30 5229 H 500.902 1.882 4.54798 0
M  V30 5230 N 502.554 -1.34406 0.822964 0
M  V30 5231 C 503.784 -2.02214 0.423424 0
M  V30 5232 C 504.192 -1.62124 -0.975322 0
M  V30 5233 O 503.535 -0.822452 -1.6426 0
M  V30 5234 C 503.597 -3.56721 0.446107 0
M  V30 5235 C 503.261 -4.20136 1.79819 0
M  V30 5236 C 504.258 -4.4065 2.75904 0
M  V30 5237 C 501.943 -4.56906 2.08669 0
M  V30 5238 C 503.937 -4.9706 3.99012 0
M  V30 5239 C 501.624 -5.13026 3.32036 0
M  V30 5240 C 502.622 -5.33047 4.27024 0
M  V30 5241 O 502.31 -5.87979 5.48211 0
M  V30 5242 H 502.042 -0.654748 0.168169 0
M  V30 5243 H 504.596 -1.72659 1.11257 0
M  V30 5244 H 502.826 -3.85537 -0.299734 0
M  V30 5245 H 504.515 -4.05845 0.0666114 0
M  V30 5246 H 505.281 -4.12607 2.54912 0
M  V30 5247 H 501.16 -4.40626 1.35535 0
M  V30 5248 H 504.704 -5.12603 4.73164 0
M  V30 5249 H 500.601 -5.40498 3.52891 0
M  V30 5250 H 501.369 -6.06413 5.49732 0
M  V30 5251 N 504.032 -0.577932 -1.46621 0
M  V30 5252 C 505.26 -0.0671642 -2.06791 0
M  V30 5253 C 505.675 1.23571 -1.42743 0
M  V30 5254 O 505.032 1.74602 -0.531062 0
M  V30 5255 C 505.083 0.110357 -3.61332 0
M  V30 5256 O 504.804 -1.14095 -4.22982 0
M  V30 5257 C 506.305 0.656025 -4.38419 0
M  V30 5258 H 503.525 -0.0552732 -0.66872 0
M  V30 5259 H 506.069 -0.797242 -1.8832 0
M  V30 5260 H 504.224 0.790637 -3.79246 0
M  V30 5261 H 504.638 -0.951742 -5.15793 0
M  V30 5262 H 506.112 0.729438 -5.47159 0
M  V30 5263 H 506.589 1.67195 -4.06131 0
M  V30 5264 H 507.195 0.0107692 -4.25299 0
M  V30 5265 N 505.51 1.54411 -0.315457 0
M  V30 5266 C 506.458 2.25514 0.569771 0
M  V30 5267 C 507.452 1.2663 1.12522 0
M  V30 5268 O 508.658 1.44434 1.07419 0
M  V30 5269 H 505.033 0.724257 0.202376 0
M  V30 5270 H 507.004 2.98354 -0.0522895 0
M  V30 5271 C 505.753 3.02004 1.72305 0
M  V30 5272 H 505.076 3.77906 1.30488 0
M  V30 5273 H 506.516 3.55014 2.31821 0
M  V30 5274 C 504.975 2.09822 2.63583 0
M  V30 5275 O 505.505 1.67574 3.65078 0
M  V30 5276 N 503.711 1.75478 2.31637 0
M  V30 5277 H 503.258 2.10032 1.49145 0
M  V30 5278 H 503.216 1.14079 2.92973 0
M  V30 5279 N 506.988 0.0434614 1.5754 0
M  V30 5280 C 508.237 -0.631454 1.91561 0
M  V30 5281 C 508.55 -1.72457 0.92292 0
M  V30 5282 O 509.756 -2.45712 1.15489 0
M  V30 5283 C 508.212 -1.17447 3.40197 0
M  V30 5284 C 507.82 -0.113867 4.47855 0
M  V30 5285 C 509.564 -1.82507 3.83264 0
M  V30 5286 C 507.471 -0.669326 5.876 0
M  V30 5287 H 506.401 -0.239629 0.714908 0
M  V30 5288 H 509.052 0.111097 1.83163 0
M  V30 5289 H 507.434 -1.96909 3.43574 0
M  V30 5290 H 508.608 0.659348 4.56058 0
M  V30 5291 H 506.923 0.438821 4.14081 0
M  V30 5292 H 509.52 -2.25047 4.85034 0
M  V30 5293 H 509.863 -2.67365 3.19095 0
M  V30 5294 H 510.396 -1.09712 3.82372 0
M  V30 5295 H 507.135 0.141449 6.55347 0
M  V30 5296 H 506.655 -1.4107 5.82974 0
M  V30 5297 H 508.334 -1.15463 6.36614 0
M  V30 5298 N 508.466 -1.55915 -0.229846 0
M  V30 5299 C 509.713 -1.78542 -0.955452 0
M  V30 5300 C 510.041 -0.610785 -1.84661 0
M  V30 5301 O 509.296 0.405213 -1.91459 0
M  V30 5302 C 509.595 -3.06845 -1.8325 0
M  V30 5303 C 509.261 -4.37395 -1.09528 0
M  V30 5304 C 507.923 -4.72868 -0.891598 0
M  V30 5305 C 510.275 -5.18029 -0.574046 0
M  V30 5306 C 507.603 -5.86496 -0.154655 0
M  V30 5307 C 509.955 -6.32423 0.149513 0
M  V30 5308 C 508.619 -6.66504 0.364519 0
M  V30 5309 H 507.889 -0.653333 -0.349625 0
M  V30 5310 H 510.536 -1.90183 -0.224235 0
M  V30 5311 H 508.841 -2.90291 -2.63132 0
M  V30 5312 H 510.538 -3.21553 -2.39592 0
M  V30 5313 H 507.128 -4.09538 -1.26399 0
M  V30 5314 H 511.312 -4.91066 -0.718899 0
M  V30 5315 H 506.568 -6.11396 0.0222356 0
M  V30 5316 H 510.742 -6.94137 0.560947 0
M  V30 5317 H 508.369 -7.54397 0.937495 0
M  V30 5318 N 509.944 0.496216 -1.49584 0
M  V30 5319 C 510.874 1.60576 -1.69521 0
M  V30 5320 C 511.855 1.61169 -0.543933 0
M  V30 5321 O 513.04 1.77834 -0.78031 0
M  V30 5322 C 510.17 2.99038 -1.76616 0
M  V30 5323 C 509.124 3.13312 -2.91581 0
M  V30 5324 C 508.45 4.53172 -2.83794 0
M  V30 5325 C 509.75 2.92886 -4.32452 0
M  V30 5326 H 511.444 1.44146 -2.62416 0
M  V30 5327 H 508.99 0.692024 -1.26282 0
M  V30 5328 H 510.943 3.76564 -1.8915 0
M  V30 5329 H 509.667 3.16568 -0.80324 0
M  V30 5330 H 508.326 2.38213 -2.78658 0
M  V30 5331 H 507.974 4.67585 -1.854 0
M  V30 5332 H 507.674 4.63662 -3.60958 0
M  V30 5333 H 509.198 5.32752 -2.98342 0
M  V30 5334 H 510.612 3.60178 -4.46032 0
M  V30 5335 H 509.009 3.14844 -5.10875 0
M  V30 5336 H 510.079 1.88966 -4.46565 0
M  V30 5337 N 511.423 1.38739 0.74761 0
M  V30 5338 C 512.37 1.36449 1.86146 0
M  V30 5339 C 513.34 0.226098 1.64554 0
M  V30 5340 O 514.525 0.41926 1.86137 0
M  V30 5341 C 511.665 1.2013 3.23516 0
M  V30 5342 C 510.778 2.43407 3.56899 0
M  V30 5343 C 509.913 2.19773 4.83605 0
M  V30 5344 C 508.952 3.3879 5.09792 0
M  V30 5345 N 508.089 3.14553 6.27695 0
M  V30 5346 H 512.929 2.3167 1.87438 0
M  V30 5347 H 510.466 1.15094 0.916063 0
M  V30 5348 H 512.424 1.08683 4.02795 0
M  V30 5349 H 511.054 0.285453 3.21535 0
M  V30 5350 H 510.106 2.65504 2.72418 0
M  V30 5351 H 511.418 3.32094 3.72176 0
M  V30 5352 H 510.572 2.05496 5.70838 0
M  V30 5353 H 509.311 1.28461 4.70478 0
M  V30 5354 H 508.316 3.53579 4.21025 0
M  V30 5355 H 509.541 4.30986 5.24812 0
M  V30 5356 H 507.487 2.25893 6.1588 0
M  V30 5357 H 507.404 3.96791 6.435 0
M  V30 5358 H 508.672 3.03943 7.17801 0
M  V30 5359 N 512.901 -0.976442 1.23707 0
M  V30 5360 C 514.148 -1.71827 1.07153 0
M  V30 5361 C 514.476 -1.9053 -0.390982 0
M  V30 5362 O 513.731 -1.45779 -1.30564 0
M  V30 5363 C 514.03 -3.11814 1.74662 0
M  V30 5364 C 513.696 -3.12978 3.24585 0
M  V30 5365 C 512.358 -3.13003 3.6549 0
M  V30 5366 C 514.71 -3.07986 4.20469 0
M  V30 5367 C 512.038 -3.05757 5.00729 0
M  V30 5368 C 514.39 -3.02282 5.55705 0
M  V30 5369 C 513.054 -3.00631 5.95968 0
M  V30 5370 H 512.324 -0.628758 0.392102 0
M  V30 5371 H 514.971 -1.14239 1.53693 0
M  V30 5372 H 513.276 -3.72812 1.20492 0
M  V30 5373 H 514.973 -3.67989 1.59328 0
M  V30 5374 H 511.563 -3.13718 2.92026 0
M  V30 5375 H 515.747 -3.07103 3.89874 0
M  V30 5376 H 511.003 -3.02834 5.31132 0
M  V30 5377 H 515.177 -2.97376 6.29714 0
M  V30 5378 H 512.804 -2.94771 7.00724 0
M  V30 5379 N 514.379 -1.04941 -1.1758 0
M  V30 5380 C 515.627 -0.756492 -1.87408 0
M  V30 5381 C 515.948 0.718478 -1.81281 0
M  V30 5382 O 515.218 1.519 -1.23706 0
M  V30 5383 H 513.798 -0.276841 -0.693807 0
M  V30 5384 H 516.46 -1.32803 -1.42652 0
M  V30 5385 H 515.556 -1.06918 -2.93215 0
M  V30 5386 N 515.857 1.33968 -0.830081 0
M  V30 5387 C 517.082 2.02813 -0.433796 0
M  V30 5388 C 517.507 1.62076 0.954614 0
M  V30 5389 O 516.865 0.808955 1.62252 0
M  V30 5390 C 516.913 3.56348 -0.552115 0
M  V30 5391 O 516.017 4.10202 0.425191 0
M  V30 5392 H 515.358 0.639817 -0.177567 0
M  V30 5393 H 517.888 1.7106 -1.12248 0
M  V30 5394 H 517.898 4.05722 -0.430513 0
M  V30 5395 H 516.573 3.85344 -1.56471 0
M  V30 5396 H 515.15 3.71979 0.261878 0
M  V30 5397 N 517.335 0.585699 1.46312 0
M  V30 5398 C 518.583 0.072278 2.01971 0
M  V30 5399 C 518.904 -1.29345 1.45928 0
M  V30 5400 O 518.174 -1.84973 0.645109 0
M  V30 5401 H 516.754 0.023729 0.746623 0
M  V30 5402 H 519.416 0.762155 1.7938 0
M  V30 5403 H 518.512 0.00552767 3.121 0
M  V30 5404 N 518.813 -1.54241 0.323641 0
M  V30 5405 C 520.043 -2.04687 -0.280464 0
M  V30 5406 C 520.451 -1.19939 -1.46326 0
M  V30 5407 O 519.794 -0.222872 -1.82343 0
M  V30 5408 C 519.856 -3.50978 -0.778123 0
M  V30 5409 C 519.52 -4.56127 0.282371 0
M  V30 5410 C 520.517 -5.07726 1.11847 0
M  V30 5411 C 518.202 -5.00451 0.430582 0
M  V30 5412 C 520.196 -6.02212 2.08851 0
M  V30 5413 C 517.883 -5.94752 1.40404 0
M  V30 5414 C 518.881 -6.45519 2.23147 0
M  V30 5415 O 518.569 -7.37968 3.1884 0
M  V30 5416 H 518.301 -0.673192 -0.0615473 0
M  V30 5417 H 520.855 -1.99999 0.467921 0
M  V30 5418 H 519.085 -3.53064 -1.57742 0
M  V30 5419 H 520.774 -3.84499 -1.30058 0
M  V30 5420 H 521.54 -4.74261 1.01496 0
M  V30 5421 H 517.419 -4.6055 -0.203569 0
M  V30 5422 H 520.963 -6.41761 2.73474 0
M  V30 5423 H 516.86 -6.27633 1.5082 0
M  V30 5424 H 517.628 -7.55841 3.14079 0
M  V30 5425 N 520.291 -0.0518155 -1.57515 0
M  V30 5426 C 521.537 0.622745 -1.93002 0
M  V30 5427 C 521.87 1.70456 -0.930499 0
M  V30 5428 O 521.145 1.94452 0.0434086 0
M  V30 5429 C 521.428 1.21824 -3.38867 0
M  V30 5430 C 521.281 0.144434 -4.49568 0
M  V30 5431 C 522.6 2.12968 -3.8514 0
M  V30 5432 H 519.719 0.22491 -0.701844 0
M  V30 5433 H 522.361 -0.113711 -1.89659 0
M  V30 5434 H 520.511 1.8459 -3.41846 0
M  V30 5435 H 522.183 -0.48753 -4.58717 0
M  V30 5436 H 520.426 -0.527424 -4.30582 0
M  V30 5437 H 521.097 0.601127 -5.48717 0
M  V30 5438 H 523.573 1.60163 -3.8404 0
M  V30 5439 H 522.449 2.51578 -4.87852 0
M  V30 5440 H 522.71 3.03004 -3.21934 0
M  V30 5441 N 521.769 1.56035 0.221574 0
M  V30 5442 C 522.994 1.83476 0.967026 0
M  V30 5443 C 523.419 0.632139 1.7716 0
M  V30 5444 O 522.777 -0.419082 1.7639 0
M  V30 5445 C 522.825 3.08907 1.86034 0
M  V30 5446 O 521.929 2.876 2.95567 0
M  V30 5447 H 521.27 0.604913 0.273817 0
M  V30 5448 H 523.8 2.03247 0.234893 0
M  V30 5449 H 523.81 3.3901 2.27016 0
M  V30 5450 H 522.485 3.96068 1.26898 0
M  V30 5451 H 521.062 2.6873 2.58532 0
M  V30 5452 N 523.247 -0.488276 1.49845 0
M  V30 5453 C 524.495 -1.23911 1.59657 0
M  V30 5454 C 524.816 -1.92816 0.291005 0
M  V30 5455 O 524.086 -1.83328 -0.690485 0
M  V30 5456 H 522.666 -0.460357 0.588286 0
M  V30 5457 H 525.328 -0.564794 1.86537 0
M  V30 5458 H 524.424 -1.99625 2.39909 0
M  V30 5459 N 524.725 -1.39134 -0.740242 0
M  V30 5460 C 525.971 -1.37278 -1.50088 0
M  V30 5461 C 526.326 0.0329967 -1.92372 0
M  V30 5462 O 525.619 0.998447 -1.63529 0
M  V30 5463 C 525.813 -2.27457 -2.75678 0
M  V30 5464 C 525.642 -3.76662 -2.45674 0
M  V30 5465 C 524.412 -4.45617 -2.38229 0
M  V30 5466 C 526.61 -4.6877 -2.11563 0
M  V30 5467 N 524.592 -5.80187 -2.00641 0
M  V30 5468 C 525.963 -5.91951 -1.84376 0
M  V30 5469 C 528.018 -4.56843 -1.97987 0
M  V30 5470 C 526.721 -7.04538 -1.4498 0
M  V30 5471 C 528.747 -5.69347 -1.59994 0
M  V30 5472 C 528.109 -6.91597 -1.33687 0
M  V30 5473 H 524.208 -0.557611 -0.548265 0
M  V30 5474 H 526.792 -1.74638 -0.860784 0
M  V30 5475 H 524.963 -1.92263 -3.37475 0
M  V30 5476 H 526.695 -2.16631 -3.41838 0
M  V30 5477 H 523.45 -3.98993 -2.5515 0
M  V30 5478 H 523.874 -6.51387 -1.84454 0
M  V30 5479 H 528.516 -3.62868 -2.16995 0
M  V30 5480 H 526.234 -7.98419 -1.24712 0
M  V30 5481 H 529.82 -5.62104 -1.50102 0
M  V30 5482 H 528.7 -7.77176 -1.04728 0
M  V30 5483 N 526.204 0.969867 -1.24223 0
M  V30 5484 C 527.452 1.70918 -1.0785 0
M  V30 5485 C 527.773 1.91186 0.383763 0
M  V30 5486 O 527.043 1.48806 1.27411 0
M  V30 5487 H 525.623 0.633334 -0.396103 0
M  V30 5488 H 528.285 1.16689 -1.56108 0
M  V30 5489 H 527.381 2.69455 -1.57482 0
M  V30 5490 N 527.682 1.05563 1.17022 0
M  V30 5491 C 529.098 0.777684 1.39371 0
M  V30 5492 C 529.298 -0.626269 1.91521 0
M  V30 5493 O 528.354 -1.38806 2.10924 0
M  V30 5494 C 529.667 1.83642 2.3811 0
M  V30 5495 C 531.215 1.85907 2.51809 0
M  V30 5496 C 531.69 2.90813 3.53824 0
M  V30 5497 N 533.181 2.898 3.61345 0
M  V30 5498 C 533.916 3.6762 4.40049 0
M  V30 5499 N 533.412 4.55237 5.22237 0
M  V30 5500 N 535.205 3.56044 4.34959 0
M  V30 5501 H 527.356 1.9614 0.815047 0
M  V30 5502 H 529.619 0.849527 0.420722 0
M  V30 5503 H 529.325 2.84425 2.06871 0
M  V30 5504 H 529.199 1.6812 3.37662 0
M  V30 5505 H 531.586 0.857865 2.82356 0
M  V30 5506 H 531.667 2.05506 1.52318 0
M  V30 5507 H 531.311 3.91122 3.24015 0
M  V30 5508 H 531.241 2.68465 4.53028 0
M  V30 5509 H 533.732 2.26274 3.02669 0
M  V30 5510 H 534.045 5.11291 5.79484 0
M  V30 5511 H 532.39 4.59296 5.21605 0
M  V30 5512 H 535.581 2.86986 3.69806 0
M  V30 5513 H 535.754 4.16938 4.96051 0
M  V30 5514 N 529.16 -1.33526 0.837174 0
M  V30 5515 C 530.406 -1.9813 0.432704 0
M  V30 5516 C 530.739 -1.66168 -1.00508 0
M  V30 5517 O 530.014 -0.94069 -1.70239 0
M  V30 5518 C 530.297 -3.54151 0.651834 0
M  V30 5519 C 530.15 -3.95806 2.13676 0
M  V30 5520 C 531.469 -4.39993 0.0968937 0
M  V30 5521 H 528.588 -0.719713 0.15869 0
M  V30 5522 H 531.23 -1.58193 1.05237 0
M  V30 5523 H 529.38 -3.88301 0.124369 0
M  V30 5524 H 531.052 -3.71921 2.72896 0
M  V30 5525 H 529.295 -3.45599 2.62191 0
M  V30 5526 H 529.966 -5.0447 2.24084 0
M  V30 5527 H 532.442 -4.12479 0.547733 0
M  V30 5528 H 531.318 -5.48186 0.279917 0
M  V30 5529 H 531.579 -4.3066 -0.9992 0
M  V30 5530 N 530.638 -0.59345 -1.46 0
M  V30 5531 C 531.885 -0.0831523 -2.02329 0
M  V30 5532 C 532.213 1.28093 -1.46364 0
M  V30 5533 O 531.468 1.85526 -0.622793 0
M  V30 5534 C 531.767 0.021178 -3.57394 0
M  V30 5535 C 531.433 -1.27671 -4.32448 0
M  V30 5536 C 530.095 -1.63227 -4.5267 0
M  V30 5537 C 532.447 -2.13511 -4.7546 0
M  V30 5538 C 529.775 -2.84401 -5.1316 0
M  V30 5539 C 532.127 -3.33922 -5.37289 0
M  V30 5540 C 530.791 -3.69747 -5.55737 0
M  V30 5541 H 530.061 -0.0304276 -0.740375 0
M  V30 5542 H 532.708 -0.772239 -1.75239 0
M  V30 5543 H 531.013 0.793454 -3.83682 0
M  V30 5544 H 532.71 0.431942 -3.98667 0
M  V30 5545 H 529.3 -0.989937 -4.17011 0
M  V30 5546 H 533.484 -1.87344 -4.59582 0
M  V30 5547 H 528.74 -3.12282 -5.25633 0
M  V30 5548 H 532.914 -4.00698 -5.69574 0
M  V30 5549 H 530.541 -4.6373 -6.02377 0
M  V30 5550 N 532.116 1.54067 -0.331816 0
M  V30 5551 C 533.066 2.21363 0.546101 0
M  V30 5552 C 534.05 1.19698 1.07523 0
M  V30 5553 O 535.242 1.45293 1.01088 0
M  V30 5554 C 532.371 2.98115 1.70242 0
M  V30 5555 C 531.457 4.07127 1.18779 0
M  V30 5556 N 531.848 5.04267 0.393465 0
M  V30 5557 C 530.146 4.21226 1.46576 0
M  V30 5558 C 530.847 5.81585 0.115572 0
M  V30 5559 N 529.823 5.39022 0.703987 0
M  V30 5560 H 533.625 2.93821 -0.0679751 0
M  V30 5561 H 531.139 1.61812 -0.138085 0
M  V30 5562 H 533.136 3.44818 2.34321 0
M  V30 5563 H 531.796 2.27181 2.31989 0
M  V30 5564 H 532.807 5.17888 0.0355757 0
M  V30 5565 H 529.484 3.61509 2.08848 0
M  V30 5566 H 530.874 6.6985 -0.524426 0
M  V30 5567 N 533.594 0.0601682 1.57485 0
M  V30 5568 C 534.541 -0.91112 2.12055 0
M  V30 5569 C 535.511 -1.30298 1.03013 0
M  V30 5570 O 536.696 -1.39087 1.30612 0
M  V30 5571 C 533.836 -2.1775 2.67729 0
M  V30 5572 C 532.949 -1.83933 3.90887 0
M  V30 5573 C 532.084 -3.05096 4.34845 0
M  V30 5574 C 531.123 -2.67241 5.5068 0
M  V30 5575 N 530.26 -3.81127 5.8965 0
M  V30 5576 H 535.1 -0.43888 2.9475 0
M  V30 5577 H 532.637 -0.204995 1.45665 0
M  V30 5578 H 534.595 -2.91866 2.98111 0
M  V30 5579 H 533.225 -2.62535 1.87816 0
M  V30 5580 H 532.277 -0.999287 3.6704 0
M  V30 5581 H 533.589 -1.52074 4.75052 0
M  V30 5582 H 532.743 -3.87502 4.66827 0
M  V30 5583 H 531.482 -3.40139 3.49509 0
M  V30 5584 H 530.487 -1.83254 5.18361 0
M  V30 5585 H 531.712 -2.3338 6.37738 0
M  V30 5586 H 529.658 -4.15954 5.07266 0
M  V30 5587 H 529.575 -3.52997 6.68528 0
M  V30 5588 H 530.843 -4.64145 6.2625 0
M  V30 5589 N 535.072 -1.5615 -0.213296 0
M  V30 5590 C 536.32 -1.79191 -0.934612 0
M  V30 5591 C 536.641 -0.630112 -1.84539 0
M  V30 5592 O 535.911 0.35257 -1.92701 0
M  V30 5593 H 534.491 -0.660937 -0.348097 0
M  V30 5594 H 537.153 -1.93618 -0.22317 0
M  V30 5595 H 536.249 -2.71656 -1.53654 0
M  V30 5596 N 536.55 0.480323 -1.50102 0
M  V30 5597 C 537.966 0.813295 -1.37323 0
M  V30 5598 C 538.166 1.97027 -0.422206 0
M  V30 5599 O 537.222 2.5212 0.138563 0
M  V30 5600 C 538.535 1.13404 -2.78496 0
M  V30 5601 C 540.083 1.24104 -2.87345 0
M  V30 5602 C 540.558 1.59497 -4.29331 0
M  V30 5603 N 542.049 1.66507 -4.32238 0
M  V30 5604 C 542.784 1.95378 -5.39087 0
M  V30 5605 N 542.28 2.22333 -6.56155 0
M  V30 5606 N 544.073 1.96803 -5.26522 0
M  V30 5607 H 536.224 -0.282291 -2.10516 0
M  V30 5608 H 538.487 -0.063752 -0.945854 0
M  V30 5609 H 538.193 0.357064 -3.49883 0
M  V30 5610 H 538.067 2.07251 -3.15162 0
M  V30 5611 H 540.454 2.00871 -2.16183 0
M  V30 5612 H 540.535 0.282593 -2.54234 0
M  V30 5613 H 540.179 0.832736 -5.01027 0
M  V30 5614 H 540.109 2.56477 -4.59921 0
M  V30 5615 H 542.6 1.47753 -3.47818 0
M  V30 5616 H 542.913 2.43611 -7.33399 0
M  V30 5617 H 541.258 2.19745 -6.59346 0
M  V30 5618 H 544.449 1.75235 -4.34062 0
M  V30 5619 H 544.622 2.18969 -6.09883 0
M  V30 5620 N 538.028 1.39524 0.732853 0
M  V30 5621 C 539.253 1.40329 1.52717 0
M  V30 5622 C 539.678 0.000286574 1.881 0
M  V30 5623 O 539.036 -0.987262 1.52062 0
M  V30 5624 C 539.084 2.28464 2.78992 0
M  V30 5625 O 538.188 1.716 3.75003 0
M  V30 5626 H 537.529 0.47778 0.461109 0
M  V30 5627 H 540.059 1.83546 0.903996 0
M  V30 5628 H 540.069 2.43051 3.27705 0
M  V30 5629 H 538.744 3.30425 2.52572 0
M  V30 5630 H 537.321 1.66267 3.33781 0
M  V30 5631 N 539.506 -0.963266 1.24736 0
M  V30 5632 C 540.469 -2.04013 1.04457 0
M  V30 5633 C 541.469 -1.608 0.000335555 0
M  V30 5634 O 542.659 -1.72515 0.241719 0
M  V30 5635 C 539.791 -3.35858 0.584162 0
M  V30 5636 H 540.984 -2.23436 2.00041 0
M  V30 5637 H 538.537 -1.13914 1.07021 0
M  V30 5638 H 539.272 -3.22128 -0.374673 0
M  V30 5639 H 539.057 -3.68568 1.3379 0
M  V30 5640 H 540.547 -4.1502 0.463451 0
M  V30 5641 N 540.985 -1.06182 -1.16461 0
M  V30 5642 C 541.915 -0.692861 -2.22984 0
M  V30 5643 C 542.896 0.314122 -1.67174 0
M  V30 5644 O 544.081 0.189499 -1.93273 0
M  V30 5645 C 541.211 -0.07732 -3.47214 0
M  V30 5646 C 540.165 -1.01015 -4.15909 0
M  V30 5647 C 539.491 -0.257973 -5.34077 0
M  V30 5648 C 540.791 -2.33868 -4.67015 0
M  V30 5649 H 542.485 -1.58343 -2.54102 0
M  V30 5650 H 540.031 -0.76279 -1.22137 0
M  V30 5651 H 541.984 0.19266 -4.20959 0
M  V30 5652 H 540.708 0.848254 -3.15392 0
M  V30 5653 H 539.367 -1.26486 -3.44088 0
M  V30 5654 H 539.015 0.670684 -4.98509 0
M  V30 5655 H 538.715 -0.879638 -5.80979 0
M  V30 5656 H 540.239 0.00448788 -6.106 0
M  V30 5657 H 541.653 -2.1279 -5.32347 0
M  V30 5658 H 540.05 -2.91522 -5.24533 0
M  V30 5659 H 541.12 -2.97019 -3.83286 0
M  V30 5660 N 542.463 1.3308 -0.844243 0
M  V30 5661 C 543.709 1.97898 -0.443206 0
M  V30 5662 C 544.042 1.66699 0.99625 0
M  V30 5663 O 543.317 0.949704 1.69738 0
M  V30 5664 C 543.6 3.53801 -0.670606 0
M  V30 5665 C 543.453 3.94667 -2.15772 0
M  V30 5666 C 544.772 4.39936 -0.120226 0
M  V30 5667 H 541.891 0.718861 -0.162504 0
M  V30 5668 H 544.533 1.57633 -1.06075 0
M  V30 5669 H 542.683 3.88229 -0.14496 0
M  V30 5670 H 544.355 3.70469 -2.74865 0
M  V30 5671 H 542.598 3.44203 -2.6402 0
M  V30 5672 H 543.269 5.03275 -2.26757 0
M  V30 5673 H 545.745 4.12183 -0.5696 0
M  V30 5674 H 544.621 5.4803 -0.308984 0
M  V30 5675 H 544.882 4.31184 0.976347 0
M  V30 5676 N 543.941 0.601185 1.45683 0
M  V30 5677 C 544.871 -0.108824 2.33246 0
M  V30 5678 C 545.852 -0.865223 1.46451 0
M  V30 5679 O 547.037 -0.83704 1.75235 0
M  V30 5680 C 544.167 -1.11101 3.2905 0
M  V30 5681 C 543.121 -0.468244 4.25431 0
M  V30 5682 C 542.447 -1.57822 5.10878 0
M  V30 5683 C 543.747 0.606469 5.18767 0
M  V30 5684 H 545.441 0.622306 2.92861 0
M  V30 5685 H 542.987 0.300714 1.40825 0
M  V30 5686 H 544.94 -1.61622 3.89174 0
M  V30 5687 H 543.664 -1.87265 2.67581 0
M  V30 5688 H 542.323 0.0160484 3.66596 0
M  V30 5689 H 541.971 -2.32998 4.45781 0
M  V30 5690 H 541.671 -1.15369 5.76163 0
M  V30 5691 H 543.195 -2.08583 5.73869 0
M  V30 5692 H 544.609 0.185589 5.73 0
M  V30 5693 H 543.006 0.952381 5.92494 0
M  V30 5694 H 544.076 1.48559 4.61582 0
M  V30 5695 N 545.419 -1.53889 0.339982 0
M  V30 5696 C 546.351 -2.22435 -0.55275 0
M  V30 5697 C 547.364 -1.22975 -1.06681 0
M  V30 5698 O 548.553 -1.49351 -0.977575 0
M  V30 5699 C 545.653 -2.8882 -1.77302 0
M  V30 5700 C 544.826 -4.14563 -1.39486 0
M  V30 5701 C 543.885 -4.64391 -2.47442 0
M  V30 5702 O 542.911 -5.28687 -2.10899 0
M  V30 5703 N 544.113 -4.40015 -3.78639 0
M  V30 5704 H 546.878 -2.9968 0.0342669 0
M  V30 5705 H 544.439 -1.61068 0.16394 0
M  V30 5706 H 546.431 -3.19072 -2.48948 0
M  V30 5707 H 545.001 -2.15182 -2.26749 0
M  V30 5708 H 544.221 -3.90896 -0.509321 0
M  V30 5709 H 545.509 -4.96362 -1.11813 0
M  V30 5710 H 544.907 -3.88586 -4.11118 0
M  V30 5711 H 543.464 -4.74881 -4.46465 0
M  V30 5712 N 546.897 -0.0685191 -1.57451 0
M  V30 5713 C 548.127 0.609577 -1.97402 0
M  V30 5714 C 548.535 1.63882 -0.945489 0
M  V30 5715 O 547.878 1.8354 0.0766052 0
M  V30 5716 C 547.94 1.3385 -3.33653 0
M  V30 5717 C 547.604 0.463103 -4.54648 0
M  V30 5718 C 548.601 -0.277964 -5.19156 0
M  V30 5719 C 546.286 0.388941 -5.00792 0
M  V30 5720 C 548.28 -1.08145 -6.28159 0
M  V30 5721 C 545.967 -0.418217 -6.09667 0
M  V30 5722 C 546.965 -1.15208 -6.73213 0
M  V30 5723 O 546.653 -1.94594 -7.79993 0
M  V30 5724 H 546.385 0.170197 -0.654224 0
M  V30 5725 H 548.939 -0.13647 -2.04946 0
M  V30 5726 H 547.169 2.13055 -3.22714 0
M  V30 5727 H 548.858 1.90851 -3.58233 0
M  V30 5728 H 549.624 -0.230241 -4.84453 0
M  V30 5729 H 545.503 0.949769 -4.5111 0
M  V30 5730 H 549.047 -1.65476 -6.7769 0
M  V30 5731 H 544.944 -0.467515 -6.43805 0
M  V30 5732 H 545.712 -1.8699 -7.96854 0
M  V30 5733 N 548.375 1.56261 0.205012 0
M  V30 5734 C 549.305 1.96779 1.257 0
M  V30 5735 C 550.286 0.838309 1.48008 0
M  V30 5736 O 551.471 1.10189 1.59913 0
M  V30 5737 C 548.601 2.29876 2.60335 0
M  V30 5738 C 547.555 3.45469 2.52656 0
M  V30 5739 C 546.881 3.64215 3.91473 0
M  V30 5740 C 548.181 4.79954 2.06014 0
M  V30 5741 H 549.875 2.84904 0.920338 0
M  V30 5742 H 547.421 1.37072 0.441277 0
M  V30 5743 H 549.374 2.56814 3.34102 0
M  V30 5744 H 548.098 1.38622 2.95722 0
M  V30 5745 H 546.757 3.18605 1.81345 0
M  V30 5746 H 546.405 2.70309 4.24196 0
M  V30 5747 H 546.105 4.41973 3.87213 0
M  V30 5748 H 547.629 3.93519 4.66878 0
M  V30 5749 H 549.043 5.05989 2.69533 0
M  V30 5750 H 547.44 5.61111 2.12777 0
M  V30 5751 H 548.51 4.74201 1.01297 0
M  V30 5752 N 549.853 -0.472356 1.50355 0
M  V30 5753 C 551.269 -0.806001 1.37753 0
M  V30 5754 C 551.469 -1.968 0.432649 0
M  V30 5755 O 550.525 -2.52189 -0.12519 0
M  V30 5756 C 551.838 -1.11926 2.79093 0
M  V30 5757 C 553.386 -1.22579 2.87999 0
M  V30 5758 C 553.861 -1.57218 4.3017 0
M  V30 5759 N 555.352 -1.64212 4.33115 0
M  V30 5760 C 556.087 -1.92517 5.40116 0
M  V30 5761 N 555.583 -2.1885 6.57325 0
M  V30 5762 N 557.376 -1.94008 5.27558 0
M  V30 5763 H 549.527 0.293451 2.10363 0
M  V30 5764 H 551.79 0.0687672 0.945503 0
M  V30 5765 H 551.496 -0.338504 3.50067 0
M  V30 5766 H 551.37 -2.05577 3.16256 0
M  V30 5767 H 553.757 -1.99722 2.17245 0
M  V30 5768 H 553.838 -0.269107 2.54381 0
M  V30 5769 H 553.482 -0.806154 5.01461 0
M  V30 5770 H 553.412 -2.54034 4.61275 0
M  V30 5771 H 555.903 -1.45906 3.48597 0
M  V30 5772 H 556.216 -2.39718 7.3468 0
M  V30 5773 H 554.561 -2.16245 6.60502 0
M  V30 5774 H 557.752 -1.72931 4.34986 0
M  V30 5775 H 557.925 -2.15731 6.11035 0
M  V30 5776 N 551.331 -1.39911 -0.725443 0
M  V30 5777 C 552.577 -1.37858 -1.48738 0
M  V30 5778 C 552.91 0.0224187 -1.94187 0
M  V30 5779 O 552.185 0.989204 -1.67466 0
M  V30 5780 C 552.468 -2.3594 -2.72038 0
M  V30 5781 C 552.321 -3.85023 -2.32546 0
M  V30 5782 C 553.64 -2.31704 -3.74167 0
M  V30 5783 H 550.759 -0.502074 -0.539528 0
M  V30 5784 H 553.401 -1.70974 -0.828728 0
M  V30 5785 H 551.551 -2.0783 -3.28236 0
M  V30 5786 H 553.223 -4.2392 -1.81905 0
M  V30 5787 H 551.466 -4.01334 -1.64661 0
M  V30 5788 H 552.137 -4.49152 -3.20884 0
M  V30 5789 H 554.613 -2.5658 -3.27576 0
M  V30 5790 H 553.489 -3.02395 -4.58092 0
M  V30 5791 H 553.75 -1.3253 -4.21768 0
M  V30 5792 N 552.809 0.956637 -1.25245 0
M  V30 5793 C 554.22 1.51569 -1.09012 0
M  V30 5794 C 554.571 1.93322 0.334813 0
M  V30 5795 O 553.696 1.78421 1.22454 0
M  V30 5796 C 554.291 2.75444 -1.97271 0
M  V30 5797 C 552.85 3.27669 -1.8523 0
M  V30 5798 C 551.997 2.00517 -1.91542 0
M  V30 5799 H 554.948 0.773746 -1.3856 0
M  V30 5800 H 554.969 3.4919 -1.51151 0
M  V30 5801 H 554.481 2.45024 -3.00973 0
M  V30 5802 H 552.582 3.62914 -0.844045 0
M  V30 5803 H 552.695 3.9582 -2.69932 0
M  V30 5804 H 551.059 2.15727 -1.35404 0
M  V30 5805 H 551.842 1.72448 -2.96844 0
M  V30 5806 N 554.287 1.06798 1.15896 0
M  V30 5807 C 555.217 0.704677 2.22613 0
M  V30 5808 C 556.198 -0.305252 1.67339 0
M  V30 5809 O 557.383 -0.179247 1.93371 0
M  V30 5810 C 554.513 0.0957325 3.47168 0
M  V30 5811 C 553.467 1.0322 4.15367 0
M  V30 5812 C 552.793 0.286293 5.33933 0
M  V30 5813 C 554.093 2.36341 4.65768 0
M  V30 5814 H 555.787 1.59688 2.53259 0
M  V30 5815 H 553.333 0.769257 1.21731 0
M  V30 5816 H 555.286 -0.170333 4.21056 0
M  V30 5817 H 554.01 -0.831516 3.15838 0
M  V30 5818 H 552.669 1.28309 3.43413 0
M  V30 5819 H 552.317 -0.644237 4.98857 0
M  V30 5820 H 552.017 0.910436 5.80504 0
M  V30 5821 H 553.541 0.0278938 6.10594 0
M  V30 5822 H 554.955 2.1561 5.31211 0
M  V30 5823 H 553.352 2.94299 5.2298 0
M  V30 5824 H 554.422 2.99047 3.81705 0
M  V30 5825 N 555.766 -1.3263 0.851289 0
M  V30 5826 C 557.012 -1.9766 0.453694 0
M  V30 5827 C 557.345 -1.67225 -0.987396 0
M  V30 5828 O 556.62 -0.958693 -1.69232 0
M  V30 5829 C 556.903 -3.5344 0.68936 0
M  V30 5830 C 556.756 -3.93517 2.17862 0
M  V30 5831 C 558.075 -4.39866 0.143555 0
M  V30 5832 H 555.194 -0.717989 0.166314 0
M  V30 5833 H 557.836 -1.57068 1.06909 0
M  V30 5834 H 555.986 -3.88147 0.165546 0
M  V30 5835 H 557.658 -3.69006 2.76826 0
M  V30 5836 H 555.901 -3.42798 2.65841 0
M  V30 5837 H 556.572 -5.02065 2.29422 0
M  V30 5838 H 559.048 -4.11875 0.591451 0
M  V30 5839 H 557.924 -5.47858 0.338043 0
M  V30 5840 H 558.185 -4.31696 -0.953466 0
M  V30 5841 N 557.244 -0.608902 -1.45362 0
M  V30 5842 C 558.521 -0.0365378 -1.95566 0
M  V30 5843 C 558.901 1.43169 -1.55131 0
M  V30 5844 O 558.249 2.1349 -0.814513 0
M  V30 5845 C 558.459 -0.236026 -3.48201 0
M  V30 5846 C 559.807 -0.117518 -4.24437 0
M  V30 5847 O 560.831 -0.166217 -3.55812 0
M  V30 5848 O 559.69 -0.00372127 -5.465 0
M  V30 5849 H 556.784 0.0349874 -0.82626 0
M  V30 5850 H 559.33 -0.679055 -1.55521 0
M  V30 5851 H 558.102 -1.25569 -3.70605 0
M  V30 5852 H 557.725 0.441691 -3.95139 0
M  V30 5853 N 558.722 1.53707 -0.348139 0
M  V30 5854 C 560.138 1.596 0.00361134 0
M  V30 5855 C 560.338 1.36394 1.4832 0
M  V30 5856 O 559.394 1.16046 2.24253 0
M  V30 5857 C 560.707 2.97512 -0.436682 0
M  V30 5858 C 562.255 3.10568 -0.389416 0
M  V30 5859 C 562.73 4.50866 -0.805249 0
M  V30 5860 N 564.221 4.56929 -0.759616 0
M  V30 5861 C 564.956 5.63643 -1.05327 0
M  V30 5862 N 564.452 6.78189 -1.41531 0
M  V30 5863 N 566.245 5.5354 -0.977207 0
M  V30 5864 H 558.396 1.67044 -1.31187 0
M  V30 5865 H 560.659 0.782559 -0.535075 0
M  V30 5866 H 560.365 3.19575 -1.46849 0
M  V30 5867 H 560.239 3.76742 0.185744 0
M  V30 5868 H 562.626 2.88226 0.633228 0
M  V30 5869 H 562.707 2.33387 -1.04711 0
M  V30 5870 H 562.351 4.73943 -1.82593 0
M  V30 5871 H 562.281 5.26452 -0.124989 0
M  V30 5872 H 564.772 3.74675 -0.49265 0
M  V30 5873 H 565.085 7.55541 -1.62411 0
M  V30 5874 H 563.43 6.79624 -1.45381 0
M  V30 5875 H 566.621 4.62932 -0.693675 0
M  V30 5876 H 566.794 6.36614 -1.2094 0
M  V30 5877 N 560.2 0.0768682 1.57412 0
M  V30 5878 C 561.163 -0.873949 2.11884 0
M  V30 5879 C 562.163 -1.22301 1.04398 0
M  V30 5880 O 563.353 -1.15545 1.30365 0
M  V30 5881 C 560.485 -2.17575 2.62438 0
M  V30 5882 H 561.678 -0.401278 2.97203 0
M  V30 5883 H 559.231 -0.171904 1.55352 0
M  V30 5884 H 559.966 -2.69368 1.80587 0
M  V30 5885 H 559.751 -1.93534 3.41009 0
M  V30 5886 H 561.241 -2.85631 3.04639 0
M  V30 5887 N 561.678 -1.56367 -0.196722 0
M  V30 5888 C 562.906 -1.84639 -0.933608 0
M  V30 5889 C 563.321 -0.659164 -1.76919 0
M  V30 5890 O 562.678 0.372142 -1.78665 0
M  V30 5891 C 562.729 -3.11694 -1.83109 0
M  V30 5892 O 562.45 -4.25838 -1.02924 0
M  V30 5893 C 563.951 -3.53132 -2.67979 0
M  V30 5894 H 561.171 -0.613188 -0.272473 0
M  V30 5895 H 563.715 -2.03475 -0.204465 0
M  V30 5896 H 561.87 -2.94759 -2.51387 0
M  V30 5897 H 562.284 -4.98178 -1.64069 0
M  V30 5898 H 563.758 -4.45005 -3.26611 0
M  V30 5899 H 564.235 -2.76045 -3.41608 0
M  V30 5900 H 564.841 -3.72592 -2.05074 0
M  V30 5901 N 563.156 0.464375 -1.50603 0
M  V30 5902 C 564.396 1.22573 -1.6357 0
M  V30 5903 C 564.76 1.89111 -0.331834 0
M  V30 5904 O 565.961 2.66679 -0.336999 0
M  V30 5905 C 564.232 2.23643 -2.7878 0
M  V30 5906 S 565.791 3.08628 -3.1192 0
M  V30 5907 H 562.609 0.416058 -0.576556 0
M  V30 5908 H 565.211 0.521637 -1.88412 0
M  V30 5909 H 563.915 1.73354 -3.7199 0
M  V30 5910 H 563.446 2.98672 -2.56044 0
M  V30 5911 H 565.461 4.24904 -2.56264 0
M  V30 5912 N 564.634 1.40294 0.718013 0
M  V30 5913 C 565.564 1.43118 1.84498 0
M  V30 5914 C 566.545 0.292403 1.67568 0
M  V30 5915 O 567.73 0.500675 1.87635 0
M  V30 5916 C 564.86 1.29065 3.22427 0
M  V30 5917 C 563.814 2.40521 3.54025 0
M  V30 5918 C 563.14 2.11546 4.91073 0
M  V30 5919 C 564.44 3.82859 3.55269 0
M  V30 5920 H 566.134 2.37432 1.82391 0
M  V30 5921 H 563.68 1.14283 0.87609 0
M  V30 5922 H 565.633 1.29658 4.00957 0
M  V30 5923 H 564.357 0.312271 3.25104 0
M  V30 5924 H 563.016 2.39173 2.77834 0
M  V30 5925 H 562.664 1.12104 4.90348 0
M  V30 5926 H 562.364 2.86216 5.1318 0
M  V30 5927 H 563.888 2.13817 5.71939 0
M  V30 5928 H 565.302 3.86044 4.23843 0
M  V30 5929 H 563.699 4.57029 3.88902 0
M  V30 5930 H 564.769 4.12617 2.54706 0
M  V30 5931 N 566.112 -0.949982 1.2575 0
M  V30 5932 C 567.528 -1.22191 1.02672 0
M  V30 5933 C 567.728 -1.99898 -0.253588 0
M  V30 5934 O 566.784 -2.33329 -0.965076 0
M  V30 5935 C 568.097 -1.99175 2.25277 0
M  V30 5936 C 569.645 -2.12201 2.30087 0
M  V30 5937 C 570.12 -2.92586 3.5236 0
M  V30 5938 N 571.611 -3.00163 3.52784 0
M  V30 5939 C 572.346 -3.62766 4.44059 0
M  V30 5940 N 571.842 -4.26943 5.45611 0
M  V30 5941 N 573.635 -3.59953 4.3173 0
M  V30 5942 H 565.786 -0.430258 2.07996 0
M  V30 5943 H 568.049 -0.252844 0.91366 0
M  V30 5944 H 567.755 -1.49479 3.18354 0
M  V30 5945 H 567.629 -2.99868 2.28821 0
M  V30 5946 H 570.016 -2.61093 1.3753 0
M  V30 5947 H 570.097 -1.10799 2.30559 0
M  V30 5948 H 569.741 -2.44383 4.45241 0
M  V30 5949 H 569.671 -3.94224 3.49134 0
M  V30 5950 H 572.162 -2.54529 2.79327 0
M  V30 5951 H 572.475 -4.72583 6.11461 0
M  V30 5952 H 570.82 -4.25557 5.49478 0
M  V30 5953 H 574.011 -3.09003 3.51617 0
M  V30 5954 H 574.184 -4.08455 5.03059 0
M  V30 5955 N 567.59 -1.07411 -1.15328 0
M  V30 5956 C 568.815 -0.818856 -1.90551 0
M  V30 5957 C 569.24 0.622194 -1.77512 0
M  V30 5958 O 568.598 1.43484 -1.10824 0
M  V30 5959 C 568.646 -1.23267 -3.38877 0
M  V30 5960 O 567.75 -0.378345 -4.10661 0
M  V30 5961 H 567.091 -0.29827 -0.593238 0
M  V30 5962 H 569.621 -1.43289 -1.46046 0
M  V30 5963 H 569.631 -1.20912 -3.89672 0
M  V30 5964 H 568.306 -2.28226 -3.47686 0
M  V30 5965 H 566.883 -0.464437 -3.69996 0
M  V30 5966 N 569.068 1.32177 -0.85831 0
M  V30 5967 C 570.296 2.01313 -0.477582 0
M  V30 5968 C 570.711 1.6449 0.926736 0
M  V30 5969 O 570.068 0.868096 1.60531 0
M  V30 5970 C 570.119 3.56293 -0.611337 0
M  V30 5971 O 569.84 3.91794 -1.96034 0
M  V30 5972 C 571.341 4.42702 -0.230093 0
M  V30 5973 H 568.561 0.644323 -0.187322 0
M  V30 5974 H 571.105 1.68674 -1.15626 0
M  V30 5975 H 569.26 3.87395 0.0196494 0
M  V30 5976 H 569.674 4.86513 -1.95973 0
M  V30 5977 H 571.148 5.50727 -0.374674 0
M  V30 5978 H 571.625 4.3129 0.829779 0
M  V30 5979 H 572.231 4.16997 -0.836302 0
M  V30 5980 N 570.547 0.616602 1.45037 0
M  V30 5981 C 571.494 -0.0969439 2.30596 0
M  V30 5982 C 572.464 -0.851151 1.42635 0
M  V30 5983 O 573.649 -0.835092 1.71554 0
M  V30 5984 C 570.789 -1.08234 3.27688 0
M  V30 5985 C 569.902 -0.328072 4.30752 0
M  V30 5986 C 569.037 -1.30399 5.14946 0
M  V30 5987 C 568.076 -0.538049 6.09731 0
M  V30 5988 N 567.213 -1.46371 6.86673 0
M  V30 5989 H 572.053 0.63864 2.91076 0
M  V30 5990 H 569.59 0.326733 1.43425 0
M  V30 5991 H 571.548 -1.66688 3.82454 0
M  V30 5992 H 570.178 -1.78523 2.68941 0
M  V30 5993 H 569.23 0.372136 3.78575 0
M  V30 5994 H 570.542 0.269142 4.98073 0
M  V30 5995 H 569.696 -1.96032 5.74157 0
M  V30 5996 H 568.435 -1.93514 4.47665 0
M  V30 5997 H 567.44 0.131852 5.49642 0
M  V30 5998 H 568.665 0.0881732 6.79043 0
M  V30 5999 H 566.611 -2.08233 6.22073 0
M  V30 6000 H 566.528 -0.920152 7.50379 0
M  V30 6001 H 567.796 -2.10932 7.50418 0
M  V30 6002 N 572.025 -1.5352 0.356285 0
M  V30 6003 C 573.272 -2.01117 -0.236303 0
M  V30 6004 C 573.6 -1.24381 -1.49531 0
M  V30 6005 O 572.855 -0.323057 -1.93015 0
M  V30 6006 C 573.154 -3.52607 -0.583369 0
M  V30 6007 C 572.82 -4.47151 0.58023 0
M  V30 6008 C 571.482 -4.72718 0.899528 0
M  V30 6009 C 573.834 -5.03137 1.36024 0
M  V30 6010 C 571.162 -5.51523 2.00098 0
M  V30 6011 C 573.514 -5.83145 2.45204 0
M  V30 6012 C 572.178 -6.07001 2.77679 0
M  V30 6013 H 571.448 -0.735938 -0.0864695 0
M  V30 6014 H 574.095 -1.85209 0.48683 0
M  V30 6015 H 572.4 -3.66413 -1.38739 0
M  V30 6016 H 574.097 -3.86901 -1.05397 0
M  V30 6017 H 570.687 -4.27394 0.321322 0
M  V30 6018 H 574.871 -4.83339 1.12682 0
M  V30 6019 H 570.127 -5.68229 2.25668 0
M  V30 6020 H 574.301 -6.25537 3.06067 0
M  V30 6021 H 571.928 -6.67851 3.63151 0
M  V30 6022 N 573.503 -0.0852151 -1.57369 0
M  V30 6023 C 574.731 0.58946 -1.98325 0
M  V30 6024 C 575.146 1.62333 -0.96403 0
M  V30 6025 O 574.503 1.82438 0.0476395 0
M  V30 6026 C 574.554 1.24604 -3.39347 0
M  V30 6027 O 574.275 0.253532 -4.37366 0
M  V30 6028 C 575.776 2.00726 -3.95252 0
M  V30 6029 H 572.996 0.158783 -0.651942 0
M  V30 6030 H 575.54 -0.161584 -2.03861 0
M  V30 6031 H 573.695 1.94808 -3.34856 0
M  V30 6032 H 574.109 0.726207 -5.19448 0
M  V30 6033 H 575.583 2.42039 -4.96106 0
M  V30 6034 H 576.06 2.86919 -3.32527 0
M  V30 6035 H 576.666 1.3536 -4.03185 0
M  V30 6036 N 574.981 1.5647 0.188427 0
M  V30 6037 C 576.23 1.80207 0.905995 0
M  V30 6038 C 576.543 0.659579 1.84144 0
M  V30 6039 O 577.749 0.781431 2.60011 0
M  V30 6040 C 576.205 3.19255 1.66145 0
M  V30 6041 C 575.813 4.41324 0.770504 0
M  V30 6042 C 577.557 3.52298 2.36826 0
M  V30 6043 C 575.464 5.71394 1.52521 0
M  V30 6044 H 574.394 0.671953 0.342045 0
M  V30 6045 H 577.045 1.82808 0.159164 0
M  V30 6046 H 575.427 3.10922 2.45242 0
M  V30 6047 H 576.601 4.60797 0.0177261 0
M  V30 6048 H 574.916 4.16035 0.174199 0
M  V30 6049 H 577.513 4.46715 2.93854 0
M  V30 6050 H 577.856 2.76359 3.11338 0
M  V30 6051 H 578.389 3.62108 1.6469 0
M  V30 6052 H 575.128 6.50316 0.82275 0
M  V30 6053 H 574.648 5.55928 2.25175 0
M  V30 6054 H 576.327 6.12747 2.07725 0
M  V30 6055 N 576.459 -0.456382 1.50847 0
M  V30 6056 C 577.689 -1.22848 1.66108 0
M  V30 6057 C 578.097 -1.85936 0.349897 0
M  V30 6058 O 577.44 -1.70664 -0.679665 0
M  V30 6059 C 577.502 -2.36722 2.70561 0
M  V30 6060 C 577.166 -1.94154 4.13707 0
M  V30 6061 C 578.163 -1.4557 4.99105 0
M  V30 6062 C 575.848 -2.02426 4.59705 0
M  V30 6063 C 577.842 -1.0582 6.28555 0
M  V30 6064 C 575.529 -1.62287 5.89157 0
M  V30 6065 C 576.527 -1.14064 6.73408 0
M  V30 6066 O 576.215 -0.744873 8.00442 0
M  V30 6067 H 575.947 -0.377105 0.561042 0
M  V30 6068 H 578.501 -0.549431 1.97915 0
M  V30 6069 H 576.731 -3.07844 2.34027 0
M  V30 6070 H 578.42 -2.98646 2.74892 0
M  V30 6071 H 579.186 -1.38589 4.64777 0
M  V30 6072 H 575.065 -2.38908 3.94264 0
M  V30 6073 H 578.609 -0.6811 6.94267 0
M  V30 6074 H 574.506 -1.68932 6.23003 0
M  V30 6075 H 575.274 -0.87242 8.13837 0
M  V30 6076 N 577.937 -1.40673 -0.710563 0
M  V30 6077 C 578.885 -1.41517 -1.84596 0
M  V30 6078 C 579.879 -0.295043 -1.66811 0
M  V30 6079 O 581.085 -0.466331 -1.73854 0
M  V30 6080 H 577.46 -0.442467 -0.608052 0
M  V30 6081 H 579.431 -2.37238 -1.80999 0
M  V30 6082 C 578.18 -1.29957 -3.225 0
M  V30 6083 H 577.503 -2.15429 -3.36794 0
M  V30 6084 H 578.943 -1.34608 -4.02066 0
M  V30 6085 C 577.402 -0.0103164 -3.36898 0
M  V30 6086 O 577.932 0.950707 -3.90288 0
M  V30 6087 N 576.138 0.0608409 -2.90536 0
M  V30 6088 H 575.685 -0.721943 -2.47277 0
M  V30 6089 H 575.643 0.92292 -3.00549 0
M  V30 6090 N 579.415 0.9433 -1.26252 0
M  V30 6091 C 580.363 2.06302 -1.07434 0
M  V30 6092 C 581.357 1.694 -0.00189471 0
M  V30 6093 O 582.563 1.79302 -0.158408 0
M  V30 6094 H 578.938 0.675453 -0.330556 0
M  V30 6095 H 580.909 2.19326 -2.02333 0
M  V30 6096 C 579.658 3.40125 -0.721817 0
M  V30 6097 H 578.981 3.68996 -1.5389 0
M  V30 6098 H 580.421 4.19295 -0.629922 0
M  V30 6099 C 578.88 3.31993 0.572902 0
M  V30 6100 O 579.41 3.67945 1.61182 0
M  V30 6101 N 577.616 2.85099 0.562748 0
M  V30 6102 H 577.163 2.5604 -0.283092 0
M  V30 6103 H 577.121 2.80041 1.42915 0
M  V30 6104 N 580.893 1.08022 1.14757 0
M  V30 6105 C 581.826 0.650738 2.18725 0
M  V30 6106 C 582.804 -0.335496 1.59101 0
M  V30 6107 O 583.988 -0.240295 1.86962 0
M  V30 6108 C 581.115 -0.0434377 3.38672 0
M  V30 6109 C 580.161 0.90232 4.16846 0
M  V30 6110 S 580.994 2.40693 4.78359 0
M  V30 6111 C 582.15 1.72475 6.01667 0
M  V30 6112 H 582.383 1.53152 2.54817 0
M  V30 6113 H 579.916 0.894823 1.25826 0
M  V30 6114 H 581.874 -0.437684 4.0816 0
M  V30 6115 H 580.535 -0.900659 3.0091 0
M  V30 6116 H 579.728 0.363445 5.02688 0
M  V30 6117 H 579.33 1.23728 3.52941 0
M  V30 6118 H 581.622 1.0404 6.69464 0
M  V30 6119 H 582.565 2.56175 6.60136 0
M  V30 6120 H 582.973 1.19979 5.51602 0
M  V30 6121 N 582.371 -1.3172 0.865308 0
M  V30 6122 C 583.618 -1.96876 0.473931 0
M  V30 6123 C 583.946 -1.68425 -0.972786 0
M  V30 6124 O 583.201 -0.970742 -1.69927 0
M  V30 6125 C 583.5 -3.5102 0.672283 0
M  V30 6126 C 583.166 -3.9948 2.09108 0
M  V30 6127 C 581.828 -4.12425 2.4791 0
M  V30 6128 C 584.18 -4.2503 3.0166 0
M  V30 6129 C 581.508 -4.48267 3.78515 0
M  V30 6130 C 583.86 -4.62335 4.31774 0
M  V30 6131 C 582.524 -4.73486 4.70497 0
M  V30 6132 H 581.794 -0.72042 0.173424 0
M  V30 6133 H 584.441 -1.56937 1.0974 0
M  V30 6134 H 582.746 -3.91785 -0.034356 0
M  V30 6135 H 584.443 -3.99475 0.349353 0
M  V30 6136 H 581.033 -3.89898 1.77981 0
M  V30 6137 H 585.217 -4.14529 2.7291 0
M  V30 6138 H 580.473 -4.55097 4.08285 0
M  V30 6139 H 584.647 -4.81058 5.03543 0
M  V30 6140 H 582.274 -5.01016 5.71741 0
M  V30 6141 N 583.85 -0.624285 -1.44708 0
M  V30 6142 C 585.09 -0.129273 -2.03991 0
M  V30 6143 C 585.454 1.22321 -1.47992 0
M  V30 6144 O 586.654 1.80993 -1.98734 0
M  V30 6145 C 584.926 -0.108231 -3.57236 0
M  V30 6146 S 586.485 0.323158 -4.37608 0
M  V30 6147 H 583.303 -0.0577318 -0.708652 0
M  V30 6148 H 585.904 -0.826139 -1.77187 0
M  V30 6149 H 584.609 -1.0958 -3.955 0
M  V30 6150 H 584.139 0.610101 -3.8864 0
M  V30 6151 H 586.154 1.56894 -4.70743 0
M  V30 6152 N 585.328 1.53329 -0.364422 0
M  V30 6153 C 586.291 2.24323 0.470292 0
M  V30 6154 C 587.291 1.25068 1.01067 0
M  V30 6155 O 588.481 1.49354 0.896605 0
M  V30 6156 C 585.613 2.97908 1.65722 0
M  V30 6157 H 586.806 2.9952 -0.150917 0
M  V30 6158 H 584.359 1.55868 -0.116092 0
M  V30 6159 H 585.094 2.2695 2.31655 0
M  V30 6160 H 584.879 3.70732 1.27671 0
M  V30 6161 H 586.369 3.5188 2.24878 0
M  V30 6162 N 586.806 0.0935595 1.57322 0
M  V30 6163 C 588.054 -0.569383 1.93913 0
M  V30 6164 C 588.375 -1.68817 0.976009 0
M  V30 6165 O 587.645 -1.9588 0.0278099 0
M  V30 6166 H 586.225 -0.21332 0.715894 0
M  V30 6167 H 588.887 0.156531 1.9427 0
M  V30 6168 H 587.983 -0.980577 2.96296 0
M  V30 6169 N 588.284 -1.56567 -0.180126 0
M  V30 6170 C 589.531 -1.81492 -0.898167 0
M  V30 6171 C 589.859 -0.669225 -1.82624 0
M  V30 6172 O 589.114 0.344096 -1.92651 0
M  V30 6173 C 589.413 -3.1252 -1.73395 0
M  V30 6174 C 589.079 -4.40658 -0.955567 0
M  V30 6175 C 587.741 -4.75465 -0.740707 0
M  V30 6176 C 590.093 -5.19593 -0.408948 0
M  V30 6177 C 587.421 -5.86691 0.0320128 0
M  V30 6178 C 589.773 -6.31627 0.350638 0
M  V30 6179 C 588.437 -6.65007 0.576378 0
M  V30 6180 H 587.707 -0.664125 -0.328662 0
M  V30 6181 H 590.354 -1.908 -0.163616 0
M  V30 6182 H 588.659 -2.98515 -2.53763 0
M  V30 6183 H 590.356 -3.29013 -2.29241 0
M  V30 6184 H 586.946 -4.13352 -1.13306 0
M  V30 6185 H 591.13 -4.93104 -0.562307 0
M  V30 6186 H 586.386 -6.11016 0.216735 0
M  V30 6187 H 590.56 -6.92001 0.781497 0
M  V30 6188 H 588.187 -7.51033 1.17703 0
M  V30 6189 N 589.762 0.448376 -1.51087 0
M  V30 6190 C 590.712 1.54156 -1.67988 0
M  V30 6191 C 591.696 1.5178 -0.534015 0
M  V30 6192 O 592.888 1.58419 -0.789448 0
M  V30 6193 C 590.017 2.92437 -1.79822 0
M  V30 6194 C 589.103 2.99611 -3.00157 0
M  V30 6195 N 589.494 2.7655 -4.23502 0
M  V30 6196 C 587.792 3.30764 -2.99184 0
M  V30 6197 C 588.493 2.89281 -5.0467 0
M  V30 6198 N 587.469 3.20473 -4.39088 0
M  V30 6199 H 591.271 1.35061 -2.61028 0
M  V30 6200 H 588.785 0.655504 -1.48583 0
M  V30 6201 H 590.782 3.71068 -1.90037 0
M  V30 6202 H 589.442 3.1256 -0.879554 0
M  V30 6203 H 590.453 2.5169 -4.52628 0
M  V30 6204 H 587.13 3.56732 -2.16907 0
M  V30 6205 H 588.52 2.75499 -6.12821 0
M  V30 6206 N 591.24 1.41047 0.703093 0
M  V30 6207 C 592.15 1.44645 1.84703 0
M  V30 6208 C 593.166 0.337778 1.7069 0
M  V30 6209 O 594.342 0.584327 1.92737 0
M  V30 6210 C 591.407 1.31928 3.20618 0
M  V30 6211 C 590.468 2.53047 3.46794 0
M  V30 6212 C 589.701 2.40927 4.76224 0
M  V30 6213 O 589.924 1.42978 5.5219 0
M  V30 6214 O 588.858 3.30543 5.03016 0
M  V30 6215 H 592.684 2.41139 1.84624 0
M  V30 6216 H 590.269 1.22504 0.855167 0
M  V30 6217 H 592.151 1.27092 4.01778 0
M  V30 6218 H 590.826 0.385469 3.21397 0
M  V30 6219 H 589.733 2.6346 2.65593 0
M  V30 6220 H 591.066 3.45231 3.50822 0
M  V30 6221 N 592.718 -0.936591 1.26751 0
M  V30 6222 C 593.966 -1.67998 1.12343 0
M  V30 6223 C 594.287 -1.92137 -0.332938 0
M  V30 6224 O 593.557 -1.52132 -1.23421 0
M  V30 6225 H 592.137 -0.622609 0.412756 0
M  V30 6226 H 594.799 -1.12509 1.59147 0
M  V30 6227 H 593.895 -2.65185 1.64571 0
M  V30 6228 N 594.196 -1.08629 -1.14182 0
M  V30 6229 C 595.444 -0.815731 -1.84906 0
M  V30 6230 C 595.765 0.660441 -1.83475 0
M  V30 6231 O 595.035 1.47888 -1.28476 0
M  V30 6232 H 593.615 -0.298773 -0.684648 0
M  V30 6233 H 596.277 -1.37274 -1.38354 0
M  V30 6234 H 595.373 -1.16193 -2.89665 0
M  V30 6235 N 595.674 1.31259 -0.872281 0
M  V30 6236 C 597.09 1.49283 -0.564521 0
M  V30 6237 C 597.29 1.80243 0.900807 0
M  V30 6238 O 596.346 1.88246 1.68284 0
M  V30 6239 C 597.659 2.62503 -1.46673 0
M  V30 6240 C 599.207 2.76386 -1.46901 0
M  V30 6241 C 599.682 3.92705 -2.35684 0
M  V30 6242 N 601.173 3.99995 -2.33577 0
M  V30 6243 C 601.908 4.89276 -2.98992 0
M  V30 6244 N 601.404 5.83443 -3.73585 0
M  V30 6245 N 603.197 4.82541 -2.88289 0
M  V30 6246 H 595.348 1.09432 -1.82039 0
M  V30 6247 H 597.611 0.540949 -0.77851 0
M  V30 6248 H 597.317 2.46407 -2.50951 0
M  V30 6249 H 597.191 3.58695 -1.16696 0
M  V30 6250 H 599.578 2.91894 -0.433796 0
M  V30 6251 H 599.659 1.80853 -1.80903 0
M  V30 6252 H 599.303 3.77954 -3.39283 0
M  V30 6253 H 599.233 4.87549 -1.99006 0
M  V30 6254 H 601.724 3.32624 -1.7936 0
M  V30 6255 H 602.037 6.48303 -4.20622 0
M  V30 6256 H 600.382 5.83415 -3.77694 0
M  V30 6257 H 603.573 4.07951 -2.2955 0
M  V30 6258 H 603.746 5.51916 -3.39549 0
M  V30 6259 N 597.152 0.631951 1.44375 0
M  V30 6260 C 598.429 0.067646 1.95483 0
M  V30 6261 C 598.809 -1.40683 1.57389 0
M  V30 6262 O 598.157 -2.12167 0.848375 0
M  V30 6263 C 598.367 0.291392 3.47781 0
M  V30 6264 C 599.715 0.185028 4.24197 0
M  V30 6265 O 600.739 0.222803 3.55503 0
M  V30 6266 O 599.598 0.0906642 5.46425 0
M  V30 6267 H 596.692 -0.0218379 0.826712 0
M  V30 6268 H 599.238 0.703711 1.54421 0
M  V30 6269 H 598.01 1.31449 3.68561 0
M  V30 6270 H 597.633 -0.378772 3.95792 0
M  V30 6271 N 598.631 -1.53133 0.372548 0
M  V30 6272 C 599.856 -2.0625 -0.218098 0
M  V30 6273 C 600.281 -1.24375 -1.41111 0
M  V30 6274 O 599.639 -0.264554 -1.79359 0
M  V30 6275 C 599.687 -3.55858 -0.582876 0
M  V30 6276 O 598.791 -3.76667 -1.67917 0
M  V30 6277 H 598.132 -0.663317 -0.030104 0
M  V30 6278 H 600.662 -1.97477 0.535169 0
M  V30 6279 H 600.672 -3.99007 -0.851925 0
M  V30 6280 H 599.347 -4.14892 0.289428 0
M  V30 6281 H 597.924 -3.45413 -1.40513 0
M  V30 6282 N 600.109 -0.101901 -1.5727 0
M  V30 6283 C 601.349 0.563489 -1.96479 0
M  V30 6284 C 601.713 1.64926 -0.983021 0
M  V30 6285 O 602.914 2.37234 -1.26386 0
M  V30 6286 C 601.185 1.09809 -3.40113 0
M  V30 6287 S 602.744 1.7744 -4.01323 0
M  V30 6288 H 599.562 0.183675 -0.686866 0
M  V30 6289 H 602.164 -0.182922 -1.94642 0
M  V30 6290 H 600.868 0.296447 -4.09328 0
M  V30 6291 H 600.399 1.88018 -3.45562 0
M  V30 6292 H 602.414 3.0591 -3.90683 0
M  V30 6293 N 601.587 1.56661 0.17182 0
M  V30 6294 C 602.519 1.92934 1.2373 0
M  V30 6295 C 603.532 0.822385 1.40502 0
M  V30 6296 O 604.721 1.10083 1.40514 0
M  V30 6297 C 601.821 2.16651 2.60607 0
M  V30 6298 C 600.994 3.47878 2.6514 0
M  V30 6299 C 600.053 3.60429 3.83377 0
M  V30 6300 O 599.079 4.33051 3.69398 0
M  V30 6301 N 600.281 2.95241 4.99813 0
M  V30 6302 H 603.046 2.84931 0.929205 0
M  V30 6303 H 600.607 1.5781 0.361588 0
M  V30 6304 H 602.599 2.22312 3.38171 0
M  V30 6305 H 601.169 1.3104 2.83809 0
M  V30 6306 H 600.389 3.53879 1.73675 0
M  V30 6307 H 601.677 4.34232 2.6518 0
M  V30 6308 H 601.075 2.3611 5.14071 0
M  V30 6309 H 599.632 3.06499 5.75241 0
M  V30 6310 N 603.065 -0.440357 1.51323 0
M  V30 6311 C 604.313 -1.18769 1.63518 0
M  V30 6312 C 604.634 -1.91793 0.352201 0
M  V30 6313 O 603.904 -1.85432 -0.631811 0
M  V30 6314 H 602.484 -0.441408 0.602634 0
M  V30 6315 H 605.146 -0.505162 1.8824 0
M  V30 6316 H 604.242 -1.91892 2.46138 0
M  V30 6317 N 604.543 -1.41418 -0.695603 0
M  V30 6318 C 605.82 -1.31264 -1.45014 0
M  V30 6319 C 606.2 0.0597994 -2.11015 0
M  V30 6320 O 605.548 1.07403 -2.01685 0
M  V30 6321 C 605.758 -2.466 -2.4696 0
M  V30 6322 C 607.106 -2.87763 -3.12214 0
M  V30 6323 O 608.13 -2.46339 -2.57285 0
M  V30 6324 O 606.989 -3.59395 -4.11701 0
M  V30 6325 H 604.083 -0.516576 -0.645816 0
M  V30 6326 H 606.629 -1.53382 -0.726084 0
M  V30 6327 H 605.401 -3.38183 -1.96845 0
M  V30 6328 H 605.024 -2.26358 -3.26876 0
M  V30 6329 N 606.021 0.929856 -1.27246 0
M  V30 6330 C 607.246 1.71674 -1.16374 0
M  V30 6331 C 607.671 1.86064 0.276024 0
M  V30 6332 O 607.029 1.3591 1.19992 0
M  V30 6333 C 607.077 3.09526 -1.85003 0
M  V30 6334 O 606.181 3.96142 -1.14653 0
M  V30 6335 H 605.522 0.52629 -0.404863 0
M  V30 6336 H 608.052 1.16381 -1.68276 0
M  V30 6337 H 608.062 3.59852 -1.92276 0
M  V30 6338 H 606.737 2.98369 -2.89739 0
M  V30 6339 H 605.314 3.54584 -1.15433 0
M  V30 6340 N 607.499 1.09233 1.13605 0
M  V30 6341 C 608.747 0.825525 1.84471 0
M  V30 6342 C 609.068 -0.650702 1.83823 0
M  V30 6343 O 608.338 -1.47204 1.29259 0
M  V30 6344 H 606.918 0.3024 0.683054 0
M  V30 6345 H 609.58 1.38006 1.37624 0
M  V30 6346 H 608.676 1.17727 2.89045 0
M  V30 6347 N 608.977 -1.30795 0.87923 0
M  V30 6348 C 610.225 -1.95974 0.493809 0
M  V30 6349 C 610.546 -1.69787 -0.959021 0
M  V30 6350 O 609.816 -1.01832 -1.67353 0
M  V30 6351 H 608.396 -0.725083 0.179622 0
M  V30 6352 H 611.058 -1.59432 1.12105 0
M  V30 6353 H 610.154 -3.05058 0.659263 0
M  V30 6354 N 610.455 -0.639598 -1.44038 0
M  V30 6355 C 611.866 -0.228866 -1.85292 0
M  V30 6356 C 612.217 1.22161 -1.53529 0
M  V30 6357 O 611.342 1.93064 -0.977518 0
M  V30 6358 C 611.937 -0.408592 -3.36327 0
M  V30 6359 C 610.496 -0.0522953 -3.76364 0
M  V30 6360 C 609.643 -0.717959 -2.67844 0
M  V30 6361 H 612.594 -0.844194 -1.34384 0
M  V30 6362 H 612.615 0.349968 -3.78887 0
M  V30 6363 H 612.127 -1.46435 -3.59414 0
M  V30 6364 H 610.228 1.0014 -3.58891 0
M  V30 6365 H 610.341 -0.468261 -4.76806 0
M  V30 6366 H 608.705 -0.152459 -2.54243 0
M  V30 6367 H 609.488 -1.77648 -2.93762 0
M  V30 6368 N 611.933 1.52934 -0.380664 0
M  V30 6369 C 612.883 2.22989 0.475399 0
M  V30 6370 C 613.867 1.23058 1.03661 0
M  V30 6371 O 615.059 1.48436 0.964146 0
M  V30 6372 C 612.188 3.0338 1.60671 0
M  V30 6373 C 611.274 4.107 1.05766 0
M  V30 6374 N 611.665 5.05264 0.232837 0
M  V30 6375 C 609.963 4.25676 1.33101 0
M  V30 6376 C 610.664 5.81658 -0.0695134 0
M  V30 6377 N 609.64 5.40989 0.532144 0
M  V30 6378 H 613.442 2.93456 -0.161418 0
M  V30 6379 H 610.956 1.61291 -0.189495 0
M  V30 6380 H 612.953 3.52098 2.23232 0
M  V30 6381 H 611.613 2.34446 2.24644 0
M  V30 6382 H 612.624 5.17739 -0.129204 0
M  V30 6383 H 609.301 3.6797 1.97241 0
M  V30 6384 H 610.691 6.67843 -0.737269 0
M  V30 6385 N 613.412 0.11024 1.57214 0
M  V30 6386 C 614.658 -0.550684 1.9518 0
M  V30 6387 C 614.991 -1.66885 0.993122 0
M  V30 6388 O 614.266 -1.94479 0.0287907 0
M  V30 6389 C 614.549 -1.09163 3.43155 0
M  V30 6390 C 614.402 0.0225198 4.49794 0
M  V30 6391 C 615.721 -1.98527 3.92778 0
M  V30 6392 H 612.84 -0.198706 0.709708 0
M  V30 6393 H 615.482 0.184024 1.89107 0
M  V30 6394 H 613.632 -1.71775 3.48462 0
M  V30 6395 H 615.304 0.657443 4.56591 0
M  V30 6396 H 613.547 0.686868 4.28328 0
M  V30 6397 H 614.218 -0.39706 5.5057 0
M  V30 6398 H 616.694 -1.458 3.8972 0
M  V30 6399 H 615.57 -2.33298 4.96853 0
M  V30 6400 H 615.831 -2.90846 3.32958 0
M  V30 6401 N 614.89 -1.56749 -0.16351 0
M  V30 6402 C 616.118 -1.86577 -0.894233 0
M  V30 6403 C 616.533 -0.696543 -1.75481 0
M  V30 6404 O 615.89 0.334161 -1.79415 0
M  V30 6405 C 615.941 -3.15508 -1.76456 0
M  V30 6406 O 615.662 -4.27926 -0.938685 0
M  V30 6407 C 617.163 -3.58737 -2.60428 0
M  V30 6408 H 614.383 -0.618829 -0.259405 0
M  V30 6409 H 616.927 -2.03863 -0.161259 0
M  V30 6410 H 615.082 -3.00025 -2.45079 0
M  V30 6411 H 615.496 -5.01546 -1.53465 0
M  V30 6412 H 616.97 -4.51832 -3.17099 0
M  V30 6413 H 617.447 -2.83229 -3.35675 0
M  V30 6414 H 618.053 -3.76858 -1.97125 0
M  V30 6415 N 616.368 0.432326 -1.51554 0
M  V30 6416 C 617.278 1.55023 -1.76082 0
M  V30 6417 C 618.294 1.61593 -0.645265 0
M  V30 6418 O 619.47 1.78742 -0.928086 0
M  V30 6419 C 616.535 2.90964 -1.88523 0
M  V30 6420 C 615.596 2.9447 -3.12388 0
M  V30 6421 C 614.829 4.23926 -3.24225 0
M  V30 6422 O 615.052 5.16576 -2.4188 0
M  V30 6423 O 613.986 4.33818 -4.17235 0
M  V30 6424 H 617.812 1.37238 -2.70923 0
M  V30 6425 H 615.397 0.615845 -1.36117 0
M  V30 6426 H 617.279 3.71633 -1.98662 0
M  V30 6427 H 615.954 3.08865 -0.9687 0
M  V30 6428 H 614.861 2.12737 -3.07723 0
M  V30 6429 H 616.194 2.81514 -4.03746 0
M  V30 6430 N 617.846 1.41785 0.688094 0
M  V30 6431 C 619.092 1.41753 1.4503 0
M  V30 6432 C 619.425 0.0290745 1.94178 0
M  V30 6433 O 618.7 -0.944456 1.7003 0
M  V30 6434 C 618.983 2.43069 2.65686 0
M  V30 6435 C 618.836 3.91053 2.22256 0
M  V30 6436 C 620.155 2.41543 3.67893 0
M  V30 6437 H 617.274 0.516202 0.526027 0
M  V30 6438 H 619.916 1.73111 0.783105 0
M  V30 6439 H 618.066 2.1646 3.2261 0
M  V30 6440 H 619.738 4.28594 1.70602 0
M  V30 6441 H 617.981 4.05559 1.53963 0
M  V30 6442 H 618.652 4.57501 3.08863 0
M  V30 6443 H 621.128 2.65175 3.20658 0
M  V30 6444 H 620.004 3.14434 4.49914 0
M  V30 6445 H 620.265 1.43666 4.18106 0
M  V30 6446 N 619.324 -0.923095 1.27737 0
M  V30 6447 C 620.234 -2.05765 1.12685 0
M  V30 6448 C 621.25 -1.73911 0.0557197 0
M  V30 6449 O 622.426 -1.99674 0.263137 0
M  V30 6450 C 619.491 -3.37804 0.780363 0
M  V30 6451 C 618.552 -3.83326 1.93286 0
M  V30 6452 C 617.785 -5.09064 1.60281 0
M  V30 6453 O 618.008 -5.6809 0.512828 0
M  V30 6454 O 616.942 -5.50071 2.44347 0
M  V30 6455 H 620.768 -2.21378 2.07907 0
M  V30 6456 H 618.353 -1.04299 1.06968 0
M  V30 6457 H 620.235 -4.17097 0.600668 0
M  V30 6458 H 618.91 -3.23387 -0.142291 0
M  V30 6459 H 617.817 -3.049 2.16764 0
M  V30 6460 H 619.15 -4.02292 2.83588 0
M  V30 6461 N 620.802 -1.09834 -1.13024 0
M  V30 6462 C 622.05 -0.835297 -1.8403 0
M  V30 6463 C 622.371 0.640944 -1.84165 0
M  V30 6464 O 621.641 1.46517 -1.30037 0
M  V30 6465 H 620.221 -0.306018 -0.681441 0
M  V30 6466 H 622.883 -1.38734 -1.36891 0
M  V30 6467 H 621.979 -1.19258 -2.88416 0
M  V30 6468 N 622.28 1.30327 -0.886154 0
M  V30 6469 C 623.508 2.00254 -0.520176 0
M  V30 6470 C 623.923 1.66419 0.891637 0
M  V30 6471 O 623.28 0.901951 1.58654 0
M  V30 6472 C 623.331 3.54916 -0.686775 0
M  V30 6473 O 623.052 3.87547 -2.04301 0
M  V30 6474 C 624.553 4.42115 -0.323945 0
M  V30 6475 H 621.773 0.640204 -0.200947 0
M  V30 6476 H 624.317 1.66183 -1.19178 0
M  V30 6477 H 622.472 3.8735 -0.0625273 0
M  V30 6478 H 622.886 4.82247 -2.06249 0
M  V30 6479 H 624.36 5.49808 -0.491407 0
M  V30 6480 H 624.837 4.32953 0.73811 0
M  V30 6481 H 625.443 4.15129 -0.924565 0
M  V30 6482 N 623.758 0.647228 1.43697 0
M  V30 6483 C 624.983 0.164083 2.0675 0
M  V30 6484 C 625.408 -1.15892 1.48158 0
M  V30 6485 O 624.766 -1.71459 0.589194 0
M  V30 6486 C 624.814 0.0800368 3.60511 0
M  V30 6487 O 623.918 -0.959453 4.01084 0
M  V30 6488 H 623.259 0.0921288 0.657578 0
M  V30 6489 H 625.789 0.88846 1.84303 0
M  V30 6490 H 625.799 -0.105263 4.07864 0
M  V30 6491 H 624.474 1.04586 4.02535 0
M  V30 6492 H 623.051 -0.747425 3.65333 0
M  V30 6493 N 625.236 -1.5273 0.388769 0
M  V30 6494 C 626.483 -2.01573 -0.19359 0
M  V30 6495 C 626.811 -1.27525 -1.46859 0
M  V30 6496 O 626.066 -0.363926 -1.92286 0
M  V30 6497 C 626.365 -3.53765 -0.508445 0
M  V30 6498 C 626.031 -4.4582 0.674947 0
M  V30 6499 C 624.693 -4.70703 0.999596 0
M  V30 6500 C 627.045 -5.00138 1.46666 0
M  V30 6501 C 624.373 -5.47155 2.11751 0
M  V30 6502 C 626.725 -5.77812 2.57518 0
M  V30 6503 C 625.389 -6.00975 2.90492 0
M  V30 6504 H 624.659 -0.737606 -0.0708397 0
M  V30 6505 H 627.306 -1.84134 0.526006 0
M  V30 6506 H 625.611 -3.69274 -1.30936 0
M  V30 6507 H 627.308 -3.8905 -0.971664 0
M  V30 6508 H 623.898 -4.26616 0.411906 0
M  V30 6509 H 628.082 -4.8084 1.22909 0
M  V30 6510 H 623.338 -5.63314 2.3767 0
M  V30 6511 H 627.512 -6.18904 3.19267 0
M  V30 6512 H 625.139 -6.59998 3.77236 0
M  V30 6513 N 626.714 -0.118576 -1.57153 0
M  V30 6514 C 627.644 0.828436 -2.1831 0
M  V30 6515 C 628.625 1.27758 -1.12303 0
M  V30 6516 O 629.81 1.34026 -1.40537 0
M  V30 6517 C 626.94 2.07876 -2.78217 0
M  V30 6518 C 625.894 1.76742 -3.89803 0
M  V30 6519 C 625.22 3.08801 -4.36516 0
M  V30 6520 C 626.52 1.03606 -5.11921 0
M  V30 6521 H 628.214 0.318824 -2.97698 0
M  V30 6522 H 625.76 0.151911 -1.43196 0
M  V30 6523 H 627.713 2.74584 -3.19659 0
M  V30 6524 H 626.437 2.61161 -1.96118 0
M  V30 6525 H 625.096 1.12424 -3.48936 0
M  V30 6526 H 624.744 3.6002 -3.51276 0
M  V30 6527 H 624.444 2.88743 -5.11763 0
M  V30 6528 H 625.968 3.76627 -4.80608 0
M  V30 6529 H 627.382 1.60467 -5.50385 0
M  V30 6530 H 625.779 0.936454 -5.92748 0
M  V30 6531 H 626.849 0.0227421 -4.84895 0
M  V30 6532 N 628.193 1.56834 0.155195 0
M  V30 6533 C 629.421 1.87049 0.884326 0
M  V30 6534 C 629.836 0.705839 1.7511 0
M  V30 6535 O 629.193 -0.324641 1.79589 0
M  V30 6536 C 629.244 3.1644 1.74781 0
M  V30 6537 O 628.965 4.28417 0.915978 0
M  V30 6538 C 630.466 3.60113 2.58522 0
M  V30 6539 H 627.686 0.620196 0.25612 0
M  V30 6540 H 630.23 2.03946 0.150445 0
M  V30 6541 H 628.385 3.01321 2.43484 0
M  V30 6542 H 628.799 5.02353 1.50803 0
M  V30 6543 H 630.273 4.53508 3.14698 0
M  V30 6544 H 630.75 2.85005 3.34169 0
M  V30 6545 H 631.356 3.77898 1.95124 0
M  V30 6546 N 629.671 -0.424282 1.51781 0
M  V30 6547 C 630.919 -1.17028 1.64769 0
M  V30 6548 C 631.24 -1.91409 0.372523 0
M  V30 6549 O 630.51 -1.86091 -0.612108 0
M  V30 6550 H 629.09 -0.434992 0.607282 0
M  V30 6551 H 631.752 -0.485169 1.88765 0
M  V30 6552 H 630.848 -1.8927 2.4816 0
M  V30 6553 N 631.149 -1.42148 -0.680565 0
M  V30 6554 C 632.398 -1.41604 -1.43636 0
M  V30 6555 C 632.711 -0.0337887 -1.95571 0
M  V30 6556 O 633.917 0.0942588 -2.71336 0
M  V30 6557 C 632.373 -2.49056 -2.59806 0
M  V30 6558 C 631.981 -3.9326 -2.14594 0
M  V30 6559 C 633.725 -2.5767 -3.37352 0
M  V30 6560 C 631.632 -4.92232 -3.27813 0
M  V30 6561 H 630.562 -0.526656 -0.539583 0
M  V30 6562 H 633.213 -1.68033 -0.737369 0
M  V30 6563 H 631.595 -2.15782 -3.32045 0
M  V30 6564 H 632.769 -4.35858 -1.49546 0
M  V30 6565 H 631.084 -3.88443 -1.50002 0
M  V30 6566 H 633.681 -3.28794 -4.21662 0
M  V30 6567 H 634.024 -1.61837 -3.83555 0
M  V30 6568 H 634.557 -2.90109 -2.72179 0
M  V30 6569 H 631.296 -5.89522 -2.86607 0
M  V30 6570 H 630.816 -4.5427 -3.91661 0
M  V30 6571 H 632.495 -5.13684 -3.93367 0
M  V30 6572 N 632.627 0.916307 -1.28225 0
M  V30 6573 C 633.876 1.65975 -1.14608 0
M  V30 6574 C 634.189 1.93204 0.305191 0
M  V30 6575 O 635.395 2.65611 0.562432 0
M  V30 6576 C 633.851 2.98989 -2.00333 0
M  V30 6577 C 633.459 2.79417 -3.50186 0
M  V30 6578 C 635.203 3.76856 -1.95397 0
M  V30 6579 C 633.11 4.08056 -4.28071 0
M  V30 6580 H 632.04 0.622587 -0.425324 0
M  V30 6581 H 634.691 1.01705 -1.52736 0
M  V30 6582 H 633.073 3.6438 -1.5506 0
M  V30 6583 H 634.247 2.22723 -4.034 0
M  V30 6584 H 632.562 2.14966 -3.56621 0
M  V30 6585 H 635.159 4.72203 -2.50856 0
M  V30 6586 H 635.502 4.05776 -0.930137 0
M  V30 6587 H 636.035 3.1828 -2.38626 0
M  V30 6588 H 632.774 3.8431 -5.31024 0
M  V30 6589 H 632.294 4.64371 -3.79631 0
M  V30 6590 H 633.973 4.76333 -4.37854 0
M  V30 6591 N 634.105 1.10431 1.1244 0
M  V30 6592 C 635.33 0.869089 1.88313 0
M  V30 6593 C 635.755 -0.574912 1.79099 0
M  V30 6594 O 635.113 -1.40496 1.14589 0
M  V30 6595 C 635.161 1.32208 3.3549 0
M  V30 6596 O 634.265 0.487092 4.09513 0
M  V30 6597 H 633.606 0.313894 0.585121 0
M  V30 6598 H 636.136 1.47111 1.42195 0
M  V30 6599 H 636.146 1.31201 3.86329 0
M  V30 6600 H 634.821 2.37364 3.41513 0
M  V30 6601 H 633.398 0.562372 3.68635 0
M  V30 6602 N 635.583 -1.29855 0.893053 0
M  V30 6603 C 636.829 -1.96488 0.52574 0
M  V30 6604 C 637.184 -1.69164 -0.916594 0
M  V30 6605 O 636.477 -0.990405 -1.64017 0
M  V30 6606 C 636.671 -3.49515 0.746588 0
M  V30 6607 C 636.5 -3.91715 2.20884 0
M  V30 6608 C 635.27 -4.16915 2.85499 0
M  V30 6609 C 637.468 -4.03934 3.18342 0
M  V30 6610 N 635.45 -4.45634 4.22236 0
M  V30 6611 C 636.821 -4.36629 4.40176 0
M  V30 6612 C 638.876 -3.86387 3.14021 0
M  V30 6613 C 637.579 -4.53605 5.58243 0
M  V30 6614 C 639.605 -4.04569 4.31367 0
M  V30 6615 C 638.967 -4.37617 5.5197 0
M  V30 6616 H 635.066 -0.743657 0.241863 0
M  V30 6617 H 637.65 -1.56927 1.15248 0
M  V30 6618 H 635.821 -3.88113 0.149281 0
M  V30 6619 H 637.553 -4.03224 0.345372 0
M  V30 6620 H 634.308 -4.10423 2.36326 0
M  V30 6621 H 634.732 -4.64114 4.92876 0
M  V30 6622 H 639.374 -3.59906 2.21873 0
M  V30 6623 H 637.092 -4.78925 6.50889 0
M  V30 6624 H 640.678 -3.92452 4.29503 0
M  V30 6625 H 639.558 -4.51395 6.41258 0
M  V30 6626 N 637.061 -0.65484 -1.43351 0
M  V30 6627 C 638.309 -0.168559 -2.01396 0
M  V30 6628 C 638.63 1.22235 -1.51933 0
M  V30 6629 O 637.9 1.81685 -0.732627 0
M  V30 6630 H 636.48 -0.0593244 -0.744641 0
M  V30 6631 H 639.142 -0.846871 -1.75539 0
M  V30 6632 H 638.238 -0.154428 -3.11718 0
M  V30 6633 N 638.539 1.52521 -0.396863 0
M  V30 6634 C 639.449 2.30403 0.44178 0
M  V30 6635 C 640.465 1.37625 1.06468 0
M  V30 6636 O 641.641 1.70697 1.06886 0
M  V30 6637 C 638.706 3.1013 1.54986 0
M  V30 6638 C 637.767 4.18628 0.951279 0
M  V30 6639 C 637 4.94543 2.00655 0
M  V30 6640 O 637.223 4.70629 3.22281 0
M  V30 6641 O 636.157 5.797 1.61962 0
M  V30 6642 H 639.983 3.03087 -0.192892 0
M  V30 6643 H 637.568 1.48537 -0.16038 0
M  V30 6644 H 639.45 3.59816 2.19341 0
M  V30 6645 H 638.125 2.40251 2.16935 0
M  V30 6646 H 637.032 3.73119 0.270773 0
M  V30 6647 H 638.365 4.90763 0.375887 0
M  V30 6648 N 640.017 0.126909 1.57088 0
M  V30 6649 C 640.927 -0.833867 2.1928 0
M  V30 6650 C 641.943 -1.2868 1.17122 0
M  V30 6651 O 643.119 -1.34815 1.49622 0
M  V30 6652 C 640.184 -2.0632 2.78627 0
M  V30 6653 C 639.245 -1.66143 3.95847 0
M  V30 6654 C 638.478 -2.83217 4.52354 0
M  V30 6655 O 638.701 -3.98868 4.0775 0
M  V30 6656 O 637.635 -2.59846 5.42922 0
M  V30 6657 H 641.461 -0.334564 3.01852 0
M  V30 6658 H 639.046 -0.0991091 1.49071 0
M  V30 6659 H 640.928 -2.78304 3.16425 0
M  V30 6660 H 639.603 -2.55242 1.99082 0
M  V30 6661 H 638.51 -0.912435 3.62802 0
M  V30 6662 H 639.843 -1.21957 4.76852 0
M  V30 6663 N 641.495 -1.56914 -0.146875 0
M  V30 6664 C 642.735 -1.85163 -0.86568 0
M  V30 6665 C 643.099 -0.711215 -1.78342 0
M  V30 6666 O 644.3 -0.874754 -2.54168 0
M  V30 6667 C 642.571 -3.18593 -1.61967 0
M  V30 6668 S 644.13 -3.68397 -2.38388 0
M  V30 6669 H 640.948 -0.6494 -0.289483 0
M  V30 6670 H 643.55 -1.95096 -0.125679 0
M  V30 6671 H 642.254 -3.99562 -0.93694 0
M  V30 6672 H 641.785 -3.11666 -2.40058 0
M  V30 6673 H 643.8 -3.37672 -3.63582 0
M  V30 6674 N 642.974 0.416227 -1.52004 0
M  V30 6675 C 643.937 1.48926 -1.74223 0
M  V30 6676 C 644.937 1.48693 -0.612119 0
M  V30 6677 O 646.127 1.50343 -0.879921 0
M  V30 6678 C 643.259 2.88372 -1.81809 0
M  V30 6679 H 644.452 1.3052 -2.70008 0
M  V30 6680 H 642.005 0.646271 -1.42313 0
M  V30 6681 H 642.74 3.12157 -0.879135 0
M  V30 6682 H 642.525 2.89944 -2.6396 0
M  V30 6683 H 644.015 3.66173 -2.00766 0
M  V30 6684 N 644.452 1.42507 0.673017 0
M  V30 6685 C 645.385 1.40557 1.79774 0
M  V30 6686 C 646.363 0.269606 1.60349 0
M  V30 6687 O 647.547 0.460105 1.82798 0
M  V30 6688 C 644.674 1.19815 3.168 0
M  V30 6689 C 643.72 2.36429 3.5497 0
M  V30 6690 S 644.553 3.98963 3.57196 0
M  V30 6691 C 645.709 3.80567 4.9691 0
M  V30 6692 H 645.942 2.35734 1.81154 0
M  V30 6693 H 643.475 1.293 0.843846 0
M  V30 6694 H 645.433 1.08535 3.95892 0
M  V30 6695 H 644.094 0.262215 3.13004 0
M  V30 6696 H 643.287 2.17669 4.54573 0
M  V30 6697 H 642.889 2.44233 2.83242 0
M  V30 6698 H 645.181 3.41668 5.85038 0
M  V30 6699 H 646.124 4.79852 5.20718 0
M  V30 6700 H 646.532 3.13399 4.69512 0
M  V30 6701 N 645.93 -0.909495 1.28709 0
M  V30 6702 C 646.877 -2.01245 1.13 0
M  V30 6703 C 647.847 -1.6608 0.0259684 0
M  V30 6704 O 649.032 -1.89835 0.191687 0
M  V30 6705 C 646.172 -3.35644 0.802315 0
M  V30 6706 C 645.285 -3.83653 1.98582 0
M  V30 6707 C 644.42 -5.06582 1.59837 0
M  V30 6708 C 643.459 -5.46934 2.74827 0
M  V30 6709 N 642.596 -6.61053 2.36546 0
M  V30 6710 H 647.436 -2.14013 2.0737 0
M  V30 6711 H 644.973 -1.0482 1.03205 0
M  V30 6712 H 646.931 -4.12963 0.593057 0
M  V30 6713 H 645.561 -3.22631 -0.104457 0
M  V30 6714 H 644.613 -3.02454 2.30708 0
M  V30 6715 H 645.925 -4.09515 2.84779 0
M  V30 6716 H 645.079 -5.91457 1.35143 0
M  V30 6717 H 643.818 -4.82537 0.707753 0
M  V30 6718 H 642.823 -4.60599 3.00215 0
M  V30 6719 H 644.048 -5.72965 3.64538 0
M  V30 6720 H 641.994 -6.3863 1.49959 0
M  V30 6721 H 641.911 -6.86662 3.16277 0
M  V30 6722 H 643.179 -7.49221 2.15146 0
M  V30 6723 N 647.408 -1.11026 -1.11852 0
M  V30 6724 C 648.656 -0.854769 -1.83134 0
M  V30 6725 C 648.977 0.621375 -1.84835 0
M  V30 6726 O 648.247 1.45129 -1.31584 0
M  V30 6727 H 646.827 -0.313229 -0.678157 0
M  V30 6728 H 649.489 -1.40178 -1.35411 0
M  V30 6729 H 648.585 -1.22311 -2.87135 0
M  V30 6730 N 648.886 1.2938 -0.899927 0
M  V30 6731 C 649.833 2.27713 -0.376243 0
M  V30 6732 C 650.803 1.57016 0.541774 0
M  V30 6733 O 651.988 1.84997 0.466966 0
M  V30 6734 C 649.128 3.42889 0.39 0
M  V30 6735 C 648.241 4.28369 -0.558938 0
M  V30 6736 C 647.376 5.30726 0.224379 0
M  V30 6737 C 646.415 6.07862 -0.719068 0
M  V30 6738 N 645.552 7.02094 0.0298569 0
M  V30 6739 H 650.392 2.71888 -1.21988 0
M  V30 6740 H 647.929 1.33724 -0.612879 0
M  V30 6741 H 649.887 4.08443 0.850314 0
M  V30 6742 H 648.517 2.99743 1.19809 0
M  V30 6743 H 647.569 3.62986 -1.13777 0
M  V30 6744 H 648.881 4.82068 -1.2811 0
M  V30 6745 H 648.035 6.02098 0.745881 0
M  V30 6746 H 646.774 4.77759 0.979674 0
M  V30 6747 H 645.779 5.35353 -1.25207 0
M  V30 6748 H 647.004 6.62917 -1.4737 0
M  V30 6749 H 644.95 6.51496 0.767415 0
M  V30 6750 H 644.867 7.5335 -0.632391 0
M  V30 6751 H 646.135 7.77685 0.531615 0
M  V30 6752 N 650.364 0.662433 1.43002 0
M  V30 6753 C 651.594 0.187343 2.05749 0
M  V30 6754 C 652.002 -1.15582 1.49791 0
M  V30 6755 O 651.345 -1.72651 0.627487 0
M  V30 6756 C 651.407 0.0316493 3.59486 0
M  V30 6757 C 651.071 1.30156 4.38073 0
M  V30 6758 C 652.068 2.23234 4.69535 0
M  V30 6759 C 649.753 1.54572 4.77926 0
M  V30 6760 C 651.747 3.39012 5.39768 0
M  V30 6761 C 649.434 2.70641 5.47902 0
M  V30 6762 C 650.432 3.62687 5.78746 0
M  V30 6763 O 650.12 4.76728 6.47291 0
M  V30 6764 H 649.852 0.0915214 0.669776 0
M  V30 6765 H 652.406 0.905982 1.8434 0
M  V30 6766 H 650.636 -0.742451 3.79506 0
M  V30 6767 H 652.325 -0.401977 4.03905 0
M  V30 6768 H 653.091 2.05616 4.39257 0
M  V30 6769 H 648.97 0.83804 4.53319 0
M  V30 6770 H 652.514 4.10877 5.63761 0
M  V30 6771 H 648.411 2.88189 5.77596 0
M  V30 6772 H 649.179 4.76113 6.65777 0
M  V30 6773 N 651.842 -1.52309 0.404946 0
M  V30 6774 C 653.09 -2.01368 -0.17186 0
M  V30 6775 C 653.411 -1.29261 -1.46002 0
M  V30 6776 O 652.681 -0.41729 -1.91404 0
M  V30 6777 H 651.261 -0.744034 -0.0664993 0
M  V30 6778 H 653.923 -1.87263 0.540228 0
M  V30 6779 H 653.019 -3.09888 -0.370957 0
M  V30 6780 N 653.32 -0.135238 -1.57019 0
M  V30 6781 C 654.569 0.518694 -1.94917 0
M  V30 6782 C 654.882 1.66783 -1.0219 0
M  V30 6783 O 656.088 2.38561 -1.29619 0
M  V30 6784 C 654.544 0.974123 -3.46466 0
M  V30 6785 C 654.152 -0.147439 -4.47757 0
M  V30 6786 C 655.896 1.59851 -3.93253 0
M  V30 6787 C 653.803 0.325599 -5.90503 0
M  V30 6788 H 652.733 0.19754 -0.727663 0
M  V30 6789 H 655.384 -0.217698 -1.82204 0
M  V30 6790 H 653.766 1.76542 -3.5447 0
M  V30 6791 H 654.94 -0.924122 -4.51438 0
M  V30 6792 H 653.255 -0.679496 -4.10818 0
M  V30 6793 H 655.852 1.96385 -4.9733 0
M  V30 6794 H 656.195 2.48306 -3.3414 0
M  V30 6795 H 656.728 0.872323 -3.88118 0
M  V30 6796 H 653.467 -0.523295 -6.53408 0
M  V30 6797 H 652.987 1.06841 -5.90208 0
M  V30 6798 H 654.666 0.781498 -6.42263 0
M  V30 6799 N 654.798 1.5699 0.138552 0
M  V30 6800 C 656.028 1.87704 0.863184 0
M  V30 6801 C 656.436 0.722411 1.74865 0
M  V30 6802 O 655.779 -0.316636 1.80951 0
M  V30 6803 C 655.841 3.13219 1.76449 0
M  V30 6804 C 655.505 4.44648 1.05532 0
M  V30 6805 C 656.502 5.18318 0.405252 0
M  V30 6806 C 654.187 4.91367 1.04231 0
M  V30 6807 C 656.181 6.36916 -0.24835 0
M  V30 6808 C 653.868 6.09887 0.384904 0
M  V30 6809 C 654.866 6.82508 -0.259292 0
M  V30 6810 O 654.554 7.98775 -0.906258 0
M  V30 6811 H 654.286 0.626255 0.254521 0
M  V30 6812 H 656.84 2.04966 0.133472 0
M  V30 6813 H 655.07 2.91988 2.53535 0
M  V30 6814 H 656.759 3.30111 2.36181 0
M  V30 6815 H 657.525 4.83289 0.407053 0
M  V30 6816 H 653.404 4.34759 1.53315 0
M  V30 6817 H 656.948 6.93538 -0.751755 0
M  V30 6818 H 652.845 6.44376 0.380799 0
M  V30 6819 H 653.613 8.14494 -0.80877 0
M  V30 6820 N 656.276 -0.40816 1.52223 0
M  V30 6821 C 657.504 -1.17672 1.70179 0
M  V30 6822 C 657.919 -1.84257 0.411696 0
M  V30 6823 O 657.276 -1.7192 -0.612354 0
M  V30 6824 C 657.327 -2.23911 2.83806 0
M  V30 6825 O 657.048 -1.60044 4.0782 0
M  V30 6826 C 658.549 -3.1364 3.13281 0
M  V30 6827 H 655.769 -0.353562 0.570293 0
M  V30 6828 H 658.313 -0.480083 1.98785 0
M  V30 6829 H 656.468 -2.89242 2.57717 0
M  V30 6830 H 656.882 -2.30484 4.71145 0
M  V30 6831 H 658.356 -3.84255 3.96298 0
M  V30 6832 H 658.833 -3.76066 2.26872 0
M  V30 6833 H 659.439 -2.53977 3.41139 0
M  V30 6834 N 657.755 -1.42862 -0.66545 0
M  V30 6835 C 658.702 -1.4707 -1.77874 0
M  V30 6836 C 659.672 -0.321654 -1.62956 0
M  V30 6837 O 660.857 -0.52707 -1.83376 0
M  V30 6838 C 657.997 -1.38788 -3.15962 0
M  V30 6839 C 657.11 -2.63801 -3.42101 0
M  V30 6840 C 656.245 -2.47594 -4.69969 0
M  V30 6841 C 655.284 -3.67936 -4.89172 0
M  V30 6842 N 654.421 -3.50614 -6.08288 0
M  V30 6843 H 659.261 -2.42204 -1.73613 0
M  V30 6844 H 656.798 -1.20239 -0.847401 0
M  V30 6845 H 658.756 -1.31982 -3.95773 0
M  V30 6846 H 657.386 -0.472431 -3.19324 0
M  V30 6847 H 656.438 -2.80935 -2.56475 0
M  V30 6848 H 657.75 -3.53228 -3.52181 0
M  V30 6849 H 656.904 -2.38427 -5.57886 0
M  V30 6850 H 655.643 -1.55672 -4.62188 0
M  V30 6851 H 654.648 -3.77525 -3.99694 0
M  V30 6852 H 655.873 -4.60851 -4.98792 0
M  V30 6853 H 653.819 -2.61417 -6.01662 0
M  V30 6854 H 653.736 -4.33634 -6.19272 0
M  V30 6855 H 655.004 -3.45276 -6.98859 0
M  V30 6856 N 659.233 0.902656 -1.29189 0
M  V30 6857 C 660.479 1.65532 -1.17163 0
M  V30 6858 C 660.812 1.92216 0.276879 0
M  V30 6859 O 660.087 1.53048 1.20027 0
M  V30 6860 C 660.37 3.00629 -1.98228 0
M  V30 6861 C 660.223 2.81029 -3.51202 0
M  V30 6862 C 661.542 4.01321 -1.80635 0
M  V30 6863 H 658.661 0.60071 -0.426985 0
M  V30 6864 H 661.303 1.04578 -1.5863 0
M  V30 6865 H 659.453 3.52656 -1.62991 0
M  V30 6866 H 661.125 2.35927 -3.96404 0
M  V30 6867 H 659.368 2.1587 -3.76275 0
M  V30 6868 H 660.039 3.77014 -4.03192 0
M  V30 6869 H 662.515 3.58394 -2.11406 0
M  V30 6870 H 661.391 4.93792 -2.3971 0
M  V30 6871 H 661.652 4.35505 -0.760754 0
M  V30 6872 N 660.711 1.11618 1.11262 0
M  V30 6873 C 661.936 0.889013 1.8738 0
M  V30 6874 C 662.361 -0.555884 1.79698 0
M  V30 6875 O 661.719 -1.39272 1.16073 0
M  V30 6876 C 661.767 1.35759 3.34069 0
M  V30 6877 O 660.871 0.530499 4.08974 0
M  V30 6878 H 660.212 0.320082 0.581759 0
M  V30 6879 H 662.742 1.48611 1.40627 0
M  V30 6880 H 662.752 1.35291 3.84916 0
M  V30 6881 H 661.427 2.40973 3.38976 0
M  V30 6882 H 660.004 0.601439 3.68018 0
M  V30 6883 N 662.189 -1.289 0.906776 0
M  V30 6884 C 663.605 -1.47733 0.603902 0
M  V30 6885 C 663.805 -1.82568 -0.852702 0
M  V30 6886 O 662.861 -1.92642 -1.63234 0
M  V30 6887 C 664.174 -2.58522 1.53581 0
M  V30 6888 C 665.722 -2.72394 1.54177 0
M  V30 6889 C 666.197 -3.86318 2.46013 0
M  V30 6890 N 667.688 -3.93661 2.441 0
M  V30 6891 C 668.423 -4.81177 3.11859 0
M  V30 6892 N 667.919 -5.73333 3.88923 0
M  V30 6893 N 669.712 -4.74728 3.00981 0
M  V30 6894 H 661.863 -1.04567 1.84877 0
M  V30 6895 H 664.126 -0.520118 0.792579 0
M  V30 6896 H 663.832 -2.39667 2.57396 0
M  V30 6897 H 663.706 -3.55475 1.26165 0
M  V30 6898 H 666.093 -2.90641 0.511034 0
M  V30 6899 H 666.174 -1.75993 1.85634 0
M  V30 6900 H 665.818 -3.68826 3.49185 0
M  V30 6901 H 665.748 -4.82102 2.11862 0
M  V30 6902 H 668.239 -3.27751 1.88115 0
M  V30 6903 H 668.552 -6.36923 4.37663 0
M  V30 6904 H 666.897 -5.73196 3.93029 0
M  V30 6905 H 670.088 -4.01722 2.40286 0
M  V30 6906 H 670.261 -5.42719 3.54062 0
M  V30 6907 N 663.667 -0.670007 -1.42649 0
M  V30 6908 C 664.897 -0.198252 -2.05647 0
M  V30 6909 C 665.305 1.14786 -1.50402 0
M  V30 6910 O 664.648 1.72316 -0.636634 0
M  V30 6911 C 664.71 -0.0507132 -3.59464 0
M  V30 6912 C 664.374 -1.32478 -4.37377 0
M  V30 6913 C 665.371 -2.2572 -4.68344 0
M  V30 6914 C 663.056 -1.57104 -4.77099 0
M  V30 6915 C 665.05 -3.4187 -5.37963 0
M  V30 6916 C 662.737 -2.73543 -5.46459 0
M  V30 6917 C 663.735 -3.65751 -5.76815 0
M  V30 6918 O 663.423 -4.80154 -6.44753 0
M  V30 6919 H 663.155 -0.0950721 -0.669281 0
M  V30 6920 H 665.709 -0.915745 -1.83857 0
M  V30 6921 H 663.939 0.722314 -3.79894 0
M  V30 6922 H 665.628 0.380552 -4.04112 0
M  V30 6923 H 666.394 -2.07943 -4.38161 0
M  V30 6924 H 662.273 -0.862069 -4.52868 0
M  V30 6925 H 665.817 -4.13861 -5.61574 0
M  V30 6926 H 661.714 -2.91248 -5.7606 0
M  V30 6927 H 662.482 -4.79637 -6.63243 0
M  V30 6928 N 665.145 1.52092 -0.413018 0
M  V30 6929 C 666.391 2.02154 0.161737 0
M  V30 6930 C 666.724 1.29789 1.44459 0
M  V30 6931 O 665.999 0.405378 1.90229 0
M  V30 6932 C 666.282 3.5781 0.405463 0
M  V30 6933 C 666.135 4.40819 -0.894335 0
M  V30 6934 C 667.454 4.23821 1.18591 0
M  V30 6935 H 664.573 0.734769 0.0573077 0
M  V30 6936 H 667.215 1.81948 -0.547247 0
M  V30 6937 H 665.365 3.75158 1.0094 0
M  V30 6938 H 667.037 4.35175 -1.53039 0
M  V30 6939 H 665.28 4.06877 -1.50444 0
M  V30 6940 H 665.951 5.47819 -0.678144 0
M  V30 6941 H 668.427 4.10596 0.674573 0
M  V30 6942 H 667.303 5.32663 1.3252 0
M  V30 6943 H 667.564 3.83038 2.20758 0
M  V30 6944 N 666.623 0.143563 1.56945 0
M  V30 6945 C 667.571 -0.814556 2.17871 0
M  V30 6946 C 668.565 -1.25778 1.13474 0
M  V30 6947 O 669.771 -1.22666 1.31731 0
M  V30 6948 H 666.146 -0.280873 0.697578 0
M  V30 6949 H 668.117 -0.276459 2.97117 0
M  V30 6950 C 666.866 -2.04503 2.81201 0
M  V30 6951 H 666.189 -1.71296 3.61245 0
M  V30 6952 H 667.629 -2.69493 3.27337 0
M  V30 6953 C 666.088 -2.85079 1.79532 0
M  V30 6954 O 666.618 -3.81306 1.26368 0
M  V30 6955 N 664.824 -2.49546 1.48913 0
M  V30 6956 H 664.371 -1.71359 1.92338 0
M  V30 6957 H 664.329 -3.03751 0.811348 0
M  V30 6958 N 668.101 -1.57061 -0.130224 0
M  V30 6959 C 669.347 -1.85412 -0.836295 0
M  V30 6960 C 669.702 -0.729831 -1.7802 0
M  V30 6961 O 668.995 0.271021 -1.89673 0
M  V30 6962 C 669.189 -3.17878 -1.63365 0
M  V30 6963 C 669.018 -4.43086 -0.768453 0
M  V30 6964 C 667.788 -5.03488 -0.427598 0
M  V30 6965 C 669.986 -5.14219 -0.0911495 0
M  V30 6966 N 667.968 -6.12253 0.449439 0
M  V30 6967 C 669.339 -6.16632 0.645341 0
M  V30 6968 C 671.394 -4.97898 -0.0135625 0
M  V30 6969 C 670.097 -7.0449 1.45212 0
M  V30 6970 C 672.123 -5.86234 0.780001 0
M  V30 6971 C 671.485 -6.88141 1.50472 0
M  V30 6972 H 667.584 -0.728875 -0.283311 0
M  V30 6973 H 670.168 -1.9444 -0.100662 0
M  V30 6974 H 668.339 -3.09967 -2.3404 0
M  V30 6975 H 670.071 -3.34076 -2.28419 0
M  V30 6976 H 666.826 -4.67344 -0.767264 0
M  V30 6977 H 667.25 -6.71263 0.879476 0
M  V30 6978 H 671.892 -4.19082 -0.559511 0
M  V30 6979 H 669.61 -7.82722 2.00926 0
M  V30 6980 H 673.196 -5.75671 0.842246 0
M  V30 6981 H 672.076 -7.55311 2.1089 0
M  V30 6982 N 669.579 0.400081 -1.52437 0
M  V30 6983 C 670.828 1.14332 -1.66166 0
M  V30 6984 C 671.141 1.91419 -0.402253 0
M  V30 6985 O 672.347 2.6824 -0.419487 0
M  V30 6986 C 670.803 2.08137 -2.9361 0
M  V30 6987 C 670.411 1.36524 -4.26691 0
M  V30 6988 C 672.155 2.82664 -3.16703 0
M  V30 6989 C 670.062 2.29031 -5.45251 0
M  V30 6990 H 668.992 0.430499 -0.61902 0
M  V30 6991 H 671.643 0.407017 -1.78929 0
M  V30 6992 H 670.025 2.85358 -2.74567 0
M  V30 6993 H 671.199 0.646061 -4.56249 0
M  V30 6994 H 669.514 0.74002 -4.09771 0
M  V30 6995 H 672.111 3.52037 -4.0246 0
M  V30 6996 H 672.454 3.46122 -2.31312 0
M  V30 6997 H 672.987 2.12541 -3.36261 0
M  V30 6998 H 669.726 1.70206 -6.33017 0
M  V30 6999 H 669.246 2.98896 -5.2002 0
M  V30 7000 H 670.925 2.89359 -5.78689 0
M  V30 7001 N 671.057 1.43213 0.657864 0
M  V30 7002 C 672.004 1.48011 1.77092 0
M  V30 7003 C 672.974 0.330291 1.62783 0
M  V30 7004 O 674.159 0.536787 1.83094 0
M  V30 7005 C 671.299 1.40461 3.15222 0
M  V30 7006 C 670.412 2.65612 3.40697 0
M  V30 7007 C 669.547 2.50083 4.68649 0
M  V30 7008 C 668.586 3.70525 4.87214 0
M  V30 7009 N 667.723 3.53835 6.0642 0
M  V30 7010 H 672.563 2.43121 1.72326 0
M  V30 7011 H 670.1 1.20687 0.841013 0
M  V30 7012 H 672.058 1.34079 3.95068 0
M  V30 7013 H 670.688 0.489359 3.19069 0
M  V30 7014 H 669.74 2.82292 2.54982 0
M  V30 7015 H 671.052 3.5509 3.50303 0
M  V30 7016 H 670.206 2.41383 5.56614 0
M  V30 7017 H 668.945 1.58121 4.61356 0
M  V30 7018 H 667.95 3.79639 3.97686 0
M  V30 7019 H 669.175 4.63489 4.96341 0
M  V30 7020 H 667.121 2.64604 6.00267 0
M  V30 7021 H 667.038 4.36912 6.16963 0
M  V30 7022 H 668.306 3.48978 6.97019 0
M  V30 7023 N 672.536 -0.895792 1.29666 0
M  V30 7024 C 673.446 -2.03329 1.17024 0
M  V30 7025 C 674.462 -1.73753 0.0925962 0
M  V30 7026 O 675.638 -1.99071 0.305431 0
M  V30 7027 C 672.703 -3.36072 0.851841 0
M  V30 7028 C 671.764 -3.7914 2.01373 0
M  V30 7029 C 670.997 -5.05549 1.71043 0
M  V30 7030 O 671.22 -5.66874 0.633213 0
M  V30 7031 O 670.154 -5.44764 2.5596 0
M  V30 7032 H 673.98 -2.16918 2.12556 0
M  V30 7033 H 671.565 -1.02007 1.09156 0
M  V30 7034 H 673.447 -4.15729 0.689006 0
M  V30 7035 H 672.122 -3.23616 -0.0736634 0
M  V30 7036 H 671.029 -3.00233 2.23183 0
M  V30 7037 H 672.362 -3.96186 2.92058 0
M  V30 7038 N 674.014 -1.12206 -1.10668 0
M  V30 7039 C 674.961 -0.787716 -2.16942 0
M  V30 7040 C 675.931 0.244442 -1.64291 0
M  V30 7041 O 677.116 0.119558 -1.90425 0
M  V30 7042 C 674.256 -0.24584 -3.44223 0
M  V30 7043 C 673.369 -1.33552 -4.10838 0
M  V30 7044 C 672.504 -0.753337 -5.25831 0
M  V30 7045 C 671.543 -1.82231 -5.84344 0
M  V30 7046 N 670.68 -1.25902 -6.90719 0
M  V30 7047 H 675.52 -1.69809 -2.44885 0
M  V30 7048 H 673.057 -0.847862 -1.20207 0
M  V30 7049 H 675.015 0.0863639 -4.17111 0
M  V30 7050 H 673.645 0.627702 -3.16638 0
M  V30 7051 H 672.697 -1.78454 -3.35944 0
M  V30 7052 H 674.009 -2.14396 -4.50373 0
M  V30 7053 H 673.163 -0.37166 -6.05561 0
M  V30 7054 H 671.902 0.0863297 -4.87624 0
M  V30 7055 H 670.907 -2.2132 -5.03287 0
M  V30 7056 H 672.132 -2.66515 -6.24617 0
M  V30 7057 H 670.078 -0.44114 -6.54515 0
M  V30 7058 H 669.995 -2.00408 -7.28953 0
M  V30 7059 H 671.263 -0.904498 -7.74235 0
M  V30 7060 N 675.492 1.28418 -0.913599 0
M  V30 7061 C 676.72 1.99106 -0.562536 0
M  V30 7062 C 677.135 1.68273 0.856137 0
M  V30 7063 O 676.492 0.935401 1.56705 0
M  V30 7064 C 676.543 3.5338 -0.761903 0
M  V30 7065 O 676.264 3.83127 -2.12475 0
M  V30 7066 C 677.765 4.41328 -0.417651 0
M  V30 7067 H 674.985 0.635798 -0.214481 0
M  V30 7068 H 677.529 1.63618 -1.22676 0
M  V30 7069 H 675.684 3.8713 -0.144676 0
M  V30 7070 H 676.098 4.77763 -2.16431 0
M  V30 7071 H 677.572 5.48642 -0.607919 0
M  V30 7072 H 678.049 4.34422 0.646108 0
M  V30 7073 H 678.655 4.13074 -1.01241 0
M  V30 7074 N 676.97 0.677563 1.42291 0
M  V30 7075 C 677.917 0.000947061 2.308 0
M  V30 7076 C 678.887 -0.789889 1.46116 0
M  V30 7077 O 680.072 -0.761578 1.74942 0
M  V30 7078 C 677.212 -0.942387 3.31984 0
M  V30 7079 C 676.325 -0.14508 4.31756 0
M  V30 7080 C 675.46 -1.08442 5.20013 0
M  V30 7081 C 674.499 -0.278958 6.11464 0
M  V30 7082 N 673.636 -1.17115 6.92263 0
M  V30 7083 H 678.476 0.761521 2.88106 0
M  V30 7084 H 676.013 0.38727 1.41911 0
M  V30 7085 H 677.971 -1.50317 3.89179 0
M  V30 7086 H 676.601 -1.66956 2.76271 0
M  V30 7087 H 675.653 0.532368 3.76656 0
M  V30 7088 H 676.965 0.48015 4.96484 0
M  V30 7089 H 676.119 -1.71504 5.81955 0
M  V30 7090 H 674.858 -1.74353 4.55469 0
M  V30 7091 H 673.863 0.364856 5.48588 0
M  V30 7092 H 675.088 0.376099 6.78058 0
M  V30 7093 H 673.034 -1.81661 6.30345 0
M  V30 7094 H 672.951 -0.601063 7.53607 0
M  V30 7095 H 674.219 -1.78915 7.58689 0
M  V30 7096 N 678.448 -1.51871 0.421078 0
M  V30 7097 C 679.378 -2.30231 -0.389363 0
M  V30 7098 C 680.359 -1.34946 -1.03555 0
M  V30 7099 O 681.544 -1.63859 -1.04229 0
M  V30 7100 C 678.674 -3.13247 -1.49979 0
M  V30 7101 C 677.628 -4.16677 -0.977966 0
M  V30 7102 C 676.954 -4.88112 -2.1829 0
M  V30 7103 C 678.254 -5.22295 -0.0236775 0
M  V30 7104 H 679.948 -2.98229 0.264524 0
M  V30 7105 H 677.494 -1.43424 0.12866 0
M  V30 7106 H 679.447 -3.66838 -2.07383 0
M  V30 7107 H 678.171 -2.4304 -2.18173 0
M  V30 7108 H 676.83 -3.64114 -0.426245 0
M  V30 7109 H 676.478 -4.14423 -2.85066 0
M  V30 7110 H 676.178 -5.58041 -1.84021 0
M  V30 7111 H 677.702 -5.44521 -2.76278 0
M  V30 7112 H 679.116 -5.71055 -0.506899 0
M  V30 7113 H 677.513 -5.99656 0.230782 0
M  V30 7114 H 678.583 -4.76131 0.917999 0
M  V30 7115 N 679.926 -0.151884 -1.56866 0
M  V30 7116 C 681.154 0.504813 -2.00647 0
M  V30 7117 C 681.569 1.58098 -1.03201 0
M  V30 7118 O 680.926 1.82476 -0.0297814 0
M  V30 7119 C 680.977 1.10099 -3.44326 0
M  V30 7120 O 680.698 0.0678021 -4.38048 0
M  V30 7121 C 682.199 1.83782 -4.03409 0
M  V30 7122 H 679.419 0.130989 -0.65809 0
M  V30 7123 H 681.963 -0.247903 -2.02992 0
M  V30 7124 H 680.118 1.8043 -3.42817 0
M  V30 7125 H 680.532 0.505237 -5.22061 0
M  V30 7126 H 682.006 2.2078 -5.05925 0
M  V30 7127 H 682.483 2.72557 -3.44397 0
M  V30 7128 H 683.089 1.18138 -4.08563 0
M  V30 7129 O 681.443 1.61494 -0.0134355 0
M  V30 7130 H 682.134 1.84128 0.601368 0
M  V30 END ATOM
M  V30 BEGIN BOND
M  V30 END BOND
M  V30 END CTAB
M  END
$$$$
