drugbank_target|P11836 B-lymphocyte antigen CD20 (DB00073; DB00078; DB00081; DB06650; DB08935; DB09336; DB11988)
 OpenBabel12092119233D

  0  0  0     0  0            999 V3000
M  V30 BEGIN CTAB
M  V30 COUNTS 4656 4706 0 0 0
M  V30 BEGIN ATOM
M  V30 1 H -0.908 1.98254 -0.117106 0
M  V30 2 N 0 1.576 0 0
M  V30 3 C 0.933 2.03868 1.02534 0
M  V30 4 C 1.911 0.928543 1.3348 0
M  V30 5 O 3.095 1.19667 1.45644 0
M  V30 6 C 0.222 2.43627 2.35294 0
M  V30 7 C -0.732 3.65373 2.2001 0
M  V30 8 S 0.101 5.13292 1.52614 0
M  V30 9 C 1.257 5.56322 2.86805 0
M  V30 10 H 1.49 2.90518 0.631377 0
M  V30 11 H -0.977 1.52953 0.210867 0
M  V30 12 H 0.981 2.67203 3.11629 0
M  V30 13 H -0.358 1.57376 2.7183 0
M  V30 14 H -1.165 3.90944 3.18086 0
M  V30 15 H -1.563 3.418 1.51819 0
M  V30 16 H 0.729 5.58782 3.83104 0
M  V30 17 H 1.672 6.56266 2.65933 0
M  V30 18 H 2.08 4.83886 2.90714 0
M  V30 19 N 1.4781 -0.272755 1.55222 0
M  V30 20 C 2.7061 -1.02255 1.79865 0
M  V30 21 C 3.1211 -1.79924 0.572088 0
M  V30 22 O 2.4781 -1.76638 -0.458842 0
M  V30 23 C 2.5291 -1.98094 3.02392 0
M  V30 24 O 2.2501 -1.23572 4.20311 0
M  V30 25 C 3.7511 -2.84884 3.39641 0
M  V30 26 H 0.9711 -0.302057 0.599168 0
M  V30 27 H 3.5151 -0.303465 2.02236 0
M  V30 28 H 1.6701 -2.65465 2.82147 0
M  V30 29 H 2.0841 -1.88172 4.89583 0
M  V30 30 H 3.5581 -3.47927 4.28545 0
M  V30 31 H 4.0351 -3.54665 2.59055 0
M  V30 32 H 4.6411 -2.23003 3.62146 0
M  V30 33 N 2.9562 -1.48159 -0.537278 0
M  V30 34 C 4.1842 -1.59454 -1.31841 0
M  V30 35 C 4.5992 -0.252065 -1.8711 0
M  V30 36 O 3.9562 0.757621 -1.66031 0
M  V30 37 C 4.0072 -2.63546 -2.47439 0
M  V30 38 O 3.7282 -3.92583 -1.94449 0
M  V30 39 C 5.2292 -2.85212 -3.39366 0
M  V30 40 H 2.4492 -0.53785 -0.401196 0
M  V30 41 H 4.9932 -1.93932 -0.648891 0
M  V30 42 H 3.1482 -2.31946 -3.1029 0
M  V30 43 H 3.5622 -4.49629 -2.70063 0
M  V30 44 H 5.0362 -3.61863 -4.16844 0
M  V30 45 H 5.5132 -1.93765 -3.94147 0
M  V30 46 H 6.1192 -3.18086 -2.82314 0
M  V30 47 N 4.4343 0.785586 -1.36625 0
M  V30 48 C 5.8453 1.36101 -1.27803 0
M  V30 49 C 6.1963 1.96035 0.0804875 0
M  V30 50 O 5.3213 1.92834 0.982042 0
M  V30 51 C 5.9163 2.47442 -2.31426 0
M  V30 52 C 4.4753 3.00789 -2.26281 0
M  V30 53 C 3.6223 1.73896 -2.15999 0
M  V30 54 H 6.5733 0.586928 -1.47448 0
M  V30 55 H 6.5943 3.2656 -1.95291 0
M  V30 56 H 6.1063 2.03791 -3.30289 0
M  V30 57 H 4.2073 3.48851 -1.30896 0
M  V30 58 H 4.3203 3.57343 -3.19128 0
M  V30 59 H 2.6843 1.9628 -1.62316 0
M  V30 60 H 3.4673 1.32368 -3.16755 0
M  V30 61 N 5.9124 1.20967 1.01018 0
M  V30 62 C 7.3284 0.965905 1.27053 0
M  V30 63 C 7.5284 -0.350785 1.98423 0
M  V30 64 O 6.5844 -1.07773 2.28344 0
M  V30 65 C 7.8974 2.15294 2.09926 0
M  V30 66 C 9.4454 2.19463 2.23171 0
M  V30 67 C 9.9204 3.3767 3.09424 0
M  V30 68 N 11.4114 3.37724 3.17012 0
M  V30 69 C 12.1464 4.25837 3.83993 0
M  V30 70 N 11.6424 5.24138 4.53047 0
M  V30 71 N 13.4354 4.1366 3.80581 0
M  V30 72 H 5.5864 2.0565 0.531194 0
M  V30 73 H 7.8494 0.90024 0.297106 0
M  V30 74 H 7.5554 3.10684 1.64828 0
M  V30 75 H 7.4294 2.13923 3.10672 0
M  V30 76 H 9.8164 1.24632 2.6749 0
M  V30 77 H 9.8974 2.2488 1.21912 0
M  V30 78 H 9.5414 4.32791 2.65808 0
M  V30 79 H 9.4714 3.29491 4.10784 0
M  V30 80 H 11.9624 2.6658 2.6785 0
M  V30 81 H 12.2754 5.87684 5.01844 0
M  V30 82 H 10.6204 5.28068 4.5185 0
M  V30 83 H 13.8114 3.36127 3.25785 0
M  V30 84 H 13.9844 4.82538 4.32505 0
M  V30 85 N 7.3905 -1.2043 1.01659 0
M  V30 86 C 8.3385 -2.25249 0.580143 0
M  V30 87 C 9.3325 -1.65057 -0.381115 0
M  V30 88 O 10.5385 -1.78241 -0.251039 0
M  V30 89 H 6.9135 -0.732695 0.169299 0
M  V30 90 H 8.8845 -2.59389 1.47512 0
M  V30 91 C 7.6335 -3.47638 -0.065788 0
M  V30 92 H 6.9565 -3.94233 0.664874 0
M  V30 93 H 8.3965 -4.2268 -0.334282 0
M  V30 94 C 6.8555 -3.10447 -1.3086 0
M  V30 95 O 7.3855 -3.21981 -2.4019 0
M  V30 96 N 5.5915 -2.64996 -1.1927 0
M  V30 97 H 5.1385 -2.55811 -0.303064 0
M  V30 98 H 5.0965 -2.40482 -2.02523 0
M  V30 99 N 8.8686 -0.792821 -1.36206 0
M  V30 100 C 10.0936 -0.377701 -2.03932 0
M  V30 101 C 10.5186 0.998947 -1.59382 0
M  V30 102 O 9.8766 1.64421 -0.763903 0
M  V30 103 C 9.9246 -0.453635 -3.57735 0
M  V30 104 O 9.0286 0.538151 -4.08874 0
M  V30 105 H 8.3696 -0.159855 -0.644471 0
M  V30 106 H 10.8996 -1.07488 -1.7409 0
M  V30 107 H 10.9096 -0.318464 -4.06755 0
M  V30 108 H 9.5846 -1.45784 -3.89512 0
M  V30 109 H 8.1616 0.364359 -3.71116 0
M  V30 110 N 10.3467 1.47872 -0.545128 0
M  V30 111 C 11.5927 2.02793 -0.0166104 0
M  V30 112 C 11.9257 1.41987 1.32489 0
M  V30 113 O 11.2007 0.571045 1.85928 0
M  V30 114 C 11.4837 3.59989 0.0893294 0
M  V30 115 C 11.3367 4.3125 -1.27841 0
M  V30 116 C 12.6557 4.32606 0.808724 0
M  V30 117 H 9.7747 0.736962 -0.00751035 0
M  V30 118 H 12.4167 1.76433 -0.705085 0
M  V30 119 H 10.5667 3.82579 0.675681 0
M  V30 120 H 12.2387 4.20035 -1.90704 0
M  V30 121 H 10.4817 3.92076 -1.85632 0
M  V30 122 H 11.1527 5.39736 -1.15713 0
M  V30 123 H 13.6287 4.14936 0.310992 0
M  V30 124 H 12.5047 5.42251 0.851782 0
M  V30 125 H 12.7657 4.00963 1.86229 0
M  V30 126 N 11.8248 0.280983 1.55075 0
M  V30 127 C 12.7728 -0.619864 2.24188 0
M  V30 128 C 13.7668 -1.15315 1.24092 0
M  V30 129 O 14.9728 -1.1061 1.42005 0
M  V30 130 H 11.3478 -0.218459 0.719569 0
M  V30 131 H 13.3188 -0.0141831 2.98397 0
M  V30 132 C 12.0678 -1.7899 2.98091 0
M  V30 133 H 11.3908 -1.38874 3.74905 0
M  V30 134 H 12.8308 -2.39672 3.49762 0
M  V30 135 C 11.2898 -2.68192 2.03899 0
M  V30 136 O 11.8198 -3.6872 1.594 0
M  V30 137 N 10.0258 -2.35488 1.70275 0
M  V30 138 H 9.5728 -1.53787 2.06658 0
M  V30 139 H 9.5308 -2.95442 1.07524 0
M  V30 140 N 13.3029 -1.57598 0.00835791 0
M  V30 141 C 14.5509 -1.90551 -0.6734 0
M  V30 142 C 14.8719 -0.883301 -1.73847 0
M  V30 143 O 14.1419 0.0781442 -1.95744 0
M  V30 144 H 12.7219 -0.703312 -0.251717 0
M  V30 145 H 15.3839 -1.94833 0.0512592 0
M  V30 146 H 14.4799 -2.9056 -1.13935 0
M  V30 147 N 14.781 0.264519 -1.55364 0
M  V30 148 C 16.009 1.013 -1.80405 0
M  V30 149 C 16.424 1.79618 -0.581622 0
M  V30 150 O 15.781 1.76879 0.449468 0
M  V30 151 C 15.832 1.96487 -3.03439 0
M  V30 152 O 15.553 1.21341 -4.20961 0
M  V30 153 C 17.054 2.83079 -3.41147 0
M  V30 154 H 14.274 0.298875 -0.600762 0
M  V30 155 H 16.818 0.292736 -2.02394 0
M  V30 156 H 14.973 2.63965 -2.83551 0
M  V30 157 H 15.387 1.85573 -4.90574 0
M  V30 158 H 16.861 3.4565 -4.30384 0
M  V30 159 H 17.338 3.53286 -2.60932 0
M  V30 160 H 17.944 2.2108 -3.63323 0
M  V30 161 N 16.2591 1.48442 0.529413 0
M  V30 162 C 17.5061 1.56488 1.28521 0
M  V30 163 C 17.8341 0.239042 1.93025 0
M  V30 164 O 17.0891 -0.770713 1.79885 0
M  V30 165 C 17.3881 2.6523 2.39558 0
M  V30 166 C 17.0541 4.07648 1.92702 0
M  V30 167 C 15.7161 4.46411 1.79641 0
M  V30 168 C 18.0681 4.96896 1.573 0
M  V30 169 C 15.3961 5.72226 1.29514 0
M  V30 170 C 17.7481 6.23202 1.08636 0
M  V30 171 C 16.4121 6.60821 0.941919 0
M  V30 172 H 15.6821 0.572631 0.470292 0
M  V30 173 H 18.3291 1.82161 0.59072 0
M  V30 174 H 16.6341 2.33419 3.14679 0
M  V30 175 H 18.3311 2.68671 2.97686 0
M  V30 176 H 14.9211 3.77036 2.03819 0
M  V30 177 H 19.1051 4.67626 1.66251 0
M  V30 178 H 14.3611 6.00097 1.17019 0
M  V30 179 H 18.5351 6.91753 0.803136 0
M  V30 180 H 16.1621 7.58198 0.5513 0
M  V30 181 N 17.7372 -0.778329 1.37039 0
M  V30 182 C 19.1482 -1.35421 1.28523 0
M  V30 183 C 19.4992 -1.96075 -0.0700901 0
M  V30 184 O 18.6242 -1.93352 -0.971801 0
M  V30 185 C 19.2192 -2.46211 2.32735 0
M  V30 186 C 17.7782 -2.99585 2.27873 0
M  V30 187 C 16.9252 -1.72748 2.16918 0
M  V30 188 H 19.8762 -0.5791 1.47757 0
M  V30 189 H 19.8972 -3.2552 1.9702 0
M  V30 190 H 19.4092 -2.02036 3.31365 0
M  V30 191 H 17.5102 -3.48152 1.32745 0
M  V30 192 H 17.6232 -3.55646 3.21018 0
M  V30 193 H 15.9872 -1.95416 1.63354 0
M  V30 194 H 16.7702 -1.30686 3.17452 0
M  V30 195 N 19.2153 -1.21501 -1.00376 0
M  V30 196 C 20.1783 -0.976927 -2.07337 0
M  V30 197 C 21.1783 0.0525322 -1.60714 0
M  V30 198 O 22.3683 -0.184869 -1.73216 0
M  V30 199 C 19.5003 -0.473423 -3.37597 0
M  V30 200 H 20.6933 -1.92587 -2.29892 0
M  V30 201 H 18.2463 -1.03217 -1.17371 0
M  V30 202 H 18.9813 0.480379 -3.20722 0
M  V30 203 H 18.7663 -1.216 -3.72768 0
M  V30 204 H 20.2563 -0.32675 -4.1632 0
M  V30 205 N 20.6934 1.19889 -1.02296 0
M  V30 206 C 21.6034 2.26571 -0.608508 0
M  V30 207 C 22.6194 1.70299 0.356964 0
M  V30 208 O 23.7954 2.00235 0.216326 0
M  V30 209 C 20.8604 3.46677 0.0402814 0
M  V30 210 C 19.9214 4.18153 -0.97194 0
M  V30 211 C 19.1544 5.32525 -0.354016 0
M  V30 212 O 19.3774 5.64112 0.844604 0
M  V30 213 O 18.3114 5.92242 -1.07391 0
M  V30 214 H 22.1374 2.64251 -1.49684 0
M  V30 215 H 19.7224 1.26629 -0.792809 0
M  V30 216 H 21.6044 4.19475 0.402324 0
M  V30 217 H 20.2794 3.10858 0.902707 0
M  V30 218 H 19.1864 3.47499 -1.38546 0
M  V30 219 H 20.5194 4.57927 -1.80454 0
M  V30 220 N 22.1715 0.800033 1.35784 0
M  V30 221 C 23.5825 0.439142 1.81462 0
M  V30 222 C 23.9335 -1.03813 1.66485 0
M  V30 223 O 23.0585 -1.80626 1.19177 0
M  V30 224 C 23.6535 0.790314 3.29453 0
M  V30 225 C 22.2125 0.482111 3.733 0
M  V30 226 C 21.3595 1.01938 2.57883 0
M  V30 227 H 24.3105 0.992254 1.23855 0
M  V30 228 H 24.3315 0.0853677 3.80404 0
M  V30 229 H 23.8435 1.86554 3.40322 0
M  V30 230 H 21.9445 -0.584652 3.67984 0
M  V30 231 H 22.0575 1.01015 4.6833 0
M  V30 232 H 20.4215 0.442043 2.50835 0
M  V30 233 H 21.2045 2.10059 2.71533 0
M  V30 234 N 23.6496 -1.47581 0.552962 0
M  V30 235 C 24.5826 -2.26883 -0.244857 0
M  V30 236 C 25.5606 -1.33784 -0.924147 0
M  V30 237 O 26.7446 -1.6316 -0.943981 0
M  V30 238 C 23.8716 -3.10695 -1.34856 0
M  V30 239 C 22.9176 -4.19339 -0.778268 0
M  V30 240 S 23.7506 -5.34207 0.37184 0
M  V30 241 C 24.9066 -6.21584 -0.733779 0
M  V30 242 H 25.1396 -2.94202 0.428087 0
M  V30 243 H 22.6726 -1.50628 0.339197 0
M  V30 244 H 24.6306 -3.59555 -1.98066 0
M  V30 245 H 23.2916 -2.42746 -1.99332 0
M  V30 246 H 22.4846 -4.77695 -1.60696 0
M  V30 247 H 22.0866 -3.73338 -0.222422 0
M  V30 248 H 24.3786 -6.57676 -1.62692 0
M  V30 249 H 25.3216 -7.07851 -0.187668 0
M  V30 250 H 25.7296 -5.55125 -1.02454 0
M  V30 251 N 25.1277 -0.289203 -1.54924 0
M  V30 252 C 26.0747 0.592115 -2.23075 0
M  V30 253 C 27.0447 1.13881 -1.20915 0
M  V30 254 O 28.2297 1.18551 -1.495 0
M  V30 255 C 25.3697 1.76376 -2.96623 0
M  V30 256 C 24.4827 1.24959 -4.13533 0
M  V30 257 C 23.6177 2.38416 -4.74691 0
M  V30 258 C 22.6567 1.84072 -5.83767 0
M  V30 259 N 21.7937 2.91057 -6.38929 0
M  V30 260 H 26.6337 0.00432038 -2.98 0
M  V30 261 H 24.1707 -0.00963529 -1.47097 0
M  V30 262 H 26.1287 2.45268 -3.3749 0
M  V30 263 H 24.7587 2.32337 -2.24097 0
M  V30 264 H 23.8107 0.453307 -3.77689 0
M  V30 265 H 25.1227 0.811662 -4.92152 0
M  V30 266 H 24.2767 3.15276 -5.18349 0
M  V30 267 H 23.0157 2.8553 -3.95378 0
M  V30 268 H 22.0207 1.05697 -5.39545 0
M  V30 269 H 23.2457 1.37877 -6.64956 0
M  V30 270 H 21.1917 3.37526 -5.62505 0
M  V30 271 H 21.1087 2.51724 -7.12861 0
M  V30 272 H 22.3767 3.6785 -6.87246 0
M  V30 273 N 26.6058 1.57591 -0.0167156 0
M  V30 274 C 27.8538 1.90906 0.663285 0
M  V30 275 C 28.1748 0.892509 1.73376 0
M  V30 276 O 27.4448 -0.0677623 1.95783 0
M  V30 277 H 26.0248 0.704637 0.247983 0
M  V30 278 H 28.6868 1.94803 -0.0615909 0
M  V30 279 H 27.7828 2.9116 1.12393 0
M  V30 280 N 28.0839 -0.256276 1.55502 0
M  V30 281 C 29.4949 -0.826068 1.67431 0
M  V30 282 C 29.8459 -1.86396 0.612446 0
M  V30 283 O 28.9709 -2.15031 -0.243025 0
M  V30 284 C 29.5659 -1.50512 3.03532 0
M  V30 285 C 28.1249 -2.02273 3.17431 0
M  V30 286 C 27.2719 -0.870548 2.63281 0
M  V30 287 H 30.2229 -0.0322728 1.58667 0
M  V30 288 H 30.2439 -2.37279 2.97454 0
M  V30 289 H 29.7559 -0.749484 3.80794 0
M  V30 290 H 27.8569 -2.80746 2.44974 0
M  V30 291 H 27.9699 -2.22655 4.24219 0
M  V30 292 H 26.3339 -1.26851 2.20864 0
M  V30 293 H 27.1169 -0.128149 3.43061 0
M  V30 294 N 29.562 -1.4872 -0.521534 0
M  V30 295 C 30.811 -1.56419 -1.27341 0
M  V30 296 C 31.124 -0.246805 -1.94037 0
M  V30 297 O 32.33 -0.202122 -2.70747 0
M  V30 298 C 30.786 -2.75896 -2.31105 0
M  V30 299 C 30.394 -4.14311 -1.70441 0
M  V30 300 C 32.138 -2.92913 -3.07249 0
M  V30 301 C 30.045 -5.25038 -2.72194 0
M  V30 302 H 28.975 -0.582344 -0.478949 0
M  V30 303 H 31.626 -1.75071 -0.549779 0
M  V30 304 H 30.008 -2.50697 -3.06541 0
M  V30 305 H 31.182 -4.49564 -1.01136 0
M  V30 306 H 29.497 -4.02482 -1.06759 0
M  V30 307 H 32.094 -3.72805 -3.83302 0
M  V30 308 H 32.437 -2.02689 -3.63625 0
M  V30 309 H 32.97 -3.18054 -2.38928 0
M  V30 310 H 29.709 -6.17255 -2.20627 0
M  V30 311 H 29.229 -4.94263 -3.39801 0
M  V30 312 H 30.908 -5.53508 -3.35019 0
M  V30 313 N 31.0401 0.771051 -1.3745 0
M  V30 314 C 32.0031 1.86598 -1.33093 0
M  V30 315 C 33.0031 1.59076 -0.234845 0
M  V30 316 O 34.1931 1.67145 -0.490732 0
M  V30 317 C 31.3251 3.23747 -1.06773 0
M  V30 318 H 32.5181 1.91873 -2.30488 0
M  V30 319 H 30.0711 0.970876 -1.2249 0
M  V30 320 H 30.8061 3.24148 -0.099129 0
M  V30 321 H 30.5911 3.45115 -1.86112 0
M  V30 322 H 32.0811 4.03824 -1.06377 0
M  V30 323 N 32.5182 1.22032 0.997298 0
M  V30 324 C 33.4512 0.929735 2.08401 0
M  V30 325 C 34.4292 -0.125681 1.62114 0
M  V30 326 O 35.6132 0.00495409 1.88499 0
M  V30 327 C 32.7402 0.397488 3.3636 0
M  V30 328 C 31.7862 1.4369 4.01566 0
M  V30 329 S 32.6192 3.00874 4.42984 0
M  V30 330 C 33.7752 2.49276 5.74119 0
M  V30 331 H 34.0082 1.84998 2.32729 0
M  V30 332 H 31.5412 1.0509 1.13117 0
M  V30 333 H 33.4992 0.0969846 4.10385 0
M  V30 334 H 32.1602 -0.501571 3.10069 0
M  V30 335 H 31.3532 1.01427 4.93689 0
M  V30 336 H 30.9552 1.68588 3.33847 0
M  V30 337 H 33.2472 1.90242 6.50242 0
M  V30 338 H 34.1902 3.39872 6.21203 0
M  V30 339 H 34.5982 1.90714 5.31308 0
M  V30 340 N 33.9963 -1.19345 1.0293 0
M  V30 341 C 34.9283 -2.22036 0.56857 0
M  V30 342 C 35.9413 -1.58865 -0.355779 0
M  V30 343 O 37.1303 -1.77851 -0.152103 0
M  V30 344 C 34.2303 -3.38363 -0.190752 0
M  V30 345 C 33.4033 -4.31118 0.738643 0
M  V30 346 C 32.4623 -5.26194 0.0246497 0
M  V30 347 O 31.4883 -5.65461 0.651354 0
M  V30 348 N 32.6903 -5.66971 -1.24594 0
M  V30 349 H 35.4553 -2.6219 1.45177 0
M  V30 350 H 33.0163 -1.34015 0.908381 0
M  V30 351 H 35.0083 -3.98981 -0.677961 0
M  V30 352 H 33.5783 -2.96994 -0.975366 0
M  V30 353 H 32.7983 -3.68276 1.40593 0
M  V30 354 H 34.0863 -4.90001 1.37029 0
M  V30 355 H 33.4843 -5.37104 -1.77583 0
M  V30 356 H 32.0413 -6.2984 -1.67764 0
M  V30 357 N 35.4744 -0.807222 -1.35358 0
M  V30 358 C 36.6994 -0.399309 -2.0352 0
M  V30 359 C 37.1244 0.981986 -1.60433 0
M  V30 360 O 36.4824 1.63601 -0.781299 0
M  V30 361 C 36.5304 -0.491552 -3.57234 0
M  V30 362 O 35.6344 0.494754 -4.09421 0
M  V30 363 H 34.9754 -0.166682 -0.642739 0
M  V30 364 H 37.5054 -1.09328 -1.72941 0
M  V30 365 H 37.5154 -0.361588 -4.06395 0
M  V30 366 H 36.1904 -1.49907 -3.87944 0
M  V30 367 H 34.7674 0.324977 -3.71481 0
M  V30 368 N 36.9525 1.47285 -0.560781 0
M  V30 369 C 38.2005 2.02064 -0.0379868 0
M  V30 370 C 38.5215 1.43711 1.31803 0
M  V30 371 O 37.7915 0.61362 1.86042 0
M  V30 372 H 36.3715 0.746918 -0.0110531 0
M  V30 373 H 39.0335 1.80648 -0.731598 0
M  V30 374 H 38.1295 3.12064 0.0474463 0
M  V30 375 N 38.4306 0.297415 1.54768 0
M  V30 376 C 39.8416 -0.195947 1.85669 0
M  V30 377 C 40.1926 -1.53707 1.21937 0
M  V30 378 O 39.3176 -2.10164 0.515754 0
M  V30 379 C 39.9126 -0.362318 3.36857 0
M  V30 380 C 38.4716 -0.799901 3.67802 0
M  V30 381 C 37.6186 0.0938578 2.77141 0
M  V30 382 H 40.5696 0.518538 1.4999 0
M  V30 383 H 40.5906 -1.19745 3.61167 0
M  V30 384 H 40.1026 0.613921 3.83214 0
M  V30 385 H 38.2036 -1.78682 3.26961 0
M  V30 386 H 38.3166 -0.621773 4.75048 0
M  V30 387 H 36.6806 -0.426254 2.51108 0
M  V30 388 H 37.4636 1.06639 3.26318 0
M  V30 389 N 39.9087 -1.5758 0.0250728 0
M  V30 390 C 40.8557 -2.09973 -0.958129 0
M  V30 391 C 41.8257 -1.00085 -1.3256 0
M  V30 392 O 43.0107 -1.27481 -1.41962 0
M  V30 393 C 40.1507 -2.62812 -2.2366 0
M  V30 394 C 39.2637 -3.86693 -1.92594 0
M  V30 395 C 38.3987 -4.27941 -3.14707 0
M  V30 396 C 37.4377 -5.44591 -2.79442 0
M  V30 397 N 36.5747 -5.81014 -3.94167 0
M  V30 398 H 41.4147 -2.937 -0.504428 0
M  V30 399 H 38.9517 -1.45172 -0.237392 0
M  V30 400 H 40.9097 -2.91536 -2.98434 0
M  V30 401 H 39.5397 -1.81922 -2.66654 0
M  V30 402 H 38.5917 -3.64723 -1.0808 0
M  V30 403 H 39.9037 -4.71547 -1.62619 0
M  V30 404 H 39.0577 -4.58079 -3.97804 0
M  V30 405 H 37.7967 -3.41845 -3.4784 0
M  V30 406 H 36.8017 -5.1415 -1.94755 0
M  V30 407 H 38.0267 -6.32382 -2.47528 0
M  V30 408 H 35.9727 -4.97874 -4.2715 0
M  V30 409 H 35.8897 -6.60498 -3.67801 0
M  V30 410 H 37.1577 -6.15756 -4.7798 0
M  V30 411 N 41.3868 0.248026 -1.55636 0
M  V30 412 C 42.7978 0.817177 -1.67866 0
M  V30 413 C 43.1488 1.86069 -0.622322 0
M  V30 414 O 42.2738 2.15157 0.231618 0
M  V30 415 C 42.8688 1.489 -3.04326 0
M  V30 416 C 41.4278 2.00587 -3.185 0
M  V30 417 C 40.5748 0.856573 -2.63739 0
M  V30 418 H 43.5258 0.0238579 -1.58682 0
M  V30 419 H 43.5468 2.35698 -2.98708 0
M  V30 420 H 43.0588 0.729279 -3.81186 0
M  V30 421 H 41.1598 2.79443 -2.4646 0
M  V30 422 H 41.2728 2.20402 -4.25393 0
M  V30 423 H 39.6368 1.25678 -2.21534 0
M  V30 424 H 40.4198 0.109953 -3.43124 0
M  V30 425 N 42.8649 1.48995 0.513639 0
M  V30 426 C 43.7949 1.67636 1.62544 0
M  V30 427 C 44.7759 0.525087 1.61793 0
M  V30 428 O 45.9609 0.759502 1.78732 0
M  V30 429 C 43.0909 1.73114 3.01079 0
M  V30 430 C 42.0449 2.87905 3.16693 0
M  V30 431 C 41.3709 2.78486 4.56453 0
M  V30 432 C 42.6709 4.29005 2.97913 0
M  V30 433 H 44.3649 2.60716 1.47198 0
M  V30 434 H 41.9109 1.25465 0.706714 0
M  V30 435 H 43.8639 1.84742 3.78746 0
M  V30 436 H 42.5879 0.766241 3.17484 0
M  V30 437 H 41.2469 2.75859 2.41448 0
M  V30 438 H 40.8949 1.7993 4.69717 0
M  V30 439 H 40.5949 3.55523 4.67843 0
M  V30 440 H 42.1189 2.92104 5.36197 0
M  V30 441 H 43.5329 4.41798 3.65359 0
M  V30 442 H 41.9299 5.07166 3.20785 0
M  V30 443 H 42.9999 4.44329 1.94165 0
M  V30 444 N 44.343 -0.763751 1.37857 0
M  V30 445 C 45.59 -1.52257 1.33506 0
M  V30 446 C 45.918 -1.94343 -0.078022 0
M  V30 447 O 45.173 -1.64958 -1.05297 0
M  V30 448 C 45.472 -2.79499 2.22745 0
M  V30 449 C 45.138 -2.56426 3.70886 0
M  V30 450 C 43.8 -2.49842 4.11257 0
M  V30 451 C 46.152 -2.36008 4.64704 0
M  V30 452 C 43.48 -2.20841 5.43549 0
M  V30 453 C 45.832 -2.0853 5.97242 0
M  V30 454 C 44.496 -2.00396 6.36709 0
M  V30 455 H 43.766 -0.557149 0.488534 0
M  V30 456 H 46.413 -0.879073 1.70131 0
M  V30 457 H 44.718 -3.48447 1.79142 0
M  V30 458 H 46.415 -3.37413 2.16688 0
M  V30 459 H 43.005 -2.62416 3.38874 0
M  V30 460 H 47.189 -2.40079 4.34368 0
M  V30 461 H 42.445 -2.13045 5.73081 0
M  V30 462 H 46.619 -1.91732 6.69486 0
M  V30 463 H 44.246 -1.77688 7.39142 0
M  V30 464 N 45.8211 -1.22559 -0.990812 0
M  V30 465 C 47.2371 -0.985996 -1.255 0
M  V30 466 C 47.4371 0.319173 -1.98956 0
M  V30 467 O 46.4931 1.04127 -2.3003 0
M  V30 468 C 47.8061 -2.18607 -2.06474 0
M  V30 469 C 49.3541 -2.22985 -2.19651 0
M  V30 470 C 49.8291 -3.4255 -3.04012 0
M  V30 471 N 51.3201 -3.42725 -3.11599 0
M  V30 472 C 52.0551 -4.31892 -3.7717 0
M  V30 473 N 51.5511 -5.31279 -4.44651 0
M  V30 474 N 53.3441 -4.19662 -3.73952 0
M  V30 475 H 45.4951 -2.06469 -0.49841 0
M  V30 476 H 47.7581 -0.904853 -0.282747 0
M  V30 477 H 47.4641 -3.13267 -1.59865 0
M  V30 478 H 47.3381 -2.18838 -3.07229 0
M  V30 479 H 49.7251 -1.28871 -2.65474 0
M  V30 480 H 49.8061 -2.26791 -1.18319 0
M  V30 481 H 49.4501 -4.36965 -2.58889 0
M  V30 482 H 49.3801 -3.35984 -4.0549 0
M  V30 483 H 51.8711 -2.70807 -2.63575 0
M  V30 484 H 52.1841 -5.95593 -4.92431 0
M  V30 485 H 50.5291 -5.3519 -4.43392 0
M  V30 486 H 53.7201 -3.41268 -3.20396 0
M  V30 487 H 53.8931 -4.89358 -4.24774 0
M  V30 488 N 47.2992 1.18797 -1.03562 0
M  V30 489 C 48.7152 1.40671 -0.753917 0
M  V30 490 C 48.9152 1.9043 0.658686 0
M  V30 491 O 47.9712 2.08538 1.42366 0
M  V30 492 C 49.2842 2.41192 -1.79574 0
M  V30 493 C 50.8322 2.54928 -1.81606 0
M  V30 494 C 51.3072 3.58709 -2.84766 0
M  V30 495 N 52.7982 3.66212 -2.83625 0
M  V30 496 C 53.5332 4.46225 -3.60098 0
M  V30 497 N 53.0292 5.29888 -4.46308 0
M  V30 498 N 54.8222 4.40939 -3.4861 0
M  V30 499 H 46.9732 0.848221 -1.94728 0
M  V30 500 H 49.2362 0.435081 -0.842264 0
M  V30 501 H 48.9422 2.11669 -2.80872 0
M  V30 502 H 48.8162 3.40467 -1.62365 0
M  V30 503 H 51.2032 2.83771 -0.809817 0
M  V30 504 H 51.2842 1.55784 -2.02891 0
M  V30 505 H 50.9282 3.30607 -3.85566 0
M  V30 506 H 50.8582 4.57519 -2.60737 0
M  V30 507 H 53.3492 3.06466 -2.21105 0
M  V30 508 H 53.6622 5.88078 -5.01382 0
M  V30 509 H 52.0072 5.29326 -4.50377 0
M  V30 510 H 55.1982 3.74624 -2.80668 0
M  V30 511 H 55.3712 5.03056 -4.08459 0
M  V30 512 N 48.7773 0.814389 1.34928 0
M  V30 513 C 49.7103 0.175641 2.27523 0
M  V30 514 C 50.6883 -0.662953 1.48471 0
M  V30 515 O 51.8723 -0.628545 1.77712 0
M  V30 516 C 48.9993 -0.755516 3.30166 0
M  V30 517 C 48.0453 0.00445305 4.265 0
M  V30 518 S 48.8783 1.34582 5.18313 0
M  V30 519 C 50.0343 0.419315 6.24494 0
M  V30 520 H 50.2673 0.960691 2.8135 0
M  V30 521 H 47.8003 0.609846 1.41846 0
M  V30 522 H 49.7583 -1.28723 3.89796 0
M  V30 523 H 48.4193 -1.51402 2.75202 0
M  V30 524 H 47.6123 -0.703077 4.99072 0
M  V30 525 H 47.2143 0.466447 3.7108 0
M  V30 526 H 49.5063 -0.392432 6.76362 0
M  V30 527 H 50.4493 1.11446 6.99275 0
M  V30 528 H 50.8573 0.0115389 5.64499 0
M  V30 529 N 50.2554 -1.46986 0.568584 0
M  V30 530 C 51.4804 -2.07335 0.0520528 0
M  V30 531 C 51.9054 -1.41675 -1.23733 0
M  V30 532 O 51.2634 -0.495623 -1.74394 0
M  V30 533 C 51.3114 -3.60417 -0.11501 0
M  V30 534 O 50.4154 -3.95309 -1.17492 0
M  V30 535 H 49.7564 -0.661597 0.0564385 0
M  V30 536 H 52.2864 -1.88837 0.787507 0
M  V30 537 H 52.2964 -4.06698 -0.325644 0
M  V30 538 H 50.9714 -4.07601 0.826675 0
M  V30 539 H 49.5484 -3.60757 -0.943869 0
M  V30 540 N 51.7335 -0.305618 -1.54608 0
M  V30 541 C 52.9585 0.307562 -2.05107 0
M  V30 542 C 53.3835 1.46385 -1.18123 0
M  V30 543 O 52.7415 1.8034 -0.186324 0
M  V30 544 C 52.7895 0.73704 -3.52987 0
M  V30 545 O 51.8935 1.84134 -3.6901 0
M  V30 546 H 51.2345 0.0589143 -0.661381 0
M  V30 547 H 53.7645 -0.448807 -1.99617 0
M  V30 548 H 53.7745 1.02459 -3.94925 0
M  V30 549 H 52.4495 -0.108773 -4.15758 0
M  V30 550 H 51.0265 1.55398 -3.38978 0
M  V30 551 N 53.2116 1.57565 -0.0334293 0
M  V30 552 C 54.1416 2.13511 0.945265 0
M  V30 553 C 55.1226 1.05231 1.33643 0
M  V30 554 O 56.3076 1.33084 1.41429 0
M  V30 555 C 53.4376 2.6657 2.22616 0
M  V30 556 C 52.3916 3.79676 1.97561 0
M  V30 557 C 51.7176 4.1918 3.31952 0
M  V30 558 C 53.0176 5.0557 1.31135 0
M  V30 559 H 54.7116 2.95538 0.479325 0
M  V30 560 H 52.2576 1.42166 0.229115 0
M  V30 561 H 54.2106 3.04344 2.91466 0
M  V30 562 H 52.9346 1.8171 2.71384 0
M  V30 563 H 51.5936 3.42347 1.31127 0
M  V30 564 H 51.2416 3.31296 3.78487 0
M  V30 565 H 50.9416 4.95402 3.15992 0
M  V30 566 H 52.4656 4.59541 4.02063 0
M  V30 567 H 53.8796 5.40903 1.89992 0
M  V30 568 H 52.2766 5.86818 1.25559 0
M  V30 569 H 53.3466 4.84062 0.284894 0
M  V30 570 N 54.6897 -0.239769 1.55765 0
M  V30 571 C 55.9357 -0.968234 1.78194 0
M  V30 572 C 56.2687 -1.84701 0.599938 0
M  V30 573 O 55.5437 -1.9031 -0.401524 0
M  V30 574 C 55.8267 -1.8227 3.10564 0
M  V30 575 C 55.6797 -0.971633 4.3918 0
M  V30 576 C 56.9987 -2.80388 3.39221 0
M  V30 577 H 54.1177 -0.350572 0.648281 0
M  V30 578 H 56.7597 -0.238259 1.885 0
M  V30 579 H 54.9097 -2.44507 3.01908 0
M  V30 580 H 56.5817 -0.367408 4.59835 0
M  V30 581 H 54.8247 -0.276276 4.32919 0
M  V30 582 H 55.4957 -1.60346 5.28198 0
M  V30 583 H 57.9717 -2.28287 3.47885 0
M  V30 584 H 56.8477 -3.3729 4.33044 0
M  V30 585 H 57.1087 -3.57212 2.60484 0
M  V30 586 N 56.1678 -1.49265 -0.50573 0
M  V30 587 C 57.4158 -1.582 -1.25766 0
M  V30 588 C 57.7368 -0.268482 -1.93143 0
M  V30 589 O 57.0068 0.711833 -1.8251 0
M  V30 590 H 55.5868 -0.582873 -0.467191 0
M  V30 591 H 58.2488 -1.85865 -0.586525 0
M  V30 592 H 57.3448 -2.37563 -2.02412 0
M  V30 593 N 57.6459 0.756429 -1.3826 0
M  V30 594 C 59.0569 1.33359 -1.30661 0
M  V30 595 C 59.4079 1.96161 0.0388875 0
M  V30 596 O 58.5329 1.94874 0.940918 0
M  V30 597 C 59.1279 2.42477 -2.36622 0
M  V30 598 C 57.6869 2.95922 -2.3261 0
M  V30 599 C 56.8339 1.69275 -2.19639 0
M  V30 600 H 59.7849 0.55552 -1.4866 0
M  V30 601 H 59.8059 3.22345 -2.02174 0
M  V30 602 H 59.3179 1.96739 -3.34538 0
M  V30 603 H 57.4189 3.45996 -1.38267 0
M  V30 604 H 57.5319 3.50494 -3.26636 0
M  V30 605 H 55.8959 1.92793 -1.66442 0
M  V30 606 H 56.6789 1.25619 -3.19491 0
M  V30 607 N 59.124 1.23083 0.984299 0
M  V30 608 C 60.352 1.08714 1.76037 0
M  V30 609 C 60.767 -0.361691 1.85303 0
M  V30 610 O 60.124 -1.25034 1.32939 0
M  V30 611 C 60.175 1.70206 3.18923 0
M  V30 612 O 59.896 3.09423 3.10144 0
M  V30 613 C 61.397 1.61227 4.12941 0
M  V30 614 H 58.617 0.380664 0.552572 0
M  V30 615 H 61.161 1.62853 1.23689 0
M  V30 616 H 59.316 1.20109 3.6831 0
M  V30 617 H 59.73 3.39188 4.00065 0
M  V30 618 H 61.204 2.08962 5.10919 0
M  V30 619 H 61.681 0.570375 4.35481 0
M  V30 620 H 62.287 2.10671 3.69456 0
M  V30 621 N 60.6021 -1.18246 1.0419 0
M  V30 622 C 61.5341 -2.2142 0.592088 0
M  V30 623 C 62.5471 -1.59233 -0.338909 0
M  V30 624 O 63.7361 -1.78002 -0.133231 0
M  V30 625 C 60.8361 -3.38546 -0.154854 0
M  V30 626 C 60.0091 -4.3031 0.784328 0
M  V30 627 C 59.0681 -5.26138 0.0804583 0
M  V30 628 O 58.0941 -5.64738 0.711292 0
M  V30 629 N 59.2961 -5.68261 -1.18574 0
M  V30 630 H 62.0611 -2.60636 1.47949 0
M  V30 631 H 59.6221 -1.33044 0.922544 0
M  V30 632 H 61.6141 -3.99678 -0.635606 0
M  V30 633 H 60.1841 -2.98012 -0.943811 0
M  V30 634 H 59.4041 -3.66764 1.44491 0
M  V30 635 H 60.6921 -4.8852 1.42218 0
M  V30 636 H 60.0901 -5.38957 -1.71876 0
M  V30 637 H 58.6471 -6.31584 -1.61074 0
M  V30 638 N 62.0802 -0.821533 -1.34494 0
M  V30 639 C 63.3052 -0.420873 -2.03085 0
M  V30 640 C 63.7302 0.964915 -1.61465 0
M  V30 641 O 63.0882 1.62763 -0.798607 0
M  V30 642 C 63.1362 -0.529414 -3.56693 0
M  V30 643 O 62.2402 0.451302 -4.09923 0
M  V30 644 H 61.5812 -0.173489 -0.640935 0
M  V30 645 H 64.1112 -1.11157 -1.71771 0
M  V30 646 H 64.1212 -0.404671 -4.05988 0
M  V30 647 H 62.7962 -1.54014 -3.86332 0
M  V30 648 H 61.3732 0.285558 -3.71805 0
M  V30 649 N 63.5583 1.46682 -0.576371 0
M  V30 650 C 64.8053 2.02412 -0.0595339 0
M  V30 651 C 65.1333 1.44859 1.29793 0
M  V30 652 O 64.3883 0.601099 1.8624 0
M  V30 653 C 64.6873 3.57345 0.062886 0
M  V30 654 C 64.3533 4.33908 -1.22616 0
M  V30 655 C 63.0153 4.54544 -1.57933 0
M  V30 656 C 65.3673 4.77919 -2.07948 0
M  V30 657 C 62.6953 5.16444 -2.78393 0
M  V30 658 C 65.0473 5.41149 -3.27629 0
M  V30 659 C 63.7113 5.60014 -3.63236 0
M  V30 660 H 62.9813 0.74068 -0.021785 0
M  V30 661 H 65.6283 1.76128 -0.751735 0
M  V30 662 H 63.9333 3.82729 0.838178 0
M  V30 663 H 65.6303 3.98136 0.478439 0
M  V30 664 H 62.2203 4.18138 -0.941202 0
M  V30 665 H 66.4043 4.61738 -1.81967 0
M  V30 666 H 61.6603 5.29242 -3.06126 0
M  V30 667 H 65.8343 5.74211 -3.94023 0
M  V30 668 H 63.4613 6.07748 -4.56669 0
M  V30 669 N 65.0364 0.313813 1.54444 0
M  V30 670 C 66.2834 -0.291675 2.00388 0
M  V30 671 C 66.6114 -1.52904 1.2021 0
M  V30 672 O 65.8664 -1.93833 0.269707 0
M  V30 673 C 66.1654 -0.680386 3.50864 0
M  V30 674 C 65.8314 0.456699 4.48581 0
M  V30 675 C 64.4934 0.768824 4.75018 0
M  V30 676 C 66.8454 1.22098 5.06697 0
M  V30 677 C 64.1734 1.84812 5.56831 0
M  V30 678 C 66.5254 2.29029 5.89685 0
M  V30 679 C 65.1894 2.60834 6.14428 0
M  V30 680 H 64.4594 -0.106732 0.733273 0
M  V30 681 H 67.1064 0.43557 1.86481 0
M  V30 682 H 65.4114 -1.48791 3.62448 0
M  V30 683 H 67.1084 -1.16026 3.83847 0
M  V30 684 H 63.6984 0.203337 4.28117 0
M  V30 685 H 67.8824 0.993096 4.86263 0
M  V30 686 H 63.1384 2.09912 5.74236 0
M  V30 687 H 67.3124 2.887 6.33739 0
M  V30 688 H 64.9394 3.44596 6.77612 0
M  V30 689 N 66.5145 -1.57545 0.0417849 0
M  V30 690 C 67.4475 -2.06514 -0.970928 0
M  V30 691 C 68.4255 -0.963607 -1.30971 0
M  V30 692 O 69.6095 -1.23486 -1.4242 0
M  V30 693 C 66.7365 -2.4978 -2.28752 0
M  V30 694 C 65.7825 -3.71078 -2.10246 0
M  V30 695 S 66.6155 -5.17158 -1.38952 0
M  V30 696 C 67.7715 -5.6373 -2.71954 0
M  V30 697 H 68.0045 -2.9209 -0.554129 0
M  V30 698 H 65.5375 -1.53459 -0.17024 0
M  V30 699 H 67.4955 -2.75371 -3.04435 0
M  V30 700 H 66.1565 -1.64527 -2.67562 0
M  V30 701 H 65.3495 -3.9924 -3.07609 0
M  V30 702 H 64.9515 -3.45705 -1.42704 0
M  V30 703 H 67.2435 -5.68743 -3.68154 0
M  V30 704 H 68.1865 -6.63086 -2.4844 0
M  V30 705 H 68.5945 -4.91424 -2.77782 0
M  V30 706 N 67.9926 0.231505 -1.5589 0
M  V30 707 C 69.4086 0.580748 -1.48659 0
M  V30 708 C 69.6086 1.87617 -0.73498 0
M  V30 709 O 68.6646 2.51046 -0.270586 0
M  V30 710 C 69.9776 0.669202 -2.93159 0
M  V30 711 C 71.5256 0.760499 -3.03621 0
M  V30 712 C 72.0006 0.880383 -4.49459 0
M  V30 713 N 73.4916 0.944861 -4.53461 0
M  V30 714 C 74.2266 1.05716 -5.63571 0
M  V30 715 N 73.7226 1.13403 -6.83456 0
M  V30 716 N 75.5156 1.09152 -5.514 0
M  V30 717 H 67.6666 -0.618695 -2.03189 0
M  V30 718 H 69.9296 -0.215728 -0.923128 0
M  V30 719 H 69.6356 -0.212904 -3.51055 0
M  V30 720 H 69.5096 1.5361 -3.44505 0
M  V30 721 H 71.8966 1.63305 -2.45796 0
M  V30 722 H 71.9776 -0.131864 -2.5546 0
M  V30 723 H 71.6216 0.0123284 -5.07899 0
M  V30 724 H 71.5516 1.78802 -4.95316 0
M  V30 725 H 74.0426 0.896176 -3.6712 0
M  V30 726 H 74.3556 1.21921 -7.63122 0
M  V30 727 H 72.7006 1.10333 -6.86186 0
M  V30 728 H 75.8916 1.02805 -4.56671 0
M  V30 729 H 76.0646 1.17558 -6.37247 0
M  V30 730 N 69.4707 1.49531 0.497807 0
M  V30 731 C 70.3807 1.69176 1.62532 0
M  V30 732 C 71.3967 0.5744 1.64246 0
M  V30 733 O 72.5727 0.849497 1.82608 0
M  V30 734 C 69.6377 1.75695 2.98885 0
M  V30 735 C 68.6987 2.9929 3.07773 0
M  V30 736 C 67.9317 3.05488 4.37622 0
M  V30 737 O 68.1547 2.19192 5.26603 0
M  V30 738 O 67.0887 3.9798 4.51548 0
M  V30 739 H 70.9147 2.647 1.48887 0
M  V30 740 H 68.4997 1.3331 0.674441 0
M  V30 741 H 70.3817 1.82317 3.79919 0
M  V30 742 H 69.0567 0.8335 3.12785 0
M  V30 743 H 67.9637 2.98183 2.25915 0
M  V30 744 H 69.2967 3.91125 2.98801 0
M  V30 745 N 70.9488 -0.749086 1.3866 0
M  V30 746 C 72.1738 -1.54344 1.38538 0
M  V30 747 C 72.5988 -1.88088 -0.0216655 0
M  V30 748 O 71.9568 -1.50899 -1.00494 0
M  V30 749 C 72.0048 -2.8164 2.25192 0
M  V30 750 O 71.1088 -3.7698 1.67212 0
M  V30 751 H 70.4498 -0.466654 0.472367 0
M  V30 752 H 72.9798 -0.925355 1.82478 0
M  V30 753 H 72.9898 -3.30519 2.3921 0
M  V30 754 H 71.6648 -2.56411 3.27454 0
M  V30 755 H 70.2418 -3.35699 1.6236 0
M  V30 756 N 72.4269 -1.23603 -0.977757 0
M  V30 757 C 73.3739 -1.01954 -2.07061 0
M  V30 758 C 74.3439 0.0638697 -1.65977 0
M  V30 759 O 75.5289 -0.0887624 -1.90593 0
M  V30 760 C 72.6689 -0.619658 -3.39491 0
M  V30 761 C 71.7819 -1.77547 -3.93829 0
M  V30 762 C 70.9169 -1.32212 -5.14484 0
M  V30 763 C 69.9559 -2.44852 -5.60994 0
M  V30 764 N 69.0929 -2.00456 -6.72876 0
M  V30 765 H 73.9329 -1.95495 -2.24913 0
M  V30 766 H 71.4699 -0.973861 -1.10247 0
M  V30 767 H 73.4279 -0.368898 -4.15566 0
M  V30 768 H 72.0579 0.278752 -3.21594 0
M  V30 769 H 71.1099 -2.14016 -3.14486 0
M  V30 770 H 72.4219 -2.62219 -4.24314 0
M  V30 771 H 71.5759 -1.02965 -5.97899 0
M  V30 772 H 70.3149 -0.445808 -4.85658 0
M  V30 773 H 69.3199 -2.74871 -4.76157 0
M  V30 774 H 70.5449 -3.33024 -5.91837 0
M  V30 775 H 68.4909 -1.15208 -6.45804 0
M  V30 776 H 68.4079 -2.78687 -7.02759 0
M  V30 777 H 69.6759 -1.7432 -7.59758 0
M  V30 778 N 73.905 1.17692 -1.04816 0
M  V30 779 C 75.133 1.91786 -0.776254 0
M  V30 780 C 75.548 1.76604 0.667577 0
M  V30 781 O 74.905 1.10067 1.45573 0
M  V30 782 C 74.956 3.42967 -1.14263 0
M  V30 783 O 74.677 3.57678 -2.52978 0
M  V30 784 C 76.178 4.34144 -0.896311 0
M  V30 785 H 73.398 0.608624 -0.282519 0
M  V30 786 H 75.942 1.49268 -1.39783 0
M  V30 787 H 74.097 3.83245 -0.565874 0
M  V30 788 H 74.511 4.51319 -2.67229 0
M  V30 789 H 75.985 5.38744 -1.20244 0
M  V30 790 H 76.462 4.38876 0.168636 0
M  V30 791 H 77.068 3.99574 -1.45672 0
M  V30 792 N 75.3831 0.828654 1.34056 0
M  V30 793 C 76.3131 0.269443 2.3194 0
M  V30 794 C 77.2941 -0.617247 1.58506 0
M  V30 795 O 78.4791 -0.542931 1.86456 0
M  V30 796 C 75.6091 -0.564793 3.42677 0
M  V30 797 C 74.5631 0.225241 4.27407 0
M  V30 798 C 73.8891 -0.7321 5.29664 0
M  V30 799 C 75.1891 1.43663 5.02154 0
M  V30 800 H 76.8831 1.08728 2.7896 0
M  V30 801 H 74.4291 0.524283 1.34117 0
M  V30 802 H 76.3821 -0.966233 4.10173 0
M  V30 803 H 75.1061 -1.41574 2.9432 0
M  V30 804 H 73.7651 0.608117 3.61521 0
M  V30 805 H 73.4131 -1.57916 4.77568 0
M  V30 806 H 73.1131 -0.20767 5.87233 0
M  V30 807 H 74.6371 -1.13128 6.00029 0
M  V30 808 H 76.0511 1.1089 5.62473 0
M  V30 809 H 74.4481 1.89711 5.69324 0
M  V30 810 H 75.5181 2.21181 4.31517 0
M  V30 811 N 76.8612 -1.46375 0.584142 0
M  V30 812 C 78.1092 -2.01978 0.0701287 0
M  V30 813 C 78.4302 -1.4579 -1.295 0
M  V30 814 O 77.7002 -0.64314 -1.85042 0
M  V30 815 H 76.2802 -0.746648 0.0229345 0
M  V30 816 H 78.9422 -1.79461 0.760245 0
M  V30 817 H 78.0382 -3.121 0.0022064 0
M  V30 818 N 78.3393 -0.321999 -1.54275 0
M  V30 819 C 79.3023 0.531975 -2.22941 0
M  V30 820 C 80.3023 1.04478 -1.22234 0
M  V30 821 O 81.4923 0.937452 -1.46825 0
M  V30 822 C 78.6243 1.73874 -2.93224 0
M  V30 823 H 79.8173 -0.0682612 -2.99822 0
M  V30 824 H 77.3703 -0.0730644 -1.56129 0
M  V30 825 H 78.1053 2.37825 -2.20476 0
M  V30 826 H 77.8903 1.37847 -3.6707 0
M  V30 827 H 79.3803 2.34496 -3.45545 0
M  V30 828 N 79.8174 1.5752 -0.0501392 0
M  V30 829 C 81.0634 1.92936 0.624798 0
M  V30 830 C 81.3964 0.928685 1.70555 0
M  V30 831 O 80.6714 -0.0454779 1.94447 0
M  V30 832 C 80.9544 3.38737 1.22185 0
M  V30 833 C 80.8074 4.49552 0.149218 0
M  V30 834 C 82.1264 3.84913 2.13378 0
M  V30 835 H 79.2454 0.701604 0.225657 0
M  V30 836 H 81.8874 1.89671 -0.111693 0
M  V30 837 H 80.0374 3.4165 1.84953 0
M  V30 838 H 81.7094 4.58768 -0.482648 0
M  V30 839 H 79.9524 4.30638 -0.522841 0
M  V30 840 H 80.6234 5.48653 0.606966 0
M  V30 841 H 83.0994 3.8387 1.60572 0
M  V30 842 H 81.9754 4.87584 2.52097 0
M  V30 843 H 82.2364 3.21611 3.03346 0
M  V30 844 N 81.2955 -0.223234 1.56011 0
M  V30 845 C 82.2275 -1.30006 1.88762 0
M  V30 846 C 83.2405 -1.43129 0.775746 0
M  V30 847 O 84.4295 -1.44057 1.05403 0
M  V30 848 C 81.5295 -2.67589 2.07965 0
M  V30 849 C 80.7025 -2.76434 3.38973 0
M  V30 850 C 79.7615 -3.95019 3.47629 0
M  V30 851 O 78.7875 -3.83436 4.20672 0
M  V30 852 N 79.9895 -5.09249 2.78649 0
M  V30 853 H 82.7545 -1.02238 2.81722 0
M  V30 854 H 80.3155 -0.413278 1.56536 0
M  V30 855 H 82.3075 -3.45297 2.11073 0
M  V30 856 H 80.8775 -2.87964 1.21638 0
M  V30 857 H 80.0975 -1.85216 3.47978 0
M  V30 858 H 81.3855 -2.79313 4.25278 0
M  V30 859 H 80.7835 -5.21556 2.19081 0
M  V30 860 H 79.3405 -5.85007 2.8742 0
M  V30 861 N 82.7736 -1.49793 -0.48987 0
M  V30 862 C 84.0226 -1.59085 -1.23995 0
M  V30 863 C 84.3356 -0.287907 -1.9347 0
M  V30 864 O 85.5416 -0.259506 -2.70257 0
M  V30 865 C 83.9976 -2.80736 -2.252 0
M  V30 866 C 83.6056 -4.17833 -1.61614 0
M  V30 867 C 85.3496 -2.99364 -3.00967 0
M  V30 868 C 83.2566 -5.30693 -2.60996 0
M  V30 869 H 82.1866 -0.592372 -0.466488 0
M  V30 870 H 84.8376 -1.76197 -0.51252 0
M  V30 871 H 83.2196 -2.57142 -3.01154 0
M  V30 872 H 84.3936 -4.51608 -0.915774 0
M  V30 873 H 82.7086 -4.04656 -0.981977 0
M  V30 874 H 85.3056 -3.80851 -3.75308 0
M  V30 875 H 85.6486 -2.10356 -3.59244 0
M  V30 876 H 86.1816 -3.2305 -2.32128 0
M  V30 877 H 82.9206 -6.21796 -2.07485 0
M  V30 878 H 82.4406 -5.01359 -3.2924 0
M  V30 879 H 84.1196 -5.6049 -3.23202 0
M  V30 880 N 84.2517 0.741722 -1.39055 0
M  V30 881 C 85.1847 1.86416 -1.31622 0
M  V30 882 C 86.1627 1.61473 -0.191076 0
M  V30 883 O 87.3467 1.84825 -0.370399 0
M  V30 884 C 84.4737 3.22266 -1.04221 0
M  V30 885 C 83.5197 3.66079 -2.18834 0
M  V30 886 S 84.3527 3.7623 -3.81066 0
M  V30 887 C 85.5087 5.14881 -3.55877 0
M  V30 888 H 85.7417 1.92437 -2.26617 0
M  V30 889 H 83.2747 0.905907 -1.25031 0
M  V30 890 H 85.2327 4.00714 -0.890964 0
M  V30 891 H 83.8937 3.1391 -0.109237 0
M  V30 892 H 83.0867 4.64648 -1.95238 0
M  V30 893 H 82.6887 2.94817 -2.30128 0
M  V30 894 H 84.9807 6.01006 -3.12726 0
M  V30 895 H 85.9237 5.43503 -4.53884 0
M  V30 896 H 86.3317 4.84239 -2.90126 0
M  V30 897 N 85.7298 1.2412 0.971189 0
M  V30 898 C 86.6778 1.02812 2.08644 0
M  V30 899 C 87.6718 -0.0358403 1.69362 0
M  V30 900 O 88.8778 0.118429 1.7961 0
M  V30 901 H 85.2528 0.315428 0.682649 0
M  V30 902 H 87.2238 1.97397 2.23779 0
M  V30 903 C 85.9728 0.645874 3.41649 0
M  V30 904 H 85.2958 1.45632 3.72332 0
M  V30 905 H 86.7358 0.536366 4.20594 0
M  V30 906 C 85.1948 -0.646713 3.30635 0
M  V30 907 O 85.7248 -1.69338 3.64263 0
M  V30 908 N 83.9308 -0.626115 2.83775 0
M  V30 909 H 83.4778 0.225988 2.56607 0
M  V30 910 H 83.4358 -1.49117 2.76788 0
M  V30 911 N 87.2079 -1.17134 1.05439 0
M  V30 912 C 88.4559 -1.87085 0.764429 0
M  V30 913 C 88.7769 -1.81584 -0.710787 0
M  V30 914 O 88.0469 -1.24349 -1.51374 0
M  V30 915 H 86.6269 -0.692627 0.279779 0
M  V30 916 H 89.2889 -1.42087 1.33406 0
M  V30 917 H 88.3849 -2.92759 1.0816 0
M  V30 918 N 88.686 -0.835752 -1.33615 0
M  V30 919 C 89.616 -0.281739 -2.31794 0
M  V30 920 C 90.597 0.608833 -1.58831 0
M  V30 921 O 91.782 0.533035 -1.86741 0
M  V30 922 C 88.912 0.546612 -3.42971 0
M  V30 923 C 87.866 -0.247904 -4.27281 0
M  V30 924 C 87.192 0.704001 -5.30045 0
M  V30 925 C 88.492 -1.46324 -5.01385 0
M  V30 926 H 90.186 -1.10206 -2.78379 0
M  V30 927 H 87.732 -0.531388 -1.33837 0
M  V30 928 H 89.685 0.944467 -4.1068 0
M  V30 929 H 88.409 1.40011 -2.95067 0
M  V30 930 H 87.068 -0.627281 -3.61194 0
M  V30 931 H 86.716 1.55381 -4.78399 0
M  V30 932 H 86.416 0.176524 -5.87335 0
M  V30 933 H 87.94 1.09944 -6.0062 0
M  V30 934 H 89.354 -1.13871 -5.61877 0
M  V30 935 H 87.751 -1.92728 -5.6831 0
M  V30 936 H 88.821 -2.23467 -4.30338 0
M  V30 937 N 90.1641 1.46063 -0.591896 0
M  V30 938 C 91.4111 2.02338 -0.0809991 0
M  V30 939 C 91.7391 1.46228 1.28249 0
M  V30 940 O 90.9941 0.620818 1.85592 0
M  V30 941 C 91.2931 3.57391 0.0249813 0
M  V30 942 C 90.9591 4.32583 -1.27211 0
M  V30 943 C 89.6211 4.52844 -1.62745 0
M  V30 944 C 91.9731 4.75687 -2.13005 0
M  V30 945 C 89.3011 5.13462 -2.83855 0
M  V30 946 C 91.6531 5.37644 -3.3335 0
M  V30 947 C 90.3171 5.5613 -3.69155 0
M  V30 948 H 89.5871 0.740407 -0.0296397 0
M  V30 949 H 92.2341 1.75321 -0.770374 0
M  V30 950 H 90.5391 3.83597 0.797537 0
M  V30 951 H 92.2361 3.98621 0.436184 0
M  V30 952 H 88.8261 4.17116 -0.985499 0
M  V30 953 H 93.0101 4.59782 -1.86855 0
M  V30 954 H 88.2661 5.25965 -3.11722 0
M  V30 955 H 92.4401 5.7 -4.00092 0
M  V30 956 H 90.0671 6.0287 -4.63089 0
M  V30 957 N 91.6422 0.330177 1.54103 0
M  V30 958 C 92.5922 -0.548456 2.21305 0
M  V30 959 C 93.5762 -1.07651 1.19583 0
M  V30 960 O 94.7682 -1.01243 1.45186 0
M  V30 961 C 91.8972 -1.70559 2.97934 0
M  V30 962 C 90.9832 -1.19212 4.07 0
M  V30 963 N 91.3742 -0.398831 5.04225 0
M  V30 964 C 89.6722 -1.47024 4.2107 0
M  V30 965 C 90.3732 -0.121761 5.81573 0
M  V30 966 N 89.3492 -0.709722 5.38947 0
M  V30 967 H 93.1512 0.0648483 2.93828 0
M  V30 968 H 90.6652 0.136363 1.61826 0
M  V30 969 H 92.6622 -2.34688 3.44568 0
M  V30 970 H 91.3222 -2.32231 2.26934 0
M  V30 971 H 92.3332 -0.0410869 5.17884 0
M  V30 972 H 89.0102 -2.09232 3.61287 0
M  V30 973 H 90.4002 0.517298 6.69906 0
M  V30 974 N 93.1203 -1.57491 0.0584922 0
M  V30 975 C 94.3693 -1.92155 -0.613146 0
M  V30 976 C 94.6823 -0.939334 -1.71569 0
M  V30 977 O 95.8883 -1.17829 -2.44599 0
M  V30 978 C 94.3443 -3.41303 -1.14195 0
M  V30 979 C 93.9523 -4.47944 -0.0711265 0
M  V30 980 C 95.6963 -3.84988 -1.78841 0
M  V30 981 C 93.6033 -5.88212 -0.613225 0
M  V30 982 H 92.5333 -0.717162 -0.232796 0
M  V30 983 H 95.1843 -1.83049 0.12857 0
M  V30 984 H 93.5663 -3.45437 -1.93621 0
M  V30 985 H 94.7403 -4.55408 0.702836 0
M  V30 986 H 93.0553 -4.13644 0.478313 0
M  V30 987 H 95.6523 -4.87159 -2.20408 0
M  V30 988 H 95.9953 -3.21632 -2.64308 0
M  V30 989 H 96.5283 -3.83401 -1.06059 0
M  V30 990 H 93.2673 -6.55183 0.203978 0
M  V30 991 H 92.7873 -5.84294 -1.35501 0
M  V30 992 H 94.4663 -6.37687 -1.09383 0
M  V30 993 N 94.5984 0.214957 -1.56127 0
M  V30 994 C 95.5614 1.24997 -1.92116 0
M  V30 995 C 96.5614 1.39467 -0.800344 0
M  V30 996 O 97.7514 1.37619 -1.06802 0
M  V30 997 C 94.8834 2.62271 -2.17777 0
M  V30 998 H 96.0764 0.942875 -2.84693 0
M  V30 999 H 93.6294 0.455654 -1.49511 0
M  V30 1000 H 94.3644 2.98068 -1.27773 0
M  V30 1001 H 94.1494 2.53143 -2.99434 0
M  V30 1002 H 95.6394 3.36946 -2.46693 0
M  V30 1003 N 96.0765 1.50051 0.48192 0
M  V30 1004 C 97.0065 1.71046 1.58951 0
M  V30 1005 C 97.9875 0.559288 1.60642 0
M  V30 1006 O 99.1725 0.797243 1.77081 0
M  V30 1007 C 96.3025 1.79462 2.97339 0
M  V30 1008 C 95.2565 2.94558 3.10515 0
M  V30 1009 C 94.5825 2.88105 4.50444 0
M  V30 1010 C 95.8825 4.35227 2.88747 0
M  V30 1011 H 97.5765 2.6378 1.41635 0
M  V30 1012 H 95.1225 1.26936 0.679942 0
M  V30 1013 H 97.0755 1.92734 3.74742 0
M  V30 1014 H 95.7995 0.833412 3.15788 0
M  V30 1015 H 94.4585 2.80918 2.35543 0
M  V30 1016 H 94.1065 1.89853 4.65795 0
M  V30 1017 H 93.8065 3.65366 4.60197 0
M  V30 1018 H 95.3305 3.03412 5.29881 0
M  V30 1019 H 96.7445 4.49449 3.55905 0
M  V30 1020 H 95.1415 5.13856 3.09955 0
M  V30 1021 H 96.2115 4.48347 1.84696 0
M  V30 1022 N 97.5546 -0.734337 1.39446 0
M  V30 1023 C 98.8026 -1.49096 1.36436 0
M  V30 1024 C 99.1236 -1.94961 -0.0388255 0
M  V30 1025 O 98.3936 -1.69033 -0.990191 0
M  V30 1026 H 96.9736 -0.5531 0.502085 0
M  V30 1027 H 99.6356 -0.871725 1.74319 0
M  V30 1028 H 98.7316 -2.37276 2.02747 0
M  V30 1029 N 99.0327 -1.24633 -0.964593 0
M  V30 1030 C 100.281 -1.08573 -1.70459 0
M  V30 1031 C 100.602 0.375655 -1.91347 0
M  V30 1032 O 99.8717 1.26779 -1.49345 0
M  V30 1033 H 98.4517 -0.398784 -0.631649 0
M  V30 1034 H 101.114 -1.56601 -1.16026 0
M  V30 1035 H 100.21 -1.58623 -2.68785 0
M  V30 1036 N 100.511 1.16574 -1.06058 0
M  V30 1037 C 101.441 2.23057 -0.690488 0
M  V30 1038 C 102.422 1.67141 0.315901 0
M  V30 1039 O 103.607 1.93253 0.191556 0
M  V30 1040 C 100.737 3.47222 -0.073625 0
M  V30 1041 C 99.6908 4.16016 -1.00573 0
M  V30 1042 C 99.0168 5.34104 -0.252289 0
M  V30 1043 C 100.317 4.67264 -2.33371 0
M  V30 1044 H 102.011 2.54271 -1.58072 0
M  V30 1045 H 99.5568 1.22218 -0.76149 0
M  V30 1046 H 101.51 4.20939 0.19714 0
M  V30 1047 H 100.234 3.15302 0.85161 0
M  V30 1048 H 98.8928 3.44223 -1.2612 0
M  V30 1049 H 98.5408 4.98437 0.675988 0
M  V30 1050 H 98.2408 5.81072 -0.873455 0
M  V30 1051 H 99.7648 6.10599 0.0109857 0
M  V30 1052 H 101.179 5.32573 -2.12223 0
M  V30 1053 H 99.5758 5.24843 -2.90963 0
M  V30 1054 H 100.646 3.83602 -2.96611 0
M  V30 1055 N 101.989 0.842826 1.3317 0
M  V30 1056 C 102.919 0.294028 2.31641 0
M  V30 1057 C 103.9 -0.600401 1.59151 0
M  V30 1058 O 105.085 -0.523124 1.87022 0
M  V30 1059 C 102.215 -0.528416 3.43257 0
M  V30 1060 C 101.169 0.27056 4.27144 0
M  V30 1061 C 100.495 -0.675881 5.30411 0
M  V30 1062 C 101.795 1.48981 5.00602 0
M  V30 1063 H 103.489 1.11681 2.77791 0
M  V30 1064 H 101.035 0.538478 1.33553 0
M  V30 1065 H 102.988 -0.922674 4.11175 0
M  V30 1066 H 101.712 -1.38445 2.95805 0
M  V30 1067 H 100.371 0.646427 3.60856 0
M  V30 1068 H 100.019 -1.52842 4.79216 0
M  V30 1069 H 99.7189 -0.145374 5.8742 0
M  V30 1070 H 101.243 -1.06757 6.01195 0
M  V30 1071 H 102.657 1.16849 5.61266 0
M  V30 1072 H 101.054 1.95739 5.6728 0
M  V30 1073 H 102.124 2.25746 4.29147 0
M  V30 1074 N 103.467 -1.45747 0.599634 0
M  V30 1075 C 104.4 -2.27547 -0.172552 0
M  V30 1076 C 105.378 -1.36657 -0.881116 0
M  V30 1077 O 106.562 -1.66081 -0.891595 0
M  V30 1078 C 103.689 -3.14829 -1.24903 0
M  V30 1079 C 102.735 -4.21603 -0.644465 0
M  V30 1080 S 103.568 -5.32754 0.541606 0
M  V30 1081 C 104.724 -6.23604 -0.535656 0
M  V30 1082 H 104.957 -2.92691 0.521468 0
M  V30 1083 H 102.49 -1.49473 0.386947 0
M  V30 1084 H 104.448 -3.65675 -1.86527 0
M  V30 1085 H 103.109 -2.48965 -1.91508 0
M  V30 1086 H 102.302 -4.82566 -1.45417 0
M  V30 1087 H 101.904 -3.73857 -0.103534 0
M  V30 1088 H 104.196 -6.62519 -1.41686 0
M  V30 1089 H 105.139 -7.0809 0.0376246 0
M  V30 1090 H 105.547 -5.58103 -0.84741 0
M  V30 1091 N 104.945 -0.338344 -1.53925 0
M  V30 1092 C 106.194 0.260732 -2.00008 0
M  V30 1093 C 106.507 1.52073 -1.23017 0
M  V30 1094 O 107.713 2.19672 -1.5955 0
M  V30 1095 C 106.169 0.51515 -3.56194 0
M  V30 1096 C 105.777 -0.728645 -4.42035 0
M  V30 1097 C 107.521 1.07337 -4.10706 0
M  V30 1098 C 105.428 -0.445315 -5.89721 0
M  V30 1099 H 104.358 0.101205 -0.747177 0
M  V30 1100 H 107.009 -0.452866 -1.77824 0
M  V30 1101 H 105.391 1.28932 -3.74423 0
M  V30 1102 H 106.565 -1.50352 -4.35581 0
M  V30 1103 H 104.88 -1.20813 -3.98489 0
M  V30 1104 H 107.477 1.30022 -5.18651 0
M  V30 1105 H 107.82 2.0273 -3.63602 0
M  V30 1106 H 108.353 0.360034 -3.96167 0
M  V30 1107 H 105.092 -1.36883 -6.41049 0
M  V30 1108 H 104.612 0.291569 -5.99091 0
M  V30 1109 H 106.291 -0.0606218 -6.46972 0
M  V30 1110 N 106.423 1.57458 -0.0668435 0
M  V30 1111 C 107.834 1.80776 0.466558 0
M  V30 1112 C 108.185 0.980361 1.69951 0
M  V30 1113 O 107.31 0.201441 2.1546 0
M  V30 1114 C 107.905 3.27881 0.85321 0
M  V30 1115 C 106.464 3.52062 1.3315 0
M  V30 1116 C 105.611 2.75513 0.314264 0
M  V30 1117 H 108.562 1.5598 -0.292588 0
M  V30 1118 H 108.583 3.39659 1.715 0
M  V30 1119 H 108.095 3.88075 -0.0443439 0
M  V30 1120 H 106.196 2.97167 2.24772 0
M  V30 1121 H 106.309 4.60762 1.31285 0
M  V30 1122 H 104.673 2.42123 0.790492 0
M  V30 1123 H 105.456 3.38442 -0.575477 0
M  V30 1124 N 107.901 -0.206675 1.56239 0
M  V30 1125 C 108.864 -1.23976 1.92776 0
M  V30 1126 C 109.864 -1.39041 0.807729 0
M  V30 1127 O 111.054 -1.37051 1.0753 0
M  V30 1128 C 108.186 -2.61112 2.19165 0
M  V30 1129 H 109.379 -0.927764 2.85189 0
M  V30 1130 H 106.932 -0.447718 1.4975 0
M  V30 1131 H 107.667 -2.97386 1.29352 0
M  V30 1132 H 107.452 -2.51552 3.00772 0
M  V30 1133 H 108.942 -3.35633 2.48476 0
M  V30 1134 N 109.379 -1.50304 -0.473955 0
M  V30 1135 C 110.627 -1.60832 -1.22382 0
M  V30 1136 C 110.948 -0.30939 -1.9253 0
M  V30 1137 O 110.218 0.67296 -1.83978 0
M  V30 1138 H 108.798 -0.592652 -0.454723 0
M  V30 1139 H 111.46 -1.87068 -0.546968 0
M  V30 1140 H 110.556 -2.41803 -1.97327 0
M  V30 1141 N 110.857 0.726932 -1.39834 0
M  V30 1142 C 112.106 1.48214 -1.36805 0
M  V30 1143 C 112.419 1.95576 0.0305291 0
M  V30 1144 O 113.625 2.7088 0.183417 0
M  V30 1145 C 112.081 2.67854 -2.40379 0
M  V30 1146 C 111.689 2.27408 -3.85992 0
M  V30 1147 C 113.433 3.45641 -2.46439 0
M  V30 1148 C 111.34 3.43819 -4.81189 0
M  V30 1149 H 110.27 0.556606 -0.508631 0
M  V30 1150 H 112.921 0.792216 -1.65518 0
M  V30 1151 H 111.303 3.3896 -2.04749 0
M  V30 1152 H 112.477 1.63795 -4.30706 0
M  V30 1153 H 110.792 1.62692 -3.83302 0
M  V30 1154 H 113.389 4.32244 -3.14753 0
M  V30 1155 H 113.732 3.88669 -1.49139 0
M  V30 1156 H 114.265 2.8157 -2.81004 0
M  V30 1157 H 111.004 3.05834 -5.79781 0
M  V30 1158 H 110.524 4.06385 -4.41148 0
M  V30 1159 H 112.203 4.10043 -5.00474 0
M  V30 1160 N 112.336 1.25143 0.95797 0
M  V30 1161 C 113.566 1.12261 1.73439 0
M  V30 1162 C 113.974 -0.326715 1.86358 0
M  V30 1163 O 113.317 -1.2367 1.35836 0
M  V30 1164 C 113.379 1.69966 3.16784 0
M  V30 1165 C 113.043 3.18936 3.27305 0
M  V30 1166 C 114.04 4.15968 3.11877 0
M  V30 1167 C 111.725 3.59083 3.51234 0
M  V30 1168 C 113.719 5.51126 3.20217 0
M  V30 1169 C 111.406 4.9438 3.5921 0
M  V30 1170 C 112.404 5.90211 3.43716 0
M  V30 1171 O 112.092 7.23046 3.51368 0
M  V30 1172 H 111.824 0.392476 0.550399 0
M  V30 1173 H 114.378 1.65927 1.21068 0
M  V30 1174 H 112.608 1.10744 3.70503 0
M  V30 1175 H 114.297 1.52232 3.76272 0
M  V30 1176 H 115.063 3.86292 2.93264 0
M  V30 1177 H 110.942 2.84989 3.62356 0
M  V30 1178 H 114.486 6.25905 3.0804 0
M  V30 1179 H 110.383 5.23723 3.77339 0
M  V30 1180 H 111.151 7.31097 3.6802 0
M  V30 1181 N 113.814 -1.1601 1.06675 0
M  V30 1182 C 114.777 -2.18724 0.685001 0
M  V30 1183 C 115.777 -1.58496 -0.271246 0
M  V30 1184 O 116.967 -1.74119 -0.0531156 0
M  V30 1185 C 114.099 -3.40899 0.00853648 0
M  V30 1186 H 115.292 -2.54011 1.59431 0
M  V30 1187 H 112.845 -1.30352 0.862441 0
M  V30 1188 H 113.58 -3.11173 -0.913337 0
M  V30 1189 H 113.365 -3.8587 0.696204 0
M  V30 1190 H 114.855 -4.16886 -0.24414 0
M  V30 1191 N 115.292 -0.849877 -1.32721 0
M  V30 1192 C 116.703 -0.506188 -1.79707 0
M  V30 1193 C 117.054 0.975627 -1.70223 0
M  V30 1194 O 116.179 1.76078 -1.25799 0
M  V30 1195 C 116.774 -0.912044 -3.26293 0
M  V30 1196 C 115.333 -0.620326 -3.71253 0
M  V30 1197 C 114.48 -1.11439 -2.53922 0
M  V30 1198 H 117.431 -1.03754 -1.20087 0
M  V30 1199 H 117.452 -0.226493 -3.79825 0
M  V30 1200 H 116.964 -1.99057 -3.33164 0
M  V30 1201 H 115.065 0.447674 -3.69901 0
M  V30 1202 H 115.178 -1.18327 -4.64258 0
M  V30 1203 H 113.542 -0.534834 -2.49021 0
M  V30 1204 H 114.325 -2.19992 -2.6355 0
M  V30 1205 N 116.77 1.45427 -0.607355 0
M  V30 1206 C 118.019 2.01452 -0.100036 0
M  V30 1207 C 118.332 1.48159 1.27704 0
M  V30 1208 O 119.538 1.96159 1.87707 0
M  V30 1209 C 117.994 3.59672 -0.128158 0
M  V30 1210 C 117.602 4.21962 -1.50507 0
M  V30 1211 C 119.346 4.23262 0.323932 0
M  V30 1212 C 117.253 5.72333 -1.48959 0
M  V30 1213 H 116.183 0.75325 -0.0336299 0
M  V30 1214 H 118.834 1.66901 -0.76265 0
M  V30 1215 H 117.216 3.91411 0.601105 0
M  V30 1216 H 118.39 4.01796 -2.25602 0
M  V30 1217 H 116.705 3.70565 -1.89923 0
M  V30 1218 H 119.302 5.33522 0.354691 0
M  V30 1219 H 119.645 3.93921 1.34656 0
M  V30 1220 H 120.178 3.96239 -0.352056 0
M  V30 1221 H 116.917 6.06373 -2.48981 0
M  V30 1222 H 116.437 5.94691 -0.781214 0
M  V30 1223 H 118.116 6.35525 -1.21313 0
M  V30 1224 N 118.248 0.346503 1.53744 0
M  V30 1225 C 119.488 -0.249413 2.02873 0
M  V30 1226 C 119.852 -1.47532 1.22876 0
M  V30 1227 O 121.053 -2.1456 1.61918 0
M  V30 1228 C 119.324 -0.552909 3.53097 0
M  V30 1229 S 120.883 -1.12521 4.24128 0
M  V30 1230 H 117.701 -0.074042 0.707134 0
M  V30 1231 H 120.303 0.48495 1.8939 0
M  V30 1232 H 119.007 0.347083 4.0893 0
M  V30 1233 H 118.538 -1.31686 3.70705 0
M  V30 1234 H 120.553 -2.41075 4.33702 0
M  V30 1235 N 119.726 -1.57421 0.075193 0
M  V30 1236 C 120.972 -1.93905 -0.594025 0
M  V30 1237 C 121.305 -0.955701 -1.69056 0
M  V30 1238 O 120.58 0.0145373 -1.94495 0
M  V30 1239 C 120.863 -3.40638 -1.1678 0
M  V30 1240 C 120.716 -4.49733 -0.0776792 0
M  V30 1241 C 122.035 -3.88259 -2.07228 0
M  V30 1242 H 119.154 -0.705105 -0.214466 0
M  V30 1243 H 121.796 -1.8947 0.141854 0
M  V30 1244 H 119.946 -3.44549 -1.79494 0
M  V30 1245 H 121.618 -4.57942 0.555573 0
M  V30 1246 H 119.861 -4.29751 0.591286 0
M  V30 1247 H 120.532 -5.49549 -0.519603 0
M  V30 1248 H 123.008 -3.86376 -1.54445 0
M  V30 1249 H 121.884 -4.91533 -2.44308 0
M  V30 1250 H 122.145 -3.26396 -2.98191 0
M  V30 1251 N 121.204 0.198386 -1.56346 0
M  V30 1252 C 122.432 0.935572 -1.84539 0
M  V30 1253 C 122.847 1.76989 -0.657281 0
M  V30 1254 O 122.204 1.78626 0.374043 0
M  V30 1255 C 122.255 1.8344 -3.11499 0
M  V30 1256 O 121.976 1.03377 -4.25728 0
M  V30 1257 C 123.477 2.68355 -3.52846 0
M  V30 1258 H 120.697 0.273126 -0.612897 0
M  V30 1259 H 123.241 0.20663 -2.03453 0
M  V30 1260 H 121.396 2.51701 -2.94492 0
M  V30 1261 H 121.81 1.64599 -4.98003 0
M  V30 1262 H 123.284 3.27085 -4.44657 0
M  V30 1263 H 123.761 3.41901 -2.75681 0
M  V30 1264 H 124.367 2.05471 -3.72373 0
M  V30 1265 N 122.682 1.50554 0.465978 0
M  V30 1266 C 123.928 1.62038 1.21949 0
M  V30 1267 C 124.261 0.322116 1.9151 0
M  V30 1268 O 123.536 -0.676723 1.82348 0
M  V30 1269 C 123.819 2.80421 2.25912 0
M  V30 1270 C 123.672 4.20144 1.60622 0
M  V30 1271 C 124.991 2.94354 3.27176 0
M  V30 1272 H 122.11 0.589752 0.441998 0
M  V30 1273 H 124.752 1.82956 0.51257 0
M  V30 1274 H 122.902 2.62717 2.86203 0
M  V30 1275 H 124.574 4.49449 1.03889 0
M  V30 1276 H 122.817 4.24165 0.909211 0
M  V30 1277 H 123.488 4.98914 2.36196 0
M  V30 1278 H 125.964 3.10578 2.76913 0
M  V30 1279 H 124.84 3.788 3.97242 0
M  V30 1280 H 125.101 2.05186 3.916 0
M  V30 1281 N 124.16 -0.719506 1.40217 0
M  V30 1282 C 125.406 -1.48034 1.39491 0
M  V30 1283 C 125.761 -1.92399 -0.00443536 0
M  V30 1284 O 125.054 -1.64993 -0.974061 0
M  V30 1285 C 125.248 -2.72271 2.31524 0
M  V30 1286 C 125.077 -2.40055 3.80268 0
M  V30 1287 C 123.847 -2.31588 4.49105 0
M  V30 1288 C 126.045 -2.04581 4.71859 0
M  V30 1289 N 124.027 -1.92006 5.83101 0
M  V30 1290 C 125.398 -1.75568 5.94623 0
M  V30 1291 C 127.453 -1.91183 4.59732 0
M  V30 1292 C 126.156 -1.34505 7.06612 0
M  V30 1293 C 128.182 -1.51524 5.71659 0
M  V30 1294 C 127.544 -1.23406 6.93506 0
M  V30 1295 H 123.643 -0.539927 0.565688 0
M  V30 1296 H 126.227 -0.834764 1.75897 0
M  V30 1297 H 124.398 -3.34584 1.97251 0
M  V30 1298 H 126.13 -3.38584 2.21682 0
M  V30 1299 H 122.885 -2.49199 4.02737 0
M  V30 1300 H 123.309 -1.74764 6.54054 0
M  V30 1301 H 127.951 -2.11584 3.66049 0
M  V30 1302 H 125.669 -1.12846 8.00182 0
M  V30 1303 H 129.255 -1.41741 5.6427 0
M  V30 1304 H 128.135 -0.931788 7.78645 0
M  V30 1305 N 125.638 -1.25649 -0.95132 0
M  V30 1306 C 126.868 -1.13179 -1.72841 0
M  V30 1307 C 127.276 0.316827 -1.86528 0
M  V30 1308 O 126.619 1.22948 -1.3649 0
M  V30 1309 C 126.681 -1.71644 -3.15878 0
M  V30 1310 C 126.345 -3.20667 -3.25609 0
M  V30 1311 C 127.342 -4.17616 -3.09666 0
M  V30 1312 C 125.027 -3.6094 -3.49324 0
M  V30 1313 C 127.021 -5.52817 -3.17289 0
M  V30 1314 C 124.708 -4.96278 -3.56584 0
M  V30 1315 C 125.706 -5.92025 -3.40581 0
M  V30 1316 O 125.394 -7.24899 -3.47528 0
M  V30 1317 H 125.126 -0.395389 -0.54831 0
M  V30 1318 H 127.68 -1.66566 -1.20187 0
M  V30 1319 H 125.91 -1.12707 -3.69911 0
M  V30 1320 H 127.599 -1.54225 -3.75459 0
M  V30 1321 H 128.365 -3.87842 -2.91211 0
M  V30 1322 H 124.244 -2.86907 -3.6084 0
M  V30 1323 H 127.788 -6.2753 -3.04716 0
M  V30 1324 H 123.685 -5.25716 -3.74556 0
M  V30 1325 H 124.453 -7.33039 -3.64138 0
M  V30 1326 N 127.117 1.15442 -1.07289 0
M  V30 1327 C 128.528 1.67803 -0.818475 0
M  V30 1328 C 128.879 1.8489 0.656507 0
M  V30 1329 O 128.004 1.55176 1.50829 0
M  V30 1330 C 128.599 3.04805 -1.47917 0
M  V30 1331 C 127.158 3.54245 -1.27229 0
M  V30 1332 C 126.305 2.29986 -1.54925 0
M  V30 1333 H 129.256 0.996646 -1.23502 0
M  V30 1334 H 129.277 3.69702 -0.90005 0
M  V30 1335 H 128.789 2.92336 -2.55267 0
M  V30 1336 H 126.89 3.71956 -0.21899 0
M  V30 1337 H 127.003 4.35723 -1.99203 0
M  V30 1338 H 125.367 2.35496 -0.970242 0
M  V30 1339 H 126.15 2.20105 -2.63455 0
M  V30 1340 N 128.595 0.856903 1.32268 0
M  V30 1341 C 129.525 0.31858 2.31316 0
M  V30 1342 C 130.506 -0.583487 1.59779 0
M  V30 1343 O 131.691 -0.503259 1.87566 0
M  V30 1344 C 128.821 -0.491979 3.43798 0
M  V30 1345 C 127.775 0.315849 4.26833 0
M  V30 1346 C 127.101 -0.619586 5.31098 0
M  V30 1347 C 128.401 1.54282 4.98993 0
M  V30 1348 H 130.095 1.14621 2.76591 0
M  V30 1349 H 127.641 0.552613 1.32974 0
M  V30 1350 H 129.594 -0.879012 4.1213 0
M  V30 1351 H 128.318 -1.35299 2.97257 0
M  V30 1352 H 126.977 0.684664 3.6015 0
M  V30 1353 H 126.625 -1.47751 4.8081 0
M  V30 1354 H 126.325 -0.0830621 5.87541 0
M  V30 1355 H 127.849 -1.00375 6.02293 0
M  V30 1356 H 129.263 1.22796 5.59995 0
M  V30 1357 H 127.66 2.01745 5.65172 0
M  V30 1358 H 128.73 2.30285 4.26728 0
M  V30 1359 N 130.073 -1.45103 0.615059 0
M  V30 1360 C 131.319 -2.03035 0.121804 0
M  V30 1361 C 131.674 -1.47393 -1.23665 0
M  V30 1362 O 130.967 -0.642061 -1.80522 0
M  V30 1363 C 131.161 -3.57386 0.0318797 0
M  V30 1364 C 130.99 -4.28 1.38007 0
M  V30 1365 C 129.76 -4.65624 1.9627 0
M  V30 1366 C 131.958 -4.5948 2.31047 0
M  V30 1367 N 129.94 -5.21132 3.24492 0
M  V30 1368 C 131.311 -5.159 3.43872 0
M  V30 1369 C 133.366 -4.41423 2.30326 0
M  V30 1370 C 132.069 -5.56165 4.5615 0
M  V30 1371 C 134.095 -4.82726 3.41658 0
M  V30 1372 C 133.457 -5.39245 4.53205 0
M  V30 1373 H 129.556 -0.77702 0.0881159 0
M  V30 1374 H 132.14 -1.76819 0.815044 0
M  V30 1375 H 130.311 -3.83247 -0.630599 0
M  V30 1376 H 132.043 -4.01976 -0.468721 0
M  V30 1377 H 128.798 -4.49421 1.49392 0
M  V30 1378 H 129.222 -5.53377 3.90004 0
M  V30 1379 H 133.864 -3.97033 1.45343 0
M  V30 1380 H 131.582 -5.99517 5.41854 0
M  V30 1381 H 135.168 -4.7048 3.42257 0
M  V30 1382 H 134.048 -5.70616 5.37929 0
M  V30 1383 N 131.551 -0.354651 -1.53558 0
M  V30 1384 C 132.799 0.237972 -2.00694 0
M  V30 1385 C 133.12 1.50173 -1.24391 0
M  V30 1386 O 132.39 1.92673 -0.354135 0
M  V30 1387 H 130.97 0.0909256 -0.741446 0
M  V30 1388 H 133.632 -0.478368 -1.88938 0
M  V30 1389 H 132.728 0.47264 -3.085 0
M  V30 1390 N 133.029 1.57378 -0.0835403 0
M  V30 1391 C 134.277 1.93547 0.581718 0
M  V30 1392 C 134.598 0.96524 1.69435 0
M  V30 1393 O 133.868 0.0153369 1.95894 0
M  V30 1394 H 132.448 0.714521 0.217874 0
M  V30 1395 H 135.11 1.94366 -0.144158 0
M  V30 1396 H 134.206 2.95665 0.999423 0
M  V30 1397 N 134.507 -0.190092 1.56449 0
M  V30 1398 C 135.756 -0.907912 1.80111 0
M  V30 1399 C 136.069 -1.84214 0.657619 0
M  V30 1400 O 137.275 -2.60094 0.778663 0
M  V30 1401 C 135.731 -1.66485 3.19078 0
M  V30 1402 C 135.339 -0.7752 4.41242 0
M  V30 1403 C 137.083 -2.37201 3.52045 0
M  V30 1404 C 134.99 -1.53129 5.71231 0
M  V30 1405 H 133.92 -0.34276 0.671589 0
M  V30 1406 H 136.571 -0.161109 1.82791 0
M  V30 1407 H 134.953 -2.45572 3.10661 0
M  V30 1408 H 136.127 -0.0226298 4.60794 0
M  V30 1409 H 134.442 -0.178627 4.16017 0
M  V30 1410 H 137.039 -2.94329 4.46402 0
M  V30 1411 H 137.382 -3.11632 2.76028 0
M  V30 1412 H 137.915 -1.65075 3.61932 0
M  V30 1413 H 134.654 -0.82967 6.50228 0
M  V30 1414 H 134.174 -2.25767 5.55688 0
M  V30 1415 H 135.853 -2.08377 6.12526 0
M  V30 1416 N 135.985 -1.50799 -0.457987 0
M  V30 1417 C 136.918 -1.65273 -1.57353 0
M  V30 1418 C 137.896 -0.500578 -1.54703 0
M  V30 1419 O 139.08 -0.721781 -1.74134 0
M  V30 1420 C 136.207 -1.64737 -2.95938 0
M  V30 1421 C 135.253 -2.8567 -3.16693 0
M  V30 1422 S 136.086 -4.46791 -2.95191 0
M  V30 1423 C 137.242 -4.48968 -4.36095 0
M  V30 1424 H 137.475 -2.59633 -1.44838 0
M  V30 1425 H 135.008 -1.40225 -0.64625 0
M  V30 1426 H 136.966 -1.65112 -3.7583 0
M  V30 1427 H 135.627 -0.715899 -3.05833 0
M  V30 1428 H 134.82 -2.81637 -4.17967 0
M  V30 1429 H 134.422 -2.8293 -2.44594 0
M  V30 1430 H 136.714 -4.23337 -5.28954 0
M  V30 1431 H 137.657 -5.50664 -4.45168 0
M  V30 1432 H 138.065 -3.78522 -4.18786 0
M  V30 1433 N 137.463 0.71206 -1.40597 0
M  V30 1434 C 138.693 1.49894 -1.42181 0
M  V30 1435 C 139.101 1.89189 -0.0208078 0
M  V30 1436 O 138.444 1.56223 0.966436 0
M  V30 1437 C 138.506 2.80215 -2.25211 0
M  V30 1438 C 138.17 2.63221 -3.73582 0
M  V30 1439 C 139.167 2.30249 -4.66135 0
M  V30 1440 C 136.852 2.79376 -4.17438 0
M  V30 1441 C 138.846 2.13645 -6.00529 0
M  V30 1442 C 136.533 2.6239 -5.51901 0
M  V30 1443 C 137.531 2.29573 -6.43262 0
M  V30 1444 O 137.219 2.12719 -7.75246 0
M  V30 1445 H 136.951 0.469031 -0.486812 0
M  V30 1446 H 139.505 0.88564 -1.85326 0
M  V30 1447 H 137.735 3.4389 -1.76852 0
M  V30 1448 H 139.424 3.41947 -2.18694 0
M  V30 1449 H 140.19 2.17398 -4.33547 0
M  V30 1450 H 136.069 3.03906 -3.46644 0
M  V30 1451 H 139.613 1.87953 -6.71803 0
M  V30 1452 H 135.51 2.74826 -5.84073 0
M  V30 1453 H 136.278 2.27611 -7.86216 0
M  V30 1454 N 138.941 1.26152 0.944643 0
M  V30 1455 C 140.19 1.10883 1.68487 0
M  V30 1456 C 140.503 -0.348153 1.92477 0
M  V30 1457 O 141.709 -0.621459 2.64292 0
M  V30 1458 C 140.165 1.93624 3.03377 0
M  V30 1459 C 139.773 3.43875 2.87148 0
M  V30 1460 C 141.517 1.86954 3.81115 0
M  V30 1461 C 139.424 4.18875 4.1749 0
M  V30 1462 H 138.354 0.41135 0.631907 0
M  V30 1463 H 141.005 1.50433 1.05082 0
M  V30 1464 H 139.387 1.46904 3.67743 0
M  V30 1465 H 140.561 3.98338 2.31653 0
M  V30 1466 H 138.876 3.51744 2.22856 0
M  V30 1467 H 141.473 2.40275 4.77673 0
M  V30 1468 H 141.816 0.839518 4.07747 0
M  V30 1469 H 142.349 2.31477 3.23517 0
M  V30 1470 H 139.088 5.22332 3.96043 0
M  V30 1471 H 138.608 3.69193 4.72712 0
M  V30 1472 H 140.287 4.27134 4.85968 0
M  V30 1473 N 140.419 -1.14872 1.07899 0
M  V30 1474 C 141.668 -1.85135 0.800499 0
M  V30 1475 C 141.981 -1.83547 -0.676014 0
M  V30 1476 O 143.187 -2.49548 -1.06948 0
M  V30 1477 C 141.643 -3.3231 1.38197 0
M  V30 1478 C 141.251 -3.42329 2.8899 0
M  V30 1479 C 142.995 -4.0772 1.18174 0
M  V30 1480 C 140.902 -4.83684 3.403 0
M  V30 1481 H 139.832 -0.693563 0.29578 0
M  V30 1482 H 142.483 -1.29532 1.29976 0
M  V30 1483 H 140.865 -3.87618 0.810431 0
M  V30 1484 H 142.039 -2.97097 3.52236 0
M  V30 1485 H 140.354 -2.80369 3.07867 0
M  V30 1486 H 142.951 -5.12049 1.5398 0
M  V30 1487 H 143.294 -4.16124 0.12117 0
M  V30 1488 H 143.827 -3.58696 1.71994 0
M  V30 1489 H 140.566 -4.80465 4.45907 0
M  V30 1490 H 140.086 -5.29474 2.81811 0
M  V30 1491 H 141.765 -5.52558 3.36584 0
M  V30 1492 N 141.898 -0.863906 -1.31812 0
M  V30 1493 C 143.123 -0.48527 -2.01643 0
M  V30 1494 C 143.548 0.913058 -1.64453 0
M  V30 1495 O 142.906 1.6014 -0.849985 0
M  V30 1496 C 142.954 -0.642625 -3.54828 0
M  V30 1497 O 142.058 0.320659 -4.11151 0
M  V30 1498 H 141.399 -0.193793 -0.635091 0
M  V30 1499 H 143.929 -1.16565 -1.68148 0
M  V30 1500 H 143.939 -0.533628 -4.04495 0
M  V30 1501 H 142.614 -1.66227 -3.81237 0
M  V30 1502 H 141.191 0.167126 -3.72525 0
M  V30 1503 N 143.376 1.44774 -0.622745 0
M  V30 1504 C 144.624 2.01721 -0.123655 0
M  V30 1505 C 144.945 1.49172 1.25589 0
M  V30 1506 O 144.215 0.691974 1.83272 0
M  V30 1507 H 142.795 0.745777 -0.0427225 0
M  V30 1508 H 145.457 1.77382 -0.807559 0
M  V30 1509 H 144.553 3.11984 -0.0849534 0
M  V30 1510 N 144.854 0.36279 1.53368 0
M  V30 1511 C 146.079 -0.231226 2.06107 0
M  V30 1512 C 146.504 -1.419 1.23474 0
M  V30 1513 O 145.862 -1.79524 0.253128 0
M  V30 1514 C 145.91 -0.605523 3.5548 0
M  V30 1515 O 145.014 -1.70312 3.7559 0
M  V30 1516 H 144.355 -0.034327 0.663112 0
M  V30 1517 H 146.885 0.522584 1.97814 0
M  V30 1518 H 146.895 -0.877314 3.98456 0
M  V30 1519 H 145.57 0.263004 4.15068 0
M  V30 1520 H 144.147 -1.4271 3.44512 0
M  V30 1521 N 146.332 -1.57332 0.0918853 0
M  V30 1522 C 147.262 -2.16872 -0.865371 0
M  V30 1523 C 148.243 -1.10118 -1.29646 0
M  V30 1524 O 149.428 -1.38242 -1.36392 0
M  V30 1525 C 146.558 -2.74649 -2.12569 0
M  V30 1526 C 145.512 -3.86747 -1.83333 0
M  V30 1527 C 144.838 -4.31212 -3.16166 0
M  V30 1528 C 146.138 -5.10089 -1.1228 0
M  V30 1529 H 147.832 -2.97114 -0.369307 0
M  V30 1530 H 145.378 -1.42918 -0.176194 0
M  V30 1531 H 147.331 -3.14952 -2.7997 0
M  V30 1532 H 146.055 -1.91657 -2.64452 0
M  V30 1533 H 144.714 -3.46978 -1.18331 0
M  V30 1534 H 144.362 -3.45115 -3.6593 0
M  V30 1535 H 144.062 -5.06788 -2.97388 0
M  V30 1536 H 145.586 -4.74146 -3.84731 0
M  V30 1537 H 147 -5.47582 -1.69785 0
M  V30 1538 H 145.397 -5.91073 -1.03693 0
M  V30 1539 H 146.467 -4.84786 -0.105041 0
M  V30 1540 N 147.81 0.181792 -1.56548 0
M  V30 1541 C 148.74 1.22765 -1.98623 0
M  V30 1542 C 149.721 1.46747 -0.860189 0
M  V30 1543 O 150.906 1.58259 -1.12551 0
M  V30 1544 C 148.036 2.56894 -2.33715 0
M  V30 1545 C 146.99 2.475 -3.49182 0
M  V30 1546 C 146.316 3.86023 -3.69986 0
M  V30 1547 C 147.616 1.98866 -4.82959 0
M  V30 1548 H 149.31 0.877942 -2.86239 0
M  V30 1549 H 146.856 0.42088 -1.37712 0
M  V30 1550 H 148.809 3.30253 -2.61746 0
M  V30 1551 H 147.533 2.93632 -1.42997 0
M  V30 1552 H 146.192 1.76596 -3.21262 0
M  V30 1553 H 145.84 4.20136 -2.76576 0
M  V30 1554 H 145.54 3.80609 -4.47672 0
M  V30 1555 H 147.064 4.60984 -4.00407 0
M  V30 1556 H 148.478 2.61992 -5.09934 0
M  V30 1557 H 146.875 2.04424 -5.64208 0
M  V30 1558 H 147.945 0.942465 -4.75653 0
M  V30 1559 N 149.288 1.51039 0.449983 0
M  V30 1560 C 150.251 1.70863 1.5277 0
M  V30 1561 C 151.251 0.578846 1.5002 0
M  V30 1562 O 152.441 0.846213 1.52266 0
M  V30 1563 C 149.573 1.75341 2.9235 0
M  V30 1564 H 150.766 2.67034 1.36502 0
M  V30 1565 H 148.319 1.40838 0.677812 0
M  V30 1566 H 149.054 0.809383 3.14037 0
M  V30 1567 H 148.839 2.57436 2.95752 0
M  V30 1568 H 150.329 1.92559 3.70555 0
M  V30 1569 N 150.766 -0.704594 1.40972 0
M  V30 1570 C 151.729 -1.80035 1.41845 0
M  V30 1571 C 152.729 -1.57774 0.310474 0
M  V30 1572 O 153.919 -1.64613 0.56992 0
M  V30 1573 C 151.051 -3.18284 1.22098 0
M  V30 1574 H 152.244 -1.80658 2.3938 0
M  V30 1575 H 149.797 -0.911329 1.26982 0
M  V30 1576 H 150.532 -3.23306 0.253672 0
M  V30 1577 H 150.317 -3.35843 2.02366 0
M  V30 1578 H 151.807 -3.98289 1.25522 0
M  V30 1579 N 152.244 -1.26651 -0.937939 0
M  V30 1580 C 153.472 -1.15173 -1.7188 0
M  V30 1581 C 153.887 0.292668 -1.86518 0
M  V30 1582 O 153.244 1.20014 -1.37488 0
M  V30 1583 C 153.295 -1.81925 -3.12387 0
M  V30 1584 O 153.016 -3.2072 -2.98446 0
M  V30 1585 C 154.517 -1.76442 -4.06673 0
M  V30 1586 H 151.737 -0.400911 -0.538063 0
M  V30 1587 H 154.281 -1.67332 -1.1756 0
M  V30 1588 H 152.436 -1.33696 -3.63599 0
M  V30 1589 H 152.85 -3.53802 -3.872 0
M  V30 1590 H 154.324 -2.27781 -5.02812 0
M  V30 1591 H 154.801 -0.731608 -4.33064 0
M  V30 1592 H 155.407 -2.24238 -3.61382 0
M  V30 1593 N 153.722 1.14298 -1.08507 0
M  V30 1594 C 154.632 2.23027 -0.727753 0
M  V30 1595 C 155.648 1.71952 0.26619 0
M  V30 1596 O 156.824 2.011 0.109882 0
M  V30 1597 C 153.889 3.46403 -0.143541 0
M  V30 1598 C 152.95 4.12413 -1.19223 0
M  V30 1599 C 152.183 5.29899 -0.635798 0
M  V30 1600 O 152.406 5.67796 0.544393 0
M  V30 1601 O 151.34 5.85717 -1.38634 0
M  V30 1602 H 155.166 2.55945 -1.63481 0
M  V30 1603 H 152.751 1.22248 -0.858817 0
M  V30 1604 H 154.633 4.21018 0.179404 0
M  V30 1605 H 153.308 3.15206 0.736659 0
M  V30 1606 H 152.215 3.39667 -1.56772 0
M  V30 1607 H 153.548 4.47718 -2.04474 0
M  V30 1608 N 155.201 0.870884 1.31352 0
M  V30 1609 C 156.148 0.325425 2.28494 0
M  V30 1610 C 157.118 -0.576615 1.5577 0
M  V30 1611 O 158.303 -0.508059 1.83911 0
M  V30 1612 C 155.443 -0.466283 3.41935 0
M  V30 1613 C 154.556 0.463378 4.29508 0
M  V30 1614 C 153.691 -0.342544 5.30094 0
M  V30 1615 C 152.73 0.583486 6.09313 0
M  V30 1616 N 151.867 -0.186244 7.01853 0
M  V30 1617 H 156.707 1.15901 2.74538 0
M  V30 1618 H 154.244 0.58294 1.35056 0
M  V30 1619 H 156.202 -0.941085 4.06447 0
M  V30 1620 H 154.832 -1.26456 2.97 0
M  V30 1621 H 153.884 1.05663 3.65431 0
M  V30 1622 H 155.196 1.1734 4.84802 0
M  V30 1623 H 154.35 -0.879816 6.00287 0
M  V30 1624 H 153.089 -1.08585 4.75458 0
M  V30 1625 H 152.094 1.13251 5.3801 0
M  V30 1626 H 153.319 1.32566 6.66035 0
M  V30 1627 H 151.265 -0.912348 6.49625 0
M  V30 1628 H 151.182 0.464422 7.54572 0
M  V30 1629 H 152.45 -0.704716 7.76308 0
M  V30 1630 N 156.679 -1.44442 0.630414 0
M  V30 1631 C 157.627 -2.32437 -0.0871428 0
M  V30 1632 C 158.621 -1.47304 -0.836525 0
M  V30 1633 O 159.827 -1.63653 -0.749506 0
M  V30 1634 H 156.202 -0.750533 -0.0469495 0
M  V30 1635 H 158.173 -2.90709 0.673096 0
M  V30 1636 C 156.922 -3.31288 -1.05563 0
M  V30 1637 H 156.245 -3.96805 -0.488426 0
M  V30 1638 H 157.685 -3.9554 -1.52721 0
M  V30 1639 C 156.144 -2.6016 -2.14052 0
M  V30 1640 O 156.674 -2.39997 -3.22124 0
M  V30 1641 N 154.88 -2.19911 -1.89967 0
M  V30 1642 H 154.427 -2.36509 -1.02085 0
M  V30 1643 H 154.385 -1.72646 -2.62756 0
M  V30 1644 N 158.157 -0.370918 -1.53173 0
M  V30 1645 C 159.382 0.220293 -2.06227 0
M  V30 1646 C 159.807 1.41243 -1.24225 0
M  V30 1647 O 159.165 1.79387 -0.262645 0
M  V30 1648 C 159.213 0.586663 -3.55796 0
M  V30 1649 O 158.317 1.68317 -3.76488 0
M  V30 1650 H 157.658 0.0308099 -0.663285 0
M  V30 1651 H 160.188 -0.533068 -1.97534 0
M  V30 1652 H 160.198 0.85617 -3.98916 0
M  V30 1653 H 158.873 -0.285013 -4.14922 0
M  V30 1654 H 157.45 1.40881 -3.45264 0
M  V30 1655 N 159.635 1.57281 -0.100228 0
M  V30 1656 C 161.051 1.57527 0.256416 0
M  V30 1657 C 161.251 1.11173 1.68056 0
M  V30 1658 O 160.307 0.79053 2.39806 0
M  V30 1659 C 161.62 3.00673 0.0401747 0
M  V30 1660 C 163.168 3.12815 0.107528 0
M  V30 1661 C 163.643 4.57929 -0.0807834 0
M  V30 1662 N 165.134 4.63193 -0.0261207 0
M  V30 1663 C 165.869 5.73212 -0.146999 0
M  V30 1664 N 165.365 6.92047 -0.322999 0
M  V30 1665 N 167.158 5.62031 -0.0879044 0
M  V30 1666 H 159.309 1.85718 -1.03065 0
M  V30 1667 H 161.572 0.857446 -0.404339 0
M  V30 1668 H 161.278 3.38804 -0.943649 0
M  V30 1669 H 161.152 3.69042 0.780262 0
M  V30 1670 H 163.539 2.74554 1.08186 0
M  V30 1671 H 163.62 2.47028 -0.664134 0
M  V30 1672 H 163.264 4.96886 -1.05201 0
M  V30 1673 H 163.194 5.21783 0.710635 0
M  V30 1674 H 165.685 3.77748 0.107161 0
M  V30 1675 H 165.998 7.7173 -0.406608 0
M  V30 1676 H 164.343 6.94074 -0.358733 0
M  V30 1677 H 167.534 4.68075 0.048498 0
M  V30 1678 H 167.707 6.47734 -0.185557 0
M  V30 1679 N 161.113 -0.173488 1.56642 0
M  V30 1680 C 162.06 -1.21482 1.96242 0
M  V30 1681 C 163.03 -1.44104 0.826027 0
M  V30 1682 O 164.215 -1.5688 1.08597 0
M  V30 1683 C 161.355 -2.54964 2.32567 0
M  V30 1684 C 160.468 -2.39739 3.59373 0
M  V30 1685 C 159.603 -3.66072 3.84921 0
M  V30 1686 C 158.642 -3.45771 5.05083 0
M  V30 1687 N 157.779 -4.64169 5.26775 0
M  V30 1688 H 162.619 -0.870123 2.85014 0
M  V30 1689 H 160.156 -0.418245 1.41029 0
M  V30 1690 H 162.114 -3.32758 2.5165 0
M  V30 1691 H 160.744 -2.87433 1.46908 0
M  V30 1692 H 159.796 -1.53131 3.48217 0
M  V30 1693 H 161.108 -2.20683 4.47326 0
M  V30 1694 H 160.262 -4.52303 4.0436 0
M  V30 1695 H 159.001 -3.88105 2.9534 0
M  V30 1696 H 158.006 -2.57927 4.85545 0
M  V30 1697 H 159.231 -3.25163 5.96193 0
M  V30 1698 H 157.177 -4.86425 4.40144 0
M  V30 1699 H 157.094 -4.48019 6.08946 0
M  V30 1700 H 158.362 -5.51689 5.5069 0
M  V30 1701 N 162.591 -1.51276 -0.441967 0
M  V30 1702 C 163.831 -1.65372 -1.20132 0
M  V30 1703 C 164.195 -0.359871 -1.88597 0
M  V30 1704 O 165.396 -0.376551 -2.66149 0
M  V30 1705 C 163.667 -2.8207 -2.1948 0
M  V30 1706 S 165.226 -3.16467 -3.03964 0
M  V30 1707 H 162.044 -0.582669 -0.407453 0
M  V30 1708 H 164.646 -1.89166 -0.493609 0
M  V30 1709 H 163.35 -3.74523 -1.67812 0
M  V30 1710 H 162.881 -2.6045 -2.94838 0
M  V30 1711 H 164.896 -2.62543 -4.21053 0
M  V30 1712 N 164.069 0.697108 -1.41344 0
M  V30 1713 C 164.999 1.82353 -1.45841 0
M  V30 1714 C 165.98 1.67115 -0.317247 0
M  V30 1715 O 167.165 1.86871 -0.528474 0
M  V30 1716 C 164.295 3.20476 -1.33838 0
M  V30 1717 C 163.249 3.50415 -2.4575 0
M  V30 1718 C 162.575 4.87878 -2.18813 0
M  V30 1719 C 163.875 3.49546 -3.88091 0
M  V30 1720 H 165.569 1.78846 -2.40113 0
M  V30 1721 H 163.115 0.859028 -1.15571 0
M  V30 1722 H 165.068 3.98988 -1.35596 0
M  V30 1723 H 163.792 3.24604 -0.360498 0
M  V30 1724 H 162.451 2.74253 -2.43271 0
M  V30 1725 H 162.099 4.8863 -1.19371 0
M  V30 1726 H 161.799 5.08875 -2.93803 0
M  V30 1727 H 163.323 5.68702 -2.22284 0
M  V30 1728 H 164.737 4.18066 -3.92293 0
M  V30 1729 H 163.134 3.82075 -4.62751 0
M  V30 1730 H 164.204 2.48552 -4.16353 0
M  V30 1731 N 165.547 1.27147 0.931209 0
M  V30 1732 C 166.793 1.13446 1.68101 0
M  V30 1733 C 167.126 -0.319628 1.91552 0
M  V30 1734 O 166.401 -1.23407 1.50336 0
M  V30 1735 C 166.684 1.91482 3.0497 0
M  V30 1736 C 166.537 3.44855 2.88782 0
M  V30 1737 C 167.856 1.71651 4.05246 0
M  V30 1738 H 164.975 0.413498 0.610072 0
M  V30 1739 H 167.617 1.56261 1.08086 0
M  V30 1740 H 165.767 1.55095 3.56199 0
M  V30 1741 H 167.439 3.9105 2.44698 0
M  V30 1742 H 165.682 3.71373 2.24198 0
M  V30 1743 H 166.353 3.94694 3.85902 0
M  V30 1744 H 168.829 2.0337 3.63015 0
M  V30 1745 H 167.705 2.28651 4.99009 0
M  V30 1746 H 167.966 0.663555 4.37092 0
M  V30 1747 N 167.025 -1.13721 1.09112 0
M  V30 1748 C 167.972 -2.19031 0.727591 0
M  V30 1749 C 168.942 -1.63555 -0.289656 0
M  V30 1750 O 170.127 -1.90023 -0.172026 0
M  V30 1751 C 167.267 -3.4477 0.15082 0
M  V30 1752 C 166.38 -4.14365 1.22172 0
M  V30 1753 C 165.515 -5.27709 0.608042 0
M  V30 1754 C 164.554 -5.89147 1.66047 0
M  V30 1755 N 163.691 -6.93929 1.06806 0
M  V30 1756 H 168.531 -2.49475 1.62991 0
M  V30 1757 H 166.068 -1.22499 0.81439 0
M  V30 1758 H 168.026 -4.16714 -0.201358 0
M  V30 1759 H 166.656 -3.14787 -0.714783 0
M  V30 1760 H 165.708 -3.40737 1.69122 0
M  V30 1761 H 167.02 -4.56114 2.01895 0
M  V30 1762 H 166.174 -6.06355 0.204523 0
M  V30 1763 H 164.913 -4.872 -0.220769 0
M  V30 1764 H 163.918 -5.09198 2.07357 0
M  V30 1765 H 165.143 -6.31729 2.49189 0
M  V30 1766 H 163.089 -6.55483 0.260476 0
M  V30 1767 H 163.006 -7.34202 1.8023 0
M  V30 1768 H 164.274 -7.76434 0.690644 0
M  V30 1769 N 168.503 -0.877838 -1.30888 0
M  V30 1770 C 169.751 -0.491723 -1.96027 0
M  V30 1771 C 170.072 0.960827 -1.69685 0
M  V30 1772 O 169.342 1.67462 -1.01654 0
M  V30 1773 H 167.922 -0.17885 -0.725273 0
M  V30 1774 H 170.584 -1.11935 -1.59551 0
M  V30 1775 H 169.68 -0.656016 -3.05128 0
M  V30 1776 N 169.982 1.44106 -0.638065 0
M  V30 1777 C 170.929 2.30715 0.062701 0
M  V30 1778 C 171.899 1.43882 0.829883 0
M  V30 1779 O 173.084 1.72775 0.809532 0
M  V30 1780 C 170.224 3.29258 1.03358 0
M  V30 1781 C 169.337 4.31192 0.26409 0
M  V30 1782 C 168.472 5.16825 1.22741 0
M  V30 1783 C 167.511 6.10462 0.447475 0
M  V30 1784 N 166.648 6.8877 1.36161 0
M  V30 1785 H 171.488 2.90096 -0.681781 0
M  V30 1786 H 169.025 1.42925 -0.347988 0
M  V30 1787 H 170.983 3.84886 1.60992 0
M  V30 1788 H 169.613 2.71562 1.74511 0
M  V30 1789 H 168.665 3.77981 -0.428295 0
M  V30 1790 H 169.977 4.97619 -0.343052 0
M  V30 1791 H 169.131 5.77004 1.87487 0
M  V30 1792 H 167.87 4.50488 1.86847 0
M  V30 1793 H 166.875 5.49386 -0.213433 0
M  V30 1794 H 168.1 6.78837 -0.188968 0
M  V30 1795 H 166.046 6.25096 1.98975 0
M  V30 1796 H 165.963 7.51663 0.808656 0
M  V30 1797 H 167.231 7.53467 1.99769 0
M  V30 1798 N 171.46 0.379036 1.52974 0
M  V30 1799 C 172.393 -0.504932 2.22544 0
M  V30 1800 C 173.371 -1.0723 1.22231 0
M  V30 1801 O 174.555 -1.12589 1.51182 0
M  V30 1802 C 171.682 -1.69794 2.93066 0
M  V30 1803 C 170.728 -1.25678 4.07563 0
M  V30 1804 S 171.561 -0.246852 5.34931 0
M  V30 1805 C 172.717 -1.44588 6.08971 0
M  V30 1806 H 172.95 0.0858666 2.97176 0
M  V30 1807 H 170.483 0.163183 1.53535 0
M  V30 1808 H 172.441 -2.38219 3.34308 0
M  V30 1809 H 171.102 -2.26002 2.18133 0
M  V30 1810 H 170.295 -2.14725 4.5597 0
M  V30 1811 H 169.897 -0.651584 3.6828 0
M  V30 1812 H 172.189 -2.37469 6.34519 0
M  V30 1813 H 173.132 -1.00292 7.00962 0
M  V30 1814 H 173.54 -1.65804 5.39601 0
M  V30 1815 N 172.938 -1.57226 0.108567 0
M  V30 1816 C 174.187 -1.94008 -0.551703 0
M  V30 1817 C 174.5 -0.993442 -1.68494 0
M  V30 1818 O 175.706 -1.25551 -2.40726 0
M  V30 1819 C 174.162 -3.44763 -1.03279 0
M  V30 1820 C 173.77 -4.47943 0.0714193 0
M  V30 1821 C 175.514 -3.90483 -1.66503 0
M  V30 1822 C 173.421 -5.89865 -0.425779 0
M  V30 1823 H 172.351 -0.724206 -0.209863 0
M  V30 1824 H 175.002 -1.82547 0.186741 0
M  V30 1825 H 173.384 -3.51422 -1.82533 0
M  V30 1826 H 174.558 -4.52942 0.847365 0
M  V30 1827 H 172.873 -4.11913 0.609669 0
M  V30 1828 H 175.47 -4.93925 -2.04798 0
M  V30 1829 H 175.813 -3.29877 -2.53942 0
M  V30 1830 H 176.346 -3.86581 -0.938074 0
M  V30 1831 H 173.085 -6.54202 0.412316 0
M  V30 1832 H 172.605 -5.88309 -1.16843 0
M  V30 1833 H 174.284 -6.40844 -0.890397 0
M  V30 1834 N 174.416 0.165178 -1.56732 0
M  V30 1835 C 175.349 1.23336 -1.91998 0
M  V30 1836 C 176.327 1.42476 -0.783531 0
M  V30 1837 O 177.511 1.57384 -1.03743 0
M  V30 1838 C 174.638 2.59533 -2.17625 0
M  V30 1839 C 173.684 2.57093 -3.40302 0
M  V30 1840 S 174.517 2.05571 -4.9447 0
M  V30 1841 C 175.673 3.43532 -5.23198 0
M  V30 1842 H 175.906 0.932387 -2.82301 0
M  V30 1843 H 173.439 0.370013 -1.49901 0
M  V30 1844 H 175.397 3.37918 -2.3307 0
M  V30 1845 H 174.058 2.86827 -1.28019 0
M  V30 1846 H 173.251 3.57308 -3.55453 0
M  V30 1847 H 172.853 1.86806 -3.24005 0
M  V30 1848 H 175.145 4.39559 -5.15552 0
M  V30 1849 H 176.088 3.33251 -6.2478 0
M  V30 1850 H 176.496 3.39828 -4.50752 0
M  V30 1851 N 175.894 1.51508 0.433938 0
M  V30 1852 C 176.842 1.73646 1.54757 0
M  V30 1853 C 177.836 0.602854 1.5831 0
M  V30 1854 O 179.042 0.784318 1.62014 0
M  V30 1855 H 175.417 0.548718 0.51421 0
M  V30 1856 H 177.388 2.66991 1.33261 0
M  V30 1857 C 176.137 1.88172 2.92381 0
M  V30 1858 H 175.46 2.74808 2.90381 0
M  V30 1859 H 176.9 2.07672 3.6966 0
M  V30 1860 C 175.359 0.64239 3.30719 0
M  V30 1861 O 175.889 -0.201362 4.01195 0
M  V30 1862 N 174.095 0.485489 2.86516 0
M  V30 1863 H 173.642 1.17318 2.29334 0
M  V30 1864 H 173.6 -0.342482 3.12529 0
M  V30 1865 N 177.372 -0.689602 1.41712 0
M  V30 1866 C 178.597 -1.48329 1.44959 0
M  V30 1867 C 179.022 -1.8801 0.0581283 0
M  V30 1868 O 178.38 -1.55026 -0.940035 0
M  V30 1869 C 178.428 -2.71835 2.36935 0
M  V30 1870 O 177.532 -3.69549 1.8305 0
M  V30 1871 H 176.873 -0.446199 0.491734 0
M  V30 1872 H 179.403 -0.847127 1.86239 0
M  V30 1873 H 179.413 -3.20076 2.53013 0
M  V30 1874 H 178.088 -2.42291 3.38035 0
M  V30 1875 H 176.665 -3.2851 1.76452 0
M  V30 1876 N 178.85 -1.27639 -0.924453 0
M  V30 1877 C 179.78 -1.13166 -2.04244 0
M  V30 1878 C 180.761 -0.032256 -1.70069 0
M  V30 1879 O 181.946 -0.207328 -1.9309 0
M  V30 1880 C 179.076 -0.781496 -3.38393 0
M  V30 1881 C 178.03 -1.83449 -3.86692 0
M  V30 1882 C 177.356 -1.33822 -5.17683 0
M  V30 1883 C 178.656 -3.23917 -4.09726 0
M  V30 1884 H 180.35 -2.06689 -2.1661 0
M  V30 1885 H 177.896 -0.995136 -1.04082 0
M  V30 1886 H 179.849 -0.667057 -4.16087 0
M  V30 1887 H 178.573 0.189439 -3.2605 0
M  V30 1888 H 177.232 -1.93789 -3.11193 0
M  V30 1889 H 176.88 -0.35665 -5.01734 0
M  V30 1890 H 176.58 -2.04224 -5.50968 0
M  V30 1891 H 178.104 -1.23679 -5.97943 0
M  V30 1892 H 179.518 -3.16559 -4.77978 0
M  V30 1893 H 177.915 -3.92059 -4.54324 0
M  V30 1894 H 178.985 -3.68729 -3.14908 0
M  V30 1895 N 180.328 1.1314 -1.09713 0
M  V30 1896 C 181.553 1.88862 -0.857081 0
M  V30 1897 C 181.978 1.78729 0.586304 0
M  V30 1898 O 181.336 1.13692 1.41222 0
M  V30 1899 C 181.384 3.36325 -1.30069 0
M  V30 1900 O 180.488 4.09815 -0.461007 0
M  V30 1901 H 179.829 0.587108 -0.310162 0
M  V30 1902 H 182.359 1.43129 -1.46203 0
M  V30 1903 H 182.369 3.87157 -1.28738 0
M  V30 1904 H 181.044 3.43017 -2.35185 0
M  V30 1905 H 179.621 3.68986 -0.538888 0
M  V30 1906 N 181.806 0.884767 1.30421 0
M  V30 1907 C 182.736 0.367574 2.30589 0
M  V30 1908 C 183.717 -0.549464 1.60981 0
M  V30 1909 O 184.902 -0.46336 1.88591 0
M  V30 1910 C 182.032 -0.418944 3.44764 0
M  V30 1911 C 180.986 0.406316 4.26067 0
M  V30 1912 C 180.312 -0.506793 5.32293 0
M  V30 1913 C 181.612 1.64832 4.95608 0
M  V30 1914 H 183.306 1.20462 2.74097 0
M  V30 1915 H 180.852 0.580695 1.31772 0
M  V30 1916 H 182.805 -0.791395 4.13902 0
M  V30 1917 H 181.529 -1.28964 3.0006 0
M  V30 1918 H 180.188 0.760903 3.58617 0
M  V30 1919 H 179.836 -1.37519 4.83836 0
M  V30 1920 H 179.536 0.0415828 5.87585 0
M  V30 1921 H 181.06 -0.875764 6.04287 0
M  V30 1922 H 182.474 1.34646 5.57264 0
M  V30 1923 H 180.871 2.13688 5.60765 0
M  V30 1924 H 181.941 2.39284 4.21748 0
M  V30 1925 N 183.284 -1.43765 0.645699 0
M  V30 1926 C 184.531 -2.01898 0.15604 0
M  V30 1927 C 184.859 -1.50887 -1.22733 0
M  V30 1928 O 184.114 -0.689271 -1.8316 0
M  V30 1929 C 184.413 -3.57238 0.107679 0
M  V30 1930 C 184.079 -4.27564 1.43178 0
M  V30 1931 C 182.741 -4.46492 1.7944 0
M  V30 1932 C 185.093 -4.67454 2.30513 0
M  V30 1933 C 182.421 -5.02573 3.02716 0
M  V30 1934 C 184.773 -5.24901 3.53074 0
M  V30 1935 C 183.437 -5.42046 3.89541 0
M  V30 1936 H 182.707 -0.738797 0.057099 0
M  V30 1937 H 185.354 -1.72341 0.834912 0
M  V30 1938 H 183.659 -3.86293 -0.654618 0
M  V30 1939 H 185.356 -3.99965 -0.287938 0
M  V30 1940 H 181.946 -4.13171 1.13963 0
M  V30 1941 H 186.13 -4.5253 2.0379 0
M  V30 1942 H 181.386 -5.14033 3.31028 0
M  V30 1943 H 185.56 -5.54758 4.20971 0
M  V30 1944 H 183.187 -5.85268 4.85145 0
M  V30 1945 N 184.763 -0.387143 -1.52771 0
M  V30 1946 C 185.726 0.436939 -2.24997 0
M  V30 1947 C 186.726 0.991991 -1.26555 0
M  V30 1948 O 187.916 0.874335 -1.50669 0
M  V30 1949 C 185.048 1.61281 -3.00335 0
M  V30 1950 H 186.241 -0.195365 -2.99263 0
M  V30 1951 H 183.794 -0.139218 -1.55679 0
M  V30 1952 H 184.529 2.2826 -2.30364 0
M  V30 1953 H 184.314 1.22154 -3.72587 0
M  V30 1954 H 185.804 2.19629 -3.5518 0
M  V30 1955 N 186.241 1.57166 -0.116904 0
M  V30 1956 C 187.204 2.14039 0.819742 0
M  V30 1957 C 188.204 1.07477 1.19605 0
M  V30 1958 O 189.394 1.33263 1.1219 0
M  V30 1959 C 186.526 2.67891 2.10826 0
M  V30 1960 H 187.719 2.98128 0.325511 0
M  V30 1961 H 185.272 1.55739 0.132312 0
M  V30 1962 H 186.007 1.87384 2.64685 0
M  V30 1963 H 185.792 3.45823 1.84793 0
M  V30 1964 H 187.282 3.11809 2.77785 0
M  V30 1965 N 187.719 -0.156864 1.56817 0
M  V30 1966 C 188.968 -0.869504 1.81996 0
M  V30 1967 C 189.281 -1.82777 0.696545 0
M  V30 1968 O 190.487 -2.58384 0.833658 0
M  V30 1969 C 188.943 -1.59679 3.22538 0
M  V30 1970 C 188.551 -0.681431 4.42787 0
M  V30 1971 C 190.295 -2.2968 3.56997 0
M  V30 1972 C 188.202 -1.40978 5.74351 0
M  V30 1973 H 187.132 -0.328438 0.678708 0
M  V30 1974 H 189.783 -0.1223 1.83092 0
M  V30 1975 H 188.165 -2.38927 3.158 0
M  V30 1976 H 189.339 0.0751166 4.60739 0
M  V30 1977 H 187.654 -0.0903431 4.16302 0
M  V30 1978 H 190.251 -2.84794 4.52544 0
M  V30 1979 H 190.594 -3.05707 2.82576 0
M  V30 1980 H 191.127 -1.57361 3.65352 0
M  V30 1981 H 187.866 -0.691561 6.51842 0
M  V30 1982 H 187.386 -2.13929 5.60352 0
M  V30 1983 H 189.065 -1.95337 6.16808 0
M  V30 1984 N 189.197 -1.51736 -0.425897 0
M  V30 1985 C 190.422 -1.69082 -1.20108 0
M  V30 1986 C 190.847 -0.392398 -1.83962 0
M  V30 1987 O 190.205 0.64858 -1.69302 0
M  V30 1988 C 190.253 -2.81604 -2.25237 0
M  V30 1989 O 189.357 -2.46004 -3.30992 0
M  V30 1990 H 188.698 -0.563408 -0.35138 0
M  V30 1991 H 191.228 -1.98358 -0.501512 0
M  V30 1992 H 191.238 -3.06025 -2.69838 0
M  V30 1993 H 189.913 -3.75817 -1.78142 0
M  V30 1994 H 188.49 -2.32195 -2.91787 0
M  V30 1995 N 190.675 0.682077 -1.42076 0
M  V30 1996 C 191.923 1.4393 -1.41876 0
M  V30 1997 C 192.244 1.94971 -0.0335599 0
M  V30 1998 O 191.514 1.72591 0.926773 0
M  V30 1999 H 190.094 0.534085 -0.522267 0
M  V30 2000 H 192.756 0.806427 -1.77434 0
M  V30 2001 H 191.852 2.29588 -2.11414 0
M  V30 2002 N 192.153 1.28127 0.917671 0
M  V30 2003 C 193.086 1.06039 2.02067 0
M  V30 2004 C 194.064 -0.0223285 1.62585 0
M  V30 2005 O 195.248 0.124823 1.88086 0
M  V30 2006 C 192.375 0.610596 3.33151 0
M  V30 2007 C 191.421 1.68937 3.91615 0
M  V30 2008 S 192.254 3.28437 4.22953 0
M  V30 2009 C 193.41 2.85283 5.57103 0
M  V30 2010 H 193.643 1.99425 2.20493 0
M  V30 2011 H 191.176 1.12071 1.06205 0
M  V30 2012 H 193.134 0.357778 4.08938 0
M  V30 2013 H 191.795 -0.303364 3.12632 0
M  V30 2014 H 190.988 1.32619 4.86239 0
M  V30 2015 H 190.59 1.89478 3.2245 0
M  V30 2016 H 192.882 2.3121 6.36827 0
M  V30 2017 H 193.825 3.7869 5.98331 0
M  V30 2018 H 194.233 2.24118 5.18104 0
M  V30 2019 N 193.631 -1.12557 1.10312 0
M  V30 2020 C 194.88 -1.83395 0.839588 0
M  V30 2021 C 195.193 -1.84939 -0.636929 0
M  V30 2022 O 196.399 -2.51761 -1.01631 0
M  V30 2023 C 194.855 -3.29303 1.45215 0
M  V30 2024 C 194.463 -3.36122 2.96186 0
M  V30 2025 C 196.207 -4.05121 1.26796 0
M  V30 2026 C 194.114 -4.76357 3.50483 0
M  V30 2027 H 193.044 -0.687133 0.310425 0
M  V30 2028 H 195.695 -1.26746 1.32694 0
M  V30 2029 H 194.077 -3.85812 0.892469 0
M  V30 2030 H 195.251 -2.89559 3.58458 0
M  V30 2031 H 193.566 -2.73776 3.13745 0
M  V30 2032 H 196.163 -5.08668 1.64806 0
M  V30 2033 H 196.506 -4.15773 0.209409 0
M  V30 2034 H 197.039 -3.54967 1.79563 0
M  V30 2035 H 193.778 -4.70899 4.55998 0
M  V30 2036 H 193.298 -5.23377 2.92978 0
M  V30 2037 H 194.977 -5.45294 3.48228 0
M  V30 2038 N 195.109 -0.891671 -1.2995 0
M  V30 2039 C 196.039 -0.379797 -2.30391 0
M  V30 2040 C 197.02 0.540919 -1.6127 0
M  V30 2041 O 198.205 0.453352 -1.88834 0
M  V30 2042 C 195.335 0.400654 -3.44981 0
M  V30 2043 C 194.289 -0.428905 -4.25846 0
M  V30 2044 C 193.615 0.478557 -5.32554 0
M  V30 2045 C 194.915 -1.67458 -4.94727 0
M  V30 2046 H 196.609 -1.21914 -2.73454 0
M  V30 2047 H 194.155 -0.587675 -1.31462 0
M  V30 2048 H 196.108 0.769434 -4.14316 0
M  V30 2049 H 194.832 1.27371 -3.0074 0
M  V30 2050 H 193.491 -0.779911 -3.58208 0
M  V30 2051 H 193.139 1.34951 -4.84559 0
M  V30 2052 H 192.839 -0.0727433 -5.87555 0
M  V30 2053 H 194.363 0.843705 -6.04743 0
M  V30 2054 H 195.777 -1.376 -5.56542 0
M  V30 2055 H 194.174 -2.16659 -5.59624 0
M  V30 2056 H 195.244 -2.41518 -4.20473 0
M  V30 2057 N 196.587 1.43421 -0.653314 0
M  V30 2058 C 197.812 2.06678 -0.172846 0
M  V30 2059 C 198.237 1.48648 1.15262 0
M  V30 2060 O 197.595 0.596457 1.71208 0
M  V30 2061 C 197.643 3.60474 -0.0953184 0
M  V30 2062 O 196.747 4.01487 0.942442 0
M  V30 2063 H 196.088 0.657181 -0.0949155 0
M  V30 2064 H 198.618 1.83925 -0.896265 0
M  V30 2065 H 198.628 4.07905 0.0879728 0
M  V30 2066 H 197.303 4.02088 -1.06291 0
M  V30 2067 H 195.88 3.65646 0.731932 0
M  V30 2068 N 198.065 0.39524 1.52563 0
M  V30 2069 C 199.314 -0.186321 2.00838 0
M  V30 2070 C 199.627 -1.47402 1.28577 0
M  V30 2071 O 200.833 -2.13599 1.67593 0
M  V30 2072 C 199.289 -0.382595 3.57861 0
M  V30 2073 C 198.897 0.892202 4.39026 0
M  V30 2074 C 200.641 -0.9202 4.14406 0
M  V30 2075 C 198.548 0.66388 5.87662 0
M  V30 2076 H 197.478 -0.0734041 0.750418 0
M  V30 2077 H 200.129 0.518552 1.76021 0
M  V30 2078 H 198.511 -1.14946 3.7895 0
M  V30 2079 H 199.685 1.66414 4.29701 0
M  V30 2080 H 198 1.35519 3.9373 0
M  V30 2081 H 200.597 -1.10683 5.23119 0
M  V30 2082 H 200.94 -1.89096 3.70875 0
M  V30 2083 H 201.473 -0.212751 3.97231 0
M  V30 2084 H 198.212 1.6058 6.35527 0
M  V30 2085 H 197.732 -0.0690193 5.9976 0
M  V30 2086 H 199.411 0.300699 6.46301 0
M  V30 2087 N 199.544 -1.57102 0.125237 0
M  V30 2088 C 200.477 -2.11371 -0.860094 0
M  V30 2089 C 201.455 -1.03168 -1.25679 0
M  V30 2090 O 202.639 -1.30862 -1.35674 0
M  V30 2091 C 199.766 -2.61555 -2.1519 0
M  V30 2092 C 198.812 -3.81701 -1.9028 0
M  V30 2093 S 199.645 -5.23797 -1.11343 0
M  V30 2094 C 200.801 -5.77353 -2.41689 0
M  V30 2095 H 201.034 -2.94617 -0.39852 0
M  V30 2096 H 198.567 -1.54145 -0.0886555 0
M  V30 2097 H 200.525 -2.91122 -2.89411 0
M  V30 2098 H 199.186 -1.78479 -2.58465 0
M  V30 2099 H 198.379 -4.14985 -2.86014 0
M  V30 2100 H 197.981 -3.52783 -1.24178 0
M  V30 2101 H 200.273 -5.87458 -3.37489 0
M  V30 2102 H 201.216 -6.75323 -2.12942 0
M  V30 2103 H 201.624 -5.05457 -2.51342 0
M  V30 2104 N 201.022 0.148545 -1.56898 0
M  V30 2105 C 202.299 0.890019 -1.74178 0
M  V30 2106 C 202.679 1.99407 -0.692839 0
M  V30 2107 O 202.027 2.26671 0.288505 0
M  V30 2108 C 202.237 1.43389 -3.18183 0
M  V30 2109 C 203.585 1.89791 -3.79822 0
M  V30 2110 O 204.609 1.53134 -3.21603 0
M  V30 2111 O 203.468 2.57387 -4.82093 0
M  V30 2112 H 200.562 0.420496 -0.712118 0
M  V30 2113 H 203.108 0.134591 -1.69165 0
M  V30 2114 H 201.88 0.640383 -3.86024 0
M  V30 2115 H 201.503 2.25287 -3.27615 0
M  V30 2116 N 202.5 1.5196 0.417844 0
M  V30 2117 C 203.749 1.6482 1.16264 0
M  V30 2118 C 204.062 0.379886 1.91876 0
M  V30 2119 O 205.268 0.388154 2.68711 0
M  V30 2120 C 203.724 2.91161 2.1155 0
M  V30 2121 C 203.332 4.25068 1.41495 0
M  V30 2122 C 205.076 3.13383 2.86341 0
M  V30 2123 C 202.983 5.42541 2.35379 0
M  V30 2124 H 201.913 0.613954 0.437694 0
M  V30 2125 H 204.564 1.78442 0.427871 0
M  V30 2126 H 202.946 2.71218 2.88543 0
M  V30 2127 H 204.12 4.55463 0.699263 0
M  V30 2128 H 202.435 4.0888 0.787792 0
M  V30 2129 H 205.032 3.98324 3.5671 0
M  V30 2130 H 205.375 2.27256 3.48798 0
M  V30 2131 H 205.908 3.33757 2.1645 0
M  V30 2132 H 202.647 6.30987 1.77582 0
M  V30 2133 H 202.167 5.16497 3.04945 0
M  V30 2134 H 203.846 5.75272 2.96093 0
M  V30 2135 N 203.978 -0.674533 1.42435 0
M  V30 2136 C 204.908 -1.80009 1.48724 0
M  V30 2137 C 205.889 -1.6659 0.343793 0
M  V30 2138 O 207.074 -1.86007 0.558137 0
M  V30 2139 C 204.204 -3.18306 1.38919 0
M  V30 2140 C 203.158 -3.46461 2.51294 0
M  V30 2141 C 202.484 -4.84335 2.26547 0
M  V30 2142 C 203.784 -3.43328 3.93603 0
M  V30 2143 H 205.478 -1.75004 2.42928 0
M  V30 2144 H 203.024 -0.840533 1.16923 0
M  V30 2145 H 204.977 -3.9678 1.41927 0
M  V30 2146 H 203.701 -3.2399 0.412094 0
M  V30 2147 H 202.36 -2.70348 2.47604 0
M  V30 2148 H 202.008 -4.86669 1.2713 0
M  V30 2149 H 201.708 -5.04136 3.01861 0
M  V30 2150 H 203.232 -5.65094 2.31304 0
M  V30 2151 H 204.646 -4.11772 3.98894 0
M  V30 2152 H 203.043 -3.74664 4.68771 0
M  V30 2153 H 204.113 -2.41897 4.20255 0
M  V30 2154 N 205.456 -1.28612 -0.910864 0
M  V30 2155 C 206.404 -1.1265 -2.03501 0
M  V30 2156 C 207.398 -0.0450054 -1.6934 0
M  V30 2157 O 208.604 -0.203988 -1.7884 0
M  V30 2158 H 204.979 -0.347639 -0.666822 0
M  V30 2159 H 206.95 -2.07849 -2.14106 0
M  V30 2160 C 205.699 -0.808143 -3.38178 0
M  V30 2161 H 205.022 -1.63231 -3.6496 0
M  V30 2162 H 206.462 -0.736426 -4.17556 0
M  V30 2163 C 204.921 0.488226 -3.33344 0
M  V30 2164 O 205.451 1.51766 -3.71927 0
M  V30 2165 N 203.657 0.490009 -2.86439 0
M  V30 2166 H 203.204 -0.348161 -2.55236 0
M  V30 2167 H 203.162 1.35741 -2.83587 0
M  V30 2168 N 206.934 1.1197 -1.10907 0
M  V30 2169 C 208.183 1.82947 -0.849302 0
M  V30 2170 C 208.496 1.85275 0.627112 0
M  V30 2171 O 209.702 2.52296 1.00295 0
M  V30 2172 C 208.158 3.28529 -1.46959 0
M  V30 2173 C 207.766 3.34546 -2.97965 0
M  V30 2174 C 209.51 4.04443 -1.28942 0
M  V30 2175 C 207.417 4.74491 -3.53004 0
M  V30 2176 H 206.347 0.685477 -0.314065 0
M  V30 2177 H 208.998 1.2604 -1.33365 0
M  V30 2178 H 207.38 3.85333 -0.912917 0
M  V30 2179 H 208.554 2.87654 -3.59989 0
M  V30 2180 H 206.869 2.72108 -3.15192 0
M  V30 2181 H 209.466 5.07787 -1.67502 0
M  V30 2182 H 209.809 4.15656 -0.231456 0
M  V30 2183 H 210.342 3.5401 -1.81443 0
M  V30 2184 H 207.081 4.68474 -4.58489 0
M  V30 2185 H 206.601 5.21816 -2.9575 0
M  V30 2186 H 208.28 5.4344 -3.51115 0
M  V30 2187 N 208.412 0.89855 1.29475 0
M  V30 2188 C 209.359 0.373819 2.27753 0
M  V30 2189 C 210.329 -0.543444 1.56958 0
M  V30 2190 O 211.514 -0.468934 1.84948 0
M  V30 2191 C 208.654 -0.393648 3.42848 0
M  V30 2192 C 207.767 0.554379 4.28428 0
M  V30 2193 C 206.902 -0.230026 5.30702 0
M  V30 2194 C 205.941 0.712599 6.07938 0
M  V30 2195 N 205.078 -0.0373283 7.0209 0
M  V30 2196 H 209.918 1.21699 2.72017 0
M  V30 2197 H 207.455 0.611456 1.33789 0
M  V30 2198 H 209.413 -0.85466 4.08352 0
M  V30 2199 H 208.043 -1.20128 2.99615 0
M  V30 2200 H 207.095 1.13391 3.63107 0
M  V30 2201 H 208.407 1.27597 4.82204 0
M  V30 2202 H 207.561 -0.752288 6.02018 0
M  V30 2203 H 206.3 -0.984758 4.77654 0
M  V30 2204 H 205.305 1.24637 5.35486 0
M  V30 2205 H 206.53 1.46664 6.63074 0
M  V30 2206 H 204.476 -0.774348 6.51414 0
M  V30 2207 H 204.393 0.624374 7.53417 0
M  V30 2208 H 205.661 -0.539891 7.77628 0
M  V30 2209 N 209.89 -1.43072 0.660911 0
M  V30 2210 C 211.139 -2.00942 0.174735 0
M  V30 2211 C 211.452 -1.52797 -1.22117 0
M  V30 2212 O 212.658 -2.02991 -1.80297 0
M  V30 2213 C 211.114 -3.58948 0.261559 0
M  V30 2214 C 210.722 -4.16085 1.66064 0
M  V30 2215 C 212.466 -4.24173 -0.166617 0
M  V30 2216 C 210.373 -5.6641 1.70098 0
M  V30 2217 H 209.303 -0.751483 0.0615631 0
M  V30 2218 H 211.954 -1.63955 0.824069 0
M  V30 2219 H 210.336 -3.93372 -0.455421 0
M  V30 2220 H 211.51 -3.93147 2.40359 0
M  V30 2221 H 209.825 -3.6326 2.03546 0
M  V30 2222 H 212.422 -5.34471 -0.156433 0
M  V30 2223 H 212.765 -3.98647 -1.19943 0
M  V30 2224 H 213.298 -3.94659 0.498875 0
M  V30 2225 H 210.037 -5.96715 2.71315 0
M  V30 2226 H 209.557 -5.91382 1.00139 0
M  V30 2227 H 211.236 -6.30585 1.44816 0
M  V30 2228 N 211.368 -0.403325 -1.52352 0
M  V30 2229 C 212.593 0.176499 -2.06648 0
M  V30 2230 C 213.018 1.38577 -1.27193 0
M  V30 2231 O 212.376 1.7879 -0.300637 0
M  V30 2232 C 212.424 0.511061 -3.5696 0
M  V30 2233 O 211.528 1.60294 -3.79973 0
M  V30 2234 H 210.869 0.0167337 -0.663789 0
M  V30 2235 H 213.399 -0.574848 -1.96359 0
M  V30 2236 H 213.409 0.771362 -4.00642 0
M  V30 2237 H 212.084 -0.37296 -4.14224 0
M  V30 2238 H 210.661 1.33526 -3.48174 0
M  V30 2239 N 212.846 1.57033 -0.133567 0
M  V30 2240 C 213.796 2.12641 0.822671 0
M  V30 2241 C 214.78 1.05081 1.21847 0
M  V30 2242 O 215.972 1.31287 1.18713 0
M  V30 2243 C 213.101 2.74094 2.06706 0
M  V30 2244 C 212.187 3.88757 1.69497 0
M  V30 2245 N 212.578 4.95194 1.03037 0
M  V30 2246 C 210.876 3.99213 1.98859 0
M  V30 2247 C 211.577 5.75414 0.852873 0
M  V30 2248 N 210.553 5.25726 1.3825 0
M  V30 2249 H 214.355 2.92308 0.305537 0
M  V30 2250 H 211.869 1.62256 0.0684276 0
M  V30 2251 H 213.866 3.12285 2.76195 0
M  V30 2252 H 212.526 1.95896 2.5895 0
M  V30 2253 H 213.537 5.13247 0.692669 0
M  V30 2254 H 210.214 3.32075 2.53047 0
M  V30 2255 H 211.604 6.71089 0.330091 0
M  V30 2256 N 214.325 -0.140222 1.56975 0
M  V30 2257 C 215.572 -0.851687 1.83719 0
M  V30 2258 C 215.9 -1.80862 0.715485 0
M  V30 2259 O 215.155 -1.93464 -0.294956 0
M  V30 2260 C 215.454 -1.65386 3.16832 0
M  V30 2261 C 215.12 -0.843112 4.42947 0
M  V30 2262 C 213.782 -0.619464 4.77196 0
M  V30 2263 C 216.134 -0.276582 5.20466 0
M  V30 2264 C 213.462 0.181312 5.8642 0
M  V30 2265 C 215.814 0.51127 6.30531 0
M  V30 2266 C 214.478 0.745432 6.63325 0
M  V30 2267 H 213.748 -0.311654 0.672274 0
M  V30 2268 H 216.395 -0.115006 1.91154 0
M  V30 2269 H 214.7 -2.46084 3.04877 0
M  V30 2270 H 216.397 -2.20793 3.34741 0
M  V30 2271 H 212.987 -1.0275 4.16101 0
M  V30 2272 H 217.171 -0.436632 4.94376 0
M  V30 2273 H 212.427 0.372165 6.10266 0
M  V30 2274 H 216.601 0.957354 6.89788 0
M  V30 2275 H 214.228 1.36778 7.47794 0
M  V30 2276 N 215.803 -1.52179 -0.40978 0
M  V30 2277 C 216.733 -1.78435 -1.5061 0
M  V30 2278 C 217.714 -0.635295 -1.57791 0
M  V30 2279 O 218.899 -0.880823 -1.73076 0
M  V30 2280 C 216.029 -1.93444 -2.88439 0
M  V30 2281 C 214.983 -3.09038 -2.96108 0
M  V30 2282 C 214.309 -3.09268 -4.36185 0
M  V30 2283 C 215.609 -4.48508 -2.67652 0
M  V30 2284 H 217.303 -2.70237 -1.28889 0
M  V30 2285 H 214.849 -1.30036 -0.618605 0
M  V30 2286 H 216.802 -2.10394 -3.65119 0
M  V30 2287 H 215.526 -0.983129 -3.11452 0
M  V30 2288 H 214.185 -2.91837 -2.21872 0
M  V30 2289 H 213.833 -2.11861 -4.56206 0
M  V30 2290 H 213.533 -3.86907 -4.42241 0
M  V30 2291 H 215.057 -3.28348 -5.14801 0
M  V30 2292 H 216.471 -4.65918 -3.34056 0
M  V30 2293 H 214.868 -5.28059 -2.85085 0
M  V30 2294 H 215.938 -4.56649 -1.63095 0
M  V30 2295 N 217.281 0.66697 -1.42791 0
M  V30 2296 C 218.228 1.7803 -1.4688 0
M  V30 2297 C 219.198 1.6299 -0.319919 0
M  V30 2298 O 220.383 1.83432 -0.525118 0
M  V30 2299 C 217.523 3.1611 -1.38451 0
M  V30 2300 C 216.636 3.42381 -2.63437 0
M  V30 2301 C 215.771 4.70232 -2.47094 0
M  V30 2302 C 214.81 4.89564 -3.67415 0
M  V30 2303 N 213.947 6.08661 -3.49966 0
M  V30 2304 H 218.787 1.7387 -2.42019 0
M  V30 2305 H 216.324 0.84868 -1.20149 0
M  V30 2306 H 218.282 3.95914 -1.31561 0
M  V30 2307 H 216.912 3.19374 -0.469033 0
M  V30 2308 H 215.964 2.56774 -2.80662 0
M  V30 2309 H 217.276 3.52557 -3.52853 0
M  V30 2310 H 216.43 5.5814 -2.37834 0
M  V30 2311 H 215.169 4.62353 -1.5518 0
M  V30 2312 H 214.174 4.00096 -3.77099 0
M  V30 2313 H 215.399 4.99282 -4.6032 0
M  V30 2314 H 213.345 6.0194 -2.60776 0
M  V30 2315 H 213.262 6.19733 -4.32975 0
M  V30 2316 H 214.53 6.99226 -3.44532 0
M  V30 2317 N 218.759 1.29093 0.90403 0
M  V30 2318 C 219.692 1.08176 2.00931 0
M  V30 2319 C 220.67 -0.005083 1.62599 0
M  V30 2320 O 221.854 0.144765 1.87943 0
M  V30 2321 C 218.981 0.645897 3.32484 0
M  V30 2322 C 218.027 1.73081 3.89801 0
M  V30 2323 S 218.86 3.32905 4.19446 0
M  V30 2324 C 220.016 2.91176 5.54046 0
M  V30 2325 H 220.249 2.01752 2.18365 0
M  V30 2326 H 217.782 1.13191 1.0501 0
M  V30 2327 H 219.74 0.401131 4.08535 0
M  V30 2328 H 218.401 -0.270188 3.12936 0
M  V30 2329 H 217.594 1.37768 4.84805 0
M  V30 2330 H 217.196 1.92888 3.20422 0
M  V30 2331 H 219.488 2.37952 6.34338 0
M  V30 2332 H 220.431 3.85014 5.94281 0
M  V30 2333 H 220.839 2.296 5.15698 0
M  V30 2334 N 220.237 -1.11381 1.11499 0
M  V30 2335 C 221.147 -2.21019 0.786628 0
M  V30 2336 C 222.163 -1.72597 -0.220507 0
M  V30 2337 O 223.339 -2.01321 -0.0565251 0
M  V30 2338 C 220.404 -3.459 0.235333 0
M  V30 2339 C 219.465 -4.09107 1.30115 0
M  V30 2340 C 218.698 -5.28027 0.776068 0
M  V30 2341 O 218.921 -5.6904 -0.393661 0
M  V30 2342 O 217.855 -5.81835 1.54114 0
M  V30 2343 H 221.681 -2.51521 1.70209 0
M  V30 2344 H 219.266 -1.19928 0.890928 0
M  V30 2345 H 221.148 -4.21346 -0.067715 0
M  V30 2346 H 219.823 -3.17049 -0.652828 0
M  V30 2347 H 218.73 -3.35391 1.65722 0
M  V30 2348 H 220.063 -4.42139 2.16273 0
M  V30 2349 N 221.715 -0.905404 -1.28997 0
M  V30 2350 C 222.94 -0.549175 -1.99997 0
M  V30 2351 C 223.365 0.860276 -1.67275 0
M  V30 2352 O 222.723 1.57355 -0.900502 0
M  V30 2353 C 222.771 -0.755185 -3.52604 0
M  V30 2354 O 221.875 0.189692 -4.11964 0
M  V30 2355 H 221.216 -0.213899 -0.628604 0
M  V30 2356 H 223.746 -1.21856 -1.64354 0
M  V30 2357 H 223.756 -0.662045 -4.02593 0
M  V30 2358 H 222.431 -1.78271 -3.75755 0
M  V30 2359 H 221.008 0.0485257 -3.72868 0
M  V30 2360 N 223.193 1.4272 -0.668489 0
M  V30 2361 C 224.123 2.335 -0.000100175 0
M  V30 2362 C 225.104 1.50328 0.795964 0
M  V30 2363 O 226.289 1.78949 0.754385 0
M  V30 2364 C 223.419 3.33874 0.956302 0
M  V30 2365 C 222.373 4.27152 0.269278 0
M  V30 2366 C 221.699 5.17684 1.33818 0
M  V30 2367 C 222.999 5.15373 -0.847805 0
M  V30 2368 H 224.693 2.89639 -0.758244 0
M  V30 2369 H 222.239 1.39269 -0.366079 0
M  V30 2370 H 224.192 3.9629 1.43292 0
M  V30 2371 H 222.916 2.76025 1.74579 0
M  V30 2372 H 221.575 3.66123 -0.187042 0
M  V30 2373 H 221.223 4.56165 2.1195 0
M  V30 2374 H 220.923 5.80918 0.883659 0
M  V30 2375 H 222.447 5.82974 1.81586 0
M  V30 2376 H 223.861 5.7151 -0.452681 0
M  V30 2377 H 222.258 5.87407 -1.22773 0
M  V30 2378 H 223.328 4.5415 -1.69929 0
M  V30 2379 N 224.671 0.411399 1.52136 0
M  V30 2380 C 225.619 -0.427633 2.28635 0
M  V30 2381 C 226.613 -1.04383 1.33419 0
M  V30 2382 O 227.819 -0.981772 1.50868 0
M  V30 2383 H 224.194 -0.156689 0.735495 0
M  V30 2384 H 226.165 0.238761 2.97443 0
M  V30 2385 C 224.914 -1.53082 3.12188 0
M  V30 2386 H 224.237 -1.06601 3.85326 0
M  V30 2387 H 225.677 -2.09167 3.68816 0
M  V30 2388 C 224.136 -2.49946 2.25895 0
M  V30 2389 O 224.666 -3.53884 1.90076 0
M  V30 2390 N 222.872 -2.2021 1.8962 0
M  V30 2391 H 222.419 -1.35719 2.18948 0
M  V30 2392 H 222.377 -2.85266 1.32176 0
M  V30 2393 N 226.149 -1.5696 0.141893 0
M  V30 2394 C 227.396 -1.9596 -0.510492 0
M  V30 2395 C 227.724 -1.02648 -1.65208 0
M  V30 2396 O 226.979 -0.0546947 -1.95624 0
M  V30 2397 C 227.278 -3.41242 -1.06249 0
M  V30 2398 C 226.944 -4.50882 -0.0398791 0
M  V30 2399 C 225.606 -4.80595 0.241247 0
M  V30 2400 C 227.958 -5.17058 0.65578 0
M  V30 2401 C 225.286 -5.73792 1.22393 0
M  V30 2402 C 227.638 -6.11313 1.62724 0
M  V30 2403 C 226.302 -6.39407 1.91612 0
M  V30 2404 H 225.572 -0.717068 -0.186802 0
M  V30 2405 H 228.219 -1.90142 0.227643 0
M  V30 2406 H 226.524 -3.43866 -1.87785 0
M  V30 2407 H 228.221 -3.68742 -1.57576 0
M  V30 2408 H 224.811 -4.27754 -0.269174 0
M  V30 2409 H 228.995 -4.94239 0.451779 0
M  V30 2410 H 224.251 -5.93853 1.45424 0
M  V30 2411 H 228.425 -6.61668 2.17183 0
M  V30 2412 H 226.052 -7.11427 2.6791 0
M  V30 2413 N 227.627 0.131896 -1.57047 0
M  V30 2414 C 228.876 0.84044 -1.83356 0
M  V30 2415 C 229.189 1.81646 -0.725535 0
M  V30 2416 O 230.395 2.57025 -0.874659 0
M  V30 2417 C 228.851 1.54528 -3.25037 0
M  V30 2418 C 228.459 0.610902 -4.43815 0
M  V30 2419 C 230.203 2.23972 -3.60606 0
M  V30 2420 C 228.11 1.31823 -5.76521 0
M  V30 2421 H 227.04 0.317599 -0.683847 0
M  V30 2422 H 229.691 0.0931561 -1.83263 0
M  V30 2423 H 228.073 2.33873 -3.19561 0
M  V30 2424 H 229.247 -0.148407 -4.60561 0
M  V30 2425 H 227.562 0.0241016 -4.16393 0
M  V30 2426 H 230.159 2.77558 -4.57018 0
M  V30 2427 H 230.502 3.01173 -2.87403 0
M  V30 2428 H 231.035 1.51529 -3.6781 0
M  V30 2429 H 227.774 0.587771 -6.52859 0
M  V30 2430 H 227.294 2.04987 -5.63685 0
M  V30 2431 H 228.973 1.855 -6.19838 0
M  V30 2432 N 229.106 1.52395 0.401703 0
M  V30 2433 C 230.522 1.41363 0.740864 0
M  V30 2434 C 230.722 0.523982 1.94568 0
M  V30 2435 O 229.778 -0.00741204 2.52499 0
M  V30 2436 C 231.091 2.84011 0.987847 0
M  V30 2437 C 232.639 2.93404 1.09011 0
M  V30 2438 C 233.114 4.37036 1.3698 0
M  V30 2439 N 234.605 4.40304 1.43829 0
M  V30 2440 C 235.34 5.48508 1.67112 0
M  V30 2441 N 234.836 6.66819 1.87949 0
M  V30 2442 N 236.629 5.36034 1.69187 0
M  V30 2443 H 228.78 2.08765 -0.391262 0
M  V30 2444 H 231.043 0.941265 -0.112798 0
M  V30 2445 H 230.749 3.51265 0.174835 0
M  V30 2446 H 230.623 3.25502 1.906 0
M  V30 2447 H 233.01 2.26325 1.8937 0
M  V30 2448 H 233.091 2.55359 0.15015 0
M  V30 2449 H 232.735 5.04676 0.571353 0
M  V30 2450 H 232.665 4.72623 2.3224 0
M  V30 2451 H 235.156 3.55024 1.29486 0
M  V30 2452 H 235.469 7.45063 2.05185 0
M  V30 2453 H 233.814 6.6987 1.85199 0
M  V30 2454 H 237.005 4.42579 1.52451 0
M  V30 2455 H 237.178 6.20434 1.86993 0
M  V30 2456 N 230.584 -0.659388 1.43143 0
M  V30 2457 C 231.547 -1.75432 1.47501 0
M  V30 2458 C 232.547 -1.56707 0.360512 0
M  V30 2459 O 233.737 -1.62717 0.622002 0
M  V30 2460 C 230.869 -3.14239 1.32162 0
M  V30 2461 H 232.062 -1.7295 2.45006 0
M  V30 2462 H 229.615 -0.870469 1.29817 0
M  V30 2463 H 230.35 -3.22336 0.356401 0
M  V30 2464 H 230.135 -3.29235 2.12948 0
M  V30 2465 H 231.625 -3.94094 1.3813 0
M  V30 2466 N 232.062 -1.29571 -0.897171 0
M  V30 2467 C 233.012 -1.11539 -1.98855 0
M  V30 2468 C 233.996 -0.0340716 -1.60864 0
M  V30 2469 O 235.188 -0.256062 -1.75138 0
M  V30 2470 C 232.317 -0.796603 -3.3393 0
M  V30 2471 C 231.403 -1.91758 -3.78272 0
M  V30 2472 N 231.794 -3.16143 -3.94826 0
M  V30 2473 C 230.092 -1.81119 -4.07568 0
M  V30 2474 C 230.793 -3.89293 -4.32233 0
M  V30 2475 N 229.769 -3.17255 -4.41419 0
M  V30 2476 H 233.571 -2.05894 -2.09726 0
M  V30 2477 H 231.085 -1.20732 -1.08616 0
M  V30 2478 H 233.082 -0.648459 -4.11826 0
M  V30 2479 H 231.742 0.139003 -3.24402 0
M  V30 2480 H 232.753 -3.5157 -3.80288 0
M  V30 2481 H 229.43 -0.948461 -4.06584 0
M  V30 2482 H 230.82 -4.9635 -4.52865 0
M  V30 2483 N 233.54 1.10788 -1.12088 0
M  V30 2484 C 234.768 1.86461 -0.896651 0
M  V30 2485 C 235.183 1.80492 0.553912 0
M  V30 2486 O 234.54 1.19102 1.38278 0
M  V30 2487 C 234.591 3.35006 -1.35843 0
M  V30 2488 O 234.312 3.40866 -2.75213 0
M  V30 2489 C 235.813 4.27565 -1.1706 0
M  V30 2490 H 233.033 0.589425 -0.320654 0
M  V30 2491 H 235.577 1.40076 -1.48993 0
M  V30 2492 H 233.732 3.7887 -0.808458 0
M  V30 2493 H 234.146 4.33411 -2.9539 0
M  V30 2494 H 235.62 5.30007 -1.54263 0
M  V30 2495 H 236.097 4.3906 -0.110814 0
M  V30 2496 H 236.703 3.89501 -1.70789 0
M  V30 2497 N 235.018 0.912232 1.28515 0
M  V30 2498 C 236.429 0.591352 1.77087 0
M  V30 2499 C 236.78 -0.8933 1.74684 0
M  V30 2500 O 235.905 -1.69876 1.34056 0
M  V30 2501 C 236.5 1.06668 3.2157 0
M  V30 2502 C 235.059 0.79675 3.67871 0
M  V30 2503 C 234.206 1.23427 2.48316 0
M  V30 2504 H 237.157 1.09365 1.15 0
M  V30 2505 H 237.178 0.407455 3.78312 0
M  V30 2506 H 236.69 2.14726 3.23287 0
M  V30 2507 H 234.791 -0.270679 3.71616 0
M  V30 2508 H 234.904 1.40343 4.58084 0
M  V30 2509 H 233.268 0.653036 2.46186 0
M  V30 2510 H 234.051 2.32316 2.52753 0
M  V30 2511 N 236.496 -1.42363 0.676048 0
M  V30 2512 C 237.726 -2.05561 0.206967 0
M  V30 2513 C 238.134 -1.50887 -1.14148 0
M  V30 2514 O 237.477 -0.643933 -1.72044 0
M  V30 2515 C 237.539 -3.5944 0.0659508 0
M  V30 2516 C 237.203 -4.36812 1.34331 0
M  V30 2517 C 238.2 -4.67383 2.27704 0
M  V30 2518 C 235.885 -4.76429 1.59125 0
M  V30 2519 C 237.879 -5.36509 3.44147 0
M  V30 2520 C 235.566 -5.45294 2.75857 0
M  V30 2521 C 236.564 -5.75259 3.68193 0
M  V30 2522 O 236.252 -6.42712 4.82883 0
M  V30 2523 H 235.984 -0.668872 0.0979084 0
M  V30 2524 H 238.538 -1.83467 0.923531 0
M  V30 2525 H 236.768 -3.80197 -0.706204 0
M  V30 2526 H 238.457 -4.0427 -0.363418 0
M  V30 2527 H 239.223 -4.37275 2.09799 0
M  V30 2528 H 235.102 -4.52498 0.881258 0
M  V30 2529 H 238.646 -5.59814 4.16238 0
M  V30 2530 H 234.543 -5.7482 2.93688 0
M  V30 2531 H 235.311 -6.61204 4.82444 0
M  V30 2532 N 237.974 -0.419461 -1.51915 0
M  V30 2533 C 239.223 0.154346 -2.01109 0
M  V30 2534 C 239.536 1.45338 -1.30905 0
M  V30 2535 O 240.742 2.10906 -1.7097 0
M  V30 2536 C 239.198 0.325615 -3.58424 0
M  V30 2537 C 238.806 -0.961934 -4.37551 0
M  V30 2538 C 240.55 0.854155 -4.15818 0
M  V30 2539 C 238.457 -0.757287 -5.86531 0
M  V30 2540 H 237.387 0.0614563 -0.751491 0
M  V30 2541 H 240.038 -0.54649 -1.75173 0
M  V30 2542 H 238.42 1.08903 -3.80731 0
M  V30 2543 H 239.594 -1.7323 -4.26999 0
M  V30 2544 H 237.909 -1.41766 -3.91524 0
M  V30 2545 H 240.506 1.02346 -5.24814 0
M  V30 2546 H 240.849 1.83172 -3.73837 0
M  V30 2547 H 241.382 0.149528 -3.97519 0
M  V30 2548 H 238.121 -1.70671 -6.32892 0
M  V30 2549 H 237.641 -0.0264061 -5.99794 0
M  V30 2550 H 239.32 -0.403482 -6.45741 0
M  V30 2551 N 239.452 1.56882 -0.150215 0
M  V30 2552 C 240.4 2.18214 0.805313 0
M  V30 2553 C 241.394 1.14006 1.25296 0
M  V30 2554 O 242.6 1.3225 1.22107 0
M  V30 2555 H 238.975 0.698762 0.277913 0
M  V30 2556 H 240.946 2.97231 0.263862 0
M  V30 2557 C 239.695 2.82065 2.03309 0
M  V30 2558 H 239.018 3.61968 1.69763 0
M  V30 2559 H 240.458 3.28477 2.68103 0
M  V30 2560 C 238.917 1.80739 2.84315 0
M  V30 2561 O 239.447 1.27983 3.80767 0
M  V30 2562 N 237.653 1.4997 2.48913 0
M  V30 2563 H 237.2 1.93062 1.70542 0
M  V30 2564 H 237.158 0.824217 3.03404 0
M  V30 2565 N 240.93 -0.123565 1.57115 0
M  V30 2566 C 242.179 -0.830704 1.83799 0
M  V30 2567 C 242.492 -1.81259 0.735158 0
M  V30 2568 O 243.698 -2.56558 0.888278 0
M  V30 2569 C 242.154 -1.52802 3.25852 0
M  V30 2570 C 241.762 -0.587356 4.44133 0
M  V30 2571 C 243.506 -2.22056 3.61789 0
M  V30 2572 C 241.413 -1.28764 5.77212 0
M  V30 2573 H 240.343 -0.313967 0.685522 0
M  V30 2574 H 242.994 -0.0834359 1.8331 0
M  V30 2575 H 241.376 -2.32175 3.20797 0
M  V30 2576 H 242.55 0.172829 4.60476 0
M  V30 2577 H 240.865 -0.00201892 4.164 0
M  V30 2578 H 243.462 -2.75131 4.58483 0
M  V30 2579 H 243.805 -2.99644 2.88997 0
M  V30 2580 H 244.338 -1.49576 3.68608 0
M  V30 2581 H 241.077 -0.55314 6.53162 0
M  V30 2582 H 240.597 -2.01995 5.64764 0
M  V30 2583 H 242.276 -1.8221 6.20813 0
M  V30 2584 N 242.408 -1.52605 -0.393616 0
M  V30 2585 C 243.638 -1.71046 -1.15874 0
M  V30 2586 C 244.046 -0.426483 -1.84331 0
M  V30 2587 O 243.389 0.608513 -1.73329 0
M  V30 2588 C 243.451 -2.80118 -2.25332 0
M  V30 2589 C 243.115 -4.21381 -1.76881 0
M  V30 2590 C 244.112 -5.04697 -1.24808 0
M  V30 2591 C 241.797 -4.67683 -1.83244 0
M  V30 2592 C 243.791 -6.32393 -0.797387 0
M  V30 2593 C 241.478 -5.95364 -1.37787 0
M  V30 2594 C 242.476 -6.77549 -0.861208 0
M  V30 2595 O 242.164 -8.02837 -0.413252 0
M  V30 2596 H 241.896 -0.576155 -0.353583 0
M  V30 2597 H 244.45 -2.00018 -0.467123 0
M  V30 2598 H 242.68 -2.46557 -2.97904 0
M  V30 2599 H 244.369 -2.87006 -2.87023 0
M  V30 2600 H 245.135 -4.70111 -1.19252 0
M  V30 2601 H 241.014 -4.03805 -2.22401 0
M  V30 2602 H 244.558 -6.9649 -0.393437 0
M  V30 2603 H 240.455 -6.29455 -1.43026 0
M  V30 2604 H 241.223 -8.16749 -0.53515 0
M  V30 2605 N 243.887 0.651787 -1.4349 0
M  V30 2606 C 244.835 1.78586 -1.49029 0
M  V30 2607 C 245.829 1.65448 -0.363767 0
M  V30 2608 O 247.035 1.71777 -0.537821 0
M  V30 2609 H 243.41 0.589236 -0.467231 0
M  V30 2610 H 245.381 1.71035 -2.44519 0
M  V30 2611 C 244.13 3.16851 -1.43181 0
M  V30 2612 H 243.453 3.27598 -2.29171 0
M  V30 2613 H 244.893 3.96156 -1.51118 0
M  V30 2614 C 243.352 3.36568 -0.149616 0
M  V30 2615 O 243.882 3.93885 0.788509 0
M  V30 2616 N 242.088 2.90539 -0.0593484 0
M  V30 2617 H 241.635 2.4408 -0.823575 0
M  V30 2618 H 241.593 3.04108 0.797853 0
M  V30 2619 N 245.365 1.30045 0.890287 0
M  V30 2620 C 246.605 1.19839 1.65584 0
M  V30 2621 C 246.969 -0.244175 1.90441 0
M  V30 2622 O 248.17 -0.469378 2.6467 0
M  V30 2623 C 246.441 1.99876 2.96284 0
M  V30 2624 S 248 2.06309 3.87275 0
M  V30 2625 H 244.818 0.427157 0.568382 0
M  V30 2626 H 247.42 1.64453 1.05715 0
M  V30 2627 H 246.124 3.03809 2.75913 0
M  V30 2628 H 245.655 1.55903 3.61189 0
M  V30 2629 H 247.67 1.18661 4.81803 0
M  V30 2630 N 246.843 -1.10192 1.12674 0
M  V30 2631 C 247.753 -2.20172 0.810026 0
M  V30 2632 C 248.769 -1.72821 -0.202188 0
M  V30 2633 O 249.945 -2.01369 -0.0351691 0
M  V30 2634 C 247.01 -3.45631 0.272007 0
M  V30 2635 C 246.071 -4.07704 1.34447 0
M  V30 2636 C 245.304 -5.27175 0.832029 0
M  V30 2637 O 245.527 -5.69425 -0.333284 0
M  V30 2638 O 244.461 -5.80168 1.60277 0
M  V30 2639 H 248.287 -2.49701 1.72867 0
M  V30 2640 H 245.872 -1.18977 0.903597 0
M  V30 2641 H 247.754 -4.21394 -0.0230219 0
M  V30 2642 H 246.429 -3.17723 -0.619164 0
M  V30 2643 H 245.336 -3.33614 1.6927 0
M  V30 2644 H 246.669 -4.3982 2.2095 0
M  V30 2645 N 248.321 -0.919034 -1.28029 0
M  V30 2646 C 249.732 -0.600735 -1.76771 0
M  V30 2647 C 250.083 0.884024 -1.75156 0
M  V30 2648 O 249.208 1.69163 -1.34956 0
M  V30 2649 C 249.803 -1.08372 -3.21 0
M  V30 2650 C 248.362 -0.816248 -3.67443 0
M  V30 2651 C 247.509 -1.24742 -2.47658 0
M  V30 2652 H 250.46 -1.09974 -1.14418 0
M  V30 2653 H 250.481 -0.427512 -3.78091 0
M  V30 2654 H 249.993 -2.16437 -3.22144 0
M  V30 2655 H 248.094 0.250968 -3.71754 0
M  V30 2656 H 248.207 -1.4277 -4.57333 0
M  V30 2657 H 246.571 -0.666083 -2.45836 0
M  V30 2658 H 247.354 -2.33653 -2.51518 0
M  V30 2659 N 249.799 1.42003 -0.683588 0
M  V30 2660 C 250.762 2.29191 -0.0198243 0
M  V30 2661 C 251.762 1.43773 0.72013 0
M  V30 2662 O 252.952 1.65061 0.556815 0
M  V30 2663 C 250.084 3.26435 0.982487 0
M  V30 2664 H 251.277 2.8938 -0.787345 0
M  V30 2665 H 248.83 1.49789 -0.446418 0
M  V30 2666 H 249.565 2.71203 1.77819 0
M  V30 2667 H 249.35 3.89449 0.455182 0
M  V30 2668 H 250.84 3.918 1.44508 0
M  V30 2669 N 251.277 0.427512 1.51691 0
M  V30 2670 C 252.225 -0.403359 2.29076 0
M  V30 2671 C 253.219 -1.02962 1.34518 0
M  V30 2672 O 254.425 -0.965715 1.51901 0
M  V30 2673 H 250.8 -0.148879 0.737115 0
M  V30 2674 H 252.771 0.270295 2.97173 0
M  V30 2675 C 251.52 -1.49763 3.13794 0
M  V30 2676 H 250.843 -1.02508 3.86435 0
M  V30 2677 H 252.283 -2.05244 3.71014 0
M  V30 2678 C 250.742 -2.47536 2.28533 0
M  V30 2679 O 251.272 -3.51848 1.93819 0
M  V30 2680 N 249.478 -2.18187 1.91945 0
M  V30 2681 H 249.025 -1.33389 2.20375 0
M  V30 2682 H 248.983 -2.83848 1.35195 0
M  V30 2683 N 252.755 -1.56801 0.158532 0
M  V30 2684 C 254.166 -1.83189 -0.360366 0
M  V30 2685 C 254.517 -1.07778 -1.63946 0
M  V30 2686 O 253.642 -0.326718 -2.13919 0
M  V30 2687 C 254.237 -3.32297 -0.660595 0
M  V30 2688 C 252.796 -3.59227 -1.12398 0
M  V30 2689 C 251.943 -2.76877 -0.153097 0
M  V30 2690 H 254.894 -1.54008 0.383031 0
M  V30 2691 H 254.915 -3.4908 -1.51405 0
M  V30 2692 H 254.427 -3.87156 0.270527 0
M  V30 2693 H 252.528 -3.09766 -2.07064 0
M  V30 2694 H 252.641 -4.67632 -1.04197 0
M  V30 2695 H 251.005 -2.46319 -0.647983 0
M  V30 2696 H 251.788 -3.34511 0.77182 0
M  V30 2697 N 254.233 0.115231 -1.57178 0
M  V30 2698 C 255.458 0.840354 -1.89612 0
M  V30 2699 C 255.883 1.72464 -0.750845 0
M  V30 2700 O 255.241 1.78826 0.298478 0
M  V30 2701 C 255.289 1.64654 -3.20814 0
M  V30 2702 O 254.393 2.7538 -3.06985 0
M  V30 2703 H 253.734 0.232158 -0.622092 0
M  V30 2704 H 256.264 0.0964977 -2.04372 0
M  V30 2705 H 256.274 2.03499 -3.53627 0
M  V30 2706 H 254.949 0.997416 -4.03763 0
M  V30 2707 H 253.526 2.3971 -2.85646 0
M  V30 2708 N 255.711 1.52812 0.385517 0
M  V30 2709 C 256.621 1.80766 1.49535 0
M  V30 2710 C 257.637 0.694651 1.59532 0
M  V30 2711 O 258.813 0.982611 1.75803 0
M  V30 2712 C 255.878 1.97381 2.85029 0
M  V30 2713 C 254.939 3.21295 2.84724 0
M  V30 2714 C 254.172 3.37108 4.13756 0
M  V30 2715 O 254.395 2.5765 5.08893 0
M  V30 2716 O 253.329 4.30378 4.20783 0
M  V30 2717 H 257.155 2.75015 1.28842 0
M  V30 2718 H 254.74 1.37946 0.573697 0
M  V30 2719 H 256.622 2.09996 3.65349 0
M  V30 2720 H 255.297 1.06322 3.05741 0
M  V30 2721 H 254.204 3.1412 2.03174 0
M  V30 2722 H 255.537 4.12212 2.68965 0
M  V30 2723 N 257.189 -0.644168 1.43834 0
M  V30 2724 C 258.136 -1.75671 1.49694 0
M  V30 2725 C 259.106 -1.6246 0.345809 0
M  V30 2726 O 260.291 -1.82573 0.554234 0
M  V30 2727 C 257.431 -3.13867 1.43463 0
M  V30 2728 C 256.544 -3.38147 2.6885 0
M  V30 2729 C 255.679 -4.66241 2.54544 0
M  V30 2730 C 254.718 -4.83657 3.75157 0
M  V30 2731 N 253.855 -6.03016 3.59605 0
M  V30 2732 H 258.695 -1.69998 2.44754 0
M  V30 2733 H 256.232 -0.829458 1.21484 0
M  V30 2734 H 258.19 -3.9377 1.37843 0
M  V30 2735 H 256.82 -3.18588 0.519783 0
M  V30 2736 H 255.872 -2.52276 2.84712 0
M  V30 2737 H 257.184 -3.46899 3.58417 0
M  V30 2738 H 256.338 -5.54285 2.46683 0
M  V30 2739 H 255.077 -4.59826 1.62516 0
M  V30 2740 H 254.082 -3.94046 3.83416 0
M  V30 2741 H 255.307 -4.91896 4.68204 0
M  V30 2742 H 253.253 -5.97715 2.7032 0
M  V30 2743 H 253.17 -6.12766 4.42779 0
M  V30 2744 H 254.438 -6.93657 3.55613 0
M  V30 2745 N 258.668 -1.30515 -0.883378 0
M  V30 2746 C 259.616 -1.16941 -2.01066 0
M  V30 2747 C 260.61 -0.0809148 -1.69207 0
M  V30 2748 O 261.816 -0.241877 -1.78367 0
M  V30 2749 H 258.191 -0.361705 -0.659298 0
M  V30 2750 H 260.162 -2.12344 -2.09649 0
M  V30 2751 C 258.911 -0.879694 -3.36388 0
M  V30 2752 H 258.234 -1.70936 -3.61415 0
M  V30 2753 H 259.674 -0.82483 -4.159 0
M  V30 2754 C 258.133 0.417409 -3.34304 0
M  V30 2755 O 258.663 1.43843 -3.75063 0
M  V30 2756 N 256.869 0.429141 -2.87414 0
M  V30 2757 H 256.416 -0.402222 -2.5444 0
M  V30 2758 H 256.374 1.29696 -2.86403 0
M  V30 2759 N 260.146 1.09593 -1.13257 0
M  V30 2760 C 261.371 1.8604 -0.916732 0
M  V30 2761 C 261.796 1.80504 0.529146 0
M  V30 2762 O 261.154 1.18127 1.37534 0
M  V30 2763 C 261.202 3.32017 -1.40703 0
M  V30 2764 O 260.306 4.08141 -0.591153 0
M  V30 2765 H 259.647 0.576943 -0.328683 0
M  V30 2766 H 262.177 1.38405 -1.50682 0
M  V30 2767 H 262.187 3.82865 -1.4099 0
M  V30 2768 H 260.862 3.35361 -2.45979 0
M  V30 2769 H 259.439 3.67084 -0.656005 0
M  V30 2770 N 261.624 0.925811 1.2754 0
M  V30 2771 C 263.035 0.610102 1.7645 0
M  V30 2772 C 263.386 -0.874723 1.75622 0
M  V30 2773 O 262.511 -1.68444 1.35851 0
M  V30 2774 C 263.106 1.10073 3.20421 0
M  V30 2775 C 261.665 0.835723 3.67005 0
M  V30 2776 C 260.812 1.26054 2.46993 0
M  V30 2777 H 263.763 1.10579 1.13833 0
M  V30 2778 H 263.784 0.447557 3.77859 0
M  V30 2779 H 263.296 2.18143 3.20991 0
M  V30 2780 H 261.397 -0.231249 3.71882 0
M  V30 2781 H 261.51 1.45193 4.56569 0
M  V30 2782 H 259.874 0.679111 2.45479 0
M  V30 2783 H 260.657 2.34984 2.50275 0
M  V30 2784 N 263.102 -1.41638 0.69111 0
M  V30 2785 C 264.327 -2.06148 0.227583 0
M  V30 2786 C 264.752 -1.51652 -1.11281 0
M  V30 2787 O 264.11 -0.64164 -1.69566 0
M  V30 2788 C 264.158 -3.60095 0.190858 0
M  V30 2789 O 263.262 -4.03845 -0.835664 0
M  V30 2790 H 262.603 -0.654434 0.112306 0
M  V30 2791 H 265.133 -1.81484 0.944714 0
M  V30 2792 H 265.143 -4.07995 0.020207 0
M  V30 2793 H 263.818 -3.99129 1.16915 0
M  V30 2794 H 262.395 -3.67458 -0.63473 0
M  V30 2795 N 264.58 -0.43555 -1.51462 0
M  V30 2796 C 265.808 0.130242 -2.0649 0
M  V30 2797 C 266.223 1.36614 -1.30315 0
M  V30 2798 O 265.58 1.78869 -0.362223 0
M  V30 2799 C 265.631 0.454253 -3.58635 0
M  V30 2800 O 265.352 -0.73259 -4.31931 0
M  V30 2801 C 266.853 1.07091 -4.3017 0
M  V30 2802 H 264.073 0.00871669 -0.670943 0
M  V30 2803 H 266.617 -0.614117 -1.95061 0
M  V30 2804 H 264.772 1.14851 -3.69984 0
M  V30 2805 H 265.186 -0.455787 -5.22516 0
M  V30 2806 H 266.66 1.24764 -5.37716 0
M  V30 2807 H 267.137 2.05144 -3.88346 0
M  V30 2808 H 267.743 0.416089 -4.2326 0
M  V30 2809 N 266.058 1.56714 -0.166846 0
M  V30 2810 C 266.99 2.14914 0.796537 0
M  V30 2811 C 268.003 1.10357 1.19688 0
M  V30 2812 O 269.192 1.37561 1.13751 0
M  V30 2813 C 266.292 2.67326 2.08303 0
M  V30 2814 C 265.465 3.96493 1.84696 0
M  V30 2815 C 264.524 4.34014 2.97521 0
M  V30 2816 O 263.55 5.01973 2.6835 0
M  V30 2817 N 264.752 3.95208 4.25196 0
M  V30 2818 H 267.517 2.98205 0.299006 0
M  V30 2819 H 265.078 1.61892 0.0160839 0
M  V30 2820 H 267.07 2.89428 2.82867 0
M  V30 2821 H 265.64 1.88649 2.4926 0
M  V30 2822 H 264.86 3.82814 0.940602 0
M  V30 2823 H 266.148 4.8086 1.66285 0
M  V30 2824 H 265.546 3.40487 4.51758 0
M  V30 2825 H 264.103 4.2232 4.96477 0
M  V30 2826 N 267.536 -0.106894 1.57237 0
M  V30 2827 C 268.766 -0.825191 1.89405 0
M  V30 2828 C 269.174 -1.73374 0.757496 0
M  V30 2829 O 268.517 -1.81552 -0.280115 0
M  V30 2830 C 268.579 -1.70102 3.1671 0
M  V30 2831 C 268.243 -0.965523 4.46684 0
M  V30 2832 C 269.24 -0.300741 5.19029 0
M  V30 2833 C 266.925 -0.943105 4.93367 0
M  V30 2834 C 268.919 0.376622 6.36286 0
M  V30 2835 C 266.606 -0.261949 6.10538 0
M  V30 2836 C 267.604 0.396748 6.81847 0
M  V30 2837 O 267.292 1.06701 7.96787 0
M  V30 2838 H 267.024 -0.241852 0.631255 0
M  V30 2839 H 269.578 -0.0921491 2.05193 0
M  V30 2840 H 267.808 -2.47601 2.97036 0
M  V30 2841 H 269.497 -2.29483 3.34802 0
M  V30 2842 H 270.263 -0.309599 4.84011 0
M  V30 2843 H 266.142 -1.44524 4.3776 0
M  V30 2844 H 269.686 0.891334 6.91882 0
M  V30 2845 H 265.583 -0.250896 6.45012 0
M  V30 2846 H 266.351 0.972707 8.127 0
M  V30 2847 N 269.014 -1.53014 -0.377408 0
M  V30 2848 C 270.254 -1.70318 -1.1301 0
M  V30 2849 C 270.618 -0.439538 -1.86901 0
M  V30 2850 O 271.819 -0.489095 -2.64313 0
M  V30 2851 C 270.09 -2.91125 -2.07319 0
M  V30 2852 S 271.649 -3.29075 -2.90268 0
M  V30 2853 H 268.467 -0.599426 -0.382374 0
M  V30 2854 H 271.069 -1.91089 -0.412933 0
M  V30 2855 H 269.773 -3.81303 -1.51777 0
M  V30 2856 H 269.304 -2.7272 -2.83526 0
M  V30 2857 H 271.319 -2.80165 -4.09539 0
M  V30 2858 N 270.492 0.636531 -1.44174 0
M  V30 2859 C 271.722 1.42146 -1.49927 0
M  V30 2860 C 272.13 1.88812 -0.121063 0
M  V30 2861 O 271.473 1.61126 0.882267 0
M  V30 2862 C 271.535 2.67883 -2.39748 0
M  V30 2863 C 271.199 2.43048 -3.8701 0
M  V30 2864 C 272.196 2.05216 -4.77684 0
M  V30 2865 C 269.881 2.56856 -4.3166 0
M  V30 2866 C 271.875 1.81512 -6.11009 0
M  V30 2867 C 269.562 2.32766 -5.65034 0
M  V30 2868 C 270.56 1.95152 -6.54526 0
M  V30 2869 O 270.248 1.71326 -7.85431 0
M  V30 2870 H 269.98 0.442567 -0.51099 0
M  V30 2871 H 272.534 0.786158 -1.8976 0
M  V30 2872 H 270.764 3.34032 -1.94832 0
M  V30 2873 H 272.453 3.29874 -2.36513 0
M  V30 2874 H 273.219 1.94111 -4.44462 0
M  V30 2875 H 269.098 2.85104 -3.62266 0
M  V30 2876 H 272.642 1.52077 -6.80822 0
M  V30 2877 H 268.539 2.43479 -5.97819 0
M  V30 2878 H 269.307 1.85616 -7.97176 0
M  V30 2879 N 271.97 1.30982 0.876444 0
M  V30 2880 C 273.195 1.23373 1.66715 0
M  V30 2881 C 273.62 -0.19885 1.87046 0
M  V30 2882 O 272.978 -1.1427 1.40756 0
M  V30 2883 C 273.026 1.97644 3.01611 0
M  V30 2884 O 272.13 1.30935 3.91062 0
M  V30 2885 H 271.471 0.426279 0.509099 0
M  V30 2886 H 274.001 1.72944 1.09323 0
M  V30 2887 H 274.011 2.06992 3.51594 0
M  V30 2888 H 272.686 3.01829 2.86133 0
M  V30 2889 H 271.263 1.29996 3.49507 0
M  V30 2890 N 273.449 -1.08991 1.13837 0
M  V30 2891 C 274.698 -1.80631 0.897509 0
M  V30 2892 C 275.011 -1.86872 -0.57777 0
M  V30 2893 O 276.217 -2.54866 -0.935701 0
M  V30 2894 C 274.673 -3.24517 1.55618 0
M  V30 2895 C 274.281 -3.26529 3.0673 0
M  V30 2896 C 276.025 -4.00882 1.3962 0
M  V30 2897 C 273.932 -4.64965 3.65461 0
M  V30 2898 H 272.862 -0.67691 0.332129 0
M  V30 2899 H 275.513 -1.2246 1.3666 0
M  V30 2900 H 273.895 -3.82778 1.01476 0
M  V30 2901 H 275.069 -2.78008 3.67489 0
M  V30 2902 H 273.384 -2.63656 3.22296 0
M  V30 2903 H 275.981 -5.03167 1.80906 0
M  V30 2904 H 276.324 -4.14896 0.341578 0
M  V30 2905 H 276.857 -3.49075 1.90766 0
M  V30 2906 H 273.596 -4.56153 4.70749 0
M  V30 2907 H 273.116 -5.13792 3.09481 0
M  V30 2908 H 274.795 -5.3394 3.654 0
M  V30 2909 N 274.927 -0.932562 -1.27047 0
M  V30 2910 C 275.859 -0.392734 -2.2581 0
M  V30 2911 C 276.872 0.479241 -1.55586 0
M  V30 2912 O 278.061 0.291078 -1.76111 0
M  V30 2913 C 275.161 0.455456 -3.35826 0
M  V30 2914 C 274.334 -0.398355 -4.35582 0
M  V30 2915 C 273.393 0.387985 -5.24768 0
M  V30 2916 O 272.419 -0.206003 -5.68827 0
M  V30 2917 N 273.621 1.68664 -5.55457 0
M  V30 2918 H 276.386 -1.24173 -2.72766 0
M  V30 2919 H 273.947 -0.800511 -1.40725 0
M  V30 2920 H 275.939 0.988692 -3.92437 0
M  V30 2921 H 274.509 1.20522 -2.88432 0
M  V30 2922 H 273.729 -1.11286 -3.78165 0
M  V30 2923 H 275.017 -0.981889 -4.99236 0
M  V30 2924 H 274.415 2.19147 -5.21528 0
M  V30 2925 H 272.972 2.1663 -6.14748 0
M  V30 2926 N 276.405 1.4127 -0.698611 0
M  V30 2927 C 277.63 2.06024 -0.238512 0
M  V30 2928 C 278.055 1.5224 1.10475 0
M  V30 2929 O 277.413 0.650623 1.69223 0
M  V30 2930 C 277.461 3.59988 -0.209952 0
M  V30 2931 O 276.565 4.04282 0.814235 0
M  V30 2932 H 275.906 0.653829 -0.115775 0
M  V30 2933 H 278.436 1.8098 -0.954326 0
M  V30 2934 H 278.446 4.07979 -0.0418436 0
M  V30 2935 H 277.121 3.98503 -1.1903 0
M  V30 2936 H 275.698 3.6779 0.615234 0
M  V30 2937 N 277.883 0.443576 1.51229 0
M  V30 2938 C 278.813 -0.355142 2.30783 0
M  V30 2939 C 279.794 -1.0154 1.36468 0
M  V30 2940 O 280.979 -1.01785 1.65389 0
M  V30 2941 C 278.109 -1.45312 3.15439 0
M  V30 2942 C 277.063 -0.916002 4.18083 0
M  V30 2943 C 276.389 -2.1102 4.91299 0
M  V30 2944 C 277.689 0.0538602 5.22272 0
M  V30 2945 H 279.383 0.308767 2.97804 0
M  V30 2946 H 276.929 0.149937 1.43217 0
M  V30 2947 H 278.882 -2.01914 3.69876 0
M  V30 2948 H 277.606 -2.14541 2.46252 0
M  V30 2949 H 276.265 -0.372145 3.64706 0
M  V30 2950 H 275.913 -2.78882 4.18609 0
M  V30 2951 H 275.613 -1.75717 5.60712 0
M  V30 2952 H 277.137 -2.68164 5.48562 0
M  V30 2953 H 278.551 -0.422069 5.71744 0
M  V30 2954 H 276.948 0.319776 5.99247 0
M  V30 2955 H 278.018 0.98858 4.74716 0
M  V30 2956 N 279.361 -1.56624 0.175154 0
M  V30 2957 C 280.608 -1.96999 -0.468811 0
M  V30 2958 C 280.936 -1.06129 -1.62994 0
M  V30 2959 O 280.191 -0.0961771 -1.95464 0
M  V30 2960 C 280.49 -3.43419 -0.989864 0
M  V30 2961 C 280.156 -4.50866 0.0557687 0
M  V30 2962 C 278.818 -4.79975 0.343134 0
M  V30 2963 C 281.17 -5.15551 0.765308 0
M  V30 2964 C 278.498 -5.71066 1.34536 0
M  V30 2965 C 280.85 -6.07724 1.75654 0
M  V30 2966 C 279.514 -6.35199 2.05132 0
M  V30 2967 H 278.784 -0.720869 -0.17155 0
M  V30 2968 H 281.431 -1.89616 0.267924 0
M  V30 2969 H 279.736 -3.47772 -1.80449 0
M  V30 2970 H 281.433 -3.72002 -1.49719 0
M  V30 2971 H 278.023 -4.28229 -0.178381 0
M  V30 2972 H 282.207 -4.9317 0.556513 0
M  V30 2973 H 277.463 -5.90635 1.57988 0
M  V30 2974 H 281.637 -6.56912 2.31169 0
M  V30 2975 H 279.264 -7.05584 2.8294 0
M  V30 2976 N 280.839 0.0985539 -1.57292 0
M  V30 2977 C 281.769 1.12064 -2.04851 0
M  V30 2978 C 282.75 1.41981 -0.936767 0
M  V30 2979 O 283.935 1.52071 -1.20781 0
M  V30 2980 C 281.065 2.44144 -2.47004 0
M  V30 2981 C 280.019 2.28643 -3.6181 0
M  V30 2982 C 279.345 3.65869 -3.89929 0
M  V30 2983 C 280.645 1.72986 -4.92822 0
M  V30 2984 H 282.339 0.724979 -2.9049 0
M  V30 2985 H 279.885 0.34729 -1.39749 0
M  V30 2986 H 281.838 3.15914 -2.78884 0
M  V30 2987 H 280.562 2.85639 -1.5836 0
M  V30 2988 H 279.221 1.59318 -3.30172 0
M  V30 2989 H 278.869 4.04885 -2.98458 0
M  V30 2990 H 278.569 3.56344 -4.67218 0
M  V30 2991 H 280.093 4.39112 -4.2428 0
M  V30 2992 H 281.507 2.34593 -5.23105 0
M  V30 2993 H 279.904 1.74229 -5.74251 0
M  V30 2994 H 280.974 0.689007 -4.7998 0
M  V30 2995 N 282.317 1.53212 0.369288 0
M  V30 2996 C 283.565 1.68881 1.11012 0
M  V30 2997 C 283.886 0.441285 1.89941 0
M  V30 2998 O 283.156 -0.544623 1.88177 0
M  V30 2999 H 281.736 0.622569 0.412816 0
M  V30 3000 H 284.398 1.90391 0.416802 0
M  V30 3001 H 283.494 2.54822 1.80201 0
M  V30 3002 N 283.795 -0.628877 1.44509 0
M  V30 3003 C 285.044 -1.38437 1.4669 0
M  V30 3004 C 285.357 -1.95322 0.104272 0
M  V30 3005 O 286.563 -2.715 0.00362163 0
M  V30 3006 C 285.019 -2.50659 2.5826 0
M  V30 3007 C 284.627 -2.00277 4.0074 0
M  V30 3008 C 286.371 -3.27844 2.69664 0
M  V30 3009 C 284.278 -3.09854 5.0373 0
M  V30 3010 H 283.208 -0.520245 0.545766 0
M  V30 3011 H 285.859 -0.676313 1.70582 0
M  V30 3012 H 284.241 -3.2405 2.27612 0
M  V30 3013 H 285.415 -1.33736 4.40966 0
M  V30 3014 H 283.73 -1.35901 3.93599 0
M  V30 3015 H 286.327 -4.09534 3.43781 0
M  V30 3016 H 286.67 -3.77471 1.75559 0
M  V30 3017 H 287.203 -2.61543 2.99733 0
M  V30 3018 H 283.942 -2.65168 5.99472 0
M  V30 3019 H 283.462 -3.7503 4.68095 0
M  V30 3020 H 285.141 -3.74592 5.27532 0
M  V30 3021 N 285.273 -1.31445 -0.869486 0
M  V30 3022 C 286.203 -1.21727 -1.99261 0
M  V30 3023 C 287.184 -0.104359 -1.6978 0
M  V30 3024 O 288.369 -0.289038 -1.92037 0
M  V30 3025 C 285.499 -0.924317 -3.34774 0
M  V30 3026 C 284.453 -1.99685 -3.78563 0
M  V30 3027 C 283.779 -1.55658 -5.11541 0
M  V30 3028 C 285.079 -3.41003 -3.95619 0
M  V30 3029 H 286.773 -2.1569 -2.07649 0
M  V30 3030 H 284.319 -1.03839 -0.997675 0
M  V30 3031 H 286.272 -0.842934 -4.12883 0
M  V30 3032 H 284.996 0.0509793 -3.2656 0
M  V30 3033 H 283.655 -2.06813 -3.02694 0
M  V30 3034 H 283.303 -0.569132 -4.9977 0
M  V30 3035 H 283.003 -2.27409 -5.41811 0
M  V30 3036 H 284.527 -1.48928 -5.92159 0
M  V30 3037 H 285.941 -3.36547 -4.64122 0
M  V30 3038 H 284.338 -4.10975 -4.37286 0
M  V30 3039 H 285.408 -3.81754 -2.98985 0
M  V30 3040 N 286.751 1.08385 -1.14413 0
M  V30 3041 C 287.976 1.85057 -0.936413 0
M  V30 3042 C 288.401 1.81055 0.509971 0
M  V30 3043 O 287.759 1.1958 1.36273 0
M  V30 3044 C 287.807 3.30505 -1.44217 0
M  V30 3045 O 286.911 4.07491 -0.634409 0
M  V30 3046 H 286.252 0.573425 -0.334784 0
M  V30 3047 H 288.782 1.36799 -1.52142 0
M  V30 3048 H 288.792 3.81348 -1.45043 0
M  V30 3049 H 287.467 3.32734 -2.49522 0
M  V30 3050 H 286.044 3.66368 -0.694902 0
M  V30 3051 N 288.23 0.939286 1.26551 0
M  V30 3052 C 289.476 0.586715 1.94128 0
M  V30 3053 C 289.809 -0.8717 1.73537 0
M  V30 3054 O 289.084 -1.62339 1.07127 0
M  V30 3055 C 289.367 0.927497 3.4795 0
M  V30 3056 C 289.22 2.44052 3.77834 0
M  V30 3057 C 290.539 0.441569 4.37879 0
M  V30 3058 H 287.658 0.21463 0.705055 0
M  V30 3059 H 290.3 1.17316 1.49455 0
M  V30 3060 H 288.45 0.428431 3.8613 0
M  V30 3061 H 290.122 3.01216 3.4938 0
M  V30 3062 H 288.365 2.8848 3.23978 0
M  V30 3063 H 289.036 2.62947 4.85348 0
M  V30 3064 H 291.512 0.869448 4.06915 0
M  V30 3065 H 290.388 0.708856 5.44304 0
M  V30 3066 H 290.649 -0.658467 4.37169 0
M  V30 3067 N 289.708 -1.40897 0.706093 0
M  V30 3068 C 290.641 -2.282 -0.00328781 0
M  V30 3069 C 291.619 -1.42816 -0.77732 0
M  V30 3070 O 292.803 -1.72237 -0.765944 0
M  V30 3071 C 289.93 -3.23226 -1.01205 0
M  V30 3072 C 288.976 -4.25222 -0.329955 0
M  V30 3073 S 289.809 -5.27269 0.935298 0
M  V30 3074 C 290.965 -6.25859 -0.0716061 0
M  V30 3075 H 291.198 -2.88016 0.737143 0
M  V30 3076 H 288.731 -1.46191 0.496756 0
M  V30 3077 H 290.689 -3.78503 -1.58888 0
M  V30 3078 H 289.35 -2.62485 -1.72513 0
M  V30 3079 H 288.543 -4.92023 -1.09221 0
M  V30 3080 H 288.145 -3.73595 0.174069 0
M  V30 3081 H 290.437 -6.71204 -0.921521 0
M  V30 3082 H 291.38 -7.0586 0.562765 0
M  V30 3083 H 291.788 -5.62852 -0.431088 0
M  V30 3084 N 291.186 -0.45159 -1.50991 0
M  V30 3085 C 292.116 0.342898 -2.30969 0
M  V30 3086 C 293.097 1.00815 -1.37005 0
M  V30 3087 O 294.282 1.00907 -1.65926 0
M  V30 3088 C 291.412 1.43637 -3.16205 0
M  V30 3089 C 290.366 0.893818 -4.18563 0
M  V30 3090 C 289.692 2.08411 -4.92411 0
M  V30 3091 C 290.992 -0.0815568 -5.22236 0
M  V30 3092 H 292.686 -0.324556 -2.97636 0
M  V30 3093 H 290.232 -0.157531 -1.43136 0
M  V30 3094 H 292.185 1.9995 -3.70942 0
M  V30 3095 H 290.909 2.13232 -2.47386 0
M  V30 3096 H 289.568 0.352798 -3.64898 0
M  V30 3097 H 289.216 2.76658 -4.20082 0
M  V30 3098 H 288.916 1.72741 -5.61636 0
M  V30 3099 H 290.44 2.65251 -5.49976 0
M  V30 3100 H 291.854 0.391742 -5.7196 0
M  V30 3101 H 290.251 -0.351551 -5.99069 0
M  V30 3102 H 291.321 -1.01374 -4.74185 0
M  V30 3103 N 292.664 1.56529 -0.183458 0
M  V30 3104 C 293.913 1.96419 0.458511 0
M  V30 3105 C 294.226 1.0727 1.63562 0
M  V30 3106 O 295.432 1.36893 2.34462 0
M  V30 3107 C 293.888 3.49298 0.867122 0
M  V30 3108 C 293.496 4.47092 -0.285057 0
M  V30 3109 C 295.24 3.97983 1.47683 0
M  V30 3110 C 293.147 5.91225 0.143862 0
M  V30 3111 H 292.077 0.733394 0.175071 0
M  V30 3112 H 294.728 1.81448 -0.273624 0
M  V30 3113 H 293.11 3.59731 1.65559 0
M  V30 3114 H 294.284 4.48383 -1.0625 0
M  V30 3115 H 292.599 4.08535 -0.805503 0
M  V30 3116 H 295.196 5.03134 1.80999 0
M  V30 3117 H 295.539 3.41618 2.37914 0
M  V30 3118 H 296.072 3.90617 0.752562 0
M  V30 3119 H 292.811 6.5149 -0.723974 0
M  V30 3120 H 292.331 5.93214 0.886413 0
M  V30 3121 H 294.01 6.44362 0.583628 0
M  V30 3122 N 294.142 -0.090211 1.57342 0
M  V30 3123 C 295.389 -0.792807 1.86335 0
M  V30 3124 C 295.717 -1.78494 0.772662 0
M  V30 3125 O 294.972 -1.94305 -0.233258 0
M  V30 3126 C 295.271 -1.55222 3.21933 0
M  V30 3127 C 294.937 -0.701765 4.45406 0
M  V30 3128 C 293.599 -0.467334 4.78925 0
M  V30 3129 C 295.951 -0.11086 5.21082 0
M  V30 3130 C 293.279 0.367785 5.85546 0
M  V30 3131 C 295.631 0.711609 6.28585 0
M  V30 3132 C 294.295 0.956086 6.60617 0
M  V30 3133 H 293.565 -0.290109 0.681849 0
M  V30 3134 H 296.212 -0.0541332 1.91423 0
M  V30 3135 H 294.517 -2.3626 3.12551 0
M  V30 3136 H 296.214 -2.10032 3.41595 0
M  V30 3137 H 292.804 -0.894598 4.1916 0
M  V30 3138 H 296.988 -0.279129 4.95514 0
M  V30 3139 H 292.244 0.566128 6.08773 0
M  V30 3140 H 296.418 1.17632 6.86393 0
M  V30 3141 H 294.045 1.60499 7.43064 0
M  V30 3142 N 295.62 -1.53406 -0.361157 0
M  V30 3143 C 296.583 -1.79479 -1.42548 0
M  V30 3144 C 297.583 -0.665327 -1.4639 0
M  V30 3145 O 298.773 -0.933549 -1.47073 0
M  V30 3146 C 295.905 -1.92087 -2.8163 0
M  V30 3147 H 297.098 -2.74538 -1.20701 0
M  V30 3148 H 294.651 -1.4455 -0.594546 0
M  V30 3149 H 295.386 -0.991099 -3.08784 0
M  V30 3150 H 295.171 -2.74241 -2.80239 0
M  V30 3151 H 296.661 -2.13836 -3.58697 0
M  V30 3152 N 297.098 0.621204 -1.44841 0
M  V30 3153 C 298.345 1.38055 -1.48145 0
M  V30 3154 C 298.673 1.94143 -0.117867 0
M  V30 3155 O 297.928 1.74713 0.881694 0
M  V30 3156 C 298.227 2.55675 -2.4973 0
M  V30 3157 C 297.893 2.17817 -3.94799 0
M  V30 3158 C 296.555 2.07205 -4.34303 0
M  V30 3159 C 298.907 1.88065 -4.86087 0
M  V30 3160 C 296.235 1.65045 -5.63007 0
M  V30 3161 C 298.587 1.47394 -6.15189 0
M  V30 3162 C 297.251 1.35331 -6.53637 0
M  V30 3163 H 296.521 0.505181 -0.542101 0
M  V30 3164 H 299.168 0.703477 -1.78111 0
M  V30 3165 H 297.473 3.2866 -2.13284 0
M  V30 3166 H 299.17 3.13904 -2.4953 0
M  V30 3167 H 295.76 2.26998 -3.63552 0
M  V30 3168 H 299.944 1.95168 -4.56315 0
M  V30 3169 H 295.2 1.54317 -5.91605 0
M  V30 3170 H 299.374 1.23415 -6.85377 0
M  V30 3171 H 297.001 1.02435 -7.53267 0
M  V30 3172 N 298.576 1.31904 0.862503 0
M  V30 3173 C 299.823 1.22017 1.61611 0
M  V30 3174 C 300.151 -0.21991 1.93253 0
M  V30 3175 O 299.406 -1.17076 1.56817 0
M  V30 3176 C 299.705 2.01713 2.95037 0
M  V30 3177 C 299.371 3.51145 2.82857 0
M  V30 3178 C 298.033 3.91889 2.79243 0
M  V30 3179 C 300.385 4.46204 2.69353 0
M  V30 3180 C 297.713 5.25947 2.59993 0
M  V30 3181 C 300.065 5.80397 2.5164 0
M  V30 3182 C 298.729 6.20352 2.46413 0
M  V30 3183 H 297.999 0.44649 0.591378 0
M  V30 3184 H 300.646 1.63248 1.00111 0
M  V30 3185 H 298.951 1.53185 3.60613 0
M  V30 3186 H 300.648 1.91437 3.52353 0
M  V30 3187 H 297.238 3.1878 2.86491 0
M  V30 3188 H 301.422 4.15652 2.71196 0
M  V30 3189 H 296.678 5.5597 2.54376 0
M  V30 3190 H 300.852 6.53676 2.40169 0
M  V30 3191 H 298.479 7.24172 2.31256 0
M  V30 3192 N 300.054 -1.07777 1.14986 0
M  V30 3193 C 300.986 -2.14769 0.800436 0
M  V30 3194 C 301.999 -1.61739 -0.185595 0
M  V30 3195 O 303.188 -1.78462 0.0370358 0
M  V30 3196 C 300.288 -3.38481 0.168533 0
M  V30 3197 C 299.461 -4.20876 1.1909 0
M  V30 3198 C 298.52 -5.22976 0.581575 0
M  V30 3199 O 297.546 -5.55388 1.24633 0
M  V30 3200 N 298.748 -5.76976 -0.638706 0
M  V30 3201 H 301.513 -2.45348 1.72118 0
M  V30 3202 H 299.074 -1.23645 1.04515 0
M  V30 3203 H 301.066 -4.03916 -0.251764 0
M  V30 3204 H 299.636 -3.05651 -0.655467 0
M  V30 3205 H 298.856 -3.51322 1.78791 0
M  V30 3206 H 300.144 -4.7274 1.88133 0
M  V30 3207 H 299.542 -5.52886 -1.19723 0
M  V30 3208 H 298.099 -6.44061 -1.00142 0
M  V30 3209 N 301.532 -0.945985 -1.26051 0
M  V30 3210 C 302.442 -0.465633 -2.29933 0
M  V30 3211 C 303.458 0.462761 -1.67733 0
M  V30 3212 O 304.634 0.341118 -1.9849 0
M  V30 3213 C 301.699 0.256994 -3.45746 0
M  V30 3214 C 300.76 -0.708549 -4.23412 0
M  V30 3215 C 299.993 -0.0203135 -5.33696 0
M  V30 3216 O 300.216 1.19571 -5.57726 0
M  V30 3217 O 299.15 -0.701459 -5.97799 0
M  V30 3218 H 302.976 -1.32866 -2.73094 0
M  V30 3219 H 300.561 -0.712071 -1.31339 0
M  V30 3220 H 302.443 0.663852 -4.16138 0
M  V30 3221 H 301.118 1.09533 -3.04605 0
M  V30 3222 H 300.025 -1.16545 -3.55483 0
M  V30 3223 H 301.358 -1.51465 -4.68315 0
M  V30 3224 N 303.011 1.40521 -0.713556 0
M  V30 3225 C 303.941 2.33381 -0.0743864 0
M  V30 3226 C 304.922 1.52784 0.747735 0
M  V30 3227 O 306.107 1.81258 0.697071 0
M  V30 3228 C 303.237 3.36748 0.849598 0
M  V30 3229 C 302.191 4.27793 0.133247 0
M  V30 3230 C 301.517 5.21679 1.17281 0
M  V30 3231 C 302.817 5.12415 -1.01134 0
M  V30 3232 H 304.511 2.87081 -0.850007 0
M  V30 3233 H 302.057 1.38034 -0.410201 0
M  V30 3234 H 304.01 4.00648 1.30612 0
M  V30 3235 H 302.734 2.81439 1.65709 0
M  V30 3236 H 301.393 3.65342 -0.303426 0
M  V30 3237 H 301.041 4.62677 1.9733 0
M  V30 3238 H 300.741 5.83435 0.698397 0
M  V30 3239 H 302.265 5.88456 1.62947 0
M  V30 3240 H 303.679 5.69781 -0.634274 0
M  V30 3241 H 302.076 5.83203 -1.41399 0
M  V30 3242 H 303.146 4.48514 -1.84292 0
M  V30 3243 N 304.489 0.459591 1.5075 0
M  V30 3244 C 305.735 -0.0994966 2.02556 0
M  V30 3245 C 306.068 -1.40399 1.3417 0
M  V30 3246 O 305.343 -1.88892 0.463683 0
M  V30 3247 C 305.626 -0.295242 3.58888 0
M  V30 3248 C 305.479 1.02947 4.37861 0
M  V30 3249 C 306.798 -1.05502 4.27267 0
M  V30 3250 H 303.917 -0.034686 0.736183 0
M  V30 3251 H 306.559 0.602938 1.8018 0
M  V30 3252 H 304.709 -0.893563 3.78084 0
M  V30 3253 H 306.381 1.66348 4.30263 0
M  V30 3254 H 304.624 1.62885 4.02058 0
M  V30 3255 H 305.295 0.846281 5.45474 0
M  V30 3256 H 307.771 -0.547993 4.12476 0
M  V30 3257 H 306.647 -1.16077 5.36486 0
M  V30 3258 H 306.908 -2.08875 3.89645 0
M  V30 3259 N 305.967 -1.56429 0.191757 0
M  V30 3260 C 307.216 -1.9666 -0.448088 0
M  V30 3261 C 307.529 -1.08136 -1.62991 0
M  V30 3262 O 308.735 -1.38135 -2.33733 0
M  V30 3263 C 307.191 -3.49753 -0.848585 0
M  V30 3264 C 306.799 -4.46935 0.308764 0
M  V30 3265 C 308.543 -3.9876 -1.4557 0
M  V30 3266 C 306.45 -5.91293 -0.112506 0
M  V30 3267 H 305.38 -0.734312 -0.171179 0
M  V30 3268 H 308.031 -1.81301 0.283242 0
M  V30 3269 H 306.413 -3.60604 -1.63649 0
M  V30 3270 H 307.587 -4.47813 1.08627 0
M  V30 3271 H 305.902 -4.08102 0.827158 0
M  V30 3272 H 308.499 -5.04086 -1.78328 0
M  V30 3273 H 308.842 -3.42875 -2.36099 0
M  V30 3274 H 309.375 -3.9101 -0.731836 0
M  V30 3275 H 306.114 -6.51097 0.758514 0
M  V30 3276 H 305.634 -5.93676 -0.854941 0
M  V30 3277 H 307.313 -6.44663 -0.549448 0
M  V30 3278 N 307.445 0.0818655 -1.57387 0
M  V30 3279 C 308.408 1.08265 -2.02018 0
M  V30 3280 C 309.408 1.32183 -0.915664 0
M  V30 3281 O 310.598 1.28073 -1.18081 0
M  V30 3282 C 307.73 2.42871 -2.39221 0
M  V30 3283 H 308.923 0.698204 -2.91659 0
M  V30 3284 H 306.476 0.327303 -1.52835 0
M  V30 3285 H 307.211 2.86167 -1.52575 0
M  V30 3286 H 306.996 2.26855 -3.19811 0
M  V30 3287 H 308.486 3.14826 -2.74362 0
M  V30 3288 N 308.923 1.53595 0.353017 0
M  V30 3289 C 310.171 1.70049 1.09215 0
M  V30 3290 C 310.492 0.461406 1.89463 0
M  V30 3291 O 309.762 -0.524633 1.88744 0
M  V30 3292 H 308.342 0.626912 0.40619 0
M  V30 3293 H 311.004 1.90822 0.396585 0
M  V30 3294 H 310.1 2.56718 1.77488 0
M  V30 3295 N 310.401 -0.613514 1.45168 0
M  V30 3296 C 311.65 -1.36874 1.4815 0
M  V30 3297 C 311.963 -1.952 0.124982 0
M  V30 3298 O 313.169 -2.71481 0.0324176 0
M  V30 3299 C 311.625 -2.47905 2.60904 0
M  V30 3300 C 311.233 -1.96016 4.02842 0
M  V30 3301 C 312.977 -3.24965 2.73126 0
M  V30 3302 C 310.884 -3.04494 5.06988 0
M  V30 3303 H 309.814 -0.514428 0.551253 0
M  V30 3304 H 312.465 -0.658182 1.7129 0
M  V30 3305 H 310.847 -3.21618 2.31037 0
M  V30 3306 H 312.021 -1.29051 4.4236 0
M  V30 3307 H 310.336 -1.31719 3.95018 0
M  V30 3308 H 312.933 -4.05865 3.48106 0
M  V30 3309 H 313.276 -3.75588 1.79553 0
M  V30 3310 H 313.809 -2.5835 3.0249 0
M  V30 3311 H 310.548 -2.58795 6.0225 0
M  V30 3312 H 310.068 -3.70044 4.72046 0
M  V30 3313 H 311.747 -3.68976 5.31475 0
M  V30 3314 N 311.879 -1.3236 -0.855495 0
M  V30 3315 C 313.125 -1.23054 -1.612 0
M  V30 3316 C 313.458 0.207404 -1.93089 0
M  V30 3317 O 312.733 1.14432 -1.57275 0
M  V30 3318 C 313.016 -2.08937 -2.93287 0
M  V30 3319 C 312.869 -3.61105 -2.68185 0
M  V30 3320 C 314.188 -1.94986 -3.94549 0
M  V30 3321 H 311.307 -0.448364 -0.584926 0
M  V30 3322 H 313.949 -1.62297 -0.987917 0
M  V30 3323 H 312.099 -1.75599 -3.46551 0
M  V30 3324 H 313.771 -4.04652 -2.21483 0
M  V30 3325 H 312.014 -3.83813 -2.02164 0
M  V30 3326 H 312.685 -4.16522 -3.62234 0
M  V30 3327 H 315.161 -2.24189 -3.5054 0
M  V30 3328 H 314.037 -2.57356 -4.84829 0
M  V30 3329 H 314.298 -0.917263 -4.3248 0
M  V30 3330 N 313.357 1.07166 -1.15556 0
M  V30 3331 C 314.267 2.17947 -0.868116 0
M  V30 3332 C 315.283 1.73297 0.156297 0
M  V30 3333 O 316.459 2.01392 -0.0182327 0
M  V30 3334 C 313.524 3.44789 -0.36355 0
M  V30 3335 C 312.585 4.03996 -1.45209 0
M  V30 3336 C 311.818 5.24783 -0.971508 0
M  V30 3337 O 312.041 5.70109 0.182194 0
M  V30 3338 O 310.975 5.75715 -1.75603 0
M  V30 3339 H 314.801 2.4503 -1.79427 0
M  V30 3340 H 312.386 1.16539 -0.934824 0
M  V30 3341 H 314.268 4.21307 -0.0887113 0
M  V30 3342 H 312.943 3.19253 0.534708 0
M  V30 3343 H 311.85 3.29009 -1.78056 0
M  V30 3344 H 313.183 4.33808 -2.32533 0
M  V30 3345 N 314.835 0.952656 1.25548 0
M  V30 3346 C 315.783 0.462354 2.27958 0
M  V30 3347 C 316.777 -0.46634 1.62855 0
M  V30 3348 O 317.983 -0.343287 1.76696 0
M  V30 3349 H 314.358 0.13101 0.7405 0
M  V30 3350 H 316.329 1.33839 2.66702 0
M  V30 3351 C 315.078 -0.24628 3.46827 0
M  V30 3352 H 314.401 0.459192 3.97154 0
M  V30 3353 H 315.841 -0.553393 4.20373 0
M  V30 3354 C 314.3 -1.4681 3.0323 0
M  V30 3355 O 314.83 -2.56591 3.09069 0
M  V30 3356 N 313.036 -1.32874 2.58443 0
M  V30 3357 H 312.583 -0.435536 2.53891 0
M  V30 3358 H 312.541 -2.14742 2.29637 0
M  V30 3359 N 316.313 -1.40141 0.720998 0
M  V30 3360 C 317.223 -2.34486 0.0731031 0
M  V30 3361 C 318.239 -1.57587 -0.737723 0
M  V30 3362 O 319.415 -1.89949 -0.669429 0
M  V30 3363 C 316.48 -3.36528 -0.833656 0
M  V30 3364 C 315.541 -4.29298 -0.0121673 0
M  V30 3365 C 314.774 -5.26466 -0.875742 0
M  V30 3366 O 314.997 -5.29745 -2.11485 0
M  V30 3367 O 313.931 -6.01092 -0.31185 0
M  V30 3368 H 317.757 -2.9152 0.851444 0
M  V30 3369 H 315.342 -1.41427 0.481527 0
M  V30 3370 H 317.224 -3.99093 -1.35289 0
M  V30 3371 H 315.899 -2.81899 -1.59105 0
M  V30 3372 H 314.806 -3.70001 0.552262 0
M  V30 3373 H 316.139 -4.87094 0.707129 0
M  V30 3374 N 317.792 -0.46758 -1.50504 0
M  V30 3375 C 319.038 0.0808869 -2.03239 0
M  V30 3376 C 319.393 1.37721 -1.34353 0
M  V30 3377 O 318.686 1.86016 -0.459194 0
M  V30 3378 C 318.88 0.323995 -3.55928 0
M  V30 3379 C 318.709 -0.947215 -4.39611 0
M  V30 3380 C 317.479 -1.48951 -4.82848 0
M  V30 3381 C 319.677 -1.84166 -4.80195 0
M  V30 3382 N 317.659 -2.71011 -5.50842 0
M  V30 3383 C 319.03 -2.90815 -5.47564 0
M  V30 3384 C 321.085 -1.85246 -4.62156 0
M  V30 3385 C 319.788 -3.98529 -5.98805 0
M  V30 3386 C 321.814 -2.91914 -5.14335 0
M  V30 3387 C 321.176 -3.97282 -5.81676 0
M  V30 3388 H 317.275 -0.0103394 -0.781932 0
M  V30 3389 H 319.859 -0.635003 -1.84054 0
M  V30 3390 H 318.03 1.00892 -3.75067 0
M  V30 3391 H 319.762 0.866492 -3.95315 0
M  V30 3392 H 316.517 -1.03918 -4.62058 0
M  V30 3393 H 316.941 -3.32988 -5.89447 0
M  V30 3394 H 321.583 -1.05103 -4.09528 0
M  V30 3395 H 319.301 -4.79491 -6.50472 0
M  V30 3396 H 322.887 -2.93729 -5.0221 0
M  V30 3397 H 321.767 -4.78462 -6.21324 0
M  V30 3398 N 319.27 1.56325 -0.20005 0
M  V30 3399 C 320.217 2.1932 0.718833 0
M  V30 3400 C 321.187 1.14198 1.20615 0
M  V30 3401 O 322.372 1.42469 1.26914 0
M  V30 3402 C 319.512 2.86041 1.93066 0
M  V30 3403 C 318.625 4.05702 1.48425 0
M  V30 3404 C 317.76 4.60266 2.65196 0
M  V30 3405 C 316.799 5.72273 2.17185 0
M  V30 3406 N 315.936 6.21221 3.27152 0
M  V30 3407 H 320.776 2.97486 0.17489 0
M  V30 3408 H 318.313 1.46911 0.0745794 0
M  V30 3409 H 320.271 3.22897 2.64184 0
M  V30 3410 H 318.901 2.1043 2.44783 0
M  V30 3411 H 317.953 3.74475 0.668755 0
M  V30 3412 H 319.265 4.86699 1.09204 0
M  V30 3413 H 318.419 4.99453 3.4443 0
M  V30 3414 H 317.158 3.78386 3.07693 0
M  V30 3415 H 316.163 5.3261 1.36407 0
M  V30 3416 H 317.388 6.55974 1.75713 0
M  V30 3417 H 315.334 5.42263 3.69171 0
M  V30 3418 H 315.251 6.97284 2.92116 0
M  V30 3419 H 316.519 6.65063 4.06585 0
M  V30 3420 N 320.748 -0.0735177 1.57428 0
M  V30 3421 C 322.164 -0.428264 1.53747 0
M  V30 3422 C 322.364 -1.79272 0.91998 0
M  V30 3423 O 321.42 -2.47051 0.521745 0
M  V30 3424 C 322.733 -0.370914 2.98404 0
M  V30 3425 C 324.281 -0.451224 3.0973 0
M  V30 3426 C 324.756 -0.4238 4.56035 0
M  V30 3427 N 326.247 -0.483925 4.60665 0
M  V30 3428 C 326.982 -0.484891 5.71346 0
M  V30 3429 N 326.478 -0.440775 6.91396 0
M  V30 3430 N 328.271 -0.531319 5.59583 0
M  V30 3431 H 320.422 0.819949 1.95935 0
M  V30 3432 H 322.685 0.307493 0.896745 0
M  V30 3433 H 322.391 0.564956 3.47133 0
M  V30 3434 H 322.265 -1.18176 3.5821 0
M  V30 3435 H 324.652 -1.37752 2.60976 0
M  V30 3436 H 324.733 0.388167 2.52838 0
M  V30 3437 H 324.377 0.498638 5.05446 0
M  V30 3438 H 324.307 -1.2807 5.10789 0
M  V30 3439 H 326.798 -0.522338 3.74273 0
M  V30 3440 H 327.111 -0.44539 7.71515 0
M  V30 3441 H 325.456 -0.40749 6.93804 0
M  V30 3442 H 328.647 -0.563464 4.64696 0
M  V30 3443 H 328.82 -0.528603 6.4584 0
M  V30 3444 N 322.226 -1.5378 -0.344866 0
M  V30 3445 C 323.454 -1.74899 -1.10534 0
M  V30 3446 C 323.869 -0.487534 -1.82397 0
M  V30 3447 O 323.226 0.540741 -1.74305 0
M  V30 3448 C 323.277 -2.92822 -2.11984 0
M  V30 3449 O 322.998 -4.14089 -1.43044 0
M  V30 3450 C 324.499 -3.25982 -3.00417 0
M  V30 3451 H 321.719 -0.584426 -0.329678 0
M  V30 3452 H 324.263 -2.006 -0.397474 0
M  V30 3453 H 322.418 -2.69457 -2.78338 0
M  V30 3454 H 322.832 -4.80272 -2.10805 0
M  V30 3455 H 324.306 -4.11848 -3.67539 0
M  V30 3456 H 324.783 -2.42228 -3.66363 0
M  V30 3457 H 325.389 -3.51349 -2.39654 0
M  V30 3458 N 323.704 0.605807 -1.45491 0
M  V30 3459 C 324.944 1.37606 -1.51142 0
M  V30 3460 C 325.308 1.91413 -0.150075 0
M  V30 3461 O 326.509 2.68677 -0.0812828 0
M  V30 3462 C 324.78 2.49197 -2.56195 0
M  V30 3463 S 326.339 3.36953 -2.81083 0
M  V30 3464 H 323.157 0.469118 -0.534275 0
M  V30 3465 H 325.759 0.698845 -1.82583 0
M  V30 3466 H 324.463 2.0802 -3.53773 0
M  V30 3467 H 323.994 3.21717 -2.26411 0
M  V30 3468 H 326.009 4.47395 -2.14598 0
M  V30 3469 N 325.182 1.32811 0.848464 0
M  V30 3470 C 326.407 1.26882 1.6406 0
M  V30 3471 C 326.832 -0.15913 1.87426 0
M  V30 3472 O 326.19 -1.11258 1.43148 0
M  V30 3473 C 326.238 2.03997 2.97351 0
M  V30 3474 O 325.342 1.39201 3.88197 0
M  V30 3475 H 324.683 0.436982 0.499943 0
M  V30 3476 H 327.213 1.75224 1.0563 0
M  V30 3477 H 327.223 2.14403 3.47124 0
M  V30 3478 H 325.898 3.0783 2.79666 0
M  V30 3479 H 324.475 1.37381 3.46671 0
M  V30 3480 N 326.66 -1.06551 1.16123 0
M  V30 3481 C 328.076 -1.3142 0.905585 0
M  V30 3482 C 328.276 -1.96571 -0.442964 0
M  V30 3483 O 327.332 -2.23068 -1.18308 0
M  V30 3484 C 328.645 -2.19741 2.05267 0
M  V30 3485 C 330.193 -2.33165 2.08813 0
M  V30 3486 C 330.668 -3.24838 3.22868 0
M  V30 3487 N 332.159 -3.32421 3.22568 0
M  V30 3488 C 332.894 -4.0344 4.0746 0
M  V30 3489 N 332.39 -4.77003 5.02434 0
M  V30 3490 N 334.183 -3.99464 3.95456 0
M  V30 3491 H 326.334 -0.626548 2.02949 0
M  V30 3492 H 328.597 -0.338777 0.8854 0
M  V30 3493 H 328.303 -1.79142 3.02657 0
M  V30 3494 H 328.177 -3.20313 1.99198 0
M  V30 3495 H 330.564 -2.73013 1.12018 0
M  V30 3496 H 330.645 -1.3227 2.18948 0
M  V30 3497 H 330.289 -2.85708 4.19921 0
M  V30 3498 H 330.219 -4.25707 3.0997 0
M  V30 3499 H 332.71 -2.79994 2.53795 0
M  V30 3500 H 333.023 -5.28712 5.63634 0
M  V30 3501 H 331.368 -4.75992 5.06415 0
M  V30 3502 H 334.559 -3.4111 3.20564 0
M  V30 3503 H 334.732 -4.54544 4.61837 0
M  V30 3504 N 328.138 -0.959301 -1.25041 0
M  V30 3505 C 329.549 -0.65667 -1.74771 0
M  V30 3506 C 329.9 0.827852 -1.77879 0
M  V30 3507 O 329.025 1.64783 -1.40269 0
M  V30 3508 C 329.62 -1.1853 -3.1739 0
M  V30 3509 C 328.179 -0.932734 -3.6466 0
M  V30 3510 C 327.326 -1.32558 -2.43564 0
M  V30 3511 H 330.277 -1.13558 -1.10862 0
M  V30 3512 H 330.298 -0.547582 -3.76539 0
M  V30 3513 H 329.81 -2.26576 -3.15095 0
M  V30 3514 H 327.911 0.13257 -3.72364 0
M  V30 3515 H 328.024 -1.57248 -4.52559 0
M  V30 3516 H 326.388 -0.743956 -2.43593 0
M  V30 3517 H 327.171 -2.41537 -2.43957 0
M  V30 3518 N 329.616 1.39756 -0.72842 0
M  V30 3519 C 330.563 2.30647 -0.0841519 0
M  V30 3520 C 331.533 1.48869 0.7367 0
M  V30 3521 O 332.718 1.77574 0.698015 0
M  V30 3522 C 329.858 3.35165 0.822091 0
M  V30 3523 C 328.971 4.31999 -0.0106663 0
M  V30 3524 C 328.106 5.23585 0.896241 0
M  V30 3525 C 327.145 6.12072 0.0583381 0
M  V30 3526 N 326.282 6.96035 0.920818 0
M  V30 3527 H 331.122 2.85173 -0.864891 0
M  V30 3528 H 328.659 1.40422 -0.438179 0
M  V30 3529 H 330.617 3.94345 1.36189 0
M  V30 3530 H 329.247 2.8211 1.56888 0
M  V30 3531 H 328.299 3.74492 -0.66781 0
M  V30 3532 H 329.611 4.9443 -0.658825 0
M  V30 3533 H 328.765 5.87759 1.50412 0
M  V30 3534 H 327.504 4.61459 1.57819 0
M  V30 3535 H 326.509 5.46916 -0.562389 0
M  V30 3536 H 327.734 6.76261 -0.6203 0
M  V30 3537 H 325.68 6.36485 1.58818 0
M  V30 3538 H 325.597 7.55284 0.32899 0
M  V30 3539 H 326.865 7.64646 1.51447 0
M  V30 3540 N 331.094 0.475555 1.50254 0
M  V30 3541 C 332.319 -0.0777042 2.07254 0
M  V30 3542 C 332.744 -1.3235 1.3366 0
M  V30 3543 O 332.102 -1.77152 0.385597 0
M  V30 3544 C 332.15 -0.340169 3.58992 0
M  V30 3545 O 331.254 -1.41982 3.87188 0
M  V30 3546 H 330.595 0.0149556 0.663832 0
M  V30 3547 H 333.125 0.667878 1.93392 0
M  V30 3548 H 333.135 -0.579332 4.03866 0
M  V30 3549 H 331.81 0.570167 4.11973 0
M  V30 3550 H 330.387 -1.16762 3.54148 0
M  V30 3551 N 332.573 -1.56217 0.208337 0
M  V30 3552 C 333.521 -2.21053 -0.723769 0
M  V30 3553 C 334.515 -1.18578 -1.20978 0
M  V30 3554 O 335.721 -1.36691 -1.17114 0
M  V30 3555 H 332.096 -0.708595 -0.251788 0
M  V30 3556 H 334.067 -2.98006 -0.153365 0
M  V30 3557 C 332.816 -2.89417 -1.927 0
M  V30 3558 H 332.139 -3.68019 -1.56212 0
M  V30 3559 H 333.579 -3.38201 -2.55727 0
M  V30 3560 C 332.038 -1.91166 -2.77411 0
M  V30 3561 O 332.568 -1.42026 -3.75754 0
M  V30 3562 N 330.774 -1.59105 -2.43175 0
M  V30 3563 H 330.321 -1.99259 -1.63259 0
M  V30 3564 H 330.279 -0.936255 -3.00136 0
M  V30 3565 N 334.051 0.0651679 -1.57465 0
M  V30 3566 C 335.3 0.761916 -1.86756 0
M  V30 3567 C 335.613 1.78406 -0.801925 0
M  V30 3568 O 336.819 2.53084 -0.982885 0
M  V30 3569 C 335.275 1.40603 -3.31299 0
M  V30 3570 C 334.883 0.422115 -4.46007 0
M  V30 3571 C 336.627 2.08476 -3.69781 0
M  V30 3572 C 334.534 1.07252 -5.81593 0
M  V30 3573 H 333.464 0.288308 -0.696702 0
M  V30 3574 H 336.115 0.015344 -1.83494 0
M  V30 3575 H 334.497 2.20109 -3.29193 0
M  V30 3576 H 335.671 -0.343613 -4.59517 0
M  V30 3577 H 333.986 -0.152527 -4.16121 0
M  V30 3578 H 336.583 2.57925 -4.68379 0
M  V30 3579 H 336.926 2.88712 -2.99919 0
M  V30 3580 H 337.459 1.35792 -3.73905 0
M  V30 3581 H 334.198 0.310342 -6.54765 0
M  V30 3582 H 333.718 1.80895 -5.71872 0
M  V30 3583 H 335.397 1.59043 -6.27148 0
M  V30 3584 N 335.529 1.53961 0.336706 0
M  V30 3585 C 336.775 1.7179 1.07777 0
M  V30 3586 C 337.108 0.483263 1.88091 0
M  V30 3587 O 336.383 -0.519747 1.87427 0
M  V30 3588 C 336.666 2.98558 2.01334 0
M  V30 3589 C 336.519 4.32245 1.24437 0
M  V30 3590 C 337.838 3.21023 3.01052 0
M  V30 3591 H 334.957 0.625089 0.390426 0
M  V30 3592 H 337.599 1.86641 0.35567 0
M  V30 3593 H 335.749 2.86028 2.62908 0
M  V30 3594 H 337.421 4.56637 0.654243 0
M  V30 3595 H 335.664 4.30344 0.546458 0
M  V30 3596 H 336.335 5.17137 1.93063 0
M  V30 3597 H 338.811 3.32929 2.49595 0
M  V30 3598 H 337.687 4.11104 3.6371 0
M  V30 3599 H 337.948 2.37637 3.72802 0
M  V30 3600 N 337.007 -0.598083 1.45811 0
M  V30 3601 C 337.937 -1.71873 1.58057 0
M  V30 3602 C 338.918 -1.64533 0.431615 0
M  V30 3603 O 340.103 -1.82787 0.65595 0
M  V30 3604 C 337.233 -3.10495 1.55597 0
M  V30 3605 C 336.187 -3.32654 2.69305 0
M  V30 3606 C 335.513 -4.71646 2.51902 0
M  V30 3607 C 336.813 -3.21981 4.11248 0
M  V30 3608 H 338.507 -1.61881 2.51863 0
M  V30 3609 H 336.053 -0.777372 1.21214 0
M  V30 3610 H 338.006 -3.88699 1.6276 0
M  V30 3611 H 336.73 -3.2135 0.583255 0
M  V30 3612 H 335.389 -2.56843 2.61586 0
M  V30 3613 H 335.037 -4.79246 1.52748 0
M  V30 3614 H 334.737 -4.87426 3.2816 0
M  V30 3615 H 336.261 -5.52038 2.60933 0
M  V30 3616 H 337.675 -3.90049 4.20161 0
M  V30 3617 H 336.072 -3.49289 4.87972 0
M  V30 3618 H 337.142 -2.1928 4.32486 0
M  V30 3619 N 338.485 -1.33259 -0.841409 0
M  V30 3620 C 339.415 -1.25926 -1.96634 0
M  V30 3621 C 340.396 -0.140349 -1.6952 0
M  V30 3622 O 341.581 -0.329707 -1.91381 0
M  V30 3623 C 338.711 -0.99512 -3.32738 0
M  V30 3624 C 337.665 -2.0767 -3.74242 0
M  V30 3625 C 336.991 -1.66474 -5.08125 0
M  V30 3626 C 338.291 -3.49318 -3.88297 0
M  V30 3627 H 339.985 -2.20046 -2.03027 0
M  V30 3628 H 337.531 -1.05931 -0.975425 0
M  V30 3629 H 339.484 -0.930323 -4.11002 0
M  V30 3630 H 338.208 -0.0183004 -3.26595 0
M  V30 3631 H 336.867 -2.13187 -2.98239 0
M  V30 3632 H 336.515 -0.675012 -4.9845 0
M  V30 3633 H 336.215 -2.3885 -5.36865 0
M  V30 3634 H 337.739 -1.61455 -5.88867 0
M  V30 3635 H 339.153 -3.46316 -4.56879 0
M  V30 3636 H 337.55 -4.20158 -4.28471 0
M  V30 3637 H 338.62 -3.8801 -2.9082 0
M  V30 3638 N 339.963 1.05934 -1.16686 0
M  V30 3639 C 341.188 1.83029 -0.975455 0
M  V30 3640 C 341.613 1.82096 0.471452 0
M  V30 3641 O 340.971 1.22443 1.33706 0
M  V30 3642 C 341.019 3.27372 -1.51195 0
M  V30 3643 O 340.123 4.06054 -0.720701 0
M  V30 3644 H 339.464 0.566194 -0.346872 0
M  V30 3645 H 341.994 1.33541 -1.55009 0
M  V30 3646 H 342.004 3.78186 -1.53099 0
M  V30 3647 H 340.679 3.27366 -2.56523 0
M  V30 3648 H 339.256 3.64812 -0.772458 0
M  V30 3649 N 341.441 0.965919 1.2453 0
M  V30 3650 C 342.404 0.499547 2.2369 0
M  V30 3651 C 343.404 -0.40294 1.5567 0
M  V30 3652 O 344.594 -0.19865 1.73064 0
M  V30 3653 C 341.726 -0.276792 3.39774 0
M  V30 3654 H 342.919 1.37613 2.66463 0
M  V30 3655 H 340.472 0.750324 1.37112 0
M  V30 3656 H 341.207 -1.17055 3.02438 0
M  V30 3657 H 340.992 0.370826 3.90343 0
M  V30 3658 H 342.482 -0.592175 4.1338 0
M  V30 3659 N 342.919 -1.39368 0.735821 0
M  V30 3660 C 343.829 -2.34395 0.0979693 0
M  V30 3661 C 344.845 -1.58361 -0.720968 0
M  V30 3662 O 346.021 -1.90648 -0.649245 0
M  V30 3663 C 343.086 -3.37393 -0.797916 0
M  V30 3664 C 342.147 -4.29287 0.0333662 0
M  V30 3665 C 341.38 -5.27365 -0.819854 0
M  V30 3666 O 341.603 -5.31959 -2.05855 0
M  V30 3667 O 340.537 -6.01389 -0.248079 0
M  V30 3668 H 344.363 -2.90601 0.882315 0
M  V30 3669 H 341.948 -1.40909 0.4965 0
M  V30 3670 H 343.83 -4.00505 -1.31048 0
M  V30 3671 H 342.505 -2.83571 -1.56106 0
M  V30 3672 H 341.412 -3.69395 0.591475 0
M  V30 3673 H 342.745 -4.86317 0.758752 0
M  V30 3674 N 344.397 -0.483516 -1.5 0
M  V30 3675 C 345.307 0.309172 -2.32554 0
M  V30 3676 C 346.323 0.984159 -1.43493 0
M  V30 3677 O 347.499 0.969399 -1.76535 0
M  V30 3678 C 344.564 1.36979 -3.18493 0
M  V30 3679 C 343.625 0.710095 -4.23387 0
M  V30 3680 C 342.858 1.72018 -5.05218 0
M  V30 3681 O 343.081 2.94813 -4.88305 0
M  V30 3682 O 342.015 1.28515 -5.8802 0
M  V30 3683 H 345.841 -0.366064 -3.01486 0
M  V30 3684 H 343.426 -0.24514 -1.47375 0
M  V30 3685 H 345.308 1.98385 -3.71781 0
M  V30 3686 H 343.983 2.02828 -2.52275 0
M  V30 3687 H 342.89 0.0567539 -3.74057 0
M  V30 3688 H 344.223 0.0943557 -4.9211 0
M  V30 3689 N 345.875 1.56104 -0.216619 0
M  V30 3690 C 346.822 2.2007 0.695531 0
M  V30 3691 C 347.792 1.15471 1.19397 0
M  V30 3692 O 348.977 1.43807 1.25396 0
M  V30 3693 C 346.117 2.88073 1.90021 0
M  V30 3694 C 345.23 4.07253 1.44113 0
M  V30 3695 C 344.365 4.63052 2.603 0
M  V30 3696 C 343.404 5.74545 2.11103 0
M  V30 3697 N 342.541 6.24656 3.20545 0
M  V30 3698 H 347.381 2.97655 0.143327 0
M  V30 3699 H 344.918 1.46982 0.0589934 0
M  V30 3700 H 346.876 3.25681 2.60745 0
M  V30 3701 H 345.506 2.13015 2.42538 0
M  V30 3702 H 344.558 3.75164 0.628999 0
M  V30 3703 H 345.87 4.8783 1.04036 0
M  V30 3704 H 345.024 5.03078 3.39113 0
M  V30 3705 H 343.763 3.81628 3.03663 0
M  V30 3706 H 342.768 5.34027 1.3075 0
M  V30 3707 H 343.993 6.57801 1.68746 0
M  V30 3708 H 341.939 5.46148 3.63399 0
M  V30 3709 H 341.856 7.00343 2.84704 0
M  V30 3710 H 343.124 6.69338 3.99508 0
M  V30 3711 N 347.353 -0.0568162 1.57498 0
M  V30 3712 C 348.3 -1.06591 2.04712 0
M  V30 3713 C 349.27 -1.3758 0.930644 0
M  V30 3714 O 350.455 -1.48392 1.19935 0
M  V30 3715 C 347.595 -2.3701 2.50839 0
M  V30 3716 C 346.708 -2.12421 3.76167 0
M  V30 3717 C 345.843 -3.36511 4.11015 0
M  V30 3718 C 344.882 -3.07353 5.2934 0
M  V30 3719 N 344.019 -4.23816 5.59754 0
M  V30 3720 H 348.859 -0.65631 2.90683 0
M  V30 3721 H 346.396 -0.312481 1.43743 0
M  V30 3722 H 348.354 -3.13175 2.7564 0
M  V30 3723 H 346.984 -2.75744 1.67825 0
M  V30 3724 H 346.036 -1.2688 3.58616 0
M  V30 3725 H 347.348 -1.86894 4.62463 0
M  V30 3726 H 346.502 -4.21062 4.36797 0
M  V30 3727 H 345.241 -3.65128 3.23315 0
M  V30 3728 H 344.246 -2.212 5.03339 0
M  V30 3729 H 345.471 -2.80043 6.1867 0
M  V30 3730 H 343.417 -4.52436 4.75014 0
M  V30 3731 H 343.334 -4.01614 6.40501 0
M  V30 3732 H 344.602 -5.0932 5.90096 0
M  V30 3733 N 348.832 -1.54138 -0.328536 0
M  V30 3734 C 349.742 -1.86192 -1.42723 0
M  V30 3735 C 350.758 -0.753382 -1.56844 0
M  V30 3736 O 351.934 -1.04718 -1.72035 0
M  V30 3737 C 348.999 -2.07824 -2.77507 0
M  V30 3738 C 348.06 -3.31641 -2.72603 0
M  V30 3739 C 347.293 -3.52232 -4.00959 0
M  V30 3740 O 347.516 -2.7636 -4.9898 0
M  V30 3741 O 346.45 -4.45699 -4.0452 0
M  V30 3742 H 350.276 -2.79608 -1.18547 0
M  V30 3743 H 347.861 -1.3998 -0.522104 0
M  V30 3744 H 349.743 -2.23411 -3.57303 0
M  V30 3745 H 348.418 -1.17596 -3.01584 0
M  V30 3746 H 347.325 -3.21444 -1.91376 0
M  V30 3747 H 348.658 -4.2191 -2.53481 0
M  V30 3748 N 350.31 0.590341 -1.46126 0
M  V30 3749 C 351.242 1.71427 -1.52136 0
M  V30 3750 C 352.255 1.57542 -0.41042 0
M  V30 3751 O 353.444 1.65106 -0.678389 0
M  V30 3752 C 350.544 3.09605 -1.37834 0
M  V30 3753 C 349.717 3.49566 -2.62912 0
M  V30 3754 C 348.776 4.66773 -2.42918 0
M  V30 3755 O 347.802 4.73019 -3.1661 0
M  V30 3756 N 349.004 5.61161 -1.4859 0
M  V30 3757 H 351.769 1.66728 -2.49042 0
M  V30 3758 H 349.33 0.776113 -1.42085 0
M  V30 3759 H 351.322 3.85796 -1.22243 0
M  V30 3760 H 349.892 3.08714 -0.491393 0
M  V30 3761 H 349.112 2.63158 -2.93499 0
M  V30 3762 H 350.4 3.73028 -3.46017 0
M  V30 3763 H 349.798 5.58844 -0.87808 0
M  V30 3764 H 348.355 6.36814 -1.38965 0
M  V30 3765 N 351.788 1.33704 0.83433 0
M  V30 3766 C 353.016 1.28467 1.62185 0
M  V30 3767 C 353.431 -0.143526 1.88254 0
M  V30 3768 O 352.788 -1.08709 1.4659 0
M  V30 3769 C 352.839 2.06174 2.96942 0
M  V30 3770 O 352.56 3.43422 2.72016 0
M  V30 3771 C 354.061 2.08201 3.91366 0
M  V30 3772 H 351.281 0.4424 0.504503 0
M  V30 3773 H 353.825 1.76145 1.03891 0
M  V30 3774 H 351.98 1.62167 3.51825 0
M  V30 3775 H 352.394 3.83453 3.57861 0
M  V30 3776 H 353.868 2.67017 4.83121 0
M  V30 3777 H 354.345 1.07343 4.2588 0
M  V30 3778 H 354.951 2.52246 3.42421 0
M  V30 3779 N 353.266 -1.05314 1.17247 0
M  V30 3780 C 354.515 -1.77685 0.954521 0
M  V30 3781 C 354.828 -1.88616 -0.518025 0
M  V30 3782 O 356.034 -2.57714 -0.854144 0
M  V30 3783 C 354.49 -3.19402 1.65863 0
M  V30 3784 C 354.098 -3.16605 3.16963 0
M  V30 3785 C 355.842 -3.96237 1.52303 0
M  V30 3786 C 353.749 -4.53103 3.80068 0
M  V30 3787 H 352.679 -0.666 0.353496 0
M  V30 3788 H 355.33 -1.1805 1.40486 0
M  V30 3789 H 353.712 -3.79355 1.13602 0
M  V30 3790 H 354.886 -2.66176 3.76148 0
M  V30 3791 H 353.201 -2.53268 3.30521 0
M  V30 3792 H 355.798 -4.97157 1.96822 0
M  V30 3793 H 356.141 -4.136 0.473401 0
M  V30 3794 H 356.674 -3.42829 2.01775 0
M  V30 3795 H 353.413 -4.40946 4.85023 0
M  V30 3796 H 352.933 -5.03686 3.2567 0
M  V30 3797 H 354.612 -5.22045 3.82202 0
M  V30 3798 N 354.744 -0.972509 -1.24016 0
M  V30 3799 C 355.654 -0.5143 -2.28893 0
M  V30 3800 C 356.67 0.427078 -1.68677 0
M  V30 3801 O 357.846 0.298939 -1.99169 0
M  V30 3802 C 354.911 0.183598 -3.46214 0
M  V30 3803 C 353.972 -0.798202 -4.21814 0
M  V30 3804 C 353.205 -0.133514 -5.33533 0
M  V30 3805 O 353.428 1.07714 -5.60137 0
M  V30 3806 O 352.362 -0.828103 -5.96176 0
M  V30 3807 H 356.188 -1.38629 -2.70214 0
M  V30 3808 H 353.773 -0.739769 -1.29799 0
M  V30 3809 H 355.655 0.575433 -4.17453 0
M  V30 3810 H 354.33 1.03048 -3.0686 0
M  V30 3811 H 353.237 -1.24059 -3.52931 0
M  V30 3812 H 354.57 -1.61364 -4.64997 0
M  V30 3813 N 356.222 1.38976 -0.743202 0
M  V30 3814 C 357.471 1.99581 -0.291592 0
M  V30 3815 C 357.784 1.59656 1.13001 0
M  V30 3816 O 358.99 2.13157 1.68156 0
M  V30 3817 C 357.446 3.56813 -0.470391 0
M  V30 3818 C 357.054 4.05695 -1.90041 0
M  V30 3819 C 358.798 4.24423 -0.0809709 0
M  V30 3820 C 356.705 5.5553 -2.02832 0
M  V30 3821 H 355.635 0.746615 -0.105272 0
M  V30 3822 H 358.286 1.58872 -0.918258 0
M  V30 3823 H 356.668 3.95359 0.225299 0
M  V30 3824 H 357.842 3.78464 -2.62872 0
M  V30 3825 H 356.157 3.50775 -2.24379 0
M  V30 3826 H 358.754 5.34474 -0.155445 0
M  V30 3827 H 359.097 4.04962 0.96497 0
M  V30 3828 H 359.63 3.9108 -0.728124 0
M  V30 3829 H 356.369 5.79881 -3.05643 0
M  V30 3830 H 355.889 5.84537 -1.34448 0
M  V30 3831 H 357.568 6.21069 -1.81335 0
M  V30 3832 N 357.7 0.491464 1.49741 0
M  V30 3833 C 358.647 -0.292027 2.28945 0
M  V30 3834 C 359.617 -0.968973 1.34908 0
M  V30 3835 O 360.802 -0.97748 1.6386 0
M  V30 3836 C 357.942 -1.35617 3.17336 0
M  V30 3837 C 357.055 -0.691957 4.26422 0
M  V30 3838 C 356.19 -1.73572 5.02042 0
M  V30 3839 C 355.229 -1.05286 6.02977 0
M  V30 3840 N 354.366 -2.0404 6.71798 0
M  V30 3841 H 359.206 0.389654 2.95442 0
M  V30 3842 H 356.743 0.204003 1.45679 0
M  V30 3843 H 358.701 -1.98502 3.66951 0
M  V30 3844 H 357.331 -2.00674 2.52844 0
M  V30 3845 H 356.383 0.0499523 3.80367 0
M  V30 3846 H 357.695 -0.153946 4.98562 0
M  V30 3847 H 356.849 -2.43987 5.55478 0
M  V30 3848 H 355.588 -2.30757 4.29654 0
M  V30 3849 H 354.593 -0.334446 5.48782 0
M  V30 3850 H 355.818 -0.487636 6.77347 0
M  V30 3851 H 353.764 -2.60205 6.02187 0
M  V30 3852 H 353.681 -1.55279 7.39881 0
M  V30 3853 H 354.949 -2.73772 7.29842 0
M  V30 3854 N 359.178 -1.55987 0.224894 0
M  V30 3855 C 360.088 -2.24066 -0.69511 0
M  V30 3856 C 361.104 -1.24939 -1.21104 0
M  V30 3857 O 362.28 -1.5776 -1.25195 0
M  V30 3858 C 359.345 -2.90983 -1.88493 0
M  V30 3859 C 358.406 -4.05462 -1.41064 0
M  V30 3860 C 357.639 -4.69179 -2.54375 0
M  V30 3861 O 357.862 -4.31895 -3.72589 0
M  V30 3862 O 356.796 -5.58108 -2.25386 0
M  V30 3863 H 360.622 -3.03353 -0.145149 0
M  V30 3864 H 358.207 -1.49399 -0.00569476 0
M  V30 3865 H 360.089 -3.33209 -2.57972 0
M  V30 3866 H 358.764 -2.14653 -2.42293 0
M  V30 3867 H 357.671 -3.67798 -0.683774 0
M  V30 3868 H 359.004 -4.83545 -0.918985 0
M  V30 3869 N 360.656 0.0484629 -1.57525 0
M  V30 3870 C 361.566 1.07241 -2.08654 0
M  V30 3871 C 362.582 1.409 -1.02095 0
M  V30 3872 O 363.758 1.50609 -1.33712 0
M  V30 3873 C 360.823 2.36008 -2.5397 0
M  V30 3874 C 359.884 2.09108 -3.7493 0
M  V30 3875 C 359.117 3.31736 -4.18075 0
M  V30 3876 O 359.34 4.41714 -3.60895 0
M  V30 3877 O 358.274 3.18576 -5.10679 0
M  V30 3878 H 362.1 0.667965 -2.96263 0
M  V30 3879 H 359.685 0.26417 -1.47046 0
M  V30 3880 H 361.567 3.11747 -2.83535 0
M  V30 3881 H 360.242 2.75786 -1.69481 0
M  V30 3882 H 359.149 1.31 -3.50414 0
M  V30 3883 H 360.482 1.74198 -4.60343 0
M  V30 3884 N 362.134 1.5431 0.320358 0
M  V30 3885 C 363.38 1.72924 1.05949 0
M  V30 3886 C 363.713 0.503185 1.87568 0
M  V30 3887 O 362.988 -0.499839 1.87968 0
M  V30 3888 C 363.271 3.00676 1.98156 0
M  V30 3889 C 363.124 4.3354 1.19845 0
M  V30 3890 C 364.443 3.24198 2.9763 0
M  V30 3891 H 361.562 0.629195 0.383774 0
M  V30 3892 H 364.204 1.87008 0.335854 0
M  V30 3893 H 362.354 2.888 2.59859 0
M  V30 3894 H 364.026 4.57305 0.605773 0
M  V30 3895 H 362.269 4.309 0.500784 0
M  V30 3896 H 362.94 5.19156 1.87567 0
M  V30 3897 H 365.416 3.35557 2.4605 0
M  V30 3898 H 364.292 4.14938 3.59329 0
M  V30 3899 H 364.553 2.41577 3.7026 0
M  V30 3900 N 363.613 -0.582584 1.46437 0
M  V30 3901 C 364.859 -1.34278 1.51978 0
M  V30 3902 C 365.192 -1.93446 0.170973 0
M  V30 3903 O 364.467 -1.76481 -0.817608 0
M  V30 3904 C 364.75 -2.47203 2.61845 0
M  V30 3905 C 364.603 -1.93069 4.06257 0
M  V30 3906 C 365.922 -3.49247 2.67795 0
M  V30 3907 H 363.041 -0.486876 0.553282 0
M  V30 3908 H 365.683 -0.654437 1.78374 0
M  V30 3909 H 363.833 -3.0592 2.39469 0
M  V30 3910 H 365.505 -1.38808 4.3992 0
M  V30 3911 H 363.748 -1.23898 4.1573 0
M  V30 3912 H 364.419 -2.74586 4.7886 0
M  V30 3913 H 366.895 -3.00411 2.8791 0
M  V30 3914 H 365.771 -4.25719 3.46489 0
M  V30 3915 H 366.032 -4.06482 1.73852 0
M  V30 3916 N 365.091 -1.34144 -0.827227 0
M  V30 3917 C 366.339 -1.26009 -1.58007 0
M  V30 3918 C 366.66 0.170971 -1.94249 0
M  V30 3919 O 365.93 1.10256 -1.61927 0
M  V30 3920 H 364.51 -0.463414 -0.585881 0
M  V30 3921 H 367.172 -1.68005 -0.987951 0
M  V30 3922 H 366.268 -1.86187 -2.50481 0
M  V30 3923 N 366.569 1.04691 -1.17803 0
M  V30 3924 C 367.499 2.14494 -0.92275 0
M  V30 3925 C 368.48 1.69546 0.137179 0
M  V30 3926 O 369.665 1.94195 -0.0141108 0
M  V30 3927 C 366.795 3.44491 -0.440803 0
M  V30 3928 C 365.749 4.03031 -1.4405 0
M  V30 3929 C 365.075 5.28432 -0.81631 0
M  V30 3930 C 366.375 4.39932 -2.81527 0
M  V30 3931 H 368.069 2.36107 -1.84103 0
M  V30 3932 H 365.615 1.1347 -0.886599 0
M  V30 3933 H 367.568 4.2066 -0.249602 0
M  V30 3934 H 366.292 3.22546 0.513025 0
M  V30 3935 H 364.951 3.28937 -1.61853 0
M  V30 3936 H 364.599 5.02792 0.144511 0
M  V30 3937 H 364.299 5.68559 -1.48371 0
M  V30 3938 H 365.823 6.07284 -0.635496 0
M  V30 3939 H 367.237 5.07113 -2.67412 0
M  V30 3940 H 365.634 4.9109 -3.44892 0
M  V30 3941 H 366.704 3.50045 -3.35554 0
M  V30 3942 N 368.047 0.979072 1.23499 0
M  V30 3943 C 369.275 0.665202 1.95915 0
M  V30 3944 C 369.69 -0.767571 1.72493 0
M  V30 3945 O 369.047 -1.51635 1.01554 0
M  V30 3946 C 369.098 0.944438 3.48945 0
M  V30 3947 O 368.819 2.3209 3.71572 0
M  V30 3948 C 370.32 0.646336 4.38563 0
M  V30 3949 H 367.54 0.247218 0.623798 0
M  V30 3950 H 370.084 1.31009 1.57025 0
M  V30 3951 H 368.239 0.345575 3.85856 0
M  V30 3952 H 368.653 2.40957 4.65876 0
M  V30 3953 H 370.127 0.892091 5.44744 0
M  V30 3954 H 370.604 -0.419575 4.37191 0
M  V30 3955 H 371.21 1.22562 4.07258 0
M  V30 3956 N 369.525 -1.3858 0.750561 0
M  V30 3957 C 370.435 -2.34278 0.122825 0
M  V30 3958 C 371.451 -1.59116 -0.704131 0
M  V30 3959 O 372.627 -1.91326 -0.628987 0
M  V30 3960 C 369.692 -3.38221 -0.762086 0
M  V30 3961 C 368.753 -4.29227 0.078896 0
M  V30 3962 C 367.986 -5.28205 -0.763874 0
M  V30 3963 O 368.209 -5.34112 -2.00201 0
M  V30 3964 O 367.143 -6.01618 -0.18428 0
M  V30 3965 H 370.969 -2.89649 0.913088 0
M  V30 3966 H 368.554 -1.40374 0.511417 0
M  V30 3967 H 370.436 -4.01872 -1.26793 0
M  V30 3968 H 369.111 -2.85211 -1.5309 0
M  V30 3969 H 368.018 -3.68747 0.630621 0
M  V30 3970 H 369.351 -4.85484 0.810289 0
M  V30 3971 N 371.003 -0.499398 -1.49478 0
M  V30 3972 C 372.231 0.0425456 -2.06856 0
M  V30 3973 C 372.646 1.30964 -1.35992 0
M  V30 3974 O 372.003 1.77172 -0.437762 0
M  V30 3975 C 372.054 0.301735 -3.60239 0
M  V30 3976 O 371.775 -0.915127 -4.28436 0
M  V30 3977 C 373.276 0.887499 -4.34325 0
M  V30 3978 H 370.496 -0.0197482 -0.670709 0
M  V30 3979 H 373.04 -0.696297 -1.92281 0
M  V30 3980 H 371.195 0.990556 -3.74522 0
M  V30 3981 H 371.609 -0.676993 -5.20113 0
M  V30 3982 H 373.083 1.01845 -5.42523 0
M  V30 3983 H 373.56 1.88488 -3.96698 0
M  V30 3984 H 374.166 0.236196 -4.24644 0
M  V30 3985 N 372.481 1.55866 -0.233164 0
M  V30 3986 C 373.706 2.03449 0.402906 0
M  V30 3987 C 374.131 1.11166 1.51736 0
M  V30 3988 O 373.489 0.101996 1.81013 0
M  V30 3989 C 373.537 3.49165 0.9009 0
M  V30 3990 O 372.641 3.60019 2.01147 0
M  V30 3991 H 371.982 0.657913 0.0897025 0
M  V30 3992 H 374.512 2.01493 -0.355201 0
M  V30 3993 H 374.522 3.89716 1.2077 0
M  V30 3994 H 373.197 4.15813 0.0852889 0
M  V30 3995 H 371.774 3.3136 1.71042 0
M  V30 3996 N 373.959 -0.0401083 1.57549 0
M  V30 3997 C 375.184 -0.748931 1.93406 0
M  V30 3998 C 375.609 -1.68686 0.832274 0
M  V30 3999 O 374.967 -1.80047 -0.212818 0
M  V30 4000 C 375.015 -1.4916 3.28304 0
M  V30 4001 O 374.119 -2.6042 3.19774 0
M  V30 4002 H 373.46 -0.202212 0.63246 0
M  V30 4003 H 375.99 0.00112086 2.046 0
M  V30 4004 H 376 -1.86395 3.62934 0
M  V30 4005 H 374.675 -0.80364 4.08062 0
M  V30 4006 H 373.252 -2.25808 2.96758 0
M  V30 4007 N 375.437 -1.54477 -0.31217 0
M  V30 4008 C 376.369 -1.81011 -1.40598 0
M  V30 4009 C 377.382 -0.692546 -1.47335 0
M  V30 4010 O 378.571 -0.969847 -1.49854 0
M  V30 4011 C 375.671 -1.92307 -2.79054 0
M  V30 4012 C 374.844 -3.22594 -2.95384 0
M  V30 4013 C 373.903 -3.24448 -4.1427 0
M  V30 4014 O 372.929 -3.98035 -4.06887 0
M  V30 4015 N 374.131 -2.49042 -5.24365 0
M  V30 4016 H 376.896 -2.75408 -1.18196 0
M  V30 4017 H 374.457 -1.53914 -0.502202 0
M  V30 4018 H 376.449 -1.90962 -3.56813 0
M  V30 4019 H 375.019 -1.04955 -2.94454 0
M  V30 4020 H 374.239 -3.36806 -2.04831 0
M  V30 4021 H 375.527 -4.08593 -3.03198 0
M  V30 4022 H 374.925 -1.88867 -5.33241 0
M  V30 4023 H 373.482 -2.53463 -6.005 0
M  V30 4024 N 376.915 0.57481 -1.46744 0
M  V30 4025 C 378.326 1.15695 -1.46532 0
M  V30 4026 C 378.677 1.95068 -0.210425 0
M  V30 4027 O 377.802 2.05241 0.685944 0
M  V30 4028 C 378.397 2.1048 -2.65487 0
M  V30 4029 C 376.956 2.64002 -2.68291 0
M  V30 4030 C 376.103 1.40026 -2.39349 0
M  V30 4031 H 379.054 0.362325 -1.54509 0
M  V30 4032 H 379.075 2.94074 -2.41455 0
M  V30 4033 H 378.587 1.52683 -3.56805 0
M  V30 4034 H 376.688 3.25646 -1.81067 0
M  V30 4035 H 376.801 3.06197 -3.68483 0
M  V30 4036 H 375.165 1.70106 -1.89568 0
M  V30 4037 H 375.948 0.840485 -3.32852 0
M  V30 4038 N 378.394 1.34581 0.820102 0
M  V30 4039 C 379.341 1.2639 1.93117 0
M  V30 4040 C 380.311 0.138554 1.65521 0
M  V30 4041 O 381.496 0.320004 1.88097 0
M  V30 4042 C 378.636 1.02812 3.29429 0
M  V30 4043 C 377.749 2.24146 3.693 0
M  V30 4044 C 376.884 1.93829 4.94574 0
M  V30 4045 C 375.923 3.1129 5.27034 0
M  V30 4046 N 375.06 2.80838 6.43486 0
M  V30 4047 H 379.9 2.21408 1.99455 0
M  V30 4048 H 377.437 1.10077 0.975784 0
M  V30 4049 H 379.395 0.871788 4.0799 0
M  V30 4050 H 378.025 0.114612 3.22596 0
M  V30 4051 H 377.077 2.50691 2.86109 0
M  V30 4052 H 378.389 3.11899 3.89257 0
M  V30 4053 H 377.543 1.74948 5.80929 0
M  V30 4054 H 376.282 1.03341 4.76626 0
M  V30 4055 H 375.287 3.30764 4.39175 0
M  V30 4056 H 376.512 4.02561 5.4692 0
M  V30 4057 H 374.458 1.92929 6.26988 0
M  V30 4058 H 374.375 3.62123 6.63629 0
M  V30 4059 H 375.643 2.65467 7.32903 0
M  V30 4060 N 379.872 -1.04064 1.18357 0
M  V30 4061 C 380.82 -2.14187 0.907007 0
M  V30 4062 C 381.814 -1.68879 -0.132725 0
M  V30 4063 O 383.02 -1.79993 0.0154248 0
M  V30 4064 H 379.395 -0.699585 0.275835 0
M  V30 4065 H 381.366 -2.34711 1.84264 0
M  V30 4066 C 380.115 -3.44785 0.449254 0
M  V30 4067 H 379.438 -3.80058 1.24081 0
M  V30 4068 H 380.878 -4.22974 0.294737 0
M  V30 4069 C 379.337 -3.26391 -0.834909 0
M  V30 4070 O 379.867 -3.53973 -1.89911 0
M  V30 4071 N 378.073 -2.79726 -0.787523 0
M  V30 4072 H 377.62 -2.5748 0.0787347 0
M  V30 4073 H 377.578 -2.67798 -1.64716 0
M  V30 4074 N 381.35 -0.985608 -1.22978 0
M  V30 4075 C 382.26 -0.538548 -2.28335 0
M  V30 4076 C 383.276 0.409163 -1.69121 0
M  V30 4077 O 384.452 0.277797 -1.99475 0
M  V30 4078 C 381.517 0.146867 -3.46389 0
M  V30 4079 C 380.578 -0.842896 -4.20944 0
M  V30 4080 C 379.811 -0.190095 -5.33361 0
M  V30 4081 O 380.034 1.01767 -5.61248 0
M  V30 4082 O 378.968 -0.891289 -5.95264 0
M  V30 4083 H 382.794 -1.41487 -2.68729 0
M  V30 4084 H 380.379 -0.753495 -1.29007 0
M  V30 4085 H 382.261 0.531125 -4.1804 0
M  V30 4086 H 380.936 0.997871 -3.07935 0
M  V30 4087 H 379.843 -1.27795 -3.51595 0
M  V30 4088 H 381.176 -1.66287 -4.6326 0
M  V30 4089 N 382.828 1.3818 -0.7579 0
M  V30 4090 C 383.738 2.3421 -0.135247 0
M  V30 4091 C 384.754 1.59487 0.695683 0
M  V30 4092 O 385.93 1.91657 0.618832 0
M  V30 4093 C 382.995 3.3862 0.744139 0
M  V30 4094 C 382.056 4.2918 -0.101658 0
M  V30 4095 C 381.289 5.28603 0.735851 0
M  V30 4096 O 381.512 5.35166 1.97366 0
M  V30 4097 O 380.446 6.01707 0.152372 0
M  V30 4098 H 384.272 2.8916 -0.928436 0
M  V30 4099 H 381.857 1.40101 -0.518855 0
M  V30 4100 H 383.739 4.02539 1.2466 0
M  V30 4101 H 382.414 2.86019 1.51575 0
M  V30 4102 H 381.321 3.68407 -0.650167 0
M  V30 4103 H 382.654 4.85048 -0.836024 0
M  V30 4104 N 384.306 0.507319 1.49211 0
M  V30 4105 C 385.583 -0.0982702 1.95353 0
M  V30 4106 C 385.963 -1.53516 1.449 0
M  V30 4107 O 385.311 -2.18594 0.66551 0
M  V30 4108 C 385.521 -0.00440283 3.49 0
M  V30 4109 C 386.869 -0.175147 4.24239 0
M  V30 4110 O 387.893 -0.0792891 3.56112 0
M  V30 4111 O 386.752 -0.37276 5.45227 0
M  V30 4112 H 383.846 -0.0918236 0.821887 0
M  V30 4113 H 386.392 0.570307 1.5983 0
M  V30 4114 H 385.164 0.997402 3.78375 0
M  V30 4115 H 384.787 -0.712845 3.91158 0
M  V30 4116 N 385.784 -1.5574 0.241426 0
M  V30 4117 C 387.033 -1.97986 -0.385295 0
M  V30 4118 C 387.346 -1.13267 -1.59468 0
M  V30 4119 O 388.552 -1.45501 -2.2922 0
M  V30 4120 C 387.008 -3.52275 -0.736884 0
M  V30 4121 C 386.616 -4.45726 0.450796 0
M  V30 4122 C 388.36 -4.03189 -1.3281 0
M  V30 4123 C 386.267 -5.91352 0.0756662 0
M  V30 4124 H 385.197 -0.739386 -0.147731 0
M  V30 4125 H 387.848 -1.80308 0.340779 0
M  V30 4126 H 386.23 -3.65628 -1.52094 0
M  V30 4127 H 387.404 -4.44131 1.22819 0
M  V30 4128 H 385.719 -4.05264 0.956573 0
M  V30 4129 H 388.316 -5.09505 -1.62201 0
M  V30 4130 H 388.659 -3.50212 -2.25071 0
M  V30 4131 H 389.192 -3.93141 -0.607069 0
M  V30 4132 H 385.931 -6.48354 0.965272 0
M  V30 4133 H 385.451 -5.96095 -0.665635 0
M  V30 4134 H 387.13 -6.46084 -0.344075 0
M  V30 4135 N 387.262 0.0317525 -1.57568 0
M  V30 4136 C 388.172 1.05021 -2.0978 0
M  V30 4137 C 389.188 1.39809 -1.03583 0
M  V30 4138 O 390.364 1.49182 -1.35302 0
M  V30 4139 C 387.429 2.33301 -2.56459 0
M  V30 4140 C 386.49 2.0512 -3.77127 0
M  V30 4141 C 385.723 3.27283 -4.2157 0
M  V30 4142 O 385.946 4.37861 -3.65559 0
M  V30 4143 O 384.88 3.13141 -5.14029 0
M  V30 4144 H 388.706 0.636505 -2.96955 0
M  V30 4145 H 386.291 0.248559 -1.47318 0
M  V30 4146 H 388.173 3.08722 -2.86825 0
M  V30 4147 H 386.848 2.73973 -1.72397 0
M  V30 4148 H 385.755 1.27276 -3.51784 0
M  V30 4149 H 387.088 1.69305 -4.62165 0
M  V30 4150 N 388.74 1.54641 0.303973 0
M  V30 4151 C 389.989 1.7299 1.03717 0
M  V30 4152 C 390.302 0.521168 1.88529 0
M  V30 4153 O 391.508 0.586408 2.65092 0
M  V30 4154 C 389.964 3.06051 1.89369 0
M  V30 4155 C 389.572 4.34393 1.09574 0
M  V30 4156 C 391.316 3.3376 2.62306 0
M  V30 4157 C 389.223 5.58506 1.94486 0
M  V30 4158 H 388.153 0.64473 0.390947 0
M  V30 4159 H 390.804 1.81124 0.294328 0
M  V30 4160 H 389.186 2.91874 2.67629 0
M  V30 4161 H 390.36 4.59396 0.359485 0
M  V30 4162 H 388.675 4.13597 0.482324 0
M  V30 4163 H 391.272 4.23687 3.26181 0
M  V30 4164 H 391.615 2.52503 3.3098 0
M  V30 4165 H 392.148 3.48894 1.91097 0
M  V30 4166 H 388.887 6.42422 1.30287 0
M  V30 4167 H 388.407 5.37694 2.65792 0
M  V30 4168 H 390.086 5.95651 2.52605 0
M  V30 4169 N 390.218 -0.567019 1.47046 0
M  V30 4170 C 391.467 -1.32091 1.5243 0
M  V30 4171 C 391.78 -1.94704 0.187021 0
M  V30 4172 O 392.986 -2.7124 0.118771 0
M  V30 4173 C 391.442 -2.39479 2.68659 0
M  V30 4174 C 391.05 -1.831 4.08874 0
M  V30 4175 C 392.794 -3.16111 2.83327 0
M  V30 4176 C 390.701 -2.8821 5.16419 0
M  V30 4177 H 389.631 -0.496629 0.56734 0
M  V30 4178 H 392.282 -0.603354 1.73297 0
M  V30 4179 H 390.664 -3.14105 2.41152 0
M  V30 4180 H 391.838 -1.14913 4.46242 0
M  V30 4181 H 390.153 -1.19085 3.99008 0
M  V30 4182 H 392.75 -3.94585 3.60842 0
M  V30 4183 H 393.093 -3.69686 1.91411 0
M  V30 4184 H 393.626 -2.48595 3.10556 0
M  V30 4185 H 390.365 -2.39504 6.10179 0
M  V30 4186 H 389.885 -3.54839 4.8358 0
M  V30 4187 H 391.564 -3.51881 5.42945 0
M  V30 4188 N 391.696 -1.35014 -0.812953 0
M  V30 4189 C 393.107 -1.25035 -1.38648 0
M  V30 4190 C 393.458 0.119967 -1.95833 0
M  V30 4191 O 392.583 1.02069 -1.90816 0
M  V30 4192 C 393.178 -2.26394 -2.52054 0
M  V30 4193 C 391.737 -2.20175 -3.05287 0
M  V30 4194 C 390.884 -2.12451 -1.78213 0
M  V30 4195 H 393.835 -1.46235 -0.616516 0
M  V30 4196 H 393.856 -1.88672 -3.30429 0
M  V30 4197 H 393.368 -3.26116 -2.10404 0
M  V30 4198 H 391.469 -1.23841 -3.51417 0
M  V30 4199 H 391.582 -3.11863 -3.63701 0
M  V30 4200 H 389.946 -1.58328 -1.9951 0
M  V30 4201 H 390.729 -3.14024 -1.38723 0
M  V30 4202 N 393.175 1.03435 -1.18907 0
M  V30 4203 C 394.424 1.76143 -0.982669 0
M  V30 4204 C 394.737 1.89416 0.487953 0
M  V30 4205 O 395.943 2.59041 0.813036 0
M  V30 4206 C 394.399 3.16722 -1.70924 0
M  V30 4207 C 394.007 3.11522 -3.21959 0
M  V30 4208 C 395.751 3.93764 -1.58588 0
M  V30 4209 C 393.658 4.46999 -3.87228 0
M  V30 4210 H 392.588 0.660292 -0.364047 0
M  V30 4211 H 395.239 1.158 -1.42347 0
M  V30 4212 H 393.621 3.775 -1.19623 0
M  V30 4213 H 394.795 2.60158 -3.80335 0
M  V30 4214 H 393.11 2.47978 -3.34508 0
M  V30 4215 H 395.707 4.93963 -2.04707 0
M  V30 4216 H 396.05 4.12794 -0.539142 0
M  V30 4217 H 396.583 3.39576 -2.07203 0
M  V30 4218 H 393.322 4.33174 -4.91976 0
M  V30 4219 H 392.842 4.98441 -3.33642 0
M  V30 4220 H 394.521 5.15898 -3.90459 0
M  V30 4221 N 394.653 0.992116 1.22453 0
M  V30 4222 C 395.585 0.500024 2.23679 0
M  V30 4223 C 396.598 -0.404463 1.57696 0
M  V30 4224 O 397.787 -0.206722 1.77299 0
M  V30 4225 C 394.887 -0.294711 3.37616 0
M  V30 4226 C 394.06 0.605723 4.33186 0
M  V30 4227 C 393.119 -0.13717 5.26021 0
M  V30 4228 O 392.145 0.477164 5.67196 0
M  V30 4229 N 393.347 -1.4197 5.62872 0
M  V30 4230 H 396.112 1.37045 2.66531 0
M  V30 4231 H 393.673 0.866741 1.36745 0
M  V30 4232 H 395.665 -0.800329 3.96707 0
M  V30 4233 H 394.235 -1.06623 2.93854 0
M  V30 4234 H 393.455 1.29202 3.72425 0
M  V30 4235 H 394.743 1.21896 4.93983 0
M  V30 4236 H 394.141 -1.94015 5.31389 0
M  V30 4237 H 392.698 -1.87052 6.24383 0
M  V30 4238 N 396.131 -1.37776 0.765217 0
M  V30 4239 C 397.041 -2.34135 0.147666 0
M  V30 4240 C 398.057 -1.59854 -0.687215 0
M  V30 4241 O 399.233 -1.91983 -0.608659 0
M  V30 4242 C 396.298 -3.3901 -0.72617 0
M  V30 4243 C 395.359 -4.2912 0.124417 0
M  V30 4244 C 394.592 -5.28986 -0.707807 0
M  V30 4245 O 394.815 -5.36205 -1.94525 0
M  V30 4246 O 393.749 -6.01779 -0.12046 0
M  V30 4247 H 397.575 -2.88664 0.943758 0
M  V30 4248 H 395.16 -1.39824 0.526277 0
M  V30 4249 H 397.042 -4.03195 -1.22524 0
M  V30 4250 H 395.717 -2.86819 -1.50056 0
M  V30 4251 H 394.624 -3.68057 0.669696 0
M  V30 4252 H 395.957 -4.84598 0.861736 0
M  V30 4253 N 397.609 -0.515225 -1.4894 0
M  V30 4254 C 398.519 0.259774 -2.33157 0
M  V30 4255 C 399.535 0.953501 -1.45548 0
M  V30 4256 O 400.711 0.931735 -1.78552 0
M  V30 4257 C 397.776 1.30193 -3.21326 0
M  V30 4258 C 396.837 0.620129 -4.24797 0
M  V30 4259 C 396.07 1.61263 -5.08753 0
M  V30 4260 O 396.293 2.84389 -4.94448 0
M  V30 4261 O 395.227 1.16013 -5.90614 0
M  V30 4262 H 399.053 -0.429932 -3.00641 0
M  V30 4263 H 396.638 -0.276346 -1.46822 0
M  V30 4264 H 398.52 1.90455 -3.75905 0
M  V30 4265 H 397.195 1.97431 -2.56521 0
M  V30 4266 H 396.102 -0.0226019 -3.74093 0
M  V30 4267 H 397.435 -0.0100493 -4.92199 0
M  V30 4268 N 399.087 1.5561 -0.249682 0
M  V30 4269 C 399.997 2.25143 0.659375 0
M  V30 4270 C 401.013 1.2685 1.19101 0
M  V30 4271 O 402.189 1.59732 1.22669 0
M  V30 4272 C 399.254 2.93945 1.8384 0
M  V30 4273 C 398.315 4.07655 1.34596 0
M  V30 4274 C 397.548 4.73167 2.46878 0
M  V30 4275 O 397.771 4.37768 3.65671 0
M  V30 4276 O 396.705 5.61623 2.16478 0
M  V30 4277 H 400.531 3.03545 0.0968698 0
M  V30 4278 H 398.116 1.49389 -0.018074 0
M  V30 4279 H 399.998 3.37271 2.52638 0
M  V30 4280 H 398.673 2.18481 2.38847 0
M  V30 4281 H 397.58 3.68839 0.625174 0
M  V30 4282 H 398.913 4.84946 0.841941 0
M  V30 4283 N 400.565 -0.0233959 1.57583 0
M  V30 4284 C 401.475 -1.03907 2.10334 0
M  V30 4285 C 402.491 -1.39257 1.04323 0
M  V30 4286 O 403.667 -1.48462 1.36091 0
M  V30 4287 C 400.732 -2.31938 2.57693 0
M  V30 4288 C 399.793 -2.03117 3.78209 0
M  V30 4289 C 399.026 -3.25043 4.233 0
M  V30 4290 O 399.249 -4.35916 3.67876 0
M  V30 4291 O 398.183 -3.10411 5.15683 0
M  V30 4292 H 402.009 -0.620748 2.97288 0
M  V30 4293 H 399.594 -0.240743 1.47448 0
M  V30 4294 H 401.476 -3.07196 2.88458 0
M  V30 4295 H 400.151 -2.73055 1.73847 0
M  V30 4296 H 399.058 -1.25408 3.52454 0
M  V30 4297 H 400.391 -1.66852 4.63056 0
M  V30 4298 N 402.043 -1.548 -0.295768 0
M  V30 4299 C 402.953 -1.89177 -1.38742 0
M  V30 4300 C 403.969 -0.786481 -1.55211 0
M  V30 4301 O 405.145 -1.08344 -1.69775 0
M  V30 4302 C 402.21 -2.13663 -2.73036 0
M  V30 4303 C 401.271 -3.37349 -2.65508 0
M  V30 4304 C 400.504 -3.60658 -3.93398 0
M  V30 4305 O 400.727 -2.86882 -4.93006 0
M  V30 4306 O 399.661 -4.54179 -3.94975 0
M  V30 4307 H 403.487 -2.82059 -1.12589 0
M  V30 4308 H 401.072 -1.41056 -0.492295 0
M  V30 4309 H 402.954 -2.3094 -3.52484 0
M  V30 4310 H 401.629 -1.23967 -2.99022 0
M  V30 4311 H 400.536 -3.25431 -1.84514 0
M  V30 4312 H 401.869 -4.27192 -2.44474 0
M  V30 4313 N 403.521 0.559213 -1.47345 0
M  V30 4314 C 404.431 1.69388 -1.62311 0
M  V30 4315 C 405.447 1.6648 -0.505993 0
M  V30 4316 O 406.623 1.85964 -0.773262 0
M  V30 4317 C 403.688 3.05894 -1.63185 0
M  V30 4318 C 402.749 3.19885 -2.86307 0
M  V30 4319 C 401.982 4.49879 -2.87131 0
M  V30 4320 O 402.205 5.35217 -1.97229 0
M  V30 4321 O 401.139 4.67618 -3.78968 0
M  V30 4322 H 404.965 1.59706 -2.58317 0
M  V30 4323 H 402.55 0.728989 -1.30407 0
M  V30 4324 H 404.432 3.87133 -1.66451 0
M  V30 4325 H 403.107 3.15964 -0.70345 0
M  V30 4326 H 402.014 2.38052 -2.88587 0
M  V30 4327 H 403.347 3.14718 -3.78435 0
M  V30 4328 N 404.999 1.35443 0.805782 0
M  V30 4329 C 406.227 1.31878 1.59423 0
M  V30 4330 C 406.642 -0.103562 1.88516 0
M  V30 4331 O 405.999 -1.05575 1.48863 0
M  V30 4332 C 406.05 2.12426 2.92502 0
M  V30 4333 O 405.771 3.49115 2.6467 0
M  V30 4334 C 407.272 2.16455 3.86862 0
M  V30 4335 H 404.492 0.453002 0.495005 0
M  V30 4336 H 407.036 1.78309 1.00131 0
M  V30 4337 H 405.191 1.69593 3.48306 0
M  V30 4338 H 405.605 3.90957 3.49647 0
M  V30 4339 H 407.079 2.77204 4.77349 0
M  V30 4340 H 407.556 1.16352 4.23508 0
M  V30 4341 H 408.162 2.59453 3.36993 0
M  V30 4342 N 406.477 -1.02803 1.19454 0
M  V30 4343 C 407.387 -2.14575 0.948408 0
M  V30 4344 C 408.403 -1.73757 -0.091871 0
M  V30 4345 O 409.579 -2.01185 0.0929654 0
M  V30 4346 C 406.644 -3.43202 0.491265 0
M  V30 4347 C 405.705 -3.98328 1.60103 0
M  V30 4348 C 404.938 -5.20816 1.16561 0
M  V30 4349 O 405.161 -5.70392 0.0295238 0
M  V30 4350 O 404.095 -5.68801 1.96849 0
M  V30 4351 H 407.921 -2.38202 1.88397 0
M  V30 4352 H 405.506 -1.12989 0.977433 0
M  V30 4353 H 407.388 -4.20687 0.245015 0
M  V30 4354 H 406.063 -3.21018 -0.415851 0
M  V30 4355 H 404.97 -3.22174 1.90144 0
M  V30 4356 H 406.303 -4.24879 2.48473 0
M  V30 4357 N 407.956 -0.998596 -1.21925 0
M  V30 4358 C 409.184 -0.696286 -1.94832 0
M  V30 4359 C 409.599 0.740032 -1.73692 0
M  V30 4360 O 408.956 1.5 -1.03953 0
M  V30 4361 C 409.007 -0.999833 -3.47398 0
M  V30 4362 O 408.728 -2.37972 -3.67833 0
M  V30 4363 C 410.229 -0.716025 -4.37479 0
M  V30 4364 H 407.449 -0.257111 -0.619786 0
M  V30 4365 H 409.993 -1.33491 -1.54921 0
M  V30 4366 H 408.148 -0.406918 -3.85257 0
M  V30 4367 H 408.562 -2.48338 -4.61983 0
M  V30 4368 H 410.036 -0.978642 -5.43256 0
M  V30 4369 H 410.513 0.349968 -4.37803 0
M  V30 4370 H 411.119 -1.29025 -4.05256 0
M  V30 4371 N 409.434 1.37368 -0.772513 0
M  V30 4372 C 410.382 2.32134 -0.147111 0
M  V30 4373 C 411.376 1.54972 0.684106 0
M  V30 4374 O 412.582 1.70363 0.581083 0
M  V30 4375 H 408.957 0.751449 -0.028786 0
M  V30 4376 H 410.928 2.82464 -0.962112 0
M  V30 4377 C 409.677 3.40226 0.71703 0
M  V30 4378 H 409 3.99706 0.0867951 0
M  V30 4379 H 410.44 4.08897 1.12159 0
M  V30 4380 C 408.899 2.80372 1.86797 0
M  V30 4381 O 409.429 2.71183 2.96349 0
M  V30 4382 N 407.635 2.37904 1.66883 0
M  V30 4383 H 407.182 2.45578 0.777759 0
M  V30 4384 H 407.14 1.98202 2.44056 0
M  V30 4385 N 410.912 0.523116 1.48665 0
M  V30 4386 C 412.159 -0.0134763 2.02496 0
M  V30 4387 C 412.487 -1.3493 1.40086 0
M  V30 4388 O 411.742 -1.88286 0.533567 0
M  V30 4389 C 412.041 -0.191671 3.56886 0
M  V30 4390 C 411.707 1.06893 4.38046 0
M  V30 4391 C 410.369 1.41443 4.59943 0
M  V30 4392 C 412.721 1.90584 4.85106 0
M  V30 4393 C 410.049 2.59594 5.26144 0
M  V30 4394 C 412.401 3.07907 5.52609 0
M  V30 4395 C 411.065 3.42811 5.72745 0
M  V30 4396 H 410.335 -0.00493133 0.740984 0
M  V30 4397 H 412.982 0.687751 1.78724 0
M  V30 4398 H 411.287 -0.97561 3.79459 0
M  V30 4399 H 412.984 -0.621659 3.96152 0
M  V30 4400 H 409.574 0.789848 4.21259 0
M  V30 4401 H 413.758 1.65203 4.67997 0
M  V30 4402 H 409.014 2.86847 5.39934 0
M  V30 4403 H 413.188 3.73066 5.88043 0
M  V30 4404 H 410.815 4.34462 6.23816 0
M  V30 4405 N 412.39 -1.55475 0.257931 0
M  V30 4406 C 413.801 -1.8511 -0.243135 0
M  V30 4407 C 414.152 -1.17986 -1.5676 0
M  V30 4408 O 413.277 -0.462102 -2.11409 0
M  V30 4409 C 413.872 -3.35826 -0.447929 0
M  V30 4410 C 412.431 -3.65647 -0.893245 0
M  V30 4411 C 411.578 -2.7729 0.0232965 0
M  V30 4412 H 414.529 -1.51261 0.480199 0
M  V30 4413 H 414.55 -3.58002 -1.28898 0
M  V30 4414 H 414.062 -3.84652 0.516196 0
M  V30 4415 H 412.163 -3.22308 -1.86945 0
M  V30 4416 H 412.276 -4.73312 -0.742469 0
M  V30 4417 H 410.64 -2.49942 -0.490021 0
M  V30 4418 H 411.423 -3.28926 0.982994 0
M  V30 4419 N 413.868 0.0150385 -1.57593 0
M  V30 4420 C 414.778 1.02791 -2.10882 0
M  V30 4421 C 415.794 1.38702 -1.0506 0
M  V30 4422 O 416.97 1.47739 -1.36877 0
M  V30 4423 C 414.035 2.30568 -2.58919 0
M  V30 4424 C 413.096 2.01108 -3.79281 0
M  V30 4425 C 412.329 3.22794 -4.25018 0
M  V30 4426 O 412.552 4.33959 -3.70183 0
M  V30 4427 O 411.486 3.07672 -5.17322 0
M  V30 4428 H 415.312 0.604973 -2.97613 0
M  V30 4429 H 412.897 0.23292 -1.47573 0
M  V30 4430 H 414.779 3.05662 -2.90084 0
M  V30 4431 H 413.454 2.72129 -1.75293 0
M  V30 4432 H 412.361 1.23537 -3.53114 0
M  V30 4433 H 413.694 1.64394 -4.63935 0
M  V30 4434 N 415.346 1.54954 0.287554 0
M  V30 4435 C 416.757 1.65732 0.859634 0
M  V30 4436 C 417.108 0.574767 1.87592 0
M  V30 4437 O 416.233 -0.286299 2.14498 0
M  V30 4438 C 416.828 3.00438 1.56597 0
M  V30 4439 C 415.387 3.13292 2.08627 0
M  V30 4440 C 414.534 2.61473 0.923416 0
M  V30 4441 H 417.485 1.5857 0.0642338 0
M  V30 4442 H 417.506 2.92613 2.43224 0
M  V30 4443 H 417.018 3.79207 0.826053 0
M  V30 4444 H 415.119 2.39268 2.85625 0
M  V30 4445 H 415.232 4.19647 2.31157 0
M  V30 4446 H 413.596 2.18264 1.31275 0
M  V30 4447 H 414.379 3.42733 0.197241 0
M  V30 4448 N 416.824 -0.551391 1.4764 0
M  V30 4449 C 418.235 -1.13349 1.48354 0
M  V30 4450 C 418.586 -1.94709 0.241432 0
M  V30 4451 O 417.711 -2.06306 -0.653205 0
M  V30 4452 C 418.306 -2.0623 2.68802 0
M  V30 4453 C 416.865 -2.597 2.72457 0
M  V30 4454 C 416.012 -1.36201 2.41546 0
M  V30 4455 H 418.963 -0.337698 1.55065 0
M  V30 4456 H 418.984 -2.90196 2.46103 0
M  V30 4457 H 418.496 -1.46987 3.59188 0
M  V30 4458 H 416.597 -3.22724 1.86225 0
M  V30 4459 H 416.71 -3.00296 3.73308 0
M  V30 4460 H 415.074 -1.67068 1.9225 0
M  V30 4461 H 415.857 -0.787425 3.34147 0
M  V30 4462 N 418.302 -1.35869 -0.798587 0
M  V30 4463 C 419.234 -1.25305 -1.91915 0
M  V30 4464 C 420.247 -0.174548 -1.61862 0
M  V30 4465 O 421.436 -0.428499 -1.73281 0
M  V30 4466 C 418.536 -0.9086 -3.26493 0
M  V30 4467 C 417.709 -2.08711 -3.84394 0
M  V30 4468 C 416.768 -1.71717 -4.97393 0
M  V30 4469 O 415.794 -2.43692 -5.14396 0
M  V30 4470 N 416.996 -0.645473 -5.769 0
M  V30 4471 H 419.761 -2.21849 -2.01502 0
M  V30 4472 H 417.322 -1.29143 -0.976408 0
M  V30 4473 H 419.314 -0.642455 -3.99568 0
M  V30 4474 H 417.884 -0.0325815 -3.12583 0
M  V30 4475 H 417.104 -2.51659 -3.03416 0
M  V30 4476 H 418.392 -2.87468 -4.19809 0
M  V30 4477 H 417.79 -0.047648 -5.6568 0
M  V30 4478 H 416.347 -0.43913 -6.50319 0
M  V30 4479 N 419.78 1.02168 -1.19998 0
M  V30 4480 C 421.057 1.72816 -0.916191 0
M  V30 4481 C 421.437 2.03081 0.576325 0
M  V30 4482 O 420.785 1.69122 1.53656 0
M  V30 4483 C 420.995 2.9997 -1.78378 0
M  V30 4484 C 422.343 3.73336 -2.02251 0
M  V30 4485 O 423.367 3.09914 -1.75589 0
M  V30 4486 O 422.226 4.87371 -2.47249 0
M  V30 4487 H 419.32 0.752924 -0.342103 0
M  V30 4488 H 421.866 1.08062 -1.30846 0
M  V30 4489 H 420.638 2.73888 -2.79466 0
M  V30 4490 H 420.261 3.72464 -1.39126 0
M  V30 4491 N 421.258 1.00505 1.21394 0
M  V30 4492 C 422.19 0.52372 2.23136 0
M  V30 4493 C 423.203 -0.387714 1.58116 0
M  V30 4494 O 424.392 -0.187905 1.77508 0
M  V30 4495 C 421.492 -0.258885 3.3791 0
M  V30 4496 C 420.665 0.651634 4.32519 0
M  V30 4497 C 419.724 -0.0813705 5.26137 0
M  V30 4498 O 418.75 0.537295 5.66658 0
M  V30 4499 N 419.952 -1.35992 5.64346 0
M  V30 4500 H 422.717 1.39865 2.65062 0
M  V30 4501 H 420.278 0.881196 1.35818 0
M  V30 4502 H 422.27 -0.758208 3.97534 0
M  V30 4503 H 420.84 -1.035 2.94968 0
M  V30 4504 H 420.06 1.33145 3.71034 0
M  V30 4505 H 421.348 1.27129 4.92662 0
M  V30 4506 H 420.746 -1.88368 5.33417 0
M  V30 4507 H 419.303 -1.8042 6.26332 0
M  V30 4508 N 422.737 -1.36956 0.779787 0
M  V30 4509 C 423.647 -2.33965 0.172491 0
M  V30 4510 C 424.663 -1.60574 -0.670222 0
M  V30 4511 O 425.839 -1.92617 -0.588263 0
M  V30 4512 C 422.904 -3.39761 -0.690173 0
M  V30 4513 C 421.965 -4.28964 0.169924 0
M  V30 4514 C 421.198 -5.29707 -0.651662 0
M  V30 4515 O 421.421 -5.38238 -1.88827 0
M  V30 4516 O 420.355 -6.01873 -0.0566264 0
M  V30 4517 H 424.181 -2.87647 0.974321 0
M  V30 4518 H 421.766 -1.39258 0.541078 0
M  V30 4519 H 423.648 -4.04471 -1.1824 0
M  V30 4520 H 422.323 -2.88394 -1.47006 0
M  V30 4521 H 421.23 -3.67326 0.708696 0
M  V30 4522 H 422.563 -4.83656 0.913085 0
M  V30 4523 N 424.215 -0.530993 -1.48385 0
M  V30 4524 C 425.44 0.000729535 -2.074 0
M  V30 4525 C 425.865 1.27298 -1.3848 0
M  V30 4526 O 425.223 1.75599 -0.451081 0
M  V30 4527 C 425.271 0.206697 -3.60007 0
M  V30 4528 O 424.375 1.27514 -3.92191 0
M  V30 4529 H 423.716 -0.039583 -0.662819 0
M  V30 4530 H 426.246 -0.739194 -1.9078 0
M  V30 4531 H 426.256 0.42904 -4.05738 0
M  V30 4532 H 424.931 -0.722675 -4.09573 0
M  V30 4533 H 423.508 1.03537 -3.58238 0
M  V30 4534 N 425.693 1.55336 -0.266172 0
M  V30 4535 C 426.918 2.04258 0.359661 0
M  V30 4536 C 427.343 1.14359 1.49344 0
M  V30 4537 O 426.701 0.140369 1.80756 0
M  V30 4538 C 426.749 3.50997 0.826635 0
M  V30 4539 O 425.853 3.64204 1.93466 0
M  V30 4540 H 425.194 0.659668 0.075727 0
M  V30 4541 H 427.724 2.00694 -0.39786 0
M  V30 4542 H 427.734 3.9219 1.12477 0
M  V30 4543 H 426.409 4.159 -0.00293032 0
M  V30 4544 H 424.986 3.34913 1.63974 0
M  V30 4545 N 427.171 -0.0066808 1.57599 0
M  V30 4546 C 428.582 -0.550379 1.78403 0
M  V30 4547 C 428.933 -1.74339 0.900014 0
M  V30 4548 O 428.058 -2.16166 0.100713 0
M  V30 4549 C 428.653 -1.00523 3.23544 0
M  V30 4550 C 427.212 -1.49428 3.45468 0
M  V30 4551 C 426.359 -0.442444 2.73748 0
M  V30 4552 H 429.31 0.219508 1.57175 0
M  V30 4553 H 429.331 -1.87157 3.31289 0
M  V30 4554 H 428.843 -0.136735 3.87859 0
M  V30 4555 H 426.944 -2.3839 2.86358 0
M  V30 4556 H 427.057 -1.52635 4.54136 0
M  V30 4557 H 425.421 -0.902578 2.38171 0
M  V30 4558 H 426.204 0.416973 3.40758 0
M  V30 4559 N 428.649 -1.55105 -0.279332 0
M  V30 4560 C 429.898 -1.74618 -1.00952 0
M  V30 4561 C 430.211 -0.551096 -1.87676 0
M  V30 4562 O 431.417 -0.628507 -2.64125 0
M  V30 4563 C 429.873 -3.09025 -1.84476 0
M  V30 4564 C 429.481 -4.36081 -1.0265 0
M  V30 4565 C 431.225 -3.37891 -2.56963 0
M  V30 4566 C 429.132 -5.6153 -1.85576 0
M  V30 4567 H 428.062 -0.650868 -0.38064 0
M  V30 4568 H 430.713 -1.81569 -0.265475 0
M  V30 4569 H 429.095 -2.96095 -2.62952 0
M  V30 4570 H 430.269 -4.59909 -0.286354 0
M  V30 4571 H 428.584 -4.14312 -0.416464 0
M  V30 4572 H 431.181 -4.28822 -3.19399 0
M  V30 4573 H 431.524 -2.57737 -3.26921 0
M  V30 4574 H 432.057 -3.5189 -1.85522 0
M  V30 4575 H 428.796 -6.44413 -1.2005 0
M  V30 4576 H 428.316 -5.41854 -2.57204 0
M  V30 4577 H 429.995 -5.99594 -2.43096 0
M  V30 4578 N 430.127 0.543554 -1.4793 0
M  V30 4579 C 431.037 1.67657 -1.64098 0
M  V30 4580 C 432.053 1.65934 -0.523622 0
M  V30 4581 O 433.229 1.85133 -0.792943 0
M  V30 4582 C 430.294 3.04146 -1.66421 0
M  V30 4583 C 429.355 3.16831 -2.89684 0
M  V30 4584 C 428.588 4.46809 -2.91886 0
M  V30 4585 O 428.811 5.33095 -2.02895 0
M  V30 4586 O 427.745 4.63573 -3.83906 0
M  V30 4587 H 431.571 1.56957 -2.59997 0
M  V30 4588 H 429.156 0.715116 -1.31173 0
M  V30 4589 H 431.038 3.85346 -1.70548 0
M  V30 4590 H 429.713 3.152 -0.736923 0
M  V30 4591 H 428.62 2.34977 -2.91095 0
M  V30 4592 H 429.953 3.10687 -3.81752 0
M  V30 4593 N 431.605 1.3629 0.791371 0
M  V30 4594 C 432.553 1.30514 1.92533 0
M  V30 4595 C 433.547 0.197285 1.68247 0
M  V30 4596 O 434.753 0.364176 1.76278 0
M  V30 4597 H 431.128 0.406263 0.632815 0
M  V30 4598 H 433.099 2.26282 1.94523 0
M  V30 4599 C 431.848 1.10933 3.29529 0
M  V30 4600 H 431.171 1.95427 3.48781 0
M  V30 4601 H 432.611 1.10937 4.0923 0
M  V30 4602 C 431.07 -0.186123 3.36385 0
M  V30 4603 O 431.6 -1.17664 3.84081 0
M  V30 4604 N 429.806 -0.230128 2.89687 0
M  V30 4605 H 429.353 0.576545 2.51065 0
M  V30 4606 H 429.311 -1.09658 2.94657 0
M  V30 4607 N 433.083 -1.0153 1.20538 0
M  V30 4608 C 434.36 -1.72327 0.925343 0
M  V30 4609 C 434.74 -2.03383 -0.565547 0
M  V30 4610 O 434.088 -1.69934 -1.52757 0
M  V30 4611 C 434.298 -2.9902 1.79967 0
M  V30 4612 C 435.646 -3.72258 2.04228 0
M  V30 4613 O 436.67 -3.08979 1.77231 0
M  V30 4614 O 435.529 -4.86053 2.4983 0
M  V30 4615 H 432.623 -0.751099 0.346092 0
M  V30 4616 H 435.169 -1.07366 1.31417 0
M  V30 4617 H 433.941 -2.72402 2.80915 0
M  V30 4618 H 433.564 -3.71721 1.41099 0
M  V30 4619 N 434.561 -1.01147 -1.20859 0
M  V30 4620 C 435.786 -0.716698 -1.94623 0
M  V30 4621 C 436.211 0.715415 -1.73964 0
M  V30 4622 O 435.569 1.49157 -1.03062 0
M  V30 4623 C 435.617 -1.0513 -3.44935 0
M  V30 4624 O 434.721 -0.160131 -4.12089 0
M  V30 4625 H 434.062 -0.266404 -0.608214 0
M  V30 4626 H 436.592 -1.35346 -1.53436 0
M  V30 4627 H 436.602 -1.00086 -3.95533 0
M  V30 4628 H 435.277 -2.09475 -3.59295 0
M  V30 4629 H 433.854 -0.267657 -3.71938 0
M  V30 4630 N 436.039 1.36541 -0.78704 0
M  V30 4631 C 437.264 2.0409 -0.369053 0
M  V30 4632 C 437.689 1.58957 1.00569 0
M  V30 4633 O 437.047 0.756926 1.64743 0
M  V30 4634 C 437.095 3.57924 -0.438466 0
M  V30 4635 O 436.199 4.08642 0.555479 0
M  V30 4636 H 435.54 0.645142 -0.157122 0
M  V30 4637 H 438.07 1.74545 -1.06749 0
M  V30 4638 H 438.08 4.06887 -0.301218 0
M  V30 4639 H 436.755 3.90127 -1.44132 0
M  V30 4640 H 435.332 3.70958 0.380088 0
M  V30 4641 N 437.518 0.538854 1.48102 0
M  V30 4642 C 438.929 0.100679 1.86428 0
M  V30 4643 C 439.28 -1.32447 1.44749 0
M  V30 4644 O 438.405 -1.99339 0.842199 0
M  V30 4645 C 439 0.175933 3.38343 0
M  V30 4646 C 437.559 -0.207098 3.7583 0
M  V30 4647 C 436.706 0.531741 2.72154 0
M  V30 4648 H 439.657 0.749614 1.3988 0
M  V30 4649 H 439.678 -0.610144 3.75576 0
M  V30 4650 H 439.19 1.21328 3.68648 0
M  V30 4651 H 437.291 -1.24626 3.5114 0
M  V30 4652 H 437.404 0.138687 4.78899 0
M  V30 4653 H 435.768 -0.0230462 2.5469 0
M  V30 4654 H 436.551 1.56989 3.05302 0
M  V30 4655 O 439.035 -1.56041 0.416352 0
M  V30 4656 H 439.726 -1.93313 -0.122438 0
M  V30 END ATOM
M  V30 BEGIN BOND
M  V30 END BOND
M  V30 END CTAB
M  END
$$$$
