drugbank_target|O75900 Matrix metalloproteinase-23 (DB00786)
 OpenBabel12092120373D

  0  0  0     0  0            999 V3000
M  V30 BEGIN CTAB
M  V30 COUNTS 6199 6299 0 0 0
M  V30 BEGIN ATOM
M  V30 1 H -0.908 1.98254 -0.117106 0
M  V30 2 N 0 1.576 0 0
M  V30 3 C 0.933 2.03868 1.02534 0
M  V30 4 C 1.911 0.928543 1.3348 0
M  V30 5 O 3.095 1.19667 1.45644 0
M  V30 6 C 0.222 2.43627 2.35294 0
M  V30 7 C -0.732 3.65373 2.2001 0
M  V30 8 S 0.101 5.13292 1.52614 0
M  V30 9 C 1.257 5.56322 2.86805 0
M  V30 10 H 1.49 2.90518 0.631377 0
M  V30 11 H -0.977 1.52953 0.210867 0
M  V30 12 H 0.981 2.67203 3.11629 0
M  V30 13 H -0.358 1.57376 2.7183 0
M  V30 14 H -1.165 3.90944 3.18086 0
M  V30 15 H -1.563 3.418 1.51819 0
M  V30 16 H 0.729 5.58782 3.83104 0
M  V30 17 H 1.672 6.56266 2.65933 0
M  V30 18 H 2.08 4.83886 2.90714 0
M  V30 19 N 1.4781 -0.272755 1.55222 0
M  V30 20 C 2.7261 -1.00234 1.75492 0
M  V30 21 C 3.0471 -1.8681 0.5592 0
M  V30 22 O 2.3171 -1.91215 -0.425882 0
M  V30 23 H 0.8971 -0.373076 0.647166 0
M  V30 24 H 3.5591 -0.296926 1.92625 0
M  V30 25 H 2.6551 -1.63913 2.65592 0
M  V30 26 N 2.9562 -1.48159 -0.537278 0
M  V30 27 C 4.3722 -1.34118 -0.865129 0
M  V30 28 C 4.5722 -0.346678 -1.98495 0
M  V30 29 O 3.6282 0.234715 -2.51407 0
M  V30 30 C 4.9412 -2.73963 -1.23954 0
M  V30 31 C 6.4892 -2.82397 -1.34984 0
M  V30 32 C 6.9642 -4.22928 -1.75772 0
M  V30 33 N 8.4552 -4.25566 -1.82887 0
M  V30 34 C 9.1902 -5.31235 -2.15817 0
M  V30 35 N 8.6862 -6.47189 -2.47222 0
M  V30 36 N 10.4792 -5.18624 -2.16761 0
M  V30 37 H 2.6302 -2.1144 0.201715 0
M  V30 38 H 4.8932 -0.947598 0.0275949 0
M  V30 39 H 4.5992 -3.48264 -0.490381 0
M  V30 40 H 4.4732 -3.0702 -2.19132 0
M  V30 41 H 6.8602 -2.08356 -2.08978 0
M  V30 42 H 6.9412 -2.5297 -0.379448 0
M  V30 43 H 6.5852 -4.97482 -1.02341 0
M  V30 44 H 6.5152 -4.49794 -2.73848 0
M  V30 45 H 9.0062 -3.41924 -1.60924 0
M  V30 46 H 9.3192 -7.23564 -2.71433 0
M  V30 47 H 7.6642 -6.50476 -2.44757 0
M  V30 48 H 10.8552 -4.27056 -1.91679 0
M  V30 49 H 11.0282 -6.01078 -2.42093 0
M  V30 50 N 4.4343 0.785586 -1.36625 0
M  V30 51 C 5.6823 1.54057 -1.30808 0
M  V30 52 C 6.0033 1.94683 0.111157 0
M  V30 53 O 5.2733 1.65241 1.05224 0
M  V30 54 H 3.8533 0.571354 -0.481211 0
M  V30 55 H 6.5153 0.935821 -1.70963 0
M  V30 56 H 5.6113 2.44637 -1.93801 0
M  V30 57 N 5.9124 1.20967 1.01018 0
M  V30 58 C 6.8754 0.965918 2.07853 0
M  V30 59 C 7.8754 -0.0610545 1.60684 0
M  V30 60 O 9.0654 0.175681 1.73312 0
M  V30 61 C 6.1974 0.455513 3.37843 0
M  V30 62 H 7.3904 1.91365 2.3091 0
M  V30 63 H 4.9434 1.02594 1.17916 0
M  V30 64 H 5.6784 -0.497381 3.20463 0
M  V30 65 H 5.4634 1.19622 3.73407 0
M  V30 66 H 6.9534 0.304667 4.16487 0
M  V30 67 N 7.3905 -1.2043 1.01659 0
M  V30 68 C 8.8065 -1.41852 0.731442 0
M  V30 69 C 9.0065 -1.89358 -0.688898 0
M  V30 70 O 8.0625 -2.06247 -1.45666 0
M  V30 71 C 9.3755 -2.44019 1.75714 0
M  V30 72 C 10.9235 -2.57785 1.77527 0
M  V30 73 C 11.3985 -3.63194 2.79023 0
M  V30 74 N 12.8895 -3.70678 2.77763 0
M  V30 75 C 13.6245 -4.51897 3.52954 0
M  V30 76 N 13.1205 -5.36921 4.37821 0
M  V30 77 N 14.9135 -4.4643 3.41551 0
M  V30 78 H 7.0645 -0.879093 1.93354 0
M  V30 79 H 9.3275 -0.448425 0.835236 0
M  V30 80 H 9.0335 -2.1611 2.77469 0
M  V30 81 H 8.9075 -3.43007 1.56927 0
M  V30 82 H 11.2945 -2.85023 0.764569 0
M  V30 83 H 11.3755 -1.58992 2.00387 0
M  V30 84 H 11.0195 -3.36699 3.80258 0
M  V30 85 H 10.9495 -4.61609 2.53425 0
M  V30 86 H 13.4405 -3.09944 2.16201 0
M  V30 87 H 13.7535 -5.95981 4.91962 0
M  V30 88 H 12.0985 -5.36424 4.41899 0
M  V30 89 H 15.2895 -3.79042 2.74672 0
M  V30 90 H 15.4625 -5.09491 4.00404 0
M  V30 91 N 8.8686 -0.792821 -1.36206 0
M  V30 92 C 10.1146 -0.36733 -1.99446 0
M  V30 93 C 10.4476 1.05917 -1.62774 0
M  V30 94 O 9.7226 1.7324 -0.88421 0
M  V30 95 C 10.0056 -0.535044 -3.56103 0
M  V30 96 C 9.8586 -2.00548 -4.02617 0
M  V30 97 C 11.1776 0.0478191 -4.40074 0
M  V30 98 H 8.2966 -0.134941 -0.724541 0
M  V30 99 H 10.9386 -0.999794 -1.61568 0
M  V30 100 H 9.0886 0.00336329 -3.885 0
M  V30 101 H 10.7606 -2.60521 -3.80692 0
M  V30 102 H 9.0036 -2.50686 -3.54032 0
M  V30 103 H 9.6746 -2.07377 -5.11565 0
M  V30 104 H 12.1506 -0.411822 -4.14057 0
M  V30 105 H 11.0266 -0.0995336 -5.4881 0
M  V30 106 H 11.2876 1.14025 -4.27142 0
M  V30 107 N 10.3467 1.47872 -0.545128 0
M  V30 108 C 11.7577 1.86384 -0.108581 0
M  V30 109 C 12.1087 1.45309 1.31832 0
M  V30 110 O 11.2337 0.850641 1.9898 0
M  V30 111 C 11.8287 3.38265 -0.190274 0
M  V30 112 C 10.3877 3.75914 0.191164 0
M  V30 113 C 9.5347 2.71926 -0.543273 0
M  V30 114 H 12.4857 1.39561 -0.755537 0
M  V30 115 H 12.5067 3.75831 0.594217 0
M  V30 116 H 12.0187 3.6813 -1.2289 0
M  V30 117 H 10.1197 3.51665 1.23136 0
M  V30 118 H 10.2327 4.78836 -0.158987 0
M  V30 119 H 8.5967 2.54697 0.0122495 0
M  V30 120 H 9.3797 3.04634 -1.58282 0
M  V30 121 N 11.8248 0.280983 1.55075 0
M  V30 122 C 13.0498 -0.340154 2.04592 0
M  V30 123 C 13.4748 -1.48246 1.15779 0
M  V30 124 O 12.8328 -1.80614 0.15761 0
M  V30 125 C 12.8808 -0.793104 3.5177 0
M  V30 126 O 11.9848 -1.89981 3.66034 0
M  V30 127 H 11.3258 -0.0694289 0.66036 0
M  V30 128 H 13.8558 0.416993 2.00306 0
M  V30 129 H 13.8658 -1.08729 3.93245 0
M  V30 130 H 12.5408 0.0426163 4.15878 0
M  V30 131 H 11.1178 -1.60771 3.36463 0
M  V30 132 N 13.3029 -1.57598 0.00835791 0
M  V30 133 C 14.2129 -2.12385 -0.996487 0
M  V30 134 C 15.2289 -1.07108 -1.37127 0
M  V30 135 O 16.4049 -1.39055 -1.4569 0
M  V30 136 C 13.4699 -2.62314 -2.26699 0
M  V30 137 C 12.5309 -3.82225 -1.95456 0
M  V30 138 C 11.7639 -4.29763 -3.16449 0
M  V30 139 O 11.9869 -3.76584 -4.28416 0
M  V30 140 O 10.9209 -5.21832 -2.99958 0
M  V30 141 H 14.7469 -2.98479 -0.560725 0
M  V30 142 H 12.3319 -1.47903 -0.210987 0
M  V30 143 H 14.2139 -2.94589 -3.01322 0
M  V30 144 H 12.8889 -1.79313 -2.69497 0
M  V30 145 H 11.7959 -3.54909 -1.18282 0
M  V30 146 H 13.1289 -4.66324 -1.57489 0
M  V30 147 N 14.781 0.264519 -1.55364 0
M  V30 148 C 15.744 1.31046 -1.88042 0
M  V30 149 C 16.744 1.41943 -0.755569 0
M  V30 150 O 17.934 1.40947 -1.02369 0
M  V30 151 C 15.066 2.69067 -2.09323 0
M  V30 152 H 16.259 1.03297 -2.81549 0
M  V30 153 H 13.812 0.502989 -1.47986 0
M  V30 154 H 14.547 3.01982 -1.18226 0
M  V30 155 H 14.332 2.62542 -2.91229 0
M  V30 156 H 15.822 3.44623 -2.35848 0
M  V30 157 N 16.2591 1.48442 0.529413 0
M  V30 158 C 17.6701 1.5002 1.11134 0
M  V30 159 C 18.0211 0.27031 1.94329 0
M  V30 160 O 17.1461 -0.622507 2.07253 0
M  V30 161 C 17.7411 2.71834 2.02217 0
M  V30 162 C 16.3001 2.76283 2.55627 0
M  V30 163 C 15.4471 2.43542 1.326 0
M  V30 164 H 18.3981 1.5555 0.314641 0
M  V30 165 H 18.4191 2.50384 2.8651 0
M  V30 166 H 17.9311 3.61331 1.41639 0
M  V30 167 H 16.0321 1.90995 3.19924 0
M  V30 168 H 16.1451 3.77725 2.94721 0
M  V30 169 H 14.5091 1.94709 1.64196 0
M  V30 170 H 15.2921 3.3528 0.737734 0
M  V30 171 N 17.7372 -0.778329 1.37039 0
M  V30 172 C 18.9852 -1.53361 1.31623 0
M  V30 173 C 19.3062 -1.94739 -0.100831 0
M  V30 174 O 18.5762 -1.65797 -1.04347 0
M  V30 175 H 17.1562 -0.568794 0.484234 0
M  V30 176 H 19.8182 -0.926742 1.71457 0
M  V30 177 H 18.9142 -2.43606 1.95096 0
M  V30 178 N 19.2153 -1.21501 -1.00376 0
M  V30 179 C 20.1783 -0.976927 -2.07337 0
M  V30 180 C 21.1783 0.0525322 -1.60714 0
M  V30 181 O 22.3683 -0.184869 -1.73216 0
M  V30 182 C 19.5003 -0.473423 -3.37597 0
M  V30 183 H 20.6933 -1.92587 -2.29892 0
M  V30 184 H 18.2463 -1.03217 -1.17371 0
M  V30 185 H 18.9813 0.480379 -3.20722 0
M  V30 186 H 18.7663 -1.216 -3.72768 0
M  V30 187 H 20.2563 -0.32675 -4.1632 0
M  V30 188 N 20.6934 1.19889 -1.02296 0
M  V30 189 C 21.9414 1.89046 -0.714558 0
M  V30 190 C 22.2624 1.79636 0.758681 0
M  V30 191 O 21.5324 1.20292 1.54618 0
M  V30 192 H 20.1124 0.699802 -0.261317 0
M  V30 193 H 22.7744 1.45574 -1.29592 0
M  V30 194 H 21.8704 2.95524 -1.0036 0
M  V30 195 N 22.1715 0.800033 1.35784 0
M  V30 196 C 23.4175 0.377901 1.99248 0
M  V30 197 C 23.7505 -1.05052 1.63333 0
M  V30 198 O 23.0255 -1.72768 0.893385 0
M  V30 199 C 23.3085 0.553922 3.55814 0
M  V30 200 C 23.1615 2.0268 4.01548 0
M  V30 201 C 24.4805 -0.0244802 4.40093 0
M  V30 202 H 21.5995 0.138782 0.723815 0
M  V30 203 H 24.2415 1.00835 1.61035 0
M  V30 204 H 22.3915 0.0172398 3.88496 0
M  V30 205 H 24.0635 2.62536 3.79305 0
M  V30 206 H 22.3065 2.5256 3.52698 0
M  V30 207 H 22.9775 2.10087 5.10458 0
M  V30 208 H 25.4535 0.433775 4.13833 0
M  V30 209 H 24.3295 0.128637 5.48749 0
M  V30 210 H 24.5905 -1.11758 4.27741 0
M  V30 211 N 23.6496 -1.47581 0.552962 0
M  V30 212 C 24.5596 -2.33743 -0.200353 0
M  V30 213 C 25.5756 -1.47928 -0.916151 0
M  V30 214 O 26.7516 -1.80865 -0.885993 0
M  V30 215 C 23.8166 -3.24536 -1.21973 0
M  V30 216 C 22.8776 -4.26238 -0.511819 0
M  V30 217 C 22.1106 -5.12693 -1.48263 0
M  V30 218 O 22.3336 -5.01525 -2.71714 0
M  V30 219 O 21.2676 -5.93375 -1.00945 0
M  V30 220 H 25.0936 -2.9945 0.506304 0
M  V30 221 H 22.6786 -1.46071 0.313622 0
M  V30 222 H 24.5606 -3.80631 -1.80827 0
M  V30 223 H 23.2356 -2.61462 -1.90839 0
M  V30 224 H 22.1426 -3.73914 0.117799 0
M  V30 225 H 23.4756 -4.92014 0.135308 0
M  V30 226 N 25.1277 -0.289203 -1.54924 0
M  V30 227 C 26.5437 0.0645403 -1.59469 0
M  V30 228 C 26.7437 1.53419 -1.30632 0
M  V30 229 O 25.7997 2.2852 -1.074 0
M  V30 230 C 27.1127 -0.32278 -2.98963 0
M  V30 231 C 28.6607 -0.270564 -3.11828 0
M  V30 232 C 29.1357 -0.632532 -4.53611 0
M  V30 233 N 30.6267 -0.584617 -4.59496 0
M  V30 234 C 31.3617 -0.837314 -5.67254 0
M  V30 235 N 30.8577 -1.15536 -6.83098 0
M  V30 236 N 32.6507 -0.765166 -5.56868 0
M  V30 237 H 24.8017 -1.24714 -1.71931 0
M  V30 238 H 27.0647 -0.504809 -0.802416 0
M  V30 239 H 26.7707 -1.34541 -3.24948 0
M  V30 240 H 26.6447 0.32944 -3.75759 0
M  V30 241 H 29.0317 0.742805 -2.85598 0
M  V30 242 H 29.1127 -0.957242 -2.37214 0
M  V30 243 H 28.7567 -1.64365 -4.80569 0
M  V30 244 H 28.6867 0.07609 -5.26545 0
M  V30 245 H 31.1777 -0.349248 -3.76283 0
M  V30 246 H 31.4907 -1.33447 -7.61191 0
M  V30 247 H 29.8357 -1.19328 -6.84679 0
M  V30 248 H 33.0267 -0.516432 -4.65243 0
M  V30 249 H 33.1997 -0.965477 -6.40767 0
M  V30 250 N 26.6058 1.57591 -0.0167156 0
M  V30 251 C 28.0218 1.55946 0.339557 0
M  V30 252 C 28.2218 1.02109 1.73713 0
M  V30 253 O 27.2778 0.662303 2.43659 0
M  V30 254 C 28.5908 3.00037 0.199499 0
M  V30 255 C 30.1388 3.11805 0.273193 0
M  V30 256 C 30.6138 4.57713 0.162068 0
M  V30 257 N 32.1048 4.6268 0.219444 0
M  V30 258 C 32.8398 5.73185 0.157054 0
M  V30 259 N 32.3358 6.92786 0.0442936 0
M  V30 260 N 34.1288 5.61707 0.21014 0
M  V30 261 H 26.2798 1.90921 -0.930758 0
M  V30 262 H 28.5428 0.877674 -0.358319 0
M  V30 263 H 28.2488 3.4333 -0.76273 0
M  V30 264 H 28.1228 3.64387 0.974786 0
M  V30 265 H 30.5098 2.68433 1.22587 0
M  V30 266 H 30.5908 2.50201 -0.532256 0
M  V30 267 H 30.2348 5.01763 -0.78714 0
M  V30 268 H 30.1648 5.17283 0.986222 0
M  V30 269 H 32.6558 3.76649 0.307246 0
M  V30 270 H 32.9688 7.728 0.00304069 0
M  V30 271 H 31.3138 6.94999 0.00968457 0
M  V30 272 H 34.5048 4.6716 0.296546 0
M  V30 273 H 34.6778 6.47807 0.158054 0
M  V30 274 N 28.0839 -0.256276 1.55502 0
M  V30 275 C 29.3299 -0.982884 1.78076 0
M  V30 276 C 29.6849 -1.83319 0.584109 0
M  V30 277 O 28.9779 -1.86875 -0.422877 0
M  V30 278 C 29.1719 -1.88432 3.03691 0
M  V30 279 C 29.0009 -1.12276 4.35459 0
M  V30 280 C 27.7709 -0.831647 4.98409 0
M  V30 281 C 29.9689 -0.504933 5.11815 0
M  V30 282 N 27.9509 -0.0450423 6.13883 0
M  V30 283 C 29.3219 0.146696 6.19826 0
M  V30 284 C 31.3769 -0.414455 4.96172 0
M  V30 285 C 30.0799 0.880103 7.13895 0
M  V30 286 C 32.1059 0.305398 5.90611 0
M  V30 287 C 31.4679 0.945701 6.98023 0
M  V30 288 H 27.5669 -0.341084 0.703694 0
M  V30 289 H 30.1509 -0.256909 1.92998 0
M  V30 290 H 28.3219 -2.58241 2.90114 0
M  V30 291 H 30.0539 -2.54579 3.14598 0
M  V30 292 H 26.8089 -1.14111 4.59647 0
M  V30 293 H 27.2329 0.336079 6.76165 0
M  V30 294 H 31.8749 -0.895163 4.13215 0
M  V30 295 H 29.5929 1.37244 7.9636 0
M  V30 296 H 33.1789 0.375946 5.80584 0
M  V30 297 H 32.0589 1.49383 7.6984 0
M  V30 298 N 29.562 -1.4872 -0.521534 0
M  V30 299 C 30.492 -1.66771 -1.63431 0
M  V30 300 C 31.473 -0.516499 -1.62069 0
M  V30 301 O 32.658 -0.750013 -1.79132 0
M  V30 302 C 29.788 -1.71515 -3.01993 0
M  V30 303 C 28.742 -2.86222 -3.18216 0
M  V30 304 C 28.068 -2.76061 -4.57924 0
M  V30 305 C 29.368 -4.27419 -3.00184 0
M  V30 306 H 31.062 -2.59932 -1.48579 0
M  V30 307 H 28.608 -1.25089 -0.713358 0
M  V30 308 H 30.561 -1.82731 -3.7972 0
M  V30 309 H 29.285 -0.749393 -3.17886 0
M  V30 310 H 27.944 -2.74575 -2.42908 0
M  V30 311 H 27.592 -1.77437 -4.70665 0
M  V30 312 H 27.292 -3.53037 -4.69722 0
M  V30 313 H 28.816 -2.89256 -5.37739 0
M  V30 314 H 30.23 -4.39855 -3.67697 0
M  V30 315 H 28.627 -5.05458 -3.2347 0
M  V30 316 H 29.697 -4.43293 -1.96518 0
M  V30 317 N 31.0401 0.771051 -1.3745 0
M  V30 318 C 32.2881 1.52661 -1.32435 0
M  V30 319 C 32.6091 1.9479 0.0905024 0
M  V30 320 O 31.8791 1.66348 1.03466 0
M  V30 321 H 30.4591 0.566218 -0.487244 0
M  V30 322 H 33.1211 0.917636 -1.71946 0
M  V30 323 H 32.2171 2.42568 -1.96385 0
M  V30 324 N 32.5182 1.22032 0.997298 0
M  V30 325 C 33.4812 0.987909 2.06816 0
M  V30 326 C 34.4812 -0.0440084 1.6074 0
M  V30 327 O 35.6712 0.194053 1.73116 0
M  V30 328 C 32.8032 0.49132 3.37341 0
M  V30 329 H 33.9962 1.93803 2.28868 0
M  V30 330 H 31.5492 1.03838 1.16822 0
M  V30 331 H 32.2842 -0.463364 3.20973 0
M  V30 332 H 32.0692 1.23575 3.72118 0
M  V30 333 H 33.5592 0.348824 4.16141 0
M  V30 334 N 33.9963 -1.19345 1.0293 0
M  V30 335 C 34.9593 -2.20793 0.615069 0
M  V30 336 C 35.9593 -1.57553 -0.321533 0
M  V30 337 O 37.1493 -1.73862 -0.108483 0
M  V30 338 C 34.2813 -3.40754 -0.0999222 0
M  V30 339 H 35.4743 -2.58955 1.51269 0
M  V30 340 H 33.0273 -1.3303 0.820534 0
M  V30 341 H 33.7623 -3.0811 -1.01187 0
M  V30 342 H 33.5473 -3.87889 0.57309 0
M  V30 343 H 35.0373 -4.15898 -0.376645 0
M  V30 344 N 35.4744 -0.807222 -1.35358 0
M  V30 345 C 36.4044 -0.232509 -2.3234 0
M  V30 346 C 37.3854 0.642386 -1.57504 0
M  V30 347 O 38.5704 0.572526 -1.85569 0
M  V30 348 C 35.7004 0.619238 -3.41735 0
M  V30 349 C 34.6544 -0.157215 -4.27711 0
M  V30 350 C 33.9804 0.816273 -5.28433 0
M  V30 351 C 35.2804 -1.35656 -5.04376 0
M  V30 352 H 36.9744 -1.04276 -2.80654 0
M  V30 353 H 34.5204 -0.50288 -1.34934 0
M  V30 354 H 36.4734 1.03137 -4.08584 0
M  V30 355 H 35.1974 1.46239 -2.92031 0
M  V30 356 H 33.8564 -0.550525 -3.62443 0
M  V30 357 H 33.5044 1.65494 -4.74996 0
M  V30 358 H 33.2044 0.301067 -5.86828 0
M  V30 359 H 34.7284 1.22659 -5.98153 0
M  V30 360 H 36.1424 -1.01927 -5.64166 0
M  V30 361 H 34.5394 -1.8063 -5.7227 0
M  V30 362 H 35.6094 -2.14288 -4.34981 0
M  V30 363 N 36.9525 1.47285 -0.560781 0
M  V30 364 C 38.1985 2.02764 -0.0381184 0
M  V30 365 C 38.5315 1.43384 1.30976 0
M  V30 366 O 37.8065 0.590733 1.85312 0
M  V30 367 C 38.0895 3.60064 0.0511427 0
M  V30 368 C 37.9425 4.2987 -1.32408 0
M  V30 369 C 39.2615 4.33439 0.762795 0
M  V30 370 H 36.3805 0.736841 -0.0153264 0
M  V30 371 H 39.0225 1.75675 -0.723759 0
M  V30 372 H 37.1725 3.83274 0.635065 0
M  V30 373 H 38.8445 4.17989 -1.95148 0
M  V30 374 H 37.0875 3.90085 -1.8978 0
M  V30 375 H 37.7585 5.38478 -1.21431 0
M  V30 376 H 40.2345 4.15243 0.266965 0
M  V30 377 H 39.1105 5.43124 0.794221 0
M  V30 378 H 39.3715 4.02915 1.81966 0
M  V30 379 N 38.4306 0.297415 1.54768 0
M  V30 380 C 39.3936 -0.567375 2.22066 0
M  V30 381 C 40.3936 -1.06409 1.20556 0
M  V30 382 O 41.5836 -0.960691 1.45315 0
M  V30 383 C 38.7156 -1.78517 2.90421 0
M  V30 384 H 39.9086 0.0205534 2.99893 0
M  V30 385 H 37.4616 0.0482163 1.56226 0
M  V30 386 H 38.1966 -2.41303 2.16664 0
M  V30 387 H 37.9816 -1.43669 3.64831 0
M  V30 388 H 39.4716 -2.39964 3.41771 0
M  V30 389 N 39.9087 -1.5758 0.0250728 0
M  V30 390 C 40.8387 -2.13007 -0.956575 0
M  V30 391 C 41.8197 -1.0452 -1.342 0
M  V30 392 O 43.0047 -1.32332 -1.42133 0
M  V30 393 C 40.1347 -2.65386 -2.24026 0
M  V30 394 C 39.0887 -3.78623 -1.99571 0
M  V30 395 C 38.4147 -4.17414 -3.3417 0
M  V30 396 C 39.7147 -5.04867 -1.33814 0
M  V30 397 H 41.4087 -2.9528 -0.494991 0
M  V30 398 H 38.9547 -1.42042 -0.236651 0
M  V30 399 H 40.9077 -3.02794 -2.93076 0
M  V30 400 H 39.6317 -1.80268 -2.72343 0
M  V30 401 H 38.2907 -3.41646 -1.32941 0
M  V30 402 H 37.9387 -3.29284 -3.80238 0
M  V30 403 H 37.6387 -4.93719 -3.18615 0
M  V30 404 H 39.1627 -4.57402 -4.04495 0
M  V30 405 H 40.5767 -5.39888 -1.92857 0
M  V30 406 H 38.9737 -5.86144 -1.28669 0
M  V30 407 H 40.0437 -4.83904 -0.310561 0
M  V30 408 N 41.3868 0.248026 -1.55636 0
M  V30 409 C 42.6268 0.983592 -1.79178 0
M  V30 410 C 42.9908 1.82567 -0.594414 0
M  V30 411 O 44.1918 2.59292 -0.708583 0
M  V30 412 C 42.4628 1.82228 -3.07454 0
M  V30 413 S 44.0218 2.61709 -3.52213 0
M  V30 414 H 40.8398 0.330866 -0.629324 0
M  V30 415 H 43.4418 0.251562 -1.93875 0
M  V30 416 H 42.1458 1.19333 -3.92668 0
M  V30 417 H 41.6768 2.59708 -2.95492 0
M  V30 418 H 43.6918 3.84655 -3.13457 0
M  V30 419 N 42.8649 1.48995 0.513639 0
M  V30 420 C 43.7949 1.67636 1.62544 0
M  V30 421 C 44.7759 0.525087 1.61793 0
M  V30 422 O 45.9609 0.759502 1.78732 0
M  V30 423 C 43.0909 1.73114 3.01079 0
M  V30 424 C 42.0449 2.87905 3.16693 0
M  V30 425 C 41.3709 2.78486 4.56453 0
M  V30 426 C 42.6709 4.29005 2.97913 0
M  V30 427 H 44.3649 2.60716 1.47198 0
M  V30 428 H 41.9109 1.25465 0.706714 0
M  V30 429 H 43.8639 1.84742 3.78746 0
M  V30 430 H 42.5879 0.766241 3.17484 0
M  V30 431 H 41.2469 2.75859 2.41448 0
M  V30 432 H 40.8949 1.7993 4.69717 0
M  V30 433 H 40.5949 3.55523 4.67843 0
M  V30 434 H 42.1189 2.92104 5.36197 0
M  V30 435 H 43.5329 4.41798 3.65359 0
M  V30 436 H 41.9299 5.07166 3.20785 0
M  V30 437 H 42.9999 4.44329 1.94165 0
M  V30 438 N 44.343 -0.763751 1.37857 0
M  V30 439 C 45.273 -1.89103 1.36975 0
M  V30 440 C 46.254 -1.68439 0.237152 0
M  V30 441 O 47.439 -1.8918 0.438713 0
M  V30 442 C 44.569 -3.26496 1.18395 0
M  V30 443 C 43.523 -3.61741 2.28751 0
M  V30 444 C 42.849 -4.97762 1.95286 0
M  V30 445 C 44.149 -3.67665 3.70972 0
M  V30 446 H 45.843 -1.90099 2.31307 0
M  V30 447 H 43.389 -0.91319 1.11341 0
M  V30 448 H 45.342 -4.05003 1.16406 0
M  V30 449 H 44.066 -3.25955 0.205215 0
M  V30 450 H 42.725 -2.85547 2.29909 0
M  V30 451 H 42.373 -4.93769 0.959221 0
M  V30 452 H 42.073 -5.22313 2.69189 0
M  V30 453 H 43.597 -5.7866 1.94898 0
M  V30 454 H 45.011 -4.36307 3.719 0
M  V30 455 H 43.408 -4.03718 4.43995 0
M  V30 456 H 44.478 -2.68134 4.0402 0
M  V30 457 N 45.8211 -1.22559 -0.990812 0
M  V30 458 C 47.2321 -1.04791 -1.54518 0
M  V30 459 C 47.5831 0.387998 -1.92325 0
M  V30 460 O 46.7081 1.27328 -1.74976 0
M  V30 461 C 47.3031 -1.896 -2.80779 0
M  V30 462 C 45.8621 -1.76124 -3.32652 0
M  V30 463 C 45.0091 -1.8594 -2.05722 0
M  V30 464 H 47.9601 -1.36374 -0.811662 0
M  V30 465 H 47.9811 -1.41464 -3.53225 0
M  V30 466 H 47.4931 -2.94101 -2.53231 0
M  V30 467 H 45.5941 -0.743643 -3.65104 0
M  V30 468 H 45.7071 -2.58913 -4.03114 0
M  V30 469 H 44.0711 -1.29403 -2.19379 0
M  V30 470 H 44.8541 -2.91976 -1.80568 0
M  V30 471 N 47.2992 1.18797 -1.03562 0
M  V30 472 C 48.2622 2.20464 -0.626769 0
M  V30 473 C 49.2622 1.57721 0.313173 0
M  V30 474 O 50.4522 1.73917 0.0992615 0
M  V30 475 C 47.5842 3.40802 0.0818498 0
M  V30 476 H 48.7772 2.58149 -1.5264 0
M  V30 477 H 46.3302 1.32593 -0.827578 0
M  V30 478 H 47.0652 3.08642 0.995518 0
M  V30 479 H 46.8502 3.8758 -0.593652 0
M  V30 480 H 48.3402 4.16092 0.354584 0
M  V30 481 N 48.7773 0.814389 1.34928 0
M  V30 482 C 49.7073 0.244827 2.32213 0
M  V30 483 C 50.6883 -0.634024 1.57842 0
M  V30 484 O 51.8733 -0.562676 1.8587 0
M  V30 485 C 49.0033 -0.601106 3.42058 0
M  V30 486 C 47.9573 0.179896 4.27622 0
M  V30 487 C 47.2833 -0.788237 5.28858 0
M  V30 488 C 48.5833 1.38329 5.03649 0
M  V30 489 H 50.2773 1.05763 2.80097 0
M  V30 490 H 47.8233 0.510029 1.34665 0
M  V30 491 H 49.7763 -1.00968 4.09125 0
M  V30 492 H 48.5003 -1.44688 2.92802 0
M  V30 493 H 47.1593 0.569739 3.62146 0
M  V30 494 H 46.8073 -1.62973 4.75866 0
M  V30 495 H 46.5073 -0.269942 5.8698 0
M  V30 496 H 48.0313 -1.19485 5.98795 0
M  V30 497 H 49.4453 1.04918 5.63618 0
M  V30 498 H 47.8423 1.83662 5.71304 0
M  V30 499 H 48.9123 2.16592 4.33839 0
M  V30 500 N 50.2554 -1.46986 0.568584 0
M  V30 501 C 51.5014 -2.02741 0.0488709 0
M  V30 502 C 51.8344 -1.44077 -1.30214 0
M  V30 503 O 51.1094 -0.600552 -1.84996 0
M  V30 504 C 51.3924 -3.60086 -0.032047 0
M  V30 505 C 51.2454 -4.29162 1.34686 0
M  V30 506 C 52.5644 -4.33838 -0.739798 0
M  V30 507 H 49.6834 -0.736749 0.0192338 0
M  V30 508 H 52.3254 -1.75289 0.733065 0
M  V30 509 H 50.4754 -3.83606 -0.61473 0
M  V30 510 H 52.1474 -4.16948 1.97362 0
M  V30 511 H 50.3904 -3.89073 1.91846 0
M  V30 512 H 51.0614 -5.37826 1.24285 0
M  V30 513 H 53.5374 -4.15378 -0.244939 0
M  V30 514 H 52.4134 -5.43537 -0.765406 0
M  V30 515 H 52.6744 -4.03875 -1.79827 0
M  V30 516 N 51.7335 -0.305618 -1.54608 0
M  V30 517 C 52.6635 0.561482 -2.26649 0
M  V30 518 C 53.6445 1.13415 -1.26772 0
M  V30 519 O 54.8295 1.16262 -1.55553 0
M  V30 520 C 51.9595 1.73122 -3.01075 0
M  V30 521 C 50.9135 1.2887 -4.08138 0
M  V30 522 C 50.2395 2.54396 -4.70305 0
M  V30 523 C 51.5395 0.416578 -5.20636 0
M  V30 524 H 53.2335 -0.0393902 -2.99374 0
M  V30 525 H 50.7795 -0.020385 -1.43986 0
M  V30 526 H 52.7325 2.34396 -3.50195 0
M  V30 527 H 51.4565 2.3584 -2.25936 0
M  V30 528 H 50.1155 0.698991 -3.59875 0
M  V30 529 H 49.7635 3.15439 -3.918 0
M  V30 530 H 49.4635 2.25486 -5.42614 0
M  V30 531 H 50.9875 3.16464 -5.2219 0
M  V30 532 H 52.4015 0.935116 -5.65622 0
M  V30 533 H 50.7985 0.221046 -5.99693 0
M  V30 534 H 51.8685 -0.557162 -4.81688 0
M  V30 535 N 53.2116 1.57565 -0.0334293 0
M  V30 536 C 54.1416 2.13511 0.945265 0
M  V30 537 C 55.1226 1.05231 1.33643 0
M  V30 538 O 56.3076 1.33084 1.41429 0
M  V30 539 C 53.4376 2.6657 2.22616 0
M  V30 540 C 52.3916 3.79676 1.97561 0
M  V30 541 C 51.7176 4.1918 3.31952 0
M  V30 542 C 53.0176 5.0557 1.31135 0
M  V30 543 H 54.7116 2.95538 0.479325 0
M  V30 544 H 52.2576 1.42166 0.229115 0
M  V30 545 H 54.2106 3.04344 2.91466 0
M  V30 546 H 52.9346 1.8171 2.71384 0
M  V30 547 H 51.5936 3.42347 1.31127 0
M  V30 548 H 51.2416 3.31296 3.78487 0
M  V30 549 H 50.9416 4.95402 3.15992 0
M  V30 550 H 52.4656 4.59541 4.02063 0
M  V30 551 H 53.8796 5.40903 1.89992 0
M  V30 552 H 52.2766 5.86818 1.25559 0
M  V30 553 H 53.3466 4.84062 0.284894 0
M  V30 554 N 54.6897 -0.239769 1.55765 0
M  V30 555 C 55.6527 -1.28038 1.90103 0
M  V30 556 C 56.6527 -1.40723 0.778055 0
M  V30 557 O 57.8427 -1.39301 1.04599 0
M  V30 558 C 54.9747 -2.65702 2.13577 0
M  V30 559 H 56.1677 -0.988048 2.83157 0
M  V30 560 H 53.7207 -0.479382 1.48767 0
M  V30 561 H 54.4557 -3.00063 1.23015 0
M  V30 562 H 54.2407 -2.57875 2.95369 0
M  V30 563 H 55.7307 -3.40828 2.41301 0
M  V30 564 N 56.1678 -1.49265 -0.50573 0
M  V30 565 C 57.5838 -1.35923 -0.836486 0
M  V30 566 C 57.7838 -0.388704 -1.97715 0
M  V30 567 O 56.8398 0.181336 -2.51848 0
M  V30 568 C 58.1528 -2.76531 -1.18115 0
M  V30 569 C 59.7008 -2.85197 -1.28964 0
M  V30 570 C 60.1758 -4.26561 -1.66761 0
M  V30 571 N 61.6668 -4.2935 -1.73819 0
M  V30 572 C 62.4018 -5.35693 -2.045 0
M  V30 573 N 61.8978 -6.52287 -2.33438 0
M  V30 574 N 63.6908 -5.23105 -2.05711 0
M  V30 575 H 55.8418 -2.10965 0.246519 0
M  V30 576 H 58.1048 -0.9468 0.0476887 0
M  V30 577 H 57.8108 -3.49226 -0.416398 0
M  V30 578 H 57.6848 -3.11599 -2.1257 0
M  V30 579 H 60.0718 -2.12742 -2.04511 0
M  V30 580 H 60.1528 -2.53718 -0.325704 0
M  V30 581 H 59.7968 -4.99541 -0.917656 0
M  V30 582 H 59.7268 -4.55502 -2.64246 0
M  V30 583 H 62.2178 -3.4526 -1.53635 0
M  V30 584 H 62.5308 -7.29158 -2.56024 0
M  V30 585 H 60.8758 -6.55521 -2.30905 0
M  V30 586 H 64.0668 -4.31026 -1.82577 0
M  V30 587 H 64.2398 -6.06078 -2.29289 0
M  V30 588 N 57.6459 0.756429 -1.3826 0
M  V30 589 C 58.5759 1.88374 -1.37976 0
M  V30 590 C 59.5569 1.68311 -0.246082 0
M  V30 591 O 60.7419 1.88944 -0.44874 0
M  V30 592 C 57.8719 3.25864 -1.20125 0
M  V30 593 C 56.8259 3.60523 -2.30666 0
M  V30 594 C 56.1519 4.9672 -1.97923 0
M  V30 595 C 57.4519 3.65692 -3.72916 0
M  V30 596 H 59.1459 1.88869 -2.32312 0
M  V30 597 H 56.6919 0.907272 -1.11824 0
M  V30 598 H 58.6449 4.0438 -1.18552 0
M  V30 599 H 57.3689 3.25841 -0.222498 0
M  V30 600 H 56.0279 2.84324 -2.3142 0
M  V30 601 H 55.6759 4.93253 -0.985393 0
M  V30 602 H 55.3759 5.20878 -2.71955 0
M  V30 603 H 56.8999 5.77618 -1.97964 0
M  V30 604 H 58.3139 4.34328 -3.74208 0
M  V30 605 H 56.7109 4.01358 -4.4613 0
M  V30 606 H 57.7809 2.65987 -4.05436 0
M  V30 607 N 59.124 1.23083 0.984299 0
M  V30 608 C 60.372 1.05848 1.72165 0
M  V30 609 C 60.693 -0.406049 1.90726 0
M  V30 610 O 59.963 -1.29139 1.47309 0
M  V30 611 H 58.543 0.388685 0.637913 0
M  V30 612 H 61.205 1.54736 1.18503 0
M  V30 613 H 60.301 1.54327 2.71274 0
M  V30 614 N 60.6021 -1.18246 1.0419 0
M  V30 615 C 61.5651 -2.20128 0.638452 0
M  V30 616 C 62.5651 -1.57885 -0.304805 0
M  V30 617 O 63.7551 -1.73967 -0.0900369 0
M  V30 618 C 60.8871 -3.4084 -0.0637751 0
M  V30 619 H 62.0801 -2.57336 1.54007 0
M  V30 620 H 59.6331 -1.32152 0.834598 0
M  V30 621 H 60.3681 -3.09166 -0.979136 0
M  V30 622 H 60.1531 -3.8726 0.614198 0
M  V30 623 H 61.6431 -4.16274 -0.332512 0
M  V30 624 N 62.0802 -0.821533 -1.34494 0
M  V30 625 C 63.4912 -0.467956 -1.8074 0
M  V30 626 C 63.8422 1.01151 -1.68116 0
M  V30 627 O 62.9672 1.78707 -1.22036 0
M  V30 628 C 63.5622 -0.842627 -3.28154 0
M  V30 629 C 62.1212 -0.541439 -3.72485 0
M  V30 630 C 61.2682 -1.06028 -2.56229 0
M  V30 631 H 64.2192 -1.01183 -1.22261 0
M  V30 632 H 64.2402 -0.145876 -3.8022 0
M  V30 633 H 63.7522 -1.91945 -3.37311 0
M  V30 634 H 61.8532 0.526034 -3.68868 0
M  V30 635 H 61.9662 -1.08453 -4.66663 0
M  V30 636 H 60.3302 -0.481892 -2.501 0
M  V30 637 H 61.1132 -2.14352 -2.68157 0
M  V30 638 N 63.5583 1.46682 -0.576371 0
M  V30 639 C 64.5213 2.28707 0.150239 0
M  V30 640 C 65.5213 1.38035 0.824794 0
M  V30 641 O 66.7113 1.60476 0.677719 0
M  V30 642 C 63.8433 3.18248 1.22192 0
M  V30 643 H 65.0363 2.94423 -0.570521 0
M  V30 644 H 62.5893 1.52688 -0.334078 0
M  V30 645 H 63.3243 2.57265 1.97447 0
M  V30 646 H 63.1093 3.85 0.742812 0
M  V30 647 H 64.5993 3.80001 1.73172 0
M  V30 648 N 65.0364 0.313813 1.54444 0
M  V30 649 C 66.2824 -0.292108 2.00685 0
M  V30 650 C 66.6154 -1.52548 1.20177 0
M  V30 651 O 65.8904 -1.92452 0.281531 0
M  V30 652 C 66.1734 -0.635968 3.5444 0
M  V30 653 C 66.0264 0.607437 4.4568 0
M  V30 654 C 67.3454 -1.45747 4.15266 0
M  V30 655 H 64.4644 -0.104697 0.729526 0
M  V30 656 H 67.1064 0.428457 1.85106 0
M  V30 657 H 65.2564 -1.24986 3.67846 0
M  V30 658 H 66.9284 1.24581 4.44159 0
M  V30 659 H 65.1714 1.23822 4.15753 0
M  V30 660 H 65.8424 0.322515 5.51057 0
M  V30 661 H 68.3184 -0.938645 4.05375 0
M  V30 662 H 67.1944 -1.66683 5.2298 0
M  V30 663 H 67.4554 -2.45063 3.67963 0
M  V30 664 N 66.5145 -1.57545 0.0417849 0
M  V30 665 C 67.9255 -1.80011 -0.495259 0
M  V30 666 C 68.2765 -0.953199 -1.71489 0
M  V30 667 O 67.4015 -0.167138 -2.15754 0
M  V30 668 C 67.9965 -3.26482 -0.905265 0
M  V30 669 C 66.5555 -3.499 -1.38734 0
M  V30 670 C 65.7025 -2.74979 -0.358056 0
M  V30 671 H 68.6535 -1.56425 0.267736 0
M  V30 672 H 68.6745 -3.36887 -1.76882 0
M  V30 673 H 68.1865 -3.88096 -0.017401 0
M  V30 674 H 66.2875 -2.93553 -2.29471 0
M  V30 675 H 66.4005 -4.58615 -1.38598 0
M  V30 676 H 64.7645 -2.40834 -0.828912 0
M  V30 677 H 65.5475 -3.39315 0.521561 0
M  V30 678 N 67.9926 0.231505 -1.5589 0
M  V30 679 C 68.9556 1.27028 -1.90779 0
M  V30 680 C 69.9556 1.40308 -0.785507 0
M  V30 681 O 71.1456 1.38744 -1.05336 0
M  V30 682 C 68.2776 2.64566 -2.14983 0
M  V30 683 H 69.4706 0.973017 -2.83677 0
M  V30 684 H 67.0236 0.471486 -1.49019 0
M  V30 685 H 67.7586 2.99406 -1.24604 0
M  V30 686 H 67.5436 2.56305 -2.96732 0
M  V30 687 H 69.0336 3.39543 -2.43105 0
M  V30 688 N 69.4707 1.49531 0.497807 0
M  V30 689 C 70.7167 1.60388 1.25089 0
M  V30 690 C 71.0717 0.288328 1.90227 0
M  V30 691 O 70.3647 -0.711706 1.77891 0
M  V30 692 C 70.5587 2.70252 2.33878 0
M  V30 693 C 70.3877 4.12363 1.79408 0
M  V30 694 C 69.1577 4.7911 1.60566 0
M  V30 695 C 71.3557 4.97491 1.30412 0
M  V30 696 N 69.3377 6.05525 1.01059 0
M  V30 697 C 70.7087 6.14411 0.830595 0
M  V30 698 C 72.7637 4.83466 1.19015 0
M  V30 699 C 71.4667 7.1885 0.254371 0
M  V30 700 C 73.4927 5.88057 0.627892 0
M  V30 701 C 72.8547 7.04208 0.16461 0
M  V30 702 H 68.9537 0.641246 0.447579 0
M  V30 703 H 71.5377 1.86549 0.557441 0
M  V30 704 H 69.7087 2.45858 3.0068 0
M  V30 705 H 71.4407 2.70613 3.00917 0
M  V30 706 H 68.1957 4.35961 1.85026 0
M  V30 707 H 68.6197 6.73028 0.732236 0
M  V30 708 H 73.2617 3.93978 1.53431 0
M  V30 709 H 70.9797 8.08036 -0.102052 0
M  V30 710 H 74.5657 5.79266 0.542444 0
M  V30 711 H 73.4457 7.83757 -0.263669 0
M  V30 712 N 70.9488 -0.749086 1.3866 0
M  V30 713 C 72.1738 -1.54344 1.38538 0
M  V30 714 C 72.5988 -1.88088 -0.0216655 0
M  V30 715 O 71.9568 -1.50899 -1.00494 0
M  V30 716 C 72.0048 -2.8164 2.25192 0
M  V30 717 O 71.1088 -3.7698 1.67212 0
M  V30 718 H 70.4498 -0.466654 0.472367 0
M  V30 719 H 72.9798 -0.925355 1.82478 0
M  V30 720 H 72.9898 -3.30519 2.3921 0
M  V30 721 H 71.6648 -2.56411 3.27454 0
M  V30 722 H 70.2418 -3.35699 1.6236 0
M  V30 723 N 72.4269 -1.23603 -0.977757 0
M  V30 724 C 73.3899 -1.02069 -2.05218 0
M  V30 725 C 74.3899 0.0184305 -1.60789 0
M  V30 726 O 75.5799 -0.221569 -1.72785 0
M  V30 727 C 72.7119 -0.544926 -3.36517 0
M  V30 728 H 73.9049 -1.9742 -2.25755 0
M  V30 729 H 71.4579 -1.05684 -1.15155 0
M  V30 730 H 72.1929 0.412241 -3.21669 0
M  V30 731 H 71.9779 -1.2948 -3.70105 0
M  V30 732 H 73.4679 -0.414985 -4.15533 0
M  V30 733 N 73.905 1.17692 -1.04816 0
M  V30 734 C 74.868 2.19787 -0.650117 0
M  V30 735 C 75.868 1.58044 0.296427 0
M  V30 736 O 77.058 1.74012 0.0808097 0
M  V30 737 C 74.19 3.40869 0.0456987 0
M  V30 738 H 75.383 2.56516 -1.5537 0
M  V30 739 H 72.936 1.31708 -0.841594 0
M  V30 740 H 73.671 3.09681 0.962726 0
M  V30 741 H 73.456 3.86928 -0.634727 0
M  V30 742 H 74.946 4.16445 0.310432 0
M  V30 743 N 75.3831 0.828654 1.34056 0
M  V30 744 C 76.3151 0.212052 2.28217 0
M  V30 745 C 77.3281 -0.601362 1.51286 0
M  V30 746 O 78.5171 -0.430104 1.73241 0
M  V30 747 C 75.6171 -0.72088 3.31144 0
M  V30 748 C 74.7901 0.0509587 4.3737 0
M  V30 749 C 73.8491 -0.803766 5.20025 0
M  V30 750 O 72.8751 -0.246667 5.68665 0
M  V30 751 N 74.0771 -2.1227 5.40298 0
M  V30 752 H 76.8421 1.02105 2.81771 0
M  V30 753 H 74.4031 0.686153 1.46641 0
M  V30 754 H 76.3951 -1.29742 3.8334 0
M  V30 755 H 74.9651 -1.43061 2.77943 0
M  V30 756 H 74.1851 0.808831 3.85813 0
M  V30 757 H 75.4731 0.582065 5.0546 0
M  V30 758 H 74.8711 -2.59898 5.02464 0
M  V30 759 H 73.4281 -2.64796 5.95589 0
M  V30 760 N 76.8612 -1.46375 0.584142 0
M  V30 761 C 78.1092 -2.01978 0.0701287 0
M  V30 762 C 78.4302 -1.4579 -1.295 0
M  V30 763 O 77.7002 -0.64314 -1.85042 0
M  V30 764 H 76.2802 -0.746648 0.0229345 0
M  V30 765 H 78.9422 -1.79461 0.760245 0
M  V30 766 H 78.0382 -3.121 0.0022064 0
M  V30 767 N 78.3393 -0.321999 -1.54275 0
M  V30 768 C 79.6163 0.335232 -1.92706 0
M  V30 769 C 79.9963 1.70006 -1.25145 0
M  V30 770 O 79.3443 2.25067 -0.394596 0
M  V30 771 C 79.5543 0.429008 -3.46353 0
M  V30 772 C 80.9023 0.690029 -4.18956 0
M  V30 773 O 81.9263 0.511992 -3.52501 0
M  V30 774 O 80.7853 1.03338 -5.36641 0
M  V30 775 H 77.8793 0.191143 -0.804608 0
M  V30 776 H 80.4253 -0.3716 -1.65581 0
M  V30 777 H 79.1973 -0.529611 -3.87699 0
M  V30 778 H 78.8203 1.18348 -3.79578 0
M  V30 779 N 79.8174 1.5752 -0.0501392 0
M  V30 780 C 81.0634 1.92936 0.624798 0
M  V30 781 C 81.3964 0.928685 1.70555 0
M  V30 782 O 80.6714 -0.0454779 1.94447 0
M  V30 783 C 80.9544 3.38737 1.22185 0
M  V30 784 C 80.8074 4.49552 0.149218 0
M  V30 785 C 82.1264 3.84913 2.13378 0
M  V30 786 H 79.2454 0.701604 0.225657 0
M  V30 787 H 81.8874 1.89671 -0.111693 0
M  V30 788 H 80.0374 3.4165 1.84953 0
M  V30 789 H 81.7094 4.58768 -0.482648 0
M  V30 790 H 79.9524 4.30638 -0.522841 0
M  V30 791 H 80.6234 5.48653 0.606966 0
M  V30 792 H 83.0994 3.8387 1.60572 0
M  V30 793 H 81.9754 4.87584 2.52097 0
M  V30 794 H 82.2364 3.21611 3.03346 0
M  V30 795 N 81.2955 -0.223234 1.56011 0
M  V30 796 C 82.2585 -1.26014 1.9145 0
M  V30 797 C 83.2585 -1.3989 0.792937 0
M  V30 798 O 84.4485 -1.38184 1.0607 0
M  V30 799 C 81.5805 -2.63422 2.16383 0
M  V30 800 H 82.7735 -0.95796 2.84189 0
M  V30 801 H 80.3265 -0.463576 1.49267 0
M  V30 802 H 81.0615 -2.98741 1.2619 0
M  V30 803 H 80.8465 -2.54728 2.98088 0
M  V30 804 H 82.3365 -3.38249 2.44903 0
M  V30 805 N 82.7736 -1.49793 -0.48987 0
M  V30 806 C 83.7366 -1.66752 -1.57246 0
M  V30 807 C 84.7366 -0.538867 -1.51502 0
M  V30 808 O 85.9266 -0.805545 -1.54456 0
M  V30 809 C 83.0586 -1.67528 -2.96896 0
M  V30 810 H 84.2516 -2.63321 -1.43534 0
M  V30 811 H 81.8046 -1.38992 -0.714914 0
M  V30 812 H 82.5396 -0.725837 -3.16073 0
M  V30 813 H 82.3246 -2.49504 -3.02473 0
M  V30 814 H 83.8146 -1.82667 -3.7553 0
M  V30 815 N 84.2517 0.741722 -1.39055 0
M  V30 816 C 85.1817 1.869 -1.39966 0
M  V30 817 C 86.1627 1.6804 -0.26392 0
M  V30 818 O 87.3477 1.88458 -0.468755 0
M  V30 819 C 84.4777 3.24572 -1.23574 0
M  V30 820 C 83.4317 3.58056 -2.34477 0
M  V30 821 C 82.7577 4.94593 -2.0318 0
M  V30 822 C 84.0577 3.61716 -3.76774 0
M  V30 823 H 85.7517 1.86395 -2.34302 0
M  V30 824 H 83.2977 0.895361 -1.1278 0
M  V30 825 H 85.2507 4.031 -1.22834 0
M  V30 826 H 83.9747 3.25587 -0.257045 0
M  V30 827 H 82.6337 2.81854 -2.34423 0
M  V30 828 H 82.2817 4.92181 -1.03765 0
M  V30 829 H 81.9817 5.17964 -2.77465 0
M  V30 830 H 83.5057 5.75486 -2.04079 0
M  V30 831 H 84.9197 4.30335 -3.78794 0
M  V30 832 H 83.3167 3.96603 -4.50362 0
M  V30 833 H 84.3867 2.61672 -4.08235 0
M  V30 834 N 85.7298 1.2412 0.971189 0
M  V30 835 C 86.9778 1.07668 1.71032 0
M  V30 836 C 87.2988 -0.385797 1.91146 0
M  V30 837 O 86.5688 -1.27569 1.4867 0
M  V30 838 H 85.1488 0.395429 0.633755 0
M  V30 839 H 87.8108 1.55984 1.16855 0
M  V30 840 H 86.9068 1.57195 2.69622 0
M  V30 841 N 87.2079 -1.17134 1.05439 0
M  V30 842 C 88.1379 -2.2342 0.678649 0
M  V30 843 C 89.1189 -1.66971 -0.32476 0
M  V30 844 O 90.3039 -1.93149 -0.201802 0
M  V30 845 C 87.4339 -3.47256 0.0552099 0
M  V30 846 C 86.3879 -4.16543 0.98365 0
M  V30 847 C 85.7139 -5.34231 0.223961 0
M  V30 848 C 87.0139 -4.68495 2.3089 0
M  V30 849 H 88.7079 -2.55105 1.56722 0
M  V30 850 H 86.2539 -1.2262 0.754998 0
M  V30 851 H 88.2069 -4.20828 -0.21946 0
M  V30 852 H 86.9309 -3.14846 -0.868319 0
M  V30 853 H 85.5899 -3.44887 1.24293 0
M  V30 854 H 85.2379 -4.98071 -0.702412 0
M  V30 855 H 84.9379 -5.81527 0.842627 0
M  V30 856 H 86.4619 -6.10585 -0.0433671 0
M  V30 857 H 87.8759 -5.33691 2.09396 0
M  V30 858 H 86.2729 -5.26379 2.88176 0
M  V30 859 H 87.3429 -3.85169 2.94572 0
M  V30 860 N 88.686 -0.835752 -1.33615 0
M  V30 861 C 89.911 -0.442389 -2.02627 0
M  V30 862 C 90.336 0.947735 -1.62479 0
M  V30 863 O 89.694 1.61907 -0.815826 0
M  V30 864 C 89.742 -0.567216 -3.56111 0
M  V30 865 O 88.846 0.407799 -4.10379 0
M  V30 866 H 88.187 -0.180278 -0.639059 0
M  V30 867 H 90.717 -1.12972 -1.70583 0
M  V30 868 H 90.727 -0.447708 -4.05536 0
M  V30 869 H 89.402 -1.58103 -3.84677 0
M  V30 870 H 87.979 0.246107 -3.72087 0
M  V30 871 N 90.1641 1.46063 -0.591896 0
M  V30 872 C 91.1271 2.28854 0.125973 0
M  V30 873 C 92.1271 1.38903 0.810107 0
M  V30 874 O 93.3171 1.61186 0.66066 0
M  V30 875 C 90.4491 3.19526 1.1881 0
M  V30 876 H 91.6421 2.93802 -0.601717 0
M  V30 877 H 89.1951 1.52325 -0.350254 0
M  V30 878 H 89.9301 2.59345 1.94707 0
M  V30 879 H 89.7151 3.85766 0.701936 0
M  V30 880 H 91.2051 3.81817 1.69132 0
M  V30 881 N 91.6422 0.330177 1.54103 0
M  V30 882 C 92.8882 -0.270806 2.00984 0
M  V30 883 C 93.2212 -1.51265 1.21789 0
M  V30 884 O 92.4962 -1.92142 0.301927 0
M  V30 885 C 92.7792 -0.598339 3.55094 0
M  V30 886 C 92.6322 0.654674 4.4501 0
M  V30 887 C 93.9512 -1.41334 4.16789 0
M  V30 888 H 91.0702 -0.0969531 0.730595 0
M  V30 889 H 93.7122 0.448066 1.84641 0
M  V30 890 H 91.8622 -1.21078 3.69151 0
M  V30 891 H 93.5342 1.29285 4.42813 0
M  V30 892 H 91.7772 1.28224 4.14416 0
M  V30 893 H 92.4482 0.380944 5.50684 0
M  V30 894 H 94.9242 -0.895597 4.06347 0
M  V30 895 H 93.8002 -1.61127 5.24718 0
M  V30 896 H 94.0612 -2.41146 3.70541 0
M  V30 897 N 93.1203 -1.57491 0.0584922 0
M  V30 898 C 94.5313 -1.80526 -0.476138 0
M  V30 899 C 94.8823 -0.971334 -1.70469 0
M  V30 900 O 94.0073 -0.190012 -2.15564 0
M  V30 901 C 94.6023 -3.27424 -0.870587 0
M  V30 902 C 93.1613 -3.51351 -1.35015 0
M  V30 903 C 92.3083 -2.75343 -0.32887 0
M  V30 904 H 95.2593 -1.56133 0.284312 0
M  V30 905 H 95.2803 -3.38745 -1.73299 0
M  V30 906 H 94.7923 -3.88093 0.0237627 0
M  V30 907 H 92.8933 -2.95971 -2.26345 0
M  V30 908 H 93.0063 -4.60059 -1.33726 0
M  V30 909 H 91.3703 -2.417 -0.803321 0
M  V30 910 H 92.1533 -3.38743 0.557521 0
M  V30 911 N 94.5984 0.214957 -1.56127 0
M  V30 912 C 96.0094 0.781386 -1.69562 0
M  V30 913 C 96.3604 1.84707 -0.66165 0
M  V30 914 O 95.4854 2.156 0.185927 0
M  V30 915 C 96.0804 1.42411 -3.07416 0
M  V30 916 C 94.6394 1.93786 -3.22683 0
M  V30 917 C 93.7864 0.800438 -2.65496 0
M  V30 918 H 96.7374 -0.00980633 -1.58697 0
M  V30 919 H 96.7584 2.29309 -3.0364 0
M  V30 920 H 96.2704 0.64826 -3.82648 0
M  V30 921 H 94.3714 2.74152 -2.52332 0
M  V30 922 H 94.4844 2.1133 -4.29973 0
M  V30 923 H 92.8484 1.2095 -2.2415 0
M  V30 924 H 93.6314 0.0371471 -3.4328 0
M  V30 925 N 96.0765 1.50051 0.48192 0
M  V30 926 C 97.3045 1.64237 1.25832 0
M  V30 927 C 97.7195 0.321336 1.86045 0
M  V30 928 O 97.0765 -0.695478 1.68729 0
M  V30 929 C 97.1275 2.72548 2.37487 0
M  V30 930 O 96.8485 3.99529 1.79745 0
M  V30 931 C 98.3495 2.9761 3.28547 0
M  V30 932 H 95.5695 0.55237 0.380957 0
M  V30 933 H 98.1135 1.96207 0.576467 0
M  V30 934 H 96.2685 2.43303 3.01467 0
M  V30 935 H 96.6825 4.59342 2.5319 0
M  V30 936 H 98.1565 3.77084 4.03127 0
M  V30 937 H 98.6335 2.0826 3.86684 0
M  V30 938 H 99.2395 3.28345 2.70314 0
M  V30 939 N 97.5546 -0.734337 1.39446 0
M  V30 940 C 98.9706 -1.03997 1.21065 0
M  V30 941 C 99.1706 -2.01369 0.0727019 0
M  V30 942 O 98.2266 -2.45856 -0.575426 0
M  V30 943 C 99.5396 -1.60163 2.54496 0
M  V30 944 C 101.088 -1.7224 2.61347 0
M  V30 945 C 101.563 -2.31814 3.95002 0
M  V30 946 N 103.054 -2.39223 3.96644 0
M  V30 947 C 103.789 -2.86258 4.96834 0
M  V30 948 N 103.285 -3.33184 6.07421 0
M  V30 949 N 105.078 -2.85473 4.84213 0
M  V30 950 H 97.2286 -0.0885624 2.12215 0
M  V30 951 H 99.4916 -0.10191 0.942506 0
M  V30 952 H 99.1976 -0.960811 3.38321 0
M  V30 953 H 99.0716 -2.5896 2.74262 0
M  V30 954 H 101.459 -2.35443 1.77906 0
M  V30 955 H 101.54 -0.720939 2.4543 0
M  V30 956 H 101.184 -1.69238 4.78875 0
M  V30 957 H 101.114 -3.32638 4.08239 0
M  V30 958 H 103.605 -2.06057 3.16779 0
M  V30 959 H 103.918 -3.67586 6.7978 0
M  V30 960 H 102.263 -3.31191 6.11013 0
M  V30 961 H 105.454 -2.48136 3.96921 0
M  V30 962 H 105.627 -3.21814 5.62441 0
M  V30 963 N 99.0327 -1.24633 -0.964593 0
M  V30 964 C 100.279 -1.08949 -1.71049 0
M  V30 965 C 100.612 0.370302 -1.90637 0
M  V30 966 O 99.8867 1.27349 -1.47011 0
M  V30 967 C 100.17 -1.83329 -3.0994 0
M  V30 968 C 100.023 -3.37077 -2.97824 0
M  V30 969 C 101.342 -1.60846 -4.09654 0
M  V30 970 H 98.4607 -0.397178 -0.620821 0
M  V30 971 H 101.103 -1.5334 -1.12191 0
M  V30 972 H 99.2527 -1.45597 -3.60186 0
M  V30 973 H 100.925 -3.84425 -2.5498 0
M  V30 974 H 99.1677 -3.65298 -2.33965 0
M  V30 975 H 99.8387 -3.84324 -3.96231 0
M  V30 976 H 102.315 -1.93674 -3.68279 0
M  V30 977 H 101.191 -2.1534 -5.04896 0
M  V30 978 H 101.452 -0.547434 -4.38698 0
M  V30 979 N 100.511 1.16574 -1.06058 0
M  V30 980 C 101.922 1.68662 -0.800632 0
M  V30 981 C 102.273 1.84184 0.67608 0
M  V30 982 O 101.398 1.53568 1.52466 0
M  V30 983 C 101.993 3.06356 -1.44676 0
M  V30 984 C 100.552 3.55575 -1.23465 0
M  V30 985 C 99.6988 2.31616 -1.52477 0
M  V30 986 H 102.65 1.00969 -1.22438 0
M  V30 987 H 102.671 3.70636 -0.860788 0
M  V30 988 H 102.183 2.95027 -2.52152 0
M  V30 989 H 100.284 3.72167 -0.179527 0
M  V30 990 H 100.397 4.37812 -1.94571 0
M  V30 991 H 98.7608 2.36512 -0.945209 0
M  V30 992 H 99.5438 2.22887 -2.61106 0
M  V30 993 N 101.989 0.842826 1.3317 0
M  V30 994 C 103.237 0.439577 1.97262 0
M  V30 995 C 103.558 -1.00548 1.67078 0
M  V30 996 O 102.828 -1.70098 0.971779 0
M  V30 997 H 101.408 0.159558 0.72976 0
M  V30 998 H 104.07 1.07665 1.62463 0
M  V30 999 H 103.166 0.574886 3.0676 0
M  V30 1000 N 103.467 -1.45747 0.599634 0
M  V30 1001 C 104.878 -1.85853 0.177681 0
M  V30 1002 C 105.229 -1.50102 -1.26348 0
M  V30 1003 O 104.354 -0.923905 -1.95686 0
M  V30 1004 C 104.949 -3.37326 0.315688 0
M  V30 1005 C 103.508 -3.76365 -0.0515144 0
M  V30 1006 C 102.655 -2.69722 0.643822 0
M  V30 1007 H 105.606 -1.36661 0.806814 0
M  V30 1008 H 105.627 -3.77778 -0.454321 0
M  V30 1009 H 105.139 -3.63315 1.36468 0
M  V30 1010 H 103.24 -3.55993 -1.09999 0
M  V30 1011 H 103.353 -4.77916 0.336594 0
M  V30 1012 H 101.717 -2.54567 0.0822881 0
M  V30 1013 H 102.5 -2.98549 1.6948 0
M  V30 1014 N 104.945 -0.338344 -1.53925 0
M  V30 1015 C 105.875 0.51328 -2.27789 0
M  V30 1016 C 106.856 1.107 -1.29149 0
M  V30 1017 O 108.041 1.12937 -1.57984 0
M  V30 1018 C 105.171 1.66697 -3.04679 0
M  V30 1019 C 104.125 1.20183 -4.1078 0
M  V30 1020 C 103.451 2.44363 -4.75595 0
M  V30 1021 C 104.751 0.30605 -5.21403 0
M  V30 1022 H 106.445 -0.102883 -2.99223 0
M  V30 1023 H 103.991 -0.0509219 -1.4391 0
M  V30 1024 H 105.944 2.26915 -3.55088 0
M  V30 1025 H 104.668 2.30995 -2.30887 0
M  V30 1026 H 103.327 0.622499 -3.61276 0
M  V30 1027 H 102.975 3.07057 -3.98403 0
M  V30 1028 H 102.675 2.13925 -5.47275 0
M  V30 1029 H 104.199 3.05317 -5.28786 0
M  V30 1030 H 105.613 0.814929 -5.67478 0
M  V30 1031 H 104.01 0.0937929 -6.00027 0
M  V30 1032 H 105.08 -0.65921 -4.80398 0
M  V30 1033 N 106.423 1.57458 -0.0668435 0
M  V30 1034 C 107.386 2.11323 0.887422 0
M  V30 1035 C 108.386 1.03618 1.22964 0
M  V30 1036 O 109.576 1.29626 1.16373 0
M  V30 1037 C 106.708 2.61048 2.19242 0
M  V30 1038 H 107.901 2.96942 0.420194 0
M  V30 1039 H 105.454 1.55239 0.181793 0
M  V30 1040 H 106.189 1.78868 2.70512 0
M  V30 1041 H 105.974 3.39769 1.95702 0
M  V30 1042 H 107.464 3.02814 2.87565 0
M  V30 1043 N 107.901 -0.206675 1.56239 0
M  V30 1044 C 109.312 -0.772383 1.69974 0
M  V30 1045 C 109.663 -1.84353 0.671436 0
M  V30 1046 O 108.788 -2.15695 -0.174491 0
M  V30 1047 C 109.383 -1.40779 3.08167 0
M  V30 1048 C 107.942 -1.92072 3.23706 0
M  V30 1049 C 107.089 -0.786347 2.65917 0
M  V30 1050 H 110.04 0.0182223 1.5869 0
M  V30 1051 H 110.061 -2.27696 3.04852 0
M  V30 1052 H 109.573 -0.627958 3.82986 0
M  V30 1053 H 107.674 -2.7281 2.53782 0
M  V30 1054 H 107.787 -2.09046 4.31087 0
M  V30 1055 H 106.151 -1.1976 2.24788 0
M  V30 1056 H 106.934 -0.0189416 3.43295 0
M  V30 1057 N 109.379 -1.50304 -0.473955 0
M  V30 1058 C 110.795 -1.37667 -0.807466 0
M  V30 1059 C 110.995 -0.430555 -1.96846 0
M  V30 1060 O 110.051 0.127874 -2.52176 0
M  V30 1061 C 111.364 -2.78974 -1.12223 0
M  V30 1062 C 112.912 -2.87868 -1.22885 0
M  V30 1063 C 113.387 -4.30003 -1.57676 0
M  V30 1064 N 114.878 -4.3294 -1.64673 0
M  V30 1065 C 115.613 -5.3991 -1.93091 0
M  V30 1066 N 115.109 -6.57092 -2.1955 0
M  V30 1067 N 116.902 -5.27351 -1.94569 0
M  V30 1068 H 109.053 -2.10394 0.291212 0
M  V30 1069 H 111.316 -0.945575 0.0677609 0
M  V30 1070 H 111.022 -3.50031 -0.342229 0
M  V30 1071 H 110.896 -3.16038 -2.05913 0
M  V30 1072 H 113.283 -2.17032 -1.99953 0
M  V30 1073 H 113.364 -2.54352 -0.271814 0
M  V30 1074 H 113.008 -5.01375 -0.81149 0
M  V30 1075 H 112.938 -4.61004 -2.54525 0
M  V30 1076 H 115.429 -3.48441 -1.46277 0
M  V30 1077 H 115.742 -7.34425 -2.405 0
M  V30 1078 H 114.087 -6.60272 -2.16948 0
M  V30 1079 H 117.278 -4.34801 -1.73394 0
M  V30 1080 H 117.451 -6.10805 -2.16381 0
M  V30 1081 N 110.857 0.726932 -1.39834 0
M  V30 1082 C 112.273 1.03354 -1.21615 0
M  V30 1083 C 112.473 2.01327 -0.08338 0
M  V30 1084 O 111.529 2.46158 0.56238 0
M  V30 1085 C 112.842 1.58811 -2.55342 0
M  V30 1086 C 114.39 1.70851 -2.62257 0
M  V30 1087 C 114.865 2.29716 -3.96225 0
M  V30 1088 N 116.356 2.37116 -3.97907 0
M  V30 1089 C 117.091 2.83619 -4.98345 0
M  V30 1090 N 116.587 3.29958 -6.09179 0
M  V30 1091 N 118.38 2.82901 -4.8572 0
M  V30 1092 H 110.531 0.0773069 -2.12259 0
M  V30 1093 H 112.794 0.0969102 -0.943034 0
M  V30 1094 H 112.5 0.942855 -3.38826 0
M  V30 1095 H 112.374 2.57502 -2.75632 0
M  V30 1096 H 114.761 2.34497 -1.79152 0
M  V30 1097 H 114.842 0.707913 -2.45809 0
M  V30 1098 H 114.486 1.66696 -4.79765 0
M  V30 1099 H 114.416 3.30469 -4.09997 0
M  V30 1100 H 116.907 2.04374 -3.17868 0
M  V30 1101 H 117.22 3.63976 -6.8172 0
M  V30 1102 H 115.565 3.27946 -6.12761 0
M  V30 1103 H 118.756 2.46027 -3.98231 0
M  V30 1104 H 118.929 3.18827 -5.6414 0
M  V30 1105 N 112.336 1.25143 0.95797 0
M  V30 1106 C 113.752 1.01892 1.22842 0
M  V30 1107 C 113.952 -0.266311 1.99732 0
M  V30 1108 O 113.008 -0.979913 2.3271 0
M  V30 1109 C 114.321 2.24004 2.00606 0
M  V30 1110 C 115.869 2.28731 2.13662 0
M  V30 1111 C 116.344 3.5049 2.94823 0
M  V30 1112 N 117.835 3.50866 3.02403 0
M  V30 1113 C 118.57 4.4174 3.65586 0
M  V30 1114 N 118.066 5.42882 4.30408 0
M  V30 1115 N 119.859 4.29429 3.62694 0
M  V30 1116 H 112.01 2.07718 0.443493 0
M  V30 1117 H 114.273 0.912031 0.258657 0
M  V30 1118 H 113.979 3.17395 1.51503 0
M  V30 1119 H 113.853 2.26907 3.01319 0
M  V30 1120 H 116.24 1.35865 2.61963 0
M  V30 1121 H 116.321 2.29848 1.12265 0
M  V30 1122 H 115.965 4.43676 2.47213 0
M  V30 1123 H 115.895 3.46617 3.96439 0
M  V30 1124 H 118.386 2.777 2.56302 0
M  V30 1125 H 118.699 6.0844 4.76467 0
M  V30 1126 H 117.044 5.46758 4.29047 0
M  V30 1127 H 120.235 3.49643 3.11236 0
M  V30 1128 H 120.408 5.00448 4.1165 0
M  V30 1129 N 113.814 -1.1601 1.06675 0
M  V30 1130 C 115.23 -1.38622 0.790948 0
M  V30 1131 C 115.43 -1.92109 -0.607965 0
M  V30 1132 O 114.486 -2.12239 -1.36787 0
M  V30 1133 C 115.799 -2.36347 1.85905 0
M  V30 1134 C 117.347 -2.50023 1.88301 0
M  V30 1135 C 117.822 -3.51033 2.94176 0
M  V30 1136 N 119.313 -3.58563 2.93235 0
M  V30 1137 C 120.048 -4.36521 3.71803 0
M  V30 1138 N 119.544 -5.17869 4.602 0
M  V30 1139 N 121.337 -4.31541 3.60178 0
M  V30 1140 H 113.488 -0.796294 1.96908 0
M  V30 1141 H 115.751 -0.412597 0.853503 0
M  V30 1142 H 115.457 -2.04147 2.86386 0
M  V30 1143 H 115.331 -3.36042 1.71334 0
M  V30 1144 H 117.718 -2.81524 0.884769 0
M  V30 1145 H 117.799 -1.5035 2.06951 0
M  V30 1146 H 117.443 -3.20268 3.94196 0
M  V30 1147 H 117.373 -4.50445 2.72776 0
M  V30 1148 H 119.864 -3.00496 2.29152 0
M  V30 1149 H 120.177 -5.74578 5.16797 0
M  V30 1150 H 118.522 -5.17199 4.64253 0
M  V30 1151 H 121.713 -3.67051 2.90502 0
M  V30 1152 H 121.886 -4.9205 4.21653 0
M  V30 1153 N 115.292 -0.849877 -1.32721 0
M  V30 1154 C 116.522 -0.46408 -2.0132 0
M  V30 1155 C 116.93 0.94246 -1.64056 0
M  V30 1156 O 116.273 1.6257 -0.855379 0
M  V30 1157 C 116.335 -0.517887 -3.5575 0
M  V30 1158 C 115.999 -1.88248 -4.16427 0
M  V30 1159 C 116.996 -2.84726 -4.35002 0
M  V30 1160 C 114.681 -2.17832 -4.52609 0
M  V30 1161 C 116.675 -4.08945 -4.8892 0
M  V30 1162 C 114.362 -3.42304 -5.06232 0
M  V30 1163 C 115.36 -4.37677 -5.24335 0
M  V30 1164 O 115.048 -5.59946 -5.76815 0
M  V30 1165 H 114.78 -0.181327 -0.651227 0
M  V30 1166 H 117.334 -1.14713 -1.70382 0
M  V30 1167 H 115.564 0.221997 -3.86062 0
M  V30 1168 H 117.253 -0.148366 -4.05629 0
M  V30 1169 H 118.019 -2.63174 -4.07388 0
M  V30 1170 H 113.898 -1.44385 -4.37806 0
M  V30 1171 H 117.442 -4.83396 -5.02966 0
M  V30 1172 H 113.339 -3.63709 -5.33278 0
M  V30 1173 H 114.107 -5.61838 -5.95214 0
M  V30 1174 N 116.77 1.45427 -0.607355 0
M  V30 1175 C 117.998 2.06614 -0.108814 0
M  V30 1176 C 118.413 1.45204 1.2067 0
M  V30 1177 O 117.77 0.566132 1.73497 0
M  V30 1178 C 117.821 3.61481 0.0375347 0
M  V30 1179 O 117.542 4.20598 -1.22593 0
M  V30 1180 C 119.043 4.39652 0.567561 0
M  V30 1181 H 116.263 0.66747 -0.0687351 0
M  V30 1182 H 118.807 1.86675 -0.835022 0
M  V30 1183 H 116.962 3.80762 0.714068 0
M  V30 1184 H 117.376 5.1377 -1.05547 0
M  V30 1185 H 118.85 5.48518 0.61905 0
M  V30 1186 H 119.327 4.09417 1.58978 0
M  V30 1187 H 119.933 4.25234 -0.0749202 0
M  V30 1188 N 118.248 0.346503 1.53744 0
M  V30 1189 C 119.178 -0.501193 2.28058 0
M  V30 1190 C 120.159 -1.10014 1.29734 0
M  V30 1191 O 121.344 -1.12097 1.58581 0
M  V30 1192 C 118.474 -1.65078 3.05559 0
M  V30 1193 C 117.428 -1.18003 4.11411 0
M  V30 1194 C 116.754 -2.41837 4.76884 0
M  V30 1195 C 118.054 -0.278394 5.21558 0
M  V30 1196 H 119.748 0.11875 2.99164 0
M  V30 1197 H 117.294 0.0585531 1.43881 0
M  V30 1198 H 119.247 -2.25028 3.56287 0
M  V30 1199 H 117.971 -2.29767 2.32109 0
M  V30 1200 H 116.63 -0.603331 3.61601 0
M  V30 1201 H 116.278 -3.0494 4.00026 0
M  V30 1202 H 115.978 -2.1102 5.48402 0
M  V30 1203 H 117.502 -3.02508 5.30397 0
M  V30 1204 H 118.916 -0.784823 5.67903 0
M  V30 1205 H 117.313 -0.0619707 6.00068 0
M  V30 1206 H 118.383 0.684677 4.80042 0
M  V30 1207 N 119.726 -1.57421 0.075193 0
M  V30 1208 C 120.954 -1.97946 -0.602076 0
M  V30 1209 C 121.369 -0.953674 -1.62943 0
M  V30 1210 O 120.726 0.0592551 -1.82404 0
M  V30 1211 C 120.777 -3.38546 -1.26762 0
M  V30 1212 O 120.498 -4.37195 -0.281376 0
M  V30 1213 C 121.999 -3.93966 -2.03239 0
M  V30 1214 H 119.219 -0.650918 -0.162931 0
M  V30 1215 H 121.763 -2.03959 0.148601 0
M  V30 1216 H 119.918 -3.33609 -1.96936 0
M  V30 1217 H 120.332 -5.18975 -0.759267 0
M  V30 1218 H 121.806 -4.94555 -2.45193 0
M  V30 1219 H 122.283 -3.30693 -2.8903 0
M  V30 1220 H 122.889 -4.02315 -1.37924 0
M  V30 1221 N 121.204 0.198386 -1.56346 0
M  V30 1222 C 122.615 0.763358 -1.70381 0
M  V30 1223 C 122.966 1.83995 -0.681203 0
M  V30 1224 O 122.091 2.15785 0.16305 0
M  V30 1225 C 122.686 1.39143 -3.08909 0
M  V30 1226 C 121.245 1.90352 -3.2472 0
M  V30 1227 C 120.392 0.772233 -2.6633 0
M  V30 1228 H 123.343 -0.0266377 -1.58678 0
M  V30 1229 H 123.364 2.26076 -3.06055 0
M  V30 1230 H 122.876 0.607638 -3.83314 0
M  V30 1231 H 120.977 2.71461 -2.55225 0
M  V30 1232 H 121.09 2.06757 -4.3219 0
M  V30 1233 H 119.454 1.18566 -2.2542 0
M  V30 1234 H 120.237 0.00073556 -3.433 0
M  V30 1235 N 122.682 1.50554 0.465978 0
M  V30 1236 C 123.645 1.69233 1.54574 0
M  V30 1237 C 124.645 0.562901 1.50626 0
M  V30 1238 O 125.835 0.830016 1.53155 0
M  V30 1239 C 122.967 1.7223 2.94193 0
M  V30 1240 H 124.16 2.65571 1.39327 0
M  V30 1241 H 121.713 1.40111 0.692711 0
M  V30 1242 H 122.448 0.77603 3.14878 0
M  V30 1243 H 122.233 2.54285 2.98466 0
M  V30 1244 H 123.723 1.88618 3.72576 0
M  V30 1245 N 124.16 -0.719506 1.40217 0
M  V30 1246 C 125.576 -1.02707 1.22161 0
M  V30 1247 C 125.776 -2.0128 0.0940557 0
M  V30 1248 O 124.832 -2.46452 -0.549318 0
M  V30 1249 C 126.145 -1.57454 2.56181 0
M  V30 1250 C 127.693 -1.69458 2.63159 0
M  V30 1251 C 128.168 -2.27611 3.97438 0
M  V30 1252 N 129.659 -2.35002 3.99159 0
M  V30 1253 C 130.394 -2.80972 4.99842 0
M  V30 1254 N 129.89 -3.26723 6.10921 0
M  V30 1255 N 131.683 -2.80321 4.87213 0
M  V30 1256 H 123.834 -0.0660492 2.12297 0
M  V30 1257 H 126.097 -0.0919077 0.943534 0
M  V30 1258 H 125.803 -0.924873 3.39321 0
M  V30 1259 H 125.677 -2.56036 2.76993 0
M  V30 1260 H 128.064 -2.33543 1.80393 0
M  V30 1261 H 128.145 -0.694867 2.46181 0
M  V30 1262 H 127.789 -1.6415 4.80643 0
M  V30 1263 H 127.719 -3.2829 4.11744 0
M  V30 1264 H 130.21 -2.02685 3.18947 0
M  V30 1265 H 130.523 -3.60355 6.8364 0
M  V30 1266 H 128.868 -3.24692 6.14492 0
M  V30 1267 H 132.059 -2.43912 3.9953 0
M  V30 1268 H 132.232 -3.15831 5.65822 0
M  V30 1269 N 125.638 -1.25649 -0.95132 0
M  V30 1270 C 126.568 -1.08808 -2.06599 0
M  V30 1271 C 127.549 0.00382547 -1.701 0
M  V30 1272 O 128.734 -0.166325 -1.93486 0
M  V30 1273 C 125.864 -0.709542 -3.39975 0
M  V30 1274 C 124.818 -1.75206 -3.90496 0
M  V30 1275 C 124.144 -1.22811 -5.20405 0
M  V30 1276 C 125.444 -3.15153 -4.16504 0
M  V30 1277 H 127.138 -2.02048 -2.20946 0
M  V30 1278 H 124.684 -0.972835 -1.06169 0
M  V30 1279 H 126.637 -0.578649 -4.17408 0
M  V30 1280 H 125.361 0.258556 -3.25575 0
M  V30 1281 H 124.02 -1.87145 -3.15234 0
M  V30 1282 H 123.668 -0.250145 -5.02378 0
M  V30 1283 H 123.368 -1.92492 -5.55176 0
M  V30 1284 H 124.892 -1.10968 -6.00432 0
M  V30 1285 H 126.306 -3.06349 -4.84586 0
M  V30 1286 H 124.703 -3.82333 -4.62538 0
M  V30 1287 H 125.773 -3.61966 -3.22658 0
M  V30 1288 N 127.117 1.15442 -1.07289 0
M  V30 1289 C 128.533 1.38201 -0.798288 0
M  V30 1290 C 128.733 1.92429 0.597769 0
M  V30 1291 O 127.789 2.12962 1.3566 0
M  V30 1292 C 129.102 2.35357 -1.87156 0
M  V30 1293 C 130.65 2.49021 -1.89624 0
M  V30 1294 C 131.125 3.49468 -2.96034 0
M  V30 1295 N 132.616 3.57003 -2.95132 0
M  V30 1296 C 133.351 4.34543 -3.74112 0
M  V30 1297 N 132.847 5.15421 -4.6294 0
M  V30 1298 N 134.64 4.29625 -3.62462 0
M  V30 1299 H 126.791 0.78584 -1.97328 0
M  V30 1300 H 129.054 0.408065 -0.855679 0
M  V30 1301 H 128.76 2.02626 -2.87464 0
M  V30 1302 H 128.634 3.35129 -1.73114 0
M  V30 1303 H 131.021 2.81051 -0.899687 0
M  V30 1304 H 131.102 1.4925 -2.07745 0
M  V30 1305 H 130.746 3.18173 -3.95889 0
M  V30 1306 H 130.676 4.48992 -2.75161 0
M  V30 1307 H 133.167 2.99276 -2.30743 0
M  V30 1308 H 133.48 5.7183 -5.19837 0
M  V30 1309 H 131.825 5.14729 -4.66989 0
M  V30 1310 H 135.016 3.65505 -2.92444 0
M  V30 1311 H 135.189 4.89807 -4.24256 0
M  V30 1312 N 128.595 0.856903 1.32268 0
M  V30 1313 C 129.841 0.471355 1.97863 0
M  V30 1314 C 130.196 -0.962896 1.66572 0
M  V30 1315 O 129.489 -1.66686 0.944797 0
M  V30 1316 C 129.683 0.649919 3.51441 0
M  V30 1317 C 129.512 2.09997 3.97657 0
M  V30 1318 C 128.282 2.73893 4.2463 0
M  V30 1319 C 130.48 3.07081 4.1256 0
M  V30 1320 N 128.462 4.09786 4.57109 0
M  V30 1321 C 129.833 4.27968 4.48602 0
M  V30 1322 C 131.888 3.03247 3.949 0
M  V30 1323 C 130.591 5.45521 4.68827 0
M  V30 1324 C 132.617 4.20046 4.16311 0
M  V30 1325 C 131.979 5.39692 4.52672 0
M  V30 1326 H 128.078 0.221263 0.750044 0
M  V30 1327 H 130.662 1.10876 1.60045 0
M  V30 1328 H 128.833 0.0421938 3.88377 0
M  V30 1329 H 130.565 0.234044 4.04023 0
M  V30 1330 H 127.32 2.24918 4.16784 0
M  V30 1331 H 127.744 4.7989 4.7753 0
M  V30 1332 H 132.386 2.11863 3.65888 0
M  V30 1333 H 130.104 6.37434 4.96693 0
M  V30 1334 H 133.69 4.18517 4.04147 0
M  V30 1335 H 132.57 6.28566 4.68907 0
M  V30 1336 N 130.073 -1.45103 0.615059 0
M  V30 1337 C 131.35 -1.95549 0.0448276 0
M  V30 1338 C 131.73 -1.55737 -1.4251 0
M  V30 1339 O 131.078 -0.823556 -2.13143 0
M  V30 1340 C 131.288 -3.48098 0.250785 0
M  V30 1341 C 132.636 -4.24384 0.135509 0
M  V30 1342 O 133.66 -3.55738 0.181299 0
M  V30 1343 O 132.519 -5.46493 0.0268878 0
M  V30 1344 H 129.613 -0.8264 -0.0314845 0
M  V30 1345 H 132.159 -1.55232 0.685642 0
M  V30 1346 H 130.931 -3.7007 1.27139 0
M  V30 1347 H 130.554 -3.95323 -0.424937 0
M  V30 1348 N 131.551 -0.354651 -1.53558 0
M  V30 1349 C 132.501 0.513179 -2.2215 0
M  V30 1350 C 133.485 1.05734 -1.21281 0
M  V30 1351 O 134.677 0.989202 -1.46778 0
M  V30 1352 C 131.806 1.65798 -3.00609 0
M  V30 1353 C 130.892 1.12722 -4.08845 0
M  V30 1354 N 131.283 0.318563 -5.04796 0
M  V30 1355 C 129.581 1.40307 -4.23356 0
M  V30 1356 C 130.282 0.0292224 -5.81693 0
M  V30 1357 N 129.258 0.623891 -5.40008 0
M  V30 1358 H 133.06 -0.111586 -2.93688 0
M  V30 1359 H 130.574 -0.162091 -1.61589 0
M  V30 1360 H 132.571 2.29176 -3.48258 0
M  V30 1361 H 131.231 2.28591 -2.306 0
M  V30 1362 H 132.242 -0.0413091 -5.17884 0
M  V30 1363 H 128.919 2.03458 -3.6457 0
M  V30 1364 H 130.309 -0.623808 -6.68998 0
M  V30 1365 N 133.029 1.57378 -0.0835403 0
M  V30 1366 C 134.276 1.9393 0.58287 0
M  V30 1367 C 134.604 0.964455 1.68904 0
M  V30 1368 O 133.859 -0.0179474 1.95692 0
M  V30 1369 C 134.158 3.37063 1.1884 0
M  V30 1370 C 133.824 4.50424 0.207194 0
M  V30 1371 C 132.486 4.81159 -0.0627115 0
M  V30 1372 C 134.838 5.19136 -0.463426 0
M  V30 1373 C 132.166 5.77939 -1.01012 0
M  V30 1374 C 134.518 6.16931 -1.39924 0
M  V30 1375 C 133.182 6.46078 -1.67749 0
M  V30 1376 H 132.452 0.70964 0.213287 0
M  V30 1377 H 135.099 1.90856 -0.156916 0
M  V30 1378 H 133.404 3.3666 2.00418 0
M  V30 1379 H 135.101 3.6264 1.71153 0
M  V30 1380 H 131.691 4.2646 0.427747 0
M  V30 1381 H 135.875 4.95576 -0.268034 0
M  V30 1382 H 131.131 5.98842 -1.23283 0
M  V30 1383 H 135.305 6.69273 -1.92476 0
M  V30 1384 H 132.932 7.2088 -2.41321 0
M  V30 1385 N 134.507 -0.190092 1.56449 0
M  V30 1386 C 135.455 -1.25501 1.95837 0
M  V30 1387 C 136.449 -1.4685 0.844485 0
M  V30 1388 O 137.655 -1.47651 1.02952 0
M  V30 1389 H 134.03 -0.421447 0.622805 0
M  V30 1390 H 136.001 -0.895821 2.84636 0
M  V30 1391 C 134.75 -2.59124 2.31841 0
M  V30 1392 H 134.073 -2.43514 3.17082 0
M  V30 1393 H 135.513 -3.32371 2.6326 0
M  V30 1394 C 133.972 -3.16488 1.15486 0
M  V30 1395 O 134.502 -3.99365 0.432535 0
M  V30 1396 N 132.708 -2.75305 0.930349 0
M  V30 1397 H 132.255 -2.08013 1.51948 0
M  V30 1398 H 132.213 -3.14024 0.153634 0
M  V30 1399 N 135.985 -1.50799 -0.457987 0
M  V30 1400 C 136.915 -1.73553 -1.5621 0
M  V30 1401 C 137.896 -0.584774 -1.59732 0
M  V30 1402 O 139.081 -0.825314 -1.7579 0
M  V30 1403 C 136.211 -1.84169 -2.94447 0
M  V30 1404 C 135.165 -2.99461 -3.0579 0
M  V30 1405 C 134.491 -2.95235 -4.45803 0
M  V30 1406 C 135.791 -4.39766 -2.81786 0
M  V30 1407 H 137.485 -2.66 -1.37421 0
M  V30 1408 H 135.031 -1.28002 -0.659662 0
M  V30 1409 H 136.984 -1.98672 -3.71628 0
M  V30 1410 H 135.708 -0.883545 -3.14422 0
M  V30 1411 H 134.367 -2.8463 -2.31044 0
M  V30 1412 H 134.015 -1.97239 -4.62715 0
M  V30 1413 H 133.715 -3.72642 -4.54326 0
M  V30 1414 H 135.239 -3.11803 -5.24987 0
M  V30 1415 H 136.653 -4.55054 -3.4871 0
M  V30 1416 H 135.05 -5.18722 -3.0174 0
M  V30 1417 H 136.12 -4.51229 -1.7754 0
M  V30 1418 N 137.463 0.71206 -1.40597 0
M  V30 1419 C 138.691 1.50111 -1.42388 0
M  V30 1420 C 139.106 1.88784 -0.0245395 0
M  V30 1421 O 138.463 1.55681 0.952351 0
M  V30 1422 C 138.514 2.7742 -2.31776 0
M  V30 1423 O 138.235 2.40382 -3.66262 0
M  V30 1424 C 139.736 3.7129 -2.42196 0
M  V30 1425 H 136.956 0.46314 -0.485533 0
M  V30 1426 H 139.5 0.878068 -1.8469 0
M  V30 1427 H 137.655 3.36001 -1.92827 0
M  V30 1428 H 138.069 3.22324 -4.13772 0
M  V30 1429 H 139.543 4.57448 -3.08943 0
M  V30 1430 H 140.02 4.14641 -1.44809 0
M  V30 1431 H 140.626 3.18619 -2.81712 0
M  V30 1432 N 138.941 1.26152 0.944643 0
M  V30 1433 C 140.171 1.14094 1.72239 0
M  V30 1434 C 140.579 -0.306931 1.86694 0
M  V30 1435 O 139.922 -1.22222 1.3714 0
M  V30 1436 C 139.984 1.73316 3.14963 0
M  V30 1437 C 139.648 3.2239 3.23904 0
M  V30 1438 C 140.645 4.19252 3.07447 0
M  V30 1439 C 138.33 3.62788 3.47405 0
M  V30 1440 C 140.324 5.54491 3.14353 0
M  V30 1441 C 138.011 4.98162 3.53947 0
M  V30 1442 C 139.009 5.93823 3.37436 0
M  V30 1443 O 138.697 7.26732 3.43679 0
M  V30 1444 H 138.429 0.398292 0.546205 0
M  V30 1445 H 140.983 1.67201 1.19301 0
M  V30 1446 H 139.213 1.14667 3.69308 0
M  V30 1447 H 140.902 1.56214 3.74636 0
M  V30 1448 H 141.668 3.8938 2.8915 0
M  V30 1449 H 137.547 2.88816 3.59313 0
M  V30 1450 H 141.091 6.29137 3.01384 0
M  V30 1451 H 136.988 5.27695 3.71763 0
M  V30 1452 H 137.756 7.3496 3.60245 0
M  V30 1453 N 140.419 -1.14872 1.07899 0
M  V30 1454 C 141.835 -1.37776 0.805606 0
M  V30 1455 C 142.035 -1.92743 -0.587555 0
M  V30 1456 O 141.091 -2.13678 -1.34528 0
M  V30 1457 C 142.404 -2.34361 1.88402 0
M  V30 1458 C 143.952 -2.48012 1.90942 0
M  V30 1459 C 144.427 -3.47893 2.97883 0
M  V30 1460 N 145.918 -3.55433 2.97021 0
M  V30 1461 C 146.653 -4.32553 3.76412 0
M  V30 1462 N 146.149 -5.12959 4.65666 0
M  V30 1463 N 147.942 -4.27697 3.64735 0
M  V30 1464 H 140.093 -0.775365 1.97742 0
M  V30 1465 H 142.356 -0.403521 0.857831 0
M  V30 1466 H 142.062 -2.01098 2.88535 0
M  V30 1467 H 141.936 -3.34206 1.74889 0
M  V30 1468 H 144.323 -2.8057 0.914579 0
M  V30 1469 H 144.404 -1.48147 2.08534 0
M  V30 1470 H 144.048 -3.16069 3.97571 0
M  V30 1471 H 143.978 -4.47527 2.77538 0
M  V30 1472 H 146.469 -2.98048 2.32326 0
M  V30 1473 H 146.782 -5.69065 5.22862 0
M  V30 1474 H 145.127 -5.12245 4.69712 0
M  V30 1475 H 148.318 -3.63949 2.94378 0
M  V30 1476 H 148.491 -4.8755 4.26848 0
M  V30 1477 N 141.898 -0.863906 -1.31812 0
M  V30 1478 C 143.147 -0.46801 -1.96195 0
M  V30 1479 C 143.46 0.983474 -1.69077 0
M  V30 1480 O 144.666 1.48523 -2.27273 0
M  V30 1481 C 143.122 -0.785995 -3.51212 0
M  V30 1482 C 142.73 -2.25383 -3.87178 0
M  V30 1483 C 144.474 -0.458274 -4.22019 0
M  V30 1484 C 142.381 -2.51455 -5.3528 0
M  V30 1485 H 141.311 -0.171283 -0.734287 0
M  V30 1486 H 143.962 -1.05597 -1.50072 0
M  V30 1487 H 142.344 -0.127359 -3.95795 0
M  V30 1488 H 143.518 -2.95502 -3.53575 0
M  V30 1489 H 141.833 -2.54698 -3.2942 0
M  V30 1490 H 144.43 -0.630369 -5.30971 0
M  V30 1491 H 144.773 0.600834 -4.11941 0
M  V30 1492 H 145.306 -1.07319 -3.8305 0
M  V30 1493 H 142.045 -3.56025 -5.50387 0
M  V30 1494 H 141.565 -1.85923 -5.70257 0
M  V30 1495 H 143.244 -2.35874 -6.02472 0
M  V30 1496 N 143.376 1.44774 -0.622745 0
M  V30 1497 C 144.306 2.33382 0.0741861 0
M  V30 1498 C 145.287 1.47719 0.843387 0
M  V30 1499 O 146.472 1.76458 0.810934 0
M  V30 1500 C 143.602 3.30663 1.06204 0
M  V30 1501 C 142.556 4.26079 0.405037 0
M  V30 1502 C 141.882 5.13165 1.5022 0
M  V30 1503 C 143.182 5.1781 -0.683414 0
M  V30 1504 H 144.876 2.91905 -0.665713 0
M  V30 1505 H 142.422 1.40363 -0.321587 0
M  V30 1506 H 144.375 3.9153 1.55827 0
M  V30 1507 H 143.099 2.70331 1.83272 0
M  V30 1508 H 141.758 3.66532 -0.0704683 0
M  V30 1509 H 141.406 4.49191 2.26355 0
M  V30 1510 H 141.106 5.77812 1.06803 0
M  V30 1511 H 142.63 5.76902 2.00041 0
M  V30 1512 H 144.044 5.72661 -0.270631 0
M  V30 1513 H 142.441 5.91015 -1.04023 0
M  V30 1514 H 143.511 4.59326 -1.55395 0
M  V30 1515 N 144.854 0.36279 1.53368 0
M  V30 1516 C 146.079 -0.231226 2.06107 0
M  V30 1517 C 146.504 -1.419 1.23474 0
M  V30 1518 O 145.862 -1.79524 0.253128 0
M  V30 1519 C 145.91 -0.605523 3.5548 0
M  V30 1520 O 145.014 -1.70312 3.7559 0
M  V30 1521 H 144.355 -0.034327 0.663112 0
M  V30 1522 H 146.885 0.522584 1.97814 0
M  V30 1523 H 146.895 -0.877314 3.98456 0
M  V30 1524 H 145.57 0.263004 4.15068 0
M  V30 1525 H 144.147 -1.4271 3.44512 0
M  V30 1526 N 146.332 -1.57332 0.0918853 0
M  V30 1527 C 147.579 -1.94236 -0.572577 0
M  V30 1528 C 147.907 -0.973398 -1.6839 0
M  V30 1529 O 147.162 0.00756912 -1.95699 0
M  V30 1530 C 147.461 -3.37689 -1.17051 0
M  V30 1531 C 147.127 -4.50527 -0.183304 0
M  V30 1532 C 145.789 -4.81119 0.0882276 0
M  V30 1533 C 148.141 -5.18883 0.49095 0
M  V30 1534 C 145.469 -5.77395 1.04076 0
M  V30 1535 C 147.821 -6.1618 1.43193 0
M  V30 1536 C 146.485 -6.45179 1.71173 0
M  V30 1537 H 145.755 -0.710762 -0.209521 0
M  V30 1538 H 148.402 -1.9077 0.167036 0
M  V30 1539 H 146.707 -3.37718 -1.9863 0
M  V30 1540 H 148.404 -3.63543 -1.69227 0
M  V30 1541 H 144.994 -4.26681 -0.405124 0
M  V30 1542 H 149.178 -4.95427 0.294312 0
M  V30 1543 H 144.434 -5.98179 1.26457 0
M  V30 1544 H 148.608 -6.68243 1.96023 0
M  V30 1545 H 146.235 -7.1959 2.4514 0
M  V30 1546 N 147.81 0.181792 -1.56548 0
M  V30 1547 C 149.221 0.745244 -1.71181 0
M  V30 1548 C 149.572 1.83262 -0.70068 0
M  V30 1549 O 148.697 2.15946 0.140154 0
M  V30 1550 C 149.292 1.35859 -3.10367 0
M  V30 1551 C 147.851 1.86898 -3.2672 0
M  V30 1552 C 146.998 0.743942 -2.67134 0
M  V30 1553 H 149.949 -0.0434661 -1.5864 0
M  V30 1554 H 149.97 2.22817 -3.08436 0
M  V30 1555 H 149.482 0.566948 -3.83937 0
M  V30 1556 H 147.583 2.68738 -2.5809 0
M  V30 1557 H 147.696 2.02162 -4.34359 0
M  V30 1558 H 146.06 1.16169 -2.26665 0
M  V30 1559 H 146.843 -0.035676 -3.43281 0
M  V30 1560 N 149.288 1.51039 0.449983 0
M  V30 1561 C 150.704 1.38934 0.785462 0
M  V30 1562 C 150.904 0.461817 1.96136 0
M  V30 1563 O 149.96 -0.0877389 2.52348 0
M  V30 1564 C 151.273 2.80724 1.0777 0
M  V30 1565 C 152.821 2.89787 1.1829 0
M  V30 1566 C 153.296 4.32457 1.50815 0
M  V30 1567 N 154.787 4.35505 1.57764 0
M  V30 1568 C 155.522 5.42914 1.84477 0
M  V30 1569 N 155.018 6.60502 2.09068 0
M  V30 1570 N 156.811 5.3038 1.86155 0
M  V30 1571 H 148.962 2.09904 -0.324647 0
M  V30 1572 H 151.225 0.944378 -0.0827957 0
M  V30 1573 H 150.931 3.50531 0.286498 0
M  V30 1574 H 150.805 3.19273 2.00859 0
M  V30 1575 H 153.192 2.20186 1.96474 0
M  V30 1576 H 153.273 2.54752 0.231314 0
M  V30 1577 H 152.917 5.02603 0.731622 0
M  V30 1578 H 152.847 4.64995 2.47158 0
M  V30 1579 H 155.338 3.50724 1.40715 0
M  V30 1580 H 155.651 7.38158 2.28785 0
M  V30 1581 H 153.996 6.63639 2.06416 0
M  V30 1582 H 157.187 4.37505 1.66454 0
M  V30 1583 H 157.36 6.1417 2.06637 0
M  V30 1584 N 150.766 -0.704594 1.40972 0
M  V30 1585 C 151.714 -1.83994 1.42299 0
M  V30 1586 C 152.708 -1.66684 0.302111 0
M  V30 1587 O 153.914 -1.73655 0.473697 0
M  V30 1588 H 150.289 -0.606171 0.44504 0
M  V30 1589 H 152.26 -1.79992 2.38003 0
M  V30 1590 C 151.009 -3.21946 1.31323 0
M  V30 1591 H 150.332 -3.35878 2.16855 0
M  V30 1592 H 151.772 -4.01491 1.36311 0
M  V30 1593 C 150.231 -3.36891 0.0245977 0
M  V30 1594 O 150.761 -3.90687 -0.934153 0
M  V30 1595 N 148.967 -2.90559 -0.0485243 0
M  V30 1596 H 148.514 -2.46968 0.732419 0
M  V30 1597 H 148.472 -3.00937 -0.910171 0
M  V30 1598 N 152.244 -1.26651 -0.937939 0
M  V30 1599 C 153.174 -1.10993 -2.05433 0
M  V30 1600 C 154.155 -0.0142161 -1.70094 0
M  V30 1601 O 155.34 -0.186837 -1.93299 0
M  V30 1602 C 152.47 -0.745561 -3.39203 0
M  V30 1603 C 151.424 -1.79337 -3.88616 0
M  V30 1604 C 150.75 -1.28324 -5.19073 0
M  V30 1605 C 152.05 -3.19553 -4.13138 0
M  V30 1606 H 153.744 -2.0438 -2.1879 0
M  V30 1607 H 151.29 -0.984041 -1.05131 0
M  V30 1608 H 153.243 -0.622888 -4.16771 0
M  V30 1609 H 151.967 0.22401 -3.25831 0
M  V30 1610 H 150.626 -1.90477 -3.13231 0
M  V30 1611 H 150.274 -0.303414 -5.02084 0
M  V30 1612 H 149.974 -1.98369 -5.53103 0
M  V30 1613 H 151.498 -1.1733 -5.99221 0
M  V30 1614 H 152.912 -3.11471 -4.81309 0
M  V30 1615 H 151.309 -3.87218 -4.58457 0
M  V30 1616 H 152.379 -3.65368 -3.18801 0
M  V30 1617 N 153.722 1.14298 -1.08507 0
M  V30 1618 C 154.652 2.21542 -0.737646 0
M  V30 1619 C 155.633 1.67773 0.280377 0
M  V30 1620 O 156.818 1.93616 0.150521 0
M  V30 1621 C 153.948 3.46988 -0.147259 0
M  V30 1622 C 152.902 4.13789 -1.09374 0
M  V30 1623 C 152.228 5.33449 -0.365524 0
M  V30 1624 C 153.528 4.62208 -2.4323 0
M  V30 1625 H 155.222 2.5086 -1.6343 0
M  V30 1626 H 152.768 1.20576 -0.787243 0
M  V30 1627 H 154.721 4.21262 0.107808 0
M  V30 1628 H 153.445 3.17037 0.784538 0
M  V30 1629 H 152.104 3.4147 -1.33393 0
M  V30 1630 H 151.752 4.99759 0.57011 0
M  V30 1631 H 151.452 5.79088 -0.996512 0
M  V30 1632 H 152.976 6.10485 -0.118534 0
M  V30 1633 H 154.39 5.27952 -2.23472 0
M  V30 1634 H 152.787 5.18553 -3.02031 0
M  V30 1635 H 153.857 3.77224 -3.04681 0
M  V30 1636 N 155.201 0.870884 1.31352 0
M  V30 1637 C 156.426 0.495957 2.01383 0
M  V30 1638 C 156.851 -0.904324 1.64935 0
M  V30 1639 O 156.209 -1.59687 0.858466 0
M  V30 1640 C 156.257 0.661433 3.54482 0
M  V30 1641 O 155.361 -0.298851 4.11316 0
M  V30 1642 H 154.702 0.197158 0.634054 0
M  V30 1643 H 157.232 1.17455 1.67527 0
M  V30 1644 H 157.242 0.555072 4.04207 0
M  V30 1645 H 155.917 1.68246 3.8035 0
M  V30 1646 H 154.494 -0.147368 3.72609 0
M  V30 1647 N 156.679 -1.44442 0.630414 0
M  V30 1648 C 158.09 -1.85434 0.217063 0
M  V30 1649 C 158.441 -1.52748 -1.23136 0
M  V30 1650 O 157.566 -0.965205 -1.93682 0
M  V30 1651 C 158.161 -3.36581 0.387168 0
M  V30 1652 C 156.72 -3.76389 0.0283297 0
M  V30 1653 C 155.867 -2.68296 0.700889 0
M  V30 1654 H 158.818 -1.34919 0.83562 0
M  V30 1655 H 158.839 -3.78657 -0.374086 0
M  V30 1656 H 158.351 -3.60339 1.44144 0
M  V30 1657 H 156.452 -3.58246 -1.02423 0
M  V30 1658 H 156.565 -4.77095 0.437892 0
M  V30 1659 H 154.929 -2.54335 0.136267 0
M  V30 1660 H 155.712 -2.94887 1.75774 0
M  V30 1661 N 158.157 -0.370918 -1.53173 0
M  V30 1662 C 159.573 -0.0200818 -1.59587 0
M  V30 1663 C 159.773 1.46279 -1.38581 0
M  V30 1664 O 158.829 2.22506 -1.19363 0
M  V30 1665 C 160.142 -0.4808 -2.96831 0
M  V30 1666 C 161.69 -0.435477 -3.09956 0
M  V30 1667 C 162.165 -0.872092 -4.4962 0
M  V30 1668 N 163.656 -0.827364 -4.55751 0
M  V30 1669 C 164.391 -1.13683 -5.62018 0
M  V30 1670 N 163.887 -1.51584 -6.76014 0
M  V30 1671 N 165.68 -1.05927 -5.52029 0
M  V30 1672 H 157.831 -1.33652 -1.65079 0
M  V30 1673 H 160.094 -0.546634 -0.774529 0
M  V30 1674 H 159.8 -1.51577 -3.1736 0
M  V30 1675 H 159.674 0.129796 -3.76977 0
M  V30 1676 H 162.061 0.590371 -2.89134 0
M  V30 1677 H 162.142 -1.08164 -2.31806 0
M  V30 1678 H 161.786 -1.89608 -4.71181 0
M  V30 1679 H 161.716 -0.203127 -5.26208 0
M  V30 1680 H 164.207 -0.548216 -3.73902 0
M  V30 1681 H 164.52 -1.73609 -7.53047 0
M  V30 1682 H 162.865 -1.55454 -6.77391 0
M  V30 1683 H 166.056 -0.762321 -4.61851 0
M  V30 1684 H 166.229 -1.30378 -6.34749 0
M  V30 1685 N 159.635 1.57281 -0.100228 0
M  V30 1686 C 160.545 2.17833 0.870965 0
M  V30 1687 C 161.561 1.14921 1.30649 0
M  V30 1688 O 162.737 1.47313 1.37335 0
M  V30 1689 C 159.802 2.75085 2.1102 0
M  V30 1690 C 158.863 3.9297 1.72838 0
M  V30 1691 C 158.096 4.47482 2.90854 0
M  V30 1692 O 158.319 4.00922 4.05731 0
M  V30 1693 O 157.253 5.38433 2.69023 0
M  V30 1694 H 161.079 3.0124 0.38575 0
M  V30 1695 H 158.664 1.48881 0.124397 0
M  V30 1696 H 160.546 3.11656 2.83634 0
M  V30 1697 H 159.221 1.94721 2.58584 0
M  V30 1698 H 158.128 3.61201 0.973883 0
M  V30 1699 H 159.461 4.74713 1.30033 0
M  V30 1700 N 161.113 -0.173488 1.56642 0
M  V30 1701 C 162.341 -0.906095 1.86004 0
M  V30 1702 C 162.756 -1.75921 0.685355 0
M  V30 1703 O 162.113 -1.79198 -0.345578 0
M  V30 1704 C 162.164 -1.78462 3.14378 0
M  V30 1705 O 161.885 -0.965914 4.27319 0
M  V30 1706 C 163.386 -2.62707 3.57071 0
M  V30 1707 H 160.606 -0.263341 0.617165 0
M  V30 1708 H 163.15 -0.174236 2.03756 0
M  V30 1709 H 161.305 -2.46984 2.98459 0
M  V30 1710 H 161.719 -1.56655 5.00559 0
M  V30 1711 H 163.193 -3.19969 4.49804 0
M  V30 1712 H 163.67 -3.37472 2.81086 0
M  V30 1713 H 164.276 -1.99521 3.75595 0
M  V30 1714 N 162.591 -1.51276 -0.441967 0
M  V30 1715 C 164.007 -1.39349 -0.778083 0
M  V30 1716 C 164.207 -0.472212 -1.95889 0
M  V30 1717 O 163.263 0.0743551 -2.5239 0
M  V30 1718 C 164.576 -2.81292 -1.0628 0
M  V30 1719 C 166.124 -2.9041 -1.16751 0
M  V30 1720 C 166.599 -4.33251 -1.48519 0
M  V30 1721 N 168.09 -4.36336 -1.55453 0
M  V30 1722 C 168.825 -5.43885 -1.81596 0
M  V30 1723 N 168.321 -6.61601 -2.05562 0
M  V30 1724 N 170.114 -5.3136 -1.8334 0
M  V30 1725 H 162.265 -2.09729 0.335774 0
M  V30 1726 H 164.528 -0.943925 0.0878028 0
M  V30 1727 H 164.234 -3.50678 -0.267905 0
M  V30 1728 H 164.108 -3.20334 -1.99163 0
M  V30 1729 H 166.495 -2.21225 -1.95304 0
M  V30 1730 H 166.576 -2.54871 -0.217801 0
M  V30 1731 H 166.22 -5.02984 -0.704958 0
M  V30 1732 H 166.15 -4.66299 -2.44689 0
M  V30 1733 H 168.641 -3.51466 -1.38853 0
M  V30 1734 H 168.954 -7.39361 -2.24867 0
M  V30 1735 H 167.299 -6.64725 -2.02894 0
M  V30 1736 H 170.49 -4.38382 -1.64132 0
M  V30 1737 H 170.663 -6.15258 -2.03377 0
M  V30 1738 N 164.069 0.697108 -1.41344 0
M  V30 1739 C 165.485 1.00751 -1.2378 0
M  V30 1740 C 165.685 2.01105 -0.126066 0
M  V30 1741 O 164.741 2.47295 0.51004 0
M  V30 1742 C 166.054 1.53359 -2.58653 0
M  V30 1743 C 167.602 1.6525 -2.65822 0
M  V30 1744 C 168.077 2.2126 -4.01009 0
M  V30 1745 N 169.568 2.28622 -4.02847 0
M  V30 1746 C 170.303 2.72984 -5.04249 0
M  V30 1747 N 169.799 3.16962 -6.16041 0
M  V30 1748 N 171.592 2.72534 -4.91611 0
M  V30 1749 H 163.743 0.0322662 -2.12375 0
M  V30 1750 H 166.006 0.0768853 -0.944877 0
M  V30 1751 H 165.712 0.870773 -3.4075 0
M  V30 1752 H 165.586 2.51597 -2.81032 0
M  V30 1753 H 167.973 2.30644 -1.84086 0
M  V30 1754 H 168.054 0.655614 -2.47256 0
M  V30 1755 H 167.698 1.56482 -4.83193 0
M  V30 1756 H 167.628 3.21698 -4.16915 0
M  V30 1757 H 170.119 1.97585 -3.22131 0
M  V30 1758 H 170.432 3.49434 -6.89287 0
M  V30 1759 H 168.777 3.14875 -6.1958 0
M  V30 1760 H 171.968 2.37525 -4.0336 0
M  V30 1761 H 172.141 3.06789 -5.70775 0
M  V30 1762 N 165.547 1.27147 0.931209 0
M  V30 1763 C 166.51 1.09615 2.01289 0
M  V30 1764 C 167.51 0.0412581 1.60747 0
M  V30 1765 O 168.7 0.285545 1.71844 0
M  V30 1766 C 165.832 0.669447 3.34262 0
M  V30 1767 H 167.025 2.05662 2.18273 0
M  V30 1768 H 164.578 1.09885 1.11153 0
M  V30 1769 H 165.313 -0.292572 3.22978 0
M  V30 1770 H 165.098 1.43127 3.65044 0
M  V30 1771 H 166.588 0.568921 4.13706 0
M  V30 1772 N 167.025 -1.13721 1.09112 0
M  V30 1773 C 167.955 -2.21148 0.749385 0
M  V30 1774 C 168.936 -1.6792 -0.271475 0
M  V30 1775 O 170.121 -1.93693 -0.140251 0
M  V30 1776 C 167.251 -3.46905 0.165659 0
M  V30 1777 C 166.205 -4.13203 1.11567 0
M  V30 1778 C 165.531 -5.33248 0.393809 0
M  V30 1779 C 166.831 -4.60912 2.45678 0
M  V30 1780 H 168.525 -2.4999 1.64758 0
M  V30 1781 H 166.071 -1.20156 0.793626 0
M  V30 1782 H 168.024 -4.21313 -0.085466 0
M  V30 1783 H 166.748 -3.17449 -0.767714 0
M  V30 1784 H 165.407 -3.40758 1.35202 0
M  V30 1785 H 165.055 -5.00054 -0.543599 0
M  V30 1786 H 164.755 -5.78552 1.02721 0
M  V30 1787 H 166.279 -6.10413 0.150908 0
M  V30 1788 H 167.693 -5.26759 2.26269 0
M  V30 1789 H 166.09 -5.16944 3.04776 0
M  V30 1790 H 167.16 -3.75603 3.06677 0
M  V30 1791 N 168.503 -0.877838 -1.30888 0
M  V30 1792 C 169.466 -0.344265 -2.266 0
M  V30 1793 C 170.466 0.50922 -1.52524 0
M  V30 1794 O 171.656 0.317398 -1.71284 0
M  V30 1795 C 168.788 0.510198 -3.37061 0
M  V30 1796 H 169.981 -1.1893 -2.7531 0
M  V30 1797 H 167.534 -0.654088 -1.41956 0
M  V30 1798 H 168.269 1.37612 -2.93655 0
M  V30 1799 H 168.054 -0.101047 -3.9197 0
M  V30 1800 H 169.544 0.875537 -4.08319 0
M  V30 1801 N 169.982 1.44106 -0.638065 0
M  V30 1802 C 170.945 2.29138 0.0531013 0
M  V30 1803 C 171.945 1.41409 0.765506 0
M  V30 1804 O 173.135 1.63206 0.609046 0
M  V30 1805 C 170.267 3.23144 1.08584 0
M  V30 1806 H 171.46 2.91739 -0.694883 0
M  V30 1807 H 169.013 1.51134 -0.398538 0
M  V30 1808 H 169.748 2.65408 1.86357 0
M  V30 1809 H 169.533 3.87804 0.578852 0
M  V30 1810 H 171.023 3.87004 1.56899 0
M  V30 1811 N 171.46 0.379036 1.52974 0
M  V30 1812 C 172.423 -0.448865 2.24762 0
M  V30 1813 C 173.423 -0.998689 1.26027 0
M  V30 1814 O 174.613 -0.882313 1.50203 0
M  V30 1815 C 171.745 -1.62872 2.99476 0
M  V30 1816 H 172.938 0.179491 2.99362 0
M  V30 1817 H 170.491 0.13096 1.5575 0
M  V30 1818 H 171.226 -2.29479 2.29151 0
M  V30 1819 H 171.011 -1.24128 3.71934 0
M  V30 1820 H 172.501 -2.2151 3.5401 0
M  V30 1821 N 172.938 -1.57226 0.108567 0
M  V30 1822 C 174.185 -1.94833 -0.551943 0
M  V30 1823 C 174.513 -0.991204 -1.67348 0
M  V30 1824 O 173.768 -0.0131878 -1.95696 0
M  V30 1825 C 174.067 -3.38911 -1.13463 0
M  V30 1826 C 173.733 -4.50696 -0.135509 0
M  V30 1827 C 172.395 -4.80998 0.139252 0
M  V30 1828 C 174.747 -5.18333 0.545957 0
M  V30 1829 C 172.075 -5.76259 1.10194 0
M  V30 1830 C 174.427 -6.14627 1.49721 0
M  V30 1831 C 173.091 -6.43327 1.78006 0
M  V30 1832 H 172.361 -0.712944 -0.20197 0
M  V30 1833 H 175.008 -1.90582 0.18726 0
M  V30 1834 H 173.313 -3.39805 -1.95037 0
M  V30 1835 H 175.01 -3.65317 -1.65362 0
M  V30 1836 H 171.6 -4.27087 -0.359846 0
M  V30 1837 H 175.784 -4.95087 0.346842 0
M  V30 1838 H 171.04 -5.96804 1.32795 0
M  V30 1839 H 175.214 -6.66126 2.03099 0
M  V30 1840 H 172.841 -7.1695 2.52759 0
M  V30 1841 N 174.416 0.165178 -1.56732 0
M  V30 1842 C 175.832 0.517174 -1.50988 0
M  V30 1843 C 176.032 1.84331 -0.813894 0
M  V30 1844 O 175.088 2.49672 -0.37682 0
M  V30 1845 C 176.401 0.544261 -2.95733 0
M  V30 1846 C 177.949 0.631039 -3.06573 0
M  V30 1847 C 178.424 0.68896 -4.52788 0
M  V30 1848 N 179.915 0.751683 -4.5706 0
M  V30 1849 C 180.65 0.817177 -5.67547 0
M  V30 1850 N 180.146 0.843129 -6.8765 0
M  V30 1851 N 181.939 0.856668 -5.55534 0
M  V30 1852 H 174.09 -0.704318 -2.00382 0
M  V30 1853 H 176.353 -0.254687 -0.913148 0
M  V30 1854 H 176.059 -0.361607 -3.49836 0
M  V30 1855 H 175.933 1.3886 -3.5071 0
M  V30 1856 H 178.32 1.52733 -2.52501 0
M  V30 1857 H 178.401 -0.240095 -2.54671 0
M  V30 1858 H 178.045 -0.2031 -5.07494 0
M  V30 1859 H 177.975 1.57633 -5.02454 0
M  V30 1860 H 180.466 0.739661 -3.70591 0
M  V30 1861 H 180.779 0.894448 -7.67606 0
M  V30 1862 H 179.124 0.811304 -6.90248 0
M  V30 1863 H 182.315 0.833437 -4.60621 0
M  V30 1864 H 182.488 0.904247 -6.4166 0
M  V30 1865 N 175.894 1.51508 0.433938 0
M  V30 1866 C 176.827 1.67756 1.54704 0
M  V30 1867 C 177.805 0.525127 1.53887 0
M  V30 1868 O 178.989 0.749393 1.72963 0
M  V30 1869 C 176.116 1.69424 2.9328 0
M  V30 1870 C 175.162 2.90673 3.12108 0
M  V30 1871 S 175.995 4.51431 2.88046 0
M  V30 1872 C 177.151 4.55849 4.28897 0
M  V30 1873 H 177.384 2.61904 1.40689 0
M  V30 1874 H 174.917 1.41235 0.62386 0
M  V30 1875 H 176.875 1.7107 3.73156 0
M  V30 1876 H 175.536 0.764464 3.04655 0
M  V30 1877 H 174.729 2.88251 4.13434 0
M  V30 1878 H 174.331 2.86786 2.40062 0
M  V30 1879 H 176.623 4.31699 5.22152 0
M  V30 1880 H 177.566 5.57676 4.36351 0
M  V30 1881 H 177.974 3.85137 4.12711 0
M  V30 1882 N 177.372 -0.689602 1.41712 0
M  V30 1883 C 178.618 -1.45041 1.42599 0
M  V30 1884 C 178.973 -1.92366 0.0363764 0
M  V30 1885 O 178.266 -1.67022 -0.938844 0
M  V30 1886 C 178.46 -2.67298 2.37247 0
M  V30 1887 C 178.289 -2.31935 3.85274 0
M  V30 1888 C 177.059 -2.2201 4.53916 0
M  V30 1889 C 179.257 -1.94526 4.76093 0
M  V30 1890 N 177.239 -1.79594 5.87043 0
M  V30 1891 C 178.61 -1.62915 5.98213 0
M  V30 1892 C 180.665 -1.81388 4.63684 0
M  V30 1893 C 179.368 -1.19486 7.09306 0
M  V30 1894 C 181.394 -1.39364 5.74745 0
M  V30 1895 C 180.756 -1.08668 6.95967 0
M  V30 1896 H 176.855 -0.527806 0.577014 0
M  V30 1897 H 179.439 -0.797266 1.77628 0
M  V30 1898 H 177.61 -3.30325 2.04304 0
M  V30 1899 H 179.342 -3.33806 2.28814 0
M  V30 1900 H 176.097 -2.406 4.07932 0
M  V30 1901 H 176.521 -1.60851 6.57614 0
M  V30 1902 H 181.163 -2.03772 3.70455 0
M  V30 1903 H 178.881 -0.958477 8.02396 0
M  V30 1904 H 182.467 -1.2974 5.6715 0
M  V30 1905 H 181.347 -0.766417 7.80446 0
M  V30 1906 N 178.85 -1.27639 -0.924453 0
M  V30 1907 C 180.075 -1.17101 -1.71179 0
M  V30 1908 C 180.5 0.268134 -1.86179 0
M  V30 1909 O 179.858 1.19415 -1.36418 0
M  V30 1910 C 179.906 -1.86313 -3.08739 0
M  V30 1911 O 179.01 -1.16331 -3.95652 0
M  V30 1912 H 178.351 -0.407091 -0.524569 0
M  V30 1913 H 180.881 -1.68767 -1.15666 0
M  V30 1914 H 180.891 -1.938 -3.59034 0
M  V30 1915 H 179.566 -2.91001 -2.97138 0
M  V30 1916 H 178.143 -1.16935 -3.54091 0
M  V30 1917 N 180.328 1.1314 -1.09713 0
M  V30 1918 C 181.605 1.80762 -0.747302 0
M  V30 1919 C 181.985 1.96663 0.767265 0
M  V30 1920 O 181.333 1.53706 1.69076 0
M  V30 1921 C 181.543 3.15606 -1.48975 0
M  V30 1922 C 182.891 3.90914 -1.65746 0
M  V30 1923 O 183.915 3.25239 -1.45251 0
M  V30 1924 O 182.774 5.08718 -1.9967 0
M  V30 1925 H 179.868 0.782103 -0.268782 0
M  V30 1926 H 182.414 1.20041 -1.19951 0
M  V30 1927 H 181.186 2.99278 -2.52088 0
M  V30 1928 H 180.809 3.84029 -1.02991 0
M  V30 1929 N 181.806 0.884767 1.30421 0
M  V30 1930 C 183.052 0.503851 1.96441 0
M  V30 1931 C 183.385 -0.944518 1.69684 0
M  V30 1932 O 182.66 -1.66737 1.00145 0
M  V30 1933 C 182.943 0.779085 3.51571 0
M  V30 1934 C 182.796 2.27807 3.87846 0
M  V30 1935 C 184.115 0.255452 4.39358 0
M  V30 1936 H 181.234 0.184533 0.713524 0
M  V30 1937 H 183.876 1.10872 1.54297 0
M  V30 1938 H 182.026 0.264274 3.876 0
M  V30 1939 H 183.698 2.86127 3.61841 0
M  V30 1940 H 181.941 2.74479 3.35922 0
M  V30 1941 H 182.612 2.42125 4.96064 0
M  V30 1942 H 185.088 0.696079 4.10236 0
M  V30 1943 H 183.964 0.477361 5.4682 0
M  V30 1944 H 184.225 -0.843293 4.33983 0
M  V30 1945 N 183.284 -1.43765 0.645699 0
M  V30 1946 C 184.509 -2.06767 0.161883 0
M  V30 1947 C 184.934 -1.48034 -1.16049 0
M  V30 1948 O 184.292 -0.587369 -1.71522 0
M  V30 1949 C 184.34 -3.60519 0.0762003 0
M  V30 1950 O 183.444 -4.00982 -0.963721 0
M  V30 1951 H 182.785 -0.657675 0.091429 0
M  V30 1952 H 185.315 -1.84397 0.886499 0
M  V30 1953 H 185.325 -4.07853 -0.109604 0
M  V30 1954 H 184 -4.02646 1.04157 0
M  V30 1955 H 182.577 -3.65253 -0.751312 0
M  V30 1956 N 184.763 -0.387143 -1.52771 0
M  V30 1957 C 186.174 0.0873634 -1.86495 0
M  V30 1958 C 186.525 1.46336 -1.30691 0
M  V30 1959 O 185.65 2.068 -0.637409 0
M  V30 1960 C 186.245 0.165305 -3.38396 0
M  V30 1961 C 184.804 0.584101 -3.7184 0
M  V30 1962 C 183.951 -0.255279 -2.76122 0
M  V30 1963 H 186.902 -0.605104 -1.46711 0
M  V30 1964 H 186.923 0.984848 -3.67534 0
M  V30 1965 H 186.435 -0.836301 -3.78982 0
M  V30 1966 H 184.536 1.59315 -3.36823 0
M  V30 1967 H 184.649 0.343749 -4.77865 0
M  V30 1968 H 183.013 0.279126 -2.53166 0
M  V30 1969 H 183.796 -1.25482 -3.19545 0
M  V30 1970 N 186.241 1.57166 -0.116904 0
M  V30 1971 C 187.488 1.95123 0.541603 0
M  V30 1972 C 187.816 1.00006 1.6682 0
M  V30 1973 O 187.071 0.0235658 1.95686 0
M  V30 1974 C 187.37 3.39508 1.11664 0
M  V30 1975 C 187.036 4.50762 0.111606 0
M  V30 1976 C 185.698 4.80918 -0.164758 0
M  V30 1977 C 188.05 5.18036 -0.573438 0
M  V30 1978 C 185.378 5.75666 -1.13249 0
M  V30 1979 C 187.73 6.13824 -1.52978 0
M  V30 1980 C 186.394 6.42374 -1.81415 0
M  V30 1981 H 185.664 0.714005 0.198187 0
M  V30 1982 H 188.311 1.9048 -0.197365 0
M  V30 1983 H 186.616 3.40835 1.93232 0
M  V30 1984 H 188.313 3.66189 1.63422 0
M  V30 1985 H 184.903 4.27272 0.337192 0
M  V30 1986 H 189.087 4.94896 -0.373092 0
M  V30 1987 H 184.343 5.96092 -1.35958 0
M  V30 1988 H 188.517 6.65039 -2.06629 0
M  V30 1989 H 186.144 7.15599 -2.56557 0
M  V30 1990 N 187.719 -0.156864 1.56817 0
M  V30 1991 C 188.944 -0.890331 1.87318 0
M  V30 1992 C 189.369 -1.74394 0.704855 0
M  V30 1993 O 188.727 -1.77972 -0.345786 0
M  V30 1994 C 188.775 -1.73102 3.16336 0
M  V30 1995 O 187.879 -2.83422 2.99576 0
M  V30 1996 H 187.22 -0.24857 0.615718 0
M  V30 1997 H 189.75 -0.150649 2.04045 0
M  V30 1998 H 189.76 -2.12803 3.48107 0
M  V30 1999 H 188.435 -1.10412 4.00976 0
M  V30 2000 H 187.012 -2.47199 2.7919 0
M  V30 2001 N 189.197 -1.51736 -0.425897 0
M  V30 2002 C 190.444 -1.6497 -1.17436 0
M  V30 2003 C 190.772 -0.371445 -1.9092 0
M  V30 2004 O 190.027 0.644963 -1.84767 0
M  V30 2005 C 190.326 -2.81103 -2.20717 0
M  V30 2006 C 189.992 -4.19954 -1.64162 0
M  V30 2007 C 188.654 -4.57725 -1.48462 0
M  V30 2008 C 191.006 -5.06552 -1.22696 0
M  V30 2009 C 188.334 -5.79789 -0.897873 0
M  V30 2010 C 190.686 -6.29205 -0.654464 0
M  V30 2011 C 189.35 -6.6574 -0.484456 0
M  V30 2012 H 188.62 -0.603668 -0.429727 0
M  V30 2013 H 191.267 -1.85798 -0.463829 0
M  V30 2014 H 189.572 -2.54542 -2.97852 0
M  V30 2015 H 191.269 -2.8854 -2.78471 0
M  V30 2016 H 187.859 -3.90181 -1.77361 0
M  V30 2017 H 192.043 -4.77968 -1.33642 0
M  V30 2018 H 187.299 -6.06733 -0.75402 0
M  V30 2019 H 191.473 -6.95643 -0.324694 0
M  V30 2020 H 189.1 -7.60195 -0.0276833 0
M  V30 2021 N 190.675 0.682077 -1.42076 0
M  V30 2022 C 192.091 0.994324 -1.24841 0
M  V30 2023 C 192.291 2.0096 -0.147389 0
M  V30 2024 O 191.347 2.47822 0.483782 0
M  V30 2025 C 192.66 1.50607 -2.60265 0
M  V30 2026 C 194.208 1.62421 -2.6756 0
M  V30 2027 C 194.683 2.16994 -4.03333 0
M  V30 2028 N 196.174 2.24337 -4.0525 0
M  V30 2029 C 196.909 2.67621 -5.07116 0
M  V30 2030 N 196.405 3.1041 -6.19368 0
M  V30 2031 N 198.198 2.67305 -4.94474 0
M  V30 2032 H 190.349 0.00973908 -2.12398 0
M  V30 2033 H 192.612 0.0668593 -0.945639 0
M  V30 2034 H 192.318 0.834583 -3.41654 0
M  V30 2035 H 192.192 2.48602 -2.83684 0
M  V30 2036 H 194.579 2.28678 -1.86521 0
M  V30 2037 H 194.66 0.629352 -2.47937 0
M  V30 2038 H 194.304 1.51349 -4.84826 0
M  V30 2039 H 194.234 3.17258 -4.20304 0
M  V30 2040 H 196.725 1.94158 -3.24209 0
M  V30 2041 H 197.038 3.42103 -6.92954 0
M  V30 2042 H 195.383 3.08286 -6.22884 0
M  V30 2043 H 198.574 2.33233 -4.05857 0
M  V30 2044 H 198.747 3.00718 -5.73997 0
M  V30 2045 N 192.153 1.28127 0.917671 0
M  V30 2046 C 193.063 1.13556 2.05286 0
M  V30 2047 C 194.079 0.0630914 1.73886 0
M  V30 2048 O 195.255 0.271598 1.9956 0
M  V30 2049 C 192.32 0.794676 3.3747 0
M  V30 2050 C 191.381 1.94909 3.82504 0
M  V30 2051 C 190.614 1.62437 5.0838 0
M  V30 2052 O 190.837 0.536905 5.67867 0
M  V30 2053 O 189.771 2.46677 5.4903 0
M  V30 2054 H 193.597 2.08844 2.20495 0
M  V30 2055 H 191.182 1.07409 1.03845 0
M  V30 2056 H 193.064 0.618344 4.16839 0
M  V30 2057 H 191.739 -0.128581 3.23445 0
M  V30 2058 H 190.646 2.18055 3.03978 0
M  V30 2059 H 191.979 2.85291 4.01086 0
M  V30 2060 N 193.631 -1.12557 1.10312 0
M  V30 2061 C 194.877 -1.84311 0.846011 0
M  V30 2062 C 195.21 -1.83805 -0.626859 0
M  V30 2063 O 194.485 -1.28268 -1.46211 0
M  V30 2064 C 194.768 -3.32048 1.39341 0
M  V30 2065 C 194.621 -3.41016 2.93305 0
M  V30 2066 C 195.94 -4.27764 1.03468 0
M  V30 2067 H 193.059 -0.669192 0.30879 0
M  V30 2068 H 195.701 -1.32057 1.36605 0
M  V30 2069 H 193.851 -3.76678 0.951087 0
M  V30 2070 H 195.523 -3.05031 3.46055 0
M  V30 2071 H 193.766 -2.81603 3.29973 0
M  V30 2072 H 194.437 -4.44948 3.26689 0
M  V30 2073 H 196.913 -3.91253 1.41633 0
M  V30 2074 H 195.789 -5.29549 1.44463 0
M  V30 2075 H 196.05 -4.42064 -0.0560404 0
M  V30 2076 N 195.109 -0.891671 -1.2995 0
M  V30 2077 C 196.072 -0.36828 -2.26222 0
M  V30 2078 C 197.072 0.493014 -1.53056 0
M  V30 2079 O 198.262 0.299213 -1.71611 0
M  V30 2080 C 195.394 0.47442 -3.37583 0
M  V30 2081 H 196.587 -1.21844 -2.74033 0
M  V30 2082 H 194.14 -0.669107 -1.41254 0
M  V30 2083 H 194.875 1.34489 -2.95099 0
M  V30 2084 H 194.66 -0.142615 -3.91841 0
M  V30 2085 H 196.15 0.83218 -4.09224 0
M  V30 2086 N 196.587 1.43421 -0.653314 0
M  V30 2087 C 197.998 1.85065 -0.246537 0
M  V30 2088 C 198.349 1.54688 1.2069 0
M  V30 2089 O 197.474 0.995896 1.92122 0
M  V30 2090 C 198.069 3.35922 -0.440666 0
M  V30 2091 C 196.628 3.76297 -0.0882064 0
M  V30 2092 C 195.775 2.67147 -0.743484 0
M  V30 2093 H 198.726 1.33572 -0.856979 0
M  V30 2094 H 198.747 3.79204 0.313798 0
M  V30 2095 H 198.259 3.58 -1.49858 0
M  V30 2096 H 196.36 3.5983 0.96711 0
M  V30 2097 H 196.473 4.76338 -0.513738 0
M  V30 2098 H 194.837 2.54086 -0.176712 0
M  V30 2099 H 195.62 2.92053 -1.80443 0
M  V30 2100 N 198.065 0.39524 1.52563 0
M  V30 2101 C 198.975 -0.444232 2.30356 0
M  V30 2102 C 199.991 -1.06615 1.37511 0
M  V30 2103 O 201.167 -1.07067 1.70583 0
M  V30 2104 C 198.232 -1.55315 3.09964 0
M  V30 2105 C 197.293 -0.955734 4.18526 0
M  V30 2106 C 196.526 -2.01181 4.9433 0
M  V30 2107 O 196.749 -3.22781 4.70285 0
M  V30 2108 O 195.683 -1.62579 5.79527 0
M  V30 2109 H 199.509 0.189667 3.03107 0
M  V30 2110 H 197.094 0.1588 1.48554 0
M  V30 2111 H 198.976 -2.19724 3.59582 0
M  V30 2112 H 197.651 -2.17191 2.4002 0
M  V30 2113 H 196.558 -0.274743 3.7309 0
M  V30 2114 H 197.891 -0.381109 4.90722 0
M  V30 2115 N 199.544 -1.57102 0.125237 0
M  V30 2116 C 200.476 -2.12726 -0.853237 0
M  V30 2117 C 201.489 -1.07145 -1.22571 0
M  V30 2118 O 202.678 -1.34497 -1.17358 0
M  V30 2119 C 199.778 -2.61709 -2.15317 0
M  V30 2120 C 198.951 -3.91456 -1.95143 0
M  V30 2121 C 198.01 -4.25973 -3.08923 0
M  V30 2122 O 197.036 -4.94682 -2.81564 0
M  V30 2123 N 198.238 -3.83795 -4.35524 0
M  V30 2124 H 201.003 -2.97307 -0.377964 0
M  V30 2125 H 198.564 -1.61792 -0.0590011 0
M  V30 2126 H 200.556 -2.81826 -2.90441 0
M  V30 2127 H 199.126 -1.81974 -2.54174 0
M  V30 2128 H 198.346 -3.80185 -1.04177 0
M  V30 2129 H 199.634 -4.76283 -1.78976 0
M  V30 2130 H 199.032 -3.2839 -4.60626 0
M  V30 2131 H 197.589 -4.09008 -5.07499 0
M  V30 2132 N 201.022 0.148545 -1.56898 0
M  V30 2133 C 202.433 0.708766 -1.72723 0
M  V30 2134 C 202.784 1.81734 -0.739395 0
M  V30 2135 O 201.909 2.16194 0.0943169 0
M  V30 2136 C 202.504 1.29245 -3.13179 0
M  V30 2137 C 201.063 1.79925 -3.30611 0
M  V30 2138 C 200.21 0.687111 -2.68652 0
M  V30 2139 H 203.161 -0.0771063 -1.58513 0
M  V30 2140 H 203.182 2.16224 -3.13093 0
M  V30 2141 H 202.694 0.485382 -3.85053 0
M  V30 2142 H 200.795 2.63203 -2.63732 0
M  V30 2143 H 200.908 1.92903 -4.38549 0
M  V30 2144 H 199.272 1.11335 -2.29078 0
M  V30 2145 H 200.055 -0.108483 -3.43129 0
M  V30 2146 N 202.5 1.5196 0.417844 0
M  V30 2147 C 203.725 1.69717 1.1921 0
M  V30 2148 C 204.15 0.402148 1.83751 0
M  V30 2149 O 203.508 -0.639593 1.69643 0
M  V30 2150 C 203.556 2.82794 2.2374 0
M  V30 2151 O 202.66 2.47756 3.29683 0
M  V30 2152 H 202.001 0.565263 0.348387 0
M  V30 2153 H 204.531 1.98621 0.490985 0
M  V30 2154 H 204.541 3.07452 2.68212 0
M  V30 2155 H 203.216 3.76756 1.76146 0
M  V30 2156 H 201.793 2.33739 2.90552 0
M  V30 2157 N 203.978 -0.674533 1.42435 0
M  V30 2158 C 205.255 -1.4305 1.33402 0
M  V30 2159 C 205.635 -2.11081 -0.0284674 0
M  V30 2160 O 204.983 -2.03257 -1.04397 0
M  V30 2161 C 205.193 -2.43272 2.50239 0
M  V30 2162 C 206.541 -3.07907 2.92367 0
M  V30 2163 O 207.565 -2.53599 2.50132 0
M  V30 2164 O 206.424 -4.0632 3.65467 0
M  V30 2165 H 203.518 -0.638076 0.526106 0
M  V30 2166 H 206.064 -0.703235 1.54443 0
M  V30 2167 H 204.836 -1.91803 3.41068 0
M  V30 2168 H 204.459 -3.23479 2.31186 0
M  V30 2169 N 205.456 -1.28612 -0.910864 0
M  V30 2170 C 206.386 -1.15326 -2.03032 0
M  V30 2171 C 207.367 -0.0502924 -1.70026 0
M  V30 2172 O 208.552 -0.227797 -1.92859 0
M  V30 2173 C 205.682 -0.817343 -3.37545 0
M  V30 2174 C 204.636 -1.8754 -3.84724 0
M  V30 2175 C 203.962 -1.39305 -5.16235 0
M  V30 2176 C 205.262 -3.28244 -4.06267 0
M  V30 2177 H 206.956 -2.08975 -2.14406 0
M  V30 2178 H 204.502 -1.00612 -1.03021 0
M  V30 2179 H 206.455 -0.711151 -4.15356 0
M  V30 2180 H 205.179 0.154846 -3.26233 0
M  V30 2181 H 203.838 -1.97079 -3.09121 0
M  V30 2182 H 203.486 -0.409846 -5.01328 0
M  V30 2183 H 203.186 -2.10057 -5.48771 0
M  V30 2184 H 204.71 -1.30014 -5.96598 0
M  V30 2185 H 206.124 -3.21611 -4.74594 0
M  V30 2186 H 204.521 -3.96855 -4.5014 0
M  V30 2187 H 205.591 -3.72048 -3.10979 0
M  V30 2188 N 206.934 1.1197 -1.10907 0
M  V30 2189 C 208.35 1.35591 -0.841852 0
M  V30 2190 C 208.55 1.94233 0.536246 0
M  V30 2191 O 207.606 2.1717 1.28816 0
M  V30 2192 C 208.919 2.29284 -1.94549 0
M  V30 2193 C 210.467 2.42862 -1.97451 0
M  V30 2194 C 210.942 3.39873 -3.07002 0
M  V30 2195 N 212.433 3.47433 -3.06341 0
M  V30 2196 C 213.168 4.22421 -3.87748 0
M  V30 2197 N 212.664 5.00432 -4.79103 0
M  V30 2198 N 214.457 4.17876 -3.75946 0
M  V30 2199 H 206.608 0.722664 -1.99728 0
M  V30 2200 H 208.871 0.380635 -0.868229 0
M  V30 2201 H 208.577 1.93378 -2.93765 0
M  V30 2202 H 208.451 3.29452 -1.83688 0
M  V30 2203 H 210.838 2.78046 -0.988645 0
M  V30 2204 H 210.919 1.42566 -2.12388 0
M  V30 2205 H 210.563 3.05417 -4.05811 0
M  V30 2206 H 210.493 4.40011 -2.89306 0
M  V30 2207 H 212.984 2.91784 -2.40147 0
M  V30 2208 H 213.297 5.55002 -5.37766 0
M  V30 2209 H 211.642 4.99612 -4.83128 0
M  V30 2210 H 214.833 3.56016 -3.03924 0
M  V30 2211 H 215.006 4.76061 -4.39624 0
M  V30 2212 N 208.412 0.89855 1.29475 0
M  V30 2213 C 209.661 0.519863 1.94885 0
M  V30 2214 C 209.974 -0.9383 1.71625 0
M  V30 2215 O 211.18 -1.42445 2.31131 0
M  V30 2216 C 209.636 0.878836 3.49005 0
M  V30 2217 C 209.244 2.35569 3.81066 0
M  V30 2218 C 210.988 0.570004 4.20656 0
M  V30 2219 C 208.895 2.65558 5.28425 0
M  V30 2220 H 207.825 0.190692 0.729488 0
M  V30 2221 H 210.476 1.09539 1.47219 0
M  V30 2222 H 208.858 0.232253 3.95318 0
M  V30 2223 H 210.032 3.04773 3.45616 0
M  V30 2224 H 208.347 2.63343 3.22552 0
M  V30 2225 H 210.944 0.770925 5.29113 0
M  V30 2226 H 211.287 -0.491404 4.1339 0
M  V30 2227 H 211.82 1.17438 3.8007 0
M  V30 2228 H 208.559 3.70493 5.40754 0
M  V30 2229 H 208.079 2.00977 5.65127 0
M  V30 2230 H 209.758 2.51765 5.96006 0
M  V30 2231 N 209.89 -1.43072 0.660911 0
M  V30 2232 C 211.138 -2.01323 0.177094 0
M  V30 2233 C 211.459 -1.5245 -1.2159 0
M  V30 2234 O 210.729 -0.740322 -1.81373 0
M  V30 2235 H 209.309 -0.744382 0.0624804 0
M  V30 2236 H 211.971 -1.75179 0.854305 0
M  V30 2237 H 211.067 -3.11649 0.167641 0
M  V30 2238 N 211.368 -0.403325 -1.52352 0
M  V30 2239 C 212.615 0.174347 -2.01748 0
M  V30 2240 C 212.943 1.45636 -1.2892 0
M  V30 2241 O 212.198 1.9193 -0.382258 0
M  V30 2242 C 212.497 0.474665 -3.54234 0
M  V30 2243 C 212.163 -0.717458 -4.45155 0
M  V30 2244 C 210.825 -1.04447 -4.69728 0
M  V30 2245 C 213.177 -1.51432 -4.98716 0
M  V30 2246 C 210.505 -2.16963 -5.45109 0
M  V30 2247 C 212.857 -2.6302 -5.75329 0
M  V30 2248 C 211.521 -2.96213 -5.98175 0
M  V30 2249 H 210.791 0.0637981 -0.738248 0
M  V30 2250 H 213.438 -0.543553 -1.83624 0
M  V30 2251 H 211.743 1.27406 -3.70506 0
M  V30 2252 H 213.44 0.934496 -3.89959 0
M  V30 2253 H 210.03 -0.452596 -4.26204 0
M  V30 2254 H 214.214 -1.27491 -4.79645 0
M  V30 2255 H 209.47 -2.43034 -5.61021 0
M  V30 2256 H 213.644 -3.25158 -6.15829 0
M  V30 2257 H 211.271 -3.83516 -6.56368 0
M  V30 2258 N 212.846 1.57033 -0.133567 0
M  V30 2259 C 214.076 1.99754 0.527429 0
M  V30 2260 C 214.484 1.01245 1.59832 0
M  V30 2261 O 213.827 -0.000645496 1.837 0
M  V30 2262 C 213.889 3.38903 1.19939 0
M  V30 2263 C 213.553 4.56174 0.274709 0
M  V30 2264 C 214.55 5.17563 -0.492398 0
M  V30 2265 C 212.235 5.01972 0.18153 0
M  V30 2266 C 214.229 6.2315 -1.34027 0
M  V30 2267 C 211.916 6.07416 -0.669958 0
M  V30 2268 C 212.914 6.67874 -1.42947 0
M  V30 2269 O 212.602 7.71279 -2.2668 0
M  V30 2270 H 212.334 0.660702 0.142999 0
M  V30 2271 H 214.888 2.04207 -0.221099 0
M  V30 2272 H 213.118 3.31248 1.99528 0
M  V30 2273 H 214.807 3.65818 1.75875 0
M  V30 2274 H 215.573 4.83087 -0.430367 0
M  V30 2275 H 211.452 4.54652 0.762422 0
M  V30 2276 H 214.996 6.70268 -1.93357 0
M  V30 2277 H 210.893 6.41321 -0.73333 0
M  V30 2278 H 211.661 7.88441 -2.1978 0
M  V30 2279 N 214.325 -0.140222 1.56975 0
M  V30 2280 C 215.736 -0.699596 1.73097 0
M  V30 2281 C 216.087 -1.8134 0.749022 0
M  V30 2282 O 215.212 -2.16241 -0.0828503 0
M  V30 2283 C 215.807 -1.27582 3.1386 0
M  V30 2284 C 214.366 -1.78169 3.31561 0
M  V30 2285 C 213.513 -0.672855 2.69013 0
M  V30 2286 H 216.464 0.0855115 1.58469 0
M  V30 2287 H 216.485 -2.14561 3.14235 0
M  V30 2288 H 215.997 -0.464955 3.85305 0
M  V30 2289 H 214.098 -2.61801 2.65124 0
M  V30 2290 H 214.211 -1.90574 4.39566 0
M  V30 2291 H 212.575 -1.10118 2.29665 0
M  V30 2292 H 213.358 0.126679 3.43066 0
M  V30 2293 N 215.803 -1.52179 -0.40978 0
M  V30 2294 C 217.052 -1.65434 -1.15388 0
M  V30 2295 C 217.365 -0.390056 -1.91671 0
M  V30 2296 O 218.571 -0.402399 -2.68501 0
M  V30 2297 C 217.027 -2.92279 -2.10003 0
M  V30 2298 C 216.635 -4.25813 -1.39239 0
M  V30 2299 C 218.379 -3.14897 -2.84675 0
M  V30 2300 C 216.286 -5.43782 -2.32498 0
M  V30 2301 H 215.216 -0.616267 -0.434432 0
M  V30 2302 H 217.867 -1.78666 -0.418401 0
M  V30 2303 H 216.249 -2.72744 -2.871 0
M  V30 2304 H 217.423 -4.55828 -0.675099 0
M  V30 2305 H 215.738 -4.09292 -0.766097 0
M  V30 2306 H 218.335 -4.0021 -3.54593 0
M  V30 2307 H 218.678 -2.29103 -3.47588 0
M  V30 2308 H 219.211 -3.34901 -2.14677 0
M  V30 2309 H 215.95 -6.3192 -1.74233 0
M  V30 2310 H 215.47 -5.18106 -3.02201 0
M  V30 2311 H 217.149 -5.76834 -2.93038 0
M  V30 2312 N 217.281 0.66697 -1.42791 0
M  V30 2313 C 218.229 1.80157 -1.47127 0
M  V30 2314 C 219.223 1.65825 -0.346199 0
M  V30 2315 O 220.429 1.72338 -0.519572 0
M  V30 2316 H 216.804 0.594158 -0.460956 0
M  V30 2317 H 218.775 1.73619 -2.42692 0
M  V30 2318 C 217.524 3.18351 -1.39813 0
M  V30 2319 H 216.847 3.3001 -2.25684 0
M  V30 2320 H 218.287 3.97736 -1.46908 0
M  V30 2321 C 216.746 3.36707 -0.11391 0
M  V30 2322 O 217.276 3.93027 0.830241 0
M  V30 2323 N 215.482 2.90586 -0.0285295 0
M  V30 2324 H 215.029 2.4494 -0.79764 0
M  V30 2325 H 214.987 3.03245 0.830063 0
M  V30 2326 N 218.759 1.29093 0.90403 0
M  V30 2327 C 219.709 1.10482 1.99443 0
M  V30 2328 C 220.693 0.0255401 1.6088 0
M  V30 2329 O 221.885 0.24677 1.75271 0
M  V30 2330 C 219.014 0.778882 3.34348 0
M  V30 2331 C 218.1 1.89749 3.79284 0
M  V30 2332 N 218.491 3.14045 3.96497 0
M  V30 2333 C 216.789 1.78955 4.08523 0
M  V30 2334 C 217.49 3.86996 4.34292 0
M  V30 2335 N 216.466 3.14909 4.43095 0
M  V30 2336 H 220.268 2.04778 2.10815 0
M  V30 2337 H 217.782 1.20155 1.09255 0
M  V30 2338 H 219.779 0.62661 4.12164 0
M  V30 2339 H 218.439 -0.156205 3.24324 0
M  V30 2340 H 219.45 3.49548 3.82148 0
M  V30 2341 H 216.127 0.926886 4.07081 0
M  V30 2342 H 217.517 4.93941 4.55491 0
M  V30 2343 N 220.237 -1.11381 1.11499 0
M  V30 2344 C 221.465 -1.86934 0.88675 0
M  V30 2345 C 221.88 -1.80195 -0.563476 0
M  V30 2346 O 221.237 -1.18367 -1.38908 0
M  V30 2347 C 221.288 -3.35722 1.34064 0
M  V30 2348 O 221.009 -3.4232 2.73401 0
M  V30 2349 C 222.51 -4.2818 1.14791 0
M  V30 2350 H 219.73 -0.591117 0.317523 0
M  V30 2351 H 222.274 -1.40865 1.48248 0
M  V30 2352 H 220.429 -3.79294 0.788355 0
M  V30 2353 H 220.843 -4.34971 2.93087 0
M  V30 2354 H 222.317 -5.30817 1.5145 0
M  V30 2355 H 222.794 -4.39113 0.0875279 0
M  V30 2356 H 223.4 -3.90402 1.68721 0
M  V30 2357 N 221.715 -0.905404 -1.28997 0
M  V30 2358 C 222.992 -0.453513 -1.9027 0
M  V30 2359 C 223.372 1.06721 -1.82137 0
M  V30 2360 O 222.72 1.91159 -1.25182 0
M  V30 2361 C 222.93 -0.974494 -3.35119 0
M  V30 2362 C 224.278 -1.0216 -4.12127 0
M  V30 2363 O 225.302 -0.922557 -3.44046 0
M  V30 2364 O 224.161 -1.17121 -5.33802 0
M  V30 2365 H 221.255 -0.142347 -0.814657 0
M  V30 2366 H 223.801 -0.995642 -1.37423 0
M  V30 2367 H 222.573 -2.01848 -3.35221 0
M  V30 2368 H 222.196 -0.412706 -3.95452 0
M  V30 2369 N 223.193 1.4272 -0.668489 0
M  V30 2370 C 224.433 2.03497 -0.19194 0
M  V30 2371 C 224.797 1.51684 1.17712 0
M  V30 2372 O 225.998 2.04205 1.74796 0
M  V30 2373 C 224.269 3.56734 -0.218032 0
M  V30 2374 S 225.828 4.38395 0.188438 0
M  V30 2375 H 222.646 0.706542 -0.0794959 0
M  V30 2376 H 225.248 1.74563 -0.880235 0
M  V30 2377 H 223.952 3.91943 -1.2169 0
M  V30 2378 H 223.483 3.90333 0.490303 0
M  V30 2379 H 225.498 4.75345 1.42345 0
M  V30 2380 N 224.671 0.411399 1.52136 0
M  V30 2381 C 225.601 -0.404015 2.29978 0
M  V30 2382 C 226.582 -1.04412 1.34284 0
M  V30 2383 O 227.767 -1.0527 1.63192 0
M  V30 2384 C 224.897 -1.5197 3.12286 0
M  V30 2385 C 223.851 -1.00448 4.16046 0
M  V30 2386 C 223.177 -2.21393 4.86712 0
M  V30 2387 C 224.477 -0.0569336 5.22269 0
M  V30 2388 H 226.171 0.245529 2.98392 0
M  V30 2389 H 223.717 0.119525 1.43503 0
M  V30 2390 H 225.67 -2.09715 3.6551 0
M  V30 2391 H 224.394 -2.19716 2.41646 0
M  V30 2392 H 223.053 -0.449421 3.63835 0
M  V30 2393 H 222.701 -2.87699 4.12599 0
M  V30 2394 H 222.401 -1.87571 5.56858 0
M  V30 2395 H 223.925 -2.7974 5.4275 0
M  V30 2396 H 225.339 -0.54325 5.7072 0
M  V30 2397 H 223.736 0.192594 5.99791 0
M  V30 2398 H 224.806 0.887663 4.76706 0
M  V30 2399 N 226.149 -1.5696 0.141893 0
M  V30 2400 C 227.395 -1.9625 -0.511248 0
M  V30 2401 C 227.728 -1.02654 -1.64851 0
M  V30 2402 O 227.003 -0.0679676 -1.94381 0
M  V30 2403 C 227.286 -3.45285 -1.02227 0
M  V30 2404 C 227.139 -4.49658 0.113138 0
M  V30 2405 C 228.458 -3.96698 -1.90574 0
M  V30 2406 H 225.577 -0.713567 -0.184367 0
M  V30 2407 H 228.219 -1.88698 0.222087 0
M  V30 2408 H 226.369 -3.51852 -1.64719 0
M  V30 2409 H 228.041 -4.55174 0.749302 0
M  V30 2410 H 226.284 -4.26857 0.773026 0
M  V30 2411 H 226.955 -5.51258 -0.286053 0
M  V30 2412 H 229.431 -3.92578 -1.37918 0
M  V30 2413 H 228.307 -5.01453 -2.2324 0
M  V30 2414 H 228.568 -3.3875 -2.84079 0
M  V30 2415 N 227.627 0.131896 -1.57047 0
M  V30 2416 C 228.852 0.860418 -1.8871 0
M  V30 2417 C 229.277 1.73251 -0.73251 0
M  V30 2418 O 228.635 1.785 0.317429 0
M  V30 2419 C 228.683 1.68047 -3.19049 0
M  V30 2420 O 227.787 2.7862 -3.04047 0
M  V30 2421 H 227.128 0.238743 -0.619595 0
M  V30 2422 H 229.658 0.118169 -2.04258 0
M  V30 2423 H 229.668 2.07238 -3.51449 0
M  V30 2424 H 228.343 1.04018 -4.02682 0
M  V30 2425 H 226.92 2.42726 -2.83088 0
M  V30 2426 N 229.106 1.52395 0.401703 0
M  V30 2427 C 230.069 1.75636 1.47257 0
M  V30 2428 C 231.069 0.62628 1.48103 0
M  V30 2429 O 232.259 0.894227 1.49497 0
M  V30 2430 C 229.391 1.84553 2.86624 0
M  V30 2431 H 230.584 2.71241 1.27938 0
M  V30 2432 H 228.137 1.42923 0.632662 0
M  V30 2433 H 228.872 0.908882 3.11303 0
M  V30 2434 H 228.657 2.66715 2.87412 0
M  V30 2435 H 230.147 2.04251 3.64241 0
M  V30 2436 N 230.584 -0.659388 1.43143 0
M  V30 2437 C 231.514 -1.78422 1.50625 0
M  V30 2438 C 232.495 -1.66216 0.361443 0
M  V30 2439 O 233.68 -1.85404 0.577834 0
M  V30 2440 C 230.81 -3.16815 1.42287 0
M  V30 2441 C 229.764 -3.43777 2.54954 0
M  V30 2442 C 229.09 -4.81905 2.31671 0
M  V30 2443 C 230.39 -3.39134 3.97222 0
M  V30 2444 H 232.084 -1.72417 2.44771 0
M  V30 2445 H 229.63 -0.828084 1.17808 0
M  V30 2446 H 231.583 -3.95253 1.46127 0
M  V30 2447 H 230.307 -3.23534 0.446435 0
M  V30 2448 H 228.966 -2.67707 2.50457 0
M  V30 2449 H 228.614 -4.85294 1.32284 0
M  V30 2450 H 228.314 -5.00906 3.07192 0
M  V30 2451 H 229.838 -5.62609 2.37284 0
M  V30 2452 H 231.252 -4.07518 4.03239 0
M  V30 2453 H 229.649 -3.69671 4.72719 0
M  V30 2454 H 230.719 -2.37426 4.22797 0
M  V30 2455 N 232.062 -1.29571 -0.897171 0
M  V30 2456 C 233.012 -1.11539 -1.98855 0
M  V30 2457 C 233.996 -0.0340716 -1.60864 0
M  V30 2458 O 235.188 -0.256062 -1.75138 0
M  V30 2459 C 232.317 -0.796603 -3.3393 0
M  V30 2460 C 231.403 -1.91758 -3.78272 0
M  V30 2461 N 231.794 -3.16143 -3.94826 0
M  V30 2462 C 230.092 -1.81119 -4.07568 0
M  V30 2463 C 230.793 -3.89293 -4.32233 0
M  V30 2464 N 229.769 -3.17255 -4.41419 0
M  V30 2465 H 233.571 -2.05894 -2.09726 0
M  V30 2466 H 231.085 -1.20732 -1.08616 0
M  V30 2467 H 233.082 -0.648459 -4.11826 0
M  V30 2468 H 231.742 0.139003 -3.24402 0
M  V30 2469 H 232.753 -3.5157 -3.80288 0
M  V30 2470 H 229.43 -0.948461 -4.06584 0
M  V30 2471 H 230.82 -4.9635 -4.52865 0
M  V30 2472 N 233.54 1.10788 -1.12088 0
M  V30 2473 C 234.49 2.15158 -0.754401 0
M  V30 2474 C 235.474 1.59026 0.244846 0
M  V30 2475 O 236.666 1.76927 0.0509097 0
M  V30 2476 C 233.795 3.42677 -0.206657 0
M  V30 2477 C 232.881 4.05751 -1.23398 0
M  V30 2478 N 233.272 4.43582 -2.43041 0
M  V30 2479 C 231.57 4.32764 -1.07848 0
M  V30 2480 C 232.271 4.93085 -3.08613 0
M  V30 2481 N 231.247 4.89664 -2.36072 0
M  V30 2482 H 235.049 2.42195 -1.6649 0
M  V30 2483 H 232.563 1.27872 -1.00112 0
M  V30 2484 H 234.56 4.16834 0.0740646 0
M  V30 2485 H 233.22 3.17101 0.698342 0
M  V30 2486 H 234.231 4.35395 -2.80449 0
M  V30 2487 H 230.908 4.16863 -0.230483 0
M  V30 2488 H 232.298 5.31933 -4.10483 0
M  V30 2489 N 235.018 0.912232 1.28515 0
M  V30 2490 C 236.258 0.551677 1.96814 0
M  V30 2491 C 236.622 -0.887825 1.7024 0
M  V30 2492 O 237.823 -1.35588 2.32098 0
M  V30 2493 C 236.094 0.850555 3.47132 0
M  V30 2494 S 237.653 0.59619 4.34731 0
M  V30 2495 H 234.471 0.204191 0.681049 0
M  V30 2496 H 237.073 1.17736 1.56072 0
M  V30 2497 H 235.777 1.8962 3.63968 0
M  V30 2498 H 235.308 0.213471 3.9282 0
M  V30 2499 H 237.323 -0.553154 4.93107 0
M  V30 2500 N 236.496 -1.42363 0.676048 0
M  V30 2501 C 237.743 -2.01522 0.19883 0
M  V30 2502 C 238.071 -1.53456 -1.19505 0
M  V30 2503 O 237.326 -0.727967 -1.81657 0
M  V30 2504 C 237.625 -3.56929 0.183431 0
M  V30 2505 C 237.291 -4.24431 1.52215 0
M  V30 2506 C 235.953 -4.42585 1.8887 0
M  V30 2507 C 238.305 -4.62459 2.40377 0
M  V30 2508 C 235.633 -4.96039 3.13309 0
M  V30 2509 C 237.985 -5.17294 3.64129 0
M  V30 2510 C 236.649 -5.33661 4.00951 0
M  V30 2511 H 235.919 -0.737419 0.0727571 0
M  V30 2512 H 238.566 -1.70531 0.871281 0
M  V30 2513 H 236.871 -3.87594 -0.572532 0
M  V30 2514 H 238.568 -4.00486 -0.203035 0
M  V30 2515 H 235.158 -4.10661 1.22701 0
M  V30 2516 H 239.342 -4.48105 2.13343 0
M  V30 2517 H 234.598 -5.06896 3.41857 0
M  V30 2518 H 238.772 -5.45704 4.32644 0
M  V30 2519 H 236.399 -5.74845 4.9745 0
M  V30 2520 N 237.974 -0.419461 -1.51915 0
M  V30 2521 C 239.251 0.211999 -1.94448 0
M  V30 2522 C 239.631 1.61703 -1.35703 0
M  V30 2523 O 238.979 2.22102 -0.536931 0
M  V30 2524 C 239.189 0.207872 -3.4838 0
M  V30 2525 C 240.537 0.422192 -4.22496 0
M  V30 2526 O 241.561 0.286778 -3.55044 0
M  V30 2527 O 240.42 0.690009 -5.42126 0
M  V30 2528 H 237.514 0.139586 -0.815135 0
M  V30 2529 H 240.06 -0.476151 -1.62883 0
M  V30 2530 H 238.832 -0.775102 -3.83546 0
M  V30 2531 H 238.455 0.939688 -3.86336 0
M  V30 2532 N 239.452 1.56882 -0.150215 0
M  V30 2533 C 240.7 1.9584 0.499105 0
M  V30 2534 C 241.021 1.03623 1.65188 0
M  V30 2535 O 240.291 0.0984084 1.95653 0
M  V30 2536 H 238.871 0.723119 0.187373 0
M  V30 2537 H 241.533 1.9358 -0.226466 0
M  V30 2538 H 240.629 2.99638 0.873122 0
M  V30 2539 N 240.93 -0.123565 1.57115 0
M  V30 2540 C 242.341 -0.681198 1.73829 0
M  V30 2541 C 242.692 -1.80535 0.768214 0
M  V30 2542 O 241.817 -2.16317 -0.0599103 0
M  V30 2543 C 242.412 -1.24246 3.15196 0
M  V30 2544 C 240.971 -1.74643 3.33432 0
M  V30 2545 C 240.118 -0.644284 2.69711 0
M  V30 2546 H 243.069 0.102315 1.5837 0
M  V30 2547 H 243.09 -2.11216 3.16493 0
M  V30 2548 H 242.602 -0.424062 3.85776 0
M  V30 2549 H 240.703 -2.58974 2.67886 0
M  V30 2550 H 240.816 -1.85902 4.41562 0
M  V30 2551 H 239.18 -1.07676 2.3082 0
M  V30 2552 H 239.963 0.163058 3.42913 0
M  V30 2553 N 242.408 -1.52605 -0.393616 0
M  V30 2554 C 243.636 -1.71294 -1.16043 0
M  V30 2555 C 244.051 -0.429259 -1.83855 0
M  V30 2556 O 243.408 0.595921 -1.72496 0
M  V30 2557 C 243.459 -2.8593 -2.21193 0
M  V30 2558 O 243.18 -4.09329 -1.56146 0
M  V30 2559 C 244.681 -3.16259 -3.10636 0
M  V30 2560 H 241.901 -0.573641 -0.348104 0
M  V30 2561 H 244.445 -1.99234 -0.461092 0
M  V30 2562 H 242.6 -2.60465 -2.86769 0
M  V30 2563 H 243.014 -4.73323 -2.25978 0
M  V30 2564 H 244.488 -3.99946 -3.80456 0
M  V30 2565 H 244.965 -2.3045 -3.73884 0
M  V30 2566 H 245.571 -3.43547 -2.50711 0
M  V30 2567 N 243.887 0.651787 -1.4349 0
M  V30 2568 C 245.135 1.40888 -1.44897 0
M  V30 2569 C 245.456 1.94856 -0.0749086 0
M  V30 2570 O 244.726 1.74518 0.889956 0
M  V30 2571 H 243.306 0.522887 -0.533478 0
M  V30 2572 H 245.968 0.768609 -1.79104 0
M  V30 2573 H 245.064 2.25052 -2.16236 0
M  V30 2574 N 245.365 1.30045 0.890287 0
M  V30 2575 C 246.275 1.17885 2.02831 0
M  V30 2576 C 247.291 0.0999609 1.73713 0
M  V30 2577 O 248.467 0.313867 1.98939 0
M  V30 2578 C 245.532 0.866079 3.35708 0
M  V30 2579 C 244.593 2.02979 3.78283 0
M  V30 2580 C 243.826 1.73184 5.0482 0
M  V30 2581 O 244.049 0.657237 5.66601 0
M  V30 2582 O 242.983 2.58267 5.43674 0
M  V30 2583 H 246.809 2.13474 2.16015 0
M  V30 2584 H 244.394 1.09587 1.01543 0
M  V30 2585 H 246.276 0.706623 4.15433 0
M  V30 2586 H 244.951 -0.0599443 3.23644 0
M  V30 2587 H 243.858 2.24454 2.99285 0
M  V30 2588 H 245.191 2.93734 3.94944 0
M  V30 2589 N 246.843 -1.10192 1.12674 0
M  V30 2590 C 247.773 -2.18652 0.819362 0
M  V30 2591 C 248.754 -1.68698 -0.217915 0
M  V30 2592 O 249.939 -1.94041 -0.0785581 0
M  V30 2593 C 247.069 -3.46202 0.27594 0
M  V30 2594 C 246.023 -4.09444 1.24656 0
M  V30 2595 C 245.349 -5.31725 0.563258 0
M  V30 2596 C 246.649 -4.52863 2.60217 0
M  V30 2597 H 248.343 -2.44622 1.72628 0
M  V30 2598 H 245.889 -1.17571 0.831451 0
M  V30 2599 H 247.842 -4.21372 0.0486149 0
M  V30 2600 H 246.566 -3.1973 -0.666331 0
M  V30 2601 H 245.225 -3.36284 1.45974 0
M  V30 2602 H 244.873 -5.0153 -0.384235 0
M  V30 2603 H 244.573 -5.74991 1.21075 0
M  V30 2604 H 246.097 -6.09624 0.34503 0
M  V30 2605 H 247.511 -5.19294 2.42913 0
M  V30 2606 H 245.908 -5.06986 3.21068 0
M  V30 2607 H 246.978 -3.65656 3.18471 0
M  V30 2608 N 248.321 -0.919034 -1.28029 0
M  V30 2609 C 249.284 -0.416182 -2.2539 0
M  V30 2610 C 250.284 0.460438 -1.54067 0
M  V30 2611 O 251.474 0.262744 -1.72207 0
M  V30 2612 C 248.606 0.402707 -3.38513 0
M  V30 2613 H 249.799 -1.27629 -2.71387 0
M  V30 2614 H 247.352 -0.698919 -1.39803 0
M  V30 2615 H 248.087 1.282 -2.97885 0
M  V30 2616 H 247.872 -0.225698 -3.9145 0
M  V30 2617 H 249.362 0.745191 -4.10897 0
M  V30 2618 N 249.799 1.42003 -0.683588 0
M  V30 2619 C 250.749 2.27997 0.0121992 0
M  V30 2620 C 251.733 1.4156 0.764822 0
M  V30 2621 O 252.925 1.64935 0.642287 0
M  V30 2622 C 250.054 3.29706 0.956482 0
M  V30 2623 C 249.14 4.23625 0.200739 0
M  V30 2624 N 249.531 4.99448 -0.799087 0
M  V30 2625 C 247.829 4.43845 0.437937 0
M  V30 2626 C 248.53 5.68102 -1.25041 0
M  V30 2627 N 247.506 5.40511 -0.578648 0
M  V30 2628 H 251.308 2.84048 -0.754564 0
M  V30 2629 H 248.822 1.54071 -0.513398 0
M  V30 2630 H 250.819 3.90124 1.47 0
M  V30 2631 H 249.479 2.75216 1.72297 0
M  V30 2632 H 250.49 5.04303 -1.17893 0
M  V30 2633 H 247.167 4.00382 1.18325 0
M  V30 2634 H 248.557 6.38913 -2.07942 0
M  V30 2635 N 251.277 0.427512 1.51691 0
M  V30 2636 C 252.24 -0.377132 2.26076 0
M  V30 2637 C 253.24 -0.958089 1.29141 0
M  V30 2638 O 254.43 -0.83408 1.52934 0
M  V30 2639 C 251.562 -1.53262 3.04506 0
M  V30 2640 H 252.755 0.27464 2.9864 0
M  V30 2641 H 250.308 0.180445 1.55255 0
M  V30 2642 H 251.043 -2.22072 2.36335 0
M  V30 2643 H 250.828 -1.12232 3.75694 0
M  V30 2644 H 252.318 -2.10135 3.60878 0
M  V30 2645 N 252.755 -1.56801 0.158532 0
M  V30 2646 C 254.002 -1.9649 -0.489679 0
M  V30 2647 C 254.33 -1.04394 -1.6411 0
M  V30 2648 O 253.585 -0.0754401 -1.95555 0
M  V30 2649 C 253.884 -3.4235 -1.02623 0
M  V30 2650 C 253.55 -4.50899 0.00794526 0
M  V30 2651 C 252.212 -4.80312 0.292207 0
M  V30 2652 C 254.564 -5.16333 0.710584 0
M  V30 2653 C 251.892 -5.72461 1.28472 0
M  V30 2654 C 254.244 -6.09553 1.69199 0
M  V30 2655 C 252.908 -6.37339 1.98383 0
M  V30 2656 H 252.178 -0.719009 -0.179186 0
M  V30 2657 H 254.825 -1.8989 0.247798 0
M  V30 2658 H 253.13 -3.45838 -1.84128 0
M  V30 2659 H 254.827 -3.70393 -1.53656 0
M  V30 2660 H 251.417 -4.28015 -0.22379 0
M  V30 2661 H 255.601 -4.93732 0.504174 0
M  V30 2662 H 250.857 -5.92278 1.51714 0
M  V30 2663 H 255.031 -6.59327 2.24189 0
M  V30 2664 H 252.658 -7.08546 2.7544 0
M  V30 2665 N 254.233 0.115231 -1.57178 0
M  V30 2666 C 255.48 0.822351 -1.8505 0
M  V30 2667 C 255.808 1.79701 -0.744168 0
M  V30 2668 O 255.063 1.93909 0.26414 0
M  V30 2669 C 255.362 1.60324 -3.19423 0
M  V30 2670 C 255.028 0.772536 -4.44233 0
M  V30 2671 C 253.69 0.543468 -4.78121 0
M  V30 2672 C 256.042 0.193746 -5.2084 0
M  V30 2673 C 253.37 -0.274583 -5.86057 0
M  V30 2674 C 255.722 -0.611517 -6.29637 0
M  V30 2675 C 254.386 -0.850867 -6.62055 0
M  V30 2676 H 253.656 0.30092 -0.677147 0
M  V30 2677 H 256.303 0.0845802 -1.91313 0
M  V30 2678 H 254.608 2.41203 -3.08753 0
M  V30 2679 H 256.305 2.1544 -3.38211 0
M  V30 2680 H 252.895 0.96117 -4.17683 0
M  V30 2681 H 257.079 0.357926 -4.95008 0
M  V30 2682 H 252.335 -0.469206 -6.09597 0
M  V30 2683 H 256.509 -1.06697 -6.88178 0
M  V30 2684 H 254.136 -1.48657 -7.45523 0
M  V30 2685 N 255.711 1.52812 0.385517 0
M  V30 2686 C 257.122 1.5993 0.963293 0
M  V30 2687 C 257.473 0.454302 1.90868 0
M  V30 2688 O 256.598 -0.422132 2.12243 0
M  V30 2689 C 257.193 2.89871 1.75387 0
M  V30 2690 C 255.752 2.99389 2.28129 0
M  V30 2691 C 254.899 2.55071 1.08783 0
M  V30 2692 H 257.85 1.5784 0.164948 0
M  V30 2693 H 257.871 2.76553 2.61341 0
M  V30 2694 H 257.383 3.73186 1.06554 0
M  V30 2695 H 255.484 2.20619 3.00263 0
M  V30 2696 H 255.597 4.04096 2.57377 0
M  V30 2697 H 253.961 2.09473 1.4489 0
M  V30 2698 H 254.744 3.40785 0.414807 0
M  V30 2699 N 257.189 -0.644168 1.43834 0
M  V30 2700 C 258.6 -1.22554 1.40845 0
M  V30 2701 C 258.951 -1.9585 0.117115 0
M  V30 2702 O 258.076 -2.01734 -0.783086 0
M  V30 2703 C 258.671 -2.22907 2.55143 0
M  V30 2704 C 257.23 -2.76501 2.5539 0
M  V30 2705 C 256.377 -1.51287 2.32396 0
M  V30 2706 H 259.328 -0.43563 1.52604 0
M  V30 2707 H 259.349 -3.05259 2.2715 0
M  V30 2708 H 258.861 -1.69533 3.49114 0
M  V30 2709 H 256.962 -3.33914 1.65324 0
M  V30 2710 H 257.075 -3.23429 3.53455 0
M  V30 2711 H 255.439 -1.78957 1.81236 0
M  V30 2712 H 256.222 -0.998336 3.28463 0
M  V30 2713 N 258.668 -1.30515 -0.883378 0
M  V30 2714 C 259.618 -1.13641 -1.9766 0
M  V30 2715 C 260.602 -0.0511314 -1.60819 0
M  V30 2716 O 261.794 -0.274623 -1.74857 0
M  V30 2717 C 258.923 -0.831976 -3.33066 0
M  V30 2718 C 258.009 -1.95759 -3.76217 0
M  V30 2719 N 258.4 -3.20313 -3.9145 0
M  V30 2720 C 256.698 -1.85431 -4.05625 0
M  V30 2721 C 257.399 -3.93856 -4.2808 0
M  V30 2722 N 256.375 -3.21919 -4.38029 0
M  V30 2723 H 260.177 -2.08106 -2.07531 0
M  V30 2724 H 257.691 -1.21877 -1.0733 0
M  V30 2725 H 259.688 -0.692102 -4.11115 0
M  V30 2726 H 258.348 0.104588 -3.24532 0
M  V30 2727 H 259.359 -3.55583 -3.76538 0
M  V30 2728 H 256.036 -0.991531 -4.05555 0
M  V30 2729 H 257.426 -5.01125 -4.47575 0
M  V30 2730 N 260.146 1.09593 -1.13257 0
M  V30 2731 C 261.394 1.81375 -0.891492 0
M  V30 2732 C 261.715 1.86049 0.584009 0
M  V30 2733 O 260.985 1.34481 1.42449 0
M  V30 2734 H 259.565 0.671708 -0.326828 0
M  V30 2735 H 262.227 1.3256 -1.42877 0
M  V30 2736 H 261.323 2.84612 -1.28071 0
M  V30 2737 N 261.624 0.925811 1.2754 0
M  V30 2738 C 262.872 0.564138 1.94067 0
M  V30 2739 C 263.193 -0.897188 1.73134 0
M  V30 2740 O 262.463 -1.63573 1.07799 0
M  V30 2741 H 261.043 0.205645 0.718136 0
M  V30 2742 H 263.705 1.1778 1.55287 0
M  V30 2743 H 262.801 0.76881 3.02483 0
M  V30 2744 N 263.102 -1.41638 0.69111 0
M  V30 2745 C 264.351 -2.00526 0.217318 0
M  V30 2746 C 264.664 -1.55353 -1.18848 0
M  V30 2747 O 265.87 -2.06769 -1.75951 0
M  V30 2748 C 264.326 -3.58313 0.337639 0
M  V30 2749 C 263.934 -4.12469 1.74852 0
M  V30 2750 C 265.678 -4.24431 -0.0766066 0
M  V30 2751 C 263.585 -5.62675 1.82074 0
M  V30 2752 H 262.515 -0.750008 0.0774893 0
M  V30 2753 H 265.166 -1.6217 0.858661 0
M  V30 2754 H 263.548 -3.9425 -0.371879 0
M  V30 2755 H 264.722 -3.8796 2.48644 0
M  V30 2756 H 263.037 -3.58861 2.11205 0
M  V30 2757 H 265.634 -5.34683 -0.0430284 0
M  V30 2758 H 265.977 -4.01101 -1.1146 0
M  V30 2759 H 266.51 -3.93512 0.582476 0
M  V30 2760 H 263.249 -5.90826 2.83911 0
M  V30 2761 H 262.769 -5.89124 1.12661 0
M  V30 2762 H 264.448 -6.27371 1.58159 0
M  V30 2763 N 264.58 -0.43555 -1.51462 0
M  V30 2764 C 265.53 0.394701 -2.24558 0
M  V30 2765 C 266.514 0.99157 -1.26715 0
M  V30 2766 O 267.706 0.910007 -1.51815 0
M  V30 2767 C 264.835 1.4963 -3.08975 0
M  V30 2768 C 263.921 0.908912 -4.14246 0
M  V30 2769 N 264.312 0.0505335 -5.05775 0
M  V30 2770 C 262.61 1.17668 -4.30198 0
M  V30 2771 C 263.311 -0.279161 -5.8103 0
M  V30 2772 N 262.287 0.336767 -5.42556 0
M  V30 2773 H 266.089 -0.267106 -2.92684 0
M  V30 2774 H 263.603 -0.247518 -1.60503 0
M  V30 2775 H 265.6 2.10394 -3.59917 0
M  V30 2776 H 264.26 2.16046 -2.42393 0
M  V30 2777 H 265.271 -0.31577 -5.16936 0
M  V30 2778 H 261.948 1.83847 -3.74842 0
M  V30 2779 H 263.338 -0.977553 -6.64751 0
M  V30 2780 N 266.058 1.56714 -0.166846 0
M  V30 2781 C 267.305 1.96747 0.479252 0
M  V30 2782 C 267.633 1.05263 1.63554 0
M  V30 2783 O 266.888 0.0858098 1.95512 0
M  V30 2784 C 267.187 3.42889 1.00806 0
M  V30 2785 C 266.853 4.50889 -0.0318574 0
M  V30 2786 C 265.515 4.8015 -0.317675 0
M  V30 2787 C 267.867 5.15949 -0.737956 0
M  V30 2788 C 265.195 5.71772 -1.31506 0
M  V30 2789 C 267.547 6.08647 -1.72429 0
M  V30 2790 C 266.211 6.36277 -2.0176 0
M  V30 2791 H 265.481 0.719949 0.175371 0
M  V30 2792 H 268.128 1.89756 -0.257864 0
M  V30 2793 H 266.433 3.4681 1.82291 0
M  V30 2794 H 268.13 3.71203 1.51689 0
M  V30 2795 H 264.72 4.28128 0.201088 0
M  V30 2796 H 268.904 4.93458 -0.530351 0
M  V30 2797 H 264.16 5.91465 -1.54853 0
M  V30 2798 H 268.334 6.58129 -2.27682 0
M  V30 2799 H 265.961 7.07075 -2.79194 0
M  V30 2800 N 267.536 -0.106894 1.57237 0
M  V30 2801 C 268.813 -0.843526 1.76477 0
M  V30 2802 C 269.193 -1.97499 0.745464 0
M  V30 2803 O 268.541 -2.27357 -0.228306 0
M  V30 2804 C 268.751 -1.34903 3.21873 0
M  V30 2805 C 270.099 -1.79654 3.8472 0
M  V30 2806 O 271.123 -1.44554 3.2555 0
M  V30 2807 O 269.982 -2.44515 4.88748 0
M  V30 2808 H 267.076 -0.401468 0.723016 0
M  V30 2809 H 269.622 -0.0896927 1.69463 0
M  V30 2810 H 268.394 -0.53781 3.87586 0
M  V30 2811 H 268.017 -2.16522 3.33473 0
M  V30 2812 N 269.014 -1.53014 -0.377408 0
M  V30 2813 C 270.291 -1.59215 -1.13622 0
M  V30 2814 C 270.671 -0.392407 -2.07421 0
M  V30 2815 O 270.019 0.618342 -2.19975 0
M  V30 2816 C 270.229 -2.93669 -1.88573 0
M  V30 2817 C 271.577 -3.47822 -2.43526 0
M  V30 2818 O 272.601 -2.9562 -1.98715 0
M  V30 2819 O 271.46 -4.39055 -3.25412 0
M  V30 2820 H 268.554 -0.642625 -0.52054 0
M  V30 2821 H 271.1 -1.65353 -0.381625 0
M  V30 2822 H 269.872 -3.7243 -1.20048 0
M  V30 2823 H 269.495 -2.90968 -2.70968 0
M  V30 2824 N 270.492 0.636531 -1.44174 0
M  V30 2825 C 271.717 1.42847 -1.50364 0
M  V30 2826 C 272.142 1.87665 -0.127867 0
M  V30 2827 O 271.5 1.58408 0.88185 0
M  V30 2828 C 271.548 2.62854 -2.4686 0
M  V30 2829 O 270.652 3.62501 -1.9664 0
M  V30 2830 H 269.993 0.427642 -0.507955 0
M  V30 2831 H 272.523 0.777422 -1.89255 0
M  V30 2832 H 272.533 3.10465 -2.64718 0
M  V30 2833 H 271.208 2.29578 -3.46795 0
M  V30 2834 H 269.785 3.21735 -1.88523 0
M  V30 2835 N 271.97 1.30982 0.876444 0
M  V30 2836 C 272.88 1.2003 2.01569 0
M  V30 2837 C 273.896 0.11838 1.73597 0
M  V30 2838 O 275.072 0.33495 1.98595 0
M  V30 2839 C 272.137 0.901637 3.34771 0
M  V30 2840 C 271.198 2.06979 3.76109 0
M  V30 2841 C 270.431 1.78529 5.02954 0
M  V30 2842 O 270.654 0.717296 5.65872 0
M  V30 2843 O 269.588 2.64019 5.40905 0
M  V30 2844 H 273.414 2.15753 2.13739 0
M  V30 2845 H 270.999 1.10658 1.00375 0
M  V30 2846 H 272.881 0.750645 4.1466 0
M  V30 2847 H 271.556 -0.0256141 3.2369 0
M  V30 2848 H 270.463 2.27616 2.96887 0
M  V30 2849 H 271.796 2.97907 3.91807 0
M  V30 2850 N 273.449 -1.08991 1.13837 0
M  V30 2851 C 274.679 -1.84743 0.924859 0
M  V30 2852 C 275.087 -1.81629 -0.529874 0
M  V30 2853 O 274.43 -1.21397 -1.37872 0
M  V30 2854 C 274.492 -3.33568 1.34061 0
M  V30 2855 C 274.156 -3.60425 2.80968 0
M  V30 2856 C 275.153 -3.55771 3.79108 0
M  V30 2857 C 272.838 -3.88627 3.18236 0
M  V30 2858 C 274.832 -3.78939 5.12527 0
M  V30 2859 C 272.519 -4.11449 4.51833 0
M  V30 2860 C 273.517 -4.06598 5.48787 0
M  V30 2861 O 273.205 -4.28826 6.79973 0
M  V30 2862 H 272.937 -0.590258 0.329502 0
M  V30 2863 H 275.491 -1.38598 1.51591 0
M  V30 2864 H 273.721 -3.80442 0.692853 0
M  V30 2865 H 275.41 -3.90743 1.09886 0
M  V30 2866 H 276.176 -3.34005 3.51661 0
M  V30 2867 H 272.055 -3.91526 2.43369 0
M  V30 2868 H 275.599 -3.75068 5.88192 0
M  V30 2869 H 271.496 -4.32698 4.79002 0
M  V30 2870 H 272.264 -4.46264 6.86142 0
M  V30 2871 N 274.927 -0.932562 -1.27047 0
M  V30 2872 C 276.173 -0.585913 -1.94778 0
M  V30 2873 C 276.528 0.864142 -1.71902 0
M  V30 2874 O 275.821 1.60894 -1.04037 0
M  V30 2875 C 276.015 -0.853713 -3.47054 0
M  V30 2876 C 275.844 -2.32825 -3.84737 0
M  V30 2877 C 274.614 -2.98184 -4.07939 0
M  V30 2878 C 276.812 -3.30612 -3.93954 0
M  V30 2879 N 274.794 -4.3574 -4.3244 0
M  V30 2880 C 276.165 -4.53395 -4.22887 0
M  V30 2881 C 278.22 -3.25755 -3.76548 0
M  V30 2882 C 276.923 -5.71927 -4.36224 0
M  V30 2883 C 278.949 -4.43604 -3.91113 0
M  V30 2884 C 278.311 -5.65166 -4.20437 0
M  V30 2885 H 274.41 -0.264617 -0.735868 0
M  V30 2886 H 276.994 -1.20019 -1.53309 0
M  V30 2887 H 275.165 -0.268557 -3.8747 0
M  V30 2888 H 276.897 -0.469202 -4.01971 0
M  V30 2889 H 273.652 -2.48835 -4.02961 0
M  V30 2890 H 274.076 -5.06915 -4.48738 0
M  V30 2891 H 278.718 -2.32835 -3.52913 0
M  V30 2892 H 276.436 -6.65308 -4.58683 0
M  V30 2893 H 280.022 -4.41368 -3.79059 0
M  V30 2894 H 278.902 -6.54836 -4.31462 0
M  V30 2895 N 276.405 1.4127 -0.698611 0
M  V30 2896 C 277.651 2.01478 -0.231207 0
M  V30 2897 C 277.984 1.55215 1.16713 0
M  V30 2898 O 277.259 0.764672 1.78838 0
M  V30 2899 C 277.542 3.58912 -0.292281 0
M  V30 2900 C 277.395 4.15293 -1.72778 0
M  V30 2901 C 278.714 4.38736 0.346194 0
M  V30 2902 H 275.833 0.732025 -0.0854878 0
M  V30 2903 H 278.475 1.67977 -0.887906 0
M  V30 2904 H 276.625 3.87582 0.26686 0
M  V30 2905 H 278.297 3.97486 -2.341 0
M  V30 2906 H 276.54 3.7022 -2.26096 0
M  V30 2907 H 277.211 5.24452 -1.72202 0
M  V30 2908 H 279.687 4.15897 -0.130035 0
M  V30 2909 H 278.563 5.48221 0.272932 0
M  V30 2910 H 278.824 4.18425 1.42734 0
M  V30 2911 N 277.883 0.443576 1.51229 0
M  V30 2912 C 278.813 -0.355142 2.30783 0
M  V30 2913 C 279.794 -1.0154 1.36468 0
M  V30 2914 O 280.979 -1.01785 1.65389 0
M  V30 2915 C 278.109 -1.45312 3.15439 0
M  V30 2916 C 277.063 -0.916002 4.18083 0
M  V30 2917 C 276.389 -2.1102 4.91299 0
M  V30 2918 C 277.689 0.0538602 5.22272 0
M  V30 2919 H 279.383 0.308767 2.97804 0
M  V30 2920 H 276.929 0.149937 1.43217 0
M  V30 2921 H 278.882 -2.01914 3.69876 0
M  V30 2922 H 277.606 -2.14541 2.46252 0
M  V30 2923 H 276.265 -0.372145 3.64706 0
M  V30 2924 H 275.913 -2.78882 4.18609 0
M  V30 2925 H 275.613 -1.75717 5.60712 0
M  V30 2926 H 277.137 -2.68164 5.48562 0
M  V30 2927 H 278.551 -0.422069 5.71744 0
M  V30 2928 H 276.948 0.319776 5.99247 0
M  V30 2929 H 278.018 0.98858 4.74716 0
M  V30 2930 N 279.361 -1.56624 0.175154 0
M  V30 2931 C 280.609 -1.96609 -0.467885 0
M  V30 2932 C 280.93 -1.06238 -1.63519 0
M  V30 2933 O 280.2 -0.129523 -1.95471 0
M  V30 2934 H 278.78 -0.726008 -0.175845 0
M  V30 2935 H 281.442 -1.93195 0.257234 0
M  V30 2936 H 280.538 -3.00989 -0.825342 0
M  V30 2937 N 280.839 0.0985539 -1.57292 0
M  V30 2938 C 282.25 0.653457 -1.74891 0
M  V30 2939 C 282.601 1.7929 -0.796838 0
M  V30 2940 O 281.726 2.16385 0.0254886 0
M  V30 2941 C 282.321 1.19216 -3.17133 0
M  V30 2942 C 280.88 1.69316 -3.36168 0
M  V30 2943 C 280.027 0.601294 -2.70702 0
M  V30 2944 H 282.978 -0.127497 -1.58187 0
M  V30 2945 H 282.999 2.06154 -3.19814 0
M  V30 2946 H 282.511 0.362635 -3.86402 0
M  V30 2947 H 280.612 2.5468 -2.71972 0
M  V30 2948 H 280.725 1.78853 -4.44464 0
M  V30 2949 H 279.089 1.0399 -2.32504 0
M  V30 2950 H 279.872 -0.217592 -3.4261 0
M  V30 2951 N 282.317 1.53212 0.369288 0
M  V30 2952 C 283.545 1.73119 1.13303 0
M  V30 2953 C 283.96 0.458455 1.83149 0
M  V30 2954 O 283.317 -0.568403 1.73423 0
M  V30 2955 C 283.368 2.89413 2.16616 0
M  V30 2956 O 283.089 4.11761 1.49614 0
M  V30 2957 C 284.59 3.21161 3.05566 0
M  V30 2958 H 281.81 0.579107 0.338934 0
M  V30 2959 H 284.354 1.99942 0.429338 0
M  V30 2960 H 282.509 2.64994 2.82589 0
M  V30 2961 H 282.923 4.76858 2.18419 0
M  V30 2962 H 284.397 4.05949 3.74045 0
M  V30 2963 H 284.874 2.36369 3.70171 0
M  V30 2964 H 285.48 3.47492 2.45213 0
M  V30 2965 N 283.795 -0.628877 1.44509 0
M  V30 2966 C 285.211 -0.947305 1.28446 0
M  V30 2967 C 285.411 -2.00275 0.221872 0
M  V30 2968 O 284.467 -2.49447 -0.391471 0
M  V30 2969 C 285.78 -1.40843 2.65676 0
M  V30 2970 C 287.328 -1.52379 2.73404 0
M  V30 2971 C 287.803 -2.01875 4.11109 0
M  V30 2972 N 289.294 -2.09142 4.13296 0
M  V30 2973 C 290.029 -2.48615 5.16699 0
M  V30 2974 N 289.525 -2.87209 6.30462 0
M  V30 2975 N 291.318 -2.48768 5.04054 0
M  V30 2976 H 283.469 0.0690977 2.12288 0
M  V30 2977 H 285.732 -0.0317164 0.947469 0
M  V30 2978 H 285.438 -0.707206 3.44516 0
M  V30 2979 H 285.312 -2.37902 2.92716 0
M  V30 2980 H 287.699 -2.21598 1.9488 0
M  V30 2981 H 287.78 -0.536898 2.50102 0
M  V30 2982 H 287.424 -1.3325 4.90109 0
M  V30 2983 H 287.354 -3.0144 4.31789 0
M  V30 2984 H 289.845 -1.81991 3.31191 0
M  V30 2985 H 290.158 -3.16149 7.05174 0
M  V30 2986 H 288.503 -2.84955 6.33897 0
M  V30 2987 H 291.694 -2.18009 4.14234 0
M  V30 2988 H 291.867 -2.79207 5.84763 0
M  V30 2989 N 285.273 -1.31445 -0.869486 0
M  V30 2990 C 286.503 -1.23942 -1.65294 0
M  V30 2991 C 286.911 0.197561 -1.88166 0
M  V30 2992 O 286.254 1.14019 -1.44033 0
M  V30 2993 C 286.316 -1.91385 -3.04322 0
M  V30 2994 C 285.98 -3.40726 -3.04557 0
M  V30 2995 C 286.977 -4.36464 -2.82481 0
M  V30 2996 C 284.662 -3.82425 -3.25663 0
M  V30 2997 C 286.656 -5.71876 -2.8149 0
M  V30 2998 C 284.343 -5.1795 -3.243 0
M  V30 2999 C 285.341 -6.12486 -3.02241 0
M  V30 3000 O 285.029 -7.45534 -3.00724 0
M  V30 3001 H 284.761 -0.429459 -0.522054 0
M  V30 3002 H 287.315 -1.73873 -1.0935 0
M  V30 3003 H 285.545 -1.36004 -3.61994 0
M  V30 3004 H 287.234 -1.77791 -3.64891 0
M  V30 3005 H 288 -4.05576 -2.65956 0
M  V30 3006 H 283.879 -3.09274 -3.41863 0
M  V30 3007 H 287.423 -6.45638 -2.64191 0
M  V30 3008 H 283.32 -5.48473 -3.40365 0
M  V30 3009 H 284.088 -7.54713 -3.16782 0
M  V30 3010 N 286.751 1.08385 -1.14413 0
M  V30 3011 C 287.976 1.85057 -0.936413 0
M  V30 3012 C 288.401 1.81055 0.509971 0
M  V30 3013 O 287.759 1.1958 1.36273 0
M  V30 3014 C 287.807 3.30505 -1.44217 0
M  V30 3015 O 286.911 4.07491 -0.634409 0
M  V30 3016 H 286.252 0.573425 -0.334784 0
M  V30 3017 H 288.782 1.36799 -1.52142 0
M  V30 3018 H 288.792 3.81348 -1.45043 0
M  V30 3019 H 287.467 3.32734 -2.49522 0
M  V30 3020 H 286.044 3.66368 -0.694902 0
M  V30 3021 N 288.23 0.939286 1.26551 0
M  V30 3022 C 289.476 0.596234 1.94465 0
M  V30 3023 C 289.831 -0.855013 1.72358 0
M  V30 3024 O 289.124 -1.6034 1.04889 0
M  V30 3025 C 289.318 0.872106 3.46596 0
M  V30 3026 C 289.147 2.34862 3.83497 0
M  V30 3027 C 287.917 3.00344 4.06352 0
M  V30 3028 C 290.115 3.32697 3.92195 0
M  V30 3029 N 288.097 4.38027 4.30123 0
M  V30 3030 C 289.468 4.55631 4.20476 0
M  V30 3031 C 291.523 3.27747 3.74815 0
M  V30 3032 C 290.226 5.74233 4.33185 0
M  V30 3033 C 292.252 4.45672 3.88755 0
M  V30 3034 C 291.614 5.67388 4.17433 0
M  V30 3035 H 287.713 0.268515 0.734455 0
M  V30 3036 H 290.297 1.2083 1.5267 0
M  V30 3037 H 288.468 0.289102 3.87323 0
M  V30 3038 H 290.2 0.490513 4.01716 0
M  V30 3039 H 286.955 2.50969 4.01636 0
M  V30 3040 H 287.379 5.09288 4.46044 0
M  V30 3041 H 292.021 2.34703 3.51673 0
M  V30 3042 H 289.739 6.67731 4.55149 0
M  V30 3043 H 293.325 4.43372 3.76713 0
M  V30 3044 H 292.205 6.57115 4.27983 0
M  V30 3045 N 289.708 -1.40897 0.706093 0
M  V30 3046 C 290.655 -2.30751 0.0474474 0
M  V30 3047 C 291.625 -1.47678 -0.76029 0
M  V30 3048 O 292.81 -1.76441 -0.726177 0
M  V30 3049 C 289.95 -3.33815 -0.875309 0
M  V30 3050 C 289.063 -4.31961 -0.0580623 0
M  V30 3051 C 288.198 -5.22093 -0.979425 0
M  V30 3052 C 287.237 -6.11902 -0.155706 0
M  V30 3053 N 286.374 -6.94482 -1.03144 0
M  V30 3054 H 291.214 -2.86513 0.819413 0
M  V30 3055 H 288.751 -1.41102 0.415783 0
M  V30 3056 H 290.709 -3.92129 -1.42446 0
M  V30 3057 H 289.339 -2.79579 -1.61356 0
M  V30 3058 H 288.391 -3.75507 0.608147 0
M  V30 3059 H 289.703 -4.95415 0.580082 0
M  V30 3060 H 288.857 -5.85292 -1.59744 0
M  V30 3061 H 287.596 -4.5889 -1.65141 0
M  V30 3062 H 286.601 -5.47742 0.475309 0
M  V30 3063 H 287.826 -6.77162 0.512635 0
M  V30 3064 H 285.772 -6.33877 -1.68924 0
M  V30 3065 H 285.689 -7.54665 -0.449108 0
M  V30 3066 H 286.957 -7.6214 -1.63593 0
M  V30 3067 N 291.186 -0.45159 -1.50991 0
M  V30 3068 C 292.133 0.352625 -2.2809 0
M  V30 3069 C 293.103 1.0044 -1.32291 0
M  V30 3070 O 294.288 1.02058 -1.6121 0
M  V30 3071 C 291.428 1.43983 -3.13629 0
M  V30 3072 C 290.541 0.804772 -4.24438 0
M  V30 3073 C 289.676 1.86822 -4.97263 0
M  V30 3074 C 288.715 1.21236 -5.99973 0
M  V30 3075 N 287.852 2.2178 -6.66152 0
M  V30 3076 H 292.692 -0.311186 -2.96371 0
M  V30 3077 H 290.229 -0.165308 -1.46168 0
M  V30 3078 H 292.187 2.08161 -3.61559 0
M  V30 3079 H 290.817 2.07307 -2.47434 0
M  V30 3080 H 289.869 0.0509129 -3.80366 0
M  V30 3081 H 291.181 0.286076 -4.97979 0
M  V30 3082 H 290.335 2.58628 -5.48813 0
M  V30 3083 H 289.074 2.42068 -4.23385 0
M  V30 3084 H 288.079 0.479828 -5.47702 0
M  V30 3085 H 289.304 0.667051 -6.75816 0
M  V30 3086 H 287.25 2.76079 -5.95077 0
M  V30 3087 H 287.167 1.74841 -7.35504 0
M  V30 3088 H 288.435 2.93026 -7.22327 0
M  V30 3089 N 292.664 1.56529 -0.183458 0
M  V30 3090 C 293.912 1.96855 0.457452 0
M  V30 3091 C 294.233 1.07104 1.62953 0
M  V30 3092 O 293.503 0.139887 1.954 0
M  V30 3093 H 292.083 0.72693 0.171992 0
M  V30 3094 H 294.745 1.93056 -0.267476 0
M  V30 3095 H 293.841 3.01423 0.809368 0
M  V30 3096 N 294.142 -0.090211 1.57342 0
M  V30 3097 C 295.388 -0.793982 1.86611 0
M  V30 3098 C 295.721 -1.78142 0.773252 0
M  V30 3099 O 294.996 -1.93271 -0.218304 0
M  V30 3100 C 295.279 -1.51839 3.26523 0
M  V30 3101 C 295.132 -0.548609 4.46442 0
M  V30 3102 C 296.451 -2.46779 3.64401 0
M  V30 3103 H 293.57 -0.287186 0.678744 0
M  V30 3104 H 296.212 -0.0575076 1.89913 0
M  V30 3105 H 294.362 -2.14617 3.23839 0
M  V30 3106 H 296.034 0.0725513 4.61243 0
M  V30 3107 H 294.277 0.137614 4.33582 0
M  V30 3108 H 294.948 -1.09271 5.41076 0
M  V30 3109 H 297.424 -1.94089 3.68061 0
M  V30 3110 H 296.3 -2.94479 4.63221 0
M  V30 3111 H 296.561 -3.30758 2.93346 0
M  V30 3112 N 295.62 -1.53406 -0.361157 0
M  V30 3113 C 296.866 -1.70999 -1.1014 0
M  V30 3114 C 297.221 -0.458425 -1.86859 0
M  V30 3115 O 296.514 0.548654 -1.83577 0
M  V30 3116 C 296.708 -2.90211 -2.08596 0
M  V30 3117 C 296.537 -4.26841 -1.41553 0
M  V30 3118 C 295.307 -4.91621 -1.16778 0
M  V30 3119 C 297.505 -5.07212 -0.850915 0
M  V30 3120 N 295.487 -6.12164 -0.461312 0
M  V30 3121 C 296.858 -6.19394 -0.274046 0
M  V30 3122 C 298.913 -4.92218 -0.750036 0
M  V30 3123 C 297.616 -7.18221 0.393868 0
M  V30 3124 C 299.642 -5.91322 -0.095894 0
M  V30 3125 C 299.004 -7.0283 0.470081 0
M  V30 3126 H 295.103 -0.678939 -0.388028 0
M  V30 3127 H 297.687 -1.90811 -0.38722 0
M  V30 3128 H 295.858 -2.71931 -2.77323 0
M  V30 3129 H 297.59 -2.96606 -2.7533 0
M  V30 3130 H 294.345 -4.50849 -1.45024 0
M  V30 3131 H 294.769 -6.76888 -0.123312 0
M  V30 3132 H 299.411 -4.06192 -1.17337 0
M  V30 3133 H 297.129 -8.03835 0.82914 0
M  V30 3134 H 300.715 -5.81797 -0.0187075 0
M  V30 3135 H 299.595 -7.782 0.968241 0
M  V30 3136 N 297.098 0.621204 -1.44841 0
M  V30 3137 C 298.028 1.74366 -1.55303 0
M  V30 3138 C 299.009 1.65199 -0.405385 0
M  V30 3139 O 300.194 1.83807 -0.626787 0
M  V30 3140 C 297.324 3.12931 -1.50637 0
M  V30 3141 C 296.278 3.36896 -2.63979 0
M  V30 3142 C 295.604 4.75594 -2.44366 0
M  V30 3143 C 296.904 3.28483 -4.06074 0
M  V30 3144 H 298.598 1.65867 -2.49256 0
M  V30 3145 H 296.144 0.796558 -1.19962 0
M  V30 3146 H 298.097 3.9124 -1.56555 0
M  V30 3147 H 296.821 3.22237 -0.532057 0
M  V30 3148 H 295.48 2.60972 -2.57467 0
M  V30 3149 H 295.128 4.81616 -1.45105 0
M  V30 3150 H 294.828 4.92586 -3.20364 0
M  V30 3151 H 296.352 5.5612 -2.52117 0
M  V30 3152 H 297.766 3.96684 -4.13902 0
M  V30 3153 H 296.163 3.57008 -4.82354 0
M  V30 3154 H 297.233 2.26133 -4.28943 0
M  V30 3155 N 298.576 1.31904 0.862503 0
M  V30 3156 C 299.804 1.24998 1.64873 0
M  V30 3157 C 300.219 -0.183425 1.87907 0
M  V30 3158 O 299.576 -1.11794 1.44251 0
M  V30 3159 C 299.627 1.99829 3.01248 0
M  V30 3160 O 299.348 3.37575 2.79239 0
M  V30 3161 C 300.849 1.99852 3.95694 0
M  V30 3162 H 298.069 0.431599 0.513773 0
M  V30 3163 H 300.613 1.73901 1.07604 0
M  V30 3164 H 298.768 1.54668 3.55185 0
M  V30 3165 H 299.182 3.75776 3.65914 0
M  V30 3166 H 300.656 2.56709 4.88676 0
M  V30 3167 H 301.133 0.982852 4.28062 0
M  V30 3168 H 301.739 2.44926 3.47694 0
M  V30 3169 N 300.054 -1.07777 1.14986 0
M  V30 3170 C 301.331 -1.7699 0.832695 0
M  V30 3171 C 301.711 -2.001 -0.672561 0
M  V30 3172 O 301.059 -1.61598 -1.6155 0
M  V30 3173 C 301.269 -3.08139 1.63863 0
M  V30 3174 C 302.617 -3.8256 1.84208 0
M  V30 3175 O 303.641 -3.17939 1.60603 0
M  V30 3176 O 302.5 -4.98612 2.23714 0
M  V30 3177 H 299.594 -0.768389 0.305791 0
M  V30 3178 H 302.14 -1.14182 1.25541 0
M  V30 3179 H 300.912 -2.86909 2.6608 0
M  V30 3180 H 300.535 -3.78678 1.21197 0
M  V30 3181 N 301.532 -0.945985 -1.26051 0
M  V30 3182 C 302.462 -0.477172 -2.28572 0
M  V30 3183 C 303.443 0.472032 -1.63419 0
M  V30 3184 O 304.628 0.372853 -1.90587 0
M  V30 3185 C 301.758 0.253975 -3.4637 0
M  V30 3186 C 300.712 -0.609135 -4.23643 0
M  V30 3187 C 300.038 0.252252 -5.34105 0
M  V30 3188 C 301.338 -1.8829 -4.8718 0
M  V30 3189 H 303.032 -1.33402 -2.68038 0
M  V30 3190 H 300.578 -0.642904 -1.28852 0
M  V30 3191 H 302.531 0.593016 -4.17207 0
M  V30 3192 H 301.255 1.145 -3.05871 0
M  V30 3193 H 299.914 -0.931138 -3.54578 0
M  V30 3194 H 299.562 1.14278 -4.89846 0
M  V30 3195 H 299.262 -0.32188 -5.86718 0
M  V30 3196 H 300.786 0.586454 -6.07777 0
M  V30 3197 H 302.2 -1.61081 -5.50205 0
M  V30 3198 H 300.597 -2.40199 -5.49931 0
M  V30 3199 H 301.667 -2.59134 -4.09851 0
M  V30 3200 N 303.011 1.40521 -0.713556 0
M  V30 3201 C 304.257 2.01221 -0.252564 0
M  V30 3202 C 304.59 1.56444 1.1506 0
M  V30 3203 O 303.865 0.783597 1.78017 0
M  V30 3204 C 304.148 3.58582 -0.330332 0
M  V30 3205 C 304.001 4.13437 -1.77173 0
M  V30 3206 C 305.32 4.39079 0.299641 0
M  V30 3207 H 302.439 0.731077 -0.0932471 0
M  V30 3208 H 305.081 1.67026 -0.905673 0
M  V30 3209 H 303.231 3.87844 0.225737 0
M  V30 3210 H 304.903 3.9498 -2.38303 0
M  V30 3211 H 303.146 3.67801 -2.3001 0
M  V30 3212 H 303.817 5.22597 -1.77755 0
M  V30 3213 H 306.293 4.15735 -0.174139 0
M  V30 3214 H 305.169 5.4848 0.214771 0
M  V30 3215 H 305.43 4.19915 1.38288 0
M  V30 3216 N 304.489 0.459591 1.5075 0
M  V30 3217 C 305.439 -0.358926 2.25157 0
M  V30 3218 C 306.423 -0.971285 1.28276 0
M  V30 3219 O 307.615 -0.885739 1.53244 0
M  V30 3220 C 304.744 -1.44695 3.11317 0
M  V30 3221 C 303.83 -0.842894 4.15639 0
M  V30 3222 N 304.221 0.0299373 5.05791 0
M  V30 3223 C 302.519 -1.10809 4.32015 0
M  V30 3224 C 303.22 0.371563 5.80512 0
M  V30 3225 N 302.196 -0.250409 5.43023 0
M  V30 3226 H 305.998 0.313636 2.92222 0
M  V30 3227 H 303.512 0.273021 1.60089 0
M  V30 3228 H 305.509 -2.04641 3.63218 0
M  V30 3229 H 304.169 -2.12162 2.45799 0
M  V30 3230 H 305.18 0.39797 5.16369 0
M  V30 3231 H 301.857 -1.7786 3.77719 0
M  V30 3232 H 303.247 1.08319 6.63111 0
M  V30 3233 N 305.967 -1.56429 0.191757 0
M  V30 3234 C 307.213 -1.97777 -0.448554 0
M  V30 3235 C 307.546 -1.07847 -1.61501 0
M  V30 3236 O 306.821 -0.129774 -1.94067 0
M  V30 3237 C 307.104 -3.48362 -0.911906 0
M  V30 3238 C 306.957 -4.4907 0.256136 0
M  V30 3239 C 308.276 -4.02561 -1.77857 0
M  V30 3240 H 305.395 -0.719071 -0.161572 0
M  V30 3241 H 308.037 -1.87896 0.282007 0
M  V30 3242 H 306.187 -3.56914 -1.53442 0
M  V30 3243 H 307.859 -4.5256 0.893733 0
M  V30 3244 H 306.102 -4.24181 0.908436 0
M  V30 3245 H 306.773 -5.51889 -0.11053 0
M  V30 3246 H 309.249 -3.96767 -1.25359 0
M  V30 3247 H 308.125 -5.08301 -2.07174 0
M  V30 3248 H 308.386 -3.47616 -2.73158 0
M  V30 3249 N 307.445 0.0818655 -1.57387 0
M  V30 3250 C 308.408 1.08265 -2.02018 0
M  V30 3251 C 309.408 1.32183 -0.915664 0
M  V30 3252 O 310.598 1.28073 -1.18081 0
M  V30 3253 C 307.73 2.42871 -2.39221 0
M  V30 3254 H 308.923 0.698204 -2.91659 0
M  V30 3255 H 306.476 0.327303 -1.52835 0
M  V30 3256 H 307.211 2.86167 -1.52575 0
M  V30 3257 H 306.996 2.26855 -3.19811 0
M  V30 3258 H 308.486 3.14826 -2.74362 0
M  V30 3259 N 308.923 1.53595 0.353017 0
M  V30 3260 C 309.886 1.80232 1.41594 0
M  V30 3261 C 310.886 0.673081 1.46035 0
M  V30 3262 O 312.076 0.941335 1.46576 0
M  V30 3263 C 309.208 1.93578 2.80607 0
M  V30 3264 H 310.401 2.75174 1.19244 0
M  V30 3265 H 307.954 1.44864 0.586872 0
M  V30 3266 H 308.689 1.00746 3.08254 0
M  V30 3267 H 308.474 2.75724 2.78781 0
M  V30 3268 H 309.964 2.15735 3.57558 0
M  V30 3269 N 310.401 -0.613514 1.45168 0
M  V30 3270 C 311.351 -1.71871 1.49815 0
M  V30 3271 C 312.335 -1.56774 0.362021 0
M  V30 3272 O 313.527 -1.66212 0.608493 0
M  V30 3273 C 310.656 -3.1061 1.46207 0
M  V30 3274 C 309.742 -3.31114 2.64999 0
M  V30 3275 N 310.133 -3.21904 3.90143 0
M  V30 3276 C 308.431 -3.61966 2.6057 0
M  V30 3277 C 309.132 -3.43577 4.69393 0
M  V30 3278 N 308.108 -3.67287 4.00751 0
M  V30 3279 H 311.91 -1.63235 2.444 0
M  V30 3280 H 309.424 -0.816577 1.40377 0
M  V30 3281 H 311.421 -3.8989 1.4762 0
M  V30 3282 H 310.081 -3.20399 0.52673 0
M  V30 3283 H 311.092 -3.00436 4.21852 0
M  V30 3284 H 307.769 -3.78629 1.75916 0
M  V30 3285 H 309.159 -3.41901 5.78406 0
M  V30 3286 N 311.879 -1.3236 -0.855495 0
M  V30 3287 C 312.789 -1.23221 -1.99634 0
M  V30 3288 C 313.805 -0.145983 -1.73387 0
M  V30 3289 O 314.981 -0.366502 -1.98037 0
M  V30 3290 C 312.046 -0.954782 -3.33294 0
M  V30 3291 C 311.107 -2.12937 -3.72769 0
M  V30 3292 C 310.34 -1.86508 -5.00051 0
M  V30 3293 O 310.563 -0.807231 -5.64659 0
M  V30 3294 O 309.497 -2.72591 -5.36636 0
M  V30 3295 H 313.323 -2.19126 -2.1028 0
M  V30 3296 H 310.908 -1.12241 -0.986018 0
M  V30 3297 H 312.79 -0.816519 -4.13414 0
M  V30 3298 H 311.465 -0.0258854 -3.2369 0
M  V30 3299 H 310.372 -2.3231 -2.93228 0
M  V30 3300 H 311.705 -3.04102 -3.87018 0
M  V30 3301 N 313.357 1.07166 -1.15556 0
M  V30 3302 C 314.606 1.79181 -0.926132 0
M  V30 3303 C 314.919 1.87768 0.547967 0
M  V30 3304 O 316.125 2.56323 0.895036 0
M  V30 3305 C 314.581 3.22 -1.60761 0
M  V30 3306 C 314.189 3.21607 -3.11886 0
M  V30 3307 C 315.933 3.9861 -1.4598 0
M  V30 3308 C 313.84 4.59092 -3.72812 0
M  V30 3309 H 312.77 0.67154 -0.342856 0
M  V30 3310 H 315.421 1.2027 -1.3859 0
M  V30 3311 H 313.803 3.81115 -1.07553 0
M  V30 3312 H 314.977 2.72127 -3.71865 0
M  V30 3313 H 313.292 2.58495 -3.2645 0
M  V30 3314 H 315.889 5.00225 -1.88888 0
M  V30 3315 H 316.232 4.143 -0.407541 0
M  V30 3316 H 316.765 3.45996 -1.96295 0
M  V30 3317 H 313.504 4.48606 -4.77946 0
M  V30 3318 H 313.024 5.08803 -3.17616 0
M  V30 3319 H 314.703 5.28059 -3.73848 0
M  V30 3320 N 314.835 0.952656 1.25548 0
M  V30 3321 C 316.083 0.605176 1.92826 0
M  V30 3322 C 316.404 -0.860261 1.74999 0
M  V30 3323 O 315.674 -1.6125 1.11244 0
M  V30 3324 H 314.254 0.220832 0.713612 0
M  V30 3325 H 316.916 1.21047 1.52754 0
M  V30 3326 H 316.012 0.832798 3.00784 0
M  V30 3327 N 316.313 -1.40141 0.720998 0
M  V30 3328 C 317.263 -2.27949 0.0482544 0
M  V30 3329 C 318.247 -1.43538 -0.727021 0
M  V30 3330 O 319.439 -1.6658 -0.598332 0
M  V30 3331 C 316.568 -3.32126 -0.868729 0
M  V30 3332 C 315.654 -4.24008 -0.0883515 0
M  V30 3333 N 316.045 -4.97154 0.931226 0
M  V30 3334 C 314.343 -4.4485 -0.320105 0
M  V30 3335 C 315.044 -5.64587 1.4006 0
M  V30 3336 N 314.02 -5.38787 0.721752 0
M  V30 3337 H 317.822 -2.81948 0.829609 0
M  V30 3338 H 315.336 -1.52656 0.554067 0
M  V30 3339 H 317.333 -3.93884 -1.36605 0
M  V30 3340 H 315.993 -2.79687 -1.6494 0
M  V30 3341 H 317.004 -5.01 1.31222 0
M  V30 3342 H 313.681 -4.03378 -1.07668 0
M  V30 3343 H 315.071 -6.33175 2.24808 0
M  V30 3344 N 317.792 -0.46758 -1.50504 0
M  V30 3345 C 318.755 0.317059 -2.26996 0
M  V30 3346 C 319.755 0.923513 -1.31635 0
M  V30 3347 O 320.945 0.793239 -1.55091 0
M  V30 3348 C 318.077 1.45134 -3.08462 0
M  V30 3349 H 319.27 -0.353723 -2.97807 0
M  V30 3350 H 316.823 -0.221545 -1.54722 0
M  V30 3351 H 317.558 2.15728 -2.4214 0
M  V30 3352 H 317.343 1.02232 -3.78538 0
M  V30 3353 H 318.833 2.00493 -3.66323 0
M  V30 3354 N 319.27 1.56325 -0.20005 0
M  V30 3355 C 320.2 2.22318 0.713916 0
M  V30 3356 C 321.181 1.18788 1.21752 0
M  V30 3357 O 322.366 1.47309 1.26545 0
M  V30 3358 C 319.496 2.88639 1.93144 0
M  V30 3359 C 318.45 3.98457 1.56255 0
M  V30 3360 C 317.776 4.51967 2.85709 0
M  V30 3361 C 319.076 5.16612 0.768747 0
M  V30 3362 H 320.77 2.98952 0.163755 0
M  V30 3363 H 318.316 1.43792 0.0773219 0
M  V30 3364 H 320.269 3.33491 2.57608 0
M  V30 3365 H 318.993 2.09419 2.50621 0
M  V30 3366 H 317.652 3.54305 0.941471 0
M  V30 3367 H 317.3 3.69503 3.41287 0
M  V30 3368 H 317 5.26071 2.6177 0
M  V30 3369 H 318.524 4.99523 3.51154 0
M  V30 3370 H 319.938 5.57977 1.3166 0
M  V30 3371 H 318.335 5.96812 0.627286 0
M  V30 3372 H 319.405 4.84358 -0.229168 0
M  V30 3373 N 320.748 -0.0735177 1.57428 0
M  V30 3374 C 321.996 -0.771472 1.86796 0
M  V30 3375 C 322.317 -1.78201 0.791804 0
M  V30 3376 O 321.587 -1.95074 -0.179718 0
M  V30 3377 H 320.167 -0.28791 0.689287 0
M  V30 3378 H 322.829 -0.0500161 1.94836 0
M  V30 3379 H 321.925 -1.28874 2.8425 0
M  V30 3380 N 322.226 -1.5378 -0.344866 0
M  V30 3381 C 323.156 -1.84662 -1.42906 0
M  V30 3382 C 324.137 -0.701648 -1.54955 0
M  V30 3383 O 325.322 -0.953438 -1.69184 0
M  V30 3384 C 322.452 -2.05503 -2.79974 0
M  V30 3385 C 321.406 -3.21318 -2.82734 0
M  V30 3386 C 320.732 -3.2749 -4.22675 0
M  V30 3387 C 322.032 -4.59456 -2.48389 0
M  V30 3388 H 323.726 -2.75461 -1.17311 0
M  V30 3389 H 321.272 -1.32542 -0.562896 0
M  V30 3390 H 323.225 -2.25691 -3.55867 0
M  V30 3391 H 321.949 -1.11434 -3.07002 0
M  V30 3392 H 320.608 -3.00984 -2.09294 0
M  V30 3393 H 320.256 -2.31019 -4.4681 0
M  V30 3394 H 319.956 -4.05316 -4.25433 0
M  V30 3395 H 321.48 -3.49887 -5.00412 0
M  V30 3396 H 322.894 -4.79667 -3.13995 0
M  V30 3397 H 321.291 -5.39675 -2.62432 0
M  V30 3398 H 322.361 -4.63155 -1.4358 0
M  V30 3399 N 323.704 0.605807 -1.45491 0
M  V30 3400 C 324.637 1.73022 -1.48791 0
M  V30 3401 C 325.615 1.58917 -0.344112 0
M  V30 3402 O 326.799 1.80453 -0.544876 0
M  V30 3403 C 323.926 3.10865 -1.34463 0
M  V30 3404 C 322.972 3.43554 -2.5273 0
M  V30 3405 S 323.805 3.38196 -4.15191 0
M  V30 3406 C 324.961 4.78616 -4.03333 0
M  V30 3407 H 325.194 1.69961 -2.43928 0
M  V30 3408 H 322.727 0.782611 -1.33096 0
M  V30 3409 H 324.685 3.90398 -1.26884 0
M  V30 3410 H 323.346 3.1144 -0.40794 0
M  V30 3411 H 322.539 4.43924 -2.38637 0
M  V30 3412 H 322.141 2.71541 -2.5718 0
M  V30 3413 H 324.433 5.68463 -3.68587 0
M  V30 3414 H 325.376 4.97767 -5.03621 0
M  V30 3415 H 325.784 4.54381 -3.34959 0
M  V30 3416 N 325.182 1.32811 0.848464 0
M  V30 3417 C 326.132 1.18842 1.94578 0
M  V30 3418 C 327.116 0.0937517 1.60627 0
M  V30 3419 O 328.308 0.320887 1.74067 0
M  V30 3420 C 325.437 0.91999 3.30743 0
M  V30 3421 C 324.523 2.05665 3.70894 0
M  V30 3422 N 324.914 3.30579 3.8282 0
M  V30 3423 C 323.212 1.9612 4.00566 0
M  V30 3424 C 323.913 4.05067 4.17487 0
M  V30 3425 N 322.889 3.33419 4.2934 0
M  V30 3426 H 326.691 2.13536 2.0194 0
M  V30 3427 H 324.205 1.2468 1.0406 0
M  V30 3428 H 326.202 0.800859 4.09136 0
M  V30 3429 H 324.862 -0.0185076 3.24695 0
M  V30 3430 H 325.873 3.65441 3.66978 0
M  V30 3431 H 322.55 1.09871 4.02784 0
M  V30 3432 H 323.94 5.12815 4.34131 0
M  V30 3433 N 326.66 -1.06551 1.16123 0
M  V30 3434 C 327.885 -1.83544 0.965735 0
M  V30 3435 C 328.31 -1.81843 -0.481102 0
M  V30 3436 O 327.668 -1.21732 -1.34354 0
M  V30 3437 C 327.716 -3.28169 1.49457 0
M  V30 3438 O 326.82 -4.0643 0.699157 0
M  V30 3439 H 326.161 -0.568026 0.343864 0
M  V30 3440 H 328.691 -1.34362 1.54299 0
M  V30 3441 H 328.701 -3.78992 1.51092 0
M  V30 3442 H 327.376 -3.28722 2.54784 0
M  V30 3443 H 325.953 -3.65216 0.7531 0
M  V30 3444 N 328.138 -0.959301 -1.25041 0
M  V30 3445 C 329.07 -0.440543 -2.24926 0
M  V30 3446 C 330.083 0.446131 -1.56568 0
M  V30 3447 O 331.272 0.253657 -1.76689 0
M  V30 3448 C 328.372 0.38412 -3.36716 0
M  V30 3449 C 327.545 -0.490658 -4.34639 0
M  V30 3450 C 326.604 0.276587 -5.25473 0
M  V30 3451 O 325.63 -0.326614 -5.68262 0
M  V30 3452 N 326.832 1.56844 -5.5891 0
M  V30 3453 H 329.597 -1.29931 -2.70071 0
M  V30 3454 H 327.158 -0.830181 -1.38995 0
M  V30 3455 H 329.15 0.905228 -3.94446 0
M  V30 3456 H 327.72 1.14377 -2.90924 0
M  V30 3457 H 326.94 -1.19282 -3.7572 0
M  V30 3458 H 328.228 -1.08756 -4.97041 0
M  V30 3459 H 327.626 2.08036 -5.26059 0
M  V30 3460 H 326.183 2.03541 -6.19205 0
M  V30 3461 N 329.616 1.39756 -0.72842 0
M  V30 3462 C 330.566 2.2792 -0.0603424 0
M  V30 3463 C 331.55 1.43922 0.719399 0
M  V30 3464 O 332.742 1.66895 0.589489 0
M  V30 3465 C 329.871 3.32582 0.851104 0
M  V30 3466 C 328.957 4.24049 0.0658641 0
M  V30 3467 N 329.348 4.96653 -0.957578 0
M  V30 3468 C 327.646 4.45013 0.296509 0
M  V30 3469 C 328.347 5.63836 -1.43052 0
M  V30 3470 N 327.323 5.38397 -0.750315 0
M  V30 3471 H 331.125 2.81504 -0.84455 0
M  V30 3472 H 328.639 1.5236 -0.562155 0
M  V30 3473 H 330.636 3.94603 1.34514 0
M  V30 3474 H 329.296 2.80558 1.63454 0
M  V30 3475 H 330.307 5.00297 -1.33877 0
M  V30 3476 H 326.984 4.03943 1.05527 0
M  V30 3477 H 328.374 6.31974 -2.28163 0
M  V30 3478 N 331.094 0.475555 1.50254 0
M  V30 3479 C 332.342 -0.077738 2.0195 0
M  V30 3480 C 332.663 -1.39813 1.35931 0
M  V30 3481 O 331.933 -1.89249 0.506123 0
M  V30 3482 H 330.513 -0.031719 0.746326 0
M  V30 3483 H 333.175 0.626995 1.84539 0
M  V30 3484 H 332.271 -0.225995 3.11281 0
M  V30 3485 N 332.573 -1.56217 0.208337 0
M  V30 3486 C 333.989 -1.58919 -0.14729 0
M  V30 3487 C 334.189 -1.22486 -1.59998 0
M  V30 3488 O 333.245 -0.953849 -2.3379 0
M  V30 3489 C 334.558 -3.00236 0.167048 0
M  V30 3490 C 336.106 -3.12813 0.108219 0
M  V30 3491 C 336.581 -4.56284 0.396049 0
M  V30 3492 N 338.072 -4.61912 0.345142 0
M  V30 3493 C 338.807 -5.70837 0.541523 0
M  V30 3494 N 338.303 -6.88178 0.798968 0
M  V30 3495 N 340.096 -5.60091 0.474867 0
M  V30 3496 H 332.247 -1.78177 1.15614 0
M  V30 3497 H 334.51 -0.827555 0.462446 0
M  V30 3498 H 334.216 -3.31499 1.1748 0
M  V30 3499 H 334.09 -3.7354 -0.524184 0
M  V30 3500 H 336.477 -2.81354 -0.890157 0
M  V30 3501 H 336.558 -2.41866 0.832729 0
M  V30 3502 H 336.202 -4.88458 1.3918 0
M  V30 3503 H 336.132 -5.25439 -0.349502 0
M  V30 3504 H 338.623 -3.77589 0.153316 0
M  V30 3505 H 338.936 -7.67095 0.93727 0
M  V30 3506 H 337.281 -6.89953 0.836013 0
M  V30 3507 H 340.472 -4.67297 0.274064 0
M  V30 3508 H 340.645 -6.44917 0.631326 0
M  V30 3509 N 334.051 0.0651679 -1.57465 0
M  V30 3510 C 335.014 1.06117 -2.03155 0
M  V30 3511 C 336.014 1.31204 -0.929632 0
M  V30 3512 O 337.204 1.26813 -1.19432 0
M  V30 3513 C 334.336 2.4032 -2.41783 0
M  V30 3514 H 335.529 0.667231 -2.92383 0
M  V30 3515 H 333.082 0.311075 -1.53173 0
M  V30 3516 H 333.817 2.84532 -1.55601 0
M  V30 3517 H 333.602 2.23451 -3.22199 0
M  V30 3518 H 335.092 3.11898 -2.77685 0
M  V30 3519 N 335.529 1.53961 0.336706 0
M  V30 3520 C 336.459 1.85417 1.41925 0
M  V30 3521 C 337.44 0.709856 1.5458 0
M  V30 3522 O 338.625 0.962396 1.68676 0
M  V30 3523 C 335.755 2.06985 2.78881 0
M  V30 3524 C 334.709 3.22813 2.81026 0
M  V30 3525 C 334.035 3.29727 4.20932 0
M  V30 3526 C 335.335 4.60767 2.45949 0
M  V30 3527 H 337.029 2.76079 1.15848 0
M  V30 3528 H 334.575 1.32839 0.555859 0
M  V30 3529 H 336.528 2.27575 3.54665 0
M  V30 3530 H 335.252 1.13061 3.06406 0
M  V30 3531 H 333.911 3.0209 2.07695 0
M  V30 3532 H 333.559 2.33385 4.45579 0
M  V30 3533 H 333.259 4.07566 4.23277 0
M  V30 3534 H 334.783 3.52536 4.98549 0
M  V30 3535 H 336.197 4.81325 3.11446 0
M  V30 3536 H 334.594 5.4106 2.59566 0
M  V30 3537 H 335.664 4.6391 1.41122 0
M  V30 3538 N 337.007 -0.598083 1.45811 0
M  V30 3539 C 337.94 -1.7223 1.49706 0
M  V30 3540 C 338.918 -1.58732 0.352535 0
M  V30 3541 O 340.102 -1.80162 0.554438 0
M  V30 3542 C 337.229 -3.10148 1.3611 0
M  V30 3543 C 336.275 -3.42209 2.54549 0
M  V30 3544 S 337.108 -3.35989 4.16979 0
M  V30 3545 C 338.264 -4.76471 4.05865 0
M  V30 3546 H 338.497 -1.68665 2.44826 0
M  V30 3547 H 336.03 -0.775541 1.33509 0
M  V30 3548 H 337.988 -3.8972 1.28953 0
M  V30 3549 H 336.649 -3.11219 0.424451 0
M  V30 3550 H 335.842 -4.42652 2.40988 0
M  V30 3551 H 335.444 -2.70173 2.58617 0
M  V30 3552 H 337.736 -5.665 3.71596 0
M  V30 3553 H 338.679 -4.95089 5.06253 0
M  V30 3554 H 339.087 -4.52599 3.37364 0
M  V30 3555 N 338.485 -1.33259 -0.841409 0
M  V30 3556 C 339.435 -1.19872 -1.93945 0
M  V30 3557 C 340.419 -0.102269 -1.60575 0
M  V30 3558 O 341.611 -0.330114 -1.73894 0
M  V30 3559 C 338.74 -0.937517 -3.30251 0
M  V30 3560 C 337.826 -2.07629 -3.69799 0
M  V30 3561 N 338.217 -3.32604 -3.81062 0
M  V30 3562 C 336.515 -1.98242 -3.9952 0
M  V30 3563 C 337.216 -4.07275 -4.15333 0
M  V30 3564 N 336.192 -3.35691 -4.27566 0
M  V30 3565 H 339.994 -2.14604 -2.00805 0
M  V30 3566 H 337.508 -1.2523 -1.03398 0
M  V30 3567 H 339.505 -0.822545 -4.08705 0
M  V30 3568 H 338.165 0.00128798 -3.247 0
M  V30 3569 H 339.176 -3.67382 -3.65035 0
M  V30 3570 H 335.853 -1.12005 -4.02195 0
M  V30 3571 H 337.243 -5.1511 -4.31406 0
M  V30 3572 N 339.963 1.05934 -1.16686 0
M  V30 3573 C 340.893 2.1546 -0.899949 0
M  V30 3574 C 341.874 1.69391 0.155154 0
M  V30 3575 O 343.059 1.94199 0.00648693 0
M  V30 3576 C 340.189 3.44939 -0.404241 0
M  V30 3577 C 339.143 4.04536 -1.39767 0
M  V30 3578 C 338.469 5.29268 -0.760216 0
M  V30 3579 C 339.769 4.42893 -2.76845 0
M  V30 3580 H 341.463 2.38046 -1.81588 0
M  V30 3581 H 339.009 1.14404 -0.874514 0
M  V30 3582 H 340.962 4.20901 -0.204971 0
M  V30 3583 H 339.686 3.21983 0.547206 0
M  V30 3584 H 338.345 3.30635 -1.58355 0
M  V30 3585 H 337.993 5.02611 0.197831 0
M  V30 3586 H 337.693 5.70101 -1.42332 0
M  V30 3587 H 339.217 6.07924 -0.57105 0
M  V30 3588 H 340.631 5.09921 -2.62019 0
M  V30 3589 H 339.028 4.94721 -3.39663 0
M  V30 3590 H 340.098 3.53584 -3.31823 0
M  V30 3591 N 341.441 0.965919 1.2453 0
M  V30 3592 C 342.389 0.486506 2.27455 0
M  V30 3593 C 343.383 -0.449041 1.6334 0
M  V30 3594 O 344.589 -0.324527 1.7705 0
M  V30 3595 H 340.964 0.138857 0.739069 0
M  V30 3596 H 342.935 1.3666 2.65267 0
M  V30 3597 C 341.684 -0.209481 3.47068 0
M  V30 3598 H 341.007 0.50129 3.96645 0
M  V30 3599 H 342.447 -0.508775 4.20936 0
M  V30 3600 C 340.906 -1.43586 3.0477 0
M  V30 3601 O 341.436 -2.53299 3.11773 0
M  V30 3602 N 339.642 -1.30126 2.59838 0
M  V30 3603 H 339.189 -0.408583 2.54339 0
M  V30 3604 H 339.147 -2.12294 2.31902 0
M  V30 3605 N 342.919 -1.39368 0.735821 0
M  V30 3606 C 343.882 -2.2896 0.104874 0
M  V30 3607 C 344.882 -1.46347 -0.666274 0
M  V30 3608 O 346.072 -1.67014 -0.49517 0
M  V30 3609 C 343.204 -3.29857 -0.860656 0
M  V30 3610 H 344.397 -2.86259 0.894205 0
M  V30 3611 H 341.95 -1.48029 0.501704 0
M  V30 3612 H 342.685 -2.77615 -1.67631 0
M  V30 3613 H 342.47 -3.9087 -0.310327 0
M  V30 3614 H 343.96 -3.96893 -1.29867 0
M  V30 3615 N 344.397 -0.483516 -1.5 0
M  V30 3616 C 345.625 0.0644831 -2.06799 0
M  V30 3617 C 346.04 1.32399 -1.34596 0
M  V30 3618 O 345.397 1.77626 -0.418946 0
M  V30 3619 C 345.448 0.339927 -3.59898 0
M  V30 3620 O 345.169 -0.869635 -4.29382 0
M  V30 3621 C 346.67 0.933515 -4.33359 0
M  V30 3622 H 343.89 -0.0126333 -0.670881 0
M  V30 3623 H 346.434 -0.675864 -1.93009 0
M  V30 3624 H 344.589 1.03022 -3.7345 0
M  V30 3625 H 345.003 -0.62179 -5.20801 0
M  V30 3626 H 346.477 1.07593 -5.41413 0
M  V30 3627 H 346.954 1.92685 -3.94676 0
M  V30 3628 H 347.56 0.281221 -4.24369 0
M  V30 3629 N 345.875 1.56104 -0.216619 0
M  V30 3630 C 346.805 2.23063 0.690296 0
M  V30 3631 C 347.786 1.20072 1.20485 0
M  V30 3632 O 348.971 1.48643 1.24976 0
M  V30 3633 C 346.101 2.90672 1.90072 0
M  V30 3634 C 345.055 4.00092 1.5202 0
M  V30 3635 C 344.381 4.54972 2.80899 0
M  V30 3636 C 345.681 5.17398 0.71391 0
M  V30 3637 H 347.375 2.99109 0.132038 0
M  V30 3638 H 344.921 1.43866 0.0620664 0
M  V30 3639 H 346.874 3.36204 2.54057 0
M  V30 3640 H 345.598 2.12066 2.48386 0
M  V30 3641 H 344.257 3.55283 0.903839 0
M  V30 3642 H 343.905 3.73102 3.37348 0
M  V30 3643 H 343.605 5.28817 2.56176 0
M  V30 3644 H 345.129 5.0322 3.45836 0
M  V30 3645 H 346.543 5.59342 1.25735 0
M  V30 3646 H 344.94 5.97444 0.563951 0
M  V30 3647 H 346.01 4.84088 -0.280527 0
M  V30 3648 N 347.353 -0.0568162 1.57498 0
M  V30 3649 C 348.769 -0.411933 1.54192 0
M  V30 3650 C 348.969 -1.78287 0.938942 0
M  V30 3651 O 348.025 -2.46483 0.547919 0
M  V30 3652 C 349.338 -0.339244 2.9878 0
M  V30 3653 C 350.886 -0.418348 3.10192 0
M  V30 3654 C 351.361 -0.375407 4.56459 0
M  V30 3655 N 352.852 -0.435038 4.61153 0
M  V30 3656 C 353.587 -0.424265 5.71828 0
M  V30 3657 N 353.083 -0.367418 6.91825 0
M  V30 3658 N 354.876 -0.471938 5.60115 0
M  V30 3659 H 347.027 0.840684 1.95055 0
M  V30 3660 H 349.29 0.316987 0.893433 0
M  V30 3661 H 348.996 0.601742 3.46514 0
M  V30 3662 H 348.87 -1.14371 3.59443 0
M  V30 3663 H 351.257 -1.34976 2.62422 0
M  V30 3664 H 351.338 0.414962 2.52412 0
M  V30 3665 H 350.982 0.552219 5.04889 0
M  V30 3666 H 350.912 -1.22645 5.12119 0
M  V30 3667 H 353.403 -0.482612 3.74806 0
M  V30 3668 H 353.716 -0.363535 7.71944 0
M  V30 3669 H 352.061 -0.333879 6.94198 0
M  V30 3670 H 355.252 -0.514145 4.65268 0
M  V30 3671 H 355.425 -0.460073 6.46365 0
M  V30 3672 N 348.832 -1.54138 -0.328536 0
M  V30 3673 C 350.08 -1.71765 -1.06496 0
M  V30 3674 C 350.401 -0.49149 -1.88704 0
M  V30 3675 O 349.671 0.494539 -1.89555 0
M  V30 3676 H 348.251 -0.633295 -0.396164 0
M  V30 3677 H 350.913 -1.91429 -0.366176 0
M  V30 3678 H 350.009 -2.5951 -1.73381 0
M  V30 3679 N 350.31 0.590341 -1.46126 0
M  V30 3680 C 351.556 1.34874 -1.52252 0
M  V30 3681 C 351.911 1.91658 -0.168807 0
M  V30 3682 O 351.204 1.73093 0.821556 0
M  V30 3683 C 351.398 2.5032 -2.55097 0
M  V30 3684 C 351.227 2.04843 -4.00337 0
M  V30 3685 C 349.997 1.90213 -4.68132 0
M  V30 3686 C 352.195 1.61267 -4.88362 0
M  V30 3687 N 350.177 1.38727 -5.9802 0
M  V30 3688 C 351.548 1.21319 -6.08015 0
M  V30 3689 C 353.603 1.49015 -4.75078 0
M  V30 3690 C 352.306 0.7034 -7.15852 0
M  V30 3691 C 354.332 0.994401 -5.8298 0
M  V30 3692 C 353.694 0.604659 -7.018 0
M  V30 3693 H 349.793 0.486803 -0.612002 0
M  V30 3694 H 352.377 0.673007 -1.82698 0
M  V30 3695 H 350.548 3.15466 -2.26574 0
M  V30 3696 H 352.28 3.1725 -2.51266 0
M  V30 3697 H 349.035 2.11927 -4.23537 0
M  V30 3698 H 349.459 1.15168 -6.67132 0
M  V30 3699 H 354.101 1.77768 -3.83612 0
M  V30 3700 H 351.819 0.403446 -8.07092 0
M  V30 3701 H 355.405 0.903621 -5.7474 0
M  V30 3702 H 354.285 0.226963 -7.83871 0
M  V30 3703 N 351.788 1.33704 0.83433 0
M  V30 3704 C 352.735 1.24335 1.94447 0
M  V30 3705 C 353.705 0.120991 1.65659 0
M  V30 3706 O 354.89 0.300035 1.88426 0
M  V30 3707 C 352.03 0.993124 3.30501 0
M  V30 3708 C 351.143 2.20217 3.71657 0
M  V30 3709 C 350.278 1.88572 4.96602 0
M  V30 3710 C 349.317 3.05683 5.30306 0
M  V30 3711 N 348.454 2.73997 6.46429 0
M  V30 3712 H 353.294 2.1928 2.01792 0
M  V30 3713 H 350.831 1.09035 0.987404 0
M  V30 3714 H 352.789 0.828467 4.08892 0
M  V30 3715 H 351.419 0.0803902 3.227 0
M  V30 3716 H 350.471 2.47642 2.88752 0
M  V30 3717 H 351.783 3.07752 3.92543 0
M  V30 3718 H 350.937 1.68776 5.82752 0
M  V30 3719 H 349.676 0.982799 4.77695 0
M  V30 3720 H 348.681 3.26088 4.42659 0
M  V30 3721 H 349.906 3.96737 5.51159 0
M  V30 3722 H 347.852 1.86268 6.28999 0
M  V30 3723 H 347.769 3.55064 6.67432 0
M  V30 3724 H 349.037 2.57679 7.35678 0
M  V30 3725 N 353.266 -1.05314 1.17247 0
M  V30 3726 C 354.229 -2.112 0.890357 0
M  V30 3727 C 355.229 -1.60359 -0.118943 0
M  V30 3728 O 356.419 -1.73833 0.113086 0
M  V30 3729 C 353.551 -3.39266 0.333422 0
M  V30 3730 H 354.744 -2.37659 1.82916 0
M  V30 3731 H 352.297 -1.21538 0.982758 0
M  V30 3732 H 353.032 -3.18462 -0.612587 0
M  V30 3733 H 352.817 -3.77477 1.06082 0
M  V30 3734 H 354.307 -4.17315 0.154322 0
M  V30 3735 N 354.744 -0.972509 -1.24016 0
M  V30 3736 C 355.674 -0.525548 -2.27509 0
M  V30 3737 C 356.655 0.437262 -1.64384 0
M  V30 3738 O 357.84 0.332343 -1.91335 0
M  V30 3739 C 354.97 0.180448 -3.46831 0
M  V30 3740 C 353.924 -0.698859 -4.22256 0
M  V30 3741 C 353.25 0.138903 -5.3452 0
M  V30 3742 C 354.55 -1.98582 -4.83076 0
M  V30 3743 H 356.244 -1.39058 -2.65148 0
M  V30 3744 H 353.79 -0.67009 -1.27459 0
M  V30 3745 H 355.743 0.504387 -4.18371 0
M  V30 3746 H 354.467 1.07987 -3.08231 0
M  V30 3747 H 353.126 -1.00614 -3.52523 0
M  V30 3748 H 352.774 1.03862 -4.9216 0
M  V30 3749 H 352.474 -0.446259 -5.85903 0
M  V30 3750 H 353.998 0.457404 -6.08884 0
M  V30 3751 H 355.412 -1.72715 -5.46665 0
M  V30 3752 H 353.809 -2.5181 -5.44713 0
M  V30 3753 H 354.879 -2.67769 -4.04262 0
M  V30 3754 N 356.222 1.38976 -0.743202 0
M  V30 3755 C 357.447 2.05161 -0.303936 0
M  V30 3756 C 357.872 1.55677 1.05576 0
M  V30 3757 O 357.23 0.704131 1.67068 0
M  V30 3758 C 357.278 3.59138 -0.324373 0
M  V30 3759 O 356.382 4.06668 0.685204 0
M  V30 3760 H 355.723 0.649815 -0.136518 0
M  V30 3761 H 358.253 1.77852 -1.01142 0
M  V30 3762 H 358.263 4.07639 -0.171618 0
M  V30 3763 H 356.938 3.94515 -1.31647 0
M  V30 3764 H 355.515 3.69561 0.497913 0
M  V30 3765 N 357.7 0.491464 1.49741 0
M  V30 3766 C 358.632 -0.328609 2.26832 0
M  V30 3767 C 359.645 -0.939113 1.32983 0
M  V30 3768 O 360.834 -0.824067 1.58339 0
M  V30 3769 C 357.934 -1.47675 3.05033 0
M  V30 3770 C 357.107 -0.975305 4.26388 0
M  V30 3771 C 356.166 -1.99991 4.86714 0
M  V30 3772 O 355.192 -1.57229 5.47054 0
M  V30 3773 N 356.394 -3.32962 4.75517 0
M  V30 3774 H 359.159 0.332377 2.97851 0
M  V30 3775 H 356.72 0.323441 1.58636 0
M  V30 3776 H 358.712 -2.15954 3.42266 0
M  V30 3777 H 357.282 -2.04206 2.36683 0
M  V30 3778 H 356.502 -0.117723 3.94024 0
M  V30 3779 H 357.79 -0.618531 5.05026 0
M  V30 3780 H 357.188 -3.70399 4.27576 0
M  V30 3781 H 355.745 -3.96982 5.16961 0
M  V30 3782 N 359.178 -1.55987 0.224894 0
M  V30 3783 C 360.455 -1.90232 -0.455083 0
M  V30 3784 C 360.835 -1.14269 -1.77499 0
M  V30 3785 O 360.183 -0.253079 -2.27094 0
M  V30 3786 C 360.393 -3.42993 -0.644758 0
M  V30 3787 C 361.741 -4.13821 -0.950669 0
M  V30 3788 O 362.765 -3.4861 -0.731423 0
M  V30 3789 O 361.624 -5.29128 -1.36695 0
M  V30 3790 H 358.718 -0.79108 -0.241084 0
M  V30 3791 H 361.264 -1.67581 0.267327 0
M  V30 3792 H 360.036 -3.90252 0.28613 0
M  V30 3793 H 359.659 -3.71434 -1.41853 0
M  V30 3794 N 360.656 0.0484629 -1.57525 0
M  V30 3795 C 361.566 1.07241 -2.08654 0
M  V30 3796 C 362.582 1.409 -1.02095 0
M  V30 3797 O 363.758 1.50609 -1.33712 0
M  V30 3798 C 360.823 2.36008 -2.5397 0
M  V30 3799 C 359.884 2.09108 -3.7493 0
M  V30 3800 C 359.117 3.31736 -4.18075 0
M  V30 3801 O 359.34 4.41714 -3.60895 0
M  V30 3802 O 358.274 3.18576 -5.10679 0
M  V30 3803 H 362.1 0.667965 -2.96263 0
M  V30 3804 H 359.685 0.26417 -1.47046 0
M  V30 3805 H 361.567 3.11747 -2.83535 0
M  V30 3806 H 360.242 2.75786 -1.69481 0
M  V30 3807 H 359.149 1.31 -3.50414 0
M  V30 3808 H 360.482 1.74198 -4.60343 0
M  V30 3809 N 362.134 1.5431 0.320358 0
M  V30 3810 C 363.064 1.86912 1.3995 0
M  V30 3811 C 364.045 0.726211 1.53819 0
M  V30 3812 O 365.23 0.980233 1.67646 0
M  V30 3813 C 362.36 2.09932 2.7667 0
M  V30 3814 C 361.314 3.25776 2.77586 0
M  V30 3815 C 360.64 3.34173 4.17412 0
M  V30 3816 C 361.94 4.6335 2.41048 0
M  V30 3817 H 363.634 2.77292 1.12914 0
M  V30 3818 H 361.18 1.33421 0.541738 0
M  V30 3819 H 363.133 2.31324 3.52232 0
M  V30 3820 H 361.857 1.16304 3.0519 0
M  V30 3821 H 360.516 3.04276 2.04479 0
M  V30 3822 H 360.164 2.38098 4.43078 0
M  V30 3823 H 359.864 4.12033 4.18931 0
M  V30 3824 H 361.388 3.57803 4.94782 0
M  V30 3825 H 362.802 4.84602 3.06324 0
M  V30 3826 H 361.199 5.43782 2.53813 0
M  V30 3827 H 362.269 4.65381 1.36193 0
M  V30 3828 N 363.613 -0.582584 1.46437 0
M  V30 3829 C 364.859 -1.34064 1.52965 0
M  V30 3830 C 365.214 -1.91566 0.178968 0
M  V30 3831 O 364.507 -1.73526 -0.812365 0
M  V30 3832 C 364.701 -2.48964 2.56421 0
M  V30 3833 C 364.53 -2.02717 4.01417 0
M  V30 3834 C 363.3 -1.87728 4.69134 0
M  V30 3835 C 365.498 -1.58675 4.8921 0
M  V30 3836 N 363.48 -1.35554 5.98747 0
M  V30 3837 C 364.851 -1.18093 6.08649 0
M  V30 3838 C 366.906 -1.46494 4.75861 0
M  V30 3839 C 365.609 -0.665427 7.16215 0
M  V30 3840 C 367.635 -0.96347 5.83499 0
M  V30 3841 C 366.997 -0.567432 7.02111 0
M  V30 3842 H 363.096 -0.483551 0.614575 0
M  V30 3843 H 365.68 -0.663309 1.83053 0
M  V30 3844 H 363.851 -3.1426 2.28244 0
M  V30 3845 H 365.583 -3.15913 2.52944 0
M  V30 3846 H 362.338 -2.09678 4.24655 0
M  V30 3847 H 362.762 -1.11628 6.67734 0
M  V30 3848 H 367.404 -1.75731 3.8455 0
M  V30 3849 H 365.122 -0.360639 8.07295 0
M  V30 3850 H 368.708 -0.873129 5.75211 0
M  V30 3851 H 367.588 -0.185389 7.83981 0
M  V30 3852 N 365.091 -1.34144 -0.827227 0
M  V30 3853 C 366.339 -1.26009 -1.58007 0
M  V30 3854 C 366.66 0.170971 -1.94249 0
M  V30 3855 O 365.93 1.10256 -1.61927 0
M  V30 3856 H 364.51 -0.463414 -0.585881 0
M  V30 3857 H 367.172 -1.68005 -0.987951 0
M  V30 3858 H 366.268 -1.86187 -2.50481 0
M  V30 3859 N 366.569 1.04691 -1.17803 0
M  V30 3860 C 367.499 2.14494 -0.92275 0
M  V30 3861 C 368.48 1.69546 0.137179 0
M  V30 3862 O 369.665 1.94195 -0.0141108 0
M  V30 3863 C 366.795 3.44491 -0.440803 0
M  V30 3864 C 365.749 4.03031 -1.4405 0
M  V30 3865 C 365.075 5.28432 -0.81631 0
M  V30 3866 C 366.375 4.39932 -2.81527 0
M  V30 3867 H 368.069 2.36107 -1.84103 0
M  V30 3868 H 365.615 1.1347 -0.886599 0
M  V30 3869 H 367.568 4.2066 -0.249602 0
M  V30 3870 H 366.292 3.22546 0.513025 0
M  V30 3871 H 364.951 3.28937 -1.61853 0
M  V30 3872 H 364.599 5.02792 0.144511 0
M  V30 3873 H 364.299 5.68559 -1.48371 0
M  V30 3874 H 365.823 6.07284 -0.635496 0
M  V30 3875 H 367.237 5.07113 -2.67412 0
M  V30 3876 H 365.634 4.9109 -3.44892 0
M  V30 3877 H 366.704 3.50045 -3.35554 0
M  V30 3878 N 368.047 0.979072 1.23499 0
M  V30 3879 C 368.997 0.489378 2.22686 0
M  V30 3880 C 369.981 -0.434871 1.54912 0
M  V30 3881 O 371.173 -0.263941 1.75021 0
M  V30 3882 C 368.302 -0.208178 3.42668 0
M  V30 3883 C 367.388 0.735563 4.17672 0
M  V30 3884 N 367.779 1.87763 4.69658 0
M  V30 3885 C 366.077 0.548625 4.42613 0
M  V30 3886 C 366.778 2.46886 5.26709 0
M  V30 3887 N 365.754 1.75287 5.14563 0
M  V30 3888 H 369.556 1.36062 2.60508 0
M  V30 3889 H 367.07 0.83958 1.39014 0
M  V30 3890 H 369.067 -0.576295 4.12898 0
M  V30 3891 H 367.727 -1.07572 3.06363 0
M  V30 3892 H 368.738 2.25885 4.66043 0
M  V30 3893 H 365.415 -0.274006 4.166 0
M  V30 3894 H 366.805 3.43326 5.77561 0
M  V30 3895 N 369.525 -1.3858 0.750561 0
M  V30 3896 C 370.941 -1.53759 0.427824 0
M  V30 3897 C 371.141 -1.71401 -1.05943 0
M  V30 3898 O 370.197 -1.72331 -1.84549 0
M  V30 3899 C 371.51 -2.74642 1.22443 0
M  V30 3900 C 373.058 -2.88489 1.2142 0
M  V30 3901 C 373.533 -4.12329 1.9937 0
M  V30 3902 N 375.024 -4.194 1.96616 0
M  V30 3903 C 375.759 -5.14209 2.53727 0
M  V30 3904 N 375.255 -6.14709 3.19539 0
M  V30 3905 N 377.048 -5.06537 2.43673 0
M  V30 3906 H 369.199 -1.25377 1.71447 0
M  V30 3907 H 371.462 -0.608844 0.726645 0
M  V30 3908 H 371.168 -2.68 2.27747 0
M  V30 3909 H 371.042 -3.67745 0.839273 0
M  V30 3910 H 373.429 -2.94614 0.169232 0
M  V30 3911 H 373.51 -1.96406 1.63885 0
M  V30 3912 H 373.154 -4.06966 3.03877 0
M  V30 3913 H 373.084 -5.03486 1.54302 0
M  V30 3914 H 375.575 -3.47421 1.48684 0
M  V30 3915 H 375.888 -6.8354 3.60545 0
M  V30 3916 H 374.233 -6.1505 3.23633 0
M  V30 3917 H 377.424 -4.26962 1.91889 0
M  V30 3918 H 377.597 -5.80245 2.88479 0
M  V30 3919 N 371.003 -0.499398 -1.49478 0
M  V30 3920 C 371.933 0.269244 -2.31943 0
M  V30 3921 C 372.914 0.964054 -1.40143 0
M  V30 3922 O 374.099 0.955767 -1.69052 0
M  V30 3923 C 371.229 1.33504 -3.20615 0
M  V30 3924 C 370.183 0.760202 -4.21195 0
M  V30 3925 C 369.509 1.9264 -4.98792 0
M  V30 3926 C 370.809 -0.247661 -5.21712 0
M  V30 3927 H 372.503 -0.419082 -2.96452 0
M  V30 3928 H 370.049 -0.202988 -1.42562 0
M  V30 3929 H 372.002 1.88048 -3.77115 0
M  V30 3930 H 370.726 2.05253 -2.54045 0
M  V30 3931 H 369.385 0.23653 -3.65836 0
M  V30 3932 H 369.033 2.63154 -4.28671 0
M  V30 3933 H 368.733 1.54785 -5.66847 0
M  V30 3934 H 370.257 2.4762 -5.58137 0
M  V30 3935 H 371.671 0.209579 -5.72917 0
M  V30 3936 H 370.068 -0.541962 -5.97648 0
M  V30 3937 H 371.138 -1.16409 -4.7072 0
M  V30 3938 N 372.481 1.55866 -0.233164 0
M  V30 3939 C 373.711 2.02704 0.399325 0
M  V30 3940 C 374.119 1.11204 1.53069 0
M  V30 3941 O 373.462 0.116182 1.83332 0
M  V30 3942 C 373.524 3.45844 0.981429 0
M  V30 3943 C 373.188 4.56997 -0.0159561 0
M  V30 3944 C 374.185 5.13384 -0.820552 0
M  V30 3945 C 371.87 5.0211 -0.138072 0
M  V30 3946 C 373.864 6.13365 -1.73386 0
M  V30 3947 C 371.551 6.01926 -1.0549 0
M  V30 3948 C 372.549 6.57431 -1.85132 0
M  V30 3949 O 372.237 7.55302 -2.75272 0
M  V30 3950 H 371.969 0.668459 0.100692 0
M  V30 3951 H 374.523 2.02387 -0.35052 0
M  V30 3952 H 372.753 3.43267 1.78058 0
M  V30 3953 H 374.442 3.76262 1.52255 0
M  V30 3954 H 375.208 4.79372 -0.736721 0
M  V30 3955 H 371.087 4.5858 0.471737 0
M  V30 3956 H 374.631 6.56614 -2.35592 0
M  V30 3957 H 370.528 6.35359 -1.1397 0
M  V30 3958 H 371.296 7.72867 -2.69477 0
M  V30 3959 N 373.959 -0.0401083 1.57549 0
M  V30 3960 C 375.207 -0.731677 1.8839 0
M  V30 3961 C 375.528 -1.76481 0.829425 0
M  V30 3962 O 374.798 -1.95411 -0.1383 0
M  V30 3963 H 373.378 -0.273225 0.695239 0
M  V30 3964 H 376.04 -0.00867725 1.94898 0
M  V30 3965 H 375.136 -1.22816 2.86919 0
M  V30 3966 N 375.437 -1.54477 -0.31217 0
M  V30 3967 C 376.677 -1.74958 -1.05684 0
M  V30 3968 C 377.041 -0.518414 -1.84869 0
M  V30 3969 O 378.242 -0.600759 -2.62001 0
M  V30 3970 C 376.513 -2.99656 -1.94785 0
M  V30 3971 S 378.072 -3.4109 -2.76049 0
M  V30 3972 H 374.89 -0.615104 -0.356606 0
M  V30 3973 H 377.492 -1.92669 -0.331514 0
M  V30 3974 H 376.196 -3.87397 -1.35468 0
M  V30 3975 H 375.727 -2.845 -2.71704 0
M  V30 3976 H 377.742 -2.97283 -3.97287 0
M  V30 3977 N 376.915 0.57481 -1.46744 0
M  V30 3978 C 377.845 1.69337 -1.60771 0
M  V30 3979 C 378.826 1.63825 -0.457736 0
M  V30 3980 O 380.011 1.8172 -0.684947 0
M  V30 3981 C 377.141 3.0798 -1.60517 0
M  V30 3982 C 376.095 3.28327 -2.74564 0
M  V30 3983 C 375.421 4.67578 -2.59373 0
M  V30 3984 C 376.721 3.15398 -4.16319 0
M  V30 3985 H 378.415 1.57853 -2.54407 0
M  V30 3986 H 375.961 0.75799 -1.22436 0
M  V30 3987 H 377.914 3.86061 -1.68923 0
M  V30 3988 H 376.638 3.20381 -0.634305 0
M  V30 3989 H 375.297 2.52649 -2.65639 0
M  V30 3990 H 374.945 4.76755 -1.60353 0
M  V30 3991 H 374.645 4.82144 -3.35873 0
M  V30 3992 H 376.169 5.47817 -2.69682 0
M  V30 3993 H 377.583 3.83315 -4.26313 0
M  V30 3994 H 375.98 3.41482 -4.93468 0
M  V30 3995 H 377.05 2.12372 -4.3592 0
M  V30 3996 N 378.394 1.34581 0.820102 0
M  V30 3997 C 379.671 1.17675 1.56244 0
M  V30 3998 C 380.051 -0.249541 2.0962 0
M  V30 3999 O 379.399 -1.25125 1.91196 0
M  V30 4000 C 379.609 2.23364 2.6816 0
M  V30 4001 C 380.957 2.58485 3.36854 0
M  V30 4002 O 381.981 2.22175 2.78418 0
M  V30 4003 O 380.84 3.20868 4.42386 0
M  V30 4004 H 377.934 0.456333 0.689702 0
M  V30 4005 H 380.48 1.46222 0.861231 0
M  V30 4006 H 379.252 3.19087 2.26493 0
M  V30 4007 H 378.875 1.96009 3.45928 0
M  V30 4008 N 379.872 -1.04064 1.18357 0
M  V30 4009 C 381.288 -1.2947 0.933258 0
M  V30 4010 C 381.488 -1.97466 -0.401169 0
M  V30 4011 O 380.544 -2.25528 -1.13549 0
M  V30 4012 C 381.857 -2.15337 2.09882 0
M  V30 4013 C 383.405 -2.28683 2.13712 0
M  V30 4014 C 383.88 -3.17917 3.29686 0
M  V30 4015 N 385.371 -3.25504 3.29547 0
M  V30 4016 C 386.106 -3.94706 4.15926 0
M  V30 4017 N 385.602 -4.66239 5.12439 0
M  V30 4018 N 387.395 -3.90986 4.0384 0
M  V30 4019 H 379.546 -0.583359 2.04232 0
M  V30 4020 H 381.809 -0.319921 0.892387 0
M  V30 4021 H 381.515 -1.72682 3.06389 0
M  V30 4022 H 381.389 -3.16015 2.05947 0
M  V30 4023 H 383.776 -2.70575 1.17784 0
M  V30 4024 H 383.857 -1.27596 2.21705 0
M  V30 4025 H 383.501 -2.76736 4.25887 0
M  V30 4026 H 383.431 -4.19036 3.1893 0
M  V30 4027 H 385.922 -2.74547 2.59677 0
M  V30 4028 H 386.235 -5.16638 5.74722 0
M  V30 4029 H 384.58 -4.65143 5.16398 0
M  V30 4030 H 387.771 -3.34234 3.27727 0
M  V30 4031 H 387.944 -4.44646 4.71375 0
M  V30 4032 N 381.35 -0.985608 -1.22978 0
M  V30 4033 C 382.28 -0.549649 -2.26939 0
M  V30 4034 C 383.261 0.419803 -1.64838 0
M  V30 4035 O 384.446 0.31203 -1.91677 0
M  V30 4036 C 381.576 0.143652 -3.47003 0
M  V30 4037 C 380.53 -0.743606 -4.21491 0
M  V30 4038 C 379.856 0.0822027 -5.34637 0
M  V30 4039 C 381.156 -2.03694 -4.80943 0
M  V30 4040 H 382.85 -1.41862 -2.63658 0
M  V30 4041 H 380.396 -0.683571 -1.26741 0
M  V30 4042 H 382.349 0.459985 -4.18882 0
M  V30 4043 H 381.073 1.04711 -3.09359 0
M  V30 4044 H 379.732 -1.04347 -3.51436 0
M  V30 4045 H 379.38 0.986359 -4.93234 0
M  V30 4046 H 379.08 -0.508377 -5.85397 0
M  V30 4047 H 380.604 0.392797 -6.09335 0
M  V30 4048 H 382.018 -1.78504 -5.44802 0
M  V30 4049 H 380.415 -2.57573 -5.42011 0
M  V30 4050 H 381.485 -2.72042 -4.01399 0
M  V30 4051 N 382.828 1.3818 -0.7579 0
M  V30 4052 C 384.075 2.00019 -0.315985 0
M  V30 4053 C 384.403 1.60163 1.10355 0
M  V30 4054 O 383.658 0.83264 1.77103 0
M  V30 4055 C 383.957 3.55252 -0.391218 0
M  V30 4056 C 383.623 4.14834 -1.76702 0
M  V30 4057 C 382.285 4.30821 -2.14353 0
M  V30 4058 C 384.637 4.47658 -2.66931 0
M  V30 4059 C 381.965 4.76928 -3.41696 0
M  V30 4060 C 384.317 4.95184 -3.93669 0
M  V30 4061 C 382.981 5.09377 -4.31383 0
M  V30 4062 H 382.251 0.731923 -0.115627 0
M  V30 4063 H 384.898 1.65161 -0.969223 0
M  V30 4064 H 383.203 3.90273 0.34558 0
M  V30 4065 H 384.9 4.00988 -0.030805 0
M  V30 4066 H 381.49 4.02808 -1.46435 0
M  V30 4067 H 385.674 4.34904 -2.39106 0
M  V30 4068 H 380.93 4.86103 -3.70829 0
M  V30 4069 H 385.104 5.19551 -4.63724 0
M  V30 4070 H 382.731 5.44865 -5.30119 0
M  V30 4071 N 384.306 0.507319 1.49211 0
M  V30 4072 C 385.552 -0.0350047 2.0277 0
M  V30 4073 C 385.885 -1.3606 1.38569 0
M  V30 4074 O 385.16 -1.87321 0.523542 0
M  V30 4075 C 385.443 -0.180916 3.59645 0
M  V30 4076 C 385.296 1.16825 4.34364 0
M  V30 4077 C 386.615 -0.918558 4.30407 0
M  V30 4078 H 383.734 -0.0112473 0.736914 0
M  V30 4079 H 386.376 0.659956 1.7817 0
M  V30 4080 H 384.526 -0.772826 3.80736 0
M  V30 4081 H 386.198 1.79952 4.24753 0
M  V30 4082 H 384.441 1.75594 3.96673 0
M  V30 4083 H 385.112 1.01939 5.42506 0
M  V30 4084 H 387.588 -0.41649 4.1401 0
M  V30 4085 H 386.464 -0.989505 5.39907 0
M  V30 4086 H 386.725 -1.96373 3.96093 0
M  V30 4087 N 385.784 -1.5574 0.241426 0
M  V30 4088 C 387.024 -2.00714 -0.38644 0
M  V30 4089 C 387.388 -1.12586 -1.55526 0
M  V30 4090 O 388.589 -1.46992 -2.25048 0
M  V30 4091 C 386.86 -3.48534 -0.791128 0
M  V30 4092 S 388.419 -4.15519 -1.41029 0
M  V30 4093 H 385.237 -0.700484 -0.121834 0
M  V30 4094 H 387.839 -1.92243 0.355377 0
M  V30 4095 H 386.543 -4.10342 0.0689225 0
M  V30 4096 H 386.074 -3.6092 -1.56526 0
M  V30 4097 H 388.089 -4.16352 -2.69936 0
M  V30 4098 N 387.262 0.0317525 -1.57568 0
M  V30 4099 C 388.225 1.01783 -2.0536 0
M  V30 4100 C 389.225 1.29203 -0.957253 0
M  V30 4101 O 390.415 1.24251 -1.22095 0
M  V30 4102 C 387.547 2.35137 -2.46827 0
M  V30 4103 H 388.74 0.605062 -2.93733 0
M  V30 4104 H 386.293 0.278514 -1.53799 0
M  V30 4105 H 387.028 2.81168 -1.61602 0
M  V30 4106 H 386.813 2.16566 -3.26866 0
M  V30 4107 H 388.303 3.05938 -2.84239 0
M  V30 4108 N 388.74 1.54641 0.303973 0
M  V30 4109 C 389.965 1.78092 1.06292 0
M  V30 4110 C 390.39 0.537342 1.80262 0
M  V30 4111 O 389.748 -0.511993 1.7392 0
M  V30 4112 C 389.796 2.98612 2.02147 0
M  V30 4113 O 388.9 2.71528 3.10397 0
M  V30 4114 H 388.241 0.589548 0.305497 0
M  V30 4115 H 390.771 2.01716 0.3423 0
M  V30 4116 H 390.781 3.265 2.44667 0
M  V30 4117 H 389.456 3.88785 1.47714 0
M  V30 4118 H 388.033 2.54648 2.72413 0
M  V30 4119 N 390.218 -0.567019 1.47046 0
M  V30 4120 C 391.464 -1.32434 1.54379 0
M  V30 4121 C 391.819 -1.91365 0.199276 0
M  V30 4122 O 391.112 -1.74378 -0.793915 0
M  V30 4123 C 391.306 -2.4623 2.59047 0
M  V30 4124 C 391.135 -1.98448 4.03545 0
M  V30 4125 C 389.905 -1.82741 4.71098 0
M  V30 4126 C 392.103 -1.53477 4.90866 0
M  V30 4127 N 390.085 -1.29196 6.00151 0
M  V30 4128 C 391.456 -1.1163 6.09868 0
M  V30 4129 C 393.511 -1.41438 4.77388 0
M  V30 4130 C 392.214 -0.589425 7.16881 0
M  V30 4131 C 394.24 -0.901528 5.84488 0
M  V30 4132 C 393.602 -0.492932 7.02673 0
M  V30 4133 H 389.701 -0.477005 0.61967 0
M  V30 4134 H 392.285 -0.643856 1.83746 0
M  V30 4135 H 390.456 -3.11821 2.31564 0
M  V30 4136 H 392.188 -3.13213 2.56281 0
M  V30 4137 H 388.943 -2.05162 4.26855 0
M  V30 4138 H 389.367 -1.0454 6.6888 0
M  V30 4139 H 394.009 -1.71643 3.86392 0
M  V30 4140 H 391.727 -0.274994 8.07632 0
M  V30 4141 H 395.313 -0.812071 5.76105 0
M  V30 4142 H 394.193 -0.102227 7.84133 0
M  V30 4143 N 391.696 -1.35014 -0.812953 0
M  V30 4144 C 392.659 -1.27292 -1.90602 0
M  V30 4145 C 393.659 -0.185817 -1.59723 0
M  V30 4146 O 394.849 -0.439102 -1.68575 0
M  V30 4147 C 391.981 -0.967676 -3.26877 0
M  V30 4148 H 393.174 -2.24479 -1.9887 0
M  V30 4149 H 390.727 -1.19446 -1.00808 0
M  V30 4150 H 391.462 0.0005954 -3.243 0
M  V30 4151 H 391.247 -1.75412 -3.50675 0
M  V30 4152 H 392.737 -0.939085 -4.06904 0
M  V30 4153 N 393.175 1.03435 -1.18907 0
M  V30 4154 C 394.591 1.28973 -0.940111 0
M  V30 4155 C 394.791 1.97676 0.390691 0
M  V30 4156 O 393.847 2.26127 1.12352 0
M  V30 4157 C 395.16 2.14221 -2.11021 0
M  V30 4158 C 396.708 2.27547 -2.14922 0
M  V30 4159 C 397.183 3.16164 -3.31367 0
M  V30 4160 N 398.674 3.23752 -3.31269 0
M  V30 4161 C 399.409 3.92495 -4.18014 0
M  V30 4162 N 398.905 4.63515 -5.14904 0
M  V30 4163 N 400.698 3.88838 -4.05908 0
M  V30 4164 H 392.849 0.57252 -2.04538 0
M  V30 4165 H 395.112 0.315184 -0.894071 0
M  V30 4166 H 394.818 1.71054 -3.073 0
M  V30 4167 H 394.692 3.14919 -2.0762 0
M  V30 4168 H 397.079 2.69947 -1.19217 0
M  V30 4169 H 397.16 1.26418 -2.22378 0
M  V30 4170 H 396.804 2.74474 -4.27348 0
M  V30 4171 H 396.734 4.17339 -3.21148 0
M  V30 4172 H 399.225 2.73167 -2.61129 0
M  V30 4173 H 399.538 5.13583 -5.77453 0
M  V30 4174 H 397.883 4.62398 -5.18857 0
M  V30 4175 H 401.074 3.32491 -3.29495 0
M  V30 4176 H 401.247 4.4214 -4.73726 0
M  V30 4177 N 394.653 0.992116 1.22453 0
M  V30 4178 C 396.069 0.702713 1.43297 0
M  V30 4179 C 396.269 -0.726909 1.87932 0
M  V30 4180 O 395.325 -1.49792 2.0327 0
M  V30 4181 C 396.638 1.70762 2.47509 0
M  V30 4182 C 398.186 1.72298 2.61309 0
M  V30 4183 C 398.661 2.71649 3.68742 0
M  V30 4184 N 400.152 2.70239 3.76199 0
M  V30 4185 C 400.887 3.43778 4.58917 0
M  V30 4186 N 400.383 4.26914 5.45633 0
M  V30 4187 N 402.176 3.32487 4.5322 0
M  V30 4188 H 394.327 1.91543 0.917871 0
M  V30 4189 H 396.59 0.826031 0.465162 0
M  V30 4190 H 396.296 2.73059 2.21657 0
M  V30 4191 H 396.17 1.49985 3.46099 0
M  V30 4192 H 398.557 0.706989 2.86506 0
M  V30 4193 H 398.638 1.97143 1.62997 0
M  V30 4194 H 398.282 3.73397 3.44292 0
M  V30 4195 H 398.212 2.44074 4.66622 0
M  V30 4196 H 400.703 2.09912 3.14237 0
M  V30 4197 H 401.016 4.79855 6.05771 0
M  V30 4198 H 399.361 4.31002 5.45218 0
M  V30 4199 H 402.552 2.6698 3.84499 0
M  V30 4200 H 402.725 3.90058 5.17454 0
M  V30 4201 N 396.131 -1.37776 0.765217 0
M  V30 4202 C 397.379 -1.99454 0.325943 0
M  V30 4203 C 397.7 -1.61049 -1.09947 0
M  V30 4204 O 396.97 -0.872821 -1.75381 0
M  V30 4205 H 395.55 -0.737697 0.117525 0
M  V30 4206 H 398.212 -1.68359 0.981895 0
M  V30 4207 H 397.308 -3.09547 0.398353 0
M  V30 4208 N 397.609 -0.515225 -1.4894 0
M  V30 4209 C 398.856 0.024215 -2.02486 0
M  V30 4210 C 399.184 1.35671 -1.39368 0
M  V30 4211 O 398.439 1.88566 -0.523574 0
M  V30 4212 C 398.738 0.210595 -3.56779 0
M  V30 4213 C 398.404 -1.04569 -4.38607 0
M  V30 4214 C 397.066 -1.39002 -4.60686 0
M  V30 4215 C 399.418 -1.88008 -4.86109 0
M  V30 4216 C 396.746 -2.568 -5.27514 0
M  V30 4217 C 399.098 -3.04972 -5.54234 0
M  V30 4218 C 397.762 -3.39768 -5.74555 0
M  V30 4219 H 397.032 0.00886088 -0.740947 0
M  V30 4220 H 399.679 -0.678263 -1.79086 0
M  V30 4221 H 397.984 0.99572 -3.78936 0
M  V30 4222 H 399.681 0.642659 -3.95817 0
M  V30 4223 H 396.271 -0.767497 -4.21672 0
M  V30 4224 H 400.455 -1.62719 -4.68867 0
M  V30 4225 H 395.711 -2.8398 -5.41447 0
M  V30 4226 H 399.885 -3.69943 -5.90013 0
M  V30 4227 H 397.512 -4.31148 -6.26112 0
M  V30 4228 N 399.087 1.5561 -0.249682 0
M  V30 4229 C 400.327 2.00916 0.37579 0
M  V30 4230 C 400.691 1.13409 1.54927 0
M  V30 4231 O 401.892 1.48183 2.24266 0
M  V30 4232 C 400.163 3.48949 0.772633 0
M  V30 4233 S 401.722 4.16261 1.38824 0
M  V30 4234 H 398.54 0.70112 0.118117 0
M  V30 4235 H 401.142 1.92052 -0.365567 0
M  V30 4236 H 399.846 4.103 -0.090683 0
M  V30 4237 H 399.377 3.61745 1.5461 0
M  V30 4238 H 401.392 4.17778 2.67724 0
M  V30 4239 N 400.565 -0.0233959 1.57583 0
M  V30 4240 C 401.842 -0.748794 1.807 0
M  V30 4241 C 402.222 -1.9327 0.849106 0
M  V30 4242 O 401.57 -2.28247 -0.107468 0
M  V30 4243 C 401.78 -1.17651 3.28571 0
M  V30 4244 C 403.128 -1.59008 3.93702 0
M  V30 4245 O 404.152 -1.27094 3.32755 0
M  V30 4246 O 403.011 -2.18264 5.01022 0
M  V30 4247 H 400.105 -0.362578 0.743281 0
M  V30 4248 H 402.651 0.000261958 1.697 0
M  V30 4249 H 401.423 -0.331603 3.89892 0
M  V30 4250 H 401.046 -1.98541 3.44481 0
M  V30 4251 N 402.043 -1.548 -0.295768 0
M  V30 4252 C 403.006 -1.85363 -1.34808 0
M  V30 4253 C 404.006 -0.726817 -1.43436 0
M  V30 4254 O 405.196 -0.995088 -1.42981 0
M  V30 4255 C 402.328 -2.03859 -2.73229 0
M  V30 4256 H 403.521 -2.7941 -1.08949 0
M  V30 4257 H 401.074 -1.46942 -0.532702 0
M  V30 4258 H 401.809 -1.12117 -3.04303 0
M  V30 4259 H 401.594 -2.8588 -2.68356 0
M  V30 4260 H 403.084 -2.28857 -3.49305 0
M  V30 4261 N 403.521 0.559213 -1.47345 0
M  V30 4262 C 404.937 0.884943 -1.32819 0
M  V30 4263 C 405.137 1.98988 -0.317173 0
M  V30 4264 O 404.193 2.51031 0.272011 0
M  V30 4265 C 405.506 1.28007 -2.72093 0
M  V30 4266 C 407.054 1.39161 -2.80363 0
M  V30 4267 C 407.529 1.82031 -4.20272 0
M  V30 4268 N 409.02 1.89185 -4.22804 0
M  V30 4269 C 409.755 2.2368 -5.27973 0
M  V30 4270 N 409.251 2.56802 -6.43447 0
M  V30 4271 N 411.044 2.24436 -5.15349 0
M  V30 4272 H 403.195 -0.170304 -2.11716 0
M  V30 4273 H 405.458 -0.0135247 -0.947904 0
M  V30 4274 H 405.164 0.542027 -3.47498 0
M  V30 4275 H 405.038 2.23665 -3.03733 0
M  V30 4276 H 407.425 2.12048 -2.05231 0
M  V30 4277 H 407.506 0.41696 -2.52379 0
M  V30 4278 H 407.15 1.09715 -4.95908 0
M  V30 4279 H 407.08 2.80495 -4.45679 0
M  V30 4280 H 409.571 1.65982 -3.39497 0
M  V30 4281 H 409.884 2.82144 -7.19454 0
M  V30 4282 H 408.229 2.54387 -6.46771 0
M  V30 4283 H 411.42 1.97998 -4.24163 0
M  V30 4284 H 411.593 2.50989 -5.97418 0
M  V30 4285 N 404.999 1.35443 0.805782 0
M  V30 4286 C 406.415 1.15499 1.10146 0
M  V30 4287 C 406.615 -0.0319975 2.01475 0
M  V30 4288 O 405.671 -0.70236 2.42535 0
M  V30 4289 C 406.984 2.45833 1.73166 0
M  V30 4290 C 408.532 2.52047 1.85583 0
M  V30 4291 C 409.007 3.82427 2.52019 0
M  V30 4292 N 410.498 3.83682 2.59504 0
M  V30 4293 C 411.233 4.81294 3.11679 0
M  V30 4294 N 410.729 5.89294 3.64287 0
M  V30 4295 N 412.522 4.6873 3.1024 0
M  V30 4296 H 404.673 2.11469 0.198678 0
M  V30 4297 H 406.936 0.93594 0.150731 0
M  V30 4298 H 406.642 3.32874 1.13526 0
M  V30 4299 H 406.516 2.6044 2.72857 0
M  V30 4300 H 408.903 1.65435 2.44367 0
M  V30 4301 H 408.984 2.41354 0.847455 0
M  V30 4302 H 408.628 4.69437 1.93885 0
M  V30 4303 H 408.558 3.90409 3.53395 0
M  V30 4304 H 411.049 3.05648 2.22234 0
M  V30 4305 H 411.362 6.59768 4.02401 0
M  V30 4306 H 409.707 5.92985 3.62483 0
M  V30 4307 H 412.898 3.83496 2.68419 0
M  V30 4308 H 413.071 5.44965 3.50596 0
M  V30 4309 N 406.477 -1.02803 1.19454 0
M  V30 4310 C 407.893 -1.28473 0.946937 0
M  V30 4311 C 408.093 -1.97881 -0.380202 0
M  V30 4312 O 407.149 -2.26719 -1.11151 0
M  V30 4313 C 408.462 -2.13099 2.12154 0
M  V30 4314 C 410.01 -2.26404 2.16126 0
M  V30 4315 C 410.485 -3.14402 3.33039 0
M  V30 4316 N 411.976 -3.21991 3.32981 0
M  V30 4317 C 412.711 -3.90272 4.20089 0
M  V30 4318 N 412.207 -4.60777 5.17355 0
M  V30 4319 N 414 -3.8668 4.07964 0
M  V30 4320 H 406.151 -0.561665 2.04839 0
M  V30 4321 H 408.414 -0.310438 0.89573 0
M  V30 4322 H 408.12 -1.69422 3.08203 0
M  V30 4323 H 407.994 -3.13813 2.09287 0
M  V30 4324 H 410.381 -2.69311 1.20647 0
M  V30 4325 H 410.462 -1.25237 2.23045 0
M  V30 4326 H 410.106 -2.72204 4.28798 0
M  V30 4327 H 410.036 -4.1563 3.23356 0
M  V30 4328 H 412.527 -2.71778 2.62574 0
M  V30 4329 H 412.84 -5.10513 5.80169 0
M  V30 4330 H 411.185 -4.5964 5.21302 0
M  V30 4331 H 414.376 -3.30739 3.31254 0
M  V30 4332 H 414.549 -4.39621 4.76064 0
M  V30 4333 N 407.956 -0.998596 -1.21925 0
M  V30 4334 C 408.886 -0.573688 -2.26343 0
M  V30 4335 C 409.867 0.402296 -1.65274 0
M  V30 4336 O 411.052 0.291683 -1.91997 0
M  V30 4337 C 408.182 0.106839 -3.47136 0
M  V30 4338 C 407.136 -0.788269 -4.20678 0
M  V30 4339 C 406.462 0.0254927 -5.34694 0
M  V30 4340 C 407.762 -2.08784 -4.78755 0
M  V30 4341 H 409.456 -1.44651 -2.62138 0
M  V30 4342 H 407.002 -0.696975 -1.26009 0
M  V30 4343 H 408.955 0.415531 -4.19346 0
M  V30 4344 H 407.679 1.01424 -3.10452 0
M  V30 4345 H 406.338 -1.08069 -3.50309 0
M  V30 4346 H 405.986 0.933989 -4.94253 0
M  V30 4347 H 405.686 -0.570437 -5.84825 0
M  V30 4348 H 407.21 0.328147 -6.09718 0
M  V30 4349 H 408.624 -1.84272 -5.42878 0
M  V30 4350 H 407.021 -2.63307 -5.39249 0
M  V30 4351 H 408.091 -2.76284 -3.98491 0
M  V30 4352 N 409.434 1.37368 -0.772513 0
M  V30 4353 C 410.367 2.27956 -0.105593 0
M  V30 4354 C 411.345 1.46362 0.708295 0
M  V30 4355 O 412.529 1.75695 0.682895 0
M  V30 4356 C 409.656 3.27687 0.856686 0
M  V30 4357 C 408.702 4.26312 0.1267 0
M  V30 4358 S 409.535 5.22206 -1.1858 0
M  V30 4359 C 410.691 6.25488 -0.227081 0
M  V30 4360 H 410.924 2.84171 -0.87372 0
M  V30 4361 H 408.457 1.43654 -0.565939 0
M  V30 4362 H 410.415 3.85653 1.40648 0
M  V30 4363 H 409.076 2.70417 1.59793 0
M  V30 4364 H 408.269 4.96674 0.856212 0
M  V30 4365 H 407.871 3.72339 -0.352117 0
M  V30 4366 H 410.163 6.74836 0.600231 0
M  V30 4367 H 411.106 7.02371 -0.898899 0
M  V30 4368 H 411.514 5.64267 0.162053 0
M  V30 4369 N 410.912 0.523116 1.48665 0
M  V30 4370 C 411.859 -0.243398 2.29513 0
M  V30 4371 C 412.829 -0.940139 1.36933 0
M  V30 4372 O 414.014 -0.942503 1.65896 0
M  V30 4373 C 411.154 -1.28855 3.20141 0
M  V30 4374 C 410.267 -0.60135 4.27794 0
M  V30 4375 C 409.402 -1.62884 5.05611 0
M  V30 4376 C 408.441 -0.924726 6.05075 0
M  V30 4377 N 407.578 -1.89744 6.75975 0
M  V30 4378 H 412.418 0.452234 2.94549 0
M  V30 4379 H 409.955 0.234858 1.45213 0
M  V30 4380 H 411.913 -1.90674 3.71079 0
M  V30 4381 H 410.543 -1.95266 2.57043 0
M  V30 4382 H 409.595 0.130623 3.80176 0
M  V30 4383 H 410.907 -0.0481585 4.98777 0
M  V30 4384 H 410.061 -2.32149 5.60528 0
M  V30 4385 H 408.8 -2.21592 4.34452 0
M  V30 4386 H 407.805 -0.217966 5.49368 0
M  V30 4387 H 409.03 -0.343851 6.78229 0
M  V30 4388 H 406.976 -2.47373 6.07571 0
M  V30 4389 H 406.893 -1.3955 7.43009 0
M  V30 4390 H 408.161 -2.58229 7.35485 0
M  V30 4391 N 412.39 -1.55475 0.257931 0
M  V30 4392 C 413.806 -1.59307 -0.0966563 0
M  V30 4393 C 414.006 -1.27514 -1.5602 0
M  V30 4394 O 413.062 -1.02774 -2.30637 0
M  V30 4395 C 414.375 -2.99552 0.262481 0
M  V30 4396 C 415.923 -3.1231 0.207683 0
M  V30 4397 C 416.398 -4.54793 0.541012 0
M  V30 4398 N 417.889 -4.6058 0.491921 0
M  V30 4399 C 418.624 -5.68825 0.722857 0
M  V30 4400 N 418.12 -6.85287 1.0175 0
M  V30 4401 N 419.913 -5.58296 0.652815 0
M  V30 4402 H 412.064 -1.74409 1.21224 0
M  V30 4403 H 414.327 -0.812424 0.48854 0
M  V30 4404 H 414.033 -3.27593 1.27967 0
M  V30 4405 H 413.907 -3.75019 -0.40508 0
M  V30 4406 H 416.294 -2.84044 -0.800195 0
M  V30 4407 H 416.375 -2.39095 0.909255 0
M  V30 4408 H 416.019 -4.83783 1.5465 0
M  V30 4409 H 415.949 -5.26285 -0.18216 0
M  V30 4410 H 418.44 -3.7691 0.273366 0
M  V30 4411 H 418.753 -7.63725 1.18084 0
M  V30 4412 H 417.098 -6.86945 1.05509 0
M  V30 4413 H 420.289 -4.66189 0.422592 0
M  V30 4414 H 420.462 -6.42582 0.836182 0
M  V30 4415 N 413.868 0.0150385 -1.57593 0
M  V30 4416 C 414.798 1.01047 -2.10503 0
M  V30 4417 C 415.779 1.36816 -1.01071 0
M  V30 4418 O 416.964 1.45455 -1.28672 0
M  V30 4419 C 414.094 2.30708 -2.59598 0
M  V30 4420 C 413.048 2.09142 -3.73421 0
M  V30 4421 C 412.374 3.44685 -4.08774 0
M  V30 4422 C 413.674 1.46619 -5.01298 0
M  V30 4423 H 415.368 0.569978 -2.93925 0
M  V30 4424 H 412.914 0.272724 -1.41394 0
M  V30 4425 H 414.867 3.00687 -2.95238 0
M  V30 4426 H 413.591 2.76843 -1.73279 0
M  V30 4427 H 412.25 1.41592 -3.38153 0
M  V30 4428 H 411.898 3.88495 -3.195 0
M  V30 4429 H 411.598 3.31077 -4.8545 0
M  V30 4430 H 413.122 4.16004 -4.4696 0
M  V30 4431 H 414.536 2.06535 -5.34805 0
M  V30 4432 H 412.933 1.43544 -5.82679 0
M  V30 4433 H 414.003 0.433611 -4.82957 0
M  V30 4434 N 415.346 1.54954 0.287554 0
M  V30 4435 C 416.586 1.76617 1.02887 0
M  V30 4436 C 416.95 0.547759 1.84021 0
M  V30 4437 O 418.151 0.642365 2.61012 0
M  V30 4438 C 416.422 3.02717 1.89993 0
M  V30 4439 S 417.981 3.45438 2.70588 0
M  V30 4440 H 414.799 0.6207 0.346775 0
M  V30 4441 H 417.401 1.93172 0.30082 0
M  V30 4442 H 416.105 3.89503 1.29287 0
M  V30 4443 H 415.636 2.88787 2.67144 0
M  V30 4444 H 417.651 3.03566 3.92508 0
M  V30 4445 N 416.824 -0.551391 1.4764 0
M  V30 4446 C 418.235 -1.13349 1.48354 0
M  V30 4447 C 418.586 -1.94709 0.241432 0
M  V30 4448 O 417.711 -2.06306 -0.653205 0
M  V30 4449 C 418.306 -2.0623 2.68802 0
M  V30 4450 C 416.865 -2.597 2.72457 0
M  V30 4451 C 416.012 -1.36201 2.41546 0
M  V30 4452 H 418.963 -0.337698 1.55065 0
M  V30 4453 H 418.984 -2.90196 2.46103 0
M  V30 4454 H 418.496 -1.46987 3.59188 0
M  V30 4455 H 416.597 -3.22724 1.86225 0
M  V30 4456 H 416.71 -3.00296 3.73308 0
M  V30 4457 H 415.074 -1.67068 1.9225 0
M  V30 4458 H 415.857 -0.787425 3.34147 0
M  V30 4459 N 418.302 -1.35869 -0.798587 0
M  V30 4460 C 419.527 -1.32883 -1.59238 0
M  V30 4461 C 419.952 0.0894587 -1.87887 0
M  V30 4462 O 419.31 1.05869 -1.47178 0
M  V30 4463 C 419.358 -2.14892 -2.89575 0
M  V30 4464 O 418.462 -1.53512 -3.82763 0
M  V30 4465 H 417.803 -0.455236 -0.48338 0
M  V30 4466 H 420.333 -1.79024 -0.990539 0
M  V30 4467 H 420.343 -2.27139 -3.38928 0
M  V30 4468 H 419.018 -3.17998 -2.68049 0
M  V30 4469 H 417.595 -1.50153 -3.41334 0
M  V30 4470 N 419.78 1.02168 -1.19998 0
M  V30 4471 C 421.005 1.79833 -1.03319 0
M  V30 4472 C 421.43 1.83504 0.413281 0
M  V30 4473 O 420.788 1.26635 1.29743 0
M  V30 4474 C 420.836 3.22396 -1.61533 0
M  V30 4475 O 419.94 4.03555 -0.849519 0
M  V30 4476 H 419.281 0.554872 -0.364709 0
M  V30 4477 H 421.811 1.28542 -1.59179 0
M  V30 4478 H 421.821 3.73124 -1.65054 0
M  V30 4479 H 420.496 3.19039 -2.66809 0
M  V30 4480 H 419.073 3.62169 -0.888129 0
M  V30 4481 N 421.258 1.00505 1.21394 0
M  V30 4482 C 422.498 0.696149 1.9218 0
M  V30 4483 C 422.862 -0.759099 1.76357 0
M  V30 4484 O 424.063 -1.17998 2.41516 0
M  V30 4485 C 422.334 1.10571 3.39866 0
M  V30 4486 S 423.893 0.91702 4.29111 0
M  V30 4487 H 420.711 0.254147 0.664026 0
M  V30 4488 H 423.313 1.28988 1.46909 0
M  V30 4489 H 422.017 2.16096 3.489 0
M  V30 4490 H 421.548 0.504268 3.90155 0
M  V30 4491 H 423.563 -0.185855 4.95852 0
M  V30 4492 N 422.737 -1.36956 0.779787 0
M  V30 4493 C 424.014 -1.93697 0.272156 0
M  V30 4494 C 424.394 -1.71267 -1.23413 0
M  V30 4495 O 423.742 -1.06607 -2.02107 0
M  V30 4496 C 423.952 -3.42812 0.654291 0
M  V30 4497 C 425.3 -4.19921 0.628602 0
M  V30 4498 O 426.324 -3.51209 0.594172 0
M  V30 4499 O 425.183 -5.42465 0.662864 0
M  V30 4500 H 422.277 -0.824447 0.0649286 0
M  V30 4501 H 424.823 -1.46196 0.861682 0
M  V30 4502 H 423.595 -3.52754 1.69353 0
M  V30 4503 H 423.218 -3.97582 0.0381369 0
M  V30 4504 N 424.215 -0.530993 -1.48385 0
M  V30 4505 C 425.462 0.0027373 -2.025 0
M  V30 4506 C 425.79 1.34186 -1.40799 0
M  V30 4507 O 425.045 1.88 -0.543544 0
M  V30 4508 C 425.344 0.172742 -3.56982 0
M  V30 4509 C 425.01 -1.09215 -4.37473 0
M  V30 4510 C 423.672 -1.43881 -4.59186 0
M  V30 4511 C 426.024 -1.93153 -4.84088 0
M  V30 4512 C 423.352 -2.62381 -5.2476 0
M  V30 4513 C 425.704 -3.10833 -5.50968 0
M  V30 4514 C 424.368 -3.45843 -5.70919 0
M  V30 4515 H 423.638 0.00100165 -0.740999 0
M  V30 4516 H 426.285 -0.697219 -1.78357 0
M  V30 4517 H 424.59 0.955473 -3.79971 0
M  V30 4518 H 426.287 0.600642 -3.96476 0
M  V30 4519 H 422.877 -0.812177 -4.20834 0
M  V30 4520 H 427.061 -1.67683 -4.67115 0
M  V30 4521 H 422.317 -2.89707 -5.38405 0
M  V30 4522 H 426.491 -3.7618 -5.86056 0
M  V30 4523 H 424.118 -4.37764 -6.21503 0
M  V30 4524 N 425.693 1.55336 -0.266172 0
M  V30 4525 C 426.933 2.01303 0.354459 0
M  V30 4526 C 427.297 1.15046 1.53715 0
M  V30 4527 O 428.498 1.50554 2.22681 0
M  V30 4528 C 426.769 3.49748 0.735579 0
M  V30 4529 S 428.328 4.1771 1.34401 0
M  V30 4530 H 425.146 0.702333 0.110674 0
M  V30 4531 H 427.748 1.91653 -0.385916 0
M  V30 4532 H 426.452 4.10181 -0.134196 0
M  V30 4533 H 425.983 3.63364 1.50764 0
M  V30 4534 H 427.998 4.20594 2.63278 0
M  V30 4535 N 427.171 -0.0066808 1.57599 0
M  V30 4536 C 428.401 -0.703066 1.94269 0
M  V30 4537 C 428.809 -1.68206 0.866222 0
M  V30 4538 O 428.152 -1.82966 -0.164087 0
M  V30 4539 C 428.214 -1.49616 3.26887 0
M  V30 4540 C 427.878 -0.679494 4.5192 0
M  V30 4541 C 428.875 0.0299508 5.19891 0
M  V30 4542 C 426.56 -0.627433 4.98366 0
M  V30 4543 C 428.554 0.780514 6.32603 0
M  V30 4544 C 426.241 0.126861 6.10968 0
M  V30 4545 C 427.239 0.829574 6.77943 0
M  V30 4546 O 426.927 1.57157 7.88389 0
M  V30 4547 H 426.659 -0.201217 0.645359 0
M  V30 4548 H 429.213 0.0385326 2.05364 0
M  V30 4549 H 427.443 -2.28209 3.12182 0
M  V30 4550 H 429.132 -2.07726 3.48719 0
M  V30 4551 H 429.898 -0.00115963 4.85 0
M  V30 4552 H 425.777 -1.16392 4.46065 0
M  V30 4553 H 429.321 1.32954 6.84813 0
M  V30 4554 H 425.218 0.159815 6.45302 0
M  V30 4555 H 425.986 1.48758 8.04868 0
M  V30 4556 N 428.649 -1.55105 -0.279332 0
M  V30 4557 C 429.559 -1.90638 -1.36727 0
M  V30 4558 C 430.575 -0.802899 -1.54368 0
M  V30 4559 O 431.751 -1.10138 -1.68616 0
M  V30 4560 C 428.816 -2.16547 -2.70755 0
M  V30 4561 C 427.877 -3.40146 -2.61915 0
M  V30 4562 C 427.11 -3.6481 -3.8955 0
M  V30 4563 O 427.333 -2.92095 -4.89935 0
M  V30 4564 O 426.267 -4.58343 -3.90135 0
M  V30 4565 H 430.093 -2.83237 -1.09591 0
M  V30 4566 H 427.678 -1.4157 -0.477306 0
M  V30 4567 H 429.56 -2.34665 -3.50014 0
M  V30 4568 H 428.235 -1.27131 -2.9769 0
M  V30 4569 H 427.142 -3.2737 -1.81052 0
M  V30 4570 H 428.475 -4.29761 -2.3993 0
M  V30 4571 N 430.127 0.543554 -1.4793 0
M  V30 4572 C 431.374 1.30008 -1.55255 0
M  V30 4573 C 431.702 1.93245 -0.220612 0
M  V30 4574 O 430.957 1.79141 0.787843 0
M  V30 4575 C 431.256 2.42078 -2.62932 0
M  V30 4576 C 430.922 1.96583 -4.0579 0
M  V30 4577 C 429.584 1.83893 -4.44676 0
M  V30 4578 C 431.936 1.62034 -4.95373 0
M  V30 4579 C 429.264 1.34969 -5.70964 0
M  V30 4580 C 431.616 1.14577 -6.22137 0
M  V30 4581 C 430.28 1.00493 -6.59892 0
M  V30 4582 H 429.55 0.475735 -0.568117 0
M  V30 4583 H 432.197 0.608075 -1.81589 0
M  V30 4584 H 430.502 3.16892 -2.30406 0
M  V30 4585 H 432.199 3.00236 -2.65818 0
M  V30 4586 H 428.789 2.07407 -3.75074 0
M  V30 4587 H 432.973 1.70705 -4.66019 0
M  V30 4588 H 428.229 1.2274 -5.98953 0
M  V30 4589 H 432.403 0.869109 -6.90955 0
M  V30 4590 H 430.03 0.623624 -7.57638 0
M  V30 4591 N 431.605 1.3629 0.791371 0
M  V30 4592 C 433.016 1.27225 1.36641 0
M  V30 4593 C 433.367 -0.0887968 1.95999 0
M  V30 4594 O 432.492 -0.990207 1.92416 0
M  V30 4595 C 433.087 2.30375 2.48421 0
M  V30 4596 C 431.646 2.25004 3.01746 0
M  V30 4597 C 430.793 2.15259 1.7481 0
M  V30 4598 H 433.744 1.47198 0.593173 0
M  V30 4599 H 433.765 1.93905 3.27385 0
M  V30 4600 H 433.277 3.29422 2.05189 0
M  V30 4601 H 431.378 1.29417 3.49403 0
M  V30 4602 H 431.491 3.1761 3.58693 0
M  V30 4603 H 429.855 1.61482 1.96966 0
M  V30 4604 H 430.638 3.16191 1.33709 0
M  V30 4605 N 433.083 -1.0153 1.20538 0
M  V30 4606 C 434.33 -1.75149 1.01633 0
M  V30 4607 C 434.658 -1.89189 -0.451399 0
M  V30 4608 O 433.913 -1.41551 -1.35136 0
M  V30 4609 C 434.212 -3.17213 1.64654 0
M  V30 4610 C 433.878 -3.23146 3.14464 0
M  V30 4611 C 432.54 -3.24472 3.55347 0
M  V30 4612 C 434.892 -3.21207 4.10458 0
M  V30 4613 C 432.22 -3.21532 4.90748 0
M  V30 4614 C 434.572 -3.19808 5.45807 0
M  V30 4615 C 433.236 -3.19439 5.86102 0
M  V30 4616 H 432.506 -0.640914 0.3719 0
M  V30 4617 H 435.153 -1.19071 1.49981 0
M  V30 4618 H 433.458 -3.76457 1.08571 0
M  V30 4619 H 435.155 -3.72871 1.4754 0
M  V30 4620 H 431.745 -3.2285 2.81897 0
M  V30 4621 H 435.929 -3.19351 3.79906 0
M  V30 4622 H 431.185 -3.19578 5.21229 0
M  V30 4623 H 435.359 -3.1726 6.19935 0
M  V30 4624 H 432.986 -3.16915 6.90991 0
M  V30 4625 N 434.561 -1.01147 -1.20859 0
M  V30 4626 C 435.972 -0.730205 -1.71828 0
M  V30 4627 C 436.323 0.751662 -1.8123 0
M  V30 4628 O 435.448 1.58686 -1.47132 0
M  V30 4629 C 436.043 -1.31885 -3.12077 0
M  V30 4630 C 434.602 -1.08656 -3.60376 0
M  V30 4631 C 433.749 -1.42769 -2.37723 0
M  V30 4632 H 436.7 -1.18158 -1.05945 0
M  V30 4633 H 436.721 -0.706793 -3.73878 0
M  V30 4634 H 436.233 -2.39737 -3.05201 0
M  V30 4635 H 434.334 -0.0254814 -3.72591 0
M  V30 4636 H 434.447 -1.76301 -4.45483 0
M  V30 4637 H 432.811 -0.846603 -2.40218 0
M  V30 4638 H 433.594 -2.51666 -2.33493 0
M  V30 4639 N 436.039 1.36541 -0.78704 0
M  V30 4640 C 437.267 2.03561 -0.370199 0
M  V30 4641 C 437.682 1.59347 1.01263 0
M  V30 4642 O 437.039 0.781781 1.64907 0
M  V30 4643 C 437.09 3.59033 -0.421614 0
M  V30 4644 O 436.811 4.01634 -1.7499 0
M  V30 4645 C 438.312 4.433 0.00489763 0
M  V30 4646 H 435.532 0.653346 -0.152904 0
M  V30 4647 H 438.076 1.74566 -1.06522 0
M  V30 4648 H 436.231 3.86746 0.224971 0
M  V30 4649 H 436.645 4.96217 -1.69909 0
M  V30 4650 H 438.119 5.51939 -0.0822184 0
M  V30 4651 H 438.596 4.26285 1.05723 0
M  V30 4652 H 439.202 4.20843 -0.614085 0
M  V30 4653 N 437.518 0.538854 1.48102 0
M  V30 4654 C 438.764 0.00801365 2.02798 0
M  V30 4655 C 439.097 -1.3309 1.41424 0
M  V30 4656 O 438.372 -1.86169 0.563158 0
M  V30 4657 C 438.655 -0.104589 3.59948 0
M  V30 4658 C 438.508 1.26012 4.31788 0
M  V30 4659 C 439.827 -0.827055 4.32259 0
M  V30 4660 H 436.946 0.00438624 0.736987 0
M  V30 4661 H 439.588 0.6976 1.7673 0
M  V30 4662 H 437.738 -0.691893 3.82289 0
M  V30 4663 H 439.41 1.88922 4.2084 0
M  V30 4664 H 437.653 1.83968 3.92859 0
M  V30 4665 H 438.324 1.13424 5.40221 0
M  V30 4666 H 440.8 -0.328578 4.14801 0
M  V30 4667 H 439.676 -0.87476 5.41885 0
M  V30 4668 H 439.937 -1.87927 4.0017 0
M  V30 4669 N 438.996 -1.55193 0.274407 0
M  V30 4670 C 439.959 -2.212 -0.600279 0
M  V30 4671 C 440.959 -1.18963 -1.08187 0
M  V30 4672 O 442.149 -1.43873 -0.982158 0
M  V30 4673 C 439.281 -2.87739 -1.82809 0
M  V30 4674 H 440.474 -2.9989 -0.0239682 0
M  V30 4675 H 438.027 -1.5628 0.0250192 0
M  V30 4676 H 438.762 -2.13058 -2.44493 0
M  V30 4677 H 438.547 -3.62658 -1.49069 0
M  V30 4678 H 440.037 -3.38171 -2.45011 0
M  V30 4679 N 440.474 -0.00167713 -1.576 0
M  V30 4680 C 441.702 0.693759 -1.94922 0
M  V30 4681 C 442.117 1.67215 -0.876626 0
M  V30 4682 O 441.474 1.81929 0.144279 0
M  V30 4683 C 441.525 1.42416 -3.32265 0
M  V30 4684 O 441.246 0.485014 -4.35407 0
M  V30 4685 C 442.747 2.21395 -3.84056 0
M  V30 4686 H 439.967 0.193118 -0.642609 0
M  V30 4687 H 442.511 -0.0532952 -2.04431 0
M  V30 4688 H 440.666 2.12284 -3.24059 0
M  V30 4689 H 441.08 1.00053 -5.14868 0
M  V30 4690 H 442.554 2.67996 -4.82578 0
M  V30 4691 H 443.031 3.04142 -3.16851 0
M  V30 4692 H 443.637 1.56542 -3.95443 0
M  V30 4693 N 441.952 1.55251 0.271103 0
M  V30 4694 C 443.18 1.79974 1.02064 0
M  V30 4695 C 443.595 0.574003 1.79863 0
M  V30 4696 O 442.952 -0.456962 1.76686 0
M  V30 4697 C 443.003 3.02603 1.97772 0
M  V30 4698 O 442.724 4.20443 1.23124 0
M  V30 4699 C 444.225 3.39944 2.84522 0
M  V30 4700 H 441.445 0.599489 0.301419 0
M  V30 4701 H 443.989 2.02268 0.301313 0
M  V30 4702 H 442.144 2.8243 2.65165 0
M  V30 4703 H 442.558 4.89783 1.87651 0
M  V30 4704 H 444.032 4.28915 3.47471 0
M  V30 4705 H 444.509 2.59432 3.54389 0
M  V30 4706 H 445.115 3.62383 2.22618 0
M  V30 4707 N 443.43 -0.535701 1.48216 0
M  V30 4708 C 444.841 -1.11769 1.49548 0
M  V30 4709 C 445.192 -1.94442 0.26207 0
M  V30 4710 O 444.317 -2.06987 -0.631287 0
M  V30 4711 C 444.912 -2.03367 2.70975 0
M  V30 4712 C 443.471 -2.56795 2.75196 0
M  V30 4713 C 442.618 -1.33631 2.42977 0
M  V30 4714 H 445.569 -0.321232 1.55415 0
M  V30 4715 H 445.59 -2.87569 2.49167 0
M  V30 4716 H 445.102 -1.43169 3.60727 0
M  V30 4717 H 443.203 -3.20731 1.89638 0
M  V30 4718 H 443.316 -2.9632 3.76472 0
M  V30 4719 H 441.68 -1.6502 1.94012 0
M  V30 4720 H 442.463 -0.75194 3.34964 0
M  V30 4721 N 444.908 -1.36708 -0.784132 0
M  V30 4722 C 446.319 -1.27947 -1.35965 0
M  V30 4723 C 446.67 0.0784013 -1.96043 0
M  V30 4724 O 445.795 0.979989 -1.92938 0
M  V30 4725 C 446.39 -2.31689 -2.47195 0
M  V30 4726 C 444.949 -2.26601 -3.00548 0
M  V30 4727 C 444.096 -2.16184 -1.73666 0
M  V30 4728 H 447.047 -1.4751 -0.585358 0
M  V30 4729 H 447.068 -1.95638 -3.26352 0
M  V30 4730 H 446.58 -3.30506 -2.03439 0
M  V30 4731 H 444.681 -1.31268 -3.48711 0
M  V30 4732 H 444.794 -3.19508 -3.57004 0
M  V30 4733 H 443.158 -1.62524 -1.96107 0
M  V30 4734 H 443.941 -3.16896 -1.32031 0
M  V30 4735 N 446.386 1.0089 -1.21074 0
M  V30 4736 C 447.797 1.56056 -1.02486 0
M  V30 4737 C 448.148 1.91728 0.416506 0
M  V30 4738 O 447.273 1.73066 1.29912 0
M  V30 4739 C 447.868 2.83563 -1.85411 0
M  V30 4740 C 446.427 3.3523 -1.71166 0
M  V30 4741 C 445.574 2.0846 -1.82865 0
M  V30 4742 H 448.525 0.831818 -1.35154 0
M  V30 4743 H 448.546 3.55286 -1.36205 0
M  V30 4744 H 448.058 2.57569 -2.9031 0
M  V30 4745 H 446.159 3.66167 -0.689361 0
M  V30 4746 H 446.272 4.06913 -2.52901 0
M  V30 4747 H 444.636 2.21275 -1.26132 0
M  V30 4748 H 445.419 1.84883 -2.89263 0
M  V30 4749 N 447.864 1.01787 1.20321 0
M  V30 4750 C 449.275 0.739307 1.71438 0
M  V30 4751 C 449.626 -0.742041 1.81627 0
M  V30 4752 O 448.751 -1.57903 1.47971 0
M  V30 4753 C 449.346 1.33538 3.11373 0
M  V30 4754 C 447.905 1.10566 3.59795 0
M  V30 4755 C 447.052 1.44028 2.36962 0
M  V30 4756 H 450.003 1.18718 1.05317 0
M  V30 4757 H 450.024 0.726611 3.73498 0
M  V30 4758 H 449.536 2.41352 3.03926 0
M  V30 4759 H 447.637 0.0452405 3.72573 0
M  V30 4760 H 447.75 1.78661 4.44542 0
M  V30 4761 H 446.114 0.85933 2.39766 0
M  V30 4762 H 446.897 2.52901 2.32155 0
M  V30 4763 N 449.342 -1.36122 0.79427 0
M  V30 4764 C 450.758 -1.5232 0.476525 0
M  V30 4765 C 450.958 -1.74685 -1.00436 0
M  V30 4766 O 450.014 -1.78115 -1.78973 0
M  V30 4767 C 451.327 -2.70607 1.31119 0
M  V30 4768 C 452.875 -2.8448 1.30537 0
M  V30 4769 C 453.35 -4.05778 2.12387 0
M  V30 4770 N 454.841 -4.12933 2.09859 0
M  V30 4771 C 455.576 -5.05876 2.69957 0
M  V30 4772 N 455.072 -6.04232 3.38934 0
M  V30 4773 N 456.865 -4.98528 2.59665 0
M  V30 4774 H 449.016 -1.1986 1.75349 0
M  V30 4775 H 451.279 -0.585418 0.745647 0
M  V30 4776 H 450.985 -2.60619 2.36158 0
M  V30 4777 H 450.859 -3.64888 0.955843 0
M  V30 4778 H 453.246 -2.93927 0.262876 0
M  V30 4779 H 453.327 -1.91093 1.70051 0
M  V30 4780 H 452.971 -3.97092 3.1667 0
M  V30 4781 H 452.901 -4.98323 1.70242 0
M  V30 4782 H 455.392 -3.42515 1.59662 0
M  V30 4783 H 455.705 -6.71724 3.82109 0
M  V30 4784 H 454.05 -6.04443 3.43036 0
M  V30 4785 H 457.241 -4.20641 2.05375 0
M  V30 4786 H 457.414 -5.70773 3.06793 0
M  V30 4787 N 450.82 -0.546701 -1.47814 0
M  V30 4788 C 452.048 -0.0232857 -2.06887 0
M  V30 4789 C 452.463 1.26571 -1.4009 0
M  V30 4790 O 451.82 1.7569 -0.493906 0
M  V30 4791 C 451.871 0.186975 -3.61016 0
M  V30 4792 O 451.592 -1.05097 -4.25307 0
M  V30 4793 C 453.093 0.748872 -4.36929 0
M  V30 4794 H 450.313 -0.0410763 -0.669742 0
M  V30 4795 H 452.857 -0.757117 -1.89968 0
M  V30 4796 H 451.012 0.870903 -3.77484 0
M  V30 4797 H 451.426 -0.842121 -5.17695 0
M  V30 4798 H 452.9 0.845334 -5.45489 0
M  V30 4799 H 453.377 1.75772 -4.02493 0
M  V30 4800 H 453.983 0.100979 -4.2518 0
M  V30 4801 N 452.299 1.55045 -0.282633 0
M  V30 4802 C 453.246 2.22822 0.601566 0
M  V30 4803 C 454.216 1.20431 1.14392 0
M  V30 4804 O 455.401 1.48996 1.19184 0
M  V30 4805 C 452.541 2.95873 1.77632 0
M  V30 4806 C 451.654 4.12999 1.26711 0
M  V30 4807 C 450.789 4.73676 2.40426 0
M  V30 4808 C 449.828 5.82981 1.86545 0
M  V30 4809 N 448.965 6.3769 2.93762 0
M  V30 4810 H 453.805 2.97995 0.0169528 0
M  V30 4811 H 451.342 1.471 -0.00339964 0
M  V30 4812 H 453.3 3.36447 2.46697 0
M  V30 4813 H 451.93 2.2311 2.33285 0
M  V30 4814 H 450.982 3.77494 0.469314 0
M  V30 4815 H 452.294 4.91803 0.832518 0
M  V30 4816 H 451.448 5.17008 3.17471 0
M  V30 4817 H 450.187 3.94164 2.87203 0
M  V30 4818 H 449.192 5.39092 1.07983 0
M  V30 4819 H 450.417 6.64366 1.40694 0
M  V30 4820 H 448.363 5.61069 3.39908 0
M  V30 4821 H 448.28 7.11788 2.54744 0
M  V30 4822 H 449.548 6.8568 3.7076 0
M  V30 4823 N 453.777 0.010035 1.57597 0
M  V30 4824 C 455.005 -0.683413 1.95287 0
M  V30 4825 C 455.42 -1.66747 0.885481 0
M  V30 4826 O 454.777 -1.82003 -0.134629 0
M  V30 4827 C 454.828 -1.40652 3.33015 0
M  V30 4828 O 454.549 -0.461916 4.35658 0
M  V30 4829 C 456.05 -2.19356 3.85225 0
M  V30 4830 H 453.27 -0.189708 0.643624 0
M  V30 4831 H 455.814 0.0641359 2.04399 0
M  V30 4832 H 453.969 -2.10562 3.2518 0
M  V30 4833 H 454.383 -0.973215 5.15392 0
M  V30 4834 H 455.857 -2.65433 4.83993 0
M  V30 4835 H 456.334 -3.02457 3.18459 0
M  V30 4836 H 456.94 -1.54442 3.96267 0
M  V30 4837 N 455.255 -1.55392 -0.262866 0
M  V30 4838 C 456.671 -1.47459 -0.610582 0
M  V30 4839 C 456.871 -0.697031 -1.8906 0
M  V30 4840 O 455.927 -0.219952 -2.5154 0
M  V30 4841 C 457.24 -2.91751 -0.728131 0
M  V30 4842 C 458.788 -3.02027 -0.821517 0
M  V30 4843 C 459.263 -4.47594 -0.97076 0
M  V30 4844 N 460.754 -4.51465 -1.03603 0
M  V30 4845 C 461.489 -5.61326 -1.17049 0
M  V30 4846 N 460.985 -6.81032 -1.2715 0
M  V30 4847 N 462.778 -5.49089 -1.20239 0
M  V30 4848 H 454.929 -2.04395 0.577632 0
M  V30 4849 H 457.192 -0.927287 0.197086 0
M  V30 4850 H 456.898 -3.51413 0.142132 0
M  V30 4851 H 456.772 -3.4134 -1.6052 0
M  V30 4852 H 459.159 -2.42456 -1.68224 0
M  V30 4853 H 459.24 -2.55674 0.0803688 0
M  V30 4854 H 458.884 -5.07771 -0.114655 0
M  V30 4855 H 458.814 -4.91613 -1.88745 0
M  V30 4856 H 461.305 -3.6524 -0.96996 0
M  V30 4857 H 461.618 -7.60511 -1.37271 0
M  V30 4858 H 459.963 -6.83824 -1.24136 0
M  V30 4859 H 463.154 -4.54507 -1.11985 0
M  V30 4860 H 463.327 -6.34749 -1.30373 0
M  V30 4861 N 456.733 0.527833 -1.48498 0
M  V30 4862 C 457.663 1.64136 -1.66077 0
M  V30 4863 C 458.644 1.62286 -0.509625 0
M  V30 4864 O 459.829 1.79449 -0.742413 0
M  V30 4865 C 456.959 3.02717 -1.70234 0
M  V30 4866 C 455.913 3.19426 -2.8487 0
M  V30 4867 C 455.239 4.5909 -2.74118 0
M  V30 4868 C 456.539 3.01993 -4.26142 0
M  V30 4869 H 458.233 1.4968 -2.593 0
M  V30 4870 H 455.779 0.718654 -1.24785 0
M  V30 4871 H 457.732 3.80491 -1.8112 0
M  V30 4872 H 456.456 3.18201 -0.735911 0
M  V30 4873 H 455.115 2.4407 -2.73542 0
M  V30 4874 H 454.763 4.71413 -1.7544 0
M  V30 4875 H 454.463 4.71214 -3.51042 0
M  V30 4876 H 455.987 5.3896 -2.86974 0
M  V30 4877 H 457.401 3.69558 -4.38292 0
M  V30 4878 H 455.798 3.2561 -5.04082 0
M  V30 4879 H 456.868 1.98396 -4.42456 0
M  V30 4880 N 458.211 1.37122 0.776871 0
M  V30 4881 C 459.457 1.32243 1.53752 0
M  V30 4882 C 459.79 -0.0944745 1.9397 0
M  V30 4883 O 459.065 -1.05068 1.6368 0
M  V30 4884 C 459.348 2.25681 2.80607 0
M  V30 4885 C 459.201 3.76127 2.46676 0
M  V30 4886 C 460.52 2.17657 3.82509 0
M  V30 4887 H 457.639 0.481704 0.557791 0
M  V30 4888 H 460.281 1.6778 0.891612 0
M  V30 4889 H 458.431 1.95505 3.35723 0
M  V30 4890 H 460.103 4.16877 1.97513 0
M  V30 4891 H 458.346 3.94946 1.79443 0
M  V30 4892 H 459.017 4.36933 3.37333 0
M  V30 4893 H 461.493 2.44245 3.36873 0
M  V30 4894 H 460.369 2.85185 4.69 0
M  V30 4895 H 460.63 1.16785 4.26396 0
M  V30 4896 N 459.689 -1.00246 1.21608 0
M  V30 4897 C 461.1 -1.55511 1.03312 0
M  V30 4898 C 461.451 -1.91946 -0.406332 0
M  V30 4899 O 460.576 -1.73753 -1.28992 0
M  V30 4900 C 461.171 -2.82576 1.86913 0
M  V30 4901 C 459.73 -3.34318 1.72941 0
M  V30 4902 C 458.877 -2.07487 1.83968 0
M  V30 4903 H 461.828 -0.824638 1.35593 0
M  V30 4904 H 461.849 -3.54559 1.38087 0
M  V30 4905 H 461.361 -2.56026 2.91672 0
M  V30 4906 H 459.462 -3.65797 0.70877 0
M  V30 4907 H 459.575 -4.05566 2.55055 0
M  V30 4908 H 457.939 -2.20603 1.27304 0
M  V30 4909 H 458.722 -1.83346 2.9024 0
M  V30 4910 N 461.167 -1.02423 -1.1978 0
M  V30 4911 C 462.077 -0.610919 -2.26506 0
M  V30 4912 C 463.093 0.355152 -1.70337 0
M  V30 4913 O 464.269 0.214195 -2.00258 0
M  V30 4914 C 461.334 0.0365921 -3.46681 0
M  V30 4915 C 460.395 -0.976389 -4.18049 0
M  V30 4916 C 459.628 -0.359683 -5.32487 0
M  V30 4917 O 459.851 0.838601 -5.64202 0
M  V30 4918 O 458.785 -1.08022 -5.92127 0
M  V30 4919 H 462.611 -1.49965 -2.64091 0
M  V30 4920 H 460.196 -0.794156 -1.26545 0
M  V30 4921 H 462.078 0.39786 -4.19518 0
M  V30 4922 H 460.753 0.899398 -3.10954 0
M  V30 4923 H 459.66 -1.38916 -3.47352 0
M  V30 4924 H 460.993 -1.80941 -4.57735 0
M  V30 4925 N 462.645 1.35699 -0.801477 0
M  V30 4926 C 463.893 1.9852 -0.37871 0
M  V30 4927 C 464.214 1.63907 1.05638 0
M  V30 4928 O 463.484 0.919013 1.73006 0
M  V30 4929 H 462.064 0.734322 -0.137042 0
M  V30 4930 H 464.726 1.65697 -1.02619 0
M  V30 4931 H 463.822 3.08382 -0.480284 0
M  V30 4932 N 464.123 0.554532 1.47522 0
M  V30 4933 C 465.539 0.214107 1.58157 0
M  V30 4934 C 465.739 -1.28331 1.55349 0
M  V30 4935 O 464.795 -2.06329 1.45549 0
M  V30 4936 C 466.108 0.838391 2.88776 0
M  V30 4937 C 467.656 0.809374 3.02354 0
M  V30 4938 C 468.131 1.41268 4.35669 0
M  V30 4939 N 469.622 1.37574 4.42298 0
M  V30 4940 C 470.357 1.8122 5.4401 0
M  V30 4941 N 469.853 2.3271 6.52547 0
M  V30 4942 N 471.646 1.72307 5.35039 0
M  V30 4943 H 463.797 1.52744 1.4759 0
M  V30 4944 H 466.06 0.636812 0.702264 0
M  V30 4945 H 465.766 1.89065 2.96559 0
M  V30 4946 H 465.64 0.329847 3.75755 0
M  V30 4947 H 468.027 -0.234187 2.94169 0
M  V30 4948 H 468.108 1.35565 2.16924 0
M  V30 4949 H 467.752 2.45529 4.4461 0
M  V30 4950 H 467.682 0.841871 5.19827 0
M  V30 4951 H 470.173 0.999081 3.64454 0
M  V30 4952 H 470.486 2.63944 7.26329 0
M  V30 4953 H 468.831 2.36719 6.53444 0
M  V30 4954 H 472.022 1.3186 4.49144 0
M  V30 4955 H 472.195 2.06641 6.14169 0
M  V30 4956 N 465.601 -1.54893 0.290851 0
M  V30 4957 C 466.549 -2.24579 -0.605576 0
M  V30 4958 C 467.543 -1.24824 -1.14522 0
M  V30 4959 O 468.749 -1.42706 -1.09704 0
M  V30 4960 H 465.124 -0.720946 -0.213872 0
M  V30 4961 H 467.095 -2.984 0.0048173 0
M  V30 4962 C 465.844 -2.99224 -1.77088 0
M  V30 4963 H 465.167 -3.75782 -1.36484 0
M  V30 4964 H 466.607 -3.51281 -2.3744 0
M  V30 4965 C 465.066 -2.05602 -2.66888 0
M  V30 4966 O 465.596 -1.61745 -3.67698 0
M  V30 4967 N 463.802 -1.71771 -2.34399 0
M  V30 4968 H 463.349 -2.07633 -1.52468 0
M  V30 4969 H 463.307 -1.09403 -2.94751 0
M  V30 4970 N 467.08 -0.0183926 -1.57589 0
M  V30 4971 C 468.326 0.663543 -1.91638 0
M  V30 4972 C 468.659 1.72392 -0.894134 0
M  V30 4973 O 467.934 1.94316 0.0846449 0
M  V30 4974 C 468.217 1.28984 -3.36207 0
M  V30 4975 C 468.07 0.239761 -4.49161 0
M  V30 4976 C 469.389 2.2109 -3.80536 0
M  V30 4977 H 466.508 0.239746 -0.696915 0
M  V30 4978 H 469.15 -0.073456 -1.89858 0
M  V30 4979 H 467.3 1.91799 -3.37854 0
M  V30 4980 H 468.972 -0.390119 -4.59647 0
M  V30 4981 H 467.215 -0.435972 -4.31604 0
M  V30 4982 H 467.886 0.717383 -5.47319 0
M  V30 4983 H 470.362 1.68273 -3.80557 0
M  V30 4984 H 469.238 2.61869 -4.82406 0
M  V30 4985 H 469.499 3.09764 -3.15434 0
M  V30 4986 N 468.558 1.5553 0.254621 0
M  V30 4987 C 469.786 1.81046 1.00149 0
M  V30 4988 C 470.201 0.593047 1.79244 0
M  V30 4989 O 469.558 -0.438196 1.77161 0
M  V30 4990 C 469.609 3.04684 1.94551 0
M  V30 4991 O 469.33 4.21725 1.18658 0
M  V30 4992 C 470.831 3.42943 2.80901 0
M  V30 4993 H 468.051 0.602653 0.295044 0
M  V30 4994 H 470.595 2.02576 0.279842 0
M  V30 4995 H 468.75 2.85226 2.62154 0
M  V30 4996 H 469.164 4.91746 1.82445 0
M  V30 4997 H 470.638 4.32576 3.42902 0
M  V30 4998 H 471.115 2.63176 3.51617 0
M  V30 4999 H 471.721 3.64724 2.18762 0
M  V30 5000 N 470.036 -0.519951 1.48776 0
M  V30 5001 C 471.283 -1.27522 1.57303 0
M  V30 5002 C 471.611 -1.92869 0.251328 0
M  V30 5003 O 470.866 -1.80372 -0.759243 0
M  V30 5004 C 471.165 -2.37864 2.6675 0
M  V30 5005 C 470.831 -1.90103 4.08867 0
M  V30 5006 C 469.493 -1.76795 4.47546 0
M  V30 5007 C 471.845 -1.54133 4.97888 0
M  V30 5008 C 469.173 -1.25868 5.73039 0
M  V30 5009 C 471.525 -1.04665 6.23881 0
M  V30 5010 C 470.189 -0.899823 6.61407 0
M  V30 5011 H 469.459 -0.466636 0.575614 0
M  V30 5012 H 472.106 -0.579109 1.82534 0
M  V30 5013 H 470.411 -3.13186 2.35418 0
M  V30 5014 H 472.108 -2.95969 2.70561 0
M  V30 5015 H 468.698 -2.01414 3.78326 0
M  V30 5016 H 472.882 -1.6327 4.68675 0
M  V30 5017 H 468.138 -1.13196 6.0083 0
M  V30 5018 H 472.312 -0.759074 6.92251 0
M  V30 5019 H 469.939 -0.503011 7.58534 0
M  V30 5020 N 471.514 -1.37532 -0.769588 0
M  V30 5021 C 472.93 -1.18379 -1.07045 0
M  V30 5022 C 473.13 -0.0214312 -2.01489 0
M  V30 5023 O 472.186 0.637809 -2.44312 0
M  V30 5024 C 473.499 -2.50338 -1.66588 0
M  V30 5025 C 475.047 -2.56879 -1.78835 0
M  V30 5026 C 475.522 -3.88974 -2.41792 0
M  V30 5027 N 477.013 -3.90428 -2.4924 0
M  V30 5028 C 477.748 -4.89388 -2.98809 0
M  V30 5029 N 477.244 -5.98745 -3.48535 0
M  V30 5030 N 479.037 -4.76791 -2.97703 0
M  V30 5031 H 471.188 -2.11921 -0.142541 0
M  V30 5032 H 473.451 -0.939608 -0.125863 0
M  V30 5033 H 473.157 -3.35767 -1.0466 0
M  V30 5034 H 473.031 -2.67583 -2.65856 0
M  V30 5035 H 475.418 -1.71856 -2.39895 0
M  V30 5036 H 475.499 -2.43516 -0.783166 0
M  V30 5037 H 475.143 -4.74412 -1.81371 0
M  V30 5038 H 475.073 -3.99641 -3.4292 0
M  V30 5039 H 477.564 -3.11433 -2.14052 0
M  V30 5040 H 477.877 -6.70205 -3.84767 0
M  V30 5041 H 476.222 -6.02387 -3.46634 0
M  V30 5042 H 479.413 -3.90478 -2.58157 0
M  V30 5043 H 479.586 -5.54069 -3.36024 0
M  V30 5044 N 472.992 0.995999 -1.22138 0
M  V30 5045 C 474.232 1.75032 -1.05561 0
M  V30 5046 C 474.596 1.87729 0.402698 0
M  V30 5047 O 475.797 2.59813 0.689234 0
M  V30 5048 C 474.068 3.11973 -1.74379 0
M  V30 5049 S 475.627 4.03182 -1.73175 0
M  V30 5050 H 472.445 0.602137 -0.37809 0
M  V30 5051 H 475.047 1.19107 -1.55028 0
M  V30 5052 H 473.751 3.00371 -2.79652 0
M  V30 5053 H 473.282 3.7297 -1.25128 0
M  V30 5054 H 475.297 4.90043 -0.77923 0
M  V30 5055 N 474.47 1.03057 1.19235 0
M  V30 5056 C 475.718 0.726581 1.88587 0
M  V30 5057 C 476.039 -0.747227 1.80115 0
M  V30 5058 O 475.309 -1.53849 1.21274 0
M  V30 5059 H 473.889 0.265768 0.698124 0
M  V30 5060 H 476.551 1.30516 1.44746 0
M  V30 5061 H 475.647 1.0224 2.94879 0
M  V30 5062 N 475.948 -1.35272 0.808662 0
M  V30 5063 C 476.88 -2.28507 0.178149 0
M  V30 5064 C 477.893 -1.50377 -0.623754 0
M  V30 5065 O 479.082 -1.72583 -0.455774 0
M  V30 5066 C 476.182 -3.30038 -0.769959 0
M  V30 5067 C 475.355 -4.37398 -0.0139749 0
M  V30 5068 C 474.414 -5.18775 -0.880875 0
M  V30 5069 O 473.44 -5.68236 -0.331059 0
M  V30 5070 N 474.642 -5.37087 -2.20267 0
M  V30 5071 H 477.407 -2.83255 0.979106 0
M  V30 5072 H 474.968 -1.47643 0.664308 0
M  V30 5073 H 476.96 -3.81371 -1.35418 0
M  V30 5074 H 475.53 -2.75789 -1.47171 0
M  V30 5075 H 474.75 -3.86971 0.751468 0
M  V30 5076 H 476.038 -5.06268 0.506965 0
M  V30 5077 H 475.436 -4.9855 -2.67328 0
M  V30 5078 H 473.993 -5.91593 -2.73608 0
M  V30 5079 N 477.426 -0.562348 -1.47226 0
M  V30 5080 C 478.373 0.182461 -2.30078 0
M  V30 5081 C 479.343 0.903503 -1.39377 0
M  V30 5082 O 480.528 0.898188 -1.68337 0
M  V30 5083 C 477.668 1.20322 -3.23445 0
M  V30 5084 C 476.781 0.487717 -4.29238 0
M  V30 5085 C 475.916 1.49422 -5.09752 0
M  V30 5086 C 474.955 0.763976 -6.07314 0
M  V30 5087 N 474.092 1.71755 -6.80768 0
M  V30 5088 H 478.932 -0.530169 -2.93246 0
M  V30 5089 H 476.469 -0.273276 -1.44539 0
M  V30 5090 H 478.427 1.80768 -3.76004 0
M  V30 5091 H 477.057 1.88382 -2.6213 0
M  V30 5092 H 476.109 -0.231374 -3.79696 0
M  V30 5093 H 477.421 -0.0841003 -4.98729 0
M  V30 5094 H 476.575 2.17206 -5.66486 0
M  V30 5095 H 475.314 2.09995 -4.40174 0
M  V30 5096 H 474.319 0.0722344 -5.49753 0
M  V30 5097 H 475.544 0.16391 -6.78902 0
M  V30 5098 H 473.49 2.31177 -6.13916 0
M  V30 5099 H 473.407 1.19802 -7.46447 0
M  V30 5100 H 474.675 2.38638 -7.42073 0
M  V30 5101 N 478.904 1.54736 -0.299062 0
M  V30 5102 C 480.153 1.99279 0.311549 0
M  V30 5103 C 480.466 1.19107 1.55154 0
M  V30 5104 O 481.672 1.53908 2.23662 0
M  V30 5105 C 480.128 3.54768 0.605632 0
M  V30 5106 C 479.736 4.43746 -0.615914 0
M  V30 5107 C 481.48 4.07841 1.17754 0
M  V30 5108 C 479.387 5.90663 -0.29509 0
M  V30 5109 H 478.317 0.744359 0.120187 0
M  V30 5110 H 480.968 1.78919 -0.407464 0
M  V30 5111 H 479.35 3.71021 1.38419 0
M  V30 5112 H 480.524 4.39267 -1.39218 0
M  V30 5113 H 478.839 4.01434 -1.10633 0
M  V30 5114 H 481.436 5.15174 1.43179 0
M  V30 5115 H 481.779 3.58324 2.11918 0
M  V30 5116 H 482.312 3.95123 0.460739 0
M  V30 5117 H 479.051 6.44325 -1.20524 0
M  V30 5118 H 478.571 5.98155 0.44394 0
M  V30 5119 H 480.25 6.46916 0.104048 0
M  V30 5120 N 480.382 0.0267497 1.57577 0
M  V30 5121 C 481.312 -0.954308 2.13108 0
M  V30 5122 C 482.293 -1.34088 1.04663 0
M  V30 5123 O 483.478 -1.41992 1.32484 0
M  V30 5124 C 480.608 -2.23744 2.65624 0
M  V30 5125 C 479.562 -1.99168 3.78835 0
M  V30 5126 C 478.888 -3.33726 4.17769 0
M  V30 5127 C 480.188 -1.33277 5.0501 0
M  V30 5128 H 481.882 -0.491848 2.95332 0
M  V30 5129 H 479.428 -0.23514 1.42067 0
M  V30 5130 H 481.381 -2.92754 3.03106 0
M  V30 5131 H 480.105 -2.72151 1.80558 0
M  V30 5132 H 478.764 -1.32577 3.41788 0
M  V30 5133 H 478.412 -3.79888 3.29688 0
M  V30 5134 H 478.112 -3.18089 4.94058 0
M  V30 5135 H 479.636 -4.04008 4.57832 0
M  V30 5136 H 481.05 -1.92283 5.40093 0
M  V30 5137 H 479.447 -1.28045 5.8628 0
M  V30 5138 H 480.517 -0.305411 4.83937 0
M  V30 5139 N 481.861 -1.55662 -0.24637 0
M  V30 5140 C 482.811 -1.86753 -1.30795 0
M  V30 5141 C 483.795 -0.728445 -1.43466 0
M  V30 5142 O 484.987 -0.99038 -1.46699 0
M  V30 5143 C 482.116 -2.16618 -2.66329 0
M  V30 5144 C 481.202 -3.36855 -2.57661 0
M  V30 5145 N 481.593 -4.56111 -2.18624 0
M  V30 5146 C 479.891 -3.39976 -2.88673 0
M  V30 5147 C 480.592 -5.38247 -2.20601 0
M  V30 5148 N 479.568 -4.77322 -2.60124 0
M  V30 5149 H 483.37 -2.76486 -0.996642 0
M  V30 5150 H 480.884 -1.55896 -0.454994 0
M  V30 5151 H 482.881 -2.37057 -3.42942 0
M  V30 5152 H 481.541 -1.28185 -2.98327 0
M  V30 5153 H 482.552 -4.81726 -1.9016 0
M  V30 5154 H 479.229 -2.61815 -3.25206 0
M  V30 5155 H 480.619 -6.43657 -1.92756 0
M  V30 5156 N 483.339 0.512053 -1.4905 0
M  V30 5157 C 484.286 1.6148 -1.64902 0
M  V30 5158 C 485.256 1.58687 -0.490673 0
M  V30 5159 O 486.441 1.76842 -0.71636 0
M  V30 5160 C 483.581 2.99676 -1.71139 0
M  V30 5161 C 482.694 3.12568 -2.98203 0
M  V30 5162 C 481.829 4.4143 -2.95487 0
M  V30 5163 C 480.868 4.47916 -4.17179 0
M  V30 5164 N 480.005 5.68191 -4.12437 0
M  V30 5165 H 484.845 1.47271 -2.59066 0
M  V30 5166 H 482.382 0.716713 -1.28459 0
M  V30 5167 H 484.34 3.79761 -1.72736 0
M  V30 5168 H 482.97 3.12614 -0.804508 0
M  V30 5169 H 482.022 2.25618 -3.06269 0
M  V30 5170 H 483.334 3.1322 -3.88194 0
M  V30 5171 H 482.488 5.29825 -2.95585 0
M  V30 5172 H 481.227 4.43326 -2.03256 0
M  V30 5173 H 480.232 3.57925 -4.17337 0
M  V30 5174 H 481.457 4.47744 -5.1059 0
M  V30 5175 H 479.403 5.7095 -3.23036 0
M  V30 5176 H 479.32 5.70413 -4.96151 0
M  V30 5177 H 480.588 6.58823 -4.16621 0
M  V30 5178 N 484.817 1.37938 0.762283 0
M  V30 5179 C 485.764 1.34467 1.87583 0
M  V30 5180 C 486.734 0.208633 1.64785 0
M  V30 5181 O 487.919 0.399494 1.86571 0
M  V30 5182 C 485.059 1.16692 3.24772 0
M  V30 5183 C 484.172 2.39608 3.59461 0
M  V30 5184 C 483.307 2.14631 4.85908 0
M  V30 5185 C 482.346 3.33364 5.13357 0
M  V30 5186 N 481.483 3.07877 6.30996 0
M  V30 5187 H 486.323 2.29669 1.89885 0
M  V30 5188 H 483.86 1.14116 0.928219 0
M  V30 5189 H 485.818 1.04405 4.03925 0
M  V30 5190 H 484.448 0.251333 3.2182 0
M  V30 5191 H 483.5 2.626 2.75219 0
M  V30 5192 H 484.812 3.28128 3.75678 0
M  V30 5193 H 483.966 1.99429 5.72986 0
M  V30 5194 H 482.705 1.23463 4.71814 0
M  V30 5195 H 481.71 3.49094 4.24751 0
M  V30 5196 H 482.935 4.25395 5.29354 0
M  V30 5197 H 480.881 2.19348 6.18241 0
M  V30 5198 H 480.798 3.89944 6.47673 0
M  V30 5199 H 482.066 2.96313 7.20985 0
M  V30 5200 N 486.295 -0.989507 1.22664 0
M  V30 5201 C 487.543 -1.72612 1.05117 0
M  V30 5202 C 487.864 -1.90552 -0.414131 0
M  V30 5203 O 487.134 -1.4676 -1.29762 0
M  V30 5204 H 485.714 -0.639555 0.385977 0
M  V30 5205 H 488.376 -1.19158 1.54232 0
M  V30 5206 H 487.472 -2.71926 1.53175 0
M  V30 5207 N 487.773 -1.03688 -1.18687 0
M  V30 5208 C 488.72 -0.624624 -2.22187 0
M  V30 5209 C 489.69 0.365636 -1.62026 0
M  V30 5210 O 490.875 0.260481 -1.89014 0
M  V30 5211 C 488.015 0.0101738 -3.45099 0
M  V30 5212 C 487.128 -1.02709 -4.19613 0
M  V30 5213 C 486.263 -0.361213 -5.2997 0
M  V30 5214 C 485.302 -1.38384 -5.96252 0
M  V30 5215 N 484.439 -0.743196 -6.98155 0
M  V30 5216 H 489.279 -1.51176 -2.56807 0
M  V30 5217 H 486.816 -0.75636 -1.26165 0
M  V30 5218 H 488.774 0.395528 -4.15321 0
M  V30 5219 H 487.404 0.860848 -3.1111 0
M  V30 5220 H 486.456 -1.53043 -3.48256 0
M  V30 5221 H 487.768 -1.80398 -4.65036 0
M  V30 5222 H 486.922 0.0785537 -6.06649 0
M  V30 5223 H 485.661 0.447799 -4.8564 0
M  V30 5224 H 484.666 -1.83378 -5.18317 0
M  V30 5225 H 485.891 -2.19448 -6.42666 0
M  V30 5226 H 483.837 0.0455789 -6.55984 0
M  V30 5227 H 483.754 -1.45784 -7.41811 0
M  V30 5228 H 485.022 -0.327698 -7.78811 0
M  V30 5229 N 489.251 1.34841 -0.815825 0
M  V30 5230 C 490.497 1.98793 -0.401129 0
M  V30 5231 C 490.83 1.64548 1.03139 0
M  V30 5232 O 490.105 0.913487 1.71714 0
M  V30 5233 C 490.388 3.55143 -0.595409 0
M  V30 5234 C 490.241 3.99155 -2.07352 0
M  V30 5235 C 491.56 4.40092 -0.0268823 0
M  V30 5236 H 488.679 0.722146 -0.14722 0
M  V30 5237 H 491.321 1.59847 -1.02707 0
M  V30 5238 H 489.471 3.8845 -0.0625779 0
M  V30 5239 H 491.143 3.76216 -2.66945 0
M  V30 5240 H 489.386 3.49726 -2.56659 0
M  V30 5241 H 490.057 5.07971 -2.1603 0
M  V30 5242 H 492.533 4.13298 -0.482042 0
M  V30 5243 H 491.409 5.48562 -0.19267 0
M  V30 5244 H 491.67 4.29016 1.06759 0
M  V30 5245 N 490.729 0.570148 1.46925 0
M  V30 5246 C 491.959 0.0561151 2.06524 0
M  V30 5247 C 492.367 -1.24874 1.42137 0
M  V30 5248 O 491.71 -1.76292 0.516417 0
M  V30 5249 C 491.772 -0.197035 3.5896 0
M  V30 5250 C 491.436 1.02033 4.45464 0
M  V30 5251 C 492.433 1.92921 4.82781 0
M  V30 5252 C 490.118 1.23864 4.86788 0
M  V30 5253 C 492.112 3.03999 5.60235 0
M  V30 5254 C 489.799 2.35249 5.64004 0
M  V30 5255 C 490.797 3.25146 6.0064 0
M  V30 5256 O 490.485 4.34598 6.76299 0
M  V30 5257 H 490.217 0.0487409 0.674241 0
M  V30 5258 H 492.771 0.786915 1.89728 0
M  V30 5259 H 491.001 -0.982299 3.74016 0
M  V30 5260 H 492.69 -0.658032 4.00531 0
M  V30 5261 H 493.456 1.77265 4.51444 0
M  V30 5262 H 489.335 0.54805 4.57731 0
M  V30 5263 H 492.879 3.74192 5.8875 0
M  V30 5264 H 488.776 2.50873 5.94755 0
M  V30 5265 H 489.544 4.32808 6.94708 0
M  V30 5266 N 492.207 -1.54576 0.307264 0
M  V30 5267 C 493.453 -2.01272 -0.293453 0
M  V30 5268 C 493.808 -1.19178 -1.51044 0
M  V30 5269 O 493.101 -0.261704 -1.89804 0
M  V30 5270 C 493.295 -3.50572 -0.695253 0
M  V30 5271 C 493.124 -4.47118 0.481249 0
M  V30 5272 C 491.894 -4.958 0.97524 0
M  V30 5273 C 494.092 -4.96853 1.32823 0
M  V30 5274 N 492.074 -5.76212 2.11785 0
M  V30 5275 C 493.445 -5.75028 2.31824 0
M  V30 5276 C 495.5 -4.79026 1.35788 0
M  V30 5277 C 494.203 -6.37276 3.33574 0
M  V30 5278 C 496.229 -5.42097 2.364 0
M  V30 5279 C 495.591 -6.2011 3.34129 0
M  V30 5280 H 491.69 -0.778709 -0.0716705 0
M  V30 5281 H 494.274 -1.89695 0.438602 0
M  V30 5282 H 492.445 -3.62427 -1.39647 0
M  V30 5283 H 494.177 -3.84056 -1.27604 0
M  V30 5284 H 490.932 -4.70405 0.549184 0
M  V30 5285 H 491.356 -6.21101 2.69375 0
M  V30 5286 H 495.998 -4.18288 0.616021 0
M  V30 5287 H 493.716 -6.97144 4.08676 0
M  V30 5288 H 497.302 -5.30229 2.39475 0
M  V30 5289 H 496.182 -6.68049 4.10707 0
M  V30 5290 N 493.685 -0.035106 -1.57561 0
M  V30 5291 C 494.915 0.651312 -1.96065 0
M  V30 5292 C 495.323 1.6585 -0.910514 0
M  V30 5293 O 494.666 1.83336 0.11552 0
M  V30 5294 C 494.728 1.40897 -3.30739 0
M  V30 5295 C 494.392 0.559436 -4.53563 0
M  V30 5296 C 495.389 -0.16778 -5.19629 0
M  V30 5297 C 493.074 0.495079 -4.99854 0
M  V30 5298 C 495.068 -0.947963 -6.30311 0
M  V30 5299 C 492.755 -0.288804 -6.10417 0
M  V30 5300 C 493.753 -1.00903 -6.75505 0
M  V30 5301 O 493.441 -1.78005 -7.83945 0
M  V30 5302 H 493.173 0.184036 -0.650467 0
M  V30 5303 H 495.727 -0.0929677 -2.05189 0
M  V30 5304 H 493.957 2.19852 -3.18123 0
M  V30 5305 H 495.646 1.98407 -3.54104 0
M  V30 5306 H 496.412 -0.12743 -4.84833 0
M  V30 5307 H 492.291 1.04524 -4.48994 0
M  V30 5308 H 495.835 -1.51064 -6.81047 0
M  V30 5309 H 491.732 -0.33085 -6.44652 0
M  V30 5310 H 492.5 -1.70046 -8.00641 0
M  V30 5311 N 495.163 1.55791 0.238111 0
M  V30 5312 C 496.11 1.9105 1.29493 0
M  V30 5313 C 497.08 0.765733 1.47397 0
M  V30 5314 O 498.265 1.02017 1.61236 0
M  V30 5315 C 495.405 2.21826 2.64362 0
M  V30 5316 C 494.518 3.49153 2.54394 0
M  V30 5317 C 493.653 3.69455 3.81676 0
M  V30 5318 C 492.692 4.90353 3.66361 0
M  V30 5319 N 491.829 5.07131 4.85554 0
M  V30 5320 H 496.669 2.81172 0.987233 0
M  V30 5321 H 494.206 1.39179 0.476203 0
M  V30 5322 H 496.164 2.37675 3.4288 0
M  V30 5323 H 494.794 1.34897 2.93262 0
M  V30 5324 H 493.846 3.41587 1.67399 0
M  V30 5325 H 495.158 4.37818 2.38991 0
M  V30 5326 H 494.312 3.85311 4.68636 0
M  V30 5327 H 493.051 2.7904 3.99985 0
M  V30 5328 H 492.056 4.74464 2.77784 0
M  V30 5329 H 493.281 5.82237 3.49538 0
M  V30 5330 H 491.227 4.19654 5.04209 0
M  V30 5331 H 491.144 5.89899 4.72816 0
M  V30 5332 H 492.412 5.27407 5.73988 0
M  V30 5333 N 496.642 -0.504142 1.49319 0
M  V30 5334 C 497.919 -1.26548 1.49147 0
M  V30 5335 C 498.299 -2.09977 0.21744 0
M  V30 5336 O 497.647 -2.14028 -0.800269 0
M  V30 5337 C 497.857 -2.12489 2.76857 0
M  V30 5338 C 499.205 -2.7178 3.26222 0
M  V30 5339 O 500.229 -2.22758 2.77952 0
M  V30 5340 O 499.088 -3.61015 4.10281 0
M  V30 5341 H 496.182 -0.572495 0.596806 0
M  V30 5342 H 498.728 -0.51867 1.61579 0
M  V30 5343 H 497.5 -1.50796 3.61077 0
M  V30 5344 H 497.123 -2.94368 2.6727 0
M  V30 5345 N 498.12 -1.38341 -0.754957 0
M  V30 5346 C 499.052 -1.31347 -1.87831 0
M  V30 5347 C 500.065 -0.225955 -1.61224 0
M  V30 5348 O 501.254 -0.48341 -1.7183 0
M  V30 5349 C 498.354 -1.01201 -3.23437 0
M  V30 5350 C 497.527 -2.20834 -3.77559 0
M  V30 5351 C 496.586 -1.87454 -4.91678 0
M  V30 5352 O 495.612 -2.59934 -5.06382 0
M  V30 5353 N 496.814 -0.828682 -5.74555 0
M  V30 5354 H 499.579 -2.28147 -1.94342 0
M  V30 5355 H 497.14 -1.32184 -0.934828 0
M  V30 5356 H 499.132 -0.769249 -3.97322 0
M  V30 5357 H 497.702 -0.132011 -3.12321 0
M  V30 5358 H 496.922 -2.61184 -2.95256 0
M  V30 5359 H 498.21 -3.00678 -4.10451 0
M  V30 5360 H 497.608 -0.227591 -5.65242 0
M  V30 5361 H 496.165 -0.645802 -6.48593 0
M  V30 5362 N 499.598 0.982988 -1.23187 0
M  V30 5363 C 500.508 2.10907 -1.02739 0
M  V30 5364 C 501.524 1.73979 0.0273188 0
M  V30 5365 O 502.7 2.00702 -0.16757 0
M  V30 5366 C 499.765 3.41142 -0.618304 0
M  V30 5367 C 498.826 3.92112 -1.74777 0
M  V30 5368 C 498.059 5.16131 -1.3581 0
M  V30 5369 O 498.282 5.6989 -0.241201 0
M  V30 5370 O 497.216 5.61103 -2.17824 0
M  V30 5371 H 501.042 2.31046 -1.97108 0
M  V30 5372 H 498.627 1.09284 -1.01869 0
M  V30 5373 H 500.509 4.19488 -0.400982 0
M  V30 5374 H 499.184 3.2234 0.296421 0
M  V30 5375 H 498.091 3.14895 -2.0197 0
M  V30 5376 H 499.424 4.15364 -2.64071 0
M  V30 5377 N 501.076 1.04316 1.18135 0
M  V30 5378 C 502.487 0.775505 1.69832 0
M  V30 5379 C 502.838 -0.703348 1.8316 0
M  V30 5380 O 501.963 -1.54729 1.51287 0
M  V30 5381 C 502.558 1.40112 3.0847 0
M  V30 5382 C 501.117 1.18172 3.57368 0
M  V30 5383 C 500.264 1.49022 2.33854 0
M  V30 5384 H 503.215 1.20925 1.02775 0
M  V30 5385 H 503.236 0.805672 3.71873 0
M  V30 5386 H 502.748 2.47744 2.98738 0
M  V30 5387 H 500.849 0.124258 3.72393 0
M  V30 5388 H 500.962 1.8805 4.40652 0
M  V30 5389 H 499.326 0.909995 2.37889 0
M  V30 5390 H 500.109 2.57768 2.26738 0
M  V30 5391 N 502.554 -1.34406 0.822964 0
M  V30 5392 C 503.484 -2.32052 0.259608 0
M  V30 5393 C 504.465 -1.58243 -0.623961 0
M  V30 5394 O 505.65 -1.86224 -0.55083 0
M  V30 5395 C 502.78 -3.42434 -0.579314 0
M  V30 5396 C 501.734 -4.27499 0.20712 0
M  V30 5397 C 501.06 -5.29349 -0.754547 0
M  V30 5398 C 502.36 -5.02758 1.41533 0
M  V30 5399 H 504.054 -2.79418 1.07545 0
M  V30 5400 H 501.6 -1.34338 0.518593 0
M  V30 5401 H 503.553 -4.0976 -0.983612 0
M  V30 5402 H 502.277 -2.93717 -1.4282 0
M  V30 5403 H 500.936 -3.61776 0.592787 0
M  V30 5404 H 500.584 -4.76895 -1.59939 0
M  V30 5405 H 500.284 -5.8714 -0.232561 0
M  V30 5406 H 501.808 -5.99544 -1.1567 0
M  V30 5407 H 503.222 -5.62938 1.08504 0
M  V30 5408 H 501.619 -5.70123 1.87296 0
M  V30 5409 H 502.689 -4.32451 2.1935 0
M  V30 5410 N 504.032 -0.577932 -1.46621 0
M  V30 5411 C 504.942 0.160651 -2.34049 0
M  V30 5412 C 505.958 0.890911 -1.49462 0
M  V30 5413 O 507.134 0.855166 -1.82343 0
M  V30 5414 C 504.199 1.16447 -3.26559 0
M  V30 5415 C 503.26 0.4394 -4.27045 0
M  V30 5416 C 502.493 1.3954 -5.15135 0
M  V30 5417 O 502.716 2.63162 -5.06065 0
M  V30 5418 O 501.65 0.908585 -5.95003 0
M  V30 5419 H 505.476 -0.557057 -2.98547 0
M  V30 5420 H 503.061 -0.338369 -1.45518 0
M  V30 5421 H 504.943 1.7434 -3.83645 0
M  V30 5422 H 503.618 1.86373 -2.64663 0
M  V30 5423 H 502.525 -0.181247 -3.73661 0
M  V30 5424 H 503.858 -0.218799 -4.91713 0
M  V30 5425 N 505.51 1.54411 -0.315457 0
M  V30 5426 C 506.757 2.00419 0.289543 0
M  V30 5427 C 507.085 1.20373 1.52776 0
M  V30 5428 O 506.34 0.271769 1.93804 0
M  V30 5429 C 506.639 3.50936 0.676652 0
M  V30 5430 C 506.305 4.48532 -0.461472 0
M  V30 5431 C 504.967 4.74936 -0.773879 0
M  V30 5432 C 507.319 5.06567 -1.22637 0
M  V30 5433 C 504.647 5.56634 -1.85405 0
M  V30 5434 C 506.999 5.89441 -2.29657 0
M  V30 5435 C 505.663 6.1415 -2.61488 0
M  V30 5436 H 504.933 0.733386 0.105951 0
M  V30 5437 H 507.58 1.86434 -0.437554 0
M  V30 5438 H 505.885 3.62606 1.48405 0
M  V30 5439 H 507.582 3.83971 1.15618 0
M  V30 5440 H 504.172 4.28096 -0.207893 0
M  V30 5441 H 508.356 4.86157 -0.998271 0
M  V30 5442 H 503.612 5.74012 -2.10523 0
M  V30 5443 H 507.786 6.33432 -2.89374 0
M  V30 5444 H 505.413 6.77245 -3.45317 0
M  V30 5445 N 506.988 0.0434614 1.5754 0
M  V30 5446 C 508.213 -0.645358 1.97104 0
M  V30 5447 C 508.638 -1.64037 0.920521 0
M  V30 5448 O 507.996 -1.80922 -0.11708 0
M  V30 5449 C 508.044 -1.31547 3.35749 0
M  V30 5450 O 507.148 -2.43103 3.33129 0
M  V30 5451 H 506.489 -0.168403 0.64229 0
M  V30 5452 H 509.019 0.109573 2.04306 0
M  V30 5453 H 509.029 -1.66895 3.72304 0
M  V30 5454 H 507.704 -0.586205 4.11748 0
M  V30 5455 H 506.281 -2.0976 3.0831 0
M  V30 5456 N 508.466 -1.55915 -0.229846 0
M  V30 5457 C 509.696 -1.82352 -0.971152 0
M  V30 5458 C 510.104 -0.619231 -1.7878 0
M  V30 5459 O 509.447 0.421597 -1.78797 0
M  V30 5460 C 509.509 -3.02399 -1.9441 0
M  V30 5461 C 509.173 -4.37739 -1.31277 0
M  V30 5462 C 510.17 -5.15074 -0.706757 0
M  V30 5463 C 507.855 -4.84454 -1.32702 0
M  V30 5464 C 509.849 -6.37281 -0.123413 0
M  V30 5465 C 507.536 -6.06605 -0.739831 0
M  V30 5466 C 508.534 -6.82858 -0.139071 0
M  V30 5467 O 508.222 -8.027 0.439007 0
M  V30 5468 H 507.954 -0.61035 -0.290601 0
M  V30 5469 H 510.508 -2.03839 -0.252746 0
M  V30 5470 H 508.738 -2.76709 -2.70128 0
M  V30 5471 H 510.427 -3.15779 -2.55026 0
M  V30 5472 H 511.193 -4.80093 -0.688131 0
M  V30 5473 H 507.072 -4.25081 -1.78402 0
M  V30 5474 H 510.616 -6.96741 0.346124 0
M  V30 5475 H 506.513 -6.4106 -0.755841 0
M  V30 5476 H 507.281 -8.17824 0.332521 0
M  V30 5477 N 509.944 0.496216 -1.49584 0
M  V30 5478 C 511.355 1.07765 -1.52459 0
M  V30 5479 C 511.706 1.93679 -0.31353 0
M  V30 5480 O 510.831 2.08588 0.576186 0
M  V30 5481 C 511.426 1.96111 -2.76271 0
M  V30 5482 C 509.985 2.49409 -2.81908 0
M  V30 5483 C 509.132 1.27142 -2.46435 0
M  V30 5484 H 512.083 0.279914 -1.56212 0
M  V30 5485 H 512.104 2.80862 -2.56704 0
M  V30 5486 H 511.616 1.33555 -3.64396 0
M  V30 5487 H 509.717 3.1559 -1.98074 0
M  V30 5488 H 509.83 2.86234 -3.84196 0
M  V30 5489 H 508.194 1.59818 -1.98319 0
M  V30 5490 H 508.977 0.662866 -3.3684 0
M  V30 5491 N 511.423 1.38739 0.74761 0
M  V30 5492 C 512.671 1.35007 1.50391 0
M  V30 5493 C 512.992 -0.0574274 1.94915 0
M  V30 5494 O 512.262 -1.00628 1.6808 0
M  V30 5495 H 510.842 0.496784 0.557866 0
M  V30 5496 H 513.504 1.73479 0.888319 0
M  V30 5497 H 512.6 2.00474 2.392 0
M  V30 5498 N 512.901 -0.976442 1.23707 0
M  V30 5499 C 514.131 -1.75087 1.09673 0
M  V30 5500 C 514.539 -1.85852 -0.354344 0
M  V30 5501 O 513.882 -1.33985 -1.25673 0
M  V30 5502 C 513.944 -3.19272 1.65245 0
M  V30 5503 C 513.608 -3.32004 3.14042 0
M  V30 5504 C 514.605 -3.18017 4.11292 0
M  V30 5505 C 512.29 -3.56525 3.53829 0
M  V30 5506 C 514.284 -3.28363 5.46312 0
M  V30 5507 C 511.971 -3.6651 4.88993 0
M  V30 5508 C 512.969 -3.52439 5.85043 0
M  V30 5509 O 512.657 -3.62063 7.1775 0
M  V30 5510 H 512.389 -0.556164 0.384262 0
M  V30 5511 H 514.943 -1.23518 1.64111 0
M  V30 5512 H 513.173 -3.72107 1.05231 0
M  V30 5513 H 514.862 -3.7849 1.46629 0
M  V30 5514 H 515.628 -2.98966 3.81896 0
M  V30 5515 H 511.507 -3.66547 2.79579 0
M  V30 5516 H 515.051 -3.17297 6.21263 0
M  V30 5517 H 510.948 -3.85072 5.18063 0
M  V30 5518 H 511.716 -3.78833 7.25553 0
M  V30 5519 N 514.379 -1.04941 -1.1758 0
M  V30 5520 C 515.309 -0.669172 -2.23706 0
M  V30 5521 C 516.29 0.331835 -1.66832 0
M  V30 5522 O 517.475 0.209988 -1.93061 0
M  V30 5523 C 514.605 -0.0404889 -3.47276 0
M  V30 5524 C 513.559 -0.965983 -4.16957 0
M  V30 5525 C 512.885 -0.201312 -5.34321 0
M  V30 5526 C 514.185 -2.28902 -4.69469 0
M  V30 5527 H 515.879 -1.55639 -2.55767 0
M  V30 5528 H 513.425 -0.749793 -1.22939 0
M  V30 5529 H 515.378 0.237298 -4.20731 0
M  V30 5530 H 514.102 0.881658 -3.14475 0
M  V30 5531 H 512.761 -1.22829 -3.45411 0
M  V30 5532 H 512.409 0.723519 -4.97769 0
M  V30 5533 H 512.109 -0.817968 -5.81879 0
M  V30 5534 H 513.633 0.0692499 -6.10561 0
M  V30 5535 H 515.047 -2.07132 -5.34574 0
M  V30 5536 H 513.444 -2.85942 -5.27596 0
M  V30 5537 H 514.514 -2.92937 -3.86414 0
M  V30 5538 N 515.857 1.33968 -0.830081 0
M  V30 5539 C 516.82 2.27694 -0.26235 0
M  V30 5540 C 517.82 1.50589 0.563876 0
M  V30 5541 O 519.01 1.70028 0.378941 0
M  V30 5542 C 516.142 3.35002 0.63138 0
M  V30 5543 H 517.335 2.79419 -1.08928 0
M  V30 5544 H 514.888 1.44221 -0.602486 0
M  V30 5545 H 515.623 2.88504 1.48109 0
M  V30 5546 H 515.408 3.92079 0.0403276 0
M  V30 5547 H 516.898 4.04897 1.02217 0
M  V30 5548 N 517.335 0.585699 1.46312 0
M  V30 5549 C 518.265 -0.133556 2.33118 0
M  V30 5550 C 519.246 -0.880707 1.45525 0
M  V30 5551 O 520.431 -0.855579 1.74337 0
M  V30 5552 C 517.561 -1.14585 3.27853 0
M  V30 5553 C 516.515 -0.513341 4.2491 0
M  V30 5554 C 515.841 -1.63231 5.09175 0
M  V30 5555 C 517.141 0.551413 5.19381 0
M  V30 5556 H 518.835 0.59121 2.93505 0
M  V30 5557 H 516.381 0.285761 1.41136 0
M  V30 5558 H 518.334 -1.65741 3.87438 0
M  V30 5559 H 517.058 -1.90093 2.65579 0
M  V30 5560 H 515.717 -0.0228349 3.66593 0
M  V30 5561 H 515.365 -2.37713 4.43285 0
M  V30 5562 H 515.065 -1.21473 5.74907 0
M  V30 5563 H 516.589 -2.14658 5.71624 0
M  V30 5564 H 518.003 0.124804 5.73164 0
M  V30 5565 H 516.4 0.889486 5.93471 0
M  V30 5566 H 517.47 1.43655 4.63132 0
M  V30 5567 N 518.813 -1.54241 0.323641 0
M  V30 5568 C 520.061 -2.00174 -0.278359 0
M  V30 5569 C 520.382 -1.2134 -1.52648 0
M  V30 5570 O 519.652 -0.315244 -1.93347 0
M  V30 5571 H 518.232 -0.739463 -0.105845 0
M  V30 5572 H 520.894 -1.89864 0.440204 0
M  V30 5573 H 519.99 -3.07486 -0.5347 0
M  V30 5574 N 520.291 -0.0518155 -1.57515 0
M  V30 5575 C 521.201 0.937539 -2.15052 0
M  V30 5576 C 522.217 1.34121 -1.10849 0
M  V30 5577 O 523.393 1.418 -1.4302 0
M  V30 5578 C 520.458 2.19379 -2.68466 0
M  V30 5579 C 519.519 1.84841 -3.87469 0
M  V30 5580 C 518.752 3.04477 -4.38326 0
M  V30 5581 O 518.975 4.17868 -3.88256 0
M  V30 5582 O 517.909 2.85453 -5.29906 0
M  V30 5583 H 521.735 0.478201 -2.99912 0
M  V30 5584 H 519.32 0.17012 -1.48428 0
M  V30 5585 H 521.202 2.93084 -3.02787 0
M  V30 5586 H 519.877 2.64449 -1.86677 0
M  V30 5587 H 518.784 1.08449 -3.58036 0
M  V30 5588 H 520.117 1.44569 -4.7049 0
M  V30 5589 N 521.769 1.56035 0.221574 0
M  V30 5590 C 522.732 1.91584 1.2581 0
M  V30 5591 C 523.732 0.794425 1.39805 0
M  V30 5592 O 524.922 1.06217 1.38071 0
M  V30 5593 C 522.054 2.16663 2.63192 0
M  V30 5594 H 523.247 2.8429 0.954935 0
M  V30 5595 H 520.8 1.49316 0.461988 0
M  V30 5596 H 521.535 1.26508 2.98607 0
M  V30 5597 H 521.32 2.98358 2.5441 0
M  V30 5598 H 522.81 2.45262 3.37988 0
M  V30 5599 N 523.247 -0.488276 1.49845 0
M  V30 5600 C 524.197 -1.58556 1.63842 0
M  V30 5601 C 525.181 -1.53142 0.493586 0
M  V30 5602 O 526.373 -1.60457 0.747169 0
M  V30 5603 C 523.502 -2.97101 1.72005 0
M  V30 5604 C 522.588 -3.07463 2.92108 0
M  V30 5605 N 522.979 -2.87681 4.16021 0
M  V30 5606 C 521.277 -3.3858 2.90309 0
M  V30 5607 C 521.978 -3.0256 4.96822 0
M  V30 5608 N 520.954 -3.32002 4.30437 0
M  V30 5609 H 524.756 -1.41935 2.57355 0
M  V30 5610 H 522.27 -0.694668 1.46793 0
M  V30 5611 H 524.267 -3.75976 1.80132 0
M  V30 5612 H 522.927 -3.14782 0.796375 0
M  V30 5613 H 523.938 -2.63603 4.45796 0
M  V30 5614 H 520.615 -3.62357 2.07372 0
M  V30 5615 H 522.005 -2.9165 6.05301 0
M  V30 5616 N 524.725 -1.39134 -0.740242 0
M  V30 5617 C 525.655 -1.40165 -1.86751 0
M  V30 5618 C 526.636 -0.265708 -1.68012 0
M  V30 5619 O 527.821 -0.47076 -1.88408 0
M  V30 5620 C 524.951 -1.2392 -3.2444 0
M  V30 5621 C 523.905 -2.34858 -3.57807 0
M  V30 5622 C 523.231 -2.03707 -4.94376 0
M  V30 5623 C 524.531 -3.77159 -3.61315 0
M  V30 5624 H 526.225 -2.345 -1.86145 0
M  V30 5625 H 523.771 -1.12875 -0.89416 0
M  V30 5626 H 525.724 -1.23263 -4.02969 0
M  V30 5627 H 524.448 -0.26051 -3.25559 0
M  V30 5628 H 523.107 -2.34723 -2.81604 0
M  V30 5629 H 522.755 -1.04289 -4.9207 0
M  V30 5630 H 522.455 -2.78016 -5.17669 0
M  V30 5631 H 523.979 -2.04691 -5.75268 0
M  V30 5632 H 525.393 -3.79252 -4.29931 0
M  V30 5633 H 523.79 -4.50784 -3.96124 0
M  V30 5634 H 524.86 -4.08513 -2.61238 0
M  V30 5635 N 526.204 0.969867 -1.24223 0
M  V30 5636 C 527.429 1.75289 -1.10853 0
M  V30 5637 C 527.854 1.85091 0.335079 0
M  V30 5638 O 527.212 1.32024 1.24255 0
M  V30 5639 C 527.26 3.15255 -1.75062 0
M  V30 5640 O 526.364 3.99589 -1.01992 0
M  V30 5641 H 525.705 0.538904 -0.387915 0
M  V30 5642 H 528.235 1.21675 -1.64488 0
M  V30 5643 H 528.245 3.65787 -1.80731 0
M  V30 5644 H 526.92 3.07436 -2.801 0
M  V30 5645 H 525.497 3.58077 -1.04094 0
M  V30 5646 N 527.682 1.05563 1.17022 0
M  V30 5647 C 528.931 0.763036 1.8671 0
M  V30 5648 C 529.244 -0.712857 1.82147 0
M  V30 5649 O 530.45 -1.11955 2.47343 0
M  V30 5650 C 528.906 1.31474 3.35026 0
M  V30 5651 C 528.514 2.82034 3.48081 0
M  V30 5652 C 530.258 1.09935 4.10018 0
M  V30 5653 C 528.165 3.30486 4.90442 0
M  V30 5654 H 527.095 0.281747 0.699382 0
M  V30 5655 H 529.746 1.2734 1.32124 0
M  V30 5656 H 528.128 0.732171 3.89173 0
M  V30 5657 H 529.302 3.46178 3.04133 0
M  V30 5658 H 527.617 3.02156 2.86515 0
M  V30 5659 H 530.214 1.43632 5.15048 0
M  V30 5660 H 530.557 0.0373072 4.16283 0
M  V30 5661 H 531.09 1.64732 3.62089 0
M  V30 5662 H 527.829 4.36137 4.89352 0
M  V30 5663 H 527.349 2.71086 5.35044 0
M  V30 5664 H 529.028 3.25382 5.59227 0
M  V30 5665 N 529.16 -1.33526 0.837174 0
M  V30 5666 C 530.409 -1.97098 0.428387 0
M  V30 5667 C 530.722 -1.67062 -1.01734 0
M  V30 5668 O 531.928 -2.24235 -1.53072 0
M  V30 5669 C 530.384 -3.52725 0.715075 0
M  V30 5670 C 529.992 -3.9164 2.17537 0
M  V30 5671 C 531.736 -4.22857 0.373154 0
M  V30 5672 C 529.643 -5.40237 2.40619 0
M  V30 5673 H 528.573 -0.737589 0.156455 0
M  V30 5674 H 531.224 -1.52169 1.02552 0
M  V30 5675 H 529.606 -3.95971 0.0475904 0
M  V30 5676 H 530.78 -3.59456 2.88319 0
M  V30 5677 H 529.095 -3.34485 2.4801 0
M  V30 5678 H 531.692 -5.32133 0.523264 0
M  V30 5679 H 532.035 -4.10647 -0.683708 0
M  V30 5680 H 532.568 -3.85135 0.995801 0
M  V30 5681 H 529.307 -5.57449 3.44864 0
M  V30 5682 H 528.827 -5.73887 1.74396 0
M  V30 5683 H 530.506 -6.07102 2.23688 0
M  V30 5684 N 530.638 -0.59345 -1.46 0
M  V30 5685 C 531.601 0.123538 -2.28867 0
M  V30 5686 C 532.601 0.808628 -1.38989 0
M  V30 5687 O 533.791 0.658945 -1.61256 0
M  V30 5688 C 530.923 1.1847 -3.19653 0
M  V30 5689 H 532.116 -0.604843 -2.93737 0
M  V30 5690 H 529.669 -0.351875 -1.52288 0
M  V30 5691 H 530.404 1.94431 -2.59552 0
M  V30 5692 H 530.189 0.69783 -3.8584 0
M  V30 5693 H 531.679 1.68726 -3.81997 0
M  V30 5694 N 532.116 1.54067 -0.331816 0
M  V30 5695 C 533.064 2.26105 0.54582 0
M  V30 5696 C 534.058 1.27816 1.11173 0
M  V30 5697 O 535.264 1.45565 1.05882 0
M  V30 5698 H 531.639 0.726363 0.194683 0
M  V30 5699 H 533.61 2.98282 -0.083931 0
M  V30 5700 C 532.359 3.03814 1.69092 0
M  V30 5701 H 531.682 3.79269 1.26473 0
M  V30 5702 H 533.122 3.57453 2.28043 0
M  V30 5703 C 531.581 2.12606 2.61343 0
M  V30 5704 O 532.111 1.71437 3.6328 0
M  V30 5705 N 530.317 1.77925 2.29763 0
M  V30 5706 H 529.864 2.11602 1.46909 0
M  V30 5707 H 529.822 1.1718 2.91747 0
M  V30 5708 N 533.594 0.0601682 1.57485 0
M  V30 5709 C 534.557 -0.896373 2.10945 0
M  V30 5710 C 535.557 -1.23402 1.03095 0
M  V30 5711 O 536.747 -1.16921 1.29132 0
M  V30 5712 C 533.879 -2.20346 2.60116 0
M  V30 5713 H 535.072 -0.432778 2.96761 0
M  V30 5714 H 532.625 -0.188372 1.55161 0
M  V30 5715 H 533.36 -2.71268 1.7772 0
M  V30 5716 H 533.145 -1.9714 3.38937 0
M  V30 5717 H 534.635 -2.88846 3.01592 0
M  V30 5718 N 535.072 -1.5615 -0.213296 0
M  V30 5719 C 536.318 -1.79812 -0.937849 0
M  V30 5720 C 536.651 -0.631201 -1.83656 0
M  V30 5721 O 535.926 0.369165 -1.90964 0
M  V30 5722 C 536.209 -3.13613 -1.76972 0
M  V30 5723 C 536.062 -4.40766 -0.89695 0
M  V30 5724 C 537.381 -3.43931 -2.7459 0
M  V30 5725 H 534.5 -0.654138 -0.339518 0
M  V30 5726 H 537.142 -1.88877 -0.20623 0
M  V30 5727 H 535.292 -3.06015 -2.39347 0
M  V30 5728 H 536.964 -4.60392 -0.289306 0
M  V30 5729 H 535.207 -4.33326 -0.202756 0
M  V30 5730 H 535.878 -5.30843 -1.51358 0
M  V30 5731 H 538.354 -3.5171 -2.22349 0
M  V30 5732 H 537.23 -4.38706 -3.29891 0
M  V30 5733 H 537.491 -2.6651 -3.52739 0
M  V30 5734 N 536.55 0.480323 -1.50102 0
M  V30 5735 C 537.498 1.60024 -1.68805 0
M  V30 5736 C 538.492 1.60089 -0.553888 0
M  V30 5737 O 539.698 1.64349 -0.734127 0
M  V30 5738 H 536.073 0.530841 -0.532646 0
M  V30 5739 H 538.044 1.41408 -2.62767 0
M  V30 5740 C 536.793 2.98029 -1.79092 0
M  V30 5741 H 536.116 2.98694 -2.65748 0
M  V30 5742 H 537.556 3.75871 -1.96206 0
M  V30 5743 C 536.015 3.32538 -0.540388 0
M  V30 5744 O 536.545 4.00386 0.324637 0
M  V30 5745 N 534.751 2.87873 -0.397154 0
M  V30 5746 H 534.298 2.32834 -1.1021 0
M  V30 5747 H 534.256 3.11328 0.438425 0
M  V30 5748 N 538.028 1.39524 0.732853 0
M  V30 5749 C 538.938 1.40695 1.87729 0
M  V30 5750 C 539.954 0.301496 1.71368 0
M  V30 5751 O 541.13 0.543313 1.93933 0
M  V30 5752 C 538.195 1.25098 3.23344 0
M  V30 5753 C 537.256 2.45634 3.52083 0
M  V30 5754 C 536.489 2.30772 4.81228 0
M  V30 5755 O 536.712 1.31233 5.55098 0
M  V30 5756 O 535.646 3.19799 5.09914 0
M  V30 5757 H 539.472 2.37168 1.89697 0
M  V30 5758 H 537.057 1.20663 0.880959 0
M  V30 5759 H 538.939 1.18541 4.04383 0
M  V30 5760 H 537.614 0.317209 3.22142 0
M  V30 5761 H 536.521 2.57767 2.71122 0
M  V30 5762 H 537.854 3.37712 3.58066 0
M  V30 5763 N 539.506 -0.963266 1.24736 0
M  V30 5764 C 540.754 -1.70343 1.08755 0
M  V30 5765 C 541.075 -1.91387 -0.373619 0
M  V30 5766 O 540.345 -1.4948 -1.2662 0
M  V30 5767 H 538.925 -0.631224 0.399456 0
M  V30 5768 H 541.587 -1.15859 1.56725 0
M  V30 5769 H 540.683 -2.68616 1.58909 0
M  V30 5770 N 540.985 -1.06182 -1.16461 0
M  V30 5771 C 542.213 -0.798583 -1.90867 0
M  V30 5772 C 542.628 0.646921 -1.77371 0
M  V30 5773 O 541.985 1.44279 -1.11758 0
M  V30 5774 C 542.036 -1.18258 -3.4161 0
M  V30 5775 O 541.757 -2.57135 -3.54701 0
M  V30 5776 C 543.258 -0.946917 -4.33069 0
M  V30 5777 H 540.478 -0.289603 -0.605286 0
M  V30 5778 H 543.022 -1.41515 -1.47627 0
M  V30 5779 H 541.177 -0.610562 -3.82558 0
M  V30 5780 H 541.591 -2.72477 -4.4817 0
M  V30 5781 H 543.065 -1.26523 -5.37304 0
M  V30 5782 H 543.542 0.117406 -4.39043 0
M  V30 5783 H 544.148 -1.50326 -3.97847 0
M  V30 5784 N 542.463 1.3308 -0.844243 0
M  V30 5785 C 543.693 2.01515 -0.455541 0
M  V30 5786 C 544.101 1.63655 0.949406 0
M  V30 5787 O 543.444 0.84848 1.62931 0
M  V30 5788 C 543.506 3.55967 -0.502801 0
M  V30 5789 C 543.17 4.17222 -1.86481 0
M  V30 5790 C 544.167 4.36205 -2.8288 0
M  V30 5791 C 541.852 4.53528 -2.15911 0
M  V30 5792 C 543.846 4.90649 -4.06869 0
M  V30 5793 C 541.533 5.07679 -3.40155 0
M  V30 5794 C 542.531 5.26186 -4.35451 0
M  V30 5795 O 542.219 5.79183 -5.57496 0
M  V30 5796 H 541.951 0.65199 -0.178565 0
M  V30 5797 H 544.505 1.70867 -1.1399 0
M  V30 5798 H 542.735 3.85965 0.23836 0
M  V30 5799 H 544.424 4.05688 -0.131169 0
M  V30 5800 H 545.19 4.085 -2.61444 0
M  V30 5801 H 541.069 4.38414 -1.42528 0
M  V30 5802 H 544.613 5.0501 -4.81259 0
M  V30 5803 H 540.51 5.34815 -3.61446 0
M  V30 5804 H 541.278 5.97591 -5.5931 0
M  V30 5805 N 543.941 0.601185 1.45683 0
M  V30 5806 C 545.169 0.100054 2.06658 0
M  V30 5807 C 545.584 -1.21285 1.44691 0
M  V30 5808 O 544.941 -1.73735 0.558772 0
M  V30 5809 C 544.992 -0.0528579 3.61461 0
M  V30 5810 O 544.713 1.20809 4.21114 0
M  V30 5811 C 546.214 -0.586193 4.39407 0
M  V30 5812 H 543.434 0.065905 0.667756 0
M  V30 5813 H 545.978 0.827101 1.87028 0
M  V30 5814 H 544.133 -0.730203 3.80456 0
M  V30 5815 H 544.547 1.03368 5.14213 0
M  V30 5816 H 546.021 -0.642297 5.4825 0
M  V30 5817 H 546.498 -1.60713 4.0874 0
M  V30 5818 H 547.104 0.0568935 4.25262 0
M  V30 5819 N 545.419 -1.53889 0.339982 0
M  V30 5820 C 546.659 -2.02765 -0.258011 0
M  V30 5821 C 547.023 -1.22249 -1.48051 0
M  V30 5822 O 548.224 -1.61007 -2.15245 0
M  V30 5823 C 546.495 -3.5286 -0.567872 0
M  V30 5824 S 548.054 -4.23647 -1.14318 0
M  V30 5825 H 544.872 -0.706814 -0.0770389 0
M  V30 5826 H 547.474 -1.89594 0.476917 0
M  V30 5827 H 546.178 -4.09073 0.329745 0
M  V30 5828 H 545.709 -3.70144 -1.33256 0
M  V30 5829 H 547.724 -4.32676 -2.42911 0
M  V30 5830 N 546.897 -0.0685191 -1.57451 0
M  V30 5831 C 548.143 0.602239 -1.93652 0
M  V30 5832 C 548.476 1.6946 -0.948526 0
M  V30 5833 O 547.751 1.94487 0.022782 0
M  V30 5834 C 548.034 1.18223 -3.4014 0
M  V30 5835 C 547.887 0.0967431 -4.49696 0
M  V30 5836 C 549.206 2.08872 -3.87377 0
M  V30 5837 H 546.325 0.217453 -0.70419 0
M  V30 5838 H 548.967 -0.133821 -1.89528 0
M  V30 5839 H 547.117 1.80953 -3.43785 0
M  V30 5840 H 548.789 -0.536155 -4.58174 0
M  V30 5841 H 547.032 -0.573063 -4.29998 0
M  V30 5842 H 547.703 0.542894 -5.49324 0
M  V30 5843 H 550.179 1.56081 -3.85717 0
M  V30 5844 H 549.055 2.46389 -4.90493 0
M  V30 5845 H 549.316 2.99572 -3.25129 0
M  V30 5846 N 548.375 1.56261 0.205012 0
M  V30 5847 C 549.621 1.80306 0.9283 0
M  V30 5848 C 549.954 0.640932 1.83319 0
M  V30 5849 O 549.229 -0.359032 1.91158 0
M  V30 5850 C 549.512 3.14547 1.75306 0
M  V30 5851 C 549.365 4.41236 0.873562 0
M  V30 5852 C 550.684 3.45382 2.72762 0
M  V30 5853 H 547.803 0.655929 0.336044 0
M  V30 5854 H 550.445 1.88984 0.196211 0
M  V30 5855 H 548.595 3.0728 2.37721 0
M  V30 5856 H 550.267 4.60539 0.264887 0
M  V30 5857 H 548.51 4.33427 0.179773 0
M  V30 5858 H 549.181 5.31639 1.48541 0
M  V30 5859 H 551.657 3.52884 2.20481 0
M  V30 5860 H 550.533 4.40449 3.2756 0
M  V30 5861 H 550.794 2.68377 3.51321 0
M  V30 5862 N 549.853 -0.472356 1.50355 0
M  V30 5863 C 551.269 -0.806001 1.37753 0
M  V30 5864 C 551.469 -1.968 0.432649 0
M  V30 5865 O 550.525 -2.52189 -0.12519 0
M  V30 5866 C 551.838 -1.11926 2.79093 0
M  V30 5867 C 553.386 -1.22579 2.87999 0
M  V30 5868 C 553.861 -1.57218 4.3017 0
M  V30 5869 N 555.352 -1.64212 4.33115 0
M  V30 5870 C 556.087 -1.92517 5.40116 0
M  V30 5871 N 555.583 -2.1885 6.57325 0
M  V30 5872 N 557.376 -1.94008 5.27558 0
M  V30 5873 H 549.527 0.293451 2.10363 0
M  V30 5874 H 551.79 0.0687672 0.945503 0
M  V30 5875 H 551.496 -0.338504 3.50067 0
M  V30 5876 H 551.37 -2.05577 3.16256 0
M  V30 5877 H 553.757 -1.99722 2.17245 0
M  V30 5878 H 553.838 -0.269107 2.54381 0
M  V30 5879 H 553.482 -0.806154 5.01461 0
M  V30 5880 H 553.412 -2.54034 4.61275 0
M  V30 5881 H 555.903 -1.45906 3.48597 0
M  V30 5882 H 556.216 -2.39718 7.3468 0
M  V30 5883 H 554.561 -2.16245 6.60502 0
M  V30 5884 H 557.752 -1.72931 4.34986 0
M  V30 5885 H 557.925 -2.15731 6.11035 0
M  V30 5886 N 551.331 -1.39911 -0.725443 0
M  V30 5887 C 552.747 -1.21725 -1.03224 0
M  V30 5888 C 552.947 -0.0855224 -2.01318 0
M  V30 5889 O 552.003 0.55976 -2.46217 0
M  V30 5890 C 553.316 -2.55511 -1.58539 0
M  V30 5891 C 554.864 -2.62439 -1.70572 0
M  V30 5892 C 555.339 -3.9647 -2.29294 0
M  V30 5893 N 556.83 -3.98159 -2.36692 0
M  V30 5894 C 557.565 -4.98647 -2.83088 0
M  V30 5895 N 557.061 -6.0953 -3.2931 0
M  V30 5896 N 558.854 -4.8602 -2.82384 0
M  V30 5897 H 551.005 -2.12267 -0.075048 0
M  V30 5898 H 553.268 -0.943136 -0.0959066 0
M  V30 5899 H 552.974 -3.38926 -0.939249 0
M  V30 5900 H 552.848 -2.75905 -2.57208 0
M  V30 5901 H 555.235 -1.79401 -2.34306 0
M  V30 5902 H 555.316 -2.45885 -0.705297 0
M  V30 5903 H 554.96 -4.79942 -1.66186 0
M  V30 5904 H 554.89 -4.10349 -3.30032 0
M  V30 5905 H 557.381 -3.18085 -2.04035 0
M  V30 5906 H 557.694 -6.82106 -3.6325 0
M  V30 5907 H 556.039 -6.1311 -3.27294 0
M  V30 5908 H 559.23 -3.98493 -2.45603 0
M  V30 5909 H 559.403 -5.64478 -3.18226 0
M  V30 5910 N 552.809 0.956637 -1.25245 0
M  V30 5911 C 553.741 2.05628 -1.01242 0
M  V30 5912 C 554.754 1.62785 0.0219579 0
M  V30 5913 O 555.943 1.77184 -0.216365 0
M  V30 5914 C 553.043 3.35069 -0.508161 0
M  V30 5915 C 552.216 4.06761 -1.60823 0
M  V30 5916 C 551.275 5.14473 -1.1047 0
M  V30 5917 O 550.301 5.40033 -1.79868 0
M  V30 5918 N 551.503 5.80474 0.0550773 0
M  V30 5919 H 554.268 2.2679 -1.95925 0
M  V30 5920 H 551.829 1.12505 -1.16423 0
M  V30 5921 H 553.821 4.044 -0.155819 0
M  V30 5922 H 552.391 3.10694 0.344683 0
M  V30 5923 H 551.611 3.31555 -2.13224 0
M  V30 5924 H 552.899 4.51418 -2.34733 0
M  V30 5925 H 552.297 5.62125 0.635004 0
M  V30 5926 H 550.854 6.50868 0.348469 0
M  V30 5927 N 554.287 1.06798 1.15896 0
M  V30 5928 C 555.219 0.641263 2.20046 0
M  V30 5929 C 556.232 -0.303355 1.59949 0
M  V30 5930 O 557.421 -0.0935478 1.78255 0
M  V30 5931 C 554.521 -0.0794029 3.38807 0
M  V30 5932 C 553.694 0.879986 4.28457 0
M  V30 5933 C 552.753 0.197638 5.25829 0
M  V30 5934 O 551.779 0.836913 5.63014 0
M  V30 5935 N 552.981 -1.05886 5.70761 0
M  V30 5936 H 555.746 1.53718 2.57276 0
M  V30 5937 H 553.307 0.951951 1.30956 0
M  V30 5938 H 555.299 -0.546418 4.00994 0
M  V30 5939 H 553.869 -0.877193 3.0004 0
M  V30 5940 H 553.089 1.52625 3.63454 0
M  V30 5941 H 554.377 1.53065 4.8523 0
M  V30 5942 H 553.775 -1.59828 5.42652 0
M  V30 5943 H 552.332 -1.46965 6.35015 0
M  V30 5944 N 555.766 -1.3263 0.851289 0
M  V30 5945 C 557.182 -1.50162 0.5407 0
M  V30 5946 C 557.382 -1.78788 -0.929369 0
M  V30 5947 O 556.438 -1.85545 -1.71258 0
M  V30 5948 C 557.751 -2.64803 1.42478 0
M  V30 5949 C 559.299 -2.78688 1.42485 0
M  V30 5950 C 559.774 -3.96405 2.29407 0
M  V30 5951 N 561.265 -4.0366 2.27184 0
M  V30 5952 C 562 -4.93971 2.9117 0
M  V30 5953 N 561.496 -5.89313 3.64256 0
M  V30 5954 N 563.289 -4.87066 2.80576 0
M  V30 5955 H 555.44 -1.12315 1.80275 0
M  V30 5956 H 557.703 -0.553266 0.769806 0
M  V30 5957 H 557.409 -2.50368 2.46999 0
M  V30 5958 H 557.283 -3.60506 1.10974 0
M  V30 5959 H 559.67 -2.92547 0.387304 0
M  V30 5960 H 559.751 -1.83708 1.78002 0
M  V30 5961 H 559.395 -3.83304 3.33228 0
M  V30 5962 H 559.325 -4.90654 1.91224 0
M  V30 5963 H 561.816 -3.35435 1.74045 0
M  V30 5964 H 562.129 -6.54913 4.10255 0
M  V30 5965 H 560.474 -5.8935 3.68364 0
M  V30 5966 H 563.665 -4.11552 2.23031 0
M  V30 5967 H 563.838 -5.57248 3.30725 0
M  V30 5968 N 557.244 -0.608902 -1.45362 0
M  V30 5969 C 558.49 -0.104762 -2.02529 0
M  V30 5970 C 558.823 1.26191 -1.47613 0
M  V30 5971 O 558.098 1.8327 -0.65134 0
M  V30 5972 C 558.381 -0.0672661 -3.60037 0
M  V30 5973 C 558.234 -1.4647 -4.25284 0
M  V30 5974 C 559.553 0.619877 -4.35713 0
M  V30 5975 H 556.672 -0.0395438 -0.735938 0
M  V30 5976 H 559.314 -0.781126 -1.73201 0
M  V30 5977 H 557.464 0.50871 -3.85155 0
M  V30 5978 H 559.136 -2.08785 -4.11347 0
M  V30 5979 H 557.379 -2.02502 -3.83634 0
M  V30 5980 H 558.05 -1.39069 -5.34195 0
M  V30 5981 H 560.526 0.130297 -4.15896 0
M  V30 5982 H 559.402 0.615224 -5.45441 0
M  V30 5983 H 559.663 1.68621 -4.0868 0
M  V30 5984 N 558.722 1.53707 -0.348139 0
M  V30 5985 C 559.652 2.28111 0.498766 0
M  V30 5986 C 560.633 1.29851 1.09876 0
M  V30 5987 O 561.818 1.587 1.11928 0
M  V30 5988 C 558.948 3.05735 1.64753 0
M  V30 5989 C 557.902 4.11537 1.17565 0
M  V30 5990 C 557.228 4.77142 2.4133 0
M  V30 5991 C 558.528 5.21587 0.272844 0
M  V30 5992 H 560.222 2.99152 -0.121934 0
M  V30 5993 H 557.768 1.43875 -0.0600842 0
M  V30 5994 H 559.721 3.56526 2.24649 0
M  V30 5995 H 558.445 2.32354 2.2952 0
M  V30 5996 H 557.104 3.61665 0.599483 0
M  V30 5997 H 556.752 4.0035 3.04514 0
M  V30 5998 H 556.452 5.48626 2.10436 0
M  V30 5999 H 557.976 5.30719 3.01943 0
M  V30 6000 H 559.39 5.67986 0.778779 0
M  V30 6001 H 557.787 6.00074 0.0555849 0
M  V30 6002 H 558.857 4.79969 -0.689785 0
M  V30 6003 N 560.2 0.0768682 1.57412 0
M  V30 6004 C 561.428 -0.59997 1.9801 0
M  V30 6005 C 561.843 -1.62842 0.955408 0
M  V30 6006 O 561.2 -1.8241 -0.057314 0
M  V30 6007 C 561.251 -1.26401 3.38681 0
M  V30 6008 O 560.972 -0.276723 4.37225 0
M  V30 6009 C 562.473 -2.0282 3.94182 0
M  V30 6010 H 559.693 -0.162239 0.651091 0
M  V30 6011 H 562.237 0.150771 2.03943 0
M  V30 6012 H 560.392 -1.96581 3.33819 0
M  V30 6013 H 560.806 -0.753744 5.19056 0
M  V30 6014 H 562.28 -2.44667 4.94815 0
M  V30 6015 H 562.757 -2.88678 3.31001 0
M  V30 6016 H 563.363 -1.37496 4.02461 0
M  V30 6017 N 561.678 -1.56367 -0.196722 0
M  V30 6018 C 562.906 -1.84639 -0.933608 0
M  V30 6019 C 563.321 -0.659164 -1.76919 0
M  V30 6020 O 562.678 0.372142 -1.78665 0
M  V30 6021 C 562.729 -3.11694 -1.83109 0
M  V30 6022 O 562.45 -4.25838 -1.02924 0
M  V30 6023 C 563.951 -3.53132 -2.67979 0
M  V30 6024 H 561.171 -0.613188 -0.272473 0
M  V30 6025 H 563.715 -2.03475 -0.204465 0
M  V30 6026 H 561.87 -2.94759 -2.51387 0
M  V30 6027 H 562.284 -4.98178 -1.64069 0
M  V30 6028 H 563.758 -4.45005 -3.26611 0
M  V30 6029 H 564.235 -2.76045 -3.41608 0
M  V30 6030 H 564.841 -3.72592 -2.05074 0
M  V30 6031 N 563.156 0.464375 -1.50603 0
M  V30 6032 C 564.386 1.23727 -1.65454 0
M  V30 6033 C 564.794 1.86119 -0.340032 0
M  V30 6034 O 564.137 1.70301 0.688706 0
M  V30 6035 C 564.199 2.38153 -2.69301 0
M  V30 6036 C 563.863 1.96345 -4.12671 0
M  V30 6037 C 564.86 1.48215 -4.98326 0
M  V30 6038 C 562.545 2.04861 -4.58625 0
M  V30 6039 C 564.539 1.09152 -6.27985 0
M  V30 6040 C 562.226 1.65409 -5.88288 0
M  V30 6041 C 563.224 1.17634 -6.72794 0
M  V30 6042 O 562.912 0.787312 -8.00035 0
M  V30 6043 H 562.644 0.380075 -0.559034 0
M  V30 6044 H 565.198 0.559919 -1.97621 0
M  V30 6045 H 563.428 3.09081 -2.32392 0
M  V30 6046 H 565.117 3.00099 -2.73304 0
M  V30 6047 H 565.883 1.41052 -4.64036 0
M  V30 6048 H 561.762 2.40996 -3.92991 0
M  V30 6049 H 565.306 0.717909 -6.93896 0
M  V30 6050 H 561.203 1.72233 -6.22098 0
M  V30 6051 H 561.971 0.915567 -8.13363 0
M  V30 6052 N 564.634 1.40294 0.718013 0
M  V30 6053 C 565.859 1.41941 1.5122 0
M  V30 6054 C 566.284 0.0202371 1.88089 0
M  V30 6055 O 565.642 -0.971078 1.53101 0
M  V30 6056 C 565.69 2.3141 2.76554 0
M  V30 6057 O 564.794 1.75567 3.73162 0
M  V30 6058 H 564.135 0.482644 0.456016 0
M  V30 6059 H 566.665 1.84494 0.884478 0
M  V30 6060 H 566.675 2.46513 3.25108 0
M  V30 6061 H 565.35 3.33085 2.49053 0
M  V30 6062 H 563.927 1.69798 3.31999 0
M  V30 6063 N 566.112 -0.949982 1.2575 0
M  V30 6064 C 567.358 -1.69822 1.11947 0
M  V30 6065 C 567.713 -1.89455 -0.335334 0
M  V30 6066 O 567.006 -1.45778 -1.24336 0
M  V30 6067 C 567.2 -3.08039 1.81237 0
M  V30 6068 C 567.029 -3.0189 3.33305 0
M  V30 6069 C 565.799 -3.05391 4.02573 0
M  V30 6070 C 567.997 -2.827 4.29634 0
M  V30 6071 N 565.979 -2.89449 5.4138 0
M  V30 6072 C 567.35 -2.75237 5.55558 0
M  V30 6073 C 569.405 -2.67416 4.19992 0
M  V30 6074 C 568.108 -2.54051 6.72942 0
M  V30 6075 C 570.134 -2.47602 5.37073 0
M  V30 6076 C 569.496 -2.40863 6.6194 0
M  V30 6077 H 565.595 -0.629188 0.464378 0
M  V30 6078 H 568.179 -1.1249 1.58916 0
M  V30 6079 H 566.35 -3.63528 1.36756 0
M  V30 6080 H 568.082 -3.71671 1.60134 0
M  V30 6081 H 564.837 -3.14763 3.53866 0
M  V30 6082 H 565.261 -2.84669 6.14241 0
M  V30 6083 H 569.903 -2.71398 3.24196 0
M  V30 6084 H 567.621 -2.48811 7.68842 0
M  V30 6085 H 571.207 -2.36694 5.31477 0
M  V30 6086 H 570.087 -2.25732 7.51009 0
M  V30 6087 N 567.59 -1.07411 -1.15328 0
M  V30 6088 C 569.006 -0.799759 -1.38116 0
M  V30 6089 C 569.206 0.59572 -1.92493 0
M  V30 6090 O 568.262 1.35433 -2.13106 0
M  V30 6091 C 569.575 -1.87407 -2.35158 0
M  V30 6092 C 571.123 -1.89889 -2.48819 0
M  V30 6093 C 571.598 -2.96406 -3.49153 0
M  V30 6094 N 573.089 -2.95512 -3.56689 0
M  V30 6095 C 573.824 -3.74575 -4.34144 0
M  V30 6096 N 573.32 -4.63488 -5.14928 0
M  V30 6097 N 575.113 -3.62919 -4.29239 0
M  V30 6098 H 567.264 -1.97411 -0.78374 0
M  V30 6099 H 569.527 -0.856113 -0.407154 0
M  V30 6100 H 569.233 -2.8768 -2.0232 0
M  V30 6101 H 569.107 -1.73471 -3.34944 0
M  V30 6102 H 571.494 -0.902677 -2.80955 0
M  V30 6103 H 571.575 -2.07904 -1.49029 0
M  V30 6104 H 571.219 -3.96227 -3.17752 0
M  V30 6105 H 571.149 -2.75638 -4.48699 0
M  V30 6106 H 573.64 -2.31061 -2.99031 0
M  V30 6107 H 573.953 -5.20445 -5.71276 0
M  V30 6108 H 572.298 -4.67537 -5.14232 0
M  V30 6109 H 575.489 -2.92833 -3.65194 0
M  V30 6110 H 575.662 -4.24777 -4.89355 0
M  V30 6111 N 569.068 1.32177 -0.85831 0
M  V30 6112 C 570.314 1.97417 -0.46417 0
M  V30 6113 C 570.647 1.67746 0.978514 0
M  V30 6114 O 569.922 0.967654 1.68721 0
M  V30 6115 C 570.205 3.53069 -0.708094 0
M  V30 6116 C 570.058 3.92357 -2.19946 0
M  V30 6117 C 571.377 4.39783 -0.166881 0
M  V30 6118 H 568.496 0.717097 -0.17012 0
M  V30 6119 H 571.138 1.56499 -1.07741 0
M  V30 6120 H 569.288 3.88054 -0.186128 0
M  V30 6121 H 570.96 3.67533 -2.78779 0
M  V30 6122 H 569.203 3.41384 -2.67656 0
M  V30 6123 H 569.874 5.00841 -2.32082 0
M  V30 6124 H 572.35 4.11556 -0.613285 0
M  V30 6125 H 571.226 5.47671 -0.367093 0
M  V30 6126 H 571.487 4.32196 0.930559 0
M  V30 6127 N 570.547 0.616602 1.45037 0
M  V30 6128 C 571.963 0.280994 1.57107 0
M  V30 6129 C 572.163 -1.21627 1.60653 0
M  V30 6130 O 571.219 -1.9997 1.54169 0
M  V30 6131 C 572.532 0.960116 2.8496 0
M  V30 6132 C 574.08 0.936884 2.98649 0
M  V30 6133 C 574.555 1.59619 4.29285 0
M  V30 6134 N 576.046 1.5621 4.36065 0
M  V30 6135 C 576.781 2.04131 5.35834 0
M  V30 6136 N 576.277 2.60177 6.4209 0
M  V30 6137 N 578.07 1.94845 5.27249 0
M  V30 6138 H 570.221 1.58867 1.40979 0
M  V30 6139 H 572.484 0.666024 0.674623 0
M  V30 6140 H 572.19 2.01473 2.88273 0
M  V30 6141 H 572.064 0.488921 3.74018 0
M  V30 6142 H 574.451 -0.109209 2.94898 0
M  V30 6143 H 574.532 1.44643 2.10979 0
M  V30 6144 H 574.176 2.64166 4.33796 0
M  V30 6145 H 574.106 1.06159 5.15789 0
M  V30 6146 H 576.597 1.15276 3.59889 0
M  V30 6147 H 576.91 2.94513 7.1448 0
M  V30 6148 H 575.255 2.64221 6.42816 0
M  V30 6149 H 578.446 1.50792 4.43147 0
M  V30 6150 H 578.619 2.32504 6.04852 0
M  V30 6151 N 572.025 -1.5352 0.356285 0
M  V30 6152 C 573.271 -2.01414 -0.236653 0
M  V30 6153 C 573.604 -1.24339 -1.49176 0
M  V30 6154 O 572.879 -0.334496 -1.91602 0
M  V30 6155 C 573.162 -3.56059 -0.537982 0
M  V30 6156 C 573.015 -4.43835 0.730112 0
M  V30 6157 C 574.334 -4.19127 -1.34239 0
M  V30 6158 H 571.453 -0.732135 -0.0845386 0
M  V30 6159 H 574.095 -1.83854 0.479341 0
M  V30 6160 H 572.245 -3.71153 -1.14795 0
M  V30 6161 H 573.917 -4.40555 1.36782 0
M  V30 6162 H 572.16 -4.1218 1.3524 0
M  V30 6163 H 572.831 -5.49958 0.474358 0
M  V30 6164 H 575.307 -4.07809 -0.826498 0
M  V30 6165 H 574.183 -5.27378 -1.52198 0
M  V30 6166 H 574.444 -3.74581 -2.34822 0
M  V30 6167 N 573.503 -0.0852151 -1.57369 0
M  V30 6168 C 574.919 0.271436 -1.57275 0
M  V30 6169 C 575.119 1.69109 -1.09565 0
M  V30 6170 O 574.175 2.40549 -0.767611 0
M  V30 6171 C 575.488 0.0688638 -3.00621 0
M  V30 6172 C 577.036 0.137373 -3.12698 0
M  V30 6173 C 577.511 -0.0370832 -4.57985 0
M  V30 6174 N 579.002 0.0180794 -4.63196 0
M  V30 6175 C 579.737 -0.0922953 -5.73326 0
M  V30 6176 N 579.233 -0.256948 -6.92323 0
M  V30 6177 N 581.026 -0.0342702 -5.6209 0
M  V30 6178 H 573.177 -1.01288 -1.86693 0
M  V30 6179 H 575.44 -0.396138 -0.861266 0
M  V30 6180 H 575.146 -0.911277 -3.39689 0
M  V30 6181 H 575.02 0.815442 -3.6828 0
M  V30 6182 H 577.407 1.10801 -2.73509 0
M  V30 6183 H 577.488 -0.640532 -2.47651 0
M  V30 6184 H 577.132 -1.00455 -4.97867 0
M  V30 6185 H 577.062 0.760392 -5.21081 0
M  V30 6186 H 579.553 0.143202 -3.77629 0
M  V30 6187 H 579.866 -0.332949 -7.72082 0
M  V30 6188 H 578.211 -0.292487 -6.94384 0
M  V30 6189 H 581.402 0.0931605 -4.68007 0
M  V30 6190 H 581.575 -0.12374 -6.47882 0
M  V30 6191 N 574.981 1.5647 0.188427 0
M  V30 6192 C 576.229 1.80655 0.905986 0
M  V30 6193 C 576.55 0.659391 1.83513 0
M  V30 6194 O 575.82 -0.321868 1.93238 0
M  V30 6195 H 574.4 0.666391 0.337538 0
M  V30 6196 H 577.062 1.93949 0.192339 0
M  V30 6197 H 576.158 2.74066 1.49313 0
M  V30 6198 O 576.498 -0.333583 1.58017 0
M  V30 6199 H 577.189 -0.982643 1.66925 0
M  V30 END ATOM
M  V30 BEGIN BOND
M  V30 END BOND
M  V30 END CTAB
M  END
$$$$
