drugbank_target|Q8GB52 Extracellular subtilisin-like serine proteinase (DB03297)
 OpenBabel12092120273D

  0  0  0     0  0            999 V3000
M  V30 BEGIN CTAB
M  V30 COUNTS 7661 7727 0 0 0
M  V30 BEGIN ATOM
M  V30 1 H -0.908 1.98254 -0.117106 0
M  V30 2 N 0 1.576 0 0
M  V30 3 C 0.933 2.03868 1.02534 0
M  V30 4 C 1.911 0.928543 1.3348 0
M  V30 5 O 3.095 1.19667 1.45644 0
M  V30 6 C 0.222 2.43627 2.35294 0
M  V30 7 C -0.732 3.65373 2.2001 0
M  V30 8 S 0.101 5.13292 1.52614 0
M  V30 9 C 1.257 5.56322 2.86805 0
M  V30 10 H 1.49 2.90518 0.631377 0
M  V30 11 H -0.977 1.52953 0.210867 0
M  V30 12 H 0.981 2.67203 3.11629 0
M  V30 13 H -0.358 1.57376 2.7183 0
M  V30 14 H -1.165 3.90944 3.18086 0
M  V30 15 H -1.563 3.418 1.51819 0
M  V30 16 H 0.729 5.58782 3.83104 0
M  V30 17 H 1.672 6.56266 2.65933 0
M  V30 18 H 2.08 4.83886 2.90714 0
M  V30 19 N 1.4781 -0.272755 1.55222 0
M  V30 20 C 2.4081 -1.34136 1.91127 0
M  V30 21 C 3.3891 -1.51513 0.773168 0
M  V30 22 O 4.5741 -1.64552 1.03132 0
M  V30 23 C 1.7041 -2.70083 2.1834 0
M  V30 24 C 0.6581 -2.67437 3.34158 0
M  V30 25 C -0.0159 -4.06938 3.46851 0
M  V30 26 C 1.2841 -2.26686 4.70543 0
M  V30 27 H 2.9781 -1.04333 2.80633 0
M  V30 28 H 0.5241 -0.500454 1.35024 0
M  V30 29 H 2.4771 -3.44952 2.42046 0
M  V30 30 H 1.2011 -3.01469 1.25634 0
M  V30 31 H -0.1399 -1.95026 3.1042 0
M  V30 32 H -0.4919 -4.35547 2.51611 0
M  V30 33 H -0.7919 -4.06062 4.2472 0
M  V30 34 H 0.7321 -4.83545 3.72849 0
M  V30 35 H 2.1461 -2.91277 4.93792 0
M  V30 36 H 0.5431 -2.36971 5.5133 0
M  V30 37 H 1.6131 -1.21818 4.69349 0
M  V30 38 N 2.9562 -1.48159 -0.537278 0
M  V30 39 C 3.9032 -1.62138 -1.64256 0
M  V30 40 C 4.8732 -0.463668 -1.59497 0
M  V30 41 O 6.0582 -0.686241 -1.78032 0
M  V30 42 C 3.1982 -1.66028 -3.02537 0
M  V30 43 C 2.3112 -2.92855 -3.17585 0
M  V30 44 C 1.4462 -2.87952 -4.46382 0
M  V30 45 C 0.4852 -4.09516 -4.54932 0
M  V30 46 N -0.3778 -4.02733 -5.75109 0
M  V30 47 H 4.4622 -2.56529 -1.51647 0
M  V30 48 H 1.9992 -1.27224 -0.738414 0
M  V30 49 H 3.9572 -1.66265 -3.82638 0
M  V30 50 H 2.5872 -0.751331 -3.13934 0
M  V30 51 H 1.6392 -3.02395 -2.30784 0
M  V30 52 H 2.9512 -3.82822 -3.19764 0
M  V30 53 H 2.1052 -2.8655 -5.34765 0
M  V30 54 H 0.8442 -1.95702 -4.46712 0
M  V30 55 H -0.1508 -4.11201 -3.64957 0
M  V30 56 H 1.0742 -5.02917 -4.56346 0
M  V30 57 H -0.9798 -3.13299 -5.76351 0
M  V30 58 H -1.0628 -4.86397 -5.78752 0
M  V30 59 H 0.2052 -4.05379 -6.65799 0
M  V30 60 N 4.4343 0.785586 -1.36625 0
M  V30 61 C 5.3813 1.89838 -1.31264 0
M  V30 62 C 6.3513 1.65115 -0.180633 0
M  V30 63 O 7.5363 1.87222 -0.36777 0
M  V30 64 C 4.6763 3.26706 -1.11163 0
M  V30 65 C 3.7893 3.63476 -2.33472 0
M  V30 66 C 2.9243 4.89481 -2.06353 0
M  V30 67 C 1.9633 5.18941 -3.24602 0
M  V30 68 N 1.1003 6.36131 -2.97123 0
M  V30 69 H 5.9403 1.93756 -2.26413 0
M  V30 70 H 3.4773 0.947454 -1.12524 0
M  V30 71 H 5.4353 4.05639 -0.975337 0
M  V30 72 H 4.0653 3.222 -0.196674 0
M  V30 73 H 3.1173 2.79636 -2.57891 0
M  V30 74 H 4.4293 3.81193 -3.21704 0
M  V30 75 H 3.5833 5.76288 -1.89675 0
M  V30 76 H 2.3223 4.73841 -1.15437 0
M  V30 77 H 1.3273 4.30615 -3.41834 0
M  V30 78 H 2.5523 5.36498 -4.16349 0
M  V30 79 H 0.4983 6.21875 -2.08823 0
M  V30 80 H 0.4153 6.54198 -3.78894 0
M  V30 81 H 1.6833 7.2591 -2.84033 0
M  V30 82 N 5.9124 1.20967 1.01018 0
M  V30 83 C 7.1584 1.02526 1.74975 0
M  V30 84 C 7.4914 -0.4408 1.89131 0
M  V30 85 O 6.7664 -1.32718 1.42184 0
M  V30 86 C 7.0494 1.71699 3.1653 0
M  V30 87 C 6.9024 3.25791 3.10129 0
M  V30 88 C 8.2214 1.45531 4.15342 0
M  V30 89 H 5.3404 0.373863 0.635134 0
M  V30 90 H 7.9824 1.49071 1.17805 0
M  V30 91 H 6.1324 1.32128 3.65341 0
M  V30 92 H 7.8044 3.74697 2.69072 0
M  V30 93 H 6.0474 3.56363 2.47362 0
M  V30 94 H 6.7184 3.69353 4.10222 0
M  V30 95 H 9.1944 1.79872 3.75213 0
M  V30 96 H 8.0704 1.96453 5.1254 0
M  V30 97 H 8.3314 0.384237 4.40427 0
M  V30 98 N 7.3905 -1.2043 1.01659 0
M  V30 99 C 8.3205 -2.25466 0.607226 0
M  V30 100 C 9.3015 -1.65853 -0.377716 0
M  V30 101 O 10.4865 -1.92409 -0.263149 0
M  V30 102 C 7.6165 -3.47256 -0.0552949 0
M  V30 103 C 6.5705 -4.19462 0.850632 0
M  V30 104 C 5.8965 -5.34673 0.0538859 0
M  V30 105 C 7.1965 -4.75603 2.15868 0
M  V30 106 H 8.8905 -2.59962 1.48526 0
M  V30 107 H 6.4365 -1.2496 0.715605 0
M  V30 108 H 8.3895 -4.19917 -0.353233 0
M  V30 109 H 7.1135 -3.11924 -0.968045 0
M  V30 110 H 5.7725 -3.48667 1.13257 0
M  V30 111 H 5.4205 -4.95585 -0.860514 0
M  V30 112 H 5.1205 -5.83913 0.657192 0
M  V30 113 H 6.6445 -6.10138 -0.237598 0
M  V30 114 H 8.0585 -5.40083 1.92311 0
M  V30 115 H 6.4555 -5.3528 2.71284 0
M  V30 116 H 7.5255 -3.94346 2.82169 0
M  V30 117 N 8.8686 -0.792821 -1.36206 0
M  V30 118 C 10.0936 -0.377701 -2.03932 0
M  V30 119 C 10.5186 0.998947 -1.59382 0
M  V30 120 O 9.8766 1.64421 -0.763903 0
M  V30 121 C 9.9246 -0.453635 -3.57735 0
M  V30 122 O 9.0286 0.538151 -4.08874 0
M  V30 123 H 8.3696 -0.159855 -0.644471 0
M  V30 124 H 10.8996 -1.07488 -1.7409 0
M  V30 125 H 10.9096 -0.318464 -4.06755 0
M  V30 126 H 9.5846 -1.45784 -3.89512 0
M  V30 127 H 8.1616 0.364359 -3.71116 0
M  V30 128 N 10.3467 1.47872 -0.545128 0
M  V30 129 C 11.5867 2.04391 -0.0187854 0
M  V30 130 C 11.9507 1.41162 1.30144 0
M  V30 131 O 13.1517 1.88656 1.91474 0
M  V30 132 C 11.4227 3.57299 0.0850867 0
M  V30 133 S 12.9817 4.35221 0.559302 0
M  V30 134 H 9.7997 0.710737 -0.0193301 0
M  V30 135 H 12.4017 1.81395 -0.729125 0
M  V30 136 H 11.1057 4.00847 -0.880351 0
M  V30 137 H 10.6367 3.84773 0.819348 0
M  V30 138 H 12.6517 4.61571 1.82118 0
M  V30 139 N 11.8248 0.280983 1.55075 0
M  V30 140 C 13.0648 -0.335234 2.01632 0
M  V30 141 C 13.4288 -1.5261 1.16508 0
M  V30 142 O 14.6298 -2.21235 1.52672 0
M  V30 143 C 12.9008 -0.702172 3.50434 0
M  V30 144 S 14.4598 -1.30409 4.18974 0
M  V30 145 H 11.2778 -0.103967 0.703358 0
M  V30 146 H 13.8798 0.404187 1.91276 0
M  V30 147 H 12.5838 0.17333 4.10034 0
M  V30 148 H 12.1148 -1.4729 3.64786 0
M  V30 149 H 14.1298 -2.59253 4.23087 0
M  V30 150 N 13.3029 -1.57598 0.00835791 0
M  V30 151 C 14.5519 -1.90107 -0.673968 0
M  V30 152 C 14.8649 -0.884275 -1.7447 0
M  V30 153 O 16.0709 -1.09987 -2.48224 0
M  V30 154 C 14.5269 -3.37497 -1.24995 0
M  V30 155 C 14.1349 -4.47491 -0.2136 0
M  V30 156 C 15.8789 -3.79104 -1.90999 0
M  V30 157 C 13.7859 -5.85963 -0.80005 0
M  V30 158 H 12.7159 -0.709393 -0.255495 0
M  V30 159 H 15.3669 -1.83365 0.0702693 0
M  V30 160 H 13.7489 -3.39102 -2.04513 0
M  V30 161 H 14.9229 -4.57414 0.557596 0
M  V30 162 H 13.2379 -4.14956 0.346474 0
M  V30 163 H 15.8349 -4.79901 -2.35795 0
M  V30 164 H 16.1779 -3.1306 -2.74407 0
M  V30 165 H 16.7109 -3.79833 -1.18203 0
M  V30 166 H 13.4499 -6.555 -0.00456708 0
M  V30 167 H 12.9699 -5.79687 -1.54021 0
M  V30 168 H 14.6489 -6.33884 -1.29615 0
M  V30 169 N 14.781 0.264519 -1.55364 0
M  V30 170 C 15.744 1.31046 -1.88042 0
M  V30 171 C 16.744 1.41943 -0.755569 0
M  V30 172 O 17.934 1.40947 -1.02369 0
M  V30 173 C 15.066 2.69067 -2.09323 0
M  V30 174 H 16.259 1.03297 -2.81549 0
M  V30 175 H 13.812 0.502989 -1.47986 0
M  V30 176 H 14.547 3.01982 -1.18226 0
M  V30 177 H 14.332 2.62542 -2.91229 0
M  V30 178 H 15.822 3.44623 -2.35848 0
M  V30 179 N 16.2591 1.48442 0.529413 0
M  V30 180 C 17.2221 1.62524 1.61612 0
M  V30 181 C 18.2221 0.498509 1.52877 0
M  V30 182 O 19.4121 0.76431 1.56537 0
M  V30 183 C 16.5441 1.59597 3.01233 0
M  V30 184 H 17.7371 2.59423 1.50465 0
M  V30 185 H 15.2901 1.37047 0.751514 0
M  V30 186 H 16.0251 0.641781 3.17886 0
M  V30 187 H 15.8101 2.41397 3.08982 0
M  V30 188 H 17.3001 1.72646 3.80241 0
M  V30 189 N 17.7372 -0.778329 1.37039 0
M  V30 190 C 18.9652 -1.56734 1.35063 0
M  V30 191 C 19.3802 -1.88686 -0.0655597 0
M  V30 192 O 18.7372 -1.5096 -1.02554 0
M  V30 193 C 18.7882 -2.88163 2.18276 0
M  V30 194 O 18.5092 -2.57583 3.54376 0
M  V30 195 C 20.0102 -3.82422 2.24206 0
M  V30 196 H 17.2302 -0.485778 0.462883 0
M  V30 197 H 19.7742 -0.965185 1.8029 0
M  V30 198 H 17.9292 -3.44818 1.76576 0
M  V30 199 H 18.3432 -3.41699 3.97922 0
M  V30 200 H 19.8172 -4.71667 2.86765 0
M  V30 201 H 20.2942 -4.21078 1.24861 0
M  V30 202 H 20.9002 -3.31697 2.6619 0
M  V30 203 N 19.2153 -1.21501 -1.00376 0
M  V30 204 C 20.4623 -1.03299 -1.74171 0
M  V30 205 C 20.7903 0.433326 -1.89612 0
M  V30 206 O 20.0453 1.33779 -1.42834 0
M  V30 207 C 20.3443 -1.67673 -3.15627 0
M  V30 208 C 20.0103 -3.17533 -3.2013 0
M  V30 209 C 18.6723 -3.58427 -3.21067 0
M  V30 210 C 21.0243 -4.13504 -3.17275 0
M  V30 211 C 18.3523 -4.93794 -3.16835 0
M  V30 212 C 20.7043 -5.48834 -3.14585 0
M  V30 213 C 19.3683 -5.89123 -3.13831 0
M  V30 214 H 18.6383 -0.377999 -0.637336 0
M  V30 215 H 21.2853 -1.51111 -1.17634 0
M  V30 216 H 19.5903 -1.12158 -3.75404 0
M  V30 217 H 21.2873 -1.51091 -3.71446 0
M  V30 218 H 17.8773 -2.84965 -3.20145 0
M  V30 219 H 22.0613 -3.82936 -3.15711 0
M  V30 220 H 17.3173 -5.24255 -3.1459 0
M  V30 221 H 21.4913 -6.22934 -3.1133 0
M  V30 222 H 19.1183 -6.93984 -3.10307 0
M  V30 223 N 20.6934 1.19889 -1.02296 0
M  V30 224 C 21.9414 1.89046 -0.714558 0
M  V30 225 C 22.2624 1.79636 0.758681 0
M  V30 226 O 21.5324 1.20292 1.54618 0
M  V30 227 H 20.1124 0.699802 -0.261317 0
M  V30 228 H 22.7744 1.45574 -1.29592 0
M  V30 229 H 21.8704 2.95524 -1.0036 0
M  V30 230 N 22.1715 0.800033 1.35784 0
M  V30 231 C 23.4205 0.37387 1.98205 0
M  V30 232 C 23.7335 -1.06302 1.64193 0
M  V30 233 O 24.9395 -1.59198 2.19928 0
M  V30 234 C 23.3955 0.617532 3.54562 0
M  V30 235 C 23.0035 2.06654 3.9749 0
M  V30 236 C 24.7475 0.256401 4.23725 0
M  V30 237 C 22.6545 2.2563 5.46667 0
M  V30 238 H 21.5845 0.136055 0.741623 0
M  V30 239 H 24.2355 0.983166 1.54939 0
M  V30 240 H 22.6175 -0.0616248 3.95952 0
M  V30 241 H 23.7915 2.78296 3.67271 0
M  V30 242 H 22.1065 2.38691 3.41197 0
M  V30 243 H 24.7035 0.376318 5.33374 0
M  V30 244 H 25.0465 -0.796692 4.08606 0
M  V30 245 H 25.5795 0.889214 3.87734 0
M  V30 246 H 22.3185 3.2936 5.66747 0
M  V30 247 H 21.8385 1.58504 5.78478 0
M  V30 248 H 23.5175 2.06861 6.1304 0
M  V30 249 N 23.6496 -1.47581 0.552962 0
M  V30 250 C 24.8796 -2.06575 0.0320091 0
M  V30 251 C 25.2876 -1.4067 -1.26525 0
M  V30 252 O 24.6306 -0.495808 -1.76883 0
M  V30 253 C 24.6926 -3.58705 -0.238913 0
M  V30 254 C 24.3566 -4.46625 0.968272 0
M  V30 255 C 25.3536 -4.85 1.87274 0
M  V30 256 C 23.0386 -4.88201 1.18175 0
M  V30 257 C 25.0326 -5.63745 2.9744 0
M  V30 258 C 22.7196 -5.66712 2.28651 0
M  V30 259 C 23.7176 -6.04394 3.18114 0
M  V30 260 O 23.4056 -6.81324 4.26676 0
M  V30 261 H 23.1376 -0.674763 0.0408689 0
M  V30 262 H 25.6916 -1.90634 0.764719 0
M  V30 263 H 23.9216 -3.72844 -1.02588 0
M  V30 264 H 25.6106 -3.99735 -0.704731 0
M  V30 265 H 26.3766 -4.53482 1.71984 0
M  V30 266 H 22.2556 -4.58339 0.494593 0
M  V30 267 H 25.7996 -5.93077 3.67296 0
M  V30 268 H 21.6966 -5.97642 2.43915 0
M  V30 269 H 22.4646 -6.99712 4.24671 0
M  V30 270 N 25.1277 -0.289203 -1.54924 0
M  V30 271 C 26.3527 0.329299 -2.04769 0
M  V30 272 C 26.7777 1.4763 -1.16564 0
M  V30 273 O 26.1357 1.80527 -0.167186 0
M  V30 274 C 26.1837 0.774438 -3.52186 0
M  V30 275 O 25.2877 1.88038 -3.67036 0
M  V30 276 H 24.6287 0.0659259 -0.660719 0
M  V30 277 H 27.1587 -0.42761 -2.00082 0
M  V30 278 H 27.1687 1.06642 -3.93816 0
M  V30 279 H 25.8437 -0.0646707 -4.1585 0
M  V30 280 H 24.4207 1.58985 -3.3731 0
M  V30 281 N 26.6058 1.57591 -0.0167156 0
M  V30 282 C 27.5688 2.08393 0.954204 0
M  V30 283 C 28.5688 0.996531 1.26198 0
M  V30 284 O 29.7588 1.25858 1.20438 0
M  V30 285 C 26.8908 2.5394 2.27436 0
M  V30 286 H 28.0838 2.95455 0.514451 0
M  V30 287 H 25.6368 1.54582 0.231089 0
M  V30 288 H 26.3718 1.70171 2.76066 0
M  V30 289 H 26.1568 3.33371 2.06412 0
M  V30 290 H 27.6468 2.93512 2.97053 0
M  V30 291 N 28.0839 -0.256276 1.55502 0
M  V30 292 C 29.3089 -1.00766 1.81276 0
M  V30 293 C 29.7339 -1.78524 0.59252 0
M  V30 294 O 29.0919 -1.75413 -0.45827 0
M  V30 295 C 29.1399 -1.92869 3.04687 0
M  V30 296 O 28.2439 -3.019 2.80945 0
M  V30 297 H 27.5849 -0.287224 0.598664 0
M  V30 298 H 30.1149 -0.280109 2.02674 0
M  V30 299 H 30.1249 -2.34511 3.33869 0
M  V30 300 H 28.7999 -1.35689 3.93143 0
M  V30 301 H 27.3769 -2.64454 2.62904 0
M  V30 302 N 29.562 -1.4872 -0.521534 0
M  V30 303 C 30.787 -1.61101 -1.30618 0
M  V30 304 C 31.212 -0.274611 -1.86085 0
M  V30 305 O 30.57 0.754937 -1.64834 0
M  V30 306 C 30.618 -2.66709 -2.4269 0
M  V30 307 O 29.722 -2.24456 -3.45967 0
M  V30 308 H 29.063 -0.539921 -0.386499 0
M  V30 309 H 31.593 -1.94767 -0.626645 0
M  V30 310 H 31.603 -2.88245 -2.88754 0
M  V30 311 H 30.278 -3.63727 -2.01682 0
M  V30 312 H 28.855 -2.13168 -3.05964 0
M  V30 313 N 31.0401 0.771051 -1.3745 0
M  V30 314 C 31.9701 1.89827 -1.3597 0
M  V30 315 C 32.9511 1.68562 -0.228216 0
M  V30 316 O 34.1361 1.8941 -0.428675 0
M  V30 317 C 31.2661 3.2712 -1.16662 0
M  V30 318 C 30.2201 3.6295 -2.2683 0
M  V30 319 C 29.5461 4.98791 -1.92644 0
M  V30 320 C 30.8461 3.69627 -3.69017 0
M  V30 321 H 32.5401 1.91323 -2.30295 0
M  V30 322 H 30.0861 0.919082 -1.10855 0
M  V30 323 H 32.0391 4.05615 -1.14256 0
M  V30 324 H 30.7631 3.26059 -0.187926 0
M  V30 325 H 29.4221 2.86763 -2.28392 0
M  V30 326 H 29.0701 4.94271 -0.933021 0
M  V30 327 H 28.7701 5.23733 -2.66416 0
M  V30 328 H 30.2941 5.79685 -1.91826 0
M  V30 329 H 31.7081 4.38273 -3.69581 0
M  V30 330 H 30.1051 4.06067 -4.41848 0
M  V30 331 H 31.1751 2.70273 -4.02592 0
M  V30 332 N 32.5182 1.22032 0.997298 0
M  V30 333 C 33.4812 0.987909 2.06816 0
M  V30 334 C 34.4812 -0.0440084 1.6074 0
M  V30 335 O 35.6712 0.194053 1.73116 0
M  V30 336 C 32.8032 0.49132 3.37341 0
M  V30 337 H 33.9962 1.93803 2.28868 0
M  V30 338 H 31.5492 1.03838 1.16822 0
M  V30 339 H 32.2842 -0.463364 3.20973 0
M  V30 340 H 32.0692 1.23575 3.72118 0
M  V30 341 H 33.5592 0.348824 4.16141 0
M  V30 342 N 33.9963 -1.19345 1.0293 0
M  V30 343 C 34.9283 -2.22036 0.56857 0
M  V30 344 C 35.9413 -1.58865 -0.355779 0
M  V30 345 O 37.1303 -1.77851 -0.152103 0
M  V30 346 C 34.2303 -3.38363 -0.190752 0
M  V30 347 C 33.4033 -4.31118 0.738643 0
M  V30 348 C 32.4623 -5.26194 0.0246497 0
M  V30 349 O 31.4883 -5.65461 0.651354 0
M  V30 350 N 32.6903 -5.66971 -1.24594 0
M  V30 351 H 35.4553 -2.6219 1.45177 0
M  V30 352 H 33.0163 -1.34015 0.908381 0
M  V30 353 H 35.0083 -3.98981 -0.677961 0
M  V30 354 H 33.5783 -2.96994 -0.975366 0
M  V30 355 H 32.7983 -3.68276 1.40593 0
M  V30 356 H 34.0863 -4.90001 1.37029 0
M  V30 357 H 33.4843 -5.37104 -1.77583 0
M  V30 358 H 32.0413 -6.2984 -1.67764 0
M  V30 359 N 35.4744 -0.807222 -1.35358 0
M  V30 360 C 36.6994 -0.399309 -2.0352 0
M  V30 361 C 37.1244 0.981986 -1.60433 0
M  V30 362 O 36.4824 1.63601 -0.781299 0
M  V30 363 C 36.5304 -0.491552 -3.57234 0
M  V30 364 O 35.6344 0.494754 -4.09421 0
M  V30 365 H 34.9754 -0.166682 -0.642739 0
M  V30 366 H 37.5054 -1.09328 -1.72941 0
M  V30 367 H 37.5154 -0.361588 -4.06395 0
M  V30 368 H 36.1904 -1.49907 -3.87944 0
M  V30 369 H 34.7674 0.324977 -3.71481 0
M  V30 370 N 36.9525 1.47285 -0.560781 0
M  V30 371 C 38.1775 2.07359 -0.0410566 0
M  V30 372 C 38.6025 1.41017 1.24483 0
M  V30 373 O 37.9605 0.486368 1.74654 0
M  V30 374 C 38.0085 3.6035 0.134123 0
M  V30 375 O 37.1125 3.94681 1.19587 0
M  V30 376 H 36.4535 0.661887 -0.0529291 0
M  V30 377 H 38.9835 1.89252 -0.777482 0
M  V30 378 H 38.9935 4.0652 0.347207 0
M  V30 379 H 37.6685 4.08034 -0.805047 0
M  V30 380 H 36.2455 3.60251 0.962987 0
M  V30 381 N 38.4306 0.297415 1.54768 0
M  V30 382 C 39.6766 -0.313376 2.00364 0
M  V30 383 C 40.0096 -1.53815 1.18553 0
M  V30 384 O 39.2846 -1.92739 0.261103 0
M  V30 385 C 39.5676 -0.673525 3.53745 0
M  V30 386 C 39.4206 0.560133 4.46299 0
M  V30 387 C 40.7396 -1.50143 4.13697 0
M  V30 388 H 37.8586 -0.112428 0.728374 0
M  V30 389 H 40.5006 0.4088 1.8555 0
M  V30 390 H 38.6506 -1.28881 3.665 0
M  V30 391 H 40.3226 1.19863 4.45455 0
M  V30 392 H 38.5656 1.19405 4.17043 0
M  V30 393 H 39.2366 0.26405 5.51368 0
M  V30 394 H 41.7126 -0.981588 4.04356 0
M  V30 395 H 40.5886 -1.72221 5.21182 0
M  V30 396 H 40.8496 -2.48952 3.65343 0
M  V30 397 N 39.9087 -1.5758 0.0250728 0
M  V30 398 C 41.1577 -1.90811 -0.653767 0
M  V30 399 C 41.4707 -0.90273 -1.73523 0
M  V30 400 O 42.6767 -1.12614 -2.47043 0
M  V30 401 C 41.1327 -3.38804 -1.21409 0
M  V30 402 C 40.7407 -4.47692 -0.166126 0
M  V30 403 C 42.4847 -3.81108 -1.86967 0
M  V30 404 C 40.3917 -5.86779 -0.737856 0
M  V30 405 H 39.3217 -0.712063 -0.247956 0
M  V30 406 H 41.9727 -1.83281 0.0897137 0
M  V30 407 H 40.3547 -3.41252 -2.00905 0
M  V30 408 H 41.5287 -4.56797 0.606079 0
M  V30 409 H 39.8437 -4.14565 0.390466 0
M  V30 410 H 42.4407 -4.82375 -2.30692 0
M  V30 411 H 42.7837 -3.15953 -2.71071 0
M  V30 412 H 43.3167 -3.81065 -1.14167 0
M  V30 413 H 40.0557 -6.55468 0.0649577 0
M  V30 414 H 39.5757 -5.81288 -1.47864 0
M  V30 415 H 41.2547 -6.35223 -1.22884 0
M  V30 416 N 41.3868 0.248026 -1.55636 0
M  V30 417 C 42.3348 1.32683 -1.91045 0
M  V30 418 C 43.3288 1.49883 -0.789401 0
M  V30 419 O 44.5348 1.51371 -0.974007 0
M  V30 420 H 40.9098 0.444272 -0.606734 0
M  V30 421 H 42.8808 1.00085 -2.81115 0
M  V30 422 C 41.6298 2.6755 -2.22064 0
M  V30 423 H 40.9528 2.55114 -3.07826 0
M  V30 424 H 42.3928 3.41912 -2.50743 0
M  V30 425 C 40.8518 3.20556 -1.0366 0
M  V30 426 O 41.3818 4.00695 -0.284016 0
M  V30 427 N 39.5878 2.78568 -0.82753 0
M  V30 428 H 39.1348 2.1351 -1.44123 0
M  V30 429 H 39.0928 3.14378 -0.0369803 0
M  V30 430 N 42.8649 1.48995 0.513639 0
M  V30 431 C 44.0899 1.61792 1.29762 0
M  V30 432 C 44.5149 0.284475 1.85936 0
M  V30 433 O 43.8729 -0.746185 1.65232 0
M  V30 434 C 43.9209 2.67993 2.41272 0
M  V30 435 O 43.0249 2.26287 3.44772 0
M  V30 436 H 42.3659 0.541963 0.38363 0
M  V30 437 H 44.8959 1.95097 0.616307 0
M  V30 438 H 44.9059 2.89772 2.87221 0
M  V30 439 H 43.5809 3.64791 1.9975 0
M  V30 440 H 42.1579 2.14788 3.04829 0
M  V30 441 N 44.343 -0.763751 1.37857 0
M  V30 442 C 45.571 -1.55293 1.36718 0
M  V30 443 C 45.986 -1.88745 -0.0455434 0
M  V30 444 O 45.343 -1.52039 -1.00947 0
M  V30 445 C 45.394 -2.85831 2.2132 0
M  V30 446 O 45.115 -2.5381 3.57089 0
M  V30 447 C 46.616 -3.80023 2.28249 0
M  V30 448 H 43.836 -0.480841 0.468009 0
M  V30 449 H 46.38 -0.946009 1.81303 0
M  V30 450 H 44.535 -3.42926 1.80223 0
M  V30 451 H 44.949 -3.37459 4.01524 0
M  V30 452 H 46.423 -4.68599 2.91752 0
M  V30 453 H 46.9 -4.1973 1.2932 0
M  V30 454 H 47.506 -3.28855 2.69693 0
M  V30 455 N 45.8211 -1.22559 -0.990812 0
M  V30 456 C 46.7311 -1.01394 -2.11557 0
M  V30 457 C 47.7471 0.0383962 -1.73958 0
M  V30 458 O 48.9231 -0.154787 -2.00804 0
M  V30 459 C 45.9881 -0.596569 -3.41529 0
M  V30 460 C 45.0491 -1.72276 -3.93217 0
M  V30 461 C 44.2821 -1.32521 -5.16985 0
M  V30 462 O 44.5051 -0.204909 -5.70032 0
M  V30 463 O 43.4391 -2.14247 -5.62478 0
M  V30 464 H 47.2651 -1.95633 -2.32296 0
M  V30 465 H 44.8501 -1.01172 -1.0993 0
M  V30 466 H 46.7321 -0.374263 -4.19735 0
M  V30 467 H 45.4071 0.316939 -3.22145 0
M  V30 468 H 44.3141 -1.99961 -3.16174 0
M  V30 469 H 45.6471 -2.61421 -4.17037 0
M  V30 470 N 47.2992 1.18797 -1.03562 0
M  V30 471 C 48.2472 2.24297 -0.615905 0
M  V30 472 C 49.2412 1.65643 0.354808 0
M  V30 473 O 50.4472 1.78618 0.22265 0
M  V30 474 H 46.8222 0.729909 -0.180934 0
M  V30 475 H 48.7932 2.5701 -1.5162 0
M  V30 476 C 47.5422 3.47698 0.0104735 0
M  V30 477 H 46.8652 3.93125 -0.727509 0
M  V30 478 H 48.3052 4.23159 0.266995 0
M  V30 479 C 46.7642 3.12489 1.25905 0
M  V30 480 O 47.2942 3.25761 2.35038 0
M  V30 481 N 45.5002 2.6686 1.15039 0
M  V30 482 H 45.0472 2.56261 0.262328 0
M  V30 483 H 45.0052 2.43674 1.98672 0
M  V30 484 N 48.7773 0.814389 1.34928 0
M  V30 485 C 50.0023 0.410097 2.03305 0
M  V30 486 C 50.4273 -0.973464 1.60951 0
M  V30 487 O 49.7853 -1.63185 0.789964 0
M  V30 488 C 49.8333 0.51049 3.56968 0
M  V30 489 O 48.9373 -0.473035 4.09678 0
M  V30 490 H 48.2783 0.170088 0.641846 0
M  V30 491 H 50.8083 1.10244 1.72358 0
M  V30 492 H 50.8183 0.383135 4.06197 0
M  V30 493 H 49.4933 1.51963 3.87144 0
M  V30 494 H 48.0703 -0.305272 3.71648 0
M  V30 495 N 50.2554 -1.46986 0.568584 0
M  V30 496 C 51.1874 -2.28233 -0.210337 0
M  V30 497 C 52.2004 -1.37682 -0.868767 0
M  V30 498 O 53.3894 -1.62406 -0.740705 0
M  V30 499 C 50.4894 -3.12293 -1.3163 0
M  V30 500 C 49.6624 -4.30878 -0.7525 0
M  V30 501 C 48.7214 -4.96445 -1.74439 0
M  V30 502 O 47.7474 -5.54482 -1.286 0
M  V30 503 N 48.9494 -4.92171 -3.07812 0
M  V30 504 H 51.7144 -2.95723 0.486648 0
M  V30 505 H 49.2754 -1.56742 0.405409 0
M  V30 506 H 51.2674 -3.53022 -1.97883 0
M  V30 507 H 49.8374 -2.46971 -1.91636 0
M  V30 508 H 49.0574 -3.94104 0.0871128 0
M  V30 509 H 50.3454 -5.07558 -0.35536 0
M  V30 510 H 49.7434 -4.46239 -3.47688 0
M  V30 511 H 48.3004 -5.36884 -3.69592 0
M  V30 512 N 51.7335 -0.305618 -1.54608 0
M  V30 513 C 52.6655 0.602161 -2.21149 0
M  V30 514 C 53.6785 1.09394 -1.20569 0
M  V30 515 O 54.8675 1.0106 -1.47136 0
M  V30 516 C 51.9675 1.83692 -2.84799 0
M  V30 517 C 51.1405 1.48686 -4.11353 0
M  V30 518 C 50.1995 2.57725 -4.58764 0
M  V30 519 O 49.2255 2.22623 -5.23858 0
M  V30 520 N 50.4275 3.88346 -4.31471 0
M  V30 521 H 53.1925 0.0324966 -2.99682 0
M  V30 522 H 50.7535 -0.128021 -1.61393 0
M  V30 523 H 52.7455 2.55994 -3.13448 0
M  V30 524 H 51.3155 2.31486 -2.10078 0
M  V30 525 H 50.5355 0.596269 -3.89664 0
M  V30 526 H 51.8235 1.22842 -4.93748 0
M  V30 527 H 51.2215 4.19671 -3.79331 0
M  V30 528 H 49.7785 4.56932 -4.64818 0
M  V30 529 N 53.2116 1.57565 -0.0334293 0
M  V30 530 C 54.6226 1.79746 0.504798 0
M  V30 531 C 54.9736 0.944091 1.71992 0
M  V30 532 O 54.0986 0.155694 2.15839 0
M  V30 533 C 54.6936 3.25997 0.922567 0
M  V30 534 C 53.2526 3.49159 1.40588 0
M  V30 535 C 52.3996 2.74785 0.372633 0
M  V30 536 H 55.3506 1.56565 -0.259436 0
M  V30 537 H 55.3716 3.35945 1.78666 0
M  V30 538 H 54.8836 3.88081 0.0379825 0
M  V30 539 H 52.9846 2.92332 2.31025 0
M  V30 540 H 53.0976 4.57873 1.41028 0
M  V30 541 H 51.4616 2.40391 0.841672 0
M  V30 542 H 52.2446 3.39587 -0.503559 0
M  V30 543 N 54.6897 -0.239769 1.55765 0
M  V30 544 C 55.9387 -0.964754 1.77131 0
M  V30 545 C 56.2517 -1.86213 0.59868 0
M  V30 546 O 57.4577 -2.6244 0.695522 0
M  V30 547 C 55.9137 -1.76552 3.1362 0
M  V30 548 C 55.5217 -0.915185 4.38553 0
M  V30 549 C 57.2657 -2.48281 3.44321 0
M  V30 550 C 55.1727 -1.71225 5.66071 0
M  V30 551 H 54.1027 -0.363953 0.660344 0
M  V30 552 H 56.7537 -0.219181 1.82186 0
M  V30 553 H 55.1357 -2.55331 3.02691 0
M  V30 554 H 56.3097 -0.169217 4.60489 0
M  V30 555 H 54.6247 -0.310889 4.15238 0
M  V30 556 H 57.2217 -3.08382 4.36812 0
M  V30 557 H 57.5647 -3.20256 2.65973 0
M  V30 558 H 58.0977 -1.76507 3.56497 0
M  V30 559 H 54.8367 -1.03612 6.4726 0
M  V30 560 H 54.3567 -2.43331 5.48224 0
M  V30 561 H 56.0357 -2.27758 6.05587 0
M  V30 562 N 56.1678 -1.49265 -0.50573 0
M  V30 563 C 57.1308 -1.65075 -1.59006 0
M  V30 564 C 58.1308 -0.522768 -1.52065 0
M  V30 565 O 59.3208 -0.789117 -1.55302 0
M  V30 566 C 56.4528 -1.64369 -2.98656 0
M  V30 567 H 57.6458 -2.61784 -1.46319 0
M  V30 568 H 55.1988 -1.38226 -0.729616 0
M  V30 569 H 55.9338 -0.692272 -3.16825 0
M  V30 570 H 55.7188 -2.46282 -3.05103 0
M  V30 571 H 57.2088 -1.78674 -3.77446 0
M  V30 572 N 57.6459 0.756429 -1.3826 0
M  V30 573 C 59.0569 1.33359 -1.30661 0
M  V30 574 C 59.4079 1.96161 0.0388875 0
M  V30 575 O 58.5329 1.94874 0.940918 0
M  V30 576 C 59.1279 2.42477 -2.36622 0
M  V30 577 C 57.6869 2.95922 -2.3261 0
M  V30 578 C 56.8339 1.69275 -2.19639 0
M  V30 579 H 59.7849 0.55552 -1.4866 0
M  V30 580 H 59.8059 3.22345 -2.02174 0
M  V30 581 H 59.3179 1.96739 -3.34538 0
M  V30 582 H 57.4189 3.45996 -1.38267 0
M  V30 583 H 57.5319 3.50494 -3.26636 0
M  V30 584 H 55.8959 1.92793 -1.66442 0
M  V30 585 H 56.6789 1.25619 -3.19491 0
M  V30 586 N 59.124 1.23083 0.984299 0
M  V30 587 C 60.054 1.03292 2.09411 0
M  V30 588 C 61.035 -0.048923 1.7003 0
M  V30 589 O 62.22 0.114967 1.93859 0
M  V30 590 C 59.35 0.619155 3.41736 0
M  V30 591 C 58.304 1.64791 3.95004 0
M  V30 592 C 57.63 1.0897 5.23478 0
M  V30 593 C 58.93 3.03999 4.24714 0
M  V30 594 H 60.624 1.96119 2.26225 0
M  V30 595 H 58.17 0.944344 1.08711 0
M  V30 596 H 60.123 0.467777 4.18796 0
M  V30 597 H 58.847 -0.344786 3.24775 0
M  V30 598 H 57.506 1.78721 3.20085 0
M  V30 599 H 57.154 0.11686 5.02864 0
M  V30 600 H 56.854 1.77704 5.60085 0
M  V30 601 H 58.378 0.950093 6.03163 0
M  V30 602 H 59.792 2.93393 4.92538 0
M  V30 603 H 58.189 3.69936 4.72512 0
M  V30 604 H 59.259 3.53285 3.32142 0
M  V30 605 N 60.6021 -1.18246 1.0419 0
M  V30 606 C 61.8481 -1.88536 0.747122 0
M  V30 607 C 62.1811 -1.80223 -0.723409 0
M  V30 608 O 61.4561 -1.20337 -1.52804 0
M  V30 609 C 61.7391 -3.38968 1.21544 0
M  V30 610 C 61.5921 -3.56084 2.74816 0
M  V30 611 C 62.9111 -4.32648 0.806482 0
M  V30 612 H 60.0301 -0.684619 0.272883 0
M  V30 613 H 62.6721 -1.39113 1.29413 0
M  V30 614 H 60.8221 -3.8119 0.750081 0
M  V30 615 H 62.4941 -3.22946 3.29399 0
M  V30 616 H 60.7371 -2.98699 3.14582 0
M  V30 617 H 61.4081 -4.61639 3.02644 0
M  V30 618 H 63.8841 -3.98211 1.20695 0
M  V30 619 H 62.7601 -5.36462 1.1619 0
M  V30 620 H 63.0211 -4.41146 -0.29029 0
M  V30 621 N 62.0802 -0.821533 -1.34494 0
M  V30 622 C 63.0102 -0.257138 -2.3208 0
M  V30 623 C 63.9912 0.625645 -1.58176 0
M  V30 624 O 65.1762 0.552811 -1.86166 0
M  V30 625 C 62.3062 0.582958 -3.42372 0
M  V30 626 C 61.2602 -0.202571 -4.2752 0
M  V30 627 C 60.5862 0.760179 -5.29269 0
M  V30 628 C 61.8862 -1.40998 -5.02908 0
M  V30 629 H 63.5802 -1.07247 -2.79532 0
M  V30 630 H 61.1262 -0.517163 -1.34393 0
M  V30 631 H 63.0792 0.987972 -4.09655 0
M  V30 632 H 61.8032 1.43133 -2.93565 0
M  V30 633 H 60.4622 -0.588936 -3.61838 0
M  V30 634 H 60.1102 1.60447 -4.76724 0
M  V30 635 H 59.8102 0.238809 -5.87115 0
M  V30 636 H 61.3342 1.16308 -5.9942 0
M  V30 637 H 62.7482 -1.07905 -5.63054 0
M  V30 638 H 61.1452 -1.86689 -5.70322 0
M  V30 639 H 62.2152 -2.1889 -4.32684 0
M  V30 640 N 63.5583 1.46682 -0.576371 0
M  V30 641 C 64.5213 2.28707 0.150239 0
M  V30 642 C 65.5213 1.38035 0.824794 0
M  V30 643 O 66.7113 1.60476 0.677719 0
M  V30 644 C 63.8433 3.18248 1.22192 0
M  V30 645 H 65.0363 2.94423 -0.570521 0
M  V30 646 H 62.5893 1.52688 -0.334078 0
M  V30 647 H 63.3243 2.57265 1.97447 0
M  V30 648 H 63.1093 3.85 0.742812 0
M  V30 649 H 64.5993 3.80001 1.73172 0
M  V30 650 N 65.0364 0.313813 1.54444 0
M  V30 651 C 66.2614 -0.296681 2.05267 0
M  V30 652 C 66.6864 -1.45757 1.18897 0
M  V30 653 O 66.0444 -1.80239 0.195886 0
M  V30 654 C 66.0924 -0.71831 3.53373 0
M  V30 655 O 65.1964 -1.82175 3.69981 0
M  V30 656 H 64.5374 -0.0554061 0.661684 0
M  V30 657 H 67.0674 0.459387 1.99376 0
M  V30 658 H 67.0774 -1.00364 3.95463 0
M  V30 659 H 65.7524 0.130821 4.15694 0
M  V30 660 H 64.3294 -1.53598 3.39797 0
M  V30 661 N 66.5145 -1.57545 0.0417849 0
M  V30 662 C 67.7395 -1.97035 -0.647455 0
M  V30 663 C 68.1645 -0.918775 -1.64135 0
M  V30 664 O 67.5225 0.119006 -1.80909 0
M  V30 665 C 67.5705 -3.35609 -1.31905 0
M  V30 666 O 66.6745 -3.3287 -2.43457 0
M  V30 667 H 66.0155 -0.64211 -0.169086 0
M  V30 668 H 68.5455 -2.04318 0.107399 0
M  V30 669 H 68.5555 -3.72126 -1.67291 0
M  V30 670 H 67.2305 -4.11685 -0.590586 0
M  V30 671 H 65.8075 -3.08087 -2.10088 0
M  V30 672 N 67.9926 0.231505 -1.5589 0
M  V30 673 C 69.2696 0.981096 -1.69215 0
M  V30 674 C 69.6496 2.02799 -0.586164 0
M  V30 675 O 68.9976 2.24823 0.408253 0
M  V30 676 C 69.2076 1.60054 -3.10135 0
M  V30 677 C 70.5556 2.09658 -3.69227 0
M  V30 678 O 71.5796 1.69967 -3.13033 0
M  V30 679 O 70.4386 2.8258 -4.67772 0
M  V30 680 H 67.5326 0.457653 -0.688827 0
M  V30 681 H 70.0786 0.224073 -1.68214 0
M  V30 682 H 68.8506 0.844105 -3.82087 0
M  V30 683 H 68.4736 2.42336 -3.15212 0
M  V30 684 N 69.4707 1.49531 0.497807 0
M  V30 685 C 70.7477 1.49682 1.25915 0
M  V30 686 C 71.1277 0.226339 2.09883 0
M  V30 687 O 70.4757 -0.791189 2.14365 0
M  V30 688 C 70.6857 2.77755 2.11313 0
M  V30 689 C 72.0337 3.27371 2.70395 0
M  V30 690 O 73.0577 2.78894 2.21578 0
M  V30 691 O 71.9167 4.11808 3.59272 0
M  V30 692 H 69.0107 0.599228 0.56996 0
M  V30 693 H 71.5567 1.61798 0.511816 0
M  V30 694 H 70.3287 3.61713 1.49264 0
M  V30 695 H 69.9517 2.68515 2.93233 0
M  V30 696 N 70.9488 -0.749086 1.3866 0
M  V30 697 C 71.9118 -1.84457 1.36045 0
M  V30 698 C 72.9118 -1.58682 0.260122 0
M  V30 699 O 74.1018 -1.66343 0.517261 0
M  V30 700 C 71.2338 -3.22008 1.11911 0
M  V30 701 H 72.4268 -1.88182 2.33512 0
M  V30 702 H 69.9798 -0.951266 1.24019 0
M  V30 703 H 70.7148 -3.2395 0.150686 0
M  V30 704 H 70.4998 -3.42111 1.91579 0
M  V30 705 H 71.9898 -4.0208 1.12788 0
M  V30 706 N 72.4269 -1.23603 -0.977757 0
M  V30 707 C 73.6759 -1.06377 -1.71368 0
M  V30 708 C 73.9889 0.399062 -1.91486 0
M  V30 709 O 75.1949 0.691312 -2.62551 0
M  V30 710 C 73.6509 -1.85512 -3.08404 0
M  V30 711 C 73.2589 -3.36141 -2.96164 0
M  V30 712 C 75.0029 -1.76783 -3.85938 0
M  V30 713 C 72.9099 -4.07659 -4.28449 0
M  V30 714 H 71.8399 -0.394452 -0.642591 0
M  V30 715 H 74.4909 -1.47594 -1.09034 0
M  V30 716 H 72.8729 -1.37103 -3.71509 0
M  V30 717 H 74.0469 -3.92056 -2.42133 0
M  V30 718 H 72.3619 -3.45712 -2.32104 0
M  V30 719 H 74.9589 -2.27526 -4.83876 0
M  V30 720 H 75.3019 -0.731116 -4.0983 0
M  V30 721 H 75.8349 -2.22818 -3.2954 0
M  V30 722 H 72.5739 -5.11648 -4.09752 0
M  V30 723 H 72.0939 -3.5653 -4.82334 0
M  V30 724 H 73.7729 -4.141 -4.97122 0
M  V30 725 N 73.905 1.17692 -1.04816 0
M  V30 726 C 75.133 1.91786 -0.776254 0
M  V30 727 C 75.548 1.76604 0.667577 0
M  V30 728 O 74.905 1.10067 1.45573 0
M  V30 729 C 74.956 3.42967 -1.14263 0
M  V30 730 O 74.677 3.57678 -2.52978 0
M  V30 731 C 76.178 4.34144 -0.896311 0
M  V30 732 H 73.398 0.608624 -0.282519 0
M  V30 733 H 75.942 1.49268 -1.39783 0
M  V30 734 H 74.097 3.83245 -0.565874 0
M  V30 735 H 74.511 4.51319 -2.67229 0
M  V30 736 H 75.985 5.38744 -1.20244 0
M  V30 737 H 76.462 4.38876 0.168636 0
M  V30 738 H 77.068 3.99574 -1.45672 0
M  V30 739 N 75.3831 0.828654 1.34056 0
M  V30 740 C 76.6601 0.341809 1.9259 0
M  V30 741 C 77.0401 -1.17158 1.75605 0
M  V30 742 O 76.3881 -1.98132 1.13824 0
M  V30 743 C 76.5981 0.777453 3.4023 0
M  V30 744 C 77.9461 0.779579 4.17382 0
M  V30 745 O 78.9701 0.7204 3.48839 0
M  V30 746 O 77.8291 0.857996 5.39723 0
M  V30 747 H 74.9231 0.0946085 0.821571 0
M  V30 748 H 77.4691 0.913827 1.42994 0
M  V30 749 H 76.2411 1.8196 3.46419 0
M  V30 750 H 75.8641 0.181444 3.97186 0
M  V30 751 N 76.8612 -1.46375 0.584142 0
M  V30 752 C 78.2772 -1.57694 0.245929 0
M  V30 753 C 78.4772 -1.57903 -1.25175 0
M  V30 754 O 77.5332 -1.49676 -2.03355 0
M  V30 755 C 78.8462 -2.87028 0.896402 0
M  V30 756 C 80.3942 -3.00662 0.870127 0
M  V30 757 C 80.8692 -4.32734 1.50017 0
M  V30 758 N 82.3602 -4.39436 1.46458 0
M  V30 759 C 83.0952 -5.40248 1.92144 0
M  V30 760 N 82.5912 -6.47726 2.4581 0
M  V30 761 N 84.3842 -5.31459 1.83052 0
M  V30 762 H 76.5352 -1.44483 1.55687 0
M  V30 763 H 78.7982 -0.689291 0.650831 0
M  V30 764 H 78.5042 -2.9269 1.95002 0
M  V30 765 H 78.3782 -3.75014 0.405486 0
M  V30 766 H 80.7652 -2.94581 -0.174871 0
M  V30 767 H 80.8462 -2.14148 1.39908 0
M  V30 768 H 80.4902 -4.39573 2.54437 0
M  V30 769 H 80.4202 -5.18025 0.946432 0
M  V30 770 H 82.9112 -3.62367 1.07231 0
M  V30 771 H 83.2242 -7.20863 2.78525 0
M  V30 772 H 81.5692 -6.48542 2.49836 0
M  V30 773 H 84.7602 -4.46396 1.40883 0
M  V30 774 H 84.9332 -6.09881 2.18973 0
M  V30 775 N 78.3393 -0.321999 -1.54275 0
M  V30 776 C 79.5693 0.282642 -2.04658 0
M  V30 777 C 79.9773 1.46453 -1.19784 0
M  V30 778 O 79.3203 1.82367 -0.220932 0
M  V30 779 C 79.3823 0.781857 -3.50895 0
M  V30 780 C 79.0463 -0.277517 -4.56157 0
M  V30 781 C 80.0433 -1.11307 -5.07845 0
M  V30 782 C 77.7283 -0.425256 -5.00497 0
M  V30 783 C 79.7223 -2.08211 -6.02434 0
M  V30 784 C 77.4093 -1.39771 -5.94901 0
M  V30 785 C 78.4073 -2.2246 -6.45756 0
M  V30 786 O 78.0953 -3.18054 -7.38307 0
M  V30 787 H 77.8273 0.0622636 -0.673126 0
M  V30 788 H 80.3813 -0.465792 -2.00049 0
M  V30 789 H 78.6113 1.58118 -3.52896 0
M  V30 790 H 80.3003 1.30467 -3.84361 0
M  V30 791 H 81.0663 -1.00991 -4.74369 0
M  V30 792 H 76.9453 0.20847 -4.60528 0
M  V30 793 H 80.4893 -2.72791 -6.42052 0
M  V30 794 H 76.3863 -1.50152 -6.27794 0
M  V30 795 H 77.1543 -3.13275 -7.56175 0
M  V30 796 N 79.8174 1.5752 -0.0501392 0
M  V30 797 C 81.0664 1.91827 0.623328 0
M  V30 798 C 81.3794 0.930222 1.72065 0
M  V30 799 O 82.5854 1.1653 2.4522 0
M  V30 800 C 81.0414 3.40692 1.16003 0
M  V30 801 C 80.6494 4.479 0.0948811 0
M  V30 802 C 82.3934 3.84034 1.80881 0
M  V30 803 C 80.3004 5.87879 0.644411 0
M  V30 804 H 79.2304 0.715918 0.236596 0
M  V30 805 H 81.8814 1.83115 -0.118861 0
M  V30 806 H 80.2634 3.44405 1.9545 0
M  V30 807 H 81.4374 4.55775 -0.678675 0
M  V30 808 H 79.7524 4.13892 -0.45637 0
M  V30 809 H 82.3494 4.85984 2.22988 0
M  V30 810 H 82.6924 3.20225 2.6601 0
M  V30 811 H 83.2254 3.82833 1.0809 0
M  V30 812 H 79.9644 6.55282 -0.169229 0
M  V30 813 H 79.4844 5.83567 1.38598 0
M  V30 814 H 81.1634 6.37098 1.12763 0
M  V30 815 N 81.2955 -0.223234 1.56011 0
M  V30 816 C 82.5415 -0.949279 1.79211 0
M  V30 817 C 82.8745 -1.84054 0.619494 0
M  V30 818 O 82.1495 -1.90726 -0.381317 0
M  V30 819 C 82.4325 -1.78965 3.12479 0
M  V30 820 C 82.2855 -0.924997 4.40186 0
M  V30 821 C 83.6045 -2.76774 3.42175 0
M  V30 822 H 80.7235 -0.343676 0.651963 0
M  V30 823 H 83.3655 -0.218253 1.88742 0
M  V30 824 H 81.5155 -2.41291 3.04485 0
M  V30 825 H 83.1875 -0.318615 4.60198 0
M  V30 826 H 81.4305 -0.230344 4.33188 0
M  V30 827 H 82.1015 -1.54735 5.29869 0
M  V30 828 H 84.5775 -2.24584 3.50287 0
M  V30 829 H 83.4535 -3.32678 4.36597 0
M  V30 830 H 83.7145 -3.54429 2.64258 0
M  V30 831 N 82.7736 -1.49793 -0.48987 0
M  V30 832 C 84.0196 -1.60078 -1.24511 0
M  V30 833 C 84.3526 -0.291608 -1.91998 0
M  V30 834 O 83.6276 0.705647 -1.81248 0
M  V30 835 C 83.9106 -2.76791 -2.30345 0
M  V30 836 C 83.7636 -4.17535 -1.67286 0
M  V30 837 C 85.0826 -2.89111 -3.31817 0
M  V30 838 H 82.2016 -0.582645 -0.451324 0
M  V30 839 H 84.8436 -1.82117 -0.541612 0
M  V30 840 H 82.9936 -2.5813 -2.90346 0
M  V30 841 H 84.6656 -4.4774 -1.11026 0
M  V30 842 H 82.9086 -4.22665 -0.976577 0
M  V30 843 H 83.5796 -4.95094 -2.44103 0
M  V30 844 H 86.0556 -3.06133 -2.81819 0
M  V30 845 H 84.9316 -3.72433 -4.03219 0
M  V30 846 H 85.1926 -1.9893 -3.94815 0
M  V30 847 N 84.2517 0.741722 -1.39055 0
M  V30 848 C 85.1817 1.869 -1.39966 0
M  V30 849 C 86.1627 1.6804 -0.26392 0
M  V30 850 O 87.3477 1.88458 -0.468755 0
M  V30 851 C 84.4777 3.24572 -1.23574 0
M  V30 852 C 83.4317 3.58056 -2.34477 0
M  V30 853 C 82.7577 4.94593 -2.0318 0
M  V30 854 C 84.0577 3.61716 -3.76774 0
M  V30 855 H 85.7517 1.86395 -2.34302 0
M  V30 856 H 83.2977 0.895361 -1.1278 0
M  V30 857 H 85.2507 4.031 -1.22834 0
M  V30 858 H 83.9747 3.25587 -0.257045 0
M  V30 859 H 82.6337 2.81854 -2.34423 0
M  V30 860 H 82.2817 4.92181 -1.03765 0
M  V30 861 H 81.9817 5.17964 -2.77465 0
M  V30 862 H 83.5057 5.75486 -2.04079 0
M  V30 863 H 84.9197 4.30335 -3.78794 0
M  V30 864 H 83.3167 3.96603 -4.50362 0
M  V30 865 H 84.3867 2.61672 -4.08235 0
M  V30 866 N 85.7298 1.2412 0.971189 0
M  V30 867 C 86.6768 1.0305 2.06517 0
M  V30 868 C 87.6468 -0.0550666 1.66009 0
M  V30 869 O 88.8318 0.0988688 1.90544 0
M  V30 870 C 85.9718 0.637653 3.39158 0
M  V30 871 C 85.0848 1.79633 3.92882 0
M  V30 872 C 84.2198 1.34939 5.13775 0
M  V30 873 C 83.2588 2.47823 5.59687 0
M  V30 874 N 82.3958 2.04022 6.71803 0
M  V30 875 H 87.2358 1.96685 2.23873 0
M  V30 876 H 84.7728 0.979694 1.09729 0
M  V30 877 H 86.7308 0.390931 4.15364 0
M  V30 878 H 85.3608 -0.261693 3.21737 0
M  V30 879 H 84.4128 2.15681 3.13346 0
M  V30 880 H 85.7248 2.64466 4.22918 0
M  V30 881 H 84.8788 1.06134 5.97345 0
M  V30 882 H 83.6178 0.471557 4.85415 0
M  V30 883 H 82.6228 2.77392 4.74693 0
M  V30 884 H 83.8478 3.36158 5.90063 0
M  V30 885 H 81.7938 1.18632 6.45184 0
M  V30 886 H 81.7108 2.82409 7.01271 0
M  V30 887 H 82.9788 1.78347 7.58823 0
M  V30 888 N 87.2079 -1.17134 1.05439 0
M  V30 889 C 88.1399 -2.2078 0.615539 0
M  V30 890 C 89.1529 -1.59584 -0.322001 0
M  V30 891 O 90.3419 -1.78133 -0.114344 0
M  V30 892 C 87.4419 -3.38691 -0.118938 0
M  V30 893 C 86.6149 -4.29454 0.829924 0
M  V30 894 C 85.6739 -5.26024 0.136258 0
M  V30 895 O 84.6999 -5.63952 0.77115 0
M  V30 896 N 85.9019 -5.69487 -1.1254 0
M  V30 897 H 88.6669 -2.59052 1.50705 0
M  V30 898 H 86.2279 -1.32058 0.936603 0
M  V30 899 H 88.2199 -4.00329 -0.593179 0
M  V30 900 H 86.7899 -2.98996 -0.91215 0
M  V30 901 H 86.0099 -3.65211 1.48373 0
M  V30 902 H 87.2979 -4.86984 1.47392 0
M  V30 903 H 86.6959 -5.4075 -1.6615 0
M  V30 904 H 85.2529 -6.33257 -1.54366 0
M  V30 905 N 88.686 -0.835752 -1.33615 0
M  V30 906 C 90.097 -0.487099 -1.80234 0
M  V30 907 C 90.448 0.993627 -1.69179 0
M  V30 908 O 89.573 1.77403 -1.23924 0
M  V30 909 C 90.168 -0.877385 -3.27242 0
M  V30 910 C 88.727 -0.580915 -3.7189 0
M  V30 911 C 87.874 -1.0874 -2.5509 0
M  V30 912 H 90.825 -1.02474 -1.2118 0
M  V30 913 H 90.846 -0.186195 -3.80044 0
M  V30 914 H 90.358 -1.95512 -3.35256 0
M  V30 915 H 88.459 0.486881 -3.69405 0
M  V30 916 H 88.572 -1.13396 -4.65487 0
M  V30 917 H 86.936 -0.508392 -2.49575 0
M  V30 918 H 87.719 -2.17184 -2.65868 0
M  V30 919 N 90.1641 1.46063 -0.591896 0
M  V30 920 C 91.0961 2.28539 0.174001 0
M  V30 921 C 92.1091 1.39047 0.846753 0
M  V30 922 O 93.2981 1.63564 0.714774 0
M  V30 923 C 90.3981 3.14347 1.26645 0
M  V30 924 C 89.5711 4.32021 0.683856 0
M  V30 925 C 88.6301 4.99157 1.66518 0
M  V30 926 O 87.6561 5.56458 1.19763 0
M  V30 927 N 88.8581 4.97005 2.99943 0
M  V30 928 H 91.6231 2.94911 -0.533633 0
M  V30 929 H 89.1841 1.56077 -0.430294 0
M  V30 930 H 91.1761 3.56125 1.92242 0
M  V30 931 H 89.7461 2.49988 1.87682 0
M  V30 932 H 88.9661 3.93915 -0.1498 0
M  V30 933 H 90.2541 5.08059 0.274567 0
M  V30 934 H 89.6521 4.51714 3.40545 0
M  V30 935 H 88.2091 5.42696 3.61004 0
M  V30 936 N 91.6422 0.330177 1.54103 0
M  V30 937 C 92.5752 -0.575477 2.20825 0
M  V30 938 C 93.5532 -1.11064 1.18758 0
M  V30 939 O 94.7372 -1.17341 1.47524 0
M  V30 940 C 91.8642 -1.79032 2.87516 0
M  V30 941 C 90.9102 -1.38581 4.03358 0
M  V30 942 S 91.7432 -0.416911 5.33875 0
M  V30 943 C 92.8992 -1.63889 6.04062 0
M  V30 944 H 93.1322 -0.00872114 2.97299 0
M  V30 945 H 90.6652 0.114254 1.53977 0
M  V30 946 H 92.6232 -2.48734 3.2656 0
M  V30 947 H 91.2842 -2.32827 2.10832 0
M  V30 948 H 90.4772 -2.29123 4.48908 0
M  V30 949 H 90.0792 -0.768419 3.66021 0
M  V30 950 H 92.3712 -2.57536 6.26643 0
M  V30 951 H 93.3142 -1.22542 6.97416 0
M  V30 952 H 93.7222 -1.82887 5.34053 0
M  V30 953 N 93.1203 -1.57491 0.0584922 0
M  V30 954 C 94.0503 -2.14988 -0.911178 0
M  V30 955 C 95.0313 -1.07343 -1.31952 0
M  V30 956 O 96.2163 -1.35318 -1.39294 0
M  V30 957 C 93.3463 -2.70078 -2.18347 0
M  V30 958 C 92.3003 -3.82771 -1.91495 0
M  V30 959 C 91.6263 -4.24408 -3.25241 0
M  V30 960 C 92.9263 -5.07592 -1.23075 0
M  V30 961 H 94.6203 -2.96263 -0.432246 0
M  V30 962 H 92.1663 -1.42512 -0.206469 0
M  V30 963 H 94.1193 -3.08943 -2.86587 0
M  V30 964 H 92.8433 -1.86005 -2.68458 0
M  V30 965 H 91.5023 -3.44389 -1.25664 0
M  V30 966 H 91.1503 -3.37275 -3.73168 0
M  V30 967 H 90.8503 -5.00366 -3.08071 0
M  V30 968 H 92.3743 -4.65879 -3.94701 0
M  V30 969 H 93.7883 -5.43857 -1.81362 0
M  V30 970 H 92.1853 -5.88741 -1.16207 0
M  V30 971 H 93.2553 -4.84454 -0.207847 0
M  V30 972 N 94.5984 0.214957 -1.56127 0
M  V30 973 C 95.5314 1.29382 -1.87977 0
M  V30 974 C 96.5094 1.44897 -0.737807 0
M  V30 975 O 97.6934 1.60605 -0.986833 0
M  V30 976 C 94.8204 2.66325 -2.09258 0
M  V30 977 C 93.8664 2.67789 -3.31951 0
M  V30 978 S 94.6994 2.21198 -4.8768 0
M  V30 979 C 95.8554 3.60003 -5.12004 0
M  V30 980 H 96.0884 1.02173 -2.79192 0
M  V30 981 H 93.6214 0.417516 -1.48648 0
M  V30 982 H 95.5794 3.45162 -2.22201 0
M  V30 983 H 94.2404 2.90755 -1.18829 0
M  V30 984 H 93.4334 3.68436 -3.43906 0
M  V30 985 H 93.0354 1.9702 -3.17898 0
M  V30 986 H 95.3274 4.55739 -5.01307 0
M  V30 987 H 96.2704 3.52959 -6.13861 0
M  V30 988 H 96.6784 3.53996 -4.39712 0
M  V30 989 N 96.0765 1.50051 0.48192 0
M  V30 990 C 97.0245 1.68635 1.60203 0
M  V30 991 C 98.0185 0.552184 1.60148 0
M  V30 992 O 99.2245 0.732377 1.64427 0
M  V30 993 H 95.5995 0.532081 0.531407 0
M  V30 994 H 97.5705 2.62616 1.41688 0
M  V30 995 C 96.3195 1.78775 2.9822 0
M  V30 996 H 95.6425 2.6543 2.98976 0
M  V30 997 H 97.0825 1.95806 3.7608 0
M  V30 998 C 95.5415 0.536849 3.32595 0
M  V30 999 O 96.0715 -0.328897 4.00351 0
M  V30 1000 N 94.2775 0.394091 2.87915 0
M  V30 1001 H 93.8245 1.09962 2.32951 0
M  V30 1002 H 93.7825 -0.441737 3.11281 0
M  V30 1003 N 97.5546 -0.734337 1.39446 0
M  V30 1004 C 98.8316 -1.48579 1.27215 0
M  V30 1005 C 99.2116 -2.1077 -0.117968 0
M  V30 1006 O 98.5596 -1.98646 -1.12924 0
M  V30 1007 C 98.7696 -2.53667 2.39696 0
M  V30 1008 C 100.118 -3.20031 2.79044 0
M  V30 1009 O 101.142 -2.6398 2.39151 0
M  V30 1010 O 100.001 -4.21455 3.47905 0
M  V30 1011 H 97.0946 -0.659816 0.49857 0
M  V30 1012 H 99.6406 -0.768106 1.51322 0
M  V30 1013 H 98.4126 -2.06096 3.32626 0
M  V30 1014 H 98.0356 -3.32994 2.17258 0
M  V30 1015 N 99.0327 -1.24633 -0.964593 0
M  V30 1016 C 99.9957 -1.0424 -2.04124 0
M  V30 1017 C 100.996 0.00137563 -1.608 0
M  V30 1018 O 102.186 -0.239883 -1.7254 0
M  V30 1019 C 99.3177 -0.580588 -3.3592 0
M  V30 1020 H 100.511 -1.99803 -2.23649 0
M  V30 1021 H 98.0637 -1.06899 -1.14027 0
M  V30 1022 H 98.7987 0.3781 -3.22088 0
M  V30 1023 H 98.5837 -1.33398 -3.6871 0
M  V30 1024 H 100.074 -0.459034 -4.15069 0
M  V30 1025 N 100.511 1.16574 -1.06058 0
M  V30 1026 C 101.474 2.19085 -0.673392 0
M  V30 1027 C 102.474 1.5835 0.279648 0
M  V30 1028 O 103.664 1.74088 0.0623488 0
M  V30 1029 C 100.796 3.40899 0.00954234 0
M  V30 1030 H 101.989 2.54853 -1.58081 0
M  V30 1031 H 99.5418 1.30808 -0.855516 0
M  V30 1032 H 100.277 3.10684 0.929826 0
M  V30 1033 H 100.062 3.86233 -0.67573 0
M  V30 1034 H 101.552 4.1675 0.266245 0
M  V30 1035 N 101.989 0.842826 1.3317 0
M  V30 1036 C 103.237 0.439577 1.97262 0
M  V30 1037 C 103.558 -1.00548 1.67078 0
M  V30 1038 O 102.828 -1.70098 0.971779 0
M  V30 1039 H 101.408 0.159558 0.72976 0
M  V30 1040 H 104.07 1.07665 1.62463 0
M  V30 1041 H 103.166 0.574886 3.0676 0
M  V30 1042 N 103.467 -1.45747 0.599634 0
M  V30 1043 C 104.397 -2.33235 -0.111306 0
M  V30 1044 C 105.378 -1.46359 -0.866781 0
M  V30 1045 O 106.563 -1.75146 -0.838904 0
M  V30 1046 C 103.693 -3.28932 -1.11451 0
M  V30 1047 C 102.647 -4.25381 -0.472772 0
M  V30 1048 C 101.973 -5.1071 -1.58365 0
M  V30 1049 C 103.273 -5.18831 0.600948 0
M  V30 1050 H 104.967 -2.92927 0.61919 0
M  V30 1051 H 102.513 -1.40857 0.299215 0
M  V30 1052 H 104.466 -3.89002 -1.62036 0
M  V30 1053 H 103.19 -2.67381 -1.8755 0
M  V30 1054 H 101.849 -3.66598 0.0121472 0
M  V30 1055 H 101.497 -4.45533 -2.33473 0
M  V30 1056 H 101.197 -5.7604 -1.15982 0
M  V30 1057 H 102.721 -5.73647 -2.09194 0
M  V30 1058 H 104.135 -5.73019 0.179491 0
M  V30 1059 H 102.532 -5.92595 0.946076 0
M  V30 1060 H 103.602 -4.6174 1.48068 0
M  V30 1061 N 104.945 -0.338344 -1.53925 0
M  V30 1062 C 105.877 0.555117 -2.22376 0
M  V30 1063 C 106.89 1.06812 -1.22862 0
M  V30 1064 O 108.079 0.979163 -1.49247 0
M  V30 1065 C 105.179 1.77609 -2.88631 0
M  V30 1066 C 104.352 1.39927 -4.14414 0
M  V30 1067 C 103.411 2.47936 -4.64127 0
M  V30 1068 O 102.437 2.11461 -5.28463 0
M  V30 1069 N 103.639 3.79107 -4.39612 0
M  V30 1070 H 106.404 -0.0310778 -2.99684 0
M  V30 1071 H 103.965 -0.162226 -1.61085 0
M  V30 1072 H 105.957 2.49287 -3.18807 0
M  V30 1073 H 104.527 2.26978 -2.14941 0
M  V30 1074 H 103.747 0.513481 -3.90841 0
M  V30 1075 H 105.035 1.12341 -4.96243 0
M  V30 1076 H 104.433 4.11531 -3.88148 0
M  V30 1077 H 102.99 4.4697 -4.74406 0
M  V30 1078 N 106.423 1.57458 -0.0668435 0
M  V30 1079 C 107.355 2.09413 0.931601 0
M  V30 1080 C 108.368 1.02522 1.26464 0
M  V30 1081 O 109.557 1.30049 1.22269 0
M  V30 1082 C 106.657 2.53537 2.24882 0
M  V30 1083 C 105.83 3.83944 2.09537 0
M  V30 1084 C 104.889 4.14214 3.2452 0
M  V30 1085 O 103.915 4.83891 2.9973 0
M  V30 1086 N 105.117 3.67367 4.49469 0
M  V30 1087 H 107.882 2.95699 0.488048 0
M  V30 1088 H 105.443 1.61462 0.119009 0
M  V30 1089 H 107.435 2.70853 3.00701 0
M  V30 1090 H 106.005 1.72415 2.60753 0
M  V30 1091 H 105.225 3.76057 1.18215 0
M  V30 1092 H 106.513 4.69312 1.96529 0
M  V30 1093 H 105.911 3.11068 4.72497 0
M  V30 1094 H 104.468 3.89891 5.2233 0
M  V30 1095 N 107.901 -0.206675 1.56239 0
M  V30 1096 C 109.148 -0.928842 1.79941 0
M  V30 1097 C 109.476 -1.83734 0.638131 0
M  V30 1098 O 108.731 -1.92039 -0.376746 0
M  V30 1099 C 109.03 -1.78675 3.09532 0
M  V30 1100 C 108.696 -1.03022 4.38973 0
M  V30 1101 C 107.358 -0.821302 4.74139 0
M  V30 1102 C 109.71 -0.497081 5.18824 0
M  V30 1103 C 107.038 -0.0675719 5.86661 0
M  V30 1104 C 109.39 0.24338 6.32132 0
M  V30 1105 C 108.054 0.463422 6.65889 0
M  V30 1106 H 107.324 -0.339887 0.658451 0
M  V30 1107 H 109.971 -0.195977 1.90495 0
M  V30 1108 H 108.276 -2.58794 2.94165 0
M  V30 1109 H 109.973 -2.34792 3.25075 0
M  V30 1110 H 106.563 -1.20306 4.11369 0
M  V30 1111 H 110.747 -0.645921 4.92079 0
M  V30 1112 H 106.003 0.112995 6.11296 0
M  V30 1113 H 110.177 0.66393 6.93228 0
M  V30 1114 H 107.804 1.04938 7.52922 0
M  V30 1115 N 109.379 -1.50304 -0.473955 0
M  V30 1116 C 110.607 -1.64902 -1.24959 0
M  V30 1117 C 111.022 -0.331198 -1.85872 0
M  V30 1118 O 110.379 0.68652 -1.69095 0
M  V30 1119 C 110.43 -2.73803 -2.36038 0
M  V30 1120 O 110.151 -4.00477 -1.77624 0
M  V30 1121 C 111.652 -2.99349 -3.26964 0
M  V30 1122 H 108.872 -0.554383 -0.378022 0
M  V30 1123 H 111.416 -1.9651 -0.566054 0
M  V30 1124 H 109.571 -2.44898 -3.00173 0
M  V30 1125 H 109.985 -4.60678 -2.5075 0
M  V30 1126 H 111.459 -3.79217 -4.01121 0
M  V30 1127 H 111.936 -2.10307 -3.85574 0
M  V30 1128 H 112.542 -3.29774 -2.68569 0
M  V30 1129 N 110.857 0.726932 -1.39834 0
M  V30 1130 C 111.789 1.85147 -1.35104 0
M  V30 1131 C 112.802 1.60736 -0.258392 0
M  V30 1132 O 113.991 1.70821 -0.517931 0
M  V30 1133 C 111.091 3.21332 -1.07697 0
M  V30 1134 C 110.264 3.73033 -2.28396 0
M  V30 1135 C 109.323 4.87802 -1.97322 0
M  V30 1136 O 108.349 5.01043 -2.70083 0
M  V30 1137 N 109.551 5.72768 -0.944273 0
M  V30 1138 H 112.316 1.89706 -2.32017 0
M  V30 1139 H 109.877 0.908006 -1.3404 0
M  V30 1140 H 111.869 3.95691 -0.849144 0
M  V30 1141 H 110.439 3.11992 -0.194909 0
M  V30 1142 H 109.659 2.89934 -2.6708 0
M  V30 1143 H 110.947 4.0431 -3.08887 0
M  V30 1144 H 110.345 5.64669 -0.341427 0
M  V30 1145 H 108.902 6.4716 -0.776346 0
M  V30 1146 N 112.336 1.25143 0.95797 0
M  V30 1147 C 113.268 1.01023 2.05735 0
M  V30 1148 C 114.281 -0.0236902 1.62783 0
M  V30 1149 O 115.47 0.21448 1.77207 0
M  V30 1150 C 112.57 0.504595 3.35122 0
M  V30 1151 C 111.743 1.6039 4.06932 0
M  V30 1152 C 110.802 1.09922 5.14591 0
M  V30 1153 O 109.828 1.79293 5.40225 0
M  V30 1154 N 111.03 -0.0612545 5.80468 0
M  V30 1155 H 113.795 1.95683 2.26998 0
M  V30 1156 H 111.356 1.16303 1.12629 0
M  V30 1157 H 113.348 0.151516 4.04416 0
M  V30 1158 H 111.918 -0.347989 3.10657 0
M  V30 1159 H 111.138 2.12872 3.31782 0
M  V30 1160 H 112.426 2.34252 4.51667 0
M  V30 1161 H 111.824 -0.640985 5.62057 0
M  V30 1162 H 110.381 -0.355395 6.5083 0
M  V30 1163 N 113.814 -1.1601 1.06675 0
M  V30 1164 C 115.042 -1.90527 0.806667 0
M  V30 1165 C 115.457 -1.77643 -0.639396 0
M  V30 1166 O 114.814 -1.12369 -1.43803 0
M  V30 1167 C 114.865 -3.41106 1.19705 0
M  V30 1168 O 114.586 -3.53608 2.58636 0
M  V30 1169 C 116.087 -4.32663 0.965266 0
M  V30 1170 H 113.307 -0.604053 0.292166 0
M  V30 1171 H 115.851 -1.47026 1.4214 0
M  V30 1172 H 114.006 -3.82296 0.626774 0
M  V30 1173 H 114.42 -4.47011 2.74375 0
M  V30 1174 H 115.894 -5.36763 1.288 0
M  V30 1175 H 116.371 -4.39089 -0.0987936 0
M  V30 1176 H 116.977 -3.97206 1.52011 0
M  V30 1177 N 115.292 -0.849877 -1.32721 0
M  V30 1178 C 116.538 -0.451591 -1.97708 0
M  V30 1179 C 116.871 0.989175 -1.6712 0
M  V30 1180 O 116.146 1.69334 -0.956891 0
M  V30 1181 C 116.429 -0.685598 -3.53513 0
M  V30 1182 C 116.282 -2.17444 -3.93749 0
M  V30 1183 C 117.601 -0.138874 -4.39881 0
M  V30 1184 H 114.72 -0.16555 -0.718166 0
M  V30 1185 H 117.362 -1.06742 -1.57182 0
M  V30 1186 H 115.512 -0.161416 -3.88165 0
M  V30 1187 H 117.184 -2.76433 -3.693 0
M  V30 1188 H 115.427 -2.65476 -3.43081 0
M  V30 1189 H 116.098 -2.28888 -5.02309 0
M  V30 1190 H 118.574 -0.587068 -4.11938 0
M  V30 1191 H 117.45 -0.332213 -5.47894 0
M  V30 1192 H 117.711 0.95806 -4.31594 0
M  V30 1193 N 116.77 1.45427 -0.607355 0
M  V30 1194 C 118.018 2.01841 -0.102253 0
M  V30 1195 C 118.339 1.47832 1.27164 0
M  V30 1196 O 117.609 0.672497 1.83995 0
M  V30 1197 H 116.189 0.746188 -0.0348101 0
M  V30 1198 H 118.851 1.78229 -0.7887 0
M  V30 1199 H 117.947 3.12057 -0.0518585 0
M  V30 1200 N 118.248 0.346503 1.53744 0
M  V30 1201 C 119.178 -0.501193 2.28058 0
M  V30 1202 C 120.159 -1.10014 1.29734 0
M  V30 1203 O 121.344 -1.12097 1.58581 0
M  V30 1204 C 118.474 -1.65078 3.05559 0
M  V30 1205 C 117.428 -1.18003 4.11411 0
M  V30 1206 C 116.754 -2.41837 4.76884 0
M  V30 1207 C 118.054 -0.278394 5.21558 0
M  V30 1208 H 119.748 0.11875 2.99164 0
M  V30 1209 H 117.294 0.0585531 1.43881 0
M  V30 1210 H 119.247 -2.25028 3.56287 0
M  V30 1211 H 117.971 -2.29767 2.32109 0
M  V30 1212 H 116.63 -0.603331 3.61601 0
M  V30 1213 H 116.278 -3.0494 4.00026 0
M  V30 1214 H 115.978 -2.1102 5.48402 0
M  V30 1215 H 117.502 -3.02508 5.30397 0
M  V30 1216 H 118.916 -0.784823 5.67903 0
M  V30 1217 H 117.313 -0.0619707 6.00068 0
M  V30 1218 H 118.383 0.684677 4.80042 0
M  V30 1219 N 119.726 -1.57421 0.075193 0
M  V30 1220 C 120.659 -2.08528 -0.926904 0
M  V30 1221 C 121.637 -0.991171 -1.28898 0
M  V30 1222 O 122.821 -1.26479 -1.39769 0
M  V30 1223 C 119.948 -2.54576 -2.23402 0
M  V30 1224 C 118.994 -3.75454 -2.02327 0
M  V30 1225 S 119.827 -5.19989 -1.27951 0
M  V30 1226 C 120.983 -5.69372 -2.59935 0
M  V30 1227 H 121.216 -2.932 -0.492048 0
M  V30 1228 H 118.749 -1.53785 -0.137651 0
M  V30 1229 H 120.707 -2.81767 -2.98526 0
M  V30 1230 H 119.368 -1.70166 -2.64012 0
M  V30 1231 H 118.561 -4.05675 -2.99071 0
M  V30 1232 H 118.163 -3.48654 -1.35339 0
M  V30 1233 H 120.455 -5.76424 -3.56008 0
M  V30 1234 H 121.398 -6.68207 -2.34319 0
M  V30 1235 H 121.806 -4.97205 -2.67296 0
M  V30 1236 N 121.204 0.198386 -1.56346 0
M  V30 1237 C 122.167 1.22952 -1.93431 0
M  V30 1238 C 123.167 1.38611 -0.815092 0
M  V30 1239 O 124.357 1.36479 -1.08255 0
M  V30 1240 C 121.489 2.59946 -2.20546 0
M  V30 1241 H 122.682 0.912626 -2.85677 0
M  V30 1242 H 120.235 0.43977 -1.49986 0
M  V30 1243 H 120.97 2.96696 -1.30927 0
M  V30 1244 H 120.755 2.49953 -3.02102 0
M  V30 1245 H 122.245 3.3431 -2.50253 0
M  V30 1246 N 122.682 1.50554 0.465978 0
M  V30 1247 C 123.63 1.70324 1.58406 0
M  V30 1248 C 124.624 0.569139 1.59553 0
M  V30 1249 O 125.83 0.749776 1.63641 0
M  V30 1250 H 122.205 0.537688 0.525734 0
M  V30 1251 H 124.176 2.64104 1.38894 0
M  V30 1252 C 122.925 1.81928 2.96307 0
M  V30 1253 H 122.248 2.68586 2.96144 0
M  V30 1254 H 123.688 1.99784 3.73982 0
M  V30 1255 C 122.147 0.572095 3.32007 0
M  V30 1256 O 122.677 -0.286416 4.00678 0
M  V30 1257 N 120.883 0.424606 2.87481 0
M  V30 1258 H 120.43 1.12427 2.31771 0
M  V30 1259 H 120.388 -0.408697 3.11732 0
M  V30 1260 N 124.16 -0.719506 1.40217 0
M  V30 1261 C 125.385 -1.51371 1.4178 0
M  V30 1262 C 125.81 -1.88091 0.0182355 0
M  V30 1263 O 125.168 -1.52997 -0.972707 0
M  V30 1264 C 125.216 -2.768 2.31115 0
M  V30 1265 O 124.32 -3.73349 1.7517 0
M  V30 1266 H 123.661 -0.456529 0.482159 0
M  V30 1267 H 126.191 -0.88644 1.844 0
M  V30 1268 H 126.201 -3.25371 2.46167 0
M  V30 1269 H 124.876 -2.49407 3.3282 0
M  V30 1270 H 123.453 -3.32179 1.69444 0
M  V30 1271 N 125.638 -1.25649 -0.95132 0
M  V30 1272 C 126.885 -1.10594 -1.69633 0
M  V30 1273 C 127.213 0.352515 -1.91279 0
M  V30 1274 O 126.468 1.27601 -1.4838 0
M  V30 1275 C 126.767 -1.80909 -3.08231 0
M  V30 1276 C 126.433 -3.30825 -3.06375 0
M  V30 1277 C 125.095 -3.71722 -3.05576 0
M  V30 1278 C 127.447 -4.26589 -2.99452 0
M  V30 1279 C 124.775 -5.06788 -2.95606 0
M  V30 1280 C 127.127 -5.61683 -2.91024 0
M  V30 1281 C 125.791 -6.01904 -2.88562 0
M  V30 1282 H 125.061 -0.404691 -0.620731 0
M  V30 1283 H 127.708 -1.55964 -1.11119 0
M  V30 1284 H 126.013 -1.27979 -3.70309 0
M  V30 1285 H 127.71 -1.6671 -3.64704 0
M  V30 1286 H 124.3 -2.98287 -3.07771 0
M  V30 1287 H 128.484 -3.95982 -2.99185 0
M  V30 1288 H 123.74 -5.37126 -2.92071 0
M  V30 1289 H 127.914 -6.35578 -2.84629 0
M  V30 1290 H 125.541 -7.06521 -2.80593 0
M  V30 1291 N 127.117 1.15442 -1.07289 0
M  V30 1292 C 128.342 1.90638 -0.816828 0
M  V30 1293 C 128.767 1.77445 0.624083 0
M  V30 1294 O 128.125 1.10671 1.43602 0
M  V30 1295 C 128.173 3.39008 -1.22906 0
M  V30 1296 O 127.277 4.10701 -0.373975 0
M  V30 1297 H 126.618 0.593555 -0.297638 0
M  V30 1298 H 129.148 1.46198 -1.43134 0
M  V30 1299 H 129.158 3.89801 -1.20497 0
M  V30 1300 H 127.833 3.47929 -2.27856 0
M  V30 1301 H 126.41 3.70046 -0.460499 0
M  V30 1302 N 128.595 0.856903 1.32268 0
M  V30 1303 C 129.844 0.457599 1.96441 0
M  V30 1304 C 130.157 -0.992426 1.68553 0
M  V30 1305 O 131.363 -1.49727 2.26482 0
M  V30 1306 C 129.819 0.767358 3.51624 0
M  V30 1307 C 129.427 2.23326 3.88367 0
M  V30 1308 C 131.171 0.435887 4.22256 0
M  V30 1309 C 129.078 2.48613 5.36606 0
M  V30 1310 H 128.008 0.167387 0.735185 0
M  V30 1311 H 130.659 1.048 1.5063 0
M  V30 1312 H 129.041 0.106367 3.95857 0
M  V30 1313 H 130.215 2.93623 3.55137 0
M  V30 1314 H 128.53 2.52948 3.30766 0
M  V30 1315 H 131.127 0.602202 5.31298 0
M  V30 1316 H 131.47 -0.622672 4.11617 0
M  V30 1317 H 132.003 1.05286 3.83614 0
M  V30 1318 H 128.742 3.53101 5.52268 0
M  V30 1319 H 128.262 1.82896 5.71235 0
M  V30 1320 H 129.941 2.32676 6.03714 0
M  V30 1321 N 130.073 -1.45103 0.615059 0
M  V30 1322 C 131.02 -2.30586 -0.0993978 0
M  V30 1323 C 131.99 -1.42544 -0.852669 0
M  V30 1324 O 133.175 -1.71465 -0.836917 0
M  V30 1325 C 130.315 -3.27572 -1.08583 0
M  V30 1326 C 129.428 -4.30717 -0.332656 0
M  V30 1327 C 128.563 -5.14807 -1.30947 0
M  V30 1328 C 127.602 -6.09673 -0.544538 0
M  V30 1329 N 126.739 -6.86517 -1.47101 0
M  V30 1330 H 131.579 -2.91144 0.635542 0
M  V30 1331 H 129.116 -1.4346 0.325206 0
M  V30 1332 H 131.074 -3.82276 -1.67095 0
M  V30 1333 H 129.704 -2.68751 -1.78809 0
M  V30 1334 H 128.756 -3.78615 0.368107 0
M  V30 1335 H 130.068 -4.98102 0.263842 0
M  V30 1336 H 129.222 -5.73948 -1.96643 0
M  V30 1337 H 127.961 -4.47458 -1.9399 0
M  V30 1338 H 126.966 -5.49656 0.126003 0
M  V30 1339 H 128.191 -6.79052 0.080947 0
M  V30 1340 H 126.137 -6.21851 -2.08895 0
M  V30 1341 H 126.054 -7.50281 -0.928137 0
M  V30 1342 H 127.322 -7.50194 -2.11731 0
M  V30 1343 N 131.551 -0.354651 -1.53558 0
M  V30 1344 C 132.779 0.239515 -2.05509 0
M  V30 1345 C 133.194 1.4333 -1.2289 0
M  V30 1346 O 132.551 1.80538 -0.266899 0
M  V30 1347 C 132.602 0.643719 -3.55723 0
M  V30 1348 O 132.323 -0.502602 -4.35207 0
M  V30 1349 C 133.824 1.29743 -4.23889 0
M  V30 1350 H 131.044 0.0442697 -0.669538 0
M  V30 1351 H 133.588 -0.509856 -1.98042 0
M  V30 1352 H 131.743 1.34302 -3.63376 0
M  V30 1353 H 132.157 -0.178172 -5.24197 0
M  V30 1354 H 133.631 1.53091 -5.30346 0
M  V30 1355 H 134.108 2.25441 -3.76926 0
M  V30 1356 H 134.714 0.639865 -4.20459 0
M  V30 1357 N 133.029 1.57378 -0.0835403 0
M  V30 1358 C 134.306 1.85363 0.624507 0
M  V30 1359 C 134.686 0.978239 1.87066 0
M  V30 1360 O 134.034 0.0475908 2.2845 0
M  V30 1361 C 134.244 3.35795 0.950947 0
M  V30 1362 C 135.592 4.03581 1.31939 0
M  V30 1363 O 136.616 3.40609 1.04232 0
M  V30 1364 O 135.475 5.14672 1.83779 0
M  V30 1365 H 132.569 0.766162 0.311329 0
M  V30 1366 H 135.115 1.69307 -0.115362 0
M  V30 1367 H 133.887 3.91244 0.0663899 0
M  V30 1368 H 133.51 3.57154 1.74719 0
M  V30 1369 N 134.507 -0.190092 1.56449 0
M  V30 1370 C 135.784 -0.935886 1.71757 0
M  V30 1371 C 136.164 -2.01173 0.639726 0
M  V30 1372 O 135.512 -2.25827 -0.348502 0
M  V30 1373 C 135.722 -1.51775 3.1427 0
M  V30 1374 C 137.07 -1.99794 3.74656 0
M  V30 1375 O 138.094 -1.61607 3.1743 0
M  V30 1376 O 136.953 -2.70079 4.751 0
M  V30 1377 H 134.047 -0.439229 0.700719 0
M  V30 1378 H 136.593 -0.179395 1.68749 0
M  V30 1379 H 135.365 -0.742505 3.84191 0
M  V30 1380 H 134.988 -2.33894 3.21527 0
M  V30 1381 N 135.985 -1.50799 -0.457987 0
M  V30 1382 C 137.231 -1.62683 -1.21088 0
M  V30 1383 C 137.564 -0.332268 -1.91336 0
M  V30 1384 O 136.839 0.667043 -1.82704 0
M  V30 1385 C 137.122 -2.81615 -2.24422 0
M  V30 1386 C 136.975 -4.20989 -1.58392 0
M  V30 1387 C 138.294 -2.96085 -3.2561 0
M  V30 1388 H 135.413 -0.592087 -0.438864 0
M  V30 1389 H 138.055 -1.83225 -0.50286 0
M  V30 1390 H 136.205 -2.64231 -2.84806 0
M  V30 1391 H 137.877 -4.49994 -1.01504 0
M  V30 1392 H 136.12 -4.24641 -0.886704 0
M  V30 1393 H 136.791 -5.0016 -2.33547 0
M  V30 1394 H 139.267 -3.12042 -2.75262 0
M  V30 1395 H 138.143 -3.80902 -3.95228 0
M  V30 1396 H 138.404 -2.0726 -3.90507 0
M  V30 1397 N 137.463 0.71206 -1.40597 0
M  V30 1398 C 138.71 1.47197 -1.39065 0
M  V30 1399 C 139.038 1.94499 0.00583891 0
M  V30 1400 O 138.293 1.68752 0.99102 0
M  V30 1401 C 138.592 2.71039 -2.32965 0
M  V30 1402 C 138.258 2.42484 -3.80148 0
M  V30 1403 C 136.92 2.34406 -4.20247 0
M  V30 1404 C 139.272 2.18598 -4.73143 0
M  V30 1405 C 136.6 2.00516 -5.51371 0
M  V30 1406 C 138.952 1.8622 -6.0457 0
M  V30 1407 C 137.616 1.76626 -6.43708 0
M  V30 1408 H 136.886 0.538634 -0.508876 0
M  V30 1409 H 139.533 0.815325 -1.73276 0
M  V30 1410 H 137.838 3.41558 -1.91951 0
M  V30 1411 H 139.535 3.29138 -2.29061 0
M  V30 1412 H 136.125 2.49659 -3.4838 0
M  V30 1413 H 140.309 2.23793 -4.42979 0
M  V30 1414 H 135.565 1.91628 -5.80593 0
M  V30 1415 H 139.739 1.66752 -6.76141 0
M  V30 1416 H 137.366 1.50133 -7.45228 0
M  V30 1417 N 138.941 1.26152 0.944643 0
M  V30 1418 C 140.218 1.02247 1.66748 0
M  V30 1419 C 140.598 -0.448202 2.06287 0
M  V30 1420 O 139.946 -1.42779 1.78399 0
M  V30 1421 C 140.156 1.96788 2.88228 0
M  V30 1422 C 141.504 2.25201 3.59958 0
M  V30 1423 O 142.528 1.94626 2.98327 0
M  V30 1424 O 141.387 2.77242 4.70956 0
M  V30 1425 H 138.481 0.388517 0.730057 0
M  V30 1426 H 141.027 1.37348 0.99668 0
M  V30 1427 H 139.799 2.96047 2.55875 0
M  V30 1428 H 139.422 1.62145 3.63035 0
M  V30 1429 N 140.419 -1.14872 1.07899 0
M  V30 1430 C 141.644 -1.90202 0.826926 0
M  V30 1431 C 142.069 -1.77774 -0.614664 0
M  V30 1432 O 141.427 -1.11431 -1.43013 0
M  V30 1433 C 141.475 -3.38352 1.24702 0
M  V30 1434 O 140.579 -4.10497 0.39575 0
M  V30 1435 H 139.92 -0.591968 0.300782 0
M  V30 1436 H 142.45 -1.45437 1.43907 0
M  V30 1437 H 142.46 -3.89156 1.22563 0
M  V30 1438 H 141.135 -3.46715 2.29698 0
M  V30 1439 H 139.712 -3.69796 0.480117 0
M  V30 1440 N 141.898 -0.863906 -1.31812 0
M  V30 1441 C 143.123 -0.48527 -2.01643 0
M  V30 1442 C 143.548 0.913058 -1.64453 0
M  V30 1443 O 142.906 1.6014 -0.849985 0
M  V30 1444 C 142.954 -0.642625 -3.54828 0
M  V30 1445 O 142.058 0.320659 -4.11151 0
M  V30 1446 H 141.399 -0.193793 -0.635091 0
M  V30 1447 H 143.929 -1.16565 -1.68148 0
M  V30 1448 H 143.939 -0.533628 -4.04495 0
M  V30 1449 H 142.614 -1.66227 -3.81237 0
M  V30 1450 H 141.191 0.167126 -3.72525 0
M  V30 1451 N 143.376 1.44774 -0.622745 0
M  V30 1452 C 144.625 2.01334 -0.121397 0
M  V30 1453 C 144.938 1.49505 1.26125 0
M  V30 1454 O 146.144 1.98139 1.85616 0
M  V30 1455 C 144.6 3.59516 -0.166298 0
M  V30 1456 C 144.208 4.20342 -1.54974 0
M  V30 1457 C 145.952 4.23582 0.279021 0
M  V30 1458 C 143.859 5.70721 -1.55021 0
M  V30 1459 H 142.789 0.752851 -0.0416172 0
M  V30 1460 H 145.44 1.66083 -0.780309 0
M  V30 1461 H 143.822 3.92027 0.559557 0
M  V30 1462 H 144.996 3.99381 -2.29851 0
M  V30 1463 H 143.311 3.68529 -1.93843 0
M  V30 1464 H 145.908 5.33868 0.298083 0
M  V30 1465 H 146.251 3.95327 1.30471 0
M  V30 1466 H 146.784 3.95843 -0.394063 0
M  V30 1467 H 143.523 6.03698 -2.55399 0
M  V30 1468 H 143.043 5.93829 -0.844245 0
M  V30 1469 H 144.722 6.34203 -1.28047 0
M  V30 1470 N 144.854 0.36279 1.53368 0
M  V30 1471 C 146.103 -0.22888 2.00397 0
M  V30 1472 C 146.416 -1.50096 1.25421 0
M  V30 1473 O 147.622 -2.17106 1.63025 0
M  V30 1474 C 146.078 -0.458417 3.56969 0
M  V30 1475 C 145.686 0.798877 4.4082 0
M  V30 1476 C 147.43 -1.00789 4.12361 0
M  V30 1477 C 145.337 0.539078 5.88938 0
M  V30 1478 H 144.267 -0.089305 0.748693 0
M  V30 1479 H 146.918 0.481099 1.77081 0
M  V30 1480 H 145.3 -1.22959 3.76427 0
M  V30 1481 H 146.474 1.57262 4.33134 0
M  V30 1482 H 144.789 1.27137 3.96516 0
M  V30 1483 H 147.386 -1.21754 5.20653 0
M  V30 1484 H 147.729 -1.9692 3.66781 0
M  V30 1485 H 148.262 -0.296961 3.9669 0
M  V30 1486 H 145.001 1.47064 6.3879 0
M  V30 1487 H 144.521 -0.196222 5.99479 0
M  V30 1488 H 146.2 0.163542 6.46793 0
M  V30 1489 N 146.332 -1.57332 0.0918853 0
M  V30 1490 C 147.58 -1.93853 -0.571446 0
M  V30 1491 C 147.901 -0.974212 -1.6892 0
M  V30 1492 O 147.171 -0.0257254 -1.95883 0
M  V30 1493 H 145.751 -0.715666 -0.214082 0
M  V30 1494 H 148.413 -1.94287 0.154464 0
M  V30 1495 H 147.509 -2.96191 -0.983729 0
M  V30 1496 N 147.81 0.181792 -1.56548 0
M  V30 1497 C 149.057 0.900097 -1.81396 0
M  V30 1498 C 149.385 1.82695 -0.667281 0
M  V30 1499 O 148.64 1.92614 0.346146 0
M  V30 1500 C 148.939 1.73728 -3.12335 0
M  V30 1501 C 148.605 0.960255 -4.40556 0
M  V30 1502 C 147.267 0.745766 -4.75386 0
M  V30 1503 C 149.619 0.414477 -5.19549 0
M  V30 1504 C 146.947 -0.0257694 -5.86694 0
M  V30 1505 C 149.299 -0.343916 -6.31664 0
M  V30 1506 C 147.963 -0.569301 -6.65068 0
M  V30 1507 H 147.233 0.329369 -0.663775 0
M  V30 1508 H 149.88 0.165647 -1.90782 0
M  V30 1509 H 148.185 2.54081 -2.98245 0
M  V30 1510 H 149.882 2.29591 -3.28769 0
M  V30 1511 H 146.472 1.13746 -4.13231 0
M  V30 1512 H 150.656 0.567554 -4.93044 0
M  V30 1513 H 145.912 -0.210233 -6.11038 0
M  V30 1514 H 150.086 -0.774133 -6.92084 0
M  V30 1515 H 147.713 -1.16903 -7.51158 0
M  V30 1516 N 149.288 1.51039 0.449983 0
M  V30 1517 C 150.534 1.63322 1.20223 0
M  V30 1518 C 150.867 0.34241 1.91158 0
M  V30 1519 O 150.142 -0.657344 1.83055 0
M  V30 1520 C 150.425 2.82801 2.22925 0
M  V30 1521 C 150.278 4.21823 1.56157 0
M  V30 1522 C 151.597 2.97807 3.24035 0
M  V30 1523 H 148.716 0.594407 0.435718 0
M  V30 1524 H 151.358 1.83489 0.493136 0
M  V30 1525 H 149.508 2.65738 2.834 0
M  V30 1526 H 151.18 4.50526 0.991162 0
M  V30 1527 H 149.423 4.25105 0.864172 0
M  V30 1528 H 150.094 5.01391 2.30891 0
M  V30 1529 H 152.57 3.13497 2.73603 0
M  V30 1530 H 151.446 3.82992 3.93202 0
M  V30 1531 H 151.707 2.09328 3.89402 0
M  V30 1532 N 150.766 -0.704594 1.40972 0
M  V30 1533 C 151.729 -1.80035 1.41845 0
M  V30 1534 C 152.729 -1.57774 0.310474 0
M  V30 1535 O 153.919 -1.64613 0.56992 0
M  V30 1536 C 151.051 -3.18284 1.22098 0
M  V30 1537 H 152.244 -1.80658 2.3938 0
M  V30 1538 H 149.797 -0.911329 1.26982 0
M  V30 1539 H 150.532 -3.23306 0.253672 0
M  V30 1540 H 150.317 -3.35843 2.02366 0
M  V30 1541 H 151.807 -3.98289 1.25522 0
M  V30 1542 N 152.244 -1.26651 -0.937939 0
M  V30 1543 C 153.192 -1.08308 -2.05845 0
M  V30 1544 C 154.186 -0.0090757 -1.69398 0
M  V30 1545 O 155.392 -0.166007 -1.79233 0
M  V30 1546 H 151.767 -0.333416 -0.674046 0
M  V30 1547 H 153.738 -2.03261 -2.18467 0
M  V30 1548 C 152.487 -0.736229 -3.39816 0
M  V30 1549 H 151.81 -1.55453 -3.6834 0
M  V30 1550 H 153.25 -0.64769 -4.19024 0
M  V30 1551 C 151.709 0.558824 -3.32233 0
M  V30 1552 O 152.239 1.59621 -3.68624 0
M  V30 1553 N 150.445 0.550657 -2.85335 0
M  V30 1554 H 149.992 -0.293943 -2.55917 0
M  V30 1555 H 149.95 1.41726 -2.80644 0
M  V30 1556 N 153.722 1.14298 -1.08507 0
M  V30 1557 C 154.652 2.21542 -0.737646 0
M  V30 1558 C 155.633 1.67773 0.280377 0
M  V30 1559 O 156.818 1.93616 0.150521 0
M  V30 1560 C 153.948 3.46988 -0.147259 0
M  V30 1561 C 152.902 4.13789 -1.09374 0
M  V30 1562 C 152.228 5.33449 -0.365524 0
M  V30 1563 C 153.528 4.62208 -2.4323 0
M  V30 1564 H 155.222 2.5086 -1.6343 0
M  V30 1565 H 152.768 1.20576 -0.787243 0
M  V30 1566 H 154.721 4.21262 0.107808 0
M  V30 1567 H 153.445 3.17037 0.784538 0
M  V30 1568 H 152.104 3.4147 -1.33393 0
M  V30 1569 H 151.752 4.99759 0.57011 0
M  V30 1570 H 151.452 5.79088 -0.996512 0
M  V30 1571 H 152.976 6.10485 -0.118534 0
M  V30 1572 H 154.39 5.27952 -2.23472 0
M  V30 1573 H 152.787 5.18553 -3.02031 0
M  V30 1574 H 153.857 3.77224 -3.04681 0
M  V30 1575 N 155.201 0.870884 1.31352 0
M  V30 1576 C 156.478 0.402907 1.91405 0
M  V30 1577 C 156.858 -1.11512 1.79244 0
M  V30 1578 O 156.206 -1.94411 1.2007 0
M  V30 1579 C 156.416 0.885301 3.37585 0
M  V30 1580 C 157.764 0.911971 4.14691 0
M  V30 1581 O 158.788 0.831016 3.46371 0
M  V30 1582 O 157.647 1.02927 5.3672 0
M  V30 1583 H 154.741 0.120698 0.818145 0
M  V30 1584 H 157.287 0.958857 1.40014 0
M  V30 1585 H 156.059 1.92889 3.40455 0
M  V30 1586 H 155.682 0.307714 3.96407 0
M  V30 1587 N 156.679 -1.44442 0.630414 0
M  V30 1588 C 157.642 -2.29107 -0.0652523 0
M  V30 1589 C 158.642 -1.41002 -0.772995 0
M  V30 1590 O 159.832 -1.62881 -0.617692 0
M  V30 1591 C 156.964 -3.22564 -1.10296 0
M  V30 1592 H 158.157 -2.92103 0.679401 0
M  V30 1593 H 155.71 -1.51343 0.390517 0
M  V30 1594 H 156.445 -2.64416 -1.87762 0
M  V30 1595 H 156.23 -3.87491 -0.59941 0
M  V30 1596 H 157.72 -3.86167 -1.5895 0
M  V30 1597 N 158.157 -0.370918 -1.53173 0
M  V30 1598 C 159.087 0.464847 -2.28826 0
M  V30 1599 C 160.068 1.07936 -1.31468 0
M  V30 1600 O 161.253 1.0956 -1.60344 0
M  V30 1601 C 158.383 1.60196 -3.08147 0
M  V30 1602 C 157.337 1.11443 -4.13237 0
M  V30 1603 C 156.663 2.3422 -4.80672 0
M  V30 1604 C 157.963 0.195384 -5.21934 0
M  V30 1605 H 159.657 -0.166329 -2.98938 0
M  V30 1606 H 157.203 -0.0814359 -1.4377 0
M  V30 1607 H 159.156 2.19332 -3.59822 0
M  V30 1608 H 157.88 2.26045 -2.35735 0
M  V30 1609 H 156.539 0.545727 -3.62515 0
M  V30 1610 H 156.187 2.98537 -4.04827 0
M  V30 1611 H 155.887 2.02269 -5.51689 0
M  V30 1612 H 157.411 2.94032 -5.35143 0
M  V30 1613 H 158.825 0.694375 -5.69079 0
M  V30 1614 H 157.222 -0.0335027 -6.00091 0
M  V30 1615 H 158.292 -0.760961 -4.78892 0
M  V30 1616 N 159.635 1.57281 -0.100228 0
M  V30 1617 C 160.567 2.11342 0.886972 0
M  V30 1618 C 161.58 1.05182 1.24261 0
M  V30 1619 O 162.769 1.32613 1.19483 0
M  V30 1620 C 159.869 2.5825 2.19454 0
M  V30 1621 C 159.042 3.88302 2.01346 0
M  V30 1622 C 158.101 4.21004 3.15661 0
M  V30 1623 O 157.127 4.9014 2.89398 0
M  V30 1624 N 158.329 3.76818 4.41575 0
M  V30 1625 H 161.094 2.96668 0.425216 0
M  V30 1626 H 158.655 1.61678 0.0847334 0
M  V30 1627 H 160.647 2.7717 2.94888 0
M  V30 1628 H 159.217 1.77907 2.57037 0
M  V30 1629 H 158.437 3.7848 1.10212 0
M  V30 1630 H 159.725 4.73375 1.8653 0
M  V30 1631 H 159.123 3.2102 4.65792 0
M  V30 1632 H 157.68 4.00882 5.13942 0
M  V30 1633 N 161.113 -0.173488 1.56642 0
M  V30 1634 C 162.043 -1.2171 1.99271 0
M  V30 1635 C 163.024 -1.46289 0.867959 0
M  V30 1636 O 164.209 -1.5766 1.13388 0
M  V30 1637 C 161.339 -2.55651 2.35074 0
M  V30 1638 C 160.293 -2.45645 3.50489 0
M  V30 1639 C 159.619 -3.84056 3.72028 0
M  V30 1640 C 160.919 -1.96302 4.84007 0
M  V30 1641 H 162.613 -0.86275 2.867 0
M  V30 1642 H 160.159 -0.413571 1.37933 0
M  V30 1643 H 162.112 -3.2886 2.63494 0
M  V30 1644 H 160.836 -2.92869 1.44552 0
M  V30 1645 H 159.495 -1.7489 3.22194 0
M  V30 1646 H 159.143 -4.18664 2.788 0
M  V30 1647 H 158.843 -3.7823 4.49684 0
M  V30 1648 H 160.367 -4.58854 4.02846 0
M  V30 1649 H 161.781 -2.59284 5.11317 0
M  V30 1650 H 160.178 -2.01429 5.65284 0
M  V30 1651 H 161.248 -0.917226 4.76146 0
M  V30 1652 N 162.591 -1.51276 -0.441967 0
M  V30 1653 C 163.538 -1.72256 -1.53612 0
M  V30 1654 C 164.508 -0.564164 -1.56225 0
M  V30 1655 O 165.693 -0.798074 -1.73307 0
M  V30 1656 C 162.833 -1.84932 -2.91366 0
M  V30 1657 C 161.946 -3.12459 -2.98317 0
M  V30 1658 C 161.081 -3.15758 -4.27166 0
M  V30 1659 C 160.12 -4.37619 -4.27967 0
M  V30 1660 N 159.257 -4.38493 -5.48333 0
M  V30 1661 H 164.097 -2.65654 -1.35026 0
M  V30 1662 H 161.634 -1.31662 -0.656009 0
M  V30 1663 H 163.592 -1.90263 -3.7129 0
M  V30 1664 H 162.222 -0.949461 -3.08521 0
M  V30 1665 H 161.274 -3.1646 -2.11086 0
M  V30 1666 H 162.586 -4.02382 -2.94771 0
M  V30 1667 H 161.74 -3.19979 -5.15459 0
M  V30 1668 H 160.479 -2.23715 -4.33362 0
M  V30 1669 H 159.484 -4.33579 -3.38067 0
M  V30 1670 H 160.709 -5.30921 -4.23438 0
M  V30 1671 H 158.655 -3.49318 -5.55259 0
M  V30 1672 H 158.572 -5.22219 -5.46647 0
M  V30 1673 H 159.84 -4.469 -6.38671 0
M  V30 1674 N 164.069 0.697108 -1.41344 0
M  V30 1675 C 165.001 1.8224 -1.39001 0
M  V30 1676 C 166.014 1.60152 -0.292428 0
M  V30 1677 O 167.203 1.69684 -0.554048 0
M  V30 1678 C 164.303 3.18976 -1.14489 0
M  V30 1679 C 163.476 3.68105 -2.36258 0
M  V30 1680 C 162.535 4.83506 -2.07625 0
M  V30 1681 O 161.561 4.95201 -2.8065 0
M  V30 1682 N 162.763 5.70637 -1.06555 0
M  V30 1683 H 165.528 1.84742 -2.35988 0
M  V30 1684 H 163.089 0.87937 -1.35936 0
M  V30 1685 H 165.081 3.93801 -0.932885 0
M  V30 1686 H 163.651 3.11508 -0.261043 0
M  V30 1687 H 162.871 2.84204 -2.7317 0
M  V30 1688 H 164.159 3.97667 -3.17393 0
M  V30 1689 H 163.557 5.63817 -0.461125 0
M  V30 1690 H 162.114 6.45368 -0.913444 0
M  V30 1691 N 165.547 1.27147 0.931209 0
M  V30 1692 C 166.477 1.12081 2.04842 0
M  V30 1693 C 167.458 0.0232364 1.70084 0
M  V30 1694 O 168.643 0.197085 1.93197 0
M  V30 1695 C 165.773 0.76354 3.38803 0
M  V30 1696 C 164.727 1.81396 3.87659 0
M  V30 1697 C 164.053 1.31075 5.18385 0
M  V30 1698 C 165.353 3.21739 4.11438 0
M  V30 1699 H 167.047 2.05537 2.17703 0
M  V30 1700 H 164.593 0.989603 1.04608 0
M  V30 1701 H 166.546 0.644982 4.16435 0
M  V30 1702 H 165.27 -0.206727 3.25945 0
M  V30 1703 H 163.929 1.92136 3.12217 0
M  V30 1704 H 163.577 0.330037 5.01916 0
M  V30 1705 H 163.277 2.013 5.52044 0
M  V30 1706 H 164.801 1.20506 5.98591 0
M  V30 1707 H 166.215 3.14019 4.79651 0
M  V30 1708 H 164.612 3.89644 4.56397 0
M  V30 1709 H 165.682 3.67054 3.16859 0
M  V30 1710 N 167.025 -1.13721 1.09112 0
M  V30 1711 C 168.441 -1.36914 0.820174 0
M  V30 1712 C 168.641 -1.93356 -0.567079 0
M  V30 1713 O 167.697 -2.15093 -1.32255 0
M  V30 1714 C 169.01 -2.3235 1.90877 0
M  V30 1715 C 170.558 -2.45973 1.93562 0
M  V30 1716 C 171.033 -3.44714 3.01556 0
M  V30 1717 N 172.524 -3.52263 3.00775 0
M  V30 1718 C 173.259 -4.28536 3.80978 0
M  V30 1719 N 172.755 -5.07991 4.71081 0
M  V30 1720 N 174.548 -4.23804 3.69251 0
M  V30 1721 H 166.699 -0.754348 1.98553 0
M  V30 1722 H 168.962 -0.3944 0.862063 0
M  V30 1723 H 168.668 -1.98027 2.90651 0
M  V30 1724 H 168.542 -3.32332 1.78424 0
M  V30 1725 H 170.929 -2.79584 0.944286 0
M  V30 1726 H 171.01 -1.45926 2.10093 0
M  V30 1727 H 170.654 -3.11835 4.00901 0
M  V30 1728 H 170.584 -4.44558 2.82269 0
M  V30 1729 H 173.075 -2.95567 2.35475 0
M  V30 1730 H 173.388 -5.63487 5.28869 0
M  V30 1731 H 171.733 -5.07235 4.75119 0
M  V30 1732 H 174.924 -3.60806 2.98222 0
M  V30 1733 H 175.097 -4.82995 4.31995 0
M  V30 1734 N 168.503 -0.877838 -1.30888 0
M  V30 1735 C 169.919 -0.570844 -1.49042 0
M  V30 1736 C 170.119 0.893159 -1.80624 0
M  V30 1737 O 169.175 1.67485 -1.88958 0
M  V30 1738 C 170.488 -1.47784 -2.61878 0
M  V30 1739 C 172.036 -1.48071 -2.75761 0
M  V30 1740 C 172.511 -2.37347 -3.91702 0
M  V30 1741 N 174.002 -2.35271 -3.99001 0
M  V30 1742 C 174.737 -3.01063 -4.88004 0
M  V30 1743 N 174.233 -3.76055 -5.81854 0
M  V30 1744 N 176.026 -2.90332 -4.81315 0
M  V30 1745 H 168.177 -1.82502 -1.0866 0
M  V30 1746 H 170.44 -0.780797 -0.537644 0
M  V30 1747 H 170.146 -2.51993 -2.45341 0
M  V30 1748 H 170.02 -1.18215 -3.58197 0
M  V30 1749 H 172.407 -0.446166 -2.91708 0
M  V30 1750 H 172.488 -1.81668 -1.80085 0
M  V30 1751 H 172.132 -3.40883 -3.76512 0
M  V30 1752 H 172.062 -2.01071 -4.86701 0
M  V30 1753 H 174.553 -1.80768 -3.3186 0
M  V30 1754 H 174.866 -4.23366 -6.46514 0
M  V30 1755 H 173.211 -3.80163 -5.81808 0
M  V30 1756 H 176.402 -2.31278 -4.06974 0
M  V30 1757 H 176.575 -3.41885 -5.50471 0
M  V30 1758 N 169.982 1.44106 -0.638065 0
M  V30 1759 C 171.259 1.95453 -0.0759321 0
M  V30 1760 C 171.639 1.57984 1.40015 0
M  V30 1761 O 170.987 0.857361 2.11806 0
M  V30 1762 C 171.197 3.47655 -0.306132 0
M  V30 1763 C 172.545 4.24114 -0.203008 0
M  V30 1764 O 173.569 3.55405 -0.237871 0
M  V30 1765 O 172.428 5.46381 -0.113827 0
M  V30 1766 H 169.522 0.826797 0.0183332 0
M  V30 1767 H 172.068 1.54122 -0.710251 0
M  V30 1768 H 170.84 3.68 -1.3301 0
M  V30 1769 H 170.463 3.95949 0.361991 0
M  V30 1770 N 171.46 0.379036 1.52974 0
M  V30 1771 C 172.685 -0.209353 2.06341 0
M  V30 1772 C 173.11 -1.40583 1.24972 0
M  V30 1773 O 172.468 -1.79246 0.272155 0
M  V30 1774 C 172.516 -0.567786 3.56102 0
M  V30 1775 O 171.62 -1.66318 3.77375 0
M  V30 1776 H 170.961 -0.0272919 0.663439 0
M  V30 1777 H 173.491 0.543536 1.97248 0
M  V30 1778 H 173.501 -0.835003 3.99364 0
M  V30 1779 H 172.176 0.307013 4.14765 0
M  V30 1780 H 170.753 -1.39048 3.46006 0
M  V30 1781 N 172.938 -1.57226 0.108567 0
M  V30 1782 C 174.354 -1.5766 -0.248058 0
M  V30 1783 C 174.554 -1.12063 -1.67464 0
M  V30 1784 O 173.61 -0.803236 -2.39383 0
M  V30 1785 C 174.923 -3.0069 -0.0242287 0
M  V30 1786 C 176.471 -3.12868 -0.0909372 0
M  V30 1787 C 176.946 -4.57879 0.105067 0
M  V30 1788 N 178.437 -4.63172 0.0506846 0
M  V30 1789 C 179.172 -5.73126 0.177396 0
M  V30 1790 N 178.668 -6.91866 0.359696 0
M  V30 1791 N 180.461 -5.61977 0.117709 0
M  V30 1792 H 172.612 -1.85169 1.04049 0
M  V30 1793 H 174.875 -0.85529 0.40888 0
M  V30 1794 H 174.581 -3.38299 0.961604 0
M  V30 1795 H 174.455 -3.6945 -0.76068 0
M  V30 1796 H 176.842 -2.75124 -1.06729 0
M  V30 1797 H 176.923 -2.46672 0.677225 0
M  V30 1798 H 176.567 -4.96321 1.07834 0
M  V30 1799 H 176.497 -5.22153 -0.682954 0
M  V30 1800 H 178.988 -3.778 -0.0871266 0
M  V30 1801 H 179.301 -7.71503 0.447529 0
M  V30 1802 H 177.646 -6.93874 0.395536 0
M  V30 1803 H 180.837 -4.68094 -0.0236741 0
M  V30 1804 H 181.01 -6.47627 0.219905 0
M  V30 1805 N 174.416 0.165178 -1.56732 0
M  V30 1806 C 175.662 0.882112 -1.82611 0
M  V30 1807 C 175.995 1.81628 -0.687378 0
M  V30 1808 O 175.27 1.92009 0.310267 0
M  V30 1809 C 175.553 1.67245 -3.18906 0
M  V30 1810 C 175.406 0.760987 -4.43316 0
M  V30 1811 C 176.725 2.63884 -3.52212 0
M  V30 1812 H 173.844 0.319242 -0.664269 0
M  V30 1813 H 176.486 0.148052 -1.89422 0
M  V30 1814 H 174.636 2.29824 -3.1323 0
M  V30 1815 H 176.308 0.147596 -4.61064 0
M  V30 1816 H 174.551 0.0694102 -4.33744 0
M  V30 1817 H 175.222 1.34962 -5.35247 0
M  V30 1818 H 177.698 2.11429 -3.58381 0
M  V30 1819 H 176.574 3.16245 -4.48643 0
M  V30 1820 H 176.835 3.44377 -2.77231 0
M  V30 1821 N 175.894 1.51508 0.433938 0
M  V30 1822 C 176.804 1.75917 1.5521 0
M  V30 1823 C 177.82 0.643545 1.61662 0
M  V30 1824 O 178.996 0.926183 1.7884 0
M  V30 1825 C 176.061 1.88213 2.91164 0
M  V30 1826 C 175.122 3.12074 2.94802 0
M  V30 1827 C 174.355 3.23774 4.24271 0
M  V30 1828 O 174.578 2.4133 5.16833 0
M  V30 1829 O 173.512 4.16774 4.34262 0
M  V30 1830 H 177.338 2.70777 1.37527 0
M  V30 1831 H 174.923 1.36051 0.617293 0
M  V30 1832 H 176.805 1.98267 3.71845 0
M  V30 1833 H 175.48 0.965413 3.08968 0
M  V30 1834 H 174.387 3.07497 2.13065 0
M  V30 1835 H 175.72 4.03446 2.81943 0
M  V30 1836 N 177.372 -0.689602 1.41712 0
M  V30 1837 C 178.602 -1.47613 1.44548 0
M  V30 1838 C 179.01 -1.89132 0.0509034 0
M  V30 1839 O 178.353 -1.57741 -0.94146 0
M  V30 1840 C 178.415 -2.76596 2.2964 0
M  V30 1841 C 178.079 -2.57245 3.77722 0
M  V30 1842 C 179.076 -2.22804 4.69739 0
M  V30 1843 C 176.761 -2.727 4.2183 0
M  V30 1844 C 178.755 -2.04064 6.03851 0
M  V30 1845 C 176.442 -2.53576 5.56006 0
M  V30 1846 C 177.44 -2.1931 6.46832 0
M  V30 1847 O 177.128 -2.00359 7.78532 0
M  V30 1848 H 176.86 -0.461227 0.494212 0
M  V30 1849 H 179.414 -0.856045 1.86711 0
M  V30 1850 H 177.644 -3.41033 1.82301 0
M  V30 1851 H 179.333 -3.38424 2.24107 0
M  V30 1852 H 180.099 -2.10473 4.36951 0
M  V30 1853 H 175.978 -2.98353 3.51435 0
M  V30 1854 H 179.522 -1.77241 6.74708 0
M  V30 1855 H 175.419 -2.65499 5.88371 0
M  V30 1856 H 176.187 -2.15075 7.89737 0
M  V30 1857 N 178.85 -1.27639 -0.924453 0
M  V30 1858 C 180.099 -1.13549 -1.66702 0
M  V30 1859 C 180.412 0.317487 -1.93006 0
M  V30 1860 O 181.618 0.579333 -2.65247 0
M  V30 1861 C 180.074 -1.98426 -3.00259 0
M  V30 1862 C 179.682 -3.484 -2.81641 0
M  V30 1863 C 181.426 -1.92993 -3.78092 0
M  V30 1864 C 179.333 -4.25464 -4.10773 0
M  V30 1865 H 178.263 -0.421351 -0.625283 0
M  V30 1866 H 180.914 -1.52085 -1.02676 0
M  V30 1867 H 179.296 -1.52736 -3.6536 0
M  V30 1868 H 180.47 -4.01973 -2.25287 0
M  V30 1869 H 178.785 -3.55245 -2.17232 0
M  V30 1870 H 181.382 -2.47844 -4.7379 0
M  V30 1871 H 181.725 -0.904281 -4.0636 0
M  V30 1872 H 182.258 -2.36595 -3.19793 0
M  V30 1873 H 178.997 -5.28566 -3.87683 0
M  V30 1874 H 178.517 -3.76667 -4.66779 0
M  V30 1875 H 180.196 -4.34812 -4.79111 0
M  V30 1876 N 180.328 1.1314 -1.09713 0
M  V30 1877 C 181.238 2.22242 -0.751367 0
M  V30 1878 C 182.254 1.72224 0.247938 0
M  V30 1879 O 183.43 2.01205 0.0885463 0
M  V30 1880 C 180.495 3.46231 -0.180274 0
M  V30 1881 C 179.556 4.11125 -1.2359 0
M  V30 1882 C 178.789 5.29195 -0.691966 0
M  V30 1883 O 179.012 5.68342 0.48414 0
M  V30 1884 O 177.946 5.84214 -1.44838 0
M  V30 1885 H 181.772 2.54197 -1.66186 0
M  V30 1886 H 179.357 1.21331 -0.871735 0
M  V30 1887 H 181.239 4.21185 0.134739 0
M  V30 1888 H 179.914 3.1597 0.703185 0
M  V30 1889 H 178.821 3.37985 -1.60366 0
M  V30 1890 H 180.154 4.45524 -2.09211 0
M  V30 1891 N 181.806 0.884767 1.30421 0
M  V30 1892 C 182.738 0.308655 2.27112 0
M  V30 1893 C 183.751 -0.536655 1.53701 0
M  V30 1894 O 184.94 -0.35624 1.74909 0
M  V30 1895 C 182.04 -0.579782 3.33904 0
M  V30 1896 C 181.213 0.236417 4.36761 0
M  V30 1897 C 180.272 -0.582482 5.22966 0
M  V30 1898 O 179.298 -0.00525502 5.692 0
M  V30 1899 N 180.5 -1.89163 5.48815 0
M  V30 1900 H 183.265 1.13964 2.77186 0
M  V30 1901 H 180.826 0.747731 1.43599 0
M  V30 1902 H 182.818 -1.13366 3.88497 0
M  V30 1903 H 181.388 -1.31144 2.83761 0
M  V30 1904 H 180.608 0.97174 3.82035 0
M  V30 1905 H 181.896 0.795924 5.02536 0
M  V30 1906 H 181.294 -2.38352 5.13035 0
M  V30 1907 H 179.851 -2.39296 6.06284 0
M  V30 1908 N 183.284 -1.43765 0.645699 0
M  V30 1909 C 184.561 -1.9541 0.0862963 0
M  V30 1910 C 184.941 -1.58725 -1.39175 0
M  V30 1911 O 184.289 -0.868581 -2.11348 0
M  V30 1912 C 184.499 -3.47488 0.324565 0
M  V30 1913 C 185.847 -4.24001 0.225497 0
M  V30 1914 O 186.871 -3.55274 0.256715 0
M  V30 1915 O 185.73 -5.46313 0.142801 0
M  V30 1916 H 182.824 -0.826882 -0.0139483 0
M  V30 1917 H 185.37 -1.53743 0.718415 0
M  V30 1918 H 184.142 -3.67289 1.3496 0
M  V30 1919 H 183.765 -3.96135 -0.340987 0
M  V30 1920 N 184.763 -0.387143 -1.52771 0
M  V30 1921 C 185.695 0.484089 -2.2403 0
M  V30 1922 C 186.708 1.02849 -1.26198 0
M  V30 1923 O 187.897 0.931186 -1.52286 0
M  V30 1924 C 184.997 1.68337 -2.94136 0
M  V30 1925 C 184.17 1.26672 -4.18656 0
M  V30 1926 C 183.229 2.33045 -4.7178 0
M  V30 1927 O 182.255 1.94541 -5.34923 0
M  V30 1928 N 183.457 3.64929 -4.5145 0
M  V30 1929 H 186.222 -0.126404 -2.99433 0
M  V30 1930 H 183.783 -0.213392 -1.60488 0
M  V30 1931 H 185.775 2.39019 -3.26577 0
M  V30 1932 H 184.345 2.20025 -2.22053 0
M  V30 1933 H 183.565 0.388878 -3.92277 0
M  V30 1934 H 184.853 0.964964 -4.99566 0
M  V30 1935 H 184.251 3.98974 -4.01044 0
M  V30 1936 H 182.808 4.31651 -4.88386 0
M  V30 1937 N 186.241 1.57166 -0.116904 0
M  V30 1938 C 187.49 1.94298 0.541407 0
M  V30 1939 C 187.803 1.00236 1.67964 0
M  V30 1940 O 189.009 1.26826 2.40057 0
M  V30 1941 C 187.465 3.45306 1.01449 0
M  V30 1942 C 187.073 4.47899 -0.0951738 0
M  V30 1943 C 188.817 3.91361 1.6443 0
M  V30 1944 C 186.724 5.90083 0.394491 0
M  V30 1945 H 185.654 0.725308 0.206019 0
M  V30 1946 H 188.305 1.82446 -0.196419 0
M  V30 1947 H 186.687 3.52385 1.80667 0
M  V30 1948 H 187.861 4.52486 -0.871374 0
M  V30 1949 H 186.176 4.11583 -0.631505 0
M  V30 1950 H 188.773 4.95004 2.02176 0
M  V30 1951 H 189.116 3.3122 2.52189 0
M  V30 1952 H 189.649 3.87073 0.917559 0
M  V30 1953 H 186.388 6.53974 -0.447004 0
M  V30 1954 H 185.908 5.88921 1.13722 0
M  V30 1955 H 187.587 6.41307 0.856399 0
M  V30 1956 N 187.719 -0.156864 1.56817 0
M  V30 1957 C 188.649 -1.19589 2.00551 0
M  V30 1958 C 189.63 -1.4536 0.883426 0
M  V30 1959 O 190.815 -1.56449 1.15054 0
M  V30 1960 C 187.945 -2.53143 2.37773 0
M  V30 1961 C 186.899 -2.41913 3.53075 0
M  V30 1962 C 186.225 -3.80088 3.76081 0
M  V30 1963 C 187.525 -1.91157 4.86062 0
M  V30 1964 H 189.219 -0.832293 2.87599 0
M  V30 1965 H 186.765 -0.398918 1.38364 0
M  V30 1966 H 188.718 -3.26047 2.66967 0
M  V30 1967 H 187.442 -2.91319 1.4765 0
M  V30 1968 H 186.101 -1.71462 3.24031 0
M  V30 1969 H 185.749 -4.15683 2.83225 0
M  V30 1970 H 185.449 -3.73439 4.53671 0
M  V30 1971 H 186.973 -4.54556 4.0769 0
M  V30 1972 H 188.387 -2.53846 5.14038 0
M  V30 1973 H 186.784 -1.95422 5.67389 0
M  V30 1974 H 187.854 -0.866673 4.77092 0
M  V30 1975 N 189.197 -1.51736 -0.425897 0
M  V30 1976 C 190.422 -1.69082 -1.20108 0
M  V30 1977 C 190.847 -0.392398 -1.83962 0
M  V30 1978 O 190.205 0.64858 -1.69302 0
M  V30 1979 C 190.253 -2.81604 -2.25237 0
M  V30 1980 O 189.357 -2.46004 -3.30992 0
M  V30 1981 H 188.698 -0.563408 -0.35138 0
M  V30 1982 H 191.228 -1.98358 -0.501512 0
M  V30 1983 H 191.238 -3.06025 -2.69838 0
M  V30 1984 H 189.913 -3.75817 -1.78142 0
M  V30 1985 H 188.49 -2.32195 -2.91787 0
M  V30 1986 N 190.675 0.682077 -1.42076 0
M  V30 1987 C 191.924 1.43786 -1.41451 0
M  V30 1988 C 192.237 1.95574 -0.0317074 0
M  V30 1989 O 193.443 2.71326 0.0971462 0
M  V30 1990 C 191.899 2.60071 -2.48779 0
M  V30 1991 C 191.507 2.15013 -3.93031 0
M  V30 1992 C 193.251 3.37626 -2.57311 0
M  V30 1993 C 191.158 3.28336 -4.91883 0
M  V30 1994 H 190.088 0.540143 -0.526082 0
M  V30 1995 H 192.739 0.739157 -1.67955 0
M  V30 1996 H 191.121 3.32275 -2.15429 0
M  V30 1997 H 192.295 1.5001 -4.35699 0
M  V30 1998 H 190.61 1.50416 -3.88284 0
M  V30 1999 H 193.207 4.22012 -3.28345 0
M  V30 2000 H 193.55 3.83727 -1.61429 0
M  V30 2001 H 194.083 2.72488 -2.89819 0
M  V30 2002 H 190.822 2.87234 -5.89217 0
M  V30 2003 H 190.342 3.92145 -4.53853 0
M  V30 2004 H 192.021 3.93913 -5.13265 0
M  V30 2005 N 192.153 1.28127 0.917671 0
M  V30 2006 C 193.43 1.05761 1.64542 0
M  V30 2007 C 193.81 -0.404344 2.07191 0
M  V30 2008 O 193.158 -1.38963 1.81388 0
M  V30 2009 C 193.368 2.02857 2.83989 0
M  V30 2010 C 194.716 2.32786 3.551 0
M  V30 2011 O 195.74 2.0091 2.94132 0
M  V30 2012 O 194.599 2.87169 4.64969 0
M  V30 2013 H 191.693 0.403916 0.721652 0
M  V30 2014 H 194.239 1.39431 0.967322 0
M  V30 2015 H 193.011 3.01407 2.49538 0
M  V30 2016 H 192.634 1.69809 3.59514 0
M  V30 2017 N 193.631 -1.12557 1.10312 0
M  V30 2018 C 195.042 -1.65574 0.862678 0
M  V30 2019 C 195.393 -1.86566 -0.607256 0
M  V30 2020 O 194.518 -1.59121 -1.46662 0
M  V30 2021 C 195.113 -3.00776 1.55947 0
M  V30 2022 C 193.672 -3.50748 1.36576 0
M  V30 2023 C 192.819 -2.25797 1.60968 0
M  V30 2024 H 195.77 -0.963552 1.26101 0
M  V30 2025 H 195.791 -3.67185 0.997753 0
M  V30 2026 H 195.303 -2.85465 2.62928 0
M  V30 2027 H 193.404 -3.71245 0.317531 0
M  V30 2028 H 193.517 -4.30289 2.10686 0
M  V30 2029 H 191.881 -2.32841 1.03234 0
M  V30 2030 H 192.664 -2.13043 2.69198 0
M  V30 2031 N 195.109 -0.891671 -1.2995 0
M  V30 2032 C 196.355 -0.514261 -1.96171 0
M  V30 2033 C 196.688 0.935506 -1.70182 0
M  V30 2034 O 195.963 1.66204 -1.01028 0
M  V30 2035 C 196.246 -0.797719 -3.51153 0
M  V30 2036 C 196.099 -2.2986 -3.86632 0
M  V30 2037 C 197.418 -0.278749 -4.39216 0
M  V30 2038 H 194.537 -0.188314 -0.712535 0
M  V30 2039 H 197.179 -1.11689 -1.53706 0
M  V30 2040 H 195.329 -0.284826 -3.87455 0
M  V30 2041 H 197.001 -2.88042 -3.60319 0
M  V30 2042 H 195.244 -2.76257 -3.34462 0
M  V30 2043 H 195.915 -2.44753 -4.94773 0
M  V30 2044 H 198.391 -0.717825 -4.09862 0
M  V30 2045 H 197.267 -0.506353 -5.46559 0
M  V30 2046 H 197.528 0.820266 -4.34424 0
M  V30 2047 N 196.587 1.43421 -0.653314 0
M  V30 2048 C 197.833 2.02111 -0.166992 0
M  V30 2049 C 198.166 1.51423 1.21592 0
M  V30 2050 O 197.441 0.707389 1.8118 0
M  V30 2051 C 197.724 3.5966 -0.177948 0
M  V30 2052 C 197.577 4.20579 -1.59478 0
M  V30 2053 C 198.896 4.37413 0.4856 0
M  V30 2054 H 196.015 0.734374 -0.0621557 0
M  V30 2055 H 198.657 1.70717 -0.834016 0
M  V30 2056 H 196.807 3.86537 0.390032 0
M  V30 2057 H 198.479 4.04732 -2.21336 0
M  V30 2058 H 196.722 3.77226 -2.14204 0
M  V30 2059 H 197.393 5.29665 -1.5543 0
M  V30 2060 H 199.869 4.161 0.00234528 0
M  V30 2061 H 198.745 5.47075 0.447207 0
M  V30 2062 H 199.006 4.13672 1.55974 0
M  V30 2063 N 198.065 0.39524 1.52563 0
M  V30 2064 C 199.29 -0.187456 2.06551 0
M  V30 2065 C 199.715 -1.39249 1.26457 0
M  V30 2066 O 199.073 -1.78947 0.291151 0
M  V30 2067 C 199.121 -0.529985 3.56684 0
M  V30 2068 O 198.225 -1.62307 3.79118 0
M  V30 2069 H 197.566 -0.0202537 0.663691 0
M  V30 2070 H 200.096 0.564426 1.96661 0
M  V30 2071 H 200.106 -0.792598 4.00227 0
M  V30 2072 H 198.781 0.350987 4.14416 0
M  V30 2073 H 197.358 -1.3537 3.47461 0
M  V30 2074 N 199.544 -1.57102 0.125237 0
M  V30 2075 C 200.492 -2.16905 -0.839927 0
M  V30 2076 C 201.486 -1.11998 -1.27094 0
M  V30 2077 O 202.692 -1.3029 -1.24195 0
M  V30 2078 H 199.067 -0.694252 -0.288995 0
M  V30 2079 H 201.038 -2.96774 -0.311115 0
M  V30 2080 C 199.787 -2.78795 -2.07771 0
M  V30 2081 H 199.11 -3.59221 -1.755 0
M  V30 2082 H 200.55 -3.2417 -2.73295 0
M  V30 2083 C 199.009 -1.76193 -2.87155 0
M  V30 2084 O 199.539 -1.21909 -3.82755 0
M  V30 2085 N 197.745 -1.45991 -2.51267 0
M  V30 2086 H 197.292 -1.90325 -1.73592 0
M  V30 2087 H 197.25 -0.775844 -3.04677 0
M  V30 2088 N 201.022 0.148545 -1.56898 0
M  V30 2089 C 201.932 1.20293 -2.01412 0
M  V30 2090 C 202.948 1.47107 -0.929273 0
M  V30 2091 O 204.124 1.58807 -1.23863 0
M  V30 2092 C 201.189 2.51682 -2.38447 0
M  V30 2093 C 200.25 2.32529 -3.60872 0
M  V30 2094 C 199.483 3.57653 -3.96132 0
M  V30 2095 O 199.706 4.63771 -3.32073 0
M  V30 2096 O 198.64 3.50408 -4.89385 0
M  V30 2097 H 202.466 0.855025 -2.91416 0
M  V30 2098 H 200.051 0.357151 -1.45068 0
M  V30 2099 H 201.933 3.29147 -2.63135 0
M  V30 2100 H 200.608 2.86006 -1.51599 0
M  V30 2101 H 199.515 1.53019 -3.41373 0
M  V30 2102 H 200.848 2.03121 -4.48333 0
M  V30 2103 N 202.5 1.5196 0.417844 0
M  V30 2104 C 203.463 1.74065 1.49111 0
M  V30 2105 C 204.463 0.610537 1.48758 0
M  V30 2106 O 205.653 0.87832 1.50437 0
M  V30 2107 C 202.785 1.81502 2.88565 0
M  V30 2108 H 203.978 2.69869 1.30807 0
M  V30 2109 H 201.531 1.42244 0.647785 0
M  V30 2110 H 202.266 0.875813 3.1225 0
M  V30 2111 H 202.051 2.63651 2.90225 0
M  V30 2112 H 203.541 2.00376 3.66387 0
M  V30 2113 N 203.978 -0.674533 1.42435 0
M  V30 2114 C 205.224 -1.43671 1.43131 0
M  V30 2115 C 205.557 -1.94142 0.0476021 0
M  V30 2116 O 204.832 -1.70924 -0.928188 0
M  V30 2117 C 205.115 -2.63355 2.45594 0
M  V30 2118 C 204.968 -2.18514 3.93156 0
M  V30 2119 C 206.287 -3.65571 2.45043 0
M  V30 2120 H 203.406 -0.521077 0.521198 0
M  V30 2121 H 206.048 -0.766551 1.7385 0
M  V30 2122 H 204.198 -3.2053 2.19528 0
M  V30 2123 H 205.87 -1.66504 4.30202 0
M  V30 2124 H 204.113 -1.50086 4.07009 0
M  V30 2125 H 204.784 -3.04484 4.60428 0
M  V30 2126 H 207.26 -3.18113 2.68223 0
M  V30 2127 H 206.136 -4.46893 3.18713 0
M  V30 2128 H 206.397 -4.16716 1.47649 0
M  V30 2129 N 205.456 -1.28612 -0.910864 0
M  V30 2130 C 206.388 -1.08589 -2.01844 0
M  V30 2131 C 207.401 -0.0367419 -1.62759 0
M  V30 2132 O 208.59 -0.280101 -1.76289 0
M  V30 2133 C 205.69 -0.628626 -3.33019 0
M  V30 2134 C 204.863 -1.75382 -4.00699 0
M  V30 2135 C 203.922 -1.28945 -5.10156 0
M  V30 2136 O 202.948 -1.9922 -5.33198 0
M  V30 2137 N 204.15 -0.154224 -5.80295 0
M  V30 2138 H 206.915 -2.03973 -2.19579 0
M  V30 2139 H 204.476 -1.20403 -1.08234 0
M  V30 2140 H 206.468 -0.301508 -4.03575 0
M  V30 2141 H 205.038 0.232451 -3.11735 0
M  V30 2142 H 204.258 -2.25039 -3.23653 0
M  V30 2143 H 205.546 -2.50854 -4.42662 0
M  V30 2144 H 204.944 0.43194 -5.64049 0
M  V30 2145 H 203.501 0.113599 -6.51701 0
M  V30 2146 N 206.934 1.1197 -1.10907 0
M  V30 2147 C 208.159 1.87942 -0.877064 0
M  V30 2148 C 208.584 1.79341 0.567314 0
M  V30 2149 O 207.942 1.15184 1.40009 0
M  V30 2150 C 207.99 3.34926 -1.33629 0
M  V30 2151 O 207.094 4.09303 -0.504447 0
M  V30 2152 H 206.435 0.583785 -0.316371 0
M  V30 2153 H 208.965 1.4157 -1.47712 0
M  V30 2154 H 208.975 3.8577 -1.32837 0
M  V30 2155 H 207.65 3.40504 -2.3881 0
M  V30 2156 H 206.227 3.68393 -0.577993 0
M  V30 2157 N 208.412 0.89855 1.29475 0
M  V30 2158 C 209.36 0.365253 2.29714 0
M  V30 2159 C 210.354 -0.534993 1.6073 0
M  V30 2160 O 211.56 -0.417921 1.75081 0
M  V30 2161 H 207.935 0.0994853 0.74539 0
M  V30 2162 H 209.906 1.22406 2.72138 0
M  V30 2163 C 208.655 -0.393159 3.4547 0
M  V30 2164 H 207.978 0.290332 3.98744 0
M  V30 2165 H 209.418 -0.731189 4.17648 0
M  V30 2166 C 207.877 -1.59539 2.9673 0
M  V30 2167 O 208.407 -2.69469 2.97908 0
M  V30 2168 N 206.613 -1.43716 2.52575 0
M  V30 2169 H 206.16 -0.542828 2.51816 0
M  V30 2170 H 206.118 -2.24288 2.20323 0
M  V30 2171 N 209.89 -1.43072 0.660911 0
M  V30 2172 C 210.853 -2.29194 -0.0166406 0
M  V30 2173 C 211.853 -1.42609 -0.742912 0
M  V30 2174 O 213.043 -1.64155 -0.583004 0
M  V30 2175 C 210.175 -3.24831 -1.0343 0
M  V30 2176 H 211.368 -2.90596 0.741208 0
M  V30 2177 H 208.921 -1.5048 0.422532 0
M  V30 2178 H 209.656 -2.68339 -1.82111 0
M  V30 2179 H 209.441 -3.88676 -0.517082 0
M  V30 2180 H 210.931 -3.89451 -1.50723 0
M  V30 2181 N 211.368 -0.403325 -1.52352 0
M  V30 2182 C 212.617 0.175668 -2.00934 0
M  V30 2183 C 212.93 1.46718 -1.29356 0
M  V30 2184 O 214.136 2.12708 -1.68724 0
M  V30 2185 C 212.592 0.363612 -3.58058 0
M  V30 2186 C 212.2 -0.915472 -4.38547 0
M  V30 2187 C 213.944 0.89821 -4.14888 0
M  V30 2188 C 211.851 -0.695035 -5.87302 0
M  V30 2189 H 210.781 0.0694234 -0.750797 0
M  V30 2190 H 213.432 -0.527879 -1.75743 0
M  V30 2191 H 211.814 1.12935 -3.79555 0
M  V30 2192 H 212.988 -1.68691 -4.28812 0
M  V30 2193 H 211.303 -1.37606 -3.93006 0
M  V30 2194 H 213.9 1.07907 -5.23699 0
M  V30 2195 H 214.243 1.87126 -3.71873 0
M  V30 2196 H 214.776 0.191681 -3.97338 0
M  V30 2197 H 211.515 -1.63948 -6.34666 0
M  V30 2198 H 211.035 0.0372116 -5.99788 0
M  V30 2199 H 212.714 -0.33497 -6.46132 0
M  V30 2200 N 212.846 1.57033 -0.133567 0
M  V30 2201 C 214.092 1.96764 0.515326 0
M  V30 2202 C 214.447 1.01653 1.63353 0
M  V30 2203 O 213.74 0.0491374 1.91537 0
M  V30 2204 C 213.934 3.40674 1.08057 0
M  V30 2205 C 213.763 4.49696 0.0186522 0
M  V30 2206 C 212.533 5.03567 -0.418174 0
M  V30 2207 C 214.731 5.08536 -0.767809 0
M  V30 2208 N 212.713 5.9618 -1.46434 0
M  V30 2209 C 214.084 5.97231 -1.6648 0
M  V30 2210 C 216.139 4.9115 -0.817087 0
M  V30 2211 C 214.842 6.70401 -2.60681 0
M  V30 2212 C 216.868 5.65012 -1.74687 0
M  V30 2213 C 216.23 6.53403 -2.63141 0
M  V30 2214 H 212.329 0.765919 0.157771 0
M  V30 2215 H 214.913 1.93395 -0.22506 0
M  V30 2216 H 213.084 3.44662 1.79061 0
M  V30 2217 H 214.816 3.67495 1.69497 0
M  V30 2218 H 211.571 4.73594 -0.0229803 0
M  V30 2219 H 211.995 6.47191 -1.98678 0
M  V30 2220 H 216.637 4.22543 -0.147326 0
M  V30 2221 H 214.355 7.38245 -3.28664 0
M  V30 2222 H 217.941 5.53559 -1.79063 0
M  V30 2223 H 216.821 7.09556 -3.33917 0
M  V30 2224 N 214.325 -0.140222 1.56975 0
M  V30 2225 C 215.573 -0.850005 1.83356 0
M  V30 2226 C 215.894 -1.81399 0.71551 0
M  V30 2227 O 215.164 -1.94136 -0.262294 0
M  V30 2228 H 213.744 -0.316886 0.676456 0
M  V30 2229 H 216.406 -0.132608 1.94448 0
M  V30 2230 H 215.502 -1.40814 2.78528 0
M  V30 2231 N 215.803 -1.52179 -0.40978 0
M  V30 2232 C 216.733 -1.78435 -1.5061 0
M  V30 2233 C 217.714 -0.635295 -1.57791 0
M  V30 2234 O 218.899 -0.880823 -1.73076 0
M  V30 2235 C 216.029 -1.93444 -2.88439 0
M  V30 2236 C 214.983 -3.09038 -2.96108 0
M  V30 2237 C 214.309 -3.09268 -4.36185 0
M  V30 2238 C 215.609 -4.48508 -2.67652 0
M  V30 2239 H 217.303 -2.70237 -1.28889 0
M  V30 2240 H 214.849 -1.30036 -0.618605 0
M  V30 2241 H 216.802 -2.10394 -3.65119 0
M  V30 2242 H 215.526 -0.983129 -3.11452 0
M  V30 2243 H 214.185 -2.91837 -2.21872 0
M  V30 2244 H 213.833 -2.11861 -4.56206 0
M  V30 2245 H 213.533 -3.86907 -4.42241 0
M  V30 2246 H 215.057 -3.28348 -5.14801 0
M  V30 2247 H 216.471 -4.65918 -3.34056 0
M  V30 2248 H 214.868 -5.28059 -2.85085 0
M  V30 2249 H 215.938 -4.56649 -1.63095 0
M  V30 2250 N 217.281 0.66697 -1.42791 0
M  V30 2251 C 218.558 1.4234 -1.34159 0
M  V30 2252 C 218.938 2.11093 0.0172729 0
M  V30 2253 O 218.286 2.03808 1.03318 0
M  V30 2254 C 218.496 2.41942 -2.51526 0
M  V30 2255 C 219.844 3.06353 -2.93995 0
M  V30 2256 O 220.868 2.52269 -2.51473 0
M  V30 2257 O 219.727 4.04376 -3.67617 0
M  V30 2258 H 216.821 0.635277 -0.529483 0
M  V30 2259 H 219.367 0.695034 -1.54814 0
M  V30 2260 H 218.139 1.89991 -3.42081 0
M  V30 2261 H 217.762 3.22249 -2.32898 0
M  V30 2262 N 218.759 1.29093 0.90403 0
M  V30 2263 C 220.175 1.07011 1.1841 0
M  V30 2264 C 220.375 -0.181358 2.00682 0
M  V30 2265 O 219.431 -0.880331 2.36657 0
M  V30 2266 C 220.744 2.32311 1.90924 0
M  V30 2267 C 222.292 2.37587 2.03768 0
M  V30 2268 C 222.767 3.62679 2.79693 0
M  V30 2269 N 224.258 3.63376 2.87249 0
M  V30 2270 C 224.993 4.56848 3.46522 0
M  V30 2271 N 224.489 5.60648 4.06996 0
M  V30 2272 N 226.282 4.44426 3.44154 0
M  V30 2273 H 218.433 2.09412 0.354993 0
M  V30 2274 H 220.696 0.922181 0.219742 0
M  V30 2275 H 220.402 3.23536 1.37905 0
M  V30 2276 H 220.276 2.39483 2.91424 0
M  V30 2277 H 222.663 1.46853 2.55965 0
M  V30 2278 H 222.744 2.34403 1.02415 0
M  V30 2279 H 222.388 4.53762 2.28173 0
M  V30 2280 H 222.318 3.63119 3.81381 0
M  V30 2281 H 224.809 2.88321 2.44293 0
M  V30 2282 H 225.122 6.28101 4.50232 0
M  V30 2283 H 223.467 5.64463 4.05471 0
M  V30 2284 H 226.658 3.62529 2.96126 0
M  V30 2285 H 226.831 5.17457 3.90054 0
M  V30 2286 N 220.237 -1.11381 1.11499 0
M  V30 2287 C 221.486 -1.82494 0.858993 0
M  V30 2288 C 221.799 -1.85605 -0.617278 0
M  V30 2289 O 223.005 -2.52824 -0.989552 0
M  V30 2290 C 221.461 -3.27745 1.48699 0
M  V30 2291 C 221.069 -3.32961 2.99735 0
M  V30 2292 C 222.813 -4.03754 1.31085 0
M  V30 2293 C 220.72 -4.72612 3.55516 0
M  V30 2294 H 219.65 -0.683802 0.317696 0
M  V30 2295 H 222.301 -1.25331 1.34031 0
M  V30 2296 H 220.683 -3.84844 0.933339 0
M  V30 2297 H 221.857 -2.85741 3.61509 0
M  V30 2298 H 220.172 -2.70433 3.16631 0
M  V30 2299 H 222.769 -5.06891 1.70192 0
M  V30 2300 H 223.112 -4.15527 0.253496 0
M  V30 2301 H 223.645 -3.53043 1.83318 0
M  V30 2302 H 220.384 -4.66036 4.60967 0
M  V30 2303 H 219.904 -5.2024 2.98513 0
M  V30 2304 H 221.583 -5.4157 3.53992 0
M  V30 2305 N 221.715 -0.905404 -1.28997 0
M  V30 2306 C 222.992 -0.453513 -1.9027 0
M  V30 2307 C 223.372 1.06721 -1.82137 0
M  V30 2308 O 222.72 1.91159 -1.25182 0
M  V30 2309 C 222.93 -0.974494 -3.35119 0
M  V30 2310 C 224.278 -1.0216 -4.12127 0
M  V30 2311 O 225.302 -0.922557 -3.44046 0
M  V30 2312 O 224.161 -1.17121 -5.33802 0
M  V30 2313 H 221.255 -0.142347 -0.814657 0
M  V30 2314 H 223.801 -0.995642 -1.37423 0
M  V30 2315 H 222.573 -2.01848 -3.35221 0
M  V30 2316 H 222.196 -0.412706 -3.95452 0
M  V30 2317 N 223.193 1.4272 -0.668489 0
M  V30 2318 C 224.125 2.2914 0.052613 0
M  V30 2319 C 225.138 1.43339 0.771857 0
M  V30 2320 O 226.327 1.67123 0.627067 0
M  V30 2321 C 223.427 3.20618 1.09804 0
M  V30 2322 C 222.6 4.35039 0.45389 0
M  V30 2323 C 221.659 5.07282 1.39825 0
M  V30 2324 O 220.685 5.62024 0.900978 0
M  V30 2325 N 221.887 5.12206 2.73176 0
M  V30 2326 H 224.652 2.91668 -0.689209 0
M  V30 2327 H 222.213 1.53577 -0.512422 0
M  V30 2328 H 224.205 3.65815 1.73094 0
M  V30 2329 H 222.775 2.59585 1.74167 0
M  V30 2330 H 221.995 3.92567 -0.358396 0
M  V30 2331 H 223.283 5.088 0.00486972 0
M  V30 2332 H 222.681 4.6913 3.16122 0
M  V30 2333 H 221.238 5.61069 3.31729 0
M  V30 2334 N 224.671 0.411399 1.52136 0
M  V30 2335 C 226.087 0.0623865 1.59478 0
M  V30 2336 C 226.287 -1.42554 1.4241 0
M  V30 2337 O 225.343 -2.19263 1.2522 0
M  V30 2338 C 226.656 0.559331 2.95452 0
M  V30 2339 C 228.204 0.517503 3.08692 0
M  V30 2340 C 228.679 0.990994 4.4715 0
M  V30 2341 N 230.17 0.947908 4.53397 0
M  V30 2342 C 230.905 1.28544 5.58806 0
M  V30 2343 N 230.401 1.69454 6.71757 0
M  V30 2344 N 232.194 1.20526 5.49026 0
M  V30 2345 H 224.345 1.37982 1.61477 0
M  V30 2346 H 226.608 0.566977 0.759764 0
M  V30 2347 H 226.314 1.59938 3.1323 0
M  V30 2348 H 226.188 -0.0298014 3.77188 0
M  V30 2349 H 228.575 -0.513505 2.90598 0
M  V30 2350 H 228.656 1.14272 2.28857 0
M  V30 2351 H 228.3 2.02034 4.65988 0
M  V30 2352 H 228.23 0.34257 5.25485 0
M  V30 2353 H 230.721 0.647157 3.72317 0
M  V30 2354 H 231.034 1.93513 7.48179 0
M  V30 2355 H 229.379 1.73359 6.73032 0
M  V30 2356 H 232.57 0.884505 4.59667 0
M  V30 2357 H 232.743 1.47161 6.31069 0
M  V30 2358 N 226.149 -1.5696 0.141893 0
M  V30 2359 C 227.097 -2.17784 -0.816874 0
M  V30 2360 C 228.091 -1.1334 -1.25899 0
M  V30 2361 O 229.297 -1.316 -1.22806 0
M  V30 2362 H 225.672 -0.697278 -0.281615 0
M  V30 2363 H 227.643 -2.97087 -0.279621 0
M  V30 2364 C 226.392 -2.80983 -2.04802 0
M  V30 2365 H 225.715 -3.61062 -1.7168 0
M  V30 2366 H 227.155 -3.2705 -2.69841 0
M  V30 2367 C 225.614 -1.79228 -2.8527 0
M  V30 2368 O 226.144 -1.25962 -3.8144 0
M  V30 2369 N 224.35 -1.48647 -2.49704 0
M  V30 2370 H 223.897 -1.92155 -1.71564 0
M  V30 2371 H 223.855 -0.808115 -3.03837 0
M  V30 2372 N 227.627 0.131896 -1.57047 0
M  V30 2373 C 228.557 1.16384 -2.02428 0
M  V30 2374 C 229.538 1.43936 -0.90644 0
M  V30 2375 O 230.723 1.54599 -1.17528 0
M  V30 2376 C 227.853 2.49328 -2.4177 0
M  V30 2377 C 226.807 2.36266 -3.56879 0
M  V30 2378 C 226.133 3.74057 -3.8208 0
M  V30 2379 C 227.433 1.834 -4.89042 0
M  V30 2380 H 229.127 0.786433 -2.88887 0
M  V30 2381 H 226.673 0.376855 -1.38981 0
M  V30 2382 H 228.626 3.21759 -2.7212 0
M  V30 2383 H 227.35 2.88934 -1.52266 0
M  V30 2384 H 226.009 1.66286 -3.26718 0
M  V30 2385 H 225.657 4.11125 -2.89803 0
M  V30 2386 H 225.357 3.66174 -4.59554 0
M  V30 2387 H 226.881 4.48012 -4.1487 0
M  V30 2388 H 228.295 2.45636 -5.18011 0
M  V30 2389 H 226.692 1.8637 -5.70426 0
M  V30 2390 H 227.762 0.790662 -4.7841 0
M  V30 2391 N 229.106 1.52395 0.401703 0
M  V30 2392 C 230.517 1.58899 0.980202 0
M  V30 2393 C 230.868 0.434032 1.91339 0
M  V30 2394 O 229.993 -0.444619 2.11783 0
M  V30 2395 C 230.588 2.87994 1.78451 0
M  V30 2396 C 229.147 2.96953 2.31292 0
M  V30 2397 C 228.294 2.53903 1.11483 0
M  V30 2398 H 231.245 1.57657 0.18168 0
M  V30 2399 H 231.266 2.73765 2.64259 0
M  V30 2400 H 230.778 3.72035 1.10506 0
M  V30 2401 H 228.879 2.17422 3.02586 0
M  V30 2402 H 228.992 4.01344 2.61649 0
M  V30 2403 H 227.356 2.07925 1.47104 0
M  V30 2404 H 228.139 3.40326 0.450928 0
M  V30 2405 N 230.584 -0.659388 1.43143 0
M  V30 2406 C 231.514 -1.78422 1.50625 0
M  V30 2407 C 232.495 -1.66216 0.361443 0
M  V30 2408 O 233.68 -1.85404 0.577834 0
M  V30 2409 C 230.81 -3.16815 1.42287 0
M  V30 2410 C 229.764 -3.43777 2.54954 0
M  V30 2411 C 229.09 -4.81905 2.31671 0
M  V30 2412 C 230.39 -3.39134 3.97222 0
M  V30 2413 H 232.084 -1.72417 2.44771 0
M  V30 2414 H 229.63 -0.828084 1.17808 0
M  V30 2415 H 231.583 -3.95253 1.46127 0
M  V30 2416 H 230.307 -3.23534 0.446435 0
M  V30 2417 H 228.966 -2.67707 2.50457 0
M  V30 2418 H 228.614 -4.85294 1.32284 0
M  V30 2419 H 228.314 -5.00906 3.07192 0
M  V30 2420 H 229.838 -5.62609 2.37284 0
M  V30 2421 H 231.252 -4.07518 4.03239 0
M  V30 2422 H 229.649 -3.69671 4.72719 0
M  V30 2423 H 230.719 -2.37426 4.22797 0
M  V30 2424 N 232.062 -1.29571 -0.897171 0
M  V30 2425 C 233.339 -1.08365 -1.62839 0
M  V30 2426 C 233.719 0.371331 -2.07808 0
M  V30 2427 O 233.067 1.3606 -1.83576 0
M  V30 2428 C 233.277 -2.0735 -2.80726 0
M  V30 2429 C 234.625 -2.38406 -3.51351 0
M  V30 2430 O 235.649 -2.05564 -2.90898 0
M  V30 2431 O 234.508 -2.9453 -4.60341 0
M  V30 2432 H 231.602 -0.415345 -0.715134 0
M  V30 2433 H 234.148 -1.40952 -0.945018 0
M  V30 2434 H 232.92 -3.05339 -2.44711 0
M  V30 2435 H 232.543 -1.75507 -3.56767 0
M  V30 2436 N 233.54 1.10788 -1.12088 0
M  V30 2437 C 234.956 1.34691 -0.856186 0
M  V30 2438 C 235.156 1.94791 0.515615 0
M  V30 2439 O 234.212 2.18524 1.26505 0
M  V30 2440 C 235.525 2.27208 -1.9697 0
M  V30 2441 C 237.073 2.40755 -2.00016 0
M  V30 2442 C 237.548 3.36598 -3.1059 0
M  V30 2443 N 239.039 3.44164 -3.10008 0
M  V30 2444 C 239.774 4.18284 -3.92206 0
M  V30 2445 N 239.27 4.95322 -4.84384 0
M  V30 2446 N 241.063 4.13865 -3.80357 0
M  V30 2447 H 233.214 0.70144 -2.00483 0
M  V30 2448 H 235.477 0.371405 -0.872217 0
M  V30 2449 H 235.183 1.90251 -2.958 0
M  V30 2450 H 235.057 3.27485 -1.87172 0
M  V30 2451 H 237.444 2.76982 -1.01808 0
M  V30 2452 H 237.525 1.40305 -2.13888 0
M  V30 2453 H 237.169 3.01096 -4.09028 0
M  V30 2454 H 237.099 4.36918 -2.93956 0
M  V30 2455 H 239.59 2.8922 -2.43228 0
M  V30 2456 H 239.903 5.49267 -5.43623 0
M  V30 2457 H 238.248 4.94459 -4.884 0
M  V30 2458 H 241.439 3.52773 -3.07683 0
M  V30 2459 H 241.612 4.71372 -4.44649 0
M  V30 2460 N 235.018 0.912232 1.28515 0
M  V30 2461 C 235.966 0.389597 2.29314 0
M  V30 2462 C 236.96 -0.517915 1.61289 0
M  V30 2463 O 238.166 -0.399328 1.75515 0
M  V30 2464 H 234.541 0.107386 0.744293 0
M  V30 2465 H 236.512 1.25286 2.70825 0
M  V30 2466 C 235.261 -0.356496 3.45868 0
M  V30 2467 H 234.584 0.332608 3.98414 0
M  V30 2468 H 236.024 -0.686851 4.184 0
M  V30 2469 C 234.483 -1.56383 2.98406 0
M  V30 2470 O 235.013 -2.66294 3.00749 0
M  V30 2471 N 233.219 -1.41029 2.54085 0
M  V30 2472 H 232.766 -0.516089 2.52377 0
M  V30 2473 H 232.724 -2.21939 2.22689 0
M  V30 2474 N 236.496 -1.42363 0.676048 0
M  V30 2475 C 237.726 -2.05561 0.206967 0
M  V30 2476 C 238.134 -1.50887 -1.14148 0
M  V30 2477 O 237.477 -0.643933 -1.72044 0
M  V30 2478 C 237.539 -3.5944 0.0659508 0
M  V30 2479 C 237.203 -4.36812 1.34331 0
M  V30 2480 C 238.2 -4.67383 2.27704 0
M  V30 2481 C 235.885 -4.76429 1.59125 0
M  V30 2482 C 237.879 -5.36509 3.44147 0
M  V30 2483 C 235.566 -5.45294 2.75857 0
M  V30 2484 C 236.564 -5.75259 3.68193 0
M  V30 2485 O 236.252 -6.42712 4.82883 0
M  V30 2486 H 235.984 -0.668872 0.0979084 0
M  V30 2487 H 238.538 -1.83467 0.923531 0
M  V30 2488 H 236.768 -3.80197 -0.706204 0
M  V30 2489 H 238.457 -4.0427 -0.363418 0
M  V30 2490 H 239.223 -4.37275 2.09799 0
M  V30 2491 H 235.102 -4.52498 0.881258 0
M  V30 2492 H 238.646 -5.59814 4.16238 0
M  V30 2493 H 234.543 -5.7482 2.93688 0
M  V30 2494 H 235.311 -6.61204 4.82444 0
M  V30 2495 N 237.974 -0.419461 -1.51915 0
M  V30 2496 C 238.922 0.415502 -2.28859 0
M  V30 2497 C 239.916 1.03674 -1.3397 0
M  V30 2498 O 241.122 0.973757 -1.51387 0
M  V30 2499 H 237.497 0.152786 -0.736315 0
M  V30 2500 H 239.468 -0.254531 -2.97312 0
M  V30 2501 C 238.217 1.51425 -3.12995 0
M  V30 2502 H 237.54 1.04556 -3.85886 0
M  V30 2503 H 238.98 2.07208 -3.6992 0
M  V30 2504 C 237.439 2.48745 -2.27217 0
M  V30 2505 O 237.969 3.52871 -1.9195 0
M  V30 2506 N 236.175 2.19202 -1.90785 0
M  V30 2507 H 235.722 1.34556 -2.19664 0
M  V30 2508 H 235.68 2.84561 -1.33687 0
M  V30 2509 N 239.452 1.56882 -0.150215 0
M  V30 2510 C 240.415 2.1573 0.774157 0
M  V30 2511 C 241.415 1.0999 1.17298 0
M  V30 2512 O 242.605 1.35613 1.09338 0
M  V30 2513 C 239.737 2.72302 2.05096 0
M  V30 2514 H 240.93 2.98752 0.262201 0
M  V30 2515 H 238.483 1.55985 0.099248 0
M  V30 2516 H 239.218 1.92956 2.6065 0
M  V30 2517 H 239.003 3.49665 1.77416 0
M  V30 2518 H 240.493 3.17632 2.71109 0
M  V30 2519 N 240.93 -0.123565 1.57115 0
M  V30 2520 C 241.878 -1.17082 2.00984 0
M  V30 2521 C 242.872 -1.43136 0.906009 0
M  V30 2522 O 244.078 -1.43152 1.09121 0
M  V30 2523 H 240.453 -0.394653 0.64012 0
M  V30 2524 H 242.424 -0.774292 2.88179 0
M  V30 2525 C 241.173 -2.49057 2.42623 0
M  V30 2526 H 240.496 -2.29846 3.27125 0
M  V30 2527 H 241.936 -3.20906 2.7712 0
M  V30 2528 C 240.395 -3.11305 1.28805 0
M  V30 2529 O 240.925 -3.97171 0.60153 0
M  V30 2530 N 239.131 -2.71111 1.04628 0
M  V30 2531 H 238.678 -2.01382 1.60634 0
M  V30 2532 H 238.636 -3.1309 0.286685 0
M  V30 2533 N 242.408 -1.52605 -0.393616 0
M  V30 2534 C 243.655 -1.67424 -1.1391 0
M  V30 2535 C 243.983 -0.411859 -1.90089 0
M  V30 2536 O 243.238 0.605626 -1.86093 0
M  V30 2537 C 243.537 -2.85721 -2.14705 0
M  V30 2538 C 243.203 -4.23342 -1.55218 0
M  V30 2539 C 241.865 -4.60771 -1.3872 0
M  V30 2540 C 244.217 -5.09041 -1.11924 0
M  V30 2541 C 241.545 -5.81563 -0.774689 0
M  V30 2542 C 243.897 -6.30452 -0.520853 0
M  V30 2543 C 242.561 -6.66617 -0.343134 0
M  V30 2544 H 241.831 -0.612648 -0.416826 0
M  V30 2545 H 244.478 -1.8674 -0.424315 0
M  V30 2546 H 242.783 -2.60803 -2.92385 0
M  V30 2547 H 244.48 -2.94382 -2.72288 0
M  V30 2548 H 241.07 -3.93855 -1.69045 0
M  V30 2549 H 245.254 -4.80695 -1.23473 0
M  V30 2550 H 240.51 -6.08196 -0.625154 0
M  V30 2551 H 244.684 -6.96175 -0.177065 0
M  V30 2552 H 242.311 -7.60083 0.133571 0
M  V30 2553 N 243.887 0.651787 -1.4349 0
M  V30 2554 C 245.164 1.40909 -1.35661 0
M  V30 2555 C 245.544 2.11099 -0.00511733 0
M  V30 2556 O 244.892 2.04892 1.0115 0
M  V30 2557 C 245.102 2.3926 -2.54078 0
M  V30 2558 C 246.45 3.03217 -2.97228 0
M  V30 2559 O 247.474 2.49588 -2.54135 0
M  V30 2560 O 246.333 4.00455 -3.71885 0
M  V30 2561 H 243.427 0.629625 -0.536191 0
M  V30 2562 H 245.973 0.678575 -1.55542 0
M  V30 2563 H 244.745 1.86352 -3.44076 0
M  V30 2564 H 244.368 3.1976 -2.36303 0
M  V30 2565 N 245.365 1.30045 0.890287 0
M  V30 2566 C 246.613 1.18327 1.63839 0
M  V30 2567 C 246.934 -0.263455 1.93212 0
M  V30 2568 O 246.204 -1.17856 1.56482 0
M  V30 2569 H 244.784 0.434933 0.607324 0
M  V30 2570 H 247.446 1.631 1.06698 0
M  V30 2571 H 246.542 1.74024 2.59079 0
M  V30 2572 N 246.843 -1.10192 1.12674 0
M  V30 2573 C 248.09 -1.82205 0.883606 0
M  V30 2574 C 248.418 -1.8532 -0.590492 0
M  V30 2575 O 247.673 -1.31137 -1.45264 0
M  V30 2576 C 247.972 -3.28552 1.4067 0
M  V30 2577 C 247.638 -3.45582 2.89627 0
M  V30 2578 C 246.3 -3.49937 3.30299 0
M  V30 2579 C 248.652 -3.50768 3.85501 0
M  V30 2580 C 245.98 -3.57049 4.65546 0
M  V30 2581 C 248.332 -3.59414 5.20581 0
M  V30 2582 C 246.996 -3.62034 5.60792 0
M  V30 2583 H 246.266 -0.666735 0.323334 0
M  V30 2584 H 248.913 -1.29868 1.40736 0
M  V30 2585 H 247.218 -3.83473 0.80347 0
M  V30 2586 H 248.915 -3.82788 1.19475 0
M  V30 2587 H 245.505 -3.42871 2.57172 0
M  V30 2588 H 249.689 -3.46651 3.55171 0
M  V30 2589 H 244.945 -3.57361 4.96088 0
M  V30 2590 H 249.119 -3.62371 5.94693 0
M  V30 2591 H 246.746 -3.67298 6.6558 0
M  V30 2592 N 248.321 -0.919034 -1.28029 0
M  V30 2593 C 249.569 -0.553838 -1.94363 0
M  V30 2594 C 249.89 0.906357 -1.72656 0
M  V30 2595 O 249.16 1.64143 -1.0693 0
M  V30 2596 H 247.74 -0.201834 -0.719216 0
M  V30 2597 H 250.402 -1.16954 -1.55909 0
M  V30 2598 H 249.498 -0.752758 -3.02886 0
M  V30 2599 N 249.799 1.42003 -0.683588 0
M  V30 2600 C 251.045 2.01712 -0.209825 0
M  V30 2601 C 251.378 1.53968 1.18353 0
M  V30 2602 O 250.653 0.745661 1.79639 0
M  V30 2603 C 250.936 3.59202 -0.254197 0
M  V30 2604 C 250.789 4.17102 -1.68363 0
M  V30 2605 C 252.108 4.38344 0.392709 0
M  V30 2606 H 249.227 0.732891 -0.0777189 0
M  V30 2607 H 251.869 1.68909 -0.87004 0
M  V30 2608 H 250.019 3.87278 0.307954 0
M  V30 2609 H 251.691 3.99946 -2.29871 0
M  V30 2610 H 249.934 3.72597 -2.22157 0
M  V30 2611 H 250.605 5.26249 -1.6663 0
M  V30 2612 H 253.081 4.16011 -0.0859162 0
M  V30 2613 H 251.957 5.47901 0.331063 0
M  V30 2614 H 252.218 4.16887 1.47164 0
M  V30 2615 N 251.277 0.427512 1.51691 0
M  V30 2616 C 252.505 -0.141191 2.06418 0
M  V30 2617 C 252.92 -1.37303 1.29589 0
M  V30 2618 O 252.277 -1.79059 0.352732 0
M  V30 2619 C 252.328 -0.473266 3.58389 0
M  V30 2620 O 252.049 0.709673 4.32314 0
M  V30 2621 C 253.55 -1.09371 4.29596 0
M  V30 2622 H 250.77 -0.0122747 0.670888 0
M  V30 2623 H 253.314 0.603764 1.95384 0
M  V30 2624 H 251.469 -1.16812 3.69369 0
M  V30 2625 H 251.883 0.42807 5.2275 0
M  V30 2626 H 253.357 -1.27613 5.37046 0
M  V30 2627 H 253.834 -2.072 3.87253 0
M  V30 2628 H 254.44 -0.43853 4.23033 0
M  V30 2629 N 252.755 -1.56801 0.158532 0
M  V30 2630 C 253.718 -2.16138 -0.762705 0
M  V30 2631 C 254.718 -1.1061 -1.16713 0
M  V30 2632 O 255.908 -1.36191 -1.08617 0
M  V30 2633 C 253.04 -2.73386 -2.03649 0
M  V30 2634 H 254.233 -2.98886 -0.246354 0
M  V30 2635 H 251.786 -1.56035 -0.0909744 0
M  V30 2636 H 252.521 -1.94335 -2.59623 0
M  V30 2637 H 252.306 -3.50601 -1.75559 0
M  V30 2638 H 253.796 -3.19065 -2.6942 0
M  V30 2639 N 254.233 0.115231 -1.57178 0
M  V30 2640 C 255.463 0.835224 -1.88964 0
M  V30 2641 C 255.871 1.73774 -0.74829 0
M  V30 2642 O 255.214 1.81401 0.289739 0
M  V30 2643 C 255.276 1.7178 -3.15804 0
M  V30 2644 C 254.94 0.989198 -4.46166 0
M  V30 2645 C 255.937 0.328263 -5.18863 0
M  V30 2646 C 253.622 0.969256 -4.9286 0
M  V30 2647 C 255.616 -0.342873 -6.36477 0
M  V30 2648 C 253.303 0.294324 -6.10391 0
M  V30 2649 C 254.301 -0.360582 -6.82048 0
M  V30 2650 O 253.989 -1.02474 -7.97342 0
M  V30 2651 H 253.721 0.245197 -0.629964 0
M  V30 2652 H 256.275 0.10303 -2.05141 0
M  V30 2653 H 254.505 2.49173 -2.95719 0
M  V30 2654 H 256.194 2.31255 -3.33581 0
M  V30 2655 H 256.96 0.335263 -4.8384 0
M  V30 2656 H 252.839 1.46844 -4.36987 0
M  V30 2657 H 256.383 -0.854629 -6.92345 0
M  V30 2658 H 252.28 0.285099 -6.4487 0
M  V30 2659 H 253.048 -0.929594 -8.13204 0
M  V30 2660 N 255.711 1.52812 0.385517 0
M  V30 2661 C 256.957 1.68275 1.13188 0
M  V30 2662 C 257.29 0.423179 1.89533 0
M  V30 2663 O 256.565 -0.579113 1.85679 0
M  V30 2664 C 256.848 2.92001 2.1073 0
M  V30 2665 C 256.701 4.28067 1.38125 0
M  V30 2666 C 258.02 3.11283 3.11113 0
M  V30 2667 H 255.139 0.612352 0.410115 0
M  V30 2668 H 257.781 1.85415 0.414869 0
M  V30 2669 H 255.931 2.77519 2.71874 0
M  V30 2670 H 257.603 4.54324 0.799187 0
M  V30 2671 H 255.846 4.28388 0.683092 0
M  V30 2672 H 256.517 5.10733 2.09417 0
M  V30 2673 H 258.993 3.2482 2.6006 0
M  V30 2674 H 257.869 3.99325 3.76605 0
M  V30 2675 H 258.13 2.25656 3.80173 0
M  V30 2676 N 257.189 -0.644168 1.43834 0
M  V30 2677 C 258.438 -1.39985 1.45214 0
M  V30 2678 C 258.751 -1.95421 0.0835494 0
M  V30 2679 O 259.957 -2.71488 -0.0251748 0
M  V30 2680 C 258.413 -2.53384 2.55587 0
M  V30 2681 C 258.021 -2.04517 3.98594 0
M  V30 2682 C 259.765 -3.30685 2.66172 0
M  V30 2683 C 257.672 -3.1518 5.00416 0
M  V30 2684 H 256.602 -0.526005 0.540218 0
M  V30 2685 H 259.253 -0.694367 1.69855 0
M  V30 2686 H 257.635 -3.26446 2.24163 0
M  V30 2687 H 258.809 -1.38405 4.39523 0
M  V30 2688 H 257.124 -1.40068 3.92135 0
M  V30 2689 H 259.721 -4.13158 3.39418 0
M  V30 2690 H 260.064 -3.79312 1.71546 0
M  V30 2691 H 260.597 -2.64708 2.96942 0
M  V30 2692 H 257.336 -2.71511 5.96625 0
M  V30 2693 H 256.856 -3.79974 4.64091 0
M  V30 2694 H 258.535 -3.80166 5.23529 0
M  V30 2695 N 258.668 -1.30515 -0.883378 0
M  V30 2696 C 259.945 -1.10086 -1.6168 0
M  V30 2697 C 260.325 0.349269 -2.08191 0
M  V30 2698 O 259.673 1.34105 -1.85008 0
M  V30 2699 C 259.883 -2.10315 -2.78511 0
M  V30 2700 C 261.231 -2.42119 -3.48803 0
M  V30 2701 O 262.255 -2.08638 -2.88702 0
M  V30 2702 O 261.114 -2.99396 -4.57192 0
M  V30 2703 H 258.208 -0.422907 -0.710689 0
M  V30 2704 H 260.754 -1.41947 -0.930015 0
M  V30 2705 H 259.526 -3.07917 -2.41459 0
M  V30 2706 H 259.149 -1.79282 -3.54886 0
M  V30 2707 N 260.146 1.09593 -1.13257 0
M  V30 2708 C 261.374 1.855 -0.916378 0
M  V30 2709 C 261.789 1.81069 0.534738 0
M  V30 2710 O 261.146 1.20562 1.37007 0
M  V30 2711 C 261.197 3.33546 -1.39388 0
M  V30 2712 O 260.918 3.37927 -2.78813 0
M  V30 2713 C 262.419 4.26299 -1.21588 0
M  V30 2714 H 259.639 0.585991 -0.326887 0
M  V30 2715 H 262.183 1.38488 -1.5047 0
M  V30 2716 H 260.338 3.77992 -0.848597 0
M  V30 2717 H 260.752 4.30254 -2.9997 0
M  V30 2718 H 262.226 5.28341 -1.59876 0
M  V30 2719 H 262.703 4.38918 -0.157376 0
M  V30 2720 H 263.309 3.87668 -1.7491 0
M  V30 2721 N 261.624 0.925811 1.2754 0
M  V30 2722 C 262.872 0.564138 1.94067 0
M  V30 2723 C 263.193 -0.897188 1.73134 0
M  V30 2724 O 262.463 -1.63573 1.07799 0
M  V30 2725 H 261.043 0.205645 0.718136 0
M  V30 2726 H 263.705 1.1778 1.55287 0
M  V30 2727 H 262.801 0.76881 3.02483 0
M  V30 2728 N 263.102 -1.41638 0.69111 0
M  V30 2729 C 264.348 -2.01598 0.220519 0
M  V30 2730 C 264.681 -1.54594 -1.17535 0
M  V30 2731 O 263.956 -0.755177 -1.79241 0
M  V30 2732 C 264.239 -3.59062 0.273243 0
M  V30 2733 C 264.092 -4.16203 1.70573 0
M  V30 2734 C 265.411 -4.38546 -0.369457 0
M  V30 2735 H 262.53 -0.732468 0.0816045 0
M  V30 2736 H 265.172 -1.68445 0.878986 0
M  V30 2737 H 263.322 -3.87435 -0.287411 0
M  V30 2738 H 264.994 -3.98722 2.31989 0
M  V30 2739 H 263.237 -3.71414 2.2413 0
M  V30 2740 H 263.908 -5.25358 1.69419 0
M  V30 2741 H 266.384 -4.1596 0.107977 0
M  V30 2742 H 265.26 -5.48069 -0.302002 0
M  V30 2743 H 265.521 -4.17662 -1.44951 0
M  V30 2744 N 264.58 -0.43555 -1.51462 0
M  V30 2745 C 265.528 0.391205 -2.29287 0
M  V30 2746 C 266.522 1.02247 -1.35062 0
M  V30 2747 O 267.728 0.957646 -1.52411 0
M  V30 2748 H 264.103 0.144968 -0.737895 0
M  V30 2749 H 266.074 -0.286051 -2.97026 0
M  V30 2750 C 264.823 1.48096 -3.14583 0
M  V30 2751 H 264.146 1.00457 -3.86973 0
M  V30 2752 H 265.586 2.03273 -3.72097 0
M  V30 2753 C 264.045 2.46321 -2.29843 0
M  V30 2754 O 264.575 3.50815 -1.95682 0
M  V30 2755 N 262.781 2.17166 -1.931 0
M  V30 2756 H 262.328 1.32218 -2.21079 0
M  V30 2757 H 262.286 2.83127 -1.36698 0
M  V30 2758 N 266.058 1.56714 -0.166846 0
M  V30 2759 C 267.006 2.19056 0.782123 0
M  V30 2760 C 268 1.15328 1.24079 0
M  V30 2761 O 269.206 1.33537 1.20697 0
M  V30 2762 H 265.581 0.70167 0.270486 0
M  V30 2763 H 267.552 2.97494 0.232322 0
M  V30 2764 C 266.301 2.84206 2.00306 0
M  V30 2765 H 265.624 3.63748 1.65914 0
M  V30 2766 H 267.064 3.31302 2.64604 0
M  V30 2767 C 265.523 1.83744 2.82382 0
M  V30 2768 O 266.053 1.32014 3.79388 0
M  V30 2769 N 264.259 1.52601 2.47308 0
M  V30 2770 H 263.806 1.9486 1.68485 0
M  V30 2771 H 263.764 0.856351 3.02513 0
M  V30 2772 N 267.536 -0.106894 1.57237 0
M  V30 2773 C 268.484 -1.14944 2.02215 0
M  V30 2774 C 269.478 -1.42167 0.92114 0
M  V30 2775 O 270.684 -1.41987 1.10634 0
M  V30 2776 H 267.059 -0.387841 0.64427 0
M  V30 2777 H 269.03 -0.743683 2.88984 0
M  V30 2778 C 267.779 -2.4647 2.4525 0
M  V30 2779 H 267.102 -2.26363 3.29545 0
M  V30 2780 H 268.542 -3.17948 2.80508 0
M  V30 2781 C 267.001 -3.09921 1.321 0
M  V30 2782 O 267.531 -3.9651 0.643622 0
M  V30 2783 N 265.737 -2.69986 1.07497 0
M  V30 2784 H 265.284 -1.99667 1.62761 0
M  V30 2785 H 265.242 -3.12769 0.319876 0
M  V30 2786 N 269.014 -1.53014 -0.377408 0
M  V30 2787 C 269.964 -1.74996 -1.46152 0
M  V30 2788 C 270.948 -0.604236 -1.49123 0
M  V30 2789 O 272.14 -0.862489 -1.54564 0
M  V30 2790 C 269.269 -1.93267 -2.8373 0
M  V30 2791 C 268.355 -3.13807 -2.85283 0
M  V30 2792 N 268.746 -4.35941 -2.56493 0
M  V30 2793 C 267.044 -3.14288 -3.16448 0
M  V30 2794 C 267.745 -5.17615 -2.65424 0
M  V30 2795 N 266.721 -4.53559 -2.99641 0
M  V30 2796 H 270.523 -2.67044 -1.22738 0
M  V30 2797 H 268.037 -1.51479 -0.585479 0
M  V30 2798 H 270.034 -2.0714 -3.61799 0
M  V30 2799 H 268.694 -1.0244 -3.08117 0
M  V30 2800 H 269.705 -4.63876 -2.30302 0
M  V30 2801 H 266.382 -2.33312 -3.46225 0
M  V30 2802 H 267.772 -6.25006 -2.46612 0
M  V30 2803 N 270.492 0.636531 -1.44174 0
M  V30 2804 C 271.402 1.77754 -1.53103 0
M  V30 2805 C 272.418 1.68928 -0.417034 0
M  V30 2806 O 273.594 1.89801 -0.6736 0
M  V30 2807 C 270.659 3.14115 -1.46741 0
M  V30 2808 C 269.72 3.34612 -2.68948 0
M  V30 2809 C 268.953 4.64467 -2.6288 0
M  V30 2810 O 269.176 5.44919 -1.68581 0
M  V30 2811 O 268.11 4.87049 -3.53648 0
M  V30 2812 H 271.936 1.73174 -2.49489 0
M  V30 2813 H 269.521 0.79709 -1.2636 0
M  V30 2814 H 271.403 3.95412 -1.45696 0
M  V30 2815 H 270.078 3.19249 -0.534975 0
M  V30 2816 H 268.985 2.53014 -2.75562 0
M  V30 2817 H 270.318 3.34336 -3.61221 0
M  V30 2818 N 271.97 1.30982 0.876444 0
M  V30 2819 C 272.88 1.2003 2.01569 0
M  V30 2820 C 273.896 0.11838 1.73597 0
M  V30 2821 O 275.072 0.33495 1.98595 0
M  V30 2822 C 272.137 0.901637 3.34771 0
M  V30 2823 C 271.198 2.06979 3.76109 0
M  V30 2824 C 270.431 1.78529 5.02954 0
M  V30 2825 O 270.654 0.717296 5.65872 0
M  V30 2826 O 269.588 2.64019 5.40905 0
M  V30 2827 H 273.414 2.15753 2.13739 0
M  V30 2828 H 270.999 1.10658 1.00375 0
M  V30 2829 H 272.881 0.750645 4.1466 0
M  V30 2830 H 271.556 -0.0256141 3.2369 0
M  V30 2831 H 270.463 2.27616 2.96887 0
M  V30 2832 H 271.796 2.97907 3.91807 0
M  V30 2833 N 273.449 -1.08991 1.13837 0
M  V30 2834 C 274.696 -1.81258 0.902882 0
M  V30 2835 C 275.024 -1.85936 -0.570803 0
M  V30 2836 O 274.279 -1.3267 -1.43865 0
M  V30 2837 C 274.578 -3.27042 1.44147 0
M  V30 2838 C 274.244 -3.4249 2.93276 0
M  V30 2839 C 272.906 -3.46414 3.33992 0
M  V30 2840 C 275.258 -3.4666 3.892 0
M  V30 2841 C 272.586 -3.52091 4.69307 0
M  V30 2842 C 274.938 -3.53872 5.24364 0
M  V30 2843 C 273.602 -3.56066 5.646 0
M  V30 2844 H 272.872 -0.663268 0.330388 0
M  V30 2845 H 275.519 -1.28368 1.42105 0
M  V30 2846 H 273.824 -3.82599 0.844097 0
M  V30 2847 H 275.521 -3.81499 1.23528 0
M  V30 2848 H 272.111 -3.40124 2.60794 0
M  V30 2849 H 276.295 -3.42865 3.58828 0
M  V30 2850 H 271.551 -3.52079 4.9985 0
M  V30 2851 H 275.725 -3.56043 5.98503 0
M  V30 2852 H 273.352 -3.60218 6.69438 0
M  V30 2853 N 274.927 -0.932562 -1.27047 0
M  V30 2854 C 276.175 -0.574422 -1.93765 0
M  V30 2855 C 276.496 0.887993 -1.73608 0
M  V30 2856 O 275.766 1.62999 -1.08665 0
M  V30 2857 H 274.346 -0.209451 -0.717035 0
M  V30 2858 H 277.008 -1.18601 -1.5466 0
M  V30 2859 H 276.104 -0.784841 -3.02071 0
M  V30 2860 N 276.405 1.4127 -0.698611 0
M  V30 2861 C 277.653 2.00782 -0.230409 0
M  V30 2862 C 277.974 1.5562 1.17505 0
M  V30 2863 O 277.244 0.78815 1.79346 0
M  V30 2864 H 275.824 0.742464 -0.0821944 0
M  V30 2865 H 278.486 1.72852 -0.90045 0
M  V30 2866 H 277.582 3.11095 -0.25021 0
M  V30 2867 N 277.883 0.443576 1.51229 0
M  V30 2868 C 279.299 0.0962001 1.5931 0
M  V30 2869 C 279.499 -1.39501 1.45402 0
M  V30 2870 O 278.555 -2.16557 1.29843 0
M  V30 2871 C 279.868 0.621875 2.94199 0
M  V30 2872 C 281.416 0.582865 3.07525 0
M  V30 2873 C 281.891 1.08562 4.44948 0
M  V30 2874 N 283.382 1.04387 4.51284 0
M  V30 2875 C 284.117 1.40368 5.55954 0
M  V30 2876 N 283.613 1.83664 6.68011 0
M  V30 2877 N 285.406 1.32145 5.46346 0
M  V30 2878 H 277.557 1.41376 1.58514 0
M  V30 2879 H 279.82 0.582965 0.747567 0
M  V30 2880 H 279.526 1.66546 3.09767 0
M  V30 2881 H 279.4 0.0502125 3.77167 0
M  V30 2882 H 281.787 -0.451749 2.91622 0
M  V30 2883 H 281.868 1.191 2.26382 0
M  V30 2884 H 281.512 2.11873 4.61598 0
M  V30 2885 H 281.442 0.453956 5.2464 0
M  V30 2886 H 283.933 0.725986 3.70861 0
M  V30 2887 H 284.246 2.0934 7.43906 0
M  V30 2888 H 282.591 1.87596 6.69203 0
M  V30 2889 H 285.782 0.981808 4.57688 0
M  V30 2890 H 285.955 1.60514 6.27805 0
M  V30 2891 N 279.361 -1.56624 0.175154 0
M  V30 2892 C 280.586 -2.01813 -0.478137 0
M  V30 2893 C 281.011 -1.05457 -1.55757 0
M  V30 2894 O 280.369 -0.0347439 -1.81267 0
M  V30 2895 C 280.417 -3.45581 -1.02987 0
M  V30 2896 O 279.521 -3.52305 -2.14371 0
M  V30 2897 H 278.862 -0.65413 -0.114059 0
M  V30 2898 H 281.392 -2.02673 0.280173 0
M  V30 2899 H 281.402 -3.84965 -1.35151 0
M  V30 2900 H 280.077 -4.1521 -0.239556 0
M  V30 2901 H 278.654 -3.24783 -1.83222 0
M  V30 2902 N 280.839 0.0985539 -1.57292 0
M  V30 2903 C 282.085 0.803867 -1.86188 0
M  V30 2904 C 282.418 1.78549 -0.763794 0
M  V30 2905 O 281.693 1.93153 0.22855 0
M  V30 2906 C 281.976 1.53568 -3.25713 0
M  V30 2907 C 281.829 0.572277 -4.46145 0
M  V30 2908 C 283.148 2.48708 -3.63087 0
M  V30 2909 H 280.267 0.290781 -0.677211 0
M  V30 2910 H 282.909 0.0675783 -1.8988 0
M  V30 2911 H 281.059 2.16332 -3.22696 0
M  V30 2912 H 282.731 -0.0480894 -4.61275 0
M  V30 2913 H 280.974 -0.114618 -4.33649 0
M  V30 2914 H 281.645 1.12139 -5.40489 0
M  V30 2915 H 284.121 1.96039 -3.67026 0
M  V30 2916 H 282.997 2.96932 -4.61652 0
M  V30 2917 H 283.258 3.32309 -2.91588 0
M  V30 2918 N 282.317 1.53212 0.369288 0
M  V30 2919 C 283.542 1.73423 1.1375 0
M  V30 2920 C 283.967 0.460404 1.82378 0
M  V30 2921 O 283.325 -0.585298 1.71592 0
M  V30 2922 C 283.373 2.89769 2.1463 0
M  V30 2923 O 282.477 2.58119 3.21634 0
M  V30 2924 H 281.818 0.576061 0.330227 0
M  V30 2925 H 284.348 2.00083 0.427547 0
M  V30 2926 H 284.358 3.15829 2.58294 0
M  V30 2927 H 283.033 3.8217 1.64071 0
M  V30 2928 H 281.61 2.42864 2.82969 0
M  V30 2929 N 283.795 -0.628877 1.44509 0
M  V30 2930 C 285.043 -1.38565 1.4712 0
M  V30 2931 C 285.364 -1.94712 0.105899 0
M  V30 2932 O 284.634 -1.75912 -0.862079 0
M  V30 2933 H 283.214 -0.514333 0.541729 0
M  V30 2934 H 285.876 -0.740018 1.80305 0
M  V30 2935 H 284.972 -2.21583 2.19789 0
M  V30 2936 N 285.273 -1.31445 -0.869486 0
M  V30 2937 C 286.503 -1.23942 -1.65294 0
M  V30 2938 C 286.911 0.197561 -1.88166 0
M  V30 2939 O 286.254 1.14019 -1.44033 0
M  V30 2940 C 286.316 -1.91385 -3.04322 0
M  V30 2941 C 285.98 -3.40726 -3.04557 0
M  V30 2942 C 286.977 -4.36464 -2.82481 0
M  V30 2943 C 284.662 -3.82425 -3.25663 0
M  V30 2944 C 286.656 -5.71876 -2.8149 0
M  V30 2945 C 284.343 -5.1795 -3.243 0
M  V30 2946 C 285.341 -6.12486 -3.02241 0
M  V30 2947 O 285.029 -7.45534 -3.00724 0
M  V30 2948 H 284.761 -0.429459 -0.522054 0
M  V30 2949 H 287.315 -1.73873 -1.0935 0
M  V30 2950 H 285.545 -1.36004 -3.61994 0
M  V30 2951 H 287.234 -1.77791 -3.64891 0
M  V30 2952 H 288 -4.05576 -2.65956 0
M  V30 2953 H 283.879 -3.09274 -3.41863 0
M  V30 2954 H 287.423 -6.45638 -2.64191 0
M  V30 2955 H 283.32 -5.48473 -3.40365 0
M  V30 2956 H 284.088 -7.54713 -3.16782 0
M  V30 2957 N 286.751 1.08385 -1.14413 0
M  V30 2958 C 288.028 1.77429 -0.823297 0
M  V30 2959 C 288.408 1.9974 0.683163 0
M  V30 2960 O 287.756 1.60739 1.62405 0
M  V30 2961 C 287.966 3.09004 -1.62227 0
M  V30 2962 C 289.314 3.83532 -1.82177 0
M  V30 2963 O 290.338 3.18786 -1.58915 0
M  V30 2964 O 289.197 4.99792 -2.21067 0
M  V30 2965 H 286.291 0.769999 -0.301712 0
M  V30 2966 H 288.837 1.14846 -1.24934 0
M  V30 2967 H 287.609 2.88316 -2.64555 0
M  V30 2968 H 287.232 3.79316 -1.19187 0
M  V30 2969 N 288.23 0.939286 1.26551 0
M  V30 2970 C 289.477 0.585847 1.9384 0
M  V30 2971 C 289.805 -0.874784 1.73718 0
M  V30 2972 O 289.06 -1.64092 1.06642 0
M  V30 2973 C 289.359 0.872106 3.46596 0
M  V30 2974 C 289.025 2.31632 3.86856 0
M  V30 2975 C 287.687 2.71111 3.97558 0
M  V30 2976 C 290.039 3.25494 4.07066 0
M  V30 2977 C 287.367 4.03553 4.25866 0
M  V30 2978 C 289.719 4.57531 4.36862 0
M  V30 2979 C 288.383 4.96828 4.45778 0
M  V30 2980 H 287.653 0.214377 0.709312 0
M  V30 2981 H 290.3 1.18544 1.50398 0
M  V30 2982 H 288.605 0.18996 3.91339 0
M  V30 2983 H 290.302 0.577442 3.96821 0
M  V30 2984 H 286.892 2.00008 3.79071 0
M  V30 2985 H 291.076 2.9619 3.98227 0
M  V30 2986 H 286.332 4.33665 4.30981 0
M  V30 2987 H 290.506 5.30254 4.51446 0
M  V30 2988 H 288.133 5.99482 4.67468 0
M  V30 2989 N 289.708 -1.40897 0.706093 0
M  V30 2990 C 290.954 -2.01352 0.241889 0
M  V30 2991 C 291.287 -1.55832 -1.15888 0
M  V30 2992 O 290.562 -0.774145 -1.7843 0
M  V30 2993 C 290.845 -3.58752 0.311311 0
M  V30 2994 C 290.698 -4.1437 1.74978 0
M  V30 2995 C 292.017 -4.38914 -0.322922 0
M  V30 2996 H 289.136 -0.731562 0.0893687 0
M  V30 2997 H 291.778 -1.67504 0.896802 0
M  V30 2998 H 289.928 -3.87718 -0.246302 0
M  V30 2999 H 291.6 -3.96239 2.36205 0
M  V30 3000 H 289.843 -3.69016 2.28057 0
M  V30 3001 H 290.514 -5.23532 1.74981 0
M  V30 3002 H 292.99 -4.15822 0.152089 0
M  V30 3003 H 291.866 -5.48358 -0.243855 0
M  V30 3004 H 292.127 -4.19176 -1.40513 0
M  V30 3005 N 291.186 -0.45159 -1.50991 0
M  V30 3006 C 292.463 0.170707 -1.94854 0
M  V30 3007 C 292.843 1.58788 -1.39103 0
M  V30 3008 O 292.191 2.20913 -0.583921 0
M  V30 3009 C 292.401 0.133929 -3.48743 0
M  V30 3010 C 293.749 0.33248 -4.23296 0
M  V30 3011 O 294.773 0.211403 -3.55572 0
M  V30 3012 O 293.632 0.57486 -5.43468 0
M  V30 3013 H 290.726 0.122264 -0.817912 0
M  V30 3014 H 293.272 -0.510594 -1.61836 0
M  V30 3015 H 292.044 -0.856283 -3.81816 0
M  V30 3016 H 291.667 0.857529 -3.88242 0
M  V30 3017 N 292.664 1.56529 -0.183458 0
M  V30 3018 C 293.612 2.19873 0.758845 0
M  V30 3019 C 294.606 1.16638 1.22849 0
M  V30 3020 O 295.812 1.3481 1.19274 0
M  V30 3021 H 292.187 0.7045 0.263029 0
M  V30 3022 H 294.158 2.97724 0.200755 0
M  V30 3023 C 292.907 2.86314 1.9728 0
M  V30 3024 H 292.23 3.65487 1.62047 0
M  V30 3025 H 293.67 3.3409 2.61075 0
M  V30 3026 C 292.129 1.86729 2.80418 0
M  V30 3027 O 292.659 1.36031 3.77966 0
M  V30 3028 N 290.865 1.55216 2.45675 0
M  V30 3029 H 290.412 1.96636 1.66409 0
M  V30 3030 H 290.37 0.888388 3.01588 0
M  V30 3031 N 294.142 -0.090211 1.57342 0
M  V30 3032 C 295.419 -0.824761 1.77361 0
M  V30 3033 C 295.799 -1.96698 0.76637 0
M  V30 3034 O 295.147 -2.27586 -0.204179 0
M  V30 3035 C 295.357 -1.31481 3.23286 0
M  V30 3036 C 296.705 -1.75563 3.86604 0
M  V30 3037 O 297.729 -1.41093 3.27065 0
M  V30 3038 O 296.588 -2.39317 4.91314 0
M  V30 3039 H 293.682 -0.393776 0.727234 0
M  V30 3040 H 296.228 -0.0717138 1.69548 0
M  V30 3041 H 295 -0.496671 3.88135 0
M  V30 3042 H 294.623 -2.12973 3.35751 0
M  V30 3043 N 295.62 -1.53406 -0.361157 0
M  V30 3044 C 296.583 -1.79479 -1.42548 0
M  V30 3045 C 297.583 -0.665327 -1.4639 0
M  V30 3046 O 298.773 -0.933549 -1.47073 0
M  V30 3047 C 295.905 -1.92087 -2.8163 0
M  V30 3048 H 297.098 -2.74538 -1.20701 0
M  V30 3049 H 294.651 -1.4455 -0.594546 0
M  V30 3050 H 295.386 -0.991099 -3.08784 0
M  V30 3051 H 295.171 -2.74241 -2.80239 0
M  V30 3052 H 296.661 -2.13836 -3.58697 0
M  V30 3053 N 297.098 0.621204 -1.44841 0
M  V30 3054 C 298.375 1.38 -1.38619 0
M  V30 3055 C 298.755 2.11041 -0.0498935 0
M  V30 3056 O 298.103 2.06992 0.967816 0
M  V30 3057 C 298.313 2.33817 -2.59096 0
M  V30 3058 C 299.661 2.96844 -3.03593 0
M  V30 3059 O 300.685 2.44141 -2.59371 0
M  V30 3060 O 299.544 3.92476 -3.80296 0
M  V30 3061 H 296.638 0.61811 -0.549426 0
M  V30 3062 H 299.184 0.645429 -1.56947 0
M  V30 3063 H 297.956 1.79012 -3.47952 0
M  V30 3064 H 297.579 3.14676 -2.43032 0
M  V30 3065 N 298.576 1.31904 0.862503 0
M  V30 3066 C 299.801 1.25135 1.65397 0
M  V30 3067 C 300.226 -0.179 1.87246 0
M  V30 3068 O 299.584 -1.1277 1.4196 0
M  V30 3069 C 299.632 2.00832 2.99498 0
M  V30 3070 O 298.736 1.35075 3.89652 0
M  V30 3071 H 298.077 0.431655 0.504549 0
M  V30 3072 H 300.607 1.74094 1.07483 0
M  V30 3073 H 300.617 2.10709 3.49379 0
M  V30 3074 H 299.292 3.04847 2.82916 0
M  V30 3075 H 297.869 1.33696 3.48109 0
M  V30 3076 N 300.054 -1.07777 1.14986 0
M  V30 3077 C 301.279 -1.84558 0.946213 0
M  V30 3078 C 301.704 -1.81323 -0.500362 0
M  V30 3079 O 301.062 -1.20301 -1.35637 0
M  V30 3080 C 301.11 -3.29736 1.45968 0
M  V30 3081 O 300.214 -4.07149 0.65601 0
M  V30 3082 H 299.555 -0.571641 0.33782 0
M  V30 3083 H 302.085 -1.35991 1.52865 0
M  V30 3084 H 302.095 -3.80574 1.47063 0
M  V30 3085 H 300.77 -3.31406 2.51283 0
M  V30 3086 H 299.347 -3.65994 0.714322 0
M  V30 3087 N 301.532 -0.945985 -1.26051 0
M  V30 3088 C 302.809 -0.513816 -1.88731 0
M  V30 3089 C 303.189 1.00872 -1.8544 0
M  V30 3090 O 302.537 1.8708 -1.312 0
M  V30 3091 C 302.747 -1.08062 -3.31849 0
M  V30 3092 C 304.095 -1.1522 -4.08668 0
M  V30 3093 O 305.119 -1.03155 -3.40936 0
M  V30 3094 O 303.978 -1.34044 -5.29806 0
M  V30 3095 H 301.072 -0.168193 -0.809716 0
M  V30 3096 H 303.618 -1.03886 -1.34186 0
M  V30 3097 H 302.39 -2.1241 -3.2863 0
M  V30 3098 H 302.013 -0.538307 -3.93939 0
M  V30 3099 N 303.011 1.40521 -0.713556 0
M  V30 3100 C 304.251 2.02783 -0.256584 0
M  V30 3101 C 304.615 1.55352 1.12827 0
M  V30 3102 O 305.816 2.09663 1.68211 0
M  V30 3103 C 304.087 3.5586 -0.331414 0
M  V30 3104 S 305.646 4.38773 0.0488703 0
M  V30 3105 H 302.464 0.703655 -0.101934 0
M  V30 3106 H 305.066 1.71674 -0.935325 0
M  V30 3107 H 303.77 3.87874 -1.34098 0
M  V30 3108 H 303.301 3.91695 0.365873 0
M  V30 3109 H 305.316 4.79633 1.2715 0
M  V30 3110 N 304.489 0.459591 1.5075 0
M  V30 3111 C 305.437 -0.354678 2.2988 0
M  V30 3112 C 306.431 -1.00086 1.36672 0
M  V30 3113 O 307.637 -0.933277 1.53915 0
M  V30 3114 H 304.012 -0.13321 0.740107 0
M  V30 3115 H 305.983 0.333269 2.96533 0
M  V30 3116 C 304.732 -1.43073 3.169 0
M  V30 3117 H 304.055 -0.942882 3.88523 0
M  V30 3118 H 305.495 -1.97328 3.75284 0
M  V30 3119 C 303.954 -2.42633 2.33732 0
M  V30 3120 O 304.484 -3.47658 2.01238 0
M  V30 3121 N 302.69 -2.14066 1.9653 0
M  V30 3122 H 302.237 -1.28685 2.23155 0
M  V30 3123 H 302.195 -2.80917 1.41185 0
M  V30 3124 N 305.967 -1.56429 0.191757 0
M  V30 3125 C 307.215 -1.97095 -0.447006 0
M  V30 3126 C 307.536 -1.07967 -1.62383 0
M  V30 3127 O 306.806 -0.150248 -1.95323 0
M  V30 3128 H 305.386 -0.727832 -0.168135 0
M  V30 3129 H 308.048 -1.92911 0.27771 0
M  V30 3130 H 307.144 -3.01848 -0.793371 0
M  V30 3131 N 307.445 0.0818655 -1.57387 0
M  V30 3132 C 308.395 1.10501 -1.99433 0
M  V30 3133 C 309.379 1.35041 -0.874798 0
M  V30 3134 O 310.571 1.35511 -1.13868 0
M  V30 3135 C 307.7 2.42159 -2.43339 0
M  V30 3136 C 306.786 2.20937 -3.62005 0
M  V30 3137 N 307.177 1.69616 -4.76512 0
M  V30 3138 C 305.475 2.51451 -3.68359 0
M  V30 3139 C 306.176 1.62973 -5.58404 0
M  V30 3140 N 305.152 2.08664 -5.01956 0
M  V30 3141 H 308.954 0.701373 -2.85408 0
M  V30 3142 H 306.468 0.289096 -1.59806 0
M  V30 3143 H 308.465 3.16208 -2.71695 0
M  V30 3144 H 307.125 2.83249 -1.58746 0
M  V30 3145 H 308.136 1.38624 -4.99003 0
M  V30 3146 H 304.813 2.95975 -2.94457 0
M  V30 3147 H 306.203 1.24233 -6.60315 0
M  V30 3148 N 308.923 1.53595 0.353017 0
M  V30 3149 C 310.171 1.70049 1.09215 0
M  V30 3150 C 310.492 0.461406 1.89463 0
M  V30 3151 O 309.762 -0.524633 1.88744 0
M  V30 3152 H 308.342 0.626912 0.40619 0
M  V30 3153 H 311.004 1.90822 0.396585 0
M  V30 3154 H 310.1 2.56718 1.77488 0
M  V30 3155 N 310.401 -0.613514 1.45168 0
M  V30 3156 C 311.629 -1.39946 1.5239 0
M  V30 3157 C 312.044 -1.88167 0.154531 0
M  V30 3158 O 311.401 -1.61872 -0.842843 0
M  V30 3159 C 311.452 -2.60795 2.50337 0
M  V30 3160 O 311.173 -2.1458 3.81952 0
M  V30 3161 C 312.674 -3.53723 2.67198 0
M  V30 3162 H 309.894 -0.428593 0.516284 0
M  V30 3163 H 312.438 -0.748753 1.903 0
M  V30 3164 H 310.593 -3.21919 2.15515 0
M  V30 3165 H 311.007 -2.93055 4.34993 0
M  V30 3166 H 312.481 -4.35079 3.39721 0
M  V30 3167 H 312.958 -4.0368 1.73029 0
M  V30 3168 H 313.564 -2.98456 3.02992 0
M  V30 3169 N 311.879 -1.3236 -0.855495 0
M  V30 3170 C 312.829 -1.17809 -1.95205 0
M  V30 3171 C 313.813 -0.0852319 -1.60674 0
M  V30 3172 O 315.005 -0.311651 -1.74235 0
M  V30 3173 C 312.134 -0.902437 -3.31226 0
M  V30 3174 C 311.22 -2.03695 -3.7198 0
M  V30 3175 N 311.611 -3.28544 -3.84568 0
M  V30 3176 C 309.909 -1.93993 -4.016 0
M  V30 3177 C 310.61 -4.02847 -4.19629 0
M  V30 3178 N 309.586 -3.31138 -4.31102 0
M  V30 3179 H 313.388 -2.12462 -2.0307 0
M  V30 3180 H 310.902 -1.24127 -1.0472 0
M  V30 3181 H 312.899 -0.77915 -4.09554 0
M  V30 3182 H 311.559 0.0357267 -3.2468 0
M  V30 3183 H 312.57 -3.6349 -3.68911 0
M  V30 3184 H 309.247 -1.07733 -4.03361 0
M  V30 3185 H 310.637 -5.10506 -4.36845 0
M  V30 3186 N 313.357 1.07166 -1.15556 0
M  V30 3187 C 314.603 1.80065 -0.932984 0
M  V30 3188 C 314.936 1.86586 0.53845 0
M  V30 3189 O 314.211 1.35098 1.39924 0
M  V30 3190 C 314.494 3.25022 -1.55025 0
M  V30 3191 C 314.347 3.26634 -3.09242 0
M  V30 3192 C 315.666 4.22341 -1.2376 0
M  V30 3193 H 312.785 0.653697 -0.340366 0
M  V30 3194 H 315.427 1.25389 -1.4275 0
M  V30 3195 H 313.577 3.71712 -1.12972 0
M  V30 3196 H 315.249 2.88173 -3.60214 0
M  V30 3197 H 313.492 2.65539 -3.43033 0
M  V30 3198 H 314.163 4.28854 -3.47546 0
M  V30 3199 H 316.639 3.8405 -1.60139 0
M  V30 3200 H 315.515 5.22053 -1.69564 0
M  V30 3201 H 315.776 4.41828 -0.154938 0
M  V30 3202 N 314.835 0.952656 1.25548 0
M  V30 3203 C 315.798 0.475794 2.24207 0
M  V30 3204 C 316.798 -0.419428 1.55234 0
M  V30 3205 O 317.988 -0.216994 1.72843 0
M  V30 3206 C 315.12 -0.312814 3.39462 0
M  V30 3207 H 316.313 1.34779 2.67908 0
M  V30 3208 H 313.866 0.735739 1.37901 0
M  V30 3209 H 314.601 -1.20257 3.01179 0
M  V30 3210 H 314.386 0.329404 3.90714 0
M  V30 3211 H 315.876 -0.635986 4.12729 0
M  V30 3212 N 316.313 -1.40141 0.720998 0
M  V30 3213 C 317.561 -2.0039 0.262323 0
M  V30 3214 C 317.882 -1.57469 -1.15015 0
M  V30 3215 O 317.152 -0.816582 -1.78069 0
M  V30 3216 H 315.732 -0.741063 0.093996 0
M  V30 3217 H 318.394 -1.71398 0.927835 0
M  V30 3218 H 317.49 -3.10658 0.299671 0
M  V30 3219 N 317.792 -0.46758 -1.50504 0
M  V30 3220 C 319.02 0.0864133 -2.06719 0
M  V30 3221 C 319.435 1.33819 -1.33184 0
M  V30 3222 O 318.792 1.78061 -0.400083 0
M  V30 3223 C 318.843 0.378079 -3.59517 0
M  V30 3224 O 318.564 -0.824044 -4.3028 0
M  V30 3225 C 320.065 0.979426 -4.32345 0
M  V30 3226 H 317.285 -0.00551697 -0.670977 0
M  V30 3227 H 319.829 -0.655354 -1.93715 0
M  V30 3228 H 317.984 1.06977 -3.72337 0
M  V30 3229 H 318.398 -0.566518 -5.21432 0
M  V30 3230 H 319.872 1.1333 -5.40241 0
M  V30 3231 H 320.349 1.9686 -3.9261 0
M  V30 3232 H 320.955 0.326216 -4.24047 0
M  V30 3233 N 319.27 1.56325 -0.20005 0
M  V30 3234 C 320.519 1.96895 0.437652 0
M  V30 3235 C 320.832 1.08999 1.62415 0
M  V30 3236 O 322.038 1.39372 2.32997 0
M  V30 3237 C 320.494 3.50198 0.830025 0
M  V30 3238 C 320.102 4.46765 -0.332461 0
M  V30 3239 C 321.846 3.99526 1.43453 0
M  V30 3240 C 319.753 5.91344 0.0811468 0
M  V30 3241 H 318.683 0.735209 0.167282 0
M  V30 3242 H 321.334 1.81148 -0.292853 0
M  V30 3243 H 319.716 3.61467 1.61734 0
M  V30 3244 H 320.89 4.47231 -1.11 0
M  V30 3245 H 319.205 4.07657 -0.848789 0
M  V30 3246 H 321.802 5.05025 1.75652 0
M  V30 3247 H 322.145 3.44122 2.34277 0
M  V30 3248 H 322.678 3.91393 0.71109 0
M  V30 3249 H 319.417 6.50685 -0.793033 0
M  V30 3250 H 318.937 5.94121 0.823445 0
M  V30 3251 H 320.616 6.44945 0.515252 0
M  V30 3252 N 320.748 -0.0735177 1.57428 0
M  V30 3253 C 321.996 -0.771472 1.86796 0
M  V30 3254 C 322.317 -1.78201 0.791804 0
M  V30 3255 O 321.587 -1.95074 -0.179718 0
M  V30 3256 H 320.167 -0.28791 0.689287 0
M  V30 3257 H 322.829 -0.0500161 1.94836 0
M  V30 3258 H 321.925 -1.28874 2.8425 0
M  V30 3259 N 322.226 -1.5378 -0.344866 0
M  V30 3260 C 323.474 -1.70625 -1.08311 0
M  V30 3261 C 323.795 -0.471447 -1.89215 0
M  V30 3262 O 323.065 0.514616 -1.8902 0
M  V30 3263 H 321.645 -0.629058 -0.402859 0
M  V30 3264 H 324.307 -1.9103 -0.386459 0
M  V30 3265 H 323.403 -2.57656 -1.76124 0
M  V30 3266 N 323.704 0.605807 -1.45491 0
M  V30 3267 C 324.929 1.39625 -1.53361 0
M  V30 3268 C 325.354 1.87351 -0.167645 0
M  V30 3269 O 324.712 1.60243 0.848051 0
M  V30 3270 C 324.76 2.57559 -2.5238 0
M  V30 3271 O 323.864 3.58248 -2.04285 0
M  V30 3272 H 323.205 0.416771 -0.516912 0
M  V30 3273 H 325.735 0.737103 -1.90861 0
M  V30 3274 H 325.745 3.0478 -2.71244 0
M  V30 3275 H 324.42 2.22171 -3.51586 0
M  V30 3276 H 322.997 3.17664 -1.95305 0
M  V30 3277 N 325.182 1.32811 0.848464 0
M  V30 3278 C 326.114 1.18095 1.96433 0
M  V30 3279 C 327.127 0.114354 1.62398 0
M  V30 3280 O 328.316 0.363892 1.74751 0
M  V30 3281 C 325.416 0.786798 3.2964 0
M  V30 3282 C 324.589 1.943 3.91875 0
M  V30 3283 C 323.648 1.53138 5.03423 0
M  V30 3284 O 322.674 2.24432 5.23086 0
M  V30 3285 N 323.876 0.430915 5.78898 0
M  V30 3286 H 326.641 2.14218 2.09597 0
M  V30 3287 H 324.202 1.2543 1.02367 0
M  V30 3288 H 326.194 0.493715 4.01677 0
M  V30 3289 H 324.764 -0.0834541 3.12489 0
M  V30 3290 H 323.984 2.40224 3.12547 0
M  V30 3291 H 325.272 2.71689 4.30189 0
M  V30 3292 H 324.67 -0.162333 5.65467 0
M  V30 3293 H 323.227 0.197466 6.51501 0
M  V30 3294 N 326.66 -1.06551 1.16123 0
M  V30 3295 C 327.89 -1.8274 0.963838 0
M  V30 3296 C 328.298 -1.82712 -0.491228 0
M  V30 3297 O 327.641 -1.24294 -1.35265 0
M  V30 3298 C 327.703 -3.3065 1.41106 0
M  V30 3299 C 327.367 -3.54384 2.88549 0
M  V30 3300 C 328.364 -3.4765 3.86569 0
M  V30 3301 C 326.049 -3.81789 3.26408 0
M  V30 3302 C 328.043 -3.67982 5.2045 0
M  V30 3303 C 325.73 -4.01772 4.60459 0
M  V30 3304 C 326.728 -3.94866 5.57288 0
M  V30 3305 O 326.416 -4.14306 6.88916 0
M  V30 3306 H 326.148 -0.583136 0.341948 0
M  V30 3307 H 328.702 -1.35351 1.54497 0
M  V30 3308 H 326.932 -3.78887 0.773394 0
M  V30 3309 H 328.621 -3.88324 1.1815 0
M  V30 3310 H 329.387 -3.2647 3.58667 0
M  V30 3311 H 325.266 -3.86276 2.51619 0
M  V30 3312 H 328.81 -3.62507 5.96015 0
M  V30 3313 H 324.707 -4.2244 4.88072 0
M  V30 3314 H 325.475 -4.31609 6.95454 0
M  V30 3315 N 328.138 -0.959301 -1.25041 0
M  V30 3316 C 329.386 -0.615393 -1.92503 0
M  V30 3317 C 329.707 0.850969 -1.75452 0
M  V30 3318 O 328.977 1.60658 -1.12098 0
M  V30 3319 H 327.557 -0.224613 -0.712431 0
M  V30 3320 H 330.219 -1.21855 -1.5211 0
M  V30 3321 H 329.315 -0.848738 -3.00338 0
M  V30 3322 N 329.616 1.39756 -0.72842 0
M  V30 3323 C 330.862 2.00942 -0.273892 0
M  V30 3324 C 331.195 1.57656 1.13394 0
M  V30 3325 O 330.47 0.802434 1.77176 0
M  V30 3326 C 330.753 3.58211 -0.368346 0
M  V30 3327 C 330.606 4.11534 -1.81548 0
M  V30 3328 C 331.925 4.39372 0.253054 0
M  V30 3329 H 329.044 0.730047 -0.100996 0
M  V30 3330 H 331.686 1.66056 -0.923337 0
M  V30 3331 H 329.836 3.88061 0.184588 0
M  V30 3332 H 331.508 3.92431 -2.42478 0
M  V30 3333 H 329.751 3.65341 -2.33898 0
M  V30 3334 H 330.422 5.20682 -1.83288 0
M  V30 3335 H 332.898 4.15527 -0.218224 0
M  V30 3336 H 331.774 5.48677 0.156585 0
M  V30 3337 H 332.035 4.21358 1.33826 0
M  V30 3338 N 331.094 0.475555 1.50254 0
M  V30 3339 C 332.057 -0.305016 2.27161 0
M  V30 3340 C 333.057 -0.916519 1.32123 0
M  V30 3341 O 334.247 -0.785003 1.5551 0
M  V30 3342 C 331.379 -1.43496 3.09227 0
M  V30 3343 H 332.572 0.369511 2.97615 0
M  V30 3344 H 330.125 0.229747 1.54602 0
M  V30 3345 H 330.86 -2.14441 2.43281 0
M  V30 3346 H 330.645 -1.00223 3.79075 0
M  V30 3347 H 332.135 -1.98548 3.67381 0
M  V30 3348 N 332.573 -1.56217 0.208337 0
M  V30 3349 C 333.52 -2.19699 -0.707192 0
M  V30 3350 C 334.49 -1.14836 -1.20008 0
M  V30 3351 O 335.675 -1.4314 -1.26157 0
M  V30 3352 C 332.815 -2.87061 -1.91546 0
M  V30 3353 C 331.928 -4.06483 -1.46271 0
M  V30 3354 C 331.063 -4.61665 -2.62752 0
M  V30 3355 C 330.102 -5.73417 -2.14147 0
M  V30 3356 N 329.239 -6.22948 -3.23853 0
M  V30 3357 H 334.079 -2.97575 -0.159111 0
M  V30 3358 H 331.616 -1.46948 -0.0667874 0
M  V30 3359 H 333.574 -3.24294 -2.62468 0
M  V30 3360 H 332.204 -2.11725 -2.43664 0
M  V30 3361 H 331.256 -3.74825 -0.648886 0
M  V30 3362 H 332.568 -4.87271 -1.06622 0
M  V30 3363 H 331.722 -5.01272 -3.41776 0
M  V30 3364 H 330.461 -3.80013 -3.05682 0
M  V30 3365 H 329.466 -5.33326 -1.33581 0
M  V30 3366 H 330.691 -6.56897 -1.72232 0
M  V30 3367 H 328.637 -5.44213 -3.6629 0
M  V30 3368 H 328.554 -6.98823 -2.88414 0
M  V30 3369 H 329.822 -6.6721 -4.03052 0
M  V30 3370 N 334.051 0.0651679 -1.57465 0
M  V30 3371 C 334.999 1.09542 -2.05191 0
M  V30 3372 C 335.993 1.39675 -0.958509 0
M  V30 3373 O 337.199 1.39003 -1.14359 0
M  V30 3374 H 333.574 0.370623 -0.654326 0
M  V30 3375 H 335.545 0.666802 -2.90854 0
M  V30 3376 C 334.294 2.39881 -2.51699 0
M  V30 3377 H 333.617 2.17547 -3.3543 0
M  V30 3378 H 335.057 3.104 -2.88839 0
M  V30 3379 C 333.516 3.0631 -1.40271 0
M  V30 3380 O 334.046 3.94664 -0.748523 0
M  V30 3381 N 332.252 2.67041 -1.14618 0
M  V30 3382 H 331.799 1.95281 -1.67997 0
M  V30 3383 H 331.757 3.1181 -0.402688 0
M  V30 3384 N 335.529 1.53961 0.336706 0
M  V30 3385 C 336.775 1.7179 1.07777 0
M  V30 3386 C 337.108 0.483263 1.88091 0
M  V30 3387 O 336.383 -0.519747 1.87427 0
M  V30 3388 C 336.666 2.98558 2.01334 0
M  V30 3389 C 336.519 4.32245 1.24437 0
M  V30 3390 C 337.838 3.21023 3.01052 0
M  V30 3391 H 334.957 0.625089 0.390426 0
M  V30 3392 H 337.599 1.86641 0.35567 0
M  V30 3393 H 335.749 2.86028 2.62908 0
M  V30 3394 H 337.421 4.56637 0.654243 0
M  V30 3395 H 335.664 4.30344 0.546458 0
M  V30 3396 H 336.335 5.17137 1.93063 0
M  V30 3397 H 338.811 3.32929 2.49595 0
M  V30 3398 H 337.687 4.11104 3.6371 0
M  V30 3399 H 337.948 2.37637 3.72802 0
M  V30 3400 N 337.007 -0.598083 1.45811 0
M  V30 3401 C 337.955 -1.72932 1.55555 0
M  V30 3402 C 338.949 -1.63984 0.424921 0
M  V30 3403 O 340.155 -1.69663 0.601205 0
M  V30 3404 H 336.53 -0.571489 0.488779 0
M  V30 3405 H 338.501 -1.61842 2.50699 0
M  V30 3406 C 337.25 -3.11318 1.54843 0
M  V30 3407 H 336.573 -3.18867 2.41172 0
M  V30 3408 H 338.013 -3.90274 1.65717 0
M  V30 3409 C 336.472 -3.3578 0.274427 0
M  V30 3410 O 337.002 -3.9654 -0.641778 0
M  V30 3411 N 335.208 -2.90119 0.167139 0
M  V30 3412 H 334.755 -2.40855 0.913596 0
M  V30 3413 H 334.713 -3.0686 -0.684435 0
M  V30 3414 N 338.485 -1.33259 -0.841409 0
M  V30 3415 C 339.734 -1.23921 -1.59143 0
M  V30 3416 C 340.047 0.1941 -1.94635 0
M  V30 3417 O 341.253 0.409474 -2.68394 0
M  V30 3418 C 339.709 -2.17119 -2.87032 0
M  V30 3419 C 339.317 -3.65606 -2.58914 0
M  V30 3420 C 341.061 -2.16648 -3.65053 0
M  V30 3421 C 338.968 -4.50726 -3.82884 0
M  V30 3422 H 337.898 -0.460264 -0.597221 0
M  V30 3423 H 340.549 -1.58307 -0.927959 0
M  V30 3424 H 338.931 -1.75663 -3.54906 0
M  V30 3425 H 340.105 -4.15487 -1.99267 0
M  V30 3426 H 338.42 -3.68341 -1.942 0
M  V30 3427 H 341.017 -2.77474 -4.57069 0
M  V30 3428 H 341.36 -1.16088 -3.99787 0
M  V30 3429 H 341.893 -2.56453 -3.041 0
M  V30 3430 H 338.632 -5.52151 -3.53283 0
M  V30 3431 H 338.152 -4.0559 -4.41879 0
M  V30 3432 H 339.831 -4.64401 -4.50489 0
M  V30 3433 N 339.963 1.05934 -1.16686 0
M  V30 3434 C 341.209 1.79065 -0.95203 0
M  V30 3435 C 341.542 1.87147 0.518629 0
M  V30 3436 O 340.817 1.36574 1.38484 0
M  V30 3437 C 341.1 3.23359 -1.58464 0
M  V30 3438 C 340.953 3.23336 -3.12689 0
M  V30 3439 C 342.272 4.21004 -1.28232 0
M  V30 3440 H 339.391 0.65005 -0.34728 0
M  V30 3441 H 342.033 1.23868 -1.44072 0
M  V30 3442 H 340.183 3.70493 -1.16908 0
M  V30 3443 H 341.855 2.84336 -3.6325 0
M  V30 3444 H 340.098 2.61886 -3.4583 0
M  V30 3445 H 340.769 4.25144 -3.52075 0
M  V30 3446 H 343.245 3.8233 -1.64203 0
M  V30 3447 H 342.121 5.20225 -1.75092 0
M  V30 3448 H 342.382 4.41639 -0.201791 0
M  V30 3449 N 341.441 0.965919 1.2453 0
M  V30 3450 C 342.689 0.625593 1.92174 0
M  V30 3451 C 343.01 -0.841652 1.75901 0
M  V30 3452 O 342.28 -1.60061 1.12948 0
M  V30 3453 H 340.86 0.228388 0.71123 0
M  V30 3454 H 343.522 1.2266 1.51461 0
M  V30 3455 H 342.618 0.864653 2.99884 0
M  V30 3456 N 342.919 -1.39368 0.735821 0
M  V30 3457 C 344.165 -2.00794 0.284544 0
M  V30 3458 C 344.498 -1.58255 -1.12557 0
M  V30 3459 O 343.773 -0.811819 -1.76748 0
M  V30 3460 C 344.056 -3.58011 0.387337 0
M  V30 3461 C 343.909 -4.10566 1.83728 0
M  V30 3462 C 345.228 -4.395 -0.22975 0
M  V30 3463 H 342.347 -0.729501 0.104866 0
M  V30 3464 H 344.989 -1.65564 0.93213 0
M  V30 3465 H 343.139 -3.88154 -0.164006 0
M  V30 3466 H 344.811 -3.91139 2.44556 0
M  V30 3467 H 343.054 -3.64095 2.35833 0
M  V30 3468 H 343.725 -5.19702 1.86047 0
M  V30 3469 H 346.201 -4.15406 0.240257 0
M  V30 3470 H 345.077 -5.48752 -0.127485 0
M  V30 3471 H 345.338 -4.22062 -1.3159 0
M  V30 3472 N 344.397 -0.483516 -1.5 0
M  V30 3473 C 345.813 -0.138404 -1.58999 0
M  V30 3474 C 346.013 1.35597 -1.4905 0
M  V30 3475 O 345.069 2.13039 -1.35539 0
M  V30 3476 C 346.382 -0.699658 -2.92447 0
M  V30 3477 C 347.93 -0.664195 -3.05872 0
M  V30 3478 C 348.405 -1.20321 -4.41913 0
M  V30 3479 N 349.896 -1.16315 -4.48358 0
M  V30 3480 C 350.631 -1.55058 -5.52037 0
M  V30 3481 N 350.127 -2.01311 -6.62907 0
M  V30 3482 N 351.92 -1.46584 -5.42651 0
M  V30 3483 H 344.071 -1.45529 -1.5471 0
M  V30 3484 H 346.334 -0.60258 -0.731848 0
M  V30 3485 H 346.04 -1.747 -3.05242 0
M  V30 3486 H 345.914 -0.150194 -3.76901 0
M  V30 3487 H 348.301 0.374272 -2.92717 0
M  V30 3488 H 348.382 -1.25061 -2.23144 0
M  V30 3489 H 348.026 -2.24037 -4.55818 0
M  V30 3490 H 347.956 -0.592896 -5.23252 0
M  V30 3491 H 350.447 -0.824058 -3.68806 0
M  V30 3492 H 350.76 -2.2899 -7.38095 0
M  V30 3493 H 349.105 -2.05273 -6.63994 0
M  V30 3494 H 352.296 -1.10281 -4.54924 0
M  V30 3495 H 352.469 -1.77103 -6.23329 0
M  V30 3496 N 345.875 1.56104 -0.216619 0
M  V30 3497 C 347.121 1.98466 0.417033 0
M  V30 3498 C 347.454 1.10403 1.59765 0
M  V30 3499 O 346.729 0.160632 1.93836 0
M  V30 3500 C 347.012 3.49769 0.85637 0
M  V30 3501 C 346.865 4.48606 -0.327546 0
M  V30 3502 C 348.184 4.05339 1.7143 0
M  V30 3503 H 345.303 0.721551 0.150112 0
M  V30 3504 H 347.945 1.87423 -0.311864 0
M  V30 3505 H 346.095 3.5931 1.47745 0
M  V30 3506 H 347.767 4.5108 -0.965618 0
M  V30 3507 H 346.01 4.22682 -0.975805 0
M  V30 3508 H 346.681 5.51995 0.0227149 0
M  V30 3509 H 349.157 3.98712 1.19031 0
M  V30 3510 H 348.033 5.11533 1.99061 0
M  V30 3511 H 348.294 3.51918 2.67593 0
M  V30 3512 N 347.353 -0.0568162 1.57498 0
M  V30 3513 C 348.283 -1.06593 2.0775 0
M  V30 3514 C 349.264 -1.39448 0.974082 0
M  V30 3515 O 350.449 -1.48815 1.24771 0
M  V30 3516 C 347.579 -2.37509 2.5339 0
M  V30 3517 C 346.533 -2.1897 3.67745 0
M  V30 3518 C 345.859 -3.55402 3.99492 0
M  V30 3519 C 347.159 -1.59859 4.97235 0
M  V30 3520 H 348.853 -0.647706 2.9231 0
M  V30 3521 H 346.399 -0.310116 1.40621 0
M  V30 3522 H 348.352 -3.08409 2.87162 0
M  V30 3523 H 347.076 -2.8134 1.65878 0
M  V30 3524 H 345.735 -1.50508 3.3428 0
M  V30 3525 H 345.383 -3.9683 3.09088 0
M  V30 3526 H 345.083 -3.43831 4.76502 0
M  V30 3527 H 346.607 -4.27708 4.35773 0
M  V30 3528 H 348.021 -2.20642 5.29141 0
M  V30 3529 H 346.418 -1.58942 5.78669 0
M  V30 3530 H 347.488 -0.561506 4.81638 0
M  V30 3531 N 348.832 -1.54138 -0.328536 0
M  V30 3532 C 350.057 -1.76378 -1.09112 0
M  V30 3533 C 350.482 -0.508596 -1.81094 0
M  V30 3534 O 349.84 0.539598 -1.73084 0
M  V30 3535 C 349.888 -2.95358 -2.06872 0
M  V30 3536 O 348.992 -2.66556 -3.14677 0
M  V30 3537 H 348.333 -0.584614 -0.314838 0
M  V30 3538 H 350.863 -2.01146 -0.374348 0
M  V30 3539 H 350.873 -3.22566 -2.4983 0
M  V30 3540 H 349.548 -3.86385 -1.5388 0
M  V30 3541 H 348.125 -2.50282 -2.7643 0
M  V30 3542 N 350.31 0.590341 -1.46126 0
M  V30 3543 C 351.55 1.35995 -1.52593 0
M  V30 3544 C 351.914 1.91243 -0.170368 0
M  V30 3545 O 353.115 2.68576 -0.109775 0
M  V30 3546 C 351.386 2.46465 -2.58823 0
M  V30 3547 S 352.945 3.33953 -2.84641 0
M  V30 3548 H 349.763 0.463425 -0.53922 0
M  V30 3549 H 352.365 0.67944 -1.83314 0
M  V30 3550 H 351.069 2.04256 -3.5596 0
M  V30 3551 H 350.6 3.19297 -2.2981 0
M  V30 3552 H 352.615 4.45094 -2.19331 0
M  V30 3553 N 351.788 1.33704 0.83433 0
M  V30 3554 C 353.013 1.28615 1.62705 0
M  V30 3555 C 353.438 -0.139242 1.87584 0
M  V30 3556 O 352.796 -1.09734 1.4432 0
M  V30 3557 C 352.844 2.07139 2.95171 0
M  V30 3558 O 351.948 1.4331 3.86699 0
M  V30 3559 H 351.289 0.44226 0.49528 0
M  V30 3560 H 353.819 1.76335 1.03766 0
M  V30 3561 H 353.829 2.18073 3.44831 0
M  V30 3562 H 352.504 3.10779 2.76386 0
M  V30 3563 H 351.081 1.4105 3.45195 0
M  V30 3564 N 353.266 -1.05314 1.17247 0
M  V30 3565 C 354.514 -1.77941 0.958194 0
M  V30 3566 C 354.835 -1.88089 -0.514556 0
M  V30 3567 O 354.105 -1.39676 -1.37359 0
M  V30 3568 H 352.685 -0.659116 0.351533 0
M  V30 3569 H 355.347 -1.27166 1.47699 0
M  V30 3570 H 354.443 -2.79663 1.38546 0
M  V30 3571 N 354.744 -0.972509 -1.24016 0
M  V30 3572 C 355.969 -0.654417 -1.96805 0
M  V30 3573 C 356.394 0.770398 -1.716 0
M  V30 3574 O 355.752 1.52361 -0.982647 0
M  V30 3575 C 355.8 -0.941031 -3.48105 0
M  V30 3576 O 354.904 -0.0289472 -4.1239 0
M  V30 3577 H 354.245 -0.24692 -0.616382 0
M  V30 3578 H 356.775 -1.30396 -1.57664 0
M  V30 3579 H 356.785 -0.87452 -3.98517 0
M  V30 3580 H 355.46 -1.97939 -3.65777 0
M  V30 3581 H 354.037 -0.149192 -3.72601 0
M  V30 3582 N 356.222 1.38976 -0.743202 0
M  V30 3583 C 357.47 1.99948 -0.29417 0
M  V30 3584 C 357.791 1.59279 1.12495 0
M  V30 3585 O 357.061 0.844808 1.76748 0
M  V30 3586 H 355.641 0.739473 -0.105774 0
M  V30 3587 H 358.303 1.699 -0.954986 0
M  V30 3588 H 357.399 3.10142 -0.349056 0
M  V30 3589 N 357.7 0.491464 1.49741 0
M  V30 3590 C 358.928 -0.0535151 2.06831 0
M  V30 3591 C 359.343 -1.31683 1.35296 0
M  V30 3592 O 358.7 -1.77402 0.42836 0
M  V30 3593 C 358.751 -0.320835 3.60073 0
M  V30 3594 O 358.472 0.892394 4.28915 0
M  V30 3595 C 359.973 -0.910519 4.33848 0
M  V30 3596 H 357.193 0.0161909 0.670805 0
M  V30 3597 H 359.737 0.68609 1.92647 0
M  V30 3598 H 357.892 -1.0104 3.73991 0
M  V30 3599 H 358.306 0.649401 5.20464 0
M  V30 3600 H 359.78 -1.04721 5.41976 0
M  V30 3601 H 360.257 -1.90589 3.95692 0
M  V30 3602 H 360.863 -0.258712 4.24512 0
M  V30 3603 N 359.178 -1.55987 0.224894 0
M  V30 3604 C 360.406 -2.02784 -0.410665 0
M  V30 3605 C 360.821 -1.10464 -1.53112 0
M  V30 3606 O 360.178 -0.114871 -1.82138 0
M  V30 3607 C 360.229 -3.49087 -0.939165 0
M  V30 3608 O 359.95 -4.37887 0.136614 0
M  V30 3609 C 361.451 -4.11543 -1.64763 0
M  V30 3610 H 358.671 -0.663484 -0.100148 0
M  V30 3611 H 361.215 -2.01614 0.342326 0
M  V30 3612 H 359.37 -3.50861 -1.64242 0
M  V30 3613 H 359.784 -5.23849 -0.261155 0
M  V30 3614 H 361.258 -5.15673 -1.96939 0
M  V30 3615 H 361.735 -3.56736 -2.56195 0
M  V30 3616 H 362.341 -4.13629 -0.989503 0
M  V30 3617 N 360.656 0.0484629 -1.57525 0
M  V30 3618 C 361.881 0.759177 -1.93006 0
M  V30 3619 C 362.306 1.69125 -0.823317 0
M  V30 3620 O 361.664 1.79931 0.222364 0
M  V30 3621 C 361.712 1.50899 -3.27509 0
M  V30 3622 O 360.816 2.62112 -3.18388 0
M  V30 3623 H 360.157 0.205564 -0.631379 0
M  V30 3624 H 362.687 0.00972959 -2.04598 0
M  V30 3625 H 362.697 1.88317 -3.6194 0
M  V30 3626 H 361.372 0.825269 -4.0763 0
M  V30 3627 H 359.949 2.27379 -2.95556 0
M  V30 3628 N 362.134 1.5431 0.320358 0
M  V30 3629 C 363.382 1.72327 1.05583 0
M  V30 3630 C 363.703 0.50149 1.88441 0
M  V30 3631 O 362.973 -0.48448 1.89815 0
M  V30 3632 H 361.553 0.635387 0.3928 0
M  V30 3633 H 364.215 1.91621 0.356019 0
M  V30 3634 H 363.311 2.60426 1.72003 0
M  V30 3635 N 363.613 -0.582584 1.46437 0
M  V30 3636 C 364.859 -1.34278 1.51978 0
M  V30 3637 C 365.192 -1.93446 0.170973 0
M  V30 3638 O 364.467 -1.76481 -0.817608 0
M  V30 3639 C 364.75 -2.47203 2.61845 0
M  V30 3640 C 364.603 -1.93069 4.06257 0
M  V30 3641 C 365.922 -3.49247 2.67795 0
M  V30 3642 H 363.041 -0.486876 0.553282 0
M  V30 3643 H 365.683 -0.654437 1.78374 0
M  V30 3644 H 363.833 -3.0592 2.39469 0
M  V30 3645 H 365.505 -1.38808 4.3992 0
M  V30 3646 H 363.748 -1.23898 4.1573 0
M  V30 3647 H 364.419 -2.74586 4.7886 0
M  V30 3648 H 366.895 -3.00411 2.8791 0
M  V30 3649 H 365.771 -4.25719 3.46489 0
M  V30 3650 H 366.032 -4.06482 1.73852 0
M  V30 3651 N 365.091 -1.34144 -0.827227 0
M  V30 3652 C 366.34 -1.25602 -1.5782 0
M  V30 3653 C 366.653 0.173445 -1.94829 0
M  V30 3654 O 367.859 0.380984 -2.68814 0
M  V30 3655 C 366.315 -2.20151 -2.84713 0
M  V30 3656 C 365.923 -3.68331 -2.55021 0
M  V30 3657 C 367.667 -2.20508 -3.62735 0
M  V30 3658 C 365.574 -4.54762 -3.78082 0
M  V30 3659 H 364.504 -0.466573 -0.592306 0
M  V30 3660 H 367.155 -1.59283 -0.911116 0
M  V30 3661 H 365.537 -1.79417 -3.53023 0
M  V30 3662 H 366.711 -4.17577 -1.94849 0
M  V30 3663 H 365.026 -3.7038 -1.90283 0
M  V30 3664 H 367.623 -2.82306 -4.54101 0
M  V30 3665 H 367.966 -1.20322 -3.98533 0
M  V30 3666 H 368.499 -2.59664 -3.01362 0
M  V30 3667 H 365.238 -5.55867 -3.47407 0
M  V30 3668 H 364.758 -4.10254 -4.37552 0
M  V30 3669 H 366.437 -4.69153 -4.45538 0
M  V30 3670 N 366.569 1.04691 -1.17803 0
M  V30 3671 C 367.794 1.81984 -0.994813 0
M  V30 3672 C 368.219 1.82586 0.452112 0
M  V30 3673 O 367.577 1.23854 1.324 0
M  V30 3674 C 367.625 3.2575 -1.54659 0
M  V30 3675 O 366.729 4.05267 -0.763728 0
M  V30 3676 H 366.07 0.562483 -0.352857 0
M  V30 3677 H 368.6 1.3189 -1.56417 0
M  V30 3678 H 368.61 3.76541 -1.57102 0
M  V30 3679 H 367.285 3.24627 -2.59981 0
M  V30 3680 H 365.862 3.63972 -0.811108 0
M  V30 3681 N 368.047 0.979072 1.23499 0
M  V30 3682 C 369.295 0.645941 1.91499 0
M  V30 3683 C 369.616 -0.822948 1.76784 0
M  V30 3684 O 368.886 -1.58854 1.14639 0
M  V30 3685 H 367.466 0.235919 0.708767 0
M  V30 3686 H 370.128 1.2426 1.50152 0
M  V30 3687 H 369.224 0.896411 2.9895 0
M  V30 3688 N 369.525 -1.3858 0.750561 0
M  V30 3689 C 370.771 -2.00481 0.305825 0
M  V30 3690 C 371.104 -1.5944 -1.10872 0
M  V30 3691 O 370.379 -0.83052 -1.75877 0
M  V30 3692 C 370.662 -3.5758 0.425287 0
M  V30 3693 C 370.515 -4.08594 1.88072 0
M  V30 3694 C 371.834 -4.39719 -0.183122 0
M  V30 3695 H 368.953 -0.728348 0.112598 0
M  V30 3696 H 371.595 -1.64566 0.949638 0
M  V30 3697 H 369.745 -3.88306 -0.122828 0
M  V30 3698 H 371.417 -3.88523 2.48691 0
M  V30 3699 H 369.66 -3.61574 2.39681 0
M  V30 3700 H 370.331 -5.177 1.91548 0
M  V30 3701 H 372.807 -4.15128 0.284303 0
M  V30 3702 H 371.683 -5.48856 -0.0692757 0
M  V30 3703 H 371.944 -4.23434 -1.27106 0
M  V30 3704 N 371.003 -0.499398 -1.49478 0
M  V30 3705 C 372.28 0.108629 -1.95298 0
M  V30 3706 C 372.66 1.54282 -1.44084 0
M  V30 3707 O 372.008 2.18944 -0.653908 0
M  V30 3708 C 372.218 0.0229111 -3.48992 0
M  V30 3709 C 373.566 0.197643 -4.2414 0
M  V30 3710 O 374.59 0.0981735 -3.56065 0
M  V30 3711 O 373.449 0.401669 -5.45022 0
M  V30 3712 H 370.543 0.096181 -0.821388 0
M  V30 3713 H 373.089 -0.561822 -1.6013 0
M  V30 3714 H 371.861 -0.977321 -3.78899 0
M  V30 3715 H 371.484 0.733579 -3.90774 0
M  V30 3716 N 372.481 1.55866 -0.233164 0
M  V30 3717 C 373.727 1.99643 0.389148 0
M  V30 3718 C 374.082 1.11836 1.56558 0
M  V30 3719 O 373.375 0.170848 1.90837 0
M  V30 3720 C 373.569 3.46856 0.861724 0
M  V30 3721 C 373.398 4.48904 -0.267376 0
M  V30 3722 C 372.168 4.99888 -0.737577 0
M  V30 3723 C 374.366 5.02624 -1.08966 0
M  V30 3724 N 372.348 5.8566 -1.84052 0
M  V30 3725 C 373.719 5.85434 -2.04125 0
M  V30 3726 C 375.774 4.84959 -1.12779 0
M  V30 3727 C 374.477 6.52466 -3.02789 0
M  V30 3728 C 376.503 5.52759 -2.10266 0
M  V30 3729 C 375.865 6.35346 -3.04162 0
M  V30 3730 H 371.964 0.774402 0.108742 0
M  V30 3731 H 374.548 1.91572 -0.347596 0
M  V30 3732 H 372.719 3.55352 1.5678 0
M  V30 3733 H 374.451 3.77531 1.45783 0
M  V30 3734 H 371.206 4.7249 -0.324122 0
M  V30 3735 H 371.63 6.33246 -2.39434 0
M  V30 3736 H 376.272 4.20751 -0.415749 0
M  V30 3737 H 373.99 7.15849 -3.74948 0
M  V30 3738 H 377.576 5.41051 -2.13905 0
M  V30 3739 H 376.456 6.86883 -3.78366 0
M  V30 3740 N 373.959 -0.0401083 1.57549 0
M  V30 3741 C 375.205 -0.734211 1.89043 0
M  V30 3742 C 375.538 -1.75591 0.829535 0
M  V30 3743 O 374.813 -1.93868 -0.156706 0
M  V30 3744 C 375.096 -1.41374 3.31188 0
M  V30 3745 C 374.949 -0.406299 4.47961 0
M  V30 3746 C 376.268 -2.35061 3.72068 0
M  V30 3747 H 373.387 -0.265447 0.687537 0
M  V30 3748 H 376.029 0.00294087 1.9 0
M  V30 3749 H 374.179 -2.04206 3.30503 0
M  V30 3750 H 375.851 0.219255 4.60779 0
M  V30 3751 H 374.094 0.275485 4.32924 0
M  V30 3752 H 374.765 -0.920022 5.44279 0
M  V30 3753 H 377.241 -1.82282 3.74049 0
M  V30 3754 H 376.117 -2.79593 4.72355 0
M  V30 3755 H 376.378 -3.21258 3.0372 0
M  V30 3756 N 375.437 -1.54477 -0.31217 0
M  V30 3757 C 376.4 -1.83923 -1.36766 0
M  V30 3758 C 377.4 -0.711563 -1.44199 0
M  V30 3759 O 378.59 -0.979866 -1.44029 0
M  V30 3760 C 375.722 -2.0095 -2.75376 0
M  V30 3761 H 376.915 -2.78239 -1.11906 0
M  V30 3762 H 374.468 -1.46369 -0.548257 0
M  V30 3763 H 375.203 -1.08883 -3.05475 0
M  V30 3764 H 374.988 -2.83018 -2.71373 0
M  V30 3765 H 376.478 -2.2514 -3.51713 0
M  V30 3766 N 376.915 0.57481 -1.46744 0
M  V30 3767 C 377.847 1.69804 -1.53946 0
M  V30 3768 C 378.86 1.57098 -0.427106 0
M  V30 3769 O 380.049 1.64378 -0.695863 0
M  V30 3770 C 377.149 3.08125 -1.4111 0
M  V30 3771 C 376.322 3.46757 -2.66605 0
M  V30 3772 C 375.381 4.6417 -2.47855 0
M  V30 3773 O 374.407 4.69634 -3.21609 0
M  V30 3774 N 375.609 5.59553 -1.54534 0
M  V30 3775 H 378.374 1.64077 -2.50796 0
M  V30 3776 H 375.935 0.761 -1.429 0
M  V30 3777 H 377.927 3.84478 -1.26328 0
M  V30 3778 H 376.497 3.08175 -0.524109 0
M  V30 3779 H 375.717 2.6003 -2.96274 0
M  V30 3780 H 377.005 3.69337 -3.49954 0
M  V30 3781 H 376.403 5.57881 -0.937304 0
M  V30 3782 H 374.96 6.35304 -1.45711 0
M  V30 3783 N 378.394 1.34581 0.820102 0
M  V30 3784 C 379.342 1.26401 1.95258 0
M  V30 3785 C 380.336 0.161553 1.68628 0
M  V30 3786 O 381.542 0.326703 1.7701 0
M  V30 3787 H 377.917 0.392749 0.64129 0
M  V30 3788 H 379.888 2.22105 1.99279 0
M  V30 3789 C 378.637 1.03919 3.31807 0
M  V30 3790 H 377.96 1.87984 3.52848 0
M  V30 3791 H 379.4 1.02232 4.11491 0
M  V30 3792 C 377.859 -0.257433 3.35915 0
M  V30 3793 O 378.389 -1.25784 3.81499 0
M  V30 3794 N 376.595 -0.291524 2.89134 0
M  V30 3795 H 376.142 0.523161 2.52232 0
M  V30 3796 H 376.1 -1.15883 2.92264 0
M  V30 3797 N 379.872 -1.04064 1.18357 0
M  V30 3798 C 380.835 -2.10243 0.912707 0
M  V30 3799 C 381.835 -1.60477 -0.101928 0
M  V30 3800 O 383.025 -1.73703 0.131517 0
M  V30 3801 C 380.157 -3.38893 0.369387 0
M  V30 3802 H 381.35 -2.35706 1.85426 0
M  V30 3803 H 378.903 -1.20489 0.995594 0
M  V30 3804 H 379.638 -3.19094 -0.578776 0
M  V30 3805 H 379.423 -3.76331 1.1008 0
M  V30 3806 H 380.913 -4.17128 0.198575 0
M  V30 3807 N 381.35 -0.985608 -1.22978 0
M  V30 3808 C 382.575 -0.675254 -1.961 0
M  V30 3809 C 383 0.752154 -1.72407 0
M  V30 3810 O 382.358 1.5131 -0.998751 0
M  V30 3811 C 382.406 -0.977899 -3.47087 0
M  V30 3812 O 381.51 -0.072685 -4.12336 0
M  V30 3813 H 380.851 -0.253443 -0.613728 0
M  V30 3814 H 383.381 -1.32061 -1.56272 0
M  V30 3815 H 383.391 -0.916739 -3.97567 0
M  V30 3816 H 382.066 -2.01807 -3.63657 0
M  V30 3817 H 380.643 -0.188703 -3.72422 0
M  V30 3818 N 382.828 1.3818 -0.7579 0
M  V30 3819 C 384.076 1.99624 -0.315361 0
M  V30 3820 C 384.397 1.60464 1.10799 0
M  V30 3821 O 383.667 0.863507 1.75842 0
M  V30 3822 H 382.247 0.73831 -0.113611 0
M  V30 3823 H 384.909 1.68878 -0.972952 0
M  V30 3824 H 384.005 3.09754 -0.381931 0
M  V30 3825 N 384.306 0.507319 1.49211 0
M  V30 3826 C 385.717 0.0611118 1.866 0
M  V30 3827 C 386.068 -1.35488 1.41907 0
M  V30 3828 O 385.193 -2.0108 0.799726 0
M  V30 3829 C 385.788 0.104125 3.3864 0
M  V30 3830 C 384.347 -0.28677 3.75306 0
M  V30 3831 C 383.494 0.473893 2.73221 0
M  V30 3832 H 386.445 0.719775 1.41439 0
M  V30 3833 H 386.466 -0.689672 3.74198 0
M  V30 3834 H 385.978 1.13482 3.71138 0
M  V30 3835 H 384.079 -1.32046 3.48417 0
M  V30 3836 H 384.192 0.0370745 4.79086 0
M  V30 3837 H 382.556 -0.0770644 2.54583 0
M  V30 3838 H 383.339 1.50478 3.08563 0
M  V30 3839 N 385.784 -1.5574 0.241426 0
M  V30 3840 C 387.009 -2.0366 -0.392111 0
M  V30 3841 C 387.434 -1.11969 -1.51144 0
M  V30 3842 O 386.792 -0.111594 -1.80956 0
M  V30 3843 C 386.84 -3.49638 -0.882371 0
M  V30 3844 O 385.944 -3.6108 -1.99235 0
M  V30 3845 H 385.285 -0.658379 -0.0862122 0
M  V30 3846 H 387.815 -2.01302 0.365881 0
M  V30 3847 H 387.825 -3.90351 -1.18702 0
M  V30 3848 H 386.5 -4.15852 -0.0632361 0
M  V30 3849 H 385.077 -3.32262 -1.69282 0
M  V30 3850 N 387.262 0.0317525 -1.57568 0
M  V30 3851 C 388.508 0.724175 -1.8943 0
M  V30 3852 C 388.841 1.75149 -0.838836 0
M  V30 3853 O 388.116 1.93948 0.146422 0
M  V30 3854 C 388.399 1.39615 -3.31933 0
M  V30 3855 C 388.252 0.382537 -4.4817 0
M  V30 3856 C 389.571 2.33084 -3.73309 0
M  V30 3857 H 386.69 0.261797 -0.688935 0
M  V30 3858 H 389.332 -0.013017 -1.89996 0
M  V30 3859 H 387.482 2.02451 -3.31581 0
M  V30 3860 H 389.154 -0.243689 -4.60656 0
M  V30 3861 H 387.397 -0.29844 -4.32772 0
M  V30 3862 H 388.068 0.891145 -5.44759 0
M  V30 3863 H 390.544 1.80295 -3.7501 0
M  V30 3864 H 389.42 2.77084 -4.73831 0
M  V30 3865 H 389.681 3.19643 -3.05419 0
M  V30 3866 N 388.74 1.54641 0.303973 0
M  V30 3867 C 389.703 1.84646 1.35789 0
M  V30 3868 C 390.703 0.7192 1.4382 0
M  V30 3869 O 391.893 0.987491 1.43507 0
M  V30 3870 C 389.025 2.02407 2.74307 0
M  V30 3871 H 390.218 2.78829 1.10429 0
M  V30 3872 H 387.771 1.46658 0.540487 0
M  V30 3873 H 388.506 1.10502 3.04893 0
M  V30 3874 H 388.291 2.84453 2.69868 0
M  V30 3875 H 389.781 2.27002 3.50514 0
M  V30 3876 N 390.218 -0.567019 1.47046 0
M  V30 3877 C 391.166 -1.69593 1.59188 0
M  V30 3878 C 392.16 -1.63046 0.459609 0
M  V30 3879 O 393.366 -1.6835 0.637058 0
M  V30 3880 H 389.741 -0.560993 0.500791 0
M  V30 3881 H 391.712 -1.56488 2.54075 0
M  V30 3882 C 390.461 -3.07964 1.61411 0
M  V30 3883 H 389.784 -3.13679 2.47881 0
M  V30 3884 H 391.224 -3.86671 1.73958 0
M  V30 3885 C 389.683 -3.35123 0.34559 0
M  V30 3886 O 390.213 -3.97812 -0.557521 0
M  V30 3887 N 388.419 -2.89699 0.22864 0
M  V30 3888 H 387.966 -2.38863 0.964479 0
M  V30 3889 H 387.924 -3.08242 -0.619192 0
M  V30 3890 N 391.696 -1.35014 -0.812953 0
M  V30 3891 C 392.629 -1.21761 -1.93001 0
M  V30 3892 C 393.607 -0.10694 -1.62248 0
M  V30 3893 O 394.791 -0.273891 -1.865 0
M  V30 3894 C 391.918 -0.873404 -3.27245 0
M  V30 3895 C 390.964 -1.99523 -3.76952 0
M  V30 3896 S 391.797 -3.61009 -3.95516 0
M  V30 3897 C 392.953 -3.28651 -5.32672 0
M  V30 3898 H 393.186 -2.16315 -2.03948 0
M  V30 3899 H 390.719 -1.20156 -0.969631 0
M  V30 3900 H 392.677 -0.68161 -4.04802 0
M  V30 3901 H 391.338 0.053971 -3.14054 0
M  V30 3902 H 390.531 -1.70838 -4.74163 0
M  V30 3903 H 390.133 -2.14503 -3.06373 0
M  V30 3904 H 392.425 -2.81085 -6.1644 0
M  V30 3905 H 393.368 -4.25039 -5.66346 0
M  V30 3906 H 393.776 -2.6458 -4.98656 0
M  V30 3907 N 393.175 1.03435 -1.18907 0
M  V30 3908 C 394.4 1.80919 -1.01406 0
M  V30 3909 C 394.825 1.83055 0.432721 0
M  V30 3910 O 394.183 1.25252 1.31079 0
M  V30 3911 C 394.231 3.24091 -1.58105 0
M  V30 3912 O 393.335 4.04434 -0.806669 0
M  V30 3913 H 392.676 0.558709 -0.358803 0
M  V30 3914 H 395.206 1.30223 -1.57807 0
M  V30 3915 H 395.216 3.74853 -1.61087 0
M  V30 3916 H 393.891 3.21851 -2.6341 0
M  V30 3917 H 392.468 3.63091 -0.849666 0
M  V30 3918 N 394.653 0.992116 1.22453 0
M  V30 3919 C 395.583 0.561677 2.26644 0
M  V30 3920 C 396.564 -0.411055 1.65059 0
M  V30 3921 O 397.749 -0.301861 1.9184 0
M  V30 3922 C 394.879 -0.125247 3.47074 0
M  V30 3923 C 393.833 0.765948 4.21091 0
M  V30 3924 C 393.159 -0.0538484 5.34673 0
M  V30 3925 C 394.459 2.06242 4.79856 0
M  V30 3926 H 396.153 1.43259 2.62902 0
M  V30 3927 H 393.699 0.690283 1.26377 0
M  V30 3928 H 395.652 -0.437764 4.1912 0
M  V30 3929 H 394.376 -1.03069 3.0991 0
M  V30 3930 H 393.035 1.0621 3.50878 0
M  V30 3931 H 392.683 -0.960188 4.9375 0
M  V30 3932 H 392.383 0.539415 5.85119 0
M  V30 3933 H 393.907 -0.360477 6.09535 0
M  V30 3934 H 395.321 1.8139 5.43848 0
M  V30 3935 H 393.718 2.60444 5.40638 0
M  V30 3936 H 394.788 2.74167 3.99951 0
M  V30 3937 N 396.131 -1.37776 0.765217 0
M  V30 3938 C 397.379 -1.99454 0.325943 0
M  V30 3939 C 397.7 -1.61049 -1.09947 0
M  V30 3940 O 396.97 -0.872821 -1.75381 0
M  V30 3941 H 395.55 -0.737697 0.117525 0
M  V30 3942 H 398.212 -1.68359 0.981895 0
M  V30 3943 H 397.308 -3.09547 0.398353 0
M  V30 3944 N 397.609 -0.515225 -1.4894 0
M  V30 3945 C 398.857 0.0241671 -2.02086 0
M  V30 3946 C 399.178 1.3616 -1.3959 0
M  V30 3947 O 398.448 1.87841 -0.556121 0
M  V30 3948 H 397.028 0.0119203 -0.746905 0
M  V30 3949 H 399.69 -0.675702 -1.82812 0
M  V30 3950 H 398.786 0.143385 -3.1177 0
M  V30 3951 N 399.087 1.5561 -0.249682 0
M  V30 3952 C 400.335 1.98618 0.373548 0
M  V30 3953 C 400.656 1.13919 1.58264 0
M  V30 3954 O 399.926 0.222637 1.94631 0
M  V30 3955 H 398.506 0.733571 0.141006 0
M  V30 3956 H 401.168 1.91748 -0.349117 0
M  V30 3957 H 400.264 3.04584 0.680796 0
M  V30 3958 N 400.565 -0.0233959 1.57583 0
M  V30 3959 C 401.497 -1.04994 2.03737 0
M  V30 3960 C 402.51 -1.32125 0.951152 0
M  V30 3961 O 403.699 -1.29512 1.22837 0
M  V30 3962 C 400.799 -2.39026 2.40249 0
M  V30 3963 C 399.972 -2.31171 3.7132 0
M  V30 3964 C 399.031 -3.47698 3.94959 0
M  V30 3965 O 398.057 -3.26937 4.65941 0
M  V30 3966 N 399.259 -4.6976 3.41037 0
M  V30 3967 H 402.024 -0.656507 2.92421 0
M  V30 3968 H 399.585 -0.211235 1.60516 0
M  V30 3969 H 401.577 -3.15712 2.53196 0
M  V30 3970 H 400.147 -2.70194 1.57207 0
M  V30 3971 H 399.367 -1.39547 3.68674 0
M  V30 3972 H 400.655 -2.23071 4.57293 0
M  V30 3973 H 400.053 -4.89528 2.83512 0
M  V30 3974 H 398.61 -5.43791 3.59353 0
M  V30 3975 N 402.043 -1.548 -0.295768 0
M  V30 3976 C 403.268 -1.78653 -1.05346 0
M  V30 3977 C 403.693 -0.546894 -1.79974 0
M  V30 3978 O 403.051 0.502763 -1.7419 0
M  V30 3979 C 403.099 -2.99679 -2.00561 0
M  V30 3980 O 402.203 -2.7317 -3.08953 0
M  V30 3981 H 401.544 -0.59116 -0.302367 0
M  V30 3982 H 404.074 -2.01895 -0.331598 0
M  V30 3983 H 404.084 -3.27793 -2.42932 0
M  V30 3984 H 402.759 -3.89562 -1.4565 0
M  V30 3985 H 401.336 -2.56089 -2.71059 0
M  V30 3986 N 403.521 0.559213 -1.47345 0
M  V30 3987 C 404.749 1.34194 -1.57479 0
M  V30 3988 C 405.164 1.87463 -0.224261 0
M  V30 3989 O 404.521 1.64888 0.782185 0
M  V30 3990 C 404.572 2.51324 -2.59843 0
M  V30 3991 O 404.293 2.00256 -3.89653 0
M  V30 3992 C 405.794 3.43563 -2.80142 0
M  V30 3993 H 403.014 0.409136 -0.531835 0
M  V30 3994 H 405.558 0.677609 -1.92947 0
M  V30 3995 H 403.713 3.13699 -2.27314 0
M  V30 3996 H 404.127 2.76708 -4.4557 0
M  V30 3997 H 405.601 4.2217 -3.55635 0
M  V30 3998 H 406.078 3.9698 -1.87892 0
M  V30 3999 H 406.684 2.87005 -3.1386 0
M  V30 4000 N 404.999 1.35443 0.805782 0
M  V30 4001 C 405.962 1.28301 1.89925 0
M  V30 4002 C 406.962 0.194285 1.59622 0
M  V30 4003 O 408.152 0.448036 1.6834 0
M  V30 4004 C 405.284 0.984997 3.2636 0
M  V30 4005 H 406.477 2.2553 1.97677 0
M  V30 4006 H 404.03 1.19979 1.00173 0
M  V30 4007 H 404.765 0.016603 3.24296 0
M  V30 4008 H 404.55 1.77269 3.4974 0
M  V30 4009 H 406.04 0.960651 4.064 0
M  V30 4010 N 406.477 -1.02803 1.19454 0
M  V30 4011 C 407.407 -2.12999 0.956758 0
M  V30 4012 C 408.388 -1.69743 -0.110188 0
M  V30 4013 O 409.573 -1.94148 0.0450038 0
M  V30 4014 C 406.703 -3.43746 0.495553 0
M  V30 4015 C 405.657 -4.00688 1.50443 0
M  V30 4016 C 404.983 -5.27067 0.900275 0
M  V30 4017 C 406.283 -4.35397 2.8849 0
M  V30 4018 H 407.977 -2.33148 1.87836 0
M  V30 4019 H 405.523 -1.12045 0.904539 0
M  V30 4020 H 407.476 -4.2021 0.316493 0
M  V30 4021 H 406.2 -3.23321 -0.461646 0
M  V30 4022 H 404.859 -3.2632 1.67065 0
M  V30 4023 H 404.507 -5.02959 -0.064503 0
M  V30 4024 H 404.207 -5.66127 1.57397 0
M  V30 4025 H 405.731 -6.06196 0.73203 0
M  V30 4026 H 407.145 -5.02795 2.75446 0
M  V30 4027 H 405.542 -4.85541 3.52661 0
M  V30 4028 H 406.612 -3.44662 3.41081 0
M  V30 4029 N 407.956 -0.998596 -1.21925 0
M  V30 4030 C 409.233 -0.593401 -1.86382 0
M  V30 4031 C 409.613 0.92916 -1.89552 0
M  V30 4032 O 408.961 1.81347 -1.39017 0
M  V30 4033 C 409.171 -1.22039 -3.26967 0
M  V30 4034 C 410.519 -1.32449 -4.03413 0
M  V30 4035 O 411.543 -1.17522 -3.36254 0
M  V30 4036 O 410.402 -1.56395 -5.23644 0
M  V30 4037 H 407.496 -0.202385 -0.801854 0
M  V30 4038 H 410.042 -1.09484 -1.29659 0
M  V30 4039 H 408.814 -2.26158 -3.19325 0
M  V30 4040 H 408.437 -0.704906 -3.91301 0
M  V30 4041 N 409.434 1.37368 -0.772513 0
M  V30 4042 C 410.659 2.0447 -0.347386 0
M  V30 4043 C 411.084 1.57882 1.0225 0
M  V30 4044 O 410.442 0.73941 1.65537 0
M  V30 4045 C 410.49 3.58369 -0.400479 0
M  V30 4046 O 409.594 4.0803 0.598789 0
M  V30 4047 H 408.935 0.646773 -0.15027 0
M  V30 4048 H 411.465 1.75667 -1.04892 0
M  V30 4049 H 411.475 4.07183 -0.258045 0
M  V30 4050 H 410.15 3.91633 -1.39986 0
M  V30 4051 H 408.727 3.70534 0.419411 0
M  V30 4052 N 410.912 0.523116 1.48665 0
M  V30 4053 C 411.875 -0.232592 2.28017 0
M  V30 4054 C 412.875 -0.874021 1.34972 0
M  V30 4055 O 414.065 -0.735132 1.57929 0
M  V30 4056 C 411.197 -1.33586 3.13636 0
M  V30 4057 H 412.39 0.464008 2.96289 0
M  V30 4058 H 409.943 0.278816 1.53793 0
M  V30 4059 H 410.678 -2.06593 2.4998 0
M  V30 4060 H 410.463 -0.881125 3.82071 0
M  V30 4061 H 411.953 -1.86759 3.73511 0
M  V30 4062 N 412.39 -1.55475 0.257931 0
M  V30 4063 C 413.636 -1.99502 -0.364266 0
M  V30 4064 C 413.969 -1.146 -1.56782 0
M  V30 4065 O 413.244 -0.211968 -1.93342 0
M  V30 4066 C 413.527 -3.51917 -0.763333 0
M  V30 4067 C 413.38 -4.4758 0.446371 0
M  V30 4068 C 414.699 -4.09742 -1.60623 0
M  V30 4069 H 411.818 -0.725277 -0.130929 0
M  V30 4070 H 414.46 -1.8653 0.361446 0
M  V30 4071 H 412.61 -3.63101 -1.38166 0
M  V30 4072 H 414.282 -4.48362 1.08487 0
M  V30 4073 H 412.525 -4.19947 1.08753 0
M  V30 4074 H 413.196 -5.51862 0.123645 0
M  V30 4075 H 415.672 -4.01727 -1.08418 0
M  V30 4076 H 414.548 -5.16631 -1.85429 0
M  V30 4077 H 414.809 -3.58889 -2.58169 0
M  V30 4078 N 413.868 0.0150385 -1.57593 0
M  V30 4079 C 414.8 1.03912 -2.04291 0
M  V30 4080 C 415.813 1.31618 -0.958146 0
M  V30 4081 O 417.002 1.28859 -1.23522 0
M  V30 4082 C 414.102 2.37749 -2.41514 0
M  V30 4083 C 413.275 2.29198 -3.72541 0
M  V30 4084 C 412.334 3.45598 -3.96797 0
M  V30 4085 O 411.36 3.24461 -4.67668 0
M  V30 4086 N 412.562 4.67945 -3.43523 0
M  V30 4087 H 415.327 0.64099 -2.92765 0
M  V30 4088 H 412.888 0.20272 -1.60626 0
M  V30 4089 H 414.88 3.14364 -2.54867 0
M  V30 4090 H 413.45 2.69357 -1.58637 0
M  V30 4091 H 412.67 1.3759 -3.69408 0
M  V30 4092 H 413.958 2.20642 -4.5847 0
M  V30 4093 H 413.356 4.88017 -2.86104 0
M  V30 4094 H 411.913 5.41878 -3.62232 0
M  V30 4095 N 415.346 1.54954 0.287554 0
M  V30 4096 C 416.594 1.74528 1.01904 0
M  V30 4097 C 416.915 0.541349 1.87335 0
M  V30 4098 O 416.185 -0.444108 1.908 0
M  V30 4099 H 414.765 0.643576 0.379235 0
M  V30 4100 H 417.427 1.92333 0.315294 0
M  V30 4101 H 416.523 2.64015 1.6644 0
M  V30 4102 N 416.824 -0.551391 1.4764 0
M  V30 4103 C 417.787 -1.64007 1.60107 0
M  V30 4104 C 418.787 -1.53601 0.47576 0
M  V30 4105 O 419.977 -1.57655 0.740988 0
M  V30 4106 C 417.109 -3.03569 1.55108 0
M  V30 4107 H 418.302 -1.543 2.57161 0
M  V30 4108 H 415.855 -0.771776 1.35917 0
M  V30 4109 H 416.59 -3.18804 0.594519 0
M  V30 4110 H 416.375 -3.12532 2.36783 0
M  V30 4111 H 417.865 -3.82762 1.66982 0
M  V30 4112 N 418.302 -1.35869 -0.798587 0
M  V30 4113 C 419.551 -1.28921 -1.5512 0
M  V30 4114 C 419.864 0.13208 -1.95154 0
M  V30 4115 O 421.07 0.323879 -2.69561 0
M  V30 4116 C 419.526 -2.26141 -2.79979 0
M  V30 4117 C 419.134 -3.73658 -2.47151 0
M  V30 4118 C 420.878 -2.28152 -3.57976 0
M  V30 4119 C 418.785 -4.62679 -3.6835 0
M  V30 4120 H 417.715 -0.479031 -0.582276 0
M  V30 4121 H 420.366 -1.61179 -0.877125 0
M  V30 4122 H 418.748 -1.86865 -3.49138 0
M  V30 4123 H 419.922 -4.21616 -1.85947 0
M  V30 4124 H 418.237 -3.74333 -1.82383 0
M  V30 4125 H 420.834 -2.91875 -4.4801 0
M  V30 4126 H 421.177 -1.28748 -3.95891 0
M  V30 4127 H 421.71 -2.65998 -2.95787 0
M  V30 4128 H 418.449 -5.63111 -3.35538 0
M  V30 4129 H 417.969 -4.19442 -4.28752 0
M  V30 4130 H 419.648 -4.78498 -4.35487 0
M  V30 4131 N 419.78 1.02168 -1.19998 0
M  V30 4132 C 420.712 2.10705 -0.901994 0
M  V30 4133 C 421.725 1.6244 0.108216 0
M  V30 4134 O 422.914 1.78082 -0.12214 0
M  V30 4135 C 420.014 3.37291 -0.329834 0
M  V30 4136 C 419.187 4.14714 -1.39035 0
M  V30 4137 C 418.246 5.19606 -0.830432 0
M  V30 4138 O 417.272 5.48809 -1.50989 0
M  V30 4139 N 418.474 5.79366 0.362696 0
M  V30 4140 H 421.239 2.36856 -1.83628 0
M  V30 4141 H 418.8 1.18518 -1.10296 0
M  V30 4142 H 420.792 4.04657 0.0587633 0
M  V30 4143 H 419.362 3.0843 0.508891 0
M  V30 4144 H 418.582 3.42392 -1.9535 0
M  V30 4145 H 419.87 4.63226 -2.10474 0
M  V30 4146 H 419.268 5.57968 0.932081 0
M  V30 4147 H 417.825 6.48106 0.69299 0
M  V30 4148 N 421.258 1.00505 1.21394 0
M  V30 4149 C 422.483 0.706367 1.95001 0
M  V30 4150 C 422.908 -0.72463 1.73582 0
M  V30 4151 O 422.266 -1.49702 1.0227 0
M  V30 4152 C 422.314 1.03299 3.45487 0
M  V30 4153 O 421.418 0.138275 4.12168 0
M  V30 4154 H 420.759 0.263175 0.609619 0
M  V30 4155 H 423.289 1.34531 1.54151 0
M  V30 4156 H 423.299 0.979872 3.96059 0
M  V30 4157 H 421.974 2.07567 3.60401 0
M  V30 4158 H 420.551 0.247928 3.72075 0
M  V30 4159 N 422.737 -1.36956 0.779787 0
M  V30 4160 C 423.985 -1.99097 0.347079 0
M  V30 4161 C 424.306 -1.62206 -1.08232 0
M  V30 4162 O 423.576 -0.891373 -1.74446 0
M  V30 4163 H 422.156 -0.736409 0.125342 0
M  V30 4164 H 424.818 -1.67308 0.999696 0
M  V30 4165 H 423.914 -3.09107 0.431162 0
M  V30 4166 N 424.215 -0.530993 -1.48385 0
M  V30 4167 C 425.461 0.00274135 -2.028 0
M  V30 4168 C 425.794 1.33838 -1.40716 0
M  V30 4169 O 425.069 1.86465 -0.553277 0
M  V30 4170 C 425.352 0.123676 -3.59888 0
M  V30 4171 C 425.205 -1.2372 -4.3245 0
M  V30 4172 C 426.524 0.849967 -4.31814 0
M  V30 4173 H 423.643 -0.000477758 -0.737 0
M  V30 4174 H 426.285 -0.688217 -1.77098 0
M  V30 4175 H 424.435 0.712157 -3.81917 0
M  V30 4176 H 426.107 -1.86687 -4.21836 0
M  V30 4177 H 424.35 -1.81882 -3.93829 0
M  V30 4178 H 425.021 -1.10557 -5.40815 0
M  V30 4179 H 427.497 0.350572 -4.14621 0
M  V30 4180 H 426.373 0.903486 -5.41413 0
M  V30 4181 H 426.634 1.90047 -3.99167 0
M  V30 4182 N 425.693 1.55336 -0.266172 0
M  V30 4183 C 426.918 2.04258 0.359661 0
M  V30 4184 C 427.343 1.14359 1.49344 0
M  V30 4185 O 426.701 0.140369 1.80756 0
M  V30 4186 C 426.749 3.50997 0.826635 0
M  V30 4187 O 425.853 3.64204 1.93466 0
M  V30 4188 H 425.194 0.659668 0.075727 0
M  V30 4189 H 427.724 2.00694 -0.39786 0
M  V30 4190 H 427.734 3.9219 1.12477 0
M  V30 4191 H 426.409 4.159 -0.00293032 0
M  V30 4192 H 424.986 3.34913 1.63974 0
M  V30 4193 N 427.171 -0.0066808 1.57599 0
M  V30 4194 C 428.418 -0.69292 1.90276 0
M  V30 4195 C 428.746 -1.74148 0.866192 0
M  V30 4196 O 428.001 -1.95268 -0.129933 0
M  V30 4197 C 428.3 -1.37939 3.29708 0
M  V30 4198 C 427.966 -0.464679 4.48499 0
M  V30 4199 C 426.628 -0.212809 4.80729 0
M  V30 4200 C 428.98 0.16551 5.20937 0
M  V30 4201 C 426.308 0.677653 5.82773 0
M  V30 4202 C 428.66 1.04381 6.23929 0
M  V30 4203 C 427.324 1.30492 6.54621 0
M  V30 4204 H 426.594 -0.253558 0.696268 0
M  V30 4205 H 429.241 0.0474123 1.91441 0
M  V30 4206 H 427.546 -2.1936 3.24636 0
M  V30 4207 H 429.243 -1.9163 3.52249 0
M  V30 4208 H 425.833 -0.671153 4.23313 0
M  V30 4209 H 430.017 -0.0160756 4.96297 0
M  V30 4210 H 425.273 0.88803 6.04917 0
M  V30 4211 H 429.447 1.53851 6.79193 0
M  V30 4212 H 427.074 1.99662 7.33512 0
M  V30 4213 N 428.649 -1.55105 -0.279332 0
M  V30 4214 C 429.582 -1.82467 -1.37044 0
M  V30 4215 C 430.56 -0.677261 -1.47824 0
M  V30 4216 O 431.744 -0.919578 -1.64548 0
M  V30 4217 C 428.871 -1.98066 -2.7475 0
M  V30 4218 C 427.917 -3.20594 -2.81286 0
M  V30 4219 S 428.75 -4.78116 -2.41175 0
M  V30 4220 C 429.906 -4.9668 -3.80867 0
M  V30 4221 H 430.139 -2.74728 -1.1363 0
M  V30 4222 H 427.672 -1.46794 -0.478625 0
M  V30 4223 H 429.63 -2.07739 -3.54055 0
M  V30 4224 H 428.291 -1.06704 -2.9542 0
M  V30 4225 H 427.484 -3.28376 -3.82341 0
M  V30 4226 H 427.086 -3.09479 -2.09996 0
M  V30 4227 H 429.378 -4.82033 -4.76078 0
M  V30 4228 H 430.321 -5.98741 -3.78041 0
M  V30 4229 H 430.729 -4.24698 -3.71876 0
M  V30 4230 N 430.127 0.543554 -1.4793 0
M  V30 4231 C 431.057 1.65888 -1.64327 0
M  V30 4232 C 432.038 1.62818 -0.492383 0
M  V30 4233 O 433.223 1.80226 -0.723338 0
M  V30 4234 C 430.353 3.04506 -1.67013 0
M  V30 4235 C 429.307 3.2243 -2.81466 0
M  V30 4236 C 428.633 4.61972 -2.69233 0
M  V30 4237 C 429.933 3.06496 -4.22915 0
M  V30 4238 H 431.627 1.52421 -2.57698 0
M  V30 4239 H 429.173 0.731849 -1.24016 0
M  V30 4240 H 431.126 3.82391 -1.77074 0
M  V30 4241 H 429.85 3.18964 -0.70212 0
M  V30 4242 H 428.509 2.46957 -2.70938 0
M  V30 4243 H 428.157 4.73247 -1.7043 0
M  V30 4244 H 427.857 4.74911 -3.46025 0
M  V30 4245 H 429.381 5.41974 -2.81242 0
M  V30 4246 H 430.795 3.74186 -4.34348 0
M  V30 4247 H 429.192 3.30938 -5.006 0
M  V30 4248 H 430.262 2.03077 -4.40327 0
M  V30 4249 N 431.605 1.3629 0.791371 0
M  V30 4250 C 432.568 1.30309 1.88553 0
M  V30 4251 C 433.568 0.211204 1.59407 0
M  V30 4252 O 434.758 0.465865 1.67855 0
M  V30 4253 C 431.89 1.01956 3.25297 0
M  V30 4254 H 433.083 2.27614 1.95273 0
M  V30 4255 H 430.636 1.21035 0.988953 0
M  V30 4256 H 431.371 0.050998 3.2426 0
M  V30 4257 H 431.156 1.80968 3.4784 0
M  V30 4258 H 432.646 1.0037 4.05359 0
M  V30 4259 N 433.083 -1.0153 1.20538 0
M  V30 4260 C 434.046 -2.0826 0.957098 0
M  V30 4261 C 435.046 -1.60657 -0.0678655 0
M  V30 4262 O 436.236 -1.73385 0.168332 0
M  V30 4263 C 433.368 -3.38033 0.441188 0
M  V30 4264 H 434.561 -2.31719 1.90384 0
M  V30 4265 H 432.114 -1.1835 1.02093 0
M  V30 4266 H 432.849 -3.20249 -0.510961 0
M  V30 4267 H 432.634 -3.73911 1.18038 0
M  V30 4268 H 434.124 -4.16613 0.287009 0
M  V30 4269 N 434.561 -1.01147 -1.20859 0
M  V30 4270 C 435.809 -0.696486 -1.89719 0
M  V30 4271 C 436.13 0.775788 -1.78904 0
M  V30 4272 O 435.4 1.55759 -1.18811 0
M  V30 4273 H 433.98 -0.254628 -0.702263 0
M  V30 4274 H 436.642 -1.28197 -1.46804 0
M  V30 4275 H 435.738 -0.975357 -2.96468 0
M  V30 4276 N 436.039 1.36541 -0.78704 0
M  V30 4277 C 436.987 2.31965 -0.171724 0
M  V30 4278 C 437.981 1.55689 0.667631 0
M  V30 4279 O 439.187 1.70969 0.562981 0
M  V30 4280 H 435.562 0.751101 -0.0367545 0
M  V30 4281 H 437.533 2.81428 -0.992017 0
M  V30 4282 C 436.282 3.40968 0.680904 0
M  V30 4283 H 435.605 3.99775 0.0443961 0
M  V30 4284 H 437.045 4.10063 1.07815 0
M  V30 4285 C 435.504 2.82338 1.83813 0
M  V30 4286 O 436.034 2.74311 2.93456 0
M  V30 4287 N 434.24 2.39661 1.6435 0
M  V30 4288 H 433.787 2.46389 0.751668 0
M  V30 4289 H 433.745 2.00779 2.4194 0
M  V30 4290 N 437.518 0.538854 1.48102 0
M  V30 4291 C 438.743 0.0102694 2.07397 0
M  V30 4292 C 439.168 -1.26562 1.39153 0
M  V30 4293 O 438.526 -1.75357 0.460387 0
M  V30 4294 C 438.574 -0.187602 3.60112 0
M  V30 4295 O 437.678 -1.25432 3.92862 0
M  V30 4296 H 437.019 0.0430975 0.6626 0
M  V30 4297 H 439.549 0.749301 1.90385 0
M  V30 4298 H 439.559 -0.407517 4.0596 0
M  V30 4299 H 438.234 0.744386 4.09184 0
M  V30 4300 H 436.811 -1.01636 3.58782 0
M  V30 4301 N 438.996 -1.55193 0.274407 0
M  V30 4302 C 439.944 -2.23924 -0.629362 0
M  V30 4303 C 440.938 -1.23602 -1.1584 0
M  V30 4304 O 442.144 -1.41535 -1.11211 0
M  V30 4305 H 438.519 -0.718637 -0.221507 0
M  V30 4306 H 440.49 -2.98388 -0.0268322 0
M  V30 4307 C 439.239 -2.97329 -1.80252 0
M  V30 4308 H 438.562 -3.74313 -1.40462 0
M  V30 4309 H 440.002 -3.48743 -2.41152 0
M  V30 4310 C 438.461 -2.0276 -2.69054 0
M  V30 4311 O 438.991 -1.57836 -3.69392 0
M  V30 4312 N 437.197 -1.69275 -2.36208 0
M  V30 4313 H 436.744 -2.06004 -1.54661 0
M  V30 4314 H 436.702 -1.06271 -2.95895 0
M  V30 4315 N 440.474 -0.00167713 -1.576 0
M  V30 4316 C 441.437 0.974046 -2.07473 0
M  V30 4317 C 442.437 1.27143 -0.984444 0
M  V30 4318 O 443.627 1.21633 -1.24703 0
M  V30 4319 C 440.759 2.29849 -2.51759 0
M  V30 4320 H 441.952 0.54262 -2.9495 0
M  V30 4321 H 439.505 0.245829 -1.54355 0
M  V30 4322 H 440.24 2.77677 -1.67529 0
M  V30 4323 H 440.025 2.09584 -3.31386 0
M  V30 4324 H 441.515 2.9984 -2.90664 0
M  V30 4325 N 441.952 1.55251 0.271103 0
M  V30 4326 C 443.229 1.66664 1.02384 0
M  V30 4327 C 443.609 0.534363 2.04225 0
M  V30 4328 O 442.957 -0.465337 2.23712 0
M  V30 4329 C 443.167 3.05961 1.67895 0
M  V30 4330 C 444.515 3.63772 2.18986 0
M  V30 4331 O 445.539 3.08606 1.77878 0
M  V30 4332 O 444.398 4.60429 2.94393 0
M  V30 4333 H 441.492 0.676957 0.475035 0
M  V30 4334 H 444.038 1.67589 0.26681 0
M  V30 4335 H 442.81 3.79815 0.941071 0
M  V30 4336 H 442.433 3.08943 2.5028 0
M  V30 4337 N 443.43 -0.535701 1.48216 0
M  V30 4338 C 444.393 -1.623 1.61838 0
M  V30 4339 C 445.393 -1.53087 0.492024 0
M  V30 4340 O 446.583 -1.5686 0.757668 0
M  V30 4341 C 443.715 -3.01907 1.58319 0
M  V30 4342 H 444.908 -1.51564 2.58783 0
M  V30 4343 H 442.461 -0.757317 1.36727 0
M  V30 4344 H 443.196 -3.18155 0.628299 0
M  V30 4345 H 442.981 -3.10003 2.40085 0
M  V30 4346 H 444.471 -3.80969 1.71033 0
M  V30 4347 N 444.908 -1.36708 -0.784132 0
M  V30 4348 C 446.148 -1.32618 -1.55537 0
M  V30 4349 C 446.512 0.0920681 -1.91779 0
M  V30 4350 O 447.713 0.257573 -2.67563 0
M  V30 4351 C 445.984 -2.22788 -2.79464 0
M  V30 4352 S 447.543 -2.36432 -3.69656 0
M  V30 4353 H 444.361 -0.470973 -0.53264 0
M  V30 4354 H 446.963 -1.72333 -0.92312 0
M  V30 4355 H 445.667 -3.24774 -2.50899 0
M  V30 4356 H 445.198 -1.84112 -3.47658 0
M  V30 4357 H 447.213 -1.56573 -4.7085 0
M  V30 4358 N 446.386 1.0089 -1.21074 0
M  V30 4359 C 447.334 2.11707 -0.963476 0
M  V30 4360 C 448.328 1.69172 0.0879032 0
M  V30 4361 O 449.534 1.79889 -0.0631415 0
M  V30 4362 H 445.909 0.692026 -0.294287 0
M  V30 4363 H 447.88 2.29743 -1.90422 0
M  V30 4364 C 446.629 3.43473 -0.540509 0
M  V30 4365 H 445.952 3.76634 -1.34114 0
M  V30 4366 H 447.392 4.22044 -0.406777 0
M  V30 4367 C 445.851 3.2849 0.748079 0
M  V30 4368 O 446.381 3.58883 1.8046 0
M  V30 4369 N 444.587 2.81715 0.713081 0
M  V30 4370 H 444.134 2.5718 -0.146973 0
M  V30 4371 H 444.092 2.72071 1.57558 0
M  V30 4372 N 447.864 1.01787 1.20321 0
M  V30 4373 C 449.092 0.727194 1.937 0
M  V30 4374 C 449.507 -0.712305 1.74848 0
M  V30 4375 O 448.864 -1.48327 1.06327 0
M  V30 4376 C 448.915 1.05497 3.45764 0
M  V30 4377 O 448.636 2.43794 3.64 0
M  V30 4378 C 450.137 0.785534 4.36285 0
M  V30 4379 H 447.357 0.266939 0.615617 0
M  V30 4380 H 449.901 1.35939 1.52777 0
M  V30 4381 H 448.056 0.468158 3.84561 0
M  V30 4382 H 448.47 2.55656 4.57974 0
M  V30 4383 H 449.944 1.06495 5.4163 0
M  V30 4384 H 450.421 -0.280273 4.38305 0
M  V30 4385 H 451.027 1.35456 4.03152 0
M  V30 4386 N 449.342 -1.36122 0.79427 0
M  V30 4387 C 450.567 -2.03891 0.379871 0
M  V30 4388 C 450.992 -1.59488 -0.997251 0
M  V30 4389 O 450.35 -0.765652 -1.64339 0
M  V30 4390 C 450.398 -3.57687 0.457442 0
M  V30 4391 O 449.502 -4.08931 -0.5338 0
M  V30 4392 H 448.843 -0.6443 0.160541 0
M  V30 4393 H 451.373 -1.73976 1.07673 0
M  V30 4394 H 451.383 -4.06721 0.322792 0
M  V30 4395 H 450.058 -3.89357 1.46199 0
M  V30 4396 H 448.635 -3.71154 -0.360409 0
M  V30 4397 N 450.82 -0.546701 -1.47814 0
M  V30 4398 C 452.231 -0.110564 -1.86372 0
M  V30 4399 C 452.582 1.31678 -1.45449 0
M  V30 4400 O 451.707 1.98889 -0.852758 0
M  V30 4401 C 452.302 -0.193873 -3.38245 0
M  V30 4402 C 450.861 0.187164 -3.75934 0
M  V30 4403 C 450.008 -0.546166 -2.71868 0
M  V30 4404 H 452.959 -0.757022 -1.39481 0
M  V30 4405 H 452.98 0.590218 -3.75895 0
M  V30 4406 H 452.492 -1.23282 -3.67999 0
M  V30 4407 H 450.593 1.22762 -3.51796 0
M  V30 4408 H 450.706 -0.164083 -4.78819 0
M  V30 4409 H 449.07 0.00953904 -2.54698 0
M  V30 4410 H 449.853 -1.58606 -3.04465 0
M  V30 4411 N 452.299 1.55045 -0.282633 0
M  V30 4412 C 453.262 2.21515 0.588539 0
M  V30 4413 C 454.262 1.19535 1.07554 0
M  V30 4414 O 455.452 1.44391 0.974514 0
M  V30 4415 C 452.584 2.88704 1.8128 0
M  V30 4416 H 453.777 2.99899 0.00806397 0
M  V30 4417 H 451.33 1.56265 -0.0333067 0
M  V30 4418 H 452.065 2.14352 2.43359 0
M  V30 4419 H 451.85 3.63443 1.47144 0
M  V30 4420 H 453.34 3.39465 2.43214 0
M  V30 4421 N 453.777 0.010035 1.57597 0
M  V30 4422 C 455.193 -0.346164 1.55801 0
M  V30 4423 C 455.393 -1.74144 1.01371 0
M  V30 4424 O 454.449 -2.43938 0.651968 0
M  V30 4425 C 455.762 -0.212216 2.9995 0
M  V30 4426 C 457.31 -0.286409 3.11687 0
M  V30 4427 C 457.785 -0.18147 4.5764 0
M  V30 4428 N 459.276 -0.239056 4.62583 0
M  V30 4429 C 460.011 -0.181351 5.73113 0
M  V30 4430 N 459.507 -0.073661 6.92761 0
M  V30 4431 N 461.3 -0.233949 5.61613 0
M  V30 4432 H 453.451 0.922657 1.91313 0
M  V30 4433 H 455.714 0.354595 0.879185 0
M  V30 4434 H 455.42 0.748169 3.4365 0
M  V30 4435 H 455.294 -0.990224 3.6397 0
M  V30 4436 H 457.681 -1.23724 2.67911 0
M  V30 4437 H 457.762 0.521645 2.50425 0
M  V30 4438 H 457.406 0.765863 5.02093 0
M  V30 4439 H 457.336 -1.00814 5.1686 0
M  V30 4440 H 459.827 -0.32321 3.76515 0
M  V30 4441 H 460.14 -0.0358003 7.72792 0
M  V30 4442 H 458.485 -0.0391461 6.94989 0
M  V30 4443 H 461.676 -0.316347 4.6703 0
M  V30 4444 H 461.849 -0.185514 6.47734 0
M  V30 4445 N 455.255 -1.55392 -0.262866 0
M  V30 4446 C 456.501 -1.76737 -0.99458 0
M  V30 4447 C 456.834 -0.572453 -1.85571 0
M  V30 4448 O 456.109 0.429732 -1.89693 0
M  V30 4449 C 456.392 -3.07824 -1.8686 0
M  V30 4450 C 456.245 -4.3769 -1.03672 0
M  V30 4451 C 457.564 -3.35021 -2.85393 0
M  V30 4452 H 454.683 -0.643005 -0.360157 0
M  V30 4453 H 457.325 -1.88126 -0.266216 0
M  V30 4454 H 455.475 -2.98245 -2.48962 0
M  V30 4455 H 457.147 -4.59238 -0.43563 0
M  V30 4456 H 455.39 -4.32461 -0.340513 0
M  V30 4457 H 456.061 -5.25759 -1.6817 0
M  V30 4458 H 458.537 -3.44458 -2.33426 0
M  V30 4459 H 457.413 -4.27989 -3.43681 0
M  V30 4460 H 457.674 -2.55153 -3.61039 0
M  V30 4461 N 456.733 0.527833 -1.48498 0
M  V30 4462 C 458.144 1.10975 -1.50138 0
M  V30 4463 C 458.495 1.943 -0.272378 0
M  V30 4464 O 457.62 2.07319 0.620301 0
M  V30 4465 C 458.215 2.01927 -2.72049 0
M  V30 4466 C 456.774 2.55332 -2.76554 0
M  V30 4467 C 455.921 1.32341 -2.43683 0
M  V30 4468 H 458.872 0.312986 -1.55583 0
M  V30 4469 H 458.893 2.86244 -2.50689 0
M  V30 4470 H 458.405 1.41254 -3.61481 0
M  V30 4471 H 456.506 3.19721 -1.91336 0
M  V30 4472 H 456.619 2.94319 -3.78038 0
M  V30 4473 H 454.983 1.63989 -1.94884 0
M  V30 4474 H 455.766 0.734165 -3.35358 0
M  V30 4475 N 458.211 1.37122 0.776871 0
M  V30 4476 C 459.436 1.354 1.57104 0
M  V30 4477 C 459.861 -0.0595562 1.88006 0
M  V30 4478 O 459.219 -1.03514 1.48844 0
M  V30 4479 C 459.267 2.19472 2.8612 0
M  V30 4480 O 458.371 1.59582 3.80273 0
M  V30 4481 H 457.712 0.462869 0.476076 0
M  V30 4482 H 460.242 1.80577 0.961932 0
M  V30 4483 H 460.252 2.32502 3.35271 0
M  V30 4484 H 458.927 3.22222 2.62956 0
M  V30 4485 H 457.504 1.55564 3.38902 0
M  V30 4486 N 459.689 -1.00246 1.21608 0
M  V30 4487 C 460.937 -1.73717 1.0328 0
M  V30 4488 C 461.258 -1.90102 -0.434318 0
M  V30 4489 O 460.528 -1.45376 -1.31311 0
M  V30 4490 H 459.108 -0.643613 0.379172 0
M  V30 4491 H 461.77 -1.20787 1.52959 0
M  V30 4492 H 460.866 -2.73535 1.50283 0
M  V30 4493 N 461.167 -1.02423 -1.1978 0
M  V30 4494 C 462.413 -0.719051 -1.89625 0
M  V30 4495 C 462.746 0.750083 -1.7913 0
M  V30 4496 O 462.021 1.54574 -1.18056 0
M  V30 4497 C 462.304 -1.16499 -3.40735 0
M  V30 4498 C 462.157 -2.695 -3.60125 0
M  V30 4499 C 463.476 -0.742166 -4.33797 0
M  V30 4500 H 460.595 -0.26269 -0.688595 0
M  V30 4501 H 463.237 -1.27333 -1.41018 0
M  V30 4502 H 461.387 -0.69341 -3.82262 0
M  V30 4503 H 463.059 -3.24569 -3.278 0
M  V30 4504 H 461.302 -3.10113 -3.03336 0
M  V30 4505 H 461.973 -2.95757 -4.66081 0
M  V30 4506 H 464.449 -1.1477 -3.99959 0
M  V30 4507 H 463.325 -1.08213 -5.38127 0
M  V30 4508 H 463.586 0.355747 -4.40666 0
M  V30 4509 N 462.645 1.35699 -0.801477 0
M  V30 4510 C 463.873 2.03157 -0.391768 0
M  V30 4511 C 464.288 1.60412 0.995668 0
M  V30 4512 O 463.645 0.799228 1.64069 0
M  V30 4513 C 463.696 3.58566 -0.459671 0
M  V30 4514 O 463.417 3.99756 -1.7924 0
M  V30 4515 C 464.918 4.4328 -0.0421205 0
M  V30 4516 H 462.138 0.651688 -0.159825 0
M  V30 4517 H 464.682 1.73426 -1.08368 0
M  V30 4518 H 462.837 3.86963 0.183939 0
M  V30 4519 H 463.251 4.94387 -1.75162 0
M  V30 4520 H 464.725 5.51821 -0.140754 0
M  V30 4521 H 465.202 4.27383 1.01196 0
M  V30 4522 H 465.808 4.20168 -0.658687 0
M  V30 4523 N 464.123 0.554532 1.47522 0
M  V30 4524 C 465.369 0.0295227 2.02779 0
M  V30 4525 C 465.702 -1.31582 1.42828 0
M  V30 4526 O 464.977 -1.85561 0.582872 0
M  V30 4527 C 465.26 -0.0664057 3.60039 0
M  V30 4528 C 465.113 1.30585 4.30427 0
M  V30 4529 C 466.432 -0.781162 4.33112 0
M  V30 4530 H 463.551 0.0122027 0.736899 0
M  V30 4531 H 466.193 0.716305 1.7598 0
M  V30 4532 H 464.343 -0.651307 3.83002 0
M  V30 4533 H 466.015 1.93374 4.18813 0
M  V30 4534 H 464.258 1.88125 3.90886 0
M  V30 4535 H 464.929 1.19147 5.38988 0
M  V30 4536 H 467.405 -0.284565 4.15126 0
M  V30 4537 H 466.281 -0.817237 5.42782 0
M  V30 4538 H 466.542 -1.83672 4.0214 0
M  V30 4539 N 465.601 -1.54893 0.290851 0
M  V30 4540 C 466.849 -1.99538 -0.320756 0
M  V30 4541 C 467.17 -1.18075 -1.55188 0
M  V30 4542 O 466.44 -0.274162 -1.93972 0
M  V30 4543 H 465.02 -0.737052 -0.121507 0
M  V30 4544 H 467.682 -1.90755 0.399832 0
M  V30 4545 H 466.778 -3.06282 -0.599802 0
M  V30 4546 N 467.08 -0.0183926 -1.57589 0
M  V30 4547 C 468.305 0.676634 -1.96052 0
M  V30 4548 C 468.73 1.6548 -0.894307 0
M  V30 4549 O 468.088 1.80712 0.145849 0
M  V30 4550 C 468.136 1.36872 -3.33614 0
M  V30 4551 O 467.24 2.48372 -3.29219 0
M  V30 4552 H 466.581 0.1786 -0.63953 0
M  V30 4553 H 469.111 -0.077056 -2.04455 0
M  V30 4554 H 469.121 1.72797 -3.69601 0
M  V30 4555 H 467.796 0.651636 -4.10763 0
M  V30 4556 H 466.373 2.14639 -3.04934 0
M  V30 4557 N 468.558 1.5553 0.254621 0
M  V30 4558 C 469.786 1.81046 1.00149 0
M  V30 4559 C 470.201 0.593047 1.79244 0
M  V30 4560 O 469.558 -0.438196 1.77161 0
M  V30 4561 C 469.609 3.04684 1.94551 0
M  V30 4562 O 469.33 4.21725 1.18658 0
M  V30 4563 C 470.831 3.42943 2.80901 0
M  V30 4564 H 468.051 0.602653 0.295044 0
M  V30 4565 H 470.595 2.02576 0.279842 0
M  V30 4566 H 468.75 2.85226 2.62154 0
M  V30 4567 H 469.164 4.91746 1.82445 0
M  V30 4568 H 470.638 4.32576 3.42902 0
M  V30 4569 H 471.115 2.63176 3.51617 0
M  V30 4570 H 471.721 3.64724 2.18762 0
M  V30 4571 N 470.036 -0.519951 1.48776 0
M  V30 4572 C 471.264 -1.29971 1.60982 0
M  V30 4573 C 471.679 -1.86803 0.273885 0
M  V30 4574 O 471.036 -1.66904 -0.738193 0
M  V30 4575 C 471.087 -2.44346 2.66415 0
M  V30 4576 O 470.808 -1.89855 3.94825 0
M  V30 4577 C 472.309 -3.36014 2.89153 0
M  V30 4578 H 469.529 -0.394891 0.542496 0
M  V30 4579 H 472.073 -0.626214 1.94676 0
M  V30 4580 H 470.228 -3.07562 2.35552 0
M  V30 4581 H 470.642 -2.64798 4.5275 0
M  V30 4582 H 472.116 -4.12593 3.66703 0
M  V30 4583 H 472.593 -3.91859 1.98351 0
M  V30 4584 H 473.199 -2.78582 3.21359 0
M  V30 4585 N 471.514 -1.37532 -0.769588 0
M  V30 4586 C 472.739 -1.36231 -1.56384 0
M  V30 4587 C 473.164 0.0495849 -1.88035 0
M  V30 4588 O 472.522 1.02723 -1.49391 0
M  V30 4589 C 472.57 -2.20986 -2.84952 0
M  V30 4590 O 471.674 -1.61597 -3.79421 0
M  V30 4591 H 471.015 -0.465387 -0.473615 0
M  V30 4592 H 473.545 -1.81085 -0.952342 0
M  V30 4593 H 473.555 -2.34277 -3.34034 0
M  V30 4594 H 472.23 -3.23612 -2.61243 0
M  V30 4595 H 470.807 -1.57359 -3.38072 0
M  V30 4596 N 472.992 0.995999 -1.22138 0
M  V30 4597 C 474.217 1.77601 -1.0711 0
M  V30 4598 C 474.642 1.84339 0.374264 0
M  V30 4599 O 474 1.29359 1.27028 0
M  V30 4600 C 474.048 3.18897 -1.68336 0
M  V30 4601 O 473.152 4.01663 -0.934928 0
M  V30 4602 H 472.493 0.547011 -0.376397 0
M  V30 4603 H 475.023 1.25137 -1.6187 0
M  V30 4604 H 475.033 3.69539 -1.72931 0
M  V30 4605 H 473.708 3.13308 -2.73516 0
M  V30 4606 H 472.285 3.60204 -0.964751 0
M  V30 4607 N 474.47 1.03057 1.19235 0
M  V30 4608 C 475.747 0.642608 1.84743 0
M  V30 4609 C 476.127 -0.878577 1.91948 0
M  V30 4610 O 475.475 -1.77597 1.43776 0
M  V30 4611 C 475.685 1.30665 3.23616 0
M  V30 4612 C 477.033 1.43098 3.9976 0
M  V30 4613 O 478.057 1.26396 3.3302 0
M  V30 4614 O 476.916 1.70223 5.19313 0
M  V30 4615 H 474.01 0.223573 0.796206 0
M  V30 4616 H 476.556 1.12883 1.26711 0
M  V30 4617 H 475.328 2.34544 3.13217 0
M  V30 4618 H 474.951 0.808405 3.89295 0
M  V30 4619 N 475.948 -1.35272 0.808662 0
M  V30 4620 C 477.173 -2.03477 0.401475 0
M  V30 4621 C 477.598 -1.60537 -0.980279 0
M  V30 4622 O 476.956 -0.78304 -1.63518 0
M  V30 4623 C 477.004 -3.57181 0.495354 0
M  V30 4624 O 476.108 -4.09474 -0.490397 0
M  V30 4625 H 475.449 -0.642561 0.167366 0
M  V30 4626 H 477.979 -1.72824 1.09512 0
M  V30 4627 H 477.989 -4.06356 0.365912 0
M  V30 4628 H 476.664 -3.87784 1.5032 0
M  V30 4629 H 475.241 -3.71516 -0.321023 0
M  V30 4630 N 477.426 -0.562348 -1.47226 0
M  V30 4631 C 478.842 -0.222492 -1.58042 0
M  V30 4632 C 479.042 1.27505 -1.56028 0
M  V30 4633 O 478.098 2.05555 -1.46641 0
M  V30 4634 C 479.411 -0.853694 -2.88327 0
M  V30 4635 C 480.959 -0.825397 -3.01921 0
M  V30 4636 C 481.434 -1.43576 -4.34914 0
M  V30 4637 N 482.925 -1.39918 -4.41562 0
M  V30 4638 C 483.66 -1.84103 -5.43041 0
M  V30 4639 N 483.156 -2.36167 -6.51304 0
M  V30 4640 N 484.949 -1.75142 -5.34118 0
M  V30 4641 H 477.1 -1.53525 -1.46778 0
M  V30 4642 H 479.363 -0.640527 -0.698877 0
M  V30 4643 H 479.069 -1.90635 -2.95552 0
M  V30 4644 H 478.943 -0.34977 -3.75575 0
M  V30 4645 H 481.33 0.218583 -2.94289 0
M  V30 4646 H 481.411 -1.36713 -2.16202 0
M  V30 4647 H 481.055 -2.47884 -4.43301 0
M  V30 4648 H 480.985 -0.869427 -5.19373 0
M  V30 4649 H 483.476 -1.0184 -3.63919 0
M  V30 4650 H 483.789 -2.67793 -7.24919 0
M  V30 4651 H 482.134 -2.40181 -6.52179 0
M  V30 4652 H 485.325 -1.34241 -4.48439 0
M  V30 4653 H 485.498 -2.09895 -6.13065 0
M  V30 4654 N 478.904 1.54736 -0.299062 0
M  V30 4655 C 480.129 2.04975 0.316254 0
M  V30 4656 C 480.554 1.17501 1.46885 0
M  V30 4657 O 479.912 0.178678 1.80417 0
M  V30 4658 C 479.96 3.52672 0.751997 0
M  V30 4659 O 479.064 3.68226 1.85697 0
M  V30 4660 H 478.405 0.661126 0.0617175 0
M  V30 4661 H 480.935 1.99805 -0.440341 0
M  V30 4662 H 480.945 3.94488 1.04133 0
M  V30 4663 H 479.62 4.158 -0.0911482 0
M  V30 4664 H 478.197 3.38316 1.56834 0
M  V30 4665 N 480.382 0.0267497 1.57577 0
M  V30 4666 C 481.607 -0.666227 1.96408 0
M  V30 4667 C 482.032 -1.65004 0.903071 0
M  V30 4668 O 481.39 -1.80787 -0.136263 0
M  V30 4669 C 481.438 -1.35101 3.34335 0
M  V30 4670 O 480.542 -2.46623 3.30531 0
M  V30 4671 H 479.883 -0.175206 0.640468 0
M  V30 4672 H 482.413 0.0878977 2.04411 0
M  V30 4673 H 482.423 -1.70834 3.70513 0
M  V30 4674 H 481.098 -0.629844 4.11103 0
M  V30 4675 H 479.675 -2.13019 3.06068 0
M  V30 4676 N 481.861 -1.55662 -0.24637 0
M  V30 4677 C 483.108 -1.77519 -0.974335 0
M  V30 4678 C 483.436 -0.591165 -1.85298 0
M  V30 4679 O 482.691 0.425497 -1.91018 0
M  V30 4680 C 482.99 -3.04885 -1.86494 0
M  V30 4681 C 482.656 -4.36209 -1.14161 0
M  V30 4682 C 481.318 -4.71896 -0.941701 0
M  V30 4683 C 483.67 -5.17391 -0.628957 0
M  V30 4684 C 480.998 -5.86299 -0.216852 0
M  V30 4685 C 483.35 -6.32546 0.0824273 0
M  V30 4686 C 482.014 -6.66853 0.293807 0
M  V30 4687 H 481.284 -0.649588 -0.356535 0
M  V30 4688 H 483.931 -1.89934 -0.244394 0
M  V30 4689 H 482.236 -2.87484 -2.66196 0
M  V30 4690 H 483.933 -3.18994 -2.42989 0
M  V30 4691 H 480.523 -4.08174 -1.30736 0
M  V30 4692 H 484.707 -4.90276 -0.770943 0
M  V30 4693 H 479.963 -6.11385 -0.0426124 0
M  V30 4694 H 484.137 -6.94693 0.487292 0
M  V30 4695 H 481.764 -7.55349 0.857428 0
M  V30 4696 N 483.339 0.512053 -1.4905 0
M  V30 4697 C 484.564 1.2959 -1.6193 0
M  V30 4698 C 484.989 1.85906 -0.286454 0
M  V30 4699 O 484.347 1.65312 0.744426 0
M  V30 4700 C 484.395 2.40987 -2.68249 0
M  V30 4701 O 483.499 3.44531 -2.26654 0
M  V30 4702 H 482.84 0.383053 -0.542371 0
M  V30 4703 H 485.37 0.614231 -1.95162 0
M  V30 4704 H 485.38 2.86913 -2.90078 0
M  V30 4705 H 484.055 1.99361 -3.65004 0
M  V30 4706 H 482.632 3.046 -2.15112 0
M  V30 4707 N 484.817 1.37938 0.762283 0
M  V30 4708 C 485.765 1.34569 1.89721 0
M  V30 4709 C 486.759 0.232929 1.67791 0
M  V30 4710 O 487.965 0.401485 1.75465 0
M  V30 4711 H 484.34 0.419594 0.624055 0
M  V30 4712 H 486.311 2.30357 1.8968 0
M  V30 4713 C 485.06 1.17898 3.27101 0
M  V30 4714 H 484.383 2.02781 3.44558 0
M  V30 4715 H 485.823 1.19593 4.06784 0
M  V30 4716 C 484.282 -0.114728 3.36705 0
M  V30 4717 O 484.812 -1.0949 3.8649 0
M  V30 4718 N 483.018 -0.16863 2.9011 0
M  V30 4719 H 482.565 0.62967 2.49786 0
M  V30 4720 H 482.523 -1.03383 2.96916 0
M  V30 4721 N 486.295 -0.989507 1.22664 0
M  V30 4722 C 487.541 -1.73298 1.06487 0
M  V30 4723 C 487.896 -1.88292 -0.395438 0
M  V30 4724 O 487.189 -1.41748 -1.28911 0
M  V30 4725 C 487.383 -3.13649 1.71345 0
M  V30 4726 C 487.212 -3.12341 3.23532 0
M  V30 4727 C 485.982 -3.18044 3.92653 0
M  V30 4728 C 488.18 -2.96226 4.20422 0
M  V30 4729 N 486.162 -3.06526 5.31898 0
M  V30 4730 C 487.533 -2.92773 5.4652 0
M  V30 4731 C 489.588 -2.80642 4.11271 0
M  V30 4732 C 488.291 -2.75332 6.64519 0
M  V30 4733 C 490.317 -2.64563 5.28924 0
M  V30 4734 C 489.679 -2.618 6.53942 0
M  V30 4735 H 485.778 -0.643643 0.444126 0
M  V30 4736 H 488.362 -1.17489 1.55256 0
M  V30 4737 H 486.533 -3.67694 1.25122 0
M  V30 4738 H 488.265 -3.76577 1.48229 0
M  V30 4739 H 485.02 -3.25861 3.43673 0
M  V30 4740 H 485.444 -3.04067 6.04874 0
M  V30 4741 H 490.086 -2.81574 3.15398 0
M  V30 4742 H 487.804 -2.73145 7.60538 0
M  V30 4743 H 491.39 -2.53482 5.23677 0
M  V30 4744 H 490.27 -2.49511 7.43447 0
M  V30 4745 N 487.773 -1.03688 -1.18687 0
M  V30 4746 C 489.021 -0.736572 -1.88199 0
M  V30 4747 C 489.342 0.737665 -1.80509 0
M  V30 4748 O 488.612 1.53204 -1.22088 0
M  V30 4749 H 487.192 -0.269466 -0.696704 0
M  V30 4750 H 489.854 -1.31282 -1.44052 0
M  V30 4751 H 488.95 -1.03802 -2.94332 0
M  V30 4752 N 489.251 1.34841 -0.815825 0
M  V30 4753 C 490.476 2.03261 -0.41226 0
M  V30 4754 C 490.901 1.61055 0.971751 0
M  V30 4755 O 490.259 0.7917 1.63101 0
M  V30 4756 C 490.307 3.56914 -0.514289 0
M  V30 4757 O 489.411 4.09728 0.468675 0
M  V30 4758 H 488.752 0.641664 -0.170771 0
M  V30 4759 H 491.282 1.72241 -1.10427 0
M  V30 4760 H 491.292 4.06156 -0.387457 0
M  V30 4761 H 489.967 3.86982 -1.52375 0
M  V30 4762 H 488.544 3.71681 0.301316 0
M  V30 4763 N 490.729 0.570148 1.46925 0
M  V30 4764 C 491.969 0.0534743 2.0433 0
M  V30 4765 C 492.333 -1.27729 1.4335 0
M  V30 4766 O 493.534 -1.88244 1.91879 0
M  V30 4767 C 491.805 -0.0244296 3.57392 0
M  V30 4768 S 493.364 -0.485351 4.36108 0
M  V30 4769 H 490.182 0.0313908 0.710307 0
M  V30 4770 H 492.784 0.759808 1.80131 0
M  V30 4771 H 491.488 0.948261 3.99295 0
M  V30 4772 H 491.019 -0.753922 3.86108 0
M  V30 4773 H 493.034 -1.74258 4.64595 0
M  V30 4774 N 492.207 -1.54576 0.307264 0
M  V30 4775 C 493.453 -2.0056 -0.300612 0
M  V30 4776 C 493.786 -1.1953 -1.53057 0
M  V30 4777 O 493.061 -0.27337 -1.92569 0
M  V30 4778 C 493.344 -3.54167 -0.650987 0
M  V30 4779 C 493.197 -4.45933 0.588539 0
M  V30 4780 C 494.516 -4.14645 -1.47506 0
M  V30 4781 H 491.635 -0.729075 -0.107788 0
M  V30 4782 H 494.277 -1.85286 0.420606 0
M  V30 4783 H 492.427 -3.67313 -1.26544 0
M  V30 4784 H 494.099 -4.44683 1.22697 0
M  V30 4785 H 492.342 -4.16274 1.22058 0
M  V30 4786 H 493.013 -5.51189 0.299153 0
M  V30 4787 H 495.489 -4.04973 -0.955821 0
M  V30 4788 H 494.365 -5.22269 -1.68899 0
M  V30 4789 H 494.626 -3.66921 -2.4662 0
M  V30 4790 N 493.685 -0.035106 -1.57561 0
M  V30 4791 C 494.962 0.681212 -1.83354 0
M  V30 4792 C 495.342 1.89986 -0.920252 0
M  V30 4793 O 494.69 2.28489 0.0226815 0
M  V30 4794 C 494.9 1.05376 -3.32712 0
M  V30 4795 C 496.248 1.44286 -3.99333 0
M  V30 4796 O 497.272 1.14656 -3.37242 0
M  V30 4797 O 496.131 1.99518 -5.08778 0
M  V30 4798 H 493.225 0.334741 -0.756226 0
M  V30 4799 H 495.771 -0.0632448 -1.69582 0
M  V30 4800 H 494.543 0.186668 -3.90854 0
M  V30 4801 H 494.166 1.85619 -3.51613 0
M  V30 4802 N 495.163 1.55791 0.238111 0
M  V30 4803 C 496.093 1.94068 1.29846 0
M  V30 4804 C 497.074 0.806726 1.49753 0
M  V30 4805 O 498.259 1.06772 1.62214 0
M  V30 4806 C 495.389 2.24302 2.65153 0
M  V30 4807 C 494.343 3.40032 2.59927 0
M  V30 4808 C 493.669 3.55829 3.99111 0
M  V30 4809 C 494.969 4.75476 2.16148 0
M  V30 4810 H 496.663 2.82887 0.980563 0
M  V30 4811 H 494.209 1.36105 0.470253 0
M  V30 4812 H 496.162 2.4967 3.39475 0
M  V30 4813 H 494.886 1.32318 2.98596 0
M  V30 4814 H 493.545 3.14687 1.88063 0
M  V30 4815 H 493.193 2.6125 4.29834 0
M  V30 4816 H 492.893 4.3366 3.96501 0
M  V30 4817 H 494.417 3.83528 4.7512 0
M  V30 4818 H 495.831 5.00158 2.80205 0
M  V30 4819 H 494.228 5.56472 2.24631 0
M  V30 4820 H 495.298 4.71946 1.11333 0
M  V30 4821 N 496.642 -0.504142 1.49319 0
M  V30 4822 C 497.889 -1.25846 1.58647 0
M  V30 4823 C 498.217 -1.92592 0.27177 0
M  V30 4824 O 497.472 -1.81167 -0.74007 0
M  V30 4825 C 497.771 -2.35021 2.69258 0
M  V30 4826 C 497.437 -1.85755 4.1086 0
M  V30 4827 C 496.099 -1.72038 4.49395 0
M  V30 4828 C 498.451 -1.48844 4.99495 0
M  V30 4829 C 495.779 -1.19783 5.74342 0
M  V30 4830 C 498.131 -0.980422 6.24956 0
M  V30 4831 C 496.795 -0.829622 6.62324 0
M  V30 4832 H 496.065 -0.460505 0.580531 0
M  V30 4833 H 498.712 -0.559716 1.83138 0
M  V30 4834 H 497.017 -3.10672 2.38726 0
M  V30 4835 H 498.714 -2.93083 2.73685 0
M  V30 4836 H 495.304 -1.9739 3.80441 0
M  V30 4837 H 499.488 -1.5829 4.70381 0
M  V30 4838 H 494.744 -1.06817 6.01997 0
M  V30 4839 H 498.918 -0.685608 6.93017 0
M  V30 4840 H 496.545 -0.42253 7.59025 0
M  V30 4841 N 498.12 -1.38341 -0.754957 0
M  V30 4842 C 499.083 -1.35262 -1.85032 0
M  V30 4843 C 500.083 -0.253393 -1.58791 0
M  V30 4844 O 501.273 -0.510205 -1.66561 0
M  V30 4845 C 498.405 -1.10544 -3.22479 0
M  V30 4846 H 499.598 -2.32712 -1.8917 0
M  V30 4847 H 497.151 -1.23614 -0.956515 0
M  V30 4848 H 497.886 -0.136952 -3.24011 0
M  V30 4849 H 497.671 -1.90127 -3.4292 0
M  V30 4850 H 499.161 -1.11082 -4.02555 0
M  V30 4851 N 499.598 0.982988 -1.23187 0
M  V30 4852 C 501.009 1.53847 -1.05773 0
M  V30 4853 C 501.36 1.92568 0.375744 0
M  V30 4854 O 500.485 1.75783 1.26211 0
M  V30 4855 C 501.08 2.79567 -1.91384 0
M  V30 4856 C 499.639 3.31524 -1.78238 0
M  V30 4857 C 498.786 2.04534 -1.87246 0
M  V30 4858 H 501.737 0.802962 -1.36888 0
M  V30 4859 H 501.758 3.52317 -1.43711 0
M  V30 4860 H 501.27 2.51353 -2.95708 0
M  V30 4861 H 499.371 3.64623 -0.766875 0
M  V30 4862 H 499.484 4.01457 -2.61475 0
M  V30 4863 H 497.848 2.1855 -1.30797 0
M  V30 4864 H 498.631 1.78706 -2.9312 0
M  V30 4865 N 501.076 1.04316 1.18135 0
M  V30 4866 C 502.324 0.746542 1.87806 0
M  V30 4867 C 502.645 -0.728082 1.80898 0
M  V30 4868 O 501.915 -1.52554 1.22899 0
M  V30 4869 H 500.495 0.273157 0.695265 0
M  V30 4870 H 503.157 1.32044 1.43354 0
M  V30 4871 H 502.253 1.05362 2.93778 0
M  V30 4872 N 502.554 -1.34406 0.822964 0
M  V30 4873 C 503.779 -2.0304 0.423034 0
M  V30 4874 C 504.204 -1.61568 -0.963196 0
M  V30 4875 O 503.562 -0.800339 -1.62678 0
M  V30 4876 C 503.61 -3.56636 0.53321 0
M  V30 4877 O 502.714 -4.09971 -0.446939 0
M  V30 4878 H 502.055 -0.64075 0.174171 0
M  V30 4879 H 504.585 -1.71653 1.11339 0
M  V30 4880 H 504.595 -4.05945 0.408991 0
M  V30 4881 H 503.27 -3.86168 1.54425 0
M  V30 4882 H 501.847 -3.71835 -0.281601 0
M  V30 4883 N 504.032 -0.577932 -1.46621 0
M  V30 4884 C 504.964 0.195801 -2.28362 0
M  V30 4885 C 505.977 0.859983 -1.38232 0
M  V30 4886 O 507.166 0.730349 -1.62875 0
M  V30 4887 C 504.266 1.29639 -3.13124 0
M  V30 4888 C 503.439 0.725049 -4.31349 0
M  V30 4889 C 502.498 1.71274 -4.97546 0
M  V30 4890 O 501.524 1.25067 -5.5529 0
M  V30 4891 N 502.726 3.04672 -4.94121 0
M  V30 4892 H 505.491 -0.505468 -2.95407 0
M  V30 4893 H 503.052 -0.415381 -1.56481 0
M  V30 4894 H 505.044 1.95631 -3.54275 0
M  V30 4895 H 503.614 1.90059 -2.48186 0
M  V30 4896 H 502.834 -0.112205 -3.9404 0
M  V30 4897 H 504.122 0.323034 -5.07774 0
M  V30 4898 H 503.52 3.4484 -4.48444 0
M  V30 4899 H 502.077 3.66166 -5.39227 0
M  V30 4900 N 505.51 1.54411 -0.315457 0
M  V30 4901 C 506.759 1.99599 0.290395 0
M  V30 4902 C 507.072 1.20746 1.53882 0
M  V30 4903 O 508.278 1.56272 2.22017 0
M  V30 4904 C 506.734 3.5539 0.56797 0
M  V30 4905 C 506.342 4.43068 -0.662945 0
M  V30 4906 C 508.086 4.09067 1.13422 0
M  V30 4907 C 505.993 5.90317 -0.357722 0
M  V30 4908 H 504.923 0.745592 0.112286 0
M  V30 4909 H 507.574 1.78477 -0.426418 0
M  V30 4910 H 505.956 3.72468 1.34476 0
M  V30 4911 H 507.13 4.37765 -1.43869 0
M  V30 4912 H 505.445 4.00238 -1.14884 0
M  V30 4913 H 508.042 5.16663 1.37707 0
M  V30 4914 H 508.385 3.60552 2.08106 0
M  V30 4915 H 508.918 3.95589 0.418805 0
M  V30 4916 H 505.657 6.4301 -1.27351 0
M  V30 4917 H 505.177 5.98592 0.380472 0
M  V30 4918 H 506.856 6.4699 0.0354284 0
M  V30 4919 N 506.988 0.0434614 1.5754 0
M  V30 4920 C 507.935 -0.93356 2.11077 0
M  V30 4921 C 508.905 -1.31383 1.01626 0
M  V30 4922 O 510.09 -1.40465 1.29129 0
M  V30 4923 C 507.23 -2.20578 2.65404 0
M  V30 4924 C 506.343 -1.88068 3.88914 0
M  V30 4925 C 505.478 -3.09691 4.31584 0
M  V30 4926 C 504.517 -2.73067 5.47815 0
M  V30 4927 N 503.654 -3.87359 5.85574 0
M  V30 4928 H 508.494 -0.470118 2.94268 0
M  V30 4929 H 506.031 -0.220434 1.45439 0
M  V30 4930 H 507.989 -2.95011 2.94999 0
M  V30 4931 H 506.619 -2.64513 1.85021 0
M  V30 4932 H 505.671 -1.03816 3.6596 0
M  V30 4933 H 506.983 -1.57104 4.73413 0
M  V30 4934 H 506.137 -3.92431 4.62691 0
M  V30 4935 H 504.876 -3.43827 3.45882 0
M  V30 4936 H 503.881 -1.88742 5.16388 0
M  V30 4937 H 505.106 -2.40131 6.35227 0
M  V30 4938 H 503.052 -4.21311 5.02825 0
M  V30 4939 H 502.969 -3.60068 6.64746 0
M  V30 4940 H 504.237 -4.70761 6.21292 0
M  V30 4941 N 508.466 -1.55915 -0.229846 0
M  V30 4942 C 509.691 -1.8296 -0.976743 0
M  V30 4943 C 510.116 -0.622735 -1.77493 0
M  V30 4944 O 509.474 0.428431 -1.76165 0
M  V30 4945 C 509.522 -3.07916 -1.8767 0
M  V30 4946 O 508.626 -2.86028 -2.97088 0
M  V30 4947 H 507.967 -0.603453 -0.277021 0
M  V30 4948 H 510.497 -2.0312 -0.245669 0
M  V30 4949 H 510.507 -3.37802 -2.2881 0
M  V30 4950 H 509.182 -3.95389 -1.28996 0
M  V30 4951 H 507.759 -2.67355 -2.59954 0
M  V30 4952 N 509.944 0.496216 -1.49584 0
M  V30 4953 C 510.907 1.57952 -1.66084 0
M  V30 4954 C 511.907 1.51729 -0.53244 0
M  V30 4955 O 513.097 1.54796 -0.79899 0
M  V30 4956 C 510.229 2.97604 -1.66268 0
M  V30 4957 H 511.422 1.44649 -2.6271 0
M  V30 4958 H 508.975 0.7208 -1.38687 0
M  V30 4959 H 509.71 3.16378 -0.712432 0
M  V30 4960 H 509.495 3.03528 -2.4822 0
M  V30 4961 H 510.985 3.76301 -1.81073 0
M  V30 4962 N 511.423 1.38739 0.74761 0
M  V30 4963 C 512.669 1.3648 1.50814 0
M  V30 4964 C 513.024 -0.0431982 1.92351 0
M  V30 4965 O 512.317 -1.0071 1.62997 0
M  V30 4966 C 512.511 2.25992 2.7688 0
M  V30 4967 C 512.34 3.75354 2.47668 0
M  V30 4968 C 511.11 4.44348 2.40589 0
M  V30 4969 C 513.308 4.67642 2.14046 0
M  V30 4970 N 511.29 5.79114 2.03715 0
M  V30 4971 C 512.661 5.90965 1.87512 0
M  V30 4972 C 514.716 4.55787 2.00407 0
M  V30 4973 C 513.419 7.03759 1.48714 0
M  V30 4974 C 515.445 5.68491 1.63011 0
M  V30 4975 C 514.807 6.90879 1.37353 0
M  V30 4976 H 510.906 0.554695 0.551214 0
M  V30 4977 H 513.49 1.7418 0.870033 0
M  V30 4978 H 511.661 1.9047 3.3849 0
M  V30 4979 H 513.393 2.14815 3.42982 0
M  V30 4980 H 510.148 3.97634 2.57262 0
M  V30 4981 H 510.572 6.504 1.87906 0
M  V30 4982 H 515.214 3.61712 2.18916 0
M  V30 4983 H 512.932 7.97746 1.28945 0
M  V30 4984 H 516.518 5.613 1.53081 0
M  V30 4985 H 515.398 7.76609 1.08848 0
M  V30 4986 N 512.901 -0.976442 1.23707 0
M  V30 4987 C 514.131 -1.75087 1.09673 0
M  V30 4988 C 514.539 -1.85852 -0.354344 0
M  V30 4989 O 513.882 -1.33985 -1.25673 0
M  V30 4990 C 513.944 -3.19272 1.65245 0
M  V30 4991 C 513.608 -3.32004 3.14042 0
M  V30 4992 C 514.605 -3.18017 4.11292 0
M  V30 4993 C 512.29 -3.56525 3.53829 0
M  V30 4994 C 514.284 -3.28363 5.46312 0
M  V30 4995 C 511.971 -3.6651 4.88993 0
M  V30 4996 C 512.969 -3.52439 5.85043 0
M  V30 4997 O 512.657 -3.62063 7.1775 0
M  V30 4998 H 512.389 -0.556164 0.384262 0
M  V30 4999 H 514.943 -1.23518 1.64111 0
M  V30 5000 H 513.173 -3.72107 1.05231 0
M  V30 5001 H 514.862 -3.7849 1.46629 0
M  V30 5002 H 515.628 -2.98966 3.81896 0
M  V30 5003 H 511.507 -3.66547 2.79579 0
M  V30 5004 H 515.051 -3.17297 6.21263 0
M  V30 5005 H 510.948 -3.85072 5.18063 0
M  V30 5006 H 511.716 -3.78833 7.25553 0
M  V30 5007 N 514.379 -1.04941 -1.1758 0
M  V30 5008 C 515.656 -0.671918 -1.83697 0
M  V30 5009 C 516.036 0.847929 -1.93322 0
M  V30 5010 O 515.384 1.75287 -1.46583 0
M  V30 5011 C 515.594 -1.35797 -3.21497 0
M  V30 5012 C 516.942 -1.4944 -3.97433 0
M  V30 5013 O 517.966 -1.31678 -3.30967 0
M  V30 5014 O 516.825 -1.78463 -5.1654 0
M  V30 5015 H 513.919 -0.236212 -0.792548 0
M  V30 5016 H 516.465 -1.14884 -1.24899 0
M  V30 5017 H 515.237 -2.39498 -3.09446 0
M  V30 5018 H 514.86 -0.870236 -3.8796 0
M  V30 5019 N 515.857 1.33968 -0.830081 0
M  V30 5020 C 517.105 1.97672 -0.420734 0
M  V30 5021 C 517.426 1.66111 1.02138 0
M  V30 5022 O 516.696 0.955503 1.71017 0
M  V30 5023 H 515.276 0.73125 -0.152587 0
M  V30 5024 H 517.938 1.63483 -1.0611 0
M  V30 5025 H 517.034 3.07294 -0.545588 0
M  V30 5026 N 517.335 0.585699 1.46312 0
M  V30 5027 C 518.583 0.072278 2.01971 0
M  V30 5028 C 518.904 -1.29345 1.45928 0
M  V30 5029 O 518.174 -1.84973 0.645109 0
M  V30 5030 H 516.754 0.023729 0.746623 0
M  V30 5031 H 519.416 0.762155 1.7938 0
M  V30 5032 H 518.512 0.00552767 3.121 0
M  V30 5033 N 518.813 -1.54241 0.323641 0
M  V30 5034 C 520.043 -2.04687 -0.280464 0
M  V30 5035 C 520.451 -1.19939 -1.46326 0
M  V30 5036 O 519.794 -0.222872 -1.82343 0
M  V30 5037 C 519.856 -3.50978 -0.778123 0
M  V30 5038 C 519.52 -4.56127 0.282371 0
M  V30 5039 C 520.517 -5.07726 1.11847 0
M  V30 5040 C 518.202 -5.00451 0.430582 0
M  V30 5041 C 520.196 -6.02212 2.08851 0
M  V30 5042 C 517.883 -5.94752 1.40404 0
M  V30 5043 C 518.881 -6.45519 2.23147 0
M  V30 5044 O 518.569 -7.37968 3.1884 0
M  V30 5045 H 518.301 -0.673192 -0.0615473 0
M  V30 5046 H 520.855 -1.99999 0.467921 0
M  V30 5047 H 519.085 -3.53064 -1.57742 0
M  V30 5048 H 520.774 -3.84499 -1.30058 0
M  V30 5049 H 521.54 -4.74261 1.01496 0
M  V30 5050 H 517.419 -4.6055 -0.203569 0
M  V30 5051 H 520.963 -6.41761 2.73474 0
M  V30 5052 H 516.86 -6.27633 1.5082 0
M  V30 5053 H 517.628 -7.55841 3.14079 0
M  V30 5054 N 520.291 -0.0518155 -1.57515 0
M  V30 5055 C 521.238 0.922352 -2.11569 0
M  V30 5056 C 522.208 1.30842 -1.02321 0
M  V30 5057 O 523.393 1.39778 -1.29872 0
M  V30 5058 C 520.533 2.19167 -2.6657 0
M  V30 5059 C 519.646 1.86003 -3.89906 0
M  V30 5060 C 518.781 3.07398 -4.33221 0
M  V30 5061 C 517.82 2.70158 -5.49255 0
M  V30 5062 N 516.957 3.84248 -5.8762 0
M  V30 5063 H 521.797 0.454506 -2.94514 0
M  V30 5064 H 519.334 0.212718 -1.45554 0
M  V30 5065 H 521.292 2.93443 -2.96559 0
M  V30 5066 H 519.922 2.63528 -1.86421 0
M  V30 5067 H 518.974 1.01874 -3.66505 0
M  V30 5068 H 520.286 1.54592 -4.74239 0
M  V30 5069 H 519.44 3.89972 -4.64765 0
M  V30 5070 H 518.179 3.41988 -3.477 0
M  V30 5071 H 517.184 1.86001 -5.17382 0
M  V30 5072 H 518.409 2.36759 -6.36492 0
M  V30 5073 H 516.355 4.18638 -5.05053 0
M  V30 5074 H 516.272 3.56538 -6.66646 0
M  V30 5075 H 517.54 4.6746 -6.2378 0
M  V30 5076 N 521.769 1.56035 0.221574 0
M  V30 5077 C 522.997 1.8313 0.962864 0
M  V30 5078 C 523.412 0.630934 1.77946 0
M  V30 5079 O 522.769 -0.400519 1.78051 0
M  V30 5080 C 522.82 3.08742 1.88045 0
M  V30 5081 O 522.541 4.24147 1.09686 0
M  V30 5082 C 524.042 3.48824 2.73563 0
M  V30 5083 H 521.262 0.608775 0.282194 0
M  V30 5084 H 523.806 2.03124 0.23681 0
M  V30 5085 H 521.961 2.90723 2.56045 0
M  V30 5086 H 522.375 4.95505 1.71974 0
M  V30 5087 H 523.849 4.39752 3.3365 0
M  V30 5088 H 524.326 2.70575 3.45956 0
M  V30 5089 H 524.932 3.69282 2.10976 0
M  V30 5090 N 523.247 -0.488276 1.49845 0
M  V30 5091 C 524.496 -1.23826 1.59217 0
M  V30 5092 C 524.809 -1.93439 0.289966 0
M  V30 5093 O 526.015 -2.70229 0.262382 0
M  V30 5094 C 524.471 -2.24902 2.80976 0
M  V30 5095 C 524.079 -1.6117 4.18005 0
M  V30 5096 C 525.823 -3.00648 2.99685 0
M  V30 5097 C 523.73 -2.60431 5.3097 0
M  V30 5098 H 522.66 -0.465858 0.592868 0
M  V30 5099 H 525.311 -0.510645 1.76252 0
M  V30 5100 H 523.693 -3.0088 2.57463 0
M  V30 5101 H 524.867 -0.910968 4.51706 0
M  V30 5102 H 523.182 -0.97767 4.0476 0
M  V30 5103 H 525.779 -3.74903 3.81251 0
M  V30 5104 H 526.122 -3.5902 2.10738 0
M  V30 5105 H 526.655 -2.31784 3.23297 0
M  V30 5106 H 523.394 -2.06823 6.22017 0
M  V30 5107 H 522.914 -3.28707 5.01709 0
M  V30 5108 H 524.593 -3.22606 5.60834 0
M  V30 5109 N 524.725 -1.39134 -0.740242 0
M  V30 5110 C 525.95 -1.39518 -1.53459 0
M  V30 5111 C 526.375 0.00968883 -1.88098 0
M  V30 5112 O 525.733 0.995312 -1.51536 0
M  V30 5113 C 525.781 -2.26981 -2.802 0
M  V30 5114 O 524.885 -1.69609 -3.75908 0
M  V30 5115 H 524.226 -0.475328 -0.463637 0
M  V30 5116 H 526.756 -1.83064 -0.913717 0
M  V30 5117 H 526.766 -2.41309 -3.28989 0
M  V30 5118 H 525.441 -3.29081 -2.5432 0
M  V30 5119 H 524.018 -1.64495 -3.34658 0
M  V30 5120 N 526.204 0.969867 -1.24223 0
M  V30 5121 C 527.452 1.70918 -1.0785 0
M  V30 5122 C 527.773 1.91186 0.383763 0
M  V30 5123 O 527.043 1.48806 1.27411 0
M  V30 5124 H 525.623 0.633334 -0.396103 0
M  V30 5125 H 528.285 1.16689 -1.56108 0
M  V30 5126 H 527.381 2.69455 -1.57482 0
M  V30 5127 N 527.682 1.05563 1.17022 0
M  V30 5128 C 528.91 0.78845 1.91288 0
M  V30 5129 C 529.325 -0.656318 1.77025 0
M  V30 5130 O 528.682 -1.44869 1.10992 0
M  V30 5131 C 528.733 1.16444 3.42232 0
M  V30 5132 O 528.454 2.5525 3.5606 0
M  V30 5133 C 529.955 0.923937 4.33565 0
M  V30 5134 H 527.175 0.286389 0.606813 0
M  V30 5135 H 529.719 1.4073 1.48375 0
M  V30 5136 H 527.874 0.590266 3.82877 0
M  V30 5137 H 528.288 2.70097 4.49609 0
M  V30 5138 H 529.762 1.23672 5.37968 0
M  V30 5139 H 530.239 -0.140688 4.38975 0
M  V30 5140 H 530.845 1.48214 3.98639 0
M  V30 5141 N 529.16 -1.33526 0.837174 0
M  V30 5142 C 530.385 -2.0258 0.444545 0
M  V30 5143 C 530.81 -1.6258 -0.946006 0
M  V30 5144 O 530.168 -0.817548 -1.6182 0
M  V30 5145 C 530.216 -3.5605 0.571006 0
M  V30 5146 O 529.32 -4.10422 -0.403431 0
M  V30 5147 H 528.661 -0.638866 0.180958 0
M  V30 5148 H 531.191 -1.70462 1.13154 0
M  V30 5149 H 531.201 -4.05488 0.452024 0
M  V30 5150 H 529.876 -3.84509 1.58512 0
M  V30 5151 H 528.453 -3.72113 -0.242147 0
M  V30 5152 N 530.638 -0.59345 -1.46 0
M  V30 5153 C 531.571 0.182196 -2.27472 0
M  V30 5154 C 532.549 0.886901 -1.36282 0
M  V30 5155 O 533.733 0.898627 -1.65701 0
M  V30 5156 C 530.86 1.26236 -3.14296 0
M  V30 5157 C 529.906 0.662331 -4.21326 0
M  V30 5158 S 530.739 -0.519017 -5.32979 0
M  V30 5159 C 531.895 0.562086 -6.23371 0
M  V30 5160 H 532.128 -0.509056 -2.92909 0
M  V30 5161 H 529.661 -0.380607 -1.49635 0
M  V30 5162 H 531.619 1.88075 -3.64881 0
M  V30 5163 H 530.28 1.92562 -2.48151 0
M  V30 5164 H 529.473 1.47461 -4.81945 0
M  V30 5165 H 529.075 0.119381 -3.73809 0
M  V30 5166 H 531.367 1.44494 -6.61912 0
M  V30 5167 H 532.31 -0.00760776 -7.081 0
M  V30 5168 H 532.718 0.871061 -5.57739 0
M  V30 5169 N 532.116 1.54067 -0.331816 0
M  V30 5170 C 533.079 2.23275 0.517768 0
M  V30 5171 C 534.079 1.22897 1.03697 0
M  V30 5172 O 535.269 1.47419 0.928084 0
M  V30 5173 C 532.401 2.94326 1.72004 0
M  V30 5174 H 533.594 2.99773 -0.0873507 0
M  V30 5175 H 531.147 1.56079 -0.0830042 0
M  V30 5176 H 531.882 2.21986 2.36417 0
M  V30 5177 H 531.667 3.67941 1.35507 0
M  V30 5178 H 533.157 3.47031 2.32291 0
M  V30 5179 N 533.594 0.0601682 1.57485 0
M  V30 5180 C 534.822 -0.620937 1.97363 0
M  V30 5181 C 535.237 -1.63846 0.938082 0
M  V30 5182 O 534.594 -1.82339 -0.0766578 0
M  V30 5183 C 534.645 -1.29987 3.37321 0
M  V30 5184 O 534.366 -0.323081 4.36907 0
M  V30 5185 C 535.867 -2.06989 3.92008 0
M  V30 5186 H 533.087 -0.169135 0.649334 0
M  V30 5187 H 535.631 0.129132 2.04092 0
M  V30 5188 H 533.786 -2.0011 3.31715 0
M  V30 5189 H 534.2 -0.808754 5.18227 0
M  V30 5190 H 535.674 -2.49901 4.92192 0
M  V30 5191 H 536.151 -2.92173 3.2792 0
M  V30 5192 H 536.757 -1.41757 4.0098 0
M  V30 5193 N 535.072 -1.5615 -0.213296 0
M  V30 5194 C 536.483 -1.69645 -0.779582 0
M  V30 5195 C 536.834 -0.663615 -1.84636 0
M  V30 5196 O 535.959 0.183633 -2.15619 0
M  V30 5197 C 536.554 -3.07567 -1.42084 0
M  V30 5198 C 535.113 -3.22889 -1.93442 0
M  V30 5199 C 534.26 -2.65581 -0.797612 0
M  V30 5200 H 537.211 -1.58696 0.0114951 0
M  V30 5201 H 537.232 -3.03884 -2.28986 0
M  V30 5202 H 536.744 -3.82716 -0.644187 0
M  V30 5203 H 534.845 -2.52623 -2.73884 0
M  V30 5204 H 534.958 -4.30197 -2.10872 0
M  V30 5205 H 533.322 -2.24278 -1.20712 0
M  V30 5206 H 534.105 -3.43284 -0.033494 0
M  V30 5207 N 536.55 0.480323 -1.50102 0
M  V30 5208 C 537.5 1.57685 -1.6468 0
M  V30 5209 C 538.484 1.52878 -0.5017 0
M  V30 5210 O 539.676 1.60058 -0.755668 0
M  V30 5211 C 536.805 2.96185 -1.73578 0
M  V30 5212 C 535.891 3.0591 -2.93734 0
M  V30 5213 N 536.282 2.85471 -4.1754 0
M  V30 5214 C 534.58 3.37036 -2.92101 0
M  V30 5215 C 535.281 2.99921 -4.9842 0
M  V30 5216 N 534.257 3.29715 -4.32191 0
M  V30 5217 H 538.059 1.40568 -2.58104 0
M  V30 5218 H 535.573 0.686874 -1.47159 0
M  V30 5219 H 537.57 3.75015 -1.82124 0
M  V30 5220 H 536.23 3.14356 -0.813057 0
M  V30 5221 H 537.241 2.61235 -4.47188 0
M  V30 5222 H 533.918 3.61253 -2.09291 0
M  V30 5223 H 535.308 2.88436 -6.06839 0
M  V30 5224 N 538.028 1.39524 0.732853 0
M  V30 5225 C 539.274 1.37068 1.49467 0
M  V30 5226 C 539.607 -0.0327166 1.94172 0
M  V30 5227 O 538.882 -0.998071 1.66939 0
M  V30 5228 C 539.165 2.34494 2.73285 0
M  V30 5229 C 539.018 3.83784 2.34585 0
M  V30 5230 C 540.337 2.29717 3.75391 0
M  V30 5231 H 537.456 0.499206 0.542183 0
M  V30 5232 H 540.098 1.70532 0.837783 0
M  V30 5233 H 538.248 2.06087 3.29333 0
M  V30 5234 H 539.92 4.22949 1.84151 0
M  V30 5235 H 538.163 4.00455 1.66787 0
M  V30 5236 H 538.834 4.47444 3.23262 0
M  V30 5237 H 541.31 2.54839 3.28932 0
M  V30 5238 H 540.186 2.99962 4.59689 0
M  V30 5239 H 540.447 1.30291 4.22465 0
M  V30 5240 N 539.506 -0.963266 1.24736 0
M  V30 5241 C 540.469 -2.04013 1.04457 0
M  V30 5242 C 541.469 -1.608 0.000335555 0
M  V30 5243 O 542.659 -1.72515 0.241719 0
M  V30 5244 C 539.791 -3.35858 0.584162 0
M  V30 5245 H 540.984 -2.23436 2.00041 0
M  V30 5246 H 538.537 -1.13914 1.07021 0
M  V30 5247 H 539.272 -3.22128 -0.374673 0
M  V30 5248 H 539.057 -3.68568 1.3379 0
M  V30 5249 H 540.547 -4.1502 0.463451 0
M  V30 5250 N 540.985 -1.06182 -1.16461 0
M  V30 5251 C 542.233 -0.776326 -1.86595 0
M  V30 5252 C 542.554 0.69921 -1.82033 0
M  V30 5253 O 541.824 1.50579 -1.2531 0
M  V30 5254 H 540.404 -0.284184 -0.690832 0
M  V30 5255 H 543.066 -1.34308 -1.41235 0
M  V30 5256 H 542.162 -1.10022 -2.92064 0
M  V30 5257 N 542.463 1.3308 -0.844243 0
M  V30 5258 C 543.709 1.97898 -0.443206 0
M  V30 5259 C 544.042 1.66699 0.99625 0
M  V30 5260 O 543.317 0.949704 1.69738 0
M  V30 5261 C 543.6 3.53801 -0.670606 0
M  V30 5262 C 543.453 3.94667 -2.15772 0
M  V30 5263 C 544.772 4.39936 -0.120226 0
M  V30 5264 H 541.891 0.718861 -0.162504 0
M  V30 5265 H 544.533 1.57633 -1.06075 0
M  V30 5266 H 542.683 3.88229 -0.14496 0
M  V30 5267 H 544.355 3.70469 -2.74865 0
M  V30 5268 H 542.598 3.44203 -2.6402 0
M  V30 5269 H 543.269 5.03275 -2.26757 0
M  V30 5270 H 545.745 4.12183 -0.5696 0
M  V30 5271 H 544.621 5.4803 -0.308984 0
M  V30 5272 H 544.882 4.31184 0.976347 0
M  V30 5273 N 543.941 0.601185 1.45683 0
M  V30 5274 C 544.904 -0.111398 2.28929 0
M  V30 5275 C 545.904 -0.801246 1.39416 0
M  V30 5276 O 547.094 -0.650383 1.61603 0
M  V30 5277 C 544.226 -1.16773 3.20276 0
M  V30 5278 H 545.419 0.620412 2.93413 0
M  V30 5279 H 542.972 0.359946 1.52099 0
M  V30 5280 H 543.707 -1.93051 2.60579 0
M  V30 5281 H 543.492 -0.677358 3.86205 0
M  V30 5282 H 544.982 -1.66698 3.82886 0
M  V30 5283 N 545.419 -1.53889 0.339982 0
M  V30 5284 C 546.382 -2.23547 -0.50592 0
M  V30 5285 C 547.382 -1.23445 -1.03044 0
M  V30 5286 O 548.572 -1.47909 -0.920253 0
M  V30 5287 C 545.704 -2.95234 -1.7044 0
M  V30 5288 H 546.897 -2.99722 0.103247 0
M  V30 5289 H 544.45 -1.56033 0.0912804 0
M  V30 5290 H 545.185 -2.23236 -2.35236 0
M  V30 5291 H 544.97 -3.68654 -1.33553 0
M  V30 5292 H 546.46 -3.48258 -2.30447 0
M  V30 5293 N 546.897 -0.0685191 -1.57451 0
M  V30 5294 C 547.827 0.89747 -2.15564 0
M  V30 5295 C 548.808 1.31266 -1.08181 0
M  V30 5296 O 549.993 1.38429 -1.36202 0
M  V30 5297 C 547.123 2.16623 -2.71463 0
M  V30 5298 C 546.077 1.89054 -3.83982 0
M  V30 5299 C 545.403 3.22532 -4.26471 0
M  V30 5300 C 546.703 1.1984 -5.08366 0
M  V30 5301 H 548.397 0.413373 -2.96533 0
M  V30 5302 H 545.943 0.197391 -1.42641 0
M  V30 5303 H 547.896 2.84614 -3.10761 0
M  V30 5304 H 546.62 2.67269 -1.8771 0
M  V30 5305 H 545.279 1.23469 -3.45183 0
M  V30 5306 H 544.927 3.71013 -3.39644 0
M  V30 5307 H 544.627 3.04879 -5.02317 0
M  V30 5308 H 546.151 3.91727 -4.68383 0
M  V30 5309 H 547.565 1.77896 -5.45001 0
M  V30 5310 H 545.962 1.12456 -5.89469 0
M  V30 5311 H 547.032 0.176996 -4.84577 0
M  V30 5312 N 548.375 1.56261 0.205012 0
M  V30 5313 C 549.605 1.83874 0.942018 0
M  V30 5314 C 550.013 0.647595 1.77772 0
M  V30 5315 O 549.356 -0.393098 1.79445 0
M  V30 5316 C 549.418 3.05453 1.89575 0
M  V30 5317 C 549.082 4.39772 1.24296 0
M  V30 5318 C 550.079 5.16133 0.624724 0
M  V30 5319 C 547.764 4.86504 1.24978 0
M  V30 5320 C 549.758 6.37396 0.0220117 0
M  V30 5321 C 547.445 6.07705 0.643232 0
M  V30 5322 C 548.443 6.82993 0.0304164 0
M  V30 5323 O 548.131 8.019 -0.566654 0
M  V30 5324 H 547.863 0.614896 0.280854 0
M  V30 5325 H 550.417 2.04215 0.220285 0
M  V30 5326 H 548.647 2.80972 2.65691 0
M  V30 5327 H 550.336 3.19797 2.4997 0
M  V30 5328 H 551.102 4.81127 0.611666 0
M  V30 5329 H 546.981 4.27865 1.71616 0
M  V30 5330 H 550.525 6.96102 -0.456926 0
M  V30 5331 H 546.422 6.42181 0.653759 0
M  V30 5332 H 547.19 8.17192 -0.462588 0
M  V30 5333 N 549.853 -0.472356 1.50355 0
M  V30 5334 C 550.783 -1.57859 1.72055 0
M  V30 5335 C 551.764 -1.60283 0.569505 0
M  V30 5336 O 552.949 -1.7657 0.808503 0
M  V30 5337 C 550.079 -2.96191 1.81351 0
M  V30 5338 C 549.033 -3.08633 2.96529 0
M  V30 5339 C 548.359 -4.486 2.90968 0
M  V30 5340 C 549.659 -2.85969 4.37057 0
M  V30 5341 H 551.353 -1.39953 2.64676 0
M  V30 5342 H 548.899 -0.671846 1.27367 0
M  V30 5343 H 550.852 -3.73507 1.95117 0
M  V30 5344 H 549.576 -3.15251 0.853502 0
M  V30 5345 H 548.235 -2.33749 2.82413 0
M  V30 5346 H 547.883 -4.64577 1.92815 0
M  V30 5347 H 547.583 -4.57861 3.68289 0
M  V30 5348 H 549.107 -5.27938 3.0678 0
M  V30 5349 H 550.521 -3.53036 4.51706 0
M  V30 5350 H 548.918 -3.06677 5.15819 0
M  V30 5351 H 549.988 -1.81838 4.49514 0
M  V30 5352 N 551.331 -1.39911 -0.725443 0
M  V30 5353 C 552.263 -1.35301 -1.85003 0
M  V30 5354 C 553.276 -0.260102 -1.60709 0
M  V30 5355 O 554.465 -0.519749 -1.70766 0
M  V30 5356 C 551.565 -1.08039 -3.21218 0
M  V30 5357 C 550.738 -2.28793 -3.7279 0
M  V30 5358 C 549.797 -1.97841 -4.87591 0
M  V30 5359 O 548.823 -2.70616 -5.00755 0
M  V30 5360 N 550.025 -0.950367 -5.72668 0
M  V30 5361 H 552.79 -2.32218 -1.89459 0
M  V30 5362 H 550.351 -1.34137 -0.90658 0
M  V30 5363 H 552.343 -0.853354 -3.95601 0
M  V30 5364 H 550.913 -0.198229 -3.11971 0
M  V30 5365 H 550.133 -2.67388 -2.8965 0
M  V30 5366 H 551.421 -3.09317 -4.03981 0
M  V30 5367 H 550.819 -0.347436 -5.64632 0
M  V30 5368 H 549.376 -0.783232 -6.47077 0
M  V30 5369 N 552.809 0.956637 -1.25245 0
M  V30 5370 C 553.719 2.0868 -1.0719 0
M  V30 5371 C 554.735 1.73997 -0.00959074 0
M  V30 5372 O 555.911 2.00301 -0.210104 0
M  V30 5373 C 552.976 3.39754 -0.690526 0
M  V30 5374 C 552.037 3.88316 -1.83055 0
M  V30 5375 C 551.27 5.13134 -1.46728 0
M  V30 5376 O 551.493 5.6925 -0.362029 0
M  V30 5377 O 550.427 5.56356 -2.29677 0
M  V30 5378 H 554.253 2.26813 -2.01965 0
M  V30 5379 H 551.838 1.07098 -1.04165 0
M  V30 5380 H 553.72 4.18543 -0.489871 0
M  V30 5381 H 552.395 3.22896 0.227981 0
M  V30 5382 H 551.302 3.1054 -2.08604 0
M  V30 5383 H 552.635 4.09669 -2.72822 0
M  V30 5384 N 554.287 1.06798 1.15896 0
M  V30 5385 C 555.235 0.677525 2.22514 0
M  V30 5386 C 556.229 -0.308994 1.66558 0
M  V30 5387 O 557.435 -0.173308 1.79164 0
M  V30 5388 H 553.81 0.200994 0.724642 0
M  V30 5389 H 555.781 1.5865 2.52731 0
M  V30 5390 C 554.53 0.0854153 3.47595 0
M  V30 5391 H 553.853 0.835645 3.90969 0
M  V30 5392 H 555.293 -0.150199 4.23734 0
M  V30 5393 C 553.752 -1.1724 3.15843 0
M  V30 5394 O 554.282 -2.25965 3.32119 0
M  V30 5395 N 552.488 -1.07636 2.69931 0
M  V30 5396 H 552.035 -0.191559 2.56887 0
M  V30 5397 H 551.993 -1.91876 2.4906 0
M  V30 5398 N 555.766 -1.3263 0.851289 0
M  V30 5399 C 556.714 -2.30882 0.282202 0
M  V30 5400 C 557.708 -1.58697 -0.592589 0
M  V30 5401 O 558.914 -1.73461 -0.480768 0
M  V30 5402 H 555.289 -0.748492 0.0725487 0
M  V30 5403 H 557.26 -2.76374 1.12516 0
M  V30 5404 C 556.009 -3.43828 -0.517449 0
M  V30 5405 H 555.332 -3.99532 0.146392 0
M  V30 5406 H 556.772 -4.1474 -0.88128 0
M  V30 5407 C 555.231 -2.90786 -1.70133 0
M  V30 5408 O 555.761 -2.88 -2.80034 0
M  V30 5409 N 553.967 -2.4723 -1.52728 0
M  V30 5410 H 553.514 -2.49695 -0.633257 0
M  V30 5411 H 553.472 -2.12094 -2.32085 0
M  V30 5412 N 557.244 -0.608902 -1.45362 0
M  V30 5413 C 558.492 -0.104401 -2.0183 0
M  V30 5414 C 558.813 1.27007 -1.47967 0
M  V30 5415 O 558.083 1.83924 -0.674455 0
M  V30 5416 H 556.663 -0.0356042 -0.746151 0
M  V30 5417 H 559.325 -0.790596 -1.78145 0
M  V30 5418 H 558.421 -0.0551793 -3.12051 0
M  V30 5419 N 558.722 1.53707 -0.348139 0
M  V30 5420 C 559.652 2.28111 0.498766 0
M  V30 5421 C 560.633 1.29851 1.09876 0
M  V30 5422 O 561.818 1.587 1.11928 0
M  V30 5423 C 558.948 3.05735 1.64753 0
M  V30 5424 C 557.902 4.11537 1.17565 0
M  V30 5425 C 557.228 4.77142 2.4133 0
M  V30 5426 C 558.528 5.21587 0.272844 0
M  V30 5427 H 560.222 2.99152 -0.121934 0
M  V30 5428 H 557.768 1.43875 -0.0600842 0
M  V30 5429 H 559.721 3.56526 2.24649 0
M  V30 5430 H 558.445 2.32354 2.2952 0
M  V30 5431 H 557.104 3.61665 0.599483 0
M  V30 5432 H 556.752 4.0035 3.04514 0
M  V30 5433 H 556.452 5.48626 2.10436 0
M  V30 5434 H 557.976 5.30719 3.01943 0
M  V30 5435 H 559.39 5.67986 0.778779 0
M  V30 5436 H 557.787 6.00074 0.0555849 0
M  V30 5437 H 558.857 4.79969 -0.689785 0
M  V30 5438 N 560.2 0.0768682 1.57412 0
M  V30 5439 C 561.428 -0.59997 1.9801 0
M  V30 5440 C 561.843 -1.62842 0.955408 0
M  V30 5441 O 561.2 -1.8241 -0.057314 0
M  V30 5442 C 561.251 -1.26401 3.38681 0
M  V30 5443 O 560.972 -0.276723 4.37225 0
M  V30 5444 C 562.473 -2.0282 3.94182 0
M  V30 5445 H 559.693 -0.162239 0.651091 0
M  V30 5446 H 562.237 0.150771 2.03943 0
M  V30 5447 H 560.392 -1.96581 3.33819 0
M  V30 5448 H 560.806 -0.753744 5.19056 0
M  V30 5449 H 562.28 -2.44667 4.94815 0
M  V30 5450 H 562.757 -2.88678 3.31001 0
M  V30 5451 H 563.363 -1.37496 4.02461 0
M  V30 5452 N 561.678 -1.56367 -0.196722 0
M  V30 5453 C 563.089 -1.70462 -0.761545 0
M  V30 5454 C 563.44 -0.683161 -1.83922 0
M  V30 5455 O 562.565 0.160753 -2.15802 0
M  V30 5456 C 563.16 -3.09057 -1.38814 0
M  V30 5457 C 561.719 -3.24922 -1.90007 0
M  V30 5458 C 560.866 -2.66412 -0.769399 0
M  V30 5459 H 563.817 -1.58675 0.0283263 0
M  V30 5460 H 563.838 -3.06296 -2.2575 0
M  V30 5461 H 563.35 -3.83378 -0.603559 0
M  V30 5462 H 561.451 -2.55514 -2.71189 0
M  V30 5463 H 561.564 -4.3241 -2.06297 0
M  V30 5464 H 559.928 -2.25546 -1.18326 0
M  V30 5465 H 560.711 -3.433 0.00291773 0
M  V30 5466 N 563.156 0.464375 -1.50603 0
M  V30 5467 C 564.086 1.56944 -1.72889 0
M  V30 5468 C 565.067 1.59979 -0.577997 0
M  V30 5469 O 566.252 1.76138 -0.817855 0
M  V30 5470 C 563.382 2.95225 -1.8292 0
M  V30 5471 C 562.336 3.07056 -2.98162 0
M  V30 5472 C 561.662 4.47051 -2.93343 0
M  V30 5473 C 562.962 2.83648 -4.38567 0
M  V30 5474 H 564.656 1.38547 -2.65415 0
M  V30 5475 H 562.202 0.665082 -1.27721 0
M  V30 5476 H 564.155 3.72467 -1.97095 0
M  V30 5477 H 562.879 3.14793 -0.870209 0
M  V30 5478 H 561.538 2.32248 -2.83648 0
M  V30 5479 H 561.186 4.63547 -1.95276 0
M  V30 5480 H 560.886 4.55902 -3.70712 0
M  V30 5481 H 562.41 5.26304 -3.09575 0
M  V30 5482 H 563.824 3.50636 -4.53572 0
M  V30 5483 H 562.221 3.03937 -5.17438 0
M  V30 5484 H 563.291 1.79451 -4.50472 0
M  V30 5485 N 564.634 1.40294 0.718013 0
M  V30 5486 C 565.566 1.36281 1.84283 0
M  V30 5487 C 566.579 0.268621 1.60569 0
M  V30 5488 O 567.768 0.528798 1.70487 0
M  V30 5489 C 564.868 1.09741 3.2064 0
M  V30 5490 C 564.041 2.30767 3.71571 0
M  V30 5491 C 563.1 2.00424 4.86535 0
M  V30 5492 O 562.126 2.73268 4.99313 0
M  V30 5493 N 563.328 0.980724 5.72156 0
M  V30 5494 H 566.093 2.3322 1.88225 0
M  V30 5495 H 563.654 1.34616 0.899453 0
M  V30 5496 H 565.646 0.874322 3.95143 0
M  V30 5497 H 564.216 0.214771 3.11861 0
M  V30 5498 H 563.436 2.68921 2.88228 0
M  V30 5499 H 564.724 3.11455 4.02335 0
M  V30 5500 H 564.122 0.377375 5.6444 0
M  V30 5501 H 562.679 0.817538 6.46653 0
M  V30 5502 N 566.112 -0.949982 1.2575 0
M  V30 5503 C 567.042 -2.06483 1.09028 0
M  V30 5504 C 568.023 -1.701 -0.00201532 0
M  V30 5505 O 569.208 -1.93469 0.168383 0
M  V30 5506 C 566.338 -3.39899 0.71316 0
M  V30 5507 C 565.292 -3.90309 1.75621 0
M  V30 5508 C 564.618 -5.20274 1.23365 0
M  V30 5509 C 565.918 -4.16169 3.15596 0
M  V30 5510 H 567.612 -2.20731 2.02283 0
M  V30 5511 H 565.158 -1.06066 0.973964 0
M  V30 5512 H 567.111 -4.17346 0.58309 0
M  V30 5513 H 565.835 -3.25602 -0.255091 0
M  V30 5514 H 564.494 -3.15035 1.8748 0
M  V30 5515 H 564.142 -5.02351 0.255491 0
M  V30 5516 H 563.842 -5.54971 1.93082 0
M  V30 5517 H 565.366 -6.00314 1.11607 0
M  V30 5518 H 566.78 -4.84259 3.06864 0
M  V30 5519 H 565.177 -4.62131 3.82825 0
M  V30 5520 H 566.247 -3.22273 3.6231 0
M  V30 5521 N 567.59 -1.07411 -1.15328 0
M  V30 5522 C 568.818 -0.818782 -1.90009 0
M  V30 5523 C 569.233 0.628072 -1.78047 0
M  V30 5524 O 568.59 1.43085 -1.13282 0
M  V30 5525 C 568.641 -1.21874 -3.40337 0
M  V30 5526 O 568.362 -2.60883 -3.51954 0
M  V30 5527 C 569.863 -0.992796 -4.3204 0
M  V30 5528 H 567.083 -0.296007 -0.60218 0
M  V30 5529 H 569.627 -1.43073 -1.46117 0
M  V30 5530 H 567.782 -0.651103 -3.81889 0
M  V30 5531 H 568.196 -2.77216 -4.45255 0
M  V30 5532 H 569.67 -1.32215 -5.35932 0
M  V30 5533 H 570.147 0.0708331 -4.39143 0
M  V30 5534 H 570.753 -1.54537 -3.9623 0
M  V30 5535 N 569.068 1.32177 -0.85831 0
M  V30 5536 C 570.316 1.96735 -0.462568 0
M  V30 5537 C 570.637 1.6824 0.985911 0
M  V30 5538 O 569.907 0.991564 1.68952 0
M  V30 5539 H 568.487 0.727849 -0.168064 0
M  V30 5540 H 571.149 1.61195 -1.09554 0
M  V30 5541 H 570.245 3.06068 -0.610647 0
M  V30 5542 N 570.547 0.616602 1.45037 0
M  V30 5543 C 571.477 -0.0840787 2.33349 0
M  V30 5544 C 572.458 -0.849641 1.4736 0
M  V30 5545 O 573.643 -0.818407 1.76113 0
M  V30 5546 C 570.773 -1.07604 3.3021 0
M  V30 5547 C 569.727 -0.423096 4.25904 0
M  V30 5548 C 569.053 -1.52394 5.12523 0
M  V30 5549 C 570.353 0.661457 5.18095 0
M  V30 5550 H 572.047 0.653333 2.92185 0
M  V30 5551 H 569.593 0.315634 1.40498 0
M  V30 5552 H 571.546 -1.57485 3.90866 0
M  V30 5553 H 570.27 -1.84416 2.69552 0
M  V30 5554 H 568.929 0.05493 3.66559 0
M  V30 5555 H 568.577 -2.28257 4.48227 0
M  V30 5556 H 568.277 -1.09251 5.77354 0
M  V30 5557 H 569.801 -2.02485 5.76049 0
M  V30 5558 H 571.215 0.246353 5.7277 0
M  V30 5559 H 569.612 1.01517 5.91451 0
M  V30 5560 H 570.682 1.53446 4.59981 0
M  V30 5561 N 572.025 -1.5352 0.356285 0
M  V30 5562 C 572.955 -2.28372 -0.486661 0
M  V30 5563 C 573.936 -1.30432 -1.09185 0
M  V30 5564 O 575.121 -1.59291 -1.11085 0
M  V30 5565 C 572.251 -3.06604 -1.63129 0
M  V30 5566 C 571.205 -4.12154 -1.15381 0
M  V30 5567 C 570.531 -4.78415 -2.38796 0
M  V30 5568 C 571.831 -5.21724 -0.245179 0
M  V30 5569 H 573.525 -2.99083 0.137797 0
M  V30 5570 H 571.071 -1.43841 0.0677134 0
M  V30 5571 H 573.024 -3.57712 -2.22755 0
M  V30 5572 H 571.748 -2.33568 -2.28284 0
M  V30 5573 H 570.407 -3.61978 -0.580294 0
M  V30 5574 H 570.055 -4.01959 -3.02387 0
M  V30 5575 H 569.755 -5.49734 -2.07524 0
M  V30 5576 H 571.279 -5.32313 -2.99125 0
M  V30 5577 H 572.693 -5.68391 -0.748646 0
M  V30 5578 H 571.09 -6.00095 -0.0237608 0
M  V30 5579 H 572.16 -4.79596 0.715229 0
M  V30 5580 N 573.503 -0.0852151 -1.57369 0
M  V30 5581 C 574.451 0.894856 -2.14698 0
M  V30 5582 C 575.445 1.29903 -1.08727 0
M  V30 5583 O 576.651 1.27471 -1.27088 0
M  V30 5584 H 573.026 0.306569 -0.686673 0
M  V30 5585 H 574.997 0.386542 -2.95886 0
M  V30 5586 C 573.746 2.14798 -2.73417 0
M  V30 5587 H 573.069 1.84585 -3.54638 0
M  V30 5588 H 574.509 2.81456 -3.1711 0
M  V30 5589 C 572.968 2.91546 -1.68828 0
M  V30 5590 O 573.498 3.85733 -1.12129 0
M  V30 5591 N 571.704 2.54901 -1.39549 0
M  V30 5592 H 571.251 1.7838 -1.85845 0
M  V30 5593 H 571.209 3.06553 -0.698054 0
M  V30 5594 N 574.981 1.5647 0.188427 0
M  V30 5595 C 576.206 1.85486 0.927891 0
M  V30 5596 C 576.631 0.669575 1.75779 0
M  V30 5597 O 575.989 -0.381573 1.77239 0
M  V30 5598 C 576.037 3.12784 1.7944 0
M  V30 5599 O 575.141 2.93805 2.894 0
M  V30 5600 H 574.482 0.610585 0.260925 0
M  V30 5601 H 577.012 2.037 0.191729 0
M  V30 5602 H 577.022 3.43749 2.19774 0
M  V30 5603 H 575.697 3.98671 1.18468 0
M  V30 5604 H 574.274 2.74153 2.52774 0
M  V30 5605 N 576.459 -0.456382 1.50847 0
M  V30 5606 C 577.875 -0.791345 1.386 0
M  V30 5607 C 578.075 -1.9633 0.453498 0
M  V30 5608 O 577.131 -2.52308 -0.0984353 0
M  V30 5609 C 578.444 -1.08959 2.80265 0
M  V30 5610 C 579.992 -1.19517 2.89283 0
M  V30 5611 C 580.467 -1.52647 4.31814 0
M  V30 5612 N 581.958 -1.59609 4.34832 0
M  V30 5613 C 582.693 -1.86777 5.42127 0
M  V30 5614 N 582.189 -2.11866 6.59609 0
M  V30 5615 N 583.982 -1.88402 5.29586 0
M  V30 5616 H 576.133 0.315746 2.1004 0
M  V30 5617 H 578.396 0.0787916 0.94472 0
M  V30 5618 H 578.102 -0.301355 3.50407 0
M  V30 5619 H 577.976 -2.02211 3.18419 0
M  V30 5620 H 580.363 -1.97406 2.19351 0
M  V30 5621 H 580.444 -0.242111 2.54652 0
M  V30 5622 H 580.088 -0.752922 5.02288 0
M  V30 5623 H 580.018 -2.49127 4.63943 0
M  V30 5624 H 582.509 -1.42201 3.50125 0
M  V30 5625 H 582.822 -2.31912 7.37182 0
M  V30 5626 H 581.167 -2.09228 6.62758 0
M  V30 5627 H 584.358 -1.68307 4.36795 0
M  V30 5628 H 584.531 -2.09238 6.13289 0
M  V30 5629 N 577.937 -1.40673 -0.710563 0
M  V30 5630 C 578.9 -1.4108 -1.80635 0
M  V30 5631 C 579.9 -0.303783 -1.57904 0
M  V30 5632 O 581.09 -0.562937 -1.64853 0
M  V30 5633 C 578.222 -1.20748 -3.18799 0
M  V30 5634 H 579.415 -2.38612 -1.81671 0
M  V30 5635 H 576.968 -1.26595 -0.916704 0
M  V30 5636 H 577.703 -0.239964 -3.23411 0
M  V30 5637 H 577.488 -2.00941 -3.36698 0
M  V30 5638 H 578.978 -1.23833 -3.98817 0
M  V30 5639 N 579.415 0.9433 -1.26252 0
M  V30 5640 C 580.64 1.72898 -1.14547 0
M  V30 5641 C 581.065 1.85761 0.295743 0
M  V30 5642 O 580.423 1.3463 1.21427 0
M  V30 5643 C 580.471 3.11471 -1.8171 0
M  V30 5644 O 579.575 3.97336 -1.10445 0
M  V30 5645 H 578.916 0.530555 -0.399259 0
M  V30 5646 H 581.446 1.18159 -1.67032 0
M  V30 5647 H 581.456 3.61872 -1.88449 0
M  V30 5648 H 580.131 3.01425 -2.86558 0
M  V30 5649 H 578.708 3.55788 -1.11666 0
M  V30 5650 N 580.893 1.08022 1.14757 0
M  V30 5651 C 581.803 0.718292 2.23333 0
M  V30 5652 C 582.819 -0.273477 1.71837 0
M  V30 5653 O 583.995 -0.118406 2.01052 0
M  V30 5654 C 581.06 0.128855 3.4646 0
M  V30 5655 C 580.121 1.17473 4.12915 0
M  V30 5656 C 579.354 0.61333 5.30164 0
M  V30 5657 O 579.577 -0.568458 5.6756 0
M  V30 5658 O 578.511 1.3615 5.86299 0
M  V30 5659 H 582.337 1.62394 2.56636 0
M  V30 5660 H 579.922 0.853628 1.22611 0
M  V30 5661 H 581.804 -0.197249 4.20938 0
M  V30 5662 H 580.479 -0.750014 3.14891 0
M  V30 5663 H 579.386 1.5533 3.40328 0
M  V30 5664 H 580.719 2.02574 4.48581 0
M  V30 5665 N 582.371 -1.3172 0.865308 0
M  V30 5666 C 583.319 -2.30569 0.306674 0
M  V30 5667 C 584.313 -1.59317 -0.575724 0
M  V30 5668 O 585.519 -1.73961 -0.462343 0
M  V30 5669 H 581.894 -0.747681 0.0804834 0
M  V30 5670 H 583.865 -2.75165 1.15441 0
M  V30 5671 C 582.614 -3.44358 -0.480952 0
M  V30 5672 H 581.937 -3.99354 0.18876 0
M  V30 5673 H 583.377 -4.15652 -0.837241 0
M  V30 5674 C 581.836 -2.92574 -1.67039 0
M  V30 5675 O 582.366 -2.90954 -2.76964 0
M  V30 5676 N 580.572 -2.48835 -1.50097 0
M  V30 5677 H 580.119 -2.50353 -0.606738 0
M  V30 5678 H 580.077 -2.14543 -2.29823 0
M  V30 5679 N 583.85 -0.624285 -1.44708 0
M  V30 5680 C 584.797 0.0847135 -2.30644 0
M  V30 5681 C 585.767 0.843575 -1.43084 0
M  V30 5682 O 586.952 0.825982 -1.71995 0
M  V30 5683 C 584.091 1.06495 -3.28257 0
M  V30 5684 C 583.205 0.305224 -4.3092 0
M  V30 5685 C 582.34 1.27667 -5.1563 0
M  V30 5686 C 581.379 0.505706 -6.10007 0
M  V30 5687 N 580.516 1.42727 -6.8744 0
M  V30 5688 H 585.356 -0.654068 -2.90733 0
M  V30 5689 H 582.893 -0.334334 -1.4325 0
M  V30 5690 H 584.851 1.64658 -3.83332 0
M  V30 5691 H 583.481 1.77094 -2.69884 0
M  V30 5692 H 582.533 -0.392207 -3.78373 0
M  V30 5693 H 583.845 -0.295553 -4.97924 0
M  V30 5694 H 582.999 1.92984 -5.75189 0
M  V30 5695 H 581.738 1.91137 -4.48685 0
M  V30 5696 H 580.743 -0.160999 -5.49564 0
M  V30 5697 H 581.968 -0.124183 -6.78986 0
M  V30 5698 H 579.913 2.04931 -6.23169 0
M  V30 5699 H 579.831 0.880345 -7.50857 0
M  V30 5700 H 581.099 2.0695 -7.51526 0
M  V30 5701 N 585.328 1.53329 -0.364422 0
M  V30 5702 C 586.574 2.01537 0.225969 0
M  V30 5703 C 586.907 1.25128 1.48515 0
M  V30 5704 O 586.182 0.344653 1.91422 0
M  V30 5705 C 586.465 3.56339 0.519092 0
M  V30 5706 C 586.318 4.43441 -0.753639 0
M  V30 5707 C 587.637 4.19833 1.32015 0
M  V30 5708 H 584.756 0.732573 0.0806548 0
M  V30 5709 H 587.398 1.83597 -0.489084 0
M  V30 5710 H 585.548 3.71756 1.12825 0
M  V30 5711 H 587.22 4.39823 -1.39116 0
M  V30 5712 H 585.463 4.11457 -1.37424 0
M  V30 5713 H 586.134 5.49699 -0.503517 0
M  V30 5714 H 588.61 4.08242 0.804859 0
M  V30 5715 H 587.486 5.28177 1.49399 0
M  V30 5716 H 587.747 3.75821 2.32832 0
M  V30 5717 N 586.806 0.0935595 1.57322 0
M  V30 5718 C 588.031 -0.582324 1.99057 0
M  V30 5719 C 588.456 -1.61025 0.972242 0
M  V30 5720 O 587.814 -1.81202 -0.0594622 0
M  V30 5721 C 587.862 -1.20799 3.39765 0
M  V30 5722 O 586.966 -2.32382 3.40694 0
M  V30 5723 H 586.307 -0.147884 0.647323 0
M  V30 5724 H 588.837 0.174516 2.03854 0
M  V30 5725 H 588.847 -1.54966 3.77425 0
M  V30 5726 H 587.522 -0.454914 4.13405 0
M  V30 5727 H 586.099 -1.99845 3.14827 0
M  V30 5728 N 588.284 -1.56567 -0.180126 0
M  V30 5729 C 589.561 -1.7235 -0.924931 0
M  V30 5730 C 589.941 -0.652523 -2.00762 0
M  V30 5731 O 589.289 0.334115 -2.26044 0
M  V30 5732 C 589.499 -3.1523 -1.49771 0
M  V30 5733 C 590.847 -3.75921 -1.97405 0
M  V30 5734 O 591.871 -3.18452 -1.59583 0
M  V30 5735 O 590.73 -4.7681 -2.67048 0
M  V30 5736 H 587.824 -0.703502 -0.434758 0
M  V30 5737 H 590.37 -1.6886 -0.168647 0
M  V30 5738 H 589.142 -3.84656 -0.718027 0
M  V30 5739 H 588.765 -3.23009 -2.31842 0
M  V30 5740 N 589.762 0.448376 -1.51087 0
M  V30 5741 C 590.99 1.22143 -1.66999 0
M  V30 5742 C 591.405 1.85283 -0.362699 0
M  V30 5743 O 590.762 1.70236 0.65772 0
M  V30 5744 C 590.813 2.31357 -2.7777 0
M  V30 5745 O 590.534 1.70801 -4.03434 0
M  V30 5746 C 592.035 3.21836 -3.04855 0
M  V30 5747 H 589.255 0.368558 -0.560719 0
M  V30 5748 H 591.799 0.532618 -1.97442 0
M  V30 5749 H 589.954 2.95973 -2.49958 0
M  V30 5750 H 590.368 2.42895 -4.64868 0
M  V30 5751 H 591.842 3.94627 -3.85971 0
M  V30 5752 H 592.319 3.81949 -2.16821 0
M  V30 5753 H 592.925 2.62933 -3.34285 0
M  V30 5754 N 591.24 1.41047 0.703093 0
M  V30 5755 C 592.656 1.23351 1.01275 0
M  V30 5756 C 592.856 0.11754 2.01157 0
M  V30 5757 O 591.912 -0.520518 2.47077 0
M  V30 5758 C 593.225 2.58001 1.54454 0
M  V30 5759 C 594.773 2.65119 1.66376 0
M  V30 5760 C 595.248 4.00067 2.22958 0
M  V30 5761 N 596.739 4.01875 2.30328 0
M  V30 5762 C 597.474 5.03087 2.75119 0
M  V30 5763 N 596.97 6.14692 3.19571 0
M  V30 5764 N 598.763 4.90451 2.74616 0
M  V30 5765 H 590.914 2.1236 0.0412686 0
M  V30 5766 H 593.177 0.944543 0.08089 0
M  V30 5767 H 592.883 3.40378 0.88521 0
M  V30 5768 H 592.757 2.79962 2.52786 0
M  V30 5769 H 595.144 1.83106 2.31422 0
M  V30 5770 H 595.225 2.46975 0.666089 0
M  V30 5771 H 594.869 4.82526 1.58529 0
M  V30 5772 H 594.799 4.15547 3.23462 0
M  V30 5773 H 597.29 3.21291 1.98949 0
M  V30 5774 H 597.603 6.87799 3.52352 0
M  V30 5775 H 595.948 6.18239 3.17498 0
M  V30 5776 H 599.139 4.0235 2.39233 0
M  V30 5777 H 599.312 5.6947 3.09206 0
M  V30 5778 N 592.718 -0.936591 1.26751 0
M  V30 5779 C 593.966 -1.67998 1.12343 0
M  V30 5780 C 594.287 -1.92137 -0.332938 0
M  V30 5781 O 593.557 -1.52132 -1.23421 0
M  V30 5782 H 592.137 -0.622609 0.412756 0
M  V30 5783 H 594.799 -1.12509 1.59147 0
M  V30 5784 H 593.895 -2.65185 1.64571 0
M  V30 5785 N 594.196 -1.08629 -1.14182 0
M  V30 5786 C 595.424 -0.838889 -1.8913 0
M  V30 5787 C 595.839 0.609153 -1.78703 0
M  V30 5788 O 595.196 1.41876 -1.14794 0
M  V30 5789 C 595.247 -1.25477 -3.39025 0
M  V30 5790 O 594.968 -2.64601 -3.49167 0
M  V30 5791 C 596.469 -1.03856 -4.30963 0
M  V30 5792 H 593.689 -0.302377 -0.599007 0
M  V30 5793 H 596.233 -1.44615 -1.44592 0
M  V30 5794 H 594.388 -0.691571 -3.81177 0
M  V30 5795 H 594.802 -2.81922 -4.42289 0
M  V30 5796 H 596.276 -1.37892 -5.345 0
M  V30 5797 H 596.753 0.0242522 -4.39193 0
M  V30 5798 H 597.359 -1.58731 -3.94569 0
M  V30 5799 N 595.674 1.31259 -0.872281 0
M  V30 5800 C 596.902 2.00795 -0.498907 0
M  V30 5801 C 597.317 1.65464 0.909238 0
M  V30 5802 O 596.674 0.885073 1.59602 0
M  V30 5803 C 596.725 3.55625 -0.649092 0
M  V30 5804 O 596.446 3.89692 -2.00179 0
M  V30 5805 C 597.947 4.42434 -0.277034 0
M  V30 5806 H 595.167 0.642299 -0.194145 0
M  V30 5807 H 597.711 1.67438 -1.17408 0
M  V30 5808 H 595.866 3.87394 -0.0214402 0
M  V30 5809 H 596.28 4.84407 -2.01122 0
M  V30 5810 H 597.754 5.50299 -0.433064 0
M  V30 5811 H 598.231 4.32146 0.783989 0
M  V30 5812 H 598.837 4.16086 -0.880483 0
M  V30 5813 N 597.152 0.631951 1.44375 0
M  V30 5814 C 598.1 -0.0846693 2.32446 0
M  V30 5815 C 599.094 -0.834957 1.47393 0
M  V30 5816 O 600.3 -0.747764 1.63733 0
M  V30 5817 H 596.675 -0.0461508 0.750583 0
M  V30 5818 H 598.646 0.67619 2.90638 0
M  V30 5819 C 597.395 -1.05211 3.314 0
M  V30 5820 H 596.718 -0.484203 3.96857 0
M  V30 5821 H 598.158 -1.523 3.95703 0
M  V30 5822 C 596.617 -2.13776 2.60387 0
M  V30 5823 O 597.147 -3.21869 2.4034 0
M  V30 5824 N 595.353 -1.89733 2.20113 0
M  V30 5825 H 594.9 -1.01833 2.36618 0
M  V30 5826 H 594.858 -2.62572 1.72926 0
M  V30 5827 N 598.631 -1.53133 0.372548 0
M  V30 5828 C 599.578 -2.25951 -0.470631 0
M  V30 5829 C 600.548 -1.26895 -1.07176 0
M  V30 5830 O 601.733 -1.55691 -1.10294 0
M  V30 5831 C 598.873 -3.05726 -1.6008 0
M  V30 5832 C 597.986 -4.19684 -1.02416 0
M  V30 5833 C 597.121 -4.86888 -2.124 0
M  V30 5834 C 596.16 -5.92866 -1.52238 0
M  V30 5835 N 595.297 -6.53732 -2.56084 0
M  V30 5836 H 600.137 -2.97587 0.156816 0
M  V30 5837 H 597.674 -1.4683 0.0891571 0
M  V30 5838 H 599.632 -3.50258 -2.26661 0
M  V30 5839 H 598.262 -2.36331 -2.1988 0
M  V30 5840 H 597.314 -3.79588 -0.248426 0
M  V30 5841 H 598.626 -4.95821 -0.544366 0
M  V30 5842 H 597.78 -5.34638 -2.86787 0
M  V30 5843 H 596.519 -4.10239 -2.63734 0
M  V30 5844 H 595.524 -5.4447 -0.763685 0
M  V30 5845 H 596.749 -6.71439 -1.0172 0
M  V30 5846 H 594.695 -5.79932 -3.06618 0
M  V30 5847 H 594.612 -7.25429 -2.12811 0
M  V30 5848 H 595.88 -7.0613 -3.30152 0
M  V30 5849 N 600.109 -0.101901 -1.5727 0
M  V30 5850 C 601.039 0.851544 -2.17419 0
M  V30 5851 C 602.02 1.28942 -1.10941 0
M  V30 5852 O 603.205 1.35509 -1.39107 0
M  V30 5853 C 600.335 2.10816 -2.75996 0
M  V30 5854 C 599.289 1.80867 -3.87906 0
M  V30 5855 C 598.615 3.13413 -4.33216 0
M  V30 5856 C 599.915 1.0903 -5.10793 0
M  V30 5857 H 601.609 0.350381 -2.97343 0
M  V30 5858 H 599.155 0.16709 -1.43027 0
M  V30 5859 H 601.108 2.77959 -3.16729 0
M  V30 5860 H 599.832 2.63227 -1.93337 0
M  V30 5861 H 598.491 1.16119 -3.47724 0
M  V30 5862 H 598.139 3.63725 -3.47438 0
M  V30 5863 H 597.839 2.94155 -5.08671 0
M  V30 5864 H 599.363 3.81704 -4.76586 0
M  V30 5865 H 600.777 1.66295 -5.48652 0
M  V30 5866 H 599.174 0.99927 -5.91722 0
M  V30 5867 H 600.244 0.0741704 -4.84843 0
M  V30 5868 N 601.587 1.56661 0.17182 0
M  V30 5869 C 602.517 1.99401 1.21498 0
M  V30 5870 C 603.498 0.869516 1.46197 0
M  V30 5871 O 604.683 1.13556 1.57539 0
M  V30 5872 C 601.813 2.35346 2.55401 0
M  V30 5873 C 600.767 3.5075 2.45272 0
M  V30 5874 C 600.093 3.72437 3.8366 0
M  V30 5875 C 601.393 4.84216 1.95787 0
M  V30 5876 H 603.087 2.86792 0.859699 0
M  V30 5877 H 600.633 1.37977 0.412103 0
M  V30 5878 H 602.586 2.63843 3.2858 0
M  V30 5879 H 601.31 1.44864 2.92715 0
M  V30 5880 H 599.969 3.2238 1.74547 0
M  V30 5881 H 599.617 2.79246 4.18367 0
M  V30 5882 H 599.317 4.50087 3.77751 0
M  V30 5883 H 600.841 4.03334 4.58426 0
M  V30 5884 H 602.255 5.11592 2.5874 0
M  V30 5885 H 600.652 5.65498 2.00827 0
M  V30 5886 H 601.722 4.76243 0.912159 0
M  V30 5887 N 603.065 -0.440357 1.51323 0
M  V30 5888 C 604.295 -1.21079 1.67402 0
M  V30 5889 C 604.703 -1.85555 0.369599 0
M  V30 5890 O 604.046 -1.71375 -0.661525 0
M  V30 5891 C 604.108 -2.33839 2.73056 0
M  V30 5892 C 603.772 -1.89755 4.15743 0
M  V30 5893 C 604.769 -1.40268 5.0062 0
M  V30 5894 C 602.454 -1.97539 4.61826 0
M  V30 5895 C 604.448 -0.991474 6.29642 0
M  V30 5896 C 602.135 -1.56029 5.90845 0
M  V30 5897 C 603.133 -1.06915 6.7458 0
M  V30 5898 O 602.821 -0.659933 8.01187 0
M  V30 5899 H 602.553 -0.371133 0.56501 0
M  V30 5900 H 605.107 -0.528409 1.98487 0
M  V30 5901 H 603.337 -3.05345 2.37279 0
M  V30 5902 H 605.026 -2.95713 2.78044 0
M  V30 5903 H 605.792 -1.33652 4.66221 0
M  V30 5904 H 601.671 -2.34713 3.96776 0
M  V30 5905 H 605.215 -0.607425 6.9495 0
M  V30 5906 H 601.112 -1.62315 6.24759 0
M  V30 5907 H 601.88 -0.786052 8.14717 0
M  V30 5908 N 604.543 -1.41418 -0.695603 0
M  V30 5909 C 605.768 -1.44329 -1.48942 0
M  V30 5910 C 606.193 -0.0501579 -1.88033 0
M  V30 5911 O 605.551 0.946598 -1.54626 0
M  V30 5912 C 605.599 -2.3578 -2.72837 0
M  V30 5913 O 604.703 -1.81482 -3.70322 0
M  V30 5914 H 604.044 -0.489838 -0.44828 0
M  V30 5915 H 606.574 -1.85878 -0.855014 0
M  V30 5916 H 606.584 -2.51654 -3.21145 0
M  V30 5917 H 605.259 -3.37005 -2.43722 0
M  V30 5918 H 603.836 -1.75058 -3.29255 0
M  V30 5919 N 606.021 0.929856 -1.27246 0
M  V30 5920 C 606.951 2.04722 -1.12299 0
M  V30 5921 C 607.932 1.70082 -0.0250464 0
M  V30 5922 O 609.117 1.93176 -0.199141 0
M  V30 5923 C 606.247 3.38721 -0.767145 0
M  V30 5924 C 605.201 3.87466 -1.81808 0
M  V30 5925 C 604.527 5.18246 -1.31626 0
M  V30 5926 C 605.827 4.11095 -3.22177 0
M  V30 5927 H 607.521 2.17485 -2.05769 0
M  V30 5928 H 605.067 1.04503 -0.990715 0
M  V30 5929 H 607.02 4.16366 -0.649413 0
M  V30 5930 H 605.744 3.25967 0.203259 0
M  V30 5931 H 604.403 3.12012 -1.92468 0
M  V30 5932 H 604.051 5.01881 -0.335378 0
M  V30 5933 H 603.751 5.51829 -2.01887 0
M  V30 5934 H 605.275 5.98462 -1.21143 0
M  V30 5935 H 606.689 4.79316 -3.1453 0
M  V30 5936 H 605.086 4.55982 -3.90129 0
M  V30 5937 H 606.156 3.16468 -3.67391 0
M  V30 5938 N 607.499 1.09233 1.13605 0
M  V30 5939 C 608.462 0.733553 2.17144 0
M  V30 5940 C 609.462 -0.235873 1.59061 0
M  V30 5941 O 610.652 -0.0143167 1.74194 0
M  V30 5942 C 607.784 0.084471 3.40795 0
M  V30 5943 H 608.977 1.65049 2.50397 0
M  V30 5944 H 606.53 0.891264 1.28399 0
M  V30 5945 H 607.265 -0.843795 3.1313 0
M  V30 5946 H 607.05 0.781985 3.84223 0
M  V30 5947 H 608.54 -0.151216 4.17326 0
M  V30 5948 N 608.977 -1.30795 0.87923 0
M  V30 5949 C 610.254 -1.91145 0.415086 0
M  V30 5950 C 610.634 -1.7995 -1.10368 0
M  V30 5951 O 609.982 -1.21305 -1.93642 0
M  V30 5952 C 610.192 -3.37014 0.906778 0
M  V30 5953 C 611.54 -4.14101 0.938358 0
M  V30 5954 O 612.564 -3.45834 0.853053 0
M  V30 5955 O 611.423 -5.36054 1.06342 0
M  V30 5956 H 608.517 -0.81736 0.125905 0
M  V30 5957 H 611.063 -1.39401 0.967753 0
M  V30 5958 H 609.835 -3.3922 1.95053 0
M  V30 5959 H 609.458 -3.96204 0.332948 0
M  V30 5960 N 610.455 -0.639598 -1.44038 0
M  V30 5961 C 611.68 -0.153117 -2.06834 0
M  V30 5962 C 612.105 1.16676 -1.47541 0
M  V30 5963 O 611.463 1.71769 -0.580093 0
M  V30 5964 C 611.511 -0.0609169 -3.60549 0
M  V30 5965 O 610.615 0.98071 -4.00569 0
M  V30 5966 H 609.956 -0.0886402 -0.658057 0
M  V30 5967 H 612.486 -0.878674 -1.84771 0
M  V30 5968 H 612.496 0.126892 -4.07803 0
M  V30 5969 H 611.171 -1.0245 -4.03084 0
M  V30 5970 H 609.748 0.766789 -3.64931 0
M  V30 5971 N 611.933 1.52934 -0.380664 0
M  V30 5972 C 613.181 2.01069 0.203874 0
M  V30 5973 C 613.502 1.26922 1.4804 0
M  V30 5974 O 612.772 0.386787 1.92044 0
M  V30 5975 H 611.352 0.742882 0.0783279 0
M  V30 5976 H 614.014 1.88099 -0.510368 0
M  V30 5977 H 613.11 3.09258 0.42021 0
M  V30 5978 N 613.412 0.11024 1.57214 0
M  V30 5979 C 614.652 -0.553061 1.96775 0
M  V30 5980 C 615.016 -1.64403 0.991753 0
M  V30 5981 O 616.217 -2.36561 1.27642 0
M  V30 5982 C 614.488 -1.08004 3.4069 0
M  V30 5983 S 616.047 -1.75309 4.02259 0
M  V30 5984 H 612.865 -0.18003 0.68783 0
M  V30 5985 H 615.467 0.193242 1.94543 0
M  V30 5986 H 614.171 -0.274735 4.09479 0
M  V30 5987 H 613.702 -1.86182 3.46554 0
M  V30 5988 H 615.717 -3.03834 3.923 0
M  V30 5989 N 614.89 -1.56749 -0.16351 0
M  V30 5990 C 615.8 -2.00255 -1.2221 0
M  V30 5991 C 616.816 -0.915194 -1.47987 0
M  V30 5992 O 617.992 -1.22342 -1.59982 0
M  V30 5993 C 615.057 -2.36035 -2.53946 0
M  V30 5994 C 614.118 -3.58637 -2.35962 0
M  V30 5995 C 613.351 -3.92701 -3.61416 0
M  V30 5996 O 613.574 -3.27632 -4.66919 0
M  V30 5997 O 612.508 -4.86019 -3.55062 0
M  V30 5998 H 616.334 -2.90586 -0.882794 0
M  V30 5999 H 613.919 -1.44721 -0.370978 0
M  V30 6000 H 615.801 -2.59982 -3.31643 0
M  V30 6001 H 614.476 -1.48863 -2.8744 0
M  V30 6002 H 613.383 -3.39898 -1.5627 0
M  V30 6003 H 614.716 -4.46374 -2.0739 0
M  V30 6004 N 616.368 0.432326 -1.51554 0
M  V30 6005 C 617.779 1.01202 -1.56892 0
M  V30 6006 C 618.13 1.92175 -0.395394 0
M  V30 6007 O 617.255 2.10844 0.487198 0
M  V30 6008 C 617.85 1.84217 -2.8434 0
M  V30 6009 C 616.409 2.37228 -2.92233 0
M  V30 6010 C 615.556 1.16576 -2.51606 0
M  V30 6011 H 618.507 0.213407 -1.57259 0
M  V30 6012 H 618.528 2.69721 -2.68385 0
M  V30 6013 H 618.04 1.17979 -3.69733 0
M  V30 6014 H 616.141 3.06905 -2.11282 0
M  V30 6015 H 616.254 2.69682 -3.95991 0
M  V30 6016 H 614.618 1.51263 -2.04919 0
M  V30 6017 H 615.401 0.519404 -3.39348 0
M  V30 6018 N 617.846 1.41785 0.688094 0
M  V30 6019 C 619.123 1.32031 1.44316 0
M  V30 6020 C 619.503 -0.0486079 2.11044 0
M  V30 6021 O 618.851 -1.06332 2.02252 0
M  V30 6022 C 619.061 2.47906 2.45649 0
M  V30 6023 C 620.409 2.89415 3.10683 0
M  V30 6024 O 621.433 2.477 2.55975 0
M  V30 6025 O 620.292 3.61573 4.09789 0
M  V30 6026 H 617.386 0.519994 0.643067 0
M  V30 6027 H 619.932 1.53765 0.71794 0
M  V30 6028 H 618.704 3.39222 1.95048 0
M  V30 6029 H 618.327 2.28089 3.25671 0
M  V30 6030 N 619.324 -0.923095 1.27737 0
M  V30 6031 C 620.564 -1.6858 1.15586 0
M  V30 6032 C 620.928 -1.89758 -0.292562 0
M  V30 6033 O 622.129 -2.6339 -0.536583 0
M  V30 6034 C 620.4 -3.01275 1.92271 0
M  V30 6035 S 621.959 -3.924 1.96387 0
M  V30 6036 H 618.777 -0.579069 0.412554 0
M  V30 6037 H 621.379 -1.09866 1.61709 0
M  V30 6038 H 620.083 -2.83556 2.96689 0
M  V30 6039 H 619.614 -3.6504 1.46661 0
M  V30 6040 H 621.629 -4.84667 1.06361 0
M  V30 6041 N 620.802 -1.09834 -1.13024 0
M  V30 6042 C 622.05 -0.835297 -1.8403 0
M  V30 6043 C 622.371 0.640944 -1.84165 0
M  V30 6044 O 621.641 1.46517 -1.30037 0
M  V30 6045 H 620.221 -0.306018 -0.681441 0
M  V30 6046 H 622.883 -1.38734 -1.36891 0
M  V30 6047 H 621.979 -1.19258 -2.88416 0
M  V30 6048 N 622.28 1.30327 -0.886154 0
M  V30 6049 C 623.528 1.9571 -0.504195 0
M  V30 6050 C 623.849 1.70294 0.950003 0
M  V30 6051 O 623.119 1.02718 1.66811 0
M  V30 6052 H 621.699 0.72412 -0.183465 0
M  V30 6053 H 624.361 1.58835 -1.12949 0
M  V30 6054 H 623.457 3.04704 -0.675431 0
M  V30 6055 N 623.758 0.647228 1.43697 0
M  V30 6056 C 625.169 0.238689 1.85168 0
M  V30 6057 C 625.52 -1.21345 1.54175 0
M  V30 6058 O 624.645 -1.92542 0.987743 0
M  V30 6059 C 625.24 0.426422 3.36106 0
M  V30 6060 C 623.799 0.0722541 3.76331 0
M  V30 6061 C 622.946 0.732153 2.6746 0
M  V30 6062 H 625.897 0.851309 1.33934 0
M  V30 6063 H 625.918 -0.32987 3.79067 0
M  V30 6064 H 625.43 1.48339 3.58632 0
M  V30 6065 H 623.531 -0.982355 3.59417 0
M  V30 6066 H 623.644 0.493541 4.76551 0
M  V30 6067 H 622.008 0.16594 2.54159 0
M  V30 6068 H 622.791 1.79204 2.92816 0
M  V30 6069 N 625.236 -1.5273 0.388769 0
M  V30 6070 C 626.464 -2.05992 -0.193677 0
M  V30 6071 C 626.879 -1.26053 -1.40557 0
M  V30 6072 O 626.236 -0.307049 -1.79898 0
M  V30 6073 C 626.287 -3.57068 -0.564321 0
M  V30 6074 O 626.008 -4.3398 0.599422 0
M  V30 6075 C 627.509 -4.26674 -1.20269 0
M  V30 6076 H 624.729 -0.670358 -0.0293445 0
M  V30 6077 H 627.273 -1.96857 0.553844 0
M  V30 6078 H 625.428 -3.66277 -1.26174 0
M  V30 6079 H 625.842 -5.2367 0.294895 0
M  V30 6080 H 627.316 -5.33625 -1.4124 0
M  V30 6081 H 627.793 -3.81854 -2.16989 0
M  V30 6082 H 628.399 -4.2178 -0.546047 0
M  V30 6083 N 626.714 -0.118576 -1.57153 0
M  V30 6084 C 628.125 0.40687 -1.82213 0
M  V30 6085 C 628.476 1.66636 -1.03571 0
M  V30 6086 O 627.601 2.14682 -0.272171 0
M  V30 6087 C 628.196 0.744949 -3.30509 0
M  V30 6088 C 626.755 1.21503 -3.5625 0
M  V30 6089 C 625.902 0.223511 -2.76398 0
M  V30 6090 H 628.853 -0.343712 -1.54933 0
M  V30 6091 H 628.874 1.6024 -3.45114 0
M  V30 6092 H 628.386 -0.171911 -3.87719 0
M  V30 6093 H 626.487 2.1488 -3.04396 0
M  V30 6094 H 626.6 1.16065 -4.64829 0
M  V30 6095 H 624.964 0.71046 -2.44591 0
M  V30 6096 H 625.747 -0.686439 -3.36367 0
M  V30 6097 N 628.193 1.56834 0.155195 0
M  V30 6098 C 629.441 1.82536 0.867462 0
M  V30 6099 C 629.762 0.698168 1.82073 0
M  V30 6100 O 629.032 -0.280807 1.93877 0
M  V30 6101 H 627.612 0.673401 0.323327 0
M  V30 6102 H 630.274 1.94313 0.151156 0
M  V30 6103 H 629.37 2.77171 1.43466 0
M  V30 6104 N 629.671 -0.424282 1.51781 0
M  V30 6105 C 631.082 -1.00368 1.57427 0
M  V30 6106 C 631.433 -1.91962 0.40558 0
M  V30 6107 O 630.558 -2.111 -0.47601 0
M  V30 6108 C 631.153 -1.82707 2.85313 0
M  V30 6109 C 629.712 -2.35675 2.93487 0
M  V30 6110 C 628.859 -1.1524 2.5222 0
M  V30 6111 H 631.81 -0.205064 1.5737 0
M  V30 6112 H 631.831 -2.68294 2.69812 0
M  V30 6113 H 631.343 -1.16017 3.70353 0
M  V30 6114 H 629.444 -3.05781 2.12906 0
M  V30 6115 H 629.557 -2.67578 3.97415 0
M  V30 6116 H 627.921 -1.50174 2.05718 0
M  V30 6117 H 628.704 -0.5014 3.39619 0
M  V30 6118 N 631.149 -1.42148 -0.680565 0
M  V30 6119 C 632.426 -1.32795 -1.43614 0
M  V30 6120 C 632.806 0.037415 -2.11067 0
M  V30 6121 O 632.154 1.05258 -2.02813 0
M  V30 6122 C 632.364 -2.49206 -2.44331 0
M  V30 6123 C 633.712 -2.91059 -3.09144 0
M  V30 6124 O 634.736 -2.49054 -2.54657 0
M  V30 6125 O 633.595 -3.63741 -4.07866 0
M  V30 6126 H 630.689 -0.523397 -0.640301 0
M  V30 6127 H 633.235 -1.54144 -0.709775 0
M  V30 6128 H 632.007 -3.40252 -1.93247 0
M  V30 6129 H 631.63 -2.29813 -3.24456 0
M  V30 6130 N 632.627 0.916307 -1.28225 0
M  V30 6131 C 634.038 1.48024 -1.13779 0
M  V30 6132 C 634.389 1.94289 0.273139 0
M  V30 6133 O 633.514 1.82226 1.16716 0
M  V30 6134 C 634.109 2.69029 -2.05935 0
M  V30 6135 C 632.668 3.2161 -1.95561 0
M  V30 6136 C 631.815 1.94321 -1.97825 0
M  V30 6137 H 634.766 0.729272 -1.40951 0
M  V30 6138 H 634.787 3.44204 -1.62184 0
M  V30 6139 H 634.299 2.35325 -3.08616 0
M  V30 6140 H 632.4 3.60045 -0.959076 0
M  V30 6141 H 632.513 3.87032 -2.82388 0
M  V30 6142 H 630.877 2.1131 -1.42198 0
M  V30 6143 H 631.66 1.62917 -3.0218 0
M  V30 6144 N 634.105 1.10431 1.1244 0
M  V30 6145 C 635.382 0.758797 1.80282 0
M  V30 6146 C 635.762 -0.754727 1.97147 0
M  V30 6147 O 635.11 -1.68094 1.54779 0
M  V30 6148 C 635.32 1.50982 3.14651 0
M  V30 6149 C 636.668 1.68232 3.8985 0
M  V30 6150 O 637.692 1.47319 3.24308 0
M  V30 6151 O 636.551 2.02905 5.07437 0
M  V30 6152 H 633.645 0.273756 0.780376 0
M  V30 6153 H 636.191 1.20713 1.19275 0
M  V30 6154 H 634.963 2.53989 2.97666 0
M  V30 6155 H 634.586 1.05435 3.83366 0
M  V30 6156 N 635.583 -1.29855 0.893053 0
M  V30 6157 C 636.831 -1.9544 0.514566 0
M  V30 6158 C 637.152 -1.70795 -0.940959 0
M  V30 6159 O 636.422 -1.03601 -1.66264 0
M  V30 6160 H 635.002 -0.723137 0.187302 0
M  V30 6161 H 637.664 -1.58234 1.13789 0
M  V30 6162 H 636.76 -3.04341 0.691581 0
M  V30 6163 N 637.061 -0.65484 -1.43351 0
M  V30 6164 C 638.008 0.0357713 -2.30772 0
M  V30 6165 C 638.978 0.813035 -1.44841 0
M  V30 6166 O 640.163 0.789314 -1.73708 0
M  V30 6167 C 637.303 0.995084 -3.30442 0
M  V30 6168 C 636.416 0.21375 -4.31471 0
M  V30 6169 C 635.551 1.16701 -5.18222 0
M  V30 6170 C 634.59 0.376201 -6.10943 0
M  V30 6171 N 633.727 1.28113 -6.90313 0
M  V30 6172 H 638.567 -0.71559 -2.89281 0
M  V30 6173 H 636.104 -0.364645 -1.42509 0
M  V30 6174 H 638.062 1.5649 -3.86739 0
M  V30 6175 H 636.692 1.7133 -2.7358 0
M  V30 6176 H 635.744 -0.472377 -3.77456 0
M  V30 6177 H 637.056 -0.401103 -4.97185 0
M  V30 6178 H 636.21 1.8074 -5.79153 0
M  V30 6179 H 634.949 1.81577 -4.52638 0
M  V30 6180 H 633.954 -0.277534 -5.49099 0
M  V30 6181 H 635.179 -0.268178 -6.7857 0
M  V30 6182 H 633.125 1.91666 -6.27376 0
M  V30 6183 H 633.042 0.720879 -7.52555 0
M  V30 6184 H 634.31 1.90962 -7.55747 0
M  V30 6185 N 638.539 1.52521 -0.396863 0
M  V30 6186 C 639.469 2.29582 0.425941 0
M  V30 6187 C 640.45 1.33281 1.05689 0
M  V30 6188 O 641.635 1.62181 1.06823 0
M  V30 6189 C 638.765 3.10821 1.54943 0
M  V30 6190 C 637.719 4.15069 1.04413 0
M  V30 6191 C 637.045 4.84578 2.26028 0
M  V30 6192 C 638.345 5.22191 0.106767 0
M  V30 6193 H 640.039 2.98612 -0.217045 0
M  V30 6194 H 637.585 1.43611 -0.105826 0
M  V30 6195 H 639.538 3.63492 2.13193 0
M  V30 6196 H 638.262 2.39538 2.22011 0
M  V30 6197 H 636.921 3.63389 0.484118 0
M  V30 6198 H 636.569 4.09835 2.91623 0
M  V30 6199 H 636.269 5.55043 1.92876 0
M  V30 6200 H 637.793 5.40056 2.84906 0
M  V30 6201 H 639.207 5.70176 0.597685 0
M  V30 6202 H 637.604 5.99947 -0.135352 0
M  V30 6203 H 638.674 4.77531 -0.842134 0
M  V30 6204 N 640.017 0.126909 1.57088 0
M  V30 6205 C 641.263 -0.529952 1.95753 0
M  V30 6206 C 641.596 -1.65823 1.01077 0
M  V30 6207 O 640.871 -1.94437 0.0494162 0
M  V30 6208 C 641.154 -1.05517 3.44294 0
M  V30 6209 C 641.007 0.0702253 4.49745 0
M  V30 6210 C 642.326 -1.9435 3.94862 0
M  V30 6211 H 639.445 -0.191168 0.711775 0
M  V30 6212 H 642.087 0.204071 1.88901 0
M  V30 6213 H 640.237 -1.68069 3.50264 0
M  V30 6214 H 641.909 0.705834 4.55868 0
M  V30 6215 H 640.152 0.732259 4.27575 0
M  V30 6216 H 640.823 -0.338642 5.5096 0
M  V30 6217 H 643.299 -1.41658 3.91244 0
M  V30 6218 H 642.175 -2.28015 4.993 0
M  V30 6219 H 642.436 -2.87299 3.36024 0
M  V30 6220 N 641.495 -1.56914 -0.146875 0
M  V30 6221 C 642.72 -1.87881 -0.878386 0
M  V30 6222 C 643.145 -0.715945 -1.73942 0
M  V30 6223 O 642.503 0.334447 -1.78189 0
M  V30 6224 C 642.551 -3.17431 -1.71084 0
M  V30 6225 O 641.655 -3.01374 -2.81509 0
M  V30 6226 H 640.996 -0.617289 -0.244644 0
M  V30 6227 H 643.526 -2.04136 -0.137654 0
M  V30 6228 H 643.536 -3.49455 -2.10582 0
M  V30 6229 H 642.211 -4.01671 -1.07856 0
M  V30 6230 H 640.788 -2.80758 -2.45416 0
M  V30 6231 N 642.974 0.416227 -1.52004 0
M  V30 6232 C 644.222 1.16153 -1.65387 0
M  V30 6233 C 644.543 1.91208 -0.382669 0
M  V30 6234 O 643.813 1.86413 0.602231 0
M  V30 6235 H 642.393 0.431765 -0.60958 0
M  V30 6236 H 645.055 0.475151 -1.89019 0
M  V30 6237 H 644.151 1.87952 -2.4916 0
M  V30 6238 N 644.452 1.42507 0.673017 0
M  V30 6239 C 645.698 1.43284 1.43519 0
M  V30 6240 C 646.031 0.049668 1.94136 0
M  V30 6241 O 645.306 -0.926369 1.71022 0
M  V30 6242 C 645.589 2.45874 2.63093 0
M  V30 6243 C 645.442 3.93388 2.18096 0
M  V30 6244 C 646.761 2.45431 3.6531 0
M  V30 6245 H 643.88 0.521752 0.520522 0
M  V30 6246 H 646.522 1.73932 0.764701 0
M  V30 6247 H 644.672 2.19869 3.20296 0
M  V30 6248 H 646.344 4.30379 1.66046 0
M  V30 6249 H 644.587 4.07169 1.49652 0
M  V30 6250 H 645.258 4.60752 3.03993 0
M  V30 6251 H 647.734 2.68561 3.17827 0
M  V30 6252 H 646.61 3.19189 4.46553 0
M  V30 6253 H 646.871 1.48092 4.16559 0
M  V30 6254 N 645.93 -0.909495 1.28709 0
M  V30 6255 C 647.341 -1.47419 1.14563 0
M  V30 6256 C 647.692 -1.94432 -0.262832 0
M  V30 6257 O 646.817 -1.82842 -1.15748 0
M  V30 6258 C 647.412 -2.67933 2.07358 0
M  V30 6259 C 645.971 -3.20568 1.97264 0
M  V30 6260 C 645.118 -1.93269 1.98852 0
M  V30 6261 H 648.069 -0.721787 1.41336 0
M  V30 6262 H 648.09 -3.43339 1.64007 0
M  V30 6263 H 647.602 -2.33685 3.09859 0
M  V30 6264 H 645.703 -3.59531 0.978157 0
M  V30 6265 H 645.816 -3.85529 2.84436 0
M  V30 6266 H 644.18 -2.10553 1.43317 0
M  V30 6267 H 644.963 -1.61312 3.0304 0
M  V30 6268 N 647.408 -1.11026 -1.11852 0
M  V30 6269 C 648.654 -0.857729 -1.83768 0
M  V30 6270 C 648.987 0.615143 -1.842 0
M  V30 6271 O 648.262 1.45391 -1.29196 0
M  V30 6272 C 648.545 -1.41453 -3.31154 0
M  V30 6273 C 648.398 -2.95471 -3.39142 0
M  V30 6274 C 649.717 -1.0619 -4.27097 0
M  V30 6275 H 646.836 -0.313044 -0.667212 0
M  V30 6276 H 649.478 -1.37443 -1.31185 0
M  V30 6277 H 647.628 -0.975052 -3.76065 0
M  V30 6278 H 649.3 -3.4799 -3.02821 0
M  V30 6279 H 647.543 -3.31759 -2.79497 0
M  V30 6280 H 648.214 -3.29515 -4.42859 0
M  V30 6281 H 650.69 -1.44122 -3.90344 0
M  V30 6282 H 649.566 -1.47832 -5.28618 0
M  V30 6283 H 649.827 0.0278912 -4.42091 0
M  V30 6284 N 648.886 1.2938 -0.899927 0
M  V30 6285 C 649.834 2.29675 -0.367698 0
M  V30 6286 C 650.828 1.60787 0.533282 0
M  V30 6287 O 652.034 1.75126 0.416058 0
M  V30 6288 H 648.409 0.745284 -0.100279 0
M  V30 6289 H 650.38 2.72008 -1.22696 0
M  V30 6290 C 649.129 3.45512 0.389483 0
M  V30 6291 H 648.452 3.98713 -0.294575 0
M  V30 6292 H 649.892 4.17725 0.726744 0
M  V30 6293 C 648.351 2.969 1.59223 0
M  V30 6294 O 648.881 2.98195 2.69152 0
M  V30 6295 N 647.087 2.52728 1.43447 0
M  V30 6296 H 646.634 2.51873 0.540148 0
M  V30 6297 H 646.592 2.20561 2.24054 0
M  V30 6298 N 650.364 0.662433 1.43002 0
M  V30 6299 C 651.612 0.179237 2.01304 0
M  V30 6300 C 651.933 -1.21428 1.52579 0
M  V30 6301 O 651.203 -1.81294 0.742252 0
M  V30 6302 H 649.783 0.0632725 0.744316 0
M  V30 6303 H 652.445 0.856169 1.75088 0
M  V30 6304 H 651.541 0.170957 3.11631 0
M  V30 6305 N 651.842 -1.52309 0.404946 0
M  V30 6306 C 652.772 -2.29805 -0.41376 0
M  V30 6307 C 653.753 -1.3384 -1.0498 0
M  V30 6308 O 654.938 -1.62745 -1.05961 0
M  V30 6309 C 652.068 -3.11639 -1.53292 0
M  V30 6310 C 651.022 -4.15616 -1.02211 0
M  V30 6311 C 650.348 -4.8577 -2.23455 0
M  V30 6312 C 651.648 -5.2224 -0.0790725 0
M  V30 6313 H 653.342 -2.98493 0.232878 0
M  V30 6314 H 650.888 -1.43552 0.113441 0
M  V30 6315 H 652.841 -3.64618 -2.11262 0
M  V30 6316 H 651.565 -2.40712 -2.20738 0
M  V30 6317 H 650.224 -3.63641 -0.46484 0
M  V30 6318 H 649.872 -4.11376 -2.89445 0
M  V30 6319 H 649.572 -5.56058 -1.89929 0
M  V30 6320 H 651.096 -5.4156 -2.82038 0
M  V30 6321 H 652.51 -5.70485 -0.567438 0
M  V30 6322 H 650.907 -5.99867 0.167167 0
M  V30 6323 H 651.977 -4.77078 0.867447 0
M  V30 6324 N 653.32 -0.135238 -1.57019 0
M  V30 6325 C 654.545 0.529343 -2.00531 0
M  V30 6326 C 654.97 1.58391 -1.01459 0
M  V30 6327 O 654.328 1.81296 0.0113986 0
M  V30 6328 C 654.376 1.11748 -3.42848 0
M  V30 6329 O 653.48 2.23267 -3.46736 0
M  V30 6330 H 652.821 0.130669 -0.651016 0
M  V30 6331 H 655.351 -0.228503 -2.0332 0
M  V30 6332 H 655.361 1.44905 -3.81401 0
M  V30 6333 H 654.036 0.345147 -4.14465 0
M  V30 6334 H 652.613 1.91428 -3.20015 0
M  V30 6335 N 654.798 1.5699 0.138552 0
M  V30 6336 C 656.046 1.83446 0.848053 0
M  V30 6337 C 656.367 0.71744 1.81322 0
M  V30 6338 O 655.637 -0.260228 1.94164 0
M  V30 6339 H 654.217 0.676792 0.316166 0
M  V30 6340 H 656.879 1.94462 0.130538 0
M  V30 6341 H 655.975 2.78677 1.40518 0
M  V30 6342 N 656.276 -0.40816 1.52223 0
M  V30 6343 C 657.501 -1.18127 1.70472 0
M  V30 6344 C 657.926 -1.83491 0.41384 0
M  V30 6345 O 657.284 -1.70047 -0.628778 0
M  V30 6346 C 657.332 -2.21935 2.84213 0
M  V30 6347 O 656.436 -3.28099 2.4985 0
M  V30 6348 H 655.777 -0.344781 0.56747 0
M  V30 6349 H 658.307 -0.478328 1.9893 0
M  V30 6350 H 658.317 -2.66248 3.09153 0
M  V30 6351 H 656.992 -1.73744 3.7787 0
M  V30 6352 H 655.569 -2.89058 2.35584 0
M  V30 6353 N 657.755 -1.42862 -0.66545 0
M  V30 6354 C 659.171 -1.25993 -0.979687 0
M  V30 6355 C 659.371 -0.170831 -2.00775 0
M  V30 6356 O 658.427 0.454827 -2.4837 0
M  V30 6357 C 659.74 -2.62005 -1.47559 0
M  V30 6358 C 661.288 -2.69437 -1.59288 0
M  V30 6359 C 661.763 -4.05838 -2.12272 0
M  V30 6360 N 663.254 -4.0784 -2.19592 0
M  V30 6361 C 663.989 -5.10205 -2.61684 0
M  V30 6362 N 663.485 -6.22949 -3.03161 0
M  V30 6363 N 665.278 -4.9756 -2.61516 0
M  V30 6364 H 657.429 -2.12395 0.0150493 0
M  V30 6365 H 659.692 -0.946355 -0.0558187 0
M  V30 6366 H 659.398 -3.42605 -0.794654 0
M  V30 6367 H 659.272 -2.86566 -2.45275 0
M  V30 6368 H 661.659 -1.89178 -2.26486 0
M  V30 6369 H 661.74 -2.48655 -0.600374 0
M  V30 6370 H 661.384 -4.86559 -1.4568 0
M  V30 6371 H 661.314 -4.23977 -3.12331 0
M  V30 6372 H 663.805 -3.26452 -1.90361 0
M  V30 6373 H 664.118 -6.96899 -3.33993 0
M  V30 6374 H 662.463 -6.2644 -3.00995 0
M  V30 6375 H 665.654 -4.08551 -2.28481 0
M  V30 6376 H 665.827 -5.77468 -2.93999 0
M  V30 6377 N 659.233 0.902656 -1.29189 0
M  V30 6378 C 660.481 1.6496 -1.16758 0
M  V30 6379 C 660.802 1.92952 0.28188 0
M  V30 6380 O 660.072 1.55351 1.19344 0
M  V30 6381 H 658.652 0.611447 -0.429118 0
M  V30 6382 H 661.314 1.0825 -1.62074 0
M  V30 6383 H 660.41 2.60728 -1.71544 0
M  V30 6384 N 660.711 1.11618 1.11262 0
M  V30 6385 C 661.643 0.734015 2.17129 0
M  V30 6386 C 662.656 -0.235243 1.61091 0
M  V30 6387 O 663.845 -0.0178597 1.78491 0
M  V30 6388 C 660.945 0.0643682 3.38839 0
M  V30 6389 C 660.118 1.06092 4.24339 0
M  V30 6390 C 659.177 0.420482 5.24517 0
M  V30 6391 O 658.203 1.07495 5.58957 0
M  V30 6392 N 659.405 -0.815828 5.74739 0
M  V30 6393 H 662.17 1.64492 2.50524 0
M  V30 6394 H 659.731 1.00664 1.26801 0
M  V30 6395 H 661.723 -0.375851 4.02951 0
M  V30 6396 H 660.293 -0.749147 3.03491 0
M  V30 6397 H 659.513 1.67903 3.56654 0
M  V30 6398 H 660.801 1.73507 4.78302 0
M  V30 6399 H 660.199 -1.36668 5.48943 0
M  V30 6400 H 658.756 -1.199 6.40677 0
M  V30 6401 N 662.189 -1.289 0.906776 0
M  V30 6402 C 663.136 -2.2751 0.388313 0
M  V30 6403 C 664.106 -1.57301 -0.533439 0
M  V30 6404 O 665.291 -1.85243 -0.457148 0
M  V30 6405 C 662.431 -3.43091 -0.37181 0
M  V30 6406 C 661.544 -4.28066 0.581647 0
M  V30 6407 C 660.679 -5.30837 -0.19623 0
M  V30 6408 C 659.718 -6.07472 0.751294 0
M  V30 6409 N 658.855 -7.021 0.00737727 0
M  V30 6410 H 663.695 -2.71237 1.23428 0
M  V30 6411 H 661.232 -1.33397 0.619962 0
M  V30 6412 H 663.19 -4.08888 -0.828641 0
M  V30 6413 H 661.82 -3.00374 -1.18218 0
M  V30 6414 H 660.872 -3.62378 1.157 0
M  V30 6415 H 662.184 -4.81382 1.30665 0
M  V30 6416 H 661.338 -6.02485 -0.71394 0
M  V30 6417 H 660.077 -4.78272 -0.954324 0
M  V30 6418 H 659.082 -5.34682 1.28044 0
M  V30 6419 H 660.307 -6.62126 1.50883 0
M  V30 6420 H 658.253 -6.51894 -0.732854 0
M  V30 6421 H 658.17 -7.53004 0.672334 0
M  V30 6422 H 659.438 -7.77956 -0.490365 0
M  V30 6423 N 663.667 -0.670007 -1.42649 0
M  V30 6424 C 664.944 -0.119451 -1.95235 0
M  V30 6425 C 665.324 1.36461 -1.61064 0
M  V30 6426 O 664.672 2.09843 -0.904329 0
M  V30 6427 C 664.882 -0.383498 -3.46887 0
M  V30 6428 C 666.23 -0.297431 -4.23557 0
M  V30 6429 O 667.254 -0.31698 -3.54787 0
M  V30 6430 O 666.113 -0.235507 -5.45992 0
M  V30 6431 H 663.207 -8.85474e-05 -0.827 0
M  V30 6432 H 665.753 -0.744406 -1.52501 0
M  V30 6433 H 664.525 -1.41174 -3.64946 0
M  V30 6434 H 664.148 0.273702 -3.96657 0
M  V30 6435 N 665.145 1.52092 -0.413018 0
M  V30 6436 C 666.375 2.05974 0.160648 0
M  V30 6437 C 666.783 1.28267 1.39084 0
M  V30 6438 O 666.126 0.328805 1.80733 0
M  V30 6439 C 666.188 3.54918 0.572169 0
M  V30 6440 C 665.852 4.53705 -0.547826 0
M  V30 6441 C 666.849 5.00342 -1.41259 0
M  V30 6442 C 664.534 4.97089 -0.721627 0
M  V30 6443 C 666.528 5.89011 -2.43607 0
M  V30 6444 C 664.215 5.85554 -1.74841 0
M  V30 6445 C 665.213 6.3141 -2.60403 0
M  V30 6446 O 664.901 7.18123 -3.61323 0
M  V30 6447 H 664.633 0.675636 0.0221936 0
M  V30 6448 H 667.187 1.96931 -0.58373 0
M  V30 6449 H 665.417 3.61661 1.36889 0
M  V30 6450 H 667.106 3.91428 1.0742 0
M  V30 6451 H 667.872 4.67537 -1.28974 0
M  V30 6452 H 663.751 4.60954 -0.0652911 0
M  V30 6453 H 667.295 6.24725 -3.10425 0
M  V30 6454 H 663.192 6.17773 -1.87156 0
M  V30 6455 H 663.96 7.36244 -3.57613 0
M  V30 6456 N 666.623 0.143563 1.56945 0
M  V30 6457 C 667.87 -0.508407 1.96014 0
M  V30 6458 C 668.198 -1.65099 1.02824 0
M  V30 6459 O 667.453 -1.95618 0.0567764 0
M  V30 6460 C 667.752 -1.05885 3.41355 0
M  V30 6461 C 667.418 -0.0350809 4.50886 0
M  V30 6462 C 666.08 0.246362 4.80569 0
M  V30 6463 C 668.432 0.661282 5.16988 0
M  V30 6464 C 665.76 1.23003 5.73661 0
M  V30 6465 C 668.112 1.63375 6.11139 0
M  V30 6466 C 666.776 1.92292 6.39203 0
M  V30 6467 H 666.046 -0.186039 0.717266 0
M  V30 6468 H 668.693 0.229667 1.90118 0
M  V30 6469 H 666.998 -1.87419 3.44066 0
M  V30 6470 H 668.695 -1.57183 3.6891 0
M  V30 6471 H 665.285 -0.264622 4.27782 0
M  V30 6472 H 669.469 0.457038 4.94191 0
M  V30 6473 H 664.725 1.46056 5.93698 0
M  V30 6474 H 668.899 2.17887 6.61436 0
M  V30 6475 H 666.526 2.68666 7.11142 0
M  V30 6476 N 668.101 -1.57061 -0.130224 0
M  V30 6477 C 669.331 -1.88159 -0.853217 0
M  V30 6478 C 669.739 -0.731675 -1.7448 0
M  V30 6479 O 669.082 0.307035 -1.81116 0
M  V30 6480 C 669.144 -3.1415 -1.74785 0
M  V30 6481 C 668.808 -4.45202 -1.03173 0
M  V30 6482 C 669.805 -5.18526 -0.377759 0
M  V30 6483 C 667.49 -4.91912 -1.01624 0
M  V30 6484 C 669.484 -6.36775 0.282123 0
M  V30 6485 C 667.171 -6.10082 -0.352555 0
M  V30 6486 C 668.169 -6.82361 0.295483 0
M  V30 6487 O 667.857 -7.98284 0.948606 0
M  V30 6488 H 667.589 -0.627596 -0.251197 0
M  V30 6489 H 670.143 -2.05034 -0.1226 0
M  V30 6490 H 668.373 -2.93328 -2.51983 0
M  V30 6491 H 670.062 -3.31359 -2.34427 0
M  V30 6492 H 670.828 -4.83498 -0.381417 0
M  V30 6493 H 666.707 -4.35566 -1.51007 0
M  V30 6494 H 670.251 -6.93129 0.788525 0
M  V30 6495 H 666.148 -6.44569 -0.346621 0
M  V30 6496 H 666.916 -8.14054 0.851954 0
M  V30 6497 N 669.579 0.400081 -1.52437 0
M  V30 6498 C 670.512 1.50929 -1.7116 0
M  V30 6499 C 671.49 1.52679 -0.559275 0
M  V30 6500 O 672.674 1.71251 -0.787735 0
M  V30 6501 C 669.801 2.89433 -1.75915 0
M  V30 6502 C 668.847 3.05556 -2.97553 0
M  V30 6503 S 669.68 2.77919 -4.57735 0
M  V30 6504 C 670.836 4.18636 -4.6529 0
M  V30 6505 H 671.069 1.3482 -2.64973 0
M  V30 6506 H 668.602 0.592245 -1.4259 0
M  V30 6507 H 670.56 3.69253 -1.7934 0
M  V30 6508 H 669.221 3.02877 -0.832137 0
M  V30 6509 H 668.414 4.0691 -2.97388 0
M  V30 6510 H 668.016 2.33615 -2.92062 0
M  V30 6511 H 670.308 5.12406 -4.43223 0
M  V30 6512 H 671.251 4.23821 -5.67258 0
M  V30 6513 H 671.659 4.04029 -3.94234 0
M  V30 6514 N 671.057 1.43213 0.657864 0
M  V30 6515 C 672.334 1.35063 1.41483 0
M  V30 6516 C 672.714 -0.0038314 2.111 0
M  V30 6517 O 672.062 -1.02018 2.04462 0
M  V30 6518 C 672.272 2.53061 2.40335 0
M  V30 6519 C 673.62 2.9594 3.04474 0
M  V30 6520 O 674.644 2.53074 2.50663 0
M  V30 6521 O 673.503 3.70184 4.02027 0
M  V30 6522 H 670.597 0.533517 0.631893 0
M  V30 6523 H 673.143 1.55253 0.685162 0
M  V30 6524 H 671.915 3.43283 1.87809 0
M  V30 6525 H 671.538 2.34945 3.20759 0
M  V30 6526 N 672.536 -0.895792 1.29666 0
M  V30 6527 C 673.466 -2.01673 1.17688 0
M  V30 6528 C 674.447 -1.69955 0.0701317 0
M  V30 6529 O 675.632 -1.9258 0.250289 0
M  V30 6530 C 672.762 -3.36568 0.856681 0
M  V30 6531 C 671.716 -3.82509 1.92017 0
M  V30 6532 C 671.042 -5.14574 1.4532 0
M  V30 6533 C 672.342 -4.02409 3.32963 0
M  V30 6534 H 674.036 -2.11953 2.11463 0
M  V30 6535 H 671.582 -1.01839 1.01807 0
M  V30 6536 H 673.535 -4.14498 0.759577 0
M  V30 6537 H 672.259 -3.26391 -0.116763 0
M  V30 6538 H 670.918 -3.068 2.00673 0
M  V30 6539 H 670.566 -5.00815 0.468325 0
M  V30 6540 H 670.266 -5.46283 2.16447 0
M  V30 6541 H 671.79 -5.9504 1.36968 0
M  V30 6542 H 673.204 -4.70808 3.27127 0
M  V30 6543 H 671.601 -4.45478 4.02082 0
M  V30 6544 H 672.671 -3.06616 3.75652 0
M  V30 6545 N 674.014 -1.12206 -1.10668 0
M  V30 6546 C 674.946 -0.74552 -2.16736 0
M  V30 6547 C 675.959 0.226696 -1.61214 0
M  V30 6548 O 677.148 0.0083936 -1.78498 0
M  V30 6549 C 674.248 -0.0823368 -3.388 0
M  V30 6550 C 673.421 -1.08341 -4.2377 0
M  V30 6551 C 672.48 -0.448292 -5.24287 0
M  V30 6552 O 671.506 -1.10458 -5.58379 0
M  V30 6553 N 672.708 0.785336 -5.75163 0
M  V30 6554 H 675.473 -1.65818 -2.49649 0
M  V30 6555 H 673.034 -1.01335 -1.26265 0
M  V30 6556 H 675.026 0.354476 -4.03145 0
M  V30 6557 H 673.596 0.733041 -3.03884 0
M  V30 6558 H 672.816 -1.69792 -3.55759 0
M  V30 6559 H 674.104 -1.76042 -4.77375 0
M  V30 6560 H 673.502 1.33755 -5.4966 0
M  V30 6561 H 672.059 1.16501 -6.41304 0
M  V30 6562 N 675.492 1.28418 -0.913599 0
M  V30 6563 C 676.424 2.26368 -0.359169 0
M  V30 6564 C 677.437 1.54858 0.502285 0
M  V30 6565 O 678.626 1.75659 0.31719 0
M  V30 6566 C 675.726 3.35112 0.50526 0
M  V30 6567 C 674.899 4.36126 -0.333648 0
M  V30 6568 C 673.958 5.24134 0.465845 0
M  V30 6569 O 672.984 5.6907 -0.121538 0
M  V30 6570 N 674.186 5.52892 1.76891 0
M  V30 6571 H 676.951 2.74579 -1.2011 0
M  V30 6572 H 674.512 1.41898 -0.779532 0
M  V30 6573 H 676.504 3.90926 1.04684 0
M  V30 6574 H 675.074 2.86611 1.2479 0
M  V30 6575 H 674.294 3.79776 -1.0566 0
M  V30 6576 H 675.582 5.00638 -0.907669 0
M  V30 6577 H 674.98 5.18217 2.26865 0
M  V30 6578 H 673.537 6.11464 2.25732 0
M  V30 6579 N 676.97 0.677563 1.42291 0
M  V30 6580 C 678.218 0.200578 2.01102 0
M  V30 6581 C 678.539 -1.19803 1.53858 0
M  V30 6582 O 677.809 -1.80496 0.761439 0
M  V30 6583 H 676.389 0.0711634 0.743603 0
M  V30 6584 H 679.051 0.874691 1.7417 0
M  V30 6585 H 678.147 0.204 3.11433 0
M  V30 6586 N 678.448 -1.51871 0.421078 0
M  V30 6587 C 679.38 -2.25052 -0.434065 0
M  V30 6588 C 680.393 -1.28458 -1.00013 0
M  V30 6589 O 681.582 -1.54323 -0.897033 0
M  V30 6590 C 678.682 -2.97813 -1.61743 0
M  V30 6591 C 677.855 -4.21374 -1.17315 0
M  V30 6592 C 676.914 -4.76854 -2.22478 0
M  V30 6593 O 675.94 -5.39123 -1.82577 0
M  V30 6594 N 677.142 -4.59467 -3.54782 0
M  V30 6595 H 679.907 -2.99077 0.193073 0
M  V30 6596 H 677.468 -1.59972 0.249088 0
M  V30 6597 H 679.46 -3.3182 -2.31685 0
M  V30 6598 H 678.03 -2.26899 -2.15024 0
M  V30 6599 H 677.25 -3.93046 -0.3014 0
M  V30 6600 H 678.538 -5.01591 -0.853444 0
M  V30 6601 H 677.936 -4.09832 -3.89941 0
M  V30 6602 H 676.493 -4.9788 -4.20665 0
M  V30 6603 N 679.926 -0.151884 -1.56866 0
M  V30 6604 C 680.858 0.817008 -2.14144 0
M  V30 6605 C 681.871 1.20735 -1.0921 0
M  V30 6606 O 683.06 1.15058 -1.36469 0
M  V30 6607 C 680.16 2.10844 -2.65326 0
M  V30 6608 C 679.333 1.88471 -3.94712 0
M  V30 6609 C 678.392 3.01649 -4.31155 0
M  V30 6610 O 677.418 2.73127 -4.9939 0
M  V30 6611 N 678.62 4.28947 -3.91132 0
M  V30 6612 H 681.385 0.327448 -2.97906 0
M  V30 6613 H 678.946 0.0315313 -1.61869 0
M  V30 6614 H 680.938 2.85616 -2.86715 0
M  V30 6615 H 679.508 2.51049 -1.86262 0
M  V30 6616 H 678.728 0.977088 -3.81899 0
M  V30 6617 H 680.016 1.70866 -4.79252 0
M  V30 6618 H 679.414 4.54986 -3.36161 0
M  V30 6619 H 677.971 5.00484 -4.17563 0
M  V30 6620 N 681.404 1.57128 0.121893 0
M  V30 6621 C 682.334 2.03165 1.15092 0
M  V30 6622 C 683.315 0.915587 1.43356 0
M  V30 6623 O 684.5 1.1851 1.53847 0
M  V30 6624 C 681.63 2.43352 2.47784 0
M  V30 6625 C 680.584 3.58376 2.33989 0
M  V30 6626 C 679.91 3.84454 3.71617 0
M  V30 6627 C 681.21 4.90199 1.80283 0
M  V30 6628 H 682.904 2.89382 0.768023 0
M  V30 6629 H 680.45 1.39218 0.367998 0
M  V30 6630 H 682.403 2.74163 3.20019 0
M  V30 6631 H 681.127 1.54103 2.87958 0
M  V30 6632 H 679.786 3.2777 1.64202 0
M  V30 6633 H 679.434 2.92414 4.09271 0
M  V30 6634 H 679.134 4.61877 3.6324 0
M  V30 6635 H 680.658 4.17714 4.45362 0
M  V30 6636 H 682.072 5.19565 2.42333 0
M  V30 6637 H 680.469 5.71601 1.82735 0
M  V30 6638 H 681.539 4.78904 0.760184 0
M  V30 6639 N 682.882 -0.391992 1.52647 0
M  V30 6640 C 684.11 -1.1586 1.71418 0
M  V30 6641 C 684.525 -1.8381 0.431216 0
M  V30 6642 O 683.882 -1.7256 -0.594085 0
M  V30 6643 C 683.933 -2.20888 2.86165 0
M  V30 6644 O 683.654 -1.5571 4.09495 0
M  V30 6645 C 685.155 -3.103 3.1659 0
M  V30 6646 H 682.375 -0.347494 0.574011 0
M  V30 6647 H 684.919 -0.458972 1.99283 0
M  V30 6648 H 683.074 -2.86492 2.6077 0
M  V30 6649 H 683.488 -2.25474 4.73563 0
M  V30 6650 H 684.962 -3.8003 4.00351 0
M  V30 6651 H 685.439 -3.73639 2.30848 0
M  V30 6652 H 686.045 -2.50345 3.43813 0
M  V30 6653 N 684.36 -1.4356 -0.65026 0
M  V30 6654 C 685.606 -1.45549 -1.41221 0
M  V30 6655 C 685.939 -0.0805472 -1.94033 0
M  V30 6656 O 685.214 0.899043 -1.72475 0
M  V30 6657 C 685.497 -2.50028 -2.59148 0
M  V30 6658 C 685.35 -3.96808 -2.1181 0
M  V30 6659 C 686.669 -2.51212 -3.61359 0
M  V30 6660 H 683.788 -0.529967 -0.512156 0
M  V30 6661 H 686.43 -1.75127 -0.736933 0
M  V30 6662 H 684.58 -2.24937 -3.16758 0
M  V30 6663 H 686.252 -4.32966 -1.59178 0
M  V30 6664 H 684.495 -4.09498 -1.43156 0
M  V30 6665 H 685.166 -4.6553 -2.96625 0
M  V30 6666 H 687.642 -2.73583 -3.13515 0
M  V30 6667 H 686.518 -3.26252 -4.41419 0
M  V30 6668 H 686.779 -1.54701 -4.1415 0
M  V30 6669 N 685.838 0.888903 -1.30139 0
M  V30 6670 C 687.084 1.6428 -1.18912 0
M  V30 6671 C 687.417 1.92499 0.256477 0
M  V30 6672 O 686.692 1.54312 1.18397 0
M  V30 6673 C 686.975 2.9851 -2.01405 0
M  V30 6674 C 686.828 2.77288 -3.54163 0
M  V30 6675 C 688.147 3.99383 -1.84882 0
M  V30 6676 H 685.266 0.596148 -0.433333 0
M  V30 6677 H 687.908 1.0289 -1.5973 0
M  V30 6678 H 686.058 3.50907 -1.66722 0
M  V30 6679 H 687.73 2.31709 -3.98884 0
M  V30 6680 H 685.973 2.11867 -3.78543 0
M  V30 6681 H 686.644 3.72717 -4.07168 0
M  V30 6682 H 689.12 3.56132 -2.15196 0
M  V30 6683 H 687.996 4.91222 -2.44934 0
M  V30 6684 H 688.257 4.34674 -0.806902 0
M  V30 6685 N 687.317 1.12792 1.10072 0
M  V30 6686 C 688.545 0.908506 1.85886 0
M  V30 6687 C 688.96 -0.542408 1.80841 0
M  V30 6688 O 688.317 -1.37517 1.1998 0
M  V30 6689 C 688.368 1.37973 3.34134 0
M  V30 6690 O 688.089 2.77378 3.39106 0
M  V30 6691 C 689.59 1.1978 4.26811 0
M  V30 6692 H 686.81 0.3244 0.587372 0
M  V30 6693 H 689.354 1.49882 1.39125 0
M  V30 6694 H 687.509 0.832566 3.78348 0
M  V30 6695 H 687.923 2.98144 4.31521 0
M  V30 6696 H 689.397 1.57635 5.29014 0
M  V30 6697 H 689.874 0.138768 4.38981 0
M  V30 6698 H 690.48 1.73266 3.88406 0
M  V30 6699 N 688.795 -1.27931 0.920396 0
M  V30 6700 C 690.044 -1.93975 0.552867 0
M  V30 6701 C 690.357 -1.73193 -0.909035 0
M  V30 6702 O 691.563 -2.33515 -1.38502 0
M  V30 6703 C 690.019 -3.47463 0.937947 0
M  V30 6704 C 689.627 -3.77013 2.42003 0
M  V30 6705 C 691.371 -4.19628 0.64132 0
M  V30 6706 C 689.278 -5.23841 2.74489 0
M  V30 6707 H 688.208 -0.726146 0.203046 0
M  V30 6708 H 690.859 -1.45339 1.12022 0
M  V30 6709 H 689.241 -3.94867 0.299317 0
M  V30 6710 H 690.415 -3.40393 3.10595 0
M  V30 6711 H 688.73 -3.18035 2.6878 0
M  V30 6712 H 691.327 -5.27729 0.860622 0
M  V30 6713 H 691.67 -4.14164 -0.421168 0
M  V30 6714 H 692.203 -3.78022 1.23872 0
M  V30 6715 H 688.942 -5.34388 3.79618 0
M  V30 6716 H 688.462 -5.61634 2.1054 0
M  V30 6717 H 690.141 -5.91647 2.61845 0
M  V30 6718 N 690.273 -0.685099 -1.4193 0
M  V30 6719 C 691.521 -0.21124 -2.00993 0
M  V30 6720 C 691.842 1.18985 -1.54491 0
M  V30 6721 O 691.112 1.8009 -0.771 0
M  V30 6722 H 689.692 -0.0751059 -0.743215 0
M  V30 6723 H 692.354 -0.883915 -1.73704 0
M  V30 6724 H 691.45 -0.220513 -3.1132 0
M  V30 6725 N 691.751 1.51645 -0.429126 0
M  V30 6726 C 692.999 2.01616 0.139802 0
M  V30 6727 C 693.32 1.31568 1.43927 0
M  V30 6728 O 692.59 0.447688 1.90716 0
M  V30 6729 H 691.17 0.744998 0.054654 0
M  V30 6730 H 693.832 1.8638 -0.569952 0
M  V30 6731 H 692.928 3.10439 0.321609 0
M  V30 6732 N 693.229 0.160201 1.56784 0
M  V30 6733 C 694.457 -0.494165 2.00912 0
M  V30 6734 C 694.872 -1.57548 1.04038 0
M  V30 6735 O 694.229 -1.82457 0.0394581 0
M  V30 6736 C 694.28 -1.08271 3.44905 0
M  V30 6737 O 694.001 -0.0445704 4.38077 0
M  V30 6738 C 695.502 -1.8164 4.04378 0
M  V30 6739 H 692.722 -0.127498 0.658776 0
M  V30 6740 H 695.266 0.258665 2.02858 0
M  V30 6741 H 693.421 -1.78609 3.4377 0
M  V30 6742 H 693.835 -0.477544 5.22322 0
M  V30 6743 H 695.309 -2.18094 5.07089 0
M  V30 6744 H 695.786 -2.70727 3.45838 0
M  V30 6745 H 696.392 -1.15969 4.09184 0
M  V30 6746 N 694.707 -1.5719 -0.113559 0
M  V30 6747 C 695.955 -1.84772 -0.818761 0
M  V30 6748 C 696.276 -0.746196 -1.80158 0
M  V30 6749 O 695.546 0.229305 -1.94553 0
M  V30 6750 H 694.126 -0.681737 -0.305359 0
M  V30 6751 H 696.788 -1.94645 -0.0995845 0
M  V30 6752 H 695.884 -2.80878 -1.36067 0
M  V30 6753 N 696.185 0.383891 -1.52853 0
M  V30 6754 C 697.462 1.14296 -1.58732 0
M  V30 6755 C 697.842 2.07585 -0.383611 0
M  V30 6756 O 697.19 2.1971 0.627661 0
M  V30 6757 C 697.4 1.89816 -2.92867 0
M  V30 6758 C 698.748 2.44998 -3.46787 0
M  V30 6759 O 699.772 1.99966 -2.94774 0
M  V30 6760 O 698.631 3.2727 -4.37672 0
M  V30 6761 H 695.725 0.52326 -0.640413 0
M  V30 6762 H 698.271 0.388631 -1.6519 0
M  V30 6763 H 697.043 1.21626 -3.71918 0
M  V30 6764 H 696.666 2.72199 -2.89816 0
M  V30 6765 N 697.663 1.43903 0.642637 0
M  V30 6766 C 698.626 1.49538 1.73698 0
M  V30 6767 C 699.626 0.378776 1.56275 0
M  V30 6768 O 700.816 0.64095 1.6198 0
M  V30 6769 C 697.948 1.35821 3.12675 0
M  V30 6770 H 699.141 2.47008 1.70079 0
M  V30 6771 H 696.694 1.30824 0.85526 0
M  V30 6772 H 697.429 0.393994 3.21898 0
M  V30 6773 H 697.214 2.16776 3.26727 0
M  V30 6774 H 698.704 1.4272 3.92455 0
M  V30 6775 N 699.141 -0.881989 1.30609 0
M  V30 6776 C 700.418 -1.61563 1.10258 0
M  V30 6777 C 700.798 -2.08228 -0.347053 0
M  V30 6778 O 700.146 -1.85151 -1.33908 0
M  V30 6779 C 700.356 -2.78287 2.10612 0
M  V30 6780 C 701.704 -3.48545 2.4249 0
M  V30 6781 O 702.728 -2.88479 2.08945 0
M  V30 6782 O 701.587 -4.56873 2.99883 0
M  V30 6783 H 698.681 -0.710238 0.423663 0
M  V30 6784 H 701.227 -0.928503 1.42045 0
M  V30 6785 H 699.999 -2.41131 3.08174 0
M  V30 6786 H 699.622 -3.54695 1.79659 0
M  V30 6787 N 700.619 -1.13374 -1.09472 0
M  V30 6788 C 701.549 -0.833268 -2.18126 0
M  V30 6789 C 702.53 0.207169 -1.68834 0
M  V30 6790 O 703.715 0.0662012 -1.94087 0
M  V30 6791 C 700.845 -0.297979 -3.46019 0
M  V30 6792 C 699.799 -1.27261 -4.08642 0
M  V30 6793 C 699.125 -0.597104 -5.31356 0
M  V30 6794 C 700.425 -2.63095 -4.51197 0
M  V30 6795 H 702.119 -1.74182 -2.43518 0
M  V30 6796 H 699.665 -0.838921 -1.17039 0
M  V30 6797 H 701.618 -0.0754444 -4.21332 0
M  V30 6798 H 700.342 0.645959 -3.20148 0
M  V30 6799 H 699.001 -1.48113 -3.35348 0
M  V30 6800 H 698.649 0.352293 -5.01765 0
M  V30 6801 H 698.349 -1.24734 -5.74208 0
M  V30 6802 H 699.873 -0.38384 -6.09392 0
M  V30 6803 H 701.287 -2.46214 -5.17737 0
M  V30 6804 H 699.684 -3.2429 -5.04932 0
M  V30 6805 H 700.754 -3.20793 -3.6362 0
M  V30 6806 N 702.098 1.27442 -0.927168 0
M  V30 6807 C 703.328 1.9821 -0.582775 0
M  V30 6808 C 703.736 1.69361 0.843406 0
M  V30 6809 O 703.079 0.950381 1.57205 0
M  V30 6810 C 703.141 3.52048 -0.728165 0
M  V30 6811 C 702.805 4.04518 -2.12637 0
M  V30 6812 C 703.802 4.17332 -3.10048 0
M  V30 6813 C 701.487 4.38879 -2.44317 0
M  V30 6814 C 703.481 4.6378 -4.37249 0
M  V30 6815 C 701.168 4.85018 -3.71753 0
M  V30 6816 C 702.166 4.97428 -4.68033 0
M  V30 6817 O 701.854 5.42556 -5.93202 0
M  V30 6818 H 701.586 0.639314 -0.219667 0
M  V30 6819 H 704.14 1.63272 -1.24626 0
M  V30 6820 H 702.37 3.86699 -0.00758143 0
M  V30 6821 H 704.059 4.04033 -0.388906 0
M  V30 6822 H 704.825 3.91046 -2.86894 0
M  V30 6823 H 700.704 4.28462 -1.70121 0
M  V30 6824 H 704.248 4.73382 -5.12402 0
M  V30 6825 H 700.145 5.10746 -3.94726 0
M  V30 6826 H 700.913 5.60811 -5.96182 0
M  V30 6827 N 703.576 0.692616 1.41565 0
M  V30 6828 C 704.506 0.0397325 2.33466 0
M  V30 6829 C 705.487 -0.770334 1.51657 0
M  V30 6830 O 706.672 -0.723903 1.80203 0
M  V30 6831 C 703.802 -0.899495 3.3545 0
M  V30 6832 C 702.756 -0.196738 4.27548 0
M  V30 6833 C 702.082 -1.25012 5.19881 0
M  V30 6834 C 703.382 0.935158 5.1386 0
M  V30 6835 H 705.076 0.807296 2.88311 0
M  V30 6836 H 702.622 0.389665 1.38628 0
M  V30 6837 H 704.575 -1.36545 3.98665 0
M  V30 6838 H 703.299 -1.69869 2.78948 0
M  V30 6839 H 701.958 0.249158 3.65752 0
M  V30 6840 H 701.606 -2.04177 4.59696 0
M  V30 6841 H 701.306 -0.784931 5.82334 0
M  V30 6842 H 702.83 -1.71665 5.85972 0
M  V30 6843 H 704.244 0.549619 5.70659 0
M  V30 6844 H 702.641 1.32726 5.85238 0
M  V30 6845 H 703.711 1.77613 4.512 0
M  V30 6846 N 705.054 -1.51416 0.437162 0
M  V30 6847 C 706.47 -1.59349 0.0894459 0
M  V30 6848 C 706.67 -1.44809 -1.40116 0
M  V30 6849 O 705.726 -1.28924 -2.17106 0
M  V30 6850 C 707.039 -2.9446 0.609398 0
M  V30 6851 C 708.587 -3.07769 0.569824 0
M  V30 6852 C 709.062 -4.45404 1.06675 0
M  V30 6853 N 710.553 -4.51723 1.02473 0
M  V30 6854 C 711.288 -5.56544 1.3801 0
M  V30 6855 N 710.784 -6.68784 1.80831 0
M  V30 6856 N 712.577 -5.46901 1.29828 0
M  V30 6857 H 704.728 -1.59112 1.40703 0
M  V30 6858 H 706.991 -0.750031 0.579791 0
M  V30 6859 H 706.697 -3.1047 1.65231 0
M  V30 6860 H 706.571 -3.77184 0.0342236 0
M  V30 6861 H 708.958 -2.91428 -0.464107 0
M  V30 6862 H 709.039 -2.26885 1.1814 0
M  V30 6863 H 708.683 -4.62492 2.09914 0
M  V30 6864 H 708.613 -5.24827 0.431712 0
M  V30 6865 H 711.104 -3.71165 0.710258 0
M  V30 6866 H 711.417 -7.44787 2.06185 0
M  V30 6867 H 709.762 -6.69992 1.84757 0
M  V30 6868 H 712.953 -4.581 0.962397 0
M  V30 6869 H 713.126 -6.2848 1.57851 0
M  V30 6870 N 706.532 -0.168513 -1.56696 0
M  V30 6871 C 707.779 0.477158 -1.96798 0
M  V30 6872 C 708.107 1.63442 -1.05437 0
M  V30 6873 O 707.362 1.95503 -0.0878903 0
M  V30 6874 C 707.661 1.00441 -3.42996 0
M  V30 6875 C 707.327 -0.0366556 -4.50885 0
M  V30 6876 C 705.989 -0.322785 -4.80116 0
M  V30 6877 C 708.341 -0.743447 -5.1587 0
M  V30 6878 C 705.669 -1.32114 -5.71632 0
M  V30 6879 C 708.021 -1.73077 -6.08463 0
M  V30 6880 C 706.685 -2.02437 -6.36062 0
M  V30 6881 H 705.955 0.174604 -0.720135 0
M  V30 6882 H 708.602 -0.259884 -1.89728 0
M  V30 6883 H 706.907 1.81922 -3.47004 0
M  V30 6884 H 708.604 1.51294 -3.71364 0
M  V30 6885 H 705.194 0.196532 -4.28149 0
M  V30 6886 H 709.378 -0.535602 -4.93401 0
M  V30 6887 H 704.634 -1.55482 -5.913 0
M  V30 6888 H 708.808 -2.28382 -6.57886 0
M  V30 6889 H 706.435 -2.79946 -7.06777 0
M  V30 6890 N 708.01 1.57248 0.105221 0
M  V30 6891 C 709.258 1.85204 0.808951 0
M  V30 6892 C 709.579 0.75574 1.7976 0
M  V30 6893 O 708.849 -0.218984 1.94672 0
M  V30 6894 H 707.429 0.683346 0.301739 0
M  V30 6895 H 710.091 1.94695 0.0892605 0
M  V30 6896 H 709.187 2.81595 1.34575 0
M  V30 6897 N 709.488 -0.375779 1.53054 0
M  V30 6898 C 710.765 -1.13453 1.59336 0
M  V30 6899 C 711.145 -2.07379 0.394614 0
M  V30 6900 O 710.493 -2.2004 -0.616 0
M  V30 6901 C 710.703 -1.8826 2.93869 0
M  V30 6902 C 712.051 -2.43155 3.48081 0
M  V30 6903 O 713.075 -1.984 2.95831 0
M  V30 6904 O 711.934 -3.24944 4.39401 0
M  V30 6905 H 709.028 -0.519856 0.643179 0
M  V30 6906 H 711.574 -0.379865 1.65394 0
M  V30 6907 H 710.346 -1.19652 3.72558 0
M  V30 6908 H 709.969 -2.70658 2.91256 0
M  V30 6909 N 710.966 -1.44241 -0.634997 0
M  V30 6910 C 711.913 -1.5081 -1.74714 0
M  V30 6911 C 712.883 -0.356147 -1.62237 0
M  V30 6912 O 714.068 -0.565848 -1.82216 0
M  V30 6913 C 711.208 -1.45458 -3.12947 0
M  V30 6914 C 710.321 -2.70998 -3.36428 0
M  V30 6915 C 709.456 -2.57507 -4.64611 0
M  V30 6916 C 708.495 -3.78229 -4.81258 0
M  V30 6917 N 707.632 -3.63438 -6.00714 0
M  V30 6918 H 712.472 -2.45832 -1.68436 0
M  V30 6919 H 710.009 -1.2201 -0.821706 0
M  V30 6920 H 711.967 -1.40347 -3.92885 0
M  V30 6921 H 710.597 -0.540058 -3.1825 0
M  V30 6922 H 709.649 -2.86312 -2.50458 0
M  V30 6923 H 710.961 -3.60619 -3.44609 0
M  V30 6924 H 710.115 -2.50207 -5.52703 0
M  V30 6925 H 708.854 -1.65441 -4.58782 0
M  V30 6926 H 707.859 -3.85918 -3.91596 0
M  V30 6927 H 709.084 -4.71327 -4.88904 0
M  V30 6928 H 707.03 -2.7412 -5.95982 0
M  V30 6929 H 706.947 -4.46672 -6.09934 0
M  V30 6930 H 708.215 -3.60022 -6.91378 0
M  V30 6931 N 712.444 0.87505 -1.31075 0
M  V30 6932 C 713.855 1.4433 -1.18431 0
M  V30 6933 C 714.206 1.9506 0.211189 0
M  V30 6934 O 713.331 1.85847 1.10859 0
M  V30 6935 C 713.926 2.62341 -2.14389 0
M  V30 6936 C 712.485 3.15225 -2.05694 0
M  V30 6937 C 711.632 1.87929 -2.03907 0
M  V30 6938 H 714.583 0.684061 -1.432 0
M  V30 6939 H 714.604 3.3887 -1.73053 0
M  V30 6940 H 714.116 2.25388 -3.15946 0
M  V30 6941 H 712.217 3.56812 -1.07314 0
M  V30 6942 H 712.33 3.77853 -2.94558 0
M  V30 6943 H 710.694 2.06679 -1.48849 0
M  V30 6944 H 711.477 1.53221 -3.07211 0
M  V30 6945 N 713.922 1.13953 1.08869 0
M  V30 6946 C 715.15 0.92817 1.84912 0
M  V30 6947 C 715.565 -0.523197 1.81406 0
M  V30 6948 O 714.922 -1.36237 1.21432 0
M  V30 6949 C 714.973 1.41509 3.32652 0
M  V30 6950 O 714.694 2.80959 3.36145 0
M  V30 6951 C 716.195 1.243 4.25517 0
M  V30 6952 H 713.415 0.330612 0.583898 0
M  V30 6953 H 715.959 1.51349 1.37527 0
M  V30 6954 H 714.114 0.872648 3.77444 0
M  V30 6955 H 714.528 3.02704 4.28335 0
M  V30 6956 H 716.002 1.63237 5.27312 0
M  V30 6957 H 716.479 0.18532 4.38809 0
M  V30 6958 H 717.085 1.77375 3.86546 0
M  V30 6959 N 715.4 -1.26948 0.933913 0
M  V30 6960 C 716.33 -2.29017 0.45534 0
M  V30 6961 C 717.311 -1.62961 -0.487605 0
M  V30 6962 O 718.496 -1.90223 -0.391022 0
M  V30 6963 C 715.626 -3.46112 -0.287015 0
M  V30 6964 C 714.58 -4.24205 0.568682 0
M  V30 6965 C 713.906 -5.3384 -0.303206 0
M  V30 6966 C 715.206 -4.88954 1.83633 0
M  V30 6967 H 716.9 -2.69298 1.30839 0
M  V30 6968 H 714.446 -1.29459 0.630579 0
M  V30 6969 H 716.399 -4.16622 -0.6328 0
M  V30 6970 H 715.123 -3.04765 -1.17414 0
M  V30 6971 H 713.782 -3.5545 0.897261 0
M  V30 6972 H 713.43 -4.88734 -1.18947 0
M  V30 6973 H 713.13 -5.86998 0.265879 0
M  V30 6974 H 714.654 -6.0719 -0.644423 0
M  V30 6975 H 716.068 -5.51717 1.55823 0
M  V30 6976 H 714.465 -5.52198 2.34941 0
M  V30 6977 H 715.535 -4.12305 2.55211 0
M  V30 6978 N 716.879 -0.700114 -1.41195 0
M  V30 6979 C 717.827 -0.0263301 -2.32585 0
M  V30 6980 C 718.821 0.763683 -1.51209 0
M  V30 6981 O 720.027 0.668793 -1.67114 0
M  V30 6982 H 716.402 0.0102869 -0.75193 0
M  V30 6983 H 718.373 -0.814087 -2.8708 0
M  V30 6984 C 717.122 0.892793 -3.36042 0
M  V30 6985 H 716.445 0.294306 -3.98715 0
M  V30 6986 H 717.885 1.33247 -4.02518 0
M  V30 6987 C 716.344 2.01109 -2.7029 0
M  V30 6988 O 716.874 3.10035 -2.55423 0
M  V30 6989 N 715.08 1.79015 -2.28915 0
M  V30 6990 H 714.627 0.904275 -2.41207 0
M  V30 6991 H 714.585 2.54022 -1.85257 0
M  V30 6992 N 718.357 1.51182 -0.445186 0
M  V30 6993 C 719.585 2.06568 0.117091 0
M  V30 6994 C 720 1.31182 1.35781 0
M  V30 6995 O 719.357 0.373605 1.78635 0
M  V30 6996 C 719.408 3.58917 0.431408 0
M  V30 6997 O 719.129 4.31456 -0.760078 0
M  V30 6998 C 720.63 4.30843 1.0435 0
M  V30 6999 H 717.85 0.670985 0.00444436 0
M  V30 7000 H 720.394 1.94666 -0.626525 0
M  V30 7001 H 718.549 3.70708 1.12493 0
M  V30 7002 H 718.963 5.22215 -0.489048 0
M  V30 7003 H 720.437 5.38499 1.21337 0
M  V30 7004 H 720.914 3.89644 2.02667 0
M  V30 7005 H 721.52 4.23516 0.38913 0
M  V30 7006 N 719.835 0.176821 1.56605 0
M  V30 7007 C 721.081 -0.460868 1.9811 0
M  V30 7008 C 721.436 -1.60488 1.06119 0
M  V30 7009 O 720.729 -1.91329 0.101939 0
M  V30 7010 C 720.923 -0.986208 3.43524 0
M  V30 7011 C 720.752 0.105368 4.49577 0
M  V30 7012 C 719.522 0.556883 5.02222 0
M  V30 7013 C 721.72 0.907756 5.06226 0
M  V30 7014 N 719.702 1.62819 5.91915 0
M  V30 7015 C 721.073 1.82887 5.92412 0
M  V30 7016 C 723.128 0.952221 4.8871 0
M  V30 7017 C 721.831 2.7907 6.62957 0
M  V30 7018 C 723.857 1.90202 5.5998 0
M  V30 7019 C 723.219 2.8106 6.45898 0
M  V30 7020 H 719.318 -0.136589 0.769979 0
M  V30 7021 H 721.902 0.278307 1.92701 0
M  V30 7022 H 720.073 -1.69489 3.49468 0
M  V30 7023 H 721.805 -1.59298 3.7203 0
M  V30 7024 H 718.56 0.153575 4.73351 0
M  V30 7025 H 718.984 2.1645 6.41466 0
M  V30 7026 H 723.626 0.263794 4.21976 0
M  V30 7027 H 721.344 3.48898 7.28901 0
M  V30 7028 H 724.93 1.9426 5.48411 0
M  V30 7029 H 723.81 3.53357 7.00077 0
M  V30 7030 N 721.313 -1.57302 -0.09688 0
M  V30 7031 C 722.59 -1.7701 -0.832272 0
M  V30 7032 C 722.97 -0.758025 -1.97021 0
M  V30 7033 O 722.318 0.213824 -2.27497 0
M  V30 7034 C 722.528 -3.22725 -1.32851 0
M  V30 7035 C 723.876 -3.85856 -1.772 0
M  V30 7036 O 724.9 -3.26464 -1.42478 0
M  V30 7037 O 723.759 -4.90295 -2.41398 0
M  V30 7038 H 720.853 -0.725558 -0.396856 0
M  V30 7039 H 723.399 -1.69516 -0.0789005 0
M  V30 7040 H 722.171 -3.87921 -0.51312 0
M  V30 7041 H 721.794 -3.34845 -2.14394 0
M  V30 7042 N 722.791 0.367657 -1.53252 0
M  V30 7043 C 724.031 1.11923 -1.71034 0
M  V30 7044 C 724.395 1.86618 -0.45143 0
M  V30 7045 O 725.596 2.63996 -0.505915 0
M  V30 7046 C 723.867 2.05461 -2.92439 0
M  V30 7047 S 725.426 2.88167 -3.30916 0
M  V30 7048 H 722.244 0.378549 -0.601848 0
M  V30 7049 H 724.846 0.400757 -1.91348 0
M  V30 7050 H 723.55 1.49346 -3.82262 0
M  V30 7051 H 723.081 2.81784 -2.7452 0
M  V30 7052 H 725.096 4.07746 -2.82767 0
M  V30 7053 N 724.269 1.44576 0.627338 0
M  V30 7054 C 725.685 1.28546 0.945938 0
M  V30 7055 C 725.885 0.224003 2.00251 0
M  V30 7056 O 724.941 -0.388817 2.49488 0
M  V30 7057 C 726.254 2.65825 1.40561 0
M  V30 7058 C 727.802 2.73566 1.52088 0
M  V30 7059 C 728.277 4.11323 2.01438 0
M  V30 7060 N 729.768 4.13519 2.08702 0
M  V30 7061 C 730.503 5.16964 2.48065 0
M  V30 7062 N 729.999 6.30768 2.86538 0
M  V30 7063 N 731.792 5.04319 2.48232 0
M  V30 7064 H 723.943 2.1228 -0.0713567 0
M  V30 7065 H 726.206 0.947503 0.0307081 0
M  V30 7066 H 725.912 3.44591 0.703539 0
M  V30 7067 H 725.786 2.92969 2.37591 0
M  V30 7068 H 728.173 1.95116 2.21391 0
M  V30 7069 H 728.254 2.50159 0.534237 0
M  V30 7070 H 727.898 4.9025 1.32729 0
M  V30 7071 H 727.828 4.32109 3.0098 0
M  V30 7072 H 730.319 3.31385 1.81638 0
M  V30 7073 H 730.632 7.0551 3.15398 0
M  V30 7074 H 728.977 6.342 2.84281 0
M  V30 7075 H 732.168 4.14465 2.17569 0
M  V30 7076 H 732.341 5.85059 2.78585 0
M  V30 7077 N 725.747 -0.868086 1.31537 0
M  V30 7078 C 727.158 -1.437 1.19195 0
M  V30 7079 C 727.509 -1.95169 -0.200842 0
M  V30 7080 O 726.634 -1.86432 -1.09872 0
M  V30 7081 C 727.229 -2.612 2.15778 0
M  V30 7082 C 725.788 -3.1413 2.07363 0
M  V30 7083 C 724.935 -1.86845 2.049 0
M  V30 7084 H 727.886 -0.676457 1.43561 0
M  V30 7085 H 727.907 -3.37948 1.74847 0
M  V30 7086 H 727.419 -2.23709 3.17137 0
M  V30 7087 H 725.52 -3.56238 1.09204 0
M  V30 7088 H 725.633 -3.76285 2.96557 0
M  V30 7089 H 723.997 -2.05886 1.49943 0
M  V30 7090 H 724.78 -1.51589 3.08019 0
M  V30 7091 N 727.225 -1.14528 -1.08264 0
M  V30 7092 C 728.455 -0.936604 -1.8415 0
M  V30 7093 C 728.863 0.518298 -1.81962 0
M  V30 7094 O 728.206 1.37096 -1.22272 0
M  V30 7095 C 728.268 -1.36182 -3.32708 0
M  V30 7096 C 727.932 -2.83257 -3.58629 0
M  V30 7097 C 728.929 -3.81366 -3.5335 0
M  V30 7098 C 726.614 -3.20704 -3.86593 0
M  V30 7099 C 728.608 -5.14929 -3.75668 0
M  V30 7100 C 726.295 -4.54443 -4.08564 0
M  V30 7101 C 727.293 -5.51365 -4.03095 0
M  V30 7102 O 726.981 -6.8269 -4.24488 0
M  V30 7103 H 726.713 -0.333254 -0.588148 0
M  V30 7104 H 729.267 -1.5247 -1.3763 0
M  V30 7105 H 727.497 -0.717063 -3.79994 0
M  V30 7106 H 729.186 -1.12372 -3.90035 0
M  V30 7107 H 729.952 -3.53781 -3.31759 0
M  V30 7108 H 725.831 -2.45857 -3.89969 0
M  V30 7109 H 729.375 -5.90568 -3.71315 0
M  V30 7110 H 725.272 -4.81747 -4.29639 0
M  V30 7111 H 726.04 -6.8897 -4.41886 0
M  V30 7112 N 728.703 1.26451 -0.940633 0
M  V30 7113 C 730.119 1.4608 -0.642859 0
M  V30 7114 C 730.319 1.84765 0.803998 0
M  V30 7115 O 729.375 1.96902 1.58069 0
M  V30 7116 C 730.688 2.54359 -1.60381 0
M  V30 7117 C 732.236 2.6821 -1.61345 0
M  V30 7118 C 732.711 3.79659 -2.56169 0
M  V30 7119 N 734.202 3.87051 -2.54452 0
M  V30 7120 C 734.937 4.72739 -3.24507 0
M  V30 7121 N 734.433 5.6282 -4.03987 0
M  V30 7122 N 736.226 4.66581 -3.13462 0
M  V30 7123 H 728.377 0.996289 -1.87584 0
M  V30 7124 H 730.64 0.498921 -0.80609 0
M  V30 7125 H 730.346 2.32758 -2.6366 0
M  V30 7126 H 730.22 3.52005 -1.35545 0
M  V30 7127 H 732.607 2.89184 -0.587913 0
M  V30 7128 H 732.688 1.7101 -1.90235 0
M  V30 7129 H 732.332 3.59438 -3.58841 0
M  V30 7130 H 732.262 4.76315 -2.2457 0
M  V30 7131 H 734.753 3.22649 -1.96739 0
M  V30 7132 H 735.066 6.25095 -4.54396 0
M  V30 7133 H 733.411 5.62574 -4.08088 0
M  V30 7134 H 736.602 3.9521 -2.50852 0
M  V30 7135 H 736.775 5.33141 -3.68327 0
M  V30 7136 N 730.181 0.707592 1.40822 0
M  V30 7137 C 731.406 0.251626 2.05868 0
M  V30 7138 C 731.831 -1.09503 1.5294 0
M  V30 7139 O 731.189 -1.68806 0.661385 0
M  V30 7140 C 731.237 0.23287 3.59847 0
M  V30 7141 O 730.341 -0.788477 4.04792 0
M  V30 7142 H 729.682 0.119936 0.653078 0
M  V30 7143 H 732.212 0.96583 1.80369 0
M  V30 7144 H 732.222 0.0678204 4.07944 0
M  V30 7145 H 730.897 1.21565 3.97737 0
M  V30 7146 H 729.474 -0.591802 3.68174 0
M  V30 7147 N 731.66 -1.50943 0.453197 0
M  V30 7148 C 732.908 -2.01813 -0.107709 0
M  V30 7149 C 733.229 -1.33841 -1.41816 0
M  V30 7150 O 732.499 -0.477973 -1.8998 0
M  V30 7151 H 731.079 -0.745773 -0.0427948 0
M  V30 7152 H 733.741 -1.8545 0.599531 0
M  V30 7153 H 732.837 -3.10911 -0.27218 0
M  V30 7154 N 733.138 -0.185124 -1.56509 0
M  V30 7155 C 734.086 0.756505 -2.19954 0
M  V30 7156 C 735.08 1.22725 -1.16769 0
M  V30 7157 O 736.286 1.1913 -1.34937 0
M  V30 7158 H 732.661 0.262279 -0.704779 0
M  V30 7159 H 734.632 0.197587 -2.97745 0
M  V30 7160 C 733.381 1.96975 -2.86524 0
M  V30 7161 H 732.704 1.61658 -3.65659 0
M  V30 7162 H 734.144 2.60719 -3.34367 0
M  V30 7163 C 732.603 2.80219 -1.87027 0
M  V30 7164 O 733.133 3.77821 -1.36433 0
M  V30 7165 N 731.339 2.4551 -1.55477 0
M  V30 7166 H 730.886 1.66199 -1.96813 0
M  V30 7167 H 730.844 3.01493 -0.891597 0
M  V30 7168 N 734.616 1.57351 0.0885366 0
M  V30 7169 C 735.841 1.91011 0.80805 0
M  V30 7170 C 736.266 0.780009 1.71165 0
M  V30 7171 O 735.624 -0.268083 1.79307 0
M  V30 7172 C 735.672 3.23562 1.59185 0
M  V30 7173 O 734.776 3.11615 2.7013 0
M  V30 7174 H 734.117 0.625943 0.221565 0
M  V30 7175 H 736.647 2.04507 0.0617954 0
M  V30 7176 H 736.657 3.5703 1.97468 0
M  V30 7177 H 735.332 4.05398 0.928741 0
M  V30 7178 H 733.909 2.89673 2.34827 0
M  V30 7179 N 736.094 -0.359525 1.53444 0
M  V30 7180 C 737.004 -1.46445 1.83278 0
M  V30 7181 C 738.02 -1.5833 0.721629 0
M  V30 7182 O 739.196 -1.7411 1.01231 0
M  V30 7183 C 736.261 -2.81638 2.02191 0
M  V30 7184 C 735.322 -2.7923 3.26082 0
M  V30 7185 C 734.555 -4.07974 3.44082 0
M  V30 7186 O 734.778 -5.04447 2.66251 0
M  V30 7187 O 733.712 -4.13417 4.37458 0
M  V30 7188 H 737.538 -1.24156 2.77162 0
M  V30 7189 H 735.123 -0.550201 1.389 0
M  V30 7190 H 737.005 -3.61732 2.16167 0
M  V30 7191 H 735.68 -3.03892 1.11496 0
M  V30 7192 H 734.587 -1.97813 3.17523 0
M  V30 7193 H 735.92 -2.6193 4.16718 0
M  V30 7194 N 737.572 -1.44907 -0.619662 0
M  V30 7195 C 738.8 -1.51795 -1.40591 0
M  V30 7196 C 739.215 -0.146553 -1.8823 0
M  V30 7197 O 738.572 0.849698 -1.61513 0
M  V30 7198 C 738.623 -2.49229 -2.61853 0
M  V30 7199 O 738.344 -3.81039 -2.16197 0
M  V30 7200 C 739.845 -2.65696 -3.54853 0
M  V30 7201 H 737.065 -0.514463 -0.430777 0
M  V30 7202 H 739.609 -1.8998 -0.756813 0
M  V30 7203 H 737.764 -2.14149 -3.2283 0
M  V30 7204 H 738.178 -4.33747 -2.94896 0
M  V30 7205 H 739.652 -3.37874 -4.36515 0
M  V30 7206 H 740.129 -1.71316 -4.0441 0
M  V30 7207 H 740.735 -3.01724 -2.99737 0
M  V30 7208 N 739.05 0.861098 -1.31996 0
M  V30 7209 C 740.29 1.62873 -1.23498 0
M  V30 7210 C 740.654 1.90938 0.201692 0
M  V30 7211 O 741.855 2.6565 0.410305 0
M  V30 7212 C 740.126 2.91759 -2.06426 0
M  V30 7213 S 741.685 3.82583 -2.14885 0
M  V30 7214 H 738.503 0.558726 -0.439712 0
M  V30 7215 H 741.105 1.02025 -1.66767 0
M  V30 7216 H 739.809 2.69077 -3.0988 0
M  V30 7217 H 739.34 3.57627 -1.6391 0
M  V30 7218 H 741.355 4.7904 -1.29364 0
M  V30 7219 N 740.528 1.15101 1.07655 0
M  V30 7220 C 741.756 0.947731 1.83918 0
M  V30 7221 C 742.171 -0.503927 1.81951 0
M  V30 7222 O 741.528 -1.34941 1.2287 0
M  V30 7223 C 741.579 1.4503 3.31132 0
M  V30 7224 O 741.3 2.84508 3.33146 0
M  V30 7225 C 742.801 1.28806 4.24174 0
M  V30 7226 H 740.021 0.336786 0.580358 0
M  V30 7227 H 742.565 1.52799 1.35914 0
M  V30 7228 H 740.72 0.912632 3.76497 0
M  V30 7229 H 741.134 3.0723 4.251 0
M  V30 7230 H 742.608 1.6882 5.25551 0
M  V30 7231 H 743.085 0.231851 4.38588 0
M  V30 7232 H 743.691 1.81465 3.84643 0
M  V30 7233 N 742.006 -1.2595 0.947325 0
M  V30 7234 C 743.252 -1.9375 0.599064 0
M  V30 7235 C 743.585 -1.74088 -0.860632 0
M  V30 7236 O 742.86 -1.08158 -1.61654 0
M  V30 7237 C 743.143 -3.47353 0.949634 0
M  V30 7238 C 742.996 -3.76273 2.46452 0
M  V30 7239 C 744.315 -4.37589 0.469442 0
M  V30 7240 H 741.434 -0.703674 0.219115 0
M  V30 7241 H 744.076 -1.48705 1.18266 0
M  V30 7242 H 742.226 -3.8585 0.453008 0
M  V30 7243 H 743.898 -3.47455 3.03435 0
M  V30 7244 H 742.141 -3.22135 2.90537 0
M  V30 7245 H 742.812 -4.83664 2.66032 0
M  V30 7246 H 745.288 -4.06353 0.89534 0
M  V30 7247 H 744.164 -5.43841 0.7435 0
M  V30 7248 H 744.425 -4.37579 -0.630618 0
M  V30 7249 N 743.484 -0.715051 -1.40445 0
M  V30 7250 C 744.432 -0.0509974 -2.32544 0
M  V30 7251 C 745.426 0.747602 -1.52011 0
M  V30 7252 O 746.632 0.651031 -1.67814 0
M  V30 7253 H 743.007 0.00231113 -0.751996 0
M  V30 7254 H 744.978 -0.84449 -2.86201 0
M  V30 7255 C 743.727 0.857101 -3.3697 0
M  V30 7256 H 743.05 0.252 -3.99005 0
M  V30 7257 H 744.49 1.28971 -4.03909 0
M  V30 7258 C 742.949 1.98231 -2.72408 0
M  V30 7259 O 743.479 3.07309 -2.58697 0
M  V30 7260 N 741.685 1.76577 -2.308 0
M  V30 7261 H 741.232 0.878641 -2.42152 0
M  V30 7262 H 741.19 2.52043 -1.87941 0
M  V30 7263 N 744.962 1.50701 -0.461195 0
M  V30 7264 C 746.208 2.02566 0.0973411 0
M  V30 7265 C 746.541 1.3432 1.40257 0
M  V30 7266 O 745.816 0.465692 1.88843 0
M  V30 7267 C 746.099 3.58919 0.291423 0
M  V30 7268 C 745.952 4.37751 -1.03413 0
M  V30 7269 C 747.271 4.27379 1.05048 0
M  V30 7270 H 744.39 0.73622 0.0339026 0
M  V30 7271 H 747.032 1.80115 -0.604855 0
M  V30 7272 H 745.182 3.78179 0.889539 0
M  V30 7273 H 746.854 4.30085 -1.66806 0
M  V30 7274 H 745.097 4.01885 -1.63313 0
M  V30 7275 H 745.768 5.45384 -0.852085 0
M  V30 7276 H 748.244 4.12534 0.543603 0
M  V30 7277 H 747.12 5.36609 1.15506 0
M  V30 7278 H 747.381 3.89868 2.0846 0
M  V30 7279 N 746.441 0.193421 1.56409 0
M  V30 7280 C 747.669 -0.451438 2.01915 0
M  V30 7281 C 748.084 -1.55306 1.07357 0
M  V30 7282 O 747.441 -1.82333 0.0781512 0
M  V30 7283 C 747.492 -1.00931 3.47124 0
M  V30 7284 O 747.213 0.0483623 4.38073 0
M  V30 7285 C 748.714 -1.73021 4.0814 0
M  V30 7286 H 745.934 -0.113495 0.661332 0
M  V30 7287 H 748.478 0.301636 2.02263 0
M  V30 7288 H 746.633 -1.71277 3.47481 0
M  V30 7289 H 747.047 -0.366644 5.23217 0
M  V30 7290 H 748.521 -2.07289 5.11601 0
M  V30 7291 H 748.998 -2.6333 3.51502 0
M  V30 7292 H 749.604 -1.07264 4.11551 0
M  V30 7293 N 747.919 -1.57396 -0.0801906 0
M  V30 7294 C 748.851 -1.9982 -1.12271 0
M  V30 7295 C 749.864 -0.902902 -1.35468 0
M  V30 7296 O 751.053 -1.18088 -1.33856 0
M  V30 7297 C 748.153 -2.31476 -2.47532 0
M  V30 7298 C 747.326 -3.62745 -2.44407 0
M  V30 7299 C 746.385 -3.82168 -3.6171 0
M  V30 7300 O 745.411 -4.53852 -3.43522 0
M  V30 7301 N 746.613 -3.2388 -4.81749 0
M  V30 7302 H 749.378 -2.89864 -0.761501 0
M  V30 7303 H 746.939 -1.5965 -0.268965 0
M  V30 7304 H 748.931 -2.4165 -3.24634 0
M  V30 7305 H 747.501 -1.47364 -2.75686 0
M  V30 7306 H 746.721 -3.63403 -1.52747 0
M  V30 7307 H 748.009 -4.48954 -2.39412 0
M  V30 7308 H 747.407 -2.6568 -4.9943 0
M  V30 7309 H 745.964 -3.39515 -5.56392 0
M  V30 7310 N 749.397 0.351382 -1.53633 0
M  V30 7311 C 750.622 1.11718 -1.74739 0
M  V30 7312 C 751.047 1.81829 -0.481657 0
M  V30 7313 O 750.405 1.72264 0.565233 0
M  V30 7314 C 750.453 2.11234 -2.92254 0
M  V30 7315 O 749.557 3.186 -2.61855 0
M  V30 7316 H 748.898 0.323482 -0.579875 0
M  V30 7317 H 751.428 0.404167 -2.00568 0
M  V30 7318 H 751.438 2.54591 -3.18822 0
M  V30 7319 H 750.113 1.59599 -3.84058 0
M  V30 7320 H 748.69 2.80115 -2.4615 0
M  V30 7321 N 750.875 1.45233 0.611969 0
M  V30 7322 C 752.123 1.48727 1.36838 0
M  V30 7323 C 752.444 0.128616 1.94575 0
M  V30 7324 O 751.714 -0.84149 1.76906 0
M  V30 7325 H 750.294 0.547695 0.507976 0
M  V30 7326 H 752.956 1.81156 0.718925 0
M  V30 7327 H 752.052 2.2236 2.19003 0
M  V30 7328 N 752.353 -0.854086 1.3245 0
M  V30 7329 C 753.769 -1.14238 1.11453 0
M  V30 7330 C 753.969 -2.01228 -0.10461 0
M  V30 7331 O 753.025 -2.39845 -0.789339 0
M  V30 7332 C 754.338 -1.81916 2.39431 0
M  V30 7333 C 755.886 -1.94549 2.45193 0
M  V30 7334 C 756.361 -2.65642 3.73093 0
M  V30 7335 N 757.852 -2.73167 3.74078 0
M  V30 7336 C 758.587 -3.28828 4.69744 0
M  V30 7337 N 758.083 -3.85295 5.75778 0
M  V30 7338 N 759.876 -3.26936 4.57241 0
M  V30 7339 H 752.027 -0.274786 2.10615 0
M  V30 7340 H 754.29 -0.184375 0.929898 0
M  V30 7341 H 753.996 -1.25452 3.28565 0
M  V30 7342 H 753.87 -2.82068 2.50434 0
M  V30 7343 H 756.257 -2.50172 1.56518 0
M  V30 7344 H 756.338 -0.933914 2.38142 0
M  V30 7345 H 755.982 -2.10683 4.62142 0
M  V30 7346 H 755.912 -3.6724 3.77415 0
M  V30 7347 H 758.403 -2.33108 2.97438 0
M  V30 7348 H 758.716 -4.25925 6.44832 0
M  V30 7349 H 757.061 -3.83625 5.79531 0
M  V30 7350 H 760.252 -2.8207 3.7357 0
M  V30 7351 H 760.425 -3.70014 5.31971 0
M  V30 7352 N 753.831 -1.1567 -1.07043 0
M  V30 7353 C 755.061 -0.956083 -1.83146 0
M  V30 7354 C 755.469 0.498969 -1.82502 0
M  V30 7355 O 754.812 1.35791 -1.23719 0
M  V30 7356 C 754.874 -1.39704 -3.31245 0
M  V30 7357 C 754.538 -2.87045 -3.55604 0
M  V30 7358 C 755.535 -3.85092 -3.49285 0
M  V30 7359 C 753.22 -3.24787 -3.8317 0
M  V30 7360 C 755.214 -5.18885 -3.70185 0
M  V30 7361 C 752.901 -4.58751 -4.03721 0
M  V30 7362 C 753.899 -5.55609 -3.97224 0
M  V30 7363 O 753.587 -6.87154 -4.17223 0
M  V30 7364 H 753.319 -0.339473 -0.58458 0
M  V30 7365 H 755.873 -1.53922 -1.36005 0
M  V30 7366 H 754.103 -0.757326 -3.79212 0
M  V30 7367 H 755.792 -1.16503 -3.88821 0
M  V30 7368 H 756.558 -3.5728 -3.27988 0
M  V30 7369 H 752.437 -2.49979 -3.87339 0
M  V30 7370 H 755.981 -5.94473 -3.6503 0
M  V30 7371 H 751.878 -4.86277 -4.24505 0
M  V30 7372 H 752.646 -6.93618 -4.34553 0
M  V30 7373 N 755.309 1.25446 -0.953992 0
M  V30 7374 C 756.259 2.23627 -0.444413 0
M  V30 7375 C 757.243 1.54004 0.465993 0
M  V30 7376 O 758.435 1.74454 0.29915 0
M  V30 7377 C 755.564 3.42179 0.277175 0
M  V30 7378 C 754.65 4.1907 -0.651263 0
M  V30 7379 N 755.041 4.73346 -1.78262 0
M  V30 7380 C 753.339 4.43628 -0.459338 0
M  V30 7381 C 754.04 5.31576 -2.36224 0
M  V30 7382 N 753.016 5.17991 -1.64884 0
M  V30 7383 H 756.818 2.63197 -1.30785 0
M  V30 7384 H 754.332 1.40677 -0.811402 0
M  V30 7385 H 756.329 4.11653 0.659367 0
M  V30 7386 H 754.989 3.04134 1.13723 0
M  V30 7387 H 756 4.705 -2.1645 0
M  V30 7388 H 752.677 4.15963 0.357885 0
M  V30 7389 H 754.067 5.84361 -3.3162 0
M  V30 7390 N 756.787 0.722489 1.40064 0
M  V30 7391 C 758.033 0.265371 2.01056 0
M  V30 7392 C 758.366 -1.14062 1.57174 0
M  V30 7393 O 757.641 -1.77514 0.794916 0
M  V30 7394 C 757.924 0.353157 3.58364 0
M  V30 7395 C 757.777 1.79802 4.123 0
M  V30 7396 C 759.096 -0.271677 4.39261 0
M  V30 7397 H 756.215 0.0979002 0.730469 0
M  V30 7398 H 758.857 0.916289 1.66446 0
M  V30 7399 H 757.007 -0.201037 3.87979 0
M  V30 7400 H 758.679 2.40813 3.93455 0
M  V30 7401 H 756.922 2.32348 3.66329 0
M  V30 7402 H 757.593 1.81079 5.21454 0
M  V30 7403 H 760.069 0.200607 4.15616 0
M  V30 7404 H 758.945 -0.179843 5.48605 0
M  V30 7405 H 759.206 -1.35611 4.20787 0
M  V30 7406 N 758.265 -1.50454 0.469181 0
M  V30 7407 C 759.198 -2.25149 -0.371928 0
M  V30 7408 C 760.176 -1.28382 -0.997845 0
M  V30 7409 O 761.36 -1.57599 -1.03415 0
M  V30 7410 C 758.487 -3.02629 -1.52097 0
M  V30 7411 C 757.533 -4.14305 -1.01262 0
M  V30 7412 S 758.366 -5.35453 0.0711459 0
M  V30 7413 C 759.522 -6.1648 -1.08181 0
M  V30 7414 H 759.755 -2.96142 0.262134 0
M  V30 7415 H 757.288 -1.52296 0.254042 0
M  V30 7416 H 759.246 -3.47861 -2.17952 0
M  V30 7417 H 757.907 -2.31165 -2.12654 0
M  V30 7418 H 757.1 -4.67913 -1.87278 0
M  V30 7419 H 756.702 -3.71499 -0.431804 0
M  V30 7420 H 758.994 -6.47497 -1.99382 0
M  V30 7421 H 759.937 -7.05679 -0.585028 0
M  V30 7422 H 760.345 -5.48492 -1.33478 0
M  V30 7423 N 759.743 -0.201713 -1.56304 0
M  V30 7424 C 760.673 0.71155 -2.22394 0
M  V30 7425 C 761.654 1.21625 -1.18917 0
M  V30 7426 O 762.839 1.26388 -1.47444 0
M  V30 7427 C 759.969 1.92837 -2.88845 0
M  V30 7428 C 758.923 1.55831 -3.98623 0
M  V30 7429 C 758.249 2.85228 -4.52271 0
M  V30 7430 C 759.549 0.763249 -5.16693 0
M  V30 7431 H 761.243 0.160573 -2.98969 0
M  V30 7432 H 758.789 0.0757916 -1.438 0
M  V30 7433 H 760.742 2.57253 -3.33764 0
M  V30 7434 H 759.466 2.50398 -2.09686 0
M  V30 7435 H 758.125 0.9377 -3.54405 0
M  V30 7436 H 757.773 3.40893 -3.69866 0
M  V30 7437 H 757.473 2.6121 -5.26349 0
M  V30 7438 H 758.997 3.50622 -4.99897 0
M  V30 7439 H 760.411 1.31066 -5.58117 0
M  V30 7440 H 758.808 0.620935 -5.96879 0
M  V30 7441 H 759.878 -0.234322 -4.84334 0
M  V30 7442 N 761.222 1.57436 0.0718424 0
M  V30 7443 C 762.17 2.04725 1.10411 0
M  V30 7444 C 763.164 0.952579 1.4008 0
M  V30 7445 O 764.37 1.13769 1.39487 0
M  V30 7446 H 760.745 0.652749 0.373393 0
M  V30 7447 H 762.716 2.90569 0.679126 0
M  V30 7448 C 761.465 2.5068 2.40946 0
M  V30 7449 H 760.788 3.34505 2.18967 0
M  V30 7450 H 762.228 2.87521 3.11621 0
M  V30 7451 C 760.687 1.38971 3.06902 0
M  V30 7452 O 761.217 0.731786 3.94978 0
M  V30 7453 N 759.423 1.13485 2.67525 0
M  V30 7454 H 758.97 1.67168 1.95991 0
M  V30 7455 H 758.928 0.389467 3.11978 0
M  V30 7456 N 762.7 -0.34323 1.53817 0
M  V30 7457 C 763.663 -1.40444 1.8113 0
M  V30 7458 C 764.663 -1.45604 0.682366 0
M  V30 7459 O 765.853 -1.45974 0.950649 0
M  V30 7460 C 762.985 -2.79369 1.95361 0
M  V30 7461 H 764.178 -1.17489 2.75928 0
M  V30 7462 H 761.731 -0.577636 1.45234 0
M  V30 7463 H 762.466 -3.07607 1.02707 0
M  V30 7464 H 762.251 -2.7702 2.77493 0
M  V30 7465 H 763.741 -3.56178 2.18008 0
M  V30 7466 N 764.178 -1.45556 -0.604258 0
M  V30 7467 C 765.408 -1.53056 -1.38771 0
M  V30 7468 C 765.816 -0.163092 -1.88496 0
M  V30 7469 O 765.159 0.846157 -1.63052 0
M  V30 7470 C 765.221 -2.45656 -2.62476 0
M  V30 7471 C 764.885 -3.92328 -2.34367 0
M  V30 7472 C 765.882 -4.82137 -1.94525 0
M  V30 7473 C 763.567 -4.37275 -2.47177 0
M  V30 7474 C 765.561 -6.14901 -1.67856 0
M  V30 7475 C 763.248 -5.70079 -2.20122 0
M  V30 7476 C 764.246 -6.58711 -1.80524 0
M  V30 7477 O 763.934 -7.89053 -1.53788 0
M  V30 7478 H 763.666 -0.520721 -0.431075 0
M  V30 7479 H 766.22 -1.91464 -0.743693 0
M  V30 7480 H 764.45 -2.02225 -3.29609 0
M  V30 7481 H 766.139 -2.43802 -3.24523 0
M  V30 7482 H 766.905 -4.48675 -1.84162 0
M  V30 7483 H 762.784 -3.68527 -2.76964 0
M  V30 7484 H 766.328 -6.8404 -1.36874 0
M  V30 7485 H 762.225 -6.03095 -2.30102 0
M  V30 7486 H 762.993 -8.01113 -1.67812 0
M  V30 7487 N 765.656 0.84705 -1.32902 0
M  V30 7488 C 766.881 1.63925 -1.27056 0
M  V30 7489 C 767.306 1.87443 0.157136 0
M  V30 7490 O 766.664 1.43266 1.11106 0
M  V30 7491 C 766.712 2.97134 -2.04313 0
M  V30 7492 O 765.816 3.88049 -1.39614 0
M  V30 7493 H 765.157 0.499477 -0.437514 0
M  V30 7494 H 767.687 1.05443 -1.75336 0
M  V30 7495 H 767.697 3.46896 -2.14772 0
M  V30 7496 H 766.372 2.79339 -3.08128 0
M  V30 7497 H 764.949 3.46525 -1.3775 0
M  V30 7498 N 767.134 1.16236 1.06428 0
M  V30 7499 C 768.097 0.870163 2.1204 0
M  V30 7500 C 769.097 -0.134239 1.60239 0
M  V30 7501 O 770.287 0.0964932 1.73933 0
M  V30 7502 C 767.419 0.301033 3.39568 0
M  V30 7503 H 768.612 1.8064 2.39394 0
M  V30 7504 H 766.165 0.971116 1.2247 0
M  V30 7505 H 766.9 -0.642948 3.17863 0
M  V30 7506 H 766.685 1.02475 3.78472 0
M  V30 7507 H 768.175 0.114494 4.17443 0
M  V30 7508 N 768.612 -1.24939 0.960631 0
M  V30 7509 C 769.842 -1.96595 0.635123 0
M  V30 7510 C 770.25 -1.71538 -0.798206 0
M  V30 7511 O 769.593 -0.991727 -1.5463 0
M  V30 7512 C 769.655 -3.49994 0.821248 0
M  V30 7513 C 769.319 -3.98738 2.23287 0
M  V30 7514 C 770.316 -4.08965 3.21004 0
M  V30 7515 C 768.001 -4.32247 2.55867 0
M  V30 7516 C 769.995 -4.52025 4.49391 0
M  V30 7517 C 767.682 -4.74991 3.84482 0
M  V30 7518 C 768.68 -4.84844 4.81056 0
M  V30 7519 O 768.368 -5.26638 6.07378 0
M  V30 7520 H 768.1 -0.633265 0.23654 0
M  V30 7521 H 770.654 -1.5991 1.28911 0
M  V30 7522 H 768.884 -3.86543 0.110105 0
M  V30 7523 H 770.573 -4.02859 0.495892 0
M  V30 7524 H 771.339 -3.83302 2.97161 0
M  V30 7525 H 767.218 -4.23801 1.81421 0
M  V30 7526 H 770.762 -4.5963 5.24773 0
M  V30 7527 H 766.659 -5.00101 4.08129 0
M  V30 7528 H 767.427 -5.44807 6.10842 0
M  V30 7529 N 770.09 -0.729906 -1.39679 0
M  V30 7530 C 771.315 -0.284345 -2.05442 0
M  V30 7531 C 771.74 1.07056 -1.54663 0
M  V30 7532 O 771.098 1.67732 -0.688157 0
M  V30 7533 C 771.146 -0.290089 -3.59431 0
M  V30 7534 O 770.25 0.723978 -4.05995 0
M  V30 7535 H 769.591 -0.130311 -0.651088 0
M  V30 7536 H 772.121 -0.994403 -1.78809 0
M  V30 7537 H 772.131 -0.132712 -4.07784 0
M  V30 7538 H 770.806 -1.27877 -3.95753 0
M  V30 7539 H 769.383 0.533154 -3.69069 0
M  V30 7540 N 771.568 1.50203 -0.477153 0
M  V30 7541 C 772.816 2.01959 0.0755889 0
M  V30 7542 C 773.137 1.3608 1.39668 0
M  V30 7543 O 772.407 0.508136 1.89195 0
M  V30 7544 H 770.987 0.74636 0.0309248 0
M  V30 7545 H 773.649 1.84473 -0.628959 0
M  V30 7546 H 772.745 3.11305 0.222683 0
M  V30 7547 N 773.046 0.209999 1.56195 0
M  V30 7548 C 773.976 -0.699746 2.22769 0
M  V30 7549 C 774.957 -1.20993 1.1956 0
M  V30 7550 O 776.142 -1.25605 1.48112 0
M  V30 7551 C 773.272 -1.91302 2.89863 0
M  V30 7552 C 772.226 -1.53715 3.99444 0
M  V30 7553 C 771.552 -2.82826 4.53777 0
M  V30 7554 C 772.852 -0.735836 5.17091 0
M  V30 7555 H 774.546 -0.144716 2.9905 0
M  V30 7556 H 772.092 -0.0681645 1.43839 0
M  V30 7557 H 774.045 -2.5548 3.35124 0
M  V30 7558 H 772.769 -2.49283 2.11011 0
M  V30 7559 H 771.428 -0.918892 3.54897 0
M  V30 7560 H 771.076 -3.38927 3.71669 0
M  V30 7561 H 770.776 -2.58415 5.27727 0
M  V30 7562 H 772.3 -3.47966 5.01749 0
M  V30 7563 H 773.714 -1.28105 5.58804 0
M  V30 7564 H 772.111 -0.589272 5.972 0
M  V30 7565 H 773.181 0.260004 4.84202 0
M  V30 7566 N 774.524 -1.57472 -0.0634922 0
M  V30 7567 C 775.752 -1.91887 -0.773767 0
M  V30 7568 C 776.167 -0.806733 -1.70696 0
M  V30 7569 O 775.524 0.219383 -1.81177 0
M  V30 7570 C 775.575 -3.26092 -1.56034 0
M  V30 7571 O 775.296 -4.33029 -0.66464 0
M  V30 7572 C 776.797 -3.74573 -2.37087 0
M  V30 7573 H 774.017 -0.634074 -0.219525 0
M  V30 7574 H 776.561 -2.04476 -0.0312828 0
M  V30 7575 H 774.716 -3.15004 -2.25502 0
M  V30 7576 H 775.13 -5.10291 -1.21258 0
M  V30 7577 H 776.604 -4.71084 -2.87722 0
M  V30 7578 H 777.081 -3.04003 -3.16984 0
M  V30 7579 H 777.687 -3.88631 -1.72759 0
M  V30 7580 N 776.003 0.335068 -1.53997 0
M  V30 7581 C 776.933 1.41727 -1.85568 0
M  V30 7582 C 777.914 1.54505 -0.7115 0
M  V30 7583 O 779.099 1.68573 -0.964191 0
M  V30 7584 C 776.229 2.7866 -2.07282 0
M  V30 7585 C 775.183 2.80682 -3.23112 0
M  V30 7586 C 774.509 4.20581 -3.30175 0
M  V30 7587 C 775.809 2.45458 -4.61029 0
M  V30 7588 H 777.503 1.15555 -2.76202 0
M  V30 7589 H 775.049 0.554445 -1.32898 0
M  V30 7590 H 777.002 3.54423 -2.27952 0
M  V30 7591 H 775.726 3.06286 -1.13387 0
M  V30 7592 H 774.385 2.07373 -3.02311 0
M  V30 7593 H 774.033 4.4533 -2.33859 0
M  V30 7594 H 773.733 4.22843 -4.08016 0
M  V30 7595 H 775.257 4.98174 -3.53066 0
M  V30 7596 H 776.671 3.10934 -4.81656 0
M  V30 7597 H 775.068 2.5899 -5.41336 0
M  V30 7598 H 776.138 1.40628 -4.6406 0
M  V30 7599 N 777.481 1.45874 0.596531 0
M  V30 7600 C 778.413 1.51408 1.7207 0
M  V30 7601 C 779.426 0.403738 1.57714 0
M  V30 7602 O 780.615 0.671384 1.65393 0
M  V30 7603 C 777.715 1.3652 3.10186 0
M  V30 7604 C 776.888 2.61428 3.50677 0
M  V30 7605 C 775.947 2.40937 4.67799 0
M  V30 7606 O 774.973 3.14602 4.74357 0
M  V30 7607 N 776.175 1.4621 5.61785 0
M  V30 7608 H 778.94 2.48333 1.67782 0
M  V30 7609 H 776.501 1.41755 0.782129 0
M  V30 7610 H 778.493 1.20606 3.86311 0
M  V30 7611 H 777.063 0.478302 3.08919 0
M  V30 7612 H 776.283 2.92381 2.644 0
M  V30 7613 H 777.571 3.44432 3.74491 0
M  V30 7614 H 776.969 0.854382 5.59211 0
M  V30 7615 H 775.526 1.36264 6.37397 0
M  V30 7616 N 778.959 -0.83999 1.33349 0
M  V30 7617 C 779.922 -1.93128 1.23426 0
M  V30 7618 C 780.922 -1.60065 0.153599 0
M  V30 7619 O 782.112 -1.69425 0.405049 0
M  V30 7620 C 779.244 -3.28761 0.901622 0
M  V30 7621 H 780.437 -2.03352 2.20427 0
M  V30 7622 H 777.99 -1.03194 1.17391 0
M  V30 7623 H 778.725 -3.24233 -0.0659337 0
M  V30 7624 H 778.51 -3.54138 1.68311 0
M  V30 7625 H 780 -4.08714 0.856913 0
M  V30 7626 N 780.437 -1.16799 -1.0581 0
M  V30 7627 C 781.385 -0.875111 -2.1551 0
M  V30 7628 C 782.379 0.157781 -1.68664 0
M  V30 7629 O 783.585 0.011297 -1.79996 0
M  V30 7630 H 779.96 -0.26542 -0.703602 0
M  V30 7631 H 781.931 -1.8076 -2.37421 0
M  V30 7632 C 780.68 -0.39802 -3.45414 0
M  V30 7633 H 780.003 -1.18425 -3.81858 0
M  V30 7634 H 781.443 -0.231913 -4.23365 0
M  V30 7635 C 779.902 0.88327 -3.25115 0
M  V30 7636 O 780.432 1.95145 -3.51114 0
M  V30 7637 N 778.638 0.828961 -2.78526 0
M  V30 7638 H 778.185 -0.0405029 -2.57568 0
M  V30 7639 H 778.143 1.68673 -2.65324 0
M  V30 7640 N 781.915 1.24427 -0.967243 0
M  V30 7641 C 783.162 1.92487 -0.62888 0
M  V30 7642 C 783.49 1.75623 0.835871 0
M  V30 7643 O 782.745 1.1027 1.61675 0
M  V30 7644 C 783.044 3.44568 -0.949096 0
M  V30 7645 C 782.71 3.816 -2.40192 0
M  V30 7646 C 781.372 3.9142 -2.799 0
M  V30 7647 C 783.724 3.99715 -3.34481 0
M  V30 7648 C 781.052 4.16771 -4.12939 0
M  V30 7649 C 783.404 4.26562 -4.67148 0
M  V30 7650 C 782.068 4.34601 -5.06634 0
M  V30 7651 H 781.338 0.704361 -0.230124 0
M  V30 7652 H 783.985 1.4772 -1.21864 0
M  V30 7653 H 782.29 3.90819 -0.277085 0
M  V30 7654 H 783.987 3.95436 -0.665692 0
M  V30 7655 H 780.577 3.74522 -2.08402 0
M  V30 7656 H 784.761 3.91531 -3.04987 0
M  V30 7657 H 780.017 4.21214 -4.43158 0
M  V30 7658 H 784.191 4.39523 -5.40178 0
M  V30 7659 H 781.818 4.53998 -6.09746 0
M  V30 7660 O 783.432 0.875006 1.35742 0
M  V30 7661 H 784.123 0.476549 1.87746 0
M  V30 END ATOM
M  V30 BEGIN BOND
M  V30 END BOND
M  V30 END CTAB
M  END
$$$$
